# generated using pymatgen
data_Y7In(IO6)4
_symmetry_space_group_name_H-M   'P 1'
_cell_length_a   5.49197496
_cell_length_b   7.63791385
_cell_length_c   11.61318425
_cell_angle_alpha   75.76742264
_cell_angle_beta   91.20721148
_cell_angle_gamma   90.18614945
_symmetry_Int_Tables_number   1
_chemical_formula_structural   Y7In(IO6)4
_chemical_formula_sum   'Y7 In1 I4 O24'
_cell_volume   472.08274338
_cell_formula_units_Z   1
loop_
 _symmetry_equiv_pos_site_id
 _symmetry_equiv_pos_as_xyz
  1  'x, y, z'
loop_
 _atom_site_type_symbol
 _atom_site_label
 _atom_site_symmetry_multiplicity
 _atom_site_fract_x
 _atom_site_fract_y
 _atom_site_fract_z
 _atom_site_occupancy
  Y  Y0  1  0.26041230  0.97666423  0.74651284  1
  Y  Y1  1  0.73939726  0.02021311  0.25101480  1
  Y  Y2  1  0.31134436  0.50451385  0.74909045  1
  Y  Y3  1  0.18205963  0.22508617  0.41588571  1
  Y  Y4  1  0.68737097  0.49734961  0.25228980  1
  Y  Y5  1  0.82859175  0.19192126  0.92770205  1
  Y  Y6  1  0.81143207  0.77367935  0.58330682  1
  In  In0  1  0.17751408  0.80896407  0.07003200  1
  I  I0  1  0.74473805  0.70714855  0.89683261  1
  I  I1  1  0.24719084  0.73418373  0.37931958  1
  I  I2  1  0.74623662  0.26418261  0.61929154  1
  I  I3  1  0.26142621  0.29723740  0.10571196  1
  O  O0  1  0.85373189  0.36756418  0.46903447  1
  O  O1  1  0.48141114  0.83586247  0.93737578  1
  O  O2  1  0.86135050  0.63494089  0.06407983  1
  O  O3  1  0.02199630  0.29572432  0.71454490  1
  O  O4  1  0.93089708  0.27810990  0.26148709  1
  O  O5  1  0.15424038  0.36706425  0.93676188  1
  O  O6  1  0.62466016  0.47918450  0.89678020  1
  O  O7  1  0.52876306  0.17344758  0.06733818  1
  O  O8  1  0.14851078  0.63615732  0.53233066  1
  O  O9  1  0.06207599  0.71994372  0.73810850  1
  O  O10  1  0.44563395  0.22789716  0.27138796  1
  O  O11  1  0.07199734  0.94433745  0.39348615  1
  O  O12  1  0.46557596  0.16621925  0.56459281  1
  O  O13  1  0.96370353  0.70017390  0.29345946  1
  O  O14  1  0.92772386  0.05641424  0.60474502  1
  O  O15  1  0.58986709  0.17219586  0.76810968  1
  O  O16  1  0.54957346  0.77371754  0.72782780  1
  O  O17  1  0.98310482  0.03147309  0.10462369  1
  O  O18  1  0.62394392  0.48827590  0.62420282  1
  O  O19  1  0.37843356  0.52802680  0.10504781  1
  O  O20  1  0.40041389  0.82107184  0.22590255  1
  O  O21  1  0.37020184  0.50998137  0.37582386  1
  O  O22  1  0.53412745  0.83280938  0.42844335  1
  O  O23  1  0.03034592  0.95826218  0.89751440  1
loop_
_geom_bond_atom_site_label_1
_geom_bond_atom_site_label_2
_geom_bond_distance
_geom_bond_site_symmetry_2
In0 O17 2.134298 1_465
In0 O20 2.184487 1_555
In0 O23 2.186755 1_554
In0 O2 2.193527 1_455
In0 O1 2.269706 1_554
In0 O19 2.356845 1_555
I0 O6 1.860002 1_555
I0 O1 1.882862 1_555
I0 O2 1.977348 1_556
I0 O16 2.164183 1_555
I0 O23 2.475172 1_655
I0 O9 2.547616 1_655
I1 O8 1.842707 1_555
I1 O21 1.852930 1_555
I1 O22 1.881999 1_555
I1 O13 1.882811 1_455
I1 O11 1.917246 1_555
I1 O20 1.949615 1_555
I2 O0 1.838419 1_555
I2 O18 1.854998 1_555
I2 O12 1.877282 1_555
I2 O3 1.906145 1_655
I2 O15 1.918211 1_555
I2 O14 1.920805 1_555
I3 O7 1.868681 1_555
I3 O19 1.872550 1_555
I3 O5 1.979755 1_554
I3 O10 2.103863 1_555
I3 O17 2.539419 1_455
I3 O4 2.568237 1_455
O0 Y3 2.281790 1_655
O0 Y4 2.614430 1_555
O1 Y0 2.503131 1_555
O2 Y4 2.397236 1_555
O3 Y2 2.345323 1_555
O3 Y5 2.650442 1_455
O3 Y0 2.710427 1_545
O4 Y4 2.127158 1_555
O4 Y3 2.196385 1_655
O4 Y1 2.258300 1_555
O5 Y5 2.246082 1_455
O5 Y2 2.354764 1_555
O6 Y2 2.377960 1_555
O6 Y5 2.410179 1_555
O7 Y5 2.315063 1_554
O7 Y1 2.436232 1_555
O8 Y6 2.290279 1_455
O8 Y2 2.610325 1_555
O9 Y2 2.121770 1_555
O9 Y6 2.198123 1_455
O9 Y0 2.261974 1_555
O10 Y3 2.235224 1_555
O10 Y1 2.322147 1_555
O10 Y4 2.411958 1_555
O11 Y3 2.300097 1_565
O11 Y1 2.412054 1_465
O11 Y6 2.704483 1_455
O12 Y3 2.262398 1_555
O12 Y0 2.532738 1_545
O13 Y4 2.291280 1_555
O13 Y1 2.671566 1_565
O14 Y6 2.319925 1_545
O14 Y0 2.409835 1_645
O14 Y3 2.673795 1_655
O15 Y5 2.282594 1_555
O15 Y0 2.390520 1_545
O15 Y2 2.926849 1_555
O16 Y6 2.233158 1_555
O16 Y0 2.273263 1_555
O16 Y2 2.397290 1_555
O17 Y1 2.170777 1_555
O17 Y5 2.266844 1_554
O18 Y2 2.293685 1_555
O18 Y6 2.352585 1_555
O19 Y4 2.353903 1_555
O20 Y1 2.457903 1_565
O20 Y4 2.885052 1_555
O21 Y4 2.296969 1_555
O21 Y3 2.350946 1_555
O22 Y6 2.290735 1_555
O22 Y1 2.490495 1_565
O23 Y0 2.159257 1_555
O23 Y5 2.207382 1_465
