# generated using pymatgen
data_YH2Cl
_symmetry_space_group_name_H-M   'P 1'
_cell_length_a   10.74489308
_cell_length_b   10.74489336
_cell_length_c   10.74489250
_cell_angle_alpha   19.83430734
_cell_angle_beta   19.83430285
_cell_angle_gamma   19.83430997
_symmetry_Int_Tables_number   1
_chemical_formula_structural   YH2Cl
_chemical_formula_sum   'Y2 H4 Cl2'
_cell_volume   124.91716946
_cell_formula_units_Z   2
loop_
 _symmetry_equiv_pos_site_id
 _symmetry_equiv_pos_as_xyz
  1  'x, y, z'
loop_
 _atom_site_type_symbol
 _atom_site_label
 _atom_site_symmetry_multiplicity
 _atom_site_fract_x
 _atom_site_fract_y
 _atom_site_fract_z
 _atom_site_occupancy
  Y  Y0  1  0.88442561  0.88442561  0.88442561  1
  Y  Y1  1  0.11557439  0.11557439  0.11557439  1
  H  H0  1  0.81445891  0.81445891  0.81445891  1
  H  H1  1  0.18554109  0.18554109  0.18554109  1
  H  H2  1  0.54409697  0.54409697  0.54409697  1
  H  H3  1  0.45590303  0.45590303  0.45590303  1
  Cl  Cl0  1  0.72620457  0.72620457  0.72620457  1
  Cl  Cl1  1  0.27379543  0.27379543  0.27379543  1
loop_
_geom_bond_atom_site_label_1
_geom_bond_atom_site_label_2
_geom_bond_distance
_geom_bond_site_symmetry_2
H0 Y0 2.210306 1_555
H0 Y1 2.366819 1_665
H0 Y1 2.366820 1_566
H0 Y1 2.366820 1_656
H1 Y1 2.210306 1_555
H1 Y0 2.366819 1_445
H1 Y0 2.366820 1_544
H1 Y0 2.366820 1_454
H2 Y0 2.148203 1_554
H2 Y0 2.148203 1_455
H2 Y0 2.148204 1_545
H3 Y1 2.148203 1_556
H3 Y1 2.148203 1_655
H3 Y1 2.148204 1_565
Cl0 Y1 2.774832 1_566
Cl0 Y1 2.774832 1_665
Cl0 Y1 2.774832 1_656
Cl1 Y0 2.774832 1_544
Cl1 Y0 2.774832 1_445
Cl1 Y0 2.774832 1_454
