# generated using pymatgen
data_SrSi6(As3Pt2)2
_symmetry_space_group_name_H-M   'P 1'
_cell_length_a   7.35927826
_cell_length_b   7.37832802
_cell_length_c   7.35927935
_cell_angle_alpha   109.45910028
_cell_angle_beta   109.48871853
_cell_angle_gamma   109.36132905
_symmetry_Int_Tables_number   1
_chemical_formula_structural   SrSi6(As3Pt2)2
_chemical_formula_sum   'Sr1 Si6 As6 Pt4'
_cell_volume   308.01016527
_cell_formula_units_Z   1
loop_
 _symmetry_equiv_pos_site_id
 _symmetry_equiv_pos_as_xyz
  1  'x, y, z'
loop_
 _atom_site_type_symbol
 _atom_site_label
 _atom_site_symmetry_multiplicity
 _atom_site_fract_x
 _atom_site_fract_y
 _atom_site_fract_z
 _atom_site_occupancy
  Sr  Sr0  1  0.00309878  0.99341923  0.99031944  1
  Si  Si0  1  0.14306576  0.34798571  0.49772818  1
  Si  Si1  1  0.51265628  0.15802662  0.36218687  1
  Si  Si2  1  0.85025853  0.34798571  0.20491995  1
  Si  Si3  1  0.63637562  0.48370783  0.84733221  1
  Si  Si4  1  0.35826904  0.21192959  0.85365955  1
  Si  Si5  1  0.79583976  0.15802662  0.64537134  1
  As  As0  1  0.85132349  0.63789159  0.49448266  1
  As  As1  1  0.34906522  0.48990695  0.14084173  1
  As  As2  1  0.21539589  0.86584294  0.35594226  1
  As  As3  1  0.14340793  0.63789159  0.78656710  1
  As  As4  1  0.64733192  0.78982044  0.14248952  1
  As  As5  1  0.50989968  0.86584294  0.65044705  1
  Pt  Pt0  1  0.00520777  0.01162744  0.51530961  1
  Pt  Pt1  1  0.49461241  0.49423368  0.50635858  1
  Pt  Pt2  1  0.98787509  0.49423368  0.99962227  1
  Pt  Pt3  1  0.49631783  0.01162744  0.00641867  1
loop_
_geom_bond_atom_site_label_1
_geom_bond_atom_site_label_2
_geom_bond_distance
_geom_bond_site_symmetry_2
Si0 Si2 2.487673 1_455
Si0 Sr0 3.314669 1_544
Si1 Si5 2.405911 1_555
Si1 Sr0 3.308307 1_544
Si2 Sr0 3.314660 1_644
Si3 Si4 2.369954 1_555
Si3 Sr0 3.357566 1_655
Si4 Sr0 3.237735 1_545
Si5 Sr0 3.308294 1_645
As0 Si2 2.461154 1_555
As0 As3 2.481528 1_655
As0 Pt1 2.528308 1_555
As0 Pt0 2.538116 1_665
As0 Sr0 3.225548 1_655
As1 Si4 2.444884 1_554
As1 Pt2 2.526206 1_454
As1 Pt1 2.526206 1_555
As1 As4 2.541414 1_555
As1 Sr0 3.218574 1_544
As2 Si1 2.485010 1_565
As2 As5 2.502087 1_555
As2 Pt0 2.529507 1_565
As2 Pt2 2.536446 1_454
As2 Sr0 3.228714 1_554
As3 Si0 2.461150 1_555
As3 Pt2 2.528318 1_455
As3 Pt3 2.538119 1_566
As3 Sr0 3.225548 1_555
As4 Si3 2.513894 1_554
As4 Pt0 2.543905 1_665
As4 Pt3 2.543916 1_565
As4 Sr0 3.291661 1_654
As5 Si5 2.485010 1_565
As5 Pt3 2.529497 1_566
As5 Pt1 2.536453 1_555
As5 Sr0 3.228711 1_655
Pt0 Si4 2.412580 1_555
Pt0 Si0 2.416039 1_555
Pt0 Si5 2.419861 1_455
Pt1 Si3 2.414110 1_555
Pt1 Si0 2.419779 1_555
Pt1 Si1 2.419873 1_555
Pt2 Si3 2.414110 1_555
Pt2 Si2 2.419769 1_556
Pt2 Si5 2.419873 1_555
Pt3 Si4 2.412584 1_554
Pt3 Si2 2.416043 1_555
Pt3 Si1 2.419865 1_555
