# generated using pymatgen
data_Ba4Re2RuO12
_symmetry_space_group_name_H-M   'P 1'
_cell_length_a   5.80411491
_cell_length_b   5.80385777
_cell_length_c   9.99513811
_cell_angle_alpha   89.99997605
_cell_angle_beta   73.11645054
_cell_angle_gamma   119.99847504
_symmetry_Int_Tables_number   1
_chemical_formula_structural   Ba4Re2RuO12
_chemical_formula_sum   'Ba4 Re2 Ru1 O12'
_cell_volume   274.70883389
_cell_formula_units_Z   1
loop_
 _symmetry_equiv_pos_site_id
 _symmetry_equiv_pos_as_xyz
  1  'x, y, z'
loop_
 _atom_site_type_symbol
 _atom_site_label
 _atom_site_symmetry_multiplicity
 _atom_site_fract_x
 _atom_site_fract_y
 _atom_site_fract_z
 _atom_site_occupancy
  Ba  Ba0  1  0.56889111  0.28444402  0.14677813  1
  Ba  Ba1  1  0.41810188  0.70904941  0.87290854  1
  Ba  Ba2  1  0.25200409  0.12600265  0.62212333  1
  Ba  Ba3  1  0.75212923  0.87606560  0.37204219  1
  Re  Re0  1  0.00066939  0.00033275  0.99901901  1
  Re  Re1  1  0.00927639  0.50463952  0.48608418  1
  Ru  Ru0  1  0.82659579  0.41329727  0.75999574  1
  O  O0  1  0.76315187  0.61532145  0.62124168  1
  O  O1  1  0.23084381  0.61542694  0.62122401  1
  O  O2  1  0.76315537  0.14783138  0.62123974  1
  O  O3  1  0.23269185  0.37975538  0.38747089  1
  O  O4  1  0.75966008  0.37983341  0.38743694  1
  O  O5  1  0.23268946  0.85294046  0.38747079  1
  O  O6  1  0.07812027  0.81185065  0.11006685  1
  O  O7  1  0.62372541  0.81186382  0.11015256  1
  O  O8  1  0.07812499  0.26626375  0.11006822  1
  O  O9  1  0.92142478  0.20066381  0.87789839  1
  O  O10  1  0.40132388  0.20065846  0.87788355  1
  O  O11  1  0.92142034  0.72075826  0.87789829  1
loop_
_geom_bond_atom_site_label_1
_geom_bond_atom_site_label_2
_geom_bond_distance
_geom_bond_site_symmetry_2
Ba0 O4 2.872734 1_555
Ba0 O5 2.872953 1_545
Ba0 O3 2.872974 1_555
Ba0 O6 2.926321 1_655
Ba0 O7 2.926331 1_545
Ba0 O8 2.926357 1_655
Ba0 O7 2.926361 1_555
Ba0 O8 2.926781 1_555
Ba0 O6 2.926824 1_545
Ba0 O9 3.073520 1_554
Ba0 O11 3.073522 1_554
Ba0 O10 3.074277 1_554
Ba1 O6 2.886022 1_556
Ba1 O8 2.886041 1_556
Ba1 O7 2.887065 1_556
Ba1 O11 2.902985 1_555
Ba1 O9 2.903014 1_565
Ba1 O10 2.903084 1_565
Ba1 O10 2.903107 1_555
Ba1 O9 2.903423 1_455
Ba1 O11 2.903447 1_455
Ba1 O0 2.966049 1_555
Ba1 O2 2.966074 1_565
Ba1 O1 2.966898 1_555
Ba2 O4 2.828305 1_555
Ba2 O5 2.828445 1_545
Ba2 O3 2.828452 1_555
Ba2 O10 2.895724 1_555
Ba2 O9 2.896058 1_455
Ba2 O11 2.896069 1_445
Ba2 O0 2.902891 1_555
Ba2 O2 2.902904 1_555
Ba2 O1 2.903976 1_545
Ba2 O1 2.904027 1_555
Ba2 O2 2.905270 1_455
Ba2 O0 2.905289 1_445
Ba3 O7 2.898567 1_555
Ba3 O8 2.898710 1_665
Ba3 O6 2.898740 1_655
Ba3 O5 2.906159 1_655
Ba3 O3 2.906182 1_665
Ba3 O4 2.906910 1_555
Ba3 O4 2.906938 1_565
Ba3 O3 2.908017 1_555
Ba3 O5 2.908034 1_555
Ba3 O2 2.947456 1_565
Ba3 O0 2.947475 1_555
Ba3 O1 2.948210 1_555
O0 Re1 2.018667 1_655
O0 Ru0 2.040142 1_555
O1 Re1 2.018383 1_555
O1 Ru0 2.040225 1_455
O2 Re1 2.018666 1_655
O2 Ru0 2.040149 1_555
O3 Re1 1.837336 1_555
O4 Re1 1.837459 1_655
O5 Re1 1.837343 1_555
O6 Re0 1.847232 1_564
O7 Re0 1.847242 1_664
O8 Re0 1.847234 1_554
O9 Re0 1.971593 1_655
O9 Ru0 2.066554 1_555
O10 Re0 1.971398 1_555
O10 Ru0 2.066068 1_555
O11 Re0 1.971590 1_665
O11 Ru0 2.066548 1_555
