# generated using pymatgen
data_Cs4ZnMo3N8
_symmetry_space_group_name_H-M   'P 1'
_cell_length_a   6.08444576
_cell_length_b   8.67616252
_cell_length_c   12.30174192
_cell_angle_alpha   90.00000000
_cell_angle_beta   90.00000000
_cell_angle_gamma   90.00000000
_symmetry_Int_Tables_number   1
_chemical_formula_structural   Cs4ZnMo3N8
_chemical_formula_sum   'Cs8 Zn2 Mo6 N16'
_cell_volume   649.40453059
_cell_formula_units_Z   2
loop_
 _symmetry_equiv_pos_site_id
 _symmetry_equiv_pos_as_xyz
  1  'x, y, z'
loop_
 _atom_site_type_symbol
 _atom_site_label
 _atom_site_symmetry_multiplicity
 _atom_site_fract_x
 _atom_site_fract_y
 _atom_site_fract_z
 _atom_site_occupancy
  Cs  Cs0  1  0.75000000  0.17394219  0.00000000  1
  Cs  Cs1  1  0.25000000  0.82605781  0.50000000  1
  Cs  Cs2  1  0.25000000  0.89667307  0.00000000  1
  Cs  Cs3  1  0.75000000  0.10332693  0.50000000  1
  Cs  Cs4  1  0.73028114  0.39046108  0.27683578  1
  Cs  Cs5  1  0.23028114  0.60953892  0.22316422  1
  Cs  Cs6  1  0.26971886  0.60953892  0.77683578  1
  Cs  Cs7  1  0.76971886  0.39046108  0.72316422  1
  Zn  Zn0  1  0.25000000  0.36723407  0.00000000  1
  Zn  Zn1  1  0.75000000  0.63276593  0.50000000  1
  Mo  Mo0  1  0.75000000  0.62238585  0.00000000  1
  Mo  Mo1  1  0.25000000  0.37761415  0.50000000  1
  Mo  Mo2  1  0.22411389  0.12301070  0.25029692  1
  Mo  Mo3  1  0.72411389  0.87698930  0.24970308  1
  Mo  Mo4  1  0.77588611  0.87698930  0.75029692  1
  Mo  Mo5  1  0.27588611  0.12301070  0.74970308  1
  N  N0  1  0.93822704  0.03408770  0.24436651  1
  N  N1  1  0.43822704  0.96591230  0.25563349  1
  N  N2  1  0.06177296  0.96591230  0.74436651  1
  N  N3  1  0.56177296  0.03408770  0.75563349  1
  N  N4  1  0.24522679  0.24983170  0.37136940  1
  N  N5  1  0.74522679  0.75016830  0.12863060  1
  N  N6  1  0.75477321  0.75016830  0.87136940  1
  N  N7  1  0.25477321  0.24983170  0.62863060  1
  N  N8  1  0.74198033  0.76392252  0.63234296  1
  N  N9  1  0.24198033  0.23607748  0.86765704  1
  N  N10  1  0.25801967  0.23607748  0.13234296  1
  N  N11  1  0.75801967  0.76392252  0.36765704  1
  N  N12  1  0.49045366  0.49425750  0.49806383  1
  N  N13  1  0.99045366  0.50574250  0.00193617  1
  N  N14  1  0.50954634  0.50574250  0.99806383  1
  N  N15  1  0.00954634  0.49425750  0.50193617  1
loop_
_geom_bond_atom_site_label_1
_geom_bond_atom_site_label_2
_geom_bond_distance
_geom_bond_site_symmetry_2
Cs0 N13 3.229278 1_555
Cs0 N14 3.229278 1_554
Cs0 N0 3.438138 1_555
Cs0 N3 3.438138 1_554
Cs0 N9 3.449895 1_654
Cs0 N10 3.449895 1_555
Cs0 N10 3.534906 1_655
Cs0 N9 3.534906 1_554
Cs1 N12 3.229278 1_555
Cs1 N15 3.229278 1_555
Cs1 N2 3.438138 1_555
Cs1 N1 3.438138 1_555
Cs1 N8 3.449895 1_555
Cs1 N11 3.449895 1_455
Cs1 N8 3.534906 1_455
Cs1 N11 3.534906 1_555
Cs2 N10 3.365167 1_565
Cs2 N9 3.365167 1_564
Cs2 N1 3.400274 1_555
Cs2 N2 3.400274 1_554
Cs2 N5 3.633026 1_555
Cs2 N6 3.633026 1_454
Cs2 N5 3.681344 1_455
Cs2 N6 3.681344 1_554
Cs2 N14 3.741467 1_554
Cs2 N13 3.741467 1_455
Cs2 N0 3.749231 1_465
Cs2 N3 3.749231 1_564
Cs3 N8 3.365167 1_545
Cs3 N11 3.365167 1_545
Cs3 N3 3.400274 1_555
Cs3 N0 3.400274 1_555
Cs3 N4 3.633026 1_655
Cs3 N7 3.633026 1_555
Cs3 N7 3.681344 1_655
Cs3 N4 3.681344 1_555
Cs3 N15 3.741467 1_655
Cs3 N12 3.741467 1_555
Cs3 N2 3.749231 1_645
Cs3 N1 3.749231 1_545
Cs4 N12 3.216648 1_555
Cs4 N0 3.364601 1_555
Cs4 N15 3.371388 1_655
Cs4 N4 3.398705 1_555
Cs4 N11 3.431578 1_555
Cs4 N4 3.557778 1_655
Cs4 N5 3.615542 1_555
Cs4 N10 3.634613 1_555
Cs5 N13 3.216648 1_455
Cs5 N1 3.364601 1_555
Cs5 N14 3.371388 1_554
Cs5 N5 3.398705 1_455
Cs5 N10 3.431578 1_555
Cs5 N5 3.557778 1_555
Cs5 N4 3.615542 1_555
Cs5 N11 3.634613 1_455
Cs6 N14 3.216648 1_555
Cs6 N2 3.364601 1_555
Cs6 N13 3.371388 1_456
Cs6 N6 3.398705 1_555
Cs6 N9 3.431578 1_555
Cs6 N6 3.557778 1_455
Cs6 N7 3.615542 1_555
Cs6 N8 3.634613 1_555
Cs7 N15 3.216648 1_655
Cs7 N3 3.364601 1_555
Cs7 N12 3.371388 1_555
Cs7 N7 3.398705 1_655
Cs7 N8 3.431578 1_555
Cs7 N7 3.557778 1_555
Cs7 N6 3.615542 1_555
Cs7 N9 3.634613 1_655
Mo0 N13 1.779099 1_555
Mo0 N14 1.779099 1_554
Mo0 N5 1.932331 1_555
Mo0 N6 1.932331 1_554
Mo1 N12 1.779099 1_555
Mo1 N15 1.779099 1_555
Mo1 N7 1.932331 1_555
Mo1 N4 1.932331 1_555
Mo2 N10 1.763634 1_555
Mo2 N4 1.856212 1_555
Mo2 N1 1.886609 1_545
Mo2 N0 1.904280 1_455
Mo3 N11 1.763634 1_555
Mo3 N5 1.856212 1_555
Mo3 N0 1.886609 1_565
Mo3 N1 1.904280 1_555
Mo4 N8 1.763634 1_555
Mo4 N6 1.856212 1_555
Mo4 N3 1.886609 1_565
Mo4 N2 1.904280 1_655
Mo5 N9 1.763634 1_555
Mo5 N7 1.856212 1_555
Mo5 N2 1.886609 1_545
Mo5 N3 1.904280 1_555
N8 Zn1 1.986913 1_555
N9 Zn0 1.986913 1_556
N10 Zn0 1.986913 1_555
N11 Zn1 1.986913 1_555
N12 Zn1 1.984581 1_555
N13 Zn0 1.984581 1_655
N14 Zn0 1.984581 1_556
N15 Zn1 1.984581 1_455
