# generated using pymatgen
data_K5Ag(IO)2
_symmetry_space_group_name_H-M   'P 1'
_cell_length_a   5.49870133
_cell_length_b   7.20226492
_cell_length_c   14.14549674
_cell_angle_alpha   90.00000000
_cell_angle_beta   90.00000000
_cell_angle_gamma   90.00000000
_symmetry_Int_Tables_number   1
_chemical_formula_structural   K5Ag(IO)2
_chemical_formula_sum   'K10 Ag2 I4 O4'
_cell_volume   560.20557374
_cell_formula_units_Z   2
loop_
 _symmetry_equiv_pos_site_id
 _symmetry_equiv_pos_as_xyz
  1  'x, y, z'
loop_
 _atom_site_type_symbol
 _atom_site_label
 _atom_site_symmetry_multiplicity
 _atom_site_fract_x
 _atom_site_fract_y
 _atom_site_fract_z
 _atom_site_occupancy
  K  K0  1  0.50000000  0.32870737  0.60317167  1
  K  K1  1  0.50000000  0.17129263  0.10317167  1
  K  K2  1  0.00000000  0.59414904  0.74027615  1
  K  K3  1  0.00000000  0.50000000  0.00000000  1
  K  K4  1  0.50000000  0.67129263  0.39682833  1
  K  K5  1  0.50000000  0.82870737  0.89682833  1
  K  K6  1  0.00000000  0.90585096  0.24027615  1
  K  K7  1  0.00000000  0.40585096  0.25972385  1
  K  K8  1  0.00000000  0.09414904  0.75972385  1
  K  K9  1  0.00000000  0.00000000  0.50000000  1
  Ag  Ag0  1  0.00000000  0.50000000  0.50000000  1
  Ag  Ag1  1  0.00000000  0.00000000  0.00000000  1
  I  I0  1  0.50000000  0.65783417  0.14319546  1
  I  I1  1  0.50000000  0.34216583  0.85680454  1
  I  I2  1  0.50000000  0.15783417  0.35680454  1
  I  I3  1  0.50000000  0.84216583  0.64319546  1
  O  O0  1  0.00000000  0.68332415  0.38946094  1
  O  O1  1  0.00000000  0.81667585  0.88946094  1
  O  O2  1  0.00000000  0.18332415  0.11053906  1
  O  O3  1  0.00000000  0.31667585  0.61053906  1
loop_
_geom_bond_atom_site_label_1
_geom_bond_atom_site_label_2
_geom_bond_distance
_geom_bond_site_symmetry_2
K0 O3 2.752689 1_555
K0 O3 2.752689 1_655
K1 O2 2.752689 1_555
K1 O2 2.752689 1_655
K2 O1 2.649901 1_555
K2 O3 2.713243 1_555
K3 O2 2.765305 1_555
K3 O1 2.765305 1_554
K4 O0 2.752689 1_555
K4 O0 2.752689 1_655
K5 O1 2.752689 1_655
K5 O1 2.752689 1_555
K6 O0 2.649901 1_555
K6 O2 2.713243 1_565
K7 O2 2.649901 1_555
K7 O0 2.713243 1_555
K8 O3 2.649901 1_555
K8 O1 2.713243 1_545
K9 O3 2.765305 1_555
K9 O0 2.765305 1_545
Ag0 O3 2.046524 1_555
Ag0 O0 2.046524 1_555
Ag1 O2 2.046524 1_555
Ag1 O1 2.046524 1_544
I0 K1 3.549642 1_555
I0 K6 3.554654 1_655
I0 K6 3.554654 1_555
I0 K4 3.589072 1_555
I0 K3 3.599180 1_555
I0 K3 3.599180 1_655
I0 K7 3.683704 1_655
I0 K7 3.683704 1_555
I0 K5 3.695901 1_554
I0 K1 3.741151 1_565
I1 K5 3.549642 1_555
I1 K8 3.554654 1_655
I1 K8 3.554654 1_555
I1 K0 3.589072 1_555
I1 K3 3.599180 1_656
I1 K3 3.599180 1_556
I1 K2 3.683704 1_555
I1 K2 3.683704 1_655
I1 K1 3.695901 1_556
I1 K5 3.741151 1_545
I2 K4 3.549642 1_545
I2 K7 3.554654 1_555
I2 K7 3.554654 1_655
I2 K1 3.589072 1_555
I2 K9 3.599180 1_555
I2 K9 3.599180 1_655
I2 K6 3.683704 1_645
I2 K6 3.683704 1_545
I2 K0 3.695901 1_555
I2 K4 3.741151 1_555
I3 K0 3.549642 1_565
I3 K2 3.554654 1_555
I3 K2 3.554654 1_655
I3 K5 3.589072 1_555
I3 K9 3.599180 1_665
I3 K9 3.599180 1_565
I3 K8 3.683704 1_565
I3 K8 3.683704 1_665
I3 K4 3.695901 1_555
I3 K0 3.741151 1_555
