# generated using pymatgen
data_Ta2CoO6
_symmetry_space_group_name_H-M   'P 1'
_cell_length_a   4.74771145
_cell_length_b   10.20853925
_cell_length_c   9.48579022
_cell_angle_alpha   62.74433569
_cell_angle_beta   89.98470257
_cell_angle_gamma   89.96450123
_symmetry_Int_Tables_number   1
_chemical_formula_structural   Ta2CoO6
_chemical_formula_sum   'Ta8 Co4 O24'
_cell_volume   408.70445451
_cell_formula_units_Z   4
loop_
 _symmetry_equiv_pos_site_id
 _symmetry_equiv_pos_as_xyz
  1  'x, y, z'
loop_
 _atom_site_type_symbol
 _atom_site_label
 _atom_site_symmetry_multiplicity
 _atom_site_fract_x
 _atom_site_fract_y
 _atom_site_fract_z
 _atom_site_occupancy
  Ta  Ta0  1  0.49638477  0.17028258  0.16533309  1
  Ta  Ta1  1  0.49473452  0.16813143  0.66578237  1
  Ta  Ta2  1  0.00412244  0.67066208  0.16471719  1
  Ta  Ta3  1  0.00481995  0.66771238  0.66576610  1
  Ta  Ta4  1  0.50361092  0.82971605  0.83467185  1
  Ta  Ta5  1  0.50526951  0.83186481  0.33421983  1
  Ta  Ta6  1  0.99518777  0.33229309  0.33422681  1
  Ta  Ta7  1  -0.00411913  0.32933791  0.83527857  1
  Co  Co0  1  0.49999721  0.49999740  0.00000144  1
  Co  Co1  1  0.00002272  -0.00000021  0.49999622  1
  Co  Co2  1  0.50002103  0.50000070  0.50000319  1
  Co  Co3  1  -0.00000692  -0.00000181  0.00000438  1
  O  O0  1  0.18949809  0.49859900  0.84528147  1
  O  O1  1  0.19194331  0.50047685  0.34526667  1
  O  O2  1  0.81049338  0.50140042  0.15471507  1
  O  O3  1  0.80804066  0.49952377  0.65473366  1
  O  O4  1  0.30879725  0.00078198  0.34532374  1
  O  O5  1  0.31159397  -0.00112503  0.84602580  1
  O  O6  1  0.68840149  0.00112599  0.15397462  1
  O  O7  1  0.69119254  -0.00078434  0.65467584  1
  O  O8  1  0.19193774  0.16753011  0.01619979  1
  O  O9  1  0.20237918  0.17532256  0.51359823  1
  O  O10  1  0.79140090  0.17541927  0.30902063  1
  O  O11  1  0.78974487  0.17548674  0.81078178  1
  O  O12  1  0.30930109  0.66755764  0.01705765  1
  O  O13  1  0.29781689  0.67548255  0.51385060  1
  O  O14  1  0.71156271  0.67514440  0.81205207  1
  O  O15  1  0.70902645  0.67516927  0.30958161  1
  O  O16  1  0.80804685  0.83247275  0.98380654  1
  O  O17  1  0.79763379  0.82467837  0.48639401  1
  O  O18  1  0.20859910  0.82458309  0.69097795  1
  O  O19  1  0.21024752  0.82451288  0.18922283  1
  O  O20  1  0.69069312  0.33244180  0.98294007  1
  O  O21  1  0.70219530  0.32451385  0.48615408  1
  O  O22  1  0.28843877  0.32485878  0.18794480  1
  O  O23  1  0.29097123  0.32482891  0.69041945  1
loop_
_geom_bond_atom_site_label_1
_geom_bond_atom_site_label_2
_geom_bond_distance
_geom_bond_site_symmetry_2
Co0 O20 2.005803 1_554
Co0 O12 2.005822 1_555
Co0 O2 2.085076 1_555
Co0 O0 2.085112 1_554
Co0 O22 2.113199 1_555
Co0 O14 2.113281 1_554
Co1 O4 2.071213 1_555
Co1 O7 2.071441 1_455
Co1 O9 2.087272 1_555
Co1 O17 2.087332 1_445
Co1 O18 2.120545 1_545
Co1 O10 2.120631 1_455
Co2 O3 2.070618 1_555
Co2 O1 2.070856 1_555
Co2 O21 2.088373 1_555
Co2 O13 2.088386 1_555
Co2 O15 2.118454 1_555
Co2 O23 2.118544 1_555
Co3 O16 2.005372 1_444
Co3 O8 2.005417 1_555
Co3 O6 2.082300 1_455
Co3 O5 2.082372 1_554
Co3 O19 2.116837 1_545
Co3 O11 2.116857 1_454
O0 Ta3 1.988772 1_555
O0 Ta7 1.997963 1_555
O1 Ta6 1.999521 1_455
O1 Ta2 2.005069 1_555
O2 Ta6 1.988760 1_555
O2 Ta2 1.997990 1_655
O3 Ta3 1.999586 1_655
O3 Ta7 2.005093 1_655
O4 Ta0 1.999382 1_555
O4 Ta5 2.004759 1_545
O5 Ta1 1.989979 1_555
O5 Ta4 1.998274 1_545
O6 Ta5 1.989992 1_545
O6 Ta0 1.998272 1_555
O7 Ta4 1.999388 1_545
O7 Ta1 2.004726 1_555
O8 Ta7 1.985619 1_554
O8 Ta0 2.031951 1_555
O9 Ta1 1.979850 1_555
O9 Ta6 1.982962 1_455
O10 Ta0 1.972027 1_555
O10 Ta6 1.977543 1_555
O11 Ta7 1.953170 1_655
O11 Ta1 1.988707 1_555
O12 Ta4 1.990585 1_554
O12 Ta2 2.025266 1_555
O13 Ta3 1.977958 1_555
O13 Ta5 1.982832 1_555
O14 Ta4 1.954171 1_555
O14 Ta3 1.991247 1_655
O15 Ta5 1.972220 1_555
O15 Ta2 1.977399 1_655
O16 Ta2 1.985625 1_656
O16 Ta4 2.031937 1_555
O17 Ta5 1.979827 1_555
O17 Ta3 1.982934 1_655
O18 Ta4 1.972042 1_555
O18 Ta3 1.977524 1_555
O19 Ta2 1.953182 1_555
O19 Ta5 1.988718 1_555
O20 Ta0 1.990619 1_556
O20 Ta7 2.025308 1_655
O21 Ta6 1.977995 1_555
O21 Ta1 1.982840 1_555
O22 Ta0 1.954160 1_555
O22 Ta6 1.991207 1_455
O23 Ta1 1.972247 1_555
O23 Ta7 1.977350 1_555
