# generated using pymatgen
data_Lu6Si6TcOs3
_symmetry_space_group_name_H-M   'P 1'
_cell_length_a   5.61373580
_cell_length_b   5.61373463
_cell_length_c   13.48991080
_cell_angle_alpha   89.94294630
_cell_angle_beta   90.05705502
_cell_angle_gamma   136.81775861
_symmetry_Int_Tables_number   1
_chemical_formula_structural   Lu6Si6TcOs3
_chemical_formula_sum   'Lu6 Si6 Tc1 Os3'
_cell_volume   290.91936347
_cell_formula_units_Z   1
loop_
 _symmetry_equiv_pos_site_id
 _symmetry_equiv_pos_as_xyz
  1  'x, y, z'
loop_
 _atom_site_type_symbol
 _atom_site_label
 _atom_site_symmetry_multiplicity
 _atom_site_fract_x
 _atom_site_fract_y
 _atom_site_fract_z
 _atom_site_occupancy
  Lu  Lu0  1  0.64149831  0.35850169  0.25001984  1
  Lu  Lu1  1  0.35898854  0.64101146  0.75100282  1
  Lu  Lu2  1  0.92286757  0.07713243  0.11495713  1
  Lu  Lu3  1  0.07649133  0.92350867  0.88571976  1
  Lu  Lu4  1  0.07724465  0.92275535  0.61422936  1
  Lu  Lu5  1  0.92390163  0.07609837  0.38478875  1
  Si  Si0  1  0.32811222  0.67188778  0.24966069  1
  Si  Si1  1  0.67201893  0.32798107  0.75149154  1
  Si  Si2  1  0.61463441  0.38536559  0.03885116  1
  Si  Si3  1  0.38492066  0.61507934  0.96211551  1
  Si  Si4  1  0.38602345  0.61397655  0.53704802  1
  Si  Si5  1  0.61449772  0.38550228  0.46038124  1
  Tc  Tc0  1  0.78585172  0.21414828  0.58243612  1
  Os  Os0  1  0.21328724  0.78671276  0.41537052  1
  Os  Os1  1  0.21255316  0.78744684  0.08309390  1
  Os  Os2  1  0.78710945  0.21289055  0.91883364  1
loop_
_geom_bond_atom_site_label_1
_geom_bond_atom_site_label_2
_geom_bond_distance
_geom_bond_site_symmetry_2
Lu0 Si0 2.839504 1_545
Lu0 Si0 2.839505 1_655
Lu0 Si5 2.852022 1_555
Lu0 Si2 2.862120 1_555
Lu0 Os0 3.130627 1_545
Lu0 Os0 3.130627 1_655
Lu0 Os1 3.145124 1_545
Lu0 Os1 3.145125 1_655
Lu0 Si0 3.271648 1_555
Lu1 Si1 2.842058 1_565
Lu1 Si1 2.842059 1_455
Lu1 Si3 2.860441 1_555
Lu1 Si4 2.900299 1_555
Lu1 Os2 3.155920 1_565
Lu1 Os2 3.155920 1_455
Lu1 Tc0 3.165028 1_565
Lu1 Tc0 3.165028 1_455
Lu1 Si1 3.267936 1_555
Lu2 Si0 2.924328 1_655
Lu2 Si0 2.924328 1_545
Lu2 Si3 2.945096 1_654
Lu2 Si3 2.945096 1_544
Lu2 Os2 3.000049 1_554
Lu2 Os1 3.044792 1_655
Lu2 Os1 3.044793 1_545
Lu2 Os1 3.055073 1_645
Lu2 Si2 3.055107 1_545
Lu2 Si2 3.055108 1_655
Lu3 Si1 2.923091 1_455
Lu3 Si1 2.923092 1_565
Lu3 Si2 2.948108 1_456
Lu3 Si2 2.948108 1_566
Lu3 Os1 3.016418 1_556
Lu3 Os2 3.049491 1_455
Lu3 Os2 3.049492 1_565
Lu3 Os2 3.054374 1_465
Lu3 Si3 3.055084 1_565
Lu3 Si3 3.055085 1_455
Lu4 Si1 2.944646 1_455
Lu4 Si1 2.944646 1_565
Lu4 Si5 2.954244 1_455
Lu4 Si5 2.954244 1_565
Lu4 Tc0 3.032494 1_455
Lu4 Tc0 3.032494 1_565
Lu4 Os0 3.036696 1_555
Lu4 Si4 3.054840 1_565
Lu4 Si4 3.054841 1_455
Lu4 Tc0 3.071679 1_465
Lu5 Si0 2.930231 1_655
Lu5 Si0 2.930232 1_545
Lu5 Si4 2.940098 1_655
Lu5 Si4 2.940099 1_545
Lu5 Tc0 3.032184 1_555
Lu5 Si5 3.043348 1_545
Lu5 Si5 3.043349 1_655
Lu5 Os0 3.045311 1_655
Lu5 Os0 3.045312 1_545
Lu5 Os0 3.048692 1_645
Si1 Tc0 2.572726 1_555
Si2 Si3 2.610995 1_554
Si4 Tc0 2.395240 1_565
Si4 Tc0 2.395241 1_455
Si4 Si5 2.600785 1_555
Si5 Tc0 2.429975 1_555
Os0 Si5 2.387669 1_565
Os0 Si5 2.387670 1_455
Os0 Si4 2.437180 1_555
Os0 Si0 2.537670 1_555
Os1 Si2 2.380583 1_565
Os1 Si2 2.380584 1_455
Os1 Si3 2.430583 1_554
Os1 Si0 2.549210 1_555
Os2 Si3 2.376890 1_545
Os2 Si3 2.376891 1_655
Os2 Si2 2.422724 1_556
Os2 Si1 2.556130 1_555
