# generated using pymatgen
data_BeV2Si5Mo8
_symmetry_space_group_name_H-M   'P 1'
_cell_length_a   7.17546950
_cell_length_b   7.17538477
_cell_length_c   7.17546871
_cell_angle_alpha   96.36008873
_cell_angle_beta   96.36097354
_cell_angle_gamma   141.11813201
_symmetry_Int_Tables_number   1
_chemical_formula_structural   BeV2Si5Mo8
_chemical_formula_sum   'Be1 V2 Si5 Mo8'
_cell_volume   218.68136293
_cell_formula_units_Z   1
loop_
 _symmetry_equiv_pos_site_id
 _symmetry_equiv_pos_as_xyz
  1  'x, y, z'
loop_
 _atom_site_type_symbol
 _atom_site_label
 _atom_site_symmetry_multiplicity
 _atom_site_fract_x
 _atom_site_fract_y
 _atom_site_fract_z
 _atom_site_occupancy
  Be  Be0  1  0.25009131  0.25000000  0.00009131  1
  V  V0  1  0.24996294  0.75000000  0.49996294  1
  V  V1  1  0.75005376  0.25000000  0.50005376  1
  Si  Si0  1  0.74989158  0.75000000  0.99989158  1
  Si  Si1  1  0.16485250  0.66487820  0.82933351  1
  Si  Si2  1  0.83512330  0.33514457  0.17066139  1
  Si  Si3  1  0.33551582  0.16485543  0.49997773  1
  Si  Si4  1  0.66445630  0.83512180  0.49997429  1
  Mo  Mo0  1  0.07833218  0.22684647  0.29963299  1
  Mo  Mo1  1  0.92724879  0.77878138  0.70034908  1
  Mo  Mo2  1  0.77924901  0.07887410  0.85155063  1
  Mo  Mo3  1  0.42156670  0.72121862  0.14846641  1
  Mo  Mo4  1  0.22642966  0.92676538  0.14852947  1
  Mo  Mo5  1  0.57278651  0.27315353  0.85148471  1
  Mo  Mo6  1  0.72176408  0.57323462  0.29966328  1
  Mo  Mo7  1  0.27267653  0.42112590  0.70037592  1
loop_
_geom_bond_atom_site_label_1
_geom_bond_atom_site_label_2
_geom_bond_distance
_geom_bond_site_symmetry_2
Be0 Si0 2.388233 1_554
Be0 Si0 2.388233 1_444
Be0 Mo7 2.551772 1_554
Be0 Mo2 2.551778 1_454
Be0 Mo0 2.552167 1_555
Be0 Mo5 2.552171 1_554
Be0 Mo1 2.552432 1_444
Be0 Mo3 2.552435 1_555
Be0 Mo6 2.552819 1_555
Be0 Mo4 2.552823 1_545
V0 V1 2.388233 1_455
V0 V1 2.388233 1_565
Si1 V0 2.527949 1_555
Si1 V1 2.528264 1_455
Si2 V1 2.528083 1_555
Si2 V0 2.528390 1_655
Si3 V1 2.528090 1_555
Si3 V0 2.528396 1_545
Si4 V0 2.527956 1_555
Si4 V1 2.528269 1_565
Mo0 Si2 2.533488 1_455
Mo0 Si3 2.549866 1_555
Mo0 Si0 2.565017 1_444
Mo0 Si4 2.737880 1_555
Mo0 Si4 2.762575 1_445
Mo0 V0 2.981446 1_555
Mo0 V1 2.991882 1_455
Mo1 Si1 2.533509 1_655
Mo1 Si4 2.549746 1_555
Mo1 Si0 2.564609 1_555
Mo1 Si3 2.739400 1_665
Mo1 Si3 2.761282 1_555
Mo1 V0 2.981399 1_655
Mo1 V1 2.992402 1_555
Mo2 Si4 2.533919 1_545
Mo2 Si2 2.549716 1_556
Mo2 Si0 2.564812 1_545
Mo2 Si1 2.737624 1_655
Mo2 Si1 2.763275 1_545
Mo2 V1 2.980338 1_555
Mo2 V0 2.993641 1_545
Mo3 Si4 2.533519 1_555
Mo3 Si1 2.549742 1_554
Mo3 Si0 2.564612 1_554
Mo3 Si2 2.739394 1_455
Mo3 Si2 2.761276 1_565
Mo3 V0 2.981401 1_555
Mo3 V1 2.992404 1_565
Mo4 Si3 2.533175 1_565
Mo4 Si1 2.549859 1_554
Mo4 Si0 2.564843 1_454
Mo4 Si2 2.739655 1_565
Mo4 Si2 2.760600 1_455
Mo4 V1 2.982484 1_565
Mo4 V0 2.990642 1_555
Mo5 Si3 2.533490 1_555
Mo5 Si2 2.549881 1_556
Mo5 Si0 2.565019 1_555
Mo5 Si1 2.737880 1_545
Mo5 Si1 2.762575 1_655
Mo5 V0 2.981441 1_545
Mo5 V1 2.991876 1_555
Mo6 Si2 2.533177 1_555
Mo6 Si4 2.549857 1_555
Mo6 Si0 2.564836 1_554
Mo6 Si3 2.739657 1_555
Mo6 Si3 2.760598 1_665
Mo6 V1 2.982489 1_555
Mo6 V0 2.990644 1_655
Mo7 Si1 2.533915 1_555
Mo7 Si3 2.549717 1_555
Mo7 Si0 2.564808 1_555
Mo7 Si4 2.737623 1_445
Mo7 Si4 2.763282 1_555
Mo7 V1 2.980340 1_455
Mo7 V0 2.993645 1_555
