# generated using pymatgen
data_Y20Cd6NiOs
_symmetry_space_group_name_H-M   'P 1'
_cell_length_a   9.70095803
_cell_length_b   9.70095881
_cell_length_c   9.74614412
_cell_angle_alpha   90.00000000
_cell_angle_beta   90.00000000
_cell_angle_gamma   119.99999390
_symmetry_Int_Tables_number   1
_chemical_formula_structural   Y20Cd6NiOs
_chemical_formula_sum   'Y20 Cd6 Ni1 Os1'
_cell_volume   794.31501796
_cell_formula_units_Z   1
loop_
 _symmetry_equiv_pos_site_id
 _symmetry_equiv_pos_as_xyz
  1  'x, y, z'
loop_
 _atom_site_type_symbol
 _atom_site_label
 _atom_site_symmetry_multiplicity
 _atom_site_fract_x
 _atom_site_fract_y
 _atom_site_fract_z
 _atom_site_occupancy
  Y  Y0  1  0.00000000  0.00000000  0.49980867  1
  Y  Y1  1  0.00000000  0.00000000  0.00019133  1
  Y  Y2  1  0.54095837  0.45904163  0.25000000  1
  Y  Y3  1  0.54095837  0.08191573  0.25000000  1
  Y  Y4  1  0.91808427  0.45904163  0.25000000  1
  Y  Y5  1  0.45662148  0.54337852  0.75000000  1
  Y  Y6  1  0.45662148  0.91324396  0.75000000  1
  Y  Y7  1  0.08675604  0.54337852  0.75000000  1
  Y  Y8  1  0.20959254  0.79040746  0.43851063  1
  Y  Y9  1  0.20959254  0.41918607  0.43851063  1
  Y  Y10  1  0.58081393  0.79040746  0.43851063  1
  Y  Y11  1  0.78940849  0.21059151  0.56452396  1
  Y  Y12  1  0.78940849  0.57881699  0.56452396  1
  Y  Y13  1  0.42118301  0.21059151  0.56452396  1
  Y  Y14  1  0.78940849  0.21059151  0.93547604  1
  Y  Y15  1  0.78940849  0.57881699  0.93547604  1
  Y  Y16  1  0.42118301  0.21059151  0.93547604  1
  Y  Y17  1  0.20959254  0.79040746  0.06148937  1
  Y  Y18  1  0.20959254  0.41918607  0.06148937  1
  Y  Y19  1  0.58081393  0.79040746  0.06148937  1
  Cd  Cd0  1  0.88452242  0.11547758  0.25000000  1
  Cd  Cd1  1  0.88452242  0.76904484  0.25000000  1
  Cd  Cd2  1  0.23095516  0.11547758  0.25000000  1
  Cd  Cd3  1  0.11501477  0.88498523  0.75000000  1
  Cd  Cd4  1  0.11501477  0.23002953  0.75000000  1
  Cd  Cd5  1  0.76997047  0.88498523  0.75000000  1
  Ni  Ni0  1  0.66666700  0.33333300  0.75000000  1
  Os  Os0  1  0.33333300  0.66666700  0.25000000  1
loop_
_geom_bond_atom_site_label_1
_geom_bond_atom_site_label_2
_geom_bond_distance
_geom_bond_site_symmetry_2
Y0 Y8 3.572003 1_545
Y0 Y10 3.572012 1_445
Y0 Y9 3.572012 1_555
Y0 Y11 3.594248 1_455
Y0 Y13 3.594248 1_555
Y0 Y12 3.594248 1_445
Y1 Y17 3.572003 1_545
Y1 Y19 3.572012 1_445
Y1 Y18 3.572012 1_555
Y1 Y14 3.594248 1_454
Y1 Y16 3.594248 1_554
Y1 Y15 3.594248 1_444
Y2 Y9 3.551837 1_555
Y2 Y4 3.658483 1_555
Y2 Y3 3.658483 1_555
Y3 Y8 3.551831 1_545
Y3 Y4 3.658483 1_555
Y4 Y9 3.551821 1_655
Y4 Y8 3.551831 1_655
Y5 Y7 3.588049 1_555
Y5 Y6 3.588049 1_555
Y5 Y9 3.677412 1_555
Y6 Y7 3.588050 1_555
Y6 Y8 3.677412 1_555
Y7 Y9 3.677412 1_555
Y7 Y8 3.677412 1_555
Y10 Y3 3.551821 1_565
Y10 Y2 3.551837 1_555
Y10 Y6 3.677412 1_555
Y10 Y5 3.677412 1_555
Y11 Y6 3.563461 1_545
Y11 Y7 3.563461 1_655
Y11 Y3 3.708818 1_555
Y11 Y4 3.708818 1_555
Y12 Y7 3.563456 1_655
Y12 Y5 3.563464 1_555
Y12 Y2 3.708818 1_555
Y12 Y4 3.708822 1_555
Y13 Y6 3.563456 1_545
Y13 Y5 3.563465 1_555
Y13 Y2 3.708818 1_555
Y13 Y3 3.708822 1_555
Y14 Y6 3.563461 1_545
Y14 Y7 3.563461 1_655
Y14 Y3 3.708818 1_556
Y14 Y4 3.708818 1_556
Y15 Y7 3.563456 1_655
Y15 Y5 3.563464 1_555
Y15 Y2 3.708818 1_556
Y15 Y4 3.708822 1_556
Y16 Y6 3.563456 1_545
Y16 Y5 3.563465 1_555
Y16 Y2 3.708818 1_556
Y16 Y3 3.708822 1_556
Y17 Y3 3.551831 1_565
Y17 Y4 3.551831 1_455
Y17 Y6 3.677412 1_554
Y17 Y7 3.677412 1_554
Y18 Y4 3.551821 1_455
Y18 Y2 3.551837 1_555
Y18 Y7 3.677412 1_554
Y18 Y5 3.677412 1_554
Y19 Y3 3.551821 1_565
Y19 Y2 3.551837 1_555
Y19 Y6 3.677412 1_554
Y19 Y5 3.677412 1_554
Cd0 Y0 3.113271 1_655
Cd0 Y1 3.113271 1_655
Cd0 Y3 3.182624 1_555
Cd0 Y4 3.182624 1_555
Cd0 Cd2 3.360729 1_655
Cd0 Cd1 3.360730 1_545
Cd0 Y11 3.456987 1_555
Cd0 Y14 3.456987 1_554
Cd0 Y9 3.565032 1_655
Cd0 Y18 3.565032 1_655
Cd0 Y10 3.565032 1_545
Cd0 Y19 3.565032 1_545
Cd1 Y0 3.113272 1_665
Cd1 Y1 3.113272 1_665
Cd1 Y2 3.182629 1_555
Cd1 Y4 3.182634 1_555
Cd1 Cd2 3.360730 1_665
Cd1 Y12 3.456987 1_555
Cd1 Y15 3.456987 1_554
Cd1 Y8 3.565028 1_655
Cd1 Y17 3.565028 1_655
Cd1 Y10 3.565037 1_555
Cd1 Y19 3.565037 1_555
Cd2 Y0 3.113271 1_555
Cd2 Y1 3.113271 1_555
Cd2 Y2 3.182629 1_555
Cd2 Y3 3.182634 1_555
Cd2 Y13 3.456987 1_555
Cd2 Y16 3.456987 1_554
Cd2 Y8 3.565029 1_545
Cd2 Y17 3.565029 1_545
Cd2 Y9 3.565037 1_555
Cd2 Y18 3.565037 1_555
Cd3 Y1 3.111353 1_566
Cd3 Y0 3.111353 1_565
Cd3 Y6 3.185703 1_555
Cd3 Y7 3.185703 1_555
Cd3 Cd5 3.347260 1_455
Cd3 Cd4 3.347261 1_565
Cd3 Y17 3.426601 1_556
Cd3 Y8 3.426601 1_555
Cd3 Y15 3.561596 1_455
Cd3 Y12 3.561596 1_455
Cd3 Y16 3.561596 1_565
Cd3 Y13 3.561596 1_565
Cd4 Y1 3.111353 1_556
Cd4 Y0 3.111353 1_555
Cd4 Y5 3.185707 1_555
Cd4 Y7 3.185713 1_555
Cd4 Cd5 3.347261 1_445
Cd4 Y18 3.426605 1_556
Cd4 Y9 3.426605 1_555
Cd4 Y16 3.561596 1_555
Cd4 Y13 3.561596 1_555
Cd4 Y14 3.561596 1_455
Cd4 Y11 3.561596 1_455
Cd5 Y1 3.111353 1_666
Cd5 Y0 3.111353 1_665
Cd5 Y5 3.185707 1_555
Cd5 Y6 3.185712 1_555
Cd5 Y19 3.426605 1_556
Cd5 Y10 3.426605 1_555
Cd5 Y15 3.561596 1_555
Cd5 Y12 3.561596 1_555
Cd5 Y14 3.561596 1_565
Cd5 Y11 3.561596 1_565
Ni0 Y14 2.742456 1_555
Ni0 Y11 2.742456 1_555
Ni0 Y16 2.742462 1_555
Ni0 Y13 2.742462 1_555
Ni0 Y15 2.742462 1_555
Ni0 Y12 2.742462 1_555
Ni0 Y7 3.529284 1_655
Ni0 Y6 3.529285 1_545
Ni0 Y5 3.529301 1_555
Os0 Y8 2.774596 1_555
Os0 Y17 2.774596 1_555
Os0 Y10 2.774596 1_555
Os0 Y19 2.774596 1_555
Os0 Y9 2.774596 1_555
Os0 Y18 2.774596 1_555
Os0 Y4 3.488619 1_455
Os0 Y3 3.488620 1_565
Os0 Y2 3.488636 1_555
