# generated using pymatgen
data_Cs4Al3InSb16
_symmetry_space_group_name_H-M   'P 1'
_cell_length_a   4.29984806
_cell_length_b   11.02910791
_cell_length_c   18.92306553
_cell_angle_alpha   90.16569627
_cell_angle_beta   90.00000000
_cell_angle_gamma   90.00000000
_symmetry_Int_Tables_number   1
_chemical_formula_structural   Cs4Al3InSb16
_chemical_formula_sum   'Cs4 Al3 In1 Sb16'
_cell_volume   897.39402282
_cell_formula_units_Z   1
loop_
 _symmetry_equiv_pos_site_id
 _symmetry_equiv_pos_as_xyz
  1  'x, y, z'
loop_
 _atom_site_type_symbol
 _atom_site_label
 _atom_site_symmetry_multiplicity
 _atom_site_fract_x
 _atom_site_fract_y
 _atom_site_fract_z
 _atom_site_occupancy
  Cs  Cs0  1  0.75000000  0.17671529  0.43112510  1
  Cs  Cs1  1  0.25000000  0.81992379  0.56828712  1
  Cs  Cs2  1  0.75000000  0.67912737  0.06865130  1
  Cs  Cs3  1  0.25000000  0.32309816  0.93419987  1
  Al  Al0  1  0.25000000  0.67410485  0.36403686  1
  Al  Al1  1  0.75000000  0.82893411  0.86903738  1
  Al  Al2  1  0.25000000  0.17295027  0.13444724  1
  In  In0  1  0.75000000  0.32601866  0.63233497  1
  Sb  Sb0  1  0.75000000  0.81659061  0.38687231  1
  Sb  Sb1  1  0.25000000  0.16521433  0.60823956  1
  Sb  Sb2  1  0.75000000  0.31564898  0.11246891  1
  Sb  Sb3  1  0.25000000  0.68605814  0.89124410  1
  Sb  Sb4  1  0.75000000  0.41886314  0.77272895  1
  Sb  Sb5  1  0.25000000  0.58744638  0.23094747  1
  Sb  Sb6  1  0.75000000  0.90824230  0.73446195  1
  Sb  Sb7  1  0.25000000  0.08800068  0.26786353  1
  Sb  Sb8  1  0.75000000  0.53379760  0.54242345  1
  Sb  Sb9  1  0.25000000  0.47374769  0.44717299  1
  Sb  Sb10  1  0.75000000  0.02907925  0.95304807  1
  Sb  Sb11  1  0.25000000  0.97345237  0.04953679  1
  Sb  Sb12  1  0.75000000  0.91620486  0.24733100  1
  Sb  Sb13  1  0.25000000  0.08121220  0.75063122  1
  Sb  Sb14  1  0.75000000  0.41608335  0.25202907  1
  Sb  Sb15  1  0.25000000  0.58948462  0.75087978  1
loop_
_geom_bond_atom_site_label_1
_geom_bond_atom_site_label_2
_geom_bond_distance
_geom_bond_site_symmetry_2
Cs0 Sb7 3.886707 1_655
Cs0 Sb7 3.886707 1_555
Cs0 Sb9 3.929482 1_555
Cs0 Sb9 3.929482 1_655
Cs0 Sb1 3.984169 1_655
Cs0 Sb1 3.984169 1_555
Cs0 Sb0 4.056800 1_545
Cs0 In0 4.143961 1_555
Cs0 Sb14 4.301984 1_555
Cs1 Sb8 3.848548 1_455
Cs1 Sb8 3.848548 1_555
Cs1 Sb1 3.880420 1_565
Cs1 Sb6 3.929554 1_455
Cs1 Sb6 3.929554 1_555
Cs1 Sb0 4.050650 1_555
Cs1 Sb0 4.050650 1_455
Cs1 Sb15 4.295196 1_555
Cs2 Sb5 3.885162 1_655
Cs2 Sb5 3.885162 1_555
Cs2 Sb11 3.911168 1_555
Cs2 Sb11 3.911168 1_655
Cs2 Sb3 3.987423 1_654
Cs2 Sb3 3.987423 1_554
Cs2 Sb2 4.096041 1_555
Cs2 Sb12 4.268266 1_555
Cs3 Sb4 3.884924 1_455
Cs3 Sb4 3.884924 1_555
Cs3 Sb10 3.907890 1_455
Cs3 Sb10 3.907890 1_555
Cs3 Sb2 4.001291 1_556
Cs3 Sb2 4.001291 1_456
Cs3 Sb3 4.087121 1_555
Cs3 Sb13 4.373780 1_555
Al0 Sb5 2.691134 1_555
Al0 Sb0 2.697138 1_455
Al0 Sb0 2.697138 1_555
Al0 Sb9 2.716262 1_555
Al1 Sb6 2.695004 1_555
Al1 Sb3 2.699207 1_555
Al1 Sb3 2.699207 1_655
Al1 Sb10 2.716558 1_565
Al2 Sb7 2.695428 1_555
Al2 Sb2 2.697388 1_455
Al2 Sb2 2.697388 1_555
Al2 Sb11 2.720753 1_545
In0 Sb1 2.823260 1_655
In0 Sb1 2.823260 1_555
In0 Sb4 2.844433 1_555
In0 Sb8 2.858115 1_555
Sb0 Sb12 2.862923 1_555
Sb1 Sb13 2.851849 1_555
Sb8 Sb9 2.881434 1_555
Sb8 Sb9 2.881434 1_655
Sb10 Sb11 2.887703 1_546
Sb10 Sb11 2.887703 1_646
Sb12 Sb7 2.891189 1_665
Sb12 Sb7 2.891189 1_565
Sb13 Sb6 2.889939 1_445
Sb13 Sb6 2.889939 1_545
Sb14 Sb2 2.860851 1_555
Sb14 Sb5 2.890970 1_655
Sb14 Sb5 2.890970 1_555
Sb15 Sb3 2.858865 1_555
Sb15 Sb4 2.887698 1_455
Sb15 Sb4 2.887698 1_555
