# generated using pymatgen
data_Rb6AlTe4Cl
_symmetry_space_group_name_H-M   'P 1'
_cell_length_a   11.52780634
_cell_length_b   11.52791790
_cell_length_c   8.46142616
_cell_angle_alpha   90.00000000
_cell_angle_beta   90.00000000
_cell_angle_gamma   120.00437583
_symmetry_Int_Tables_number   1
_chemical_formula_structural   Rb6AlTe4Cl
_chemical_formula_sum   'Rb12 Al2 Te8 Cl2'
_cell_volume   973.76149172
_cell_formula_units_Z   2
loop_
 _symmetry_equiv_pos_site_id
 _symmetry_equiv_pos_as_xyz
  1  'x, y, z'
loop_
 _atom_site_type_symbol
 _atom_site_label
 _atom_site_symmetry_multiplicity
 _atom_site_fract_x
 _atom_site_fract_y
 _atom_site_fract_z
 _atom_site_occupancy
  Rb  Rb0  1  0.12680389  0.87319652  0.51616030  1
  Rb  Rb1  1  0.74638576  0.87319754  0.51616332  1
  Rb  Rb2  1  0.95337611  0.47668915  0.31797567  1
  Rb  Rb3  1  0.52331297  0.47668714  0.31796712  1
  Rb  Rb4  1  0.87319780  0.74638594  0.01616362  1
  Rb  Rb5  1  0.25361424  0.12680246  0.01616332  1
  Rb  Rb6  1  0.52331083  0.04662363  0.31797573  1
  Rb  Rb7  1  0.12680220  0.25361406  0.51616362  1
  Rb  Rb8  1  0.87319611  0.12680348  0.01616030  1
  Rb  Rb9  1  0.04662389  0.52331085  0.81797567  1
  Rb  Rb10  1  0.47668917  0.95337637  0.81797573  1
  Rb  Rb11  1  0.47668703  0.52331286  0.81796712  1
  Al  Al0  1  0.66663111  0.33336751  0.70878935  1
  Al  Al1  1  0.33336889  0.66663249  0.20878935  1
  Te  Te0  1  0.41494343  0.20750619  0.61083202  1
  Te  Te1  1  0.58505657  0.79249381  0.11083202  1
  Te  Te2  1  0.66668100  0.33333577  0.02289016  1
  Te  Te3  1  0.79249554  0.58505516  0.61083510  1
  Te  Te4  1  0.20750446  0.41494484  0.11083510  1
  Te  Te5  1  0.33331900  0.66666423  0.52289016  1
  Te  Te6  1  0.20749520  0.79250724  0.11081059  1
  Te  Te7  1  0.79250480  0.20749276  0.61081059  1
  Cl  Cl0  1  0.00000307  0.99999713  0.27403801  1
  Cl  Cl1  1  0.99999693  0.00000287  0.77403801  1
loop_
_geom_bond_atom_site_label_1
_geom_bond_atom_site_label_2
_geom_bond_distance
_geom_bond_site_symmetry_2
Rb0 Te3 3.704651 1_455
Rb0 Te0 3.704657 1_565
Rb0 Te6 3.789411 1_555
Rb0 Te5 4.124110 1_555
Rb1 Te3 3.704546 1_555
Rb1 Te7 3.704878 1_565
Rb1 Te1 3.789003 1_555
Rb1 Te5 4.124011 1_555
Rb2 Te7 3.667859 1_555
Rb2 Te3 3.668486 1_555
Rb2 Te6 3.773923 1_655
Rb2 Te4 3.774427 1_655
Rb2 Te2 3.798106 1_555
Rb2 Te5 4.170459 1_655
Rb3 Te0 3.667904 1_555
Rb3 Te3 3.667915 1_555
Rb3 Te4 3.773669 1_555
Rb3 Te1 3.773691 1_555
Rb3 Te2 3.798394 1_555
Rb3 Te5 4.170990 1_555
Rb4 Te1 3.704486 1_555
Rb4 Te6 3.704854 1_655
Rb4 Te3 3.788995 1_554
Rb4 Te2 4.123885 1_555
Rb5 Te4 3.704546 1_555
Rb5 Te6 3.704878 1_545
Rb5 Te0 3.789003 1_554
Rb5 Te2 4.124011 1_555
Rb6 Te7 3.667824 1_555
Rb6 Te0 3.668498 1_555
Rb6 Te6 3.773885 1_545
Rb6 Te1 3.774485 1_545
Rb6 Te2 3.798255 1_555
Rb6 Te5 4.170642 1_545
Rb7 Te0 3.704486 1_555
Rb7 Te7 3.704854 1_455
Rb7 Te4 3.788995 1_555
Rb7 Te5 4.123885 1_555
Rb8 Te4 3.704651 1_655
Rb8 Te1 3.704657 1_545
Rb8 Te7 3.789411 1_554
Rb8 Te2 4.124110 1_555
Rb9 Te6 3.667859 1_556
Rb9 Te4 3.668486 1_556
Rb9 Te7 3.773923 1_455
Rb9 Te3 3.774427 1_455
Rb9 Te5 3.798106 1_555
Rb9 Te2 4.170459 1_456
Rb10 Te6 3.667824 1_556
Rb10 Te1 3.668498 1_556
Rb10 Te7 3.773885 1_565
Rb10 Te0 3.774485 1_565
Rb10 Te5 3.798255 1_555
Rb10 Te2 4.170642 1_566
Rb11 Te1 3.667904 1_556
Rb11 Te4 3.667915 1_556
Rb11 Te3 3.773669 1_555
Rb11 Te0 3.773691 1_555
Rb11 Te5 3.798394 1_555
Rb11 Te2 4.170990 1_556
Al0 Te0 2.645765 1_555
Al0 Te3 2.645779 1_555
Al0 Te7 2.646567 1_555
Al0 Te2 2.657741 1_556
Al1 Te1 2.645765 1_555
Al1 Te4 2.645779 1_555
Al1 Te6 2.646567 1_555
Al1 Te5 2.657741 1_555
Cl0 Rb1 3.256918 1_455
Cl0 Rb0 3.256918 1_555
Cl0 Rb7 3.256935 1_565
Cl0 Rb5 3.342304 1_565
Cl0 Rb4 3.342321 1_455
Cl0 Rb8 3.342473 1_465
Cl1 Rb5 3.256918 1_656
Cl1 Rb8 3.256918 1_556
Cl1 Rb4 3.256935 1_546
Cl1 Rb1 3.342304 1_545
Cl1 Rb7 3.342321 1_655
Cl1 Rb0 3.342473 1_645
