# generated using pymatgen
data_Sc6AlAs5Ru6
_symmetry_space_group_name_H-M   'P 1'
_cell_length_a   7.69543436
_cell_length_b   7.69599886
_cell_length_c   7.69189447
_cell_angle_alpha   127.90391568
_cell_angle_beta   122.75329705
_cell_angle_gamma   81.04858286
_symmetry_Int_Tables_number   1
_chemical_formula_structural   Sc6AlAs5Ru6
_chemical_formula_sum   'Sc6 Al1 As5 Ru6'
_cell_volume   291.37207101
_cell_formula_units_Z   1
loop_
 _symmetry_equiv_pos_site_id
 _symmetry_equiv_pos_as_xyz
  1  'x, y, z'
loop_
 _atom_site_type_symbol
 _atom_site_label
 _atom_site_symmetry_multiplicity
 _atom_site_fract_x
 _atom_site_fract_y
 _atom_site_fract_z
 _atom_site_occupancy
  Sc  Sc0  1  0.45620516  0.66713877  0.71075955  1
  Sc  Sc1  1  0.54046252  0.25316089  0.21244022  1
  Sc  Sc2  1  0.74924718  0.84500979  0.59591619  1
  Sc  Sc3  1  0.25039668  0.84223662  0.09178192  1
  Sc  Sc4  1  0.04949090  0.25355804  0.70409175  1
  Sc  Sc5  1  0.95319905  0.65933616  0.20619499  1
  Al  Al0  1  0.25634961  0.25640225  0.50047206  1
  As  As0  1  0.74405621  0.24978260  0.00557709  1
  As  As1  1  0.33275050  0.58642228  0.25273506  1
  As  As2  1  0.66716677  0.92019797  0.25392040  1
  As  As3  1  0.16606719  0.92024165  0.75288841  1
  As  As4  1  0.83352931  0.58638223  0.75348563  1
  Ru  Ru0  1  0.50208145  0.49933259  0.00143211  1
  Ru  Ru1  1  0.99803626  0.49937618  0.49720532  1
  Ru  Ru2  1  0.11156223  0.25324990  0.11849896  1
  Ru  Ru3  1  0.88038086  0.00717306  0.13335954  1
  Ru  Ru4  1  0.37383220  0.00732810  0.62713771  1
  Ru  Ru5  1  0.63518591  0.25326890  0.64170109  1
loop_
_geom_bond_atom_site_label_1
_geom_bond_atom_site_label_2
_geom_bond_distance
_geom_bond_site_symmetry_2
Al0 Ru4 2.498660 1_555
Al0 Ru2 2.500612 1_555
Al0 Ru3 2.501114 1_455
Al0 Ru5 2.502643 1_555
Al0 Ru0 2.506698 1_556
Al0 Ru1 2.509120 1_455
Al0 Sc0 2.740927 1_555
Al0 Sc3 2.760843 1_545
Al0 Sc4 2.781782 1_555
As0 Ru0 2.460689 1_555
As0 Ru1 2.460867 1_555
As0 Ru4 2.465580 1_554
As0 Ru3 2.466240 1_555
As0 Ru5 2.466659 1_554
As0 Ru2 2.467876 1_655
As0 Sc1 2.760644 1_555
As0 Sc2 2.769775 1_544
As0 Sc5 2.796675 1_555
As1 Ru2 2.596445 1_555
As1 Ru0 2.597223 1_555
As1 Ru4 2.599639 1_565
As1 Sc1 2.740934 1_555
As1 Sc3 2.750969 1_555
As1 Sc0 2.752004 1_555
As1 Sc2 2.752628 1_555
As1 Sc5 2.753102 1_455
As1 Sc4 2.761218 1_554
As2 Ru5 2.594581 1_565
As2 Ru3 2.598267 1_565
As2 Ru0 2.599724 1_555
As2 Sc1 2.740297 1_565
As2 Sc0 2.744271 1_554
As2 Sc3 2.748280 1_555
As2 Sc5 2.757511 1_555
As2 Sc2 2.759067 1_555
As2 Sc4 2.763805 1_665
As3 Ru2 2.595977 1_566
As3 Ru4 2.597008 1_565
As3 Ru1 2.599186 1_455
As3 Sc1 2.740440 1_566
As3 Sc0 2.745591 1_555
As3 Sc3 2.747301 1_556
As3 Sc5 2.755664 1_455
As3 Sc2 2.758653 1_455
As3 Sc4 2.761966 1_565
As4 Ru5 2.594323 1_555
As4 Ru1 2.598391 1_555
As4 Ru3 2.598492 1_566
As4 Sc1 2.741033 1_555
As4 Sc2 2.750095 1_555
As4 Sc3 2.752670 1_656
As4 Sc5 2.752782 1_556
As4 Sc0 2.753614 1_555
As4 Sc4 2.762240 1_655
Ru0 Sc3 2.968331 1_555
Ru0 Sc2 2.970118 1_555
Ru0 Sc4 3.009075 1_554
Ru0 Sc5 3.013239 1_555
Ru0 Sc0 3.056646 1_554
Ru0 Sc1 3.065299 1_555
Ru1 Sc3 2.967676 1_656
Ru1 Sc2 2.970545 1_555
Ru1 Sc4 3.008687 1_655
Ru1 Sc5 3.010470 1_555
Ru1 Sc0 3.056230 1_655
Ru1 Sc1 3.068953 1_555
Ru2 Sc4 2.958079 1_554
Ru2 Sc5 2.970079 1_455
Ru2 Sc1 2.972407 1_555
Ru2 Sc2 2.980696 1_444
Ru2 Sc3 3.094586 1_545
Ru2 Sc0 3.108018 1_555
Ru3 Sc0 2.965632 1_544
Ru3 Sc5 2.971556 1_545
Ru3 Sc4 2.986567 1_655
Ru3 Sc3 3.030379 1_645
Ru3 Sc2 3.033876 1_544
Ru3 Sc1 3.092279 1_555
Ru4 Sc0 2.963345 1_545
Ru4 Sc5 2.972656 1_445
Ru4 Sc4 2.986578 1_555
Ru4 Sc3 3.031230 1_545
Ru4 Sc2 3.037011 1_545
Ru4 Sc1 3.087934 1_556
Ru5 Sc4 2.956451 1_655
Ru5 Sc5 2.969569 1_556
Ru5 Sc1 2.970849 1_555
Ru5 Sc2 2.980453 1_545
Ru5 Sc3 3.096542 1_545
Ru5 Sc0 3.109979 1_555
