# generated using pymatgen
data_LuSc3Al8
_symmetry_space_group_name_H-M   'P 1'
_cell_length_a   9.30078231
_cell_length_b   9.30078213
_cell_length_c   9.30078298
_cell_angle_alpha   33.58624598
_cell_angle_beta   33.58624770
_cell_angle_gamma   33.58624113
_symmetry_Int_Tables_number   1
_chemical_formula_structural   LuSc3Al8
_chemical_formula_sum   'Lu1 Sc3 Al8'
_cell_volume   219.31744499
_cell_formula_units_Z   1
loop_
 _symmetry_equiv_pos_site_id
 _symmetry_equiv_pos_as_xyz
  1  'x, y, z'
loop_
 _atom_site_type_symbol
 _atom_site_label
 _atom_site_symmetry_multiplicity
 _atom_site_fract_x
 _atom_site_fract_y
 _atom_site_fract_z
 _atom_site_occupancy
  Lu  Lu0  1  0.81260619  0.81260619  0.81260619  1
  Sc  Sc0  1  0.31269056  0.31269056  0.31269056  1
  Sc  Sc1  1  0.68674408  0.68674408  0.68674408  1
  Sc  Sc2  1  0.18806660  0.18806660  0.18806660  1
  Al  Al0  1  0.50013698  0.50013698  0.50013698  1
  Al  Al1  1  0.99988754  0.99988754  0.99988754  1
  Al  Al2  1  0.24958074  0.24958074  0.74884281  1
  Al  Al3  1  0.75030389  0.75030389  0.25125297  1
  Al  Al4  1  0.24958074  0.74884281  0.24958074  1
  Al  Al5  1  0.75030389  0.25125297  0.75030389  1
  Al  Al6  1  0.74884281  0.24958074  0.24958074  1
  Al  Al7  1  0.25125297  0.75030389  0.75030389  1
loop_
_geom_bond_atom_site_label_1
_geom_bond_atom_site_label_2
_geom_bond_distance
_geom_bond_site_symmetry_2
Lu0 Sc2 3.294786 1_656
Lu0 Sc2 3.294786 1_566
Lu0 Sc2 3.294786 1_665
Lu0 Sc1 3.310656 1_555
Sc0 Sc2 3.278087 1_555
Sc0 Sc1 3.282525 1_545
Sc0 Sc1 3.282525 1_455
Sc0 Sc1 3.282525 1_554
Al0 Al3 2.694159 1_555
Al0 Al5 2.694159 1_555
Al0 Al7 2.694159 1_555
Al0 Al2 2.701404 1_555
Al0 Al4 2.701405 1_555
Al0 Al6 2.701405 1_555
Al0 Lu0 3.151017 1_545
Al0 Lu0 3.151017 1_455
Al0 Lu0 3.151018 1_554
Al0 Sc2 3.152861 1_565
Al0 Sc2 3.152861 1_655
Al0 Sc2 3.152862 1_556
Al1 Al3 2.671471 1_556
Al1 Al5 2.671471 1_565
Al1 Al7 2.671471 1_655
Al1 Al2 2.674941 1_665
Al1 Al4 2.674941 1_656
Al1 Al6 2.674941 1_566
Al1 Sc1 3.147977 1_565
Al1 Sc1 3.147977 1_655
Al1 Sc1 3.147977 1_556
Al1 Sc0 3.149500 1_656
Al1 Sc0 3.149500 1_566
Al1 Sc0 3.149500 1_665
Al2 Al4 2.683187 1_555
Al2 Al6 2.683187 1_555
Al2 Al4 2.691119 1_546
Al2 Al6 2.691119 1_456
Al2 Sc0 3.128016 1_555
Al2 Sc1 3.151404 1_545
Al2 Sc1 3.151404 1_455
Al2 Lu0 3.160795 1_455
Al2 Lu0 3.160795 1_545
Al2 Sc2 3.178074 1_556
Al3 Al5 2.682053 1_555
Al3 Al7 2.682053 1_555
Al3 Al5 2.692254 1_564
Al3 Al7 2.692254 1_654
Al3 Sc1 3.115807 1_555
Al3 Sc0 3.144275 1_565
Al3 Sc0 3.144275 1_655
Al3 Sc2 3.150895 1_655
Al3 Sc2 3.150895 1_565
Al3 Lu0 3.161940 1_554
Al4 Al6 2.683187 1_555
Al4 Al6 2.691119 1_465
Al4 Sc0 3.128016 1_555
Al4 Sc1 3.151404 1_455
Al4 Sc1 3.151404 1_554
Al4 Lu0 3.160795 1_554
Al4 Lu0 3.160796 1_455
Al4 Sc2 3.178074 1_565
Al5 Al7 2.682052 1_555
Al5 Al7 2.692253 1_645
Al5 Sc1 3.115806 1_555
Al5 Sc0 3.144275 1_655
Al5 Sc0 3.144276 1_556
Al5 Sc2 3.150896 1_556
Al5 Sc2 3.150896 1_655
Al5 Lu0 3.161939 1_545
Al6 Sc0 3.128016 1_555
Al6 Sc1 3.151404 1_545
Al6 Sc1 3.151404 1_554
Al6 Lu0 3.160795 1_554
Al6 Lu0 3.160796 1_545
Al6 Sc2 3.178074 1_655
Al7 Sc1 3.115806 1_555
Al7 Sc0 3.144275 1_565
Al7 Sc0 3.144276 1_556
Al7 Sc2 3.150896 1_556
Al7 Sc2 3.150896 1_565
Al7 Lu0 3.161939 1_455
