# generated using pymatgen
data_Ca(TiIr)2
_symmetry_space_group_name_H-M   'P 1'
_cell_length_a   6.19568943
_cell_length_b   6.19568962
_cell_length_c   6.19569008
_cell_angle_alpha   140.05986489
_cell_angle_beta   140.05987346
_cell_angle_gamma   57.76240759
_symmetry_Int_Tables_number   1
_chemical_formula_structural   Ca(TiIr)2
_chemical_formula_sum   'Ca1 Ti2 Ir2'
_cell_volume   97.16317334
_cell_formula_units_Z   1
loop_
 _symmetry_equiv_pos_site_id
 _symmetry_equiv_pos_as_xyz
  1  'x, y, z'
loop_
 _atom_site_type_symbol
 _atom_site_label
 _atom_site_symmetry_multiplicity
 _atom_site_fract_x
 _atom_site_fract_y
 _atom_site_fract_z
 _atom_site_occupancy
  Ca  Ca0  1  0.00000000  0.00000000  0.00000000  1
  Ti  Ti0  1  0.75000000  0.25000000  0.50000000  1
  Ti  Ti1  1  0.25000000  0.75000000  0.50000000  1
  Ir  Ir0  1  0.61991506  0.61991506  0.00000000  1
  Ir  Ir1  1  0.38008494  0.38008494  1.00000000  1
loop_
_geom_bond_atom_site_label_1
_geom_bond_atom_site_label_2
_geom_bond_distance
_geom_bond_site_symmetry_2
Ca0 Ir0 3.263104 1_545
Ca0 Ir1 3.263104 1_454
Ca0 Ir0 3.263104 1_556
Ca0 Ir1 3.263104 1_443
Ca0 Ir0 3.263104 1_455
Ca0 Ir1 3.263104 1_544
Ca0 Ir0 3.263104 1_444
Ca0 Ir1 3.263104 1_555
Ca0 Ti0 3.440260 1_555
Ca0 Ti1 3.440260 1_444
Ca0 Ti0 3.440260 1_444
Ca0 Ti1 3.440260 1_555
Ca0 Ti1 3.440260 1_545
Ca0 Ti0 3.440260 1_454
Ca0 Ti0 3.440260 1_455
Ca0 Ti1 3.440260 1_544
Ir0 Ti1 2.543554 1_655
Ir0 Ti1 2.543554 1_554
Ir0 Ti0 2.543554 1_565
Ir0 Ti0 2.543555 1_554
Ir0 Ir1 2.602199 1_554
Ir1 Ti0 2.543554 1_455
Ir1 Ti0 2.543554 1_556
Ir1 Ti1 2.543554 1_545
Ir1 Ti1 2.543555 1_556
