# generated using pymatgen
data_Nb6Si6Tc5Mo
_symmetry_space_group_name_H-M   'P 1'
_cell_length_a   7.55499214
_cell_length_b   7.56299776
_cell_length_c   7.56299703
_cell_angle_alpha   126.93602133
_cell_angle_beta   125.83580689
_cell_angle_gamma   79.28262935
_symmetry_Int_Tables_number   1
_chemical_formula_structural   Nb6Si6Tc5Mo
_chemical_formula_sum   'Nb6 Si6 Tc5 Mo1'
_cell_volume   270.69609307
_cell_formula_units_Z   1
loop_
 _symmetry_equiv_pos_site_id
 _symmetry_equiv_pos_as_xyz
  1  'x, y, z'
loop_
 _atom_site_type_symbol
 _atom_site_label
 _atom_site_symmetry_multiplicity
 _atom_site_fract_x
 _atom_site_fract_y
 _atom_site_fract_z
 _atom_site_occupancy
  Nb  Nb0  1  0.55344821  0.09600161  0.04078642  1
  Nb  Nb1  1  0.44655179  0.48733821  0.54255340  1
  Nb  Nb2  1  0.95645719  0.49611814  0.03608137  1
  Nb  Nb3  1  0.04354281  0.07962318  0.53966095  1
  Nb  Nb4  1  0.75165385  0.91033457  0.65635817  1
  Nb  Nb5  1  0.24834615  0.90470332  0.15868072  1
  Si  Si0  1  0.77004076  0.52718690  0.25912523  1
  Si  Si1  1  0.22995924  0.48908447  0.75714614  1
  Si  Si2  1  0.33422445  0.82157917  0.49428601  1
  Si  Si3  1  0.66577555  0.16006256  0.48735572  1
  Si  Si4  1  0.82897389  0.82597248  0.99070266  1
  Si  Si5  1  0.17102611  0.16172977  0.99699859  1
  Tc  Tc0  1  1.00000000  0.24610535  0.24610535  1
  Tc  Tc1  1  0.15386268  0.74920392  0.64952245  1
  Tc  Tc2  1  0.84613732  0.49565777  0.59533924  1
  Tc  Tc3  1  0.59846590  0.75050305  0.09478926  1
  Tc  Tc4  1  0.40153410  0.49632236  0.15203715  1
  Mo  Mo0  1  0.50000000  0.24467216  0.74467216  1
loop_
_geom_bond_atom_site_label_1
_geom_bond_atom_site_label_2
_geom_bond_distance
_geom_bond_site_symmetry_2
Nb0 Si4 2.657001 1_544
Nb0 Si2 2.662137 1_544
Nb0 Si3 2.681787 1_555
Nb0 Si5 2.692129 1_554
Nb0 Tc3 2.810643 1_545
Nb0 Tc1 2.811783 1_544
Nb0 Tc4 2.822841 1_555
Nb0 Tc2 2.829614 1_555
Nb0 Tc0 2.872882 1_555
Nb0 Si0 2.896159 1_555
Nb1 Si5 2.657000 1_554
Nb1 Si3 2.662131 1_555
Nb1 Si2 2.681784 1_555
Nb1 Si4 2.692129 1_555
Nb1 Tc4 2.810638 1_555
Nb1 Tc2 2.811788 1_555
Nb1 Tc3 2.822847 1_556
Nb1 Tc1 2.829624 1_555
Nb1 Tc0 2.872882 1_455
Nb1 Si1 2.896159 1_555
Nb2 Si2 2.644527 1_655
Nb2 Si4 2.648996 1_554
Nb2 Si0 2.658323 1_555
Nb2 Si3 2.689386 1_554
Nb2 Si5 2.692366 1_654
Nb2 Tc2 2.922296 1_554
Nb2 Tc4 2.936534 1_655
Nb2 Tc0 2.995504 1_555
Nb2 Tc3 3.107688 1_555
Nb2 Tc1 3.114404 1_655
Nb3 Si3 2.644531 1_455
Nb3 Si5 2.648989 1_555
Nb3 Si1 2.658330 1_555
Nb3 Si2 2.689387 1_545
Nb3 Si4 2.692373 1_444
Nb3 Tc1 2.922283 1_545
Nb3 Tc3 2.936532 1_445
Nb3 Tc0 2.995510 1_455
Nb3 Tc4 3.107688 1_556
Nb3 Tc2 3.114401 1_455
Nb4 Si5 2.662025 1_665
Nb4 Si3 2.663897 1_565
Nb4 Si2 2.677840 1_555
Nb4 Si4 2.685732 1_555
Nb4 Si0 2.705184 1_555
Nb4 Tc0 2.867630 1_566
Nb4 Tc4 2.874447 1_555
Nb4 Tc2 2.893425 1_555
Nb4 Tc3 3.071385 1_555
Nb4 Tc1 3.074459 1_655
Nb5 Si4 2.662021 1_454
Nb5 Si2 2.663890 1_555
Nb5 Si3 2.677845 1_565
Nb5 Si5 2.685746 1_564
Nb5 Si1 2.705180 1_554
Nb5 Tc0 2.867634 1_465
Nb5 Tc3 2.874442 1_555
Nb5 Tc1 2.893418 1_554
Nb5 Tc4 3.071386 1_555
Nb5 Tc2 3.074466 1_454
Si0 Tc1 2.402724 1_655
Si0 Tc2 2.412288 1_555
Si0 Tc4 2.415719 1_555
Si0 Tc3 2.428917 1_555
Si0 Tc0 2.474319 1_555
Si1 Tc2 2.402720 1_455
Si1 Tc1 2.412292 1_555
Si1 Tc3 2.415719 1_556
Si1 Tc4 2.428921 1_556
Si1 Tc0 2.474319 1_455
Si2 Tc4 2.536380 1_555
Si2 Tc1 2.541222 1_555
Si3 Tc3 2.536384 1_545
Si3 Tc2 2.541215 1_555
Si4 Tc3 2.548175 1_556
Si4 Tc2 2.560168 1_555
Si4 Tc0 2.593259 1_566
Si5 Tc4 2.548163 1_556
Si5 Tc1 2.560160 1_545
Si5 Tc0 2.593261 1_456
Tc0 Tc2 2.945759 1_555
Tc0 Tc1 2.945771 1_655
Tc1 Tc2 2.974580 1_455
Tc1 Tc3 3.057897 1_556
Tc2 Tc4 3.057893 1_555
Tc3 Tc4 2.985788 1_555
Mo0 Si1 2.490223 1_555
Mo0 Si0 2.490223 1_556
Mo0 Si3 2.612377 1_555
Mo0 Si2 2.612382 1_545
Mo0 Nb4 2.850216 1_545
Mo0 Nb5 2.850217 1_545
Mo0 Nb0 2.870772 1_556
Mo0 Nb1 2.870772 1_555
Mo0 Tc4 2.962683 1_556
Mo0 Tc3 2.962683 1_556
Mo0 Nb2 2.978022 1_556
Mo0 Nb3 2.978024 1_555
