# generated using pymatgen
data_HfNb6PbS12
_symmetry_space_group_name_H-M   'P 1'
_cell_length_a   5.83147070
_cell_length_b   5.83147074
_cell_length_c   13.86173126
_cell_angle_alpha   90.00000000
_cell_angle_beta   90.00000000
_cell_angle_gamma   119.99999408
_symmetry_Int_Tables_number   1
_chemical_formula_structural   HfNb6PbS12
_chemical_formula_sum   'Hf1 Nb6 Pb1 S12'
_cell_volume   408.22944951
_cell_formula_units_Z   1
loop_
 _symmetry_equiv_pos_site_id
 _symmetry_equiv_pos_as_xyz
  1  'x, y, z'
loop_
 _atom_site_type_symbol
 _atom_site_label
 _atom_site_symmetry_multiplicity
 _atom_site_fract_x
 _atom_site_fract_y
 _atom_site_fract_z
 _atom_site_occupancy
  Hf  Hf0  1  0.00000000  0.00000000  0.00000000  1
  Nb  Nb0  1  0.00000000  0.00000000  0.76938029  1
  Nb  Nb1  1  0.00000000  0.00000000  0.23061971  1
  Nb  Nb2  1  0.33333300  0.66666700  0.22933155  1
  Nb  Nb3  1  0.66666700  0.33333300  0.77066845  1
  Nb  Nb4  1  0.66666700  0.33333300  0.22933155  1
  Nb  Nb5  1  0.33333300  0.66666700  0.77066845  1
  Pb  Pb0  1  0.00000000  0.00000000  0.50000000  1
  S  S0  1  0.33495891  0.00000000  0.11496209  1
  S  S1  1  0.00000000  0.33495891  0.11496209  1
  S  S2  1  0.66504109  0.66504109  0.11496209  1
  S  S3  1  0.33799900  0.33799900  0.65697090  1
  S  S4  1  0.66200100  0.66200100  0.34302910  1
  S  S5  1  0.66200100  0.00000000  0.65697090  1
  S  S6  1  0.00000000  0.66200100  0.65697090  1
  S  S7  1  1.00000000  0.66504109  0.88503791  1
  S  S8  1  0.33495891  0.33495891  0.88503791  1
  S  S9  1  0.00000000  0.33799900  0.34302910  1
  S  S10  1  0.33799900  0.00000000  0.34302910  1
  S  S11  1  0.66504109  1.00000000  0.88503791  1
loop_
_geom_bond_atom_site_label_1
_geom_bond_atom_site_label_2
_geom_bond_distance
_geom_bond_site_symmetry_2
Hf0 S0 2.520887 1_555
Hf0 S11 2.520887 1_444
Hf0 S1 2.520887 1_555
Hf0 S7 2.520887 1_444
Hf0 S2 2.520887 1_445
Hf0 S8 2.520887 1_554
Nb0 S5 2.512552 1_455
Nb0 S6 2.512552 1_545
Nb0 S3 2.512552 1_555
Nb0 S11 2.526992 1_445
Nb0 S7 2.526992 1_445
Nb0 S8 2.526993 1_555
Nb1 S10 2.512552 1_555
Nb1 S9 2.512552 1_555
Nb1 S4 2.512552 1_445
Nb1 S0 2.526992 1_555
Nb1 S1 2.526992 1_555
Nb1 S2 2.526993 1_445
Nb2 S10 2.492029 1_565
Nb2 S9 2.492032 1_555
Nb2 S4 2.492034 1_555
Nb2 S0 2.504688 1_565
Nb2 S1 2.504691 1_555
Nb2 S2 2.504693 1_555
Nb3 S5 2.492029 1_555
Nb3 S6 2.492032 1_655
Nb3 S3 2.492034 1_555
Nb3 S11 2.504688 1_545
Nb3 S7 2.504691 1_555
Nb3 S8 2.504693 1_555
Nb4 S9 2.492029 1_655
Nb4 S10 2.492032 1_555
Nb4 S4 2.492034 1_555
Nb4 S1 2.504688 1_655
Nb4 S0 2.504691 1_555
Nb4 S2 2.504693 1_555
Nb5 S6 2.492029 1_555
Nb5 S5 2.492032 1_565
Nb5 S3 2.492034 1_555
Nb5 S7 2.504688 1_455
Nb5 S11 2.504691 1_555
Nb5 S8 2.504693 1_555
Pb0 S5 2.935891 1_455
Pb0 S10 2.935891 1_555
Pb0 S6 2.935891 1_545
Pb0 S9 2.935891 1_555
Pb0 S3 2.935891 1_555
Pb0 S4 2.935891 1_445
