# generated using pymatgen
data_Y2Mg(Si3Pd10)2
_symmetry_space_group_name_H-M   'P 1'
_cell_length_a   8.60948060
_cell_length_b   8.60947987
_cell_length_c   8.60948127
_cell_angle_alpha   60.00000210
_cell_angle_beta   60.00000491
_cell_angle_gamma   60.00000046
_symmetry_Int_Tables_number   1
_chemical_formula_structural   Y2Mg(Si3Pd10)2
_chemical_formula_sum   'Y2 Mg1 Si6 Pd20'
_cell_volume   451.24861124
_cell_formula_units_Z   1
loop_
 _symmetry_equiv_pos_site_id
 _symmetry_equiv_pos_as_xyz
  1  'x, y, z'
loop_
 _atom_site_type_symbol
 _atom_site_label
 _atom_site_symmetry_multiplicity
 _atom_site_fract_x
 _atom_site_fract_y
 _atom_site_fract_z
 _atom_site_occupancy
  Y  Y0  1  0.25000000  0.25000000  0.25000000  1
  Y  Y1  1  0.75000000  0.75000000  0.75000000  1
  Mg  Mg0  1  0.00000000  0.00000000  0.00000000  1
  Si  Si0  1  0.73452105  0.26547895  0.26547895  1
  Si  Si1  1  0.26547895  0.73452105  0.73452105  1
  Si  Si2  1  0.26547895  0.73452105  0.26547895  1
  Si  Si3  1  0.73452105  0.26547895  0.73452105  1
  Si  Si4  1  0.26547895  0.26547895  0.73452105  1
  Si  Si5  1  0.73452105  0.73452105  0.26547895  1
  Pd  Pd0  1  0.34460301  0.00000000  0.00000000  1
  Pd  Pd1  1  0.65539699  1.00000000  1.00000000  1
  Pd  Pd2  1  1.00000000  0.34460301  0.65539699  1
  Pd  Pd3  1  0.00000000  0.65539699  0.34460301  1
  Pd  Pd4  1  1.00000000  0.34460301  1.00000000  1
  Pd  Pd5  1  0.65539699  0.00000000  0.34460301  1
  Pd  Pd6  1  0.00000000  0.65539699  0.00000000  1
  Pd  Pd7  1  0.34460301  1.00000000  0.65539699  1
  Pd  Pd8  1  0.00000000  0.00000000  0.34460301  1
  Pd  Pd9  1  1.00000000  1.00000000  0.65539699  1
  Pd  Pd10  1  0.65539699  0.34460301  1.00000000  1
  Pd  Pd11  1  0.34460301  0.65539699  0.00000000  1
  Pd  Pd12  1  0.38398161  0.38398161  0.38398161  1
  Pd  Pd13  1  0.61601839  0.61601839  0.61601839  1
  Pd  Pd14  1  0.38398161  0.38398161  0.84805616  1
  Pd  Pd15  1  0.38398161  0.84805616  0.38398161  1
  Pd  Pd16  1  0.61601839  0.61601839  0.15194384  1
  Pd  Pd17  1  0.61601839  0.15194384  0.61601839  1
  Pd  Pd18  1  0.84805616  0.38398161  0.38398161  1
  Pd  Pd19  1  0.15194384  0.61601839  0.61601839  1
loop_
_geom_bond_atom_site_label_1
_geom_bond_atom_site_label_2
_geom_bond_distance
_geom_bond_site_symmetry_2
Mg0 Pd4 2.966853 1_454
Mg0 Pd6 2.966853 1_545
Mg0 Pd11 2.966853 1_545
Mg0 Pd10 2.966853 1_454
Mg0 Pd0 2.966853 1_555
Mg0 Pd1 2.966853 1_444
Mg0 Pd3 2.966853 1_545
Mg0 Pd2 2.966853 1_454
Mg0 Pd8 2.966853 1_555
Mg0 Pd9 2.966853 1_444
Mg0 Pd5 2.966853 1_455
Mg0 Pd7 2.966853 1_544
Pd0 Si2 2.384992 1_545
Pd0 Si4 2.384992 1_554
Pd1 Si3 2.384992 1_565
Pd1 Si5 2.384992 1_556
Pd2 Si3 2.384992 1_555
Pd2 Si4 2.384992 1_655
Pd3 Si2 2.384992 1_555
Pd3 Si5 2.384992 1_455
Pd4 Si0 2.384992 1_556
Pd4 Si4 2.384992 1_655
Pd5 Si0 2.384992 1_555
Pd5 Si5 2.384992 1_545
Pd6 Si1 2.384992 1_554
Pd6 Si5 2.384992 1_455
Pd7 Si1 2.384992 1_555
Pd7 Si4 2.384992 1_565
Pd8 Si0 2.384992 1_455
Pd8 Si2 2.384992 1_545
Pd9 Si1 2.384992 1_655
Pd9 Si3 2.384992 1_565
Pd10 Si3 2.384992 1_555
Pd10 Si0 2.384992 1_556
Pd11 Si2 2.384992 1_555
Pd11 Si1 2.384992 1_554
Pd12 Si2 2.464280 1_555
Pd12 Si0 2.464280 1_555
Pd12 Si4 2.464280 1_555
Pd12 Y0 2.825516 1_555
Pd13 Si3 2.464280 1_555
Pd13 Si1 2.464280 1_555
Pd13 Si5 2.464280 1_555
Pd13 Y1 2.825516 1_555
Pd14 Si1 2.464280 1_555
Pd14 Si3 2.464280 1_555
Pd14 Si4 2.464287 1_555
Pd14 Y0 2.825509 1_556
Pd15 Si5 2.464280 1_555
Pd15 Si1 2.464280 1_555
Pd15 Si2 2.464287 1_555
Pd15 Y0 2.825509 1_565
Pd16 Si0 2.464280 1_555
Pd16 Si2 2.464280 1_555
Pd16 Si5 2.464287 1_555
Pd16 Y1 2.825509 1_554
Pd17 Si4 2.464280 1_555
Pd17 Si0 2.464280 1_555
Pd17 Si3 2.464287 1_555
Pd17 Y1 2.825509 1_545
Pd18 Si5 2.464280 1_555
Pd18 Si3 2.464280 1_555
Pd18 Si0 2.464287 1_555
Pd18 Y0 2.825509 1_655
Pd19 Si4 2.464280 1_555
Pd19 Si2 2.464280 1_555
Pd19 Si1 2.464287 1_555
Pd19 Y1 2.825509 1_455
