# generated using pymatgen
data_CsNb2TcSe6
_symmetry_space_group_name_H-M   'P 1'
_cell_length_a   5.94378073
_cell_length_b   5.94378205
_cell_length_c   18.89009904
_cell_angle_alpha   90.00000000
_cell_angle_beta   90.00000000
_cell_angle_gamma   119.99999822
_symmetry_Int_Tables_number   1
_chemical_formula_structural   CsNb2TcSe6
_chemical_formula_sum   'Cs2 Nb4 Tc2 Se12'
_cell_volume   577.95034885
_cell_formula_units_Z   2
loop_
 _symmetry_equiv_pos_site_id
 _symmetry_equiv_pos_as_xyz
  1  'x, y, z'
loop_
 _atom_site_type_symbol
 _atom_site_label
 _atom_site_symmetry_multiplicity
 _atom_site_fract_x
 _atom_site_fract_y
 _atom_site_fract_z
 _atom_site_occupancy
  Cs  Cs0  1  0.00000000  0.00000000  0.00000000  1
  Cs  Cs1  1  0.00000000  0.00000000  0.50000000  1
  Nb  Nb0  1  0.33333300  0.66666700  0.25000000  1
  Nb  Nb1  1  0.66666700  0.33333300  0.75000000  1
  Nb  Nb2  1  0.66666700  0.33333300  0.25000000  1
  Nb  Nb3  1  0.33333300  0.66666700  0.75000000  1
  Tc  Tc0  1  0.00000000  0.00000000  0.75000000  1
  Tc  Tc1  1  0.00000000  0.00000000  0.25000000  1
  Se  Se0  1  0.32560046  0.00000000  0.16299628  1
  Se  Se1  1  1.00000000  0.32560046  0.16299628  1
  Se  Se2  1  0.67439954  0.67439954  0.16299628  1
  Se  Se3  1  0.32560046  0.32560046  0.66299628  1
  Se  Se4  1  0.67439954  0.67439954  0.33700372  1
  Se  Se5  1  0.67439954  1.00000000  0.66299628  1
  Se  Se6  1  0.00000000  0.67439954  0.66299628  1
  Se  Se7  1  0.00000000  0.67439954  0.83700372  1
  Se  Se8  1  0.32560046  0.32560046  0.83700372  1
  Se  Se9  1  1.00000000  0.32560046  0.33700372  1
  Se  Se10  1  0.32560046  0.00000000  0.33700372  1
  Se  Se11  1  0.67439954  1.00000000  0.83700372  1
loop_
_geom_bond_atom_site_label_1
_geom_bond_atom_site_label_2
_geom_bond_distance
_geom_bond_site_symmetry_2
Cs0 Se0 3.636718 1_555
Cs0 Se11 3.636718 1_444
Cs0 Se2 3.636718 1_445
Cs0 Se8 3.636718 1_554
Cs0 Se1 3.636718 1_455
Cs0 Se7 3.636718 1_544
Cs1 Se5 3.636718 1_445
Cs1 Se10 3.636718 1_555
Cs1 Se3 3.636718 1_555
Cs1 Se4 3.636718 1_445
Cs1 Se6 3.636718 1_545
Cs1 Se9 3.636718 1_455
Nb0 Se10 2.592234 1_565
Nb0 Se0 2.592234 1_565
Nb0 Se9 2.592237 1_455
Nb0 Se1 2.592237 1_455
Nb0 Se4 2.592239 1_555
Nb0 Se2 2.592239 1_555
Nb1 Se11 2.592234 1_545
Nb1 Se5 2.592234 1_545
Nb1 Se7 2.592237 1_655
Nb1 Se6 2.592237 1_655
Nb1 Se8 2.592239 1_555
Nb1 Se3 2.592239 1_555
Nb2 Se9 2.592234 1_555
Nb2 Se1 2.592234 1_555
Nb2 Se10 2.592237 1_555
Nb2 Se0 2.592237 1_555
Nb2 Se4 2.592239 1_555
Nb2 Se2 2.592239 1_555
Nb3 Se7 2.592234 1_555
Nb3 Se6 2.592234 1_555
Nb3 Se11 2.592237 1_555
Nb3 Se5 2.592237 1_555
Nb3 Se8 2.592239 1_555
Nb3 Se3 2.592239 1_555
Se0 Tc1 2.538996 1_555
Se1 Tc1 2.538996 1_655
Se2 Tc1 2.538996 1_665
Se3 Tc0 2.538996 1_555
Se4 Tc1 2.538996 1_665
Se5 Tc0 2.538996 1_665
Se6 Tc0 2.538996 1_565
Se7 Tc0 2.538996 1_565
Se8 Tc0 2.538996 1_555
Se9 Tc1 2.538996 1_655
Se10 Tc1 2.538996 1_555
Se11 Tc0 2.538996 1_665
