# generated using pymatgen
data_Zn11Co(Mo3N)4
_symmetry_space_group_name_H-M   'P 1'
_cell_length_a   7.95247020
_cell_length_b   7.95247030
_cell_length_c   7.94751090
_cell_angle_alpha   59.97941372
_cell_angle_beta   59.97939205
_cell_angle_gamma   60.00001414
_symmetry_Int_Tables_number   1
_chemical_formula_structural   Zn11Co(Mo3N)4
_chemical_formula_sum   'Zn11 Co1 Mo12 N4'
_cell_volume   355.29165754
_cell_formula_units_Z   1
loop_
 _symmetry_equiv_pos_site_id
 _symmetry_equiv_pos_as_xyz
  1  'x, y, z'
loop_
 _atom_site_type_symbol
 _atom_site_label
 _atom_site_symmetry_multiplicity
 _atom_site_fract_x
 _atom_site_fract_y
 _atom_site_fract_z
 _atom_site_occupancy
  Zn  Zn0  1  0.41599133  0.41599133  0.41825480  1
  Zn  Zn1  1  0.74975954  0.41599233  0.41825580  1
  Zn  Zn2  1  0.41599233  0.74975954  0.41825580  1
  Zn  Zn3  1  0.83376892  0.83376892  0.49869324  1
  Zn  Zn4  1  0.83462301  0.83462301  0.83299507  1
  Zn  Zn5  1  0.49776190  0.83462201  0.83299307  1
  Zn  Zn6  1  0.83462201  0.49776190  0.83299307  1
  Zn  Zn7  1  0.62480325  0.62480325  0.12559126  1
  Zn  Zn8  1  0.62165697  0.62165697  0.62769637  1
  Zn  Zn9  1  0.12898869  0.62165697  0.62769737  1
  Zn  Zn10  1  0.62165697  0.12898869  0.62769737  1
  Co  Co0  1  0.41244965  0.41244965  0.76265205  1
  Mo  Mo0  1  0.80958069  0.19070428  0.19013335  1
  Mo  Mo1  1  0.19070428  0.80958069  0.19013335  1
  Mo  Mo2  1  0.80958169  0.80958169  0.19013335  1
  Mo  Mo3  1  0.19317486  0.80689856  0.80675173  1
  Mo  Mo4  1  0.80689856  0.19317486  0.80675173  1
  Mo  Mo5  1  0.19317486  0.19317486  0.80675173  1
  Mo  Mo6  1  0.44077503  0.06198702  0.05646392  1
  Mo  Mo7  1  0.06198702  0.44077503  0.05646392  1
  Mo  Mo8  1  0.44077503  0.44077503  0.05646292  1
  Mo  Mo9  1  0.05943977  0.44171089  0.43940857  1
  Mo  Mo10  1  0.44171089  0.05943977  0.43940857  1
  Mo  Mo11  1  0.05943977  0.05943977  0.43940857  1
  N  N0  1  0.12439936  0.12439936  0.62680293  1
  N  N1  1  0.12525318  0.12525318  0.12371736  1
  N  N2  1  0.62577627  0.12525318  0.12371736  1
  N  N3  1  0.12525318  0.62577627  0.12371736  1
loop_
_geom_bond_atom_site_label_1
_geom_bond_atom_site_label_2
_geom_bond_distance
_geom_bond_site_symmetry_2
Zn0 Zn9 2.417582 1_555
Zn0 Zn10 2.417583 1_555
Zn0 Zn7 2.439857 1_555
Zn0 Zn1 2.654290 1_555
Zn0 Zn2 2.654290 1_555
Zn1 Zn8 2.417568 1_555
Zn1 Zn10 2.417577 1_555
Zn1 Zn7 2.439846 1_555
Zn1 Zn2 2.654274 1_555
Zn2 Zn8 2.417569 1_555
Zn2 Zn9 2.417576 1_555
Zn2 Zn7 2.439845 1_555
Zn3 Zn9 2.475112 1_655
Zn3 Zn8 2.475114 1_555
Zn3 Zn5 2.663663 1_555
Zn3 Zn6 2.663664 1_555
Zn3 Zn4 2.663681 1_555
Zn4 Zn9 2.447233 1_655
Zn4 Zn7 2.448457 1_556
Zn4 Zn5 2.678890 1_555
Zn4 Zn6 2.678890 1_555
Zn5 Zn8 2.447226 1_555
Zn5 Zn7 2.448460 1_556
Zn5 Zn6 2.678871 1_555
Zn6 Zn8 2.447226 1_555
Zn6 Zn9 2.447228 1_655
Zn6 Zn7 2.448460 1_556
Zn10 Zn5 2.447228 1_545
Zn10 Zn4 2.447234 1_545
Zn10 Zn3 2.475111 1_545
Co0 Zn8 2.425517 1_555
Co0 Zn10 2.425525 1_555
Co0 Zn9 2.425525 1_555
Co0 Mo8 2.580191 1_556
Co0 Mo7 2.580200 1_556
Co0 Mo6 2.580201 1_556
Co0 Zn1 2.709193 1_555
Co0 Zn2 2.709194 1_555
Co0 Zn0 2.709211 1_555
Co0 Mo3 2.832310 1_555
Co0 Mo4 2.832310 1_555
Co0 Mo5 2.832316 1_555
Mo0 N2 2.119870 1_555
Mo0 N1 2.119878 1_655
Mo0 Zn6 2.654089 1_554
Mo0 Zn3 2.658702 1_545
Mo0 Zn7 2.872171 1_555
Mo0 Zn0 2.873665 1_555
Mo0 Zn1 2.873670 1_555
Mo0 Zn10 2.897063 1_555
Mo1 N3 2.119870 1_555
Mo1 N1 2.119878 1_565
Mo1 Zn5 2.654088 1_554
Mo1 Zn3 2.658701 1_455
Mo1 Zn7 2.872171 1_555
Mo1 Zn0 2.873666 1_555
Mo1 Zn2 2.873670 1_555
Mo1 Zn9 2.897063 1_555
Mo2 N3 2.119872 1_655
Mo2 N2 2.119873 1_565
Mo2 Zn4 2.654071 1_554
Mo2 Zn3 2.658695 1_555
Mo2 Zn7 2.872170 1_555
Mo2 Zn2 2.873675 1_555
Mo2 Zn1 2.873676 1_555
Mo2 Zn8 2.897060 1_555
Mo3 N3 2.120858 1_556
Mo3 N0 2.123235 1_565
Mo3 Zn4 2.654187 1_455
Mo3 Zn5 2.654197 1_555
Mo3 Zn2 2.829074 1_555
Mo3 Zn9 2.834091 1_555
Mo3 Zn8 2.834094 1_555
Mo4 N2 2.120857 1_556
Mo4 N0 2.123235 1_655
Mo4 Zn4 2.654187 1_545
Mo4 Zn6 2.654197 1_555
Mo4 Zn1 2.829074 1_555
Mo4 Zn10 2.834091 1_555
Mo4 Zn8 2.834095 1_555
Mo5 N1 2.120857 1_556
Mo5 N0 2.123228 1_555
Mo5 Zn6 2.654202 1_455
Mo5 Zn5 2.654202 1_545
Mo5 Zn0 2.829073 1_555
Mo5 Zn10 2.834093 1_555
Mo5 Zn9 2.834094 1_555
Mo6 N2 2.121188 1_555
Mo6 N1 2.121196 1_555
Mo6 Zn2 2.692599 1_545
Mo6 Zn10 2.830167 1_554
Mo6 Zn4 2.866597 1_544
Mo6 Zn5 2.866609 1_544
Mo6 Zn7 2.887246 1_545
Mo7 N3 2.121188 1_555
Mo7 N1 2.121196 1_555
Mo7 Zn1 2.692598 1_455
Mo7 Zn9 2.830168 1_554
Mo7 Zn4 2.866598 1_454
Mo7 Zn6 2.866609 1_454
Mo7 Zn7 2.887246 1_455
Mo8 N3 2.121194 1_555
Mo8 N2 2.121194 1_555
Mo8 Zn0 2.692587 1_555
Mo8 Zn8 2.830167 1_554
Mo8 Zn6 2.866597 1_554
Mo8 Zn5 2.866597 1_554
Mo8 Zn7 2.887251 1_555
Mo9 N3 2.118668 1_555
Mo9 N0 2.135021 1_555
Mo9 Zn0 2.662222 1_555
Mo9 Zn1 2.662229 1_455
Mo9 Zn6 2.860405 1_455
Mo9 Zn3 2.862174 1_455
Mo9 Zn8 2.890564 1_455
Mo9 Zn9 2.890569 1_555
Mo10 N2 2.118668 1_555
Mo10 N0 2.135020 1_555
Mo10 Zn0 2.662222 1_555
Mo10 Zn2 2.662229 1_545
Mo10 Zn5 2.860406 1_545
Mo10 Zn3 2.862175 1_545
Mo10 Zn8 2.890565 1_545
Mo10 Zn10 2.890569 1_555
Mo11 N1 2.118666 1_555
Mo11 N0 2.135030 1_555
Mo11 Zn2 2.662234 1_545
Mo11 Zn1 2.662234 1_455
Mo11 Zn4 2.860408 1_445
Mo11 Zn3 2.862168 1_445
Mo11 Zn10 2.890564 1_455
Mo11 Zn9 2.890565 1_545
