# generated using pymatgen
data_HfGaNi3Pd
_symmetry_space_group_name_H-M   'P 1'
_cell_length_a   4.77174972
_cell_length_b   4.77175004
_cell_length_c   4.77175025
_cell_angle_alpha   60.98426246
_cell_angle_beta   60.98425889
_cell_angle_gamma   60.98425335
_symmetry_Int_Tables_number   1
_chemical_formula_structural   HfGaNi3Pd
_chemical_formula_sum   'Hf1 Ga1 Ni3 Pd1'
_cell_volume   78.53121348
_cell_formula_units_Z   1
loop_
 _symmetry_equiv_pos_site_id
 _symmetry_equiv_pos_as_xyz
  1  'x, y, z'
loop_
 _atom_site_type_symbol
 _atom_site_label
 _atom_site_symmetry_multiplicity
 _atom_site_fract_x
 _atom_site_fract_y
 _atom_site_fract_z
 _atom_site_occupancy
  Hf  Hf0  1  0.24340841  0.24340841  0.24340841  1
  Ga  Ga0  1  0.62885141  0.62885141  0.62885141  1
  Ni  Ni0  1  0.12642392  0.62639863  0.62639863  1
  Ni  Ni1  1  0.62639863  0.12642392  0.62639863  1
  Ni  Ni2  1  0.62639863  0.62639863  0.12642392  1
  Pd  Pd0  1  0.99851699  0.99851699  0.99851699  1
loop_
_geom_bond_atom_site_label_1
_geom_bond_atom_site_label_2
_geom_bond_distance
_geom_bond_site_symmetry_2
Hf0 Ni2 2.775760 1_455
Hf0 Ni2 2.775760 1_545
Hf0 Ni1 2.775760 1_455
Hf0 Ni1 2.775760 1_554
Hf0 Ni0 2.775760 1_545
Hf0 Ni0 2.775760 1_554
Hf0 Pd0 2.840900 1_444
Hf0 Ni1 2.872639 1_555
Hf0 Ni0 2.872639 1_555
Hf0 Ni2 2.872639 1_555
Hf0 Pd0 2.978161 1_544
Hf0 Pd0 2.978162 1_454
Hf0 Pd0 2.978162 1_445
Ga0 Ni0 2.362996 1_655
Ga0 Ni1 2.362996 1_565
Ga0 Ni2 2.362996 1_556
Ga0 Ni0 2.408870 1_555
Ga0 Ni1 2.408870 1_555
Ga0 Ni2 2.408870 1_555
Ga0 Pd0 2.827445 1_455
Ga0 Pd0 2.827445 1_545
Ga0 Pd0 2.827446 1_554
Ga0 Hf0 2.860460 1_655
Ga0 Hf0 2.860460 1_565
Ga0 Hf0 2.860460 1_556
Ni0 Ni1 2.421159 1_555
Ni0 Ni2 2.421159 1_555
Ni0 Ni1 2.421404 1_465
Ni0 Ni2 2.421404 1_456
Ni0 Pd0 2.763042 1_455
Ni0 Pd0 2.839665 1_445
Ni0 Pd0 2.839665 1_454
Ni1 Ni2 2.421159 1_555
Ni1 Ni2 2.421404 1_546
Ni1 Pd0 2.763042 1_545
Ni1 Pd0 2.839665 1_445
Ni1 Pd0 2.839665 1_544
Ni2 Pd0 2.763042 1_554
Ni2 Pd0 2.839665 1_454
Ni2 Pd0 2.839665 1_544
