# generated using pymatgen
data_Hg4SbSe2Cl5
_symmetry_space_group_name_H-M   'P 1'
_cell_length_a   8.29447397
_cell_length_b   10.61149281
_cell_length_c   8.92886837
_cell_angle_alpha   90.00000000
_cell_angle_beta   112.83109331
_cell_angle_gamma   90.00000000
_symmetry_Int_Tables_number   1
_chemical_formula_structural   Hg4SbSe2Cl5
_chemical_formula_sum   'Hg8 Sb2 Se4 Cl10'
_cell_volume   724.31763992
_cell_formula_units_Z   2
loop_
 _symmetry_equiv_pos_site_id
 _symmetry_equiv_pos_as_xyz
  1  'x, y, z'
loop_
 _atom_site_type_symbol
 _atom_site_label
 _atom_site_symmetry_multiplicity
 _atom_site_fract_x
 _atom_site_fract_y
 _atom_site_fract_z
 _atom_site_occupancy
  Hg  Hg0  1  0.92592289  0.17439887  0.32980853  1
  Hg  Hg1  1  0.07407711  0.67439887  0.67019147  1
  Hg  Hg2  1  0.95774198  0.67294353  0.35569621  1
  Hg  Hg3  1  0.04225802  0.17294353  0.64430379  1
  Hg  Hg4  1  0.49186453  0.18392512  0.98736484  1
  Hg  Hg5  1  0.50813547  0.68392512  0.01263516  1
  Hg  Hg6  1  0.80882226  0.43120108  0.00811057  1
  Hg  Hg7  1  0.19117774  0.93120108  0.99188943  1
  Sb  Sb0  1  0.49836170  0.42889877  0.51116159  1
  Sb  Sb1  1  0.50163830  0.92889877  0.48883841  1
  Se  Se0  1  0.80304191  0.19328346  0.01651623  1
  Se  Se1  1  0.19695809  0.69328346  0.98348377  1
  Se  Se2  1  0.18152871  0.16788350  0.95827969  1
  Se  Se3  1  0.81847129  0.66788350  0.04172031  1
  Cl  Cl0  1  0.82581147  0.92010574  0.67605127  1
  Cl  Cl1  1  0.17418853  0.42010574  0.32394873  1
  Cl  Cl2  1  0.85488717  0.43086540  0.70224815  1
  Cl  Cl3  1  0.14511283  0.93086540  0.29775185  1
  Cl  Cl4  1  0.40808106  0.45304419  0.77781126  1
  Cl  Cl5  1  0.59191894  0.95304419  0.22218874  1
  Cl  Cl6  1  0.58356197  0.39199732  0.26776531  1
  Cl  Cl7  1  0.41643803  0.89199732  0.73223469  1
  Cl  Cl8  1  0.49818675  0.20505302  0.56854801  1
  Cl  Cl9  1  0.50181325  0.70505302  0.43145199  1
loop_
_geom_bond_atom_site_label_1
_geom_bond_atom_site_label_2
_geom_bond_distance
_geom_bond_site_symmetry_2
Hg0 Se0 2.586804 1_555
Hg0 Hg3 2.591126 1_655
Hg1 Se1 2.586804 1_555
Hg1 Hg2 2.591126 1_455
Hg2 Se3 2.585243 1_555
Hg3 Se2 2.585243 1_555
Hg4 Se2 2.490684 1_555
Hg4 Se0 2.493610 1_556
Hg5 Se3 2.490684 1_555
Hg5 Se1 2.493610 1_554
Hg6 Se0 2.526784 1_555
Hg6 Se3 2.527000 1_555
Hg7 Se1 2.526784 1_555
Hg7 Se2 2.527000 1_565
Cl0 Sb1 2.558287 1_555
Cl1 Sb0 2.558287 1_555
Cl2 Sb0 2.782266 1_555
Cl2 Hg6 2.900717 1_556
Cl3 Sb1 2.782266 1_555
Cl3 Hg7 2.900717 1_554
Cl4 Sb0 2.771020 1_555
Cl5 Sb1 2.771020 1_555
Cl6 Sb0 2.562737 1_555
Cl7 Sb1 2.562737 1_555
Cl8 Sb0 2.430094 1_555
Cl8 Sb1 3.018355 1_545
Cl9 Sb1 2.430094 1_555
Cl9 Sb0 3.018355 1_555
