# generated using pymatgen
data_Li2TcBr6
_symmetry_space_group_name_H-M   'P 1'
_cell_length_a   6.59595101
_cell_length_b   6.59595049
_cell_length_c   25.60165563
_cell_angle_alpha   90.00000000
_cell_angle_beta   90.00000000
_cell_angle_gamma   120.00000261
_symmetry_Int_Tables_number   1
_chemical_formula_structural   Li2TcBr6
_chemical_formula_sum   'Li8 Tc4 Br24'
_cell_volume   964.61382212
_cell_formula_units_Z   4
loop_
 _symmetry_equiv_pos_site_id
 _symmetry_equiv_pos_as_xyz
  1  'x, y, z'
loop_
 _atom_site_type_symbol
 _atom_site_label
 _atom_site_symmetry_multiplicity
 _atom_site_fract_x
 _atom_site_fract_y
 _atom_site_fract_z
 _atom_site_occupancy
  Li  Li0  1  0.00000000  0.00000000  0.25000000  1
  Li  Li1  1  0.00000000  0.00000000  0.75000000  1
  Li  Li2  1  0.33333300  0.66666700  0.00001089  1
  Li  Li3  1  0.33333300  0.66666700  0.49998911  1
  Li  Li4  1  0.33333300  0.66666700  0.25000000  1
  Li  Li5  1  0.66666700  0.33333300  0.75000000  1
  Li  Li6  1  0.66666700  0.33333300  0.99998911  1
  Li  Li7  1  0.66666700  0.33333300  0.50001089  1
  Tc  Tc0  1  0.00000000  0.00000000  0.00000000  1
  Tc  Tc1  1  0.00000000  0.00000000  0.50000000  1
  Tc  Tc2  1  0.33333300  0.66666700  0.75000000  1
  Tc  Tc3  1  0.66666700  0.33333300  0.25000000  1
  Br  Br0  1  0.35465982  0.02114408  0.30734432  1
  Br  Br1  1  0.33351574  0.97885592  0.80734432  1
  Br  Br2  1  0.00009005  0.31223483  0.05735170  1
  Br  Br3  1  0.99990995  0.31214478  0.55735170  1
  Br  Br4  1  0.97885592  0.33351574  0.30734432  1
  Br  Br5  1  0.02114408  0.35465982  0.80734432  1
  Br  Br6  1  0.35465982  0.33351574  0.19265568  1
  Br  Br7  1  0.33351574  0.35465982  0.69265568  1
  Br  Br8  1  0.31214478  0.31223483  0.44264830  1
  Br  Br9  1  0.31223483  0.31214478  0.94264830  1
  Br  Br10  1  0.68776517  0.99990995  0.44264830  1
  Br  Br11  1  0.31214478  0.99990995  0.05735170  1
  Br  Br12  1  0.31223483  0.00009005  0.55735170  1
  Br  Br13  1  0.68776517  0.68785522  0.05735170  1
  Br  Br14  1  0.68785522  0.68776517  0.55735170  1
  Br  Br15  1  0.66648426  0.64534018  0.30734432  1
  Br  Br16  1  0.64534018  0.66648426  0.80734432  1
  Br  Br17  1  0.97885592  0.64534018  0.19265568  1
  Br  Br18  1  0.02114408  0.66648426  0.69265568  1
  Br  Br19  1  0.00009005  0.68785522  0.44264830  1
  Br  Br20  1  0.99990995  0.68776517  0.94264830  1
  Br  Br21  1  0.68785522  0.00009005  0.94264830  1
  Br  Br22  1  0.66648426  0.02114408  0.19265568  1
  Br  Br23  1  0.64534018  0.97885592  0.69265568  1
loop_
_geom_bond_atom_site_label_1
_geom_bond_atom_site_label_2
_geom_bond_distance
_geom_bond_site_symmetry_2
Br0 Tc3 2.528460 1_555
Br0 Li4 2.704257 1_545
Br0 Li0 2.705726 1_555
Br1 Tc2 2.528458 1_555
Br1 Li5 2.704259 1_565
Br1 Li1 2.705726 1_565
Br2 Tc0 2.529063 1_555
Br2 Li2 2.704305 1_555
Br2 Li6 2.705329 1_454
Br3 Tc1 2.529063 1_655
Br3 Li7 2.704302 1_555
Br3 Li3 2.705332 1_655
Br4 Tc3 2.528458 1_555
Br4 Li4 2.704259 1_655
Br4 Li0 2.705726 1_655
Br5 Tc2 2.528460 1_555
Br5 Li5 2.704257 1_455
Br5 Li1 2.705726 1_555
Br6 Tc3 2.528463 1_555
Br6 Li4 2.704262 1_555
Br6 Li0 2.705726 1_555
Br7 Tc2 2.528463 1_555
Br7 Li5 2.704262 1_555
Br7 Li1 2.705726 1_555
Br8 Tc1 2.529063 1_555
Br8 Li3 2.704307 1_555
Br8 Li7 2.705334 1_555
Br9 Tc0 2.529063 1_556
Br9 Li6 2.704307 1_555
Br9 Li2 2.705334 1_556
Br10 Tc1 2.529063 1_665
Br10 Li3 2.704305 1_555
Br10 Li7 2.705329 1_565
Br11 Tc0 2.529063 1_565
Br11 Li2 2.704302 1_555
Br11 Li6 2.705332 1_564
Br12 Tc1 2.529063 1_555
Br12 Li7 2.704305 1_555
Br12 Li3 2.705329 1_545
Br13 Tc0 2.529063 1_665
Br13 Li2 2.704307 1_555
Br13 Li6 2.705334 1_554
Br14 Tc1 2.529063 1_665
Br14 Li7 2.704307 1_555
Br14 Li3 2.705334 1_555
Br15 Tc3 2.528463 1_555
Br15 Li4 2.704262 1_555
Br15 Li0 2.705726 1_665
Br16 Tc2 2.528463 1_555
Br16 Li5 2.704262 1_555
Br16 Li1 2.705726 1_665
Br17 Tc3 2.528460 1_555
Br17 Li4 2.704257 1_655
Br17 Li0 2.705726 1_665
Br18 Tc2 2.528458 1_555
Br18 Li5 2.704259 1_455
Br18 Li1 2.705726 1_565
Br19 Tc1 2.529063 1_565
Br19 Li3 2.704302 1_555
Br19 Li7 2.705332 1_455
Br20 Tc0 2.529063 1_666
Br20 Li6 2.704305 1_555
Br20 Li2 2.705329 1_656
Br21 Tc0 2.529063 1_656
Br21 Li6 2.704302 1_555
Br21 Li2 2.705332 1_546
Br22 Tc3 2.528458 1_555
Br22 Li4 2.704259 1_545
Br22 Li0 2.705726 1_655
Br23 Tc2 2.528460 1_555
Br23 Li5 2.704257 1_565
Br23 Li1 2.705726 1_665
