# generated using pymatgen
data_Hf16Ni4Mo3W
_symmetry_space_group_name_H-M   'P 1'
_cell_length_a   8.65017232
_cell_length_b   8.65017243
_cell_length_c   8.65017256
_cell_angle_alpha   60.01245564
_cell_angle_beta   60.01244661
_cell_angle_gamma   60.01245247
_symmetry_Int_Tables_number   1
_chemical_formula_structural   Hf16Ni4Mo3W
_chemical_formula_sum   'Hf16 Ni4 Mo3 W1'
_cell_volume   457.80641632
_cell_formula_units_Z   1
loop_
 _symmetry_equiv_pos_site_id
 _symmetry_equiv_pos_as_xyz
  1  'x, y, z'
loop_
 _atom_site_type_symbol
 _atom_site_label
 _atom_site_symmetry_multiplicity
 _atom_site_fract_x
 _atom_site_fract_y
 _atom_site_fract_z
 _atom_site_occupancy
  Hf  Hf0  1  0.69405054  0.10216321  0.10216321  1
  Hf  Hf1  1  0.10216321  0.69405054  0.10216321  1
  Hf  Hf2  1  0.10216321  0.10216321  0.69405054  1
  Hf  Hf3  1  0.10185575  0.10185575  0.10185575  1
  Hf  Hf4  1  0.31460836  0.31460836  0.68483969  1
  Hf  Hf5  1  0.68526618  0.68526618  0.31473998  1
  Hf  Hf6  1  0.31460836  0.68483969  0.31460836  1
  Hf  Hf7  1  0.68526618  0.31473998  0.68526618  1
  Hf  Hf8  1  0.68483969  0.31460836  0.31460836  1
  Hf  Hf9  1  0.31473998  0.68526618  0.68526618  1
  Hf  Hf10  1  0.95129891  0.95129891  0.54881075  1
  Hf  Hf11  1  0.54782142  0.54782142  0.95246754  1
  Hf  Hf12  1  0.95129891  0.54881075  0.95129891  1
  Hf  Hf13  1  0.54782142  0.95246754  0.54782142  1
  Hf  Hf14  1  0.54881075  0.95129891  0.95129891  1
  Hf  Hf15  1  0.95246754  0.54782142  0.54782142  1
  Ni  Ni0  1  0.32532457  0.89177179  0.89177179  1
  Ni  Ni1  1  0.89177179  0.32532457  0.89177179  1
  Ni  Ni2  1  0.89177179  0.89177179  0.32532457  1
  Ni  Ni3  1  0.89155106  0.89155106  0.89155106  1
  Mo  Mo0  1  0.00162382  0.33314226  0.33314226  1
  Mo  Mo1  1  0.33314226  0.00162382  0.33314226  1
  Mo  Mo2  1  0.33314226  0.33314226  0.00162382  1
  W  W0  1  0.33259104  0.33259104  0.33259104  1
loop_
_geom_bond_atom_site_label_1
_geom_bond_atom_site_label_2
_geom_bond_distance
_geom_bond_site_symmetry_2
Hf0 Ni1 2.576962 1_554
Hf0 Ni2 2.576962 1_545
Hf0 Ni3 2.579166 1_544
Hf0 W0 3.038735 1_555
Hf0 Mo1 3.039172 1_555
Hf0 Mo2 3.039173 1_555
Hf0 Hf8 3.137456 1_555
Hf0 Hf5 3.146025 1_545
Hf0 Hf7 3.146025 1_554
Hf1 Ni2 2.576962 1_455
Hf1 Ni0 2.576962 1_554
Hf1 Ni3 2.579166 1_454
Hf1 W0 3.038736 1_555
Hf1 Mo2 3.039172 1_555
Hf1 Mo0 3.039173 1_555
Hf1 Hf6 3.137457 1_555
Hf1 Hf5 3.146024 1_455
Hf1 Hf9 3.146025 1_554
Hf2 Ni1 2.576962 1_455
Hf2 Ni0 2.576962 1_545
Hf2 Ni3 2.579166 1_445
Hf2 W0 3.038735 1_555
Hf2 Mo1 3.039172 1_555
Hf2 Mo0 3.039173 1_555
Hf2 Hf4 3.137456 1_555
Hf2 Hf7 3.146025 1_455
Hf2 Hf9 3.146025 1_545
Hf3 Ni0 2.572876 1_544
Hf3 Ni2 2.572876 1_445
Hf3 Ni1 2.572877 1_454
Hf3 Mo0 3.047999 1_555
Hf3 Mo2 3.047999 1_555
Hf3 Mo1 3.047999 1_555
Hf3 Hf8 3.146341 1_455
Hf3 Hf4 3.146341 1_554
Hf3 Hf6 3.146341 1_545
Hf4 W0 2.899875 1_555
Hf4 Mo2 2.909348 1_556
Hf4 Ni1 3.142146 1_455
Hf4 Ni0 3.142147 1_545
Hf4 Hf8 3.203167 1_555
Hf4 Hf6 3.203168 1_555
Hf4 Hf7 3.208669 1_555
Hf4 Hf9 3.208669 1_555
Hf5 Mo1 2.900053 1_565
Hf5 Mo0 2.900053 1_655
Hf5 Ni3 3.145191 1_554
Hf5 Ni2 3.147517 1_555
Hf5 Hf9 3.205718 1_555
Hf5 Hf7 3.205719 1_555
Hf5 Hf6 3.208669 1_555
Hf5 Hf8 3.208669 1_555
Hf6 W0 2.899875 1_555
Hf6 Mo1 2.909348 1_565
Hf6 Ni2 3.142147 1_455
Hf6 Ni0 3.142147 1_554
Hf6 Hf8 3.203168 1_555
Hf6 Hf9 3.208669 1_555
Hf7 Mo2 2.900053 1_556
Hf7 Mo0 2.900053 1_655
Hf7 Ni3 3.145191 1_545
Hf7 Ni1 3.147517 1_555
Hf7 Hf9 3.205719 1_555
Hf7 Hf8 3.208669 1_555
Hf8 W0 2.899875 1_555
Hf8 Mo0 2.909348 1_655
Hf8 Ni1 3.142147 1_554
Hf8 Ni2 3.142147 1_545
Hf9 Mo1 2.900053 1_565
Hf9 Mo2 2.900053 1_556
Hf9 Ni3 3.145191 1_455
Hf9 Ni0 3.147517 1_555
Hf10 Ni2 2.553957 1_555
Hf10 Ni3 2.554928 1_555
Hf10 Mo1 3.007585 1_665
Hf10 Mo0 3.007585 1_665
Hf10 Hf7 3.214781 1_565
Hf10 Hf9 3.214781 1_655
Hf10 Hf6 3.218053 1_655
Hf10 Hf8 3.218054 1_565
Hf11 Ni1 2.560549 1_555
Hf11 Ni0 2.560549 1_555
Hf11 Mo2 2.991043 1_556
Hf11 W0 2.995036 1_556
Hf11 Hf6 3.208070 1_556
Hf11 Hf8 3.208071 1_556
Hf11 Hf7 3.214973 1_555
Hf11 Hf9 3.214973 1_555
Hf12 Ni1 2.553957 1_555
Hf12 Ni3 2.554928 1_555
Hf12 Mo2 3.007585 1_656
Hf12 Mo0 3.007585 1_656
Hf12 Hf5 3.214781 1_556
Hf12 Hf9 3.214781 1_655
Hf12 Hf4 3.218053 1_655
Hf12 Hf8 3.218054 1_556
Hf13 Ni2 2.560548 1_555
Hf13 Ni0 2.560548 1_555
Hf13 Mo1 2.991043 1_565
Hf13 W0 2.995036 1_565
Hf13 Hf4 3.208071 1_565
Hf13 Hf8 3.208071 1_565
Hf13 Hf5 3.214973 1_555
Hf13 Hf9 3.214973 1_555
Hf14 Ni0 2.553957 1_555
Hf14 Ni3 2.554928 1_555
Hf14 Mo1 3.007585 1_566
Hf14 Mo2 3.007585 1_566
Hf14 Hf7 3.214781 1_565
Hf14 Hf5 3.214782 1_556
Hf14 Hf6 3.218054 1_556
Hf14 Hf4 3.218054 1_565
Hf15 Ni1 2.560549 1_555
Hf15 Ni2 2.560549 1_555
Hf15 Mo0 2.991043 1_655
Hf15 W0 2.995035 1_655
Hf15 Hf6 3.208070 1_655
Hf15 Hf4 3.208071 1_655
Hf15 Hf7 3.214973 1_555
Hf15 Hf5 3.214973 1_555
Mo0 W0 2.858165 1_555
Mo0 Mo2 2.868231 1_555
Mo0 Mo1 2.868231 1_555
Mo1 W0 2.858165 1_555
Mo1 Mo2 2.868232 1_555
Mo2 W0 2.858165 1_555
