# generated using pymatgen
data_In2Hg(P2O7)2
_symmetry_space_group_name_H-M   'P 1'
_cell_length_a   5.03525922
_cell_length_b   7.05173004
_cell_length_c   8.36444670
_cell_angle_alpha   93.03000290
_cell_angle_beta   93.39731632
_cell_angle_gamma   106.15797933
_symmetry_Int_Tables_number   1
_chemical_formula_structural   In2Hg(P2O7)2
_chemical_formula_sum   'In2 Hg1 P4 O14'
_cell_volume   284.01960577
_cell_formula_units_Z   1
loop_
 _symmetry_equiv_pos_site_id
 _symmetry_equiv_pos_as_xyz
  1  'x, y, z'
loop_
 _atom_site_type_symbol
 _atom_site_label
 _atom_site_symmetry_multiplicity
 _atom_site_fract_x
 _atom_site_fract_y
 _atom_site_fract_z
 _atom_site_occupancy
  In  In0  1  0.50000000  0.50000000  0.50000000  1
  In  In1  1  0.00000000  0.00000000  0.00000000  1
  Hg  Hg0  1  0.00000000  0.00000000  0.50000000  1
  P  P0  1  0.02130449  0.63127002  0.25816005  1
  P  P1  1  0.97869551  0.36872998  0.74183995  1
  P  P2  1  0.62352157  0.22988333  0.20674736  1
  P  P3  1  0.37647843  0.77011667  0.79325264  1
  O  O0  1  0.77874564  0.45684130  0.17426703  1
  O  O1  1  0.22125436  0.54315870  0.82573297  1
  O  O2  1  0.52076746  0.23623333  0.37558353  1
  O  O3  1  0.47923254  0.76376667  0.62441647  1
  O  O4  1  0.25808671  0.55321929  0.30825812  1
  O  O5  1  0.74191329  0.44678071  0.69174188  1
  O  O6  1  0.88558091  0.70004694  0.40921702  1
  O  O7  1  0.16229526  0.88552338  0.79149875  1
  O  O8  1  0.83770474  0.11447662  0.20850125  1
  O  O9  1  0.90529353  0.20765599  0.85180437  1
  O  O10  1  0.09470647  0.79234401  0.14819563  1
  O  O11  1  0.59653449  0.82516583  0.92782871  1
  O  O12  1  0.40346551  0.17483417  0.07217129  1
  O  O13  1  0.11441909  0.29995306  0.59078298  1
loop_
_geom_bond_atom_site_label_1
_geom_bond_atom_site_label_2
_geom_bond_distance
_geom_bond_site_symmetry_2
In0 O5 2.069624 1_555
In0 O4 2.069624 1_555
In0 O3 2.114261 1_555
In0 O2 2.114261 1_555
In0 O6 2.258242 1_555
In0 O13 2.258242 1_555
In1 O12 2.096084 1_555
In1 O11 2.096084 1_444
In1 O10 2.102074 1_545
In1 O9 2.102074 1_454
In1 O8 2.179048 1_455
In1 O7 2.179048 1_544
Hg0 O13 2.117228 1_555
Hg0 O6 2.117228 1_445
O0 P0 1.571019 1_655
O0 P2 1.618964 1_555
O1 P1 1.571019 1_455
O1 P3 1.618964 1_555
O2 P2 1.535213 1_555
O3 P3 1.535213 1_555
O4 P0 1.493456 1_555
O5 P1 1.493456 1_555
O6 P0 1.587686 1_655
O7 P3 1.521014 1_555
O8 P2 1.521014 1_555
O9 P1 1.479818 1_555
O10 P0 1.479818 1_555
O11 P3 1.487320 1_555
O12 P2 1.487320 1_555
O13 P1 1.587686 1_455
