# generated using pymatgen
data_Zr5InBi2B
_symmetry_space_group_name_H-M   'P 1'
_cell_length_a   8.63724631
_cell_length_b   8.69012232
_cell_length_c   5.86045229
_cell_angle_alpha   90.00000000
_cell_angle_beta   90.00000000
_cell_angle_gamma   120.20271957
_symmetry_Int_Tables_number   1
_chemical_formula_structural   Zr5InBi2B
_chemical_formula_sum   'Zr10 In2 Bi4 B2'
_cell_volume   380.16504485
_cell_formula_units_Z   2
loop_
 _symmetry_equiv_pos_site_id
 _symmetry_equiv_pos_as_xyz
  1  'x, y, z'
loop_
 _atom_site_type_symbol
 _atom_site_label
 _atom_site_symmetry_multiplicity
 _atom_site_fract_x
 _atom_site_fract_y
 _atom_site_fract_z
 _atom_site_occupancy
  Zr  Zr0  1  0.66550905  0.33299098  0.49616465  1
  Zr  Zr1  1  0.33449095  0.66748293  0.49616465  1
  Zr  Zr2  1  0.33449095  0.66748293  0.00383535  1
  Zr  Zr3  1  0.66550905  0.33299098  0.00383535  1
  Zr  Zr4  1  0.76682074  0.77311094  0.25000000  1
  Zr  Zr5  1  0.23317926  0.00629020  0.25000000  1
  Zr  Zr6  1  0.00000000  0.22630397  0.25000000  1
  Zr  Zr7  1  0.22513591  0.22248557  0.75000000  1
  Zr  Zr8  1  0.77486409  0.99734965  0.75000000  1
  Zr  Zr9  1  1.00000000  0.77401961  0.75000000  1
  In  In0  1  0.39832877  0.40007386  0.25000000  1
  In  In1  1  0.60167123  0.00174409  0.25000000  1
  Bi  Bi0  1  0.00000000  0.60614437  0.25000000  1
  Bi  Bi1  1  0.59496779  0.59527294  0.75000000  1
  Bi  Bi2  1  0.40503221  0.00030516  0.75000000  1
  Bi  Bi3  1  1.00000000  0.39670091  0.75000000  1
  B  B0  1  0.00000000  0.99962646  0.49715714  1
  B  B1  1  0.00000000  0.99962646  0.00284286  1
loop_
_geom_bond_atom_site_label_1
_geom_bond_atom_site_label_2
_geom_bond_distance
_geom_bond_site_symmetry_2
In0 Zr5 2.972172 1_555
In0 Zr6 2.981602 1_555
In0 Zr1 3.012392 1_555
In0 Zr2 3.012392 1_555
In0 Zr0 3.016630 1_555
In0 Zr3 3.016630 1_555
In0 Zr4 3.202807 1_555
In0 Zr7 3.298927 1_555
In0 Zr7 3.298927 1_554
In1 Zr4 2.972165 1_545
In1 Zr6 2.981603 1_655
In1 Zr3 3.012392 1_555
In1 Zr0 3.012392 1_555
In1 Zr1 3.016620 1_545
In1 Zr2 3.016620 1_545
In1 Zr5 3.202812 1_555
In1 Zr8 3.298925 1_544
In1 Zr8 3.298925 1_545
Bi0 Zr5 3.016911 1_565
Bi0 Zr4 3.016911 1_455
Bi0 Zr2 3.026995 1_555
Bi0 Zr1 3.026995 1_555
Bi0 Zr0 3.026997 1_455
Bi0 Zr3 3.026997 1_455
Bi0 Zr9 3.273299 1_454
Bi0 Zr9 3.273299 1_455
Bi0 Zr6 3.300859 1_555
Bi1 Zr1 3.014753 1_555
Bi1 Zr2 3.014753 1_556
Bi1 Zr8 3.026654 1_555
Bi1 Zr0 3.029258 1_555
Bi1 Zr3 3.029258 1_556
Bi1 Zr9 3.030511 1_555
Bi1 Zr7 3.207326 1_555
Bi1 Zr4 3.296947 1_555
Bi1 Zr4 3.296947 1_556
Bi1 In0 3.383730 1_556
Bi1 In0 3.383730 1_555
Bi2 Zr0 3.014747 1_555
Bi2 Zr3 3.014747 1_556
Bi2 Zr7 3.026654 1_555
Bi2 Zr1 3.029250 1_545
Bi2 Zr2 3.029250 1_546
Bi2 Zr9 3.030511 1_445
Bi2 Zr8 3.207326 1_545
Bi2 Zr5 3.296947 1_556
Bi2 Zr5 3.296947 1_555
Bi2 In1 3.383732 1_555
Bi2 In1 3.383732 1_556
Bi3 Zr8 3.005882 1_545
Bi3 Zr7 3.005883 1_655
Bi3 Zr0 3.042518 1_555
Bi3 Zr3 3.042518 1_556
Bi3 Zr2 3.042520 1_656
Bi3 Zr1 3.042520 1_655
Bi3 Zr9 3.278946 1_555
Bi3 Zr6 3.283124 1_655
Bi3 Zr6 3.283124 1_656
B0 Zr7 2.436930 1_565
B0 Zr8 2.436930 1_455
B0 Zr6 2.445065 1_565
B0 Zr9 2.457522 1_455
B0 Zr4 2.457708 1_455
B0 Zr5 2.457708 1_565
B1 Zr7 2.436930 1_564
B1 Zr8 2.436930 1_454
B1 Zr6 2.445065 1_565
B1 Zr9 2.457522 1_454
B1 Zr4 2.457708 1_455
B1 Zr5 2.457708 1_565
