# generated using pymatgen
data_ScCd3P7N12
_symmetry_space_group_name_H-M   'P 1'
_cell_length_a   7.31155483
_cell_length_b   7.34666415
_cell_length_c   7.34666532
_cell_angle_alpha   109.56782397
_cell_angle_beta   109.37443903
_cell_angle_gamma   109.37444428
_symmetry_Int_Tables_number   1
_chemical_formula_structural   ScCd3P7N12
_chemical_formula_sum   'Sc1 Cd3 P7 N12'
_cell_volume   304.14846169
_cell_formula_units_Z   1
loop_
 _symmetry_equiv_pos_site_id
 _symmetry_equiv_pos_as_xyz
  1  'x, y, z'
loop_
 _atom_site_type_symbol
 _atom_site_label
 _atom_site_symmetry_multiplicity
 _atom_site_fract_x
 _atom_site_fract_y
 _atom_site_fract_z
 _atom_site_occupancy
  Sc  Sc0  1  0.63059083  1.00000000  1.00000000  1
  Cd  Cd0  1  0.00082828  0.00000000  0.67792875  1
  Cd  Cd1  1  0.00082828  0.67792875  1.00000000  1
  Cd  Cd2  1  0.32289953  0.32207125  0.32207125  1
  P  P0  1  0.25239569  0.74882376  0.49909201  1
  P  P1  1  0.75330368  0.24973276  0.50090799  1
  P  P2  1  0.75330368  0.50090799  0.24973276  1
  P  P3  1  0.25239569  0.49909201  0.74882376  1
  P  P4  1  0.50357193  0.75026724  0.25117624  1
  P  P5  1  0.50357193  0.25117624  0.75026724  1
  P  P6  1  0.97525175  0.00000000  0.00000000  1
  N  N0  1  0.71018745  0.28408312  0.28408312  1
  N  N1  1  0.29109358  0.71510788  0.28857344  1
  N  N2  1  0.30868653  0.58829790  0.58829790  1
  N  N3  1  0.57598570  0.57346557  0.28489212  1
  N  N4  1  0.42610433  0.71591688  1.00000000  1
  N  N5  1  0.00252014  0.71142656  0.42653443  1
  N  N6  1  0.57598570  0.28489212  0.57346557  1
  N  N7  1  0.72038863  1.00000000  0.41170210  1
  N  N8  1  0.42610433  0.00000000  0.71591688  1
  N  N9  1  0.72038863  0.41170210  1.00000000  1
  N  N10  1  0.29109358  0.28857344  0.71510788  1
  N  N11  1  0.00252014  0.42653443  0.71142656  1
loop_
_geom_bond_atom_site_label_1
_geom_bond_atom_site_label_2
_geom_bond_distance
_geom_bond_site_symmetry_2
Cd0 N10 2.305558 1_555
Cd0 N5 2.305559 1_545
Cd0 N7 2.317102 1_445
Cd0 P6 2.434587 1_456
Cd1 N11 2.305559 1_555
Cd1 N1 2.305559 1_556
Cd1 N9 2.317102 1_455
Cd1 P6 2.434586 1_466
Cd2 N3 2.305558 1_555
Cd2 N6 2.305559 1_555
Cd2 N2 2.317102 1_555
Cd2 P6 2.434586 1_455
P6 Sc0 2.520007 1_544
N0 P2 1.639939 1_555
N0 P1 1.639940 1_555
N0 Sc0 2.126235 1_544
N1 P0 1.616675 1_555
N1 P4 1.618702 1_555
N2 P0 1.628040 1_555
N2 P3 1.628040 1_555
N3 P4 1.616667 1_555
N3 P2 1.618699 1_555
N4 P3 1.639944 1_555
N4 P4 1.639946 1_556
N4 Sc0 2.126235 1_555
N5 P2 1.616674 1_455
N5 P0 1.618702 1_555
N6 P5 1.616668 1_555
N6 P1 1.618699 1_555
N7 P4 1.628044 1_555
N7 P1 1.628046 1_565
N8 P0 1.639944 1_545
N8 P5 1.639946 1_555
N8 Sc0 2.126235 1_545
N9 P5 1.628044 1_555
N9 P2 1.628047 1_556
N10 P3 1.616675 1_555
N10 P5 1.618702 1_555
N11 P1 1.616674 1_455
N11 P3 1.618702 1_555
