# generated using pymatgen
data_TbGe2Pd
_symmetry_space_group_name_H-M   'P 1'
_cell_length_a   9.54199011
_cell_length_b   9.54411462
_cell_length_c   9.54178103
_cell_angle_alpha   153.86700032
_cell_angle_beta   125.58876923
_cell_angle_gamma   61.33026584
_symmetry_Int_Tables_number   1
_chemical_formula_structural   TbGe2Pd
_chemical_formula_sum   'Tb4 Ge8 Pd4'
_cell_volume   309.03122251
_cell_formula_units_Z   4
loop_
 _symmetry_equiv_pos_site_id
 _symmetry_equiv_pos_as_xyz
  1  'x, y, z'
loop_
 _atom_site_type_symbol
 _atom_site_label
 _atom_site_symmetry_multiplicity
 _atom_site_fract_x
 _atom_site_fract_y
 _atom_site_fract_z
 _atom_site_occupancy
  Tb  Tb0  1  0.74141333  0.49988993  0.24119533  1
  Tb  Tb1  1  0.25858681  0.50010960  0.75880501  1
  Tb  Tb2  1  0.70129787  0.70139069  0.00038074  1
  Tb  Tb3  1  0.29870330  0.29860917  0.99962041  1
  Ge  Ge0  1  0.34828319  0.69862447  0.64956789  1
  Ge  Ge1  1  0.65171763  0.30137556  0.35043144  1
  Ge  Ge2  1  0.95115929  0.30135753  0.65003125  1
  Ge  Ge3  1  0.04884020  0.69864155  0.34996863  1
  Ge  Ge4  1  0.57376596  0.07540998  0.50149331  1
  Ge  Ge5  1  0.92623075  0.92643855  0.99985104  1
  Ge  Ge6  1  0.07376836  0.07356142  0.00014814  1
  Ge  Ge7  1  0.42623618  0.92458985  0.49850892  1
  Pd  Pd0  1  0.60341992  0.85187034  0.75136011  1
  Pd  Pd1  1  0.89938246  0.14754309  0.75122712  1
  Pd  Pd2  1  0.39658131  0.14812941  0.24863947  1
  Pd  Pd3  1  0.10061544  0.85245786  0.24877020  1
loop_
_geom_bond_atom_site_label_1
_geom_bond_atom_site_label_2
_geom_bond_distance
_geom_bond_site_symmetry_2
Ge0 Pd2 2.467960 1_566
Ge0 Pd2 2.467970 1_555
Ge0 Ge3 2.613342 1_555
Ge0 Pd0 2.668903 1_555
Ge0 Tb3 3.010898 1_554
Ge0 Tb3 3.011319 1_565
Ge0 Tb2 3.058586 1_556
Ge0 Tb1 3.398358 1_555
Ge1 Pd0 2.467960 1_544
Ge1 Pd0 2.467968 1_555
Ge1 Ge2 2.613342 1_555
Ge1 Pd2 2.668903 1_555
Ge1 Tb2 3.010912 1_556
Ge1 Tb2 3.011329 1_545
Ge1 Tb3 3.058576 1_554
Ge1 Tb0 3.398340 1_555
Ge2 Pd3 2.467345 1_645
Ge2 Pd3 2.469257 1_656
Ge2 Pd1 2.669817 1_555
Ge2 Tb2 3.010301 1_556
Ge2 Tb2 3.010408 1_545
Ge2 Tb3 3.053424 1_655
Ge2 Tb1 3.397239 1_655
Ge3 Pd1 2.467348 1_465
Ge3 Pd1 2.469256 1_454
Ge3 Pd3 2.669847 1_555
Ge3 Tb3 3.010310 1_554
Ge3 Tb3 3.010418 1_565
Ge3 Tb2 3.053415 1_455
Ge3 Tb0 3.397233 1_455
Ge4 Ge7 2.424576 1_545
Ge4 Pd2 2.508806 1_555
Ge4 Pd1 2.509029 1_555
Ge4 Tb2 3.000543 1_556
Ge4 Tb2 3.007228 1_545
Ge4 Tb0 3.243889 1_556
Ge4 Tb1 3.245149 1_555
Ge4 Tb1 3.253488 1_544
Ge4 Tb0 3.255213 1_545
Ge5 Ge6 2.416307 1_666
Ge5 Pd0 2.487818 1_555
Ge5 Pd3 2.488462 1_656
Ge5 Tb0 3.346757 1_555
Ge5 Tb0 3.347073 1_566
Ge5 Tb1 3.347843 1_655
Ge5 Tb1 3.348828 1_666
Ge6 Pd2 2.487834 1_555
Ge6 Pd1 2.488484 1_454
Ge6 Tb1 3.346766 1_555
Ge6 Tb1 3.347083 1_544
Ge6 Tb0 3.347837 1_455
Ge6 Tb0 3.348822 1_444
Ge7 Pd0 2.508786 1_555
Ge7 Pd3 2.509062 1_555
Ge7 Tb3 3.000542 1_554
Ge7 Tb3 3.007227 1_565
Ge7 Tb1 3.243898 1_554
Ge7 Tb0 3.245138 1_555
Ge7 Tb0 3.253476 1_566
Ge7 Tb1 3.255222 1_565
Pd0 Tb3 3.198604 1_565
Pd0 Tb3 3.199459 1_554
Pd0 Tb0 3.250995 1_555
Pd0 Tb0 3.252310 1_566
Pd0 Tb2 3.292139 1_556
Pd1 Tb2 3.196465 1_545
Pd1 Tb2 3.200830 1_556
Pd1 Tb0 3.247641 1_556
Pd1 Tb0 3.248490 1_545
Pd1 Tb3 3.292256 1_655
Pd2 Tb2 3.198602 1_545
Pd2 Tb2 3.199463 1_556
Pd2 Tb1 3.251010 1_555
Pd2 Tb1 3.252320 1_544
Pd2 Tb3 3.292126 1_554
Pd3 Tb3 3.196492 1_565
Pd3 Tb3 3.200859 1_554
Pd3 Tb1 3.247629 1_554
Pd3 Tb1 3.248476 1_565
Pd3 Tb2 3.292243 1_455
