# generated using pymatgen
data_RbLi2YSb2
_symmetry_space_group_name_H-M   'P 1'
_cell_length_a   4.70793197
_cell_length_b   4.70793267
_cell_length_c   9.06683092
_cell_angle_alpha   90.00000000
_cell_angle_beta   90.00000000
_cell_angle_gamma   119.99998811
_symmetry_Int_Tables_number   1
_chemical_formula_structural   RbLi2YSb2
_chemical_formula_sum   'Rb1 Li2 Y1 Sb2'
_cell_volume   174.03901723
_cell_formula_units_Z   1
loop_
 _symmetry_equiv_pos_site_id
 _symmetry_equiv_pos_as_xyz
  1  'x, y, z'
loop_
 _atom_site_type_symbol
 _atom_site_label
 _atom_site_symmetry_multiplicity
 _atom_site_fract_x
 _atom_site_fract_y
 _atom_site_fract_z
 _atom_site_occupancy
  Rb  Rb0  1  0.00000000  0.00000000  0.50000000  1
  Li  Li0  1  0.33333300  0.66666700  0.80715936  1
  Li  Li1  1  0.66666700  0.33333300  0.19284064  1
  Y  Y0  1  0.00000000  0.00000000  0.00000000  1
  Sb  Sb0  1  0.33333300  0.66666700  0.19119559  1
  Sb  Sb1  1  0.66666700  0.33333300  0.80880441  1
loop_
_geom_bond_atom_site_label_1
_geom_bond_atom_site_label_2
_geom_bond_distance
_geom_bond_site_symmetry_2
Rb0 Sb1 3.902244 1_455
Rb0 Sb0 3.902244 1_545
Rb0 Sb1 3.902247 1_555
Rb0 Sb0 3.902247 1_445
Rb0 Sb1 3.902247 1_445
Rb0 Sb0 3.902247 1_555
Li0 Sb1 2.718164 1_455
Li0 Sb1 2.718165 1_565
Li0 Sb1 2.718172 1_555
Li0 Y0 3.231916 1_566
Li0 Y0 3.231920 1_666
Li0 Y0 3.231920 1_556
Li0 Rb0 3.891556 1_565
Li0 Rb0 3.891559 1_665
Li0 Rb0 3.891559 1_555
Li1 Sb0 2.718164 1_655
Li1 Sb0 2.718165 1_545
Li1 Sb0 2.718172 1_555
Li1 Y0 3.231916 1_655
Li1 Y0 3.231920 1_555
Li1 Y0 3.231920 1_665
Li1 Rb0 3.891556 1_655
Li1 Rb0 3.891559 1_555
Li1 Rb0 3.891559 1_665
Sb0 Y0 3.223872 1_565
Sb0 Y0 3.223875 1_665
Sb0 Y0 3.223876 1_555
Sb1 Y0 3.223872 1_656
Sb1 Y0 3.223875 1_556
Sb1 Y0 3.223876 1_666
