# generated using pymatgen
data_Li2Pd(IO3)6
_symmetry_space_group_name_H-M   'P 1'
_cell_length_a   5.22343998
_cell_length_b   9.24003141
_cell_length_c   9.23964259
_cell_angle_alpha   60.00017515
_cell_angle_beta   89.99918173
_cell_angle_gamma   89.99915566
_symmetry_Int_Tables_number   1
_chemical_formula_structural   Li2Pd(IO3)6
_chemical_formula_sum   'Li2 Pd1 I6 O18'
_cell_volume   386.20387463
_cell_formula_units_Z   1
loop_
 _symmetry_equiv_pos_site_id
 _symmetry_equiv_pos_as_xyz
  1  'x, y, z'
loop_
 _atom_site_type_symbol
 _atom_site_label
 _atom_site_symmetry_multiplicity
 _atom_site_fract_x
 _atom_site_fract_y
 _atom_site_fract_z
 _atom_site_occupancy
  Li  Li0  1  0.74432456  0.33332098  0.33334927  1
  Li  Li1  1  0.21047919  0.66669005  0.66664447  1
  Pd  Pd0  1  0.66090870  0.99999759  0.00000584  1
  I  I0  1  0.78461981  0.96805201  0.66992394  1
  I  I1  1  0.78459981  0.36200249  0.96808655  1
  I  I2  1  0.78461023  0.66991680  0.36200915  1
  I  I3  1  0.29431052  0.02818033  0.31223625  1
  I  I4  1  0.29436925  0.65956251  0.02821369  1
  I  I5  1  0.29435471  0.31224036  0.65957145  1
  O  O0  1  0.50832954  0.24415473  0.55285096  1
  O  O1  1  0.50825283  0.20299789  0.24411914  1
  O  O2  1  0.50838188  0.55286406  0.20300229  1
  O  O3  1  0.99375201  0.76250496  0.44838971  1
  O  O4  1  0.99375989  0.78912353  0.76250069  1
  O  O5  1  0.99374415  0.44838357  0.78912184  1
  O  O6  1  0.89150833  0.05396012  0.80793943  1
  O  O7  1  0.89153022  0.13809324  0.05395490  1
  O  O8  1  0.89152698  0.80796723  0.13808460  1
  O  O9  1  0.44691605  0.92204232  0.20366095  1
  O  O10  1  0.44692108  0.87426387  0.92206907  1
  O  O11  1  0.44693195  0.20366950  0.87426661  1
  O  O12  1  0.97409624  0.11464699  0.49322245  1
  O  O13  1  0.97406238  0.39212244  0.11465315  1
  O  O14  1  0.97410894  0.49325024  0.39210380  1
  O  O15  1  0.43739104  0.88277779  0.50838125  1
  O  O16  1  0.43743107  0.60883299  0.88281429  1
  O  O17  1  0.43738063  0.50838343  0.60882626  1
loop_
_geom_bond_atom_site_label_1
_geom_bond_atom_site_label_2
_geom_bond_distance
_geom_bond_site_symmetry_2
Li0 O0 2.154214 1_555
Li0 O2 2.154383 1_555
Li0 O1 2.154812 1_555
Li0 O12 2.172658 1_555
Li0 O13 2.172659 1_555
Li0 O14 2.172876 1_555
Li1 O3 2.084880 1_455
Li1 O4 2.085089 1_455
Li1 O5 2.085316 1_455
Li1 O15 2.147120 1_555
Li1 O17 2.147353 1_555
Li1 O16 2.147731 1_555
I0 O4 1.801187 1_555
I0 O12 1.807872 1_565
I0 O6 1.892166 1_565
I1 O5 1.801381 1_555
I1 O13 1.807682 1_556
I1 O7 1.892201 1_556
I2 O3 1.801443 1_555
I2 O14 1.807730 1_555
I2 O8 1.892232 1_555
I3 O15 1.792548 1_545
I3 O1 1.799335 1_555
I3 O9 1.894050 1_545
I4 O16 1.792387 1_554
I4 O2 1.799346 1_555
I4 O10 1.893901 1_554
I5 O17 1.792464 1_555
I5 O0 1.799334 1_555
I5 O11 1.893846 1_555
O6 Pd0 1.990953 1_546
O7 Pd0 1.990963 1_545
O8 Pd0 1.990831 1_555
O9 Pd0 1.988375 1_555
O10 Pd0 1.988550 1_556
O11 Pd0 1.988529 1_546
