# generated using pymatgen
data_Li2Sn3RuS8
_symmetry_space_group_name_H-M   'P 1'
_cell_length_a   7.41695678
_cell_length_b   7.41695737
_cell_length_c   7.41695668
_cell_angle_alpha   60.33585207
_cell_angle_beta   60.33584944
_cell_angle_gamma   60.33585639
_symmetry_Int_Tables_number   1
_chemical_formula_structural   Li2Sn3RuS8
_chemical_formula_sum   'Li2 Sn3 Ru1 S8'
_cell_volume   290.70313357
_cell_formula_units_Z   1
loop_
 _symmetry_equiv_pos_site_id
 _symmetry_equiv_pos_as_xyz
  1  'x, y, z'
loop_
 _atom_site_type_symbol
 _atom_site_label
 _atom_site_symmetry_multiplicity
 _atom_site_fract_x
 _atom_site_fract_y
 _atom_site_fract_z
 _atom_site_occupancy
  Li  Li0  1  0.38038023  0.38038023  0.38038023  1
  Li  Li1  1  0.61961977  0.61961977  0.61961977  1
  Sn  Sn0  1  0.00000000  0.50000000  0.00000000  1
  Sn  Sn1  1  0.00000000  0.00000000  0.50000000  1
  Sn  Sn2  1  0.50000000  0.00000000  0.00000000  1
  Ru  Ru0  1  0.00000000  0.00000000  0.00000000  1
  S  S0  1  0.77225279  0.21522339  0.77225279  1
  S  S1  1  0.75121327  0.75121327  0.75121327  1
  S  S2  1  0.78477661  0.22774721  0.22774721  1
  S  S3  1  0.22774721  0.22774721  0.78477661  1
  S  S4  1  0.22774721  0.78477661  0.22774721  1
  S  S5  1  0.24878673  0.24878673  0.24878673  1
  S  S6  1  0.21522339  0.77225279  0.77225279  1
  S  S7  1  0.77225279  0.77225279  0.21522339  1
loop_
_geom_bond_atom_site_label_1
_geom_bond_atom_site_label_2
_geom_bond_distance
_geom_bond_site_symmetry_2
Li0 S5 2.384673 1_555
Li0 S3 2.471049 1_555
Li0 S2 2.471049 1_555
Li0 S4 2.471049 1_555
Li1 S1 2.384673 1_555
Li1 S7 2.471049 1_555
Li1 S6 2.471049 1_555
Li1 S0 2.471049 1_555
Ru0 S3 2.396078 1_554
Ru0 S7 2.396078 1_445
Ru0 S4 2.396078 1_545
Ru0 S0 2.396078 1_454
Ru0 S2 2.396078 1_455
Ru0 S6 2.396078 1_544
S0 Sn2 2.573785 1_556
S0 Sn1 2.573785 1_655
S1 Sn1 2.616381 1_665
S1 Sn2 2.616381 1_566
S1 Sn0 2.616382 1_656
S2 Sn0 2.573785 1_655
S2 Sn1 2.573785 1_655
S3 Sn2 2.573785 1_556
S3 Sn0 2.573785 1_556
S4 Sn2 2.573785 1_565
S4 Sn1 2.573785 1_565
S5 Sn1 2.616381 1_555
S5 Sn2 2.616381 1_555
S5 Sn0 2.616382 1_555
S6 Sn0 2.573785 1_556
S6 Sn1 2.573785 1_565
S7 Sn2 2.573785 1_565
S7 Sn0 2.573785 1_655
