# generated using pymatgen
data_Fe2NiO4
_symmetry_space_group_name_H-M   'P 1'
_cell_length_a   5.86009190
_cell_length_b   5.87770422
_cell_length_c   5.86009591
_cell_angle_alpha   59.90054821
_cell_angle_beta   60.24044602
_cell_angle_gamma   59.90053098
_symmetry_Int_Tables_number   1
_chemical_formula_structural   Fe2NiO4
_chemical_formula_sum   'Fe4 Ni2 O8'
_cell_volume   142.76703203
_cell_formula_units_Z   2
loop_
 _symmetry_equiv_pos_site_id
 _symmetry_equiv_pos_as_xyz
  1  'x, y, z'
loop_
 _atom_site_type_symbol
 _atom_site_label
 _atom_site_symmetry_multiplicity
 _atom_site_fract_x
 _atom_site_fract_y
 _atom_site_fract_z
 _atom_site_occupancy
  Fe  Fe0  1  0.99751985  0.00248072  0.99751871  1
  Fe  Fe1  1  0.25248015  0.24751928  0.25248129  1
  Fe  Fe2  1  0.62500000  0.12500000  0.62500000  1
  Fe  Fe3  1  0.62500000  0.62500000  0.62500000  1
  Ni  Ni0  1  0.12500000  0.62500000  0.62500000  1
  Ni  Ni1  1  0.62500000  0.62500000  0.12500000  1
  O  O0  1  0.38338794  0.37619838  0.38338859  1
  O  O1  1  0.38622185  0.37725699  0.85926518  1
  O  O2  1  0.38338794  0.85702209  0.38338859  1
  O  O3  1  0.85926249  0.37725528  0.38622495  1
  O  O4  1  0.39073751  0.87274472  0.86377505  1
  O  O5  1  0.86661206  0.39297791  0.86661141  1
  O  O6  1  0.86377815  0.87274301  0.39073482  1
  O  O7  1  0.86661206  0.87380162  0.86661141  1
loop_
_geom_bond_atom_site_label_1
_geom_bond_atom_site_label_2
_geom_bond_distance
_geom_bond_site_symmetry_2
Fe0 O7 1.870064 1_545
Fe0 O5 1.870078 1_555
Fe0 O6 1.884055 1_546
Fe0 O4 1.884061 1_645
Fe1 O0 1.870064 1_555
Fe1 O2 1.870078 1_545
Fe1 O1 1.884055 1_554
Fe1 O3 1.884061 1_455
Fe2 O7 1.996467 1_545
Fe2 O0 1.996467 1_555
Fe2 O4 2.023507 1_545
Fe2 O3 2.023507 1_555
Fe2 O1 2.023525 1_555
Fe2 O6 2.023525 1_545
Fe3 O5 1.996467 1_555
Fe3 O2 1.996467 1_555
Fe3 O3 2.023516 1_555
Fe3 O4 2.023516 1_555
Fe3 O6 2.023521 1_555
Fe3 O1 2.023521 1_555
Ni0 O2 2.040453 1_555
Ni0 O5 2.040453 1_455
Ni0 O7 2.040466 1_455
Ni0 O0 2.040466 1_555
Ni0 O1 2.047854 1_555
Ni0 O6 2.047854 1_455
Ni1 O2 2.040456 1_555
Ni1 O5 2.040456 1_554
Ni1 O7 2.040468 1_554
Ni1 O0 2.040468 1_555
Ni1 O3 2.047856 1_555
Ni1 O4 2.047856 1_554
