# generated using pymatgen
data_Sr3Rh4PbO14
_symmetry_space_group_name_H-M   'P 1'
_cell_length_a   7.32389105
_cell_length_b   7.32388983
_cell_length_c   7.29813676
_cell_angle_alpha   59.88319346
_cell_angle_beta   59.88319840
_cell_angle_gamma   59.99999965
_symmetry_Int_Tables_number   1
_chemical_formula_structural   Sr3Rh4PbO14
_chemical_formula_sum   'Sr3 Rh4 Pb1 O14'
_cell_volume   276.31958719
_cell_formula_units_Z   1
loop_
 _symmetry_equiv_pos_site_id
 _symmetry_equiv_pos_as_xyz
  1  'x, y, z'
loop_
 _atom_site_type_symbol
 _atom_site_label
 _atom_site_symmetry_multiplicity
 _atom_site_fract_x
 _atom_site_fract_y
 _atom_site_fract_z
 _atom_site_occupancy
  Sr  Sr0  1  0.62500000  0.12500000  0.12500000  1
  Sr  Sr1  1  0.12500000  0.62500000  0.12500000  1
  Sr  Sr2  1  0.12500000  0.12500000  0.12500000  1
  Rh  Rh0  1  0.12500000  0.62500000  0.62500000  1
  Rh  Rh1  1  0.62500000  0.12500000  0.62500000  1
  Rh  Rh2  1  0.62500000  0.62500000  0.12500000  1
  Rh  Rh3  1  0.62500000  0.62500000  0.62500000  1
  Pb  Pb0  1  0.12500000  0.12500000  0.62500000  1
  O  O0  1  0.69806575  0.69806575  0.30279577  1
  O  O1  1  0.30175190  0.30175190  0.68393240  1
  O  O2  1  0.71256379  0.30175190  0.68393240  1
  O  O3  1  0.30107473  0.69806575  0.30279577  1
  O  O4  1  0.30175190  0.71256379  0.68393240  1
  O  O5  1  0.69806575  0.30107473  0.30279577  1
  O  O6  1  0.55193425  0.55193425  0.94720423  1
  O  O7  1  0.94824810  0.94824810  0.56606760  1
  O  O8  1  0.53743621  0.94824810  0.56606760  1
  O  O9  1  0.94892527  0.55193425  0.94720423  1
  O  O10  1  0.94824810  0.53743621  0.56606760  1
  O  O11  1  0.55193425  0.94892527  0.94720423  1
  O  O12  1  0.23653284  0.23653284  0.29040147  1
  O  O13  1  0.01346716  0.01346716  0.95959853  1
loop_
_geom_bond_atom_site_label_1
_geom_bond_atom_site_label_2
_geom_bond_distance
_geom_bond_site_symmetry_2
O0 Rh3 1.965457 1_555
O0 Rh2 1.984042 1_555
O0 Sr0 2.588249 1_565
O0 Sr1 2.588250 1_655
O1 Rh0 1.984370 1_555
O1 Rh1 1.984371 1_555
O1 Pb0 2.515894 1_555
O1 Sr2 2.650596 1_556
O2 Rh3 1.984370 1_555
O2 Rh1 1.984371 1_555
O2 Pb0 2.515894 1_655
O2 Sr0 2.650596 1_556
O3 Rh0 1.965459 1_555
O3 Rh2 1.984031 1_555
O3 Sr2 2.588251 1_565
O3 Sr1 2.588262 1_555
O4 Rh0 1.984371 1_555
O4 Rh3 1.984371 1_555
O4 Pb0 2.515894 1_565
O4 Sr1 2.650596 1_556
O5 Rh1 1.965459 1_555
O5 Rh2 1.984031 1_555
O5 Sr2 2.588252 1_655
O5 Sr0 2.588262 1_555
O6 Rh3 1.965457 1_555
O6 Rh2 1.984042 1_556
O6 Sr0 2.588249 1_556
O6 Sr1 2.588250 1_556
O7 Rh0 1.984370 1_655
O7 Rh1 1.984371 1_565
O7 Pb0 2.515894 1_665
O7 Sr2 2.650596 1_665
O8 Rh3 1.984370 1_555
O8 Rh1 1.984371 1_565
O8 Pb0 2.515894 1_565
O8 Sr0 2.650596 1_565
O9 Rh0 1.965459 1_655
O9 Rh2 1.984031 1_556
O9 Sr2 2.588251 1_656
O9 Sr1 2.588262 1_656
O10 Rh0 1.984371 1_655
O10 Rh3 1.984371 1_555
O10 Pb0 2.515894 1_655
O10 Sr1 2.650596 1_655
O11 Rh1 1.965459 1_565
O11 Rh2 1.984031 1_556
O11 Sr2 2.588252 1_566
O11 Sr0 2.588262 1_566
O12 Pb0 1.990313 1_555
O12 Sr1 2.331940 1_555
O12 Sr2 2.331940 1_555
O12 Sr0 2.331940 1_555
O13 Pb0 1.990313 1_555
O13 Sr1 2.331940 1_546
O13 Sr2 2.331940 1_556
O13 Sr0 2.331940 1_456
