# generated using pymatgen
data_VGa2(Ni10B3)2
_symmetry_space_group_name_H-M   'P 1'
_cell_length_a   7.34893020
_cell_length_b   7.34892997
_cell_length_c   7.34893018
_cell_angle_alpha   59.99999904
_cell_angle_beta   60.00000007
_cell_angle_gamma   59.99999902
_symmetry_Int_Tables_number   1
_chemical_formula_structural   VGa2(Ni10B3)2
_chemical_formula_sum   'V1 Ga2 Ni20 B6'
_cell_volume   280.64502533
_cell_formula_units_Z   1
loop_
 _symmetry_equiv_pos_site_id
 _symmetry_equiv_pos_as_xyz
  1  'x, y, z'
loop_
 _atom_site_type_symbol
 _atom_site_label
 _atom_site_symmetry_multiplicity
 _atom_site_fract_x
 _atom_site_fract_y
 _atom_site_fract_z
 _atom_site_occupancy
  V  V0  1  0.00000000  0.00000000  0.00000000  1
  Ga  Ga0  1  0.75000000  0.75000000  0.75000000  1
  Ga  Ga1  1  0.25000000  0.25000000  0.25000000  1
  Ni  Ni0  1  0.61774031  0.61774031  0.14677807  1
  Ni  Ni1  1  0.61774031  0.14677807  0.61774031  1
  Ni  Ni2  1  0.14677807  0.61774031  0.61774031  1
  Ni  Ni3  1  0.61774031  0.61774031  0.61774031  1
  Ni  Ni4  1  0.38225969  0.38225969  0.85322193  1
  Ni  Ni5  1  0.38225969  0.85322193  0.38225969  1
  Ni  Ni6  1  0.85322193  0.38225969  0.38225969  1
  Ni  Ni7  1  0.38225969  0.38225969  0.38225969  1
  Ni  Ni8  1  0.00000000  0.00000000  0.33711354  1
  Ni  Ni9  1  0.66288646  0.00000000  0.33711354  1
  Ni  Ni10  1  1.00000000  0.66288646  0.33711354  1
  Ni  Ni11  1  0.66288646  0.33711354  0.00000000  1
  Ni  Ni12  1  0.00000000  0.33711354  0.00000000  1
  Ni  Ni13  1  0.00000000  0.33711354  0.66288646  1
  Ni  Ni14  1  0.33711354  0.66288646  1.00000000  1
  Ni  Ni15  1  0.33711354  0.00000000  0.66288646  1
  Ni  Ni16  1  0.33711354  0.00000000  1.00000000  1
  Ni  Ni17  1  0.00000000  0.00000000  0.66288646  1
  Ni  Ni18  1  1.00000000  0.66288646  1.00000000  1
  Ni  Ni19  1  0.66288646  0.00000000  0.00000000  1
  B  B0  1  0.72683579  0.72683579  0.27316421  1
  B  B1  1  0.27316421  0.72683579  0.27316421  1
  B  B2  1  0.72683579  0.27316421  0.27316421  1
  B  B3  1  0.27316421  0.27316421  0.72683579  1
  B  B4  1  0.72683579  0.27316421  0.72683579  1
  B  B5  1  0.27316421  0.72683579  0.72683579  1
loop_
_geom_bond_atom_site_label_1
_geom_bond_atom_site_label_2
_geom_bond_distance
_geom_bond_site_symmetry_2
Ga0 Ni1 2.380818 1_565
Ga0 Ni0 2.380818 1_556
Ga0 Ni2 2.380818 1_655
Ga0 Ni3 2.380824 1_555
Ga1 Ni5 2.380818 1_545
Ga1 Ni4 2.380818 1_554
Ga1 Ni6 2.380818 1_455
Ga1 Ni7 2.380824 1_555
Ni8 V0 2.477424 1_555
Ni9 V0 2.477424 1_655
Ni10 V0 2.477424 1_665
Ni11 V0 2.477424 1_655
Ni12 V0 2.477424 1_555
Ni13 V0 2.477424 1_556
Ni14 V0 2.477424 1_566
Ni15 V0 2.477424 1_556
Ni16 V0 2.477424 1_556
Ni17 V0 2.477424 1_556
Ni18 V0 2.477424 1_666
Ni19 V0 2.477424 1_655
B0 Ni19 2.061741 1_565
B0 Ni9 2.061741 1_565
B0 Ni18 2.061741 1_554
B0 Ni10 2.061741 1_555
B0 Ni3 2.068887 1_555
B0 Ni6 2.068887 1_555
B0 Ni5 2.068887 1_555
B0 Ni0 2.068893 1_555
B1 Ni16 2.061741 1_564
B1 Ni8 2.061741 1_565
B1 Ni14 2.061741 1_554
B1 Ni10 2.061741 1_455
B1 Ni7 2.068887 1_555
B1 Ni2 2.068887 1_555
B1 Ni0 2.068887 1_555
B1 Ni5 2.068893 1_555
B2 Ni9 2.061741 1_555
B2 Ni8 2.061741 1_655
B2 Ni11 2.061741 1_555
B2 Ni12 2.061741 1_655
B2 Ni7 2.068887 1_555
B2 Ni0 2.068887 1_555
B2 Ni1 2.068887 1_555
B2 Ni6 2.068893 1_555
B3 Ni16 2.061741 1_555
B3 Ni15 2.061741 1_555
B3 Ni12 2.061741 1_556
B3 Ni13 2.061741 1_555
B3 Ni7 2.068887 1_555
B3 Ni2 2.068887 1_555
B3 Ni1 2.068887 1_555
B3 Ni4 2.068893 1_555
B4 Ni19 2.061741 1_556
B4 Ni17 2.061741 1_655
B4 Ni11 2.061741 1_556
B4 Ni13 2.061741 1_655
B4 Ni3 2.068887 1_555
B4 Ni6 2.068887 1_555
B4 Ni4 2.068887 1_555
B4 Ni1 2.068893 1_555
B5 Ni15 2.061741 1_565
B5 Ni17 2.061741 1_565
B5 Ni14 2.061741 1_555
B5 Ni18 2.061741 1_455
B5 Ni3 2.068887 1_555
B5 Ni4 2.068887 1_555
B5 Ni5 2.068887 1_555
B5 Ni2 2.068893 1_555
