# generated using pymatgen
data_Li7Ti7O16
_symmetry_space_group_name_H-M   'P 1'
_cell_length_a   10.37588493
_cell_length_b   10.37588493
_cell_length_c   10.37588537
_cell_angle_alpha   33.24048447
_cell_angle_beta   33.24048447
_cell_angle_gamma   33.24047989
_symmetry_Int_Tables_number   1
_chemical_formula_structural   Li7Ti7O16
_chemical_formula_sum   'Li7 Ti7 O16'
_cell_volume   298.81249980
_cell_formula_units_Z   1
loop_
 _symmetry_equiv_pos_site_id
 _symmetry_equiv_pos_as_xyz
  1  'x, y, z'
loop_
 _atom_site_type_symbol
 _atom_site_label
 _atom_site_symmetry_multiplicity
 _atom_site_fract_x
 _atom_site_fract_y
 _atom_site_fract_z
 _atom_site_occupancy
  Li  Li0  1  0.48415200  0.01640500  0.01640500  1
  Li  Li1  1  0.01640500  0.01640500  0.48415200  1
  Li  Li2  1  0.50160300  0.50160300  0.50160300  1
  Li  Li3  1  0.68395900  0.68395900  0.68395900  1
  Li  Li4  1  0.01640500  0.48415200  0.01640500  1
  Li  Li5  1  0.31112800  0.31112800  0.31112800  1
  Li  Li6  1  0.76669100  0.76669100  0.76669100  1
  Ti  Ti0  1  0.74595800  0.25802100  0.74595800  1
  Ti  Ti1  1  0.25802100  0.74595800  0.74595800  1
  Ti  Ti2  1  0.25574800  0.74512800  0.25574800  1
  Ti  Ti3  1  0.00052700  0.00052700  0.00052700  1
  Ti  Ti4  1  0.74595800  0.74595800  0.25802100  1
  Ti  Ti5  1  0.74512800  0.25574800  0.25574800  1
  Ti  Ti6  1  0.25574800  0.25574800  0.74512800  1
  O  O0  1  0.85853000  0.39040500  0.39040500  1
  O  O1  1  0.61976000  0.61976000  0.61976000  1
  O  O2  1  0.39040500  0.85853000  0.39040500  1
  O  O3  1  0.39040500  0.39040500  0.85853000  1
  O  O4  1  0.10620400  0.10620400  0.66146300  1
  O  O5  1  0.35056600  0.89347800  0.89347800  1
  O  O6  1  0.87936900  0.87936900  0.87936900  1
  O  O7  1  0.10620400  0.66146300  0.10620400  1
  O  O8  1  0.12383800  0.12383800  0.12383800  1
  O  O9  1  0.89347800  0.35056600  0.89347800  1
  O  O10  1  0.89347800  0.89347800  0.35056600  1
  O  O11  1  0.66146300  0.10620400  0.10620400  1
  O  O12  1  0.61455900  0.61455900  0.13991500  1
  O  O13  1  0.38233700  0.38233700  0.38233700  1
  O  O14  1  0.61455900  0.13991500  0.61455900  1
  O  O15  1  0.13991500  0.61455900  0.61455900  1
loop_
_geom_bond_atom_site_label_1
_geom_bond_atom_site_label_2
_geom_bond_distance
_geom_bond_site_symmetry_2
Li0 O3 2.099137 1_554
Li0 O2 2.099137 1_545
Li0 O8 2.144402 1_555
Li0 O6 2.175904 1_544
Li0 O12 2.320185 1_545
Li0 O14 2.320185 1_554
Li1 O2 2.099137 1_545
Li1 O0 2.099137 1_455
Li1 O8 2.144402 1_555
Li1 O6 2.175904 1_445
Li1 O14 2.320185 1_455
Li1 O15 2.320185 1_545
Li2 O2 2.075920 1_555
Li2 O0 2.075920 1_555
Li2 O3 2.075921 1_555
Li2 O14 2.100928 1_555
Li2 O15 2.100928 1_555
Li2 O12 2.100929 1_555
Li3 O1 1.886225 1_555
Li3 O5 2.040839 1_555
Li3 O9 2.040839 1_555
Li3 O10 2.040839 1_555
Li4 O3 2.099137 1_554
Li4 O0 2.099137 1_455
Li4 O8 2.144402 1_555
Li4 O6 2.175904 1_454
Li4 O12 2.320185 1_455
Li4 O15 2.320185 1_554
Li5 O7 1.990082 1_555
Li5 O11 1.990082 1_555
Li5 O4 1.990082 1_555
Li5 O13 2.092186 1_555
Li6 O14 1.922851 1_565
Li6 O15 1.922851 1_655
Li6 O12 1.922851 1_556
Li6 O9 2.448639 1_555
Li6 O5 2.448639 1_555
Li6 O10 2.448639 1_555
O0 Ti4 1.964751 1_555
O0 Ti0 1.964751 1_555
O1 Ti0 1.985626 1_555
O1 Ti1 1.985626 1_555
O1 Ti4 1.985626 1_555
O2 Ti4 1.964751 1_555
O2 Ti1 1.964751 1_555
O3 Ti1 1.964751 1_555
O3 Ti0 1.964751 1_555
O4 Ti3 1.971597 1_556
O4 Ti0 2.049608 1_455
O4 Ti1 2.049608 1_545
O5 Ti6 2.033516 1_565
O5 Ti2 2.033516 1_556
O5 Ti3 2.055749 1_566
O6 Ti1 2.068525 1_655
O6 Ti0 2.068525 1_565
O6 Ti4 2.068525 1_556
O7 Ti3 1.971596 1_565
O7 Ti4 2.049608 1_455
O7 Ti1 2.049608 1_554
O8 Ti2 2.080386 1_545
O8 Ti5 2.080386 1_455
O8 Ti6 2.080387 1_554
O9 Ti6 2.033516 1_655
O9 Ti5 2.033516 1_556
O9 Ti3 2.055749 1_656
O10 Ti2 2.033516 1_655
O10 Ti5 2.033516 1_565
O10 Ti3 2.055749 1_665
O11 Ti3 1.971596 1_655
O11 Ti4 2.049608 1_545
O11 Ti0 2.049608 1_554
O12 Ti5 1.985534 1_555
O12 Ti2 1.985534 1_555
O13 Ti5 1.991216 1_555
O13 Ti2 1.991216 1_555
O13 Ti6 1.991216 1_555
O14 Ti6 1.985534 1_555
O14 Ti5 1.985534 1_555
O15 Ti6 1.985534 1_555
O15 Ti2 1.985534 1_555
