# generated using pymatgen
data_KRbWS4
_symmetry_space_group_name_H-M   'P 1'
_cell_length_a   7.05474288
_cell_length_b   9.51667137
_cell_length_c   12.41656795
_cell_angle_alpha   90.00000000
_cell_angle_beta   90.00000000
_cell_angle_gamma   90.00000000
_symmetry_Int_Tables_number   1
_chemical_formula_structural   KRbWS4
_chemical_formula_sum   'K4 Rb4 W4 S16'
_cell_volume   833.61943657
_cell_formula_units_Z   4
loop_
 _symmetry_equiv_pos_site_id
 _symmetry_equiv_pos_as_xyz
  1  'x, y, z'
loop_
 _atom_site_type_symbol
 _atom_site_label
 _atom_site_symmetry_multiplicity
 _atom_site_fract_x
 _atom_site_fract_y
 _atom_site_fract_z
 _atom_site_occupancy
  K  K0  1  0.75000000  0.02403230  0.82854365  1
  K  K1  1  0.25000000  0.47596770  0.32854365  1
  K  K2  1  0.75000000  0.52403230  0.67145635  1
  K  K3  1  0.25000000  0.97596770  0.17145635  1
  Rb  Rb0  1  0.75000000  0.35544014  0.09362375  1
  Rb  Rb1  1  0.25000000  0.14455986  0.59362375  1
  Rb  Rb2  1  0.75000000  0.85544014  0.40637625  1
  Rb  Rb3  1  0.25000000  0.64455986  0.90637625  1
  W  W0  1  0.75000000  0.26597756  0.42080051  1
  W  W1  1  0.25000000  0.23402244  0.92080051  1
  W  W2  1  0.75000000  0.76597756  0.07919949  1
  W  W3  1  0.25000000  0.73402244  0.57919949  1
  S  S0  1  0.75000000  0.19886891  0.59023670  1
  S  S1  1  0.25000000  0.30113109  0.09023670  1
  S  S2  1  0.75000000  0.69886891  0.90976330  1
  S  S3  1  0.25000000  0.80113109  0.40976330  1
  S  S4  1  0.75000000  0.99565568  0.09431057  1
  S  S5  1  0.25000000  0.50434432  0.59431057  1
  S  S6  1  0.75000000  0.49565568  0.40568943  1
  S  S7  1  0.25000000  0.00434432  0.90568943  1
  S  S8  1  0.00073580  0.17913616  0.34115147  1
  S  S9  1  0.99926420  0.32086384  0.84115147  1
  S  S10  1  0.49926420  0.67913616  0.15884853  1
  S  S11  1  0.50073580  0.82086384  0.65884853  1
  S  S12  1  0.99926420  0.82086384  0.65884853  1
  S  S13  1  0.00073580  0.67913616  0.15884853  1
  S  S14  1  0.50073580  0.32086384  0.84115147  1
  S  S15  1  0.49926420  0.17913616  0.34115147  1
loop_
_geom_bond_atom_site_label_1
_geom_bond_atom_site_label_2
_geom_bond_distance
_geom_bond_site_symmetry_2
K0 S2 3.254654 1_545
K0 S4 3.310945 1_546
K0 S14 3.331153 1_555
K0 S9 3.331153 1_555
K0 S11 3.357120 1_545
K0 S12 3.357120 1_545
K0 S0 3.394680 1_555
K0 S7 3.659918 1_655
K0 S7 3.659918 1_555
K1 S3 3.254654 1_555
K1 S5 3.310945 1_555
K1 S8 3.331153 1_555
K1 S15 3.331153 1_555
K1 S13 3.357120 1_555
K1 S10 3.357120 1_555
K1 S1 3.394680 1_555
K1 S6 3.659918 1_555
K1 S6 3.659918 1_455
K2 S0 3.254654 1_555
K2 S6 3.310945 1_555
K2 S11 3.331153 1_555
K2 S12 3.331153 1_555
K2 S14 3.357120 1_555
K2 S9 3.357120 1_555
K2 S2 3.394680 1_555
K2 S5 3.659918 1_555
K2 S5 3.659918 1_655
K3 S1 3.254654 1_565
K3 S7 3.310945 1_564
K3 S13 3.331153 1_555
K3 S10 3.331153 1_555
K3 S8 3.357120 1_565
K3 S15 3.357120 1_565
K3 S3 3.394680 1_555
K3 S4 3.659918 1_455
K3 S4 3.659918 1_555
Rb0 S4 3.423961 1_545
Rb0 S1 3.565283 1_555
Rb0 S1 3.565283 1_655
Rb0 S14 3.609404 1_554
Rb0 S9 3.609404 1_554
Rb0 S13 3.643397 1_655
Rb0 S10 3.643397 1_555
Rb1 S5 3.423961 1_555
Rb1 S0 3.565283 1_555
Rb1 S0 3.565283 1_455
Rb1 S15 3.609404 1_555
Rb1 S8 3.609404 1_555
Rb1 S12 3.643397 1_445
Rb1 S11 3.643397 1_545
Rb2 S6 3.423961 1_555
Rb2 S3 3.565283 1_655
Rb2 S3 3.565283 1_555
Rb2 S11 3.609404 1_555
Rb2 S12 3.609404 1_555
Rb2 S15 3.643397 1_565
Rb2 S8 3.643397 1_665
Rb3 S7 3.423961 1_565
Rb3 S2 3.565283 1_455
Rb3 S2 3.565283 1_555
Rb3 S10 3.609404 1_556
Rb3 S13 3.609404 1_556
Rb3 S9 3.643397 1_455
Rb3 S14 3.643397 1_555
S0 W0 2.198617 1_555
S1 W1 2.198617 1_554
S2 W2 2.198617 1_556
S3 W3 2.198617 1_555
S4 W2 2.193809 1_555
S5 W3 2.193809 1_555
S6 W0 2.193809 1_555
S7 W1 2.193809 1_555
S8 W0 2.188604 1_455
S9 W1 2.188604 1_655
S10 W2 2.188604 1_555
S11 W3 2.188604 1_555
S12 W3 2.188604 1_655
S13 W2 2.188604 1_455
S14 W1 2.188604 1_555
S15 W0 2.188604 1_555
