# generated using pymatgen
data_Hf3GaNi2N
_symmetry_space_group_name_H-M   'P 1'
_cell_length_a   8.26122896
_cell_length_b   8.26122889
_cell_length_c   8.26122898
_cell_angle_alpha   59.99999965
_cell_angle_beta   59.99999992
_cell_angle_gamma   59.99999968
_symmetry_Int_Tables_number   1
_chemical_formula_structural   Hf3GaNi2N
_chemical_formula_sum   'Hf12 Ga4 Ni8 N4'
_cell_volume   398.67497305
_cell_formula_units_Z   4
loop_
 _symmetry_equiv_pos_site_id
 _symmetry_equiv_pos_as_xyz
  1  'x, y, z'
loop_
 _atom_site_type_symbol
 _atom_site_label
 _atom_site_symmetry_multiplicity
 _atom_site_fract_x
 _atom_site_fract_y
 _atom_site_fract_z
 _atom_site_occupancy
  Hf  Hf0  1  0.80840639  0.19159361  0.19159361  1
  Hf  Hf1  1  0.19159361  0.80840639  0.19159361  1
  Hf  Hf2  1  0.80840639  0.80840639  0.19159361  1
  Hf  Hf3  1  0.19159361  0.80840639  0.80840639  1
  Hf  Hf4  1  0.80840639  0.19159361  0.80840639  1
  Hf  Hf5  1  0.19159361  0.19159361  0.80840639  1
  Hf  Hf6  1  0.44159361  0.05840639  0.05840639  1
  Hf  Hf7  1  0.05840639  0.44159361  0.05840639  1
  Hf  Hf8  1  0.44159361  0.44159361  0.05840639  1
  Hf  Hf9  1  0.05840639  0.44159361  0.44159361  1
  Hf  Hf10  1  0.44159361  0.05840639  0.44159361  1
  Hf  Hf11  1  0.05840639  0.05840639  0.44159361  1
  Ga  Ga0  1  0.62500000  0.62500000  0.12500000  1
  Ga  Ga1  1  0.62500000  0.62500000  0.62500000  1
  Ga  Ga2  1  0.12500000  0.62500000  0.62500000  1
  Ga  Ga3  1  0.62500000  0.12500000  0.62500000  1
  Ni  Ni0  1  0.41377279  0.41377279  0.75868162  1
  Ni  Ni1  1  0.41377279  0.41377279  0.41377279  1
  Ni  Ni2  1  0.75868162  0.41377279  0.41377279  1
  Ni  Ni3  1  0.41377279  0.75868162  0.41377279  1
  Ni  Ni4  1  0.83622721  0.83622721  0.49131838  1
  Ni  Ni5  1  0.83622721  0.83622721  0.83622721  1
  Ni  Ni6  1  0.49131838  0.83622721  0.83622721  1
  Ni  Ni7  1  0.83622721  0.49131838  0.83622721  1
  N  N0  1  0.12500000  0.12500000  0.62500000  1
  N  N1  1  0.12500000  0.12500000  0.12500000  1
  N  N2  1  0.62500000  0.12500000  0.12500000  1
  N  N3  1  0.12500000  0.62500000  0.12500000  1
loop_
_geom_bond_atom_site_label_1
_geom_bond_atom_site_label_2
_geom_bond_distance
_geom_bond_site_symmetry_2
Hf0 N1 2.206992 1_655
Hf0 N2 2.206992 1_555
Hf0 Ni4 2.725381 1_545
Hf0 Ni7 2.725381 1_554
Hf0 Ni1 2.961022 1_555
Hf0 Ni2 2.961022 1_555
Hf1 N1 2.206992 1_565
Hf1 N3 2.206992 1_555
Hf1 Ni4 2.725381 1_455
Hf1 Ni6 2.725381 1_554
Hf1 Ni1 2.961022 1_555
Hf1 Ni3 2.961022 1_555
Hf2 N2 2.206992 1_565
Hf2 N3 2.206992 1_655
Hf2 Ni5 2.725381 1_554
Hf2 Ni4 2.725381 1_555
Hf2 Ni2 2.961022 1_555
Hf2 Ni3 2.961022 1_555
Hf3 N0 2.206992 1_565
Hf3 N3 2.206992 1_556
Hf3 Ni5 2.725381 1_455
Hf3 Ni6 2.725381 1_555
Hf3 Ni0 2.961022 1_555
Hf3 Ni3 2.961022 1_555
Hf4 N0 2.206992 1_655
Hf4 N2 2.206992 1_556
Hf4 Ni5 2.725381 1_545
Hf4 Ni7 2.725381 1_555
Hf4 Ni0 2.961022 1_555
Hf4 Ni2 2.961022 1_555
Hf5 N1 2.206992 1_556
Hf5 N0 2.206992 1_555
Hf5 Ni6 2.725381 1_545
Hf5 Ni7 2.725381 1_455
Hf5 Ni0 2.961022 1_555
Hf5 Ni1 2.961022 1_555
Hf6 N1 2.206992 1_555
Hf6 N2 2.206992 1_555
Hf6 Ni0 2.725381 1_554
Hf6 Ni3 2.725381 1_545
Hf6 Ni5 2.961022 1_544
Hf6 Ni6 2.961022 1_544
Hf7 N1 2.206992 1_555
Hf7 N3 2.206992 1_555
Hf7 Ni0 2.725381 1_554
Hf7 Ni2 2.725381 1_455
Hf7 Ni5 2.961022 1_454
Hf7 Ni7 2.961022 1_454
Hf8 N2 2.206992 1_555
Hf8 N3 2.206992 1_555
Hf8 Ni1 2.725381 1_555
Hf8 Ni0 2.725381 1_554
Hf8 Ni6 2.961022 1_554
Hf8 Ni7 2.961022 1_554
Hf9 N0 2.206992 1_555
Hf9 N3 2.206992 1_555
Hf9 Ni1 2.725381 1_555
Hf9 Ni2 2.725381 1_455
Hf9 Ni4 2.961022 1_455
Hf9 Ni7 2.961022 1_455
Hf10 N0 2.206992 1_555
Hf10 N2 2.206992 1_555
Hf10 Ni1 2.725381 1_555
Hf10 Ni3 2.725381 1_545
Hf10 Ni4 2.961022 1_545
Hf10 Ni6 2.961022 1_545
Hf11 N1 2.206992 1_555
Hf11 N0 2.206992 1_555
Hf11 Ni2 2.725381 1_455
Hf11 Ni3 2.725381 1_545
Hf11 Ni4 2.961022 1_445
Hf11 Ni5 2.961022 1_445
Ga0 Ni5 2.549592 1_554
Ga0 Ni1 2.549592 1_555
Ga0 Ni2 2.549592 1_555
Ga0 Ni6 2.549592 1_554
Ga0 Ni3 2.549592 1_555
Ga0 Ni7 2.549592 1_554
Ga0 Hf6 2.976059 1_565
Ga0 Hf0 2.976059 1_555
Ga0 Hf7 2.976059 1_655
Ga0 Hf1 2.976059 1_555
Ga0 Hf2 2.976059 1_555
Ga0 Hf8 2.976059 1_555
Ga1 Ni4 2.549592 1_555
Ga1 Ni0 2.549592 1_555
Ga1 Ni6 2.549592 1_555
Ga1 Ni2 2.549592 1_555
Ga1 Ni7 2.549592 1_555
Ga1 Ni3 2.549592 1_555
Ga1 Hf10 2.976059 1_565
Ga1 Hf4 2.976059 1_555
Ga1 Hf9 2.976059 1_655
Ga1 Hf3 2.976059 1_555
Ga1 Hf8 2.976059 1_556
Ga1 Hf2 2.976059 1_555
Ga2 Ni0 2.549592 1_555
Ga2 Ni4 2.549592 1_455
Ga2 Ni5 2.549592 1_455
Ga2 Ni1 2.549592 1_555
Ga2 Ni3 2.549592 1_555
Ga2 Ni7 2.549592 1_455
Ga2 Hf11 2.976059 1_565
Ga2 Hf5 2.976059 1_555
Ga2 Hf3 2.976059 1_555
Ga2 Hf9 2.976059 1_555
Ga2 Hf7 2.976059 1_556
Ga2 Hf1 2.976059 1_555
Ga3 Ni2 2.549592 1_555
Ga3 Ni6 2.549592 1_545
Ga3 Ni0 2.549592 1_555
Ga3 Ni4 2.549592 1_545
Ga3 Ni5 2.549592 1_545
Ga3 Ni1 2.549592 1_555
Ga3 Hf11 2.976059 1_655
Ga3 Hf5 2.976059 1_555
Ga3 Hf6 2.976059 1_556
Ga3 Hf0 2.976059 1_555
Ga3 Hf4 2.976059 1_555
Ga3 Hf10 2.976059 1_555
