# generated using pymatgen
data_HfZr3Ir2C
_symmetry_space_group_name_H-M   'P 1'
_cell_length_a   8.80633698
_cell_length_b   8.80633775
_cell_length_c   8.80633650
_cell_angle_alpha   60.00000467
_cell_angle_beta   60.00000179
_cell_angle_gamma   59.99999766
_symmetry_Int_Tables_number   1
_chemical_formula_structural   HfZr3Ir2C
_chemical_formula_sum   'Hf4 Zr12 Ir8 C4'
_cell_volume   482.91526119
_cell_formula_units_Z   4
loop_
 _symmetry_equiv_pos_site_id
 _symmetry_equiv_pos_as_xyz
  1  'x, y, z'
loop_
 _atom_site_type_symbol
 _atom_site_label
 _atom_site_symmetry_multiplicity
 _atom_site_fract_x
 _atom_site_fract_y
 _atom_site_fract_z
 _atom_site_occupancy
  Hf  Hf0  1  0.12500000  0.62500000  0.62500000  1
  Hf  Hf1  1  0.62500000  0.12500000  0.62500000  1
  Hf  Hf2  1  0.62500000  0.62500000  0.12500000  1
  Hf  Hf3  1  0.62500000  0.62500000  0.62500000  1
  Zr  Zr0  1  0.81433053  0.81433053  0.18566947  1
  Zr  Zr1  1  0.18566947  0.18566947  0.81433053  1
  Zr  Zr2  1  0.81433053  0.18566947  0.81433053  1
  Zr  Zr3  1  0.18566947  0.81433053  0.18566947  1
  Zr  Zr4  1  0.18566947  0.81433053  0.81433053  1
  Zr  Zr5  1  0.81433053  0.18566947  0.18566947  1
  Zr  Zr6  1  0.43566947  0.43566947  0.06433053  1
  Zr  Zr7  1  0.06433053  0.06433053  0.43566947  1
  Zr  Zr8  1  0.43566947  0.06433053  0.43566947  1
  Zr  Zr9  1  0.06433053  0.43566947  0.06433053  1
  Zr  Zr10  1  0.06433053  0.43566947  0.43566947  1
  Zr  Zr11  1  0.43566947  0.06433053  0.06433053  1
  Ir  Ir0  1  0.75580659  0.41473147  0.41473147  1
  Ir  Ir1  1  0.41473147  0.75580659  0.41473147  1
  Ir  Ir2  1  0.41473147  0.41473147  0.75580659  1
  Ir  Ir3  1  0.41473147  0.41473147  0.41473147  1
  Ir  Ir4  1  0.49419341  0.83526853  0.83526853  1
  Ir  Ir5  1  0.83526853  0.49419341  0.83526853  1
  Ir  Ir6  1  0.83526853  0.83526853  0.49419341  1
  Ir  Ir7  1  0.83526853  0.83526853  0.83526853  1
  C  C0  1  0.62500000  0.12500000  0.12500000  1
  C  C1  1  0.12500000  0.62500000  0.12500000  1
  C  C2  1  0.12500000  0.12500000  0.62500000  1
  C  C3  1  0.12500000  0.12500000  0.12500000  1
loop_
_geom_bond_atom_site_label_1
_geom_bond_atom_site_label_2
_geom_bond_distance
_geom_bond_site_symmetry_2
Hf0 Ir7 2.710579 1_455
Hf0 Ir3 2.710579 1_555
Hf0 Ir2 2.710584 1_555
Hf0 Ir6 2.710584 1_455
Hf0 Ir1 2.710585 1_555
Hf0 Ir5 2.710585 1_455
Hf1 Ir7 2.710580 1_545
Hf1 Ir3 2.710580 1_555
Hf1 Ir2 2.710584 1_555
Hf1 Ir6 2.710584 1_545
Hf1 Ir0 2.710585 1_555
Hf1 Ir4 2.710585 1_545
Hf2 Ir7 2.710580 1_554
Hf2 Ir3 2.710580 1_555
Hf2 Ir1 2.710584 1_555
Hf2 Ir5 2.710584 1_554
Hf2 Ir0 2.710584 1_555
Hf2 Ir4 2.710584 1_554
Hf3 Ir5 2.710577 1_555
Hf3 Ir1 2.710577 1_555
Hf3 Ir4 2.710577 1_555
Hf3 Ir0 2.710577 1_555
Hf3 Ir6 2.710577 1_555
Hf3 Ir2 2.710577 1_555
Ir0 Zr10 2.913047 1_655
Ir0 Zr9 2.913052 1_655
Ir0 Zr7 2.913052 1_655
Ir1 Zr8 2.913048 1_565
Ir1 Zr7 2.913052 1_565
Ir1 Zr11 2.913053 1_565
Ir2 Zr6 2.913047 1_556
Ir2 Zr9 2.913052 1_556
Ir2 Zr11 2.913053 1_556
Ir3 Zr6 2.913056 1_555
Ir3 Zr10 2.913056 1_555
Ir3 Zr8 2.913057 1_555
Ir4 Zr4 2.913047 1_555
Ir4 Zr3 2.913052 1_556
Ir4 Zr1 2.913052 1_565
Ir5 Zr2 2.913048 1_555
Ir5 Zr1 2.913052 1_655
Ir5 Zr5 2.913053 1_556
Ir6 Zr0 2.913047 1_555
Ir6 Zr3 2.913052 1_655
Ir6 Zr5 2.913053 1_565
Ir7 Zr0 2.913056 1_556
Ir7 Zr4 2.913056 1_655
Ir7 Zr2 2.913057 1_565
C0 Zr5 2.327633 1_555
C0 Zr8 2.327633 1_555
C0 Zr2 2.327633 1_554
C0 Zr11 2.327633 1_555
C0 Zr6 2.327633 1_555
C0 Zr0 2.327633 1_545
C1 Zr0 2.327633 1_455
C1 Zr6 2.327633 1_555
C1 Zr3 2.327633 1_555
C1 Zr10 2.327633 1_555
C1 Zr4 2.327633 1_554
C1 Zr9 2.327633 1_555
C2 Zr1 2.327633 1_555
C2 Zr7 2.327633 1_555
C2 Zr8 2.327633 1_555
C2 Zr2 2.327633 1_455
C2 Zr10 2.327633 1_555
C2 Zr4 2.327633 1_545
C3 Zr7 2.327633 1_555
C3 Zr1 2.327633 1_554
C3 Zr11 2.327633 1_555
C3 Zr5 2.327633 1_455
C3 Zr9 2.327633 1_555
C3 Zr3 2.327633 1_545
