# generated using pymatgen
data_Y16In6CuRe
_symmetry_space_group_name_H-M   'P 1'
_cell_length_a   10.45429450
_cell_length_b   10.45424111
_cell_length_c   7.06836000
_cell_angle_alpha   89.99951744
_cell_angle_beta   90.00038535
_cell_angle_gamma   119.99948385
_symmetry_Int_Tables_number   1
_chemical_formula_structural   Y16In6CuRe
_chemical_formula_sum   'Y16 In6 Cu1 Re1'
_cell_volume   669.01952578
_cell_formula_units_Z   1
loop_
 _symmetry_equiv_pos_site_id
 _symmetry_equiv_pos_as_xyz
  1  'x, y, z'
loop_
 _atom_site_type_symbol
 _atom_site_label
 _atom_site_symmetry_multiplicity
 _atom_site_fract_x
 _atom_site_fract_y
 _atom_site_fract_z
 _atom_site_occupancy
  Y  Y0  1  0.47253638  0.52746309  0.47595985  1
  Y  Y1  1  0.05493912  0.52747168  0.47596741  1
  Y  Y2  1  0.47253668  0.94507735  0.47595446  1
  Y  Y3  1  0.53514850  0.46484571  0.98081447  1
  Y  Y4  1  0.92968105  0.46483898  0.98081538  1
  Y  Y5  1  0.53514609  0.07029833  0.98081921  1
  Y  Y6  1  0.82544769  0.17455826  0.27196402  1
  Y  Y7  1  0.34909252  0.17454827  0.27196170  1
  Y  Y8  1  0.82544732  0.65088872  0.27195787  1
  Y  Y9  1  0.17571466  0.82427844  0.77340178  1
  Y  Y10  1  0.64858011  0.82428917  0.77338911  1
  Y  Y11  1  0.17571634  0.35143905  0.77340426  1
  Y  Y12  1  0.33333313  0.66666773  0.10278999  1
  Y  Y13  1  0.66665994  0.33333083  0.60947800  1
  Y  Y14  1  0.99999171  0.99999038  0.50010014  1
  Y  Y15  1  0.00000608  0.00000644  0.99406909  1
  In  In0  1  0.16570902  0.83428556  0.23553698  1
  In  In1  1  0.66858167  0.83429216  0.23552780  1
  In  In2  1  0.16570706  0.33142491  0.23554031  1
  In  In3  1  0.83820194  0.16180249  0.73483248  1
  In  In4  1  0.32358440  0.16179163  0.73484389  1
  In  In5  1  0.83819964  0.67639195  0.73483469  1
  Cu  Cu0  1  0.33338251  0.66669154  0.70459088  1
  Re  Re0  1  0.66665344  0.33333032  0.21600124  1
loop_
_geom_bond_atom_site_label_1
_geom_bond_atom_site_label_2
_geom_bond_distance
_geom_bond_site_symmetry_2
In0 Y7 3.094477 1_565
In0 Y8 3.094487 1_455
In0 Y12 3.176894 1_555
In0 Y9 3.271561 1_554
In0 Y1 3.286772 1_555
In0 Y2 3.286826 1_555
In0 Y15 3.452038 1_564
In0 Y14 3.535613 1_455
In0 Y9 3.806136 1_555
In0 Y5 3.836242 1_564
In0 Y4 3.836338 1_454
In1 Y6 3.094519 1_565
In1 Y8 3.094524 1_555
In1 Y12 3.176951 1_555
In1 Y10 3.271578 1_554
In1 Y2 3.286889 1_555
In1 Y0 3.286897 1_555
In1 Y15 3.452054 1_664
In1 Y14 3.535562 1_555
In1 Y10 3.806108 1_555
In1 Y5 3.836183 1_564
In1 Y3 3.836280 1_554
In2 Y7 3.094451 1_555
In2 Y6 3.094464 1_455
In2 Y12 3.176910 1_555
In2 Y11 3.271565 1_554
In2 Y1 3.286782 1_555
In2 Y0 3.286857 1_555
In2 Y15 3.452042 1_554
In2 Y14 3.535686 1_445
In2 Y11 3.806133 1_555
In2 Y4 3.836261 1_454
In2 Y3 3.836310 1_554
In3 Y10 3.075615 1_545
In3 Y11 3.075659 1_655
In3 Y13 3.229936 1_555
In3 Y6 3.279861 1_555
In3 Y4 3.308229 1_555
In3 Y5 3.308369 1_555
In3 Y14 3.366974 1_545
In3 Y15 3.455575 1_655
In3 Y1 3.799211 1_655
In3 Y2 3.799232 1_545
In3 Y6 3.803659 1_556
In4 Y9 3.075625 1_545
In4 Y11 3.075639 1_555
In4 Y13 3.230045 1_555
In4 Y7 3.279959 1_555
In4 Y5 3.308306 1_555
In4 Y3 3.308320 1_555
In4 Y14 3.366951 1_445
In4 Y15 3.455409 1_555
In4 Y2 3.799254 1_545
In4 Y0 3.799265 1_555
In4 Y7 3.803559 1_556
In5 Y10 3.075628 1_555
In5 Y9 3.075653 1_655
In5 Y13 3.229888 1_555
In5 Y8 3.279919 1_555
In5 Y4 3.308167 1_555
In5 Y3 3.308302 1_555
In5 Y14 3.366947 1_555
In5 Y15 3.455713 1_665
In5 Y1 3.799156 1_655
In5 Y0 3.799209 1_555
In5 Y8 3.803593 1_556
Cu0 Y12 2.814615 1_556
Cu0 Y10 2.894850 1_555
Cu0 Y11 2.895342 1_555
Cu0 Y9 2.895352 1_555
Cu0 Y0 2.993987 1_555
Cu0 Y2 2.994025 1_555
Cu0 Y1 2.994429 1_555
Re0 Y13 2.781235 1_555
Re0 Y8 2.902154 1_555
Re0 Y7 2.902194 1_555
Re0 Y6 2.902211 1_555
Re0 Y3 2.904135 1_554
Re0 Y4 2.904221 1_554
Re0 Y5 2.904232 1_554
