# generated using pymatgen
data_RbInGa6
_symmetry_space_group_name_H-M   'P 1'
_cell_length_a   10.56178561
_cell_length_b   10.56178552
_cell_length_c   10.56178609
_cell_angle_alpha   37.22589942
_cell_angle_beta   37.22589819
_cell_angle_gamma   37.22590260
_symmetry_Int_Tables_number   1
_chemical_formula_structural   RbInGa6
_chemical_formula_sum   'Rb2 In2 Ga12'
_cell_volume   386.50598978
_cell_formula_units_Z   2
loop_
 _symmetry_equiv_pos_site_id
 _symmetry_equiv_pos_as_xyz
  1  'x, y, z'
loop_
 _atom_site_type_symbol
 _atom_site_label
 _atom_site_symmetry_multiplicity
 _atom_site_fract_x
 _atom_site_fract_y
 _atom_site_fract_z
 _atom_site_occupancy
  Rb  Rb0  1  0.19699031  0.19699031  0.19699031  1
  Rb  Rb1  1  0.80300969  0.80300969  0.80300969  1
  In  In0  1  0.45217011  0.45217011  0.45217011  1
  In  In1  1  0.54782989  0.54782989  0.54782989  1
  Ga  Ga0  1  0.58157368  0.18372796  0.18372796  1
  Ga  Ga1  1  0.18372796  0.18372796  0.58157368  1
  Ga  Ga2  1  0.18372796  0.58157368  0.18372796  1
  Ga  Ga3  1  0.81627204  0.41842632  0.81627204  1
  Ga  Ga4  1  0.41842632  0.81627204  0.81627204  1
  Ga  Ga5  1  0.81627204  0.81627204  0.41842632  1
  Ga  Ga6  1  0.80585797  0.20626454  0.20626454  1
  Ga  Ga7  1  0.20626454  0.20626454  0.80585797  1
  Ga  Ga8  1  0.20626454  0.80585797  0.20626454  1
  Ga  Ga9  1  0.79373546  0.19414203  0.79373546  1
  Ga  Ga10  1  0.19414203  0.79373546  0.79373546  1
  Ga  Ga11  1  0.79373546  0.79373546  0.19414203  1
loop_
_geom_bond_atom_site_label_1
_geom_bond_atom_site_label_2
_geom_bond_distance
_geom_bond_site_symmetry_2
In0 In1 2.817655 1_555
In0 Rb1 3.926549 1_554
In0 Rb1 3.926550 1_455
In0 Rb1 3.926550 1_545
In1 Rb0 3.926549 1_556
In1 Rb0 3.926550 1_655
In1 Rb0 3.926550 1_565
Ga0 Ga3 2.548666 1_554
Ga0 Ga5 2.548667 1_545
Ga0 Ga11 2.640427 1_545
Ga0 Ga9 2.640427 1_554
Ga0 Ga1 2.682309 1_555
Ga0 Ga2 2.682310 1_555
Ga0 Ga6 2.758772 1_555
Ga0 Rb0 3.841516 1_555
Ga1 Ga3 2.548666 1_455
Ga1 Ga4 2.548667 1_545
Ga1 Ga9 2.640427 1_455
Ga1 Ga10 2.640427 1_545
Ga1 Ga2 2.682309 1_555
Ga1 Ga7 2.758772 1_555
Ga1 Rb0 3.841516 1_555
Ga2 Ga4 2.548666 1_554
Ga2 Ga5 2.548666 1_455
Ga2 Ga8 2.758772 1_555
Ga2 Rb0 3.841516 1_555
Ga3 Ga7 2.640427 1_655
Ga3 Ga6 2.640427 1_556
Ga3 Ga5 2.682309 1_555
Ga3 Ga4 2.682310 1_555
Ga3 Ga9 2.758772 1_555
Ga3 Rb1 3.841516 1_555
Ga4 Ga7 2.640427 1_565
Ga4 Ga8 2.640427 1_556
Ga4 Ga5 2.682309 1_555
Ga4 Rb1 3.841516 1_555
Ga5 Ga8 2.640427 1_655
Ga5 Ga6 2.640427 1_565
Ga5 Rb1 3.841516 1_555
Ga6 In0 2.699335 1_555
Ga6 Ga7 2.699575 1_654
Ga6 Ga8 2.699575 1_645
Ga6 Rb1 3.875279 1_554
Ga6 Rb1 3.875280 1_545
Ga6 Rb0 3.976340 1_655
Ga7 In0 2.699334 1_555
Ga7 Ga8 2.699575 1_546
Ga7 Rb1 3.875280 1_455
Ga7 Rb1 3.875280 1_545
Ga7 Rb0 3.976340 1_556
Ga8 In0 2.699335 1_555
Ga8 Rb1 3.875279 1_554
Ga8 Rb1 3.875280 1_455
Ga8 Rb0 3.976340 1_565
Ga9 In1 2.699335 1_555
Ga9 Rb0 3.875279 1_556
Ga9 Rb0 3.875280 1_655
Ga9 Rb1 3.976340 1_545
Ga10 Ga2 2.640427 1_556
Ga10 In1 2.699335 1_555
Ga10 Ga11 2.699575 1_456
Ga10 Ga9 2.699575 1_465
Ga10 Ga4 2.758772 1_555
Ga10 Rb0 3.875279 1_556
Ga10 Rb0 3.875280 1_565
Ga10 Rb1 3.976340 1_455
Ga11 Ga2 2.640427 1_655
Ga11 In1 2.699334 1_555
Ga11 Ga9 2.699575 1_564
Ga11 Ga5 2.758772 1_555
Ga11 Rb0 3.875280 1_655
Ga11 Rb0 3.875280 1_565
Ga11 Rb1 3.976340 1_554
