# generated using pymatgen
data_RbBa4Bi3O
_symmetry_space_group_name_H-M   'P 1'
_cell_length_a   10.65958238
_cell_length_b   10.65958292
_cell_length_c   10.65958224
_cell_angle_alpha   128.82040720
_cell_angle_beta   128.82041018
_cell_angle_gamma   75.29971823
_symmetry_Int_Tables_number   1
_chemical_formula_structural   RbBa4Bi3O
_chemical_formula_sum   'Rb2 Ba8 Bi6 O2'
_cell_volume   715.63272307
_cell_formula_units_Z   2
loop_
 _symmetry_equiv_pos_site_id
 _symmetry_equiv_pos_as_xyz
  1  'x, y, z'
loop_
 _atom_site_type_symbol
 _atom_site_label
 _atom_site_symmetry_multiplicity
 _atom_site_fract_x
 _atom_site_fract_y
 _atom_site_fract_z
 _atom_site_occupancy
  Rb  Rb0  1  0.00000000  0.00000000  0.00000000  1
  Rb  Rb1  1  0.50000000  0.50000000  0.00000000  1
  Ba  Ba0  1  0.49887994  0.99887994  0.80854468  1
  Ba  Ba1  1  0.99887994  0.19033525  0.50000000  1
  Ba  Ba2  1  0.19033525  0.69033525  0.19145532  1
  Ba  Ba3  1  0.50112006  0.00112006  0.19145532  1
  Ba  Ba4  1  0.69033525  0.49887994  0.50000000  1
  Ba  Ba5  1  0.80966475  0.30966475  0.80854468  1
  Ba  Ba6  1  0.30966475  0.50112006  0.50000000  1
  Ba  Ba7  1  0.00112006  0.80966475  0.50000000  1
  Bi  Bi0  1  0.38205380  0.11794620  0.50000000  1
  Bi  Bi1  1  0.88205380  0.38205380  0.26410859  1
  Bi  Bi2  1  0.25000000  0.25000000  0.00000000  1
  Bi  Bi3  1  0.75000000  0.75000000  0.00000000  1
  Bi  Bi4  1  0.11794620  0.61794620  0.73589141  1
  Bi  Bi5  1  0.61794620  0.88205380  0.50000000  1
  O  O0  1  0.25000000  0.75000000  0.50000000  1
  O  O1  1  0.75000000  0.25000000  0.50000000  1
loop_
_geom_bond_atom_site_label_1
_geom_bond_atom_site_label_2
_geom_bond_distance
_geom_bond_site_symmetry_2
Ba0 O0 2.566385 1_555
Ba0 Bi0 3.643517 1_565
Ba0 Bi5 3.643517 1_555
Ba0 Bi3 3.834491 1_556
Ba0 Bi2 3.834491 1_566
Ba0 Bi1 3.959641 1_566
Ba1 O1 2.566386 1_555
Ba1 Bi1 3.643508 1_555
Ba1 Bi4 3.643520 1_655
Ba1 Bi2 3.834491 1_656
Ba1 Bi3 3.834491 1_545
Ba1 Bi0 3.959642 1_655
Ba2 O0 2.566385 1_555
Ba2 Bi5 3.643516 1_555
Ba2 Bi0 3.643517 1_565
Ba2 Bi3 3.834491 1_455
Ba2 Bi2 3.834491 1_555
Ba2 Bi4 3.959652 1_554
Ba3 O1 2.566385 1_555
Ba3 Bi5 3.643517 1_545
Ba3 Bi0 3.643517 1_555
Ba3 Bi2 3.834491 1_555
Ba3 Bi3 3.834491 1_545
Ba3 Bi4 3.959641 1_544
Ba4 O1 2.566386 1_555
Ba4 Bi1 3.643508 1_555
Ba4 Bi4 3.643520 1_655
Ba4 Bi2 3.834491 1_555
Ba4 Bi3 3.834491 1_556
Ba4 Bi5 3.959642 1_555
Ba5 O1 2.566385 1_555
Ba5 Bi0 3.643516 1_555
Ba5 Bi5 3.643517 1_545
Ba5 Bi2 3.834491 1_656
Ba5 Bi3 3.834491 1_556
Ba5 Bi1 3.959652 1_556
Ba6 O0 2.566386 1_555
Ba6 Bi4 3.643508 1_555
Ba6 Bi1 3.643520 1_455
Ba6 Bi3 3.834491 1_556
Ba6 Bi2 3.834491 1_555
Ba6 Bi0 3.959642 1_555
Ba7 O0 2.566386 1_555
Ba7 Bi4 3.643508 1_555
Ba7 Bi1 3.643520 1_455
Ba7 Bi3 3.834491 1_455
Ba7 Bi2 3.834491 1_566
Ba7 Bi5 3.959642 1_455
Bi0 Bi5 3.071904 1_545
Bi0 Rb0 3.681890 1_555
Bi0 Rb1 3.681890 1_556
Bi1 Bi4 3.071891 1_655
Bi1 Rb1 3.681893 1_555
Bi1 Rb0 3.681894 1_655
Bi2 Rb0 4.219907 1_555
Bi2 Rb1 4.219907 1_555
Bi3 Rb1 4.219907 1_555
Bi3 Rb0 4.219907 1_665
Bi4 Rb1 3.681893 1_556
Bi4 Rb0 3.681894 1_566
Bi5 Rb0 3.681890 1_666
Bi5 Rb1 3.681890 1_555
