# generated using pymatgen
data_Lu4Co4Si3Ge
_symmetry_space_group_name_H-M   'P 1'
_cell_length_a   4.12101530
_cell_length_b   6.68139335
_cell_length_c   6.92289309
_cell_angle_alpha   89.78978848
_cell_angle_beta   90.00000000
_cell_angle_gamma   90.00000000
_symmetry_Int_Tables_number   1
_chemical_formula_structural   Lu4Co4Si3Ge
_chemical_formula_sum   'Lu4 Co4 Si3 Ge1'
_cell_volume   190.61451540
_cell_formula_units_Z   1
loop_
 _symmetry_equiv_pos_site_id
 _symmetry_equiv_pos_as_xyz
  1  'x, y, z'
loop_
 _atom_site_type_symbol
 _atom_site_label
 _atom_site_symmetry_multiplicity
 _atom_site_fract_x
 _atom_site_fract_y
 _atom_site_fract_z
 _atom_site_occupancy
  Lu  Lu0  1  0.75000000  0.51677985  0.80221526  1
  Lu  Lu1  1  0.75000000  0.01340385  0.69591824  1
  Lu  Lu2  1  0.25000000  0.48906021  0.19754818  1
  Lu  Lu3  1  0.25000000  0.98478719  0.30356937  1
  Co  Co0  1  0.75000000  0.34679917  0.44104910  1
  Co  Co1  1  0.75000000  0.83611149  0.06646954  1
  Co  Co2  1  0.25000000  0.65492534  0.56652532  1
  Co  Co3  1  0.25000000  0.15326173  0.92514946  1
  Si  Si0  1  0.75000000  0.70025014  0.39849488  1
  Si  Si1  1  0.25000000  0.80022874  0.89736761  1
  Si  Si2  1  0.25000000  0.30039052  0.60329788  1
  Ge  Ge0  1  0.75000000  0.20400175  0.10239616  1
loop_
_geom_bond_atom_site_label_1
_geom_bond_atom_site_label_2
_geom_bond_distance
_geom_bond_site_symmetry_2
Lu0 Si2 2.871750 1_555
Lu0 Si2 2.871750 1_655
Lu0 Si1 2.876695 1_555
Lu0 Si1 2.876695 1_655
Lu0 Si0 3.047799 1_555
Lu1 Si1 2.864387 1_645
Lu1 Si1 2.864387 1_545
Lu1 Si2 2.885221 1_655
Lu1 Si2 2.885221 1_555
Lu1 Si0 2.940910 1_545
Lu2 Si0 2.861186 1_455
Lu2 Si0 2.861186 1_555
Lu2 Si1 2.934157 1_554
Lu2 Si2 3.074628 1_555
Lu3 Si0 2.877947 1_455
Lu3 Si0 2.877947 1_555
Lu3 Si2 2.963810 1_565
Lu3 Si1 3.074712 1_554
Co0 Si2 2.366628 1_555
Co0 Si2 2.366628 1_655
Co0 Si0 2.378777 1_555
Co0 Ge0 2.534399 1_555
Co0 Lu0 2.749953 1_555
Co0 Lu2 2.824726 1_555
Co0 Lu2 2.824726 1_655
Co0 Lu1 2.836607 1_555
Co1 Si1 2.382375 1_654
Co1 Si1 2.382375 1_554
Co1 Si0 2.468226 1_555
Co1 Ge0 2.471478 1_565
Co1 Lu0 2.815586 1_554
Co1 Lu3 2.817565 1_555
Co1 Lu3 2.817565 1_655
Co1 Lu1 2.821628 1_564
Co2 Si2 2.381498 1_555
Co2 Si0 2.384949 1_555
Co2 Si0 2.384949 1_455
Co2 Si1 2.490922 1_555
Co2 Lu0 2.783681 1_455
Co2 Lu0 2.783681 1_555
Co2 Lu2 2.788155 1_555
Co2 Lu3 2.853386 1_555
Co3 Si1 2.367284 1_545
Co3 Ge0 2.422674 1_556
Co3 Ge0 2.422674 1_456
Co3 Si2 2.432055 1_555
Co3 Lu1 2.765529 1_455
Co3 Lu1 2.765529 1_555
Co3 Lu3 2.847557 1_546
Co3 Lu2 2.936152 1_556
Ge0 Lu3 2.883672 1_645
Ge0 Lu3 2.883672 1_545
Ge0 Lu2 2.883795 1_555
Ge0 Lu2 2.883795 1_655
Ge0 Lu0 2.941760 1_554
Ge0 Lu1 3.092993 1_554
