# generated using pymatgen
data_Sc8Re11Si16Tc
_symmetry_space_group_name_H-M   'P 1'
_cell_length_a   6.60173108
_cell_length_b   6.60446113
_cell_length_c   12.40108125
_cell_angle_alpha   90.07972367
_cell_angle_beta   89.95018563
_cell_angle_gamma   89.97488893
_symmetry_Int_Tables_number   1
_chemical_formula_structural   Sc8Re11Si16Tc
_chemical_formula_sum   'Sc8 Re11 Si16 Tc1'
_cell_volume   540.69722930
_cell_formula_units_Z   1
loop_
 _symmetry_equiv_pos_site_id
 _symmetry_equiv_pos_as_xyz
  1  'x, y, z'
loop_
 _atom_site_type_symbol
 _atom_site_label
 _atom_site_symmetry_multiplicity
 _atom_site_fract_x
 _atom_site_fract_y
 _atom_site_fract_z
 _atom_site_occupancy
  Sc  Sc0  1  0.34217396  0.99277999  0.46892791  1
  Sc  Sc1  1  0.65923980  0.00686876  0.96902827  1
  Sc  Sc2  1  0.84260669  0.50709622  0.28134669  1
  Sc  Sc3  1  0.15857155  0.49321603  0.78063413  1
  Sc  Sc4  1  0.00764033  0.65674337  0.03177119  1
  Sc  Sc5  1  0.99276165  0.34233570  0.53114325  1
  Sc  Sc6  1  0.49300359  0.15741663  0.21907357  1
  Sc  Sc7  1  0.50829224  0.84296374  0.71859704  1
  Re  Re0  1  0.33307601  0.33270253  0.99991469  1
  Re  Re1  1  0.66765181  0.66832485  0.49996730  1
  Re  Re2  1  0.83163081  0.16899695  0.75023912  1
  Re  Re3  1  0.16866811  0.83140500  0.25003133  1
  Re  Re4  1  0.81267206  0.02000286  0.36673444  1
  Re  Re5  1  0.68484971  0.52181221  0.88267167  1
  Re  Re6  1  0.31261244  0.47936777  0.38270630  1
  Re  Re7  1  0.01920707  0.81430166  0.63307810  1
  Re  Re8  1  0.98193534  0.18288241  0.13080140  1
  Re  Re9  1  0.48036084  0.31430440  0.61826766  1
  Re  Re10  1  0.51998425  0.68529615  0.11675270  1
  Si  Si0  1  0.27970172  0.97319767  0.06158367  1
  Si  Si1  1  0.72276170  0.02653563  0.56170460  1
  Si  Si2  1  0.77783689  0.52702528  0.68818524  1
  Si  Si3  1  0.22295275  0.47297667  0.18782436  1
  Si  Si4  1  0.02553577  0.72331586  0.43823321  1
  Si  Si5  1  0.97355005  0.27944695  0.93664321  1
  Si  Si6  1  0.47334983  0.22143456  0.81321289  1
  Si  Si7  1  0.52577066  0.77653557  0.31180073  1
  Si  Si8  1  0.19469864  0.11998364  0.68241078  1
  Si  Si9  1  0.80479783  0.87881737  0.18113614  1
  Si  Si10  1  0.69610230  0.37886362  0.06854683  1
  Si  Si11  1  0.30448276  0.62027517  0.56900090  1
  Si  Si12  1  0.88083109  0.80578308  0.81884315  1
  Si  Si13  1  0.11950327  0.19450219  0.31828872  1
  Si  Si14  1  0.61942215  0.30489397  0.43144703  1
  Si  Si15  1  0.37765661  0.69667563  0.93088251  1
  Tc  Tc0  1  0.18411672  0.98092789  0.86856326  1
loop_
_geom_bond_atom_site_label_1
_geom_bond_atom_site_label_2
_geom_bond_distance
_geom_bond_site_symmetry_2
Sc0 Si7 2.700414 1_555
Sc0 Si13 2.726831 1_565
Sc0 Si11 2.768226 1_555
Sc0 Si4 2.772087 1_555
Sc0 Si1 2.773279 1_565
Sc0 Si14 2.796380 1_565
Sc0 Si8 2.941276 1_565
Sc1 Si6 2.694082 1_555
Sc1 Si12 2.712787 1_545
Sc1 Si10 2.758789 1_556
Sc1 Si0 2.764261 1_546
Sc1 Si5 2.776968 1_555
Sc1 Si15 2.806883 1_545
Sc1 Si9 2.926999 1_546
Sc2 Si4 2.698281 1_655
Sc2 Si14 2.724522 1_555
Sc2 Si9 2.764463 1_555
Sc2 Si7 2.770887 1_555
Sc2 Si3 2.773880 1_655
Sc2 Si13 2.795434 1_655
Sc2 Si10 2.935248 1_555
Sc3 Si5 2.689466 1_455
Sc3 Si15 2.714523 1_555
Sc3 Si8 2.758158 1_555
Sc3 Si2 2.772580 1_455
Sc3 Si6 2.775567 1_555
Sc3 Si12 2.800076 1_455
Sc3 Si11 2.919316 1_555
Sc4 Si3 2.692287 1_555
Sc4 Si9 2.713253 1_455
Sc4 Si15 2.756459 1_554
Sc4 Si5 2.764843 1_454
Sc4 Si0 2.780829 1_555
Sc4 Si10 2.794655 1_455
Sc4 Si12 2.941519 1_454
Sc4 Tc0 3.169864 1_554
Sc5 Si2 2.698304 1_555
Sc5 Si8 2.731851 1_655
Sc5 Si14 2.769359 1_555
Sc5 Si1 2.770417 1_555
Sc5 Si4 2.777330 1_655
Sc5 Si11 2.797771 1_655
Sc5 Si13 2.934156 1_655
Sc6 Si0 2.697639 1_545
Sc6 Si10 2.725121 1_555
Sc6 Si13 2.765337 1_555
Sc6 Si3 2.769881 1_555
Sc6 Si7 2.775774 1_545
Sc6 Si9 2.799366 1_545
Sc6 Si14 2.928956 1_555
Sc7 Si1 2.695063 1_565
Sc7 Si11 2.722775 1_555
Sc7 Si2 2.766951 1_555
Sc7 Si12 2.767677 1_555
Sc7 Si6 2.769256 1_565
Sc7 Si8 2.799152 1_565
Sc7 Si15 2.934537 1_555
Sc7 Tc0 2.975846 1_555
Re0 Si0 2.520280 1_546
Re0 Si5 2.525081 1_455
Re0 Si10 2.562129 1_556
Re0 Si15 2.569799 1_555
Re0 Si6 2.597916 1_555
Re0 Si3 2.609117 1_556
Re0 Re8 2.997889 1_456
Re0 Tc0 3.002043 1_545
Re0 Re10 3.006818 1_556
Re0 Re5 3.011434 1_555
Re0 Sc4 3.056811 1_556
Re0 Sc1 3.066969 1_555
Re0 Sc6 3.139117 1_556
Re0 Sc3 3.139758 1_555
Re1 Si4 2.509684 1_655
Re1 Si1 2.512306 1_565
Re1 Si11 2.565087 1_555
Re1 Si14 2.565180 1_555
Re1 Si7 2.615535 1_555
Re1 Si2 2.618487 1_555
Re1 Sc0 3.058866 1_555
Re1 Sc5 3.064485 1_555
Re1 Sc7 3.126220 1_555
Re1 Sc2 3.131066 1_555
Re2 Si2 2.512840 1_555
Re2 Si6 2.513892 1_555
Re2 Si8 2.559762 1_655
Re2 Si12 2.566938 1_545
Re2 Si5 2.598681 1_555
Re2 Si1 2.620230 1_555
Re2 Re9 2.997689 1_555
Re2 Re5 3.008384 1_555
Re2 Re7 3.019427 1_645
Re2 Tc0 3.019833 1_645
Re2 Sc7 3.057808 1_545
Re2 Sc3 3.064149 1_655
Re2 Sc1 3.131634 1_555
Re2 Sc5 3.135134 1_555
Re3 Si7 2.505800 1_555
Re3 Si3 2.514159 1_555
Re3 Si13 2.562370 1_565
Re3 Si9 2.569455 1_455
Re3 Si4 2.617442 1_555
Re3 Si0 2.622851 1_555
Re3 Sc6 3.061520 1_565
Re3 Sc2 3.062179 1_455
Re3 Sc4 3.127967 1_555
Re3 Sc0 3.132919 1_555
Re4 Si13 2.407097 1_655
Re4 Si14 2.409106 1_555
Re4 Si9 2.482721 1_545
Re4 Si1 2.489443 1_555
Re4 Si4 2.570022 1_645
Re4 Si7 2.576612 1_545
Re4 Sc6 2.939399 1_555
Re5 Si15 2.407886 1_555
Re5 Si12 2.412961 1_555
Re5 Si2 2.488511 1_555
Re5 Si10 2.493271 1_556
Re5 Si6 2.574269 1_555
Re5 Si5 2.577838 1_555
Re5 Sc4 2.959378 1_656
Re5 Sc7 3.164072 1_555
Re6 Si14 2.407846 1_555
Re6 Si13 2.408881 1_555
Re6 Si3 2.488981 1_555
Re6 Si11 2.489972 1_555
Re6 Si7 2.571075 1_555
Re6 Si4 2.579479 1_555
Re6 Sc5 2.943774 1_455
Re6 Sc6 3.168399 1_555
Re7 Si8 2.406692 1_565
Re7 Si11 2.410983 1_555
Re7 Si12 2.478186 1_455
Re7 Si4 2.489387 1_555
Re7 Si1 2.565594 1_465
Re7 Si2 2.571045 1_455
Re7 Sc3 2.950221 1_555
Re7 Sc0 3.175003 1_555
Re8 Si9 2.407125 1_545
Re8 Si10 2.415632 1_555
Re8 Si5 2.492315 1_554
Re8 Si13 2.497952 1_655
Re8 Si0 2.551523 1_645
Re8 Si3 2.589083 1_655
Re8 Sc2 2.983388 1_555
Re8 Sc1 3.149212 1_554
Re9 Si11 2.409888 1_555
Re9 Si8 2.416329 1_555
Re9 Si14 2.491983 1_555
Re9 Si6 2.495348 1_555
Re9 Si2 2.565983 1_555
Re9 Si1 2.580051 1_555
Re9 Sc0 2.960570 1_545
Re9 Sc3 3.153910 1_555
Re10 Si10 2.407991 1_555
Re10 Si9 2.410040 1_555
Re10 Si15 2.491121 1_554
Re10 Si7 2.492252 1_555
Re10 Si3 2.567331 1_555
Re10 Si0 2.569566 1_555
Re10 Sc1 2.953197 1_564
Re10 Sc2 3.178014 1_555
Si0 Tc0 2.476561 1_554
Si0 Si15 2.523785 1_554
Si1 Si14 2.542351 1_555
Si5 Tc0 2.554043 1_645
Si6 Si8 2.543110 1_555
Si6 Tc0 2.577516 1_545
Si7 Si9 2.544425 1_555
Si8 Tc0 2.486590 1_545
Si10 Si5 2.540162 1_554
Si11 Si4 2.547805 1_555
Si12 Tc0 2.393586 1_655
Si12 Si2 2.543982 1_555
Si13 Si3 2.544412 1_555
Si15 Tc0 2.399543 1_555
