# generated using pymatgen
data_Ga17Rh10
_symmetry_space_group_name_H-M   'P 1'
_cell_length_a   5.87987600
_cell_length_b   5.87987600
_cell_length_c   48.23391200
_cell_angle_alpha   90.00000000
_cell_angle_beta   90.00000000
_cell_angle_gamma   90.00000000
_symmetry_Int_Tables_number   1
_chemical_formula_structural   Ga17Rh10
_chemical_formula_sum   'Ga68 Rh40'
_cell_volume   1667.58823117
_cell_formula_units_Z   4
loop_
 _symmetry_equiv_pos_site_id
 _symmetry_equiv_pos_as_xyz
  1  'x, y, z'
loop_
 _atom_site_type_symbol
 _atom_site_label
 _atom_site_symmetry_multiplicity
 _atom_site_fract_x
 _atom_site_fract_y
 _atom_site_fract_z
 _atom_site_occupancy
  Ga  Ga0  1  0.17166800  0.17166800  0.25000000  1
  Ga  Ga1  1  0.17166800  0.82833200  0.75000000  1
  Ga  Ga2  1  0.82833200  0.17166800  0.75000000  1
  Ga  Ga3  1  0.82833200  0.82833200  0.25000000  1
  Ga  Ga4  1  0.34709900  0.23306900  0.01515900  1
  Ga  Ga5  1  0.23306900  0.65290100  0.98484100  1
  Ga  Ga6  1  0.76693100  0.34709900  0.98484100  1
  Ga  Ga7  1  0.65290100  0.76693100  0.01515900  1
  Ga  Ga8  1  0.23306900  0.34709900  0.48484100  1
  Ga  Ga9  1  0.76693100  0.65290100  0.48484100  1
  Ga  Ga10  1  0.65290100  0.23306900  0.51515900  1
  Ga  Ga11  1  0.34709900  0.76693100  0.51515900  1
  Ga  Ga12  1  0.79890400  0.15627200  0.04498900  1
  Ga  Ga13  1  0.15627200  0.20109600  0.95501100  1
  Ga  Ga14  1  0.84372800  0.79890400  0.95501100  1
  Ga  Ga15  1  0.20109600  0.84372800  0.04498900  1
  Ga  Ga16  1  0.15627200  0.79890400  0.45501100  1
  Ga  Ga17  1  0.84372800  0.20109600  0.45501100  1
  Ga  Ga18  1  0.20109600  0.15627200  0.54498900  1
  Ga  Ga19  1  0.79890400  0.84372800  0.54498900  1
  Ga  Ga20  1  0.16693500  0.32271600  0.07378200  1
  Ga  Ga21  1  0.32271600  0.83306500  0.92621800  1
  Ga  Ga22  1  0.67728400  0.16693500  0.92621800  1
  Ga  Ga23  1  0.83306500  0.67728400  0.07378200  1
  Ga  Ga24  1  0.32271600  0.16693500  0.42621800  1
  Ga  Ga25  1  0.67728400  0.83306500  0.42621800  1
  Ga  Ga26  1  0.83306500  0.32271600  0.57378200  1
  Ga  Ga27  1  0.16693500  0.67728400  0.57378200  1
  Ga  Ga28  1  0.66256500  0.31547900  0.10252500  1
  Ga  Ga29  1  0.31547900  0.33743500  0.89747500  1
  Ga  Ga30  1  0.68452100  0.66256500  0.89747500  1
  Ga  Ga31  1  0.33743500  0.68452100  0.10252500  1
  Ga  Ga32  1  0.31547900  0.66256500  0.39747500  1
  Ga  Ga33  1  0.68452100  0.33743500  0.39747500  1
  Ga  Ga34  1  0.33743500  0.31547900  0.60252500  1
  Ga  Ga35  1  0.66256500  0.68452100  0.60252500  1
  Ga  Ga36  1  0.28867100  0.15441000  0.13154100  1
  Ga  Ga37  1  0.15441000  0.71132900  0.86845900  1
  Ga  Ga38  1  0.84559000  0.28867100  0.86845900  1
  Ga  Ga39  1  0.71132900  0.84559000  0.13154100  1
  Ga  Ga40  1  0.15441000  0.28867100  0.36845900  1
  Ga  Ga41  1  0.84559000  0.71132900  0.36845900  1
  Ga  Ga42  1  0.71132900  0.15441000  0.63154100  1
  Ga  Ga43  1  0.28867100  0.84559000  0.63154100  1
  Ga  Ga44  1  0.84772900  0.24466600  0.16163400  1
  Ga  Ga45  1  0.24466600  0.15227100  0.83836600  1
  Ga  Ga46  1  0.75533400  0.84772900  0.83836600  1
  Ga  Ga47  1  0.15227100  0.75533400  0.16163400  1
  Ga  Ga48  1  0.24466600  0.84772900  0.33836600  1
  Ga  Ga49  1  0.75533400  0.15227100  0.33836600  1
  Ga  Ga50  1  0.15227100  0.24466600  0.66163400  1
  Ga  Ga51  1  0.84772900  0.75533400  0.66163400  1
  Ga  Ga52  1  0.27861500  0.34648900  0.19197200  1
  Ga  Ga53  1  0.34648900  0.72138500  0.80802800  1
  Ga  Ga54  1  0.65351100  0.27861500  0.80802800  1
  Ga  Ga55  1  0.72138500  0.65351100  0.19197200  1
  Ga  Ga56  1  0.34648900  0.27861500  0.30802800  1
  Ga  Ga57  1  0.65351100  0.72138500  0.30802800  1
  Ga  Ga58  1  0.72138500  0.34648900  0.69197200  1
  Ga  Ga59  1  0.27861500  0.65351100  0.69197200  1
  Ga  Ga60  1  0.65924900  0.19203900  0.22130100  1
  Ga  Ga61  1  0.19203900  0.34075100  0.77869900  1
  Ga  Ga62  1  0.80796100  0.65924900  0.77869900  1
  Ga  Ga63  1  0.34075100  0.80796100  0.22130100  1
  Ga  Ga64  1  0.19203900  0.65924900  0.27869900  1
  Ga  Ga65  1  0.80796100  0.34075100  0.27869900  1
  Ga  Ga66  1  0.34075100  0.19203900  0.72130100  1
  Ga  Ga67  1  0.65924900  0.80796100  0.72130100  1
  Rh  Rh0  1  0.50000000  0.50000000  0.25000000  1
  Rh  Rh1  1  0.50000000  0.50000000  0.75000000  1
  Rh  Rh2  1  0.00000000  0.00000000  0.00000000  1
  Rh  Rh3  1  0.00000000  0.00000000  0.50000000  1
  Rh  Rh4  1  0.00000000  0.00000000  0.09874200  1
  Rh  Rh5  1  0.00000000  0.00000000  0.90125800  1
  Rh  Rh6  1  0.00000000  0.00000000  0.40125800  1
  Rh  Rh7  1  0.00000000  0.00000000  0.59874200  1
  Rh  Rh8  1  0.00000000  0.00000000  0.20125500  1
  Rh  Rh9  1  0.00000000  0.00000000  0.79874500  1
  Rh  Rh10  1  0.00000000  0.00000000  0.29874500  1
  Rh  Rh11  1  0.00000000  0.00000000  0.70125500  1
  Rh  Rh12  1  0.50000000  0.50000000  0.05158700  1
  Rh  Rh13  1  0.50000000  0.50000000  0.94841300  1
  Rh  Rh14  1  0.50000000  0.50000000  0.44841300  1
  Rh  Rh15  1  0.50000000  0.50000000  0.55158700  1
  Rh  Rh16  1  0.50000000  0.50000000  0.14940500  1
  Rh  Rh17  1  0.50000000  0.50000000  0.85059500  1
  Rh  Rh18  1  0.50000000  0.50000000  0.35059500  1
  Rh  Rh19  1  0.50000000  0.50000000  0.64940500  1
  Rh  Rh20  1  0.00000000  0.50000000  0.02597400  1
  Rh  Rh21  1  0.50000000  0.00000000  0.97402600  1
  Rh  Rh22  1  0.50000000  0.00000000  0.47402600  1
  Rh  Rh23  1  0.00000000  0.50000000  0.52597400  1
  Rh  Rh24  1  0.00000000  0.50000000  0.12350900  1
  Rh  Rh25  1  0.50000000  0.00000000  0.87649100  1
  Rh  Rh26  1  0.50000000  0.00000000  0.37649100  1
  Rh  Rh27  1  0.00000000  0.50000000  0.62350900  1
  Rh  Rh28  1  0.00000000  0.50000000  0.22655700  1
  Rh  Rh29  1  0.50000000  0.00000000  0.77344300  1
  Rh  Rh30  1  0.50000000  0.00000000  0.27344300  1
  Rh  Rh31  1  0.00000000  0.50000000  0.72655700  1
  Rh  Rh32  1  0.00000000  0.50000000  0.32469300  1
  Rh  Rh33  1  0.50000000  0.00000000  0.67530700  1
  Rh  Rh34  1  0.50000000  0.00000000  0.17530700  1
  Rh  Rh35  1  0.00000000  0.50000000  0.82469300  1
  Rh  Rh36  1  0.00000000  0.50000000  0.42427200  1
  Rh  Rh37  1  0.50000000  0.00000000  0.57572800  1
  Rh  Rh38  1  0.50000000  0.00000000  0.07572800  1
  Rh  Rh39  1  0.00000000  0.50000000  0.92427200  1
loop_
_geom_bond_atom_site_label_1
_geom_bond_atom_site_label_2
_geom_bond_distance
_geom_bond_site_symmetry_2
Ga0 Rh30 2.454482 1_555
Ga0 Rh28 2.454482 1_555
Ga0 Rh0 2.730212 1_555
Ga0 Ga65 2.734594 1_455
Ga0 Ga63 2.734594 1_545
Ga0 Rh10 2.750579 1_555
Ga0 Rh8 2.750579 1_555
Ga0 Ga3 2.854976 1_445
Ga0 Ga56 3.047295 1_555
Ga0 Ga52 3.047295 1_555
Ga1 Rh31 2.454482 1_555
Ga1 Rh29 2.454482 1_565
Ga1 Rh1 2.730212 1_555
Ga1 Ga62 2.734594 1_455
Ga1 Ga66 2.734594 1_565
Ga1 Rh9 2.750579 1_565
Ga1 Rh11 2.750579 1_565
Ga1 Ga2 2.854976 1_465
Ga1 Ga53 3.047295 1_555
Ga1 Ga59 3.047295 1_555
Ga2 Rh29 2.454482 1_555
Ga2 Rh31 2.454482 1_655
Ga2 Rh1 2.730212 1_555
Ga2 Ga61 2.734594 1_655
Ga2 Ga67 2.734594 1_545
Ga2 Rh9 2.750579 1_655
Ga2 Rh11 2.750579 1_655
Ga2 Ga54 3.047295 1_555
Ga2 Ga58 3.047295 1_555
Ga3 Rh30 2.454482 1_565
Ga3 Rh28 2.454482 1_655
Ga3 Rh0 2.730212 1_555
Ga3 Ga64 2.734594 1_655
Ga3 Ga60 2.734594 1_565
Ga3 Rh10 2.750579 1_665
Ga3 Rh8 2.750579 1_665
Ga3 Ga57 3.047295 1_555
Ga3 Ga55 3.047295 1_555
Ga4 Rh12 2.521695 1_555
Ga4 Rh2 2.564748 1_555
Ga4 Rh21 2.573440 1_554
Ga4 Rh20 2.626934 1_555
Ga4 Ga6 2.946493 1_554
Ga4 Ga5 2.946493 1_554
Ga5 Rh13 2.521695 1_555
Ga5 Rh2 2.564748 1_566
Ga5 Rh20 2.573440 1_556
Ga5 Rh21 2.626934 1_565
Ga5 Ga7 2.946493 1_556
Ga6 Rh13 2.521695 1_555
Ga6 Rh2 2.564748 1_656
Ga6 Rh20 2.573440 1_656
Ga6 Rh21 2.626934 1_555
Ga6 Ga7 2.946493 1_556
Ga7 Rh12 2.521695 1_555
Ga7 Rh2 2.564748 1_665
Ga7 Rh21 2.573440 1_564
Ga7 Rh20 2.626934 1_655
Ga8 Rh14 2.521695 1_555
Ga8 Rh3 2.564748 1_555
Ga8 Rh23 2.573440 1_555
Ga8 Rh22 2.626934 1_555
Ga9 Rh14 2.521695 1_555
Ga9 Rh3 2.564748 1_665
Ga9 Rh23 2.573440 1_655
Ga9 Rh22 2.626934 1_565
Ga10 Rh15 2.521695 1_555
Ga10 Rh3 2.564748 1_655
Ga10 Rh22 2.573440 1_555
Ga10 Rh23 2.626934 1_655
Ga10 Ga19 2.836895 1_545
Ga10 Ga9 2.946493 1_555
Ga10 Ga8 2.946493 1_555
Ga10 Ga18 3.054733 1_555
Ga10 Ga17 3.116267 1_555
Ga11 Rh15 2.521695 1_555
Ga11 Rh3 2.564748 1_565
Ga11 Rh22 2.573440 1_565
Ga11 Rh23 2.626934 1_555
Ga11 Ga18 2.836895 1_565
Ga11 Ga9 2.946493 1_555
Ga11 Ga8 2.946493 1_555
Ga11 Ga19 3.054733 1_555
Ga11 Ga16 3.116267 1_555
Ga12 Rh38 2.476179 1_555
Ga12 Rh20 2.514770 1_655
Ga12 Rh2 2.636532 1_655
Ga12 Rh12 2.697204 1_555
Ga12 Ga20 2.751246 1_655
Ga12 Ga7 2.836895 1_545
Ga12 Rh4 2.994095 1_655
Ga12 Ga15 2.994942 1_645
Ga12 Ga28 3.036549 1_555
Ga12 Ga4 3.054733 1_555
Ga12 Ga6 3.116267 1_554
Ga12 Ga23 3.146611 1_545
Ga13 Rh39 2.476179 1_555
Ga13 Rh21 2.514770 1_555
Ga13 Rh2 2.636532 1_556
Ga13 Rh13 2.697204 1_555
Ga13 Ga21 2.751246 1_545
Ga13 Ga6 2.836895 1_455
Ga13 Rh5 2.994095 1_555
Ga13 Ga14 2.994942 1_445
Ga13 Ga29 3.036549 1_555
Ga13 Ga5 3.054733 1_555
Ga13 Ga4 3.116267 1_556
Ga13 Ga22 3.146611 1_455
Ga14 Rh39 2.476179 1_655
Ga14 Rh21 2.514770 1_565
Ga14 Rh2 2.636532 1_666
Ga14 Rh13 2.697204 1_555
Ga14 Ga22 2.751246 1_565
Ga14 Ga5 2.836895 1_655
Ga14 Rh5 2.994095 1_665
Ga14 Ga30 3.036549 1_555
Ga14 Ga6 3.054733 1_555
Ga14 Ga7 3.116267 1_556
Ga14 Ga21 3.146611 1_655
Ga15 Rh38 2.476179 1_565
Ga15 Rh20 2.514770 1_555
Ga15 Rh2 2.636532 1_565
Ga15 Rh12 2.697204 1_555
Ga15 Ga23 2.751246 1_455
Ga15 Ga4 2.836895 1_565
Ga15 Rh4 2.994095 1_565
Ga15 Ga31 3.036549 1_555
Ga15 Ga7 3.054733 1_555
Ga15 Ga5 3.116267 1_554
Ga15 Ga20 3.146611 1_565
Ga16 Rh36 2.476179 1_555
Ga16 Rh22 2.514770 1_565
Ga16 Rh3 2.636532 1_565
Ga16 Rh14 2.697204 1_555
Ga16 Ga24 2.751246 1_565
Ga16 Ga9 2.836895 1_455
Ga16 Rh6 2.994095 1_565
Ga16 Ga17 2.994942 1_465
Ga16 Ga32 3.036549 1_555
Ga16 Ga8 3.054733 1_555
Ga16 Ga25 3.146611 1_455
Ga17 Rh36 2.476179 1_655
Ga17 Rh22 2.514770 1_555
Ga17 Rh3 2.636532 1_655
Ga17 Rh14 2.697204 1_555
Ga17 Ga25 2.751246 1_545
Ga17 Ga8 2.836895 1_655
Ga17 Rh6 2.994095 1_655
Ga17 Ga33 3.036549 1_555
Ga17 Ga9 3.054733 1_555
Ga17 Ga24 3.146611 1_655
Ga18 Rh37 2.476179 1_555
Ga18 Rh23 2.514770 1_555
Ga18 Rh3 2.636532 1_555
Ga18 Rh15 2.697204 1_555
Ga18 Ga26 2.751246 1_455
Ga18 Rh7 2.994095 1_555
Ga18 Ga19 2.994942 1_445
Ga18 Ga34 3.036549 1_555
Ga18 Ga8 3.116267 1_555
Ga18 Ga27 3.146611 1_545
Ga19 Rh37 2.476179 1_565
Ga19 Rh23 2.514770 1_655
Ga19 Rh3 2.636532 1_665
Ga19 Rh15 2.697204 1_555
Ga19 Ga27 2.751246 1_655
Ga19 Rh7 2.994095 1_665
Ga19 Ga35 3.036549 1_555
Ga19 Ga9 3.116267 1_555
Ga19 Ga26 3.146611 1_565
Ga20 Rh4 2.452243 1_555
Ga20 Rh12 2.463321 1_555
Ga20 Rh20 2.714323 1_555
Ga20 Rh38 2.728495 1_555
Ga20 Ga31 2.729984 1_555
Ga20 Rh24 2.793386 1_555
Ga20 Ga23 2.863612 1_455
Ga20 Ga36 3.041904 1_555
Ga21 Rh5 2.452243 1_565
Ga21 Rh13 2.463321 1_555
Ga21 Rh21 2.714323 1_565
Ga21 Rh39 2.728495 1_555
Ga21 Ga30 2.729984 1_555
Ga21 Rh25 2.793386 1_565
Ga21 Ga22 2.863612 1_565
Ga21 Ga37 3.041904 1_555
Ga22 Rh5 2.452243 1_655
Ga22 Rh13 2.463321 1_555
Ga22 Rh21 2.714323 1_555
Ga22 Rh39 2.728495 1_655
Ga22 Ga29 2.729984 1_555
Ga22 Rh25 2.793386 1_555
Ga22 Ga38 3.041904 1_555
Ga23 Rh4 2.452243 1_665
Ga23 Rh12 2.463321 1_555
Ga23 Rh20 2.714323 1_655
Ga23 Rh38 2.728495 1_565
Ga23 Ga28 2.729984 1_555
Ga23 Rh24 2.793386 1_655
Ga23 Ga39 3.041904 1_555
Ga24 Rh6 2.452243 1_555
Ga24 Rh14 2.463321 1_555
Ga24 Rh22 2.714323 1_555
Ga24 Rh36 2.728495 1_555
Ga24 Ga33 2.729984 1_555
Ga24 Rh26 2.793386 1_555
Ga24 Ga25 2.863612 1_545
Ga24 Ga40 3.041904 1_555
Ga25 Rh6 2.452243 1_665
Ga25 Rh14 2.463321 1_555
Ga25 Rh22 2.714323 1_565
Ga25 Rh36 2.728495 1_655
Ga25 Ga32 2.729984 1_555
Ga25 Rh26 2.793386 1_565
Ga25 Ga41 3.041904 1_555
Ga26 Rh7 2.452243 1_655
Ga26 Rh15 2.463321 1_555
Ga26 Rh23 2.714323 1_655
Ga26 Rh37 2.728495 1_555
Ga26 Ga35 2.729984 1_555
Ga26 Rh27 2.793386 1_655
Ga26 Ga27 2.863612 1_655
Ga26 Ga42 3.041904 1_555
Ga27 Rh7 2.452243 1_565
Ga27 Rh15 2.463321 1_555
Ga27 Rh23 2.714323 1_555
Ga27 Rh37 2.728495 1_565
Ga27 Ga34 2.729984 1_555
Ga27 Rh27 2.793386 1_555
Ga27 Ga43 3.041904 1_555
Ga28 Rh38 2.454635 1_555
Ga28 Rh24 2.477524 1_655
Ga28 Rh16 2.684001 1_555
Ga28 Rh4 2.722277 1_655
Ga28 Ga36 2.772882 1_555
Ga28 Rh12 2.850853 1_555
Ga28 Ga31 2.891928 1_555
Ga28 Ga44 3.080139 1_555
Ga28 Ga39 3.110389 1_545
Ga29 Rh39 2.454635 1_555
Ga29 Rh25 2.477524 1_555
Ga29 Rh17 2.684001 1_555
Ga29 Rh5 2.722277 1_555
Ga29 Ga37 2.772882 1_555
Ga29 Rh13 2.850853 1_555
Ga29 Ga30 2.891928 1_555
Ga29 Ga45 3.080139 1_555
Ga29 Ga38 3.110389 1_455
Ga30 Rh39 2.454635 1_655
Ga30 Rh25 2.477524 1_565
Ga30 Rh17 2.684001 1_555
Ga30 Rh5 2.722277 1_665
Ga30 Ga38 2.772882 1_555
Ga30 Rh13 2.850853 1_555
Ga30 Ga46 3.080139 1_555
Ga30 Ga37 3.110389 1_655
Ga31 Rh38 2.454635 1_565
Ga31 Rh24 2.477524 1_555
Ga31 Rh16 2.684001 1_555
Ga31 Rh4 2.722277 1_565
Ga31 Ga39 2.772882 1_555
Ga31 Rh12 2.850853 1_555
Ga31 Ga47 3.080139 1_555
Ga31 Ga36 3.110389 1_565
Ga32 Rh36 2.454635 1_555
Ga32 Rh26 2.477524 1_565
Ga32 Rh18 2.684001 1_555
Ga32 Rh6 2.722277 1_565
Ga32 Ga40 2.772882 1_555
Ga32 Rh14 2.850853 1_555
Ga32 Ga33 2.891928 1_555
Ga32 Ga48 3.080139 1_555
Ga32 Ga41 3.110389 1_455
Ga33 Rh36 2.454635 1_655
Ga33 Rh26 2.477524 1_555
Ga33 Rh18 2.684001 1_555
Ga33 Rh6 2.722277 1_655
Ga33 Ga41 2.772882 1_555
Ga33 Rh14 2.850853 1_555
Ga33 Ga49 3.080139 1_555
Ga33 Ga40 3.110389 1_655
Ga34 Rh37 2.454635 1_555
Ga34 Rh27 2.477524 1_555
Ga34 Rh19 2.684001 1_555
Ga34 Rh7 2.722277 1_555
Ga34 Ga42 2.772882 1_555
Ga34 Rh15 2.850853 1_555
Ga34 Ga35 2.891928 1_555
Ga34 Ga50 3.080139 1_555
Ga34 Ga43 3.110389 1_545
Ga35 Rh37 2.454635 1_565
Ga35 Rh27 2.477524 1_655
Ga35 Rh19 2.684001 1_555
Ga35 Rh7 2.722277 1_665
Ga35 Ga43 2.772882 1_555
Ga35 Rh15 2.850853 1_555
Ga35 Ga51 3.080139 1_555
Ga35 Ga42 3.110389 1_565
Ga36 Rh4 2.491606 1_555
Ga36 Rh16 2.532903 1_555
Ga36 Rh34 2.612408 1_555
Ga36 Rh24 2.675858 1_555
Ga36 Ga47 2.873366 1_545
Ga36 Ga44 3.018362 1_455
Ga36 Ga39 3.077875 1_545
Ga36 Rh38 3.100906 1_555
Ga36 Ga52 3.126538 1_555
Ga37 Rh5 2.491606 1_565
Ga37 Rh17 2.532903 1_555
Ga37 Rh35 2.612408 1_555
Ga37 Rh25 2.675858 1_565
Ga37 Ga46 2.873366 1_455
Ga37 Ga45 3.018362 1_565
Ga37 Ga38 3.077875 1_455
Ga37 Rh39 3.100906 1_555
Ga37 Ga53 3.126538 1_555
Ga38 Rh5 2.491606 1_655
Ga38 Rh17 2.532903 1_555
Ga38 Rh35 2.612408 1_655
Ga38 Rh25 2.675858 1_555
Ga38 Ga45 2.873366 1_655
Ga38 Ga46 3.018362 1_545
Ga38 Rh39 3.100906 1_655
Ga38 Ga54 3.126538 1_555
Ga39 Rh4 2.491606 1_665
Ga39 Rh16 2.532903 1_555
Ga39 Rh34 2.612408 1_565
Ga39 Rh24 2.675858 1_655
Ga39 Ga44 2.873366 1_565
Ga39 Ga47 3.018362 1_655
Ga39 Rh38 3.100906 1_565
Ga39 Ga55 3.126538 1_555
Ga40 Rh6 2.491606 1_555
Ga40 Rh18 2.532903 1_555
Ga40 Rh32 2.612408 1_555
Ga40 Rh26 2.675858 1_555
Ga40 Ga49 2.873366 1_455
Ga40 Ga48 3.018362 1_545
Ga40 Ga41 3.077875 1_455
Ga40 Rh36 3.100906 1_555
Ga40 Ga56 3.126538 1_555
Ga41 Rh6 2.491606 1_665
Ga41 Rh18 2.532903 1_555
Ga41 Rh32 2.612408 1_655
Ga41 Rh26 2.675858 1_565
Ga41 Ga48 2.873366 1_655
Ga41 Ga49 3.018362 1_565
Ga41 Rh36 3.100906 1_655
Ga41 Ga57 3.126538 1_555
Ga42 Rh7 2.491606 1_655
Ga42 Rh19 2.532903 1_555
Ga42 Rh33 2.612408 1_555
Ga42 Rh27 2.675858 1_655
Ga42 Ga51 2.873366 1_545
Ga42 Ga50 3.018362 1_655
Ga42 Ga43 3.077875 1_545
Ga42 Rh37 3.100906 1_555
Ga42 Ga58 3.126538 1_555
Ga43 Rh7 2.491606 1_565
Ga43 Rh19 2.532903 1_555
Ga43 Rh33 2.612408 1_565
Ga43 Rh27 2.675858 1_555
Ga43 Ga50 2.873366 1_565
Ga43 Ga51 3.018362 1_455
Ga43 Rh37 3.100906 1_565
Ga43 Ga59 3.126538 1_555
Ga44 Rh24 2.537172 1_655
Ga44 Rh8 2.554099 1_655
Ga44 Rh34 2.585524 1_555
Ga44 Rh16 2.604290 1_555
Ga44 Ga55 2.910705 1_555
Ga44 Ga52 2.986413 1_655
Ga44 Ga60 3.099464 1_555
Ga45 Rh25 2.537172 1_555
Ga45 Rh9 2.554099 1_555
Ga45 Rh35 2.585524 1_555
Ga45 Rh17 2.604290 1_555
Ga45 Ga54 2.910705 1_555
Ga45 Ga53 2.986413 1_545
Ga45 Ga61 3.099464 1_555
Ga46 Rh25 2.537172 1_565
Ga46 Rh9 2.554099 1_665
Ga46 Rh35 2.585524 1_655
Ga46 Rh17 2.604290 1_555
Ga46 Ga53 2.910705 1_555
Ga46 Ga54 2.986413 1_565
Ga46 Ga62 3.099464 1_555
Ga47 Rh24 2.537172 1_555
Ga47 Rh8 2.554099 1_565
Ga47 Rh34 2.585524 1_565
Ga47 Rh16 2.604290 1_555
Ga47 Ga52 2.910705 1_555
Ga47 Ga55 2.986413 1_455
Ga47 Ga63 3.099464 1_555
Ga48 Rh26 2.537172 1_565
Ga48 Rh10 2.554099 1_565
Ga48 Rh32 2.585524 1_555
Ga48 Rh18 2.604290 1_555
Ga48 Ga57 2.910705 1_555
Ga48 Ga56 2.986413 1_565
Ga48 Ga64 3.099464 1_555
Ga49 Rh26 2.537172 1_555
Ga49 Rh10 2.554099 1_655
Ga49 Rh32 2.585524 1_655
Ga49 Rh18 2.604290 1_555
Ga49 Ga56 2.910705 1_555
Ga49 Ga57 2.986413 1_545
Ga49 Ga65 3.099464 1_555
Ga50 Rh27 2.537172 1_555
Ga50 Rh11 2.554099 1_555
Ga50 Rh33 2.585524 1_555
Ga50 Rh19 2.604290 1_555
Ga50 Ga59 2.910705 1_555
Ga50 Ga58 2.986413 1_455
Ga50 Ga66 3.099464 1_555
Ga51 Rh27 2.537172 1_655
Ga51 Rh11 2.554099 1_665
Ga51 Rh33 2.585524 1_565
Ga51 Rh19 2.604290 1_555
Ga51 Ga58 2.910705 1_555
Ga51 Ga59 2.986413 1_655
Ga51 Ga67 3.099464 1_555
Ga52 Rh28 2.506251 1_555
Ga52 Rh34 2.547789 1_555
Ga52 Rh16 2.593206 1_555
Ga52 Rh8 2.652338 1_555
Ga52 Ga60 2.799103 1_555
Ga52 Ga63 3.081761 1_555
Ga52 Ga55 3.168090 1_555
Ga52 Rh0 3.216075 1_555
Ga53 Rh29 2.506251 1_565
Ga53 Rh35 2.547789 1_555
Ga53 Rh17 2.593206 1_555
Ga53 Rh9 2.652338 1_565
Ga53 Ga61 2.799103 1_555
Ga53 Ga62 3.081761 1_555
Ga53 Ga54 3.168090 1_555
Ga53 Rh1 3.216075 1_555
Ga54 Rh29 2.506251 1_555
Ga54 Rh35 2.547789 1_655
Ga54 Rh17 2.593206 1_555
Ga54 Rh9 2.652338 1_655
Ga54 Ga62 2.799103 1_555
Ga54 Ga61 3.081761 1_555
Ga54 Rh1 3.216075 1_555
Ga55 Rh28 2.506251 1_655
Ga55 Rh34 2.547789 1_565
Ga55 Rh16 2.593206 1_555
Ga55 Rh8 2.652338 1_665
Ga55 Ga63 2.799103 1_555
Ga55 Ga60 3.081761 1_555
Ga55 Rh0 3.216075 1_555
Ga56 Rh30 2.506251 1_555
Ga56 Rh32 2.547789 1_555
Ga56 Rh18 2.593206 1_555
Ga56 Rh10 2.652338 1_555
Ga56 Ga64 2.799103 1_555
Ga56 Ga65 3.081761 1_555
Ga56 Ga57 3.168090 1_555
Ga56 Rh0 3.216075 1_555
Ga57 Rh30 2.506251 1_565
Ga57 Rh32 2.547789 1_655
Ga57 Rh18 2.593206 1_555
Ga57 Rh10 2.652338 1_665
Ga57 Ga65 2.799103 1_555
Ga57 Ga64 3.081761 1_555
Ga57 Rh0 3.216075 1_555
Ga58 Rh31 2.506251 1_655
Ga58 Rh33 2.547789 1_555
Ga58 Rh19 2.593206 1_555
Ga58 Rh11 2.652338 1_655
Ga58 Ga66 2.799103 1_555
Ga58 Ga67 3.081761 1_555
Ga58 Ga59 3.168090 1_555
Ga58 Rh1 3.216075 1_555
Ga59 Rh31 2.506251 1_555
Ga59 Rh33 2.547789 1_565
Ga59 Rh19 2.593206 1_555
Ga59 Rh11 2.652338 1_565
Ga59 Ga67 2.799103 1_555
Ga59 Ga66 3.081761 1_555
Ga59 Rh1 3.216075 1_555
Ga60 Rh0 2.464115 1_555
Ga60 Rh8 2.494837 1_655
Ga60 Rh34 2.659587 1_555
Ga60 Rh28 2.712467 1_655
Ga60 Rh30 2.911543 1_555
Ga60 Ga63 2.933798 1_545
Ga61 Rh1 2.464115 1_555
Ga61 Rh9 2.494837 1_555
Ga61 Rh35 2.659587 1_555
Ga61 Rh29 2.712467 1_555
Ga61 Rh31 2.911543 1_555
Ga61 Ga62 2.933798 1_455
Ga62 Rh1 2.464115 1_555
Ga62 Rh9 2.494837 1_665
Ga62 Rh35 2.659587 1_655
Ga62 Rh29 2.712467 1_565
Ga62 Rh31 2.911543 1_655
Ga63 Rh0 2.464115 1_555
Ga63 Rh8 2.494837 1_565
Ga63 Rh34 2.659587 1_565
Ga63 Rh28 2.712467 1_555
Ga63 Rh30 2.911543 1_565
Ga64 Rh0 2.464115 1_555
Ga64 Rh10 2.494837 1_565
Ga64 Rh32 2.659587 1_555
Ga64 Rh30 2.712467 1_565
Ga64 Rh28 2.911543 1_555
Ga64 Ga65 2.933798 1_455
Ga65 Rh0 2.464115 1_555
Ga65 Rh10 2.494837 1_655
Ga65 Rh32 2.659587 1_655
Ga65 Rh30 2.712467 1_555
Ga65 Rh28 2.911543 1_655
Ga66 Rh1 2.464115 1_555
Ga66 Rh11 2.494837 1_555
Ga66 Rh33 2.659587 1_555
Ga66 Rh31 2.712467 1_555
Ga66 Rh29 2.911543 1_555
Ga66 Ga67 2.933798 1_545
Ga67 Rh1 2.464115 1_555
Ga67 Rh11 2.494837 1_665
Ga67 Rh33 2.659587 1_565
Ga67 Rh31 2.712467 1_655
Ga67 Rh29 2.911543 1_565
