# generated using pymatgen
data_Nb2Pd2PtSe8
_symmetry_space_group_name_H-M   'P 1'
_cell_length_a   3.59720420
_cell_length_b   11.10754267
_cell_length_c   15.37807364
_cell_angle_alpha   90.42018255
_cell_angle_beta   90.00000000
_cell_angle_gamma   90.00000000
_symmetry_Int_Tables_number   1
_chemical_formula_structural   Nb2Pd2PtSe8
_chemical_formula_sum   'Nb4 Pd4 Pt2 Se16'
_cell_volume   614.43131258
_cell_formula_units_Z   2
loop_
 _symmetry_equiv_pos_site_id
 _symmetry_equiv_pos_as_xyz
  1  'x, y, z'
loop_
 _atom_site_type_symbol
 _atom_site_label
 _atom_site_symmetry_multiplicity
 _atom_site_fract_x
 _atom_site_fract_y
 _atom_site_fract_z
 _atom_site_occupancy
  Nb  Nb0  1  0.50000000  0.80224262  0.87446302  1
  Nb  Nb1  1  0.50000000  0.19775738  0.12553698  1
  Nb  Nb2  1  0.50000000  0.30356513  0.62486220  1
  Nb  Nb3  1  0.50000000  0.69643487  0.37513780  1
  Pd  Pd0  1  0.00000000  0.00000000  0.00000000  1
  Pd  Pd1  1  0.00000000  0.50000000  0.50000000  1
  Pd  Pd2  1  0.00000000  0.14468386  0.72510269  1
  Pd  Pd3  1  0.00000000  0.85531614  0.27489731  1
  Pt  Pt0  1  0.00000000  0.64489342  0.77477931  1
  Pt  Pt1  1  0.00000000  0.35510658  0.22522069  1
  Se  Se0  1  0.00000000  0.77932700  0.99882503  1
  Se  Se1  1  0.00000000  0.22067300  0.00117497  1
  Se  Se2  1  0.00000000  0.27904412  0.50112138  1
  Se  Se3  1  0.00000000  0.72095588  0.49887862  1
  Se  Se4  1  0.00000000  0.97169056  0.84221875  1
  Se  Se5  1  0.00000000  0.02830944  0.15778125  1
  Se  Se6  1  0.00000000  0.47304922  0.65766582  1
  Se  Se7  1  0.00000000  0.52695078  0.34233418  1
  Se  Se8  1  0.50000000  0.76668792  0.70774174  1
  Se  Se9  1  0.50000000  0.23331208  0.29225826  1
  Se  Se10  1  0.50000000  0.27033688  0.78979215  1
  Se  Se11  1  0.50000000  0.72966312  0.21020785  1
  Se  Se12  1  0.50000000  0.56837779  0.87057160  1
  Se  Se13  1  0.50000000  0.43162221  0.12942840  1
  Se  Se14  1  0.50000000  0.07216698  0.62687947  1
  Se  Se15  1  0.50000000  0.92783302  0.37312053  1
loop_
_geom_bond_atom_site_label_1
_geom_bond_atom_site_label_2
_geom_bond_distance
_geom_bond_site_symmetry_2
Nb0 Se8 2.591226 1_555
Nb0 Se12 2.597914 1_555
Nb0 Se0 2.639007 1_555
Nb0 Se0 2.639007 1_655
Nb0 Se4 2.652738 1_655
Nb0 Se4 2.652738 1_555
Nb0 Pt0 2.932621 1_555
Nb0 Pt0 2.932621 1_655
Nb1 Se9 2.591226 1_555
Nb1 Se13 2.597914 1_555
Nb1 Se1 2.639007 1_555
Nb1 Se1 2.639007 1_655
Nb1 Se5 2.652738 1_555
Nb1 Se5 2.652738 1_655
Nb1 Pt1 2.932621 1_555
Nb1 Pt1 2.932621 1_655
Nb2 Se10 2.565696 1_555
Nb2 Se14 2.570680 1_555
Nb2 Se2 2.631076 1_655
Nb2 Se2 2.631076 1_555
Nb2 Se6 2.649437 1_655
Nb2 Se6 2.649437 1_555
Nb2 Pd2 2.960669 1_655
Nb2 Pd2 2.960669 1_555
Nb3 Se11 2.565696 1_555
Nb3 Se15 2.570680 1_555
Nb3 Se3 2.631076 1_655
Nb3 Se3 2.631076 1_555
Nb3 Se7 2.649437 1_655
Nb3 Se7 2.649437 1_555
Nb3 Pd3 2.960669 1_655
Nb3 Pd3 2.960669 1_555
Pd0 Se5 2.444374 1_555
Pd0 Se4 2.444374 1_544
Pd0 Se1 2.451069 1_555
Pd0 Se0 2.451069 1_544
Pd1 Se6 2.445185 1_555
Pd1 Se7 2.445185 1_555
Pd1 Se2 2.454464 1_555
Pd1 Se3 2.454464 1_555
Pd2 Se14 2.479414 1_455
Pd2 Se14 2.479414 1_555
Pd2 Se10 2.480363 1_455
Pd2 Se10 2.480363 1_555
Pd2 Se4 2.643238 1_545
Pd3 Se15 2.479414 1_455
Pd3 Se15 2.479414 1_555
Pd3 Se11 2.480363 1_555
Pd3 Se11 2.480363 1_455
Pd3 Se5 2.643238 1_565
Pt0 Se12 2.479050 1_555
Pt0 Se12 2.479050 1_455
Pt0 Se8 2.479590 1_455
Pt0 Se8 2.479590 1_555
Pt0 Se6 2.614670 1_555
Pt1 Se13 2.479050 1_455
Pt1 Se13 2.479050 1_555
Pt1 Se9 2.479590 1_555
Pt1 Se9 2.479590 1_455
Pt1 Se7 2.614670 1_555
