# generated using pymatgen
data_Hf6Zr6Al10Ir7
_symmetry_space_group_name_H-M   'P 1'
_cell_length_a   9.00695427
_cell_length_b   8.98428326
_cell_length_c   8.98428363
_cell_angle_alpha   59.79224586
_cell_angle_beta   59.91648825
_cell_angle_gamma   59.91648652
_symmetry_Int_Tables_number   1
_chemical_formula_structural   Hf6Zr6Al10Ir7
_chemical_formula_sum   'Hf6 Zr6 Al10 Ir7'
_cell_volume   512.62015735
_cell_formula_units_Z   1
loop_
 _symmetry_equiv_pos_site_id
 _symmetry_equiv_pos_as_xyz
  1  'x, y, z'
loop_
 _atom_site_type_symbol
 _atom_site_label
 _atom_site_symmetry_multiplicity
 _atom_site_fract_x
 _atom_site_fract_y
 _atom_site_fract_z
 _atom_site_occupancy
  Hf  Hf0  1  0.87621296  0.88533821  0.36223787  1
  Hf  Hf1  1  0.87621296  0.36223787  0.88533821  1
  Hf  Hf2  1  0.36730986  0.88104166  0.88104166  1
  Hf  Hf3  1  0.87060682  0.88104166  0.88104166  1
  Hf  Hf4  1  0.12381325  0.12385756  0.62851595  1
  Hf  Hf5  1  0.12381325  0.62851595  0.12385756  1
  Zr  Zr0  1  0.68251492  0.68906558  0.31566064  1
  Zr  Zr1  1  0.31275886  0.68906558  0.31566064  1
  Zr  Zr2  1  0.68981242  0.31018758  0.31018758  1
  Zr  Zr3  1  0.31275886  0.31566064  0.68906558  1
  Zr  Zr4  1  0.68251492  0.31566064  0.68906558  1
  Zr  Zr5  1  0.31719328  0.68280672  0.68280672  1
  Al  Al0  1  0.63385889  0.12221984  0.12221984  1
  Al  Al1  1  0.12169942  0.12221984  0.12221984  1
  Al  Al2  1  0.65851489  0.65537504  0.02759618  1
  Al  Al3  1  0.65851489  0.02759618  0.65537504  1
  Al  Al4  1  0.02194767  0.65870901  0.65870901  1
  Al  Al5  1  0.66063131  0.65870901  0.65870901  1
  Al  Al6  1  0.34058797  0.33142308  0.98739998  1
  Al  Al7  1  0.34058797  0.98739998  0.33142308  1
  Al  Al8  1  0.97773291  0.33700942  0.33700942  1
  Al  Al9  1  0.34824925  0.33700942  0.33700942  1
  Ir  Ir0  1  0.00333389  0.99666611  0.99666611  1
  Ir  Ir1  1  0.00009330  0.99871592  0.50222227  1
  Ir  Ir2  1  0.49896751  0.99871592  0.50222227  1
  Ir  Ir3  1  0.99964471  0.50035529  0.50035529  1
  Ir  Ir4  1  0.49896751  0.50222227  0.99871592  1
  Ir  Ir5  1  0.00009330  0.50222227  0.99871592  1
  Ir  Ir6  1  0.50104826  0.99895174  0.99895174  1
loop_
_geom_bond_atom_site_label_1
_geom_bond_atom_site_label_2
_geom_bond_distance
_geom_bond_site_symmetry_2
Hf0 Ir0 2.677879 1_654
Hf0 Ir1 2.774819 1_655
Hf0 Ir2 2.774841 1_555
Hf0 Ir3 2.819250 1_555
Hf1 Ir0 2.677879 1_645
Hf1 Ir5 2.774819 1_655
Hf1 Ir4 2.774841 1_555
Hf1 Ir3 2.819250 1_555
Hf2 Ir0 2.676419 1_555
Hf2 Ir6 2.717200 1_555
Hf2 Ir4 2.774387 1_555
Hf2 Ir2 2.774387 1_555
Hf2 Zr5 3.369194 1_555
Hf3 Ir0 2.676419 1_655
Hf3 Ir6 2.717200 1_555
Hf3 Ir5 2.774387 1_655
Hf3 Ir1 2.774387 1_655
Hf3 Zr5 3.369193 1_655
Hf4 Ir0 2.695349 1_545
Hf4 Ir3 2.756360 1_455
Hf4 Ir2 2.756909 1_545
Hf4 Ir1 2.756916 1_545
Hf4 Zr5 3.310721 1_545
Hf5 Ir0 2.695349 1_554
Hf5 Ir3 2.756361 1_455
Hf5 Ir4 2.756909 1_554
Hf5 Ir5 2.756916 1_554
Hf5 Zr5 3.310721 1_554
Zr0 Zr5 3.290643 1_555
Zr1 Zr5 3.290643 1_555
Zr3 Zr5 3.290643 1_555
Zr4 Zr5 3.290643 1_555
Al0 Ir0 2.715349 1_644
Al0 Ir4 2.782840 1_554
Al0 Ir2 2.782840 1_545
Al0 Ir6 2.788260 1_544
Al0 Al9 2.803417 1_555
Al0 Al6 2.813651 1_554
Al0 Al7 2.813651 1_545
Al0 Hf0 3.063960 1_545
Al0 Hf1 3.063960 1_554
Al0 Hf3 3.065531 1_544
Al0 Zr2 3.245616 1_555
Al0 Zr0 3.256521 1_545
Al0 Zr4 3.256521 1_554
Al1 Ir0 2.715335 1_544
Al1 Ir5 2.782840 1_554
Al1 Ir1 2.782840 1_545
Al1 Ir6 2.788275 1_544
Al1 Al8 2.803423 1_455
Al1 Al6 2.813658 1_554
Al1 Al7 2.813658 1_545
Al1 Hf1 3.063934 1_454
Al1 Hf0 3.063934 1_445
Al1 Hf2 3.065531 1_544
Al1 Zr2 3.245604 1_455
Al1 Zr1 3.256524 1_545
Al1 Zr3 3.256524 1_554
Al2 Ir5 2.596338 1_654
Al2 Ir4 2.596354 1_554
Al2 Ir6 2.604532 1_554
Al2 Zr2 2.839215 1_555
Al2 Hf1 2.848141 1_554
Al2 Hf3 2.858045 1_554
Al2 Hf2 2.858052 1_554
Al2 Zr0 2.872474 1_555
Al2 Zr1 2.872479 1_555
Al3 Ir1 2.596338 1_645
Al3 Ir2 2.596354 1_545
Al3 Ir6 2.604532 1_545
Al3 Zr2 2.839215 1_555
Al3 Hf0 2.848142 1_545
Al3 Hf3 2.858045 1_545
Al3 Hf2 2.858052 1_545
Al3 Zr4 2.872473 1_555
Al3 Zr3 2.872478 1_555
Al4 Ir3 2.588100 1_455
Al4 Ir1 2.588370 1_555
Al4 Ir5 2.588370 1_555
Al4 Zr3 2.865540 1_555
Al4 Zr1 2.865540 1_555
Al4 Hf1 2.886475 1_455
Al4 Hf0 2.886475 1_455
Al4 Zr5 2.892571 1_555
Al4 Hf3 2.897195 1_455
Al5 Ir3 2.588117 1_555
Al5 Ir2 2.588365 1_555
Al5 Ir4 2.588365 1_555
Al5 Zr4 2.865529 1_555
Al5 Zr0 2.865529 1_555
Al5 Hf1 2.886500 1_555
Al5 Hf0 2.886500 1_555
Al5 Zr5 2.892544 1_555
Al5 Hf2 2.897188 1_555
Al6 Ir6 2.555842 1_545
Al6 Ir5 2.626197 1_555
Al6 Ir4 2.626197 1_555
Al6 Hf5 2.847476 1_556
Al6 Zr3 2.891033 1_555
Al6 Zr4 2.891038 1_555
Al6 Zr5 2.952494 1_555
Al7 Ir6 2.555842 1_554
Al7 Ir1 2.626197 1_555
Al7 Ir2 2.626197 1_555
Al7 Hf4 2.847476 1_565
Al7 Zr1 2.891033 1_555
Al7 Zr0 2.891038 1_555
Al7 Zr5 2.952494 1_555
Al8 Ir1 2.574424 1_645
Al8 Ir5 2.574425 1_654
Al8 Ir3 2.663505 1_555
Al8 Hf5 2.852931 1_655
Al8 Hf4 2.852931 1_655
Al8 Zr2 2.855293 1_555
Al8 Zr0 2.929291 1_555
Al8 Zr4 2.929292 1_555
Al9 Ir2 2.574420 1_545
Al9 Ir4 2.574420 1_554
Al9 Ir3 2.663511 1_455
Al9 Hf5 2.852936 1_555
Al9 Hf4 2.852936 1_555
Al9 Zr2 2.855284 1_555
Al9 Zr1 2.929288 1_555
Al9 Zr3 2.929288 1_555
Ir1 Zr5 3.275697 1_555
Ir2 Zr5 3.275691 1_555
Ir4 Zr5 3.275691 1_555
Ir5 Zr5 3.275697 1_555
