# generated using pymatgen
data_Hf5Fe16(CoP4)3
_symmetry_space_group_name_H-M   'P 1'
_cell_length_a   11.65969996
_cell_length_b   11.67313028
_cell_length_c   3.61706290
_cell_angle_alpha   90.00000000
_cell_angle_beta   90.00000000
_cell_angle_gamma   119.90568817
_symmetry_Int_Tables_number   1
_chemical_formula_structural   Hf5Fe16(CoP4)3
_chemical_formula_sum   'Hf5 Fe16 Co3 P12'
_cell_volume   426.74982064
_cell_formula_units_Z   1
loop_
 _symmetry_equiv_pos_site_id
 _symmetry_equiv_pos_as_xyz
  1  'x, y, z'
loop_
 _atom_site_type_symbol
 _atom_site_label
 _atom_site_symmetry_multiplicity
 _atom_site_fract_x
 _atom_site_fract_y
 _atom_site_fract_z
 _atom_site_occupancy
  Hf  Hf0  1  0.33327859  0.66664010  0.50000000  1
  Hf  Hf1  1  0.66585763  0.33342516  0.50000000  1
  Hf  Hf2  1  0.81456303  0.00077240  0.00000000  1
  Hf  Hf3  1  0.00039938  0.81389992  0.00000000  1
  Hf  Hf4  1  0.18557715  0.18629198  0.00000000  1
  Fe  Fe0  1  0.62406190  0.80250649  0.50000000  1
  Fe  Fe1  1  0.19761498  0.82138822  0.50000000  1
  Fe  Fe2  1  0.17839564  0.37682123  0.50000000  1
  Fe  Fe3  1  0.37710712  0.17945932  0.50000000  1
  Fe  Fe4  1  0.80394084  0.62192351  0.50000000  1
  Fe  Fe5  1  0.81809083  0.19653905  0.50000000  1
  Fe  Fe6  1  0.28216860  0.00003139  0.00000000  1
  Fe  Fe7  1  0.99855624  0.28183451  0.00000000  1
  Fe  Fe8  1  0.71934081  0.71803953  0.00000000  1
  Fe  Fe9  1  0.44498019  0.00325123  0.50000000  1
  Fe  Fe10  1  0.99882091  0.44269523  0.50000000  1
  Fe  Fe11  1  0.55958516  0.55842243  0.50000000  1
  Fe  Fe12  1  0.51384882  0.87559639  0.00000000  1
  Fe  Fe13  1  0.12357189  0.63738203  0.00000000  1
  Fe  Fe14  1  0.36239403  0.48474531  0.00000000  1
  Fe  Fe15  1  0.48544538  0.36180962  0.00000000  1
  Co  Co0  1  0.87564259  0.51333828  0.00000000  1
  Co  Co1  1  0.63757915  0.12415679  0.00000000  1
  Co  Co2  1  0.99948627  0.00014195  0.50000000  1
  P  P0  1  0.17872106  0.00064896  0.50000000  1
  P  P1  1  0.99909633  0.17889727  0.50000000  1
  P  P2  1  0.82163460  0.82078281  0.50000000  1
  P  P3  1  0.51961816  0.69055675  0.00000000  1
  P  P4  1  0.30923214  0.82790622  0.00000000  1
  P  P5  1  0.17118708  0.48055261  0.00000000  1
  P  P6  1  0.48027009  0.17075147  0.00000000  1
  P  P7  1  0.68955213  0.51918257  0.00000000  1
  P  P8  1  0.82858288  0.30958118  0.00000000  1
  P  P9  1  0.63700162  0.99887996  0.50000000  1
  P  P10  1  0.00203341  0.63826063  0.50000000  1
  P  P11  1  0.36276638  0.36288747  0.50000000  1
loop_
_geom_bond_atom_site_label_1
_geom_bond_atom_site_label_2
_geom_bond_distance
_geom_bond_site_symmetry_2
Hf0 P4 2.723862 1_555
Hf0 P4 2.723862 1_556
Hf0 P3 2.732097 1_556
Hf0 P3 2.732097 1_555
Hf0 P5 2.732682 1_556
Hf0 P5 2.732682 1_555
Hf1 P7 2.729761 1_555
Hf1 P7 2.729761 1_556
Hf1 P6 2.731624 1_555
Hf1 P6 2.731624 1_556
Hf1 P8 2.733988 1_556
Hf1 P8 2.733988 1_555
Hf2 P9 2.740778 1_544
Hf2 P9 2.740778 1_545
Hf2 P1 2.786136 1_555
Hf2 P1 2.786136 1_554
Hf2 P2 2.804408 1_544
Hf2 P2 2.804408 1_545
Hf3 P10 2.741107 1_555
Hf3 P10 2.741107 1_554
Hf3 P2 2.790828 1_454
Hf3 P2 2.790828 1_455
Hf3 P0 2.797564 1_565
Hf3 P0 2.797564 1_564
Hf4 P11 2.746233 1_555
Hf4 P11 2.746233 1_554
Hf4 P0 2.792934 1_554
Hf4 P0 2.792934 1_555
Hf4 P1 2.796196 1_455
Hf4 P1 2.796196 1_454
Fe0 P2 2.205041 1_555
Fe0 P3 2.207862 1_556
Fe0 P3 2.207862 1_555
Fe0 P9 2.220926 1_555
Fe0 Hf2 2.904275 1_566
Fe0 Hf2 2.904275 1_565
Fe0 Hf0 2.940853 1_555
Fe1 P4 2.207156 1_556
Fe1 P4 2.207156 1_555
Fe1 P0 2.210632 1_565
Fe1 P10 2.215644 1_555
Fe1 Hf3 2.892332 1_555
Fe1 Hf3 2.892332 1_556
Fe1 Hf0 2.935020 1_555
Fe2 P5 2.201258 1_556
Fe2 P5 2.201258 1_555
Fe2 P1 2.211820 1_455
Fe2 P11 2.235252 1_555
Fe2 Hf4 2.899999 1_556
Fe2 Hf4 2.899999 1_555
Fe2 Hf0 2.935045 1_555
Fe3 P6 2.202245 1_555
Fe3 P6 2.202245 1_556
Fe3 P0 2.211991 1_555
Fe3 P11 2.229264 1_555
Fe3 Hf4 2.905487 1_555
Fe3 Hf4 2.905487 1_556
Fe3 Hf1 2.920866 1_555
Fe4 P7 2.212009 1_555
Fe4 P7 2.212009 1_556
Fe4 P10 2.220781 1_655
Fe4 P2 2.225649 1_555
Fe4 Hf3 2.901923 1_655
Fe4 Hf3 2.901923 1_656
Fe4 Hf1 2.920079 1_555
Fe5 P8 2.205904 1_555
Fe5 P8 2.205904 1_556
Fe5 P9 2.219008 1_545
Fe5 P1 2.220331 1_555
Fe5 Hf2 2.898436 1_556
Fe5 Hf2 2.898436 1_555
Fe5 Hf1 2.920960 1_555
Fe6 P6 2.171788 1_555
Fe6 P0 2.175856 1_555
Fe6 P0 2.175856 1_554
Fe6 P4 2.183765 1_545
Fe6 Hf3 2.897662 1_545
Fe6 Hf4 2.904726 1_555
Fe7 P8 2.161633 1_555
Fe7 P1 2.173065 1_555
Fe7 P1 2.173065 1_554
Fe7 P5 2.185530 1_655
Fe7 Hf2 2.889303 1_555
Fe7 Hf4 2.902404 1_655
Fe8 P7 2.169112 1_555
Fe8 P2 2.169188 1_554
Fe8 P2 2.169188 1_555
Fe8 P3 2.186515 1_555
Fe8 Hf3 2.886991 1_655
Fe8 Hf2 2.910557 1_565
Fe9 P9 2.264785 1_545
Fe9 P6 2.541825 1_555
Fe9 P6 2.541825 1_556
Fe9 P4 2.595196 1_546
Fe9 P4 2.595196 1_545
Fe10 P10 2.264418 1_655
Fe10 P8 2.559237 1_556
Fe10 P8 2.559237 1_555
Fe10 P5 2.572843 1_656
Fe10 P5 2.572843 1_655
Fe11 P11 2.291963 1_555
Fe11 P7 2.543443 1_555
Fe11 P7 2.543443 1_556
Fe11 P3 2.565878 1_556
Fe11 P3 2.565878 1_555
Fe12 P4 2.162741 1_555
Fe12 P3 2.194305 1_555
Fe12 P9 2.311523 1_554
Fe12 P9 2.311523 1_555
Fe12 Hf0 2.921004 1_555
Fe12 Hf0 2.921004 1_554
Fe12 Hf2 3.052885 1_565
Fe13 P5 2.161738 1_555
Fe13 P4 2.198105 1_555
Fe13 P10 2.300774 1_555
Fe13 P10 2.300774 1_554
Fe13 Hf0 2.921185 1_554
Fe13 Hf0 2.921185 1_555
Fe13 Hf3 3.042868 1_555
Fe14 P3 2.177338 1_555
Fe14 P5 2.205423 1_555
Fe14 P11 2.302252 1_555
Fe14 P11 2.302252 1_554
Fe14 Hf0 2.934809 1_555
Fe14 Hf0 2.934809 1_554
Fe14 Hf4 3.037397 1_555
Fe15 P7 2.163078 1_555
Fe15 P6 2.200783 1_555
Fe15 P11 2.309748 1_555
Fe15 P11 2.309748 1_554
Fe15 Hf1 2.915561 1_555
Fe15 Hf1 2.915561 1_554
Fe15 Hf4 3.046194 1_555
Co0 P8 2.157985 1_555
Co0 P7 2.204565 1_555
Co0 P10 2.329404 1_654
Co0 P10 2.329404 1_655
Co0 Hf1 2.922687 1_554
Co0 Hf1 2.922687 1_555
Co0 Hf3 3.055566 1_655
Co1 P6 2.157501 1_555
Co1 P8 2.199561 1_555
Co1 P9 2.323692 1_545
Co1 P9 2.323692 1_544
Co1 Hf1 2.922963 1_554
Co1 Hf1 2.922963 1_555
Co1 Hf2 3.049005 1_555
Co2 P2 2.086731 1_545
Co2 P0 2.086879 1_655
Co2 P1 2.088905 1_555
Co2 Hf2 2.817027 1_555
Co2 Hf2 2.817027 1_556
Co2 Hf4 2.828258 1_655
Co2 Hf4 2.828258 1_656
Co2 Hf3 2.832027 1_646
Co2 Hf3 2.832027 1_645
