# generated using pymatgen
data_Tc4B2MoW
_symmetry_space_group_name_H-M   'P 1'
_cell_length_a   4.81924279
_cell_length_b   4.81924309
_cell_length_c   7.19723030
_cell_angle_alpha   90.00000000
_cell_angle_beta   90.00000000
_cell_angle_gamma   143.67958239
_symmetry_Int_Tables_number   1
_chemical_formula_structural   Tc4B2MoW
_chemical_formula_sum   'Tc4 B2 Mo1 W1'
_cell_volume   99.00679897
_cell_formula_units_Z   1
loop_
 _symmetry_equiv_pos_site_id
 _symmetry_equiv_pos_as_xyz
  1  'x, y, z'
loop_
 _atom_site_type_symbol
 _atom_site_label
 _atom_site_symmetry_multiplicity
 _atom_site_fract_x
 _atom_site_fract_y
 _atom_site_fract_z
 _atom_site_occupancy
  Tc  Tc0  1  0.86115360  0.13884640  0.44651867  1
  Tc  Tc1  1  0.13931053  0.86068947  0.55282630  1
  Tc  Tc2  1  0.86115360  0.13884640  0.05348133  1
  Tc  Tc3  1  0.13931053  0.86068947  0.94717370  1
  B  B0  1  0.26667716  0.73332284  0.25000000  1
  B  B1  1  0.73274686  0.26725314  0.75000000  1
  Mo  Mo0  1  0.43042363  0.56957637  0.75000000  1
  W  W0  1  0.56922309  0.43077691  0.25000000  1
loop_
_geom_bond_atom_site_label_1
_geom_bond_atom_site_label_2
_geom_bond_distance
_geom_bond_site_symmetry_2
Tc0 W0 2.808532 1_655
Tc0 W0 2.808532 1_545
Tc1 W0 2.723675 1_455
Tc1 W0 2.723675 1_565
Tc2 W0 2.808532 1_655
Tc2 W0 2.808532 1_545
Tc3 W0 2.723675 1_456
Tc3 W0 2.723675 1_566
B0 Tc0 2.237248 1_565
B0 Tc2 2.237248 1_565
B0 Tc0 2.237248 1_455
B0 Tc2 2.237248 1_455
B0 W0 2.350804 1_455
B0 W0 2.350805 1_565
B0 Tc1 2.472028 1_555
B0 Tc3 2.472028 1_554
B0 W0 2.770831 1_555
B1 Tc3 2.236569 1_545
B1 Tc1 2.236569 1_545
B1 Tc3 2.236569 1_655
B1 Tc1 2.236569 1_655
B1 Mo0 2.352374 1_655
B1 Mo0 2.352374 1_545
B1 Tc2 2.480687 1_556
B1 Tc0 2.480687 1_555
B1 Mo0 2.768791 1_555
Mo0 Tc2 2.725697 1_456
Mo0 Tc0 2.725697 1_455
Mo0 Tc2 2.725697 1_566
Mo0 Tc0 2.725697 1_565
Mo0 Tc3 2.815989 1_655
Mo0 Tc1 2.815989 1_655
Mo0 Tc3 2.815990 1_545
Mo0 Tc1 2.815990 1_545
