# generated using pymatgen
data_Sn(NO3)4
_symmetry_space_group_name_H-M   'P 1'
_cell_length_a   13.72955196
_cell_length_b   7.77361857
_cell_length_c   10.12745196
_cell_angle_alpha   56.18000747
_cell_angle_beta   90.00000000
_cell_angle_gamma   90.00000000
_symmetry_Int_Tables_number   1
_chemical_formula_structural   Sn(NO3)4
_chemical_formula_sum   'Sn4 N16 O48'
_cell_volume   897.98938956
_cell_formula_units_Z   4
loop_
 _symmetry_equiv_pos_site_id
 _symmetry_equiv_pos_as_xyz
  1  'x, y, z'
loop_
 _atom_site_type_symbol
 _atom_site_label
 _atom_site_symmetry_multiplicity
 _atom_site_fract_x
 _atom_site_fract_y
 _atom_site_fract_z
 _atom_site_occupancy
  Sn  Sn0  1  0.67141482  0.18084399  0.53463590  1
  Sn  Sn1  1  0.17141482  0.81915601  0.96536410  1
  Sn  Sn2  1  0.32858518  0.81915601  0.46536410  1
  Sn  Sn3  1  0.82858518  0.18084399  0.03463590  1
  N  N0  1  0.93610666  0.50037332  0.83632467  1
  N  N1  1  0.75518397  0.85849342  0.05173266  1
  N  N2  1  0.25518397  0.14150658  0.44826734  1
  N  N3  1  0.24481603  0.14150658  0.94826734  1
  N  N4  1  0.74481603  0.85849342  0.55173266  1
  N  N5  1  0.43610666  0.49962668  0.66367533  1
  N  N6  1  0.06389334  0.49962668  0.16367533  1
  N  N7  1  0.56389334  0.50037332  0.33632467  1
  N  N8  1  0.67188504  0.40529348  0.96672816  1
  N  N9  1  0.17188504  0.59470652  0.53327184  1
  N  N10  1  0.32811496  0.59470652  0.03327184  1
  N  N11  1  0.82811496  0.40529348  0.46672816  1
  N  N12  1  0.95102833  0.98774788  0.27232625  1
  N  N13  1  0.45102833  0.01225212  0.22767375  1
  N  N14  1  0.04897167  0.01225212  0.72767375  1
  N  N15  1  0.54897167  0.98774788  0.77232625  1
  O  O0  1  0.12903804  0.92960724  0.72034330  1
  O  O1  1  0.71786157  0.71267658  0.06105098  1
  O  O2  1  0.21786157  0.28732342  0.43894902  1
  O  O3  1  0.28213843  0.28732342  0.93894902  1
  O  O4  1  0.91914243  0.35124075  0.81868063  1
  O  O5  1  0.41914243  0.64875925  0.68131937  1
  O  O6  1  0.08085757  0.64875925  0.18131937  1
  O  O7  1  0.58085757  0.35124075  0.31868063  1
  O  O8  1  0.89639460  0.47024605  0.96597953  1
  O  O9  1  0.39639460  0.52975395  0.53402047  1
  O  O10  1  0.10360540  0.52975395  0.03402047  1
  O  O11  1  0.60360540  0.47024605  0.46597953  1
  O  O12  1  0.98275656  0.65187950  0.74554472  1
  O  O13  1  0.48275656  0.34812050  0.75445528  1
  O  O14  1  0.01724344  0.34812050  0.25445528  1
  O  O15  1  0.51724344  0.65187950  0.24554472  1
  O  O16  1  0.71374452  0.36329812  0.87072069  1
  O  O17  1  0.21374452  0.63670188  0.62927931  1
  O  O18  1  0.28625548  0.63670188  0.12927931  1
  O  O19  1  0.78625548  0.36329812  0.37072069  1
  O  O20  1  0.71248591  0.30976032  0.10509617  1
  O  O21  1  0.21248591  0.69023968  0.39490383  1
  O  O22  1  0.28751409  0.69023968  0.89490383  1
  O  O23  1  0.78751409  0.30976032  0.60509617  1
  O  O24  1  0.60425369  0.52151305  0.92670076  1
  O  O25  1  0.10425369  0.47848695  0.57329924  1
  O  O26  1  0.39574631  0.47848695  0.07329924  1
  O  O27  1  0.89574631  0.52151305  0.42670076  1
  O  O28  1  0.87096196  0.07039276  0.27965670  1
  O  O29  1  0.37096196  0.92960724  0.22034330  1
  O  O30  1  0.78213843  0.71267658  0.56105098  1
  O  O31  1  0.62903804  0.07039276  0.77965670  1
  O  O32  1  0.96232346  0.01237335  0.13392816  1
  O  O33  1  0.46232346  0.98762665  0.36607184  1
  O  O34  1  0.03767654  0.98762665  0.86607184  1
  O  O35  1  0.68567169  0.98556423  0.44018210  1
  O  O36  1  0.00861238  0.89949120  0.37833539  1
  O  O37  1  0.50861238  0.10050880  0.12166461  1
  O  O38  1  0.99138762  0.10050880  0.62166461  1
  O  O39  1  0.49138762  0.89949120  0.87833539  1
  O  O40  1  0.73905041  0.90568923  0.15584381  1
  O  O41  1  0.23905041  0.09431077  0.34415619  1
  O  O42  1  0.26094959  0.09431077  0.84415619  1
  O  O43  1  0.76094959  0.90568923  0.65584381  1
  O  O44  1  0.81432831  0.98556423  0.94018210  1
  O  O45  1  0.31432831  0.01443577  0.55981790  1
  O  O46  1  0.18567169  0.01443577  0.05981790  1
  O  O47  1  0.53767654  0.01237335  0.63392816  1
loop_
_geom_bond_atom_site_label_1
_geom_bond_atom_site_label_2
_geom_bond_distance
_geom_bond_site_symmetry_2
N0 O12 1.198844 1_555
N0 O4 1.288701 1_555
N0 O8 1.316800 1_555
N1 O1 1.198866 1_555
N1 O44 1.291966 1_554
N1 O40 1.313773 1_555
N2 O2 1.198866 1_555
N2 O45 1.291966 1_555
N2 O41 1.313773 1_555
N3 O3 1.198866 1_555
N3 O46 1.291966 1_556
N3 O42 1.313773 1_555
N4 O30 1.198866 1_555
N4 O35 1.291966 1_555
N4 O43 1.313773 1_555
N5 O13 1.198844 1_555
N5 O5 1.288701 1_555
N5 O9 1.316800 1_555
N6 O14 1.198844 1_555
N6 O6 1.288701 1_555
N6 O10 1.316800 1_555
N7 O15 1.198844 1_555
N7 O7 1.288701 1_555
N7 O11 1.316800 1_555
N8 O24 1.197942 1_555
N8 O20 1.291310 1_556
N8 O16 1.317420 1_555
N9 O25 1.197942 1_555
N9 O21 1.291310 1_555
N9 O17 1.317420 1_555
N10 O26 1.197942 1_555
N10 O22 1.291310 1_554
N10 O18 1.317420 1_555
N11 O27 1.197942 1_555
N11 O23 1.291310 1_555
N11 O19 1.317420 1_555
N12 O36 1.195175 1_655
N12 O28 1.296052 1_565
N12 O32 1.313985 1_565
N13 O37 1.195175 1_555
N13 O29 1.296052 1_545
N13 O33 1.313985 1_545
N14 O38 1.195175 1_455
N14 O0 1.296052 1_545
N14 O34 1.313985 1_545
N15 O39 1.195175 1_555
N15 O31 1.296052 1_565
N15 O47 1.313985 1_565
O0 Sn1 2.204891 1_555
O4 Sn3 2.204276 1_556
O5 Sn2 2.204276 1_555
O6 Sn1 2.204276 1_554
O7 Sn0 2.204276 1_555
O8 Sn3 2.161039 1_556
O9 Sn2 2.161039 1_555
O10 Sn1 2.161039 1_554
O11 Sn0 2.161039 1_555
O16 Sn3 2.152317 1_556
O17 Sn2 2.152317 1_555
O18 Sn1 2.152317 1_554
O19 Sn0 2.152317 1_555
O20 Sn3 2.202351 1_555
O21 Sn2 2.202351 1_555
O22 Sn1 2.202351 1_555
O23 Sn0 2.202351 1_555
O28 Sn3 2.204891 1_555
O29 Sn2 2.204891 1_555
O31 Sn0 2.204891 1_555
O32 Sn3 2.152172 1_555
O33 Sn2 2.152172 1_555
O34 Sn1 2.152172 1_555
O35 Sn0 2.207763 1_565
O40 Sn3 2.161081 1_565
O41 Sn2 2.161081 1_545
O42 Sn1 2.161081 1_545
O43 Sn0 2.161081 1_565
O44 Sn3 2.207763 1_566
O45 Sn2 2.207763 1_545
O46 Sn1 2.207763 1_544
O47 Sn0 2.152172 1_555
