# generated using pymatgen
data_Rb2TiHgSe4
_symmetry_space_group_name_H-M   'P 1'
_cell_length_a   14.12656482
_cell_length_b   12.60554659
_cell_length_c   7.72860910
_cell_angle_alpha   84.38295668
_cell_angle_beta   62.62855191
_cell_angle_gamma   32.98848769
_symmetry_Int_Tables_number   1
_chemical_formula_structural   Rb2TiHgSe4
_chemical_formula_sum   'Rb4 Ti2 Hg2 Se8'
_cell_volume   534.76437739
_cell_formula_units_Z   2
loop_
 _symmetry_equiv_pos_site_id
 _symmetry_equiv_pos_as_xyz
  1  'x, y, z'
loop_
 _atom_site_type_symbol
 _atom_site_label
 _atom_site_symmetry_multiplicity
 _atom_site_fract_x
 _atom_site_fract_y
 _atom_site_fract_z
 _atom_site_occupancy
  Rb  Rb0  1  0.68093846  0.68093846  0.31906154  1
  Rb  Rb1  1  0.31906154  0.31906154  0.68093846  1
  Rb  Rb2  1  0.93093846  0.93093846  0.56906154  1
  Rb  Rb3  1  0.56906154  0.56906154  0.93093846  1
  Ti  Ti0  1  0.75000000  0.75000000  0.75000000  1
  Ti  Ti1  1  0.50000000  0.50000000  0.50000000  1
  Hg  Hg0  1  0.00000000  0.00000000  0.00000000  1
  Hg  Hg1  1  0.25000000  0.25000000  0.25000000  1
  Se  Se0  1  0.37542427  0.01036806  0.92108378  1
  Se  Se1  1  0.69312389  0.92108378  0.01036806  1
  Se  Se2  1  0.92108378  0.69312389  0.37542427  1
  Se  Se3  1  0.01036806  0.37542427  0.69312389  1
  Se  Se4  1  0.23963194  0.87457573  0.55687611  1
  Se  Se5  1  0.55687611  0.32891622  0.23963194  1
  Se  Se6  1  0.32891622  0.55687611  0.87457573  1
  Se  Se7  1  0.87457573  0.23963194  0.32891622  1
loop_
_geom_bond_atom_site_label_1
_geom_bond_atom_site_label_2
_geom_bond_distance
_geom_bond_site_symmetry_2
Rb0 Se0 3.573748 1_565
Rb0 Se3 3.573748 1_654
Rb0 Se7 3.607718 1_555
Rb0 Se4 3.607718 1_555
Rb0 Se1 3.737378 1_555
Rb0 Se2 3.737379 1_555
Rb0 Se3 3.922536 1_565
Rb0 Se0 3.922536 1_654
Rb1 Se2 3.573748 1_545
Rb1 Se1 3.573748 1_456
Rb1 Se6 3.607718 1_555
Rb1 Se5 3.607719 1_555
Rb1 Se0 3.737378 1_555
Rb1 Se3 3.737379 1_555
Rb1 Se1 3.922536 1_545
Rb1 Se2 3.922536 1_456
Rb2 Se6 3.573748 1_565
Rb2 Se5 3.573748 1_655
Rb2 Se2 3.607718 1_555
Rb2 Se1 3.607719 1_556
Rb2 Se7 3.737378 1_565
Rb2 Se4 3.737379 1_655
Rb2 Se5 3.922536 1_566
Rb2 Se6 3.922536 1_654
Rb3 Se7 3.573748 1_555
Rb3 Se4 3.573748 1_556
Rb3 Se0 3.607718 1_565
Rb3 Se3 3.607718 1_655
Rb3 Se5 3.737378 1_556
Rb3 Se6 3.737379 1_555
Rb3 Se4 3.922536 1_645
Rb3 Se7 3.922536 1_466
Hg0 Se6 2.666299 1_544
Hg0 Se5 2.666299 1_455
Hg0 Se7 2.666299 1_455
Hg0 Se4 2.666299 1_544
Hg1 Se2 2.666299 1_455
Hg1 Se1 2.666299 1_545
Hg1 Se0 2.666299 1_554
Hg1 Se3 2.666299 1_555
Se0 Ti0 2.408701 1_545
Se1 Ti0 2.408701 1_554
Se2 Ti0 2.408702 1_555
Se3 Ti0 2.408701 1_455
Se4 Ti1 2.408701 1_555
Se5 Ti1 2.408701 1_555
Se6 Ti1 2.408702 1_555
Se7 Ti1 2.408701 1_555
