# generated using pymatgen
data_Sr4BeCuSi6
_symmetry_space_group_name_H-M   'P 1'
_cell_length_a   8.45666720
_cell_length_b   8.11747882
_cell_length_c   6.20570531
_cell_angle_alpha   70.94691982
_cell_angle_beta   65.13550183
_cell_angle_gamma   43.91756440
_symmetry_Int_Tables_number   1
_chemical_formula_structural   Sr4BeCuSi6
_chemical_formula_sum   'Sr4 Be1 Cu1 Si6'
_cell_volume   267.90662279
_cell_formula_units_Z   1
loop_
 _symmetry_equiv_pos_site_id
 _symmetry_equiv_pos_as_xyz
  1  'x, y, z'
loop_
 _atom_site_type_symbol
 _atom_site_label
 _atom_site_symmetry_multiplicity
 _atom_site_fract_x
 _atom_site_fract_y
 _atom_site_fract_z
 _atom_site_occupancy
  Sr  Sr0  1  0.24940829  0.24940929  0.25059171  1
  Sr  Sr1  1  0.25726680  0.74375597  0.25624303  1
  Sr  Sr2  1  0.74375697  0.25726580  0.74273320  1
  Sr  Sr3  1  0.74940929  0.74940929  0.75059071  1
  Be  Be0  1  0.83356219  0.83356119  0.16643781  1
  Cu  Cu0  1  0.16669677  0.16669577  0.83330323  1
  Si  Si0  1  0.84161512  0.32824819  0.15838488  1
  Si  Si1  1  0.67137457  0.15900387  0.32862543  1
  Si  Si2  1  0.66906890  0.66906790  0.33093110  1
  Si  Si3  1  0.33059205  0.33059105  0.66940695  1
  Si  Si4  1  0.32824819  0.84161512  0.67175181  1
  Si  Si5  1  0.15900387  0.67137457  0.84099613  1
loop_
_geom_bond_atom_site_label_1
_geom_bond_atom_site_label_2
_geom_bond_distance
_geom_bond_site_symmetry_2
Be0 Si5 2.286508 1_654
Be0 Si1 2.286516 1_565
Be0 Si2 2.313432 1_555
Be0 Sr3 3.320903 1_554
Be0 Sr0 3.320903 1_655
Be0 Sr3 3.320907 1_555
Be0 Sr0 3.320913 1_565
Be0 Sr2 3.366261 1_564
Be0 Sr1 3.366261 1_655
Cu0 Si4 2.283986 1_545
Cu0 Si0 2.283992 1_456
Cu0 Si3 2.305021 1_555
Cu0 Sr0 3.313737 1_555
Cu0 Sr3 3.313742 1_545
Cu0 Sr0 3.313747 1_556
Cu0 Sr3 3.313748 1_455
Cu0 Sr1 3.358767 1_546
Cu0 Sr2 3.358767 1_455
Si0 Si1 2.387259 1_555
Si0 Si2 2.394589 1_555
Si0 Sr0 3.297033 1_655
Si0 Sr3 3.297037 1_554
Si0 Sr2 3.311494 1_555
Si0 Sr1 3.311494 1_555
Si0 Sr2 3.335060 1_554
Si0 Sr1 3.335060 1_645
Si1 Si3 2.394288 1_555
Si1 Sr3 3.309850 1_545
Si1 Sr0 3.309855 1_555
Si1 Sr2 3.313528 1_555
Si1 Sr1 3.313529 1_555
Si1 Sr2 3.341985 1_554
Si1 Sr1 3.341985 1_645
Si2 Si4 2.394595 1_555
Si2 Sr2 3.292743 1_555
Si2 Sr1 3.292743 1_555
Si2 Sr0 3.302174 1_655
Si2 Sr3 3.302178 1_554
Si2 Sr3 3.302184 1_555
Si2 Sr0 3.302184 1_565
Si3 Si5 2.394303 1_555
Si3 Sr0 3.306240 1_555
Si3 Sr3 3.306248 1_545
Si3 Sr3 3.306250 1_455
Si3 Sr0 3.306262 1_556
Si3 Sr1 3.306565 1_555
Si3 Sr2 3.306571 1_555
Si4 Si5 2.387259 1_555
Si4 Sr0 3.297032 1_565
Si4 Sr3 3.297037 1_555
Si4 Sr1 3.311499 1_555
Si4 Sr2 3.311500 1_555
Si4 Sr1 3.335055 1_556
Si4 Sr2 3.335055 1_465
Si5 Sr3 3.309850 1_455
Si5 Sr0 3.309855 1_556
Si5 Sr1 3.313533 1_555
Si5 Sr2 3.313533 1_555
Si5 Sr1 3.341980 1_556
Si5 Sr2 3.341981 1_465
