# generated using pymatgen
data_BaGa2PtO6
_symmetry_space_group_name_H-M   'P 1'
_cell_length_a   6.98706854
_cell_length_b   6.98706860
_cell_length_c   6.98706800
_cell_angle_alpha   43.62222434
_cell_angle_beta   43.62222173
_cell_angle_gamma   43.62222044
_symmetry_Int_Tables_number   1
_chemical_formula_structural   BaGa2PtO6
_chemical_formula_sum   'Ba1 Ga2 Pt1 O6'
_cell_volume   147.34428604
_cell_formula_units_Z   1
loop_
 _symmetry_equiv_pos_site_id
 _symmetry_equiv_pos_as_xyz
  1  'x, y, z'
loop_
 _atom_site_type_symbol
 _atom_site_label
 _atom_site_symmetry_multiplicity
 _atom_site_fract_x
 _atom_site_fract_y
 _atom_site_fract_z
 _atom_site_occupancy
  Ba  Ba0  1  0.00000000  0.00000000  0.00000000  1
  Ga  Ga0  1  0.17502335  0.17502335  0.17502335  1
  Ga  Ga1  1  0.82497665  0.82497665  0.82497665  1
  Pt  Pt0  1  0.50000000  0.50000000  0.50000000  1
  O  O0  1  0.78497922  0.43839478  0.11298708  1
  O  O1  1  0.56160622  0.88701192  0.21502078  1
  O  O2  1  0.11298808  0.78497822  0.43839478  1
  O  O3  1  0.88701192  0.21502178  0.56160522  1
  O  O4  1  0.43839378  0.11298808  0.78497922  1
  O  O5  1  0.21502078  0.56160522  0.88701292  1
loop_
_geom_bond_atom_site_label_1
_geom_bond_atom_site_label_2
_geom_bond_distance
_geom_bond_site_symmetry_2
Ba0 O4 2.717367 1_554
Ba0 O1 2.717367 1_445
Ba0 O0 2.717369 1_455
Ba0 O5 2.717369 1_544
Ba0 O2 2.717370 1_545
Ba0 O3 2.717370 1_454
Ga0 O5 1.957689 1_554
Ga0 O3 1.957691 1_455
Ga0 O1 1.957694 1_545
Ga0 O4 2.072656 1_554
Ga0 O0 2.072658 1_455
Ga0 O2 2.072660 1_545
Ga1 O0 1.957689 1_556
Ga1 O2 1.957691 1_655
Ga1 O4 1.957694 1_565
Ga1 O1 2.072656 1_556
Ga1 O5 2.072658 1_655
Ga1 O3 2.072660 1_565
O0 Pt0 2.027553 1_555
O1 Pt0 2.027552 1_555
O2 Pt0 2.027549 1_555
O3 Pt0 2.027549 1_555
O4 Pt0 2.027552 1_555
O5 Pt0 2.027553 1_555
