# generated using pymatgen
data_Zr3In3TcPd2
_symmetry_space_group_name_H-M   'P 1'
_cell_length_a   15.41408724
_cell_length_b   15.41390859
_cell_length_c   6.81893361
_cell_angle_alpha   90.00000000
_cell_angle_beta   90.00000000
_cell_angle_gamma   119.99924268
_symmetry_Int_Tables_number   1
_chemical_formula_structural   Zr3In3TcPd2
_chemical_formula_sum   'Zr24 In24 Tc8 Pd16'
_cell_volume   1403.07536591
_cell_formula_units_Z   8
loop_
 _symmetry_equiv_pos_site_id
 _symmetry_equiv_pos_as_xyz
  1  'x, y, z'
loop_
 _atom_site_type_symbol
 _atom_site_label
 _atom_site_symmetry_multiplicity
 _atom_site_fract_x
 _atom_site_fract_y
 _atom_site_fract_z
 _atom_site_occupancy
  Zr  Zr0_0  1  0.01313417  0.30761281  0.25000000  1
  Zr  Zr0_1  1  0.01313417  0.30761281  0.75000000  1
  Zr  Zr0_2  1  0.01313417  0.80761281  0.25000000  1
  Zr  Zr0_3  1  0.01313417  0.80761281  0.75000000  1
  Zr  Zr0_4  1  0.51313417  0.30761281  0.25000000  1
  Zr  Zr0_5  1  0.51313417  0.30761281  0.75000000  1
  Zr  Zr0_6  1  0.51313417  0.80761281  0.25000000  1
  Zr  Zr0_7  1  0.51313417  0.80761281  0.75000000  1
  Zr  Zr1_0  1  0.19239026  0.20552284  0.25000000  1
  Zr  Zr1_1  1  0.19239026  0.20552284  0.75000000  1
  Zr  Zr1_2  1  0.19239026  0.70552284  0.25000000  1
  Zr  Zr1_3  1  0.19239026  0.70552284  0.75000000  1
  Zr  Zr1_4  1  0.69239026  0.20552284  0.25000000  1
  Zr  Zr1_5  1  0.69239026  0.20552284  0.75000000  1
  Zr  Zr1_6  1  0.69239026  0.70552284  0.25000000  1
  Zr  Zr1_7  1  0.69239026  0.70552284  0.75000000  1
  Zr  Zr2_0  1  0.29447827  0.48687307  0.25000000  1
  Zr  Zr2_1  1  0.29447827  0.48687307  0.75000000  1
  Zr  Zr2_2  1  0.29447827  0.98687307  0.25000000  1
  Zr  Zr2_3  1  0.29447827  0.98687307  0.75000000  1
  Zr  Zr2_4  1  0.79447827  0.48687307  0.25000000  1
  Zr  Zr2_5  1  0.79447827  0.48687307  0.75000000  1
  Zr  Zr2_6  1  0.79447827  0.98687307  0.25000000  1
  Zr  Zr2_7  1  0.79447827  0.98687307  0.75000000  1
  In  In0_0  1  0.36601203  0.36042808  0.00000000  1
  In  In0_1  1  0.36601203  0.36042808  0.50000000  1
  In  In0_2  1  0.36601203  0.86042808  0.00000000  1
  In  In0_3  1  0.36601203  0.86042808  0.50000000  1
  In  In0_4  1  0.86601203  0.36042808  0.00000000  1
  In  In0_5  1  0.86601203  0.36042808  0.50000000  1
  In  In0_6  1  0.86601203  0.86042808  0.00000000  1
  In  In0_7  1  0.86601203  0.86042808  0.50000000  1
  In  In1_0  1  0.49442358  0.13398597  0.00000000  1
  In  In1_1  1  0.49442358  0.13398597  0.50000000  1
  In  In1_2  1  0.49442358  0.63398597  0.00000000  1
  In  In1_3  1  0.49442358  0.63398597  0.50000000  1
  In  In1_4  1  0.99442358  0.13398597  0.00000000  1
  In  In1_5  1  0.99442358  0.13398597  0.50000000  1
  In  In1_6  1  0.99442358  0.63398597  0.00000000  1
  In  In1_7  1  0.99442358  0.63398597  0.50000000  1
  In  In2_0  1  0.13956529  0.00558587  0.00000000  1
  In  In2_1  1  0.13956529  0.00558587  0.50000000  1
  In  In2_2  1  0.13956529  0.50558587  0.00000000  1
  In  In2_3  1  0.13956529  0.50558587  0.50000000  1
  In  In2_4  1  0.63956529  0.00558587  0.00000000  1
  In  In2_5  1  0.63956529  0.00558587  0.50000000  1
  In  In2_6  1  0.63956529  0.50558587  0.00000000  1
  In  In2_7  1  0.63956529  0.50558587  0.50000000  1
  Tc  Tc0_0  1  0.16666706  0.33333590  0.00000000  1
  Tc  Tc0_1  1  0.16666706  0.33333590  0.50000000  1
  Tc  Tc0_2  1  0.16666706  0.83333590  0.00000000  1
  Tc  Tc0_3  1  0.16666706  0.83333590  0.50000000  1
  Tc  Tc0_4  1  0.66666706  0.33333590  0.00000000  1
  Tc  Tc0_5  1  0.66666706  0.33333590  0.50000000  1
  Tc  Tc0_6  1  0.66666706  0.83333590  0.00000000  1
  Tc  Tc0_7  1  0.66666706  0.83333590  0.50000000  1
  Pd  Pd0_0  1  0.49999228  0.49999231  0.25000000  1
  Pd  Pd0_1  1  0.49999228  0.49999231  0.75000000  1
  Pd  Pd0_2  1  0.49999228  0.99999231  0.25000000  1
  Pd  Pd0_3  1  0.49999228  0.99999231  0.75000000  1
  Pd  Pd0_4  1  0.99999228  0.49999231  0.25000000  1
  Pd  Pd0_5  1  0.99999228  0.49999231  0.75000000  1
  Pd  Pd0_6  1  0.99999228  0.99999231  0.25000000  1
  Pd  Pd0_7  1  0.99999228  0.99999231  0.75000000  1
  Pd  Pd1_0  1  0.33333754  0.16666316  0.00000000  1
  Pd  Pd1_1  1  0.33333754  0.16666316  0.50000000  1
  Pd  Pd1_2  1  0.33333754  0.66666316  0.00000000  1
  Pd  Pd1_3  1  0.33333754  0.66666316  0.50000000  1
  Pd  Pd1_4  1  0.83333754  0.16666316  0.00000000  1
  Pd  Pd1_5  1  0.83333754  0.16666316  0.50000000  1
  Pd  Pd1_6  1  0.83333754  0.66666316  0.00000000  1
  Pd  Pd1_7  1  0.83333754  0.66666316  0.50000000  1
loop_
_geom_bond_atom_site_label_1
_geom_bond_atom_site_label_2
_geom_bond_distance
_geom_bond_site_symmetry_2
Zr0_0 Zr0_1 3.409467 1_555
Zr0_0 Zr0_1 3.409467 1_554
Zr0_2 Zr0_3 3.409467 1_555
Zr0_2 Zr0_3 3.409467 1_554
Zr0_4 Zr0_5 3.409467 1_555
Zr0_4 Zr0_5 3.409467 1_554
Zr0_6 Zr0_7 3.409467 1_555
Zr0_6 Zr0_7 3.409467 1_554
Zr1_0 Zr1_1 3.409467 1_555
Zr1_0 Zr1_1 3.409467 1_554
Zr1_2 Zr1_3 3.409467 1_555
Zr1_2 Zr1_3 3.409467 1_554
Zr1_4 Zr1_5 3.409467 1_555
Zr1_4 Zr1_5 3.409467 1_554
Zr1_6 Zr1_7 3.409467 1_555
Zr1_6 Zr1_7 3.409467 1_554
Zr2_0 Zr2_1 3.409467 1_555
Zr2_0 Zr2_1 3.409467 1_554
Zr2_2 Zr2_3 3.409467 1_555
Zr2_2 Zr2_3 3.409467 1_554
Zr2_4 Zr2_5 3.409467 1_555
Zr2_4 Zr2_5 3.409467 1_554
Zr2_6 Zr2_7 3.409467 1_555
Zr2_6 Zr2_7 3.409467 1_554
In0_0 Pd0_0 2.712251 1_555
In0_0 Pd0_1 2.712251 1_554
In0_0 Pd1_0 2.769420 1_555
In0_0 Tc0_0 2.886671 1_555
In0_0 Zr1_0 3.062599 1_555
In0_0 Zr1_1 3.062599 1_554
In0_0 Zr2_0 3.173253 1_555
In0_0 Zr2_1 3.173253 1_554
In0_0 Zr0_4 3.249258 1_555
In0_0 Zr0_5 3.249258 1_554
In0_0 In0_1 3.409467 1_555
In0_0 In0_1 3.409467 1_554
In0_1 Pd0_1 2.712251 1_555
In0_1 Pd0_0 2.712251 1_555
In0_1 Pd1_1 2.769420 1_555
In0_1 Tc0_1 2.886671 1_555
In0_1 Zr1_0 3.062599 1_555
In0_1 Zr1_1 3.062599 1_555
In0_1 Zr2_0 3.173253 1_555
In0_1 Zr2_1 3.173253 1_555
In0_1 Zr0_4 3.249258 1_555
In0_1 Zr0_5 3.249258 1_555
In0_2 Pd0_2 2.712251 1_555
In0_2 Pd0_3 2.712251 1_554
In0_2 Pd1_2 2.769420 1_555
In0_2 Tc0_2 2.886671 1_555
In0_2 Zr1_2 3.062599 1_555
In0_2 Zr1_3 3.062599 1_554
In0_2 Zr2_2 3.173253 1_555
In0_2 Zr2_3 3.173253 1_554
In0_2 Zr0_6 3.249258 1_555
In0_2 Zr0_7 3.249258 1_554
In0_2 In0_3 3.409467 1_555
In0_2 In0_3 3.409467 1_554
In0_3 Pd0_3 2.712251 1_555
In0_3 Pd0_2 2.712251 1_555
In0_3 Pd1_3 2.769420 1_555
In0_3 Tc0_3 2.886671 1_555
In0_3 Zr1_2 3.062599 1_555
In0_3 Zr1_3 3.062599 1_555
In0_3 Zr2_2 3.173253 1_555
In0_3 Zr2_3 3.173253 1_555
In0_3 Zr0_6 3.249258 1_555
In0_3 Zr0_7 3.249258 1_555
In0_4 Pd0_4 2.712251 1_555
In0_4 Pd0_5 2.712251 1_554
In0_4 Pd1_4 2.769420 1_555
In0_4 Tc0_4 2.886671 1_555
In0_4 Zr1_4 3.062599 1_555
In0_4 Zr1_5 3.062599 1_554
In0_4 Zr2_4 3.173253 1_555
In0_4 Zr2_5 3.173253 1_554
In0_4 Zr0_0 3.249258 1_655
In0_4 Zr0_1 3.249258 1_654
In0_4 In0_5 3.409467 1_555
In0_4 In0_5 3.409467 1_554
In0_5 Pd0_4 2.712251 1_555
In0_5 Pd0_5 2.712251 1_555
In0_5 Pd1_5 2.769420 1_555
In0_5 Tc0_5 2.886671 1_555
In0_5 Zr1_4 3.062599 1_555
In0_5 Zr1_5 3.062599 1_555
In0_5 Zr2_5 3.173253 1_555
In0_5 Zr2_4 3.173253 1_555
In0_5 Zr0_1 3.249258 1_655
In0_5 Zr0_0 3.249258 1_655
In0_6 Pd0_6 2.712251 1_555
In0_6 Pd0_7 2.712251 1_554
In0_6 Pd1_6 2.769420 1_555
In0_6 Tc0_6 2.886671 1_555
In0_6 Zr1_6 3.062599 1_555
In0_6 Zr1_7 3.062599 1_554
In0_6 Zr2_6 3.173253 1_555
In0_6 Zr2_7 3.173253 1_554
In0_6 Zr0_2 3.249258 1_655
In0_6 Zr0_3 3.249258 1_654
In0_6 In0_7 3.409467 1_555
In0_6 In0_7 3.409467 1_554
In0_7 Pd0_7 2.712251 1_555
In0_7 Pd0_6 2.712251 1_555
In0_7 Pd1_7 2.769420 1_555
In0_7 Tc0_7 2.886671 1_555
In0_7 Zr1_7 3.062599 1_555
In0_7 Zr1_6 3.062599 1_555
In0_7 Zr2_6 3.173253 1_555
In0_7 Zr2_7 3.173253 1_555
In0_7 Zr0_3 3.249258 1_655
In0_7 Zr0_2 3.249258 1_655
In1_0 Pd0_2 2.712287 1_545
In1_0 Pd0_3 2.712287 1_544
In1_0 Pd1_0 2.769399 1_555
In1_0 Tc0_4 2.886666 1_555
In1_0 Zr0_4 3.062657 1_555
In1_0 Zr0_5 3.062657 1_554
In1_0 Zr1_4 3.173139 1_555
In1_0 Zr1_5 3.173139 1_554
In1_0 Zr2_2 3.249330 1_545
In1_0 Zr2_3 3.249330 1_544
In1_0 In1_1 3.409467 1_555
In1_0 In1_1 3.409467 1_554
In1_1 Pd0_3 2.712287 1_545
In1_1 Pd0_2 2.712287 1_545
In1_1 Pd1_1 2.769399 1_555
In1_1 Tc0_5 2.886666 1_555
In1_1 Zr0_5 3.062657 1_555
In1_1 Zr0_4 3.062657 1_555
In1_1 Zr1_4 3.173139 1_555
In1_1 Zr1_5 3.173139 1_555
In1_1 Zr2_2 3.249330 1_545
In1_1 Zr2_3 3.249330 1_545
In1_2 Pd0_0 2.712287 1_555
In1_2 Pd0_1 2.712287 1_554
In1_2 Pd1_2 2.769399 1_555
In1_2 Tc0_6 2.886666 1_555
In1_2 Zr0_6 3.062657 1_555
In1_2 Zr0_7 3.062657 1_554
In1_2 Zr1_6 3.173139 1_555
In1_2 Zr1_7 3.173139 1_554
In1_2 Zr2_0 3.249330 1_555
In1_2 Zr2_1 3.249330 1_554
In1_2 In1_3 3.409467 1_555
In1_2 In1_3 3.409467 1_554
In1_3 Pd0_1 2.712287 1_555
In1_3 Pd0_0 2.712287 1_555
In1_3 Pd1_3 2.769399 1_555
In1_3 Tc0_7 2.886666 1_555
In1_3 Zr0_7 3.062657 1_555
In1_3 Zr0_6 3.062657 1_555
In1_3 Zr1_7 3.173139 1_555
In1_3 Zr1_6 3.173139 1_555
In1_3 Zr2_0 3.249330 1_555
In1_3 Zr2_1 3.249330 1_555
In1_4 Pd0_6 2.712287 1_545
In1_4 Pd0_7 2.712287 1_544
In1_4 Pd1_4 2.769399 1_555
In1_4 Tc0_0 2.886666 1_655
In1_4 Zr0_0 3.062657 1_655
In1_4 Zr0_1 3.062657 1_654
In1_4 Zr1_0 3.173139 1_655
In1_4 Zr1_1 3.173139 1_654
In1_4 Zr2_6 3.249330 1_545
In1_4 Zr2_7 3.249330 1_544
In1_4 In1_5 3.409467 1_555
In1_4 In1_5 3.409467 1_554
In1_5 Pd0_7 2.712287 1_545
In1_5 Pd0_6 2.712287 1_545
In1_5 Pd1_5 2.769399 1_555
In1_5 Tc0_1 2.886666 1_655
In1_5 Zr0_1 3.062657 1_655
In1_5 Zr0_0 3.062657 1_655
In1_5 Zr1_0 3.173139 1_655
In1_5 Zr1_1 3.173139 1_655
In1_5 Zr2_7 3.249330 1_545
In1_5 Zr2_6 3.249330 1_545
In1_6 Pd0_4 2.712287 1_555
In1_6 Pd0_5 2.712287 1_554
In1_6 Pd1_6 2.769399 1_555
In1_6 Tc0_2 2.886666 1_655
In1_6 Zr0_2 3.062657 1_655
In1_6 Zr0_3 3.062657 1_654
In1_6 Zr1_2 3.173139 1_655
In1_6 Zr1_3 3.173139 1_654
In1_6 Zr2_4 3.249330 1_555
In1_6 Zr2_5 3.249330 1_554
In1_6 In1_7 3.409467 1_555
In1_6 In1_7 3.409467 1_554
In1_7 Pd0_4 2.712287 1_555
In1_7 Pd0_5 2.712287 1_555
In1_7 Pd1_7 2.769399 1_555
In1_7 Tc0_3 2.886666 1_655
In1_7 Zr0_2 3.062657 1_655
In1_7 Zr0_3 3.062657 1_655
In1_7 Zr1_3 3.173139 1_655
In1_7 Zr1_2 3.173139 1_655
In1_7 Zr2_5 3.249330 1_555
In1_7 Zr2_4 3.249330 1_555
In2_0 Pd0_6 2.712295 1_445
In2_0 Pd0_7 2.712295 1_444
In2_0 Pd1_0 2.769468 1_555
In2_0 Tc0_2 2.886676 1_545
In2_0 Zr2_2 3.062651 1_545
In2_0 Zr2_3 3.062651 1_544
In2_0 Zr0_2 3.173191 1_545
In2_0 Zr0_3 3.173191 1_544
In2_0 Zr1_0 3.249211 1_555
In2_0 Zr1_1 3.249211 1_554
In2_0 In2_1 3.409467 1_555
In2_0 In2_1 3.409467 1_554
In2_1 Pd0_6 2.712295 1_445
In2_1 Pd0_7 2.712295 1_445
In2_1 Pd1_1 2.769468 1_555
In2_1 Tc0_3 2.886676 1_545
In2_1 Zr2_2 3.062651 1_545
In2_1 Zr2_3 3.062651 1_545
In2_1 Zr0_3 3.173191 1_545
In2_1 Zr0_2 3.173191 1_545
In2_1 Zr1_1 3.249211 1_555
In2_1 Zr1_0 3.249211 1_555
In2_2 Pd0_4 2.712295 1_455
In2_2 Pd0_5 2.712295 1_454
In2_2 Pd1_2 2.769468 1_555
In2_2 Tc0_0 2.886676 1_555
In2_2 Zr2_0 3.062651 1_555
In2_2 Zr2_1 3.062651 1_554
In2_2 Zr0_0 3.173191 1_555
In2_2 Zr0_1 3.173191 1_554
In2_2 Zr1_2 3.249211 1_555
In2_2 Zr1_3 3.249211 1_554
In2_2 In2_3 3.409467 1_555
In2_2 In2_3 3.409467 1_554
In2_3 Pd0_4 2.712295 1_455
In2_3 Pd0_5 2.712295 1_455
In2_3 Pd1_3 2.769468 1_555
In2_3 Tc0_1 2.886676 1_555
In2_3 Zr2_1 3.062651 1_555
In2_3 Zr2_0 3.062651 1_555
In2_3 Zr0_0 3.173191 1_555
In2_3 Zr0_1 3.173191 1_555
In2_3 Zr1_2 3.249211 1_555
In2_3 Zr1_3 3.249211 1_555
In2_4 Pd0_2 2.712295 1_545
In2_4 Pd0_3 2.712295 1_544
In2_4 Pd1_4 2.769468 1_555
In2_4 Tc0_6 2.886676 1_545
In2_4 Zr2_6 3.062651 1_545
In2_4 Zr2_7 3.062651 1_544
In2_4 Zr0_6 3.173191 1_545
In2_4 Zr0_7 3.173191 1_544
In2_4 Zr1_4 3.249211 1_555
In2_4 Zr1_5 3.249211 1_554
In2_4 In2_5 3.409467 1_555
In2_4 In2_5 3.409467 1_554
In2_5 Pd0_3 2.712295 1_545
In2_5 Pd0_2 2.712295 1_545
In2_5 Pd1_5 2.769468 1_555
In2_5 Tc0_7 2.886676 1_545
In2_5 Zr2_6 3.062651 1_545
In2_5 Zr2_7 3.062651 1_545
In2_5 Zr0_7 3.173191 1_545
In2_5 Zr0_6 3.173191 1_545
In2_5 Zr1_4 3.249211 1_555
In2_5 Zr1_5 3.249211 1_555
In2_6 Pd0_0 2.712295 1_555
In2_6 Pd0_1 2.712295 1_554
In2_6 Pd1_6 2.769468 1_555
In2_6 Tc0_4 2.886676 1_555
In2_6 Zr2_4 3.062651 1_555
In2_6 Zr2_5 3.062651 1_554
In2_6 Zr0_4 3.173191 1_555
In2_6 Zr0_5 3.173191 1_554
In2_6 Zr1_6 3.249211 1_555
In2_6 Zr1_7 3.249211 1_554
In2_6 In2_7 3.409467 1_555
In2_6 In2_7 3.409467 1_554
In2_7 Pd0_1 2.712295 1_555
In2_7 Pd0_0 2.712295 1_555
In2_7 Pd1_7 2.769468 1_555
In2_7 Tc0_5 2.886676 1_555
In2_7 Zr2_4 3.062651 1_555
In2_7 Zr2_5 3.062651 1_555
In2_7 Zr0_5 3.173191 1_555
In2_7 Zr0_4 3.173191 1_555
In2_7 Zr1_6 3.249211 1_555
In2_7 Zr1_7 3.249211 1_555
Tc0_0 Zr0_0 2.779508 1_555
Tc0_0 Zr0_1 2.779508 1_554
Tc0_0 Zr1_0 2.779522 1_555
Tc0_0 Zr1_1 2.779522 1_554
Tc0_0 Zr2_0 2.779548 1_555
Tc0_0 Zr2_1 2.779548 1_554
Tc0_1 Zr0_0 2.779508 1_555
Tc0_1 Zr0_1 2.779508 1_555
Tc0_1 Zr1_0 2.779522 1_555
Tc0_1 Zr1_1 2.779522 1_555
Tc0_1 Zr2_0 2.779548 1_555
Tc0_1 Zr2_1 2.779548 1_555
Tc0_2 Zr0_2 2.779508 1_555
Tc0_2 Zr0_3 2.779508 1_554
Tc0_2 Zr1_2 2.779522 1_555
Tc0_2 Zr1_3 2.779522 1_554
Tc0_2 Zr2_2 2.779548 1_555
Tc0_2 Zr2_3 2.779548 1_554
Tc0_3 Zr0_3 2.779508 1_555
Tc0_3 Zr0_2 2.779508 1_555
Tc0_3 Zr1_3 2.779522 1_555
Tc0_3 Zr1_2 2.779522 1_555
Tc0_3 Zr2_2 2.779548 1_555
Tc0_3 Zr2_3 2.779548 1_555
Tc0_4 Zr0_4 2.779508 1_555
Tc0_4 Zr0_5 2.779508 1_554
Tc0_4 Zr1_4 2.779522 1_555
Tc0_4 Zr1_5 2.779522 1_554
Tc0_4 Zr2_4 2.779548 1_555
Tc0_4 Zr2_5 2.779548 1_554
Tc0_5 Zr0_4 2.779508 1_555
Tc0_5 Zr0_5 2.779508 1_555
Tc0_5 Zr1_4 2.779522 1_555
Tc0_5 Zr1_5 2.779522 1_555
Tc0_5 Zr2_4 2.779548 1_555
Tc0_5 Zr2_5 2.779548 1_555
Tc0_6 Zr0_6 2.779508 1_555
Tc0_6 Zr0_7 2.779508 1_554
Tc0_6 Zr1_6 2.779522 1_555
Tc0_6 Zr1_7 2.779522 1_554
Tc0_6 Zr2_6 2.779548 1_555
Tc0_6 Zr2_7 2.779548 1_554
Tc0_7 Zr0_7 2.779508 1_555
Tc0_7 Zr0_6 2.779508 1_555
Tc0_7 Zr1_6 2.779522 1_555
Tc0_7 Zr1_7 2.779522 1_555
Tc0_7 Zr2_7 2.779548 1_555
Tc0_7 Zr2_6 2.779548 1_555
Pd0_0 Zr0_4 3.071617 1_555
Pd0_0 Zr2_0 3.071700 1_555
Pd0_0 Zr1_6 3.071874 1_555
Pd0_1 Zr0_5 3.071617 1_555
Pd0_1 Zr2_1 3.071700 1_555
Pd0_1 Zr1_7 3.071874 1_555
Pd0_2 Zr0_6 3.071617 1_555
Pd0_2 Zr2_2 3.071700 1_555
Pd0_2 Zr1_4 3.071874 1_565
Pd0_3 Zr0_7 3.071617 1_555
Pd0_3 Zr2_3 3.071700 1_555
Pd0_3 Zr1_5 3.071874 1_565
Pd0_4 Zr0_0 3.071617 1_655
Pd0_4 Zr2_4 3.071700 1_555
Pd0_4 Zr1_2 3.071874 1_655
Pd0_5 Zr0_1 3.071617 1_655
Pd0_5 Zr2_5 3.071700 1_555
Pd0_5 Zr1_3 3.071874 1_655
Pd0_6 Zr0_2 3.071617 1_655
Pd0_6 Zr2_6 3.071700 1_555
Pd0_6 Zr1_0 3.071874 1_665
Pd0_7 Zr0_3 3.071617 1_655
Pd0_7 Zr2_7 3.071700 1_555
Pd0_7 Zr1_1 3.071874 1_665
Pd1_0 Zr2_2 3.047117 1_545
Pd1_0 Zr2_3 3.047117 1_544
Pd1_0 Zr0_4 3.047284 1_555
Pd1_0 Zr0_5 3.047284 1_554
Pd1_0 Zr1_0 3.047338 1_555
Pd1_0 Zr1_1 3.047338 1_554
Pd1_0 Pd1_1 3.409467 1_555
Pd1_0 Pd1_1 3.409467 1_554
Pd1_1 Zr2_2 3.047117 1_545
Pd1_1 Zr2_3 3.047117 1_545
Pd1_1 Zr0_5 3.047284 1_555
Pd1_1 Zr0_4 3.047284 1_555
Pd1_1 Zr1_1 3.047338 1_555
Pd1_1 Zr1_0 3.047338 1_555
Pd1_2 Zr2_0 3.047117 1_555
Pd1_2 Zr2_1 3.047117 1_554
Pd1_2 Zr0_6 3.047284 1_555
Pd1_2 Zr0_7 3.047284 1_554
Pd1_2 Zr1_2 3.047338 1_555
Pd1_2 Zr1_3 3.047338 1_554
Pd1_2 Pd1_3 3.409467 1_555
Pd1_2 Pd1_3 3.409467 1_554
Pd1_3 Zr2_1 3.047117 1_555
Pd1_3 Zr2_0 3.047117 1_555
Pd1_3 Zr0_6 3.047284 1_555
Pd1_3 Zr0_7 3.047284 1_555
Pd1_3 Zr1_2 3.047338 1_555
Pd1_3 Zr1_3 3.047338 1_555
Pd1_4 Zr2_6 3.047117 1_545
Pd1_4 Zr2_7 3.047117 1_544
Pd1_4 Zr0_0 3.047284 1_655
Pd1_4 Zr0_1 3.047284 1_654
Pd1_4 Zr1_4 3.047338 1_555
Pd1_4 Zr1_5 3.047338 1_554
Pd1_4 Pd1_5 3.409467 1_555
Pd1_4 Pd1_5 3.409467 1_554
Pd1_5 Zr2_7 3.047117 1_545
Pd1_5 Zr2_6 3.047117 1_545
Pd1_5 Zr0_1 3.047284 1_655
Pd1_5 Zr0_0 3.047284 1_655
Pd1_5 Zr1_5 3.047338 1_555
Pd1_5 Zr1_4 3.047338 1_555
Pd1_6 Zr2_4 3.047117 1_555
Pd1_6 Zr2_5 3.047117 1_554
Pd1_6 Zr0_2 3.047284 1_655
Pd1_6 Zr0_3 3.047284 1_654
Pd1_6 Zr1_6 3.047338 1_555
Pd1_6 Zr1_7 3.047338 1_554
Pd1_6 Pd1_7 3.409467 1_555
Pd1_6 Pd1_7 3.409467 1_554
Pd1_7 Zr2_5 3.047117 1_555
Pd1_7 Zr2_4 3.047117 1_555
Pd1_7 Zr0_3 3.047284 1_655
Pd1_7 Zr0_2 3.047284 1_655
Pd1_7 Zr1_6 3.047338 1_555
Pd1_7 Zr1_7 3.047338 1_555
