# generated using pymatgen
data_Cs3Li(HfTe5)2
_symmetry_space_group_name_H-M   'P 1'
_cell_length_a   10.17410287
_cell_length_b   11.23223372
_cell_length_c   11.41345863
_cell_angle_alpha   88.35476753
_cell_angle_beta   90.61015269
_cell_angle_gamma   78.32581451
_symmetry_Int_Tables_number   1
_chemical_formula_structural   Cs3Li(HfTe5)2
_chemical_formula_sum   'Cs6 Li2 Hf4 Te20'
_cell_volume   1276.61828431
_cell_formula_units_Z   2
loop_
 _symmetry_equiv_pos_site_id
 _symmetry_equiv_pos_as_xyz
  1  'x, y, z'
loop_
 _atom_site_type_symbol
 _atom_site_label
 _atom_site_symmetry_multiplicity
 _atom_site_fract_x
 _atom_site_fract_y
 _atom_site_fract_z
 _atom_site_occupancy
  Cs  Cs0  1  0.87810387  0.89365208  0.25882274  1
  Cs  Cs1  1  0.12189613  0.10634792  0.74117726  1
  Cs  Cs2  1  0.45282034  0.76239849  0.38308366  1
  Cs  Cs3  1  0.54717966  0.23760151  0.61691634  1
  Cs  Cs4  1  0.29612920  0.62693977  0.89364073  1
  Cs  Cs5  1  0.70387080  0.37306023  0.10635927  1
  Li  Li0  1  0.90969736  0.36711138  0.55957808  1
  Li  Li1  1  0.09030264  0.63288862  0.44042192  1
  Hf  Hf0  1  0.11504909  0.37252880  0.36335040  1
  Hf  Hf1  1  0.88495091  0.62747120  0.63664960  1
  Hf  Hf2  1  0.31061397  0.15478623  0.14382894  1
  Hf  Hf3  1  0.68938603  0.84521377  0.85617106  1
  Te  Te0  1  0.84702792  0.56132250  0.39910571  1
  Te  Te1  1  0.15297208  0.43867750  0.60089429  1
  Te  Te2  1  0.93331466  0.20334792  0.39534338  1
  Te  Te3  1  0.06668534  0.79665208  0.60465662  1
  Te  Te4  1  0.19807046  0.57952229  0.23413122  1
  Te  Te5  1  0.80192954  0.42047771  0.76586878  1
  Te  Te6  1  0.21495420  0.11308915  0.39026199  1
  Te  Te7  1  0.78504580  0.88691085  0.60973801  1
  Te  Te8  1  0.08305289  0.35896562  0.10678820  1
  Te  Te9  1  0.91694711  0.64103438  0.89321180  1
  Te  Te10  1  0.39546197  0.35072329  0.29220137  1
  Te  Te11  1  0.60453803  0.64927671  0.70779863  1
  Te  Te12  1  0.04665442  0.12232712  0.06495282  1
  Te  Te13  1  0.95334558  0.87767288  0.93504718  1
  Te  Te14  1  0.52642234  0.08580272  0.30938099  1
  Te  Te15  1  0.47357766  0.91419728  0.69061901  1
  Te  Te16  1  0.33367965  0.91241065  0.06503598  1
  Te  Te17  1  0.66632035  0.08758935  0.93496402  1
  Te  Te18  1  0.41028587  0.24548193  0.93395065  1
  Te  Te19  1  0.58971413  0.75451807  0.06604935  1
loop_
_geom_bond_atom_site_label_1
_geom_bond_atom_site_label_2
_geom_bond_distance
_geom_bond_site_symmetry_2
Cs0 Te13 3.783773 1_554
Cs0 Li1 3.812193 1_655
Cs0 Te14 3.844976 1_565
Cs0 Te2 3.990900 1_565
Cs0 Te12 3.996400 1_665
Cs0 Te0 4.091768 1_555
Cs0 Te7 4.127441 1_555
Cs0 Te19 4.219932 1_555
Cs0 Te4 4.307505 1_655
Cs1 Te12 3.783773 1_556
Cs1 Li0 3.812193 1_455
Cs1 Te15 3.844976 1_545
Cs1 Te3 3.990900 1_545
Cs1 Te13 3.996400 1_445
Cs1 Te1 4.091768 1_555
Cs1 Te6 4.127441 1_555
Cs1 Te18 4.219932 1_555
Cs1 Te5 4.307505 1_455
Cs2 Te19 3.888023 1_555
Cs2 Te14 3.924614 1_565
Cs2 Te15 3.968091 1_555
Cs2 Te4 4.011048 1_555
Cs2 Te16 4.026664 1_555
Cs2 Te11 4.067738 1_555
Cs2 Te0 4.185096 1_555
Cs2 Te6 4.188606 1_565
Cs3 Te18 3.888023 1_555
Cs3 Te15 3.924614 1_545
Cs3 Te14 3.968091 1_555
Cs3 Te5 4.011048 1_555
Cs3 Te17 4.026664 1_555
Cs3 Te10 4.067738 1_555
Cs3 Te1 4.185096 1_555
Cs3 Te7 4.188606 1_545
Cs4 Te9 3.828888 1_455
Cs4 Te11 3.851946 1_555
Cs4 Te16 3.885128 1_556
Cs4 Te13 4.056391 1_455
Cs4 Te4 4.069410 1_556
Cs4 Te19 4.076333 1_556
Cs4 Te3 4.199537 1_555
Cs4 Te18 4.216652 1_555
Cs4 Te1 4.393787 1_555
Cs5 Te8 3.828888 1_655
Cs5 Te10 3.851946 1_555
Cs5 Te17 3.885128 1_554
Cs5 Te12 4.056391 1_655
Cs5 Te5 4.069410 1_554
Cs5 Te18 4.076333 1_554
Cs5 Te2 4.199537 1_555
Cs5 Te19 4.216652 1_555
Cs5 Te0 4.393787 1_555
Li0 Te5 2.641053 1_555
Li0 Te2 2.642659 1_555
Li0 Te0 2.775344 1_555
Li0 Te1 2.792267 1_655
Li1 Te4 2.641053 1_555
Li1 Te3 2.642659 1_555
Li1 Te1 2.775344 1_555
Li1 Te0 2.792267 1_455
Hf0 Te1 2.874180 1_555
Hf0 Te6 2.891826 1_555
Hf0 Te2 2.925679 1_455
Hf0 Te10 2.938831 1_555
Hf0 Te8 2.954536 1_555
Hf0 Te4 2.986406 1_555
Hf0 Li1 3.040376 1_555
Hf0 Li0 3.086746 1_455
Hf0 Te0 3.135677 1_455
Hf1 Te0 2.874180 1_555
Hf1 Te7 2.891826 1_555
Hf1 Te3 2.925679 1_655
Hf1 Te11 2.938831 1_555
Hf1 Te9 2.954536 1_555
Hf1 Te5 2.986406 1_555
Hf1 Li0 3.040376 1_555
Hf1 Li1 3.086746 1_655
Hf1 Te1 3.135677 1_655
Hf2 Te14 2.851430 1_555
Hf2 Te18 2.852003 1_554
Hf2 Te16 2.856905 1_545
Hf2 Te12 2.918760 1_555
Hf2 Te8 2.928026 1_555
Hf2 Te6 3.040513 1_555
Hf2 Te10 3.067287 1_555
Hf3 Te15 2.851430 1_555
Hf3 Te19 2.852003 1_556
Hf3 Te17 2.856905 1_565
Hf3 Te13 2.918760 1_555
Hf3 Te9 2.928026 1_555
Hf3 Te7 3.040513 1_555
Hf3 Te11 3.067287 1_555
Te4 Te8 3.311008 1_555
Te5 Te9 3.311008 1_555
Te10 Te4 2.976938 1_555
Te10 Te14 3.004107 1_555
Te11 Te5 2.976938 1_555
Te11 Te15 3.004107 1_555
Te12 Te8 2.810238 1_555
Te12 Te16 3.361610 1_545
Te12 Te13 3.451212 1_444
Te13 Te9 2.810238 1_555
Te13 Te17 3.361610 1_565
Te16 Te19 2.838941 1_555
Te17 Te18 2.838941 1_555
