# generated using pymatgen
data_CsCaH9W
_symmetry_space_group_name_H-M   'P 1'
_cell_length_a   9.07132504
_cell_length_b   9.07132421
_cell_length_c   5.86501116
_cell_angle_alpha   90.00000000
_cell_angle_beta   90.00000000
_cell_angle_gamma   120.00000301
_symmetry_Int_Tables_number   1
_chemical_formula_structural   CsCaH9W
_chemical_formula_sum   'Cs3 Ca3 H27 W3'
_cell_volume   417.96592707
_cell_formula_units_Z   3
loop_
 _symmetry_equiv_pos_site_id
 _symmetry_equiv_pos_as_xyz
  1  'x, y, z'
loop_
 _atom_site_type_symbol
 _atom_site_label
 _atom_site_symmetry_multiplicity
 _atom_site_fract_x
 _atom_site_fract_y
 _atom_site_fract_z
 _atom_site_occupancy
  Cs  Cs0  1  0.00000000  0.58077629  0.00000000  1
  Cs  Cs1  1  0.41922371  0.41922371  0.00000000  1
  Cs  Cs2  1  0.58077629  0.00000000  0.00000000  1
  Ca  Ca0  1  0.00000000  0.27600984  0.50000000  1
  Ca  Ca1  1  0.72399016  0.72399016  0.50000000  1
  Ca  Ca2  1  0.27600984  0.00000000  0.50000000  1
  H  H0  1  0.78905608  0.30276378  0.71012743  1
  H  H1  1  0.69723622  0.48629230  0.71012743  1
  H  H2  1  0.51370770  0.21094392  0.71012743  1
  H  H3  1  0.21094392  0.51370770  0.28987257  1
  H  H4  1  0.51370770  0.21094392  0.28987257  1
  H  H5  1  0.78905608  0.30276378  0.28987257  1
  H  H6  1  0.69723622  0.48629230  0.28987257  1
  H  H7  1  0.30276378  0.78905608  0.71012743  1
  H  H8  1  0.48629230  0.69723622  0.71012743  1
  H  H9  1  0.19186378  0.00000000  0.00000000  1
  H  H10  1  0.80813622  0.80813622  0.00000000  1
  H  H11  1  0.00000000  0.19186378  0.00000000  1
  H  H12  1  0.86556581  0.00000000  0.22553500  1
  H  H13  1  0.13443419  0.13443419  0.77446500  1
  H  H14  1  0.00000000  0.86556581  0.77446500  1
  H  H15  1  0.00000000  0.86556581  0.22553500  1
  H  H16  1  0.13443419  0.13443419  0.22553500  1
  H  H17  1  0.86556581  0.00000000  0.77446500  1
  H  H18  1  0.12649317  0.62882712  0.50000000  1
  H  H19  1  0.50233394  0.87350683  0.50000000  1
  H  H20  1  0.37117288  0.49766606  0.50000000  1
  H  H21  1  0.49766606  0.37117288  0.50000000  1
  H  H22  1  0.87350683  0.50233394  0.50000000  1
  H  H23  1  0.62882712  0.12649317  0.50000000  1
  H  H24  1  0.21094392  0.51370770  0.71012743  1
  H  H25  1  0.30276378  0.78905608  0.28987257  1
  H  H26  1  0.48629230  0.69723622  0.28987257  1
  W  W0  1  0.66666700  0.33333300  0.50000000  1
  W  W1  1  0.33333300  0.66666700  0.50000000  1
  W  W2  1  0.00000000  0.00000000  0.00000000  1
loop_
_geom_bond_atom_site_label_1
_geom_bond_atom_site_label_2
_geom_bond_distance
_geom_bond_site_symmetry_2
Cs0 H5 2.843651 1_455
Cs0 H0 2.843651 1_454
Cs0 H3 2.843651 1_555
Cs0 H24 2.843651 1_554
Cs0 H15 2.902371 1_555
Cs0 H14 2.902371 1_554
Cs0 H25 2.968851 1_555
Cs0 H7 2.968851 1_554
Cs0 H6 2.968851 1_455
Cs0 H1 2.968851 1_454
Cs1 H26 2.843651 1_555
Cs1 H8 2.843651 1_554
Cs1 H6 2.843651 1_555
Cs1 H1 2.843651 1_554
Cs1 H16 2.902371 1_555
Cs1 H13 2.902371 1_554
Cs1 H4 2.968851 1_555
Cs1 H2 2.968851 1_554
Cs1 H3 2.968851 1_555
Cs1 H24 2.968851 1_554
Cs2 H4 2.843651 1_555
Cs2 H25 2.843651 1_545
Cs2 H2 2.843651 1_554
Cs2 H7 2.843651 1_544
Cs2 H12 2.902371 1_555
Cs2 H17 2.902371 1_554
Cs2 H5 2.968851 1_555
Cs2 H0 2.968851 1_554
Cs2 H26 2.968851 1_545
Cs2 H8 2.968851 1_544
Ca0 H24 2.388253 1_555
Ca0 H3 2.388253 1_555
Ca0 H0 2.388253 1_455
Ca0 H5 2.388253 1_455
Ca0 H17 2.700737 1_455
Ca0 H12 2.700737 1_455
Ca0 H13 2.700737 1_555
Ca0 H16 2.700737 1_555
Ca1 H1 2.388253 1_555
Ca1 H6 2.388253 1_555
Ca1 H8 2.388253 1_555
Ca1 H26 2.388253 1_555
Ca1 H17 2.700737 1_565
Ca1 H12 2.700737 1_565
Ca1 H14 2.700737 1_655
Ca1 H15 2.700737 1_655
Ca2 H2 2.388253 1_555
Ca2 H4 2.388253 1_555
Ca2 H7 2.388253 1_545
Ca2 H25 2.388253 1_545
Ca2 H13 2.700737 1_555
Ca2 H16 2.700737 1_555
Ca2 H14 2.700737 1_545
Ca2 H15 2.700737 1_545
H0 W0 1.770929 1_555
H1 W0 1.770936 1_555
H2 W0 1.770933 1_555
H3 W1 1.770933 1_555
H4 W0 1.770933 1_555
H5 W0 1.770929 1_555
H6 W0 1.770936 1_555
H7 W1 1.770929 1_555
H8 W1 1.770936 1_555
H9 W2 1.740459 1_555
H10 W2 1.740459 1_665
H11 W2 1.740459 1_555
H12 W2 1.799133 1_655
H13 W2 1.799133 1_556
H14 W2 1.799133 1_566
H15 W2 1.799133 1_565
H16 W2 1.799133 1_555
H17 W2 1.799133 1_656
H18 W1 1.730408 1_555
H19 W1 1.730411 1_555
H20 W1 1.730417 1_555
H21 W0 1.730417 1_555
H22 W0 1.730411 1_555
H23 W0 1.730408 1_555
H24 W1 1.770933 1_555
H25 W1 1.770929 1_555
H26 W1 1.770936 1_555
