# generated using pymatgen
data_SrAl4Cu9
_symmetry_space_group_name_H-M   'P 1'
_cell_length_a   8.28543530
_cell_length_b   8.28543466
_cell_length_c   8.28543471
_cell_angle_alpha   119.71650596
_cell_angle_beta   119.71649775
_cell_angle_gamma   90.49173165
_symmetry_Int_Tables_number   1
_chemical_formula_structural   SrAl4Cu9
_chemical_formula_sum   'Sr2 Al8 Cu18'
_cell_volume   403.89701403
_cell_formula_units_Z   2
loop_
 _symmetry_equiv_pos_site_id
 _symmetry_equiv_pos_as_xyz
  1  'x, y, z'
loop_
 _atom_site_type_symbol
 _atom_site_label
 _atom_site_symmetry_multiplicity
 _atom_site_fract_x
 _atom_site_fract_y
 _atom_site_fract_z
 _atom_site_occupancy
  Sr  Sr0  1  0.25000000  0.25000000  0.00000000  1
  Sr  Sr1  1  0.75000000  0.75000000  0.00000000  1
  Al  Al0  1  0.80051103  0.30051103  0.86343915  1
  Al  Al1  1  0.56292812  0.06292812  0.86343915  1
  Al  Al2  1  0.19948897  0.69948897  0.13656085  1
  Al  Al3  1  0.69948897  0.56292812  0.50000000  1
  Al  Al4  1  0.06292812  0.19948897  0.50000000  1
  Al  Al5  1  0.30051103  0.43707188  0.50000000  1
  Al  Al6  1  0.93707188  0.80051103  0.50000000  1
  Al  Al7  1  0.43707188  0.93707188  0.13656085  1
  Cu  Cu0  1  0.06485222  0.56485222  0.27223501  1
  Cu  Cu1  1  0.70738179  0.20738179  0.27223501  1
  Cu  Cu2  1  0.93514778  0.43514778  0.72776499  1
  Cu  Cu3  1  0.43514778  0.70738179  0.50000000  1
  Cu  Cu4  1  0.20738179  0.93514778  0.50000000  1
  Cu  Cu5  1  0.56485222  0.29261821  0.50000000  1
  Cu  Cu6  1  0.79261821  0.06485222  0.50000000  1
  Cu  Cu7  1  0.29261821  0.79261821  0.72776499  1
  Cu  Cu8  1  0.44024122  0.29452124  0.73476346  1
  Cu  Cu9  1  0.79452124  0.94024122  0.73476346  1
  Cu  Cu10  1  0.00000000  0.50000000  0.50000000  1
  Cu  Cu11  1  0.50000000  0.00000000  0.50000000  1
  Cu  Cu12  1  0.55975878  0.70547876  0.26523654  1
  Cu  Cu13  1  0.70547876  0.44024122  0.14571998  1
  Cu  Cu14  1  0.29452124  0.55975878  0.85428002  1
  Cu  Cu15  1  0.94024122  0.20547876  0.14571998  1
  Cu  Cu16  1  0.05975878  0.79452124  0.85428002  1
  Cu  Cu17  1  0.20547876  0.05975878  0.26523654  1
loop_
_geom_bond_atom_site_label_1
_geom_bond_atom_site_label_2
_geom_bond_distance
_geom_bond_site_symmetry_2
Al0 Cu2 2.493494 1_555
Al0 Cu0 2.504873 1_656
Al0 Cu11 2.548245 1_555
Al0 Cu13 2.566573 1_556
Al0 Cu15 2.566573 1_556
Al0 Cu9 2.615185 1_545
Al0 Cu8 2.615186 1_555
Al0 Cu6 2.618734 1_555
Al0 Cu5 2.618734 1_555
Al0 Al1 2.771876 1_555
Al0 Sr1 3.412283 1_556
Al0 Sr0 3.412283 1_656
Al1 Cu7 2.493483 1_545
Al1 Cu1 2.504876 1_556
Al1 Cu11 2.548245 1_555
Al1 Cu13 2.566573 1_556
Al1 Cu15 2.566573 1_556
Al1 Cu9 2.615179 1_545
Al1 Cu8 2.615179 1_555
Al1 Cu3 2.618734 1_545
Al1 Cu4 2.618734 1_545
Al1 Sr0 3.412283 1_556
Al1 Sr1 3.412283 1_546
Al2 Cu0 2.493494 1_555
Al2 Cu2 2.504873 1_454
Al2 Cu11 2.548245 1_565
Al2 Cu14 2.566573 1_554
Al2 Cu16 2.566573 1_554
Al2 Cu17 2.615185 1_565
Al2 Cu12 2.615186 1_555
Al2 Cu4 2.618734 1_555
Al2 Cu3 2.618734 1_555
Al2 Al7 2.771876 1_555
Al2 Sr0 3.412283 1_555
Al2 Sr1 3.412283 1_455
Al3 Cu5 2.493487 1_555
Al3 Cu3 2.504869 1_555
Al3 Cu10 2.548245 1_655
Al3 Cu9 2.566573 1_555
Al3 Cu12 2.566579 1_555
Al3 Cu13 2.615184 1_555
Al3 Cu16 2.615184 1_655
Al3 Cu2 2.618730 1_555
Al3 Cu1 2.618732 1_555
Al3 Al6 2.771876 1_555
Al3 Sr1 3.412283 1_556
Al3 Sr0 3.412283 1_555
Al4 Cu6 2.493487 1_455
Al4 Cu4 2.504869 1_545
Al4 Cu10 2.548245 1_555
Al4 Cu8 2.566573 1_555
Al4 Cu17 2.566579 1_555
Al4 Cu15 2.615184 1_455
Al4 Cu14 2.615184 1_555
Al4 Cu2 2.618729 1_455
Al4 Cu1 2.618733 1_455
Al4 Al5 2.771876 1_555
Al4 Sr0 3.412283 1_556
Al4 Sr1 3.412283 1_445
Al5 Cu3 2.493487 1_555
Al5 Cu5 2.504869 1_555
Al5 Cu10 2.548245 1_555
Al5 Cu17 2.566573 1_555
Al5 Cu8 2.566579 1_555
Al5 Cu14 2.615184 1_555
Al5 Cu15 2.615184 1_455
Al5 Cu0 2.618730 1_555
Al5 Cu7 2.618732 1_555
Al5 Sr0 3.412283 1_555
Al5 Sr1 3.412283 1_556
Al6 Cu4 2.493487 1_655
Al6 Cu6 2.504869 1_565
Al6 Cu10 2.548245 1_655
Al6 Cu12 2.566573 1_555
Al6 Cu9 2.566579 1_555
Al6 Cu16 2.615184 1_655
Al6 Cu13 2.615184 1_555
Al6 Cu0 2.618729 1_655
Al6 Cu7 2.618733 1_655
Al6 Sr1 3.412283 1_555
Al6 Sr0 3.412283 1_666
Al7 Cu1 2.493483 1_565
Al7 Cu7 2.504876 1_554
Al7 Cu11 2.548245 1_565
Al7 Cu14 2.566573 1_554
Al7 Cu16 2.566573 1_554
Al7 Cu17 2.615179 1_565
Al7 Cu12 2.615179 1_555
Al7 Cu5 2.618734 1_565
Al7 Cu6 2.618734 1_565
Al7 Sr1 3.412283 1_555
Al7 Sr0 3.412283 1_565
Cu0 Cu10 2.478784 1_555
Cu0 Cu4 2.521323 1_555
Cu0 Cu3 2.521324 1_555
Cu0 Cu15 2.609699 1_455
Cu0 Cu13 2.609699 1_455
Cu0 Cu7 2.680236 1_555
Cu0 Sr0 3.451329 1_555
Cu0 Sr1 3.451329 1_455
Cu1 Cu10 2.478794 1_655
Cu1 Cu5 2.521315 1_555
Cu1 Cu6 2.521315 1_555
Cu1 Cu13 2.609708 1_555
Cu1 Cu15 2.609708 1_555
Cu1 Cu2 2.680236 1_555
Cu1 Sr1 3.451326 1_545
Cu1 Sr0 3.451327 1_555
Cu2 Cu6 2.521323 1_555
Cu2 Cu5 2.521324 1_555
Cu2 Sr1 3.451329 1_556
Cu2 Sr0 3.451329 1_656
Cu3 Cu7 2.521315 1_555
Cu3 Cu9 2.609700 1_555
Cu3 Cu4 2.680247 1_555
Cu3 Sr0 3.451325 1_555
Cu3 Sr1 3.451325 1_556
Cu4 Cu7 2.521315 1_555
Cu4 Cu8 2.609700 1_565
Cu4 Sr0 3.451325 1_566
Cu4 Sr1 3.451326 1_455
Cu5 Cu8 2.609709 1_555
Cu5 Cu6 2.680247 1_555
Cu5 Sr1 3.451325 1_556
Cu5 Sr0 3.451325 1_555
Cu6 Cu9 2.609709 1_545
Cu6 Sr1 3.451325 1_545
Cu6 Sr0 3.451326 1_656
Cu7 Sr0 3.451326 1_566
Cu7 Sr1 3.451327 1_556
Cu8 Sr0 3.417298 1_556
Cu8 Sr1 3.417309 1_556
Cu9 Sr1 3.417298 1_556
Cu9 Sr0 3.417309 1_666
Cu10 Cu2 2.478784 1_455
Cu10 Cu7 2.478794 1_555
Cu10 Cu16 2.500623 1_555
Cu10 Cu15 2.500623 1_455
Cu10 Cu14 2.500623 1_555
Cu10 Cu13 2.500623 1_455
Cu11 Cu5 2.478792 1_555
Cu11 Cu3 2.478792 1_545
Cu11 Cu6 2.478793 1_555
Cu11 Cu4 2.478793 1_545
Cu11 Cu8 2.500626 1_555
Cu11 Cu12 2.500626 1_545
Cu11 Cu17 2.500626 1_555
Cu11 Cu9 2.500626 1_545
Cu12 Cu14 2.518157 1_554
Cu12 Cu13 2.518161 1_555
Cu12 Cu6 2.609700 1_565
Cu12 Cu3 2.609709 1_555
Cu12 Cu9 2.762590 1_555
Cu12 Sr1 3.417298 1_555
Cu12 Sr0 3.417309 1_555
Cu13 Cu8 2.518157 1_554
Cu13 Cu15 2.762578 1_555
Cu13 Sr1 3.417306 1_555
Cu13 Sr0 3.417306 1_555
Cu14 Cu8 2.518161 1_555
Cu14 Cu2 2.609699 1_455
Cu14 Cu7 2.609708 1_555
Cu14 Cu16 2.762578 1_555
Cu14 Sr0 3.417306 1_556
Cu14 Sr1 3.417306 1_556
Cu15 Cu9 2.518157 1_544
Cu15 Cu17 2.518161 1_655
Cu15 Sr0 3.417306 1_655
Cu15 Sr1 3.417306 1_545
Cu16 Cu17 2.518157 1_566
Cu16 Cu9 2.518161 1_455
Cu16 Cu2 2.609699 1_455
Cu16 Cu7 2.609708 1_555
Cu16 Sr1 3.417306 1_456
Cu16 Sr0 3.417306 1_566
Cu17 Cu5 2.609700 1_555
Cu17 Cu4 2.609709 1_545
Cu17 Cu8 2.762590 1_555
Cu17 Sr0 3.417298 1_555
Cu17 Sr1 3.417309 1_445
