# generated using pymatgen
data_Zr10Ga4P2S
_symmetry_space_group_name_H-M   'P 1'
_cell_length_a   8.08562193
_cell_length_b   8.08943316
_cell_length_c   5.67786505
_cell_angle_alpha   90.21929176
_cell_angle_beta   89.56120662
_cell_angle_gamma   119.98443232
_symmetry_Int_Tables_number   1
_chemical_formula_structural   Zr10Ga4P2S
_chemical_formula_sum   'Zr10 Ga4 P2 S1'
_cell_volume   321.66409764
_cell_formula_units_Z   1
loop_
 _symmetry_equiv_pos_site_id
 _symmetry_equiv_pos_as_xyz
  1  'x, y, z'
loop_
 _atom_site_type_symbol
 _atom_site_label
 _atom_site_symmetry_multiplicity
 _atom_site_fract_x
 _atom_site_fract_y
 _atom_site_fract_z
 _atom_site_occupancy
  Zr  Zr0  1  0.99515720  0.73786121  0.24273054  1
  Zr  Zr1  1  0.25729599  0.26213879  0.24273054  1
  Zr  Zr2  1  0.74779398  1.00000000  0.24005954  1
  Zr  Zr3  1  0.99934979  0.25891381  0.76143906  1
  Zr  Zr4  1  0.74043598  0.74108619  0.76143906  1
  Zr  Zr5  1  0.25424760  0.00000000  0.76509248  1
  Zr  Zr6  1  0.33273198  0.65969692  0.49790920  1
  Zr  Zr7  1  0.67303607  0.34030308  0.49790920  1
  Zr  Zr8  1  0.67001544  0.33826778  0.00029319  1
  Zr  Zr9  1  0.33174666  0.66173222  0.00029319  1
  Ga  Ga0  1  0.39295899  0.00000000  0.25396806  1
  Ga  Ga1  1  0.00242081  0.61273842  0.74991292  1
  Ga  Ga2  1  0.38968239  0.38726158  0.74991292  1
  Ga  Ga3  1  0.60490230  0.00000000  0.74932847  1
  P  P0  1  0.99883965  0.39015970  0.24178564  1
  P  P1  1  0.60868095  0.60984030  0.24178564  1
  S  S0  1  0.00070422  1.00000000  0.50340932  1
loop_
_geom_bond_atom_site_label_1
_geom_bond_atom_site_label_2
_geom_bond_distance
_geom_bond_site_symmetry_2
Ga0 Zr0 2.833927 1_445
Ga0 Zr1 2.833927 1_555
Ga0 Zr2 2.869544 1_545
Ga0 Zr6 2.900465 1_545
Ga0 Zr7 2.900467 1_555
Ga0 Zr9 2.904206 1_545
Ga0 Zr8 2.904208 1_555
Ga0 Zr5 3.001749 1_554
Ga0 Zr5 3.103259 1_555
Ga1 Zr5 2.755405 1_565
Ga1 Zr4 2.786608 1_455
Ga1 Zr3 2.850910 1_455
Ga1 Zr7 2.857420 1_455
Ga1 Zr8 2.859277 1_456
Ga1 Zr6 2.873360 1_555
Ga1 Zr9 2.875315 1_556
Ga1 Zr0 2.982083 1_456
Ga1 Zr0 3.066759 1_455
Ga2 Zr5 2.755405 1_555
Ga2 Zr3 2.786608 1_455
Ga2 Zr4 2.850910 1_555
Ga2 Zr6 2.857425 1_555
Ga2 Zr9 2.859282 1_556
Ga2 Zr7 2.873367 1_555
Ga2 Zr8 2.875322 1_556
Ga2 Zr1 2.982083 1_556
Ga2 Zr1 3.066759 1_555
Ga3 Zr3 2.808718 1_555
Ga3 Zr4 2.808719 1_545
Ga3 Zr5 2.835989 1_555
Ga3 Zr8 2.887415 1_556
Ga3 Zr9 2.887417 1_546
Ga3 Zr7 2.902024 1_555
Ga3 Zr6 2.902026 1_545
Ga3 Zr2 3.024513 1_546
Ga3 Zr2 3.105612 1_545
P0 Zr1 2.757375 1_655
P0 Zr2 2.770982 1_545
P0 Zr0 2.827690 1_555
P0 Zr9 2.829797 1_655
P0 Zr8 2.839211 1_555
P0 Zr7 2.846223 1_555
P0 Zr6 2.882642 1_655
P0 Zr3 2.923641 1_554
P0 Zr3 3.140280 1_555
P1 Zr0 2.757367 1_555
P1 Zr2 2.770983 1_555
P1 Zr1 2.827694 1_555
P1 Zr8 2.829798 1_555
P1 Zr9 2.839225 1_555
P1 Zr6 2.846237 1_555
P1 Zr7 2.882642 1_555
P1 Zr4 2.923639 1_554
P1 Zr4 3.140278 1_555
S0 Zr5 2.541061 1_565
S0 Zr2 2.542521 1_455
S0 Zr4 2.555874 1_455
S0 Zr3 2.555875 1_465
S0 Zr1 2.563470 1_565
S0 Zr0 2.563471 1_455
