# generated using pymatgen
data_Sc2Ni2Sn
_symmetry_space_group_name_H-M   'P 1'
_cell_length_a   3.39105258
_cell_length_b   7.06097638
_cell_length_c   7.06097638
_cell_angle_alpha   90.00000000
_cell_angle_beta   90.00000000
_cell_angle_gamma   90.00000000
_symmetry_Int_Tables_number   1
_chemical_formula_structural   Sc2Ni2Sn
_chemical_formula_sum   'Sc4 Ni4 Sn2'
_cell_volume   169.06902231
_cell_formula_units_Z   2
loop_
 _symmetry_equiv_pos_site_id
 _symmetry_equiv_pos_as_xyz
  1  'x, y, z'
loop_
 _atom_site_type_symbol
 _atom_site_label
 _atom_site_symmetry_multiplicity
 _atom_site_fract_x
 _atom_site_fract_y
 _atom_site_fract_z
 _atom_site_occupancy
  Sc  Sc0  1  0.50000000  0.17087965  0.67087965  1
  Sc  Sc1  1  0.50000000  0.32912035  0.17087965  1
  Sc  Sc2  1  0.50000000  0.67087965  0.82912035  1
  Sc  Sc3  1  0.50000000  0.82912035  0.32912035  1
  Ni  Ni0  1  -0.00000000  0.37748049  0.87748049  1
  Ni  Ni1  1  0.00000000  0.12251951  0.37748049  1
  Ni  Ni2  1  -0.00000000  0.87748049  0.62251951  1
  Ni  Ni3  1  0.00000000  0.62251951  0.12251951  1
  Sn  Sn0  1  0.00000000  0.00000000  0.00000000  1
  Sn  Sn1  1  0.00000000  0.50000000  0.50000000  1
loop_
_geom_bond_atom_site_label_1
_geom_bond_atom_site_label_2
_geom_bond_distance
_geom_bond_site_symmetry_2
Sc0 Sn0 3.119487 1_556
Sc0 Sn0 3.119487 1_656
Sc0 Sn1 3.119487 1_655
Sc0 Sn1 3.119487 1_555
Sc1 Sn0 3.119487 1_555
Sc1 Sn1 3.119487 1_655
Sc1 Sn0 3.119487 1_655
Sc1 Sn1 3.119487 1_555
Sc2 Sn0 3.119487 1_666
Sc2 Sn1 3.119487 1_655
Sc2 Sn0 3.119487 1_566
Sc2 Sn1 3.119487 1_555
Sc3 Sn1 3.119487 1_555
Sc3 Sn1 3.119487 1_655
Sc3 Sn0 3.119487 1_565
Sc3 Sn0 3.119487 1_665
Ni0 Ni3 2.446893 1_556
Ni0 Sc0 2.670398 1_455
Ni0 Sc0 2.670398 1_555
Ni0 Sc2 2.698757 1_555
Ni0 Sc1 2.698757 1_456
Ni0 Sc1 2.698757 1_556
Ni0 Sc2 2.698757 1_455
Ni0 Sn1 2.802261 1_555
Ni0 Sn0 2.802261 1_556
Ni1 Ni2 2.446893 1_545
Ni1 Sc1 2.670398 1_455
Ni1 Sc1 2.670398 1_555
Ni1 Sc3 2.698757 1_445
Ni1 Sc3 2.698757 1_545
Ni1 Sc0 2.698757 1_555
Ni1 Sc0 2.698757 1_455
Ni1 Sn1 2.802261 1_555
Ni1 Sn0 2.802261 1_555
Ni2 Sc2 2.670398 1_455
Ni2 Sc2 2.670398 1_555
Ni2 Sc3 2.698757 1_555
Ni2 Sc0 2.698757 1_565
Ni2 Sc3 2.698757 1_455
Ni2 Sc0 2.698757 1_465
Ni2 Sn0 2.802261 1_566
Ni2 Sn1 2.802261 1_555
Ni3 Sc3 2.670398 1_555
Ni3 Sc3 2.670398 1_455
Ni3 Sc1 2.698757 1_455
Ni3 Sc1 2.698757 1_555
Ni3 Sc2 2.698757 1_554
Ni3 Sc2 2.698757 1_454
Ni3 Sn0 2.802261 1_565
Ni3 Sn1 2.802261 1_555
