# generated using pymatgen
data_Ti3Si2RhC
_symmetry_space_group_name_H-M   'P 1'
_cell_length_a   8.00447693
_cell_length_b   8.00689104
_cell_length_c   8.00617864
_cell_angle_alpha   60.00696800
_cell_angle_beta   59.99773388
_cell_angle_gamma   60.00092534
_symmetry_Int_Tables_number   1
_chemical_formula_structural   Ti3Si2RhC
_chemical_formula_sum   'Ti12 Si8 Rh4 C4'
_cell_volume   362.84873823
_cell_formula_units_Z   4
loop_
 _symmetry_equiv_pos_site_id
 _symmetry_equiv_pos_as_xyz
  1  'x, y, z'
loop_
 _atom_site_type_symbol
 _atom_site_label
 _atom_site_symmetry_multiplicity
 _atom_site_fract_x
 _atom_site_fract_y
 _atom_site_fract_z
 _atom_site_occupancy
  Ti  Ti0  1  0.93833187  0.93806032  0.56175374  1
  Ti  Ti1  1  0.68833638  0.31184083  0.31169640  1
  Ti  Ti2  1  0.31170926  0.68814327  0.68827958  1
  Ti  Ti3  1  0.68832937  0.68808201  0.31178825  1
  Ti  Ti4  1  0.68830149  0.31181759  0.68818050  1
  Ti  Ti5  1  0.31179954  0.68814746  0.31186830  1
  Ti  Ti6  1  0.56169851  0.93818241  0.56181950  1
  Ti  Ti7  1  0.56166362  0.93815917  0.93830360  1
  Ti  Ti8  1  0.93829074  0.56185673  0.56172042  1
  Ti  Ti9  1  0.93820046  0.56185254  0.93813170  1
  Ti  Ti10  1  0.31166813  0.31193968  0.68824626  1
  Ti  Ti11  1  0.56167063  0.56191799  0.93821175  1
  Si  Si0  1  0.91424860  0.25735721  0.91418152  1
  Si  Si1  1  0.33574884  0.33584772  0.99263557  1
  Si  Si2  1  0.99269179  0.33580698  0.33575722  1
  Si  Si3  1  0.33572784  0.33581907  0.33577525  1
  Si  Si4  1  0.25730821  0.91419302  0.91424278  1
  Si  Si5  1  0.91427216  0.91418093  0.91422475  1
  Si  Si6  1  0.91425116  0.91415228  0.25736443  1
  Si  Si7  1  0.33575140  0.99264279  0.33581848  1
  Rh  Rh0  1  0.12500000  0.62500000  0.12500000  1
  Rh  Rh1  1  0.12500000  0.12500000  0.62500000  1
  Rh  Rh2  1  0.62500000  0.12500000  0.12500000  1
  Rh  Rh3  1  0.12500000  0.12500000  0.12500000  1
  C  C0  1  0.62500000  0.12500000  0.62500000  1
  C  C1  1  0.62500000  0.62500000  0.12500000  1
  C  C2  1  0.12500000  0.62500000  0.62500000  1
  C  C3  1  0.62500000  0.62500000  0.62500000  1
loop_
_geom_bond_atom_site_label_1
_geom_bond_atom_site_label_2
_geom_bond_distance
_geom_bond_site_symmetry_2
Si0 Ti9 2.643718 1_555
Si0 Ti8 2.644208 1_555
Si0 Ti11 2.644354 1_555
Si0 Si4 2.746884 1_645
Si0 Si5 2.747508 1_545
Si0 Si6 2.748083 1_546
Si0 Ti10 2.903074 1_655
Si0 Ti4 2.903499 1_555
Si0 Ti1 2.903936 1_556
Si1 Ti2 2.643034 1_555
Si1 Ti10 2.643072 1_555
Si1 Ti4 2.643671 1_555
Si1 Si2 2.746449 1_456
Si1 Si3 2.747039 1_556
Si1 Si7 2.748083 1_546
Si1 Ti9 2.903820 1_455
Si1 Ti11 2.904029 1_555
Si1 Ti7 2.904974 1_545
Si2 Ti1 2.642499 1_555
Si2 Ti3 2.642523 1_555
Si2 Ti4 2.643018 1_555
Si2 Si3 2.745945 1_655
Si2 Si7 2.746884 1_645
Si2 Ti8 2.904506 1_555
Si2 Ti9 2.905014 1_554
Si2 Ti0 2.905649 1_545
Si3 Ti5 2.643516 1_555
Si3 Ti10 2.644031 1_555
Si3 Ti1 2.644091 1_555
Si3 Si7 2.747508 1_545
Si3 Ti8 2.903277 1_455
Si3 Ti11 2.904393 1_554
Si3 Ti6 2.904808 1_545
Si4 Ti7 2.642499 1_555
Si4 Ti11 2.642523 1_555
Si4 Ti6 2.643018 1_555
Si4 Si5 2.745945 1_455
Si4 Si6 2.746449 1_456
Si4 Ti2 2.904506 1_555
Si4 Ti5 2.905014 1_556
Si4 Ti10 2.905649 1_565
Si5 Ti9 2.643516 1_555
Si5 Ti0 2.644031 1_555
Si5 Ti7 2.644091 1_555
Si5 Si6 2.747039 1_556
Si5 Ti2 2.903277 1_655
Si5 Ti3 2.904393 1_556
Si5 Ti4 2.904808 1_565
Si6 Ti8 2.643034 1_555
Si6 Ti0 2.643072 1_555
Si6 Ti6 2.643671 1_555
Si6 Ti5 2.903820 1_655
Si6 Ti3 2.904029 1_555
Si6 Ti1 2.904974 1_565
Si7 Ti5 2.643718 1_555
Si7 Ti2 2.644208 1_555
Si7 Ti3 2.644354 1_555
Si7 Ti0 2.903074 1_455
Si7 Ti6 2.903499 1_555
Si7 Ti7 2.903936 1_554
Rh0 Si6 2.467519 1_455
Rh0 Si1 2.467519 1_554
Rh0 Si3 2.467538 1_555
Rh0 Si5 2.467538 1_454
Rh0 Si4 2.467643 1_554
Rh0 Si2 2.467643 1_455
Rh0 Ti11 2.910514 1_554
Rh0 Ti3 2.910514 1_455
Rh0 Ti8 2.911488 1_455
Rh0 Ti2 2.911488 1_554
Rh0 Ti5 2.911896 1_555
Rh0 Ti9 2.911896 1_454
Rh1 Si7 2.467521 1_545
Rh1 Si0 2.467521 1_455
Rh1 Si3 2.467722 1_555
Rh1 Si5 2.467722 1_445
Rh1 Si4 2.467882 1_545
Rh1 Si2 2.467882 1_455
Rh1 Ti6 2.910636 1_545
Rh1 Ti4 2.910636 1_455
Rh1 Ti10 2.912087 1_555
Rh1 Ti0 2.912087 1_445
Rh1 Ti8 2.912612 1_455
Rh1 Ti2 2.912612 1_545
Rh2 Si0 2.467714 1_554
Rh2 Si7 2.467714 1_545
Rh2 Si6 2.467835 1_545
Rh2 Si1 2.467835 1_554
Rh2 Si3 2.467854 1_555
Rh2 Si5 2.467854 1_544
Rh2 Ti6 2.912145 1_545
Rh2 Ti4 2.912145 1_554
Rh2 Ti1 2.912250 1_555
Rh2 Ti7 2.912250 1_544
Rh2 Ti11 2.913092 1_554
Rh2 Ti3 2.913092 1_545
Rh3 Si7 2.467630 1_545
Rh3 Si0 2.467630 1_454
Rh3 Si1 2.467844 1_554
Rh3 Si6 2.467844 1_445
Rh3 Si2 2.467925 1_455
Rh3 Si4 2.467925 1_544
Rh3 Ti1 2.910525 1_455
Rh3 Ti7 2.910525 1_544
Rh3 Ti0 2.911808 1_445
Rh3 Ti10 2.911808 1_554
Rh3 Ti9 2.912748 1_454
Rh3 Ti5 2.912748 1_545
C0 Ti4 2.126222 1_555
C0 Ti6 2.126222 1_545
C0 Ti0 2.126242 1_545
C0 Ti10 2.126242 1_555
C0 Ti7 2.126469 1_545
C0 Ti1 2.126469 1_555
C1 Ti9 2.125276 1_554
C1 Ti5 2.125276 1_555
C1 Ti3 2.125519 1_555
C1 Ti11 2.125519 1_554
C1 Ti1 2.125554 1_555
C1 Ti7 2.125554 1_554
C2 Ti10 2.124759 1_555
C2 Ti0 2.124759 1_455
C2 Ti2 2.124787 1_555
C2 Ti8 2.124787 1_455
C2 Ti9 2.125149 1_455
C2 Ti5 2.125149 1_555
C3 Ti6 2.125639 1_555
C3 Ti4 2.125639 1_555
C3 Ti8 2.125718 1_555
C3 Ti2 2.125718 1_555
C3 Ti11 2.125737 1_555
C3 Ti3 2.125737 1_555
