# generated using pymatgen
data_CaNb2F12
_symmetry_space_group_name_H-M   'P 1'
_cell_length_a   11.37583883
_cell_length_b   5.78153656
_cell_length_c   5.66199845
_cell_angle_alpha   54.45298603
_cell_angle_beta   55.19358732
_cell_angle_gamma   54.37720035
_symmetry_Int_Tables_number   1
_chemical_formula_structural   CaNb2F12
_chemical_formula_sum   'Ca1 Nb2 F12'
_cell_volume   230.61489640
_cell_formula_units_Z   1
loop_
 _symmetry_equiv_pos_site_id
 _symmetry_equiv_pos_as_xyz
  1  'x, y, z'
loop_
 _atom_site_type_symbol
 _atom_site_label
 _atom_site_symmetry_multiplicity
 _atom_site_fract_x
 _atom_site_fract_y
 _atom_site_fract_z
 _atom_site_occupancy
  Ca  Ca0  1  0.75000000  0.50000000  0.50000000  1
  Nb  Nb0  1  0.03177406  0.95585162  0.00246684  1
  Nb  Nb1  1  0.46822594  0.04414838  0.99753316  1
  F  F0  1  0.20566551  0.06089298  0.76261652  1
  F  F1  1  0.66684127  0.11138950  0.78013013  1
  F  F2  1  0.05084712  0.75065857  0.39229342  1
  F  F3  1  0.54143032  0.78394081  0.35249937  1
  F  F4  1  0.12476209  0.59893486  0.92596503  1
  F  F5  1  0.60263271  0.66920463  0.89500551  1
  F  F6  1  0.44915288  0.24934143  0.60770658  1
  F  F7  1  0.95856968  0.21605919  0.64750063  1
  F  F8  1  0.29433449  0.93910702  0.23738348  1
  F  F9  1  0.83315873  0.88861050  0.21986987  1
  F  F10  1  0.37523791  0.40106514  0.07403497  1
  F  F11  1  0.89736729  0.33079537  0.10499449  1
loop_
_geom_bond_atom_site_label_1
_geom_bond_atom_site_label_2
_geom_bond_distance
_geom_bond_site_symmetry_2
Ca0 F1 2.253448 1_555
Ca0 F9 2.253448 1_555
Ca0 F5 2.263333 1_555
Ca0 F11 2.263333 1_555
Ca0 F7 2.269942 1_555
Ca0 F3 2.269942 1_555
F0 Nb0 1.870784 1_546
F1 Nb1 2.015698 1_555
F2 Nb0 1.878417 1_555
F3 Nb1 1.982871 1_564
F4 Nb0 1.881005 1_556
F5 Nb1 1.990692 1_565
F6 Nb1 1.878417 1_555
F7 Nb0 1.982871 1_646
F8 Nb1 1.870784 1_564
F9 Nb0 2.015698 1_655
F10 Nb1 1.881005 1_554
F11 Nb0 1.990692 1_645
