# generated using pymatgen
data_BaSrBC11
_symmetry_space_group_name_H-M   'P 1'
_cell_length_a   4.37660469
_cell_length_b   4.37909574
_cell_length_c   10.17377498
_cell_angle_alpha   91.33073447
_cell_angle_beta   89.88447336
_cell_angle_gamma   119.98495105
_symmetry_Int_Tables_number   1
_chemical_formula_structural   BaSrBC11
_chemical_formula_sum   'Ba1 Sr1 B1 C11'
_cell_volume   168.83270388
_cell_formula_units_Z   1
loop_
 _symmetry_equiv_pos_site_id
 _symmetry_equiv_pos_as_xyz
  1  'x, y, z'
loop_
 _atom_site_type_symbol
 _atom_site_label
 _atom_site_symmetry_multiplicity
 _atom_site_fract_x
 _atom_site_fract_y
 _atom_site_fract_z
 _atom_site_occupancy
  Ba  Ba0  1  0.68250433  0.34948326  0.74540159  1
  Sr  Sr0  1  0.33354473  0.64381464  0.25301582  1
  B  B0  1  0.32921853  0.00200177  0.01119988  1
  C  C0  1  0.67488563  0.00172903  0.01102873  1
  C  C1  1  0.99610645  0.33471226  0.01014271  1
  C  C2  1  0.66754431  0.99934046  0.48935545  1
  C  C3  1  0.98511277  0.65664985  0.01271969  1
  C  C4  1  0.33431786  0.99936262  0.48918477  1
  C  C5  1  0.66315937  0.66869657  0.01027293  1
  C  C6  1  0.00075388  0.66565390  0.48894498  1
  C  C7  1  0.33017386  0.34691159  0.00835470  1
  C  C8  1  0.00091097  0.33281298  0.48935928  1
  C  C9  1  0.33441920  0.33301402  0.49065539  1
  C  C10  1  0.66735112  0.66581306  0.49036408  1
loop_
_geom_bond_atom_site_label_1
_geom_bond_atom_site_label_2
_geom_bond_distance
_geom_bond_site_symmetry_2
Ba0 C8 2.968347 1_655
Ba0 C2 2.975893 1_545
Ba0 C6 2.981629 1_655
Ba0 C10 2.985831 1_555
Ba0 C9 2.990072 1_555
Ba0 C4 2.993794 1_545
Ba0 C3 3.003951 1_556
Ba0 C5 3.027415 1_556
Ba0 C1 3.042073 1_556
Ba0 C7 3.082558 1_556
Ba0 C0 3.124635 1_556
B0 C7 1.509258 1_555
B0 C3 1.509933 1_445
B0 C0 1.513443 1_555
B0 Sr0 2.953347 1_545
B0 Ba0 3.137077 1_554
C0 C5 1.433261 1_545
C0 C1 1.433276 1_555
C0 Sr0 2.928034 1_545
C1 C3 1.434087 1_555
C1 C7 1.436221 1_655
C1 Sr0 2.824893 1_655
C2 C4 1.458453 1_555
C2 C8 1.459993 1_665
C2 Sr0 2.812057 1_555
C3 C5 1.436441 1_555
C3 Sr0 2.900408 1_655
C4 C9 1.460599 1_565
C4 C6 1.460893 1_555
C4 Sr0 2.831662 1_555
C5 C7 1.433898 1_555
C5 Sr0 2.834245 1_555
C6 C8 1.457990 1_555
C6 Sr0 2.829555 1_555
C7 Sr0 2.777961 1_555
C8 C9 1.459280 1_555
C8 Sr0 2.812832 1_555
C9 Sr0 2.802805 1_555
C10 C9 1.457632 1_555
C10 C6 1.459563 1_655
C10 C2 1.460400 1_555
C10 Sr0 2.799514 1_555
