# generated using pymatgen
data_ZnCu2Ni
_symmetry_space_group_name_H-M   'P 1'
_cell_length_a   3.54555656
_cell_length_b   3.54555656
_cell_length_c   3.66163231
_cell_angle_alpha   90.00000000
_cell_angle_beta   90.00000000
_cell_angle_gamma   90.00000000
_symmetry_Int_Tables_number   1
_chemical_formula_structural   ZnCu2Ni
_chemical_formula_sum   'Zn1 Cu2 Ni1'
_cell_volume   46.03027475
_cell_formula_units_Z   1
loop_
 _symmetry_equiv_pos_site_id
 _symmetry_equiv_pos_as_xyz
  1  'x, y, z'
loop_
 _atom_site_type_symbol
 _atom_site_label
 _atom_site_symmetry_multiplicity
 _atom_site_fract_x
 _atom_site_fract_y
 _atom_site_fract_z
 _atom_site_occupancy
  Zn  Zn0  1  0.50000000  0.50000000  0.00000000  1
  Cu  Cu0  1  -0.00000000  0.50000000  0.50000000  1
  Cu  Cu1  1  0.50000000  0.00000000  0.50000000  1
  Ni  Ni0  1  -0.00000000  0.00000000  -0.00000000  1
loop_
_geom_bond_atom_site_label_1
_geom_bond_atom_site_label_2
_geom_bond_distance
_geom_bond_site_symmetry_2
Cu0 Cu1 2.507087 1_565
Cu0 Cu1 2.507087 1_555
Cu0 Cu1 2.507087 1_455
Cu0 Cu1 2.507087 1_465
Cu0 Zn0 2.548457 1_555
Cu0 Ni0 2.548457 1_556
Cu0 Zn0 2.548457 1_456
Cu0 Zn0 2.548457 1_455
Cu0 Ni0 2.548457 1_555
Cu0 Ni0 2.548457 1_565
Cu0 Zn0 2.548457 1_556
Cu0 Ni0 2.548457 1_566
Cu1 Zn0 2.548457 1_555
Cu1 Ni0 2.548457 1_556
Cu1 Zn0 2.548457 1_546
Cu1 Ni0 2.548457 1_656
Cu1 Ni0 2.548457 1_555
Cu1 Zn0 2.548457 1_556
Cu1 Ni0 2.548457 1_655
Cu1 Zn0 2.548457 1_545
Ni0 Zn0 2.507087 1_555
Ni0 Zn0 2.507087 1_545
Ni0 Zn0 2.507087 1_455
Ni0 Zn0 2.507087 1_445
