# generated using pymatgen
data_NaSrCuF6
_symmetry_space_group_name_H-M   'P 1'
_cell_length_a   5.35949296
_cell_length_b   9.12242450
_cell_length_c   10.18432105
_cell_angle_alpha   90.00000000
_cell_angle_beta   90.00000000
_cell_angle_gamma   90.00000000
_symmetry_Int_Tables_number   1
_chemical_formula_structural   NaSrCuF6
_chemical_formula_sum   'Na4 Sr4 Cu4 F24'
_cell_volume   497.92744391
_cell_formula_units_Z   4
loop_
 _symmetry_equiv_pos_site_id
 _symmetry_equiv_pos_as_xyz
  1  'x, y, z'
loop_
 _atom_site_type_symbol
 _atom_site_label
 _atom_site_symmetry_multiplicity
 _atom_site_fract_x
 _atom_site_fract_y
 _atom_site_fract_z
 _atom_site_occupancy
  Na  Na0  1  0.04623614  0.65109769  0.08942930  1
  Na  Na1  1  0.45376386  0.34890231  0.58942930  1
  Na  Na2  1  0.95376386  0.15109769  0.41057070  1
  Na  Na3  1  0.54623614  0.84890231  0.91057070  1
  Sr  Sr0  1  0.50248264  0.31844404  0.17850833  1
  Sr  Sr1  1  0.99751736  0.68155596  0.67850833  1
  Sr  Sr2  1  0.49751736  0.81844404  0.32149167  1
  Sr  Sr3  1  0.00248264  0.18155596  0.82149167  1
  Cu  Cu0  1  0.04987121  0.00228707  0.12741793  1
  Cu  Cu1  1  0.45012879  0.99771293  0.62741793  1
  Cu  Cu2  1  0.95012879  0.50228707  0.37258207  1
  Cu  Cu3  1  0.54987121  0.49771293  0.87258207  1
  F  F0  1  0.19609174  0.13919040  0.58623837  1
  F  F1  1  0.30390826  0.86080960  0.08623837  1
  F  F2  1  0.80390826  0.63919040  0.91376163  1
  F  F3  1  0.69609174  0.36080960  0.41376163  1
  F  F4  1  0.20794647  0.61916226  0.30198371  1
  F  F5  1  0.29205353  0.38083774  0.80198371  1
  F  F6  1  0.79205353  0.11916226  0.19801629  1
  F  F7  1  0.70794647  0.88083774  0.69801629  1
  F  F8  1  0.21682785  0.16093928  0.04349522  1
  F  F9  1  0.28317215  0.83906072  0.54349522  1
  F  F10  1  0.78317215  0.66093928  0.45650478  1
  F  F11  1  0.71682785  0.33906072  0.95650478  1
  F  F12  1  0.11851788  0.34161492  0.29881266  1
  F  F13  1  0.38148212  0.65838508  0.79881266  1
  F  F14  1  0.88148212  0.84161492  0.20118734  1
  F  F15  1  0.61851788  0.15838508  0.70118734  1
  F  F16  1  0.37325848  0.52158676  0.03106643  1
  F  F17  1  0.12674152  0.47841324  0.53106643  1
  F  F18  1  0.62674152  0.02158676  0.46893357  1
  F  F19  1  0.87325848  0.97841324  0.96893357  1
  F  F20  1  0.23731303  0.03877974  0.28140807  1
  F  F21  1  0.26268697  0.96122026  0.78140807  1
  F  F22  1  0.76268697  0.53877974  0.21859193  1
  F  F23  1  0.73731303  0.46122026  0.71859193  1
loop_
_geom_bond_atom_site_label_1
_geom_bond_atom_site_label_2
_geom_bond_distance
_geom_bond_site_symmetry_2
Cu0 F14 1.878096 1_445
Cu0 F19 1.883765 1_444
Cu0 F6 1.887591 1_455
Cu0 F20 1.891970 1_555
Cu0 F8 1.904162 1_555
Cu0 F1 1.922313 1_545
Cu1 F15 1.878096 1_565
Cu1 F18 1.883765 1_565
Cu1 F7 1.887591 1_555
Cu1 F21 1.891970 1_555
Cu1 F9 1.904162 1_555
Cu1 F0 1.922313 1_565
Cu2 F12 1.878096 1_655
Cu2 F17 1.883765 1_655
Cu2 F4 1.887591 1_655
Cu2 F22 1.891970 1_555
Cu2 F10 1.904162 1_555
Cu2 F3 1.922313 1_555
Cu3 F13 1.878096 1_555
Cu3 F16 1.883765 1_556
Cu3 F5 1.887591 1_555
Cu3 F23 1.891970 1_555
Cu3 F11 1.904162 1_555
Cu3 F2 1.922313 1_555
F0 Na2 2.213433 1_455
F0 Na1 2.359677 1_555
F0 Sr3 2.639392 1_555
F1 Na3 2.213433 1_554
F1 Na0 2.359677 1_555
F1 Sr2 2.639392 1_555
F2 Na0 2.213433 1_656
F2 Na3 2.359677 1_555
F2 Sr1 2.639392 1_555
F3 Na1 2.213433 1_555
F3 Na2 2.359677 1_555
F3 Sr0 2.639392 1_555
F4 Na0 2.349902 1_555
F4 Sr2 2.398523 1_555
F5 Na1 2.349902 1_555
F5 Sr3 2.398523 1_555
F6 Na2 2.349902 1_555
F6 Sr0 2.398523 1_555
F7 Na3 2.349902 1_555
F7 Sr1 2.398523 1_555
F8 Sr0 2.509779 1_555
F8 Sr3 2.543028 1_554
F9 Sr1 2.509779 1_455
F9 Sr2 2.543028 1_555
F10 Sr2 2.509779 1_555
F10 Sr1 2.543028 1_555
F11 Sr3 2.509779 1_655
F11 Sr0 2.543028 1_556
F12 Na2 2.257368 1_455
F12 Sr0 2.404290 1_555
F13 Na3 2.257368 1_555
F13 Sr1 2.404290 1_455
F14 Na0 2.257368 1_655
F14 Sr2 2.404290 1_555
F15 Na1 2.257368 1_555
F15 Sr3 2.404290 1_655
F16 Na0 2.195676 1_555
F16 Sr0 2.483673 1_555
F17 Na1 2.195676 1_555
F17 Sr1 2.483673 1_455
F18 Na2 2.195676 1_555
F18 Sr2 2.483673 1_545
F19 Na3 2.195676 1_555
F19 Sr3 2.483673 1_665
F20 Na2 2.256019 1_455
F20 Sr2 2.480229 1_545
F21 Na3 2.256019 1_555
F21 Sr3 2.480229 1_565
F22 Na0 2.256019 1_655
F22 Sr0 2.480229 1_555
F23 Na1 2.256019 1_555
F23 Sr1 2.480229 1_555
