# generated using pymatgen
data_VNiB3W2
_symmetry_space_group_name_H-M   'P 1'
_cell_length_a   4.43111837
_cell_length_b   4.43111752
_cell_length_c   10.64086679
_cell_angle_alpha   90.00000000
_cell_angle_beta   90.00000000
_cell_angle_gamma   138.39439302
_symmetry_Int_Tables_number   1
_chemical_formula_structural   VNiB3W2
_chemical_formula_sum   'V2 Ni2 B6 W4'
_cell_volume   138.73029385
_cell_formula_units_Z   2
loop_
 _symmetry_equiv_pos_site_id
 _symmetry_equiv_pos_as_xyz
  1  'x, y, z'
loop_
 _atom_site_type_symbol
 _atom_site_label
 _atom_site_symmetry_multiplicity
 _atom_site_fract_x
 _atom_site_fract_y
 _atom_site_fract_z
 _atom_site_occupancy
  V  V0  1  0.49978746  0.50021254  0.25000000  1
  V  V1  1  0.50021254  0.49978746  0.75000000  1
  Ni  Ni0  1  0.50000000  0.50000000  0.50000000  1
  Ni  Ni1  1  0.50000000  0.50000000  0.00000000  1
  B  B0  1  0.08404099  0.91595901  0.39201403  1
  B  B1  1  0.91595901  0.08404099  0.60798597  1
  B  B2  1  0.08404099  0.91595901  0.10798597  1
  B  B3  1  0.91595901  0.08404099  0.89201403  1
  B  B4  1  0.20628959  0.79371041  0.25000000  1
  B  B5  1  0.79371041  0.20628959  0.75000000  1
  W  W0  1  0.78979986  0.21020014  0.39152400  1
  W  W1  1  0.21020014  0.78979986  0.60847600  1
  W  W2  1  0.78979986  0.21020014  0.10847600  1
  W  W3  1  0.21020014  0.78979986  0.89152400  1
loop_
_geom_bond_atom_site_label_1
_geom_bond_atom_site_label_2
_geom_bond_distance
_geom_bond_site_symmetry_2
V0 W0 2.787616 1_565
V0 W2 2.787616 1_565
V0 W2 2.787617 1_455
V0 W0 2.787617 1_455
V1 W1 2.787616 1_545
V1 W3 2.787616 1_545
V1 W1 2.787617 1_655
V1 W3 2.787617 1_655
Ni0 W0 2.615615 1_565
Ni0 W1 2.615615 1_545
Ni0 W1 2.615616 1_655
Ni0 W0 2.615616 1_455
Ni0 W0 2.663909 1_555
Ni0 W1 2.663909 1_555
Ni1 W2 2.615615 1_565
Ni1 W3 2.615615 1_544
Ni1 W3 2.615616 1_654
Ni1 W2 2.615616 1_455
Ni1 W3 2.663909 1_554
Ni1 W2 2.663909 1_555
B0 B4 1.819143 1_555
B0 Ni0 2.069227 1_565
B0 Ni0 2.069227 1_455
B0 V0 2.290718 1_565
B0 V0 2.290718 1_455
B0 W0 2.319982 1_455
B0 W0 2.319983 1_565
B0 W0 2.437644 1_465
B0 W1 2.529379 1_555
B1 B5 1.819143 1_555
B1 Ni0 2.069227 1_545
B1 Ni0 2.069227 1_655
B1 V1 2.290718 1_545
B1 V1 2.290718 1_655
B1 W1 2.319982 1_655
B1 W1 2.319983 1_545
B1 W1 2.437644 1_645
B1 W0 2.529379 1_555
B2 B4 1.819143 1_555
B2 Ni1 2.069227 1_565
B2 Ni1 2.069227 1_455
B2 V0 2.290718 1_565
B2 V0 2.290718 1_455
B2 W2 2.319982 1_455
B2 W2 2.319983 1_565
B2 W2 2.437644 1_465
B2 W3 2.529379 1_554
B3 B5 1.819143 1_555
B3 Ni1 2.069227 1_546
B3 Ni1 2.069227 1_656
B3 V1 2.290718 1_545
B3 V1 2.290718 1_655
B3 W3 2.319982 1_655
B3 W3 2.319983 1_545
B3 W3 2.437644 1_645
B3 W2 2.529379 1_556
B4 W2 2.285410 1_455
B4 W0 2.285410 1_455
B4 W2 2.285410 1_565
B4 W0 2.285410 1_565
B4 V0 2.324505 1_565
B4 V0 2.324505 1_455
B4 V0 2.431481 1_555
B5 W1 2.285410 1_655
B5 W3 2.285410 1_655
B5 W1 2.285410 1_545
B5 W3 2.285410 1_545
B5 V1 2.324505 1_545
B5 V1 2.324505 1_655
B5 V1 2.431481 1_555
