# generated using pymatgen
data_NaCa2(B3Ir4)2
_symmetry_space_group_name_H-M   'P 1'
_cell_length_a   9.80796696
_cell_length_b   8.93873992
_cell_length_c   5.62744138
_cell_angle_alpha   81.21043679
_cell_angle_beta   64.24658373
_cell_angle_gamma   34.54297374
_symmetry_Int_Tables_number   1
_chemical_formula_structural   NaCa2(B3Ir4)2
_chemical_formula_sum   'Na1 Ca2 B6 Ir8'
_cell_volume   230.75192002
_cell_formula_units_Z   1
loop_
 _symmetry_equiv_pos_site_id
 _symmetry_equiv_pos_as_xyz
  1  'x, y, z'
loop_
 _atom_site_type_symbol
 _atom_site_label
 _atom_site_symmetry_multiplicity
 _atom_site_fract_x
 _atom_site_fract_y
 _atom_site_fract_z
 _atom_site_occupancy
  Na  Na0  1  0.50000000  0.50000000  0.50000000  1
  Ca  Ca0  1  0.32731816  0.32731816  0.67268184  1
  Ca  Ca1  1  0.67268184  0.67268184  0.32731816  1
  B  B0  1  0.67115898  0.98396021  0.01603979  1
  B  B1  1  0.98396021  0.67115898  0.32884102  1
  B  B2  1  0.32884102  0.01603979  0.98396021  1
  B  B3  1  0.01603979  0.32884102  0.67115898  1
  B  B4  1  0.16778536  0.83221464  0.16778536  1
  B  B5  1  0.83221464  0.16778536  0.83221464  1
  Ir  Ir0  1  0.58430906  0.58430906  0.91569094  1
  Ir  Ir1  1  0.91441704  0.91441704  0.08558296  1
  Ir  Ir2  1  0.41569094  0.41569094  0.08430906  1
  Ir  Ir3  1  0.08430906  0.08430906  0.41569094  1
  Ir  Ir4  1  0.91569094  0.91569094  0.58430906  1
  Ir  Ir5  1  0.25000000  0.25000000  0.25000000  1
  Ir  Ir6  1  0.08558296  0.08558296  0.91441704  1
  Ir  Ir7  1  0.75000000  0.75000000  0.75000000  1
loop_
_geom_bond_atom_site_label_1
_geom_bond_atom_site_label_2
_geom_bond_distance
_geom_bond_site_symmetry_2
Ca0 Na0 2.934872 1_555
Ca0 Ir5 3.105454 1_556
Ca0 Ir5 3.105455 1_555
Ca0 Ir7 3.105455 1_455
Ca0 Ir7 3.105455 1_545
Ca0 Ir1 3.142899 1_545
Ca0 Ir1 3.142899 1_456
Ca0 Ir2 3.189504 1_555
Ca0 Ir2 3.189504 1_556
Ca0 Ir4 3.189504 1_545
Ca0 Ir4 3.189504 1_455
Ca1 Na0 2.934872 1_555
Ca1 Ir7 3.105454 1_554
Ca1 Ir7 3.105455 1_555
Ca1 Ir5 3.105455 1_655
Ca1 Ir5 3.105455 1_565
Ca1 Ir6 3.142899 1_565
Ca1 Ir6 3.142899 1_654
Ca1 Ir0 3.189504 1_555
Ca1 Ir0 3.189504 1_554
Ca1 Ir3 3.189504 1_565
Ca1 Ir3 3.189504 1_655
B0 Ir5 2.121235 1_565
B0 Ir7 2.121236 1_554
B0 Ir1 2.127365 1_555
B0 Ir4 2.237323 1_554
B0 Ir2 2.237324 1_565
B0 Ca1 3.045546 1_555
B0 Ca0 3.167485 1_565
B0 Ca0 3.167485 1_654
B1 Ir7 2.121235 1_555
B1 Ir5 2.121236 1_655
B1 Ir1 2.127365 1_555
B1 Ir2 2.237324 1_655
B1 Ir4 2.237324 1_555
B1 Ca1 3.045546 1_555
B1 Ca0 3.167485 1_654
B1 Ca0 3.167485 1_565
B2 Ir7 2.121235 1_545
B2 Ir5 2.121236 1_556
B2 Ir6 2.127365 1_555
B2 Ir3 2.237323 1_556
B2 Ir0 2.237324 1_545
B2 Ca0 3.045546 1_555
B2 Ca1 3.167485 1_545
B2 Ca1 3.167485 1_456
B3 Ir5 2.121235 1_555
B3 Ir7 2.121236 1_455
B3 Ir6 2.127365 1_555
B3 Ir0 2.237324 1_455
B3 Ir3 2.237324 1_555
B3 Ca0 3.045546 1_555
B3 Ca1 3.167485 1_456
B3 Ca1 3.167485 1_545
B4 Ir4 2.150167 1_455
B4 Ir0 2.150167 1_554
B4 Ir3 2.150167 1_565
B4 Ir2 2.150168 1_555
B4 Ir1 2.194594 1_455
B4 Ir6 2.194594 1_564
B5 Ir3 2.150167 1_655
B5 Ir2 2.150167 1_556
B5 Ir4 2.150167 1_545
B5 Ir0 2.150168 1_555
B5 Ir6 2.194594 1_655
B5 Ir1 2.194594 1_546
Ir0 Na0 3.157568 1_556
Ir0 Na0 3.157568 1_555
Ir1 Na0 3.130846 1_654
Ir1 Na0 3.130847 1_565
Ir2 Na0 3.157568 1_554
Ir2 Na0 3.157568 1_555
Ir3 Na0 3.157568 1_455
Ir3 Na0 3.157568 1_545
Ir4 Na0 3.157568 1_655
Ir4 Na0 3.157568 1_565
Ir6 Na0 3.130846 1_456
Ir6 Na0 3.130847 1_545
