# generated using pymatgen
data_Cs4NaAgBi2
_symmetry_space_group_name_H-M   'P 1'
_cell_length_a   7.53194441
_cell_length_b   7.53194376
_cell_length_c   6.84809225
_cell_angle_alpha   91.83362466
_cell_angle_beta   91.83363213
_cell_angle_gamma   103.53732806
_symmetry_Int_Tables_number   1
_chemical_formula_structural   Cs4NaAgBi2
_chemical_formula_sum   'Cs4 Na1 Ag1 Bi2'
_cell_volume   377.19502229
_cell_formula_units_Z   1
loop_
 _symmetry_equiv_pos_site_id
 _symmetry_equiv_pos_as_xyz
  1  'x, y, z'
loop_
 _atom_site_type_symbol
 _atom_site_label
 _atom_site_symmetry_multiplicity
 _atom_site_fract_x
 _atom_site_fract_y
 _atom_site_fract_z
 _atom_site_occupancy
  Cs  Cs0  1  0.47086724  0.80991023  0.24425888  1
  Cs  Cs1  1  0.19008977  0.52913276  0.75574112  1
  Cs  Cs2  1  0.52913276  0.19008977  0.75574112  1
  Cs  Cs3  1  0.80991023  0.47086724  0.24425888  1
  Na  Na0  1  0.00000000  0.00000000  0.50000000  1
  Ag  Ag0  1  0.00000000  0.00000000  0.00000000  1
  Bi  Bi0  1  0.25475125  0.25475125  0.23587199  1
  Bi  Bi1  1  0.74524875  0.74524875  0.76412801  1
loop_
_geom_bond_atom_site_label_1
_geom_bond_atom_site_label_2
_geom_bond_distance
_geom_bond_site_symmetry_2
Ag0 Bi0 2.802175 1_555
Ag0 Bi1 2.802175 1_444
Ag0 Na0 3.424046 1_555
Ag0 Na0 3.424046 1_554
Bi0 Na0 3.058697 1_555
Bi0 Cs1 4.015286 1_554
Bi0 Cs2 4.015287 1_554
Bi0 Cs0 4.054445 1_545
Bi0 Cs3 4.054445 1_455
Bi0 Cs0 4.114541 1_555
Bi0 Cs3 4.114541 1_555
Bi0 Cs2 4.158588 1_555
Bi0 Cs1 4.158589 1_555
Bi1 Na0 3.058697 1_665
Bi1 Cs3 4.015286 1_556
Bi1 Cs0 4.015287 1_556
Bi1 Cs2 4.054445 1_565
Bi1 Cs1 4.054445 1_655
Bi1 Cs2 4.114541 1_555
Bi1 Cs1 4.114541 1_555
Bi1 Cs0 4.158588 1_555
Bi1 Cs3 4.158589 1_555
