# generated using pymatgen
data_Li12Re2CN7
_symmetry_space_group_name_H-M   'P 1'
_cell_length_a   6.64840079
_cell_length_b   6.67075900
_cell_length_c   4.88389366
_cell_angle_alpha   90.00000000
_cell_angle_beta   89.81311126
_cell_angle_gamma   90.00000000
_symmetry_Int_Tables_number   1
_chemical_formula_structural   Li12Re2CN7
_chemical_formula_sum   'Li12 Re2 C1 N7'
_cell_volume   216.59894268
_cell_formula_units_Z   1
loop_
 _symmetry_equiv_pos_site_id
 _symmetry_equiv_pos_as_xyz
  1  'x, y, z'
loop_
 _atom_site_type_symbol
 _atom_site_label
 _atom_site_symmetry_multiplicity
 _atom_site_fract_x
 _atom_site_fract_y
 _atom_site_fract_z
 _atom_site_occupancy
  Li  Li0  1  0.99974071  0.50000000  0.59637007  1
  Li  Li1  1  0.49973398  0.00000000  0.90474633  1
  Li  Li2  1  0.49937516  0.00000000  0.40304928  1
  Li  Li3  1  0.99575020  0.50000000  0.08804182  1
  Li  Li4  1  0.21871356  0.21056262  0.50344187  1
  Li  Li5  1  0.78913101  0.78844083  0.49981777  1
  Li  Li6  1  0.71003616  0.71299995  0.00349009  1
  Li  Li7  1  0.28335914  0.28127689  0.99342210  1
  Li  Li8  1  0.78913101  0.21155917  0.49981777  1
  Li  Li9  1  0.21871356  0.78943738  0.50344187  1
  Li  Li10  1  0.28335914  0.71872311  0.99342210  1
  Li  Li11  1  0.71003616  0.28700005  0.00349009  1
  Re  Re0  1  0.50267838  0.50000000  0.50554323  1
  Re  Re1  1  0.99798189  0.00000000  0.00025039  1
  C  C0  1  0.26935009  0.50000000  0.30633959  1
  N  N0  1  0.74130051  0.50000000  0.30174457  1
  N  N1  1  0.74970680  0.00000000  0.18701096  1
  N  N2  1  0.24638184  0.00000000  0.18370076  1
  N  N3  1  0.50053380  0.25669408  0.69748172  1
  N  N4  1  0.50053380  0.74330592  0.69748172  1
  N  N5  1  0.99722606  0.75319104  0.81394745  1
  N  N6  1  0.99722606  0.24680896  0.81394745  1
loop_
_geom_bond_atom_site_label_1
_geom_bond_atom_site_label_2
_geom_bond_distance
_geom_bond_site_symmetry_2
Li0 N5 1.995489 1_555
Li0 N6 1.995489 1_555
Li0 N0 2.244745 1_555
Li1 N3 1.989166 1_555
Li1 N4 1.989166 1_545
Li1 N1 2.162712 1_556
Li1 N2 2.162933 1_556
Li2 N1 1.967666 1_555
Li2 N2 1.997126 1_555
Li2 N3 2.236075 1_555
Li2 N4 2.236075 1_545
Li3 N0 1.984840 1_555
Li3 N5 2.155140 1_554
Li3 N6 2.155140 1_554
Li4 N2 2.107946 1_555
Li4 N6 2.124138 1_455
Li4 N3 2.124839 1_555
Li5 N5 2.082524 1_555
Li5 N1 2.096874 1_565
Li5 N4 2.166092 1_555
Li5 N0 2.177422 1_555
Li6 N0 2.045939 1_555
Li6 N4 2.056226 1_554
Li6 N1 2.130679 1_565
Li6 N5 2.136098 1_554
Li7 N3 2.046224 1_555
Li7 N2 2.107881 1_556
Li7 N6 2.109717 1_455
Li8 N6 2.082524 1_555
Li8 N1 2.096874 1_555
Li8 N3 2.166092 1_555
Li8 N0 2.177422 1_555
Li9 N2 2.107946 1_565
Li9 N5 2.124138 1_455
Li9 N4 2.124839 1_555
Li10 N4 2.046224 1_555
Li10 N2 2.107881 1_566
Li10 N5 2.109717 1_455
Li11 N0 2.045939 1_555
Li11 N3 2.056226 1_554
Li11 N1 2.130679 1_555
Li11 N6 2.136098 1_554
C0 Re0 1.833785 1_555
C0 Li3 2.111417 1_455
C0 Li10 2.114743 1_554
C0 Li7 2.114743 1_554
C0 Li9 2.183056 1_555
C0 Li4 2.183056 1_555
C0 Li0 2.280965 1_455
N0 Re0 1.870087 1_555
N1 Re1 1.883275 1_555
N2 Re1 1.881412 1_455
N3 Re0 1.874324 1_555
N4 Re0 1.874324 1_555
N5 Re1 1.881113 1_566
N6 Re1 1.881113 1_556
