# generated using pymatgen
data_K3Nb2AsS11
_symmetry_space_group_name_H-M   'P 1'
_cell_length_a   9.63711089
_cell_length_b   9.63711131
_cell_length_c   9.61284548
_cell_angle_alpha   82.51621077
_cell_angle_beta   82.51621001
_cell_angle_gamma   82.25155511
_symmetry_Int_Tables_number   1
_chemical_formula_structural   K3Nb2AsS11
_chemical_formula_sum   'K6 Nb4 As2 S22'
_cell_volume   871.30678081
_cell_formula_units_Z   2
loop_
 _symmetry_equiv_pos_site_id
 _symmetry_equiv_pos_as_xyz
  1  'x, y, z'
loop_
 _atom_site_type_symbol
 _atom_site_label
 _atom_site_symmetry_multiplicity
 _atom_site_fract_x
 _atom_site_fract_y
 _atom_site_fract_z
 _atom_site_occupancy
  K  K0  1  0.90541403  0.07531530  0.07660441  1
  K  K1  1  0.07531530  0.90541403  0.57660441  1
  K  K2  1  0.54602454  0.68759087  0.67132872  1
  K  K3  1  0.68759087  0.54602454  0.17132872  1
  K  K4  1  0.30054225  0.43374493  0.33292619  1
  K  K5  1  0.43374493  0.30054225  0.83292619  1
  Nb  Nb0  1  0.34048955  0.79650281  0.05437726  1
  Nb  Nb1  1  0.79650281  0.34048955  0.55437726  1
  Nb  Nb2  1  0.46742946  0.05104917  0.23654621  1
  Nb  Nb3  1  0.05104917  0.46742946  0.73654621  1
  As  As0  1  0.68274251  0.98111901  0.50054174  1
  As  As1  1  0.98111901  0.68274251  0.00054174  1
  S  S0  1  0.36937796  0.77603252  0.30935228  1
  S  S1  1  0.77603252  0.36937796  0.80935228  1
  S  S2  1  0.67775870  0.87438325  0.30328094  1
  S  S3  1  0.87438325  0.67775870  0.80328094  1
  S  S4  1  0.56989485  0.90252745  0.02244223  1
  S  S5  1  0.90252745  0.56989485  0.52244223  1
  S  S6  1  0.95093390  0.45172113  0.35461315  1
  S  S7  1  0.45172113  0.95093390  0.85461315  1
  S  S8  1  0.21461624  0.12708962  0.29732268  1
  S  S9  1  0.12708962  0.21461624  0.79732268  1
  S  S10  1  0.45975099  0.08051262  0.49286015  1
  S  S11  1  0.08051262  0.45975099  0.99286015  1
  S  S12  1  0.16612392  0.76710088  0.26515056  1
  S  S13  1  0.76710088  0.16612392  0.76515056  1
  S  S14  1  0.42202565  0.58002877  0.99918932  1
  S  S15  1  0.58002877  0.42202565  0.49918932  1
  S  S16  1  0.57195545  0.24105915  0.14788523  1
  S  S17  1  0.24105915  0.57195545  0.64788523  1
  S  S18  1  0.26797587  0.08429180  0.09269228  1
  S  S19  1  0.08429180  0.26797587  0.59269228  1
  S  S20  1  0.83541037  0.13624747  0.40818764  1
  S  S21  1  0.13624747  0.83541037  0.90818764  1
loop_
_geom_bond_atom_site_label_1
_geom_bond_atom_site_label_2
_geom_bond_distance
_geom_bond_site_symmetry_2
K0 S20 3.283356 1_555
K0 S13 3.398362 1_554
K0 S21 3.400745 1_644
K0 S16 3.416919 1_555
K0 S9 3.451678 1_654
K0 S2 3.480263 1_545
K0 S18 3.530655 1_655
K0 S1 3.764425 1_554
K1 S21 3.283356 1_555
K1 S12 3.398362 1_555
K1 S20 3.400745 1_465
K1 S17 3.416919 1_555
K1 S8 3.451678 1_565
K1 S3 3.480263 1_455
K1 S19 3.530655 1_565
K1 S0 3.764425 1_555
K2 S15 3.182966 1_555
K2 S7 3.239858 1_555
K2 S14 3.307188 1_555
K2 S17 3.324362 1_555
K2 S3 3.544706 1_555
K2 S5 3.637288 1_555
K2 S1 3.735155 1_555
K3 S14 3.182966 1_554
K3 S6 3.239858 1_555
K3 S15 3.307188 1_555
K3 S16 3.324362 1_555
K3 S2 3.544706 1_555
K3 S4 3.637288 1_555
K3 S0 3.735155 1_555
K4 S8 3.245560 1_555
K4 S15 3.288488 1_555
K4 S12 3.312964 1_555
K4 S6 3.330785 1_455
K4 S19 3.410829 1_555
K4 S17 3.414948 1_555
K4 S0 3.424731 1_555
K4 S16 3.434028 1_555
K4 S14 3.455268 1_554
K5 S9 3.245560 1_555
K5 S14 3.288488 1_555
K5 S13 3.312964 1_555
K5 S7 3.330786 1_545
K5 S18 3.410829 1_556
K5 S16 3.414948 1_556
K5 S1 3.424731 1_555
K5 S17 3.434028 1_555
K5 S15 3.455268 1_555
Nb0 S14 2.233547 1_554
Nb0 S12 2.470046 1_555
Nb0 S0 2.482133 1_555
Nb0 S7 2.490199 1_554
Nb0 S21 2.524666 1_554
Nb0 S4 2.525179 1_555
Nb0 S18 2.827099 1_565
Nb1 S15 2.233547 1_555
Nb1 S13 2.470046 1_555
Nb1 S1 2.482133 1_555
Nb1 S6 2.490198 1_555
Nb1 S20 2.524666 1_555
Nb1 S5 2.525179 1_555
Nb1 S19 2.827099 1_655
Nb2 S16 2.227421 1_555
Nb2 S8 2.464475 1_555
Nb2 S18 2.473971 1_555
Nb2 S10 2.507193 1_555
Nb2 S2 2.557823 1_545
Nb2 S4 2.667695 1_545
Nb2 S0 2.902931 1_545
Nb3 S17 2.227421 1_555
Nb3 S9 2.464475 1_555
Nb3 S19 2.473971 1_555
Nb3 S11 2.507193 1_555
Nb3 S3 2.557823 1_455
Nb3 S5 2.667695 1_455
Nb3 S1 2.902931 1_455
As0 S10 2.238078 1_565
As0 S20 2.257197 1_565
As0 S2 2.280621 1_555
As0 K2 3.415406 1_555
As1 S11 2.238078 1_654
As1 S21 2.257197 1_654
As1 S3 2.280621 1_554
As1 K3 3.415406 1_555
S0 S12 2.072818 1_555
S1 S13 2.072818 1_555
S4 S7 2.063176 1_554
S5 S6 2.063176 1_555
S18 S8 2.048074 1_555
S19 S9 2.048074 1_555
