# generated using pymatgen
data_Ba3Na3BiSb2
_symmetry_space_group_name_H-M   'P 1'
_cell_length_a   8.59606786
_cell_length_b   8.59606716
_cell_length_c   5.10563971
_cell_angle_alpha   90.00000000
_cell_angle_beta   90.00000000
_cell_angle_gamma   119.99999890
_symmetry_Int_Tables_number   1
_chemical_formula_structural   Ba3Na3BiSb2
_chemical_formula_sum   'Ba3 Na3 Bi1 Sb2'
_cell_volume   326.72354796
_cell_formula_units_Z   1
loop_
 _symmetry_equiv_pos_site_id
 _symmetry_equiv_pos_as_xyz
  1  'x, y, z'
loop_
 _atom_site_type_symbol
 _atom_site_label
 _atom_site_symmetry_multiplicity
 _atom_site_fract_x
 _atom_site_fract_y
 _atom_site_fract_z
 _atom_site_occupancy
  Ba  Ba0  1  0.42033060  1.00000000  0.00000000  1
  Ba  Ba1  1  0.57966940  0.57966940  0.00000000  1
  Ba  Ba2  1  0.00000000  0.42033060  0.00000000  1
  Na  Na0  1  0.75622851  0.00000000  0.50000000  1
  Na  Na1  1  1.00000000  0.75622851  0.50000000  1
  Na  Na2  1  0.24377149  0.24377149  0.50000000  1
  Bi  Bi0  1  0.00000000  0.00000000  0.00000000  1
  Sb  Sb0  1  0.33333300  0.66666700  0.50000000  1
  Sb  Sb1  1  0.66666700  0.33333300  0.50000000  1
loop_
_geom_bond_atom_site_label_1
_geom_bond_atom_site_label_2
_geom_bond_distance
_geom_bond_site_symmetry_2
Ba0 Bi0 3.613190 1_565
Ba0 Sb0 3.625407 1_555
Ba0 Sb0 3.625407 1_554
Ba0 Sb1 3.625409 1_565
Ba0 Sb1 3.625409 1_564
Ba1 Bi0 3.613190 1_665
Ba1 Sb1 3.625413 1_554
Ba1 Sb1 3.625413 1_555
Ba1 Sb0 3.625413 1_555
Ba1 Sb0 3.625413 1_554
Ba2 Bi0 3.613190 1_555
Ba2 Sb1 3.625408 1_455
Ba2 Sb1 3.625408 1_454
Ba2 Sb0 3.625409 1_554
Ba2 Sb0 3.625409 1_555
Na0 Sb1 3.317970 1_555
Na0 Sb0 3.317976 1_545
Na1 Sb0 3.317970 1_655
Na1 Sb1 3.317976 1_555
Na2 Sb0 3.317979 1_555
Na2 Sb1 3.317979 1_555
Bi0 Na1 3.302712 1_444
Bi0 Na1 3.302712 1_445
Bi0 Na2 3.302712 1_554
Bi0 Na2 3.302712 1_555
Bi0 Na0 3.302713 1_454
Bi0 Na0 3.302713 1_455
