# generated using pymatgen
data_HfTaBe9Re
_symmetry_space_group_name_H-M   'P 1'
_cell_length_a   7.51749451
_cell_length_b   7.51749553
_cell_length_c   7.51749493
_cell_angle_alpha   34.70496899
_cell_angle_beta   34.70495662
_cell_angle_gamma   34.70495597
_symmetry_Int_Tables_number   1
_chemical_formula_structural   HfTaBe9Re
_chemical_formula_sum   'Hf1 Ta1 Be9 Re1'
_cell_volume   122.90073822
_cell_formula_units_Z   1
loop_
 _symmetry_equiv_pos_site_id
 _symmetry_equiv_pos_as_xyz
  1  'x, y, z'
loop_
 _atom_site_type_symbol
 _atom_site_label
 _atom_site_symmetry_multiplicity
 _atom_site_fract_x
 _atom_site_fract_y
 _atom_site_fract_z
 _atom_site_occupancy
  Hf  Hf0  1  0.99810278  0.99810278  0.99810278  1
  Ta  Ta0  1  0.14475990  0.14475990  0.14475990  1
  Be  Be0  1  0.41508770  0.91998651  0.41508770  1
  Be  Be1  1  0.41508770  0.41508770  0.91998651  1
  Be  Be2  1  0.91998651  0.41508770  0.41508770  1
  Be  Be3  1  0.58624105  0.07712816  0.58624105  1
  Be  Be4  1  0.58624105  0.58624105  0.07712816  1
  Be  Be5  1  0.07712816  0.58624105  0.58624105  1
  Be  Be6  1  0.66641990  0.66641990  0.66641990  1
  Be  Be7  1  0.33489430  0.33489430  0.33489430  1
  Be  Be8  1  0.50044134  0.50044134  0.50044134  1
  Re  Re0  1  0.85560859  0.85560859  0.85560859  1
loop_
_geom_bond_atom_site_label_1
_geom_bond_atom_site_label_2
_geom_bond_distance
_geom_bond_site_symmetry_2
Hf0 Re0 3.017013 1_555
Hf0 Ta0 3.105154 1_666
Be0 Be8 2.189271 1_555
Be0 Be6 2.190742 1_555
Be0 Be7 2.206745 1_565
Be0 Be2 2.220120 1_465
Be0 Be1 2.220121 1_564
Be0 Be2 2.264054 1_555
Be0 Be1 2.264055 1_555
Be0 Ta0 2.571597 1_565
Be0 Re0 2.588695 1_455
Be0 Re0 2.588695 1_554
Be0 Hf0 2.827750 1_554
Be0 Hf0 2.827750 1_455
Be1 Be8 2.189270 1_555
Be1 Be6 2.190742 1_555
Be1 Be7 2.206745 1_556
Be1 Be2 2.220120 1_456
Be1 Be2 2.264054 1_555
Be1 Ta0 2.571597 1_556
Be1 Re0 2.588695 1_455
Be1 Re0 2.588695 1_545
Be1 Hf0 2.827750 1_545
Be1 Hf0 2.827750 1_455
Be2 Be8 2.189270 1_555
Be2 Be6 2.190742 1_555
Be2 Be7 2.206745 1_655
Be2 Ta0 2.571597 1_655
Be2 Re0 2.588695 1_554
Be2 Re0 2.588696 1_545
Be2 Hf0 2.827751 1_545
Be2 Hf0 2.827751 1_554
Be3 Be7 2.173791 1_555
Be3 Be6 2.176465 1_545
Be3 Be5 2.201223 1_645
Be3 Be4 2.201224 1_546
Be3 Be8 2.212069 1_555
Be3 Be5 2.282951 1_555
Be3 Be4 2.282952 1_555
Be3 Re0 2.574355 1_545
Be3 Ta0 2.593487 1_655
Be3 Ta0 2.593487 1_556
Be3 Hf0 2.876471 1_445
Be3 Hf0 2.876472 1_544
Be4 Be7 2.173791 1_555
Be4 Be6 2.176465 1_554
Be4 Be5 2.201223 1_654
Be4 Be8 2.212069 1_555
Be4 Be5 2.282951 1_555
Be4 Re0 2.574355 1_554
Be4 Ta0 2.593487 1_655
Be4 Ta0 2.593487 1_565
Be4 Hf0 2.876471 1_454
Be4 Hf0 2.876472 1_544
Be5 Be7 2.173791 1_555
Be5 Be6 2.176464 1_455
Be5 Be8 2.212069 1_555
Be5 Re0 2.574355 1_455
Be5 Ta0 2.593488 1_556
Be5 Ta0 2.593488 1_565
Be5 Hf0 2.876472 1_454
Be5 Hf0 2.876472 1_445
Be6 Hf0 2.589175 1_455
Be6 Hf0 2.589176 1_554
Be6 Hf0 2.589176 1_545
Be7 Hf0 2.589974 1_544
Be7 Hf0 2.589975 1_445
Be7 Hf0 2.589975 1_454
Be8 Re0 2.629888 1_455
Be8 Re0 2.629889 1_545
Be8 Re0 2.629889 1_554
Be8 Ta0 2.631824 1_655
Be8 Ta0 2.631825 1_565
Be8 Ta0 2.631825 1_556
Re0 Ta0 2.752761 1_566
Re0 Ta0 2.752762 1_665
Re0 Ta0 2.752762 1_656
