# generated using pymatgen
data_Nb12Al9Fe3C4
_symmetry_space_group_name_H-M   'P 1'
_cell_length_a   8.30082235
_cell_length_b   8.30082296
_cell_length_c   8.27108374
_cell_angle_alpha   59.88098642
_cell_angle_beta   59.88098661
_cell_angle_gamma   59.99999695
_symmetry_Int_Tables_number   1
_chemical_formula_structural   Nb12Al9Fe3C4
_chemical_formula_sum   'Nb12 Al9 Fe3 C4'
_cell_volume   402.25929404
_cell_formula_units_Z   1
loop_
 _symmetry_equiv_pos_site_id
 _symmetry_equiv_pos_as_xyz
  1  'x, y, z'
loop_
 _atom_site_type_symbol
 _atom_site_label
 _atom_site_symmetry_multiplicity
 _atom_site_fract_x
 _atom_site_fract_y
 _atom_site_fract_z
 _atom_site_occupancy
  Nb  Nb0  1  0.80786421  0.80786421  0.19148117  1
  Nb  Nb1  1  0.18992039  0.18992039  0.81062268  1
  Nb  Nb2  1  0.80953653  0.18992039  0.81062268  1
  Nb  Nb3  1  0.19278942  0.80786421  0.19148117  1
  Nb  Nb4  1  0.18992039  0.80953653  0.81062268  1
  Nb  Nb5  1  0.80786421  0.19278942  0.19148117  1
  Nb  Nb6  1  0.44213579  0.44213579  0.05851883  1
  Nb  Nb7  1  0.06007961  0.06007961  0.43937732  1
  Nb  Nb8  1  0.44046347  0.06007961  0.43937732  1
  Nb  Nb9  1  0.05721058  0.44213579  0.05851883  1
  Nb  Nb10  1  0.06007961  0.44046347  0.43937732  1
  Nb  Nb11  1  0.44213579  0.05721058  0.05851883  1
  Al  Al0  1  0.62500000  0.62500000  0.12500000  1
  Al  Al1  1  0.75029660  0.41066345  0.42837850  1
  Al  Al2  1  0.41066345  0.75029660  0.42837850  1
  Al  Al3  1  0.41682888  0.41682888  0.74951236  1
  Al  Al4  1  0.41066345  0.41066345  0.42837850  1
  Al  Al5  1  0.49970340  0.83933655  0.82162150  1
  Al  Al6  1  0.83933655  0.49970340  0.82162150  1
  Al  Al7  1  0.83317112  0.83317112  0.50048764  1
  Al  Al8  1  0.83933655  0.83933655  0.82162150  1
  Fe  Fe0  1  0.12500000  0.62500000  0.62500000  1
  Fe  Fe1  1  0.62500000  0.12500000  0.62500000  1
  Fe  Fe2  1  0.62500000  0.62500000  0.62500000  1
  C  C0  1  0.62500000  0.12500000  0.12500000  1
  C  C1  1  0.12500000  0.62500000  0.12500000  1
  C  C2  1  0.12500000  0.12500000  0.62500000  1
  C  C3  1  0.12500000  0.12500000  0.12500000  1
loop_
_geom_bond_atom_site_label_1
_geom_bond_atom_site_label_2
_geom_bond_distance
_geom_bond_site_symmetry_2
Al0 Al8 2.613777 1_554
Al0 Al4 2.613777 1_555
Al0 Al1 2.613786 1_555
Al0 Al5 2.613786 1_554
Al0 Al2 2.613786 1_555
Al0 Al6 2.613786 1_554
Al0 Nb0 2.981604 1_555
Al0 Nb6 2.981604 1_555
Al0 Nb9 2.981610 1_655
Al0 Nb3 2.981610 1_555
Al0 Nb11 2.981611 1_565
Al0 Nb5 2.981611 1_555
Al1 Fe2 2.499560 1_555
Al1 Fe1 2.499574 1_555
Al1 Al3 2.708464 1_555
Al2 Fe2 2.499560 1_555
Al2 Fe0 2.499574 1_555
Al2 Al3 2.708464 1_555
Al3 Fe0 2.538991 1_555
Al3 Fe1 2.538991 1_555
Al3 Fe2 2.538998 1_555
Al3 Al4 2.708451 1_555
Al3 Nb9 2.782480 1_556
Al3 Nb11 2.782480 1_556
Al3 Nb6 2.782489 1_556
Al3 Nb1 2.997933 1_555
Al3 Nb2 2.997940 1_555
Al3 Nb4 2.997940 1_555
Al4 Fe1 2.499564 1_555
Al4 Fe0 2.499564 1_555
Al5 Fe2 2.499560 1_555
Al5 Fe1 2.499574 1_565
Al5 Al7 2.708464 1_555
Al6 Fe2 2.499560 1_555
Al6 Fe0 2.499574 1_655
Al6 Al7 2.708464 1_555
Al7 Fe0 2.538991 1_655
Al7 Fe1 2.538991 1_565
Al7 Fe2 2.538998 1_555
Al7 Al8 2.708451 1_555
Al7 Nb3 2.782480 1_655
Al7 Nb5 2.782480 1_565
Al7 Nb0 2.782489 1_555
Al7 Nb7 2.997933 1_665
Al7 Nb8 2.997940 1_565
Al7 Nb10 2.997940 1_655
Al8 Fe1 2.499564 1_565
Al8 Fe0 2.499564 1_655
Fe0 Nb9 2.973992 1_556
Fe0 Nb3 2.973992 1_555
Fe0 Nb7 3.001672 1_565
Fe0 Nb1 3.001672 1_555
Fe0 Nb4 3.001672 1_555
Fe0 Nb10 3.001672 1_555
Fe1 Nb11 2.973992 1_556
Fe1 Nb5 2.973992 1_555
Fe1 Nb7 3.001672 1_655
Fe1 Nb1 3.001672 1_555
Fe1 Nb2 3.001672 1_555
Fe1 Nb8 3.001672 1_555
Fe2 Nb6 2.973991 1_556
Fe2 Nb0 2.973991 1_555
Fe2 Nb10 3.001672 1_655
Fe2 Nb4 3.001672 1_555
Fe2 Nb8 3.001672 1_565
Fe2 Nb2 3.001672 1_555
C0 Nb8 2.195425 1_555
C0 Nb2 2.195425 1_554
C0 Nb5 2.219331 1_555
C0 Nb11 2.219331 1_555
C0 Nb6 2.219337 1_555
C0 Nb0 2.219337 1_545
C1 Nb10 2.195425 1_555
C1 Nb4 2.195425 1_554
C1 Nb3 2.219331 1_555
C1 Nb9 2.219331 1_555
C1 Nb0 2.219337 1_455
C1 Nb6 2.219337 1_555
C2 Nb2 2.211117 1_455
C2 Nb8 2.211117 1_555
C2 Nb10 2.211117 1_555
C2 Nb4 2.211117 1_545
C2 Nb1 2.211117 1_555
C2 Nb7 2.211117 1_555
C3 Nb7 2.195425 1_555
C3 Nb1 2.195425 1_554
C3 Nb11 2.219339 1_555
C3 Nb5 2.219339 1_455
C3 Nb9 2.219339 1_555
C3 Nb3 2.219339 1_545
