# generated using pymatgen
data_Sr2Ga4NiIr3
_symmetry_space_group_name_H-M   'P 1'
_cell_length_a   8.46611031
_cell_length_b   7.31925640
_cell_length_c   6.01395876
_cell_angle_alpha   78.15924889
_cell_angle_beta   57.79426760
_cell_angle_gamma   42.34141948
_symmetry_Int_Tables_number   1
_chemical_formula_structural   Sr2Ga4NiIr3
_chemical_formula_sum   'Sr2 Ga4 Ni1 Ir3'
_cell_volume   200.39868250
_cell_formula_units_Z   1
loop_
 _symmetry_equiv_pos_site_id
 _symmetry_equiv_pos_as_xyz
  1  'x, y, z'
loop_
 _atom_site_type_symbol
 _atom_site_label
 _atom_site_symmetry_multiplicity
 _atom_site_fract_x
 _atom_site_fract_y
 _atom_site_fract_z
 _atom_site_occupancy
  Sr  Sr0  1  0.50317783  0.50317783  0.49682217  1
  Sr  Sr1  1  0.74979065  0.74979065  0.75020935  1
  Ga  Ga0  1  0.80424561  0.19372479  0.82660005  1
  Ga  Ga1  1  0.19372479  0.80424561  0.17542955  1
  Ga  Ga2  1  0.43183957  0.06876391  0.42757966  1
  Ga  Ga3  1  0.06876391  0.43183957  0.07181686  1
  Ni  Ni0  1  0.36554189  0.36554189  0.13445811  1
  Ir  Ir0  1  0.11834526  0.11834526  0.88165474  1
  Ir  Ir1  1  0.88441005  0.88441005  0.11558995  1
  Ir  Ir2  1  0.13016044  0.13016044  0.36983956  1
loop_
_geom_bond_atom_site_label_1
_geom_bond_atom_site_label_2
_geom_bond_distance
_geom_bond_site_symmetry_2
Ga0 Ni0 2.350523 1_556
Ga0 Ir2 2.433754 1_655
Ga0 Ir1 2.444954 1_546
Ga0 Ir0 2.485970 1_655
Ga0 Sr0 3.251268 1_555
Ga0 Sr0 3.447562 1_645
Ga0 Sr0 3.483464 1_556
Ga0 Sr1 3.697707 1_555
Ga0 Sr1 3.746218 1_545
Ga1 Ni0 2.350523 1_555
Ga1 Ir2 2.433755 1_565
Ga1 Ir1 2.444954 1_455
Ga1 Ir0 2.485971 1_564
Ga1 Sr0 3.251268 1_555
Ga1 Sr0 3.447562 1_465
Ga1 Sr0 3.483464 1_554
Ga1 Sr1 3.697706 1_554
Ga1 Sr1 3.746217 1_455
Ga2 Ir1 2.398950 1_545
Ga2 Ni0 2.412857 1_555
Ga2 Ir0 2.427011 1_555
Ga2 Ir2 2.455671 1_555
Ga2 Sr1 3.298347 1_545
Ga2 Sr1 3.381012 1_455
Ga2 Sr1 3.495087 1_544
Ga2 Sr0 3.679630 1_545
Ga2 Sr0 3.781297 1_555
Ga3 Ir1 2.398951 1_455
Ga3 Ni0 2.412857 1_555
Ga3 Ir0 2.427012 1_554
Ga3 Ir2 2.455671 1_555
Ga3 Sr1 3.298347 1_454
Ga3 Sr1 3.381012 1_544
Ga3 Sr1 3.495087 1_455
Ga3 Sr0 3.679629 1_455
Ga3 Sr0 3.781296 1_554
Ni0 Sr1 3.289659 1_455
Ni0 Sr1 3.289660 1_544
Ni0 Sr0 3.530538 1_554
Ni0 Sr0 3.530538 1_555
Ir0 Sr0 3.285955 1_456
Ir0 Sr0 3.285956 1_545
Ir0 Sr1 3.395977 1_545
Ir0 Sr1 3.395978 1_455
Ir1 Sr0 3.309030 1_654
Ir1 Sr0 3.309031 1_565
Ir1 Sr1 3.509460 1_555
Ir1 Sr1 3.509461 1_554
Ir2 Sr1 3.314638 1_544
Ir2 Sr1 3.314639 1_455
Ir2 Sr0 3.365157 1_455
Ir2 Sr0 3.365157 1_545
