# generated using pymatgen
data_CrCd(HgO3)2
_symmetry_space_group_name_H-M   'P 1'
_cell_length_a   6.97751128
_cell_length_b   7.15379873
_cell_length_c   7.44294886
_cell_angle_alpha   75.74795903
_cell_angle_beta   68.27024306
_cell_angle_gamma   64.19178815
_symmetry_Int_Tables_number   1
_chemical_formula_structural   CrCd(HgO3)2
_chemical_formula_sum   'Cr2 Cd2 Hg4 O12'
_cell_volume   309.08730118
_cell_formula_units_Z   2
loop_
 _symmetry_equiv_pos_site_id
 _symmetry_equiv_pos_as_xyz
  1  'x, y, z'
loop_
 _atom_site_type_symbol
 _atom_site_label
 _atom_site_symmetry_multiplicity
 _atom_site_fract_x
 _atom_site_fract_y
 _atom_site_fract_z
 _atom_site_occupancy
  Cr  Cr0  1  0.79704156  0.13895371  0.31150975  1
  Cr  Cr1  1  0.20295844  0.86104629  0.68849025  1
  Cd  Cd0  1  0.33256056  0.14285967  0.21127125  1
  Cd  Cd1  1  0.66743944  0.85714033  0.78872875  1
  Hg  Hg0  1  0.84285073  0.65053521  0.21086831  1
  Hg  Hg1  1  0.15714927  0.34946479  0.78913169  1
  Hg  Hg2  1  0.65866363  0.35313299  0.79369248  1
  Hg  Hg3  1  0.34133637  0.64686701  0.20630752  1
  O  O0  1  0.63063822  0.21887394  0.17273888  1
  O  O1  1  0.44721070  0.19527958  0.86243257  1
  O  O2  1  0.93962452  0.92279859  0.82897675  1
  O  O3  1  0.76740067  0.93262093  0.45956608  1
  O  O4  1  0.26981663  0.67014622  0.56638423  1
  O  O5  1  0.14674836  0.48431319  0.24940628  1
  O  O6  1  0.23259933  0.06737907  0.54043392  1
  O  O7  1  0.55278930  0.80472042  0.13756743  1
  O  O8  1  0.36936178  0.78112606  0.82726112  1
  O  O9  1  0.85325164  0.51568681  0.75059372  1
  O  O10  1  0.73018337  0.32985378  0.43361577  1
  O  O11  1  0.06037548  0.07720141  0.17102325  1
loop_
_geom_bond_atom_site_label_1
_geom_bond_atom_site_label_2
_geom_bond_distance
_geom_bond_site_symmetry_2
Cr0 O10 1.628214 1_555
Cr0 O3 1.652892 1_545
Cr0 O0 1.661631 1_555
Cr0 O11 1.662124 1_655
Cr1 O4 1.628214 1_555
Cr1 O6 1.652892 1_565
Cr1 O8 1.661631 1_555
Cr1 O2 1.662124 1_455
Cd0 O5 2.244900 1_555
Cd0 O0 2.273767 1_555
Cd0 O11 2.276950 1_555
Cd0 O6 2.278496 1_555
Cd0 O7 2.303543 1_545
Cd0 O1 2.401179 1_554
Cd1 O9 2.244900 1_555
Cd1 O8 2.273767 1_555
Cd1 O2 2.276950 1_555
Cd1 O3 2.278496 1_555
Cd1 O1 2.303543 1_565
Cd1 O7 2.401179 1_556
Hg0 O5 2.019781 1_655
Hg0 O7 2.046462 1_555
Hg1 O9 2.019781 1_455
Hg1 O1 2.046462 1_555
Hg2 O9 2.041382 1_555
Hg2 O1 2.078731 1_555
Hg2 O10 2.572243 1_555
Hg3 O5 2.041382 1_555
Hg3 O7 2.078731 1_555
Hg3 O4 2.572243 1_555
