# generated using pymatgen
data_TiAg7(SO4)6
_symmetry_space_group_name_H-M   'P 1'
_cell_length_a   8.53417266
_cell_length_b   8.53417303
_cell_length_c   8.53417250
_cell_angle_alpha   108.22501159
_cell_angle_beta   108.22502129
_cell_angle_gamma   108.22502902
_symmetry_Int_Tables_number   1
_chemical_formula_structural   TiAg7(SO4)6
_chemical_formula_sum   'Ti1 Ag7 S6 O24'
_cell_volume   499.33550061
_cell_formula_units_Z   1
loop_
 _symmetry_equiv_pos_site_id
 _symmetry_equiv_pos_as_xyz
  1  'x, y, z'
loop_
 _atom_site_type_symbol
 _atom_site_label
 _atom_site_symmetry_multiplicity
 _atom_site_fract_x
 _atom_site_fract_y
 _atom_site_fract_z
 _atom_site_occupancy
  Ti  Ti0  1  0.00000000  0.00000000  0.00000000  1
  Ag  Ag0  1  0.50000000  0.50000000  0.50000000  1
  Ag  Ag1  1  0.83409979  0.34089199  0.68033034  1
  Ag  Ag2  1  0.34089199  0.68033034  0.83409979  1
  Ag  Ag3  1  0.68033034  0.83409979  0.34089199  1
  Ag  Ag4  1  0.16590021  0.65910801  0.31966966  1
  Ag  Ag5  1  0.65910801  0.31966966  0.16590021  1
  Ag  Ag6  1  0.31966966  0.16590021  0.65910801  1
  S  S0  1  0.96930359  0.75064664  0.60236609  1
  S  S1  1  0.75064664  0.60236609  0.96930359  1
  S  S2  1  0.60236609  0.96930359  0.75064664  1
  S  S3  1  0.03069641  0.24935336  0.39763391  1
  S  S4  1  0.24935336  0.39763391  0.03069641  1
  S  S5  1  0.39763391  0.03069641  0.24935336  1
  O  O0  1  0.46721189  0.90851783  0.16563799  1
  O  O1  1  0.90851783  0.16563799  0.46721189  1
  O  O2  1  0.16563799  0.46721189  0.90851783  1
  O  O3  1  0.53278811  0.09148217  0.83436201  1
  O  O4  1  0.09148217  0.83436201  0.53278811  1
  O  O5  1  0.83436201  0.53278811  0.09148217  1
  O  O6  1  0.32142380  0.97459292  0.36517876  1
  O  O7  1  0.97459292  0.36517876  0.32142380  1
  O  O8  1  0.36517876  0.32142380  0.97459292  1
  O  O9  1  0.67857620  0.02540708  0.63482124  1
  O  O10  1  0.02540708  0.63482124  0.67857620  1
  O  O11  1  0.63482124  0.67857620  0.02540708  1
  O  O12  1  0.75152116  0.97715021  0.90989527  1
  O  O13  1  0.97715021  0.90989527  0.75152116  1
  O  O14  1  0.64412987  0.45646766  0.77411367  1
  O  O15  1  0.77411367  0.64412987  0.45646766  1
  O  O16  1  0.45646766  0.77411367  0.64412987  1
  O  O17  1  0.35587013  0.54353234  0.22588633  1
  O  O18  1  0.22588633  0.35587013  0.54353234  1
  O  O19  1  0.54353234  0.22588633  0.35587013  1
  O  O20  1  0.09010473  0.24847884  0.02284979  1
  O  O21  1  0.02284979  0.09010473  0.24847884  1
  O  O22  1  0.24847884  0.02284979  0.09010473  1
  O  O23  1  0.90989527  0.75152116  0.97715021  1
loop_
_geom_bond_atom_site_label_1
_geom_bond_atom_site_label_2
_geom_bond_distance
_geom_bond_site_symmetry_2
Ag0 O18 2.480541 1_555
Ag0 O15 2.480541 1_555
Ag0 O14 2.480541 1_555
Ag0 O17 2.480541 1_555
Ag0 O16 2.480541 1_555
Ag0 O19 2.480541 1_555
Ag1 O14 2.357952 1_555
Ag1 O1 2.358696 1_555
Ag1 O9 2.439212 1_555
Ag1 O2 2.508486 1_655
Ag1 O10 2.536761 1_655
Ag1 O19 2.694921 1_555
Ag2 O16 2.357952 1_555
Ag2 O2 2.358696 1_555
Ag2 O10 2.439212 1_555
Ag2 O0 2.508486 1_556
Ag2 O11 2.536761 1_556
Ag2 O18 2.694921 1_555
Ag3 O15 2.357952 1_555
Ag3 O0 2.358696 1_555
Ag3 O11 2.439212 1_555
Ag3 O1 2.508486 1_565
Ag3 O9 2.536761 1_565
Ag3 O17 2.694921 1_555
Ag4 O17 2.357952 1_555
Ag4 O4 2.358696 1_555
Ag4 O6 2.439212 1_555
Ag4 O5 2.508486 1_455
Ag4 O7 2.536761 1_455
Ag4 O16 2.694921 1_555
Ag5 O19 2.357952 1_555
Ag5 O5 2.358696 1_555
Ag5 O7 2.439212 1_555
Ag5 O3 2.508486 1_554
Ag5 O8 2.536761 1_554
Ag5 O15 2.694921 1_555
Ag6 O18 2.357952 1_555
Ag6 O3 2.358696 1_555
Ag6 O8 2.439212 1_555
Ag6 O4 2.508486 1_545
Ag6 O6 2.536761 1_545
Ag6 O14 2.694921 1_555
O0 S5 1.461810 1_565
O1 S3 1.461810 1_655
O2 S4 1.461810 1_556
O3 S2 1.461810 1_545
O4 S0 1.461810 1_455
O5 S1 1.461810 1_554
O6 S5 1.460382 1_565
O7 S3 1.460382 1_655
O8 S4 1.460382 1_556
O9 S2 1.460382 1_545
O10 S0 1.460382 1_455
O11 S1 1.460382 1_554
O12 S2 1.509800 1_555
O12 Ti0 1.937447 1_666
O13 S0 1.509800 1_555
O13 Ti0 1.937447 1_666
O14 S1 1.482908 1_555
O15 S0 1.482908 1_555
O16 S2 1.482908 1_555
O17 S4 1.482908 1_555
O18 S3 1.482908 1_555
O19 S5 1.482908 1_555
O20 S4 1.509800 1_555
O20 Ti0 1.937447 1_555
O21 S3 1.509800 1_555
O21 Ti0 1.937447 1_555
O22 S5 1.509800 1_555
O22 Ti0 1.937447 1_555
O23 S1 1.509800 1_555
O23 Ti0 1.937447 1_666
