# generated using pymatgen
data_PIr3Se7
_symmetry_space_group_name_H-M   'P 1'
_cell_length_a   5.95053963
_cell_length_b   5.95053983
_cell_length_c   5.95054040
_cell_angle_alpha   89.91739304
_cell_angle_beta   89.91738388
_cell_angle_gamma   89.91738821
_symmetry_Int_Tables_number   1
_chemical_formula_structural   PIr3Se7
_chemical_formula_sum   'P1 Ir3 Se7'
_cell_volume   210.70157102
_cell_formula_units_Z   1
loop_
 _symmetry_equiv_pos_site_id
 _symmetry_equiv_pos_as_xyz
  1  'x, y, z'
loop_
 _atom_site_type_symbol
 _atom_site_label
 _atom_site_symmetry_multiplicity
 _atom_site_fract_x
 _atom_site_fract_y
 _atom_site_fract_z
 _atom_site_occupancy
  P  P0  1  0.61780592  0.61780592  0.61780592  1
  Ir  Ir0  1  0.50376111  0.98395524  0.50436238  1
  Ir  Ir1  1  0.98395524  0.50436238  0.50376111  1
  Ir  Ir2  1  0.50436238  0.50376111  0.98395524  1
  Se  Se0  1  0.62083791  0.88250981  0.11586381  1
  Se  Se1  1  0.88250981  0.11586381  0.62083791  1
  Se  Se2  1  0.11586381  0.62083791  0.88250981  1
  Se  Se3  1  0.38774953  0.38774953  0.38774953  1
  Se  Se4  1  0.88287708  0.38539029  0.11488692  1
  Se  Se5  1  0.11488692  0.88287708  0.38539029  1
  Se  Se6  1  0.38539029  0.11488692  0.88287708  1
loop_
_geom_bond_atom_site_label_1
_geom_bond_atom_site_label_2
_geom_bond_distance
_geom_bond_site_symmetry_2
P0 Se3 2.374524 1_555
Ir0 P0 2.378267 1_555
Ir0 Se6 2.484998 1_565
Ir0 Se1 2.487387 1_565
Ir0 Se0 2.488418 1_555
Ir0 Se5 2.495510 1_555
Ir0 Se3 2.592928 1_565
Ir1 P0 2.378267 1_555
Ir1 Se5 2.484998 1_655
Ir1 Se2 2.487387 1_655
Ir1 Se1 2.488418 1_555
Ir1 Se4 2.495510 1_555
Ir1 Se3 2.592928 1_655
Ir2 P0 2.378267 1_555
Ir2 Se4 2.484998 1_556
Ir2 Se0 2.487387 1_556
Ir2 Se2 2.488418 1_555
Ir2 Se6 2.495510 1_555
Ir2 Se3 2.592928 1_556
Se0 Se6 2.406564 1_564
Se1 Se5 2.406563 1_645
Se2 Se4 2.406563 1_456
