# generated using pymatgen
data_Mo2(PO4)3
_symmetry_space_group_name_H-M   'P 1'
_cell_length_a   8.81215576
_cell_length_b   8.97816997
_cell_length_c   8.81215546
_cell_angle_alpha   90.02935629
_cell_angle_beta   59.61101489
_cell_angle_gamma   119.04572450
_symmetry_Int_Tables_number   1
_chemical_formula_structural   Mo2(PO4)3
_chemical_formula_sum   'Mo4 P6 O24'
_cell_volume   497.22595319
_cell_formula_units_Z   2
loop_
 _symmetry_equiv_pos_site_id
 _symmetry_equiv_pos_as_xyz
  1  'x, y, z'
loop_
 _atom_site_type_symbol
 _atom_site_label
 _atom_site_symmetry_multiplicity
 _atom_site_fract_x
 _atom_site_fract_y
 _atom_site_fract_z
 _atom_site_occupancy
  Mo  Mo0  1  0.28481600  0.92728300  0.35630600  1
  Mo  Mo1  1  0.28477200  0.42532500  0.85845300  1
  Mo  Mo2  1  0.71641100  0.57271800  0.14246600  1
  Mo  Mo3  1  0.71622200  0.07467600  0.64055300  1
  P  P0  1  0.78518400  0.75168200  0.75211700  1
  P  P1  1  0.49997900  0.24949100  0.53458900  1
  P  P2  1  0.49620000  0.74831700  0.46649900  1
  P  P3  1  0.21591800  0.25050800  0.24951300  1
  P  P4  1  0.78595200  0.25000100  0.96404800  1
  P  P5  1  0.21383100  0.74999900  0.03616800  1
  O  O0  1  0.64801300  0.91729100  0.48029700  1
  O  O1  1  0.01800900  0.73158300  0.06144700  1
  O  O2  1  0.21238400  0.58112500  0.00611500  1
  O  O3  1  0.20696800  0.76841700  0.21357400  1
  O  O4  1  0.96656000  0.25858300  0.95345100  1
  O  O5  1  0.78300300  0.41916000  0.00689800  1
  O  O6  1  0.78796800  0.24141700  0.79202300  1
  O  O7  1  0.80464700  0.73031600  0.91412700  1
  O  O8  1  0.99660100  0.78739100  0.57435500  1
  O  O9  1  0.64896800  0.23224700  0.56421900  1
  O  O10  1  0.78420200  0.92031000  0.72979300  1
  O  O11  1  0.60241300  0.58271000  0.76927600  1
  O  O12  1  0.57394300  0.08084000  0.13615600  1
  O  O13  1  0.64196800  0.42049900  0.36646800  1
  O  O14  1  0.20353400  0.26775300  0.08327900  1
  O  O15  1  0.34142100  0.26624800  0.70868800  1
  O  O16  1  0.63825200  0.71260800  0.29079100  1
  O  O17  1  0.02506400  0.23375200  0.42482700  1
  O  O18  1  0.41276100  0.91887500  0.86874000  1
  O  O19  1  0.34989700  0.57969100  0.63610700  1
  O  O20  1  0.21303200  0.07950100  0.27853200  1
  O  O21  1  0.41895100  0.42014800  0.21112300  1
  O  O22  1  0.35555700  0.76968400  0.42566800  1
  O  O23  1  0.36873000  0.07985200  0.50119700  1
loop_
_geom_bond_atom_site_label_1
_geom_bond_atom_site_label_2
_geom_bond_distance
_geom_bond_site_symmetry_2
Mo0 O8 1.920337 1_455
Mo0 O12 1.935692 1_565
Mo0 O22 2.001790 1_555
Mo0 O3 2.002009 1_555
Mo0 O20 2.004143 1_565
Mo0 O23 2.005802 1_565
Mo1 O14 2.005881 1_556
Mo1 O15 2.013598 1_555
Mo1 O2 2.020272 1_556
Mo1 O19 2.044993 1_555
Mo1 O4 2.086902 1_455
Mo1 O11 2.093865 1_555
Mo2 O16 1.920337 1_555
Mo2 O5 1.935689 1_555
Mo2 O7 2.001782 1_554
Mo2 O1 2.002005 1_655
Mo2 O13 2.004152 1_555
Mo2 O21 2.005796 1_555
Mo3 O9 2.005873 1_555
Mo3 O17 2.013598 1_655
Mo3 O18 2.020265 1_545
Mo3 O10 2.044988 1_545
Mo3 O6 2.086902 1_555
Mo3 O0 2.093868 1_545
O0 P2 1.516470 1_555
O1 P5 1.545569 1_555
O2 P5 1.534057 1_555
O3 P5 1.545571 1_555
O4 P4 1.509384 1_555
O5 P4 1.574049 1_554
O6 P4 1.509372 1_555
O7 P0 1.544144 1_555
O8 P0 1.579688 1_555
O9 P1 1.536273 1_555
O10 P0 1.531545 1_555
O11 P0 1.516464 1_555
O12 P4 1.574056 1_554
O13 P1 1.542465 1_555
O14 P3 1.536272 1_555
O15 P1 1.537445 1_555
O16 P2 1.579684 1_555
O17 P3 1.537436 1_555
O18 P5 1.534073 1_556
O19 P2 1.531526 1_555
O20 P3 1.542461 1_555
O21 P3 1.541877 1_555
O22 P2 1.544151 1_555
O23 P1 1.541863 1_555
