# generated using pymatgen
data_SrSi2Tc3Os
_symmetry_space_group_name_H-M   'P 1'
_cell_length_a   7.37817813
_cell_length_b   7.37817811
_cell_length_c   4.11241772
_cell_angle_alpha   90.00000000
_cell_angle_beta   90.00000000
_cell_angle_gamma   147.47089813
_symmetry_Int_Tables_number   1
_chemical_formula_structural   SrSi2Tc3Os
_chemical_formula_sum   'Sr1 Si2 Tc3 Os1'
_cell_volume   120.38103638
_cell_formula_units_Z   1
loop_
 _symmetry_equiv_pos_site_id
 _symmetry_equiv_pos_as_xyz
  1  'x, y, z'
loop_
 _atom_site_type_symbol
 _atom_site_label
 _atom_site_symmetry_multiplicity
 _atom_site_fract_x
 _atom_site_fract_y
 _atom_site_fract_z
 _atom_site_occupancy
  Sr  Sr0  1  0.99837061  0.00162939  0.00000000  1
  Si  Si0  1  0.59352204  0.40647696  0.50000000  1
  Si  Si1  1  0.40615083  0.59384817  0.50000000  1
  Tc  Tc0  1  0.69926160  0.30073840  0.00000000  1
  Tc  Tc1  1  0.80679818  0.19320082  0.50000000  1
  Tc  Tc2  1  0.19358306  0.80641594  0.50000000  1
  Os  Os0  1  0.30231268  0.69768732  0.00000000  1
loop_
_geom_bond_atom_site_label_1
_geom_bond_atom_site_label_2
_geom_bond_distance
_geom_bond_site_symmetry_2
Sr0 Tc1 3.404780 1_554
Sr0 Tc1 3.404780 1_555
Sr0 Tc2 3.446031 1_645
Sr0 Tc2 3.446031 1_644
Sr0 Tc0 3.516899 1_545
Sr0 Tc0 3.516899 1_655
Si0 Tc2 2.505846 1_545
Si0 Tc2 2.505846 1_655
Si0 Tc0 2.543940 1_556
Si0 Tc0 2.543940 1_555
Si0 Si1 2.654261 1_555
Si0 Sr0 3.211689 1_455
Si0 Sr0 3.211689 1_456
Si0 Sr0 3.211692 1_566
Si0 Sr0 3.211692 1_565
Si1 Tc1 2.500184 1_565
Si1 Tc1 2.500184 1_455
Si1 Sr0 3.194477 1_455
Si1 Sr0 3.194477 1_456
Si1 Sr0 3.194479 1_566
Si1 Sr0 3.194479 1_565
Tc0 Tc1 2.559020 1_554
Tc0 Tc1 2.559020 1_555
Tc1 Tc2 2.615767 1_655
Tc1 Tc2 2.615767 1_545
Os0 Si1 2.528183 1_555
Os0 Si1 2.528183 1_554
Os0 Tc0 2.530047 1_565
Os0 Tc0 2.530047 1_455
Os0 Tc2 2.569108 1_554
Os0 Tc2 2.569108 1_555
Os0 Tc1 2.915844 1_565
Os0 Tc1 2.915844 1_564
Os0 Tc1 2.915847 1_454
Os0 Tc1 2.915847 1_455
Os0 Sr0 3.461734 1_455
Os0 Sr0 3.461734 1_565
