# generated using pymatgen
data_CsK5(AgPb4)2
_symmetry_space_group_name_H-M   'P 1'
_cell_length_a   6.92819426
_cell_length_b   7.25903091
_cell_length_c   12.53591723
_cell_angle_alpha   90.00000000
_cell_angle_beta   90.00000000
_cell_angle_gamma   90.00000000
_symmetry_Int_Tables_number   1
_chemical_formula_structural   CsK5(AgPb4)2
_chemical_formula_sum   'Cs1 K5 Ag2 Pb8'
_cell_volume   630.45605220
_cell_formula_units_Z   1
loop_
 _symmetry_equiv_pos_site_id
 _symmetry_equiv_pos_as_xyz
  1  'x, y, z'
loop_
 _atom_site_type_symbol
 _atom_site_label
 _atom_site_symmetry_multiplicity
 _atom_site_fract_x
 _atom_site_fract_y
 _atom_site_fract_z
 _atom_site_occupancy
  Cs  Cs0  1  0.56128357  0.00000000  0.00000000  1
  K  K0  1  0.16142435  0.00000000  0.75371990  1
  K  K1  1  0.16142435  0.00000000  0.24628010  1
  K  K2  1  0.43682813  0.50000000  0.50000000  1
  K  K3  1  0.83814274  0.50000000  0.25417286  1
  K  K4  1  0.83814274  0.50000000  0.74582714  1
  Ag  Ag0  1  0.30873435  0.00000000  0.50000000  1
  Ag  Ag1  1  0.69292547  0.50000000  0.00000000  1
  Pb  Pb0  1  0.04752857  0.27591326  0.00000000  1
  Pb  Pb1  1  0.04752857  0.72408674  0.00000000  1
  Pb  Pb2  1  0.34117305  0.50000000  0.86987660  1
  Pb  Pb3  1  0.34117305  0.50000000  0.13012340  1
  Pb  Pb4  1  0.65880365  0.00000000  0.36961772  1
  Pb  Pb5  1  0.65880365  0.00000000  0.63038228  1
  Pb  Pb6  1  0.95304140  0.77485620  0.50000000  1
  Pb  Pb7  1  0.95304140  0.22514380  0.50000000  1
loop_
_geom_bond_atom_site_label_1
_geom_bond_atom_site_label_2
_geom_bond_distance
_geom_bond_site_symmetry_2
Cs0 Pb0 3.919218 1_655
Cs0 Pb1 3.919218 1_645
Cs0 Pb0 4.084207 1_555
Cs0 Pb1 4.084207 1_545
Cs0 K1 4.148046 1_555
Cs0 K0 4.148046 1_554
Cs0 Pb3 4.261429 1_545
Cs0 Pb3 4.261429 1_555
Cs0 Pb2 4.261429 1_554
Cs0 Pb2 4.261429 1_544
K0 Pb0 3.763753 1_556
K0 Pb1 3.763753 1_546
K0 Pb5 3.776915 1_555
K0 Pb5 3.810075 1_455
K0 Pb7 3.856375 1_455
K0 Pb6 3.856375 1_445
K0 Pb2 4.104212 1_545
K0 Pb2 4.104212 1_555
K0 K4 4.266109 1_445
K0 K4 4.266109 1_455
K1 Pb0 3.763753 1_555
K1 Pb1 3.763753 1_545
K1 Pb4 3.776915 1_555
K1 Pb4 3.810075 1_455
K1 Pb7 3.856375 1_455
K1 Pb6 3.856375 1_445
K1 Pb3 4.104212 1_555
K1 Pb3 4.104212 1_545
K1 K3 4.266109 1_445
K1 K3 4.266109 1_455
K2 Pb6 3.900658 1_455
K2 Pb7 3.900658 1_455
K2 Pb6 4.095315 1_555
K2 Pb7 4.095315 1_555
K2 K4 4.150569 1_555
K2 K3 4.150569 1_555
K3 Pb6 3.756480 1_555
K3 Pb7 3.756480 1_555
K3 Pb3 3.777990 1_555
K3 Pb3 3.816297 1_655
K3 Pb1 3.860424 1_655
K3 Pb0 3.860424 1_655
K3 Pb4 4.100194 1_555
K3 Pb4 4.100194 1_565
K4 Pb6 3.756480 1_555
K4 Pb7 3.756480 1_555
K4 Pb2 3.777990 1_555
K4 Pb2 3.816297 1_655
K4 Pb1 3.860424 1_656
K4 Pb0 3.860424 1_656
K4 Pb5 4.100194 1_565
K4 Pb5 4.100194 1_555
Ag0 Pb5 2.924684 1_555
Ag0 Pb4 2.924684 1_555
Ag0 Pb7 2.956999 1_455
Ag0 Pb6 2.956999 1_445
Ag0 K0 3.340344 1_555
Ag0 K1 3.340344 1_555
Ag0 K2 3.736437 1_555
Ag0 K2 3.736437 1_545
Ag1 Pb3 2.932555 1_555
Ag1 Pb2 2.932555 1_554
Ag1 Pb1 2.946466 1_655
Ag1 Pb0 2.946466 1_655
Ag1 K3 3.341357 1_555
Ag1 K4 3.341357 1_554
Ag1 Cs0 3.742352 1_565
Ag1 Cs0 3.742352 1_555
Pb0 Pb3 3.073394 1_555
Pb0 Pb2 3.073394 1_554
Pb0 Pb1 3.253305 1_555
Pb1 Pb3 3.073394 1_555
Pb1 Pb2 3.073394 1_554
Pb4 Pb7 3.081901 1_555
Pb4 Pb6 3.081901 1_545
Pb5 Pb7 3.081901 1_555
Pb5 Pb6 3.081901 1_545
Pb6 Pb7 3.268652 1_565
