# generated using pymatgen
data_Sr6TeIrO12
_symmetry_space_group_name_H-M   'P 1'
_cell_length_a   6.06813427
_cell_length_b   5.85008303
_cell_length_c   10.23271242
_cell_angle_alpha   54.90688389
_cell_angle_beta   90.23840551
_cell_angle_gamma   89.86545669
_symmetry_Int_Tables_number   1
_chemical_formula_structural   Sr6TeIrO12
_chemical_formula_sum   'Sr6 Te1 Ir1 O12'
_cell_volume   297.21203027
_cell_formula_units_Z   1
loop_
 _symmetry_equiv_pos_site_id
 _symmetry_equiv_pos_as_xyz
  1  'x, y, z'
loop_
 _atom_site_type_symbol
 _atom_site_label
 _atom_site_symmetry_multiplicity
 _atom_site_fract_x
 _atom_site_fract_y
 _atom_site_fract_z
 _atom_site_occupancy
  Sr  Sr0  1  0.50000000  0.50000000  0.50000000  1
  Sr  Sr1  1  0.94772006  0.73604698  0.24922773  1
  Sr  Sr2  1  0.45152056  0.26983964  0.24406503  1
  Sr  Sr3  1  0.00000000  0.50000000  0.00000000  1
  Sr  Sr4  1  0.54847944  0.73016036  0.75593497  1
  Sr  Sr5  1  0.05227994  0.26395302  0.75077227  1
  Te  Te0  1  0.00000000  0.00000000  0.50000000  1
  Ir  Ir0  1  0.50000000  0.00000000  0.00000000  1
  O  O0  1  0.45813651  0.12426141  0.78023686  1
  O  O1  1  0.23499984  0.77236889  0.05764905  1
  O  O2  1  0.17818650  0.31025617  0.45465748  1
  O  O3  1  0.67677894  0.68723023  0.04215043  1
  O  O4  1  0.73926775  0.23564185  0.43487443  1
  O  O5  1  0.95568565  0.88397652  0.71735991  1
  O  O6  1  0.04431435  0.11602348  0.28264009  1
  O  O7  1  0.26073225  0.76435815  0.56512557  1
  O  O8  1  0.32322106  0.31276977  0.95784957  1
  O  O9  1  0.82181350  0.68974383  0.54534252  1
  O  O10  1  0.76500016  0.22763111  0.94235095  1
  O  O11  1  0.54186349  0.87573859  0.21976314  1
loop_
_geom_bond_atom_site_label_1
_geom_bond_atom_site_label_2
_geom_bond_distance
_geom_bond_site_symmetry_2
Ir0 O3 1.940149 1_545
Ir0 O8 1.940149 1_554
Ir0 O11 1.940285 1_545
Ir0 O0 1.940285 1_554
Ir0 O10 1.954959 1_554
Ir0 O1 1.954959 1_545
O0 Sr0 2.424943 1_555
O0 Sr4 2.516393 1_545
O0 Sr5 2.554436 1_555
O1 Sr3 2.450467 1_555
O1 Sr1 2.545260 1_455
O1 Sr2 2.742378 1_555
O1 Sr5 2.988807 1_564
O2 Te0 1.929718 1_555
O2 Sr0 2.419853 1_555
O2 Sr1 2.553010 1_455
O2 Sr2 2.839794 1_555
O2 Sr5 2.985774 1_555
O3 Sr3 2.402661 1_655
O3 Sr2 2.517518 1_555
O3 Sr1 2.818449 1_555
O3 Sr4 2.895031 1_554
O4 Te0 1.942253 1_655
O4 Sr0 2.475153 1_555
O4 Sr2 2.534156 1_555
O4 Sr1 2.724268 1_555
O4 Sr4 3.123362 1_545
O5 Te0 1.936492 1_665
O5 Sr3 2.450214 1_656
O5 Sr5 2.506000 1_665
O5 Sr4 2.584845 1_555
O6 Te0 1.936492 1_555
O6 Sr3 2.450214 1_555
O6 Sr1 2.506000 1_445
O6 Sr2 2.584845 1_555
O7 Te0 1.942253 1_565
O7 Sr0 2.475153 1_555
O7 Sr4 2.534156 1_555
O7 Sr5 2.724268 1_555
O7 Sr2 3.123362 1_565
O8 Sr3 2.402661 1_556
O8 Sr4 2.517518 1_555
O8 Sr5 2.818449 1_555
O8 Sr2 2.895031 1_556
O9 Te0 1.929718 1_665
O9 Sr0 2.419853 1_555
O9 Sr5 2.553010 1_655
O9 Sr4 2.839794 1_555
O9 Sr1 2.985774 1_555
O10 Sr3 2.450467 1_656
O10 Sr5 2.545260 1_655
O10 Sr4 2.742378 1_555
O10 Sr1 2.988807 1_546
O11 Sr0 2.424943 1_555
O11 Sr2 2.516393 1_565
O11 Sr1 2.554436 1_555
