# generated using pymatgen
data_CdHgPt2O7
_symmetry_space_group_name_H-M   'P 1'
_cell_length_a   7.19917621
_cell_length_b   7.15836539
_cell_length_c   7.19917580
_cell_angle_alpha   60.18734397
_cell_angle_beta   60.26422892
_cell_angle_gamma   60.18734720
_symmetry_Int_Tables_number   1
_chemical_formula_structural   CdHgPt2O7
_chemical_formula_sum   'Cd2 Hg2 Pt4 O14'
_cell_volume   263.60467835
_cell_formula_units_Z   2
loop_
 _symmetry_equiv_pos_site_id
 _symmetry_equiv_pos_as_xyz
  1  'x, y, z'
loop_
 _atom_site_type_symbol
 _atom_site_label
 _atom_site_symmetry_multiplicity
 _atom_site_fract_x
 _atom_site_fract_y
 _atom_site_fract_z
 _atom_site_occupancy
  Cd  Cd0  1  0.62500000  0.12500000  0.12500000  1
  Cd  Cd1  1  0.12500000  0.12500000  0.62500000  1
  Hg  Hg0  1  0.12500000  0.12500000  0.12500000  1
  Hg  Hg1  1  0.12500000  0.62500000  0.12500000  1
  Pt  Pt0  1  0.62500000  0.62500000  0.12500000  1
  Pt  Pt1  1  0.62500000  0.62500000  0.62500000  1
  Pt  Pt2  1  0.62500000  0.12500000  0.62500000  1
  Pt  Pt3  1  0.12500000  0.62500000  0.62500000  1
  O  O0  1  0.69752609  0.29355743  0.29540017  1
  O  O1  1  0.70688794  0.29311206  0.70688794  1
  O  O2  1  0.01332527  0.98667473  0.01332527  1
  O  O3  1  0.29785280  0.70214720  0.29785280  1
  O  O4  1  0.69752609  0.71351631  0.29540017  1
  O  O5  1  0.95459983  0.53648369  0.55247391  1
  O  O6  1  0.29540017  0.71351631  0.69752609  1
  O  O7  1  0.23667473  0.26332527  0.23667473  1
  O  O8  1  0.95214720  0.54785280  0.95214720  1
  O  O9  1  0.54311206  0.95688794  0.54311206  1
  O  O10  1  0.55247391  0.53648369  0.95459983  1
  O  O11  1  0.95459983  0.95644257  0.55247391  1
  O  O12  1  0.55247391  0.95644257  0.95459983  1
  O  O13  1  0.29540017  0.29355743  0.69752609  1
loop_
_geom_bond_atom_site_label_1
_geom_bond_atom_site_label_2
_geom_bond_distance
_geom_bond_site_symmetry_2
Cd0 O2 2.291679 1_645
Cd0 O7 2.291679 1_555
Cd0 O10 2.442743 1_554
Cd0 O4 2.442743 1_545
Cd0 O0 2.442743 1_555
Cd0 O12 2.442743 1_544
Cd0 O9 2.489881 1_545
Cd0 O1 2.489881 1_554
Cd1 O2 2.291679 1_546
Cd1 O7 2.291679 1_555
Cd1 O13 2.442743 1_555
Cd1 O11 2.442743 1_445
Cd1 O5 2.442743 1_455
Cd1 O6 2.442743 1_545
Cd1 O9 2.489882 1_545
Cd1 O1 2.489882 1_455
Hg0 O7 2.120730 1_555
Hg0 O2 2.120730 1_545
Hg0 O8 2.510938 1_454
Hg0 O3 2.510938 1_545
Hg0 O11 2.542846 1_445
Hg0 O13 2.542846 1_554
Hg0 O12 2.542846 1_544
Hg0 O0 2.542846 1_455
Hg1 O2 2.120730 1_555
Hg1 O7 2.120730 1_555
Hg1 O3 2.510938 1_555
Hg1 O8 2.510938 1_454
Hg1 O5 2.542846 1_455
Hg1 O6 2.542846 1_554
Hg1 O10 2.542846 1_554
Hg1 O4 2.542846 1_455
O0 Pt2 1.977236 1_555
O0 Pt0 1.978952 1_555
O1 Pt2 1.974555 1_555
O1 Pt1 1.974555 1_555
O3 Pt3 1.970563 1_555
O3 Pt0 1.970563 1_555
O4 Pt1 1.977236 1_555
O4 Pt0 1.978952 1_555
O5 Pt1 1.977236 1_555
O5 Pt3 1.978952 1_655
O6 Pt1 1.977236 1_555
O6 Pt3 1.978952 1_555
O8 Pt3 1.970563 1_655
O8 Pt0 1.970563 1_556
O9 Pt2 1.974555 1_565
O9 Pt1 1.974555 1_555
O10 Pt1 1.977236 1_555
O10 Pt0 1.978952 1_556
O11 Pt2 1.977236 1_565
O11 Pt3 1.978952 1_655
O12 Pt2 1.977236 1_565
O12 Pt0 1.978952 1_556
O13 Pt2 1.977236 1_555
O13 Pt3 1.978952 1_555
