# generated using pymatgen
data_Li2S
_symmetry_space_group_name_H-M   'P 1'
_cell_length_a   3.99635700
_cell_length_b   3.99635672
_cell_length_c   44.66346397
_cell_angle_alpha   60.51829146
_cell_angle_beta   60.51829112
_cell_angle_gamma   59.99481179
_symmetry_Int_Tables_number   1
_chemical_formula_structural   Li2S
_chemical_formula_sum   'Li22 S11'
_cell_volume   508.28445891
_cell_formula_units_Z   11
loop_
 _symmetry_equiv_pos_site_id
 _symmetry_equiv_pos_as_xyz
  1  'x, y, z'
loop_
 _atom_site_type_symbol
 _atom_site_label
 _atom_site_symmetry_multiplicity
 _atom_site_fract_x
 _atom_site_fract_y
 _atom_site_fract_z
 _atom_site_occupancy
  Li  Li0  1  0.52620700  0.52620700  0.03835500  1
  Li  Li1  1  0.52215300  0.52215300  0.13034300  1
  Li  Li2  1  0.75192200  0.75192200  0.06765400  1
  Li  Li3  1  0.75520600  0.75520600  0.15768000  1
  Li  Li4  1  0.53319900  0.53319900  0.21822200  1
  Li  Li5  1  0.23772200  0.23772200  0.29880200  1
  Li  Li6  1  0.74219400  0.74219400  0.25213000  1
  Li  Li7  1  0.24617200  0.24617200  0.38741100  1
  Li  Li8  1  0.24812100  0.24812100  0.47779500  1
  Li  Li9  1  0.74652700  0.74652700  0.34185000  1
  Li  Li10  1  0.74815200  0.74815200  0.43232300  1
  Li  Li11  1  0.24846400  0.24846400  0.56859700  1
  Li  Li12  1  0.74965800  0.74965800  0.52281100  1
  Li  Li13  1  0.24853800  0.24853800  0.65949400  1
  Li  Li14  1  0.74990700  0.74990700  0.61365500  1
  Li  Li15  1  0.24838200  0.24838200  0.75043200  1
  Li  Li16  1  0.74989000  0.74989000  0.70456100  1
  Li  Li17  1  0.24761500  0.24761500  0.84155800  1
  Li  Li18  1  0.74970900  0.74970900  0.79551500  1
  Li  Li19  1  0.23938700  0.23938700  0.93471800  1
  Li  Li20  1  0.74772900  0.74772900  0.88699000  1
  Li  Li21  1  0.75473200  0.75473200  0.97602100  1
  S  S0  1  0.98684100  0.98684100  0.00354300  1
  S  S1  1  0.98673700  0.98673700  0.09450900  1
  S  S2  1  0.98613400  0.98613400  0.18561000  1
  S  S3  1  0.99714600  0.99714600  0.36440100  1
  S  S4  1  0.99576600  0.99576600  0.27388300  1
  S  S5  1  0.00057400  0.00057400  0.45439600  1
  S  S6  1  0.00166800  0.00166800  0.63591900  1
  S  S7  1  0.00157800  0.00157800  0.72682800  1
  S  S8  1  0.00150000  0.00150000  0.54504200  1
  S  S9  1  0.00108000  0.00108000  0.81787500  1
  S  S10  1  0.99938900  0.99938900  0.90926200  1
loop_
_geom_bond_atom_site_label_1
_geom_bond_atom_site_label_2
_geom_bond_distance
_geom_bond_site_symmetry_2
Li0 S0 2.636244 1_555
Li0 S0 2.639195 1_545
Li0 S0 2.639195 1_455
Li1 Li2 2.303890 1_555
Li1 Li3 2.516307 1_555
Li1 Li3 2.516574 1_545
Li1 Li3 2.516574 1_455
Li1 S1 2.655894 1_555
Li1 S1 2.656995 1_545
Li1 S1 2.656996 1_455
Li1 S2 3.073737 1_455
Li1 S2 3.073738 1_545
Li1 S2 3.074198 1_445
Li2 S0 2.356150 1_555
Li2 S1 2.509253 1_555
Li2 S1 2.509572 1_545
Li2 S1 2.509572 1_455
Li3 S1 2.321604 1_555
Li3 S2 2.525197 1_545
Li3 S2 2.525197 1_455
Li3 S2 2.525399 1_555
Li4 S2 2.599832 1_545
Li4 S2 2.599833 1_455
Li4 S2 2.600226 1_555
Li5 S3 2.410836 1_445
Li5 S4 2.482316 1_455
Li5 S4 2.482316 1_545
Li5 S4 2.482403 1_445
Li6 S4 2.441761 1_545
Li6 S4 2.441761 1_455
Li6 S4 2.441922 1_555
Li6 S2 2.444683 1_555
Li7 S3 2.457069 1_455
Li7 S3 2.457069 1_545
Li7 S3 2.457843 1_445
Li7 S5 2.461773 1_555
Li8 S5 2.462197 1_565
Li8 S5 2.462197 1_655
Li8 S5 2.462457 1_555
Li8 S8 2.471401 1_555
Li9 S3 2.451504 1_555
Li9 S3 2.451608 1_545
Li9 S3 2.451608 1_455
Li9 S4 2.497862 1_555
Li10 S5 2.445560 1_655
Li10 S5 2.445561 1_565
Li10 S5 2.445950 1_665
Li10 S3 2.496208 1_555
Li11 S8 2.464241 1_565
Li11 S8 2.464241 1_655
Li11 S8 2.464393 1_555
Li11 S6 2.474158 1_555
Li12 S8 2.447495 1_655
Li12 S8 2.447495 1_565
Li12 S8 2.447878 1_665
Li12 S5 2.514327 1_665
Li13 S6 2.464518 1_555
Li13 S6 2.464566 1_565
Li13 S6 2.464566 1_655
Li13 S7 2.474599 1_555
Li14 S6 2.447770 1_655
Li14 S6 2.447770 1_565
Li14 S6 2.448544 1_665
Li14 S8 2.521603 1_665
Li15 S7 2.464810 1_565
Li15 S7 2.464810 1_655
Li15 S7 2.465154 1_555
Li15 S9 2.478605 1_555
Li16 S7 2.448009 1_655
Li16 S7 2.448009 1_565
Li16 S7 2.448176 1_665
Li16 S6 2.522669 1_665
Li17 S9 2.465766 1_565
Li17 S9 2.465767 1_655
Li17 S9 2.466311 1_555
Li17 S10 2.488197 1_445
Li18 S9 2.449075 1_655
Li18 S9 2.449075 1_565
Li18 S9 2.449477 1_665
Li18 S7 2.524323 1_665
Li19 S10 2.489629 1_455
Li19 S10 2.489629 1_545
Li19 S10 2.489821 1_445
Li19 S0 2.529395 1_446
Li20 S10 2.448102 1_545
Li20 S10 2.448102 1_455
Li20 S10 2.448174 1_555
Li20 S9 2.540053 1_665
Li21 S10 2.453467 1_555
Li21 S0 2.517345 1_556
Li21 S0 2.520139 1_546
Li21 S0 2.520139 1_456
