# generated using pymatgen
data_Nb3Al2NiC
_symmetry_space_group_name_H-M   'P 1'
_cell_length_a   8.25008052
_cell_length_b   8.25008087
_cell_length_c   8.25008114
_cell_angle_alpha   60.00000686
_cell_angle_beta   60.00000545
_cell_angle_gamma   60.00000734
_symmetry_Int_Tables_number   1
_chemical_formula_structural   Nb3Al2NiC
_chemical_formula_sum   'Nb12 Al8 Ni4 C4'
_cell_volume   397.06323718
_cell_formula_units_Z   4
loop_
 _symmetry_equiv_pos_site_id
 _symmetry_equiv_pos_as_xyz
  1  'x, y, z'
loop_
 _atom_site_type_symbol
 _atom_site_label
 _atom_site_symmetry_multiplicity
 _atom_site_fract_x
 _atom_site_fract_y
 _atom_site_fract_z
 _atom_site_occupancy
  Nb  Nb0  1  0.81409615  0.81409615  0.18590385  1
  Nb  Nb1  1  0.18590385  0.18590385  0.81409615  1
  Nb  Nb2  1  0.81409615  0.18590385  0.81409615  1
  Nb  Nb3  1  0.18590385  0.81409615  0.18590385  1
  Nb  Nb4  1  0.18590385  0.81409615  0.81409615  1
  Nb  Nb5  1  0.81409615  0.18590385  0.18590385  1
  Nb  Nb6  1  0.43590385  0.43590385  0.06409615  1
  Nb  Nb7  1  0.06409615  0.06409615  0.43590385  1
  Nb  Nb8  1  0.43590385  0.06409615  0.43590385  1
  Nb  Nb9  1  0.06409615  0.43590385  0.06409615  1
  Nb  Nb10  1  0.06409615  0.43590385  0.43590385  1
  Nb  Nb11  1  0.43590385  0.06409615  0.06409615  1
  Al  Al0  1  0.74565340  0.41811553  0.41811553  1
  Al  Al1  1  0.41811553  0.74565340  0.41811553  1
  Al  Al2  1  0.41811553  0.41811553  0.74565340  1
  Al  Al3  1  0.41811553  0.41811553  0.41811553  1
  Al  Al4  1  0.50434660  0.83188447  0.83188447  1
  Al  Al5  1  0.83188447  0.50434660  0.83188447  1
  Al  Al6  1  0.83188447  0.83188447  0.50434660  1
  Al  Al7  1  0.83188447  0.83188447  0.83188447  1
  Ni  Ni0  1  0.12500000  0.62500000  0.62500000  1
  Ni  Ni1  1  0.62500000  0.12500000  0.62500000  1
  Ni  Ni2  1  0.62500000  0.62500000  0.12500000  1
  Ni  Ni3  1  0.62500000  0.62500000  0.62500000  1
  C  C0  1  0.62500000  0.12500000  0.12500000  1
  C  C1  1  0.12500000  0.62500000  0.12500000  1
  C  C2  1  0.12500000  0.12500000  0.62500000  1
  C  C3  1  0.12500000  0.12500000  0.12500000  1
loop_
_geom_bond_atom_site_label_1
_geom_bond_atom_site_label_2
_geom_bond_distance
_geom_bond_site_symmetry_2
Nb0 Ni2 3.020191 1_555
Nb0 Ni3 3.020192 1_555
Nb1 Ni1 3.020191 1_555
Nb1 Ni0 3.020191 1_555
Nb2 Ni1 3.020191 1_555
Nb2 Ni3 3.020192 1_555
Nb3 Ni2 3.020191 1_555
Nb3 Ni0 3.020192 1_555
Nb4 Ni0 3.020191 1_555
Nb4 Ni3 3.020191 1_555
Nb5 Ni2 3.020191 1_555
Nb5 Ni1 3.020191 1_555
Nb6 Ni2 3.020191 1_555
Nb6 Ni3 3.020192 1_554
Nb7 Ni1 3.020191 1_455
Nb7 Ni0 3.020191 1_545
Nb8 Ni1 3.020191 1_555
Nb8 Ni3 3.020192 1_545
Nb9 Ni2 3.020191 1_455
Nb9 Ni0 3.020192 1_554
Nb10 Ni0 3.020191 1_555
Nb10 Ni3 3.020191 1_455
Nb11 Ni2 3.020191 1_545
Nb11 Ni1 3.020191 1_554
Al0 Ni3 2.516453 1_555
Al0 Ni1 2.516453 1_555
Al0 Ni2 2.516453 1_555
Al1 Ni0 2.516453 1_555
Al1 Ni3 2.516453 1_555
Al1 Ni2 2.516453 1_555
Al2 Ni3 2.516453 1_555
Al2 Ni0 2.516453 1_555
Al2 Ni1 2.516453 1_555
Al3 Ni2 2.516453 1_555
Al3 Ni0 2.516453 1_555
Al3 Ni1 2.516453 1_555
Al4 Ni3 2.516453 1_555
Al4 Ni1 2.516453 1_565
Al4 Ni2 2.516453 1_556
Al5 Ni0 2.516453 1_655
Al5 Ni3 2.516453 1_555
Al5 Ni2 2.516453 1_556
Al6 Ni3 2.516453 1_555
Al6 Ni0 2.516453 1_655
Al6 Ni1 2.516453 1_565
Al7 Ni2 2.516453 1_556
Al7 Ni0 2.516453 1_655
Al7 Ni1 2.516453 1_565
C0 Nb5 2.181496 1_555
C0 Nb11 2.181496 1_555
C0 Nb8 2.181496 1_555
C0 Nb2 2.181496 1_554
C0 Nb6 2.181496 1_555
C0 Nb0 2.181496 1_545
C1 Nb3 2.181496 1_555
C1 Nb9 2.181496 1_555
C1 Nb6 2.181496 1_555
C1 Nb0 2.181496 1_455
C1 Nb10 2.181496 1_555
C1 Nb4 2.181496 1_554
C2 Nb1 2.181496 1_555
C2 Nb7 2.181496 1_555
C2 Nb8 2.181496 1_555
C2 Nb2 2.181496 1_455
C2 Nb10 2.181496 1_555
C2 Nb4 2.181496 1_545
C3 Nb11 2.181496 1_555
C3 Nb5 2.181496 1_455
C3 Nb9 2.181496 1_555
C3 Nb3 2.181496 1_545
C3 Nb7 2.181496 1_555
C3 Nb1 2.181496 1_554
