# generated using pymatgen
data_Pr(SiAg)2
_symmetry_space_group_name_H-M   'P 1'
_cell_length_a   4.25237607
_cell_length_b   4.25237586
_cell_length_c   6.12852585
_cell_angle_alpha   110.29984783
_cell_angle_beta   110.29985243
_cell_angle_gamma   89.99999732
_symmetry_Int_Tables_number   1
_chemical_formula_structural   Pr(SiAg)2
_chemical_formula_sum   'Pr1 Si2 Ag2'
_cell_volume   96.56479065
_cell_formula_units_Z   1
loop_
 _symmetry_equiv_pos_site_id
 _symmetry_equiv_pos_as_xyz
  1  'x, y, z'
loop_
 _atom_site_type_symbol
 _atom_site_label
 _atom_site_symmetry_multiplicity
 _atom_site_fract_x
 _atom_site_fract_y
 _atom_site_fract_z
 _atom_site_occupancy
  Pr  Pr0  1  0.00000000  0.00000000  0.00000000  1
  Si  Si0  1  0.60884156  0.60884156  0.21768112  1
  Si  Si1  1  0.39115844  0.39115844  0.78231888  1
  Ag  Ag0  1  0.25000000  0.75000000  0.50000000  1
  Ag  Ag1  1  0.75000000  0.25000000  0.50000000  1
loop_
_geom_bond_atom_site_label_1
_geom_bond_atom_site_label_2
_geom_bond_distance
_geom_bond_site_symmetry_2
Pr0 Si1 3.223759 1_554
Pr0 Si0 3.223759 1_445
Pr0 Si0 3.223764 1_545
Pr0 Si1 3.223764 1_454
Pr0 Si0 3.223764 1_455
Pr0 Si1 3.223764 1_544
Pr0 Si0 3.223769 1_555
Pr0 Si1 3.223769 1_444
Si0 Si1 2.324911 1_554
Ag0 Si1 2.606456 1_565
Ag0 Si0 2.606456 1_455
Ag0 Si1 2.606463 1_555
Ag0 Si0 2.606463 1_555
Ag0 Ag1 3.006884 1_465
Ag0 Ag1 3.006884 1_555
Ag0 Ag1 3.006884 1_565
Ag0 Ag1 3.006884 1_455
Ag0 Pr0 3.413216 1_666
Ag0 Pr0 3.413216 1_555
Ag0 Pr0 3.413216 1_565
Ag0 Pr0 3.413216 1_566
Ag1 Si0 2.606456 1_545
Ag1 Si1 2.606456 1_655
Ag1 Si0 2.606463 1_555
Ag1 Si1 2.606463 1_555
Ag1 Pr0 3.413216 1_555
Ag1 Pr0 3.413216 1_666
Ag1 Pr0 3.413216 1_656
Ag1 Pr0 3.413216 1_655
