# generated using pymatgen
data_Hf8Al14SiRh7
_symmetry_space_group_name_H-M   'P 1'
_cell_length_a   8.78142119
_cell_length_b   8.78142136
_cell_length_c   8.78142067
_cell_angle_alpha   120.14609567
_cell_angle_beta   119.85142433
_cell_angle_gamma   90.00233525
_symmetry_Int_Tables_number   1
_chemical_formula_structural   Hf8Al14SiRh7
_chemical_formula_sum   'Hf8 Al14 Si1 Rh7'
_cell_volume   478.83288200
_cell_formula_units_Z   1
loop_
 _symmetry_equiv_pos_site_id
 _symmetry_equiv_pos_as_xyz
  1  'x, y, z'
loop_
 _atom_site_type_symbol
 _atom_site_label
 _atom_site_symmetry_multiplicity
 _atom_site_fract_x
 _atom_site_fract_y
 _atom_site_fract_z
 _atom_site_occupancy
  Hf  Hf0  1  0.80405254  0.29851113  0.09111277  1
  Hf  Hf1  1  0.20739936  0.29851113  0.49445858  1
  Hf  Hf2  1  0.19575970  0.69575970  0.50000000  1
  Hf  Hf3  1  0.20739936  0.71294077  0.90888723  1
  Hf  Hf4  1  0.80405254  0.71294077  0.50554142  1
  Hf  Hf5  1  0.78762266  0.28762266  0.50000000  1
  Hf  Hf6  1  0.37991230  0.12038540  0.74047309  1
  Hf  Hf7  1  0.37991230  0.63943921  0.25952691  1
  Al  Al0  1  0.16206180  0.33068327  0.16862147  1
  Al  Al1  1  0.16206180  0.99344034  0.83137853  1
  Al  Al2  1  0.15387655  0.33849815  0.81537740  1
  Al  Al3  1  0.52312076  0.33849815  0.18462260  1
  Al  Al4  1  0.83557117  0.66210320  0.82653204  1
  Al  Al5  1  0.83557117  0.00903913  0.17346796  1
  Al  Al6  1  0.83472760  0.66443723  0.17028937  1
  Al  Al7  1  0.49414686  0.66443723  0.82971063  1
  Al  Al8  1  0.38032808  0.12031390  0.26001318  1
  Al  Al9  1  0.86030172  0.12031390  0.73998682  1
  Al  Al10  1  0.62175737  0.87843024  0.25667186  1
  Al  Al11  1  0.62175737  0.36508551  0.74332814  1
  Al  Al12  1  0.62343844  0.87936911  0.74406932  1
  Al  Al13  1  0.13529779  0.87936911  0.25593068  1
  Si  Si0  1  0.99139125  0.49139125  0.50000000  1
  Rh  Rh0  1  0.99976402  0.99957602  0.50149689  1
  Rh  Rh1  1  0.49807913  0.99957602  0.99981200  1
  Rh  Rh2  1  0.49879232  0.49879232  0.00000000  1
  Rh  Rh3  1  0.49807913  0.49826713  0.49850311  1
  Rh  Rh4  1  0.99976402  0.49826713  0.00018800  1
  Rh  Rh5  1  0.99962072  0.99962072  1.00000000  1
  Rh  Rh6  1  0.50437817  0.00437817  0.50000000  1
loop_
_geom_bond_atom_site_label_1
_geom_bond_atom_site_label_2
_geom_bond_distance
_geom_bond_site_symmetry_2
Hf0 Si0 2.545309 1_555
Hf0 Rh4 3.072588 1_555
Hf0 Rh5 3.120488 1_544
Hf0 Rh2 3.193390 1_555
Hf0 Rh1 3.239462 1_544
Hf1 Si0 2.545316 1_455
Hf1 Rh3 3.072581 1_555
Hf1 Rh5 3.120487 1_444
Hf1 Rh2 3.193389 1_556
Hf1 Rh0 3.239467 1_445
Hf2 Si0 2.537960 1_455
Hf2 Rh4 3.173011 1_455
Hf2 Rh1 3.173011 1_555
Hf2 Rh3 3.173011 1_555
Hf2 Rh0 3.173011 1_455
Hf3 Si0 2.545310 1_455
Hf3 Rh1 3.072576 1_555
Hf3 Rh5 3.120488 1_455
Hf3 Rh2 3.193390 1_556
Hf3 Rh4 3.239474 1_456
Hf4 Si0 2.545316 1_555
Hf4 Rh0 3.072581 1_555
Hf4 Rh5 3.120487 1_555
Hf4 Rh2 3.193389 1_555
Hf4 Rh3 3.239466 1_555
Hf5 Si0 2.530511 1_555
Hf5 Rh4 3.142951 1_556
Hf5 Rh1 3.142951 1_544
Hf5 Rh3 3.142951 1_555
Hf5 Rh0 3.142951 1_545
Hf6 Rh6 2.613182 1_555
Hf6 Rh2 2.711181 1_556
Hf6 Rh1 2.731819 1_545
Hf6 Rh0 2.731819 1_445
Hf7 Rh6 2.613183 1_565
Hf7 Rh2 2.711181 1_555
Hf7 Rh3 2.731819 1_555
Hf7 Rh4 2.731819 1_455
Al0 Rh5 2.500467 1_444
Al0 Rh4 2.544109 1_455
Al0 Rh3 2.544109 1_555
Al1 Rh5 2.500467 1_455
Al1 Rh0 2.544109 1_455
Al1 Rh1 2.544109 1_555
Al2 Rh0 2.516602 1_445
Al2 Rh4 2.516610 1_456
Al2 Rh2 2.569591 1_556
Al3 Rh3 2.516602 1_555
Al3 Rh1 2.516602 1_544
Al3 Rh2 2.569598 1_555
Al4 Rh5 2.541773 1_555
Al4 Rh4 2.547398 1_556
Al4 Rh3 2.547398 1_555
Al5 Rh5 2.541772 1_544
Al5 Rh0 2.547398 1_545
Al5 Rh1 2.547398 1_544
Al6 Rh4 2.535117 1_555
Al6 Rh0 2.535125 1_555
Al6 Rh2 2.545152 1_555
Al7 Rh1 2.535122 1_555
Al7 Rh3 2.535129 1_555
Al7 Rh2 2.545141 1_556
Al8 Rh6 2.556187 1_555
Al8 Rh1 2.707972 1_544
Al8 Rh3 2.707979 1_555
Al8 Rh5 2.735575 1_444
Al9 Rh6 2.556195 1_555
Al9 Rh0 2.707971 1_545
Al9 Rh4 2.707979 1_556
Al9 Rh5 2.735567 1_545
Al10 Rh6 2.582722 1_565
Al10 Rh1 2.714872 1_554
Al10 Rh0 2.714879 1_555
Al10 Rh2 2.718411 1_555
Al11 Rh6 2.582722 1_555
Al11 Rh3 2.714879 1_555
Al11 Rh4 2.714879 1_556
Al11 Rh2 2.718403 1_556
Al12 Rh6 2.650343 1_565
Al12 Rh5 2.702548 1_555
Al12 Rh1 2.729428 1_555
Al12 Rh3 2.729428 1_555
Al13 Rh6 2.650358 1_565
Al13 Rh5 2.702547 1_454
Al13 Rh0 2.729413 1_455
Al13 Rh4 2.729428 1_455
