# generated using pymatgen
data_Rb4Sr2ZrP4
_symmetry_space_group_name_H-M   'P 1'
_cell_length_a   10.51643742
_cell_length_b   10.51643606
_cell_length_c   7.74035716
_cell_angle_alpha   87.56562859
_cell_angle_beta   87.56562836
_cell_angle_gamma   119.71499629
_symmetry_Int_Tables_number   1
_chemical_formula_structural   Rb4Sr2ZrP4
_chemical_formula_sum   'Rb8 Sr4 Zr2 P8'
_cell_volume   740.81493479
_cell_formula_units_Z   2
loop_
 _symmetry_equiv_pos_site_id
 _symmetry_equiv_pos_as_xyz
  1  'x, y, z'
loop_
 _atom_site_type_symbol
 _atom_site_label
 _atom_site_symmetry_multiplicity
 _atom_site_fract_x
 _atom_site_fract_y
 _atom_site_fract_z
 _atom_site_occupancy
  Rb  Rb0  1  0.47739907  0.94288036  0.38838391  1
  Rb  Rb1  1  0.94288036  0.47739907  0.88838391  1
  Rb  Rb2  1  0.86908523  0.72072321  0.15607583  1
  Rb  Rb3  1  0.25837747  0.12152435  0.24376315  1
  Rb  Rb4  1  0.85493786  0.14114945  0.18907066  1
  Rb  Rb5  1  0.12152435  0.25837747  0.74376315  1
  Rb  Rb6  1  0.72072321  0.86908523  0.65607583  1
  Rb  Rb7  1  0.14114945  0.85493786  0.68907066  1
  Sr  Sr0  1  0.07880894  0.53154143  0.39871699  1
  Sr  Sr1  1  0.47432719  0.52979005  0.37579878  1
  Sr  Sr2  1  0.53154143  0.07880894  0.89871699  1
  Sr  Sr3  1  0.52979005  0.47432719  0.87579878  1
  Zr  Zr0  1  0.66428868  0.33814525  0.48853115  1
  Zr  Zr1  1  0.33814525  0.66428868  0.98853115  1
  P  P0  1  0.63230928  0.32878351  0.16103276  1
  P  P1  1  0.32878351  0.63230928  0.66103276  1
  P  P2  1  0.21543653  0.40886080  0.14121994  1
  P  P3  1  0.60042892  0.79086597  0.07306874  1
  P  P4  1  0.21724564  0.80320879  0.09836808  1
  P  P5  1  0.79086597  0.60042892  0.57306874  1
  P  P6  1  0.40886080  0.21543653  0.64121994  1
  P  P7  1  0.80320879  0.21724564  0.59836808  1
loop_
_geom_bond_atom_site_label_1
_geom_bond_atom_site_label_2
_geom_bond_distance
_geom_bond_site_symmetry_2
P0 Zr0 2.570912 1_555
P0 Sr3 3.151294 1_554
P0 Sr2 3.167148 1_554
P0 Rb1 3.411389 1_554
P0 Rb3 3.434397 1_555
P0 Rb2 3.604804 1_555
P0 Sr1 3.679374 1_555
P0 Rb4 3.742870 1_555
P0 Rb0 3.849180 1_545
P1 Zr1 2.570912 1_555
P1 Sr1 3.151294 1_555
P1 Sr0 3.167149 1_555
P1 Rb0 3.411389 1_555
P1 Rb5 3.434396 1_555
P1 Rb6 3.604804 1_555
P1 Sr3 3.679375 1_555
P1 Rb7 3.742870 1_555
P1 Rb1 3.849180 1_455
P2 Zr1 2.538099 1_554
P2 Sr1 3.083878 1_555
P2 Sr0 3.084553 1_555
P2 Rb3 3.338329 1_555
P2 Rb4 3.412784 1_455
P2 Rb5 3.473712 1_554
P2 Sr3 3.559512 1_554
P2 Rb1 3.869131 1_454
P3 Zr1 2.528952 1_554
P3 Sr1 3.219866 1_555
P3 Rb6 3.330294 1_554
P3 Rb2 3.334571 1_555
P3 Sr3 3.470057 1_554
P3 Rb4 3.500072 1_565
P3 Rb0 3.507166 1_555
P3 Sr2 3.664205 1_564
P4 Zr1 2.515722 1_554
P4 Sr0 3.272817 1_555
P4 Rb2 3.322251 1_455
P4 Sr2 3.376654 1_564
P4 Rb7 3.387304 1_554
P4 Rb0 3.391127 1_555
P4 Rb3 3.403760 1_565
P4 Rb1 3.711801 1_454
P5 Zr0 2.528952 1_555
P5 Sr3 3.219866 1_555
P5 Rb2 3.330294 1_555
P5 Rb6 3.334570 1_555
P5 Sr1 3.470057 1_555
P5 Rb7 3.500072 1_655
P5 Rb1 3.507166 1_555
P5 Sr0 3.664205 1_655
P6 Zr0 2.538100 1_555
P6 Sr3 3.083878 1_555
P6 Sr2 3.084553 1_555
P6 Rb5 3.338329 1_555
P6 Rb7 3.412784 1_545
P6 Rb3 3.473712 1_555
P6 Sr1 3.559512 1_555
P6 Rb0 3.869131 1_545
P7 Zr0 2.515722 1_555
P7 Sr2 3.272818 1_555
P7 Rb6 3.322251 1_545
P7 Sr0 3.376654 1_655
P7 Rb4 3.387304 1_555
P7 Rb1 3.391127 1_555
P7 Rb5 3.403761 1_655
P7 Rb0 3.711801 1_545
