# generated using pymatgen
data_CaY6CoI12
_symmetry_space_group_name_H-M   'P 1'
_cell_length_a   9.67983621
_cell_length_b   9.67983713
_cell_length_c   9.67983625
_cell_angle_alpha   106.93371982
_cell_angle_beta   106.93372430
_cell_angle_gamma   106.93372877
_symmetry_Int_Tables_number   1
_chemical_formula_structural   CaY6CoI12
_chemical_formula_sum   'Ca1 Y6 Co1 I12'
_cell_volume   756.71415309
_cell_formula_units_Z   1
loop_
 _symmetry_equiv_pos_site_id
 _symmetry_equiv_pos_as_xyz
  1  'x, y, z'
loop_
 _atom_site_type_symbol
 _atom_site_label
 _atom_site_symmetry_multiplicity
 _atom_site_fract_x
 _atom_site_fract_y
 _atom_site_fract_z
 _atom_site_occupancy
  Ca  Ca0  1  0.50000000  0.50000000  0.50000000  1
  Y  Y0  1  0.02224094  0.09290099  0.29339201  1
  Y  Y1  1  0.09290099  0.29339201  0.02224094  1
  Y  Y2  1  0.29339201  0.02224094  0.09290099  1
  Y  Y3  1  0.97775906  0.90709901  0.70660799  1
  Y  Y4  1  0.90709901  0.70660799  0.97775906  1
  Y  Y5  1  0.70660799  0.97775906  0.90709901  1
  Co  Co0  1  0.00000000  0.00000000  0.00000000  1
  I  I0  1  0.14738834  0.45690106  0.37893441  1
  I  I1  1  0.45690106  0.37893441  0.14738834  1
  I  I2  1  0.37893441  0.14738834  0.45690106  1
  I  I3  1  0.85261166  0.54309894  0.62106559  1
  I  I4  1  0.54309894  0.62106559  0.85261166  1
  I  I5  1  0.62106559  0.85261166  0.54309894  1
  I  I6  1  0.67765494  0.07445744  0.22767609  1
  I  I7  1  0.07445744  0.22767609  0.67765494  1
  I  I8  1  0.22767609  0.67765494  0.07445744  1
  I  I9  1  0.32234506  0.92554256  0.77232391  1
  I  I10  1  0.92554256  0.77232391  0.32234506  1
  I  I11  1  0.77232391  0.32234506  0.92554256  1
loop_
_geom_bond_atom_site_label_1
_geom_bond_atom_site_label_2
_geom_bond_distance
_geom_bond_site_symmetry_2
Ca0 I3 3.122993 1_555
Ca0 I0 3.122993 1_555
Ca0 I4 3.122993 1_555
Ca0 I1 3.122993 1_555
Ca0 I5 3.122993 1_555
Ca0 I2 3.122993 1_555
Co0 Y2 2.638916 1_555
Co0 Y5 2.638916 1_444
Co0 Y0 2.638916 1_555
Co0 Y3 2.638916 1_444
Co0 Y4 2.638916 1_444
Co0 Y1 2.638916 1_555
I0 Y0 3.130111 1_555
I0 Y1 3.158181 1_555
I1 Y1 3.130111 1_555
I1 Y2 3.158181 1_555
I2 Y2 3.130111 1_555
I2 Y0 3.158180 1_555
I3 Y3 3.130111 1_555
I3 Y4 3.158181 1_555
I4 Y4 3.130111 1_555
I4 Y5 3.158181 1_555
I5 Y5 3.130111 1_555
I5 Y3 3.158180 1_555
I6 Y5 3.090556 1_544
I6 Y0 3.148533 1_655
I6 Y2 3.389218 1_555
I7 Y3 3.090556 1_445
I7 Y1 3.148533 1_556
I7 Y0 3.389218 1_555
I8 Y4 3.090556 1_454
I8 Y2 3.148533 1_565
I8 Y1 3.389218 1_555
I9 Y2 3.090556 1_566
I9 Y3 3.148533 1_455
I9 Y5 3.389218 1_555
I10 Y0 3.090556 1_665
I10 Y4 3.148533 1_554
I10 Y3 3.389218 1_555
I11 Y1 3.090556 1_656
I11 Y5 3.148533 1_545
I11 Y4 3.389218 1_555
