# generated using pymatgen
data_RbSn3RhO8
_symmetry_space_group_name_H-M   'P 1'
_cell_length_a   6.41431938
_cell_length_b   7.65387744
_cell_length_c   7.46411652
_cell_angle_alpha   93.00927310
_cell_angle_beta   77.59881824
_cell_angle_gamma   102.10080058
_symmetry_Int_Tables_number   1
_chemical_formula_structural   RbSn3RhO8
_chemical_formula_sum   'Rb2 Sn6 Rh2 O16'
_cell_volume   349.93336818
_cell_formula_units_Z   2
loop_
 _symmetry_equiv_pos_site_id
 _symmetry_equiv_pos_as_xyz
  1  'x, y, z'
loop_
 _atom_site_type_symbol
 _atom_site_label
 _atom_site_symmetry_multiplicity
 _atom_site_fract_x
 _atom_site_fract_y
 _atom_site_fract_z
 _atom_site_occupancy
  Rb  Rb0  1  0.25257941  0.99350476  0.98646597  1
  Rb  Rb1  1  0.75259470  0.99350461  0.98640349  1
  Sn  Sn0  1  0.17277006  0.17277108  0.48128484  1
  Sn  Sn1  1  0.67277042  0.17276880  0.48127877  1
  Sn  Sn2  1  0.92075775  0.49237338  0.80901956  1
  Sn  Sn3  1  0.42075811  0.49237228  0.80901976  1
  Sn  Sn4  1  0.58200669  0.52247453  0.19443995  1
  Sn  Sn5  1  0.08200538  0.52247209  0.19443924  1
  Rh  Rh0  1  0.32622040  0.82227499  0.51705527  1
  Rh  Rh1  1  0.82622124  0.82227604  0.51705477  1
  O  O0  1  0.22982200  0.62349222  0.70386061  1
  O  O1  1  0.72982292  0.62349808  0.70386427  1
  O  O2  1  0.27016482  0.37511337  0.29434119  1
  O  O3  1  0.77016418  0.37511469  0.29434159  1
  O  O4  1  0.91532467  0.28620137  0.62452068  1
  O  O5  1  0.41532775  0.28620303  0.62451930  1
  O  O6  1  0.57864312  0.70654140  0.39156021  1
  O  O7  1  0.07864298  0.70654291  0.39155579  1
  O  O8  1  0.92386358  0.04383113  0.34793182  1
  O  O9  1  0.42386128  0.04383043  0.34793197  1
  O  O10  1  0.57620291  0.94875100  0.64379205  1
  O  O11  1  0.07620473  0.94875110  0.64379242  1
  O  O12  1  0.39833200  0.64696646  0.05366951  1
  O  O13  1  0.89833318  0.64696688  0.05366927  1
  O  O14  1  0.10330359  0.36569957  0.95209260  1
  O  O15  1  0.60330413  0.36570079  0.95209309  1
loop_
_geom_bond_atom_site_label_1
_geom_bond_atom_site_label_2
_geom_bond_distance
_geom_bond_site_symmetry_2
O0 Rh0 2.024685 1_555
O0 Sn2 2.033110 1_455
O0 Sn3 2.033258 1_555
O1 Rh1 2.024679 1_555
O1 Sn3 2.033124 1_555
O1 Sn2 2.033259 1_555
O2 Sn0 2.045154 1_555
O2 Sn5 2.080945 1_555
O2 Sn4 2.081095 1_555
O3 Sn1 2.045143 1_555
O3 Sn4 2.080940 1_555
O3 Sn5 2.081083 1_655
O4 Sn2 2.038921 1_555
O4 Sn1 2.090014 1_555
O4 Sn0 2.090220 1_655
O5 Sn3 2.038913 1_555
O5 Sn0 2.089994 1_555
O5 Sn1 2.090234 1_555
O6 Sn4 1.982809 1_555
O6 Rh1 2.036169 1_555
O6 Rh0 2.036277 1_555
O7 Sn5 1.982810 1_555
O7 Rh0 2.036183 1_555
O7 Rh1 2.036278 1_455
O8 Rh1 2.073951 1_545
O8 Sn0 2.105359 1_655
O8 Sn1 2.105545 1_555
O8 Rb1 3.102227 1_544
O8 Rb0 3.108286 1_644
O9 Rh0 2.073955 1_545
O9 Sn1 2.105340 1_555
O9 Sn0 2.105562 1_555
O9 Rb0 3.101832 1_544
O9 Rb1 3.108678 1_544
O10 Sn1 2.060420 1_565
O10 Rh1 2.075313 1_555
O10 Rh0 2.075485 1_555
O10 Rb0 2.982309 1_555
O10 Rb1 2.987558 1_555
O11 Sn0 2.060410 1_565
O11 Rh0 2.075305 1_555
O11 Rh1 2.075491 1_455
O11 Rb1 2.981933 1_455
O11 Rb0 2.987930 1_555
O12 Sn3 2.118267 1_554
O12 Sn4 2.123077 1_555
O12 Sn5 2.123140 1_555
O12 Rb0 3.088924 1_554
O12 Rb1 3.094113 1_554
O13 Sn2 2.118264 1_554
O13 Sn5 2.123075 1_655
O13 Sn4 2.123137 1_555
O13 Rb1 3.089000 1_554
O13 Rb0 3.094034 1_654
O14 Sn5 2.113123 1_556
O14 Sn2 2.138513 1_455
O14 Sn3 2.138638 1_555
O14 Rb1 3.222380 1_445
O14 Rb0 3.228590 1_545
O15 Sn4 2.113129 1_556
O15 Sn3 2.138504 1_555
O15 Sn2 2.138635 1_555
O15 Rb0 3.222425 1_545
O15 Rb1 3.228558 1_545
