# generated using pymatgen
data_OsRu3Se8
_symmetry_space_group_name_H-M   'P 1'
_cell_length_a   5.97582051
_cell_length_b   5.97582051
_cell_length_c   5.97582051
_cell_angle_alpha   90.05496935
_cell_angle_beta   89.94503065
_cell_angle_gamma   90.05496935
_symmetry_Int_Tables_number   1
_chemical_formula_structural   OsRu3Se8
_chemical_formula_sum   'Os1 Ru3 Se8'
_cell_volume   213.39883020
_cell_formula_units_Z   1
loop_
 _symmetry_equiv_pos_site_id
 _symmetry_equiv_pos_as_xyz
  1  'x, y, z'
loop_
 _atom_site_type_symbol
 _atom_site_label
 _atom_site_symmetry_multiplicity
 _atom_site_fract_x
 _atom_site_fract_y
 _atom_site_fract_z
 _atom_site_occupancy
  Os  Os0  1  0.00000000  0.50000000  0.50000000  1
  Ru  Ru0  1  0.50000000  0.50000000  0.00000000  1
  Ru  Ru1  1  0.50000000  0.00000000  0.50000000  1
  Ru  Ru2  1  0.00000000  0.00000000  0.00000000  1
  Se  Se0  1  0.38049059  0.11950941  0.88049059  1
  Se  Se1  1  0.11959228  0.87898305  0.37950815  1
  Se  Se2  1  0.87950815  0.38040772  0.12101695  1
  Se  Se3  1  0.62101695  0.62049185  0.61959228  1
  Se  Se4  1  0.37898305  0.37950815  0.38040772  1
  Se  Se5  1  0.12049185  0.61959228  0.87898305  1
  Se  Se6  1  0.88040772  0.12101695  0.62049185  1
  Se  Se7  1  0.61950941  0.88049059  0.11950941  1
loop_
_geom_bond_atom_site_label_1
_geom_bond_atom_site_label_2
_geom_bond_distance
_geom_bond_site_symmetry_2
Os0 Se5 2.481382 1_555
Os0 Se1 2.481382 1_555
Os0 Se4 2.481382 1_555
Os0 Se3 2.481382 1_455
Os0 Se6 2.481382 1_455
Os0 Se2 2.481382 1_455
Ru0 Se2 2.486809 1_555
Ru0 Se5 2.486809 1_554
Ru0 Se7 2.486911 1_555
Ru0 Se0 2.486911 1_554
Ru0 Se4 2.491602 1_555
Ru0 Se3 2.491602 1_554
Ru1 Se4 2.486809 1_555
Ru1 Se3 2.486809 1_545
Ru1 Se0 2.486911 1_555
Ru1 Se7 2.486911 1_545
Ru1 Se6 2.491602 1_555
Ru1 Se1 2.491602 1_545
Ru2 Se1 2.486809 1_545
Ru2 Se6 2.486809 1_454
Ru2 Se0 2.486911 1_554
Ru2 Se7 2.486911 1_445
Ru2 Se2 2.491602 1_455
Ru2 Se5 2.491602 1_544
Se0 Se7 2.476319 1_546
Se1 Se6 2.490931 1_465
Se2 Se5 2.490931 1_654
Se3 Se4 2.490931 1_555
