# generated using pymatgen
data_K4Sr2TiAs4
_symmetry_space_group_name_H-M   'P 1'
_cell_length_a   10.24115508
_cell_length_b   10.24115586
_cell_length_c   7.77312215
_cell_angle_alpha   88.21815637
_cell_angle_beta   88.21816148
_cell_angle_gamma   119.43983534
_symmetry_Int_Tables_number   1
_chemical_formula_structural   K4Sr2TiAs4
_chemical_formula_sum   'K8 Sr4 Ti2 As8'
_cell_volume   708.63166000
_cell_formula_units_Z   2
loop_
 _symmetry_equiv_pos_site_id
 _symmetry_equiv_pos_as_xyz
  1  'x, y, z'
loop_
 _atom_site_type_symbol
 _atom_site_label
 _atom_site_symmetry_multiplicity
 _atom_site_fract_x
 _atom_site_fract_y
 _atom_site_fract_z
 _atom_site_occupancy
  K  K0  1  0.47629124  0.94577366  0.38455056  1
  K  K1  1  0.94577366  0.47629124  0.88455056  1
  K  K2  1  0.86585645  0.72201087  0.16883156  1
  K  K3  1  0.26694131  0.12592440  0.23555739  1
  K  K4  1  0.85419943  0.13997325  0.19682511  1
  K  K5  1  0.12592440  0.26694131  0.73555739  1
  K  K6  1  0.72201087  0.86585645  0.66883156  1
  K  K7  1  0.13997325  0.85419943  0.69682511  1
  Sr  Sr0  1  0.06435874  0.53088030  0.39236128  1
  Sr  Sr1  1  0.47636156  0.52904914  0.37874246  1
  Sr  Sr2  1  0.53088030  0.06435874  0.89236128  1
  Sr  Sr3  1  0.52904914  0.47636156  0.87874246  1
  Ti  Ti0  1  0.66458842  0.33462156  0.49185675  1
  Ti  Ti1  1  0.33462156  0.66458842  0.99185675  1
  As  As0  1  0.64630950  0.33148341  0.17042740  1
  As  As1  1  0.33148341  0.64630950  0.67042740  1
  As  As2  1  0.21124405  0.40497635  0.12622432  1
  As  As3  1  0.60096098  0.79572122  0.07527866  1
  As  As4  1  0.20990518  0.80237798  0.09701451  1
  As  As5  1  0.79572122  0.60096098  0.57527866  1
  As  As6  1  0.40497635  0.21124405  0.62622432  1
  As  As7  1  0.80237798  0.20990518  0.59701451  1
loop_
_geom_bond_atom_site_label_1
_geom_bond_atom_site_label_2
_geom_bond_distance
_geom_bond_site_symmetry_2
As0 Ti0 2.511333 1_555
As0 Sr3 3.239728 1_554
As0 Sr2 3.301628 1_554
As0 K1 3.382783 1_554
As0 K3 3.399107 1_555
As0 K2 3.493794 1_555
As0 K4 3.539548 1_555
As0 Sr1 3.638011 1_555
As0 K0 3.749027 1_545
As1 Ti1 2.511333 1_555
As1 Sr1 3.239728 1_555
As1 Sr0 3.301627 1_555
As1 K0 3.382783 1_555
As1 K5 3.399107 1_555
As1 K6 3.493794 1_555
As1 K7 3.539548 1_555
As1 Sr3 3.638011 1_555
As1 K1 3.749027 1_455
As2 Ti1 2.489806 1_554
As2 Sr1 3.151876 1_555
As2 Sr0 3.175535 1_555
As2 K3 3.270514 1_555
As2 K4 3.326325 1_455
As2 K5 3.346813 1_554
As2 Sr3 3.465878 1_554
As2 K1 3.692971 1_454
As3 Ti1 2.495440 1_554
As3 K2 3.249580 1_555
As3 Sr1 3.261517 1_555
As3 K6 3.282426 1_554
As3 K4 3.379279 1_565
As3 Sr3 3.403830 1_554
As3 K0 3.426137 1_555
As3 Sr2 3.444822 1_564
As4 Ti1 2.463596 1_554
As4 K2 3.225238 1_455
As4 Sr0 3.246444 1_555
As4 K3 3.292198 1_565
As4 K7 3.298586 1_554
As4 K0 3.352554 1_555
As4 Sr2 3.357706 1_564
As4 K1 3.596895 1_454
As5 Ti0 2.495440 1_555
As5 K6 3.249580 1_555
As5 Sr3 3.261517 1_555
As5 K2 3.282426 1_555
As5 K7 3.379279 1_655
As5 Sr1 3.403830 1_555
As5 K1 3.426137 1_555
As5 Sr0 3.444822 1_655
As6 Ti0 2.489806 1_555
As6 Sr3 3.151877 1_555
As6 Sr2 3.175534 1_555
As6 K5 3.270514 1_555
As6 K7 3.326325 1_545
As6 K3 3.346813 1_555
As6 Sr1 3.465878 1_555
As6 K0 3.692971 1_545
As7 Ti0 2.463596 1_555
As7 K6 3.225238 1_545
As7 Sr2 3.246444 1_555
As7 K5 3.292198 1_655
As7 K4 3.298586 1_555
As7 K1 3.352554 1_555
As7 Sr0 3.357706 1_655
As7 K0 3.596895 1_545
