# generated using pymatgen
data_Y16MgIn3Pd4
_symmetry_space_group_name_H-M   'P 1'
_cell_length_a   9.76806004
_cell_length_b   9.77680516
_cell_length_c   9.77680557
_cell_angle_alpha   59.99999863
_cell_angle_beta   59.97037866
_cell_angle_gamma   59.97037564
_symmetry_Int_Tables_number   1
_chemical_formula_structural   Y16MgIn3Pd4
_chemical_formula_sum   'Y16 Mg1 In3 Pd4'
_cell_volume   659.92207567
_cell_formula_units_Z   1
loop_
 _symmetry_equiv_pos_site_id
 _symmetry_equiv_pos_as_xyz
  1  'x, y, z'
loop_
 _atom_site_type_symbol
 _atom_site_label
 _atom_site_symmetry_multiplicity
 _atom_site_fract_x
 _atom_site_fract_y
 _atom_site_fract_z
 _atom_site_occupancy
  Y  Y0  1  0.35149947  0.35156345  0.35156345  1
  Y  Y1  1  0.35149947  0.35156345  0.94537463  1
  Y  Y2  1  0.35149947  0.94537463  0.35156345  1
  Y  Y3  1  0.93918333  0.35360589  0.35360589  1
  Y  Y4  1  0.80875089  0.19090979  0.19090979  1
  Y  Y5  1  0.18842798  0.81146090  0.81146090  1
  Y  Y6  1  0.18842798  0.81146090  0.18865122  1
  Y  Y7  1  0.80875089  0.19090979  0.80942953  1
  Y  Y8  1  0.18842798  0.18865122  0.81146090  1
  Y  Y9  1  0.80875089  0.80942953  0.19090979  1
  Y  Y10  1  0.93608749  0.56472812  0.56472812  1
  Y  Y11  1  0.56422938  0.93606350  0.93606350  1
  Y  Y12  1  0.56422938  0.93606350  0.56364262  1
  Y  Y13  1  0.93608749  0.56472812  0.93445528  1
  Y  Y14  1  0.56422938  0.56364262  0.93606350  1
  Y  Y15  1  0.93608749  0.93445528  0.56472812  1
  Mg  Mg0  1  0.26946730  0.57684390  0.57684390  1
  In  In0  1  0.58258659  0.58461307  0.58461307  1
  In  In1  1  0.58258659  0.58461307  0.24818527  1
  In  In2  1  0.58258659  0.24818527  0.58461307  1
  Pd  Pd0  1  0.14253666  0.14437820  0.14437820  1
  Pd  Pd1  1  0.14253666  0.14437820  0.56870694  1
  Pd  Pd2  1  0.14253666  0.56870694  0.14437820  1
  Pd  Pd3  1  0.56899101  0.14366966  0.14366966  1
loop_
_geom_bond_atom_site_label_1
_geom_bond_atom_site_label_2
_geom_bond_distance
_geom_bond_site_symmetry_2
Y0 Y10 3.545002 1_455
Y1 Y13 3.545008 1_455
Y10 Y3 3.557738 1_555
Y10 Y15 3.614750 1_555
Y10 Y13 3.614751 1_555
Y10 Y12 3.629800 1_555
Y10 Y14 3.629800 1_555
Y10 Y8 3.663935 1_655
Y10 Y6 3.663935 1_655
Y10 Y7 3.668217 1_555
Y10 Y9 3.668217 1_555
Y11 Y13 3.629800 1_555
Y11 Y15 3.629800 1_555
Y12 Y15 3.629800 1_555
Y13 Y3 3.557755 1_556
Y13 Y15 3.614750 1_555
Y13 Y14 3.629800 1_555
Y13 Y8 3.663925 1_655
Y13 Y5 3.663942 1_655
Y13 Y4 3.668218 1_556
Y13 Y9 3.668226 1_556
Y15 Y2 3.545008 1_655
Y15 Y3 3.557755 1_565
Y15 Y6 3.663926 1_655
Y15 Y5 3.663942 1_655
Y15 Y4 3.668218 1_565
Y15 Y7 3.668226 1_565
Mg0 Y15 3.379185 1_455
Mg0 Y10 3.379185 1_455
Mg0 Y13 3.379185 1_455
Mg0 Y0 3.415040 1_555
Mg0 Y2 3.415056 1_555
Mg0 Y1 3.415056 1_555
Mg0 Y8 3.574400 1_555
Mg0 Y6 3.574400 1_555
Mg0 Y5 3.574417 1_555
In0 Mg0 3.136432 1_555
In0 Y12 3.255203 1_555
In0 Y14 3.255203 1_555
In0 Y10 3.270001 1_555
In0 In2 3.289189 1_555
In0 In1 3.289189 1_555
In0 Y3 3.418724 1_555
In0 Y2 3.445250 1_555
In0 Y1 3.445251 1_555
In0 Y7 3.523672 1_555
In0 Y9 3.523672 1_555
In0 Y5 3.533675 1_555
In1 Mg0 3.136437 1_555
In1 Y14 3.255194 1_554
In1 Y11 3.255199 1_554
In1 Y13 3.269997 1_554
In1 In2 3.289189 1_555
In1 Y3 3.418738 1_555
In1 Y0 3.445240 1_555
In1 Y2 3.445264 1_555
In1 Y4 3.523664 1_555
In1 Y9 3.523681 1_555
In1 Y6 3.533664 1_555
In2 Mg0 3.136437 1_555
In2 Y12 3.255193 1_545
In2 Y11 3.255199 1_545
In2 Y15 3.269997 1_545
In2 Y3 3.418738 1_555
In2 Y0 3.445240 1_555
In2 Y1 3.445265 1_555
In2 Y4 3.523665 1_555
In2 Y7 3.523681 1_555
In2 Y8 3.533664 1_555
Pd0 Y2 2.877016 1_545
Pd0 Y1 2.877016 1_554
Pd0 Y4 2.877872 1_455
Pd0 Y6 2.882264 1_545
Pd0 Y8 2.882264 1_554
Pd0 Y3 2.892233 1_455
Pd0 Y13 3.547016 1_454
Pd0 Y15 3.547016 1_445
Pd0 Y11 3.552120 1_544
Pd1 Y2 2.877009 1_545
Pd1 Y0 2.877016 1_555
Pd1 Y7 2.877872 1_455
Pd1 Y5 2.882267 1_545
Pd1 Y8 2.882273 1_555
Pd1 Y3 2.892226 1_455
Pd1 Y10 3.547013 1_455
Pd1 Y15 3.547022 1_445
Pd1 Y12 3.552117 1_545
Pd2 Y1 2.877009 1_554
Pd2 Y0 2.877016 1_555
Pd2 Y9 2.877872 1_455
Pd2 Y5 2.882267 1_554
Pd2 Y6 2.882273 1_555
Pd2 Y3 2.892226 1_455
Pd2 Y10 3.547013 1_455
Pd2 Y13 3.547022 1_454
Pd2 Y14 3.552117 1_554
Pd3 Y1 2.874560 1_554
Pd3 Y2 2.874560 1_545
Pd3 Y0 2.874567 1_555
Pd3 Y9 2.879256 1_545
Pd3 Y4 2.879256 1_555
Pd3 Y7 2.879256 1_554
Pd3 Y14 3.542659 1_554
Pd3 Y12 3.542660 1_545
Pd3 Y11 3.542668 1_544
