# generated using pymatgen
data_Pd4I5Br3
_symmetry_space_group_name_H-M   'P 1'
_cell_length_a   8.58919786
_cell_length_b   6.72575052
_cell_length_c   6.88979194
_cell_angle_alpha   75.08160183
_cell_angle_beta   89.74910781
_cell_angle_gamma   90.68325789
_symmetry_Int_Tables_number   1
_chemical_formula_structural   Pd4I5Br3
_chemical_formula_sum   'Pd4 I5 Br3'
_cell_volume   384.56054283
_cell_formula_units_Z   1
loop_
 _symmetry_equiv_pos_site_id
 _symmetry_equiv_pos_as_xyz
  1  'x, y, z'
loop_
 _atom_site_type_symbol
 _atom_site_label
 _atom_site_symmetry_multiplicity
 _atom_site_fract_x
 _atom_site_fract_y
 _atom_site_fract_z
 _atom_site_occupancy
  Pd  Pd0  1  0.37285018  0.22859424  0.99698965  1
  Pd  Pd1  1  0.87553766  0.77495395  0.49992748  1
  Pd  Pd2  1  0.62678134  0.77424087  0.00210088  1
  Pd  Pd3  1  0.12382967  0.22213163  0.49525034  1
  I  I0  1  0.58074366  0.01487612  0.23901974  1
  I  I1  1  0.66889825  0.55043215  0.74402463  1
  I  I2  1  0.16714775  0.44528275  0.74899394  1
  I  I3  1  0.32544793  0.45153885  0.25071324  1
  I  I4  1  0.83081670  0.55489857  0.24229112  1
  Br  Br0  1  0.92542569  0.00590097  0.72339425  1
  Br  Br1  1  0.42511943  0.98831108  0.78364563  1
  Br  Br2  1  0.07740273  0.98883981  0.27364909  1
loop_
_geom_bond_atom_site_label_1
_geom_bond_atom_site_label_2
_geom_bond_distance
_geom_bond_site_symmetry_2
I0 Pd2 2.609613 1_545
I0 Pd0 2.624592 1_554
I0 Pd1 3.300041 1_545
I1 Pd1 2.619387 1_555
I1 Pd2 2.635111 1_556
I2 Pd3 2.605902 1_555
I2 Pd0 2.640226 1_555
I3 Pd3 2.605840 1_555
I3 Pd0 2.613045 1_554
I4 Pd2 2.610788 1_555
I4 Pd1 2.614192 1_555
Br0 Pd1 2.487584 1_545
Br0 Pd3 2.496049 1_655
Br1 Pd0 2.491687 1_565
Br1 Pd2 2.510993 1_556
Br2 Pd3 2.485143 1_565
Br2 Pd1 2.503656 1_455
