# generated using pymatgen
data_Mg4Ni2P6Ir5
_symmetry_space_group_name_H-M   'P 1'
_cell_length_a   6.77332383
_cell_length_b   6.72232302
_cell_length_c   6.72232255
_cell_angle_alpha   108.74822223
_cell_angle_beta   109.67838665
_cell_angle_gamma   109.67838880
_symmetry_Int_Tables_number   1
_chemical_formula_structural   Mg4Ni2P6Ir5
_chemical_formula_sum   'Mg4 Ni2 P6 Ir5'
_cell_volume   236.50128395
_cell_formula_units_Z   1
loop_
 _symmetry_equiv_pos_site_id
 _symmetry_equiv_pos_as_xyz
  1  'x, y, z'
loop_
 _atom_site_type_symbol
 _atom_site_label
 _atom_site_symmetry_multiplicity
 _atom_site_fract_x
 _atom_site_fract_y
 _atom_site_fract_z
 _atom_site_occupancy
  Mg  Mg0  1  1.00000000  0.99892203  0.50366377  1
  Mg  Mg1  1  0.50000000  0.00168643  0.99831357  1
  Mg  Mg2  1  0.00000000  0.49633623  0.00107797  1
  Mg  Mg3  1  0.50000000  0.50168643  0.49831357  1
  Ni  Ni0  1  0.23797263  0.49034410  0.74762853  1
  Ni  Ni1  1  0.76202737  0.25237147  0.50965590  1
  P  P0  1  0.68104074  0.68323320  0.99780755  1
  P  P1  1  0.31672074  0.32180775  0.99491299  1
  P  P2  1  0.00000000  0.67145441  0.68398636  1
  P  P3  1  1.00000000  0.31601364  0.32854559  1
  P  P4  1  0.68327926  0.00508701  0.67819225  1
  P  P5  1  0.31895926  0.00219245  0.31676680  1
  Ir  Ir0  1  1.00000000  0.00323475  0.99676525  1
  Ir  Ir1  1  0.50000000  0.25759535  0.74240465  1
  Ir  Ir2  1  0.50000000  0.75759535  0.24240465  1
  Ir  Ir3  1  0.74399255  0.49221598  0.25177657  1
  Ir  Ir4  1  0.25600745  0.74822343  0.50778402  1
loop_
_geom_bond_atom_site_label_1
_geom_bond_atom_site_label_2
_geom_bond_distance
_geom_bond_site_symmetry_2
Mg0 Ni1 2.711405 1_565
Mg0 Ni0 2.711405 1_665
Mg0 P3 2.746366 1_565
Mg0 P4 2.775609 1_565
Mg0 P1 2.775609 1_665
Mg0 P2 2.833837 1_655
Mg0 P5 2.839043 1_665
Mg0 P0 2.839044 1_554
Mg1 P5 2.802241 1_556
Mg1 P0 2.802241 1_545
Mg1 Ni1 2.821151 1_556
Mg1 Ni0 2.821152 1_545
Mg1 P3 2.822108 1_556
Mg1 P2 2.822108 1_545
Mg1 P4 2.825639 1_555
Mg1 P1 2.825639 1_555
Mg2 Ni0 2.711405 1_554
Mg2 Ni1 2.711405 1_454
Mg2 P2 2.746365 1_554
Mg2 P1 2.775609 1_554
Mg2 P4 2.775609 1_454
Mg2 P3 2.833837 1_455
Mg2 P0 2.839043 1_454
Mg2 P5 2.839044 1_565
Mg3 P0 2.802241 1_555
Mg3 P5 2.802242 1_555
Mg3 Ni0 2.821151 1_555
Mg3 Ni1 2.821151 1_555
Mg3 P3 2.822108 1_455
Mg3 P2 2.822108 1_655
Mg3 P1 2.825639 1_554
Mg3 P4 2.825639 1_565
Ni0 P1 2.313418 1_555
Ni0 P2 2.335691 1_555
Ni0 P3 2.335691 1_455
Ni0 P0 2.468669 1_555
Ni0 Ni1 2.630445 1_455
Ni1 P4 2.313418 1_555
Ni1 P3 2.335691 1_555
Ni1 P2 2.335691 1_655
Ni1 P5 2.468669 1_555
Ir0 P4 2.475793 1_555
Ir0 P1 2.475793 1_655
Ir0 P5 2.486939 1_656
Ir0 P0 2.486939 1_545
Ir0 P3 2.526027 1_556
Ir0 P2 2.526027 1_645
Ir1 P5 2.387374 1_555
Ir1 P0 2.387374 1_555
Ir1 P1 2.432653 1_555
Ir1 P4 2.432653 1_555
Ir1 Mg3 2.667504 1_555
Ir1 Ni1 2.734221 1_555
Ir1 Ni0 2.734222 1_555
Ir1 Mg2 2.765555 1_656
Ir1 Mg0 2.765555 1_445
Ir1 Mg1 2.796653 1_555
Ir2 P0 2.387373 1_554
Ir2 P5 2.387374 1_565
Ir2 P4 2.432653 1_565
Ir2 P1 2.432653 1_554
Ir2 Mg1 2.667504 1_564
Ir2 Ni0 2.734222 1_554
Ir2 Ni1 2.734222 1_565
Ir2 Mg0 2.765555 1_555
Ir2 Mg2 2.765555 1_555
Ir2 Mg3 2.796653 1_555
Ir3 P1 2.408227 1_554
Ir3 P3 2.418618 1_555
Ir3 P2 2.418618 1_655
Ir3 P0 2.456241 1_554
Ir3 Mg3 2.707317 1_555
Ir3 Mg1 2.707318 1_554
Ir3 Ni1 2.721467 1_555
Ir3 Mg2 2.795269 1_655
Ir3 Mg0 2.795270 1_555
Ir4 P4 2.408227 1_565
Ir4 P2 2.418618 1_555
Ir4 P3 2.418618 1_455
Ir4 P5 2.456241 1_565
Ir4 Mg3 2.707317 1_555
Ir4 Mg1 2.707318 1_565
Ir4 Ni0 2.721467 1_555
Ir4 Mg0 2.795269 1_455
Ir4 Mg2 2.795270 1_555
