# generated using pymatgen
data_Mg(FeO2)2
_symmetry_space_group_name_H-M   'P 1'
_cell_length_a   5.82832254
_cell_length_b   5.82213883
_cell_length_c   5.82673818
_cell_angle_alpha   120.00606597
_cell_angle_beta   120.40715774
_cell_angle_gamma   89.68177510
_symmetry_Int_Tables_number   1
_chemical_formula_structural   Mg(FeO2)2
_chemical_formula_sum   'Mg2 Fe4 O8'
_cell_volume   139.32067996
_cell_formula_units_Z   2
loop_
 _symmetry_equiv_pos_site_id
 _symmetry_equiv_pos_as_xyz
  1  'x, y, z'
loop_
 _atom_site_type_symbol
 _atom_site_label
 _atom_site_symmetry_multiplicity
 _atom_site_fract_x
 _atom_site_fract_y
 _atom_site_fract_z
 _atom_site_occupancy
  Mg  Mg0  1  0.00000006  0.49999858  0.00000203  1
  Mg  Mg1  1  -0.00000230  -0.00000110  0.49999941  1
  Fe  Fe0  1  0.38353772  0.63180963  0.74831770  1
  Fe  Fe1  1  0.61646564  0.36819642  0.25168196  1
  Fe  Fe2  1  0.49999640  0.00000913  0.50000095  1
  Fe  Fe3  1  0.00000209  -0.00001004  -0.00000455  1
  O  O0  1  0.75107776  0.77300020  0.52177321  1
  O  O1  1  0.75094945  0.22602713  0.97526630  1
  O  O2  1  0.22333785  0.23227758  0.99083553  1
  O  O3  1  0.24893323  0.22700213  0.47823586  1
  O  O4  1  0.25856445  0.76789681  0.49130493  1
  O  O5  1  0.24904342  0.77398310  0.02473377  1
  O  O6  1  0.74143348  0.23210002  0.50869432  1
  O  O7  1  0.77666075  0.76771338  0.00916059  1
loop_
_geom_bond_atom_site_label_1
_geom_bond_atom_site_label_2
_geom_bond_distance
_geom_bond_site_symmetry_2
Mg0 O7 2.022697 1_455
Mg0 O2 2.022716 1_554
Mg0 O4 2.022873 1_555
Mg0 O6 2.022892 1_454
Mg0 O1 2.063033 1_454
Mg0 O5 2.063077 1_555
Mg1 O2 2.021219 1_555
Mg1 O7 2.021231 1_445
Mg1 O6 2.021354 1_455
Mg1 O4 2.021369 1_545
Mg1 O0 2.059824 1_445
Mg1 O3 2.059865 1_555
Fe0 O4 1.864701 1_555
Fe0 O7 1.864952 1_556
Fe0 O3 1.925578 1_555
Fe0 O5 1.957312 1_556
Fe1 O6 1.864744 1_555
Fe1 O2 1.864976 1_554
Fe1 O0 1.925560 1_555
Fe1 O1 1.957260 1_554
Fe2 O6 1.920710 1_555
Fe2 O4 1.920765 1_545
Fe2 O1 1.953492 1_555
Fe2 O5 1.953498 1_545
Fe2 O3 1.965235 1_555
Fe2 O0 1.965376 1_545
Fe3 O7 1.920491 1_445
Fe3 O2 1.920493 1_554
Fe3 O5 1.953394 1_545
Fe3 O1 1.953563 1_454
Fe3 O0 1.965106 1_444
Fe3 O3 1.965178 1_555
