# generated using pymatgen
data_Y(Nb3Sn2)2
_symmetry_space_group_name_H-M   'P 1'
_cell_length_a   8.41375659
_cell_length_b   8.41375537
_cell_length_c   8.41375530
_cell_angle_alpha   40.61975563
_cell_angle_beta   40.61976560
_cell_angle_gamma   40.61975306
_symmetry_Int_Tables_number   1
_chemical_formula_structural   Y(Nb3Sn2)2
_chemical_formula_sum   'Y1 Nb6 Sn4'
_cell_volume   227.73944537
_cell_formula_units_Z   1
loop_
 _symmetry_equiv_pos_site_id
 _symmetry_equiv_pos_as_xyz
  1  'x, y, z'
loop_
 _atom_site_type_symbol
 _atom_site_label
 _atom_site_symmetry_multiplicity
 _atom_site_fract_x
 _atom_site_fract_y
 _atom_site_fract_z
 _atom_site_occupancy
  Y  Y0  1  0.00000000  0.00000000  0.00000000  1
  Nb  Nb0  1  0.59947237  0.59947237  0.11783940  1
  Nb  Nb1  1  0.88216060  0.40052863  0.40052663  1
  Nb  Nb2  1  0.40052863  0.88216060  0.40052663  1
  Nb  Nb3  1  0.59947137  0.11783940  0.59947337  1
  Nb  Nb4  1  0.11783940  0.59947137  0.59947337  1
  Nb  Nb5  1  0.40052763  0.40052763  0.88216060  1
  Sn  Sn0  1  0.12750299  0.12750299  0.12750299  1
  Sn  Sn1  1  0.33179415  0.33179415  0.33179415  1
  Sn  Sn2  1  0.66820585  0.66820585  0.66820585  1
  Sn  Sn3  1  0.87249701  0.87249701  0.87249701  1
loop_
_geom_bond_atom_site_label_1
_geom_bond_atom_site_label_2
_geom_bond_distance
_geom_bond_site_symmetry_2
Nb0 Nb3 2.813117 1_555
Nb0 Nb4 2.813118 1_555
Nb0 Sn3 2.903206 1_554
Nb0 Sn1 2.962410 1_555
Nb0 Sn0 2.964659 1_565
Nb0 Sn0 2.964659 1_655
Nb0 Sn2 2.974210 1_554
Nb0 Nb3 3.027667 1_564
Nb0 Nb4 3.027668 1_654
Nb0 Nb2 3.258261 1_555
Nb0 Nb1 3.258262 1_555
Nb1 Nb2 2.813108 1_555
Nb1 Nb5 2.813118 1_555
Nb1 Sn0 2.903205 1_655
Nb1 Sn2 2.962409 1_555
Nb1 Sn3 2.964654 1_554
Nb1 Sn3 2.964665 1_545
Nb1 Sn1 2.974210 1_655
Nb1 Nb5 3.027668 1_654
Nb1 Nb2 3.027676 1_645
Nb1 Nb3 3.258270 1_555
Nb2 Nb5 2.813117 1_555
Nb2 Sn0 2.903205 1_565
Nb2 Sn2 2.962409 1_555
Nb2 Sn3 2.964654 1_554
Nb2 Sn3 2.964666 1_455
Nb2 Sn1 2.974210 1_565
Nb2 Nb5 3.027667 1_564
Nb2 Nb4 3.258270 1_555
Nb3 Nb4 2.813108 1_555
Nb3 Sn3 2.903205 1_545
Nb3 Sn1 2.962409 1_555
Nb3 Sn0 2.964654 1_556
Nb3 Sn0 2.964666 1_655
Nb3 Sn2 2.974210 1_545
Nb3 Nb4 3.027676 1_645
Nb3 Nb5 3.258261 1_555
Nb4 Sn3 2.903205 1_455
Nb4 Sn1 2.962409 1_555
Nb4 Sn0 2.964654 1_556
Nb4 Sn0 2.964665 1_565
Nb4 Sn2 2.974210 1_455
Nb4 Nb5 3.258262 1_555
Nb5 Sn0 2.903206 1_556
Nb5 Sn2 2.962410 1_555
Nb5 Sn3 2.964659 1_545
Nb5 Sn3 2.964659 1_455
Nb5 Sn1 2.974210 1_556
Sn0 Y0 2.948539 1_555
Sn1 Y0 3.372366 1_565
Sn1 Y0 3.372367 1_556
Sn1 Y0 3.372367 1_655
Sn1 Sn2 3.372929 1_545
Sn1 Sn2 3.372930 1_554
Sn1 Sn2 3.372930 1_455
Sn2 Y0 3.372366 1_656
Sn2 Y0 3.372367 1_665
Sn2 Y0 3.372367 1_566
Sn3 Y0 2.948539 1_666
