# generated using pymatgen
data_LiCaP2Pd
_symmetry_space_group_name_H-M   'P 1'
_cell_length_a   5.78283726
_cell_length_b   5.78283758
_cell_length_c   5.78283716
_cell_angle_alpha   139.26260958
_cell_angle_beta   139.26261886
_cell_angle_gamma   58.97464942
_symmetry_Int_Tables_number   1
_chemical_formula_structural   LiCaP2Pd
_chemical_formula_sum   'Li1 Ca1 P2 Pd1'
_cell_volume   81.57214903
_cell_formula_units_Z   1
loop_
 _symmetry_equiv_pos_site_id
 _symmetry_equiv_pos_as_xyz
  1  'x, y, z'
loop_
 _atom_site_type_symbol
 _atom_site_label
 _atom_site_symmetry_multiplicity
 _atom_site_fract_x
 _atom_site_fract_y
 _atom_site_fract_z
 _atom_site_occupancy
  Li  Li0  1  0.75000000  0.25000000  0.50000000  1
  Ca  Ca0  1  0.00000000  0.00000000  0.00000000  1
  P  P0  1  0.60923174  0.60923174  1.00000000  1
  P  P1  1  0.39076826  0.39076826  0.00000000  1
  Pd  Pd0  1  0.25000000  0.75000000  0.50000000  1
loop_
_geom_bond_atom_site_label_1
_geom_bond_atom_site_label_2
_geom_bond_distance
_geom_bond_site_symmetry_2
Li0 P1 2.461640 1_656
Li0 P1 2.461640 1_555
Li0 P0 2.461640 1_555
Li0 P0 2.461641 1_544
Li0 Pd0 2.846491 1_544
Li0 Pd0 2.846491 1_656
Li0 Pd0 2.846492 1_555
Li0 Pd0 2.846492 1_645
Ca0 P0 3.051530 1_555
Ca0 P1 3.051530 1_444
Ca0 P0 3.051530 1_443
Ca0 P1 3.051530 1_556
Ca0 P0 3.051530 1_544
Ca0 P1 3.051530 1_455
Ca0 P0 3.051530 1_454
Ca0 P1 3.051530 1_545
Ca0 Pd0 3.222721 1_444
Ca0 Pd0 3.222721 1_545
Ca0 Pd0 3.222721 1_544
Ca0 Pd0 3.222721 1_555
P0 P1 2.199383 1_556
P0 Pd0 2.461640 1_656
P0 Pd0 2.461640 1_555
P1 Pd0 2.461640 1_555
P1 Pd0 2.461641 1_544
