# generated using pymatgen
data_Ga2Pb(SeO3)4
_symmetry_space_group_name_H-M   'P 1'
_cell_length_a   6.76037088
_cell_length_b   9.20122984
_cell_length_c   9.18301674
_cell_angle_alpha   68.55119264
_cell_angle_beta   96.06010447
_cell_angle_gamma   90.65827854
_symmetry_Int_Tables_number   1
_chemical_formula_structural   Ga2Pb(SeO3)4
_chemical_formula_sum   'Ga4 Pb2 Se8 O24'
_cell_volume   528.45996911
_cell_formula_units_Z   2
loop_
 _symmetry_equiv_pos_site_id
 _symmetry_equiv_pos_as_xyz
  1  'x, y, z'
loop_
 _atom_site_type_symbol
 _atom_site_label
 _atom_site_symmetry_multiplicity
 _atom_site_fract_x
 _atom_site_fract_y
 _atom_site_fract_z
 _atom_site_occupancy
  Ga  Ga0  1  0.00060765  0.75065199  0.75082936  1
  Ga  Ga1  1  0.50019372  0.75000559  0.24877249  1
  Ga  Ga2  1  0.00061345  0.25065166  0.25083197  1
  Ga  Ga3  1  0.50019726  0.25000086  0.74877538  1
  Pb  Pb0  1  0.00642848  0.52689110  0.48255913  1
  Pb  Pb1  1  0.00644246  0.02689048  0.98257700  1
  Se  Se0  1  0.54957120  0.12452916  0.13328695  1
  Se  Se1  1  0.54957557  0.62450412  0.63330370  1
  Se  Se2  1  0.45104735  0.87524035  0.86769700  1
  Se  Se3  1  0.45103915  0.37523309  0.36770616  1
  Se  Se4  1  0.79724924  0.09701892  0.57664385  1
  Se  Se5  1  0.79724081  0.59701587  0.07662668  1
  Se  Se6  1  0.20206027  0.90614835  0.42094046  1
  Se  Se7  1  0.20205804  0.40614939  0.92092590  1
  O  O0  1  0.71209085  0.72652680  0.70847627  1
  O  O1  1  0.71206601  0.22651936  0.20846617  1
  O  O2  1  0.28961513  0.27262769  0.29164562  1
  O  O3  1  0.28961276  0.77262836  0.79163774  1
  O  O4  1  0.98903809  0.18670606  0.47666908  1
  O  O5  1  0.98903962  0.68670085  0.97667238  1
  O  O6  1  0.01155020  0.81244023  0.52238376  1
  O  O7  1  0.01155866  0.31244068  0.02238319  1
  O  O8  1  0.65049091  0.62387572  0.46658187  1
  O  O9  1  0.65049226  0.12388782  0.96657914  1
  O  O10  1  0.35034153  0.37518667  0.53423742  1
  O  O11  1  0.35034131  0.87519578  0.03423042  1
  O  O12  1  0.93090467  0.96225621  0.73888869  1
  O  O13  1  0.93088920  0.46225549  0.23888329  1
  O  O14  1  0.06874566  0.03805806  0.25790344  1
  O  O15  1  0.06873684  0.53805202  0.75789236  1
  O  O16  1  0.60142055  0.94026254  0.26886824  1
  O  O17  1  0.60143097  0.44025048  0.76888768  1
  O  O18  1  0.39266100  0.05938981  0.73411923  1
  O  O19  1  0.39264850  0.55939121  0.23412990  1
  O  O20  1  0.75379459  0.23043864  0.66190534  1
  O  O21  1  0.75377416  0.73042458  0.16188746  1
  O  O22  1  0.24811945  0.76638011  0.34349865  1
  O  O23  1  0.24810943  0.26636790  0.84349765  1
loop_
_geom_bond_atom_site_label_1
_geom_bond_atom_site_label_2
_geom_bond_distance
_geom_bond_site_symmetry_2
Ga0 O5 1.947872 1_455
Ga0 O12 1.969515 1_455
Ga0 O6 1.972080 1_555
Ga0 O3 1.972393 1_555
Ga0 O0 1.974319 1_455
Ga0 O15 1.991128 1_555
Ga1 O19 1.935285 1_555
Ga1 O16 1.936241 1_555
Ga1 O21 2.002223 1_555
Ga1 O22 2.024383 1_555
Ga1 O11 2.044583 1_555
Ga1 O8 2.068866 1_555
Ga2 O4 1.947831 1_455
Ga2 O13 1.969522 1_455
Ga2 O7 1.972110 1_555
Ga2 O2 1.972376 1_555
Ga2 O1 1.974546 1_455
Ga2 O14 1.991048 1_555
Ga3 O18 1.935280 1_555
Ga3 O17 1.936252 1_555
Ga3 O20 2.002211 1_555
Ga3 O23 2.024428 1_555
Ga3 O10 2.044557 1_555
Ga3 O9 2.068791 1_555
O0 Se1 1.689645 1_555
O1 Se0 1.689387 1_555
O2 Se3 1.693435 1_555
O3 Se2 1.693514 1_555
O4 Se4 1.696351 1_555
O5 Se5 1.696317 1_556
O6 Se6 1.705976 1_555
O6 Pb0 2.781393 1_555
O7 Se7 1.705976 1_554
O7 Pb1 2.781323 1_554
O8 Se1 1.742572 1_555
O8 Pb0 2.546967 1_655
O9 Se0 1.742511 1_556
O9 Pb1 2.547056 1_655
O10 Se3 1.738213 1_555
O10 Pb0 2.633692 1_555
O11 Se2 1.738265 1_554
O11 Pb1 2.633590 1_564
O12 Se4 1.721674 1_565
O12 Pb1 2.519369 1_665
O13 Se5 1.721703 1_555
O13 Pb0 2.519268 1_655
O14 Se6 1.714117 1_545
O14 Pb1 2.558234 1_554
O15 Se7 1.714093 1_555
O15 Pb0 2.558273 1_555
O16 Se0 1.710363 1_565
O17 Se1 1.710291 1_555
O18 Se2 1.710133 1_545
O19 Se3 1.710192 1_555
O20 Se4 1.722262 1_555
O21 Se5 1.722187 1_555
O22 Se6 1.726674 1_555
O22 Pb0 2.730583 1_555
O23 Se7 1.726683 1_555
O23 Pb1 2.730453 1_555
