# generated using pymatgen
data_KSr3RuO6
_symmetry_space_group_name_H-M   'P 1'
_cell_length_a   6.89861142
_cell_length_b   6.89861138
_cell_length_c   6.89861118
_cell_angle_alpha   88.02015405
_cell_angle_beta   88.02015952
_cell_angle_gamma   88.02015951
_symmetry_Int_Tables_number   1
_chemical_formula_structural   KSr3RuO6
_chemical_formula_sum   'K2 Sr6 Ru2 O12'
_cell_volume   327.73594375
_cell_formula_units_Z   2
loop_
 _symmetry_equiv_pos_site_id
 _symmetry_equiv_pos_as_xyz
  1  'x, y, z'
loop_
 _atom_site_type_symbol
 _atom_site_label
 _atom_site_symmetry_multiplicity
 _atom_site_fract_x
 _atom_site_fract_y
 _atom_site_fract_z
 _atom_site_occupancy
  K  K0  1  0.25000000  0.25000000  0.25000000  1
  K  K1  1  0.75000000  0.75000000  0.75000000  1
  Sr  Sr0  1  0.75000000  0.38698706  0.11301294  1
  Sr  Sr1  1  0.11301294  0.75000000  0.38698706  1
  Sr  Sr2  1  0.38698706  0.11301294  0.75000000  1
  Sr  Sr3  1  0.25000000  0.61301294  0.88698706  1
  Sr  Sr4  1  0.88698706  0.25000000  0.61301294  1
  Sr  Sr5  1  0.61301294  0.88698706  0.25000000  1
  Ru  Ru0  1  0.00000000  0.00000000  0.00000000  1
  Ru  Ru1  1  0.50000000  0.50000000  0.50000000  1
  O  O0  1  0.43387570  0.77411813  0.56439357  1
  O  O1  1  0.56439357  0.43387570  0.77411813  1
  O  O2  1  0.77411813  0.56439357  0.43387570  1
  O  O3  1  0.06612430  0.93560643  0.72588187  1
  O  O4  1  0.72588187  0.06612430  0.93560643  1
  O  O5  1  0.93560643  0.72588187  0.06612430  1
  O  O6  1  0.56612430  0.22588187  0.43560643  1
  O  O7  1  0.43560643  0.56612430  0.22588187  1
  O  O8  1  0.22588187  0.43560643  0.56612430  1
  O  O9  1  0.93387570  0.06439357  0.27411813  1
  O  O10  1  0.06439357  0.27411813  0.93387570  1
  O  O11  1  0.27411813  0.93387570  0.06439357  1
loop_
_geom_bond_atom_site_label_1
_geom_bond_atom_site_label_2
_geom_bond_distance
_geom_bond_site_symmetry_2
K0 O10 2.564429 1_554
K0 O6 2.564429 1_555
K0 O7 2.564429 1_555
K0 O9 2.564429 1_455
K0 O8 2.564429 1_555
K0 O11 2.564429 1_545
K1 O5 2.564429 1_556
K1 O0 2.564429 1_555
K1 O1 2.564429 1_555
K1 O3 2.564429 1_655
K1 O2 2.564429 1_555
K1 O4 2.564429 1_565
O0 Ru1 1.991450 1_555
O0 Sr5 2.569458 1_555
O0 Sr1 2.579114 1_555
O0 Sr2 2.708484 1_565
O0 Sr3 2.743783 1_555
O1 Ru1 1.991450 1_555
O1 Sr3 2.569458 1_555
O1 Sr2 2.579114 1_555
O1 Sr0 2.708484 1_556
O1 Sr4 2.743783 1_555
O2 Ru1 1.991450 1_555
O2 Sr4 2.569458 1_555
O2 Sr0 2.579114 1_555
O2 Sr1 2.708484 1_655
O2 Sr5 2.743783 1_555
O3 Ru0 1.991450 1_566
O3 Sr4 2.569458 1_465
O3 Sr2 2.579114 1_565
O3 Sr1 2.708484 1_555
O3 Sr3 2.743783 1_555
O4 Ru0 1.991450 1_656
O4 Sr5 2.569458 1_546
O4 Sr0 2.579114 1_556
O4 Sr2 2.708484 1_555
O4 Sr4 2.743783 1_555
O5 Ru0 1.991450 1_665
O5 Sr3 2.569458 1_654
O5 Sr1 2.579113 1_655
O5 Sr0 2.708484 1_555
O5 Sr5 2.743783 1_555
O6 Ru1 1.991450 1_555
O6 Sr2 2.569458 1_555
O6 Sr4 2.579114 1_555
O6 Sr5 2.708484 1_545
O6 Sr0 2.743783 1_555
O7 Ru1 1.991450 1_555
O7 Sr0 2.569458 1_555
O7 Sr5 2.579114 1_555
O7 Sr3 2.708484 1_554
O7 Sr1 2.743783 1_555
O8 Ru1 1.991450 1_555
O8 Sr1 2.569458 1_555
O8 Sr3 2.579114 1_555
O8 Sr4 2.708484 1_455
O8 Sr2 2.743783 1_555
O9 Ru0 1.991450 1_655
O9 Sr1 2.569458 1_645
O9 Sr5 2.579114 1_545
O9 Sr4 2.708484 1_555
O9 Sr0 2.743783 1_555
O10 Ru0 1.991450 1_556
O10 Sr0 2.569458 1_456
O10 Sr4 2.579113 1_455
O10 Sr3 2.708484 1_555
O10 Sr2 2.743783 1_555
O11 Ru0 1.991450 1_565
O11 Sr2 2.569458 1_564
O11 Sr3 2.579114 1_554
O11 Sr5 2.708484 1_555
O11 Sr1 2.743783 1_555
