# generated using pymatgen
data_Ca5As3H
_symmetry_space_group_name_H-M   'P 1'
_cell_length_a   8.45413816
_cell_length_b   8.45413755
_cell_length_c   6.67158563
_cell_angle_alpha   90.00000000
_cell_angle_beta   90.00000000
_cell_angle_gamma   120.00000240
_symmetry_Int_Tables_number   1
_chemical_formula_structural   Ca5As3H
_chemical_formula_sum   'Ca10 As6 H2'
_cell_volume   412.95082312
_cell_formula_units_Z   2
loop_
 _symmetry_equiv_pos_site_id
 _symmetry_equiv_pos_as_xyz
  1  'x, y, z'
loop_
 _atom_site_type_symbol
 _atom_site_label
 _atom_site_symmetry_multiplicity
 _atom_site_fract_x
 _atom_site_fract_y
 _atom_site_fract_z
 _atom_site_occupancy
  Ca  Ca0  1  0.75268314  0.75268314  0.25000000  1
  Ca  Ca1  1  0.75268314  0.00000000  0.75000000  1
  Ca  Ca2  1  0.00000000  0.24731686  0.25000000  1
  Ca  Ca3  1  1.00000000  0.75268314  0.75000000  1
  Ca  Ca4  1  0.24731686  0.24731686  0.75000000  1
  Ca  Ca5  1  0.24731686  0.00000000  0.25000000  1
  Ca  Ca6  1  0.33333300  0.66666700  0.50000000  1
  Ca  Ca7  1  0.66666700  0.33333300  0.00000000  1
  Ca  Ca8  1  0.66666700  0.33333300  0.50000000  1
  Ca  Ca9  1  0.33333300  0.66666700  0.00000000  1
  As  As0  1  0.39076216  0.00000000  0.75000000  1
  As  As1  1  0.39076216  0.39076216  0.25000000  1
  As  As2  1  0.00000000  0.60923784  0.25000000  1
  As  As3  1  1.00000000  0.39076216  0.75000000  1
  As  As4  1  0.60923784  0.60923784  0.75000000  1
  As  As5  1  0.60923784  0.00000000  0.25000000  1
  H  H0  1  0.00000000  0.00000000  0.50000000  1
  H  H1  1  0.00000000  0.00000000  0.00000000  1
loop_
_geom_bond_atom_site_label_1
_geom_bond_atom_site_label_2
_geom_bond_distance
_geom_bond_site_symmetry_2
Ca0 H0 2.674609 1_665
Ca0 H1 2.674609 1_665
Ca1 H0 2.674609 1_655
Ca1 H1 2.674609 1_656
Ca2 H1 2.674609 1_555
Ca2 H0 2.674609 1_555
Ca3 H0 2.674609 1_665
Ca3 H1 2.674609 1_666
Ca4 H0 2.674609 1_555
Ca4 H1 2.674609 1_556
Ca5 H1 2.674609 1_555
Ca5 H0 2.674609 1_555
As0 Ca4 2.894461 1_555
As0 Ca3 2.894461 1_445
As0 Ca1 3.059730 1_555
As0 Ca9 3.096897 1_546
As0 Ca6 3.096897 1_545
As0 Ca7 3.096899 1_556
As0 Ca8 3.096899 1_555
As0 Ca5 3.549390 1_556
As0 Ca5 3.549390 1_555
As1 Ca5 2.894460 1_555
As1 Ca2 2.894461 1_555
As1 Ca0 3.059730 1_555
As1 Ca9 3.096904 1_555
As1 Ca6 3.096904 1_555
As1 Ca8 3.096904 1_555
As1 Ca7 3.096904 1_555
As1 Ca4 3.549390 1_554
As1 Ca4 3.549390 1_555
As2 Ca5 2.894460 1_565
As2 Ca0 2.894461 1_455
As2 Ca2 3.059730 1_555
As2 Ca9 3.096897 1_555
As2 Ca6 3.096897 1_555
As2 Ca8 3.096899 1_455
As2 Ca7 3.096899 1_455
As2 Ca3 3.549390 1_455
As2 Ca3 3.549390 1_454
As3 Ca1 2.894460 1_555
As3 Ca4 2.894461 1_655
As3 Ca3 3.059730 1_555
As3 Ca7 3.096897 1_556
As3 Ca8 3.096897 1_555
As3 Ca9 3.096899 1_656
As3 Ca6 3.096899 1_655
As3 Ca2 3.549390 1_656
As3 Ca2 3.549390 1_655
As4 Ca1 2.894460 1_565
As4 Ca3 2.894461 1_555
As4 Ca4 3.059730 1_555
As4 Ca7 3.096904 1_556
As4 Ca8 3.096904 1_555
As4 Ca9 3.096904 1_556
As4 Ca6 3.096904 1_555
As4 Ca0 3.549390 1_556
As4 Ca0 3.549390 1_555
As5 Ca0 2.894461 1_545
As5 Ca2 2.894461 1_655
As5 Ca5 3.059730 1_555
As5 Ca7 3.096897 1_555
As5 Ca8 3.096897 1_555
As5 Ca9 3.096899 1_545
As5 Ca6 3.096899 1_545
As5 Ca1 3.549390 1_554
As5 Ca1 3.549390 1_555
