# generated using pymatgen
data_Cs4As4PdPt
_symmetry_space_group_name_H-M   'P 1'
_cell_length_a   8.36845359
_cell_length_b   8.36845305
_cell_length_c   6.42817917
_cell_angle_alpha   89.72011786
_cell_angle_beta   90.27987752
_cell_angle_gamma   130.04606322
_symmetry_Int_Tables_number   1
_chemical_formula_structural   Cs4As4PdPt
_chemical_formula_sum   'Cs4 As4 Pd1 Pt1'
_cell_volume   344.61392030
_cell_formula_units_Z   1
loop_
 _symmetry_equiv_pos_site_id
 _symmetry_equiv_pos_as_xyz
  1  'x, y, z'
loop_
 _atom_site_type_symbol
 _atom_site_label
 _atom_site_symmetry_multiplicity
 _atom_site_fract_x
 _atom_site_fract_y
 _atom_site_fract_z
 _atom_site_occupancy
  Cs  Cs0  1  0.79266083  0.20733917  0.25065081  1
  Cs  Cs1  1  0.20733917  0.79266083  0.74934919  1
  Cs  Cs2  1  0.41453636  0.58546364  0.24715477  1
  Cs  Cs3  1  0.58546364  0.41453636  0.75284523  1
  As  As0  1  0.07088911  0.27028885  0.75048416  1
  As  As1  1  0.92911089  0.72971115  0.24951584  1
  As  As2  1  0.27028885  0.07088911  0.24951584  1
  As  As3  1  0.72971115  0.92911089  0.75048416  1
  Pd  Pd0  1  0.00000000  0.00000000  0.50000000  1
  Pt  Pt0  1  0.00000000  0.00000000  0.00000000  1
loop_
_geom_bond_atom_site_label_1
_geom_bond_atom_site_label_2
_geom_bond_distance
_geom_bond_site_symmetry_2
Cs0 Pd0 3.522795 1_655
Cs0 Pt0 3.542025 1_655
Cs1 Pd0 3.522795 1_565
Cs1 Pt0 3.542025 1_566
As0 As3 2.411181 1_445
As0 Pt0 2.507566 1_556
As0 Pd0 2.521962 1_555
As0 Cs3 3.648458 1_555
As0 Cs1 3.740314 1_555
As0 Cs0 3.793057 1_455
As0 Cs0 3.809750 1_456
As0 Cs2 3.956281 1_556
As0 Cs2 3.992777 1_555
As1 As2 2.411181 1_665
As1 Pt0 2.507566 1_665
As1 Pd0 2.521962 1_665
As1 Cs2 3.648458 1_555
As1 Cs0 3.740314 1_555
As1 Cs1 3.793057 1_655
As1 Cs1 3.809750 1_654
As1 Cs3 3.956281 1_554
As1 Cs3 3.992777 1_555
As2 Pt0 2.507566 1_555
As2 Pd0 2.521962 1_555
As2 Cs2 3.648457 1_555
As2 Cs0 3.740315 1_555
As2 Cs1 3.793057 1_545
As2 Cs1 3.809750 1_544
As2 Cs3 3.956281 1_554
As2 Cs3 3.992778 1_555
As3 Pt0 2.507566 1_666
As3 Pd0 2.521962 1_665
As3 Cs3 3.648457 1_555
As3 Cs1 3.740315 1_555
As3 Cs0 3.793057 1_565
As3 Cs0 3.809750 1_566
As3 Cs2 3.956281 1_556
As3 Cs2 3.992778 1_555
