# generated using pymatgen
data_ZnAs2F12
_symmetry_space_group_name_H-M   'P 1'
_cell_length_a   5.22570869
_cell_length_b   10.51220118
_cell_length_c   5.23027500
_cell_angle_alpha   55.72396596
_cell_angle_beta   55.55405751
_cell_angle_gamma   55.74039614
_symmetry_Int_Tables_number   1
_chemical_formula_structural   ZnAs2F12
_chemical_formula_sum   'Zn1 As2 F12'
_cell_volume   182.76681561
_cell_formula_units_Z   1
loop_
 _symmetry_equiv_pos_site_id
 _symmetry_equiv_pos_as_xyz
  1  'x, y, z'
loop_
 _atom_site_type_symbol
 _atom_site_label
 _atom_site_symmetry_multiplicity
 _atom_site_fract_x
 _atom_site_fract_y
 _atom_site_fract_z
 _atom_site_occupancy
  Zn  Zn0  1  0.00000000  0.50000000  0.00000000  1
  As  As0  1  0.49216485  0.24247414  0.51621536  1
  As  As1  1  0.50783515  0.75752586  0.48378464  1
  F  F0  1  0.12316282  0.21445164  0.71844949  1
  F  F1  1  0.15311628  0.69563128  0.72504133  1
  F  F2  1  0.39797244  0.36986500  0.14170863  1
  F  F3  1  0.41808269  0.85505532  0.13678029  1
  F  F4  1  0.72029631  0.07739193  0.39759965  1
  F  F5  1  0.72774810  0.56631509  0.40539624  1
  F  F6  1  0.27225190  0.43368491  0.59460376  1
  F  F7  1  0.27970369  0.92260807  0.60240035  1
  F  F8  1  0.58191731  0.14494468  0.86321971  1
  F  F9  1  0.60202756  0.63013500  0.85829137  1
  F  F10  1  0.84688372  0.30436872  0.27495867  1
  F  F11  1  0.87683718  0.78554836  0.28155051  1
loop_
_geom_bond_atom_site_label_1
_geom_bond_atom_site_label_2
_geom_bond_distance
_geom_bond_site_symmetry_2
As0 F4 1.692440 1_555
As0 F8 1.700227 1_555
As0 F0 1.704450 1_555
As0 F10 1.799652 1_555
As0 F2 1.807322 1_555
As0 F6 1.823056 1_555
As1 F7 1.692440 1_555
As1 F3 1.700227 1_555
As1 F11 1.704450 1_555
As1 F1 1.799652 1_555
As1 F9 1.807322 1_555
As1 F5 1.823056 1_555
F1 Zn0 2.038960 1_556
F2 Zn0 2.035777 1_555
F5 Zn0 2.035084 1_655
F6 Zn0 2.035084 1_556
F9 Zn0 2.035777 1_656
F10 Zn0 2.038960 1_655
