# generated using pymatgen
data_Nb3Al2CrC
_symmetry_space_group_name_H-M   'P 1'
_cell_length_a   8.33881052
_cell_length_b   8.33881075
_cell_length_c   8.33881010
_cell_angle_alpha   60.00000257
_cell_angle_beta   60.00000168
_cell_angle_gamma   60.00000662
_symmetry_Int_Tables_number   1
_chemical_formula_structural   Nb3Al2CrC
_chemical_formula_sum   'Nb12 Al8 Cr4 C4'
_cell_volume   410.01273383
_cell_formula_units_Z   4
loop_
 _symmetry_equiv_pos_site_id
 _symmetry_equiv_pos_as_xyz
  1  'x, y, z'
loop_
 _atom_site_type_symbol
 _atom_site_label
 _atom_site_symmetry_multiplicity
 _atom_site_fract_x
 _atom_site_fract_y
 _atom_site_fract_z
 _atom_site_occupancy
  Nb  Nb0  1  0.55763565  0.94236435  0.55763565  1
  Nb  Nb1  1  0.30763565  0.69236435  0.69236435  1
  Nb  Nb2  1  0.69236435  0.30763565  0.30763565  1
  Nb  Nb3  1  0.30763565  0.69236435  0.30763565  1
  Nb  Nb4  1  0.69236435  0.69236435  0.30763565  1
  Nb  Nb5  1  0.30763565  0.30763565  0.69236435  1
  Nb  Nb6  1  0.55763565  0.55763565  0.94236435  1
  Nb  Nb7  1  0.94236435  0.55763565  0.55763565  1
  Nb  Nb8  1  0.55763565  0.94236435  0.94236435  1
  Nb  Nb9  1  0.94236435  0.94236435  0.55763565  1
  Nb  Nb10  1  0.69236435  0.30763565  0.69236435  1
  Nb  Nb11  1  0.94236435  0.55763565  0.94236435  1
  Al  Al0  1  0.91540333  0.91540333  0.91540333  1
  Al  Al1  1  0.99620700  0.33459667  0.33459667  1
  Al  Al2  1  0.33459667  0.99620700  0.33459667  1
  Al  Al3  1  0.33459667  0.33459667  0.99620700  1
  Al  Al4  1  0.91540333  0.25379300  0.91540333  1
  Al  Al5  1  0.91540333  0.91540333  0.25379300  1
  Al  Al6  1  0.25379300  0.91540333  0.91540333  1
  Al  Al7  1  0.33459667  0.33459667  0.33459667  1
  Cr  Cr0  1  0.12500000  0.12500000  0.12500000  1
  Cr  Cr1  1  0.62500000  0.12500000  0.12500000  1
  Cr  Cr2  1  0.12500000  0.62500000  0.12500000  1
  Cr  Cr3  1  0.12500000  0.12500000  0.62500000  1
  C  C0  1  0.62500000  0.62500000  0.62500000  1
  C  C1  1  0.12500000  0.62500000  0.62500000  1
  C  C2  1  0.62500000  0.12500000  0.62500000  1
  C  C3  1  0.62500000  0.62500000  0.12500000  1
loop_
_geom_bond_atom_site_label_1
_geom_bond_atom_site_label_2
_geom_bond_distance
_geom_bond_site_symmetry_2
Al0 Cr3 2.561946 1_665
Al0 Cr1 2.561946 1_566
Al0 Cr2 2.561946 1_656
Al0 Nb9 2.776797 1_555
Al0 Nb8 2.776797 1_555
Al0 Nb11 2.776797 1_555
Al0 Al5 2.821767 1_556
Al0 Al6 2.821767 1_655
Al0 Al4 2.821767 1_565
Al0 Nb4 2.984772 1_556
Al0 Nb1 2.984772 1_655
Al0 Nb10 2.984772 1_565
Al1 Cr0 2.561939 1_655
Al1 Cr3 2.561960 1_655
Al1 Cr2 2.561960 1_655
Al1 Nb2 2.776772 1_555
Al1 Nb10 2.776786 1_555
Al1 Nb4 2.776787 1_555
Al1 Al7 2.821767 1_655
Al1 Al3 2.821767 1_654
Al1 Al2 2.821768 1_645
Al1 Nb11 2.984762 1_554
Al1 Nb9 2.984762 1_545
Al1 Nb7 2.984784 1_555
Al2 Cr0 2.561939 1_565
Al2 Cr1 2.561960 1_565
Al2 Cr3 2.561960 1_565
Al2 Nb3 2.776772 1_555
Al2 Nb1 2.776787 1_555
Al2 Nb4 2.776787 1_555
Al2 Al7 2.821767 1_565
Al2 Al3 2.821767 1_564
Al2 Nb8 2.984762 1_554
Al2 Nb9 2.984762 1_455
Al2 Nb0 2.984784 1_555
Al3 Cr0 2.561939 1_556
Al3 Cr1 2.561960 1_556
Al3 Cr2 2.561960 1_556
Al3 Nb5 2.776772 1_555
Al3 Nb10 2.776787 1_555
Al3 Nb1 2.776787 1_555
Al3 Al7 2.821767 1_556
Al3 Nb11 2.984762 1_455
Al3 Nb8 2.984762 1_545
Al3 Nb6 2.984784 1_555
Al4 Cr0 2.561939 1_656
Al4 Cr1 2.561960 1_556
Al4 Cr3 2.561960 1_655
Al4 Nb11 2.776772 1_555
Al4 Nb7 2.776787 1_555
Al4 Nb6 2.776787 1_555
Al4 Al5 2.821767 1_546
Al4 Al6 2.821768 1_645
Al4 Nb2 2.984762 1_556
Al4 Nb5 2.984762 1_655
Al4 Nb10 2.984784 1_555
Al5 Cr0 2.561939 1_665
Al5 Cr1 2.561960 1_565
Al5 Cr2 2.561960 1_655
Al5 Nb9 2.776772 1_555
Al5 Nb0 2.776787 1_555
Al5 Nb7 2.776787 1_555
Al5 Al6 2.821767 1_654
Al5 Nb3 2.984762 1_655
Al5 Nb2 2.984762 1_565
Al5 Nb4 2.984784 1_555
Al6 Cr0 2.561939 1_566
Al6 Cr3 2.561960 1_565
Al6 Cr2 2.561960 1_556
Al6 Nb8 2.776772 1_555
Al6 Nb0 2.776786 1_555
Al6 Nb6 2.776787 1_555
Al6 Nb3 2.984762 1_556
Al6 Nb5 2.984762 1_565
Al6 Nb1 2.984784 1_555
Al7 Cr3 2.561946 1_555
Al7 Cr1 2.561946 1_555
Al7 Cr2 2.561946 1_555
Al7 Nb5 2.776797 1_555
Al7 Nb2 2.776797 1_555
Al7 Nb3 2.776797 1_555
Al7 Nb6 2.984772 1_554
Al7 Nb7 2.984772 1_455
Al7 Nb0 2.984772 1_545
Cr0 Nb9 2.997470 1_445
Cr0 Nb5 2.997470 1_554
Cr0 Nb8 2.997470 1_544
Cr0 Nb2 2.997470 1_455
Cr0 Nb3 2.997470 1_545
Cr0 Nb11 2.997470 1_454
Cr1 Nb2 2.997470 1_555
Cr1 Nb8 2.997470 1_544
Cr1 Nb0 2.997470 1_545
Cr1 Nb10 2.997470 1_554
Cr1 Nb6 2.997470 1_554
Cr1 Nb4 2.997470 1_545
Cr2 Nb7 2.997469 1_455
Cr2 Nb1 2.997469 1_554
Cr2 Nb3 2.997469 1_555
Cr2 Nb11 2.997469 1_454
Cr2 Nb6 2.997470 1_554
Cr2 Nb4 2.997470 1_455
Cr3 Nb5 2.997470 1_555
Cr3 Nb9 2.997470 1_445
Cr3 Nb0 2.997470 1_545
Cr3 Nb10 2.997470 1_455
Cr3 Nb7 2.997470 1_455
Cr3 Nb1 2.997470 1_545
C0 Nb6 2.230938 1_555
C0 Nb4 2.230938 1_555
C0 Nb7 2.230938 1_555
C0 Nb1 2.230938 1_555
C0 Nb0 2.230938 1_555
C0 Nb10 2.230938 1_555
C1 Nb11 2.230938 1_455
C1 Nb3 2.230938 1_555
C1 Nb1 2.230938 1_555
C1 Nb7 2.230938 1_455
C1 Nb9 2.230939 1_455
C1 Nb5 2.230939 1_555
C2 Nb10 2.230938 1_555
C2 Nb0 2.230938 1_545
C2 Nb8 2.230938 1_545
C2 Nb2 2.230938 1_555
C2 Nb9 2.230938 1_545
C2 Nb5 2.230938 1_555
C3 Nb4 2.230938 1_555
C3 Nb6 2.230938 1_554
C3 Nb11 2.230938 1_554
C3 Nb3 2.230938 1_555
C3 Nb2 2.230938 1_555
C3 Nb8 2.230938 1_554
