# generated using pymatgen
data_LiYH6Os
_symmetry_space_group_name_H-M   'P 1'
_cell_length_a   4.85956358
_cell_length_b   4.85956076
_cell_length_c   4.85955630
_cell_angle_alpha   59.99999460
_cell_angle_beta   59.99996919
_cell_angle_gamma   59.99993720
_symmetry_Int_Tables_number   1
_chemical_formula_structural   LiYH6Os
_chemical_formula_sum   'Li1 Y1 H6 Os1'
_cell_volume   81.14758153
_cell_formula_units_Z   1
loop_
 _symmetry_equiv_pos_site_id
 _symmetry_equiv_pos_as_xyz
  1  'x, y, z'
loop_
 _atom_site_type_symbol
 _atom_site_label
 _atom_site_symmetry_multiplicity
 _atom_site_fract_x
 _atom_site_fract_y
 _atom_site_fract_z
 _atom_site_occupancy
  Li  Li0  1  0.75000200  0.75000100  0.75000100  1
  Y  Y0  1  0.24999900  0.25000100  0.25000000  1
  H  H0  1  0.75223160  0.75223160  0.24776940  1
  H  H1  1  0.75223060  0.24776940  0.24776740  1
  H  H2  1  0.24776640  0.75223260  0.24776840  1
  H  H3  1  0.24776740  0.75223160  0.75223160  1
  H  H4  1  0.24776740  0.24776840  0.75223160  1
  H  H5  1  0.75223160  0.24776840  0.75223160  1
  Os  Os0  1  0.00000000  0.99999900  0.99999900  1
loop_
_geom_bond_atom_site_label_1
_geom_bond_atom_site_label_2
_geom_bond_distance
_geom_bond_site_symmetry_2
H0 Os0 1.702775 1_654
H0 Y0 2.429822 1_655
H0 Y0 2.429832 1_565
H1 Os0 1.702783 1_644
H1 Y0 2.429828 1_555
H1 Y0 2.429833 1_655
H2 Os0 1.702773 1_554
H2 Y0 2.429826 1_555
H2 Y0 2.429831 1_565
H3 Os0 1.702769 1_555
H3 Y0 2.429825 1_556
H3 Y0 2.429830 1_565
H4 Os0 1.702778 1_545
H4 Y0 2.429824 1_555
H4 Y0 2.429829 1_556
H5 Os0 1.702773 1_645
H5 Y0 2.429825 1_655
H5 Y0 2.429830 1_556
