# generated using pymatgen
data_Ti4TcB2P
_symmetry_space_group_name_H-M   'P 1'
_cell_length_a   7.05877260
_cell_length_b   7.05877292
_cell_length_c   7.05877233
_cell_angle_alpha   130.22890072
_cell_angle_beta   130.22889842
_cell_angle_gamma   73.04109369
_symmetry_Int_Tables_number   1
_chemical_formula_structural   Ti4TcB2P
_chemical_formula_sum   'Ti8 Tc2 B4 P2'
_cell_volume   200.20596467
_cell_formula_units_Z   2
loop_
 _symmetry_equiv_pos_site_id
 _symmetry_equiv_pos_as_xyz
  1  'x, y, z'
loop_
 _atom_site_type_symbol
 _atom_site_label
 _atom_site_symmetry_multiplicity
 _atom_site_fract_x
 _atom_site_fract_y
 _atom_site_fract_z
 _atom_site_occupancy
  Ti  Ti0  1  0.19031030  0.69031030  0.15191593  1
  Ti  Ti1  1  0.46160562  0.96160562  0.15191593  1
  Ti  Ti2  1  0.53839438  0.03839438  0.84808407  1
  Ti  Ti3  1  0.03839438  0.19031030  0.50000000  1
  Ti  Ti4  1  0.69031030  0.53839438  0.50000000  1
  Ti  Ti5  1  0.96160562  0.80968970  0.50000000  1
  Ti  Ti6  1  0.30968970  0.46160562  0.50000000  1
  Ti  Ti7  1  0.80968970  0.30968970  0.84808407  1
  Tc  Tc0  1  0.00000000  0.00000000  0.00000000  1
  Tc  Tc1  1  0.50000000  0.50000000  0.00000000  1
  B  B0  1  0.88872374  0.38872374  0.27744849  1
  B  B1  1  0.38872374  0.11127626  0.50000000  1
  B  B2  1  0.61127626  0.88872374  0.50000000  1
  B  B3  1  0.11127626  0.61127626  0.72255151  1
  P  P0  1  0.75000000  0.75000000  0.00000000  1
  P  P1  1  0.25000000  0.25000000  0.00000000  1
loop_
_geom_bond_atom_site_label_1
_geom_bond_atom_site_label_2
_geom_bond_distance
_geom_bond_site_symmetry_2
Tc0 Ti3 2.680916 1_555
Tc0 Ti5 2.680916 1_444
Tc0 Ti1 2.680916 1_545
Tc0 Ti2 2.680916 1_454
Tc0 Ti7 2.680917 1_454
Tc0 Ti0 2.680917 1_545
Tc0 Ti6 2.680917 1_555
Tc0 Ti4 2.680917 1_444
Tc1 Ti6 2.680916 1_554
Tc1 Ti4 2.680916 1_555
Tc1 Ti7 2.680916 1_554
Tc1 Ti0 2.680916 1_555
Tc1 Ti1 2.680917 1_555
Tc1 Ti2 2.680917 1_554
Tc1 Ti5 2.680917 1_555
Tc1 Ti3 2.680917 1_554
B0 B3 1.869768 1_655
B0 Ti4 2.319600 1_555
B0 Ti3 2.319600 1_655
B0 Ti6 2.319608 1_655
B0 Ti5 2.319608 1_555
B0 Ti2 2.370998 1_554
B0 Ti7 2.371005 1_554
B0 Tc0 2.402073 1_655
B0 Tc1 2.402073 1_555
B1 B2 1.869776 1_545
B1 Ti1 2.319606 1_545
B1 Ti2 2.319606 1_555
B1 Ti7 2.319606 1_555
B1 Ti0 2.319606 1_545
B1 Ti3 2.370998 1_555
B1 Ti6 2.370999 1_555
B1 Tc1 2.402071 1_556
B1 Tc0 2.402071 1_555
B2 Ti2 2.319606 1_565
B2 Ti1 2.319606 1_555
B2 Ti0 2.319606 1_555
B2 Ti7 2.319606 1_565
B2 Ti5 2.370998 1_555
B2 Ti4 2.370999 1_555
B2 Tc1 2.402071 1_555
B2 Tc0 2.402071 1_666
B3 Ti6 2.319600 1_555
B3 Ti5 2.319600 1_455
B3 Ti4 2.319608 1_455
B3 Ti3 2.319608 1_555
B3 Ti1 2.370998 1_556
B3 Ti0 2.371005 1_556
B3 Tc0 2.402073 1_566
B3 Tc1 2.402073 1_556
P0 Ti4 2.549908 1_554
P0 Ti5 2.549908 1_555
P0 Ti1 2.549908 1_555
P0 Ti0 2.549908 1_655
P0 Ti2 2.549908 1_564
P0 Ti7 2.549908 1_554
P0 Ti6 2.549908 1_554
P0 Ti3 2.549908 1_665
P0 Tc1 2.836368 1_555
P0 Tc0 2.836368 1_665
P1 Ti6 2.549908 1_555
P1 Ti3 2.549908 1_554
P1 Ti2 2.549908 1_554
P1 Ti7 2.549908 1_454
P1 Ti1 2.549908 1_545
P1 Ti0 2.549908 1_555
P1 Ti4 2.549908 1_555
P1 Ti5 2.549908 1_444
P1 Tc0 2.836368 1_555
P1 Tc1 2.836368 1_555
