# generated using pymatgen
data_Ba6Nb3VS16
_symmetry_space_group_name_H-M   'P 1'
_cell_length_a   11.31987891
_cell_length_b   11.31987831
_cell_length_c   11.31987875
_cell_angle_alpha   51.19295755
_cell_angle_beta   51.19295657
_cell_angle_gamma   51.19295955
_symmetry_Int_Tables_number   1
_chemical_formula_structural   Ba6Nb3VS16
_chemical_formula_sum   'Ba6 Nb3 V1 S16'
_cell_volume   812.83583828
_cell_formula_units_Z   1
loop_
 _symmetry_equiv_pos_site_id
 _symmetry_equiv_pos_as_xyz
  1  'x, y, z'
loop_
 _atom_site_type_symbol
 _atom_site_label
 _atom_site_symmetry_multiplicity
 _atom_site_fract_x
 _atom_site_fract_y
 _atom_site_fract_z
 _atom_site_occupancy
  Ba  Ba0  1  0.74935253  0.43129363  0.07192697  1
  Ba  Ba1  1  0.57840662  0.92535330  0.24492666  1
  Ba  Ba2  1  0.07192697  0.74935253  0.43129463  1
  Ba  Ba3  1  0.92535430  0.24492666  0.57840662  1
  Ba  Ba4  1  0.43129463  0.07192797  0.74935153  1
  Ba  Ba5  1  0.24492666  0.57840662  0.92535430  1
  Nb  Nb0  1  0.16155554  0.16155554  0.16155554  1
  Nb  Nb1  1  0.33843575  0.33843575  0.33843575  1
  Nb  Nb2  1  0.66163222  0.66163222  0.66163222  1
  V  V0  1  0.83778152  0.83778152  0.83778152  1
  S  S0  1  0.61802811  0.79305648  0.02922621  1
  S  S1  1  0.08344794  0.08344794  0.08344794  1
  S  S2  1  0.54387214  0.28608124  0.10746246  1
  S  S3  1  0.95426669  0.38972942  0.21875327  1
  S  S4  1  0.10746246  0.54387114  0.28608124  1
  S  S5  1  0.21875227  0.95426769  0.38972942  1
  S  S6  1  0.41683281  0.41683281  0.41683281  1
  S  S7  1  0.71465335  0.89256712  0.45635071  1
  S  S8  1  0.28608124  0.10746246  0.54387214  1
  S  S9  1  0.58344976  0.58344976  0.58344976  1
  S  S10  1  0.79305648  0.02922621  0.61802811  1
  S  S11  1  0.89256712  0.45635171  0.71465335  1
  S  S12  1  0.02922621  0.61802811  0.79305648  1
  S  S13  1  0.45635171  0.71465335  0.89256712  1
  S  S14  1  0.91155255  0.91155255  0.91155255  1
  S  S15  1  0.38973042  0.21875227  0.95426669  1
loop_
_geom_bond_atom_site_label_1
_geom_bond_atom_site_label_2
_geom_bond_distance
_geom_bond_site_symmetry_2
Ba0 S11 3.159995 1_554
Ba0 S0 3.162719 1_555
Ba0 S3 3.293708 1_555
Ba0 S6 3.315086 1_555
Ba0 S2 3.326407 1_555
Ba0 S1 3.336743 1_655
Ba0 S12 3.459082 1_654
Ba0 S13 3.514938 1_554
Ba1 S5 3.163353 1_555
Ba1 S2 3.169507 1_565
Ba1 S14 3.263457 1_554
Ba1 S0 3.282463 1_555
Ba1 S7 3.322654 1_555
Ba1 S9 3.327905 1_555
Ba1 S15 3.555020 1_564
Ba1 S8 3.579008 1_565
Ba2 S7 3.160004 1_455
Ba2 S12 3.162709 1_555
Ba2 S5 3.293702 1_555
Ba2 S6 3.315086 1_555
Ba2 S4 3.326428 1_555
Ba2 S1 3.336748 1_565
Ba2 S10 3.459076 1_465
Ba2 S11 3.514938 1_455
Ba3 S3 3.163351 1_555
Ba3 S8 3.169497 1_655
Ba3 S14 3.263457 1_545
Ba3 S10 3.282472 1_555
Ba3 S11 3.322657 1_555
Ba3 S9 3.327910 1_555
Ba3 S5 3.555019 1_645
Ba3 S4 3.578993 1_655
Ba4 S13 3.160007 1_545
Ba4 S10 3.162707 1_555
Ba4 S15 3.293699 1_555
Ba4 S6 3.315076 1_555
Ba4 S8 3.326414 1_555
Ba4 S1 3.336753 1_556
Ba4 S0 3.459083 1_546
Ba4 S7 3.514945 1_545
Ba5 S15 3.163359 1_555
Ba5 S4 3.169492 1_556
Ba5 S14 3.263457 1_455
Ba5 S12 3.282472 1_555
Ba5 S13 3.322657 1_555
Ba5 S9 3.327910 1_555
Ba5 S3 3.555027 1_456
Ba5 S2 3.579002 1_556
Nb0 S5 2.278574 1_545
Nb0 S3 2.278579 1_455
Nb0 S15 2.278583 1_554
Nb0 S1 2.298872 1_555
Nb1 S4 2.277949 1_555
Nb1 S8 2.277950 1_555
Nb1 S2 2.277950 1_555
Nb1 S6 2.307391 1_555
Nb2 S13 2.279993 1_555
Nb2 S11 2.279993 1_555
Nb2 S7 2.279994 1_555
Nb2 S9 2.301075 1_555
S0 V0 2.141780 1_554
S10 V0 2.141780 1_545
S12 V0 2.141780 1_455
S14 V0 2.171237 1_555
