# generated using pymatgen
data_KNiP2Ru
_symmetry_space_group_name_H-M   'P 1'
_cell_length_a   7.20221077
_cell_length_b   7.20221034
_cell_length_c   7.20221116
_cell_angle_alpha   149.61171723
_cell_angle_beta   149.61171511
_cell_angle_gamma   43.51166227
_symmetry_Int_Tables_number   1
_chemical_formula_structural   KNiP2Ru
_chemical_formula_sum   'K1 Ni1 P2 Ru1'
_cell_volume   95.33867273
_cell_formula_units_Z   1
loop_
 _symmetry_equiv_pos_site_id
 _symmetry_equiv_pos_as_xyz
  1  'x, y, z'
loop_
 _atom_site_type_symbol
 _atom_site_label
 _atom_site_symmetry_multiplicity
 _atom_site_fract_x
 _atom_site_fract_y
 _atom_site_fract_z
 _atom_site_occupancy
  K  K0  1  0.00000000  0.00000000  0.00000000  1
  Ni  Ni0  1  0.75000000  0.25000000  0.50000000  1
  P  P0  1  0.34471724  0.34471724  1.00000000  1
  P  P1  1  0.65528276  0.65528276  0.00000000  1
  Ru  Ru0  1  0.25000000  0.75000000  0.50000000  1
loop_
_geom_bond_atom_site_label_1
_geom_bond_atom_site_label_2
_geom_bond_distance
_geom_bond_site_symmetry_2
K0 P1 3.382610 1_556
K0 P0 3.382610 1_443
K0 P1 3.382610 1_455
K0 P0 3.382610 1_544
K0 P1 3.382610 1_545
K0 P0 3.382610 1_454
K0 P1 3.382611 1_444
K0 P0 3.382611 1_555
Ni0 P1 2.273513 1_545
Ni0 P0 2.273513 1_655
Ni0 P1 2.273514 1_556
Ni0 P0 2.273514 1_554
Ni0 Ru0 2.669513 1_555
Ni0 Ru0 2.669513 1_645
Ni0 Ru0 2.669514 1_656
Ni0 Ru0 2.669514 1_544
P0 Ru0 2.273513 1_545
P0 Ru0 2.273514 1_556
P1 Ru0 2.273513 1_655
P1 Ru0 2.273514 1_554
