# generated using pymatgen
data_ZrNbV3Re
_symmetry_space_group_name_H-M   'P 1'
_cell_length_a   5.12304074
_cell_length_b   5.12304145
_cell_length_c   5.12304235
_cell_angle_alpha   60.68706690
_cell_angle_beta   60.68705264
_cell_angle_gamma   60.68706179
_symmetry_Int_Tables_number   1
_chemical_formula_structural   ZrNbV3Re
_chemical_formula_sum   'Zr1 Nb1 V3 Re1'
_cell_volume   96.54997134
_cell_formula_units_Z   1
loop_
 _symmetry_equiv_pos_site_id
 _symmetry_equiv_pos_as_xyz
  1  'x, y, z'
loop_
 _atom_site_type_symbol
 _atom_site_label
 _atom_site_symmetry_multiplicity
 _atom_site_fract_x
 _atom_site_fract_y
 _atom_site_fract_z
 _atom_site_occupancy
  Zr  Zr0  1  0.37520648  0.37520648  0.37520648  1
  Nb  Nb0  1  0.62513339  0.62513339  0.62513339  1
  V  V0  1  0.00005501  0.49956185  0.00005501  1
  V  V1  1  0.49956185  0.00005501  0.00005501  1
  V  V2  1  0.00005501  0.00005501  0.49956185  1
  Re  Re0  1  0.99998827  0.99998827  0.99998827  1
loop_
_geom_bond_atom_site_label_1
_geom_bond_atom_site_label_2
_geom_bond_distance
_geom_bond_site_symmetry_2
Nb0 V2 2.997486 1_665
Nb0 V1 2.997486 1_566
Nb0 V0 2.997486 1_656
Nb0 V0 3.023654 1_556
Nb0 V2 3.023654 1_565
Nb0 V2 3.023654 1_655
Nb0 V1 3.023654 1_556
Nb0 V0 3.023655 1_655
Nb0 V1 3.023655 1_565
Nb0 Re0 3.033069 1_455
Nb0 Re0 3.033069 1_554
Nb0 Re0 3.033070 1_545
Nb0 Zr0 3.119908 1_555
Nb0 Zr0 3.164635 1_655
Nb0 Zr0 3.164635 1_565
Nb0 Zr0 3.164636 1_556
V0 V1 2.585523 1_555
V0 V2 2.585523 1_555
V0 V1 2.590628 1_465
V0 V2 2.590629 1_564
V0 Zr0 3.002065 1_555
V0 Zr0 3.020054 1_455
V0 Zr0 3.020055 1_554
V1 V2 2.585523 1_555
V1 V2 2.590628 1_654
V1 Zr0 3.002065 1_555
V1 Zr0 3.020055 1_545
V1 Zr0 3.020055 1_554
V2 Zr0 3.002064 1_555
V2 Zr0 3.020054 1_455
V2 Zr0 3.020054 1_545
Re0 V1 2.559671 1_666
Re0 V0 2.559671 1_666
Re0 V2 2.559671 1_666
Re0 V1 2.563370 1_566
Re0 V0 2.563371 1_656
Re0 V2 2.563371 1_665
Re0 Zr0 3.033847 1_566
Re0 Zr0 3.033848 1_665
Re0 Zr0 3.033848 1_656
