# generated using pymatgen
data_Zr5Sb3Au
_symmetry_space_group_name_H-M   'P 1'
_cell_length_a   8.72332454
_cell_length_b   8.72332459
_cell_length_c   5.88285266
_cell_angle_alpha   90.00000000
_cell_angle_beta   90.00000000
_cell_angle_gamma   120.00000355
_symmetry_Int_Tables_number   1
_chemical_formula_structural   Zr5Sb3Au
_chemical_formula_sum   'Zr10 Sb6 Au2'
_cell_volume   387.68826082
_cell_formula_units_Z   2
loop_
 _symmetry_equiv_pos_site_id
 _symmetry_equiv_pos_as_xyz
  1  'x, y, z'
loop_
 _atom_site_type_symbol
 _atom_site_label
 _atom_site_symmetry_multiplicity
 _atom_site_fract_x
 _atom_site_fract_y
 _atom_site_fract_z
 _atom_site_occupancy
  Zr  Zr0  1  0.66666700  0.33333300  0.00000000  1
  Zr  Zr1  1  0.33333300  0.66666700  0.00000000  1
  Zr  Zr2  1  0.33333300  0.66666700  0.50000000  1
  Zr  Zr3  1  0.66666700  0.33333300  0.50000000  1
  Zr  Zr4  1  0.72355023  0.72355023  0.75000000  1
  Zr  Zr5  1  0.27644977  1.00000000  0.75000000  1
  Zr  Zr6  1  1.00000000  0.27644977  0.75000000  1
  Zr  Zr7  1  0.27644977  0.27644977  0.25000000  1
  Zr  Zr8  1  0.72355023  0.00000000  0.25000000  1
  Zr  Zr9  1  0.00000000  0.72355023  0.25000000  1
  Sb  Sb0  1  0.38286407  0.38286407  0.75000000  1
  Sb  Sb1  1  0.61713593  0.00000000  0.75000000  1
  Sb  Sb2  1  0.00000000  0.61713593  0.75000000  1
  Sb  Sb3  1  0.61713593  0.61713593  0.25000000  1
  Sb  Sb4  1  0.38286407  1.00000000  0.25000000  1
  Sb  Sb5  1  1.00000000  0.38286407  0.25000000  1
  Au  Au0  1  0.00000000  0.00000000  0.00000000  1
  Au  Au1  1  0.00000000  0.00000000  0.50000000  1
loop_
_geom_bond_atom_site_label_1
_geom_bond_atom_site_label_2
_geom_bond_distance
_geom_bond_site_symmetry_2
Sb0 Zr4 2.971916 1_555
Sb0 Zr6 2.985961 1_455
Sb0 Zr5 2.985961 1_545
Sb0 Zr7 3.084429 1_555
Sb0 Zr7 3.084429 1_556
Sb0 Zr0 3.090064 1_556
Sb0 Zr3 3.090064 1_555
Sb0 Zr1 3.090064 1_556
Sb0 Zr2 3.090064 1_555
Sb1 Zr5 2.971916 1_545
Sb1 Zr6 2.985961 1_555
Sb1 Zr4 2.985961 1_545
Sb1 Zr8 3.084429 1_556
Sb1 Zr8 3.084429 1_555
Sb1 Zr0 3.090056 1_556
Sb1 Zr3 3.090056 1_555
Sb1 Zr1 3.090059 1_546
Sb1 Zr2 3.090059 1_545
Sb2 Zr6 2.971916 1_455
Sb2 Zr5 2.985961 1_555
Sb2 Zr4 2.985961 1_455
Sb2 Zr9 3.084429 1_556
Sb2 Zr9 3.084429 1_555
Sb2 Zr1 3.090056 1_556
Sb2 Zr2 3.090056 1_555
Sb2 Zr0 3.090059 1_456
Sb2 Zr3 3.090059 1_455
Sb3 Zr7 2.971916 1_555
Sb3 Zr9 2.985961 1_655
Sb3 Zr8 2.985961 1_565
Sb3 Zr4 3.084429 1_554
Sb3 Zr4 3.084429 1_555
Sb3 Zr2 3.090064 1_555
Sb3 Zr1 3.090064 1_555
Sb3 Zr3 3.090064 1_555
Sb3 Zr0 3.090064 1_555
Sb4 Zr8 2.971916 1_565
Sb4 Zr9 2.985961 1_555
Sb4 Zr7 2.985961 1_565
Sb4 Zr5 3.084429 1_555
Sb4 Zr5 3.084429 1_554
Sb4 Zr2 3.090056 1_555
Sb4 Zr1 3.090056 1_555
Sb4 Zr3 3.090059 1_565
Sb4 Zr0 3.090059 1_565
Sb5 Zr9 2.971916 1_655
Sb5 Zr8 2.985961 1_555
Sb5 Zr7 2.985961 1_655
Sb5 Zr6 3.084429 1_554
Sb5 Zr6 3.084429 1_555
Sb5 Zr3 3.090056 1_555
Sb5 Zr0 3.090056 1_555
Sb5 Zr2 3.090059 1_655
Sb5 Zr1 3.090059 1_655
Au0 Zr7 2.824646 1_555
Au0 Zr4 2.824646 1_444
Au0 Zr5 2.824646 1_544
Au0 Zr8 2.824646 1_455
Au0 Zr6 2.824646 1_454
Au0 Zr9 2.824646 1_545
Au1 Zr7 2.824646 1_555
Au1 Zr4 2.824646 1_445
Au1 Zr5 2.824646 1_545
Au1 Zr8 2.824646 1_455
Au1 Zr6 2.824646 1_455
Au1 Zr9 2.824646 1_545
