# generated using pymatgen
data_Cs3KSrI6
_symmetry_space_group_name_H-M   'P 1'
_cell_length_a   10.41591622
_cell_length_b   10.41591667
_cell_length_c   10.41591582
_cell_angle_alpha   91.37798953
_cell_angle_beta   91.37798395
_cell_angle_gamma   91.37798442
_symmetry_Int_Tables_number   1
_chemical_formula_structural   Cs3KSrI6
_chemical_formula_sum   'Cs6 K2 Sr2 I12'
_cell_volume   1129.03998716
_cell_formula_units_Z   2
loop_
 _symmetry_equiv_pos_site_id
 _symmetry_equiv_pos_as_xyz
  1  'x, y, z'
loop_
 _atom_site_type_symbol
 _atom_site_label
 _atom_site_symmetry_multiplicity
 _atom_site_fract_x
 _atom_site_fract_y
 _atom_site_fract_z
 _atom_site_occupancy
  Cs  Cs0  1  0.37080869  0.12919131  0.75000000  1
  Cs  Cs1  1  0.12919131  0.75000000  0.37080869  1
  Cs  Cs2  1  0.75000000  0.37080869  0.12919131  1
  Cs  Cs3  1  0.62919131  0.87080869  0.25000000  1
  Cs  Cs4  1  0.25000000  0.62919131  0.87080869  1
  Cs  Cs5  1  0.87080869  0.25000000  0.62919131  1
  K  K0  1  0.25000000  0.25000000  0.25000000  1
  K  K1  1  0.75000000  0.75000000  0.75000000  1
  Sr  Sr0  1  0.00000000  0.00000000  0.00000000  1
  Sr  Sr1  1  0.50000000  0.50000000  0.50000000  1
  I  I0  1  0.95094723  0.08315905  0.29938498  1
  I  I1  1  0.08315905  0.29938498  0.95094723  1
  I  I2  1  0.29938498  0.95094723  0.08315905  1
  I  I3  1  0.58315905  0.45094723  0.79938498  1
  I  I4  1  0.79938498  0.58315905  0.45094723  1
  I  I5  1  0.45094723  0.79938498  0.58315905  1
  I  I6  1  0.20061502  0.41684095  0.54905277  1
  I  I7  1  0.41684095  0.54905277  0.20061502  1
  I  I8  1  0.54905277  0.20061502  0.41684095  1
  I  I9  1  0.91684095  0.70061502  0.04905277  1
  I  I10  1  0.04905277  0.91684095  0.70061502  1
  I  I11  1  0.70061502  0.04905277  0.91684095  1
loop_
_geom_bond_atom_site_label_1
_geom_bond_atom_site_label_2
_geom_bond_distance
_geom_bond_site_symmetry_2
Cs0 I5 3.929135 1_545
Cs0 I11 3.929135 1_555
Cs0 I10 3.986775 1_545
Cs0 I3 3.986775 1_555
Cs0 I8 4.050915 1_555
Cs0 I2 4.050915 1_546
Cs0 I1 4.108386 1_555
Cs0 I6 4.108386 1_555
Cs1 I10 3.929135 1_555
Cs1 I4 3.929135 1_455
Cs1 I9 3.986774 1_455
Cs1 I5 3.986775 1_555
Cs1 I0 4.050915 1_465
Cs1 I6 4.050915 1_555
Cs1 I7 4.108386 1_555
Cs1 I2 4.108386 1_555
Cs2 I3 3.929135 1_554
Cs2 I9 3.929135 1_555
Cs2 I4 3.986774 1_555
Cs2 I11 3.986774 1_554
Cs2 I1 4.050915 1_654
Cs2 I7 4.050915 1_555
Cs2 I8 4.108386 1_555
Cs2 I0 4.108386 1_555
Cs3 I8 3.929135 1_565
Cs3 I2 3.929135 1_555
Cs3 I0 3.986775 1_565
Cs3 I7 3.986775 1_555
Cs3 I5 4.050915 1_555
Cs3 I11 4.050915 1_564
Cs3 I9 4.108386 1_555
Cs3 I4 4.108386 1_555
Cs4 I7 3.929135 1_556
Cs4 I1 3.929135 1_555
Cs4 I6 3.986774 1_555
Cs4 I2 3.986774 1_556
Cs4 I9 4.050915 1_456
Cs4 I3 4.050915 1_555
Cs4 I5 4.108386 1_555
Cs4 I10 4.108386 1_555
Cs5 I0 3.929135 1_555
Cs5 I6 3.929135 1_655
Cs5 I1 3.986774 1_655
Cs5 I8 3.986775 1_555
Cs5 I10 4.050915 1_645
Cs5 I4 4.050915 1_555
Cs5 I3 4.108386 1_555
Cs5 I11 4.108386 1_555
I0 Sr0 3.271627 1_655
I0 K0 3.584259 1_655
I1 Sr0 3.271627 1_556
I1 K0 3.584259 1_556
I2 Sr0 3.271627 1_565
I2 K0 3.584259 1_565
I3 Sr1 3.271627 1_555
I3 K1 3.584259 1_555
I4 Sr1 3.271627 1_555
I4 K1 3.584259 1_555
I5 Sr1 3.271627 1_555
I5 K1 3.584259 1_555
I6 Sr1 3.271627 1_555
I6 K0 3.584259 1_555
I7 Sr1 3.271627 1_555
I7 K0 3.584259 1_555
I8 Sr1 3.271627 1_555
I8 K0 3.584259 1_555
I9 Sr0 3.271627 1_665
I9 K1 3.584259 1_554
I10 Sr0 3.271627 1_566
I10 K1 3.584259 1_455
I11 Sr0 3.271627 1_656
I11 K1 3.584259 1_545
