# generated using pymatgen
data_Sr7TiTc3O19
_symmetry_space_group_name_H-M   'P 1'
_cell_length_a   7.35714319
_cell_length_b   7.35714236
_cell_length_c   10.37224132
_cell_angle_alpha   81.80737508
_cell_angle_beta   81.80737432
_cell_angle_gamma   44.42505022
_symmetry_Int_Tables_number   1
_chemical_formula_structural   Sr7TiTc3O19
_chemical_formula_sum   'Sr7 Ti1 Tc3 O19'
_cell_volume   388.29979594
_cell_formula_units_Z   1
loop_
 _symmetry_equiv_pos_site_id
 _symmetry_equiv_pos_as_xyz
  1  'x, y, z'
loop_
 _atom_site_type_symbol
 _atom_site_label
 _atom_site_symmetry_multiplicity
 _atom_site_fract_x
 _atom_site_fract_y
 _atom_site_fract_z
 _atom_site_occupancy
  Sr  Sr0  1  0.86155460  0.86155460  0.95354135  1
  Sr  Sr1  1  0.42047431  0.42047431  0.17050026  1
  Sr  Sr2  1  0.80036768  0.80036768  0.58097195  1
  Sr  Sr3  1  0.20882904  0.20882904  0.40530568  1
  Sr  Sr4  1  0.58263682  0.58263682  0.83225293  1
  Sr  Sr5  1  0.13329974  0.13329974  0.05334169  1
  Sr  Sr6  1  0.49434021  0.49434021  0.49377464  1
  Ti  Ti0  1  0.95554880  0.95554880  0.31429457  1
  Tc  Tc0  1  0.32685911  0.32685911  0.78671092  1
  Tc  Tc1  1  0.66970099  0.66970099  0.21967938  1
  Tc  Tc2  1  0.03743694  0.03743694  0.67311022  1
  O  O0  1  0.68702085  0.17543508  0.71698001  1
  O  O1  1  0.17543508  0.68702085  0.71698001  1
  O  O2  1  0.39799322  0.39799322  0.92877562  1
  O  O3  1  0.95187382  0.95187382  0.13774758  1
  O  O4  1  0.62383843  0.12327072  0.37880064  1
  O  O5  1  0.12327072  0.62383843  0.37880064  1
  O  O6  1  0.30480034  0.30480034  0.62325157  1
  O  O7  1  0.00414663  0.47936727  0.85024520  1
  O  O8  1  0.47936727  0.00414663  0.85024520  1
  O  O9  1  0.51935418  0.99110402  0.15424320  1
  O  O10  1  0.99110402  0.51935418  0.15424320  1
  O  O11  1  0.69728662  0.69728662  0.38223110  1
  O  O12  1  0.36872554  0.88650865  0.62677449  1
  O  O13  1  0.88650865  0.36872554  0.62677449  1
  O  O14  1  0.04806512  0.04806512  0.84750493  1
  O  O15  1  0.60332203  0.60332203  0.06854276  1
  O  O16  1  0.82357427  0.32171910  0.28320036  1
  O  O17  1  0.32171910  0.82357427  0.28320036  1
  O  O18  1  0.00154485  0.00154485  0.50797606  1
loop_
_geom_bond_atom_site_label_1
_geom_bond_atom_site_label_2
_geom_bond_distance
_geom_bond_site_symmetry_2
O0 Tc2 1.985697 1_655
O0 Tc0 2.062160 1_555
O0 Sr6 2.740596 1_555
O0 Sr2 2.790581 1_545
O0 Sr0 2.837206 1_545
O0 Sr4 2.909876 1_555
O1 Tc2 1.985696 1_565
O1 Tc0 2.062160 1_555
O1 Sr6 2.740596 1_555
O1 Sr2 2.790581 1_455
O1 Sr0 2.837206 1_455
O1 Sr4 2.909877 1_555
O2 Tc0 1.884101 1_555
O2 Sr4 2.560017 1_555
O2 Sr1 2.572225 1_556
O2 Sr0 2.829991 1_545
O2 Sr0 2.829991 1_455
O3 Ti0 1.839559 1_555
O3 Sr0 2.426513 1_554
O3 Sr5 2.491663 1_665
O3 Sr1 2.826545 1_655
O3 Sr1 2.826546 1_565
O4 Ti0 1.842476 1_545
O4 Sr1 2.567035 1_555
O4 Sr6 2.582983 1_555
O4 Sr2 2.584025 1_545
O4 Sr3 2.619021 1_555
O5 Ti0 1.842476 1_455
O5 Sr1 2.567035 1_555
O5 Sr6 2.582983 1_555
O5 Sr2 2.584025 1_455
O5 Sr3 2.619021 1_555
O6 Tc0 1.766819 1_555
O6 Sr6 2.720783 1_555
O6 Sr3 2.780150 1_555
O6 Sr2 2.817772 1_545
O6 Sr2 2.817772 1_455
O7 Tc0 1.813844 1_555
O7 Sr0 2.545529 1_455
O7 Sr4 2.643510 1_455
O7 Sr5 2.722005 1_556
O7 Sr2 3.143567 1_455
O8 Tc0 1.813844 1_555
O8 Sr0 2.545530 1_545
O8 Sr4 2.643509 1_545
O8 Sr5 2.722005 1_556
O8 Sr2 3.143567 1_545
O9 Tc1 1.815552 1_555
O9 Sr5 2.558884 1_565
O9 Sr0 2.687899 1_554
O9 Sr1 2.714963 1_565
O9 Sr3 2.971983 1_565
O10 Tc1 1.815552 1_555
O10 Sr5 2.558883 1_655
O10 Sr0 2.687899 1_554
O10 Sr1 2.714963 1_655
O10 Sr3 2.971983 1_655
O11 Tc1 1.782958 1_555
O11 Sr2 2.666872 1_555
O11 Sr3 2.798092 1_565
O11 Sr3 2.798092 1_655
O11 Sr6 2.827878 1_555
O12 Tc2 1.832255 1_565
O12 Sr4 2.567038 1_555
O12 Sr2 2.737392 1_555
O12 Sr3 2.741744 1_565
O12 Sr6 2.836227 1_555
O13 Tc2 1.832255 1_655
O13 Sr4 2.567038 1_555
O13 Sr2 2.737391 1_555
O13 Sr3 2.741744 1_655
O13 Sr6 2.836228 1_555
O14 Tc2 1.836729 1_555
O14 Sr5 2.582527 1_556
O14 Sr0 2.608558 1_445
O14 Sr4 2.821278 1_455
O14 Sr4 2.821278 1_545
O15 Tc1 1.926517 1_555
O15 Sr4 2.509720 1_554
O15 Sr1 2.551781 1_555
O15 Sr5 2.812033 1_565
O15 Sr5 2.812033 1_655
O16 Tc1 1.965247 1_555
O16 Ti0 2.099936 1_545
O16 Sr6 2.671959 1_555
O16 Sr5 2.771285 1_655
O16 Sr3 2.772797 1_655
O16 Sr1 2.890987 1_555
O17 Tc1 1.965248 1_555
O17 Ti0 2.099936 1_455
O17 Sr6 2.671959 1_555
O17 Sr5 2.771285 1_565
O17 Sr3 2.772797 1_565
O17 Sr1 2.890987 1_555
O18 Tc2 1.852184 1_555
O18 Ti0 2.194497 1_445
O18 Sr2 2.728518 1_445
O18 Sr6 2.787742 1_545
O18 Sr6 2.787742 1_455
O18 Sr3 2.860345 1_555
