# generated using pymatgen
data_Cs6(PtO3)5
_symmetry_space_group_name_H-M   'P 1'
_cell_length_a   7.99643973
_cell_length_b   7.99643503
_cell_length_c   7.99643834
_cell_angle_alpha   89.87013150
_cell_angle_beta   89.87008835
_cell_angle_gamma   89.87014485
_symmetry_Int_Tables_number   1
_chemical_formula_structural   Cs6(PtO3)5
_chemical_formula_sum   'Cs6 Pt5 O15'
_cell_volume   511.31240794
_cell_formula_units_Z   1
loop_
 _symmetry_equiv_pos_site_id
 _symmetry_equiv_pos_as_xyz
  1  'x, y, z'
loop_
 _atom_site_type_symbol
 _atom_site_label
 _atom_site_symmetry_multiplicity
 _atom_site_fract_x
 _atom_site_fract_y
 _atom_site_fract_z
 _atom_site_occupancy
  Cs  Cs0  1  0.32159605  0.67842207  0.00001047  1
  Cs  Cs1  1  0.00001047  0.32159805  0.67842107  1
  Cs  Cs2  1  0.67842107  0.00000947  0.32159805  1
  Cs  Cs3  1  0.14375408  0.85636150  0.49998347  1
  Cs  Cs4  1  0.49998347  0.14375508  0.85636150  1
  Cs  Cs5  1  0.85636050  0.49998347  0.14375408  1
  Pt  Pt0  1  0.50000145  0.50000045  0.50000045  1
  Pt  Pt1  1  0.29931674  0.29931674  0.29931674  1
  Pt  Pt2  1  0.70070016  0.70070016  0.70070016  1
  Pt  Pt3  1  0.09947598  0.09947598  0.09947598  1
  Pt  Pt4  1  0.90054332  0.90054332  0.90054432  1
  O  O0  1  0.12930748  0.00001157  0.87073552  1
  O  O1  1  0.87073652  0.12930748  0.00001257  1
  O  O2  1  0.00001157  0.87073652  0.12930748  1
  O  O3  1  0.06081903  0.21716917  0.31672490  1
  O  O4  1  0.31672490  0.06081903  0.21716917  1
  O  O5  1  0.21716917  0.31672490  0.06081903  1
  O  O6  1  0.78285447  0.93915537  0.68328670  1
  O  O7  1  0.68328670  0.78285547  0.93915537  1
  O  O8  1  0.93915537  0.68328670  0.78285547  1
  O  O9  1  0.35145627  0.30330522  0.54456590  1
  O  O10  1  0.54456590  0.35145627  0.30330522  1
  O  O11  1  0.30330622  0.54456590  0.35145627  1
  O  O12  1  0.69661884  0.64842786  0.45539543  1
  O  O13  1  0.45539543  0.69661884  0.64842786  1
  O  O14  1  0.64842886  0.45539543  0.69661884  1
loop_
_geom_bond_atom_site_label_1
_geom_bond_atom_site_label_2
_geom_bond_distance
_geom_bond_site_symmetry_2
Cs0 O11 3.008349 1_555
Cs0 O13 3.009174 1_554
Cs0 O5 3.049885 1_555
Cs0 O7 3.049909 1_554
Cs0 O0 3.165929 1_564
Cs0 O2 3.166054 1_555
Cs0 O4 3.519997 1_565
Cs0 O8 3.520289 1_454
Cs1 O9 3.008347 1_555
Cs1 O14 3.009162 1_455
Cs1 O3 3.049883 1_555
Cs1 O8 3.049896 1_455
Cs1 O1 3.165946 1_456
Cs1 O0 3.166067 1_555
Cs1 O5 3.520006 1_556
Cs1 O6 3.520304 1_445
Cs2 O10 3.008354 1_555
Cs2 O12 3.009161 1_545
Cs2 O4 3.049885 1_555
Cs2 O6 3.049894 1_545
Cs2 O2 3.165938 1_645
Cs2 O1 3.166066 1_555
Cs2 O3 3.520009 1_655
Cs2 O7 3.520297 1_544
Cs3 O13 3.040229 1_555
Cs3 O11 3.040862 1_555
Cs3 O4 3.111242 1_565
Cs3 O8 3.112538 1_455
Cs3 O2 3.183319 1_555
Cs3 O0 3.183636 1_565
Cs3 O3 3.299706 1_565
Cs3 O6 3.300281 1_455
Cs4 O14 3.040223 1_555
Cs4 O9 3.040857 1_555
Cs4 O5 3.111239 1_556
Cs4 O6 3.112537 1_545
Cs4 O0 3.183321 1_555
Cs4 O1 3.183648 1_556
Cs4 O4 3.299707 1_556
Cs4 O7 3.300281 1_545
Cs5 O12 3.040224 1_555
Cs5 O10 3.040852 1_555
Cs5 O3 3.111247 1_655
Cs5 O7 3.112536 1_554
Cs5 O1 3.183315 1_555
Cs5 O2 3.183645 1_655
Cs5 O5 3.299714 1_655
Cs5 O8 3.300275 1_554
O0 Pt3 2.009701 1_556
O0 Pt4 2.009865 1_445
O1 Pt3 2.009692 1_655
O1 Pt4 2.009863 1_544
O2 Pt3 2.009693 1_565
O2 Pt4 2.009857 1_454
O3 Pt3 2.000714 1_555
O3 Pt1 2.022892 1_555
O4 Pt3 2.000715 1_555
O4 Pt1 2.022892 1_555
O5 Pt3 2.000713 1_555
O5 Pt1 2.022893 1_555
O6 Pt4 2.000704 1_555
O6 Pt2 2.022591 1_555
O7 Pt4 2.000691 1_555
O7 Pt2 2.022595 1_555
O8 Pt4 2.000696 1_555
O8 Pt2 2.022596 1_555
O9 Pt0 2.003956 1_555
O9 Pt1 2.006213 1_555
O10 Pt0 2.003950 1_555
O10 Pt1 2.006213 1_555
O11 Pt0 2.003953 1_555
O11 Pt1 2.006212 1_555
O12 Pt0 2.002963 1_555
O12 Pt2 2.006885 1_555
O13 Pt0 2.002971 1_555
O13 Pt2 2.006885 1_555
O14 Pt0 2.002971 1_555
O14 Pt2 2.006882 1_555
