# generated using pymatgen
data_Ta4TiNb5N12
_symmetry_space_group_name_H-M   'P 1'
_cell_length_a   5.21550417
_cell_length_b   5.22879121
_cell_length_c   10.36688956
_cell_angle_alpha   89.98666123
_cell_angle_beta   90.02535057
_cell_angle_gamma   120.06950744
_symmetry_Int_Tables_number   1
_chemical_formula_structural   Ta4TiNb5N12
_chemical_formula_sum   'Ta4 Ti1 Nb5 N12'
_cell_volume   244.66511540
_cell_formula_units_Z   1
loop_
 _symmetry_equiv_pos_site_id
 _symmetry_equiv_pos_as_xyz
  1  'x, y, z'
loop_
 _atom_site_type_symbol
 _atom_site_label
 _atom_site_symmetry_multiplicity
 _atom_site_fract_x
 _atom_site_fract_y
 _atom_site_fract_z
 _atom_site_occupancy
  Ta  Ta0  1  0.99846883  0.67792142  0.24835668  1
  Ta  Ta1  1  0.33497365  0.66669934  0.00009099  1
  Ta  Ta2  1  0.33502494  0.66688385  0.49973523  1
  Ta  Ta3  1  0.66476555  0.33165556  0.49980819  1
  Ti  Ti0  1  0.66563530  0.33213014  0.99991672  1
  Nb  Nb0  1  0.67816894  0.67643734  0.75136148  1
  Nb  Nb1  1  0.32326951  0.00081540  0.75136317  1
  Nb  Nb2  1  0.99892488  0.32174333  0.75137470  1
  Nb  Nb3  1  0.32354561  0.32290158  0.24884605  1
  Nb  Nb4  1  0.67729080  0.00176428  0.24890722  1
  N  N0  1  0.66144777  0.65796412  0.38053440  1
  N  N1  1  0.33803295  0.99594206  0.38052855  1
  N  N2  1  0.00009316  0.34939920  0.37975235  1
  N  N3  1  0.34307018  0.34299606  0.61869955  1
  N  N4  1  0.65677480  0.99954034  0.61869896  1
  N  N5  1  0.00018959  0.65468966  0.61866000  1
  N  N6  1  0.34699988  0.34565909  0.88212088  1
  N  N7  1  0.65440366  0.00075247  0.88209720  1
  N  N8  1  0.99939655  0.65155495  0.88175504  1
  N  N9  1  0.65871306  0.65379653  0.11883057  1
  N  N10  1  0.34189658  0.99668025  0.11892493  1
  N  N11  1  0.99890678  0.35207904  0.11963814  1
loop_
_geom_bond_atom_site_label_1
_geom_bond_atom_site_label_2
_geom_bond_distance
_geom_bond_site_symmetry_2
N0 Ta3 2.113984 1_555
N0 Ta2 2.123454 1_555
N0 Ta0 2.190073 1_555
N0 Nb3 2.223494 1_555
N0 Nb4 2.224983 1_565
N1 Ta2 2.111828 1_555
N1 Ta3 2.125056 1_565
N1 Ta0 2.197004 1_455
N1 Nb3 2.218180 1_565
N1 Nb4 2.222997 1_565
N2 Ta2 2.108909 1_555
N2 Ta3 2.110825 1_455
N2 Ta0 2.195403 1_455
N2 Nb4 2.216060 1_455
N2 Nb3 2.223305 1_555
N3 Ta3 2.106951 1_555
N3 Ta2 2.112117 1_555
N3 Nb1 2.217468 1_555
N3 Nb2 2.219915 1_455
N3 Nb0 2.220621 1_555
N4 Ta2 2.106332 1_555
N4 Ta3 2.112588 1_565
N4 Nb2 2.213762 1_565
N4 Nb1 2.220537 1_565
N4 Nb0 2.223912 1_555
N5 Ta2 2.112826 1_555
N5 Ta3 2.114120 1_455
N5 Nb2 2.216104 1_455
N5 Nb0 2.218041 1_455
N5 Nb1 2.224965 1_565
N6 Ti0 2.091405 1_555
N6 Ta1 2.103338 1_556
N6 Nb0 2.195362 1_555
N6 Nb1 2.209393 1_555
N6 Nb2 2.217852 1_455
N7 Ti0 2.096849 1_555
N7 Ta1 2.099398 1_546
N7 Nb1 2.194992 1_555
N7 Nb2 2.204801 1_555
N7 Nb0 2.222559 1_545
N8 Ti0 2.099460 1_555
N8 Ta1 2.105641 1_656
N8 Nb2 2.190370 1_555
N8 Nb0 2.206222 1_555
N8 Nb1 2.219276 1_665
N9 Ti0 2.100416 1_554
N9 Ta1 2.117310 1_555
N9 Ta0 2.175530 1_555
N9 Nb3 2.199126 1_555
N9 Nb4 2.227685 1_565
N10 Ta1 2.105827 1_555
N10 Ti0 2.117213 1_564
N10 Ta0 2.189997 1_455
N10 Nb4 2.197204 1_565
N10 Nb3 2.213048 1_565
N11 Ti0 2.095002 1_554
N11 Ta1 2.103780 1_655
N11 Ta0 2.165277 1_555
N11 Nb4 2.210575 1_555
N11 Nb3 2.222841 1_655
