# generated using pymatgen
data_Nd2Co17
_symmetry_space_group_name_H-M   'P 1'
_cell_length_a   6.30107357
_cell_length_b   6.30124039
_cell_length_c   6.30047120
_cell_angle_alpha   83.04488396
_cell_angle_beta   83.04715359
_cell_angle_gamma   83.04527510
_symmetry_Int_Tables_number   1
_chemical_formula_structural   Nd2Co17
_chemical_formula_sum   'Nd2 Co17'
_cell_volume   245.04862216
_cell_formula_units_Z   1
loop_
 _symmetry_equiv_pos_site_id
 _symmetry_equiv_pos_as_xyz
  1  'x, y, z'
loop_
 _atom_site_type_symbol
 _atom_site_label
 _atom_site_symmetry_multiplicity
 _atom_site_fract_x
 _atom_site_fract_y
 _atom_site_fract_z
 _atom_site_occupancy
  Nd  Nd0  1  0.34397316  0.34395207  0.34398157  1
  Nd  Nd1  1  0.65601035  0.65605627  0.65602300  1
  Co  Co0  1  0.09392481  0.09393479  0.09396239  1
  Co  Co1  1  0.90608014  0.90604155  0.90601773  1
  Co  Co2  1  0.00001601  -0.00002083  0.50000728  1
  Co  Co3  1  0.49999761  -0.00001286  0.00000386  1
  Co  Co4  1  0.00000367  0.50000546  -0.00000895  1
  Co  Co5  1  0.28499731  0.71500255  -0.00001241  1
  Co  Co6  1  0.00000629  0.28505041  0.71498353  1
  Co  Co7  1  0.71495675  0.00000703  0.28501312  1
  Co  Co8  1  0.71499621  0.28501122  0.00001314  1
  Co  Co9  1  0.00001346  0.71496576  0.28501945  1
  Co  Co10  1  0.28502896  -0.00002380  0.71498870  1
  Co  Co11  1  0.66060097  0.15267247  0.66061946  1
  Co  Co12  1  0.66063519  0.66063473  0.15268623  1
  Co  Co13  1  0.15265019  0.66060963  0.66060647  1
  Co  Co14  1  0.84735078  0.33940010  0.33939648  1
  Co  Co15  1  0.33940246  0.84733267  0.33939849  1
  Co  Co16  1  0.33935569  0.33938178  0.84730248  1
loop_
_geom_bond_atom_site_label_1
_geom_bond_atom_site_label_2
_geom_bond_distance
_geom_bond_site_symmetry_2
Co0 Co1 2.285420 1_444
Co0 Co2 2.568452 1_555
Co0 Co3 2.568881 1_555
Co0 Co4 2.568889 1_555
Co0 Co14 2.571602 1_455
Co0 Co15 2.571659 1_545
Co0 Co16 2.571777 1_554
Co0 Co8 2.640894 1_455
Co0 Co6 2.641007 1_554
Co0 Co5 2.641028 1_545
Co0 Co7 2.641049 1_455
Co0 Co9 2.641057 1_545
Co0 Co10 2.641084 1_554
Co0 Nd0 3.041178 1_555
Co1 Co2 2.568256 1_665
Co1 Co4 2.568688 1_656
Co1 Co3 2.568960 1_566
Co1 Co13 2.571378 1_655
Co1 Co11 2.571604 1_565
Co1 Co12 2.571703 1_556
Co1 Co5 2.640792 1_656
Co1 Co10 2.640911 1_665
Co1 Co9 2.641079 1_656
Co1 Co7 2.641254 1_566
Co1 Co6 2.641257 1_665
Co1 Co8 2.641294 1_566
Co1 Nd1 3.041036 1_555
Co2 Co9 2.376823 1_545
Co2 Co7 2.376978 1_455
Co2 Co6 2.377063 1_555
Co2 Nd1 3.235287 1_445
Co2 Nd0 3.235302 1_555
Co3 Co7 2.376564 1_555
Co3 Co5 2.376818 1_545
Co3 Co8 2.377009 1_555
Co3 Nd1 3.235088 1_544
Co3 Nd0 3.235237 1_555
Co4 Co6 2.376579 1_554
Co4 Co9 2.376722 1_555
Co4 Co5 2.376816 1_555
Co4 Co8 2.376857 1_455
Co4 Nd0 3.235221 1_555
Co4 Nd1 3.235225 1_454
Co5 Co9 2.380933 1_555
Co5 Nd1 3.009611 1_554
Co5 Nd0 3.009875 1_555
Co6 Co8 2.381033 1_456
Co6 Nd0 3.009519 1_555
Co6 Nd1 3.009820 1_455
Co7 Co8 2.380863 1_555
Co7 Co9 2.381377 1_645
Co7 Nd1 3.009501 1_545
Co7 Nd0 3.009542 1_555
Co8 Nd0 3.009665 1_555
Co8 Nd1 3.009843 1_554
Co9 Nd1 3.009678 1_455
Co9 Nd0 3.009708 1_555
Co10 Co3 2.376625 1_556
Co10 Co2 2.376709 1_555
Co10 Co5 2.380731 1_546
Co10 Co6 2.381373 1_555
Co10 Co16 2.462568 1_555
Co10 Co13 2.462653 1_545
Co10 Co15 2.630113 1_545
Co10 Co11 2.630364 1_555
Co10 Nd1 3.009429 1_545
Co10 Nd0 3.009589 1_555
Co11 Co3 2.394922 1_556
Co11 Co2 2.395248 1_655
Co11 Co16 2.459050 1_555
Co11 Co14 2.459086 1_555
Co11 Co8 2.462493 1_556
Co11 Co6 2.462794 1_655
Co11 Co7 2.630273 1_555
Co11 Nd0 3.035124 1_555
Co11 Nd1 3.136599 1_545
Co11 Nd1 3.165222 1_555
Co12 Co3 2.394958 1_565
Co12 Co4 2.395062 1_655
Co12 Co15 2.459043 1_555
Co12 Co14 2.459058 1_555
Co12 Co9 2.462398 1_655
Co12 Co7 2.462402 1_565
Co12 Co8 2.630603 1_555
Co12 Co5 2.630663 1_555
Co12 Nd0 3.035692 1_555
Co12 Nd1 3.136526 1_554
Co12 Nd1 3.164528 1_555
Co13 Co4 2.394840 1_556
Co13 Co2 2.394847 1_565
Co13 Co16 2.458961 1_555
Co13 Co15 2.459014 1_555
Co13 Co5 2.462415 1_556
Co13 Co9 2.630019 1_555
Co13 Co6 2.630176 1_555
Co13 Nd0 3.035374 1_555
Co13 Nd1 3.136622 1_455
Co13 Nd1 3.165025 1_555
Co14 Co4 2.394960 1_655
Co14 Co2 2.395198 1_655
Co14 Co8 2.462443 1_555
Co14 Co7 2.462854 1_555
Co14 Co6 2.630075 1_655
Co14 Co9 2.630268 1_655
Co14 Nd1 3.035401 1_555
Co14 Nd0 3.136513 1_655
Co14 Nd0 3.165135 1_555
Co15 Co3 2.394887 1_565
Co15 Co2 2.394996 1_565
Co15 Co5 2.462586 1_555
Co15 Co9 2.462694 1_555
Co15 Co7 2.630194 1_565
Co15 Nd1 3.034975 1_555
Co15 Nd0 3.136592 1_565
Co15 Nd0 3.165225 1_555
Co16 Co4 2.394952 1_556
Co16 Co3 2.395220 1_556
Co16 Co6 2.462189 1_555
Co16 Co5 2.630623 1_556
Co16 Co8 2.630713 1_556
Co16 Nd1 3.035601 1_555
Co16 Nd0 3.136613 1_556
Co16 Nd0 3.164439 1_555
