# generated using pymatgen
data_MnRu2F12
_symmetry_space_group_name_H-M   'P 1'
_cell_length_a   5.08411613
_cell_length_b   5.46557168
_cell_length_c   8.73562339
_cell_angle_alpha   73.91550111
_cell_angle_beta   89.12739398
_cell_angle_gamma   62.77457037
_symmetry_Int_Tables_number   1
_chemical_formula_structural   MnRu2F12
_chemical_formula_sum   'Mn1 Ru2 F12'
_cell_volume   205.62554192
_cell_formula_units_Z   1
loop_
 _symmetry_equiv_pos_site_id
 _symmetry_equiv_pos_as_xyz
  1  'x, y, z'
loop_
 _atom_site_type_symbol
 _atom_site_label
 _atom_site_symmetry_multiplicity
 _atom_site_fract_x
 _atom_site_fract_y
 _atom_site_fract_z
 _atom_site_occupancy
  Mn  Mn0  1  0.50000000  0.50000000  0.50000000  1
  Ru  Ru0  1  0.76315595  0.00780212  0.23568340  1
  Ru  Ru1  1  0.23684405  0.99219788  0.76431660  1
  F  F0  1  0.94575491  0.23676156  0.19687941  1
  F  F1  1  0.05424509  0.76323844  0.80312059  1
  F  F2  1  0.01820187  0.76546047  0.13026705  1
  F  F3  1  0.49053068  0.76121447  0.63630640  1
  F  F4  1  0.50946932  0.23878553  0.36369360  1
  F  F5  1  0.95591867  0.23570067  0.56934955  1
  F  F6  1  0.04408133  0.76429933  0.43065045  1
  F  F7  1  0.42364920  0.23694827  0.69873226  1
  F  F8  1  0.57635080  0.76305173  0.30126774  1
  F  F9  1  0.51465276  0.76881968  0.94196492  1
  F  F10  1  0.48534724  0.23118032  0.05803508  1
  F  F11  1  0.98179813  0.23453953  0.86973295  1
loop_
_geom_bond_atom_site_label_1
_geom_bond_atom_site_label_2
_geom_bond_distance
_geom_bond_site_symmetry_2
F0 Ru0 1.833323 1_555
F1 Ru1 1.833323 1_555
F2 Ru0 1.830793 1_465
F3 Ru1 1.938109 1_555
F3 Mn0 2.082249 1_555
F4 Ru0 1.938109 1_555
F4 Mn0 2.082249 1_555
F5 Ru1 1.946988 1_645
F5 Mn0 2.078636 1_555
F6 Ru0 1.946988 1_465
F6 Mn0 2.078636 1_555
F7 Ru1 1.934141 1_545
F7 Mn0 2.082953 1_555
F8 Ru0 1.934141 1_565
F8 Mn0 2.082953 1_555
F9 Ru1 1.825620 1_555
F10 Ru0 1.825620 1_555
F11 Ru1 1.830793 1_645
