# generated using pymatgen
data_Ca(AlB14)2
_symmetry_space_group_name_H-M   'P 1'
_cell_length_a   7.19182327
_cell_length_b   7.19182333
_cell_length_c   5.85066120
_cell_angle_alpha   66.29290493
_cell_angle_beta   66.29289651
_cell_angle_gamma   91.87540142
_symmetry_Int_Tables_number   1
_chemical_formula_structural   Ca(AlB14)2
_chemical_formula_sum   'Ca1 Al2 B28'
_cell_volume   246.77860108
_cell_formula_units_Z   1
loop_
 _symmetry_equiv_pos_site_id
 _symmetry_equiv_pos_as_xyz
  1  'x, y, z'
loop_
 _atom_site_type_symbol
 _atom_site_label
 _atom_site_symmetry_multiplicity
 _atom_site_fract_x
 _atom_site_fract_y
 _atom_site_fract_z
 _atom_site_occupancy
  Ca  Ca0  1  0.89014981  0.89014981  0.34221173  1
  Al  Al0  1  0.50061931  0.50061931  0.50710596  1
  Al  Al1  1  0.17101606  0.17101606  0.43742563  1
  B  B0  1  0.41377416  0.73585383  0.17603488  1
  B  B1  1  0.58615160  0.25788695  0.83447723  1
  B  B2  1  0.25788695  0.58615160  0.83447723  1
  B  B3  1  0.73585383  0.41377416  0.17603488  1
  B  B4  1  0.69134984  0.85724686  0.98183139  1
  B  B5  1  0.30811653  0.13598573  0.03119022  1
  B  B6  1  0.13598573  0.30811653  0.03119022  1
  B  B7  1  0.85724686  0.69134984  0.98183139  1
  B  B8  1  0.53162283  0.87106246  0.30438230  1
  B  B9  1  0.47362699  0.12411049  0.20449261  1
  B  B10  1  0.12411049  0.47362699  0.20449261  1
  B  B11  1  0.87106246  0.53162283  0.30438230  1
  B  B12  1  0.46449266  0.11957993  0.71243691  1
  B  B13  1  0.53212188  0.86732409  0.80480584  1
  B  B14  1  0.86732409  0.53212188  0.80480584  1
  B  B15  1  0.11957993  0.46449266  0.71243691  1
  B  B16  1  0.72521801  0.09917156  0.00024913  1
  B  B17  1  0.27792614  0.89701691  0.32634221  1
  B  B18  1  0.89701691  0.27792614  0.32634221  1
  B  B19  1  0.09917156  0.72521801  0.00024913  1
  B  B20  1  0.27687572  0.89556462  0.00854626  1
  B  B21  1  0.72329354  0.09630724  0.69159881  1
  B  B22  1  0.09630724  0.72329354  0.69159881  1
  B  B23  1  0.89556462  0.27687572  0.00854626  1
  B  B24  1  0.26915035  0.47059543  0.38692981  1
  B  B25  1  0.71632936  0.52045612  0.64330974  1
  B  B26  1  0.52045612  0.71632936  0.64330974  1
  B  B27  1  0.47059543  0.26915035  0.38692981  1
loop_
_geom_bond_atom_site_label_1
_geom_bond_atom_site_label_2
_geom_bond_distance
_geom_bond_site_symmetry_2
Al0 B26 2.032997 1_555
Al0 B25 2.032997 1_555
Al0 B27 2.086122 1_555
Al0 B24 2.086122 1_555
Al0 B3 2.326157 1_555
Al0 B0 2.326157 1_555
Al0 B2 2.328815 1_555
Al0 B1 2.328815 1_555
Al0 B11 2.400367 1_555
Al0 B8 2.400368 1_555
Al0 B15 2.464850 1_555
Al0 B12 2.464850 1_555
Al1 B27 2.109104 1_555
Al1 B24 2.109104 1_555
Al1 B9 2.177201 1_555
Al1 B10 2.177201 1_555
Al1 B5 2.301716 1_555
Al1 B6 2.301716 1_555
Al1 B17 2.371458 1_545
Al1 B18 2.371458 1_455
B0 B13 1.773473 1_554
B0 B24 1.785755 1_555
B0 B20 1.787073 1_555
B0 B8 1.809077 1_555
B0 B17 1.809456 1_555
B0 B4 1.817321 1_554
B1 B25 1.742772 1_555
B1 B9 1.769892 1_556
B1 B16 1.791192 1_556
B1 B21 1.793069 1_555
B1 B12 1.811420 1_555
B1 B5 1.820673 1_556
B2 B26 1.742772 1_555
B2 B22 1.793069 1_555
B2 B6 1.820673 1_556
B3 B7 1.817321 1_554
B4 B7 1.714688 1_555
B4 B8 1.818185 1_556
B5 B6 1.779120 1_555
B5 B9 1.832960 1_555
B5 Ca0 2.852976 1_445
B6 Ca0 2.852976 1_445
B8 B9 1.793856 1_565
B8 Ca0 2.678892 1_555
B10 B24 1.762357 1_555
B10 B2 1.769892 1_554
B10 B19 1.785767 1_555
B10 B11 1.793856 1_455
B10 B18 1.806374 1_455
B10 B6 1.832960 1_555
B11 B18 1.798159 1_555
B11 B25 1.807918 1_555
B11 B3 1.809077 1_555
B11 B7 1.818185 1_554
B11 B19 1.818523 1_655
B11 Ca0 2.678892 1_555
B12 B27 1.751651 1_555
B12 B20 1.775154 1_546
B12 B5 1.804365 1_556
B12 B13 1.816756 1_545
B12 B21 1.833428 1_555
B13 B26 1.721013 1_555
B13 B21 1.812015 1_565
B13 B4 1.813312 1_555
B13 B20 1.814227 1_556
B13 Ca0 2.827229 1_555
B14 B25 1.721013 1_555
B14 B3 1.773473 1_556
B14 B22 1.812015 1_655
B14 B7 1.813312 1_555
B14 B23 1.814227 1_556
B14 B15 1.816756 1_655
B14 Ca0 2.827230 1_555
B15 B24 1.751651 1_555
B15 B23 1.775154 1_456
B15 B6 1.804365 1_556
B15 B2 1.811420 1_555
B15 B22 1.833428 1_555
B16 B23 1.769687 1_555
B16 B9 1.785767 1_555
B16 B4 1.800624 1_544
B16 B8 1.818523 1_545
B16 B21 1.819767 1_554
B16 Ca0 2.697431 1_545
B17 B8 1.798159 1_555
B17 B9 1.806374 1_565
B17 B5 1.808421 1_565
B17 B22 1.826334 1_555
B17 B20 1.866582 1_555
B17 Ca0 2.750937 1_455
B18 B6 1.808421 1_655
B18 B3 1.809456 1_555
B18 B21 1.826334 1_555
B18 B23 1.866582 1_555
B18 Ca0 2.750937 1_545
B19 B20 1.769687 1_555
B19 B2 1.791191 1_554
B19 B7 1.800624 1_454
B19 B22 1.819767 1_554
B19 Ca0 2.697431 1_455
B20 B5 1.800114 1_565
B20 Ca0 2.667152 1_455
B21 B4 1.790242 1_545
B21 Ca0 2.897900 1_545
B22 B7 1.790242 1_455
B22 Ca0 2.897901 1_455
B23 B3 1.787073 1_555
B23 B6 1.800114 1_655
B23 Ca0 2.667152 1_545
B24 B27 2.082108 1_555
B25 B26 2.024518 1_555
B25 Ca0 2.445490 1_555
B26 B8 1.807918 1_555
B26 Ca0 2.445490 1_555
B27 B9 1.762357 1_555
B27 B3 1.785755 1_555
