# generated using pymatgen
data_Mn4AlSnPd10
_symmetry_space_group_name_H-M   'P 1'
_cell_length_a   4.09425988
_cell_length_b   5.48959329
_cell_length_c   10.80516076
_cell_angle_alpha   89.14222308
_cell_angle_beta   90.00000000
_cell_angle_gamma   90.00000000
_symmetry_Int_Tables_number   1
_chemical_formula_structural   Mn4AlSnPd10
_chemical_formula_sum   'Mn4 Al1 Sn1 Pd10'
_cell_volume   242.82764968
_cell_formula_units_Z   1
loop_
 _symmetry_equiv_pos_site_id
 _symmetry_equiv_pos_as_xyz
  1  'x, y, z'
loop_
 _atom_site_type_symbol
 _atom_site_label
 _atom_site_symmetry_multiplicity
 _atom_site_fract_x
 _atom_site_fract_y
 _atom_site_fract_z
 _atom_site_occupancy
  Mn  Mn0  1  0.50000000  0.18766002  0.36566466  1
  Mn  Mn1  1  0.50000000  0.81233998  0.63433534  1
  Mn  Mn2  1  0.50000000  0.68961086  0.14349916  1
  Mn  Mn3  1  0.50000000  0.31038914  0.85650084  1
  Al  Al0  1  0.00000000  0.50000000  0.50000000  1
  Sn  Sn0  1  0.00000000  0.00000000  0.00000000  1
  Pd  Pd0  1  0.50000000  0.20866531  0.11777250  1
  Pd  Pd1  1  0.50000000  0.79133469  0.88222750  1
  Pd  Pd2  1  0.50000000  0.69155781  0.39386467  1
  Pd  Pd3  1  0.50000000  0.30844219  0.60613533  1
  Pd  Pd4  1  0.00000000  0.00000000  0.50000000  1
  Pd  Pd5  1  0.00000000  0.50000000  0.00000000  1
  Pd  Pd6  1  0.00000000  0.93705520  0.24857758  1
  Pd  Pd7  1  0.00000000  0.06294480  0.75142242  1
  Pd  Pd8  1  0.00000000  0.43782780  0.26244852  1
  Pd  Pd9  1  0.00000000  0.56217220  0.73755148  1
loop_
_geom_bond_atom_site_label_1
_geom_bond_atom_site_label_2
_geom_bond_distance
_geom_bond_site_symmetry_2
Mn0 Pd0 2.679270 1_555
Mn0 Pd3 2.691189 1_555
Mn0 Pd8 2.697167 1_555
Mn0 Pd8 2.697167 1_655
Mn0 Pd4 2.704465 1_655
Mn0 Pd4 2.704465 1_555
Mn0 Pd2 2.735855 1_545
Mn0 Pd6 2.781375 1_545
Mn0 Pd6 2.781375 1_645
Mn0 Pd2 2.787456 1_555
Mn1 Pd1 2.679270 1_555
Mn1 Pd2 2.691189 1_555
Mn1 Pd9 2.697167 1_555
Mn1 Pd9 2.697167 1_655
Mn1 Pd4 2.704465 1_565
Mn1 Pd4 2.704465 1_665
Mn1 Pd3 2.735855 1_565
Mn1 Pd7 2.781375 1_565
Mn1 Pd7 2.781375 1_665
Mn1 Pd3 2.787456 1_555
Mn2 Pd0 2.658925 1_555
Mn2 Pd2 2.705421 1_555
Mn2 Pd6 2.714994 1_555
Mn2 Pd6 2.714994 1_655
Mn2 Pd8 2.774870 1_555
Mn2 Pd8 2.774870 1_655
Mn2 Pd5 2.779686 1_555
Mn2 Pd5 2.779686 1_655
Mn2 Pd0 2.858780 1_565
Mn2 Pd1 2.869569 1_554
Mn2 Sn0 3.069055 1_665
Mn2 Sn0 3.069055 1_565
Mn3 Pd1 2.658925 1_555
Mn3 Pd3 2.705421 1_555
Mn3 Pd7 2.714994 1_655
Mn3 Pd7 2.714994 1_555
Mn3 Pd9 2.774870 1_555
Mn3 Pd9 2.774870 1_655
Mn3 Pd5 2.779686 1_556
Mn3 Pd5 2.779686 1_656
Mn3 Pd1 2.858780 1_545
Mn3 Pd0 2.869569 1_556
Mn3 Sn0 3.069055 1_556
Mn3 Sn0 3.069055 1_656
Al0 Pd3 2.564296 1_455
Al0 Pd3 2.564296 1_555
Al0 Pd2 2.564296 1_555
Al0 Pd2 2.564296 1_455
Al0 Pd9 2.594433 1_555
Al0 Pd8 2.594433 1_555
Al0 Pd4 2.744797 1_565
Al0 Pd4 2.744797 1_555
Pd0 Sn0 2.676922 1_655
Pd0 Sn0 2.676922 1_555
Pd1 Sn0 2.676922 1_566
Pd1 Sn0 2.676922 1_666
Pd5 Sn0 2.744797 1_555
Pd5 Sn0 2.744797 1_565
Pd6 Sn0 2.702921 1_565
Pd7 Sn0 2.702921 1_556
