# generated using pymatgen
data_BaMgAlGa2
_symmetry_space_group_name_H-M   'P 1'
_cell_length_a   6.60731925
_cell_length_b   6.60731937
_cell_length_c   6.60731935
_cell_angle_alpha   139.72635293
_cell_angle_beta   139.72634970
_cell_angle_gamma   58.26902989
_symmetry_Int_Tables_number   1
_chemical_formula_structural   BaMgAlGa2
_chemical_formula_sum   'Ba1 Mg1 Al1 Ga2'
_cell_volume   119.44543627
_cell_formula_units_Z   1
loop_
 _symmetry_equiv_pos_site_id
 _symmetry_equiv_pos_as_xyz
  1  'x, y, z'
loop_
 _atom_site_type_symbol
 _atom_site_label
 _atom_site_symmetry_multiplicity
 _atom_site_fract_x
 _atom_site_fract_y
 _atom_site_fract_z
 _atom_site_occupancy
  Ba  Ba0  1  0.00000000  0.00000000  0.00000000  1
  Mg  Mg0  1  0.75000000  0.25000000  0.50000000  1
  Al  Al0  1  0.25000000  0.75000000  0.50000000  1
  Ga  Ga0  1  0.38512300  0.38512300  0.00000000  1
  Ga  Ga1  1  0.61487700  0.61487700  1.00000000  1
loop_
_geom_bond_atom_site_label_1
_geom_bond_atom_site_label_2
_geom_bond_distance
_geom_bond_site_symmetry_2
Ba0 Ga1 3.479423 1_544
Ba0 Ga0 3.479423 1_455
Ba0 Ga1 3.479423 1_454
Ba0 Ga0 3.479423 1_545
Ba0 Ga0 3.479423 1_556
Ba0 Ga1 3.479423 1_443
Ba0 Ga1 3.479423 1_555
Ba0 Ga0 3.479423 1_444
Ba0 Mg0 3.674398 1_455
Ba0 Mg0 3.674398 1_444
Ba0 Mg0 3.674398 1_555
Ba0 Mg0 3.674398 1_454
Al0 Ga0 2.758021 1_555
Al0 Ga0 2.758022 1_566
Al0 Ga1 2.758022 1_454
Al0 Ga1 2.758022 1_555
Al0 Ba0 3.674398 1_566
Al0 Ba0 3.674398 1_555
Al0 Ba0 3.674398 1_666
Al0 Ba0 3.674398 1_565
Ga0 Ga1 2.651984 1_554
Ga0 Mg0 2.758022 1_454
Ga0 Mg0 2.758022 1_555
Ga1 Mg0 2.758021 1_555
Ga1 Mg0 2.758022 1_566
