# generated using pymatgen
data_Hf16TaRe3Ni4
_symmetry_space_group_name_H-M   'P 1'
_cell_length_a   8.63393768
_cell_length_b   8.63393807
_cell_length_c   8.63393828
_cell_angle_alpha   60.07388869
_cell_angle_beta   60.07388595
_cell_angle_gamma   60.07388804
_symmetry_Int_Tables_number   1
_chemical_formula_structural   Hf16TaRe3Ni4
_chemical_formula_sum   'Hf16 Ta1 Re3 Ni4'
_cell_volume   455.86722578
_cell_formula_units_Z   1
loop_
 _symmetry_equiv_pos_site_id
 _symmetry_equiv_pos_as_xyz
  1  'x, y, z'
loop_
 _atom_site_type_symbol
 _atom_site_label
 _atom_site_symmetry_multiplicity
 _atom_site_fract_x
 _atom_site_fract_y
 _atom_site_fract_z
 _atom_site_occupancy
  Hf  Hf0  1  0.69396838  0.10164593  0.10164593  1
  Hf  Hf1  1  0.10164593  0.69396838  0.10164593  1
  Hf  Hf2  1  0.10164593  0.10164593  0.69396838  1
  Hf  Hf3  1  0.10199999  0.10199999  0.10199999  1
  Hf  Hf4  1  0.31433120  0.31433120  0.69089054  1
  Hf  Hf5  1  0.68552296  0.68552296  0.31451592  1
  Hf  Hf6  1  0.31433120  0.69089054  0.31433120  1
  Hf  Hf7  1  0.68552296  0.31451592  0.68552296  1
  Hf  Hf8  1  0.69089054  0.31433120  0.31433120  1
  Hf  Hf9  1  0.31451592  0.68552296  0.68552296  1
  Hf  Hf10  1  0.95504517  0.95504517  0.54458585  1
  Hf  Hf11  1  0.54798076  0.54798076  0.95147652  1
  Hf  Hf12  1  0.95504517  0.54458585  0.95504517  1
  Hf  Hf13  1  0.54798076  0.95147652  0.54798076  1
  Hf  Hf14  1  0.54458585  0.95504517  0.95504517  1
  Hf  Hf15  1  0.95147652  0.54798076  0.54798076  1
  Ta  Ta0  1  0.32835504  0.32835504  0.32835504  1
  Re  Re0  1  0.99809070  0.33356728  0.33356728  1
  Re  Re1  1  0.33356728  0.99809070  0.33356728  1
  Re  Re2  1  0.33356728  0.33356728  0.99809070  1
  Ni  Ni0  1  0.32644411  0.89116931  0.89116931  1
  Ni  Ni1  1  0.89116931  0.32644411  0.89116931  1
  Ni  Ni2  1  0.89116931  0.89116931  0.32644411  1
  Ni  Ni3  1  0.89114373  0.89114373  0.89114373  1
loop_
_geom_bond_atom_site_label_1
_geom_bond_atom_site_label_2
_geom_bond_distance
_geom_bond_site_symmetry_2
Hf0 Ni3 2.574107 1_544
Hf0 Ni1 2.580547 1_554
Hf0 Ni2 2.580547 1_545
Hf0 Ta0 3.019953 1_555
Hf0 Re1 3.043720 1_545
Hf0 Re2 3.043720 1_554
Hf0 Hf5 3.135366 1_545
Hf0 Hf7 3.135366 1_554
Hf0 Hf8 3.164161 1_555
Hf1 Ni3 2.574108 1_454
Hf1 Ni0 2.580547 1_554
Hf1 Ni2 2.580547 1_455
Hf1 Ta0 3.019954 1_555
Hf1 Re0 3.043720 1_455
Hf1 Re2 3.043720 1_554
Hf1 Hf5 3.135366 1_455
Hf1 Hf9 3.135366 1_554
Hf1 Hf6 3.164161 1_555
Hf2 Ni3 2.574107 1_445
Hf2 Ni1 2.580547 1_455
Hf2 Ni0 2.580547 1_545
Hf2 Ta0 3.019954 1_555
Hf2 Re1 3.043720 1_545
Hf2 Re0 3.043720 1_455
Hf2 Hf7 3.135366 1_455
Hf2 Hf9 3.135366 1_545
Hf2 Hf4 3.164161 1_555
Hf3 Ni2 2.578595 1_445
Hf3 Ni0 2.578595 1_544
Hf3 Ni1 2.578595 1_454
Hf3 Re2 3.034569 1_554
Hf3 Re1 3.034569 1_545
Hf3 Re0 3.034569 1_455
Hf3 Hf8 3.112666 1_455
Hf3 Hf4 3.112666 1_554
Hf3 Hf6 3.112666 1_545
Hf4 Re2 2.827841 1_555
Hf4 Ta0 3.014172 1_555
Hf4 Ni1 3.137692 1_455
Hf4 Ni0 3.137692 1_545
Hf4 Hf7 3.182770 1_555
Hf4 Hf9 3.182770 1_555
Hf4 Hf8 3.254820 1_555
Hf4 Hf6 3.254820 1_555
Hf5 Re1 2.881996 1_555
Hf5 Re0 2.881996 1_555
Hf5 Ni2 3.134655 1_555
Hf5 Ni3 3.140073 1_554
Hf5 Hf6 3.182770 1_555
Hf5 Hf8 3.182770 1_555
Hf5 Hf9 3.206828 1_555
Hf5 Hf7 3.206829 1_555
Hf6 Re1 2.827841 1_555
Hf6 Ta0 3.014172 1_555
Hf6 Ni2 3.137692 1_455
Hf6 Ni0 3.137692 1_554
Hf6 Hf9 3.182771 1_555
Hf6 Hf8 3.254820 1_555
Hf7 Re2 2.881996 1_555
Hf7 Re0 2.881996 1_555
Hf7 Ni1 3.134655 1_555
Hf7 Ni3 3.140073 1_545
Hf7 Hf8 3.182771 1_555
Hf7 Hf9 3.206829 1_555
Hf8 Re0 2.827841 1_555
Hf8 Ta0 3.014172 1_555
Hf8 Ni2 3.137692 1_545
Hf8 Ni1 3.137692 1_554
Hf9 Re2 2.881996 1_555
Hf9 Re1 2.881996 1_555
Hf9 Ni0 3.134655 1_555
Hf9 Ni3 3.140072 1_455
Hf10 Ni2 2.555745 1_555
Hf10 Ni3 2.563441 1_555
Hf10 Re1 2.955257 1_655
Hf10 Re0 2.955257 1_565
Hf10 Hf6 3.176196 1_655
Hf10 Hf8 3.176196 1_565
Hf10 Hf9 3.203931 1_655
Hf10 Hf7 3.203931 1_565
Hf11 Ni1 2.551249 1_555
Hf11 Ni0 2.551249 1_555
Hf11 Re2 2.991442 1_555
Hf11 Ta0 3.009042 1_556
Hf11 Hf7 3.202358 1_555
Hf11 Hf9 3.202358 1_555
Hf11 Hf6 3.236413 1_556
Hf11 Hf8 3.236413 1_556
Hf12 Ni1 2.555745 1_555
Hf12 Ni3 2.563441 1_555
Hf12 Re2 2.955257 1_655
Hf12 Re0 2.955257 1_556
Hf12 Hf4 3.176196 1_655
Hf12 Hf8 3.176196 1_556
Hf12 Hf9 3.203931 1_655
Hf12 Hf5 3.203931 1_556
Hf13 Ni2 2.551249 1_555
Hf13 Ni0 2.551249 1_555
Hf13 Re1 2.991442 1_555
Hf13 Ta0 3.009042 1_565
Hf13 Hf9 3.202358 1_555
Hf13 Hf5 3.202358 1_555
Hf13 Hf8 3.236412 1_565
Hf13 Hf4 3.236413 1_565
Hf14 Ni0 2.555745 1_555
Hf14 Ni3 2.563440 1_555
Hf14 Re2 2.955257 1_565
Hf14 Re1 2.955257 1_556
Hf14 Hf6 3.176196 1_556
Hf14 Hf4 3.176196 1_565
Hf14 Hf7 3.203931 1_565
Hf14 Hf5 3.203931 1_556
Hf15 Ni2 2.551249 1_555
Hf15 Ni1 2.551249 1_555
Hf15 Re0 2.991443 1_555
Hf15 Ta0 3.009042 1_655
Hf15 Hf7 3.202358 1_555
Hf15 Hf5 3.202358 1_555
Hf15 Hf6 3.236412 1_655
Hf15 Hf4 3.236412 1_655
Re0 Ta0 2.807302 1_655
Re0 Re2 2.899718 1_654
Re0 Re1 2.899718 1_645
Re1 Ta0 2.807303 1_565
Re1 Re2 2.899718 1_564
Re2 Ta0 2.807303 1_556
