# generated using pymatgen
data_Y8Cd2PdRu
_symmetry_space_group_name_H-M   'P 1'
_cell_length_a   9.66257578
_cell_length_b   9.62548958
_cell_length_c   9.66257569
_cell_angle_alpha   60.12688569
_cell_angle_beta   60.44974410
_cell_angle_gamma   60.12688442
_symmetry_Int_Tables_number   1
_chemical_formula_structural   Y8Cd2PdRu
_chemical_formula_sum   'Y16 Cd4 Pd2 Ru2'
_cell_volume   638.82812518
_cell_formula_units_Z   2
loop_
 _symmetry_equiv_pos_site_id
 _symmetry_equiv_pos_as_xyz
  1  'x, y, z'
loop_
 _atom_site_type_symbol
 _atom_site_label
 _atom_site_symmetry_multiplicity
 _atom_site_fract_x
 _atom_site_fract_y
 _atom_site_fract_z
 _atom_site_occupancy
  Y  Y0  1  0.43779456  0.43568466  0.06701757  1
  Y  Y1  1  0.06701757  0.05950321  0.43779456  1
  Y  Y2  1  0.43779456  0.05950321  0.06701757  1
  Y  Y3  1  0.84991232  0.84660152  0.84991232  1
  Y  Y4  1  0.69008224  0.31659580  0.30509845  1
  Y  Y5  1  0.06701757  0.43568466  0.43779456  1
  Y  Y6  1  0.30509845  0.68822351  0.69008224  1
  Y  Y7  1  0.30509845  0.31659580  0.69008224  1
  Y  Y8  1  0.85785345  0.84910338  0.44394078  1
  Y  Y9  1  0.69008224  0.68822351  0.30509845  1
  Y  Y10  1  0.44394078  0.84910338  0.85785345  1
  Y  Y11  1  0.06182140  0.43817860  0.06182140  1
  Y  Y12  1  0.84991232  0.45357284  0.84991232  1
  Y  Y13  1  0.43808015  0.06191985  0.43808015  1
  Y  Y14  1  0.31254016  0.68745984  0.31254016  1
  Y  Y15  1  0.69082903  0.30917097  0.69082903  1
  Cd  Cd0  1  0.08045486  0.75858524  0.08045486  1
  Cd  Cd1  1  0.07909921  0.08017245  0.76055489  1
  Cd  Cd2  1  0.76055489  0.08017245  0.07909921  1
  Cd  Cd3  1  0.08045486  0.08050504  0.08045486  1
  Pd  Pd0  1  0.64093184  0.07079494  0.64093184  1
  Pd  Pd1  1  0.64093184  0.64734038  0.64093184  1
  Ru  Ru0  1  0.64028651  0.64365137  0.07240975  1
  Ru  Ru1  1  0.07240975  0.64365137  0.64028651  1
loop_
_geom_bond_atom_site_label_1
_geom_bond_atom_site_label_2
_geom_bond_distance
_geom_bond_site_symmetry_2
Y0 Y10 3.468267 1_554
Y0 Y12 3.517247 1_554
Y0 Y4 3.559469 1_555
Y0 Y14 3.597151 1_555
Y0 Y13 3.598429 1_555
Y0 Y5 3.606988 1_555
Y0 Y2 3.620931 1_555
Y0 Y11 3.645912 1_555
Y0 Y15 3.653898 1_554
Y0 Y6 3.674274 1_554
Y1 Y8 3.468258 1_445
Y1 Y3 3.517250 1_445
Y1 Y6 3.559469 1_545
Y1 Y14 3.597151 1_545
Y1 Y13 3.598429 1_555
Y1 Y2 3.606988 1_555
Y1 Y5 3.620931 1_555
Y1 Y11 3.645912 1_555
Y1 Y15 3.653898 1_455
Y1 Y4 3.674274 1_455
Y2 Y3 3.517250 1_544
Y2 Y9 3.559469 1_545
Y2 Y7 3.674274 1_554
Y5 Y8 3.468267 1_455
Y5 Y7 3.559469 1_555
Y5 Y9 3.674274 1_455
Y10 Y2 3.468258 1_566
Y10 Y13 3.533472 1_565
Y11 Y3 3.455163 1_454
Y11 Y12 3.455168 1_454
Y11 Y7 3.593889 1_554
Y11 Y9 3.593889 1_455
Y11 Y4 3.593890 1_455
Y11 Y6 3.593890 1_554
Y11 Y5 3.645912 1_555
Y11 Y2 3.645912 1_555
Y12 Y5 3.517247 1_655
Y13 Y8 3.533472 1_545
Y13 Y2 3.598429 1_555
Y13 Y5 3.598429 1_555
Y13 Y7 3.648521 1_555
Y13 Y9 3.648521 1_545
Y13 Y4 3.648521 1_555
Y13 Y6 3.648521 1_545
Y14 Y5 3.597151 1_555
Y14 Y2 3.597151 1_565
Y15 Y5 3.653898 1_655
Y15 Y2 3.653898 1_556
Cd0 Cd3 3.098636 1_565
Cd0 Cd2 3.099133 1_465
Cd0 Cd1 3.099133 1_564
Cd0 Y11 3.273316 1_555
Cd0 Y0 3.296715 1_555
Cd0 Y5 3.296715 1_555
Cd0 Y8 3.383959 1_455
Cd0 Y10 3.383959 1_554
Cd0 Y3 3.431790 1_454
Cd0 Y6 3.521744 1_554
Cd0 Y9 3.521744 1_455
Cd0 Y14 3.525390 1_555
Cd1 Cd2 3.098858 1_456
Cd1 Cd3 3.099138 1_556
Cd1 Y1 3.283263 1_555
Cd1 Y5 3.283268 1_555
Cd1 Y13 3.324007 1_555
Cd1 Y10 3.410861 1_545
Cd1 Y3 3.441534 1_445
Cd1 Y12 3.441534 1_455
Cd1 Y15 3.487650 1_455
Cd1 Y6 3.514414 1_545
Cd1 Y7 3.514422 1_555
Cd2 Cd3 3.099138 1_655
Cd2 Y2 3.283263 1_555
Cd2 Y0 3.283268 1_555
Cd2 Y13 3.324007 1_555
Cd2 Y8 3.410861 1_545
Cd2 Y3 3.441534 1_544
Cd2 Y12 3.441535 1_554
Cd2 Y15 3.487650 1_554
Cd2 Y9 3.514414 1_545
Cd2 Y4 3.514422 1_555
Cd3 Y11 3.273316 1_555
Cd3 Y1 3.296715 1_555
Cd3 Y2 3.296715 1_555
Cd3 Y10 3.383955 1_544
Cd3 Y8 3.383955 1_445
Cd3 Y12 3.431786 1_454
Cd3 Y4 3.521744 1_455
Cd3 Y7 3.521744 1_554
Cd3 Y14 3.525390 1_545
Pd0 Y3 2.855203 1_545
Pd0 Y15 2.857075 1_555
Pd0 Y8 2.867965 1_545
Pd0 Y10 2.867965 1_545
Pd0 Y7 2.881757 1_555
Pd0 Y4 2.881757 1_555
Pd0 Y13 3.437175 1_555
Pd0 Y2 3.551147 1_556
Pd0 Y1 3.551147 1_655
Pd1 Y12 2.855203 1_555
Pd1 Y15 2.857065 1_555
Pd1 Y10 2.867979 1_555
Pd1 Y8 2.867979 1_555
Pd1 Y9 2.881754 1_555
Pd1 Y6 2.881754 1_555
Pd1 Y13 3.437180 1_565
Pd1 Y5 3.551144 1_655
Pd1 Y0 3.551144 1_556
Ru0 Y4 2.775670 1_555
Ru0 Y9 2.775676 1_555
Ru0 Y10 2.804686 1_554
Ru0 Y14 2.826141 1_555
Ru0 Y12 2.829062 1_554
Ru0 Y3 2.829062 1_554
Ru0 Y0 3.456037 1_555
Ru0 Y2 3.456046 1_565
Ru0 Y11 3.504005 1_655
Ru1 Y7 2.775670 1_555
Ru1 Y6 2.775676 1_555
Ru1 Y8 2.804686 1_455
Ru1 Y14 2.826141 1_555
Ru1 Y3 2.829062 1_455
Ru1 Y12 2.829062 1_455
Ru1 Y5 3.456037 1_555
Ru1 Y1 3.456046 1_565
Ru1 Y11 3.504005 1_556
