# generated using pymatgen
data_ZrBeCu3Au
_symmetry_space_group_name_H-M   'P 1'
_cell_length_a   4.87244530
_cell_length_b   4.87244603
_cell_length_c   4.77677511
_cell_angle_alpha   59.33523711
_cell_angle_beta   59.33523489
_cell_angle_gamma   60.00000108
_symmetry_Int_Tables_number   1
_chemical_formula_structural   ZrBeCu3Au
_chemical_formula_sum   'Zr1 Be1 Cu3 Au1'
_cell_volume   79.37361980
_cell_formula_units_Z   1
loop_
 _symmetry_equiv_pos_site_id
 _symmetry_equiv_pos_as_xyz
  1  'x, y, z'
loop_
 _atom_site_type_symbol
 _atom_site_label
 _atom_site_symmetry_multiplicity
 _atom_site_fract_x
 _atom_site_fract_y
 _atom_site_fract_z
 _atom_site_occupancy
  Zr  Zr0  1  0.00021249  0.00021249  0.99936153  1
  Be  Be0  1  0.62282038  0.62282038  0.13153685  1
  Cu  Cu0  1  0.62458576  0.12506671  0.62576078  1
  Cu  Cu1  1  0.12506671  0.62458576  0.62576078  1
  Cu  Cu2  1  0.62458576  0.62458576  0.62576078  1
  Au  Au0  1  0.25272791  0.25272791  0.24181727  1
loop_
_geom_bond_atom_site_label_1
_geom_bond_atom_site_label_2
_geom_bond_distance
_geom_bond_site_symmetry_2
Be0 Cu1 2.369599 1_555
Be0 Cu0 2.369599 1_555
Be0 Cu2 2.369601 1_555
Be0 Cu2 2.407235 1_554
Be0 Cu1 2.407237 1_654
Be0 Cu0 2.407238 1_564
Be0 Zr0 2.859011 1_564
Be0 Zr0 2.859011 1_654
Be0 Zr0 2.859015 1_664
Cu0 Cu1 2.433879 1_555
Cu0 Cu2 2.433880 1_555
Cu0 Cu1 2.438566 1_645
Cu0 Cu2 2.438566 1_545
Cu0 Zr0 2.798245 1_654
Cu0 Zr0 2.831156 1_655
Cu0 Zr0 2.831157 1_555
Cu1 Cu2 2.433879 1_555
Cu1 Cu2 2.438566 1_455
Cu1 Zr0 2.798245 1_564
Cu1 Zr0 2.831157 1_565
Cu1 Zr0 2.831157 1_555
Cu2 Zr0 2.798246 1_664
Cu2 Zr0 2.831157 1_565
Cu2 Zr0 2.831157 1_655
Au0 Cu2 2.762431 1_554
Au0 Cu0 2.762435 1_554
Au0 Cu1 2.762435 1_554
Au0 Be0 2.845134 1_555
Au0 Be0 2.845146 1_455
Au0 Be0 2.845147 1_545
Au0 Cu0 2.851701 1_555
Au0 Cu1 2.851701 1_555
Au0 Cu2 2.851705 1_455
Au0 Cu2 2.851705 1_545
Au0 Cu0 2.851709 1_455
Au0 Cu1 2.851710 1_545
Au0 Zr0 2.924553 1_555
Au0 Zr0 2.964741 1_654
Au0 Zr0 2.964741 1_564
Au0 Zr0 2.964749 1_554
