# generated using pymatgen
data_CsCaAsO4
_symmetry_space_group_name_H-M   'P 1'
_cell_length_a   10.88115276
_cell_length_b   10.88115280
_cell_length_c   10.88115316
_cell_angle_alpha   29.30853417
_cell_angle_beta   29.30853062
_cell_angle_gamma   29.30853099
_symmetry_Int_Tables_number   1
_chemical_formula_structural   CsCaAsO4
_chemical_formula_sum   'Cs2 Ca2 As2 O8'
_cell_volume   273.17342268
_cell_formula_units_Z   2
loop_
 _symmetry_equiv_pos_site_id
 _symmetry_equiv_pos_as_xyz
  1  'x, y, z'
loop_
 _atom_site_type_symbol
 _atom_site_label
 _atom_site_symmetry_multiplicity
 _atom_site_fract_x
 _atom_site_fract_y
 _atom_site_fract_z
 _atom_site_occupancy
  Cs  Cs0  1  0.28963917  0.28963917  0.28963917  1
  Cs  Cs1  1  0.71036083  0.71036083  0.71036083  1
  Ca  Ca0  1  0.16197516  0.16197516  0.16197516  1
  Ca  Ca1  1  0.83802484  0.83802484  0.83802484  1
  As  As0  1  0.44017661  0.44017661  0.44017661  1
  As  As1  1  0.55982339  0.55982339  0.55982339  1
  O  O0  1  0.74289603  0.47651888  0.15602346  1
  O  O1  1  0.52348112  0.84397754  0.25710197  1
  O  O2  1  0.38629452  0.38629452  0.38629452  1
  O  O3  1  0.15602346  0.74289803  0.47651788  1
  O  O4  1  0.84397654  0.25710197  0.52348212  1
  O  O5  1  0.61370548  0.61370548  0.61370548  1
  O  O6  1  0.47651888  0.15602246  0.74289803  1
  O  O7  1  0.25710397  0.52348112  0.84397654  1
loop_
_geom_bond_atom_site_label_1
_geom_bond_atom_site_label_2
_geom_bond_distance
_geom_bond_site_symmetry_2
Cs0 O2 3.017539 1_555
Cs0 O7 3.165372 1_554
Cs0 O1 3.165378 1_545
Cs0 O4 3.165381 1_455
Cs0 O5 3.191772 1_455
Cs0 O5 3.191772 1_545
Cs0 O5 3.191772 1_554
Cs1 O5 3.017539 1_555
Cs1 O0 3.165372 1_556
Cs1 O6 3.165378 1_565
Cs1 O3 3.165381 1_655
Cs1 O2 3.191772 1_655
Cs1 O2 3.191772 1_565
Cs1 O2 3.191772 1_556
Ca0 O3 2.328521 1_545
Ca0 O6 2.328523 1_554
Ca0 O0 2.328533 1_455
Ca0 O1 2.373744 1_545
Ca0 O4 2.373748 1_455
Ca0 O7 2.373753 1_554
Ca1 O4 2.328521 1_565
Ca1 O1 2.328523 1_556
Ca1 O7 2.328533 1_655
Ca1 O6 2.373744 1_565
Ca1 O3 2.373748 1_655
Ca1 O0 2.373753 1_556
As0 O2 1.682176 1_555
As0 O0 1.715762 1_555
As0 O3 1.715770 1_555
As0 O6 1.715773 1_555
As1 O5 1.682176 1_555
As1 O7 1.715762 1_555
As1 O4 1.715770 1_555
As1 O1 1.715773 1_555
