# generated using pymatgen
data_K3Ba3LuSb4
_symmetry_space_group_name_H-M   'P 1'
_cell_length_a   11.29487267
_cell_length_b   11.29472040
_cell_length_c   8.57817771
_cell_angle_alpha   90.00000000
_cell_angle_beta   90.00000000
_cell_angle_gamma   119.99958650
_symmetry_Int_Tables_number   1
_chemical_formula_structural   K3Ba3LuSb4
_chemical_formula_sum   'K6 Ba6 Lu2 Sb8'
_cell_volume   947.72929319
_cell_formula_units_Z   2
loop_
 _symmetry_equiv_pos_site_id
 _symmetry_equiv_pos_as_xyz
  1  'x, y, z'
loop_
 _atom_site_type_symbol
 _atom_site_label
 _atom_site_symmetry_multiplicity
 _atom_site_fract_x
 _atom_site_fract_y
 _atom_site_fract_z
 _atom_site_occupancy
  K  K0  1  0.86442871  0.13556437  0.56067469  1
  K  K1  1  0.27113800  0.13557093  0.56068368  1
  K  K2  1  0.86442657  0.72886711  0.56067653  1
  K  K3  1  0.13557129  0.86443563  0.06067469  1
  K  K4  1  0.72886200  0.86442907  0.06068368  1
  K  K5  1  0.13557343  0.27113289  0.06067653  1
  Ba  Ba0  1  0.47263174  0.52736635  0.73015912  1
  Ba  Ba1  1  0.05473587  0.52736515  0.73015880  1
  Ba  Ba2  1  0.47263414  0.94526676  0.73015869  1
  Ba  Ba3  1  0.52736826  0.47263365  0.23015912  1
  Ba  Ba4  1  0.94526413  0.47263485  0.23015880  1
  Ba  Ba5  1  0.52736586  0.05473324  0.23015869  1
  Lu  Lu0  1  0.66669429  0.33334982  0.84278254  1
  Lu  Lu1  1  0.33330571  0.66665018  0.34278254  1
  Sb  Sb0  1  0.80705712  0.19293162  0.95729692  1
  Sb  Sb1  1  0.38585161  0.19292598  0.95729677  1
  Sb  Sb2  1  0.80706216  0.61413090  0.95729948  1
  Sb  Sb3  1  0.19294288  0.80706838  0.45729692  1
  Sb  Sb4  1  0.61414839  0.80707402  0.45729677  1
  Sb  Sb5  1  0.19293784  0.38586910  0.45729948  1
  Sb  Sb6  1  0.66666233  0.33332954  0.49817577  1
  Sb  Sb7  1  0.33333767  0.66667046  0.99817577  1
loop_
_geom_bond_atom_site_label_1
_geom_bond_atom_site_label_2
_geom_bond_distance
_geom_bond_site_symmetry_2
K0 Sb4 3.472048 1_545
K0 Sb5 3.472282 1_655
K0 Sb0 3.582629 1_555
K0 Sb6 3.905885 1_555
K1 Sb5 3.472152 1_555
K1 Sb3 3.472217 1_545
K1 Sb1 3.582482 1_555
K1 Sb6 3.905876 1_555
K2 Sb4 3.472008 1_555
K2 Sb3 3.472379 1_655
K2 Sb2 3.582627 1_555
K2 Sb6 3.905944 1_555
K3 Sb1 3.472048 1_564
K3 Sb2 3.472282 1_454
K3 Sb3 3.582629 1_555
K3 Sb7 3.905885 1_554
K4 Sb2 3.472152 1_554
K4 Sb0 3.472217 1_564
K4 Sb4 3.582482 1_555
K4 Sb7 3.905876 1_554
K5 Sb1 3.472008 1_554
K5 Sb0 3.472379 1_454
K5 Sb5 3.582627 1_555
K5 Sb7 3.905944 1_554
Ba0 Sb7 3.565409 1_555
Ba0 Sb5 3.600551 1_555
Ba0 Sb4 3.600641 1_555
Ba0 Sb1 3.914521 1_555
Ba0 Sb2 3.914525 1_555
Ba1 Sb7 3.565465 1_555
Ba1 Sb5 3.600552 1_555
Ba1 Sb3 3.600604 1_555
Ba1 Sb0 3.914547 1_455
Ba1 Sb2 3.914587 1_455
Ba2 Sb7 3.565396 1_555
Ba2 Sb3 3.600543 1_555
Ba2 Sb4 3.600635 1_555
Ba2 Sb0 3.914461 1_565
Ba2 Sb1 3.914530 1_565
Ba3 Sb6 3.565409 1_555
Ba3 Sb2 3.600551 1_554
Ba3 Sb1 3.600641 1_554
Ba3 Sb4 3.914521 1_555
Ba3 Sb5 3.914525 1_555
Ba4 Sb6 3.565465 1_555
Ba4 Sb2 3.600552 1_554
Ba4 Sb0 3.600604 1_554
Ba4 Sb3 3.914547 1_655
Ba4 Sb5 3.914587 1_655
Ba5 Sb6 3.565396 1_555
Ba5 Sb0 3.600543 1_554
Ba5 Sb1 3.600635 1_554
Ba5 Sb3 3.914461 1_545
Ba5 Sb4 3.914530 1_545
Lu0 Sb0 2.916864 1_555
Lu0 Sb2 2.916871 1_555
Lu0 Sb1 2.917465 1_555
Lu0 Sb6 2.956098 1_555
Lu1 Sb3 2.916864 1_555
Lu1 Sb5 2.916871 1_555
Lu1 Sb4 2.917465 1_555
Lu1 Sb7 2.956098 1_554
