# generated using pymatgen
data_Ca20SiGe3Bi8
_symmetry_space_group_name_H-M   'P 1'
_cell_length_a   8.14731859
_cell_length_b   9.50415010
_cell_length_c   13.07059401
_cell_angle_alpha   90.00000000
_cell_angle_beta   89.99713401
_cell_angle_gamma   90.00000000
_symmetry_Int_Tables_number   1
_chemical_formula_structural   Ca20SiGe3Bi8
_chemical_formula_sum   'Ca20 Si1 Ge3 Bi8'
_cell_volume   1012.09973266
_cell_formula_units_Z   1
loop_
 _symmetry_equiv_pos_site_id
 _symmetry_equiv_pos_as_xyz
  1  'x, y, z'
loop_
 _atom_site_type_symbol
 _atom_site_label
 _atom_site_symmetry_multiplicity
 _atom_site_fract_x
 _atom_site_fract_y
 _atom_site_fract_z
 _atom_site_occupancy
  Ca  Ca0  1  0.33331000  0.97402774  0.08077311  1
  Ca  Ca1  1  0.83326344  0.02575325  0.41937260  1
  Ca  Ca2  1  0.66677721  0.47414462  0.91922611  1
  Ca  Ca3  1  0.16648715  0.52632538  0.58053245  1
  Ca  Ca4  1  0.66677721  0.02585538  0.91922611  1
  Ca  Ca5  1  0.16648715  0.97367462  0.58053245  1
  Ca  Ca6  1  0.33331000  0.52597226  0.08077311  1
  Ca  Ca7  1  0.83326344  0.47424675  0.41937260  1
  Ca  Ca8  1  0.67593587  0.75000000  0.21373488  1
  Ca  Ca9  1  0.17575505  0.25000000  0.28645668  1
  Ca  Ca10  1  0.32418737  0.25000000  0.78630531  1
  Ca  Ca11  1  0.82443450  0.75000000  0.71307241  1
  Ca  Ca12  1  0.15186426  0.75000000  0.30913086  1
  Ca  Ca13  1  0.65229653  0.25000000  0.19121265  1
  Ca  Ca14  1  0.84816368  0.25000000  0.69124374  1
  Ca  Ca15  1  0.34794102  0.75000000  0.80906559  1
  Ca  Ca16  1  0.55745264  0.75000000  0.49955374  1
  Ca  Ca17  1  0.05684296  0.25000000  0.00041162  1
  Ca  Ca18  1  0.44311503  0.25000000  0.50062868  1
  Ca  Ca19  1  0.94304877  0.75000000  0.99950599  1
  Si  Si0  1  0.94616255  0.75000000  0.49414687  1
  Ge  Ge0  1  0.55317751  0.75000000  0.99444615  1
  Ge  Ge1  1  0.05323620  0.25000000  0.50576268  1
  Ge  Ge2  1  0.44680417  0.25000000  0.00559939  1
  Bi  Bi0  1  0.95257746  0.00532853  0.16928069  1
  Bi  Bi1  1  0.45262162  0.99463797  0.33076024  1
  Bi  Bi2  1  0.04742993  0.50531894  0.83066522  1
  Bi  Bi3  1  0.54732412  0.49492519  0.66925096  1
  Bi  Bi4  1  0.04742993  0.99468106  0.83066522  1
  Bi  Bi5  1  0.54732412  0.00507481  0.66925096  1
  Bi  Bi6  1  0.95257746  0.49467147  0.16928069  1
  Bi  Bi7  1  0.45262162  0.50536203  0.33076024  1
loop_
_geom_bond_atom_site_label_1
_geom_bond_atom_site_label_2
_geom_bond_distance
_geom_bond_site_symmetry_2
Ca0 Ge2 2.949555 1_565
Ca0 Ge0 3.002547 1_554
Ca1 Si0 2.944480 1_545
Ca1 Ge1 3.004912 1_655
Ca2 Ge0 2.949038 1_555
Ca2 Ge2 3.004075 1_556
Ca3 Ge1 2.950197 1_555
Ca3 Si0 3.002749 1_455
Ca4 Ge0 2.949038 1_545
Ca4 Ge2 3.004075 1_556
Ca5 Ge1 2.950197 1_565
Ca5 Si0 3.002749 1_455
Ca6 Ge2 2.949555 1_555
Ca6 Ge0 3.002547 1_554
Ca7 Si0 2.944480 1_555
Ca7 Ge1 3.004912 1_655
Ca8 Ge0 3.035768 1_554
Ca9 Ge1 3.035244 1_555
Ca10 Ge2 3.035454 1_556
Ca11 Si0 3.028433 1_555
Ca12 Si0 2.942162 1_455
Ca13 Ge2 2.947751 1_555
Ca14 Ge1 2.944249 1_655
Ca15 Ge0 2.944063 1_555
Ca16 Si0 3.167728 1_555
Ca17 Ge2 3.177865 1_555
Ca18 Ge1 3.177172 1_555
Ca19 Ge0 3.177097 1_555
Bi0 Ca19 3.289230 1_544
Bi0 Ca17 3.316732 1_655
Bi0 Ca0 3.323932 1_645
Bi0 Ca9 3.325601 1_655
Bi0 Ca8 3.362479 1_545
Bi0 Ca13 3.387455 1_555
Bi0 Ca1 3.415802 1_555
Bi0 Ca12 3.444798 1_645
Bi1 Ca18 3.290282 1_565
Bi1 Ca16 3.317092 1_555
Bi1 Ca1 3.323670 1_565
Bi1 Ca8 3.324998 1_555
Bi1 Ca9 3.363637 1_565
Bi1 Ca12 3.389729 1_555
Bi1 Ca0 3.414679 1_555
Bi1 Ca13 3.444332 1_565
Bi2 Ca17 3.288891 1_556
Bi2 Ca19 3.316791 1_455
Bi2 Ca2 3.323460 1_455
Bi2 Ca11 3.327367 1_455
Bi2 Ca10 3.362833 1_555
Bi2 Ca15 3.388508 1_555
Bi2 Ca3 3.416037 1_555
Bi2 Ca14 3.441685 1_455
Bi3 Ca16 3.286881 1_555
Bi3 Ca18 3.316217 1_555
Bi3 Ca3 3.325879 1_555
Bi3 Ca10 3.326291 1_555
Bi3 Ca11 3.361922 1_555
Bi3 Ca14 3.392486 1_555
Bi3 Ca2 3.414951 1_555
Bi3 Ca15 3.443137 1_555
Bi4 Ca17 3.288891 1_566
Bi4 Ca19 3.316791 1_455
Bi4 Ca4 3.323460 1_465
Bi4 Ca11 3.327367 1_455
Bi4 Ca10 3.362833 1_565
Bi4 Ca15 3.388508 1_555
Bi4 Ca5 3.416037 1_555
Bi4 Ca14 3.441685 1_465
Bi5 Ca16 3.286881 1_545
Bi5 Ca18 3.316217 1_555
Bi5 Ca5 3.325879 1_545
Bi5 Ca10 3.326291 1_555
Bi5 Ca11 3.361922 1_545
Bi5 Ca14 3.392486 1_555
Bi5 Ca4 3.414951 1_555
Bi5 Ca15 3.443137 1_545
Bi6 Ca19 3.289230 1_554
Bi6 Ca17 3.316732 1_655
Bi6 Ca6 3.323932 1_655
Bi6 Ca9 3.325601 1_655
Bi6 Ca8 3.362479 1_555
Bi6 Ca13 3.387455 1_555
Bi6 Ca7 3.415802 1_555
Bi6 Ca12 3.444798 1_655
Bi7 Ca18 3.290282 1_555
Bi7 Ca16 3.317092 1_555
Bi7 Ca7 3.323670 1_555
Bi7 Ca8 3.324998 1_555
Bi7 Ca9 3.363637 1_555
Bi7 Ca12 3.389729 1_555
Bi7 Ca6 3.414679 1_555
Bi7 Ca13 3.444332 1_555
