# generated using pymatgen
data_Th2Al7
_symmetry_space_group_name_H-M   'P 1'
_cell_length_a   5.53675725
_cell_length_b   5.85341097
_cell_length_c   11.45246042
_cell_angle_alpha   90.00221029
_cell_angle_beta   90.00000000
_cell_angle_gamma   90.00000000
_symmetry_Int_Tables_number   1
_chemical_formula_structural   Th2Al7
_chemical_formula_sum   'Th4 Al14'
_cell_volume   371.16182332
_cell_formula_units_Z   2
loop_
 _symmetry_equiv_pos_site_id
 _symmetry_equiv_pos_as_xyz
  1  'x, y, z'
loop_
 _atom_site_type_symbol
 _atom_site_label
 _atom_site_symmetry_multiplicity
 _atom_site_fract_x
 _atom_site_fract_y
 _atom_site_fract_z
 _atom_site_occupancy
  Th  Th0  1  -0.00000000  0.85608867  0.85317783  1
  Th  Th1  1  -0.00000000  0.14391133  0.14682217  1
  Th  Th2  1  -0.00000000  0.35607531  0.64684055  1
  Th  Th3  1  -0.00000000  0.64392469  0.35315945  1
  Al  Al0  1  0.50000000  -0.00000000  0.00000000  1
  Al  Al1  1  0.50000000  0.50000000  0.50000000  1
  Al  Al2  1  0.50000000  0.59592845  0.75034589  1
  Al  Al3  1  0.50000000  0.40407155  0.24965411  1
  Al  Al4  1  0.50000000  0.09597536  0.74960203  1
  Al  Al5  1  0.50000000  0.90402464  0.25039797  1
  Al  Al6  1  0.76161271  0.85234355  0.59140709  1
  Al  Al7  1  0.76161271  0.14765645  0.40859291  1
  Al  Al8  1  0.23839312  0.35234670  0.90857214  1
  Al  Al9  1  0.23839312  0.64765330  0.09142786  1
  Al  Al10  1  0.23838729  0.14765645  0.40859291  1
  Al  Al11  1  0.23838729  0.85234355  0.59140709  1
  Al  Al12  1  0.76160688  0.64765330  0.09142786  1
  Al  Al13  1  0.76160688  0.35234670  0.90857214  1
loop_
_geom_bond_atom_site_label_1
_geom_bond_atom_site_label_2
_geom_bond_distance
_geom_bond_site_symmetry_2
Th0 Th1 3.761298 1_566
Th0 Th2 3.761599 1_555
Th0 Th2 3.761619 1_565
Th1 Th3 3.761599 1_555
Th1 Th3 3.761619 1_545
Th2 Th3 3.761860 1_555
Al0 Al13 2.729133 1_554
Al0 Al8 2.729133 1_554
Al0 Al12 2.729133 1_545
Al0 Al9 2.729133 1_545
Al0 Al4 2.922203 1_554
Al0 Al5 2.922203 1_545
Al0 Th1 3.346754 1_655
Al0 Th0 3.346754 1_544
Al0 Th1 3.346754 1_555
Al0 Th0 3.346754 1_644
Al1 Al7 2.728984 1_555
Al1 Al10 2.728984 1_555
Al1 Al6 2.728984 1_555
Al1 Al11 2.728984 1_555
Al1 Al3 2.921523 1_555
Al1 Al2 2.921523 1_555
Al1 Th2 3.346912 1_655
Al1 Th2 3.346912 1_555
Al1 Th3 3.346912 1_655
Al1 Th3 3.346912 1_555
Al2 Al8 2.722997 1_555
Al2 Al6 2.768449 1_555
Al2 Al4 2.926443 1_555
Al2 Al4 2.926993 1_565
Al2 Th2 3.322656 1_655
Al2 Th2 3.322656 1_555
Al2 Th0 3.371899 1_655
Al2 Th0 3.371899 1_555
Al3 Al9 2.722997 1_555
Al3 Al7 2.768449 1_555
Al3 Al5 2.926443 1_555
Al3 Al5 2.926993 1_545
Al3 Th3 3.322656 1_655
Al3 Th3 3.322656 1_555
Al3 Th1 3.371899 1_555
Al3 Th1 3.371899 1_655
Al4 Al6 2.722856 1_545
Al4 Al8 2.768452 1_555
Al4 Th0 3.323066 1_645
Al4 Th0 3.323066 1_545
Al4 Th2 3.371499 1_655
Al4 Th2 3.371499 1_555
Al5 Al7 2.722856 1_565
Al5 Al9 2.768452 1_555
Al5 Th1 3.323066 1_665
Al5 Th1 3.323066 1_565
Al5 Th3 3.371499 1_655
Al5 Th3 3.371499 1_555
Al6 Al7 2.715098 1_565
Al6 Th2 3.253232 1_655
Al6 Th3 3.267261 1_655
Al6 Th0 3.275685 1_655
Al6 Th2 3.292256 1_665
Al7 Th3 3.253232 1_655
Al7 Th2 3.267261 1_655
Al7 Th1 3.275685 1_655
Al7 Th3 3.292256 1_645
Al8 Al9 2.715339 1_556
Al8 Th0 3.253060 1_545
Al8 Th1 3.267412 1_556
Al8 Th2 3.275288 1_555
Al8 Th0 3.292280 1_555
Al9 Th1 3.253060 1_565
Al9 Th0 3.267412 1_554
Al9 Th3 3.275288 1_555
Al9 Th1 3.292280 1_555
Al10 Al7 2.639785 1_455
Al10 Al11 2.715098 1_545
Al10 Al5 2.722856 1_545
Al10 Al3 2.768449 1_555
Al10 Al7 2.896972 1_555
Al10 Th3 3.253232 1_555
Al10 Th2 3.267261 1_555
Al10 Th1 3.275685 1_555
Al10 Th3 3.292256 1_545
Al11 Al6 2.639785 1_455
Al11 Al4 2.722856 1_565
Al11 Al2 2.768449 1_555
Al11 Al6 2.896972 1_555
Al11 Th2 3.253232 1_555
Al11 Th3 3.267261 1_555
Al11 Th0 3.275685 1_555
Al11 Th2 3.292256 1_565
Al12 Al9 2.639850 1_655
Al12 Al13 2.715339 1_554
Al12 Al3 2.722997 1_555
Al12 Al5 2.768452 1_555
Al12 Al9 2.896908 1_555
Al12 Th1 3.253060 1_665
Al12 Th0 3.267412 1_654
Al12 Th3 3.275288 1_655
Al12 Th1 3.292280 1_655
Al13 Al8 2.639850 1_655
Al13 Al2 2.722997 1_555
Al13 Al4 2.768452 1_555
Al13 Al8 2.896908 1_555
Al13 Th0 3.253060 1_645
Al13 Th1 3.267412 1_656
Al13 Th2 3.275288 1_655
Al13 Th0 3.292280 1_655
