# generated using pymatgen
data_Rb2Co(GeO3)2
_symmetry_space_group_name_H-M   'P 1'
_cell_length_a   5.96038126
_cell_length_b   5.96039894
_cell_length_c   10.94410624
_cell_angle_alpha   90.00000000
_cell_angle_beta   90.00000000
_cell_angle_gamma   67.61214993
_symmetry_Int_Tables_number   1
_chemical_formula_structural   Rb2Co(GeO3)2
_chemical_formula_sum   'Rb4 Co2 Ge4 O12'
_cell_volume   359.49773379
_cell_formula_units_Z   2
loop_
 _symmetry_equiv_pos_site_id
 _symmetry_equiv_pos_as_xyz
  1  'x, y, z'
loop_
 _atom_site_type_symbol
 _atom_site_label
 _atom_site_symmetry_multiplicity
 _atom_site_fract_x
 _atom_site_fract_y
 _atom_site_fract_z
 _atom_site_occupancy
  Rb  Rb0  1  0.56433580  0.78647955  0.17476447  1
  Rb  Rb1  1  0.21348522  0.43570843  0.32521271  1
  Rb  Rb2  1  0.43566320  0.21352045  0.67476447  1
  Rb  Rb3  1  0.78651478  0.56429057  0.82521271  1
  Co  Co0  1  0.30934109  0.30927313  0.99999304  1
  Co  Co1  1  0.69065991  0.69072787  0.49999304  1
  Ge  Ge0  1  0.86124475  0.17152957  0.11008779  1
  Ge  Ge1  1  0.82842021  0.13881393  0.38992146  1
  Ge  Ge2  1  0.13875425  0.82846943  0.61008579  1
  Ge  Ge3  1  0.17157879  0.86118507  0.88992246  1
  O  O0  1  0.93488710  0.93476283  0.00002585  1
  O  O1  1  0.98980024  0.38120230  0.07736803  1
  O  O2  1  0.54646751  0.29289666  0.12516361  1
  O  O3  1  0.98737654  0.01264594  0.25001506  1
  O  O4  1  0.70704724  0.45358644  0.37482686  1
  O  O5  1  0.61872695  0.01027659  0.42262112  1
  O  O6  1  0.06511490  0.06523917  0.50002585  1
  O  O7  1  0.01020076  0.61879770  0.57736703  1
  O  O8  1  0.45353249  0.70710334  0.62516261  1
  O  O9  1  0.01262346  0.98735406  0.75001606  1
  O  O10  1  0.29295276  0.54641356  0.87482686  1
  O  O11  1  0.38127305  0.98972441  0.92262112  1
loop_
_geom_bond_atom_site_label_1
_geom_bond_atom_site_label_2
_geom_bond_distance
_geom_bond_site_symmetry_2
Co0 O2 1.943864 1_556
Co0 O10 1.943876 1_555
Co0 O1 1.976441 1_456
Co0 O11 1.976471 1_545
Co1 O8 1.943862 1_555
Co1 O4 1.943882 1_555
Co1 O7 1.976435 1_655
Co1 O5 1.976470 1_565
Ge0 O1 1.733964 1_555
Ge0 O2 1.742628 1_555
Ge0 O0 1.778554 1_545
Ge0 O3 1.806879 1_555
Ge1 O5 1.733948 1_555
Ge1 O4 1.742627 1_555
Ge1 O6 1.778588 1_655
Ge1 O3 1.806890 1_555
Ge2 O7 1.733948 1_555
Ge2 O8 1.742635 1_555
Ge2 O6 1.778553 1_565
Ge2 O9 1.806907 1_555
Ge3 O11 1.733960 1_555
Ge3 O10 1.742623 1_555
Ge3 O0 1.778567 1_456
Ge3 O9 1.806889 1_555
O0 Rb0 3.286832 1_555
O0 Rb3 3.287224 1_554
O1 Rb0 2.955668 1_555
O1 Rb3 3.044216 1_554
O1 Rb1 3.093601 1_655
O2 Rb1 2.858320 1_555
O2 Rb0 3.028558 1_545
O2 Rb0 3.033111 1_555
O3 Rb1 3.284584 1_645
O3 Rb0 3.284839 1_645
O3 Rb1 3.382431 1_655
O3 Rb0 3.382687 1_545
O4 Rb0 2.858106 1_555
O4 Rb1 3.028677 1_655
O4 Rb1 3.033030 1_555
O5 Rb1 2.955505 1_555
O5 Rb2 3.044003 1_555
O5 Rb0 3.093847 1_545
O6 Rb2 3.286812 1_555
O6 Rb1 3.287204 1_555
O7 Rb2 2.955665 1_555
O7 Rb1 3.044206 1_555
O7 Rb3 3.093615 1_455
O8 Rb3 2.858329 1_555
O8 Rb2 3.028558 1_565
O8 Rb2 3.033116 1_555
O9 Rb3 3.284576 1_465
O9 Rb2 3.284847 1_465
O9 Rb3 3.382434 1_455
O9 Rb2 3.382684 1_565
O10 Rb2 2.858106 1_555
O10 Rb3 3.028680 1_455
O10 Rb3 3.033028 1_555
O11 Rb3 2.955512 1_555
O11 Rb0 3.044003 1_556
O11 Rb2 3.093843 1_565
