# generated using pymatgen
data_Mn2Cd2P6N13
_symmetry_space_group_name_H-M   'P 1'
_cell_length_a   7.05288066
_cell_length_b   7.15749173
_cell_length_c   7.05288157
_cell_angle_alpha   109.90917926
_cell_angle_beta   107.98920887
_cell_angle_gamma   109.90918744
_symmetry_Int_Tables_number   1
_chemical_formula_structural   Mn2Cd2P6N13
_chemical_formula_sum   'Mn2 Cd2 P6 N13'
_cell_volume   276.03043036
_cell_formula_units_Z   1
loop_
 _symmetry_equiv_pos_site_id
 _symmetry_equiv_pos_as_xyz
  1  'x, y, z'
loop_
 _atom_site_type_symbol
 _atom_site_label
 _atom_site_symmetry_multiplicity
 _atom_site_fract_x
 _atom_site_fract_y
 _atom_site_fract_z
 _atom_site_occupancy
  Mn  Mn0  1  0.69025155  1.00000000  0.98709828  1
  Mn  Mn1  1  0.98709828  0.00000000  0.69025155  1
  Cd  Cd0  1  0.99858751  0.72052286  0.99858751  1
  Cd  Cd1  1  0.27806464  0.27947714  0.27806464  1
  P  P0  1  0.25292960  0.75016353  0.50577516  1
  P  P1  1  0.75561263  0.24983647  0.50276707  1
  P  P2  1  0.75474414  0.50000000  0.25474414  1
  P  P3  1  0.25474414  0.50000000  0.75474414  1
  P  P4  1  0.50577516  0.75016353  0.25292960  1
  P  P5  1  0.50276707  0.24983647  0.75561263  1
  N  N0  1  0.96370851  0.00000000  0.96370851  1
  N  N1  1  0.72731676  0.27162221  0.27360087  1
  N  N2  1  0.27893722  0.72255422  0.27893722  1
  N  N3  1  0.28918749  0.55953008  0.56200326  1
  N  N4  1  0.56200326  0.55953008  0.28918749  1
  N  N5  1  0.45569555  0.72837779  0.00197866  1
  N  N6  1  0.00197866  0.72837779  0.45569555  1
  N  N7  1  0.55638300  0.27744578  0.55638300  1
  N  N8  1  0.73397131  1.00000000  0.44451207  1
  N  N9  1  0.44451207  1.00000000  0.73397131  1
  N  N10  1  0.72965741  0.44046992  0.00247318  1
  N  N11  1  0.27360087  0.27162221  0.72731676  1
  N  N12  1  0.00247318  0.44046992  0.72965741  1
loop_
_geom_bond_atom_site_label_1
_geom_bond_atom_site_label_2
_geom_bond_distance
_geom_bond_site_symmetry_2
Mn0 N0 1.985815 1_565
Mn0 N9 2.068788 1_555
Mn0 N5 2.140831 1_556
Mn0 N1 2.140834 1_566
Mn1 N0 1.985815 1_555
Mn1 N8 2.068788 1_545
Mn1 N6 2.140831 1_645
Mn1 N11 2.140834 1_655
Cd0 N0 2.180676 1_565
Cd0 N10 2.257527 1_556
Cd0 N12 2.257527 1_655
Cd0 N2 2.316333 1_656
Cd1 N0 2.180676 1_454
Cd1 N4 2.257527 1_555
Cd1 N3 2.257527 1_555
Cd1 N7 2.316333 1_555
N1 P1 1.634048 1_555
N1 P2 1.635745 1_555
N2 P4 1.619532 1_555
N2 P0 1.619532 1_555
N3 P3 1.617538 1_555
N3 P0 1.621088 1_555
N4 P2 1.617538 1_555
N4 P4 1.621088 1_555
N5 P4 1.634044 1_555
N5 P3 1.635746 1_554
N6 P0 1.634043 1_555
N6 P2 1.635746 1_455
N7 P1 1.619535 1_555
N7 P5 1.619535 1_555
N8 P1 1.632412 1_565
N8 P4 1.632415 1_555
N9 P5 1.632412 1_565
N9 P0 1.632415 1_555
N10 P2 1.617538 1_555
N10 P5 1.621082 1_554
N11 P5 1.634048 1_555
N11 P3 1.635745 1_555
N12 P3 1.617538 1_555
N12 P1 1.621082 1_455
