# generated using pymatgen
data_Ti8Al14GaPt7
_symmetry_space_group_name_H-M   'P 1'
_cell_length_a   8.66923352
_cell_length_b   8.66923415
_cell_length_c   8.66923453
_cell_angle_alpha   120.09631241
_cell_angle_beta   119.90027186
_cell_angle_gamma   90.00304006
_symmetry_Int_Tables_number   1
_chemical_formula_structural   Ti8Al14GaPt7
_chemical_formula_sum   'Ti8 Al14 Ga1 Pt7'
_cell_volume   460.71973711
_cell_formula_units_Z   1
loop_
 _symmetry_equiv_pos_site_id
 _symmetry_equiv_pos_as_xyz
  1  'x, y, z'
loop_
 _atom_site_type_symbol
 _atom_site_label
 _atom_site_symmetry_multiplicity
 _atom_site_fract_x
 _atom_site_fract_y
 _atom_site_fract_z
 _atom_site_occupancy
  Ti  Ti0  1  0.78701098  0.29166977  0.08155671  1
  Ti  Ti1  1  0.21011306  0.29166977  0.50465879  1
  Ti  Ti2  1  0.21427929  0.71427929  0.50000000  1
  Ti  Ti3  1  0.21011306  0.70545528  0.91844329  1
  Ti  Ti4  1  0.78701098  0.70545528  0.49534121  1
  Ti  Ti5  1  0.79335218  0.29335218  0.50000000  1
  Ti  Ti6  1  0.37948939  0.12233500  0.74284661  1
  Ti  Ti7  1  0.37948939  0.63664278  0.25715339  1
  Al  Al0  1  0.15571458  0.34557186  0.18985628  1
  Al  Al1  1  0.15571458  0.96585830  0.81014372  1
  Al  Al2  1  0.15894337  0.34075369  0.81818967  1
  Al  Al3  1  0.52256402  0.34075369  0.18181033  1
  Al  Al4  1  0.84351668  0.65700570  0.81349002  1
  Al  Al5  1  0.84351668  0.03002565  0.18650998  1
  Al  Al6  1  0.84374155  0.65586845  0.18787310  1
  Al  Al7  1  0.46799535  0.65586845  0.81212690  1
  Al  Al8  1  0.37876346  0.12064177  0.25812169  1
  Al  Al9  1  0.86252007  0.12064177  0.74187831  1
  Al  Al10  1  0.62197718  0.87771010  0.25573392  1
  Al  Al11  1  0.62197718  0.36624226  0.74426608  1
  Al  Al12  1  0.62316247  0.87847493  0.74468754  1
  Al  Al13  1  0.13378739  0.87847493  0.25531246  1
  Ga  Ga0  1  0.00429854  0.50429854  0.50000000  1
  Pt  Pt0  1  0.99675082  0.00000787  0.49895936  1
  Pt  Pt1  1  0.50104851  0.00000787  0.00325805  1
  Pt  Pt2  1  0.50203587  0.50203587  1.00000000  1
  Pt  Pt3  1  0.50104851  0.49779046  0.50104064  1
  Pt  Pt4  1  0.99675082  0.49779046  0.99674195  1
  Pt  Pt5  1  0.00153064  0.00153064  1.00000000  1
  Pt  Pt6  1  0.50178337  0.00178337  0.50000000  1
loop_
_geom_bond_atom_site_label_1
_geom_bond_atom_site_label_2
_geom_bond_distance
_geom_bond_site_symmetry_2
Al0 Pt5 2.504852 1_554
Al0 Pt4 2.521708 1_454
Al0 Pt3 2.521717 1_555
Al1 Pt5 2.504844 1_565
Al1 Pt1 2.521717 1_566
Al1 Pt0 2.521717 1_465
Al2 Pt4 2.506626 1_455
Al2 Pt0 2.506634 1_455
Al2 Pt2 2.530107 1_555
Al2 Ti5 2.823079 1_455
Al3 Pt1 2.506634 1_555
Al3 Pt3 2.506634 1_555
Al3 Pt2 2.530107 1_554
Al3 Ti5 2.823079 1_555
Al4 Pt4 2.507788 1_555
Al4 Pt3 2.507793 1_555
Al4 Pt5 2.521830 1_665
Al4 Ti5 2.782571 1_555
Al5 Pt0 2.507788 1_555
Al5 Pt1 2.507795 1_555
Al5 Pt5 2.521824 1_654
Al5 Ti5 2.782580 1_555
Al6 Pt2 2.493504 1_554
Al6 Pt0 2.509421 1_565
Al6 Pt4 2.509429 1_554
Al7 Pt2 2.493504 1_555
Al7 Pt1 2.509421 1_566
Al7 Pt3 2.509421 1_555
Al8 Pt6 2.556097 1_555
Al8 Pt1 2.667823 1_555
Al8 Pt3 2.667823 1_555
Al8 Pt5 2.674865 1_554
Al8 Ti5 2.982219 1_555
Al9 Pt6 2.556097 1_555
Al9 Pt4 2.667823 1_555
Al9 Pt0 2.667830 1_555
Al9 Pt5 2.674865 1_655
Al9 Ti5 2.982219 1_555
Al10 Pt6 2.577313 1_565
Al10 Pt0 2.655868 1_565
Al10 Pt1 2.655868 1_565
Al10 Pt2 2.657645 1_554
Al10 Ti5 2.980862 1_565
Al11 Pt6 2.577306 1_555
Al11 Pt4 2.655868 1_555
Al11 Pt3 2.655868 1_555
Al11 Pt2 2.657652 1_555
Al11 Ti5 2.980856 1_555
Al12 Pt6 2.607421 1_565
Al12 Pt5 2.681371 1_665
Al12 Pt1 2.693132 1_566
Al12 Pt3 2.693132 1_555
Al13 Pt6 2.607421 1_565
Al13 Pt5 2.681372 1_564
Al13 Pt0 2.693125 1_465
Al13 Pt4 2.693132 1_454
Ga0 Ti1 2.566364 1_555
Ga0 Ti3 2.566364 1_555
Ga0 Ti0 2.566364 1_455
Ga0 Ti4 2.566370 1_455
Ga0 Ti2 2.574327 1_555
Ga0 Ti5 2.586165 1_455
Pt0 Ti6 2.713130 1_655
Pt0 Ti5 3.093522 1_555
Pt1 Ti6 2.713130 1_554
Pt1 Ti5 3.093517 1_555
Pt2 Ti7 2.685632 1_556
Pt2 Ti6 2.685639 1_555
Pt3 Ti7 2.713137 1_555
Pt3 Ti5 3.093517 1_555
Pt4 Ti7 2.713130 1_656
Pt4 Ti5 3.093516 1_555
Pt6 Ti6 2.582106 1_555
Pt6 Ti7 2.582106 1_545
