# generated using pymatgen
data_NaHf2ZnF11
_symmetry_space_group_name_H-M   'P 1'
_cell_length_a   5.61176124
_cell_length_b   5.61176134
_cell_length_c   7.67057741
_cell_angle_alpha   69.34016933
_cell_angle_beta   69.34016779
_cell_angle_gamma   72.93781843
_symmetry_Int_Tables_number   1
_chemical_formula_structural   NaHf2ZnF11
_chemical_formula_sum   'Na1 Hf2 Zn1 F11'
_cell_volume   207.51694518
_cell_formula_units_Z   1
loop_
 _symmetry_equiv_pos_site_id
 _symmetry_equiv_pos_as_xyz
  1  'x, y, z'
loop_
 _atom_site_type_symbol
 _atom_site_label
 _atom_site_symmetry_multiplicity
 _atom_site_fract_x
 _atom_site_fract_y
 _atom_site_fract_z
 _atom_site_occupancy
  Na  Na0  1  0.00000000  0.00000000  0.00000000  1
  Hf  Hf0  1  0.50583903  0.50583903  0.76445826  1
  Hf  Hf1  1  0.49416097  0.49416097  0.23554174  1
  Zn  Zn0  1  0.00000000  0.00000000  0.50000000  1
  F  F0  1  0.22185035  0.81115151  0.68873846  1
  F  F1  1  0.18884849  0.77814965  0.31126154  1
  F  F2  1  0.77814965  0.18884849  0.31126154  1
  F  F3  1  0.81115151  0.22185035  0.68873846  1
  F  F4  1  0.50000000  0.50000000  0.50000000  1
  F  F5  1  0.67074914  0.32925086  0.00000000  1
  F  F6  1  0.32925086  0.67074914  1.00000000  1
  F  F7  1  0.24792971  0.24792971  0.34936044  1
  F  F8  1  0.75207029  0.75207029  0.65063956  1
  F  F9  1  0.26694462  0.26694462  0.89074537  1
  F  F10  1  0.73305538  0.73305538  0.10925463  1
loop_
_geom_bond_atom_site_label_1
_geom_bond_atom_site_label_2
_geom_bond_distance
_geom_bond_site_symmetry_2
F0 Hf0 2.039933 1_555
F0 Zn0 2.045472 1_565
F0 Na0 2.699489 1_566
F1 Hf1 2.039933 1_555
F1 Zn0 2.045472 1_565
F1 Na0 2.699489 1_565
F2 Hf1 2.039933 1_555
F2 Zn0 2.045472 1_655
F2 Na0 2.699489 1_655
F3 Hf0 2.039933 1_555
F3 Zn0 2.045472 1_655
F3 Na0 2.699489 1_656
F4 Hf0 2.052216 1_555
F4 Hf1 2.052216 1_555
F5 Hf1 2.116851 1_555
F5 Hf0 2.116851 1_554
F5 Na0 2.196469 1_655
F6 Hf0 2.116851 1_555
F6 Hf1 2.116851 1_556
F6 Na0 2.196469 1_566
F7 Hf1 1.999706 1_555
F7 Zn0 2.018369 1_555
F8 Hf0 1.999706 1_555
F8 Zn0 2.018369 1_665
F9 Hf0 1.937730 1_555
F9 Na0 2.176153 1_556
F10 Hf1 1.937730 1_555
F10 Na0 2.176153 1_665
