# generated using pymatgen
data_YTa3(NbN2)6
_symmetry_space_group_name_H-M   'P 1'
_cell_length_a   5.29080340
_cell_length_b   5.29080390
_cell_length_c   10.52666314
_cell_angle_alpha   90.00000000
_cell_angle_beta   90.00000000
_cell_angle_gamma   120.00000929
_symmetry_Int_Tables_number   1
_chemical_formula_structural   YTa3(NbN2)6
_chemical_formula_sum   'Y1 Ta3 Nb6 N12'
_cell_volume   255.19055995
_cell_formula_units_Z   1
loop_
 _symmetry_equiv_pos_site_id
 _symmetry_equiv_pos_as_xyz
  1  'x, y, z'
loop_
 _atom_site_type_symbol
 _atom_site_label
 _atom_site_symmetry_multiplicity
 _atom_site_fract_x
 _atom_site_fract_y
 _atom_site_fract_z
 _atom_site_occupancy
  Y  Y0  1  0.33333300  0.66666700  0.50000000  1
  Ta  Ta0  1  0.66666700  0.33333300  0.00000000  1
  Ta  Ta1  1  0.66666700  0.33333300  0.50000000  1
  Ta  Ta2  1  0.33333300  0.66666700  0.00000000  1
  Nb  Nb0  1  0.67580926  0.99850308  0.75454703  1
  Nb  Nb1  1  0.67580926  0.67730617  0.24545297  1
  Nb  Nb2  1  0.00149692  0.32419074  0.24545297  1
  Nb  Nb3  1  0.00149692  0.67730617  0.75454703  1
  Nb  Nb4  1  0.32269383  0.32419074  0.75454703  1
  Nb  Nb5  1  0.32269383  0.99850308  0.24545297  1
  N  N0  1  0.35456349  0.33444148  0.37107485  1
  N  N1  1  0.66555852  0.02012101  0.37107485  1
  N  N2  1  0.97987899  0.64543651  0.37107485  1
  N  N3  1  0.00011823  0.34495796  0.88459464  1
  N  N4  1  0.65504204  0.99988177  0.11540536  1
  N  N5  1  0.65504204  0.65516126  0.88459464  1
  N  N6  1  0.34483874  0.99988177  0.88459464  1
  N  N7  1  0.66555852  0.64543651  0.62892515  1
  N  N8  1  0.97987899  0.33444148  0.62892515  1
  N  N9  1  0.00011823  0.65516126  0.11540536  1
  N  N10  1  0.35456349  0.02012101  0.62892515  1
  N  N11  1  0.34483874  0.34495796  0.11540536  1
loop_
_geom_bond_atom_site_label_1
_geom_bond_atom_site_label_2
_geom_bond_distance
_geom_bond_site_symmetry_2
N0 Ta1 2.139696 1_555
N0 Nb5 2.153257 1_545
N0 Nb1 2.201132 1_555
N0 Nb2 2.267105 1_555
N0 Y0 2.267503 1_555
N1 Ta1 2.139696 1_555
N1 Nb2 2.153259 1_655
N1 Nb5 2.201134 1_545
N1 Nb1 2.267100 1_545
N1 Y0 2.267498 1_545
N2 Ta1 2.139696 1_555
N2 Nb1 2.153261 1_555
N2 Nb2 2.201130 1_655
N2 Nb5 2.267102 1_655
N2 Y0 2.267494 1_655
N3 Ta2 2.116668 1_556
N3 Ta0 2.117447 1_456
N3 Nb3 2.225586 1_555
N3 Nb4 2.233033 1_555
N3 Nb0 2.243436 1_445
N4 Ta2 2.116668 1_555
N4 Ta0 2.117447 1_565
N4 Nb5 2.225585 1_555
N4 Nb1 2.233033 1_555
N4 Nb2 2.243436 1_665
N5 Ta2 2.116668 1_556
N5 Ta0 2.117456 1_556
N5 Nb4 2.225587 1_555
N5 Nb0 2.233029 1_555
N5 Nb3 2.243438 1_655
N6 Ta2 2.116668 1_556
N6 Ta0 2.117451 1_566
N6 Nb0 2.225590 1_555
N6 Nb3 2.233031 1_555
N6 Nb4 2.243434 1_565
N7 Ta1 2.139696 1_555
N7 Nb3 2.153257 1_655
N7 Nb4 2.201132 1_555
N7 Nb0 2.267105 1_555
N7 Y0 2.267503 1_555
N8 Ta1 2.139696 1_555
N8 Nb0 2.153259 1_545
N8 Nb3 2.201134 1_655
N8 Nb4 2.267100 1_655
N8 Y0 2.267498 1_655
N9 Ta2 2.116668 1_555
N9 Ta0 2.117451 1_455
N9 Nb2 2.225590 1_555
N9 Nb5 2.233031 1_555
N9 Nb1 2.243434 1_455
N10 Ta1 2.139696 1_555
N10 Nb4 2.153261 1_555
N10 Nb0 2.201130 1_545
N10 Nb3 2.267102 1_545
N10 Y0 2.267494 1_545
N11 Ta2 2.116668 1_555
N11 Ta0 2.117456 1_555
N11 Nb1 2.225587 1_555
N11 Nb2 2.233029 1_555
N11 Nb5 2.243438 1_545
