# generated using pymatgen
data_Rb10CuAgAs4
_symmetry_space_group_name_H-M   'P 1'
_cell_length_a   6.01480258
_cell_length_b   6.01480321
_cell_length_c   19.57731735
_cell_angle_alpha   90.00000000
_cell_angle_beta   90.00000000
_cell_angle_gamma   119.99999650
_symmetry_Int_Tables_number   1
_chemical_formula_structural   Rb10CuAgAs4
_chemical_formula_sum   'Rb10 Cu1 Ag1 As4'
_cell_volume   613.37578644
_cell_formula_units_Z   1
loop_
 _symmetry_equiv_pos_site_id
 _symmetry_equiv_pos_as_xyz
  1  'x, y, z'
loop_
 _atom_site_type_symbol
 _atom_site_label
 _atom_site_symmetry_multiplicity
 _atom_site_fract_x
 _atom_site_fract_y
 _atom_site_fract_z
 _atom_site_occupancy
  Rb  Rb0  1  0.33333300  0.66666700  0.55319484  1
  Rb  Rb1  1  0.66666700  0.33333300  0.04555809  1
  Rb  Rb2  1  0.66666700  0.33333300  0.45444191  1
  Rb  Rb3  1  0.33333300  0.66666700  0.94680516  1
  Rb  Rb4  1  0.00000000  0.00000000  0.14350969  1
  Rb  Rb5  1  0.00000000  0.00000000  0.64856051  1
  Rb  Rb6  1  0.00000000  0.00000000  0.85143949  1
  Rb  Rb7  1  0.00000000  0.00000000  0.35649031  1
  Rb  Rb8  1  0.33333300  0.66666700  0.75000000  1
  Rb  Rb9  1  0.66666700  0.33333300  0.25000000  1
  Cu  Cu0  1  0.66666700  0.33333300  0.75000000  1
  Ag  Ag0  1  0.33333300  0.66666700  0.25000000  1
  As  As0  1  0.33333300  0.66666700  0.37836155  1
  As  As1  1  0.66666700  0.33333300  0.86837405  1
  As  As2  1  0.66666700  0.33333300  0.63162595  1
  As  As3  1  0.33333300  0.66666700  0.12163845  1
loop_
_geom_bond_atom_site_label_1
_geom_bond_atom_site_label_2
_geom_bond_distance
_geom_bond_site_symmetry_2
Cu0 Rb8 3.472645 1_655
Cu0 Rb8 3.472645 1_545
Cu0 Rb8 3.472655 1_555
Ag0 As0 2.512975 1_555
Ag0 As3 2.512975 1_555
Ag0 Rb9 3.472645 1_455
Ag0 Rb9 3.472645 1_565
Ag0 Rb9 3.472655 1_555
As0 Rb0 3.422767 1_555
As0 Rb7 3.498942 1_565
As0 Rb7 3.498948 1_665
As0 Rb7 3.498948 1_555
As0 Rb2 3.778587 1_455
As0 Rb2 3.778587 1_565
As0 Rb2 3.778597 1_555
As1 Cu0 2.317446 1_555
As1 Rb1 3.468788 1_556
As1 Rb6 3.488434 1_655
As1 Rb6 3.488440 1_555
As1 Rb6 3.488440 1_665
As1 Rb3 3.796963 1_655
As1 Rb3 3.796964 1_545
As1 Rb3 3.796973 1_555
As2 Cu0 2.317446 1_555
As2 Rb2 3.468788 1_555
As2 Rb5 3.488434 1_655
As2 Rb5 3.488440 1_555
As2 Rb5 3.488440 1_665
As2 Rb0 3.796963 1_655
As2 Rb0 3.796964 1_545
As2 Rb0 3.796973 1_555
As3 Rb3 3.422767 1_554
As3 Rb4 3.498942 1_565
As3 Rb4 3.498948 1_665
As3 Rb4 3.498948 1_555
As3 Rb1 3.778587 1_455
As3 Rb1 3.778587 1_565
As3 Rb1 3.778597 1_555
