# generated using pymatgen
data_Na3B7O12
_symmetry_space_group_name_H-M   'P 1'
_cell_length_a   6.65067604
_cell_length_b   8.20260016
_cell_length_c   8.86059834
_cell_angle_alpha   95.59616918
_cell_angle_beta   100.59848097
_cell_angle_gamma   99.54486388
_symmetry_Int_Tables_number   1
_chemical_formula_structural   Na3B7O12
_chemical_formula_sum   'Na6 B14 O24'
_cell_volume   464.44300922
_cell_formula_units_Z   2
loop_
 _symmetry_equiv_pos_site_id
 _symmetry_equiv_pos_as_xyz
  1  'x, y, z'
loop_
 _atom_site_type_symbol
 _atom_site_label
 _atom_site_symmetry_multiplicity
 _atom_site_fract_x
 _atom_site_fract_y
 _atom_site_fract_z
 _atom_site_occupancy
  Na  Na0  1  0.76642350  0.22926895  0.97867607  1
  Na  Na1  1  0.23357650  0.77073105  0.02132393  1
  Na  Na2  1  0.45068077  0.92035268  0.71277560  1
  Na  Na3  1  0.54931923  0.07964732  0.28722440  1
  Na  Na4  1  0.93314354  0.26776816  0.66425508  1
  Na  Na5  1  0.06685646  0.73223184  0.33574492  1
  B  B0  1  0.77179216  0.87044137  0.04779550  1
  B  B1  1  0.22820784  0.12955863  0.95220450  1
  B  B2  1  0.78909743  0.84830026  0.52631804  1
  B  B3  1  0.21090257  0.15169974  0.47368196  1
  B  B4  1  0.40235474  0.26907762  0.75448910  1
  B  B5  1  0.59764526  0.73092238  0.24551090  1
  B  B6  1  0.34298847  0.55107525  0.70699384  1
  B  B7  1  0.65701153  0.44892475  0.29300616  1
  B  B8  1  0.90251676  0.95568502  0.80857076  1
  B  B9  1  0.09748324  0.04431498  0.19142924  1
  B  B10  1  0.69007310  0.49542521  0.72525304  1
  B  B11  1  0.30992690  0.50457479  0.27474696  1
  B  B12  1  0.01283633  0.69604022  0.69359517  1
  B  B13  1  0.98716367  0.30395978  0.30640483  1
  O  O0  1  0.28252475  0.40289426  0.75715591  1
  O  O1  1  0.73958036  0.92374042  0.90483218  1
  O  O2  1  0.08658007  0.26806951  0.45738882  1
  O  O3  1  0.91341993  0.73193049  0.54261118  1
  O  O4  1  0.26041964  0.07625958  0.09516782  1
  O  O5  1  0.78457737  0.96352892  0.64959281  1
  O  O6  1  0.77386506  0.32971342  0.31623356  1
  O  O7  1  0.22613494  0.67028658  0.68376644  1
  O  O8  1  0.96947171  0.87484986  0.13326445  1
  O  O9  1  0.03052829  0.12515014  0.86673555  1
  O  O10  1  0.96339997  0.16409919  0.18818076  1
  O  O11  1  0.03660003  0.83590081  0.81181924  1
  O  O12  1  0.10365623  0.45860969  0.26827621  1
  O  O13  1  0.89634377  0.54139031  0.73172379  1
  O  O14  1  0.67328080  0.85791224  0.38372731  1
  O  O15  1  0.32671920  0.14208776  0.61627269  1
  O  O16  1  0.40221751  0.18482499  0.89454371  1
  O  O17  1  0.59778249  0.81517501  0.10545629  1
  O  O18  1  0.62561635  0.33773345  0.75994884  1
  O  O19  1  0.37438365  0.66226655  0.24005116  1
  O  O20  1  0.54705382  0.59615865  0.68490803  1
  O  O21  1  0.45294618  0.40384135  0.31509197  1
  O  O22  1  0.21542263  0.03647108  0.35040719  1
  O  O23  1  0.71747525  0.59710574  0.24284409  1
loop_
_geom_bond_atom_site_label_1
_geom_bond_atom_site_label_2
_geom_bond_distance
_geom_bond_site_symmetry_2
Na0 O10 2.231398 1_556
Na0 O18 2.317228 1_555
Na0 O16 2.354926 1_555
Na0 O9 2.402401 1_655
Na0 O1 2.495898 1_545
Na1 O11 2.231398 1_554
Na1 O19 2.317228 1_555
Na1 O17 2.354926 1_555
Na1 O8 2.402401 1_455
Na1 O4 2.495898 1_565
Na2 O7 2.289920 1_555
Na2 O15 2.293506 1_565
Na2 O1 2.314884 1_555
Na2 O5 2.367539 1_555
Na3 O6 2.289920 1_555
Na3 O14 2.293506 1_545
Na3 O4 2.314884 1_555
Na3 O22 2.367539 1_555
Na4 O2 2.255919 1_655
Na4 O9 2.289097 1_655
Na4 O13 2.330017 1_555
Na4 O0 2.360013 1_655
Na4 O18 2.482678 1_555
Na4 O5 2.508533 1_545
Na5 O3 2.255919 1_455
Na5 O8 2.289097 1_455
Na5 O12 2.330017 1_555
Na5 O23 2.360013 1_455
Na5 O19 2.482678 1_555
Na5 O22 2.508533 1_565
B0 O1 1.371462 1_554
B0 O17 1.376415 1_555
B0 O8 1.384165 1_555
B1 O4 1.371462 1_556
B1 O16 1.376415 1_555
B1 O9 1.384165 1_555
B2 O3 1.363940 1_555
B2 O14 1.370175 1_555
B2 O5 1.381123 1_555
B3 O2 1.363940 1_555
B3 O15 1.370175 1_555
B3 O22 1.381123 1_555
B4 O0 1.460304 1_555
B4 O16 1.478201 1_555
B4 O15 1.479433 1_555
B4 O18 1.488349 1_555
B5 O23 1.460304 1_555
B5 O17 1.478201 1_555
B5 O14 1.479433 1_555
B5 O19 1.488349 1_555
B6 O7 1.354601 1_555
B6 O0 1.358541 1_555
B6 O20 1.400833 1_555
B7 O6 1.354601 1_555
B7 O23 1.358541 1_555
B7 O21 1.400833 1_555
B8 O11 1.431109 1_655
B8 O9 1.493011 1_665
B8 O5 1.493863 1_555
B8 O1 1.503276 1_555
B9 O10 1.431109 1_455
B9 O8 1.493011 1_445
B9 O22 1.493863 1_555
B9 O4 1.503276 1_555
B10 O13 1.350075 1_555
B10 O18 1.376051 1_555
B10 O20 1.381461 1_555
B11 O12 1.350075 1_555
B11 O19 1.376051 1_555
B11 O21 1.381461 1_555
B12 O11 1.443265 1_555
B12 O3 1.459299 1_455
B12 O13 1.475630 1_455
B12 O7 1.485200 1_555
B13 O10 1.443265 1_555
B13 O2 1.459299 1_655
B13 O12 1.475630 1_655
B13 O6 1.485200 1_555
