# generated using pymatgen
data_KBi(CO3)2
_symmetry_space_group_name_H-M   'P 1'
_cell_length_a   6.52573353
_cell_length_b   6.52573315
_cell_length_c   7.08266867
_cell_angle_alpha   74.98543316
_cell_angle_beta   74.98543432
_cell_angle_gamma   97.26455812
_symmetry_Int_Tables_number   1
_chemical_formula_structural   KBi(CO3)2
_chemical_formula_sum   'K2 Bi2 C4 O12'
_cell_volume   275.25040609
_cell_formula_units_Z   2
loop_
 _symmetry_equiv_pos_site_id
 _symmetry_equiv_pos_as_xyz
  1  'x, y, z'
loop_
 _atom_site_type_symbol
 _atom_site_label
 _atom_site_symmetry_multiplicity
 _atom_site_fract_x
 _atom_site_fract_y
 _atom_site_fract_z
 _atom_site_occupancy
  K  K0  1  0.63312739  0.36687261  0.75000000  1
  K  K1  1  0.36687261  0.63312739  0.25000000  1
  Bi  Bi0  1  0.09762061  0.90237939  0.75000000  1
  Bi  Bi1  1  0.90237939  0.09762061  0.25000000  1
  C  C0  1  0.65122450  0.87833326  0.77480188  1
  C  C1  1  0.34877550  0.12166674  0.22519812  1
  C  C2  1  0.12166674  0.34877550  0.72519812  1
  C  C3  1  0.87833326  0.65122450  0.27480188  1
  O  O0  1  0.45394422  0.89008388  0.80814295  1
  O  O1  1  0.54605578  0.10991612  0.19185705  1
  O  O2  1  0.10991612  0.54605578  0.69185705  1
  O  O3  1  0.89008388  0.45394422  0.30814295  1
  O  O4  1  0.71664540  0.73272723  0.89403583  1
  O  O5  1  0.28335460  0.26727277  0.10596417  1
  O  O6  1  0.26727277  0.28335460  0.60596417  1
  O  O7  1  0.73272723  0.71664540  0.39403583  1
  O  O8  1  0.80554248  0.02252641  0.62151785  1
  O  O9  1  0.19445752  0.97747359  0.37848215  1
  O  O10  1  0.97747359  0.19445752  0.87848215  1
  O  O11  1  0.02252641  0.80554248  0.12151785  1
loop_
_geom_bond_atom_site_label_1
_geom_bond_atom_site_label_2
_geom_bond_distance
_geom_bond_site_symmetry_2
K0 O7 2.789769 1_555
K0 O5 2.789769 1_556
K0 O4 2.873801 1_555
K0 O6 2.873801 1_555
K0 O8 2.883046 1_555
K0 O10 2.883046 1_555
K0 O1 3.007868 1_556
K0 O3 3.007868 1_555
K0 O0 3.063359 1_545
K0 O2 3.063359 1_655
K1 O6 2.789769 1_555
K1 O4 2.789769 1_554
K1 O5 2.873801 1_555
K1 O7 2.873801 1_555
K1 O9 2.883046 1_555
K1 O11 2.883046 1_555
K1 O0 3.007868 1_554
K1 O2 3.007868 1_555
K1 O1 3.063359 1_565
K1 O3 3.063359 1_455
Bi0 O6 2.419074 1_565
Bi0 O4 2.419074 1_455
Bi0 O11 2.440375 1_556
Bi0 O9 2.440375 1_555
Bi0 O10 2.445956 1_465
Bi0 O8 2.445956 1_465
Bi0 O2 2.471664 1_555
Bi0 O0 2.471664 1_555
Bi1 O7 2.419074 1_545
Bi1 O5 2.419074 1_655
Bi1 O10 2.440375 1_554
Bi1 O8 2.440375 1_555
Bi1 O11 2.445956 1_645
Bi1 O9 2.445956 1_645
Bi1 O3 2.471664 1_555
Bi1 O1 2.471664 1_555
C0 O0 1.263278 1_555
C0 O4 1.293026 1_555
C0 O8 1.320143 1_565
C1 O1 1.263278 1_555
C1 O5 1.293026 1_555
C1 O9 1.320143 1_545
C2 O2 1.263278 1_555
C2 O6 1.293026 1_555
C2 O10 1.320143 1_455
C3 O3 1.263278 1_555
C3 O7 1.293026 1_555
C3 O11 1.320143 1_655
