# generated using pymatgen
data_LuAg6BrO8
_symmetry_space_group_name_H-M   'P 1'
_cell_length_a   6.97079686
_cell_length_b   6.97079719
_cell_length_c   6.97079676
_cell_angle_alpha   60.00000656
_cell_angle_beta   60.00000503
_cell_angle_gamma   60.00000751
_symmetry_Int_Tables_number   1
_chemical_formula_structural   LuAg6BrO8
_chemical_formula_sum   'Lu1 Ag6 Br1 O8'
_cell_volume   239.51480324
_cell_formula_units_Z   1
loop_
 _symmetry_equiv_pos_site_id
 _symmetry_equiv_pos_as_xyz
  1  'x, y, z'
loop_
 _atom_site_type_symbol
 _atom_site_label
 _atom_site_symmetry_multiplicity
 _atom_site_fract_x
 _atom_site_fract_y
 _atom_site_fract_z
 _atom_site_occupancy
  Lu  Lu0  1  0.00000000  0.00000000  0.00000000  1
  Ag  Ag0  1  0.00000000  0.00000000  0.50000000  1
  Ag  Ag1  1  0.50000000  0.00000000  0.00000000  1
  Ag  Ag2  1  0.00000000  0.50000000  0.00000000  1
  Ag  Ag3  1  0.50000000  0.50000000  0.00000000  1
  Ag  Ag4  1  0.00000000  0.50000000  0.50000000  1
  Ag  Ag5  1  0.50000000  0.00000000  0.50000000  1
  Br  Br0  1  0.50000000  0.50000000  0.50000000  1
  O  O0  1  0.13660807  0.13660807  0.59017279  1
  O  O1  1  0.13660807  0.59017279  0.13660807  1
  O  O2  1  0.59017279  0.13660807  0.13660807  1
  O  O3  1  0.86339193  0.40982721  0.86339193  1
  O  O4  1  0.13660807  0.13660807  0.13660807  1
  O  O5  1  0.86339193  0.86339193  0.86339193  1
  O  O6  1  0.86339193  0.86339193  0.40982721  1
  O  O7  1  0.40982721  0.86339193  0.86339193  1
loop_
_geom_bond_atom_site_label_1
_geom_bond_atom_site_label_2
_geom_bond_distance
_geom_bond_site_symmetry_2
Lu0 O5 2.332568 1_444
Lu0 O4 2.332568 1_555
Lu0 O6 2.332586 1_445
Lu0 O0 2.332586 1_554
Lu0 O7 2.332586 1_544
Lu0 O2 2.332586 1_455
Lu0 O3 2.332586 1_454
Lu0 O1 2.332586 1_545
Ag0 O0 2.076702 1_555
Ag0 O6 2.076702 1_445
Ag0 O5 2.076718 1_445
Ag0 O4 2.076718 1_555
Ag1 O2 2.076702 1_555
Ag1 O7 2.076702 1_544
Ag1 O5 2.076718 1_544
Ag1 O4 2.076718 1_555
Ag2 O1 2.076702 1_555
Ag2 O3 2.076702 1_454
Ag2 O4 2.076718 1_555
Ag2 O5 2.076718 1_454
Ag3 O3 2.076720 1_554
Ag3 O1 2.076720 1_555
Ag3 O7 2.076720 1_554
Ag3 O2 2.076720 1_555
Ag4 O3 2.076720 1_455
Ag4 O1 2.076720 1_555
Ag4 O6 2.076720 1_455
Ag4 O0 2.076720 1_555
Ag5 O7 2.076720 1_545
Ag5 O2 2.076720 1_555
Ag5 O6 2.076720 1_545
Ag5 O0 2.076720 1_555
