# generated using pymatgen
data_Sr2AlAuI
_symmetry_space_group_name_H-M   'P 1'
_cell_length_a   4.51944711
_cell_length_b   4.51944762
_cell_length_c   18.26959869
_cell_angle_alpha   90.00000000
_cell_angle_beta   90.00000000
_cell_angle_gamma   120.00000333
_symmetry_Int_Tables_number   1
_chemical_formula_structural   Sr2AlAuI
_chemical_formula_sum   'Sr4 Al2 Au2 I2'
_cell_volume   323.16944329
_cell_formula_units_Z   2
loop_
 _symmetry_equiv_pos_site_id
 _symmetry_equiv_pos_as_xyz
  1  'x, y, z'
loop_
 _atom_site_type_symbol
 _atom_site_label
 _atom_site_symmetry_multiplicity
 _atom_site_fract_x
 _atom_site_fract_y
 _atom_site_fract_z
 _atom_site_occupancy
  Sr  Sr0  1  0.00000000  0.00000000  0.11325124  1
  Sr  Sr1  1  0.00000000  0.00000000  0.38674876  1
  Sr  Sr2  1  0.00000000  0.00000000  0.61456590  1
  Sr  Sr3  1  0.00000000  0.00000000  0.88543410  1
  Al  Al0  1  0.66666600  0.33333300  0.50156822  1
  Al  Al1  1  0.66666600  0.33333300  0.99843178  1
  Au  Au0  1  0.33333300  0.66666600  0.00139203  1
  Au  Au1  1  0.33333300  0.66666600  0.49860697  1
  I  I0  1  0.66666600  0.33333300  0.25000000  1
  I  I1  1  0.33333300  0.66666600  0.75000000  1
loop_
_geom_bond_atom_site_label_1
_geom_bond_atom_site_label_2
_geom_bond_distance
_geom_bond_site_symmetry_2
Al0 Au1 2.609862 1_555
Al0 Au1 2.609866 1_655
Al0 Au1 2.609866 1_545
Al0 Sr2 3.327205 1_555
Al0 Sr2 3.327208 1_655
Al0 Sr2 3.327208 1_665
Al0 Sr1 3.347958 1_555
Al0 Sr1 3.347961 1_655
Al0 Sr1 3.347961 1_665
Al1 Au0 2.609862 1_556
Al1 Au0 2.609866 1_656
Al1 Au0 2.609866 1_546
Al1 Sr3 3.327205 1_555
Al1 Sr3 3.327208 1_655
Al1 Sr3 3.327208 1_665
Al1 Sr0 3.347958 1_556
Al1 Sr0 3.347961 1_656
Al1 Sr0 3.347961 1_666
Au0 Sr0 3.314340 1_555
Au0 Sr0 3.314343 1_665
Au0 Sr0 3.314343 1_565
Au0 Sr3 3.361029 1_554
Au0 Sr3 3.361032 1_664
Au0 Sr3 3.361032 1_564
Au1 Sr1 3.314329 1_555
Au1 Sr1 3.314332 1_665
Au1 Sr1 3.314332 1_565
Au1 Sr2 3.361041 1_555
Au1 Sr2 3.361044 1_665
Au1 Sr2 3.361044 1_565
I0 Sr1 3.612503 1_555
I0 Sr0 3.612503 1_555
I0 Sr1 3.612506 1_655
I0 Sr0 3.612506 1_655
I0 Sr1 3.612506 1_665
I0 Sr0 3.612506 1_665
I1 Sr3 3.595935 1_555
I1 Sr2 3.595935 1_555
I1 Sr3 3.595937 1_665
I1 Sr2 3.595937 1_665
I1 Sr3 3.595938 1_565
I1 Sr2 3.595938 1_565
