# generated using pymatgen
data_Sm2S3
_symmetry_space_group_name_H-M   'P 1'
_cell_length_a   14.04784053
_cell_length_b   14.04784053
_cell_length_c   14.04784053
_cell_angle_alpha   144.80879738
_cell_angle_beta   144.80879738
_cell_angle_gamma   50.61955136
_symmetry_Int_Tables_number   1
_chemical_formula_structural   Sm2S3
_chemical_formula_sum   'Sm16 S24'
_cell_volume   916.06986325
_cell_formula_units_Z   8
loop_
 _symmetry_equiv_pos_site_id
 _symmetry_equiv_pos_as_xyz
  1  'x, y, z'
loop_
 _atom_site_type_symbol
 _atom_site_label
 _atom_site_symmetry_multiplicity
 _atom_site_fract_x
 _atom_site_fract_y
 _atom_site_fract_z
 _atom_site_occupancy
  Sm  Sm0  1  0.41585700  0.91585700  0.50000000  1
  Sm  Sm1  1  0.99450600  0.62500000  0.86950600  1
  Sm  Sm2  1  0.33414300  0.33414300  0.00000000  1
  Sm  Sm3  1  0.03087500  0.92677600  0.37930300  1
  Sm  Sm4  1  0.54747300  0.65157200  0.62069700  1
  Sm  Sm5  1  0.75549400  0.12500000  0.13049400  1
  Sm  Sm6  1  0.34842800  0.96912500  0.89590100  1
  Sm  Sm7  1  0.37500000  0.24450600  0.36950600  1
  Sm  Sm8  1  0.66585700  0.66585700  0.00000000  1
  Sm  Sm9  1  0.87500000  0.00549400  0.63049400  1
  Sm  Sm10  1  0.07322400  0.45252700  0.10409900  1
  Sm  Sm11  1  0.08414300  0.58414300  0.50000000  1
  Sm  Sm12  1  0.67677600  0.28087500  0.87930300  1
  Sm  Sm13  1  0.71912500  0.59842800  0.39590100  1
  Sm  Sm14  1  0.20252700  0.32322400  0.60409900  1
  Sm  Sm15  1  0.40157200  0.79747300  0.12069700  1
  S  S0  1  0.50371400  0.25666100  0.89358000  1
  S  S1  1  0.71308800  0.82239000  0.74548200  1
  S  S2  1  0.36308100  0.61013400  0.10642000  1
  S  S3  1  0.24628600  0.63986600  0.25294700  1
  S  S4  1  0.38691900  0.99333900  0.74705300  1
  S  S5  1  0.67309200  0.42761000  0.39069800  1
  S  S6  1  0.07690800  0.96760500  0.25451800  1
  S  S7  1  0.84664600  0.59610500  0.90971800  1
  S  S8  1  0.03691200  0.28239500  0.60930200  1
  S  S9  1  0.06307200  0.15335400  0.74945800  1
  S  S10  1  0.68638700  0.93692800  0.09028200  1
  S  S11  1  0.57239000  0.96308800  0.24548200  1
  S  S12  1  0.71760500  0.32690800  0.75451800  1
  S  S13  1  0.40389500  0.31361300  0.25054200  1
  S  S14  1  0.00666100  0.75371400  0.39358000  1
  S  S15  1  0.17761000  0.92309200  0.89069800  1
  S  S16  1  0.36013400  0.61308100  0.60642000  1
  S  S17  1  0.38986600  0.49628600  0.75294700  1
  S  S18  1  0.03239500  0.28691200  0.10930200  1
  S  S19  1  0.90335400  0.31307200  0.24945800  1
  S  S20  1  0.06361300  0.65389500  0.75054200  1
  S  S21  1  0.74333900  0.63691900  0.24705300  1
  S  S22  1  0.34610500  0.09664600  0.40971800  1
  S  S23  1  0.68692800  0.93638700  0.59028200  1
loop_
_geom_bond_atom_site_label_1
_geom_bond_atom_site_label_2
_geom_bond_distance
_geom_bond_site_symmetry_2
S0 Sm12 2.832708 1_555
S0 Sm0 2.844854 1_545
S0 Sm14 2.895776 1_555
S0 Sm2 2.994162 1_556
S0 Sm5 3.086625 1_556
S0 Sm13 3.187781 1_556
S1 Sm4 2.790494 1_555
S1 Sm0 2.821290 1_555
S1 Sm5 2.836620 1_566
S1 Sm1 3.013554 1_555
S1 Sm13 3.018454 1_555
S2 Sm15 2.832708 1_555
S2 Sm0 2.844854 1_555
S2 Sm13 2.895776 1_555
S2 Sm2 2.994162 1_555
S2 Sm1 3.086625 1_454
S2 Sm14 3.187781 1_554
S3 Sm10 2.832708 1_555
S3 Sm2 2.844854 1_555
S3 Sm4 2.895776 1_555
S3 Sm0 2.994162 1_555
S3 Sm1 3.086625 1_454
S3 Sm3 3.187781 1_555
S4 Sm6 2.832708 1_555
S4 Sm2 2.844854 1_566
S4 Sm3 2.895776 1_555
S4 Sm0 2.994162 1_555
S4 Sm5 3.086625 1_566
S4 Sm4 3.187781 1_555
S5 Sm13 2.790494 1_555
S5 Sm2 2.821290 1_555
S5 Sm5 2.836620 1_555
S5 Sm1 3.013554 1_555
S5 Sm4 3.018454 1_555
S6 Sm3 2.790482 1_555
S6 Sm0 2.821288 1_555
S6 Sm1 2.836615 1_454
S6 Sm5 3.013557 1_465
S6 Sm14 3.018464 1_565
S7 Sm4 2.807168 1_555
S7 Sm1 2.856696 1_555
S7 Sm10 2.881892 1_656
S7 Sm3 3.009633 1_656
S7 Sm8 3.015677 1_556
S8 Sm14 2.790484 1_555
S8 Sm2 2.821296 1_556
S8 Sm1 2.836613 1_455
S8 Sm5 3.013550 1_455
S8 Sm3 3.018466 1_545
S9 Sm10 2.807175 1_556
S9 Sm9 2.856706 1_455
S9 Sm3 2.881881 1_545
S9 Sm6 3.009637 1_545
S9 Sm2 3.015669 1_556
S10 Sm3 2.807168 1_655
S10 Sm5 2.856696 1_565
S10 Sm6 2.881892 1_554
S10 Sm4 3.009633 1_554
S10 Sm8 3.015677 1_555
S11 Sm15 2.790494 1_555
S11 Sm8 2.821290 1_555
S11 Sm9 2.836620 1_565
S11 Sm7 3.013554 1_565
S11 Sm6 3.018454 1_554
S12 Sm12 2.790482 1_555
S12 Sm8 2.821288 1_556
S12 Sm7 2.836615 1_555
S12 Sm9 3.013557 1_555
S12 Sm10 3.018464 1_656
S13 Sm6 2.807170 1_544
S13 Sm7 2.856682 1_555
S13 Sm4 2.881894 1_555
S13 Sm10 3.009632 1_555
S13 Sm2 3.015691 1_555
S14 Sm3 2.832708 1_555
S14 Sm8 2.844854 1_455
S14 Sm10 2.895776 1_555
S14 Sm11 2.994162 1_555
S14 Sm9 3.086625 1_465
S14 Sm6 3.187781 1_555
S15 Sm6 2.790494 1_555
S15 Sm11 2.821290 1_555
S15 Sm9 2.836620 1_465
S15 Sm7 3.013554 1_566
S15 Sm15 3.018454 1_556
S16 Sm4 2.832708 1_555
S16 Sm8 2.844854 1_556
S16 Sm6 2.895776 1_555
S16 Sm11 2.994162 1_555
S16 Sm7 3.086625 1_555
S16 Sm10 3.187781 1_555
S17 Sm14 2.832708 1_555
S17 Sm11 2.844854 1_555
S17 Sm15 2.895776 1_556
S17 Sm8 2.994162 1_556
S17 Sm7 3.086625 1_555
S17 Sm12 3.187781 1_555
S18 Sm10 2.790484 1_555
S18 Sm11 2.821296 1_555
S18 Sm7 2.836613 1_555
S18 Sm9 3.013550 1_454
S18 Sm12 3.018466 1_454
S19 Sm14 2.807175 1_655
S19 Sm5 2.856706 1_555
S19 Sm12 2.881881 1_554
S19 Sm13 3.009637 1_555
S19 Sm11 3.015669 1_655
S20 Sm13 2.807170 1_455
S20 Sm1 2.856682 1_455
S20 Sm15 2.881894 1_556
S20 Sm14 3.009632 1_555
S20 Sm11 3.015691 1_555
S21 Sm13 2.832708 1_555
S21 Sm11 2.844854 1_655
S21 Sm12 2.895776 1_554
S21 Sm8 2.994162 1_555
S21 Sm9 3.086625 1_565
S21 Sm15 3.187781 1_555
S22 Sm15 2.807168 1_545
S22 Sm7 2.856696 1_555
S22 Sm14 2.881892 1_555
S22 Sm12 3.009633 1_555
S22 Sm0 3.015677 1_545
S23 Sm12 2.807168 1_565
S23 Sm9 2.856696 1_565
S23 Sm13 2.881892 1_555
S23 Sm15 3.009633 1_555
S23 Sm0 3.015677 1_555
