# generated using pymatgen
data_HfZr(Ta2N3)4
_symmetry_space_group_name_H-M   'P 1'
_cell_length_a   5.23916645
_cell_length_b   5.23916686
_cell_length_c   10.47965320
_cell_angle_alpha   90.00000000
_cell_angle_beta   90.00000000
_cell_angle_gamma   119.99999746
_symmetry_Int_Tables_number   1
_chemical_formula_structural   HfZr(Ta2N3)4
_chemical_formula_sum   'Hf1 Zr1 Ta8 N12'
_cell_volume   249.11620578
_cell_formula_units_Z   1
loop_
 _symmetry_equiv_pos_site_id
 _symmetry_equiv_pos_as_xyz
  1  'x, y, z'
loop_
 _atom_site_type_symbol
 _atom_site_label
 _atom_site_symmetry_multiplicity
 _atom_site_fract_x
 _atom_site_fract_y
 _atom_site_fract_z
 _atom_site_occupancy
  Hf  Hf0  1  0.33333300  0.66666700  0.00000000  1
  Zr  Zr0  1  0.66666700  0.33333300  0.00000000  1
  Ta  Ta0  1  0.67702463  0.67665890  0.74590912  1
  Ta  Ta1  1  0.32334110  0.00036573  0.74590912  1
  Ta  Ta2  1  0.99963427  0.32297537  0.74590912  1
  Ta  Ta3  1  0.32334110  0.32297537  0.25409088  1
  Ta  Ta4  1  0.67702463  0.00036573  0.25409088  1
  Ta  Ta5  1  0.99963427  0.67665890  0.25409088  1
  Ta  Ta6  1  0.33333300  0.66666700  0.50000000  1
  Ta  Ta7  1  0.66666700  0.33333300  0.50000000  1
  N  N0  1  0.65784134  0.65792717  0.38248716  1
  N  N1  1  0.34207283  0.99991417  0.38248716  1
  N  N2  1  0.00008583  0.34215866  0.38248716  1
  N  N3  1  0.34207283  0.34215866  0.61751284  1
  N  N4  1  0.65784134  0.99991417  0.61751284  1
  N  N5  1  0.00008583  0.65792717  0.61751284  1
  N  N6  1  0.34237770  0.34542542  0.87106965  1
  N  N7  1  0.65457458  0.99695228  0.87106965  1
  N  N8  1  0.00304772  0.65762230  0.87106965  1
  N  N9  1  0.65457458  0.65762230  0.12893035  1
  N  N10  1  0.34237770  0.99695228  0.12893035  1
  N  N11  1  0.00304772  0.34542542  0.12893035  1
loop_
_geom_bond_atom_site_label_1
_geom_bond_atom_site_label_2
_geom_bond_distance
_geom_bond_site_symmetry_2
Hf0 N8 2.177198 1_554
Hf0 N10 2.177198 1_555
Hf0 N11 2.177200 1_555
Hf0 N7 2.177200 1_554
Hf0 N9 2.177202 1_555
Hf0 N6 2.177202 1_554
N0 Ta6 2.118264 1_555
N0 Ta7 2.118820 1_555
N0 Ta5 2.202507 1_555
N0 Ta4 2.204327 1_565
N0 Ta3 2.210411 1_555
N1 Ta6 2.118260 1_555
N1 Ta7 2.118818 1_565
N1 Ta3 2.202507 1_565
N1 Ta5 2.204327 1_455
N1 Ta4 2.210411 1_565
N2 Ta6 2.118262 1_555
N2 Ta7 2.118816 1_455
N2 Ta4 2.202507 1_455
N2 Ta3 2.204327 1_555
N2 Ta5 2.210411 1_455
N3 Ta6 2.118264 1_555
N3 Ta7 2.118820 1_555
N3 Ta1 2.202507 1_555
N3 Ta2 2.204327 1_455
N3 Ta0 2.210411 1_555
N4 Ta6 2.118262 1_555
N4 Ta7 2.118816 1_565
N4 Ta2 2.202507 1_565
N4 Ta0 2.204327 1_555
N4 Ta1 2.210411 1_565
N5 Ta6 2.118260 1_555
N5 Ta7 2.118818 1_455
N5 Ta0 2.202507 1_455
N5 Ta1 2.204327 1_565
N5 Ta2 2.210411 1_455
N6 Ta2 2.178882 1_455
N6 Ta0 2.182503 1_555
N6 Ta1 2.195056 1_555
N6 Zr0 2.196330 1_556
N7 Ta0 2.178882 1_555
N7 Ta1 2.182503 1_565
N7 Ta2 2.195056 1_565
N7 Zr0 2.196326 1_566
N8 Ta1 2.178882 1_565
N8 Ta2 2.182503 1_455
N8 Ta0 2.195056 1_455
N8 Zr0 2.196328 1_456
N9 Ta4 2.178882 1_565
N9 Ta3 2.182503 1_555
N9 Ta5 2.195056 1_555
N9 Zr0 2.196330 1_555
N10 Ta5 2.178882 1_455
N10 Ta4 2.182503 1_565
N10 Ta3 2.195056 1_565
N10 Zr0 2.196328 1_565
N11 Ta3 2.178882 1_555
N11 Ta5 2.182503 1_455
N11 Ta4 2.195056 1_455
N11 Zr0 2.196326 1_455
