# generated using pymatgen
data_Re5TcCl18
_symmetry_space_group_name_H-M   'P 1'
_cell_length_a   9.38087954
_cell_length_b   9.38087882
_cell_length_c   9.36391462
_cell_angle_alpha   66.38191471
_cell_angle_beta   66.38191705
_cell_angle_gamma   66.35216741
_symmetry_Int_Tables_number   1
_chemical_formula_structural   Re5TcCl18
_chemical_formula_sum   'Re5 Tc1 Cl18'
_cell_volume   662.74582492
_cell_formula_units_Z   1
loop_
 _symmetry_equiv_pos_site_id
 _symmetry_equiv_pos_as_xyz
  1  'x, y, z'
loop_
 _atom_site_type_symbol
 _atom_site_label
 _atom_site_symmetry_multiplicity
 _atom_site_fract_x
 _atom_site_fract_y
 _atom_site_fract_z
 _atom_site_occupancy
  Re  Re0  1  0.38018707  0.14405328  0.14446565  1
  Re  Re1  1  0.14405328  0.38018707  0.14446565  1
  Re  Re2  1  0.14365344  0.14365344  0.38122744  1
  Re  Re3  1  0.62046122  0.85590001  0.85504467  1
  Re  Re4  1  0.85590001  0.62046122  0.85504467  1
  Tc  Tc0  1  0.85690009  0.85690009  0.61629053  1
  Cl  Cl0  1  0.37803824  0.90770358  0.37857187  1
  Cl  Cl1  1  0.37782775  0.37782775  0.90746573  1
  Cl  Cl2  1  0.90770358  0.37803824  0.37857187  1
  Cl  Cl3  1  0.62144527  0.09017265  0.62386581  1
  Cl  Cl4  1  0.62268544  0.62268544  0.09200699  1
  Cl  Cl5  1  0.09017265  0.62144527  0.62386581  1
  Cl  Cl6  1  0.32820199  0.00931676  0.00972664  1
  Cl  Cl7  1  0.00931676  0.32820199  0.00972664  1
  Cl  Cl8  1  0.01060366  0.01060366  0.32613034  1
  Cl  Cl9  1  0.67325486  0.98883846  0.99039724  1
  Cl  Cl10  1  0.98883846  0.67325486  0.99039724  1
  Cl  Cl11  1  0.99106005  0.99106005  0.67146205  1
  Cl  Cl12  1  0.53543713  0.21804825  0.21840259  1
  Cl  Cl13  1  0.21804825  0.53543713  0.21840259  1
  Cl  Cl14  1  0.21785840  0.21785840  0.53665292  1
  Cl  Cl15  1  0.46618533  0.78063959  0.78203543  1
  Cl  Cl16  1  0.78063959  0.46618533  0.78203543  1
  Cl  Cl17  1  0.78152448  0.78152448  0.46374719  1
loop_
_geom_bond_atom_site_label_1
_geom_bond_atom_site_label_2
_geom_bond_distance
_geom_bond_site_symmetry_2
Cl0 Re0 2.414066 1_565
Cl0 Re2 2.414611 1_565
Cl1 Re0 2.415695 1_556
Cl1 Re1 2.415695 1_556
Cl2 Re1 2.414066 1_655
Cl2 Re2 2.414611 1_655
Cl3 Re3 2.388358 1_545
Cl3 Tc0 2.407005 1_545
Cl4 Re3 2.412669 1_554
Cl4 Re4 2.412669 1_554
Cl5 Re4 2.388358 1_455
Cl5 Tc0 2.407005 1_455
Cl6 Re0 2.385899 1_555
Cl6 Re3 2.647418 1_544
Cl7 Re1 2.385899 1_555
Cl7 Re4 2.647418 1_454
Cl8 Re2 2.379805 1_555
Cl8 Tc0 2.632474 1_445
Cl9 Re3 2.381548 1_555
Cl9 Re0 2.655836 1_566
Cl10 Re4 2.381548 1_555
Cl10 Re1 2.655836 1_656
Cl11 Tc0 2.397365 1_555
Cl11 Re2 2.625567 1_665
Cl12 Re0 2.255264 1_555
Cl13 Re1 2.255264 1_555
Cl14 Re2 2.258227 1_555
Cl15 Re3 2.249349 1_555
Cl16 Re4 2.249349 1_555
Cl17 Tc0 2.249438 1_555
