# generated using pymatgen
data_Ca3(Bi2Pd)4
_symmetry_space_group_name_H-M   'P 1'
_cell_length_a   4.22400074
_cell_length_b   10.87299914
_cell_length_c   17.12783827
_cell_angle_alpha   90.00094284
_cell_angle_beta   89.99998535
_cell_angle_gamma   90.00001027
_symmetry_Int_Tables_number   1
_chemical_formula_structural   Ca3(Bi2Pd)4
_chemical_formula_sum   'Ca6 Bi16 Pd8'
_cell_volume   786.63975833
_cell_formula_units_Z   2
loop_
 _symmetry_equiv_pos_site_id
 _symmetry_equiv_pos_as_xyz
  1  'x, y, z'
loop_
 _atom_site_type_symbol
 _atom_site_label
 _atom_site_symmetry_multiplicity
 _atom_site_fract_x
 _atom_site_fract_y
 _atom_site_fract_z
 _atom_site_occupancy
  Ca  Ca0  1  0.49999957  0.00000543  0.49997041  1
  Ca  Ca1  1  0.49999978  0.50000420  0.00002239  1
  Ca  Ca2  1  0.50000064  0.85791672  0.19898199  1
  Ca  Ca3  1  0.49999984  0.14208028  0.80103967  1
  Ca  Ca4  1  0.50000016  0.35799478  0.30095775  1
  Ca  Ca5  1  0.49999989  0.64201041  0.69902816  1
  Bi  Bi0  1  -0.00000013  0.11034991  0.21399680  1
  Bi  Bi1  1  0.00000020  0.88964003  0.78602369  1
  Bi  Bi2  1  -0.00000009  0.61032823  0.28597710  1
  Bi  Bi3  1  0.00000008  0.38966332  0.71400003  1
  Bi  Bi4  1  -0.00000034  0.39447356  0.14379618  1
  Bi  Bi5  1  0.00000002  0.60552290  0.85622007  1
  Bi  Bi6  1  -0.00000012  0.89446930  0.35615741  1
  Bi  Bi7  1  0.00000001  0.10554630  0.64382039  1
  Bi  Bi8  1  0.50000014  0.12801716  0.03772264  1
  Bi  Bi9  1  0.50000011  0.87197483  0.96230675  1
  Bi  Bi10  1  0.50000004  0.62802436  0.46226208  1
  Bi  Bi11  1  0.50000017  0.37197576  0.53771200  1
  Bi  Bi12  1  -0.00000008  0.69634876  0.08588480  1
  Bi  Bi13  1  0.00000007  0.30365404  0.91415093  1
  Bi  Bi14  1  -0.00000017  0.19637913  0.41407538  1
  Bi  Bi15  1  0.00000008  0.80361992  0.58589900  1
  Pd  Pd0  1  0.00000008  0.95455925  0.07878895  1
  Pd  Pd1  1  0.00000025  0.04544298  0.92125264  1
  Pd  Pd2  1  0.00000018  0.45460747  0.42117398  1
  Pd  Pd3  1  -0.00000011  0.54541251  0.57877582  1
  Pd  Pd4  1  0.49999948  0.57040789  0.17591086  1
  Pd  Pd5  1  0.50000023  0.42959807  0.82411813  1
  Pd  Pd6  1  0.49999990  0.07042546  0.32402916  1
  Pd  Pd7  1  0.50000011  0.92954705  0.67594485  1
loop_
_geom_bond_atom_site_label_1
_geom_bond_atom_site_label_2
_geom_bond_distance
_geom_bond_site_symmetry_2
Ca0 Pd6 3.109257 1_555
Ca0 Pd7 3.109911 1_545
Ca1 Pd4 3.108313 1_555
Ca1 Pd5 3.108581 1_554
Ca2 Pd0 3.130942 1_655
Ca2 Pd0 3.130946 1_555
Ca2 Pd6 3.150555 1_565
Ca2 Pd4 3.150953 1_555
Ca3 Pd1 3.131148 1_555
Ca3 Pd1 3.131151 1_655
Ca3 Pd5 3.151066 1_555
Ca3 Pd7 3.151305 1_545
Ca4 Pd2 3.131074 1_555
Ca4 Pd2 3.131074 1_655
Ca4 Pd4 3.149841 1_555
Ca4 Pd6 3.151619 1_555
Ca5 Pd3 3.131426 1_655
Ca5 Pd3 3.131427 1_555
Ca5 Pd5 3.150337 1_555
Ca5 Pd7 3.151292 1_555
Bi0 Pd6 2.863702 1_455
Bi0 Pd6 2.863703 1_555
Bi0 Pd0 2.869185 1_545
Bi0 Ca2 3.472759 1_445
Bi0 Ca2 3.472763 1_545
Bi0 Ca4 3.732185 1_455
Bi0 Ca4 3.732186 1_555
Bi1 Pd7 2.864197 1_555
Bi1 Pd7 2.864199 1_455
Bi1 Pd1 2.869555 1_565
Bi1 Ca3 3.472822 1_565
Bi1 Ca3 3.472824 1_465
Bi1 Ca5 3.732301 1_555
Bi1 Ca5 3.732303 1_455
Bi2 Pd4 2.864067 1_555
Bi2 Pd4 2.864070 1_455
Bi2 Pd2 2.868630 1_555
Bi2 Ca4 3.471866 1_455
Bi2 Ca4 3.471868 1_555
Bi2 Ca2 3.732011 1_455
Bi2 Ca2 3.732013 1_555
Bi3 Pd5 2.864676 1_455
Bi3 Pd5 2.864678 1_555
Bi3 Pd3 2.869190 1_555
Bi3 Ca5 3.471973 1_555
Bi3 Ca5 3.471974 1_455
Bi3 Ca3 3.732274 1_555
Bi3 Ca3 3.732274 1_455
Bi4 Pd4 2.902134 1_555
Bi4 Pd4 2.902136 1_455
Bi4 Ca1 3.441122 1_555
Bi4 Ca1 3.441122 1_455
Bi4 Ca4 3.444398 1_455
Bi4 Ca4 3.444402 1_555
Bi5 Pd5 2.902025 1_455
Bi5 Pd5 2.902026 1_555
Bi5 Ca1 3.441428 1_556
Bi5 Ca1 3.441428 1_456
Bi5 Ca5 3.444816 1_555
Bi5 Ca5 3.444818 1_455
Bi6 Pd6 2.902347 1_565
Bi6 Pd6 2.902348 1_465
Bi6 Ca0 3.441595 1_565
Bi6 Ca0 3.441596 1_465
Bi6 Ca2 3.444666 1_455
Bi6 Ca2 3.444669 1_555
Bi7 Pd7 2.902643 1_445
Bi7 Pd7 2.902645 1_545
Bi7 Ca0 3.442064 1_555
Bi7 Ca0 3.442067 1_455
Bi7 Ca3 3.445231 1_555
Bi7 Ca3 3.445231 1_455
Bi8 Pd0 2.917594 1_545
Bi8 Pd0 2.917594 1_645
Bi8 Pd1 3.040744 1_554
Bi8 Pd1 3.040745 1_654
Bi9 Pd1 2.917615 1_565
Bi9 Pd1 2.917615 1_665
Bi9 Pd0 3.040914 1_556
Bi9 Pd0 3.040915 1_656
Bi10 Pd2 2.917380 1_555
Bi10 Pd2 2.917381 1_655
Bi10 Pd3 3.041376 1_555
Bi10 Pd3 3.041376 1_655
Bi11 Pd3 2.917419 1_655
Bi11 Pd3 2.917421 1_555
Bi11 Pd2 3.041713 1_655
Bi11 Pd2 3.041713 1_555
Bi12 Pd0 2.810154 1_555
Bi12 Pd4 2.951840 1_555
Bi12 Pd4 2.951842 1_455
Bi12 Ca1 3.343773 1_555
Bi12 Ca1 3.343774 1_455
Bi12 Ca2 3.361385 1_455
Bi12 Ca2 3.361389 1_555
Bi13 Pd1 2.810164 1_555
Bi13 Pd5 2.951917 1_455
Bi13 Pd5 2.951917 1_555
Bi13 Ca1 3.343879 1_556
Bi13 Ca1 3.343881 1_456
Bi13 Ca3 3.361558 1_555
Bi13 Ca3 3.361560 1_455
Bi14 Pd2 2.810346 1_555
Bi14 Pd6 2.952062 1_455
Bi14 Pd6 2.952062 1_555
Bi14 Ca0 3.344252 1_555
Bi14 Ca0 3.344252 1_455
Bi14 Ca4 3.361893 1_455
Bi14 Ca4 3.361894 1_555
Bi15 Pd3 2.810137 1_555
Bi15 Pd7 2.951925 1_455
Bi15 Pd7 2.951925 1_555
Bi15 Ca0 3.344585 1_565
Bi15 Ca0 3.344589 1_465
Bi15 Ca5 3.361972 1_455
Bi15 Ca5 3.361972 1_555
Pd0 Pd1 2.873530 1_564
Pd2 Pd3 2.874259 1_555
