# generated using pymatgen
data_Li2Lu2Si2Ge
_symmetry_space_group_name_H-M   'P 1'
_cell_length_a   9.08946009
_cell_length_b   9.08945977
_cell_length_c   6.62881944
_cell_angle_alpha   90.00000000
_cell_angle_beta   90.00000000
_cell_angle_gamma   153.50472628
_symmetry_Int_Tables_number   1
_chemical_formula_structural   Li2Lu2Si2Ge
_chemical_formula_sum   'Li4 Lu4 Si4 Ge2'
_cell_volume   244.32501002
_cell_formula_units_Z   2
loop_
 _symmetry_equiv_pos_site_id
 _symmetry_equiv_pos_as_xyz
  1  'x, y, z'
loop_
 _atom_site_type_symbol
 _atom_site_label
 _atom_site_symmetry_multiplicity
 _atom_site_fract_x
 _atom_site_fract_y
 _atom_site_fract_z
 _atom_site_occupancy
  Li  Li0  1  0.80924991  0.19075009  0.55942775  1
  Li  Li1  1  0.19075009  0.80924991  0.44057225  1
  Li  Li2  1  0.19075009  0.80924991  0.05942775  1
  Li  Li3  1  0.80924991  0.19075009  0.94057225  1
  Lu  Lu0  1  0.55278176  0.44721824  0.25000000  1
  Lu  Lu1  1  0.44721824  0.55278176  0.75000000  1
  Lu  Lu2  1  0.34502689  0.65497311  0.25000000  1
  Lu  Lu3  1  0.65497311  0.34502689  0.75000000  1
  Si  Si0  1  0.93991995  0.06008005  0.07137143  1
  Si  Si1  1  0.06008005  0.93991995  0.92862857  1
  Si  Si2  1  0.06008005  0.93991995  0.57137143  1
  Si  Si3  1  0.93991995  0.06008005  0.42862857  1
  Ge  Ge0  1  0.72115485  0.27884515  0.25000000  1
  Ge  Ge1  1  0.27884515  0.72115485  0.75000000  1
loop_
_geom_bond_atom_site_label_1
_geom_bond_atom_site_label_2
_geom_bond_distance
_geom_bond_site_symmetry_2
Li0 Si3 2.469445 1_555
Li0 Lu2 2.991090 1_545
Li0 Lu2 2.991090 1_655
Li0 Lu3 3.008070 1_555
Li1 Si2 2.469445 1_555
Li1 Lu3 2.991090 1_565
Li1 Lu3 2.991090 1_455
Li1 Lu2 3.008070 1_555
Li2 Si1 2.469445 1_554
Li2 Lu3 2.991090 1_564
Li2 Lu3 2.991090 1_454
Li2 Lu2 3.008070 1_555
Li3 Si0 2.469445 1_556
Li3 Lu2 2.991090 1_546
Li3 Lu2 2.991090 1_656
Li3 Lu3 3.008070 1_555
Lu0 Si1 2.982208 1_544
Lu0 Si2 2.982208 1_545
Lu0 Si1 2.982208 1_654
Lu0 Si2 2.982208 1_655
Lu0 Si3 3.119162 1_565
Lu0 Si0 3.119162 1_565
Lu0 Si3 3.119162 1_455
Lu0 Si0 3.119162 1_455
Lu1 Si0 2.982208 1_566
Lu1 Si3 2.982208 1_565
Lu1 Si0 2.982208 1_456
Lu1 Si3 2.982208 1_455
Lu1 Si1 3.119162 1_545
Lu1 Si2 3.119162 1_545
Lu1 Si2 3.119162 1_655
Lu1 Si1 3.119162 1_655
Lu2 Si3 2.925794 1_455
Lu2 Si0 2.925794 1_455
Lu2 Si3 2.925794 1_565
Lu2 Si0 2.925794 1_565
Lu3 Si2 2.925794 1_655
Lu3 Si1 2.925794 1_655
Lu3 Si2 2.925794 1_545
Lu3 Si1 2.925794 1_545
Si0 Si1 2.327289 1_644
Si0 Si3 2.368193 1_555
Si1 Si2 2.368193 1_555
Si2 Si3 2.327289 1_465
Ge0 Li1 2.494787 1_655
Ge0 Li2 2.494787 1_655
Ge0 Li1 2.494787 1_545
Ge0 Li2 2.494787 1_545
Ge0 Li0 2.576278 1_555
Ge0 Li3 2.576278 1_554
Ge0 Lu0 2.979388 1_555
Ge0 Lu2 3.023777 1_545
Ge0 Lu2 3.023777 1_655
Ge1 Li3 2.494787 1_455
Ge1 Li0 2.494787 1_455
Ge1 Li3 2.494787 1_565
Ge1 Li0 2.494787 1_565
Ge1 Li2 2.576278 1_556
Ge1 Li1 2.576278 1_555
Ge1 Lu1 2.979388 1_555
Ge1 Lu3 3.023777 1_565
Ge1 Lu3 3.023777 1_455
