# generated using pymatgen
data_CaCd(AgO2)4
_symmetry_space_group_name_H-M   'P 1'
_cell_length_a   6.53797600
_cell_length_b   6.53797630
_cell_length_c   6.53797579
_cell_angle_alpha   126.25518826
_cell_angle_beta   126.25518693
_cell_angle_gamma   79.46912715
_symmetry_Int_Tables_number   1
_chemical_formula_structural   CaCd(AgO2)4
_chemical_formula_sum   'Ca1 Cd1 Ag4 O8'
_cell_volume   175.63499380
_cell_formula_units_Z   1
loop_
 _symmetry_equiv_pos_site_id
 _symmetry_equiv_pos_as_xyz
  1  'x, y, z'
loop_
 _atom_site_type_symbol
 _atom_site_label
 _atom_site_symmetry_multiplicity
 _atom_site_fract_x
 _atom_site_fract_y
 _atom_site_fract_z
 _atom_site_occupancy
  Ca  Ca0  1  0.00000000  0.00000000  0.00000000  1
  Cd  Cd0  1  0.75000000  0.25000000  0.50000000  1
  Ag  Ag0  1  0.37431028  0.12586231  0.75065157  1
  Ag  Ag1  1  0.37521073  0.62365871  0.24934843  1
  Ag  Ag2  1  0.87413769  0.62478927  0.24844798  1
  Ag  Ag3  1  0.37634129  0.62568972  0.75155202  1
  O  O0  1  0.04575747  0.99754955  0.64470411  1
  O  O1  1  0.59894664  0.95424253  0.95179208  1
  O  O2  1  0.00245045  0.64715456  0.04820792  1
  O  O3  1  0.40402649  0.84889694  0.14937808  1
  O  O4  1  0.74535160  0.59597351  0.44487046  1
  O  O5  1  0.15110306  0.30048114  0.55512954  1
  O  O6  1  0.35284544  0.40105336  0.35529589  1
  O  O7  1  0.69951886  0.25464840  0.85062192  1
loop_
_geom_bond_atom_site_label_1
_geom_bond_atom_site_label_2
_geom_bond_distance
_geom_bond_site_symmetry_2
Ca0 O5 2.458327 1_555
Ca0 O4 2.458327 1_444
Ca0 O3 2.458327 1_545
Ca0 O7 2.458327 1_454
Ca0 O0 2.502371 1_544
Ca0 O1 2.502371 1_444
Ca0 O6 2.502371 1_555
Ca0 O2 2.502371 1_545
Cd0 O1 2.423808 1_544
Cd0 O2 2.423808 1_656
Cd0 O6 2.423808 1_555
Cd0 O0 2.423808 1_645
Cd0 O7 2.484662 1_555
Cd0 O5 2.484662 1_655
Cd0 O3 2.484662 1_545
Cd0 O4 2.484662 1_555
Ag0 O5 1.994444 1_555
Ag0 O1 2.000959 1_545
Ag0 O0 2.002325 1_545
Ag0 O7 2.004173 1_555
Ag1 O4 1.994444 1_555
Ag1 O2 2.000959 1_555
Ag1 O6 2.002325 1_555
Ag1 O3 2.004173 1_555
Ag2 O7 1.994444 1_554
Ag2 O0 2.000959 1_655
Ag2 O2 2.002325 1_655
Ag2 O4 2.004173 1_555
Ag3 O3 1.994444 1_556
Ag3 O6 2.000959 1_555
Ag3 O1 2.002325 1_555
Ag3 O5 2.004173 1_555
