# generated using pymatgen
data_K3BiO4
_symmetry_space_group_name_H-M   'P 1'
_cell_length_a   6.46310188
_cell_length_b   6.62914623
_cell_length_c   7.68328017
_cell_angle_alpha   101.20173509
_cell_angle_beta   97.22554364
_cell_angle_gamma   105.89792744
_symmetry_Int_Tables_number   1
_chemical_formula_structural   K3BiO4
_chemical_formula_sum   'K6 Bi2 O8'
_cell_volume   304.92591943
_cell_formula_units_Z   2
loop_
 _symmetry_equiv_pos_site_id
 _symmetry_equiv_pos_as_xyz
  1  'x, y, z'
loop_
 _atom_site_type_symbol
 _atom_site_label
 _atom_site_symmetry_multiplicity
 _atom_site_fract_x
 _atom_site_fract_y
 _atom_site_fract_z
 _atom_site_occupancy
  K  K0  1  0.66972958  0.77770438  0.97910366  1
  K  K1  1  0.83564672  0.23288452  0.83259901  1
  K  K2  1  0.64686450  0.77288541  0.46489364  1
  K  K3  1  0.35313550  0.22711459  0.53510636  1
  K  K4  1  0.33027042  0.22229562  0.02089634  1
  K  K5  1  0.16435328  0.76711548  0.16740099  1
  Bi  Bi0  1  0.84730088  0.30144693  0.31425694  1
  Bi  Bi1  1  0.15269912  0.69855307  0.68574306  1
  O  O0  1  0.98028007  0.90094785  0.77059147  1
  O  O1  1  0.01971993  0.09905215  0.22940853  1
  O  O2  1  0.23626315  0.52355587  0.85784651  1
  O  O3  1  0.76373685  0.47644413  0.14215349  1
  O  O4  1  0.44578469  0.94024229  0.72791706  1
  O  O5  1  0.55421531  0.05975771  0.27208294  1
  O  O6  1  0.18319737  0.55092754  0.42497955  1
  O  O7  1  0.81680263  0.44907246  0.57502045  1
loop_
_geom_bond_atom_site_label_1
_geom_bond_atom_site_label_2
_geom_bond_distance
_geom_bond_site_symmetry_2
K0 O3 2.715197 1_556
K0 O0 2.771577 1_555
K0 O2 2.775400 1_555
K0 O4 2.817836 1_555
K0 O1 2.833258 1_666
K0 O5 2.944970 1_566
K1 O0 2.602770 1_545
K1 O4 2.639195 1_545
K1 O7 2.668767 1_555
K1 O2 2.729428 1_655
K1 O3 2.770710 1_556
K2 O4 2.753767 1_555
K2 O5 2.768572 1_565
K2 O0 2.798366 1_555
K2 O7 2.879885 1_555
K2 O6 2.901252 1_555
K2 O3 3.157913 1_555
K3 O5 2.753767 1_555
K3 O4 2.768572 1_545
K3 O1 2.798366 1_555
K3 O6 2.879885 1_555
K3 O7 2.901252 1_555
K3 O2 3.157913 1_555
K4 O2 2.715197 1_554
K4 O1 2.771577 1_555
K4 O3 2.775400 1_555
K4 O5 2.817836 1_555
K4 O0 2.833258 1_444
K4 O4 2.944970 1_544
K5 O1 2.602770 1_565
K5 O5 2.639195 1_565
K5 O6 2.668767 1_555
K5 O3 2.729428 1_455
K5 O2 2.770710 1_554
Bi0 O1 2.031991 1_655
Bi0 O3 2.036077 1_555
Bi0 O5 2.059459 1_555
Bi0 O7 2.110425 1_555
Bi0 O6 2.278961 1_655
Bi1 O0 2.031991 1_455
Bi1 O2 2.036077 1_555
Bi1 O4 2.059459 1_555
Bi1 O6 2.110425 1_555
Bi1 O7 2.278961 1_455
