# generated using pymatgen
data_SrLiCuAs2
_symmetry_space_group_name_H-M   'P 1'
_cell_length_a   6.05093281
_cell_length_b   6.05093216
_cell_length_c   6.05093260
_cell_angle_alpha   138.58977685
_cell_angle_beta   138.58977001
_cell_angle_gamma   60.00092402
_symmetry_Int_Tables_number   1
_chemical_formula_structural   SrLiCuAs2
_chemical_formula_sum   'Sr1 Li1 Cu1 As2'
_cell_volume   95.93512946
_cell_formula_units_Z   1
loop_
 _symmetry_equiv_pos_site_id
 _symmetry_equiv_pos_as_xyz
  1  'x, y, z'
loop_
 _atom_site_type_symbol
 _atom_site_label
 _atom_site_symmetry_multiplicity
 _atom_site_fract_x
 _atom_site_fract_y
 _atom_site_fract_z
 _atom_site_occupancy
  Sr  Sr0  1  0.00000000  0.00000000  0.00000000  1
  Li  Li0  1  0.25000000  0.75000000  0.50000000  1
  Cu  Cu0  1  0.75000000  0.25000000  0.50000000  1
  As  As0  1  0.62380744  0.62380744  1.00000000  1
  As  As1  1  0.37619256  0.37619256  0.00000000  1
loop_
_geom_bond_atom_site_label_1
_geom_bond_atom_site_label_2
_geom_bond_distance
_geom_bond_site_symmetry_2
Li0 Sr0 3.382583 1_555
Li0 Sr0 3.382584 1_565
Li0 Sr0 3.382584 1_566
Li0 Sr0 3.382584 1_666
Cu0 Li0 3.025508 1_544
Cu0 Li0 3.025508 1_656
Cu0 Li0 3.025508 1_555
Cu0 Li0 3.025508 1_645
Cu0 Sr0 3.382583 1_666
Cu0 Sr0 3.382584 1_656
Cu0 Sr0 3.382584 1_655
Cu0 Sr0 3.382584 1_555
As0 Cu0 2.515156 1_566
As0 Cu0 2.515156 1_555
As0 Li0 2.515156 1_555
As0 Li0 2.515156 1_656
As0 As1 2.595121 1_556
As0 Sr0 3.292015 1_656
As0 Sr0 3.292015 1_555
As0 Sr0 3.292015 1_667
As0 Sr0 3.292016 1_566
As1 Li0 2.515156 1_544
As1 Li0 2.515156 1_555
As1 Cu0 2.515156 1_555
As1 Cu0 2.515156 1_454
As1 Sr0 3.292015 1_565
As1 Sr0 3.292015 1_666
As1 Sr0 3.292015 1_554
As1 Sr0 3.292016 1_655
