# generated using pymatgen
data_Lu2Nb(Ni10B3)2
_symmetry_space_group_name_H-M   'P 1'
_cell_length_a   7.49668428
_cell_length_b   7.49668384
_cell_length_c   7.49668434
_cell_angle_alpha   60.00000212
_cell_angle_beta   60.00000402
_cell_angle_gamma   60.00000078
_symmetry_Int_Tables_number   1
_chemical_formula_structural   Lu2Nb(Ni10B3)2
_chemical_formula_sum   'Lu2 Nb1 Ni20 B6'
_cell_volume   297.91520280
_cell_formula_units_Z   1
loop_
 _symmetry_equiv_pos_site_id
 _symmetry_equiv_pos_as_xyz
  1  'x, y, z'
loop_
 _atom_site_type_symbol
 _atom_site_label
 _atom_site_symmetry_multiplicity
 _atom_site_fract_x
 _atom_site_fract_y
 _atom_site_fract_z
 _atom_site_occupancy
  Lu  Lu0  1  0.25000000  0.25000000  0.25000000  1
  Lu  Lu1  1  0.75000000  0.75000000  0.75000000  1
  Nb  Nb0  1  0.00000000  0.00000000  0.00000000  1
  Ni  Ni0  1  0.38724810  0.38724810  0.38724810  1
  Ni  Ni1  1  0.61275190  0.61275190  0.61275190  1
  Ni  Ni2  1  0.38724810  0.38724810  0.83825570  1
  Ni  Ni3  1  0.38724810  0.83825570  0.38724810  1
  Ni  Ni4  1  0.61275190  0.61275190  0.16174430  1
  Ni  Ni5  1  0.61275190  0.16174430  0.61275190  1
  Ni  Ni6  1  0.83825570  0.38724810  0.38724810  1
  Ni  Ni7  1  0.16174430  0.61275190  0.61275190  1
  Ni  Ni8  1  0.34197688  0.00000000  0.00000000  1
  Ni  Ni9  1  0.65802312  1.00000000  1.00000000  1
  Ni  Ni10  1  1.00000000  0.34197688  0.65802312  1
  Ni  Ni11  1  0.00000000  0.65802312  0.34197688  1
  Ni  Ni12  1  1.00000000  0.34197688  0.00000000  1
  Ni  Ni13  1  0.65802312  0.00000000  0.34197688  1
  Ni  Ni14  1  0.00000000  0.65802312  1.00000000  1
  Ni  Ni15  1  0.34197688  1.00000000  0.65802312  1
  Ni  Ni16  1  0.00000000  0.00000000  0.34197688  1
  Ni  Ni17  1  1.00000000  1.00000000  0.65802312  1
  Ni  Ni18  1  0.65802312  0.34197688  1.00000000  1
  Ni  Ni19  1  0.34197688  0.65802312  0.00000000  1
  B  B0  1  0.73140120  0.26859880  0.26859880  1
  B  B1  1  0.26859880  0.73140120  0.73140120  1
  B  B2  1  0.26859880  0.73140120  0.26859880  1
  B  B3  1  0.73140120  0.26859880  0.73140120  1
  B  B4  1  0.26859880  0.26859880  0.73140120  1
  B  B5  1  0.73140120  0.73140120  0.26859880  1
loop_
_geom_bond_atom_site_label_1
_geom_bond_atom_site_label_2
_geom_bond_distance
_geom_bond_site_symmetry_2
Lu0 Ni3 2.520294 1_545
Lu0 Ni0 2.520294 1_555
Lu0 Ni6 2.520294 1_455
Lu0 Ni2 2.520294 1_554
Lu0 Ni11 2.903176 1_555
Lu0 Ni8 2.903176 1_555
Lu0 Ni19 2.903176 1_555
Lu0 Ni16 2.903176 1_555
Lu0 Ni14 2.903176 1_554
Lu0 Ni12 2.903176 1_455
Lu0 Ni13 2.903176 1_555
Lu0 Ni15 2.903176 1_545
Lu0 Ni9 2.903176 1_544
Lu0 Ni10 2.903176 1_455
Lu0 Ni18 2.903176 1_554
Lu0 Ni17 2.903176 1_445
Lu1 Ni5 2.520294 1_565
Lu1 Ni1 2.520294 1_555
Lu1 Ni7 2.520294 1_655
Lu1 Ni4 2.520294 1_556
Lu1 Ni10 2.903176 1_555
Lu1 Ni9 2.903176 1_555
Lu1 Ni18 2.903176 1_555
Lu1 Ni17 2.903176 1_555
Lu1 Ni12 2.903176 1_556
Lu1 Ni14 2.903176 1_655
Lu1 Ni15 2.903176 1_555
Lu1 Ni13 2.903176 1_565
Lu1 Ni8 2.903176 1_566
Lu1 Ni11 2.903176 1_655
Lu1 Ni19 2.903176 1_556
Lu1 Ni16 2.903176 1_665
Nb0 Ni12 2.563693 1_455
Nb0 Ni14 2.563693 1_544
Nb0 Ni19 2.563693 1_545
Nb0 Ni18 2.563693 1_454
Nb0 Ni8 2.563693 1_555
Nb0 Ni9 2.563693 1_444
Nb0 Ni11 2.563693 1_545
Nb0 Ni10 2.563693 1_454
Nb0 Ni16 2.563693 1_555
Nb0 Ni17 2.563693 1_444
Nb0 Ni15 2.563693 1_544
Nb0 Ni13 2.563693 1_455
B0 Ni13 2.087388 1_555
B0 Ni16 2.087388 1_655
B0 Ni18 2.087388 1_554
B0 Ni12 2.087388 1_555
B0 Ni4 2.107185 1_555
B0 Ni6 2.107185 1_555
B0 Ni0 2.107186 1_555
B0 Ni5 2.107186 1_555
B1 Ni15 2.087388 1_555
B1 Ni17 2.087388 1_455
B1 Ni19 2.087388 1_556
B1 Ni14 2.087388 1_555
B1 Ni2 2.107185 1_555
B1 Ni7 2.107185 1_555
B1 Ni1 2.107186 1_555
B1 Ni3 2.107186 1_555
B2 Ni16 2.087388 1_565
B2 Ni11 2.087388 1_555
B2 Ni19 2.087388 1_555
B2 Ni8 2.087388 1_565
B2 Ni0 2.107185 1_555
B2 Ni3 2.107185 1_555
B2 Ni4 2.107186 1_555
B2 Ni7 2.107186 1_555
B3 Ni17 2.087388 1_545
B3 Ni10 2.087388 1_555
B3 Ni18 2.087388 1_555
B3 Ni9 2.087388 1_545
B3 Ni1 2.107185 1_555
B3 Ni5 2.107185 1_555
B3 Ni2 2.107186 1_555
B3 Ni6 2.107186 1_555
B4 Ni15 2.087388 1_545
B4 Ni10 2.087388 1_455
B4 Ni8 2.087388 1_556
B4 Ni12 2.087388 1_456
B4 Ni7 2.107185 1_555
B4 Ni2 2.107185 1_555
B4 Ni5 2.107186 1_555
B4 Ni0 2.107186 1_555
B5 Ni13 2.087388 1_565
B5 Ni11 2.087388 1_655
B5 Ni9 2.087388 1_554
B5 Ni14 2.087388 1_654
B5 Ni6 2.107185 1_555
B5 Ni4 2.107185 1_555
B5 Ni3 2.107186 1_555
B5 Ni1 2.107186 1_555
