# generated using pymatgen
data_SiRh2Se5
_symmetry_space_group_name_H-M   'P 1'
_cell_length_a   3.64681850
_cell_length_b   7.69503408
_cell_length_c   12.90047652
_cell_angle_alpha   77.51715999
_cell_angle_beta   90.00000000
_cell_angle_gamma   90.00000000
_symmetry_Int_Tables_number   1
_chemical_formula_structural   SiRh2Se5
_chemical_formula_sum   'Si2 Rh4 Se10'
_cell_volume   353.46041069
_cell_formula_units_Z   2
loop_
 _symmetry_equiv_pos_site_id
 _symmetry_equiv_pos_as_xyz
  1  'x, y, z'
loop_
 _atom_site_type_symbol
 _atom_site_label
 _atom_site_symmetry_multiplicity
 _atom_site_fract_x
 _atom_site_fract_y
 _atom_site_fract_z
 _atom_site_occupancy
  Si  Si0  1  0.50000000  0.15739243  0.68649951  1
  Si  Si1  1  0.50000000  0.84260757  0.31350049  1
  Rh  Rh0  1  0.00000000  0.25101558  0.15160725  1
  Rh  Rh1  1  0.00000000  0.74898442  0.84839275  1
  Rh  Rh2  1  0.50000000  0.74702950  0.15159569  1
  Rh  Rh3  1  0.50000000  0.25297050  0.84840431  1
  Se  Se0  1  0.00000000  0.95809332  0.10129870  1
  Se  Se1  1  0.00000000  0.04190668  0.89870130  1
  Se  Se2  1  0.00000000  0.47100603  0.77474260  1
  Se  Se3  1  0.00000000  0.52899397  0.22525740  1
  Se  Se4  1  0.50000000  0.66004943  0.97463638  1
  Se  Se5  1  0.50000000  0.33995057  0.02536362  1
  Se  Se6  1  0.50000000  0.15631599  0.28497688  1
  Se  Se7  1  0.50000000  0.84368401  0.71502312  1
  Se  Se8  1  0.00000000  0.22981247  0.57234051  1
  Se  Se9  1  0.00000000  0.77018753  0.42765949  1
loop_
_geom_bond_atom_site_label_1
_geom_bond_atom_site_label_2
_geom_bond_distance
_geom_bond_site_symmetry_2
Rh0 Se5 2.442069 1_555
Rh0 Se5 2.442069 1_455
Rh0 Se0 2.476758 1_545
Rh0 Se6 2.504811 1_555
Rh0 Se6 2.504811 1_455
Rh0 Se3 2.521281 1_555
Rh1 Se4 2.442069 1_555
Rh1 Se4 2.442069 1_455
Rh1 Se1 2.476758 1_565
Rh1 Se7 2.504811 1_555
Rh1 Se7 2.504811 1_455
Rh1 Se2 2.521281 1_555
Rh2 Si1 2.359544 1_555
Rh2 Se0 2.434771 1_655
Rh2 Se0 2.434771 1_555
Rh2 Se4 2.513952 1_554
Rh2 Se3 2.520632 1_555
Rh2 Se3 2.520632 1_655
Rh3 Si0 2.359544 1_555
Rh3 Se1 2.434771 1_555
Rh3 Se1 2.434771 1_655
Rh3 Se5 2.513952 1_556
Rh3 Se2 2.520632 1_655
Rh3 Se2 2.520632 1_555
Se0 Se1 2.553074 1_564
Se4 Se5 2.408037 1_556
Se6 Si1 2.361945 1_545
Se7 Si0 2.361945 1_565
Se8 Si0 2.334406 1_455
Se8 Si0 2.334406 1_555
Se9 Si1 2.334406 1_455
Se9 Si1 2.334406 1_555
