# generated using pymatgen
data_YLu2NiRh8
_symmetry_space_group_name_H-M   'P 1'
_cell_length_a   5.18432338
_cell_length_b   5.18432467
_cell_length_c   17.00832928
_cell_angle_alpha   90.00000000
_cell_angle_beta   90.00000000
_cell_angle_gamma   119.99999174
_symmetry_Int_Tables_number   1
_chemical_formula_structural   YLu2NiRh8
_chemical_formula_sum   'Y2 Lu4 Ni2 Rh16'
_cell_volume   395.89188362
_cell_formula_units_Z   2
loop_
 _symmetry_equiv_pos_site_id
 _symmetry_equiv_pos_as_xyz
  1  'x, y, z'
loop_
 _atom_site_type_symbol
 _atom_site_label
 _atom_site_symmetry_multiplicity
 _atom_site_fract_x
 _atom_site_fract_y
 _atom_site_fract_z
 _atom_site_occupancy
  Y  Y0  1  0.33333300  0.66666700  0.75000000  1
  Y  Y1  1  0.66666700  0.33333300  0.25000000  1
  Lu  Lu0  1  0.33333300  0.66666700  0.95842982  1
  Lu  Lu1  1  0.66666700  0.33333300  0.04157018  1
  Lu  Lu2  1  0.66666700  0.33333300  0.45842982  1
  Lu  Lu3  1  0.33333300  0.66666700  0.54157018  1
  Ni  Ni0  1  0.33333300  0.66666700  0.25000000  1
  Ni  Ni1  1  0.66666700  0.33333300  0.75000000  1
  Rh  Rh0  1  0.16910282  0.83089718  0.37371357  1
  Rh  Rh1  1  0.16910282  0.33820663  0.37371357  1
  Rh  Rh2  1  0.66179337  0.83089718  0.37371357  1
  Rh  Rh3  1  0.83089718  0.16910282  0.62628643  1
  Rh  Rh4  1  0.83089718  0.66179337  0.62628643  1
  Rh  Rh5  1  0.33820663  0.16910282  0.62628643  1
  Rh  Rh6  1  0.83089718  0.16910282  0.87371357  1
  Rh  Rh7  1  0.83089718  0.66179337  0.87371357  1
  Rh  Rh8  1  0.33820663  0.16910282  0.87371357  1
  Rh  Rh9  1  0.16910282  0.83089718  0.12628643  1
  Rh  Rh10  1  0.16910282  0.33820663  0.12628643  1
  Rh  Rh11  1  0.66179337  0.83089718  0.12628643  1
  Rh  Rh12  1  0.00000000  0.00000000  0.25000000  1
  Rh  Rh13  1  0.00000000  0.00000000  0.75000000  1
  Rh  Rh14  1  0.00000000  0.00000000  0.50000000  1
  Rh  Rh15  1  0.00000000  0.00000000  0.00000000  1
loop_
_geom_bond_atom_site_label_1
_geom_bond_atom_site_label_2
_geom_bond_distance
_geom_bond_site_symmetry_2
Lu0 Rh7 2.965787 1_455
Lu0 Rh8 2.965788 1_565
Lu0 Rh6 2.965792 1_455
Lu0 Rh6 2.965792 1_565
Lu0 Rh7 2.965796 1_555
Lu0 Rh8 2.965797 1_555
Lu0 Rh15 3.075542 1_566
Lu0 Rh15 3.075546 1_666
Lu0 Rh15 3.075547 1_556
Lu0 Rh11 3.213341 1_556
Lu0 Rh9 3.213341 1_556
Lu0 Rh10 3.213341 1_556
Lu1 Rh10 2.965787 1_655
Lu1 Rh11 2.965788 1_545
Lu1 Rh9 2.965792 1_655
Lu1 Rh9 2.965792 1_545
Lu1 Rh10 2.965796 1_555
Lu1 Rh11 2.965797 1_555
Lu1 Rh15 3.075542 1_655
Lu1 Rh15 3.075546 1_555
Lu1 Rh15 3.075547 1_665
Lu1 Rh8 3.213341 1_554
Lu1 Rh6 3.213341 1_554
Lu1 Rh7 3.213341 1_554
Lu2 Rh1 2.965787 1_655
Lu2 Rh2 2.965788 1_545
Lu2 Rh0 2.965792 1_655
Lu2 Rh0 2.965792 1_545
Lu2 Rh1 2.965796 1_555
Lu2 Rh2 2.965797 1_555
Lu2 Rh14 3.075542 1_655
Lu2 Rh14 3.075546 1_555
Lu2 Rh14 3.075547 1_665
Lu2 Rh5 3.213341 1_555
Lu2 Rh3 3.213341 1_555
Lu2 Rh4 3.213341 1_555
Lu3 Rh4 2.965787 1_455
Lu3 Rh5 2.965788 1_565
Lu3 Rh3 2.965792 1_455
Lu3 Rh3 2.965792 1_565
Lu3 Rh4 2.965796 1_555
Lu3 Rh5 2.965797 1_555
Lu3 Rh14 3.075542 1_565
Lu3 Rh14 3.075546 1_665
Lu3 Rh14 3.075547 1_555
Lu3 Rh2 3.213341 1_555
Lu3 Rh0 3.213341 1_555
Lu3 Rh1 3.213341 1_555
Ni0 Rh2 2.569485 1_555
Ni0 Rh11 2.569485 1_555
Ni0 Rh0 2.569485 1_555
Ni0 Rh9 2.569485 1_555
Ni0 Rh1 2.569485 1_555
Ni0 Rh10 2.569485 1_555
Ni0 Rh12 2.993168 1_565
Ni0 Y1 2.993168 1_455
Ni0 Y1 2.993169 1_565
Ni0 Rh12 2.993172 1_665
Ni0 Rh12 2.993173 1_555
Ni0 Y1 2.993177 1_555
Ni1 Rh8 2.569485 1_555
Ni1 Rh5 2.569485 1_555
Ni1 Rh6 2.569485 1_555
Ni1 Rh3 2.569485 1_555
Ni1 Rh7 2.569485 1_555
Ni1 Rh4 2.569485 1_555
Ni1 Rh13 2.993168 1_655
Ni1 Y0 2.993168 1_655
Ni1 Y0 2.993169 1_545
Ni1 Rh13 2.993172 1_555
Ni1 Rh13 2.993173 1_665
Ni1 Y0 2.993177 1_555
Rh0 Rh2 2.554267 1_555
Rh0 Rh1 2.554268 1_555
Rh0 Rh12 2.594844 1_565
Rh0 Rh2 2.630056 1_455
Rh0 Rh1 2.630057 1_565
Rh0 Rh14 2.630454 1_565
Rh0 Y1 3.338754 1_455
Rh0 Y1 3.338754 1_565
Rh1 Rh2 2.554268 1_555
Rh1 Rh12 2.594847 1_555
Rh1 Rh2 2.630057 1_445
Rh1 Rh14 2.630457 1_555
Rh1 Y1 3.338749 1_455
Rh1 Y1 3.338758 1_555
Rh2 Y1 3.338750 1_565
Rh2 Y1 3.338758 1_555
Rh3 Rh5 2.554267 1_555
Rh3 Rh4 2.554268 1_555
Rh3 Rh5 2.630056 1_655
Rh3 Rh4 2.630057 1_545
Rh3 Y0 3.338754 1_655
Rh3 Y0 3.338754 1_545
Rh4 Rh5 2.554268 1_555
Rh4 Rh5 2.630057 1_665
Rh4 Y0 3.338749 1_655
Rh4 Y0 3.338758 1_555
Rh5 Y0 3.338750 1_545
Rh5 Y0 3.338758 1_555
Rh6 Rh8 2.554267 1_555
Rh6 Rh7 2.554268 1_555
Rh6 Rh8 2.630056 1_655
Rh6 Rh7 2.630057 1_545
Rh6 Y0 3.338754 1_655
Rh6 Y0 3.338754 1_545
Rh7 Rh8 2.554268 1_555
Rh7 Rh8 2.630057 1_665
Rh7 Y0 3.338749 1_655
Rh7 Y0 3.338758 1_555
Rh8 Y0 3.338750 1_545
Rh8 Y0 3.338758 1_555
Rh9 Y1 3.338754 1_455
Rh9 Y1 3.338754 1_565
Rh10 Rh11 2.554268 1_555
Rh10 Rh9 2.554268 1_555
Rh10 Rh12 2.594847 1_555
Rh10 Rh9 2.630057 1_545
Rh10 Rh11 2.630057 1_445
Rh10 Rh15 2.630457 1_555
Rh10 Y1 3.338749 1_455
Rh10 Y1 3.338758 1_555
Rh11 Rh9 2.554267 1_555
Rh11 Rh12 2.594847 1_665
Rh11 Rh9 2.630056 1_655
Rh11 Rh15 2.630457 1_665
Rh11 Y1 3.338750 1_565
Rh11 Y1 3.338758 1_555
Rh12 Rh9 2.594844 1_545
Rh12 Rh2 2.594847 1_445
Rh12 Y1 2.993168 1_455
Rh12 Y1 2.993172 1_555
Rh12 Y1 2.993173 1_445
Rh13 Rh6 2.594844 1_455
Rh13 Rh3 2.594844 1_455
Rh13 Rh8 2.594847 1_555
Rh13 Rh5 2.594847 1_555
Rh13 Rh7 2.594847 1_445
Rh13 Rh4 2.594847 1_445
Rh13 Y0 2.993168 1_545
Rh13 Y0 2.993172 1_445
Rh13 Y0 2.993173 1_555
Rh14 Rh3 2.630454 1_455
Rh14 Rh5 2.630457 1_555
Rh14 Rh2 2.630457 1_445
Rh14 Rh4 2.630457 1_445
Rh15 Rh9 2.630454 1_545
Rh15 Rh6 2.630454 1_454
Rh15 Rh8 2.630457 1_554
Rh15 Rh7 2.630457 1_444
