# generated using pymatgen
data_CsBa(BH4)3
_symmetry_space_group_name_H-M   'P 1'
_cell_length_a   6.51014367
_cell_length_b   8.16581132
_cell_length_c   8.05380643
_cell_angle_alpha   90.00000000
_cell_angle_beta   90.00000000
_cell_angle_gamma   90.00000000
_symmetry_Int_Tables_number   1
_chemical_formula_structural   CsBa(BH4)3
_chemical_formula_sum   'Cs2 Ba2 B6 H24'
_cell_volume   428.14522136
_cell_formula_units_Z   2
loop_
 _symmetry_equiv_pos_site_id
 _symmetry_equiv_pos_as_xyz
  1  'x, y, z'
loop_
 _atom_site_type_symbol
 _atom_site_label
 _atom_site_symmetry_multiplicity
 _atom_site_fract_x
 _atom_site_fract_y
 _atom_site_fract_z
 _atom_site_occupancy
  Cs  Cs0  1  0.45161958  0.50000000  0.00000000  1
  Cs  Cs1  1  0.54838042  0.00000000  0.50000000  1
  Ba  Ba0  1  0.99519677  0.50000000  0.50000000  1
  Ba  Ba1  1  0.00480323  0.00000000  0.00000000  1
  B  B0  1  0.90706678  0.66805558  0.83003911  1
  B  B1  1  0.90706678  0.33194442  0.16996089  1
  B  B2  1  0.09293322  0.16805558  0.66996089  1
  B  B3  1  0.09293322  0.83194442  0.33003911  1
  B  B4  1  0.50403222  0.00000000  0.00000000  1
  B  B5  1  0.49596778  0.50000000  0.50000000  1
  H  H0  1  0.87946830  0.52119432  0.81584368  1
  H  H1  1  0.87946830  0.47880568  0.18415632  1
  H  H2  1  0.12053170  0.02119432  0.68415632  1
  H  H3  1  0.12053170  0.97880568  0.31584368  1
  H  H4  1  0.82086460  0.74322657  0.71777713  1
  H  H5  1  0.82086460  0.25677343  0.28222287  1
  H  H6  1  0.17913540  0.24322657  0.78222287  1
  H  H7  1  0.17913540  0.75677343  0.21777713  1
  H  H8  1  0.83716872  0.70803851  0.96397757  1
  H  H9  1  0.83716872  0.29196149  0.03602243  1
  H  H10  1  0.16283128  0.20803851  0.53602243  1
  H  H11  1  0.16283128  0.79196149  0.46397757  1
  H  H12  1  0.09200397  0.69801513  0.82302505  1
  H  H13  1  0.09200397  0.30198487  0.17697495  1
  H  H14  1  0.90799603  0.19801513  0.67697495  1
  H  H15  1  0.90799603  0.80198487  0.32302505  1
  H  H16  1  0.61046664  0.93354343  0.10599936  1
  H  H17  1  0.61046664  0.06645657  0.89400064  1
  H  H18  1  0.38953336  0.43354343  0.39400064  1
  H  H19  1  0.38953336  0.56645657  0.60599936  1
  H  H20  1  0.39777029  0.89541729  0.93247248  1
  H  H21  1  0.39777029  0.10458271  0.06752752  1
  H  H22  1  0.60222971  0.39541729  0.56752752  1
  H  H23  1  0.60222971  0.60458271  0.43247248  1
loop_
_geom_bond_atom_site_label_1
_geom_bond_atom_site_label_2
_geom_bond_distance
_geom_bond_site_symmetry_2
Cs0 H8 3.044684 1_554
Cs0 H9 3.044684 1_555
Cs0 H1 3.160368 1_555
Cs0 H0 3.160368 1_554
Cs0 H12 3.182305 1_554
Cs0 H13 3.182305 1_555
Cs0 H18 3.244548 1_555
Cs0 H19 3.244548 1_554
Cs0 H7 3.258752 1_555
Cs0 H6 3.258752 1_554
Cs0 H21 3.293097 1_555
Cs0 H20 3.293097 1_554
Cs1 H10 3.044684 1_555
Cs1 H11 3.044684 1_545
Cs1 H2 3.160368 1_555
Cs1 H3 3.160368 1_545
Cs1 H14 3.182305 1_555
Cs1 H15 3.182305 1_545
Cs1 H17 3.244548 1_555
Cs1 H16 3.244548 1_545
Cs1 H4 3.258752 1_545
Cs1 H5 3.258752 1_555
Cs1 H22 3.293097 1_555
Cs1 H23 3.293097 1_545
Ba0 H11 2.638011 1_655
Ba0 H10 2.638011 1_655
Ba0 H0 2.658611 1_555
Ba0 H1 2.658611 1_555
Ba0 H22 2.751337 1_555
Ba0 H23 2.751337 1_555
Ba0 H18 2.759302 1_655
Ba0 H19 2.759302 1_655
Ba0 H4 2.882552 1_555
Ba0 H5 2.882552 1_555
Ba0 H15 2.904261 1_555
Ba0 H14 2.904261 1_555
Ba1 H9 2.638011 1_455
Ba1 H8 2.638011 1_444
Ba1 H3 2.658611 1_545
Ba1 H2 2.658611 1_554
Ba1 H21 2.751337 1_555
Ba1 H20 2.751337 1_544
Ba1 H16 2.759302 1_445
Ba1 H17 2.759302 1_454
Ba1 H7 2.882552 1_545
Ba1 H6 2.882552 1_554
Ba1 H13 2.904261 1_555
Ba1 H12 2.904261 1_544
B0 H8 1.215438 1_555
B0 H0 1.218003 1_555
B0 H4 1.228489 1_555
B0 H12 1.229870 1_655
B1 H9 1.215438 1_555
B1 H1 1.218003 1_555
B1 H5 1.228489 1_555
B1 H13 1.229870 1_655
B2 H10 1.215438 1_555
B2 H2 1.218003 1_555
B2 H6 1.228489 1_555
B2 H14 1.229870 1_455
B3 H11 1.215438 1_555
B3 H3 1.218003 1_555
B3 H7 1.228489 1_555
B3 H15 1.229870 1_455
B4 H16 1.226136 1_545
B4 H17 1.226136 1_554
B4 H21 1.226237 1_555
B4 H20 1.226237 1_544
B5 H18 1.226136 1_555
B5 H19 1.226136 1_555
B5 H22 1.226237 1_555
B5 H23 1.226237 1_555
