# generated using pymatgen
data_BaNi11B6Ir
_symmetry_space_group_name_H-M   'P 1'
_cell_length_a   6.15883426
_cell_length_b   6.08303276
_cell_length_c   6.15883356
_cell_angle_alpha   104.56748024
_cell_angle_beta   104.48368851
_cell_angle_gamma   104.56748631
_symmetry_Int_Tables_number   1
_chemical_formula_structural   BaNi11B6Ir
_chemical_formula_sum   'Ba1 Ni11 B6 Ir1'
_cell_volume   203.68710456
_cell_formula_units_Z   1
loop_
 _symmetry_equiv_pos_site_id
 _symmetry_equiv_pos_as_xyz
  1  'x, y, z'
loop_
 _atom_site_type_symbol
 _atom_site_label
 _atom_site_symmetry_multiplicity
 _atom_site_fract_x
 _atom_site_fract_y
 _atom_site_fract_z
 _atom_site_occupancy
  Ba  Ba0  1  0.99782963  0.00000000  0.00217037  1
  Ni  Ni0  1  0.19470995  0.46563334  0.46154247  1
  Ni  Ni1  1  0.50885199  0.87104951  0.13713154  1
  Ni  Ni2  1  0.46614785  0.18571560  0.46713158  1
  Ni  Ni3  1  0.53286842  0.81428440  0.53385215  1
  Ni  Ni4  1  0.80581851  0.53203674  0.52910485  1
  Ni  Ni5  1  0.53845753  0.53436666  0.80529005  1
  Ni  Ni6  1  0.49782131  0.13522511  0.86738964  1
  Ni  Ni7  1  0.86252680  0.50000000  0.13747320  1
  Ni  Ni8  1  0.13261036  0.86477489  0.50217869  1
  Ni  Ni9  1  0.47089515  0.46796326  0.19418149  1
  Ni  Ni10  1  0.86286846  0.12895049  0.49114801  1
  B  B0  1  0.76933859  0.76951287  0.35506660  1
  B  B1  1  0.23146784  0.64908217  0.23644419  1
  B  B2  1  0.22923223  0.22717909  0.64393791  1
  B  B3  1  0.64493340  0.23048713  0.23066141  1
  B  B4  1  0.35606209  0.77282091  0.77076777  1
  B  B5  1  0.76355581  0.35091783  0.76853216  1
  Ir  Ir0  1  0.13400409  0.50000000  0.86599591  1
loop_
_geom_bond_atom_site_label_1
_geom_bond_atom_site_label_2
_geom_bond_distance
_geom_bond_site_symmetry_2
Ba0 Ni0 3.165854 1_655
Ba0 Ni5 3.165854 1_544
Ba0 Ni3 3.224553 1_544
Ba0 Ni2 3.224553 1_655
Ba0 Ni4 3.225140 1_544
Ba0 Ni9 3.225140 1_655
Ba0 Ni10 3.281358 1_555
Ba0 Ni1 3.281358 1_545
Ba0 Ni7 3.314660 1_545
Ba0 Ni7 3.314660 1_555
Ba0 Ir0 3.318043 1_654
Ba0 Ir0 3.318043 1_644
Ba0 Ni8 3.344831 1_645
Ba0 Ni6 3.344831 1_554
Ba0 Ni8 3.346052 1_644
Ba0 Ni6 3.346052 1_654
Ba0 Ni10 3.387184 1_554
Ba0 Ni1 3.387184 1_645
B0 Ni10 2.004498 1_565
B0 Ni4 2.026795 1_555
B0 Ni9 2.050289 1_555
B0 Ni8 2.057201 1_655
B0 Ni3 2.063610 1_555
B0 Ni7 2.136815 1_555
B0 Ni1 2.143642 1_555
B0 Ba0 3.277222 1_565
B1 Ni0 2.006645 1_555
B1 Ni3 2.060488 1_555
B1 Ni9 2.078707 1_555
B1 Ni7 2.085571 1_455
B1 Ir0 2.094853 1_554
B1 Ni8 2.142616 1_555
B1 Ni1 2.212130 1_555
B1 Ba0 3.281015 1_465
B2 Ni8 2.021946 1_545
B2 Ni2 2.054299 1_555
B2 Ni0 2.065544 1_555
B2 Ni10 2.076201 1_455
B2 Ni5 2.106022 1_555
B2 Ni6 2.158041 1_555
B2 Ir0 2.172019 1_555
B2 Ba0 3.305214 1_456
B3 Ni1 2.004498 1_545
B3 Ni9 2.026795 1_555
B3 Ni4 2.050289 1_555
B3 Ni6 2.057201 1_554
B3 Ni2 2.063610 1_555
B3 Ni7 2.136815 1_555
B3 Ni10 2.143642 1_555
B3 Ba0 3.277222 1_555
B4 Ni6 2.021946 1_565
B4 Ni3 2.054299 1_555
B4 Ni5 2.065544 1_555
B4 Ni1 2.076201 1_556
B4 Ni0 2.106021 1_555
B4 Ni8 2.158041 1_555
B4 Ir0 2.172018 1_555
B4 Ba0 3.305214 1_466
B5 Ni5 2.006645 1_555
B5 Ni2 2.060488 1_555
B5 Ni4 2.078707 1_555
B5 Ni7 2.085571 1_556
B5 Ir0 2.094853 1_655
B5 Ni6 2.142616 1_555
B5 Ni10 2.212130 1_555
B5 Ba0 3.281015 1_556
