# generated using pymatgen
data_Nb6GaGeC2
_symmetry_space_group_name_H-M   'P 1'
_cell_length_a   5.59621322
_cell_length_b   5.59621401
_cell_length_c   8.40739023
_cell_angle_alpha   90.00000000
_cell_angle_beta   90.00000000
_cell_angle_gamma   145.35538139
_symmetry_Int_Tables_number   1
_chemical_formula_structural   Nb6GaGeC2
_chemical_formula_sum   'Nb6 Ga1 Ge1 C2'
_cell_volume   149.68161654
_cell_formula_units_Z   1
loop_
 _symmetry_equiv_pos_site_id
 _symmetry_equiv_pos_as_xyz
  1  'x, y, z'
loop_
 _atom_site_type_symbol
 _atom_site_label
 _atom_site_symmetry_multiplicity
 _atom_site_fract_x
 _atom_site_fract_y
 _atom_site_fract_z
 _atom_site_occupancy
  Nb  Nb0  1  0.63223258  0.36776842  0.05143601  1
  Nb  Nb1  1  0.94943398  0.05056602  0.25000000  1
  Nb  Nb2  1  0.63223258  0.36776842  0.44856399  1
  Nb  Nb3  1  0.36613253  0.63386847  0.55460170  1
  Nb  Nb4  1  0.05415953  0.94584047  0.75000000  1
  Nb  Nb5  1  0.36613253  0.63386847  0.94539730  1
  Ga  Ga0  1  0.25529513  0.74470587  0.25000000  1
  Ge  Ge0  1  0.74428582  0.25571518  0.75000000  1
  C  C0  1  0.00004916  0.99995084  0.99921934  1
  C  C1  1  0.00004916  0.99995084  0.50078066  1
loop_
_geom_bond_atom_site_label_1
_geom_bond_atom_site_label_2
_geom_bond_distance
_geom_bond_site_symmetry_2
Ga0 Nb1 2.660691 1_565
Ga0 Nb1 2.660694 1_455
Ga0 Nb2 2.700420 1_455
Ga0 Nb0 2.700420 1_455
Ga0 Nb2 2.700421 1_565
Ga0 Nb0 2.700421 1_565
Ga0 Nb3 2.821479 1_555
Ga0 Nb5 2.821486 1_554
Ge0 Nb4 2.627395 1_655
Ge0 Nb4 2.627397 1_545
Ge0 Nb5 2.677703 1_655
Ge0 Nb5 2.677703 1_545
Ge0 Nb3 2.677708 1_655
Ge0 Nb3 2.677708 1_545
Ge0 Nb0 2.802868 1_556
Ge0 Nb2 2.802868 1_555
C0 Nb4 2.173588 1_555
C0 Nb1 2.176666 1_466
C0 Nb0 2.227969 1_456
C0 Nb0 2.227971 1_566
C0 Nb5 2.242446 1_455
C0 Nb5 2.242449 1_565
C1 Nb4 2.173588 1_555
C1 Nb1 2.176666 1_465
C1 Nb2 2.227969 1_455
C1 Nb2 2.227971 1_565
C1 Nb3 2.242444 1_455
C1 Nb3 2.242447 1_565
