# generated using pymatgen
data_Sc2Zn2NiPt
_symmetry_space_group_name_H-M   'P 1'
_cell_length_a   5.02954446
_cell_length_b   5.02954485
_cell_length_c   5.17388343
_cell_angle_alpha   90.00000000
_cell_angle_beta   90.00000000
_cell_angle_gamma   131.47521835
_symmetry_Int_Tables_number   1
_chemical_formula_structural   Sc2Zn2NiPt
_chemical_formula_sum   'Sc2 Zn2 Ni1 Pt1'
_cell_volume   98.06098125
_cell_formula_units_Z   1
loop_
 _symmetry_equiv_pos_site_id
 _symmetry_equiv_pos_as_xyz
  1  'x, y, z'
loop_
 _atom_site_type_symbol
 _atom_site_label
 _atom_site_symmetry_multiplicity
 _atom_site_fract_x
 _atom_site_fract_y
 _atom_site_fract_z
 _atom_site_occupancy
  Sc  Sc0  1  0.70962933  0.29037067  0.25000000  1
  Sc  Sc1  1  0.29327404  0.70672596  0.75000000  1
  Zn  Zn0  1  0.99488326  0.00511674  0.49266714  1
  Zn  Zn1  1  0.99488326  0.00511674  0.00733286  1
  Ni  Ni0  1  0.41056857  0.58943143  0.25000000  1
  Pt  Pt0  1  0.59676154  0.40323846  0.75000000  1
loop_
_geom_bond_atom_site_label_1
_geom_bond_atom_site_label_2
_geom_bond_distance
_geom_bond_site_symmetry_2
Sc0 Zn0 2.901647 1_555
Sc0 Zn1 2.901647 1_555
Sc0 Zn0 3.118659 1_455
Sc0 Zn1 3.118659 1_455
Sc0 Zn0 3.118659 1_565
Sc0 Zn1 3.118659 1_565
Sc0 Sc1 3.398823 1_654
Sc0 Sc1 3.398823 1_655
Sc0 Sc1 3.398824 1_545
Sc0 Sc1 3.398824 1_544
Sc1 Zn1 3.043134 1_466
Sc1 Zn0 3.043134 1_465
Sc1 Zn1 3.076091 1_566
Sc1 Zn0 3.076091 1_565
Sc1 Zn1 3.076091 1_456
Sc1 Zn0 3.076091 1_455
Zn0 Zn1 2.511063 1_555
Zn0 Zn1 2.662820 1_556
Ni0 Zn0 2.538810 1_565
Ni0 Zn1 2.538810 1_565
Ni0 Zn0 2.538810 1_455
Ni0 Zn1 2.538810 1_455
Ni0 Sc0 2.742567 1_555
Ni0 Sc0 2.768935 1_455
Ni0 Sc0 2.768935 1_565
Ni0 Sc1 2.801663 1_554
Ni0 Sc1 2.801663 1_555
Pt0 Zn1 2.629995 1_456
Pt0 Zn0 2.629995 1_455
Pt0 Zn1 2.629995 1_566
Pt0 Zn0 2.629995 1_565
Pt0 Sc1 2.742086 1_655
Pt0 Sc1 2.742086 1_545
Pt0 Sc1 2.783163 1_555
Pt0 Sc0 2.786329 1_555
Pt0 Sc0 2.786329 1_556
