# generated using pymatgen
data_CoIrRhS8
_symmetry_space_group_name_H-M   'P 1'
_cell_length_a   5.60860648
_cell_length_b   5.68168058
_cell_length_c   5.60327872
_cell_angle_alpha   90.96993261
_cell_angle_beta   89.97754574
_cell_angle_gamma   90.97798937
_symmetry_Int_Tables_number   1
_chemical_formula_structural   CoIrRhS8
_chemical_formula_sum   'Co1 Ir1 Rh1 S8'
_cell_volume   178.50422712
_cell_formula_units_Z   1
loop_
 _symmetry_equiv_pos_site_id
 _symmetry_equiv_pos_as_xyz
  1  'x, y, z'
loop_
 _atom_site_type_symbol
 _atom_site_label
 _atom_site_symmetry_multiplicity
 _atom_site_fract_x
 _atom_site_fract_y
 _atom_site_fract_z
 _atom_site_occupancy
  Co  Co0  1  0.50000000  0.00000000  0.50000000  1
  Ir  Ir0  1  0.50000000  0.50000000  0.00000000  1
  Rh  Rh0  1  0.00000000  0.50000000  0.50000000  1
  S  S0  1  0.39798716  0.89381064  0.11278111  1
  S  S1  1  0.10466650  0.39249501  0.89197625  1
  S  S2  1  0.88666720  0.10102842  0.39864214  1
  S  S3  1  0.60201284  0.10618936  0.88721889  1
  S  S4  1  0.89533350  0.60750499  0.10802375  1
  S  S5  1  0.11333280  0.89897158  0.60135786  1
  S  S6  1  0.60893178  0.61187842  0.61094666  1
  S  S7  1  0.39106822  0.38812158  0.38905334  1
loop_
_geom_bond_atom_site_label_1
_geom_bond_atom_site_label_2
_geom_bond_distance
_geom_bond_site_symmetry_2
Co0 S5 2.307102 1_545
Co0 S2 2.307102 1_555
Co0 S3 2.311670 1_555
Co0 S0 2.311670 1_545
Co0 S7 2.390662 1_555
Co0 S6 2.390662 1_545
Ir0 S6 2.358438 1_554
Ir0 S7 2.358438 1_555
Ir0 S4 2.366020 1_555
Ir0 S1 2.366020 1_554
Ir0 S0 2.393468 1_555
Ir0 S3 2.393468 1_554
Rh0 S1 2.366501 1_555
Rh0 S4 2.366501 1_455
Rh0 S7 2.373699 1_555
Rh0 S6 2.373699 1_455
Rh0 S5 2.402626 1_555
Rh0 S2 2.402626 1_455
S0 S3 2.089556 1_564
S1 S4 2.081839 1_456
S2 S5 2.078319 1_645
S6 S7 2.133032 1_555
