# generated using pymatgen
data_MgZr3(B4Ru5)2
_symmetry_space_group_name_H-M   'P 1'
_cell_length_a   5.96316820
_cell_length_b   17.39069818
_cell_length_c   19.89457637
_cell_angle_alpha   90.96046459
_cell_angle_beta   90.00000000
_cell_angle_gamma   90.00000000
_symmetry_Int_Tables_number   1
_chemical_formula_structural   MgZr3(B4Ru5)2
_chemical_formula_sum   'Mg8 Zr24 B64 Ru80'
_cell_volume   2062.85048105
_cell_formula_units_Z   8
loop_
 _symmetry_equiv_pos_site_id
 _symmetry_equiv_pos_as_xyz
  1  'x, y, z'
loop_
 _atom_site_type_symbol
 _atom_site_label
 _atom_site_symmetry_multiplicity
 _atom_site_fract_x
 _atom_site_fract_y
 _atom_site_fract_z
 _atom_site_occupancy
  Mg  Mg0_0  1  0.25000000  0.42086034  0.15648319  1
  Mg  Mg0_1  1  0.25000000  0.42086034  0.65648319  1
  Mg  Mg0_2  1  0.25000000  0.92086034  0.15648319  1
  Mg  Mg0_3  1  0.25000000  0.92086034  0.65648319  1
  Mg  Mg0_4  1  0.75000000  0.42086034  0.15648319  1
  Mg  Mg0_5  1  0.75000000  0.42086034  0.65648319  1
  Mg  Mg0_6  1  0.75000000  0.92086034  0.15648319  1
  Mg  Mg0_7  1  0.75000000  0.92086034  0.65648319  1
  Zr  Zr0_0  1  0.25000000  0.33229930  0.41104221  1
  Zr  Zr0_1  1  0.25000000  0.33229930  0.91104221  1
  Zr  Zr0_2  1  0.25000000  0.83229930  0.41104221  1
  Zr  Zr0_3  1  0.25000000  0.83229930  0.91104221  1
  Zr  Zr0_4  1  0.75000000  0.33229930  0.41104221  1
  Zr  Zr0_5  1  0.75000000  0.33229930  0.91104221  1
  Zr  Zr0_6  1  0.75000000  0.83229930  0.41104221  1
  Zr  Zr0_7  1  0.75000000  0.83229930  0.91104221  1
  Zr  Zr1_0  1  0.25000000  0.17012772  0.09277656  1
  Zr  Zr1_1  1  0.25000000  0.17012772  0.59277656  1
  Zr  Zr1_2  1  0.25000000  0.67012772  0.09277656  1
  Zr  Zr1_3  1  0.25000000  0.67012772  0.59277656  1
  Zr  Zr1_4  1  0.75000000  0.17012772  0.09277656  1
  Zr  Zr1_5  1  0.75000000  0.17012772  0.59277656  1
  Zr  Zr1_6  1  0.75000000  0.67012772  0.09277656  1
  Zr  Zr1_7  1  0.75000000  0.67012772  0.59277656  1
  Zr  Zr2_0  1  0.25000000  0.08027280  0.33817616  1
  Zr  Zr2_1  1  0.25000000  0.08027280  0.83817616  1
  Zr  Zr2_2  1  0.25000000  0.58027280  0.33817616  1
  Zr  Zr2_3  1  0.25000000  0.58027280  0.83817616  1
  Zr  Zr2_4  1  0.75000000  0.08027280  0.33817616  1
  Zr  Zr2_5  1  0.75000000  0.08027280  0.83817616  1
  Zr  Zr2_6  1  0.75000000  0.58027280  0.33817616  1
  Zr  Zr2_7  1  0.75000000  0.58027280  0.83817616  1
  B  B0_0  1  0.25000000  0.42590832  0.29873602  1
  B  B0_1  1  0.25000000  0.42590832  0.79873602  1
  B  B0_2  1  0.25000000  0.92590832  0.29873602  1
  B  B0_3  1  0.25000000  0.92590832  0.79873602  1
  B  B0_4  1  0.75000000  0.42590832  0.29873602  1
  B  B0_5  1  0.75000000  0.42590832  0.79873602  1
  B  B0_6  1  0.75000000  0.92590832  0.29873602  1
  B  B0_7  1  0.75000000  0.92590832  0.79873602  1
  B  B1_0  1  0.25000000  0.06879572  0.19763652  1
  B  B1_1  1  0.25000000  0.06879572  0.69763652  1
  B  B1_2  1  0.25000000  0.56879572  0.19763652  1
  B  B1_3  1  0.25000000  0.56879572  0.69763652  1
  B  B1_4  1  0.75000000  0.06879572  0.19763652  1
  B  B1_5  1  0.75000000  0.06879572  0.69763652  1
  B  B1_6  1  0.75000000  0.56879572  0.19763652  1
  B  B1_7  1  0.75000000  0.56879572  0.69763652  1
  B  B2_0  1  0.25000000  0.17856585  0.45021001  1
  B  B2_1  1  0.25000000  0.17856585  0.95021001  1
  B  B2_2  1  0.25000000  0.67856585  0.45021001  1
  B  B2_3  1  0.25000000  0.67856585  0.95021001  1
  B  B2_4  1  0.75000000  0.17856585  0.45021001  1
  B  B2_5  1  0.75000000  0.17856585  0.95021001  1
  B  B2_6  1  0.75000000  0.67856585  0.45021001  1
  B  B2_7  1  0.75000000  0.67856585  0.95021001  1
  B  B3_0  1  0.25000000  0.32524360  0.05450884  1
  B  B3_1  1  0.25000000  0.32524360  0.55450884  1
  B  B3_2  1  0.25000000  0.82524360  0.05450884  1
  B  B3_3  1  0.25000000  0.82524360  0.55450884  1
  B  B3_4  1  0.75000000  0.32524360  0.05450884  1
  B  B3_5  1  0.75000000  0.32524360  0.55450884  1
  B  B3_6  1  0.75000000  0.82524360  0.05450884  1
  B  B3_7  1  0.75000000  0.82524360  0.55450884  1
  B  B4_0  1  0.25000000  0.48476952  0.45622662  1
  B  B4_1  1  0.25000000  0.48476952  0.95622662  1
  B  B4_2  1  0.25000000  0.98476952  0.45622662  1
  B  B4_3  1  0.25000000  0.98476952  0.95622662  1
  B  B4_4  1  0.75000000  0.48476952  0.45622662  1
  B  B4_5  1  0.75000000  0.48476952  0.95622662  1
  B  B4_6  1  0.75000000  0.98476952  0.45622662  1
  B  B4_7  1  0.75000000  0.98476952  0.95622662  1
  B  B5_0  1  0.25000000  0.01636755  0.04173169  1
  B  B5_1  1  0.25000000  0.01636755  0.54173169  1
  B  B5_2  1  0.25000000  0.51636755  0.04173169  1
  B  B5_3  1  0.25000000  0.51636755  0.54173169  1
  B  B5_4  1  0.75000000  0.01636755  0.04173169  1
  B  B5_5  1  0.75000000  0.01636755  0.54173169  1
  B  B5_6  1  0.75000000  0.51636755  0.04173169  1
  B  B5_7  1  0.75000000  0.51636755  0.54173169  1
  B  B6_0  1  0.25000000  0.23223091  0.29335838  1
  B  B6_1  1  0.25000000  0.23223091  0.79335838  1
  B  B6_2  1  0.25000000  0.73223091  0.29335838  1
  B  B6_3  1  0.25000000  0.73223091  0.79335838  1
  B  B6_4  1  0.75000000  0.23223091  0.29335838  1
  B  B6_5  1  0.75000000  0.23223091  0.79335838  1
  B  B6_6  1  0.75000000  0.73223091  0.29335838  1
  B  B6_7  1  0.75000000  0.73223091  0.79335838  1
  B  B7_0  1  0.25000000  0.26708516  0.20823606  1
  B  B7_1  1  0.25000000  0.26708516  0.70823606  1
  B  B7_2  1  0.25000000  0.76708516  0.20823606  1
  B  B7_3  1  0.25000000  0.76708516  0.70823606  1
  B  B7_4  1  0.75000000  0.26708516  0.20823606  1
  B  B7_5  1  0.75000000  0.26708516  0.70823606  1
  B  B7_6  1  0.75000000  0.76708516  0.20823606  1
  B  B7_7  1  0.75000000  0.76708516  0.70823606  1
  Ru  Ru0_0  1  0.00000000  0.20493911  0.36888701  1
  Ru  Ru0_1  1  0.00000000  0.20493911  0.86888701  1
  Ru  Ru0_2  1  0.00000000  0.70493911  0.36888701  1
  Ru  Ru0_3  1  0.00000000  0.70493911  0.86888701  1
  Ru  Ru0_4  1  0.50000000  0.20493911  0.36888701  1
  Ru  Ru0_5  1  0.50000000  0.20493911  0.86888701  1
  Ru  Ru0_6  1  0.50000000  0.70493911  0.36888701  1
  Ru  Ru0_7  1  0.50000000  0.70493911  0.86888701  1
  Ru  Ru1_0  1  0.00000000  0.29731377  0.13494663  1
  Ru  Ru1_1  1  0.00000000  0.29731377  0.63494663  1
  Ru  Ru1_2  1  0.00000000  0.79731377  0.13494663  1
  Ru  Ru1_3  1  0.00000000  0.79731377  0.63494663  1
  Ru  Ru1_4  1  0.50000000  0.29731377  0.13494663  1
  Ru  Ru1_5  1  0.50000000  0.29731377  0.63494663  1
  Ru  Ru1_6  1  0.50000000  0.79731377  0.13494663  1
  Ru  Ru1_7  1  0.50000000  0.79731377  0.63494663  1
  Ru  Ru2_0  1  0.00000000  0.45559278  0.38122428  1
  Ru  Ru2_1  1  0.00000000  0.45559278  0.88122428  1
  Ru  Ru2_2  1  0.00000000  0.95559278  0.38122428  1
  Ru  Ru2_3  1  0.00000000  0.95559278  0.88122428  1
  Ru  Ru2_4  1  0.50000000  0.45559278  0.38122428  1
  Ru  Ru2_5  1  0.50000000  0.45559278  0.88122428  1
  Ru  Ru2_6  1  0.50000000  0.95559278  0.38122428  1
  Ru  Ru2_7  1  0.50000000  0.95559278  0.88122428  1
  Ru  Ru3_0  1  0.00000000  0.04492691  0.11591589  1
  Ru  Ru3_1  1  0.00000000  0.04492691  0.61591589  1
  Ru  Ru3_2  1  0.00000000  0.54492691  0.11591589  1
  Ru  Ru3_3  1  0.00000000  0.54492691  0.61591589  1
  Ru  Ru3_4  1  0.50000000  0.04492691  0.11591589  1
  Ru  Ru3_5  1  0.50000000  0.04492691  0.61591589  1
  Ru  Ru3_6  1  0.50000000  0.54492691  0.11591589  1
  Ru  Ru3_7  1  0.50000000  0.54492691  0.61591589  1
  Ru  Ru4_0  1  0.00000000  0.49695393  0.24814586  1
  Ru  Ru4_1  1  0.00000000  0.49695393  0.74814586  1
  Ru  Ru4_2  1  0.00000000  0.99695393  0.24814586  1
  Ru  Ru4_3  1  0.00000000  0.99695393  0.74814586  1
  Ru  Ru4_4  1  0.50000000  0.49695393  0.24814586  1
  Ru  Ru4_5  1  0.50000000  0.49695393  0.74814586  1
  Ru  Ru4_6  1  0.50000000  0.99695393  0.24814586  1
  Ru  Ru4_7  1  0.50000000  0.99695393  0.74814586  1
  Ru  Ru5_0  1  0.00000000  0.25111285  0.00184078  1
  Ru  Ru5_1  1  0.00000000  0.25111285  0.50184078  1
  Ru  Ru5_2  1  0.00000000  0.75111285  0.00184078  1
  Ru  Ru5_3  1  0.00000000  0.75111285  0.50184078  1
  Ru  Ru5_4  1  0.50000000  0.25111285  0.00184078  1
  Ru  Ru5_5  1  0.50000000  0.25111285  0.50184078  1
  Ru  Ru5_6  1  0.50000000  0.75111285  0.00184078  1
  Ru  Ru5_7  1  0.50000000  0.75111285  0.50184078  1
  Ru  Ru6_0  1  0.00000000  0.33214495  0.27877658  1
  Ru  Ru6_1  1  0.00000000  0.33214495  0.77877658  1
  Ru  Ru6_2  1  0.00000000  0.83214495  0.27877658  1
  Ru  Ru6_3  1  0.00000000  0.83214495  0.77877658  1
  Ru  Ru6_4  1  0.50000000  0.33214495  0.27877658  1
  Ru  Ru6_5  1  0.50000000  0.33214495  0.77877658  1
  Ru  Ru6_6  1  0.50000000  0.83214495  0.27877658  1
  Ru  Ru6_7  1  0.50000000  0.83214495  0.77877658  1
  Ru  Ru7_0  1  0.00000000  0.16282343  0.22444674  1
  Ru  Ru7_1  1  0.00000000  0.16282343  0.72444674  1
  Ru  Ru7_2  1  0.00000000  0.66282343  0.22444674  1
  Ru  Ru7_3  1  0.00000000  0.66282343  0.72444674  1
  Ru  Ru7_4  1  0.50000000  0.16282343  0.22444674  1
  Ru  Ru7_5  1  0.50000000  0.16282343  0.72444674  1
  Ru  Ru7_6  1  0.50000000  0.66282343  0.22444674  1
  Ru  Ru7_7  1  0.50000000  0.66282343  0.72444674  1
  Ru  Ru8_0  1  0.00000000  0.08728692  0.47315336  1
  Ru  Ru8_1  1  0.00000000  0.08728692  0.97315336  1
  Ru  Ru8_2  1  0.00000000  0.58728692  0.47315336  1
  Ru  Ru8_3  1  0.00000000  0.58728692  0.97315336  1
  Ru  Ru8_4  1  0.50000000  0.08728692  0.47315336  1
  Ru  Ru8_5  1  0.50000000  0.08728692  0.97315336  1
  Ru  Ru8_6  1  0.50000000  0.58728692  0.47315336  1
  Ru  Ru8_7  1  0.50000000  0.58728692  0.97315336  1
  Ru  Ru9_0  1  0.00000000  0.41437905  0.02354011  1
  Ru  Ru9_1  1  0.00000000  0.41437905  0.52354011  1
  Ru  Ru9_2  1  0.00000000  0.91437905  0.02354011  1
  Ru  Ru9_3  1  0.00000000  0.91437905  0.52354011  1
  Ru  Ru9_4  1  0.50000000  0.41437905  0.02354011  1
  Ru  Ru9_5  1  0.50000000  0.41437905  0.52354011  1
  Ru  Ru9_6  1  0.50000000  0.91437905  0.02354011  1
  Ru  Ru9_7  1  0.50000000  0.91437905  0.52354011  1
loop_
_geom_bond_atom_site_label_1
_geom_bond_atom_site_label_2
_geom_bond_distance
_geom_bond_site_symmetry_2
Mg0_0 Ru1_0 2.644143 1_555
Mg0_0 Ru1_4 2.644143 1_555
Mg0_0 Ru4_4 2.686674 1_555
Mg0_0 Ru4_0 2.686674 1_555
Mg0_0 Ru3_2 2.754534 1_555
Mg0_0 Ru3_6 2.754534 1_555
Mg0_0 Mg0_4 2.981584 1_455
Mg0_0 Mg0_4 2.981584 1_555
Mg0_0 Ru9_4 3.036508 1_555
Mg0_0 Ru9_0 3.036508 1_555
Mg0_0 Ru6_4 3.263123 1_555
Mg0_0 Ru6_0 3.263123 1_555
Mg0_1 Ru1_5 2.644143 1_555
Mg0_1 Ru1_1 2.644143 1_555
Mg0_1 Ru4_1 2.686674 1_555
Mg0_1 Ru4_5 2.686674 1_555
Mg0_1 Ru3_3 2.754534 1_555
Mg0_1 Ru3_7 2.754534 1_555
Mg0_1 Mg0_5 2.981584 1_455
Mg0_1 Mg0_5 2.981584 1_555
Mg0_1 Ru9_1 3.036508 1_555
Mg0_1 Ru9_5 3.036508 1_555
Mg0_1 Ru6_1 3.263123 1_555
Mg0_1 Ru6_5 3.263123 1_555
Mg0_2 Ru1_2 2.644143 1_555
Mg0_2 Ru1_6 2.644143 1_555
Mg0_2 Ru4_2 2.686674 1_555
Mg0_2 Ru4_6 2.686674 1_555
Mg0_2 Ru3_0 2.754534 1_565
Mg0_2 Ru3_4 2.754534 1_565
Mg0_2 Mg0_6 2.981584 1_455
Mg0_2 Mg0_6 2.981584 1_555
Mg0_2 Ru9_2 3.036508 1_555
Mg0_2 Ru9_6 3.036508 1_555
Mg0_2 Ru6_2 3.263123 1_555
Mg0_2 Ru6_6 3.263123 1_555
Mg0_3 Ru1_3 2.644143 1_555
Mg0_3 Ru1_7 2.644143 1_555
Mg0_3 Ru4_7 2.686674 1_555
Mg0_3 Ru4_3 2.686674 1_555
Mg0_3 Ru3_1 2.754534 1_565
Mg0_3 Ru3_5 2.754534 1_565
Mg0_3 Mg0_7 2.981584 1_455
Mg0_3 Mg0_7 2.981584 1_555
Mg0_3 Ru9_3 3.036508 1_555
Mg0_3 Ru9_7 3.036508 1_555
Mg0_3 Ru6_3 3.263123 1_555
Mg0_3 Ru6_7 3.263123 1_555
Mg0_4 Ru1_0 2.644143 1_655
Mg0_4 Ru1_4 2.644143 1_555
Mg0_4 Ru4_0 2.686674 1_655
Mg0_4 Ru4_4 2.686674 1_555
Mg0_4 Ru3_2 2.754534 1_655
Mg0_4 Ru3_6 2.754534 1_555
Mg0_4 Ru9_0 3.036508 1_655
Mg0_4 Ru9_4 3.036508 1_555
Mg0_4 Ru6_0 3.263123 1_655
Mg0_4 Ru6_4 3.263123 1_555
Mg0_5 Ru1_1 2.644143 1_655
Mg0_5 Ru1_5 2.644143 1_555
Mg0_5 Ru4_1 2.686674 1_655
Mg0_5 Ru4_5 2.686674 1_555
Mg0_5 Ru3_3 2.754534 1_655
Mg0_5 Ru3_7 2.754534 1_555
Mg0_5 Ru9_1 3.036508 1_655
Mg0_5 Ru9_5 3.036508 1_555
Mg0_5 Ru6_1 3.263123 1_655
Mg0_5 Ru6_5 3.263123 1_555
Mg0_6 Ru1_2 2.644143 1_655
Mg0_6 Ru1_6 2.644143 1_555
Mg0_6 Ru4_2 2.686674 1_655
Mg0_6 Ru4_6 2.686674 1_555
Mg0_6 Ru3_0 2.754534 1_665
Mg0_6 Ru3_4 2.754534 1_565
Mg0_6 Ru9_2 3.036508 1_655
Mg0_6 Ru9_6 3.036508 1_555
Mg0_6 Ru6_2 3.263123 1_655
Mg0_6 Ru6_6 3.263123 1_555
Mg0_7 Ru1_3 2.644143 1_655
Mg0_7 Ru1_7 2.644143 1_555
Mg0_7 Ru4_3 2.686674 1_655
Mg0_7 Ru4_7 2.686674 1_555
Mg0_7 Ru3_1 2.754534 1_665
Mg0_7 Ru3_5 2.754534 1_565
Mg0_7 Ru9_3 3.036508 1_655
Mg0_7 Ru9_7 3.036508 1_555
Mg0_7 Ru6_3 3.263123 1_655
Mg0_7 Ru6_7 3.263123 1_555
Zr0_0 Zr0_4 2.981584 1_455
Zr0_0 Zr0_4 2.981584 1_555
Zr0_1 Zr0_5 2.981584 1_455
Zr0_1 Zr0_5 2.981584 1_555
Zr0_2 Zr0_6 2.981584 1_455
Zr0_2 Zr0_6 2.981584 1_555
Zr0_3 Zr0_7 2.981584 1_455
Zr0_3 Zr0_7 2.981584 1_555
Zr1_0 Zr1_4 2.981584 1_455
Zr1_0 Zr1_4 2.981584 1_555
Zr1_1 Zr1_5 2.981584 1_455
Zr1_1 Zr1_5 2.981584 1_555
Zr1_2 Zr1_6 2.981584 1_455
Zr1_2 Zr1_6 2.981584 1_555
Zr1_3 Zr1_7 2.981584 1_455
Zr1_3 Zr1_7 2.981584 1_555
Zr2_0 Zr2_4 2.981584 1_455
Zr2_0 Zr2_4 2.981584 1_555
Zr2_1 Zr2_5 2.981584 1_455
Zr2_1 Zr2_5 2.981584 1_555
Zr2_2 Zr2_6 2.981584 1_455
Zr2_2 Zr2_6 2.981584 1_555
Zr2_3 Zr2_7 2.981584 1_455
Zr2_3 Zr2_7 2.981584 1_555
B0_0 Ru4_0 2.191728 1_555
B0_0 Ru4_4 2.191728 1_555
B0_0 Ru6_0 2.239938 1_555
B0_0 Ru6_4 2.239938 1_555
B0_0 Ru2_0 2.270168 1_555
B0_0 Ru2_4 2.270168 1_555
B0_0 Zr2_2 2.784174 1_555
B0_0 Zr0_0 2.786415 1_555
B0_0 Mg0_0 2.829950 1_555
B0_1 Ru4_1 2.191728 1_555
B0_1 Ru4_5 2.191728 1_555
B0_1 Ru6_1 2.239938 1_555
B0_1 Ru6_5 2.239938 1_555
B0_1 Ru2_5 2.270168 1_555
B0_1 Ru2_1 2.270168 1_555
B0_1 Zr2_3 2.784174 1_555
B0_1 Zr0_1 2.786415 1_555
B0_1 Mg0_1 2.829950 1_555
B0_2 Ru4_6 2.191728 1_555
B0_2 Ru4_2 2.191728 1_555
B0_2 Ru6_2 2.239938 1_555
B0_2 Ru6_6 2.239938 1_555
B0_2 Ru2_6 2.270168 1_555
B0_2 Ru2_2 2.270168 1_555
B0_2 Zr2_0 2.784174 1_565
B0_2 Zr0_2 2.786415 1_555
B0_2 Mg0_2 2.829950 1_555
B0_3 Ru4_3 2.191728 1_555
B0_3 Ru4_7 2.191728 1_555
B0_3 Ru6_3 2.239938 1_555
B0_3 Ru6_7 2.239938 1_555
B0_3 Ru2_3 2.270168 1_555
B0_3 Ru2_7 2.270168 1_555
B0_3 Zr2_1 2.784174 1_565
B0_3 Zr0_3 2.786415 1_555
B0_3 Mg0_3 2.829950 1_555
B0_4 Ru4_0 2.191728 1_655
B0_4 Ru4_4 2.191728 1_555
B0_4 Ru6_0 2.239938 1_655
B0_4 Ru6_4 2.239938 1_555
B0_4 Ru2_0 2.270168 1_655
B0_4 Ru2_4 2.270168 1_555
B0_4 Zr2_6 2.784174 1_555
B0_4 Zr0_4 2.786415 1_555
B0_4 Mg0_4 2.829950 1_555
B0_5 Ru4_1 2.191728 1_655
B0_5 Ru4_5 2.191728 1_555
B0_5 Ru6_1 2.239938 1_655
B0_5 Ru6_5 2.239938 1_555
B0_5 Ru2_1 2.270168 1_655
B0_5 Ru2_5 2.270168 1_555
B0_5 Zr2_7 2.784174 1_555
B0_5 Zr0_5 2.786415 1_555
B0_5 Mg0_5 2.829950 1_555
B0_6 Ru4_2 2.191728 1_655
B0_6 Ru4_6 2.191728 1_555
B0_6 Ru6_2 2.239938 1_655
B0_6 Ru6_6 2.239938 1_555
B0_6 Ru2_2 2.270168 1_655
B0_6 Ru2_6 2.270168 1_555
B0_6 Zr2_4 2.784174 1_565
B0_6 Zr0_6 2.786415 1_555
B0_6 Mg0_6 2.829950 1_555
B0_7 Ru4_3 2.191728 1_655
B0_7 Ru4_7 2.191728 1_555
B0_7 Ru6_3 2.239938 1_655
B0_7 Ru6_7 2.239938 1_555
B0_7 Ru2_3 2.270168 1_655
B0_7 Ru2_7 2.270168 1_555
B0_7 Zr2_5 2.784174 1_565
B0_7 Zr0_7 2.786415 1_555
B0_7 Mg0_7 2.829950 1_555
B1_0 Ru4_2 2.198919 1_545
B1_0 Ru4_6 2.198919 1_545
B1_0 Ru3_4 2.239499 1_555
B1_0 Ru3_0 2.239499 1_555
B1_0 Ru7_0 2.269717 1_555
B1_0 Ru7_4 2.269717 1_555
B1_0 Mg0_2 2.686724 1_545
B1_0 Zr1_0 2.753310 1_555
B1_0 Zr2_0 2.799753 1_555
B1_1 Ru4_7 2.198919 1_545
B1_1 Ru4_3 2.198919 1_545
B1_1 Ru3_1 2.239499 1_555
B1_1 Ru3_5 2.239499 1_555
B1_1 Ru7_1 2.269717 1_555
B1_1 Ru7_5 2.269717 1_555
B1_1 Mg0_3 2.686724 1_545
B1_1 Zr1_1 2.753310 1_555
B1_1 Zr2_1 2.799753 1_555
B1_2 Ru4_0 2.198919 1_555
B1_2 Ru4_4 2.198919 1_555
B1_2 Ru3_2 2.239499 1_555
B1_2 Ru3_6 2.239499 1_555
B1_2 Ru7_2 2.269717 1_555
B1_2 Ru7_6 2.269717 1_555
B1_2 Mg0_0 2.686724 1_555
B1_2 Zr1_2 2.753310 1_555
B1_2 Zr2_2 2.799753 1_555
B1_3 Ru4_1 2.198919 1_555
B1_3 Ru4_5 2.198919 1_555
B1_3 Ru3_3 2.239499 1_555
B1_3 Ru3_7 2.239499 1_555
B1_3 Ru7_7 2.269717 1_555
B1_3 Ru7_3 2.269717 1_555
B1_3 Mg0_1 2.686724 1_555
B1_3 Zr1_3 2.753310 1_555
B1_3 Zr2_3 2.799753 1_555
B1_4 Ru4_2 2.198919 1_645
B1_4 Ru4_6 2.198919 1_545
B1_4 Ru3_0 2.239499 1_655
B1_4 Ru3_4 2.239499 1_555
B1_4 Ru7_0 2.269717 1_655
B1_4 Ru7_4 2.269717 1_555
B1_4 Mg0_6 2.686724 1_545
B1_4 Zr1_4 2.753310 1_555
B1_4 Zr2_4 2.799753 1_555
B1_5 Ru4_3 2.198919 1_645
B1_5 Ru4_7 2.198919 1_545
B1_5 Ru3_1 2.239499 1_655
B1_5 Ru3_5 2.239499 1_555
B1_5 Ru7_1 2.269717 1_655
B1_5 Ru7_5 2.269717 1_555
B1_5 Mg0_7 2.686724 1_545
B1_5 Zr1_5 2.753310 1_555
B1_5 Zr2_5 2.799753 1_555
B1_6 Ru4_0 2.198919 1_655
B1_6 Ru4_4 2.198919 1_555
B1_6 Ru3_2 2.239499 1_655
B1_6 Ru3_6 2.239499 1_555
B1_6 Ru7_2 2.269717 1_655
B1_6 Ru7_6 2.269717 1_555
B1_6 Mg0_4 2.686724 1_555
B1_6 Zr1_6 2.753310 1_555
B1_6 Zr2_6 2.799753 1_555
B1_7 Ru4_1 2.198919 1_655
B1_7 Ru4_5 2.198919 1_555
B1_7 Ru3_3 2.239499 1_655
B1_7 Ru3_7 2.239499 1_555
B1_7 Ru7_3 2.269717 1_655
B1_7 Ru7_7 2.269717 1_555
B1_7 Mg0_5 2.686724 1_555
B1_7 Zr1_7 2.753310 1_555
B1_7 Zr2_7 2.799753 1_555
B2_0 Ru5_1 2.196780 1_555
B2_0 Ru5_5 2.196780 1_555
B2_0 Ru8_0 2.230460 1_555
B2_0 Ru8_4 2.230460 1_555
B2_0 Ru0_0 2.252832 1_555
B2_0 Ru0_4 2.252832 1_555
B2_0 Zr2_0 2.786056 1_555
B2_0 Zr0_0 2.797286 1_555
B2_0 Zr1_1 2.842550 1_555
B2_1 Ru5_0 2.196780 1_556
B2_1 Ru5_4 2.196780 1_556
B2_1 Ru8_5 2.230460 1_555
B2_1 Ru8_1 2.230460 1_555
B2_1 Ru0_5 2.252832 1_555
B2_1 Ru0_1 2.252832 1_555
B2_1 Zr2_1 2.786056 1_555
B2_1 Zr0_1 2.797286 1_555
B2_1 Zr1_0 2.842550 1_556
B2_2 Ru5_3 2.196780 1_555
B2_2 Ru5_7 2.196780 1_555
B2_2 Ru8_2 2.230460 1_555
B2_2 Ru8_6 2.230460 1_555
B2_2 Ru0_2 2.252832 1_555
B2_2 Ru0_6 2.252832 1_555
B2_2 Zr2_2 2.786056 1_555
B2_2 Zr0_2 2.797286 1_555
B2_2 Zr1_3 2.842550 1_555
B2_3 Ru5_2 2.196780 1_556
B2_3 Ru5_6 2.196780 1_556
B2_3 Ru8_3 2.230460 1_555
B2_3 Ru8_7 2.230460 1_555
B2_3 Ru0_3 2.252832 1_555
B2_3 Ru0_7 2.252832 1_555
B2_3 Zr2_3 2.786056 1_555
B2_3 Zr0_3 2.797286 1_555
B2_3 Zr1_2 2.842550 1_556
B2_4 Ru5_1 2.196780 1_655
B2_4 Ru5_5 2.196780 1_555
B2_4 Ru8_0 2.230460 1_655
B2_4 Ru8_4 2.230460 1_555
B2_4 Ru0_0 2.252832 1_655
B2_4 Ru0_4 2.252832 1_555
B2_4 Zr2_4 2.786056 1_555
B2_4 Zr0_4 2.797286 1_555
B2_4 Zr1_5 2.842550 1_555
B2_5 Ru5_0 2.196780 1_656
B2_5 Ru5_4 2.196780 1_556
B2_5 Ru8_1 2.230460 1_655
B2_5 Ru8_5 2.230460 1_555
B2_5 Ru0_1 2.252832 1_655
B2_5 Ru0_5 2.252832 1_555
B2_5 Zr2_5 2.786056 1_555
B2_5 Zr0_5 2.797286 1_555
B2_5 Zr1_4 2.842550 1_556
B2_6 Ru5_3 2.196780 1_655
B2_6 Ru5_7 2.196780 1_555
B2_6 Ru8_2 2.230460 1_655
B2_6 Ru8_6 2.230460 1_555
B2_6 Ru0_2 2.252832 1_655
B2_6 Ru0_6 2.252832 1_555
B2_6 Zr2_6 2.786056 1_555
B2_6 Zr0_6 2.797286 1_555
B2_6 Zr1_7 2.842550 1_555
B2_7 Ru5_2 2.196780 1_656
B2_7 Ru5_6 2.196780 1_556
B2_7 Ru8_3 2.230460 1_655
B2_7 Ru8_7 2.230460 1_555
B2_7 Ru0_3 2.252832 1_655
B2_7 Ru0_7 2.252832 1_555
B2_7 Zr2_7 2.786056 1_555
B2_7 Zr0_7 2.797286 1_555
B2_7 Zr1_6 2.842550 1_556
B3_0 Ru5_0 2.221954 1_555
B3_0 Ru5_4 2.221954 1_555
B3_0 Ru9_0 2.244319 1_555
B3_0 Ru9_4 2.244319 1_555
B3_0 Ru1_0 2.246180 1_555
B3_0 Ru1_4 2.246180 1_555
B3_0 Mg0_0 2.601484 1_555
B3_0 Zr1_0 2.815202 1_555
B3_0 Zr0_1 2.858898 1_554
B3_1 Ru5_1 2.221954 1_555
B3_1 Ru5_5 2.221954 1_555
B3_1 Ru9_1 2.244319 1_555
B3_1 Ru9_5 2.244319 1_555
B3_1 Ru1_5 2.246180 1_555
B3_1 Ru1_1 2.246180 1_555
B3_1 Mg0_1 2.601484 1_555
B3_1 Zr1_1 2.815202 1_555
B3_1 Zr0_0 2.858898 1_555
B3_2 Ru5_2 2.221954 1_555
B3_2 Ru5_6 2.221954 1_555
B3_2 Ru9_2 2.244319 1_555
B3_2 Ru9_6 2.244319 1_555
B3_2 Ru1_2 2.246180 1_555
B3_2 Ru1_6 2.246180 1_555
B3_2 Mg0_2 2.601484 1_555
B3_2 Zr1_2 2.815202 1_555
B3_2 Zr0_3 2.858898 1_554
B3_3 Ru5_3 2.221954 1_555
B3_3 Ru5_7 2.221954 1_555
B3_3 Ru9_3 2.244319 1_555
B3_3 Ru9_7 2.244319 1_555
B3_3 Ru1_7 2.246180 1_555
B3_3 Ru1_3 2.246180 1_555
B3_3 Mg0_3 2.601484 1_555
B3_3 Zr1_3 2.815202 1_555
B3_3 Zr0_2 2.858898 1_555
B3_4 Ru5_0 2.221954 1_655
B3_4 Ru5_4 2.221954 1_555
B3_4 Ru9_0 2.244319 1_655
B3_4 Ru9_4 2.244319 1_555
B3_4 Ru1_0 2.246180 1_655
B3_4 Ru1_4 2.246180 1_555
B3_4 Mg0_4 2.601484 1_555
B3_4 Zr1_4 2.815202 1_555
B3_4 Zr0_5 2.858898 1_554
B3_5 Ru5_1 2.221954 1_655
B3_5 Ru5_5 2.221954 1_555
B3_5 Ru9_1 2.244319 1_655
B3_5 Ru9_5 2.244319 1_555
B3_5 Ru1_1 2.246180 1_655
B3_5 Ru1_5 2.246180 1_555
B3_5 Mg0_5 2.601484 1_555
B3_5 Zr1_5 2.815202 1_555
B3_5 Zr0_4 2.858898 1_555
B3_6 Ru5_2 2.221954 1_655
B3_6 Ru5_6 2.221954 1_555
B3_6 Ru9_2 2.244319 1_655
B3_6 Ru9_6 2.244319 1_555
B3_6 Ru1_2 2.246180 1_655
B3_6 Ru1_6 2.246180 1_555
B3_6 Mg0_6 2.601484 1_555
B3_6 Zr1_6 2.815202 1_555
B3_6 Zr0_7 2.858898 1_554
B3_7 Ru5_3 2.221954 1_655
B3_7 Ru5_7 2.221954 1_555
B3_7 Ru9_3 2.244319 1_655
B3_7 Ru9_7 2.244319 1_555
B3_7 Ru1_3 2.246180 1_655
B3_7 Ru1_7 2.246180 1_555
B3_7 Mg0_7 2.601484 1_555
B3_7 Zr1_7 2.815202 1_555
B3_7 Zr0_6 2.858898 1_555
B4_0 B5_3 1.778854 1_555
B4_0 Ru2_4 2.163566 1_555
B4_0 Ru2_0 2.163566 1_555
B4_0 Ru8_6 2.343989 1_555
B4_0 Ru8_2 2.343989 1_555
B4_0 Ru9_5 2.359941 1_555
B4_0 Ru9_1 2.359941 1_555
B4_0 Zr0_0 2.785489 1_555
B4_0 Zr2_2 2.899139 1_555
B4_1 B5_2 1.778854 1_556
B4_1 Ru2_5 2.163566 1_555
B4_1 Ru2_1 2.163566 1_555
B4_1 Ru8_7 2.343989 1_555
B4_1 Ru8_3 2.343989 1_555
B4_1 Ru9_4 2.359941 1_556
B4_1 Ru9_0 2.359941 1_556
B4_1 Zr0_1 2.785489 1_555
B4_1 Zr2_3 2.899139 1_555
B4_2 B5_1 1.778854 1_565
B4_2 Ru2_6 2.163566 1_555
B4_2 Ru2_2 2.163566 1_555
B4_2 Ru8_0 2.343989 1_565
B4_2 Ru8_4 2.343989 1_565
B4_2 Ru9_3 2.359941 1_555
B4_2 Ru9_7 2.359941 1_555
B4_2 Zr0_2 2.785489 1_555
B4_2 Zr2_0 2.899139 1_565
B4_3 B5_0 1.778854 1_566
B4_3 Ru2_7 2.163566 1_555
B4_3 Ru2_3 2.163566 1_555
B4_3 Ru8_1 2.343989 1_565
B4_3 Ru8_5 2.343989 1_565
B4_3 Ru9_6 2.359941 1_556
B4_3 Ru9_2 2.359941 1_556
B4_3 Zr0_3 2.785489 1_555
B4_3 Zr2_1 2.899139 1_565
B4_4 B5_7 1.778854 1_555
B4_4 Ru2_0 2.163566 1_655
B4_4 Ru2_4 2.163566 1_555
B4_4 Ru8_2 2.343989 1_655
B4_4 Ru8_6 2.343989 1_555
B4_4 Ru9_1 2.359941 1_655
B4_4 Ru9_5 2.359941 1_555
B4_4 Zr0_4 2.785489 1_555
B4_4 Zr2_6 2.899139 1_555
B4_5 B5_6 1.778854 1_556
B4_5 Ru2_1 2.163566 1_655
B4_5 Ru2_5 2.163566 1_555
B4_5 Ru8_3 2.343989 1_655
B4_5 Ru8_7 2.343989 1_555
B4_5 Ru9_0 2.359941 1_656
B4_5 Ru9_4 2.359941 1_556
B4_5 Zr0_5 2.785489 1_555
B4_5 Zr2_7 2.899139 1_555
B4_6 B5_5 1.778854 1_565
B4_6 Ru2_2 2.163566 1_655
B4_6 Ru2_6 2.163566 1_555
B4_6 Ru8_0 2.343989 1_665
B4_6 Ru8_4 2.343989 1_565
B4_6 Ru9_3 2.359941 1_655
B4_6 Ru9_7 2.359941 1_555
B4_6 Zr0_6 2.785489 1_555
B4_6 Zr2_4 2.899139 1_565
B4_7 B5_4 1.778854 1_566
B4_7 Ru2_3 2.163566 1_655
B4_7 Ru2_7 2.163566 1_555
B4_7 Ru8_1 2.343989 1_665
B4_7 Ru8_5 2.343989 1_565
B4_7 Ru9_2 2.359941 1_656
B4_7 Ru9_6 2.359941 1_556
B4_7 Zr0_7 2.785489 1_555
B4_7 Zr2_5 2.899139 1_565
B5_0 Ru3_0 2.150055 1_555
B5_0 Ru3_4 2.150055 1_555
B5_0 Ru9_2 2.340462 1_545
B5_0 Ru9_6 2.340462 1_545
B5_0 Ru8_1 2.379372 1_554
B5_0 Ru8_5 2.379372 1_554
B5_0 Zr1_0 2.844379 1_555
B5_0 Mg0_2 2.845631 1_545
B5_1 Ru3_1 2.150055 1_555
B5_1 Ru3_5 2.150055 1_555
B5_1 Ru9_3 2.340462 1_545
B5_1 Ru9_7 2.340462 1_545
B5_1 Ru8_0 2.379372 1_555
B5_1 Ru8_4 2.379372 1_555
B5_1 Zr1_1 2.844379 1_555
B5_1 Mg0_3 2.845631 1_545
B5_2 Ru3_2 2.150055 1_555
B5_2 Ru3_6 2.150055 1_555
B5_2 Ru9_4 2.340462 1_555
B5_2 Ru9_0 2.340462 1_555
B5_2 Ru8_3 2.379372 1_554
B5_2 Ru8_7 2.379372 1_554
B5_2 Zr1_2 2.844379 1_555
B5_2 Mg0_0 2.845631 1_555
B5_3 Ru3_3 2.150055 1_555
B5_3 Ru3_7 2.150055 1_555
B5_3 Ru9_1 2.340462 1_555
B5_3 Ru9_5 2.340462 1_555
B5_3 Ru8_6 2.379372 1_555
B5_3 Ru8_2 2.379372 1_555
B5_3 Zr1_3 2.844379 1_555
B5_3 Mg0_1 2.845631 1_555
B5_4 Ru3_0 2.150055 1_655
B5_4 Ru3_4 2.150055 1_555
B5_4 Ru9_2 2.340462 1_645
B5_4 Ru9_6 2.340462 1_545
B5_4 Ru8_1 2.379372 1_654
B5_4 Ru8_5 2.379372 1_554
B5_4 Zr1_4 2.844379 1_555
B5_4 Mg0_6 2.845631 1_545
B5_5 Ru3_1 2.150055 1_655
B5_5 Ru3_5 2.150055 1_555
B5_5 Ru9_3 2.340462 1_645
B5_5 Ru9_7 2.340462 1_545
B5_5 Ru8_0 2.379372 1_655
B5_5 Ru8_4 2.379372 1_555
B5_5 Zr1_5 2.844379 1_555
B5_5 Mg0_7 2.845631 1_545
B5_6 Ru3_2 2.150055 1_655
B5_6 Ru3_6 2.150055 1_555
B5_6 Ru9_0 2.340462 1_655
B5_6 Ru9_4 2.340462 1_555
B5_6 Ru8_3 2.379372 1_654
B5_6 Ru8_7 2.379372 1_554
B5_6 Zr1_6 2.844379 1_555
B5_6 Mg0_4 2.845631 1_555
B5_7 Ru3_3 2.150055 1_655
B5_7 Ru3_7 2.150055 1_555
B5_7 Ru9_1 2.340462 1_655
B5_7 Ru9_5 2.340462 1_555
B5_7 Ru8_2 2.379372 1_655
B5_7 Ru8_6 2.379372 1_555
B5_7 Zr1_7 2.844379 1_555
B5_7 Mg0_5 2.845631 1_555
B6_0 B7_0 1.808222 1_555
B6_0 Ru0_0 2.174736 1_555
B6_0 Ru0_4 2.174736 1_555
B6_0 Ru6_0 2.311425 1_555
B6_0 Ru6_4 2.311425 1_555
B6_0 Ru7_0 2.345952 1_555
B6_0 Ru7_4 2.345952 1_555
B6_0 Zr2_0 2.803148 1_555
B6_0 Zr0_0 2.893692 1_555
B6_1 B7_1 1.808222 1_555
B6_1 Ru0_1 2.174736 1_555
B6_1 Ru0_5 2.174736 1_555
B6_1 Ru6_5 2.311425 1_555
B6_1 Ru6_1 2.311425 1_555
B6_1 Ru7_1 2.345952 1_555
B6_1 Ru7_5 2.345952 1_555
B6_1 Zr2_1 2.803148 1_555
B6_1 Zr0_1 2.893692 1_555
B6_2 B7_2 1.808222 1_555
B6_2 Ru0_2 2.174736 1_555
B6_2 Ru0_6 2.174736 1_555
B6_2 Ru6_6 2.311425 1_555
B6_2 Ru6_2 2.311425 1_555
B6_2 Ru7_2 2.345952 1_555
B6_2 Ru7_6 2.345952 1_555
B6_2 Zr2_2 2.803148 1_555
B6_2 Zr0_2 2.893692 1_555
B6_3 B7_3 1.808222 1_555
B6_3 Ru0_3 2.174736 1_555
B6_3 Ru0_7 2.174736 1_555
B6_3 Ru6_3 2.311425 1_555
B6_3 Ru6_7 2.311425 1_555
B6_3 Ru7_3 2.345952 1_555
B6_3 Ru7_7 2.345952 1_555
B6_3 Zr2_3 2.803148 1_555
B6_3 Zr0_3 2.893692 1_555
B6_4 B7_4 1.808222 1_555
B6_4 Ru0_0 2.174736 1_655
B6_4 Ru0_4 2.174736 1_555
B6_4 Ru6_0 2.311425 1_655
B6_4 Ru6_4 2.311425 1_555
B6_4 Ru7_0 2.345952 1_655
B6_4 Ru7_4 2.345952 1_555
B6_4 Zr2_4 2.803148 1_555
B6_4 Zr0_4 2.893692 1_555
B6_5 B7_5 1.808222 1_555
B6_5 Ru0_1 2.174736 1_655
B6_5 Ru0_5 2.174736 1_555
B6_5 Ru6_1 2.311425 1_655
B6_5 Ru6_5 2.311425 1_555
B6_5 Ru7_1 2.345952 1_655
B6_5 Ru7_5 2.345952 1_555
B6_5 Zr2_5 2.803148 1_555
B6_5 Zr0_5 2.893692 1_555
B6_6 B7_6 1.808222 1_555
B6_6 Ru0_2 2.174736 1_655
B6_6 Ru0_6 2.174736 1_555
B6_6 Ru6_2 2.311425 1_655
B6_6 Ru6_6 2.311425 1_555
B6_6 Ru7_2 2.345952 1_655
B6_6 Ru7_6 2.345952 1_555
B6_6 Zr2_6 2.803148 1_555
B6_6 Zr0_6 2.893692 1_555
B6_7 B7_7 1.808222 1_555
B6_7 Ru0_3 2.174736 1_655
B6_7 Ru0_7 2.174736 1_555
B6_7 Ru6_3 2.311425 1_655
B6_7 Ru6_7 2.311425 1_555
B6_7 Ru7_3 2.345952 1_655
B6_7 Ru7_7 2.345952 1_555
B6_7 Zr2_7 2.803148 1_555
B6_7 Zr0_7 2.893692 1_555
B7_0 Ru1_0 2.156492 1_555
B7_0 Ru1_4 2.156492 1_555
B7_0 Ru6_0 2.327839 1_555
B7_0 Ru6_4 2.327839 1_555
B7_0 Ru7_0 2.373544 1_555
B7_0 Ru7_4 2.373544 1_555
B7_0 Zr1_0 2.826583 1_555
B7_0 Mg0_0 2.881673 1_555
B7_1 Ru1_5 2.156492 1_555
B7_1 Ru1_1 2.156492 1_555
B7_1 Ru6_1 2.327839 1_555
B7_1 Ru6_5 2.327839 1_555
B7_1 Ru7_1 2.373544 1_555
B7_1 Ru7_5 2.373544 1_555
B7_1 Zr1_1 2.826583 1_555
B7_1 Mg0_1 2.881673 1_555
B7_2 Ru1_2 2.156492 1_555
B7_2 Ru1_6 2.156492 1_555
B7_2 Ru6_2 2.327839 1_555
B7_2 Ru6_6 2.327839 1_555
B7_2 Ru7_2 2.373544 1_555
B7_2 Ru7_6 2.373544 1_555
B7_2 Zr1_2 2.826583 1_555
B7_2 Mg0_2 2.881673 1_555
B7_3 Ru1_7 2.156492 1_555
B7_3 Ru1_3 2.156492 1_555
B7_3 Ru6_3 2.327839 1_555
B7_3 Ru6_7 2.327839 1_555
B7_3 Ru7_3 2.373544 1_555
B7_3 Ru7_7 2.373544 1_555
B7_3 Zr1_3 2.826583 1_555
B7_3 Mg0_3 2.881673 1_555
B7_4 Ru1_0 2.156492 1_655
B7_4 Ru1_4 2.156492 1_555
B7_4 Ru6_0 2.327839 1_655
B7_4 Ru6_4 2.327839 1_555
B7_4 Ru7_0 2.373544 1_655
B7_4 Ru7_4 2.373544 1_555
B7_4 Zr1_4 2.826583 1_555
B7_4 Mg0_4 2.881673 1_555
B7_5 Ru1_1 2.156492 1_655
B7_5 Ru1_5 2.156492 1_555
B7_5 Ru6_1 2.327839 1_655
B7_5 Ru6_5 2.327839 1_555
B7_5 Ru7_1 2.373544 1_655
B7_5 Ru7_5 2.373544 1_555
B7_5 Zr1_5 2.826583 1_555
B7_5 Mg0_5 2.881673 1_555
B7_6 Ru1_2 2.156492 1_655
B7_6 Ru1_6 2.156492 1_555
B7_6 Ru6_2 2.327839 1_655
B7_6 Ru6_6 2.327839 1_555
B7_6 Ru7_2 2.373544 1_655
B7_6 Ru7_6 2.373544 1_555
B7_6 Zr1_6 2.826583 1_555
B7_6 Mg0_6 2.881673 1_555
B7_7 Ru1_3 2.156492 1_655
B7_7 Ru1_7 2.156492 1_555
B7_7 Ru6_3 2.327839 1_655
B7_7 Ru6_7 2.327839 1_555
B7_7 Ru7_3 2.373544 1_655
B7_7 Ru7_7 2.373544 1_555
B7_7 Zr1_7 2.826583 1_555
B7_7 Mg0_7 2.881673 1_555
Ru0_0 Zr2_4 2.692902 1_455
Ru0_0 Zr2_0 2.692902 1_555
Ru0_0 Zr0_4 2.787336 1_455
Ru0_0 Zr0_0 2.787336 1_555
Ru0_1 Zr2_5 2.692902 1_455
Ru0_1 Zr2_1 2.692902 1_555
Ru0_1 Zr0_5 2.787336 1_455
Ru0_1 Zr0_1 2.787336 1_555
Ru0_2 Zr2_6 2.692902 1_455
Ru0_2 Zr2_2 2.692902 1_555
Ru0_2 Zr0_6 2.787336 1_455
Ru0_2 Zr0_2 2.787336 1_555
Ru0_3 Zr2_7 2.692902 1_455
Ru0_3 Zr2_3 2.692902 1_555
Ru0_3 Zr0_7 2.787336 1_455
Ru0_3 Zr0_3 2.787336 1_555
Ru0_4 Zr2_0 2.692902 1_555
Ru0_4 Zr2_4 2.692902 1_555
Ru0_4 Zr0_0 2.787336 1_555
Ru0_4 Zr0_4 2.787336 1_555
Ru0_5 Zr2_1 2.692902 1_555
Ru0_5 Zr2_5 2.692902 1_555
Ru0_5 Zr0_1 2.787336 1_555
Ru0_5 Zr0_5 2.787336 1_555
Ru0_6 Zr2_2 2.692902 1_555
Ru0_6 Zr2_6 2.692902 1_555
Ru0_6 Zr0_2 2.787336 1_555
Ru0_6 Zr0_6 2.787336 1_555
Ru0_7 Zr2_7 2.692902 1_555
Ru0_7 Zr2_3 2.692902 1_555
Ru0_7 Zr0_3 2.787336 1_555
Ru0_7 Zr0_7 2.787336 1_555
Ru1_0 Zr1_4 2.785031 1_455
Ru1_0 Zr1_0 2.785031 1_555
Ru1_1 Zr1_5 2.785031 1_455
Ru1_1 Zr1_1 2.785031 1_555
Ru1_2 Zr1_6 2.785031 1_455
Ru1_2 Zr1_2 2.785031 1_555
Ru1_3 Zr1_7 2.785031 1_455
Ru1_3 Zr1_3 2.785031 1_555
Ru1_4 Zr1_0 2.785031 1_555
Ru1_4 Zr1_4 2.785031 1_555
Ru1_5 Zr1_1 2.785031 1_555
Ru1_5 Zr1_5 2.785031 1_555
Ru1_6 Zr1_2 2.785031 1_555
Ru1_6 Zr1_6 2.785031 1_555
Ru1_7 Zr1_3 2.785031 1_555
Ru1_7 Zr1_7 2.785031 1_555
Ru2_0 Zr0_4 2.685969 1_455
Ru2_0 Zr0_0 2.685969 1_555
Ru2_0 Zr2_6 2.778414 1_455
Ru2_0 Zr2_2 2.778414 1_555
Ru2_1 Zr0_5 2.685969 1_455
Ru2_1 Zr0_1 2.685969 1_555
Ru2_1 Zr2_7 2.778414 1_455
Ru2_1 Zr2_3 2.778414 1_555
Ru2_2 Zr0_6 2.685969 1_455
Ru2_2 Zr0_2 2.685969 1_555
Ru2_2 Zr2_4 2.778414 1_465
Ru2_2 Zr2_0 2.778414 1_565
Ru2_3 Zr0_3 2.685969 1_555
Ru2_3 Zr0_7 2.685969 1_455
Ru2_3 Zr2_5 2.778414 1_465
Ru2_3 Zr2_1 2.778414 1_565
Ru2_4 Zr0_0 2.685969 1_555
Ru2_4 Zr0_4 2.685969 1_555
Ru2_4 Zr2_2 2.778414 1_555
Ru2_4 Zr2_6 2.778414 1_555
Ru2_5 Zr0_1 2.685969 1_555
Ru2_5 Zr0_5 2.685969 1_555
Ru2_5 Zr2_3 2.778414 1_555
Ru2_5 Zr2_7 2.778414 1_555
Ru2_6 Zr0_2 2.685969 1_555
Ru2_6 Zr0_6 2.685969 1_555
Ru2_6 Zr2_0 2.778414 1_565
Ru2_6 Zr2_4 2.778414 1_565
Ru2_7 Zr0_3 2.685969 1_555
Ru2_7 Zr0_7 2.685969 1_555
Ru2_7 Zr2_5 2.778414 1_565
Ru2_7 Zr2_1 2.778414 1_565
Ru3_0 Zr1_4 2.684911 1_455
Ru3_0 Zr1_0 2.684911 1_555
Ru3_1 Zr1_5 2.684911 1_455
Ru3_1 Zr1_1 2.684911 1_555
Ru3_2 Zr1_6 2.684911 1_455
Ru3_2 Zr1_2 2.684911 1_555
Ru3_3 Zr1_7 2.684911 1_455
Ru3_3 Zr1_3 2.684911 1_555
Ru3_4 Zr1_0 2.684911 1_555
Ru3_4 Zr1_4 2.684911 1_555
Ru3_5 Zr1_1 2.684911 1_555
Ru3_5 Zr1_5 2.684911 1_555
Ru3_6 Zr1_2 2.684911 1_555
Ru3_6 Zr1_6 2.684911 1_555
Ru3_7 Zr1_3 2.684911 1_555
Ru3_7 Zr1_7 2.684911 1_555
Ru4_0 Zr2_6 2.728199 1_455
Ru4_0 Zr2_2 2.728199 1_555
Ru4_1 Zr2_7 2.728199 1_455
Ru4_1 Zr2_3 2.728199 1_555
Ru4_2 Zr2_4 2.728199 1_465
Ru4_2 Zr2_0 2.728199 1_565
Ru4_3 Zr2_5 2.728199 1_465
Ru4_3 Zr2_1 2.728199 1_565
Ru4_4 Zr2_2 2.728199 1_555
Ru4_4 Zr2_6 2.728199 1_555
Ru4_5 Zr2_3 2.728199 1_555
Ru4_5 Zr2_7 2.728199 1_555
Ru4_6 Zr2_0 2.728199 1_565
Ru4_6 Zr2_4 2.728199 1_565
Ru4_7 Zr2_1 2.728199 1_565
Ru4_7 Zr2_5 2.728199 1_565
Ru5_0 Zr1_4 2.750343 1_455
Ru5_0 Zr1_0 2.750343 1_555
Ru5_0 Zr0_5 2.750359 1_454
Ru5_0 Zr0_1 2.750359 1_554
Ru5_1 Zr1_5 2.750343 1_455
Ru5_1 Zr1_1 2.750343 1_555
Ru5_1 Zr0_4 2.750359 1_455
Ru5_1 Zr0_0 2.750359 1_555
Ru5_2 Zr1_6 2.750343 1_455
Ru5_2 Zr1_2 2.750343 1_555
Ru5_2 Zr0_7 2.750359 1_454
Ru5_2 Zr0_3 2.750359 1_554
Ru5_3 Zr1_7 2.750343 1_455
Ru5_3 Zr1_3 2.750343 1_555
Ru5_3 Zr0_2 2.750359 1_555
Ru5_3 Zr0_6 2.750359 1_455
Ru5_4 Zr1_0 2.750343 1_555
Ru5_4 Zr1_4 2.750343 1_555
Ru5_4 Zr0_1 2.750359 1_554
Ru5_4 Zr0_5 2.750359 1_554
Ru5_5 Zr1_1 2.750343 1_555
Ru5_5 Zr1_5 2.750343 1_555
Ru5_5 Zr0_0 2.750359 1_555
Ru5_5 Zr0_4 2.750359 1_555
Ru5_6 Zr1_2 2.750343 1_555
Ru5_6 Zr1_6 2.750343 1_555
Ru5_6 Zr0_3 2.750359 1_554
Ru5_6 Zr0_7 2.750359 1_554
Ru5_7 Zr1_3 2.750343 1_555
Ru5_7 Zr1_7 2.750343 1_555
Ru5_7 Zr0_2 2.750359 1_555
Ru5_7 Zr0_6 2.750359 1_555
Ru6_0 Zr0_4 3.024290 1_455
Ru6_0 Zr0_0 3.024290 1_555
Ru6_1 Zr0_1 3.024290 1_555
Ru6_1 Zr0_5 3.024290 1_455
Ru6_2 Zr0_2 3.024290 1_555
Ru6_2 Zr0_6 3.024290 1_455
Ru6_3 Zr0_3 3.024290 1_555
Ru6_3 Zr0_7 3.024290 1_455
Ru6_4 Zr0_0 3.024290 1_555
Ru6_4 Zr0_4 3.024290 1_555
Ru6_5 Zr0_1 3.024290 1_555
Ru6_5 Zr0_5 3.024290 1_555
Ru6_6 Zr0_2 3.024290 1_555
Ru6_6 Zr0_6 3.024290 1_555
Ru6_7 Zr0_3 3.024290 1_555
Ru6_7 Zr0_7 3.024290 1_555
Ru7_0 Zr1_4 3.018551 1_455
Ru7_0 Zr1_0 3.018551 1_555
Ru7_0 Zr2_4 3.084103 1_455
Ru7_0 Zr2_0 3.084103 1_555
Ru7_1 Zr1_5 3.018551 1_455
Ru7_1 Zr1_1 3.018551 1_555
Ru7_1 Zr2_5 3.084103 1_455
Ru7_1 Zr2_1 3.084103 1_555
Ru7_2 Zr1_6 3.018551 1_455
Ru7_2 Zr1_2 3.018551 1_555
Ru7_2 Zr2_6 3.084103 1_455
Ru7_2 Zr2_2 3.084103 1_555
Ru7_3 Zr1_7 3.018551 1_455
Ru7_3 Zr1_3 3.018551 1_555
Ru7_3 Zr2_7 3.084103 1_455
Ru7_3 Zr2_3 3.084103 1_555
Ru7_4 Zr1_0 3.018551 1_555
Ru7_4 Zr1_4 3.018551 1_555
Ru7_4 Zr2_0 3.084103 1_555
Ru7_4 Zr2_4 3.084103 1_555
Ru7_5 Zr1_1 3.018551 1_555
Ru7_5 Zr1_5 3.018551 1_555
Ru7_5 Zr2_5 3.084103 1_555
Ru7_5 Zr2_1 3.084103 1_555
Ru7_6 Zr1_2 3.018551 1_555
Ru7_6 Zr1_6 3.018551 1_555
Ru7_6 Zr2_6 3.084103 1_555
Ru7_6 Zr2_2 3.084103 1_555
Ru7_7 Zr1_3 3.018551 1_555
Ru7_7 Zr1_7 3.018551 1_555
Ru7_7 Zr2_3 3.084103 1_555
Ru7_7 Zr2_7 3.084103 1_555
Ru8_0 Zr2_4 3.072014 1_455
Ru8_0 Zr2_0 3.072014 1_555
Ru8_0 Zr1_1 3.137948 1_555
Ru8_0 Zr1_5 3.137948 1_455
Ru8_1 Zr2_5 3.072014 1_455
Ru8_1 Zr2_1 3.072014 1_555
Ru8_1 Zr1_4 3.137948 1_456
Ru8_1 Zr1_0 3.137948 1_556
Ru8_2 Zr2_2 3.072014 1_555
Ru8_2 Zr2_6 3.072014 1_455
Ru8_2 Zr1_7 3.137948 1_455
Ru8_2 Zr1_3 3.137948 1_555
Ru8_3 Zr2_7 3.072014 1_455
Ru8_3 Zr2_3 3.072014 1_555
Ru8_3 Zr1_6 3.137948 1_456
Ru8_3 Zr1_2 3.137948 1_556
Ru8_4 Zr2_0 3.072014 1_555
Ru8_4 Zr2_4 3.072014 1_555
Ru8_4 Zr1_1 3.137948 1_555
Ru8_4 Zr1_5 3.137948 1_555
Ru8_5 Zr2_1 3.072014 1_555
Ru8_5 Zr2_5 3.072014 1_555
Ru8_5 Zr1_0 3.137948 1_556
Ru8_5 Zr1_4 3.137948 1_556
Ru8_6 Zr2_2 3.072014 1_555
Ru8_6 Zr2_6 3.072014 1_555
Ru8_6 Zr1_7 3.137948 1_555
Ru8_6 Zr1_3 3.137948 1_555
Ru8_7 Zr2_3 3.072014 1_555
Ru8_7 Zr2_7 3.072014 1_555
Ru8_7 Zr1_2 3.137948 1_556
Ru8_7 Zr1_6 3.137948 1_556
Ru9_0 Zr0_1 3.026876 1_554
Ru9_0 Zr0_5 3.026876 1_454
Ru9_1 Zr0_4 3.026876 1_455
Ru9_1 Zr0_0 3.026876 1_555
Ru9_2 Zr0_7 3.026876 1_454
Ru9_2 Zr0_3 3.026876 1_554
Ru9_3 Zr0_2 3.026876 1_555
Ru9_3 Zr0_6 3.026876 1_455
Ru9_4 Zr0_1 3.026876 1_554
Ru9_4 Zr0_5 3.026876 1_554
Ru9_5 Zr0_0 3.026876 1_555
Ru9_5 Zr0_4 3.026876 1_555
Ru9_6 Zr0_3 3.026876 1_554
Ru9_6 Zr0_7 3.026876 1_554
Ru9_7 Zr0_2 3.026876 1_555
Ru9_7 Zr0_6 3.026876 1_555
