# generated using pymatgen
data_Nb16N13
_symmetry_space_group_name_H-M   'P 1'
_cell_length_a   8.26466631
_cell_length_b   8.26466631
_cell_length_c   8.26466631
_cell_angle_alpha   135.42053821
_cell_angle_beta   116.01703371
_cell_angle_gamma   81.31998459
_symmetry_Int_Tables_number   1
_chemical_formula_structural   Nb16N13
_chemical_formula_sum   'Nb16 N13'
_cell_volume   344.20797659
_cell_formula_units_Z   1
loop_
 _symmetry_equiv_pos_site_id
 _symmetry_equiv_pos_as_xyz
  1  'x, y, z'
loop_
 _atom_site_type_symbol
 _atom_site_label
 _atom_site_symmetry_multiplicity
 _atom_site_fract_x
 _atom_site_fract_y
 _atom_site_fract_z
 _atom_site_occupancy
  Nb  Nb0  1  0.62640300  0.87680600  0.25040300  1
  Nb  Nb1  1  0.62640300  0.37600000  0.74959700  1
  Nb  Nb2  1  0.25686700  0.00000000  0.25686700  1
  Nb  Nb3  1  0.37359700  0.12319400  0.74959700  1
  Nb  Nb4  1  0.37359700  0.62400000  0.25040300  1
  Nb  Nb5  1  0.01040000  0.25036000  0.76004000  1
  Nb  Nb6  1  0.12964800  0.36918200  0.23953400  1
  Nb  Nb7  1  0.98960000  0.74964000  0.23996000  1
  Nb  Nb8  1  0.12964800  0.89011400  0.76046600  1
  Nb  Nb9  1  0.74933400  0.50000000  0.24933400  1
  Nb  Nb10  1  0.87035200  0.63081800  0.76046600  1
  Nb  Nb11  1  0.74313300  0.00000000  0.74313300  1
  Nb  Nb12  1  0.87035200  0.10988600  0.23953400  1
  Nb  Nb13  1  0.50968000  0.74964000  0.76004000  1
  Nb  Nb14  1  0.49032000  0.25036000  0.23996000  1
  Nb  Nb15  1  0.25066600  0.50000000  0.75066600  1
  N  N0  1  0.50000000  0.50000000  0.00000000  1
  N  N1  1  0.12553700  0.12453400  0.49974800  1
  N  N2  1  0.12553700  0.62578800  0.00100200  1
  N  N3  1  0.24983400  0.74983400  0.50000000  1
  N  N4  1  0.87446300  0.37421200  0.99899800  1
  N  N5  1  0.00000000  0.50000000  0.50000000  1
  N  N6  1  0.87446300  0.87546600  0.50025200  1
  N  N7  1  0.00000000  0.00000000  0.00000000  1
  N  N8  1  0.62478600  0.62578800  0.50025200  1
  N  N9  1  0.62478600  0.12453400  0.99899800  1
  N  N10  1  0.75016600  0.25016600  0.50000000  1
  N  N11  1  0.37521400  0.87546600  0.00100200  1
  N  N12  1  0.37521400  0.37421200  0.49974800  1
loop_
_geom_bond_atom_site_label_1
_geom_bond_atom_site_label_2
_geom_bond_distance
_geom_bond_site_symmetry_2
N0 Nb15 2.183450 1_554
N0 Nb9 2.183450 1_555
N0 Nb4 2.230838 1_555
N0 Nb3 2.230838 1_554
N0 Nb0 2.230838 1_555
N0 Nb1 2.230838 1_554
N1 Nb3 2.186082 1_555
N1 Nb12 2.194267 1_455
N1 Nb2 2.213103 1_555
N1 Nb15 2.217942 1_555
N1 Nb5 2.219227 1_555
N1 Nb7 2.220315 1_445
N2 Nb4 2.186082 1_555
N2 Nb10 2.194267 1_454
N2 Nb2 2.213108 1_565
N2 Nb15 2.217937 1_554
N2 Nb5 2.219223 1_554
N2 Nb7 2.220319 1_455
N3 Nb3 2.203851 1_565
N3 Nb4 2.203851 1_555
N3 Nb8 2.222086 1_555
N3 Nb6 2.222086 1_555
N3 Nb7 2.277205 1_455
N3 Nb13 2.277205 1_555
N4 Nb1 2.186082 1_555
N4 Nb6 2.194267 1_656
N4 Nb11 2.213108 1_555
N4 Nb9 2.217937 1_556
N4 Nb7 2.219223 1_556
N4 Nb5 2.220319 1_655
N5 Nb15 2.195114 1_555
N5 Nb9 2.195114 1_455
N5 Nb10 2.304200 1_455
N5 Nb6 2.304200 1_555
N5 Nb8 2.304200 1_555
N5 Nb12 2.304200 1_455
N6 Nb0 2.186082 1_555
N6 Nb8 2.194267 1_655
N6 Nb11 2.213103 1_565
N6 Nb9 2.217942 1_555
N6 Nb7 2.219227 1_555
N6 Nb5 2.220315 1_665
N7 Nb10 2.213135 1_444
N7 Nb12 2.213135 1_455
N7 Nb6 2.213135 1_555
N7 Nb8 2.213135 1_544
N7 Nb11 2.249417 1_454
N7 Nb2 2.249417 1_555
N8 Nb4 2.186086 1_555
N8 Nb10 2.194262 1_555
N8 Nb11 2.213110 1_565
N8 Nb9 2.217944 1_555
N8 Nb14 2.219221 1_555
N8 Nb13 2.220312 1_555
N9 Nb3 2.186086 1_555
N9 Nb12 2.194262 1_556
N9 Nb11 2.213110 1_555
N9 Nb9 2.217944 1_556
N9 Nb14 2.219221 1_556
N9 Nb13 2.220312 1_545
N10 Nb1 2.203851 1_555
N10 Nb0 2.203851 1_545
N10 Nb12 2.222086 1_555
N10 Nb10 2.222086 1_555
N10 Nb5 2.277205 1_655
N10 Nb14 2.277205 1_555
N11 Nb0 2.186086 1_555
N11 Nb8 2.194262 1_554
N11 Nb2 2.213110 1_565
N11 Nb15 2.217944 1_554
N11 Nb13 2.219221 1_554
N11 Nb14 2.220312 1_565
N12 Nb1 2.186086 1_555
N12 Nb6 2.194262 1_555
N12 Nb2 2.213110 1_555
N12 Nb15 2.217944 1_555
N12 Nb13 2.219221 1_555
N12 Nb14 2.220312 1_555
