# generated using pymatgen
data_Sc12InNi4Os
_symmetry_space_group_name_H-M   'P 1'
_cell_length_a   7.74089511
_cell_length_b   7.74089586
_cell_length_c   7.74089668
_cell_angle_alpha   111.08624295
_cell_angle_beta   110.87242679
_cell_angle_gamma   106.49543240
_symmetry_Int_Tables_number   1
_chemical_formula_structural   Sc12InNi4Os
_chemical_formula_sum   'Sc12 In1 Ni4 Os1'
_cell_volume   356.34974591
_cell_formula_units_Z   1
loop_
 _symmetry_equiv_pos_site_id
 _symmetry_equiv_pos_as_xyz
  1  'x, y, z'
loop_
 _atom_site_type_symbol
 _atom_site_label
 _atom_site_symmetry_multiplicity
 _atom_site_fract_x
 _atom_site_fract_y
 _atom_site_fract_z
 _atom_site_occupancy
  Sc  Sc0  1  0.42272038  0.22748200  0.19523938  1
  Sc  Sc1  1  0.57727962  0.77251800  0.80476062  1
  Sc  Sc2  1  0.03224362  0.22748200  0.80476062  1
  Sc  Sc3  1  0.96775638  0.77251800  0.19523938  1
  Sc  Sc4  1  0.32143435  0.62148156  0.30004721  1
  Sc  Sc5  1  0.67856565  0.37851844  0.69995279  1
  Sc  Sc6  1  0.32143435  0.02138614  0.69995279  1
  Sc  Sc7  1  0.67856565  0.97861386  0.30004721  1
  Sc  Sc8  1  0.18073322  0.27434256  0.45507678  1
  Sc  Sc9  1  0.81926678  0.72565644  0.54492322  1
  Sc  Sc10  1  0.18073322  0.72565644  0.90639065  1
  Sc  Sc11  1  0.81926678  0.27434256  0.09360935  1
  In  In0  1  0.50000000  0.50000000  0.00000000  1
  Ni  Ni0  1  0.35510705  0.00000000  0.35510705  1
  Ni  Ni1  1  0.64489295  1.00000000  0.64489295  1
  Ni  Ni2  1  0.12241017  0.62241017  0.50000000  1
  Ni  Ni3  1  0.87758983  0.37758983  0.50000000  1
  Os  Os0  1  0.00000000  0.00000000  0.00000000  1
loop_
_geom_bond_atom_site_label_1
_geom_bond_atom_site_label_2
_geom_bond_distance
_geom_bond_site_symmetry_2
Sc0 Sc8 3.198708 1_555
Sc0 Sc10 3.198714 1_544
Sc0 Sc7 3.230795 1_545
Sc0 Sc5 3.230797 1_555
Sc0 Sc4 3.256633 1_555
Sc0 Sc6 3.256640 1_554
Sc0 Sc9 3.386271 1_555
Sc0 Sc11 3.386281 1_555
Sc0 Sc2 3.429637 1_554
Sc1 Sc11 3.198708 1_566
Sc1 Sc9 3.198708 1_555
Sc1 Sc6 3.230795 1_565
Sc1 Sc4 3.230797 1_555
Sc1 Sc5 3.256633 1_555
Sc1 Sc7 3.256640 1_556
Sc1 Sc8 3.386275 1_555
Sc1 Sc10 3.386280 1_555
Sc1 Sc3 3.429637 1_556
Sc2 Sc9 3.198714 1_445
Sc2 Sc7 3.230799 1_445
Sc2 Sc5 3.230803 1_455
Sc2 Sc6 3.256635 1_555
Sc2 Sc4 3.256638 1_556
Sc2 Sc8 3.386262 1_555
Sc3 Sc8 3.198708 1_665
Sc3 Sc6 3.230799 1_665
Sc3 Sc4 3.230803 1_655
Sc3 Sc7 3.256635 1_555
Sc3 Sc5 3.256638 1_554
Sc3 Sc9 3.386264 1_555
Sc4 Sc7 3.308337 1_555
Sc4 Sc9 3.320284 1_555
Sc4 Sc8 3.381865 1_555
Sc5 Sc6 3.308337 1_555
Sc5 Sc8 3.320282 1_555
Sc5 Sc9 3.381859 1_555
Sc6 Sc8 3.320284 1_555
Sc6 Sc9 3.381856 1_445
Sc7 Sc9 3.320291 1_555
Sc7 Sc8 3.381855 1_665
Sc10 Sc9 3.174830 1_455
Sc10 Sc3 3.198714 1_456
Sc10 Sc4 3.320278 1_556
Sc10 Sc7 3.320281 1_556
Sc10 Sc5 3.381856 1_455
Sc10 Sc6 3.381859 1_565
Sc10 Sc2 3.386267 1_555
Sc11 Sc8 3.174830 1_655
Sc11 Sc2 3.198714 1_654
Sc11 Sc6 3.320282 1_554
Sc11 Sc5 3.320283 1_554
Sc11 Sc7 3.381853 1_545
Sc11 Sc4 3.381859 1_655
Sc11 Sc3 3.386274 1_555
In0 Sc3 3.051837 1_555
In0 Sc2 3.051837 1_554
In0 Sc1 3.051845 1_554
In0 Sc0 3.051845 1_555
In0 Sc4 3.105454 1_555
In0 Sc5 3.105454 1_554
In0 Sc7 3.105460 1_555
In0 Sc6 3.105460 1_554
In0 Sc10 3.430801 1_554
In0 Sc8 3.430801 1_554
In0 Sc9 3.430802 1_555
In0 Sc11 3.430807 1_555
Ni0 Sc0 2.532267 1_555
Ni0 Sc3 2.532274 1_445
Ni0 Ni1 2.545242 1_545
Ni0 Sc7 2.724599 1_545
Ni0 Sc5 2.724601 1_555
Ni0 Sc4 2.724601 1_545
Ni0 Sc6 2.724603 1_555
Ni0 Sc8 2.849635 1_555
Ni0 Sc10 2.849636 1_544
Ni1 Sc1 2.532267 1_555
Ni1 Sc2 2.532274 1_665
Ni1 Sc6 2.724599 1_565
Ni1 Sc4 2.724601 1_555
Ni1 Sc5 2.724601 1_565
Ni1 Sc7 2.724603 1_555
Ni1 Sc11 2.849634 1_566
Ni1 Sc9 2.849641 1_555
Ni2 Ni3 2.267925 1_455
Ni2 Sc6 2.542984 1_565
Ni2 Sc4 2.542990 1_555
Ni2 Sc9 2.777182 1_455
Ni2 Sc11 2.777188 1_455
Ni2 Sc8 2.777189 1_555
Ni2 Sc10 2.777190 1_555
Ni2 Sc3 3.016407 1_455
Ni2 Sc1 3.016411 1_555
Ni3 Sc7 2.542984 1_545
Ni3 Sc5 2.542990 1_555
Ni3 Sc9 2.777182 1_555
Ni3 Sc8 2.777185 1_655
Ni3 Sc10 2.777185 1_655
Ni3 Sc11 2.777188 1_555
Ni3 Sc2 3.016407 1_655
Ni3 Sc0 3.016411 1_555
Os0 Sc0 2.716861 1_555
Os0 Sc1 2.716861 1_444
Os0 Sc2 2.716869 1_554
Os0 Sc3 2.716869 1_445
Os0 Sc11 2.880039 1_455
Os0 Sc10 2.880045 1_544
Os0 Sc8 2.880046 1_555
Os0 Sc9 2.880047 1_444
