# generated using pymatgen
data_Hf6Be14AlCu8
_symmetry_space_group_name_H-M   'P 1'
_cell_length_a   7.84932081
_cell_length_b   7.84932116
_cell_length_c   7.84932077
_cell_angle_alpha   60.00000165
_cell_angle_beta   60.00000017
_cell_angle_gamma   60.00000160
_symmetry_Int_Tables_number   1
_chemical_formula_structural   Hf6Be14AlCu8
_chemical_formula_sum   'Hf6 Be14 Al1 Cu8'
_cell_volume   341.96469342
_cell_formula_units_Z   1
loop_
 _symmetry_equiv_pos_site_id
 _symmetry_equiv_pos_as_xyz
  1  'x, y, z'
loop_
 _atom_site_type_symbol
 _atom_site_label
 _atom_site_symmetry_multiplicity
 _atom_site_fract_x
 _atom_site_fract_y
 _atom_site_fract_z
 _atom_site_occupancy
  Hf  Hf0  1  0.70238447  0.29761553  0.29761553  1
  Hf  Hf1  1  0.29761553  0.70238447  0.70238447  1
  Hf  Hf2  1  0.29761553  0.70238447  0.29761553  1
  Hf  Hf3  1  0.70238447  0.29761553  0.70238447  1
  Hf  Hf4  1  0.29761553  0.29761553  0.70238447  1
  Hf  Hf5  1  0.70238447  0.70238447  0.29761553  1
  Be  Be0  1  0.32545735  0.32545735  0.32545735  1
  Be  Be1  1  0.67454265  0.67454265  0.67454265  1
  Be  Be2  1  0.32545735  0.32545735  0.02362796  1
  Be  Be3  1  0.32545735  0.02362796  0.32545735  1
  Be  Be4  1  0.67454265  0.67454265  0.97637204  1
  Be  Be5  1  0.67454265  0.97637204  0.67454265  1
  Be  Be6  1  0.02362796  0.32545735  0.32545735  1
  Be  Be7  1  0.97637204  0.67454265  0.67454265  1
  Be  Be8  1  0.50000000  0.00000000  0.00000000  1
  Be  Be9  1  0.00000000  0.50000000  0.50000000  1
  Be  Be10  1  0.00000000  0.50000000  0.00000000  1
  Be  Be11  1  0.50000000  0.00000000  0.50000000  1
  Be  Be12  1  0.00000000  0.00000000  0.50000000  1
  Be  Be13  1  0.50000000  0.50000000  0.00000000  1
  Al  Al0  1  0.00000000  0.00000000  0.00000000  1
  Cu  Cu0  1  0.12671230  0.12671230  0.12671230  1
  Cu  Cu1  1  0.87328770  0.87328770  0.87328770  1
  Cu  Cu2  1  0.12671230  0.12671230  0.61986410  1
  Cu  Cu3  1  0.12671230  0.61986410  0.12671230  1
  Cu  Cu4  1  0.87328770  0.87328770  0.38013590  1
  Cu  Cu5  1  0.87328770  0.38013590  0.87328770  1
  Cu  Cu6  1  0.61986410  0.12671230  0.12671230  1
  Cu  Cu7  1  0.38013590  0.87328770  0.87328770  1
loop_
_geom_bond_atom_site_label_1
_geom_bond_atom_site_label_2
_geom_bond_distance
_geom_bond_site_symmetry_2
Be0 Be13 2.270958 1_555
Be0 Be9 2.270958 1_555
Be0 Be11 2.270958 1_555
Be0 Cu6 2.330473 1_555
Be0 Cu2 2.330473 1_555
Be0 Cu3 2.330473 1_555
Be0 Be2 2.369156 1_555
Be0 Be6 2.369156 1_555
Be0 Be3 2.369156 1_555
Be0 Hf4 2.757457 1_555
Be0 Hf0 2.757457 1_555
Be0 Hf2 2.757458 1_555
Be1 Be13 2.270958 1_556
Be1 Be9 2.270958 1_655
Be1 Be11 2.270958 1_565
Be1 Cu7 2.330473 1_555
Be1 Cu4 2.330473 1_555
Be1 Cu5 2.330473 1_555
Be1 Be4 2.369156 1_555
Be1 Be7 2.369156 1_555
Be1 Be5 2.369156 1_555
Be1 Hf5 2.757457 1_555
Be1 Hf1 2.757457 1_555
Be1 Hf3 2.757458 1_555
Be2 Be8 2.270958 1_555
Be2 Cu0 2.330471 1_555
Be2 Cu6 2.330477 1_555
Be2 Cu3 2.330477 1_555
Be2 Be6 2.369156 1_555
Be2 Be3 2.369156 1_555
Be2 Hf4 2.757457 1_554
Be2 Hf3 2.757457 1_554
Be2 Hf1 2.757458 1_554
Be3 Be8 2.270958 1_555
Be3 Cu0 2.330471 1_555
Be3 Cu2 2.330477 1_555
Be3 Cu6 2.330477 1_555
Be3 Be6 2.369156 1_555
Be3 Hf1 2.757457 1_545
Be3 Hf2 2.757457 1_545
Be3 Hf5 2.757457 1_545
Be4 Be8 2.270958 1_566
Be4 Cu1 2.330471 1_555
Be4 Cu7 2.330477 1_555
Be4 Cu5 2.330477 1_555
Be4 Be7 2.369156 1_555
Be4 Be5 2.369156 1_555
Be4 Hf5 2.757457 1_556
Be4 Hf2 2.757457 1_556
Be4 Hf0 2.757458 1_556
Be5 Be8 2.270958 1_566
Be5 Cu1 2.330471 1_555
Be5 Cu4 2.330477 1_555
Be5 Cu7 2.330477 1_555
Be5 Be7 2.369156 1_555
Be5 Hf0 2.757457 1_565
Be5 Hf3 2.757457 1_565
Be5 Hf4 2.757457 1_565
Be6 Be9 2.270958 1_555
Be6 Cu0 2.330471 1_555
Be6 Cu2 2.330477 1_555
Be6 Cu3 2.330477 1_555
Be6 Hf3 2.757457 1_455
Be6 Hf0 2.757457 1_455
Be6 Hf5 2.757458 1_455
Be7 Be9 2.270958 1_655
Be7 Cu1 2.330471 1_555
Be7 Cu4 2.330477 1_555
Be7 Cu5 2.330477 1_555
Be7 Hf1 2.757457 1_655
Be7 Hf2 2.757457 1_655
Be7 Hf4 2.757458 1_655
Be8 Cu1 2.392581 1_544
Be8 Cu0 2.392581 1_555
Be8 Cu6 2.392588 1_555
Be8 Cu7 2.392588 1_544
Be8 Hf5 2.825041 1_545
Be8 Hf4 2.825041 1_554
Be8 Hf3 2.825041 1_554
Be8 Hf2 2.825041 1_545
Be9 Cu5 2.392581 1_455
Be9 Cu3 2.392581 1_555
Be9 Cu4 2.392581 1_455
Be9 Cu2 2.392581 1_555
Be9 Hf4 2.825041 1_555
Be9 Hf5 2.825041 1_455
Be9 Hf2 2.825041 1_555
Be9 Hf3 2.825041 1_455
Be10 Be6 2.270958 1_555
Be10 Be7 2.270958 1_454
Be10 Be2 2.270958 1_555
Be10 Be4 2.270958 1_454
Be10 Cu1 2.392581 1_454
Be10 Cu0 2.392581 1_555
Be10 Cu3 2.392588 1_555
Be10 Cu5 2.392588 1_454
Be10 Hf5 2.825041 1_455
Be10 Hf4 2.825041 1_554
Be10 Hf1 2.825041 1_554
Be10 Hf0 2.825041 1_455
Be11 Be5 2.270958 1_545
Be11 Be3 2.270958 1_555
Be11 Cu7 2.392581 1_545
Be11 Cu6 2.392581 1_555
Be11 Cu4 2.392581 1_545
Be11 Cu2 2.392581 1_555
Be11 Hf4 2.825041 1_555
Be11 Hf5 2.825041 1_545
Be11 Hf0 2.825041 1_555
Be11 Hf1 2.825041 1_545
Be12 Be3 2.270958 1_555
Be12 Be5 2.270958 1_445
Be12 Be6 2.270958 1_555
Be12 Be7 2.270958 1_445
Be12 Cu1 2.392581 1_445
Be12 Cu0 2.392581 1_555
Be12 Cu2 2.392588 1_555
Be12 Cu4 2.392588 1_445
Be12 Hf3 2.825041 1_455
Be12 Hf1 2.825041 1_545
Be12 Hf2 2.825041 1_545
Be12 Hf0 2.825041 1_455
Be13 Be4 2.270958 1_554
Be13 Be2 2.270958 1_555
Be13 Cu5 2.392581 1_554
Be13 Cu3 2.392581 1_555
Be13 Cu7 2.392581 1_554
Be13 Cu6 2.392581 1_555
Be13 Hf0 2.825041 1_555
Be13 Hf2 2.825041 1_555
Be13 Hf1 2.825041 1_554
Be13 Hf3 2.825041 1_554
Al0 Cu4 2.436270 1_445
Al0 Cu2 2.436270 1_554
Al0 Cu7 2.436270 1_544
Al0 Cu6 2.436270 1_455
Al0 Cu3 2.436270 1_545
Al0 Cu5 2.436270 1_454
Al0 Cu0 2.436276 1_555
Al0 Cu1 2.436276 1_444
Cu0 Hf4 2.748830 1_554
Cu0 Hf0 2.748830 1_455
Cu0 Hf2 2.748830 1_545
Cu1 Hf5 2.748830 1_556
Cu1 Hf1 2.748830 1_655
Cu1 Hf3 2.748830 1_565
Cu2 Hf4 2.748824 1_555
Cu2 Hf3 2.748831 1_455
Cu2 Hf1 2.748831 1_545
Cu3 Hf2 2.748824 1_555
Cu3 Hf1 2.748831 1_554
Cu3 Hf5 2.748831 1_455
Cu4 Hf5 2.748824 1_555
Cu4 Hf2 2.748831 1_655
Cu4 Hf0 2.748831 1_565
Cu5 Hf3 2.748824 1_555
Cu5 Hf0 2.748831 1_556
Cu5 Hf4 2.748831 1_655
Cu6 Hf0 2.748824 1_555
Cu6 Hf3 2.748831 1_554
Cu6 Hf5 2.748831 1_545
Cu7 Hf1 2.748824 1_555
Cu7 Hf2 2.748831 1_556
Cu7 Hf4 2.748831 1_565
