# generated using pymatgen
data_Zr4VBi2
_symmetry_space_group_name_H-M   'P 1'
_cell_length_a   8.35259868
_cell_length_b   8.35259885
_cell_length_c   8.35259882
_cell_angle_alpha   96.15858125
_cell_angle_beta   96.15858547
_cell_angle_gamma   141.76125094
_symmetry_Int_Tables_number   1
_chemical_formula_structural   Zr4VBi2
_chemical_formula_sum   'Zr8 V2 Bi4'
_cell_volume   340.77733170
_cell_formula_units_Z   2
loop_
 _symmetry_equiv_pos_site_id
 _symmetry_equiv_pos_as_xyz
  1  'x, y, z'
loop_
 _atom_site_type_symbol
 _atom_site_label
 _atom_site_symmetry_multiplicity
 _atom_site_fract_x
 _atom_site_fract_y
 _atom_site_fract_z
 _atom_site_occupancy
  Zr  Zr0  1  0.80138324  0.91836602  0.71974926  1
  Zr  Zr1  1  0.91836602  0.19861676  0.11698277  1
  Zr  Zr2  1  0.58163398  0.69861676  0.28025074  1
  Zr  Zr3  1  0.69861676  0.41836602  0.11698277  1
  Zr  Zr4  1  0.08163398  0.80138324  0.88301723  1
  Zr  Zr5  1  0.19861676  0.08163398  0.28025074  1
  Zr  Zr6  1  0.30138324  0.58163398  0.88301723  1
  Zr  Zr7  1  0.41836602  0.30138324  0.71974926  1
  V  V0  1  0.25000000  0.25000000  0.00000000  1
  V  V1  1  0.75000000  0.75000000  0.00000000  1
  Bi  Bi0  1  0.85922798  0.64077202  0.50000000  1
  Bi  Bi1  1  0.14077202  0.35922798  0.50000000  1
  Bi  Bi2  1  0.35922798  0.85922798  0.21845697  1
  Bi  Bi3  1  0.64077202  0.14077202  0.78154303  1
loop_
_geom_bond_atom_site_label_1
_geom_bond_atom_site_label_2
_geom_bond_distance
_geom_bond_site_symmetry_2
Zr0 Zr6 3.287086 1_555
Zr0 Zr6 3.287087 1_665
Zr0 Zr7 3.300578 1_665
Zr0 Zr7 3.300578 1_555
Zr0 Zr4 3.389374 1_655
Zr0 Zr1 3.389374 1_566
Zr0 Zr2 3.468459 1_555
Zr1 Zr2 3.287086 1_545
Zr1 Zr2 3.287087 1_655
Zr1 Zr6 3.300578 1_654
Zr1 Zr6 3.300578 1_544
Zr1 Zr5 3.389374 1_655
Zr1 Zr3 3.468458 1_555
Zr2 Zr5 3.300578 1_665
Zr2 Zr5 3.300578 1_555
Zr2 Zr3 3.389374 1_555
Zr2 Zr6 3.389374 1_554
Zr3 Zr5 3.287086 1_555
Zr3 Zr5 3.287087 1_665
Zr3 Zr4 3.300578 1_654
Zr3 Zr4 3.300578 1_544
Zr3 Zr7 3.389374 1_554
Zr4 Zr7 3.287086 1_565
Zr4 Zr7 3.287087 1_455
Zr4 Zr5 3.389374 1_566
Zr4 Zr6 3.468458 1_555
Zr5 Zr7 3.468459 1_555
Zr6 Zr7 3.389374 1_555
V0 V1 2.735789 1_555
V0 V1 2.735789 1_445
V0 Zr5 2.759540 1_555
V0 Zr6 2.759540 1_554
V0 Zr1 2.759540 1_455
V0 Zr7 2.759540 1_554
V0 Zr3 2.759540 1_555
V0 Zr4 2.759540 1_544
V0 Zr0 2.759540 1_444
V0 Zr2 2.759541 1_555
V1 Zr0 2.759540 1_554
V1 Zr3 2.759540 1_555
V1 Zr4 2.759540 1_654
V1 Zr2 2.759540 1_555
V1 Zr6 2.759540 1_554
V1 Zr1 2.759540 1_565
V1 Zr5 2.759540 1_665
V1 Zr7 2.759541 1_554
Bi0 Zr4 3.061804 1_655
Bi0 Zr3 3.061804 1_555
Bi0 Zr2 3.164711 1_555
Bi0 Zr0 3.164711 1_555
Bi0 Zr5 3.336673 1_665
Bi0 Zr7 3.336673 1_555
Bi0 Zr5 3.336674 1_555
Bi0 Zr7 3.336674 1_665
Bi1 Zr1 3.061804 1_455
Bi1 Zr6 3.061804 1_555
Bi1 Zr7 3.164711 1_555
Bi1 Zr5 3.164711 1_555
Bi1 Zr0 3.336673 1_445
Bi1 Zr2 3.336673 1_555
Bi1 Zr0 3.336674 1_555
Bi1 Zr2 3.336674 1_445
Bi2 Zr2 3.061802 1_555
Bi2 Zr5 3.061802 1_565
Bi2 Zr4 3.164718 1_554
Bi2 Zr6 3.164718 1_554
Bi2 Zr3 3.336673 1_455
Bi2 Zr1 3.336673 1_455
Bi2 Zr1 3.336677 1_565
Bi2 Zr3 3.336677 1_565
Bi3 Zr7 3.061802 1_555
Bi3 Zr0 3.061802 1_545
Bi3 Zr1 3.164718 1_556
Bi3 Zr3 3.164718 1_556
Bi3 Zr6 3.336673 1_655
Bi3 Zr4 3.336673 1_655
Bi3 Zr4 3.336677 1_545
Bi3 Zr6 3.336677 1_545
