# generated using pymatgen
data_Y6TiAl23Os8
_symmetry_space_group_name_H-M   'P 1'
_cell_length_a   8.81053581
_cell_length_b   8.81053621
_cell_length_c   9.52054836
_cell_angle_alpha   90.00000000
_cell_angle_beta   90.00000000
_cell_angle_gamma   119.99999480
_symmetry_Int_Tables_number   1
_chemical_formula_structural   Y6TiAl23Os8
_chemical_formula_sum   'Y6 Ti1 Al23 Os8'
_cell_volume   640.02550227
_cell_formula_units_Z   1
loop_
 _symmetry_equiv_pos_site_id
 _symmetry_equiv_pos_as_xyz
  1  'x, y, z'
loop_
 _atom_site_type_symbol
 _atom_site_label
 _atom_site_symmetry_multiplicity
 _atom_site_fract_x
 _atom_site_fract_y
 _atom_site_fract_z
 _atom_site_occupancy
  Y  Y0  1  0.19327227  0.38654453  0.25041639  1
  Y  Y1  1  0.80653572  0.61307043  0.74876044  1
  Y  Y2  1  0.61345547  0.80672773  0.25041639  1
  Y  Y3  1  0.38692957  0.19346428  0.74876044  1
  Y  Y4  1  0.19327227  0.80672773  0.25041639  1
  Y  Y5  1  0.80653572  0.19346428  0.74876044  1
  Ti  Ti0  1  0.33333300  0.66666700  0.99179420  1
  Al  Al0  1  0.66666700  0.33333300  0.98843830  1
  Al  Al1  1  0.66666700  0.33333300  0.51151706  1
  Al  Al2  1  0.33333300  0.66666700  0.48676742  1
  Al  Al3  1  0.16270937  0.32541874  0.57470724  1
  Al  Al4  1  0.83678702  0.67357403  0.42518323  1
  Al  Al5  1  0.67458126  0.83729063  0.57470724  1
  Al  Al6  1  0.83683688  0.67367376  0.07679871  1
  Al  Al7  1  0.32642597  0.16321298  0.42518323  1
  Al  Al8  1  0.15991121  0.31982143  0.92553799  1
  Al  Al9  1  0.16270937  0.83729063  0.57470724  1
  Al  Al10  1  0.32632624  0.16316312  0.07679871  1
  Al  Al11  1  0.83678702  0.16321298  0.42518323  1
  Al  Al12  1  0.68017857  0.84008879  0.92553799  1
  Al  Al13  1  0.83683688  0.16316312  0.07679871  1
  Al  Al14  1  0.15991121  0.84008879  0.92553799  1
  Al  Al15  1  0.56167120  0.12334239  0.25199641  1
  Al  Al16  1  0.44019204  0.88038409  0.74977365  1
  Al  Al17  1  0.87665761  0.43832880  0.25199641  1
  Al  Al18  1  0.11961591  0.55980796  0.74977365  1
  Al  Al19  1  0.56167120  0.43832880  0.25199641  1
  Al  Al20  1  0.44019204  0.55980796  0.74977365  1
  Al  Al21  1  0.00000000  0.00000000  0.25059933  1
  Al  Al22  1  0.00000000  0.00000000  0.75010690  1
  Os  Os0  1  0.49883261  0.99766522  0.00187842  1
  Os  Os1  1  0.00233478  0.50116739  0.00187842  1
  Os  Os2  1  0.49939253  0.99878505  0.50160969  1
  Os  Os3  1  0.49883261  0.50116739  0.00187842  1
  Os  Os4  1  0.00121495  0.50060747  0.50160969  1
  Os  Os5  1  0.49939253  0.50060747  0.50160969  1
  Os  Os6  1  0.00000000  0.00000000  0.00132952  1
  Os  Os7  1  0.00000000  0.00000000  0.49946179  1
loop_
_geom_bond_atom_site_label_1
_geom_bond_atom_site_label_2
_geom_bond_distance
_geom_bond_site_symmetry_2
Ti0 Y4 3.260505 1_556
Ti0 Y2 3.260510 1_556
Ti0 Y0 3.260510 1_556
Al0 Os1 2.564389 1_656
Al0 Os0 2.564389 1_546
Al0 Os3 2.564397 1_556
Al0 Y5 3.124537 1_555
Al0 Y3 3.124537 1_555
Al0 Y1 3.124537 1_555
Al1 Os4 2.554393 1_655
Al1 Os2 2.554393 1_545
Al1 Os5 2.554400 1_555
Al1 Y5 3.107651 1_555
Al1 Y3 3.107651 1_555
Al1 Y1 3.107651 1_555
Al2 Os4 2.538047 1_555
Al2 Os2 2.538047 1_555
Al2 Os5 2.538054 1_555
Al2 Y4 3.103499 1_555
Al2 Y2 3.103504 1_555
Al2 Y0 3.103504 1_555
Al3 Os7 2.584270 1_555
Al3 Os4 2.662221 1_555
Al3 Os5 2.662221 1_555
Al3 Y0 3.122456 1_555
Al3 Y5 3.208861 1_455
Al3 Y3 3.208867 1_555
Al4 Os7 2.589126 1_665
Al4 Os4 2.675487 1_655
Al4 Os5 2.675487 1_555
Al4 Y1 3.115031 1_555
Al4 Y2 3.213236 1_555
Al4 Y4 3.213237 1_655
Al5 Os7 2.584270 1_665
Al5 Os2 2.662221 1_555
Al5 Os5 2.662221 1_555
Al5 Y2 3.122456 1_555
Al5 Y5 3.208861 1_565
Al5 Y1 3.208868 1_555
Al6 Os6 2.591514 1_665
Al6 Os1 2.676020 1_655
Al6 Os3 2.676020 1_555
Al6 Y1 3.157151 1_554
Al6 Y2 3.207344 1_555
Al6 Y4 3.207344 1_655
Al7 Os7 2.589126 1_555
Al7 Os2 2.675487 1_545
Al7 Os5 2.675487 1_555
Al7 Y3 3.115031 1_555
Al7 Y0 3.213237 1_555
Al7 Y4 3.213237 1_545
Al8 Os6 2.544733 1_556
Al8 Os3 2.688254 1_556
Al8 Os1 2.688261 1_556
Al8 Y0 3.134640 1_556
Al8 Y3 3.209247 1_555
Al8 Y5 3.209247 1_455
Al9 Os7 2.584270 1_565
Al9 Os2 2.662221 1_555
Al9 Os4 2.662221 1_555
Al9 Y4 3.122456 1_555
Al9 Y1 3.208862 1_455
Al9 Y3 3.208862 1_565
Al10 Os6 2.591514 1_555
Al10 Os0 2.676020 1_545
Al10 Os3 2.676020 1_555
Al10 Y3 3.157151 1_554
Al10 Y0 3.207344 1_555
Al10 Y4 3.207344 1_545
Al11 Os7 2.589126 1_655
Al11 Os2 2.675487 1_545
Al11 Os4 2.675487 1_655
Al11 Y5 3.115030 1_555
Al11 Y0 3.213237 1_655
Al11 Y2 3.213237 1_545
Al12 Os6 2.544733 1_666
Al12 Os3 2.688254 1_556
Al12 Os0 2.688261 1_556
Al12 Y2 3.134640 1_556
Al12 Y1 3.209247 1_555
Al12 Y5 3.209247 1_565
Al13 Os6 2.591514 1_655
Al13 Os0 2.676020 1_545
Al13 Os1 2.676020 1_655
Al13 Y5 3.157150 1_554
Al13 Y0 3.207344 1_655
Al13 Y2 3.207344 1_545
Al14 Os6 2.544740 1_566
Al14 Os0 2.688254 1_556
Al14 Os1 2.688254 1_556
Al14 Y4 3.134638 1_556
Al14 Y1 3.209247 1_455
Al14 Y3 3.209247 1_565
Al15 Os2 2.559450 1_545
Al15 Os0 2.567091 1_545
Al15 Y2 3.043464 1_545
Al15 Y4 3.043464 1_545
Al16 Os2 2.529488 1_555
Al16 Os0 2.561570 1_556
Al16 Y3 3.020520 1_565
Al16 Y5 3.020526 1_565
Al17 Os4 2.559450 1_655
Al17 Os1 2.567091 1_655
Al17 Y0 3.043463 1_655
Al17 Y4 3.043464 1_655
Al18 Os4 2.529488 1_555
Al18 Os1 2.561570 1_556
Al18 Y1 3.020520 1_455
Al18 Y5 3.020526 1_455
Al19 Os5 2.559450 1_555
Al19 Os3 2.567091 1_555
Al19 Y0 3.043463 1_555
Al19 Y2 3.043464 1_555
Al20 Os5 2.529488 1_555
Al20 Os3 2.561570 1_556
Al20 Y1 3.020529 1_555
Al20 Y3 3.020529 1_555
Al21 Os7 2.369307 1_555
Al21 Os6 2.373185 1_555
Al21 Y4 2.949392 1_545
Al21 Y2 2.949393 1_445
Al21 Y0 2.949393 1_555
Al22 Os7 2.386279 1_555
Al22 Os6 2.391777 1_556
Al22 Y5 2.952350 1_455
Al22 Y3 2.952358 1_555
Al22 Y1 2.952358 1_445
Os0 Ti0 2.527390 1_554
Os0 Y2 3.338827 1_555
Os0 Y4 3.338827 1_555
Os0 Y3 3.384680 1_564
Os0 Y5 3.384685 1_564
Os1 Ti0 2.527390 1_554
Os1 Y0 3.338827 1_555
Os1 Y4 3.338827 1_555
Os1 Y1 3.384680 1_454
Os1 Y5 3.384685 1_454
Os2 Y3 3.340661 1_565
Os2 Y5 3.340666 1_565
Os2 Y2 3.360507 1_555
Os2 Y4 3.360507 1_555
Os3 Ti0 2.527397 1_554
Os3 Y0 3.338827 1_555
Os3 Y2 3.338827 1_555
Os3 Y1 3.384686 1_554
Os3 Y3 3.384686 1_554
Os4 Y1 3.340661 1_455
Os4 Y5 3.340666 1_455
Os4 Y0 3.360507 1_555
Os4 Y4 3.360507 1_555
Os5 Y1 3.340667 1_555
Os5 Y3 3.340667 1_555
Os5 Y0 3.360507 1_555
Os5 Y2 3.360507 1_555
