# generated using pymatgen
data_Zr13Al9(CoIr3)2
_symmetry_space_group_name_H-M   'P 1'
_cell_length_a   9.10351474
_cell_length_b   9.10351342
_cell_length_c   9.10351472
_cell_angle_alpha   59.81068341
_cell_angle_beta   59.81068631
_cell_angle_gamma   59.81069344
_symmetry_Int_Tables_number   1
_chemical_formula_structural   Zr13Al9(CoIr3)2
_chemical_formula_sum   'Zr13 Al9 Co2 Ir6'
_cell_volume   531.18027210
_cell_formula_units_Z   1
loop_
 _symmetry_equiv_pos_site_id
 _symmetry_equiv_pos_as_xyz
  1  'x, y, z'
loop_
 _atom_site_type_symbol
 _atom_site_label
 _atom_site_symmetry_multiplicity
 _atom_site_fract_x
 _atom_site_fract_y
 _atom_site_fract_z
 _atom_site_occupancy
  Zr  Zr0  1  0.19890563  0.19890563  0.80058750  1
  Zr  Zr1  1  0.80058750  0.19890563  0.19890563  1
  Zr  Zr2  1  0.19890563  0.80058750  0.19890563  1
  Zr  Zr3  1  0.80703865  0.80703865  0.17302879  1
  Zr  Zr4  1  0.17302879  0.80703865  0.80703865  1
  Zr  Zr5  1  0.80703865  0.17302879  0.80703865  1
  Zr  Zr6  1  0.38183427  0.38183427  0.38183427  1
  Zr  Zr7  1  0.38262771  0.85623023  0.38262771  1
  Zr  Zr8  1  0.85623023  0.38262771  0.38262771  1
  Zr  Zr9  1  0.38262771  0.38262771  0.85623023  1
  Zr  Zr10  1  0.83813434  0.48923048  0.83813434  1
  Zr  Zr11  1  0.48923048  0.83813434  0.83813434  1
  Zr  Zr12  1  0.83813434  0.83813434  0.48923048  1
  Al  Al0  1  0.16144196  0.16144196  0.16144196  1
  Al  Al1  1  0.16464364  0.50965819  0.16464364  1
  Al  Al2  1  0.50965819  0.16464364  0.16464364  1
  Al  Al3  1  0.16464364  0.16464364  0.50965819  1
  Al  Al4  1  0.61656801  0.61656801  0.61656801  1
  Al  Al5  1  0.61846603  0.15198829  0.61846603  1
  Al  Al6  1  0.15198829  0.61846603  0.61846603  1
  Al  Al7  1  0.61846603  0.61846603  0.15198829  1
  Al  Al8  1  0.82774808  0.82774808  0.82774808  1
  Co  Co0  1  0.50133479  0.50133479  0.50133479  1
  Co  Co1  1  0.00253586  0.00253586  0.00253586  1
  Ir  Ir0  1  0.00604004  0.00604004  0.49999541  1
  Ir  Ir1  1  0.49999541  0.00604004  0.00604004  1
  Ir  Ir2  1  0.00604004  0.49999541  0.00604004  1
  Ir  Ir3  1  0.49413529  0.49413529  0.00783351  1
  Ir  Ir4  1  0.00783351  0.49413529  0.49413529  1
  Ir  Ir5  1  0.49413529  0.00783351  0.49413529  1
loop_
_geom_bond_atom_site_label_1
_geom_bond_atom_site_label_2
_geom_bond_distance
_geom_bond_site_symmetry_2
Al0 Ir0 2.596983 1_555
Al0 Ir2 2.596983 1_555
Al0 Ir1 2.596983 1_555
Al0 Zr9 2.941638 1_554
Al0 Zr7 2.941638 1_545
Al0 Zr8 2.941639 1_455
Al0 Zr2 2.981204 1_545
Al0 Zr0 2.981204 1_554
Al0 Zr1 2.981204 1_455
Al1 Ir4 2.554444 1_555
Al1 Ir3 2.554444 1_555
Al1 Ir2 2.555237 1_555
Al1 Zr6 2.911449 1_555
Al1 Zr8 2.917559 1_455
Al1 Zr9 2.917559 1_554
Al1 Zr2 2.994736 1_555
Al1 Zr4 3.004520 1_554
Al1 Zr3 3.004521 1_455
Al2 Ir3 2.554444 1_555
Al2 Ir5 2.554444 1_555
Al2 Ir1 2.555237 1_555
Al2 Zr6 2.911449 1_555
Al2 Zr7 2.917559 1_545
Al2 Zr9 2.917559 1_554
Al2 Zr1 2.994736 1_555
Al2 Zr5 3.004520 1_554
Al2 Zr3 3.004520 1_545
Al3 Ir4 2.554444 1_555
Al3 Ir5 2.554445 1_555
Al3 Ir0 2.555237 1_555
Al3 Zr6 2.911448 1_555
Al3 Zr7 2.917559 1_545
Al3 Zr8 2.917559 1_455
Al3 Zr0 2.994736 1_555
Al3 Zr4 3.004520 1_545
Al3 Zr5 3.004520 1_455
Al4 Co0 2.573252 1_555
Al4 Ir5 2.904414 1_565
Al4 Ir3 2.904414 1_556
Al4 Ir4 2.904414 1_655
Al4 Zr12 2.978121 1_555
Al4 Zr11 2.978121 1_555
Al4 Zr10 2.978121 1_555
Al4 Zr9 3.007753 1_555
Al4 Zr8 3.007753 1_555
Al4 Zr7 3.007753 1_555
Al4 Zr5 3.355274 1_555
Al4 Zr3 3.355274 1_555
Al4 Zr4 3.355275 1_555
Al5 Co0 2.590488 1_555
Al5 Ir1 2.876933 1_556
Al5 Ir0 2.876933 1_655
Al5 Al8 2.882924 1_545
Al5 Ir5 2.925814 1_555
Al5 Zr11 2.968975 1_545
Al5 Zr12 2.968975 1_545
Al5 Zr8 3.011024 1_555
Al5 Zr9 3.011025 1_555
Al5 Zr6 3.042991 1_555
Al5 Zr5 3.091251 1_555
Al5 Zr1 3.197251 1_555
Al5 Zr0 3.197251 1_555
Al6 Co0 2.590489 1_555
Al6 Ir0 2.876932 1_565
Al6 Ir2 2.876933 1_556
Al6 Al8 2.882924 1_455
Al6 Ir4 2.925814 1_555
Al6 Zr10 2.968975 1_455
Al6 Zr12 2.968975 1_455
Al6 Zr7 3.011024 1_555
Al6 Zr9 3.011025 1_555
Al6 Zr6 3.042991 1_555
Al6 Zr4 3.091251 1_555
Al6 Zr0 3.197250 1_555
Al6 Zr2 3.197251 1_555
Al7 Co0 2.590488 1_555
Al7 Ir1 2.876932 1_565
Al7 Ir2 2.876933 1_655
Al7 Al8 2.882923 1_554
Al7 Ir3 2.925814 1_555
Al7 Zr11 2.968975 1_554
Al7 Zr10 2.968975 1_554
Al7 Zr7 3.011025 1_555
Al7 Zr8 3.011025 1_555
Al7 Zr6 3.042991 1_555
Al7 Zr3 3.091251 1_555
Al7 Zr1 3.197250 1_555
Al7 Zr2 3.197251 1_555
Al8 Ir0 2.660783 1_665
Al8 Ir2 2.660783 1_656
Al8 Ir1 2.660783 1_566
Al8 Zr5 2.965636 1_565
Al8 Zr3 2.965636 1_556
Al8 Zr4 2.965636 1_655
Al8 Zr10 2.989591 1_555
Al8 Zr12 2.989591 1_555
Al8 Zr11 2.989591 1_555
Co0 Zr7 2.631632 1_555
Co0 Zr9 2.631632 1_555
Co0 Zr8 2.631633 1_555
Co0 Zr6 2.668544 1_555
Co1 Zr3 2.524497 1_445
Co1 Zr4 2.524497 1_544
Co1 Zr5 2.524497 1_454
Co1 Zr0 2.524815 1_554
Co1 Zr1 2.524815 1_455
Co1 Zr2 2.524815 1_545
Ir0 Zr12 2.708042 1_445
Ir0 Zr8 2.798924 1_455
Ir0 Zr7 2.798924 1_545
Ir0 Zr5 3.133195 1_455
Ir0 Zr4 3.133195 1_545
Ir0 Zr2 3.332721 1_545
Ir0 Zr1 3.332721 1_455
Ir1 Zr11 2.708042 1_544
Ir1 Zr9 2.798924 1_554
Ir1 Zr7 2.798924 1_545
Ir1 Zr5 3.133195 1_554
Ir1 Zr3 3.133195 1_545
Ir1 Zr2 3.332721 1_545
Ir1 Zr0 3.332721 1_554
Ir2 Zr10 2.708043 1_454
Ir2 Zr8 2.798924 1_455
Ir2 Zr9 2.798924 1_554
Ir2 Zr4 3.133194 1_554
Ir2 Zr3 3.133195 1_455
Ir2 Zr1 3.332721 1_455
Ir2 Zr0 3.332721 1_554
Ir3 Zr11 2.694198 1_554
Ir3 Zr10 2.694199 1_554
Ir3 Zr6 2.780697 1_555
Ir3 Zr9 2.796418 1_554
Ir3 Zr2 3.266470 1_555
Ir3 Zr1 3.266470 1_555
Ir3 Zr5 3.429782 1_554
Ir3 Zr4 3.429782 1_554
Ir4 Zr12 2.694199 1_455
Ir4 Zr10 2.694199 1_455
Ir4 Zr6 2.780697 1_555
Ir4 Zr8 2.796418 1_455
Ir4 Zr2 3.266469 1_555
Ir4 Zr0 3.266470 1_555
Ir4 Zr5 3.429781 1_455
Ir4 Zr3 3.429782 1_455
Ir5 Zr11 2.694199 1_545
Ir5 Zr12 2.694199 1_545
Ir5 Zr6 2.780697 1_555
Ir5 Zr7 2.796418 1_545
Ir5 Zr1 3.266469 1_555
Ir5 Zr0 3.266470 1_555
Ir5 Zr4 3.429782 1_545
Ir5 Zr3 3.429782 1_545
