# generated using pymatgen
data_Zr3Ir
_symmetry_space_group_name_H-M   'P 1'
_cell_length_a   5.73823272
_cell_length_b   8.13977792
_cell_length_c   8.13977809
_cell_angle_alpha   82.84758397
_cell_angle_beta   69.33584129
_cell_angle_gamma   69.33582675
_symmetry_Int_Tables_number   1
_chemical_formula_structural   Zr3Ir
_chemical_formula_sum   'Zr12 Ir4'
_cell_volume   332.84648263
_cell_formula_units_Z   4
loop_
 _symmetry_equiv_pos_site_id
 _symmetry_equiv_pos_as_xyz
  1  'x, y, z'
loop_
 _atom_site_type_symbol
 _atom_site_label
 _atom_site_symmetry_multiplicity
 _atom_site_fract_x
 _atom_site_fract_y
 _atom_site_fract_z
 _atom_site_occupancy
  Zr  Zr0  1  0.96056240  0.99974827  0.58940436  1
  Zr  Zr1  1  0.45009156  0.58962705  0.00024251  1
  Zr  Zr2  1  0.03943760  0.41059564  0.00025173  1
  Zr  Zr3  1  0.54990844  0.99975749  0.41037295  1
  Zr  Zr4  1  0.85420822  0.64605124  0.64610623  1
  Zr  Zr5  1  0.50000000  0.64608286  0.35391714  1
  Zr  Zr6  1  0.50000000  0.35393634  0.64606366  1
  Zr  Zr7  1  0.14579178  0.35389377  0.35394776  1
  Zr  Zr8  1  0.35748683  0.00016722  0.80781960  1
  Zr  Zr9  1  0.83560593  0.80806168  0.99993923  1
  Zr  Zr10  1  0.64251317  0.19218040  0.99983278  1
  Zr  Zr11  1  0.16439407  0.00006077  0.19193832  1
  Ir  Ir0  1  0.70761537  0.29224555  0.29224494  1
  Ir  Ir1  1  1.00000000  0.29216459  0.70783541  1
  Ir  Ir2  1  0.00000000  0.70766906  0.29233094  1
  Ir  Ir3  1  0.29238463  0.70775506  0.70775445  1
loop_
_geom_bond_atom_site_label_1
_geom_bond_atom_site_label_2
_geom_bond_distance
_geom_bond_site_symmetry_2
Zr0 Zr11 3.027281 1_665
Zr0 Zr4 3.095897 1_555
Zr0 Zr6 3.098752 1_565
Zr0 Zr3 3.175243 1_655
Zr0 Zr3 3.178030 1_555
Zr0 Zr8 3.284414 1_565
Zr0 Zr8 3.348634 1_665
Zr0 Zr9 3.451880 1_555
Zr0 Zr10 3.453615 1_565
Zr0 Zr5 3.527085 1_655
Zr0 Zr7 3.530109 1_665
Zr1 Zr10 3.027244 1_554
Zr1 Zr5 3.095977 1_555
Zr1 Zr4 3.098688 1_554
Zr1 Zr2 3.175243 1_655
Zr1 Zr2 3.178030 1_555
Zr1 Zr9 3.290303 1_554
Zr1 Zr9 3.342857 1_454
Zr1 Zr11 3.451191 1_565
Zr1 Zr8 3.454471 1_564
Zr1 Zr7 3.529997 1_555
Zr1 Zr6 3.532798 1_554
Zr2 Zr9 3.027281 1_454
Zr2 Zr7 3.095889 1_555
Zr2 Zr6 3.098753 1_554
Zr2 Zr8 3.453615 1_554
Zr2 Zr5 3.527085 1_455
Zr2 Zr4 3.530106 1_454
Zr3 Zr8 3.027244 1_565
Zr3 Zr5 3.095977 1_555
Zr3 Zr7 3.098689 1_565
Zr3 Zr9 3.451192 1_554
Zr3 Zr4 3.530001 1_555
Zr3 Zr6 3.532798 1_565
Zr4 Zr7 3.146740 1_655
Zr4 Zr8 3.265510 1_565
Zr4 Zr9 3.267263 1_555
Zr5 Zr6 3.146691 1_555
Zr5 Zr9 3.267836 1_554
Zr6 Zr8 3.263800 1_555
Zr8 Zr9 3.436431 1_545
Zr8 Zr9 3.639994 1_445
Zr10 Zr9 2.925493 1_545
Zr10 Zr6 3.263800 1_555
Zr10 Zr7 3.265506 1_556
Zr10 Zr2 3.284413 1_556
Zr10 Zr2 3.348634 1_656
Zr10 Zr8 3.431798 1_555
Zr10 Zr11 3.436431 1_556
Zr10 Zr3 3.454471 1_546
Zr10 Zr11 3.639993 1_656
Zr10 Zr8 3.643436 1_655
Zr11 Zr8 2.925493 1_554
Zr11 Zr7 3.267259 1_555
Zr11 Zr5 3.267835 1_545
Zr11 Zr3 3.290303 1_545
Zr11 Zr3 3.342857 1_445
Zr11 Zr9 3.439624 1_544
Zr11 Zr2 3.451879 1_555
Zr11 Zr9 3.635191 1_444
Ir0 Zr6 2.735363 1_555
Ir0 Zr5 2.735478 1_555
Ir0 Zr2 2.780814 1_655
Ir0 Zr3 2.783537 1_545
Ir0 Zr11 2.786871 1_655
Ir0 Zr10 2.791641 1_554
Ir0 Zr7 2.944586 1_655
Ir0 Zr7 2.945441 1_555
Ir0 Zr1 3.494862 1_555
Ir0 Zr0 3.497246 1_545
Ir1 Zr4 2.735947 1_555
Ir1 Zr7 2.735954 1_655
Ir1 Zr0 2.784133 1_545
Ir1 Zr2 2.784133 1_656
Ir1 Zr8 2.788367 1_655
Ir1 Zr10 2.788368 1_555
Ir1 Zr6 2.945251 1_555
Ir1 Zr6 2.945251 1_655
Ir1 Zr1 3.496673 1_556
Ir1 Zr3 3.496673 1_645
Ir2 Zr7 2.734964 1_555
Ir2 Zr4 2.734966 1_455
Ir2 Zr3 2.780274 1_455
Ir2 Zr1 2.780275 1_555
Ir2 Zr9 2.788953 1_454
Ir2 Zr11 2.788954 1_565
Ir2 Zr5 2.944800 1_555
Ir2 Zr5 2.944801 1_455
Ir2 Zr2 3.495203 1_555
Ir2 Zr0 3.495203 1_455
Ir3 Zr6 2.735363 1_555
Ir3 Zr5 2.735479 1_555
Ir3 Zr0 2.780813 1_455
Ir3 Zr1 2.783536 1_556
Ir3 Zr9 2.786871 1_455
Ir3 Zr8 2.791641 1_565
Ir3 Zr4 2.944590 1_455
Ir3 Zr4 2.945440 1_555
Ir3 Zr3 3.494862 1_555
Ir3 Zr2 3.497247 1_556
