# generated using pymatgen
data_Lu4InPbAu4
_symmetry_space_group_name_H-M   'P 1'
_cell_length_a   7.83428642
_cell_length_b   7.83428642
_cell_length_c   7.22855113
_cell_angle_alpha   90.00000000
_cell_angle_beta   90.00000000
_cell_angle_gamma   90.00000000
_symmetry_Int_Tables_number   1
_chemical_formula_structural   Lu4InPbAu4
_chemical_formula_sum   'Lu8 In2 Pb2 Au8'
_cell_volume   443.65987050
_cell_formula_units_Z   2
loop_
 _symmetry_equiv_pos_site_id
 _symmetry_equiv_pos_as_xyz
  1  'x, y, z'
loop_
 _atom_site_type_symbol
 _atom_site_label
 _atom_site_symmetry_multiplicity
 _atom_site_fract_x
 _atom_site_fract_y
 _atom_site_fract_z
 _atom_site_occupancy
  Lu  Lu0  1  0.84372846  0.15627154  0.50000000  1
  Lu  Lu1  1  0.15627154  0.84372846  0.50000000  1
  Lu  Lu2  1  0.34372846  0.34372846  0.00000000  1
  Lu  Lu3  1  0.65627154  0.65627154  0.00000000  1
  Lu  Lu4  1  0.68141424  0.68141424  0.50000000  1
  Lu  Lu5  1  0.31858576  0.31858576  0.50000000  1
  Lu  Lu6  1  0.18141524  0.81858576  0.00000000  1
  Lu  Lu7  1  0.81858576  0.18141524  0.00000000  1
  In  In0  1  0.50000000  0.00000000  0.75000000  1
  In  In1  1  0.00000000  0.50000000  0.25000000  1
  Pb  Pb0  1  0.50000000  0.00000000  0.25000000  1
  Pb  Pb1  1  0.00000000  0.50000000  0.75000000  1
  Au  Au0  1  0.63412176  0.37795900  0.27676194  1
  Au  Au1  1  0.36587824  0.62204100  0.27676194  1
  Au  Au2  1  0.13412176  0.12204100  0.77676194  1
  Au  Au3  1  0.86587824  0.87795900  0.77676194  1
  Au  Au4  1  0.37795900  0.63412176  0.72323806  1
  Au  Au5  1  0.62204100  0.36587824  0.72323806  1
  Au  Au6  1  0.87795900  0.86587824  0.22323806  1
  Au  Au7  1  0.12204100  0.13412176  0.22323806  1
loop_
_geom_bond_atom_site_label_1
_geom_bond_atom_site_label_2
_geom_bond_distance
_geom_bond_site_symmetry_2
Lu0 Pb0 3.466429 1_555
Lu0 Pb1 3.466429 1_655
Lu1 Pb1 3.466429 1_555
Lu1 Pb0 3.466429 1_565
Lu2 Pb1 3.466429 1_554
Lu2 Pb0 3.466429 1_555
Lu3 Pb0 3.466429 1_565
Lu3 Pb1 3.466429 1_654
Lu4 Pb0 3.393402 1_565
Lu4 Pb1 3.393402 1_655
Lu5 Pb0 3.393402 1_555
Lu5 Pb1 3.393402 1_555
Lu6 Pb0 3.393397 1_565
Lu6 Pb1 3.393406 1_554
Lu7 Pb1 3.393397 1_654
Lu7 Pb0 3.393406 1_555
In0 Lu6 3.393397 1_546
In0 Lu5 3.393402 1_555
In0 Lu4 3.393402 1_545
In0 Lu7 3.393406 1_556
In0 Lu0 3.466429 1_555
In0 Lu2 3.466429 1_556
In0 Lu3 3.466429 1_546
In0 Lu1 3.466429 1_545
In0 Pb0 3.614276 1_555
In0 Pb0 3.614276 1_556
In1 Lu7 3.393397 1_455
In1 Lu5 3.393402 1_555
In1 Lu4 3.393402 1_455
In1 Lu6 3.393406 1_555
In1 Lu1 3.466429 1_555
In1 Lu2 3.466429 1_555
In1 Lu3 3.466429 1_455
In1 Lu0 3.466429 1_455
In1 Pb1 3.614276 1_555
In1 Pb1 3.614276 1_554
Au0 Au1 2.841272 1_555
Au0 Lu0 2.883902 1_555
Au0 Lu4 2.897081 1_555
Au0 Lu7 2.908903 1_555
Au0 Lu3 2.964207 1_555
Au0 Lu5 2.988500 1_555
Au0 In1 3.027834 1_655
Au0 Lu2 3.041382 1_555
Au0 Pb0 3.147896 1_555
Au0 Au5 3.230150 1_555
Au1 Lu1 2.883902 1_555
Au1 Lu5 2.897081 1_555
Au1 Lu6 2.908903 1_555
Au1 Lu2 2.964207 1_555
Au1 Lu4 2.988500 1_555
Au1 In1 3.027834 1_555
Au1 Lu3 3.041382 1_555
Au1 Pb0 3.147896 1_565
Au1 Au4 3.230150 1_555
Au2 Au3 2.841272 1_445
Au2 Lu2 2.883902 1_556
Au2 Lu6 2.897082 1_546
Au2 Lu5 2.908907 1_555
Au2 Lu1 2.964207 1_545
Au2 Lu7 2.988501 1_456
Au2 In0 3.027834 1_555
Au2 Lu0 3.041382 1_455
Au2 Pb1 3.147896 1_555
Au2 Au7 3.230150 1_556
Au3 Lu3 2.883902 1_556
Au3 Lu7 2.897087 1_566
Au3 Lu4 2.908907 1_555
Au3 Lu0 2.964207 1_565
Au3 Lu6 2.988506 1_656
Au3 In0 3.027834 1_565
Au3 Lu1 3.041382 1_655
Au3 Pb1 3.147896 1_655
Au3 Au6 3.230150 1_556
Au4 Au5 2.841272 1_555
Au4 Lu1 2.883902 1_555
Au4 Lu4 2.897081 1_555
Au4 Lu6 2.908903 1_556
Au4 Lu3 2.964207 1_556
Au4 Lu5 2.988500 1_555
Au4 In0 3.027834 1_565
Au4 Lu2 3.041382 1_556
Au4 Pb1 3.147896 1_555
Au5 Lu0 2.883902 1_555
Au5 Lu5 2.897081 1_555
Au5 Lu7 2.908903 1_556
Au5 Lu2 2.964207 1_556
Au5 Lu4 2.988500 1_555
Au5 In0 3.027834 1_555
Au5 Lu3 3.041382 1_556
Au5 Pb1 3.147896 1_655
Au6 Au7 2.841272 1_665
Au6 Lu3 2.883902 1_555
Au6 Lu6 2.897087 1_655
Au6 Lu4 2.908907 1_555
Au6 Lu1 2.964207 1_655
Au6 Lu7 2.988506 1_565
Au6 In1 3.027834 1_655
Au6 Lu0 3.041382 1_565
Au6 Pb0 3.147896 1_565
Au7 Lu2 2.883902 1_555
Au7 Lu7 2.897082 1_455
Au7 Lu5 2.908907 1_555
Au7 Lu0 2.964207 1_455
Au7 Lu6 2.988501 1_545
Au7 In1 3.027834 1_555
Au7 Lu1 3.041382 1_545
Au7 Pb0 3.147896 1_555
