# generated using pymatgen
data_Sc6ZnSn6Ir5
_symmetry_space_group_name_H-M   'P 1'
_cell_length_a   7.47280704
_cell_length_b   7.47280734
_cell_length_c   7.14329891
_cell_angle_alpha   90.00000000
_cell_angle_beta   90.00000000
_cell_angle_gamma   119.99999868
_symmetry_Int_Tables_number   1
_chemical_formula_structural   Sc6ZnSn6Ir5
_chemical_formula_sum   'Sc6 Zn1 Sn6 Ir5'
_cell_volume   345.45940052
_cell_formula_units_Z   1
loop_
 _symmetry_equiv_pos_site_id
 _symmetry_equiv_pos_as_xyz
  1  'x, y, z'
loop_
 _atom_site_type_symbol
 _atom_site_label
 _atom_site_symmetry_multiplicity
 _atom_site_fract_x
 _atom_site_fract_y
 _atom_site_fract_z
 _atom_site_occupancy
  Sc  Sc0  1  0.38721786  0.99023284  0.24293899  1
  Sc  Sc1  1  0.60301598  0.61278214  0.24293899  1
  Sc  Sc2  1  0.00976716  0.39698402  0.24293899  1
  Sc  Sc3  1  0.37992333  0.97780256  0.75709772  1
  Sc  Sc4  1  0.59787923  0.62007667  0.75709772  1
  Sc  Sc5  1  0.02219744  0.40212077  0.75709772  1
  Zn  Zn0  1  0.66666700  0.33333300  0.53247145  1
  Sn  Sn0  1  0.28633277  0.27718314  0.99895478  1
  Sn  Sn1  1  0.99084937  0.71366723  0.99895478  1
  Sn  Sn2  1  0.99687369  0.73434077  0.49845673  1
  Sn  Sn3  1  0.73746708  0.00312631  0.49845673  1
  Sn  Sn4  1  0.26565923  0.26253292  0.49845673  1
  Sn  Sn5  1  0.72281686  0.00915063  0.99895478  1
  Ir  Ir0  1  0.00000000  0.00000000  0.76549722  1
  Ir  Ir1  1  0.00000000  0.00000000  0.23159885  1
  Ir  Ir2  1  0.66666700  0.33333300  0.97876948  1
  Ir  Ir3  1  0.33333300  0.66666700  0.49072175  1
  Ir  Ir4  1  0.33333300  0.66666700  0.00859856  1
loop_
_geom_bond_atom_site_label_1
_geom_bond_atom_site_label_2
_geom_bond_distance
_geom_bond_site_symmetry_2
Sc0 Sn5 2.998730 1_564
Sc0 Sn0 3.133786 1_564
Sc0 Zn0 3.139733 1_565
Sc0 Sn2 3.149430 1_455
Sc0 Sn3 3.152633 1_565
Sc0 Sn1 3.156047 1_454
Sc0 Sn4 3.185229 1_565
Sc1 Sn0 2.998735 1_554
Sc1 Sn1 3.133774 1_554
Sc1 Zn0 3.139733 1_555
Sc1 Sn3 3.149431 1_565
Sc1 Sn4 3.152636 1_555
Sc1 Sn5 3.156049 1_564
Sc1 Sn2 3.185223 1_555
Sc2 Sn1 2.998742 1_454
Sc2 Sn5 3.133777 1_454
Sc2 Zn0 3.139733 1_455
Sc2 Sn4 3.149425 1_555
Sc2 Sn2 3.152639 1_455
Sc2 Sn0 3.156037 1_554
Sc2 Sn3 3.185224 1_455
Sc3 Zn0 2.920932 1_565
Sc3 Sn5 3.000866 1_565
Sc3 Sn1 3.097637 1_455
Sc3 Sn2 3.115977 1_455
Sc3 Sn0 3.169185 1_565
Sc3 Sn3 3.175286 1_565
Sc3 Sn4 3.238304 1_565
Sc4 Zn0 2.920936 1_555
Sc4 Sn0 3.000869 1_555
Sc4 Sn5 3.097638 1_565
Sc4 Sn3 3.115978 1_565
Sc4 Sn1 3.169179 1_555
Sc4 Sn4 3.175286 1_555
Sc4 Sn2 3.238304 1_555
Sc5 Zn0 2.920929 1_455
Sc5 Sn1 3.000872 1_455
Sc5 Sn0 3.097632 1_555
Sc5 Sn4 3.115977 1_555
Sc5 Sn5 3.169181 1_455
Sc5 Sn2 3.175286 1_455
Sc5 Sn3 3.238304 1_455
Sn2 Zn0 2.780903 1_555
Sn3 Zn0 2.780898 1_555
Sn4 Zn0 2.780906 1_555
Ir0 Sn1 2.686596 1_445
Ir0 Sn0 2.686599 1_555
Ir0 Sn5 2.686602 1_455
Ir0 Sn3 2.744816 1_455
Ir0 Sn4 2.744816 1_555
Ir0 Sn2 2.744816 1_445
Ir0 Sc3 2.926177 1_545
Ir0 Sc4 2.926177 1_445
Ir0 Sc5 2.926177 1_555
Ir1 Sn1 2.682993 1_444
Ir1 Sn0 2.682996 1_554
Ir1 Sn5 2.682999 1_454
Ir1 Sn3 2.743909 1_455
Ir1 Sn4 2.743909 1_555
Ir1 Sn2 2.743909 1_445
Ir1 Sc2 2.931892 1_555
Ir1 Sc1 2.931896 1_445
Ir1 Sc0 2.931899 1_545
Ir2 Sn5 2.661223 1_555
Ir2 Sn1 2.661232 1_555
Ir2 Sn0 2.661238 1_555
Ir2 Sc5 2.909389 1_655
Ir2 Sc3 2.909391 1_545
Ir2 Sc4 2.909395 1_555
Ir2 Sc2 3.023463 1_656
Ir2 Sc1 3.023463 1_556
Ir2 Sc0 3.023463 1_546
Ir2 Zn0 3.188040 1_555
Ir3 Sn2 2.802141 1_455
Ir3 Sn3 2.802145 1_565
Ir3 Sn4 2.802148 1_555
Ir3 Sc0 2.857939 1_555
Ir3 Sc2 2.857944 1_555
Ir3 Sc1 2.857951 1_555
Ir3 Sc3 2.887606 1_555
Ir3 Sc5 2.887608 1_555
Ir3 Sc4 2.887612 1_555
Ir4 Sn1 2.752650 1_454
Ir4 Sn5 2.752650 1_564
Ir4 Sn0 2.752650 1_554
Ir4 Sc0 2.799486 1_555
Ir4 Sc2 2.799490 1_555
Ir4 Sc1 2.799498 1_555
Ir4 Sc3 2.818720 1_554
Ir4 Sc5 2.818723 1_554
Ir4 Sc4 2.818726 1_554
