# generated using pymatgen
data_CaY6NiI12
_symmetry_space_group_name_H-M   'P 1'
_cell_length_a   9.68221575
_cell_length_b   9.68221519
_cell_length_c   9.68221575
_cell_angle_alpha   106.75943360
_cell_angle_beta   106.75944296
_cell_angle_gamma   106.75944233
_symmetry_Int_Tables_number   1
_chemical_formula_structural   CaY6NiI12
_chemical_formula_sum   'Ca1 Y6 Ni1 I12'
_cell_volume   760.81569769
_cell_formula_units_Z   1
loop_
 _symmetry_equiv_pos_site_id
 _symmetry_equiv_pos_as_xyz
  1  'x, y, z'
loop_
 _atom_site_type_symbol
 _atom_site_label
 _atom_site_symmetry_multiplicity
 _atom_site_fract_x
 _atom_site_fract_y
 _atom_site_fract_z
 _atom_site_occupancy
  Ca  Ca0  1  0.50000000  0.50000000  0.50000000  1
  Y  Y0  1  0.02445763  0.09606464  0.29513176  1
  Y  Y1  1  0.09606464  0.29513176  0.02445763  1
  Y  Y2  1  0.29513176  0.02445763  0.09606464  1
  Y  Y3  1  0.97554237  0.90393536  0.70486824  1
  Y  Y4  1  0.90393536  0.70486824  0.97554237  1
  Y  Y5  1  0.70486824  0.97554237  0.90393536  1
  Ni  Ni0  1  0.00000000  0.00000000  0.00000000  1
  I  I0  1  0.14866232  0.45863783  0.38076792  1
  I  I1  1  0.45863783  0.38076792  0.14866232  1
  I  I2  1  0.38076792  0.14866232  0.45863783  1
  I  I3  1  0.85133768  0.54136217  0.61923208  1
  I  I4  1  0.54136217  0.61923208  0.85133768  1
  I  I5  1  0.61923208  0.85133768  0.54136217  1
  I  I6  1  0.67607799  0.07269419  0.22503916  1
  I  I7  1  0.07269419  0.22503916  0.67607799  1
  I  I8  1  0.22503916  0.67607799  0.07269419  1
  I  I9  1  0.32392201  0.92730581  0.77496084  1
  I  I10  1  0.92730581  0.77496084  0.32392201  1
  I  I11  1  0.77496084  0.32392201  0.92730581  1
loop_
_geom_bond_atom_site_label_1
_geom_bond_atom_site_label_2
_geom_bond_distance
_geom_bond_site_symmetry_2
Ca0 I5 3.122145 1_555
Ca0 I2 3.122145 1_555
Ca0 I3 3.122145 1_555
Ca0 I0 3.122145 1_555
Ca0 I4 3.122145 1_555
Ca0 I1 3.122145 1_555
Ni0 Y1 2.652660 1_555
Ni0 Y4 2.652660 1_444
Ni0 Y2 2.652660 1_555
Ni0 Y5 2.652660 1_444
Ni0 Y0 2.652660 1_555
Ni0 Y3 2.652660 1_444
I0 Y0 3.125543 1_555
I0 Y1 3.168490 1_555
I1 Y1 3.125543 1_555
I1 Y2 3.168490 1_555
I2 Y2 3.125543 1_555
I2 Y0 3.168490 1_555
I3 Y3 3.125543 1_555
I3 Y4 3.168490 1_555
I4 Y4 3.125543 1_555
I4 Y5 3.168490 1_555
I5 Y5 3.125543 1_555
I5 Y3 3.168490 1_555
I6 Y5 3.097230 1_544
I6 Y0 3.168687 1_655
I6 Y2 3.375763 1_555
I7 Y3 3.097229 1_445
I7 Y1 3.168687 1_556
I7 Y0 3.375763 1_555
I8 Y4 3.097230 1_454
I8 Y2 3.168687 1_565
I8 Y1 3.375762 1_555
I9 Y2 3.097230 1_566
I9 Y3 3.168687 1_455
I9 Y5 3.375763 1_555
I10 Y0 3.097229 1_665
I10 Y4 3.168687 1_554
I10 Y3 3.375763 1_555
I11 Y1 3.097230 1_656
I11 Y5 3.168687 1_545
I11 Y4 3.375762 1_555
