# generated using pymatgen
data_Hf6ZnPC2
_symmetry_space_group_name_H-M   'P 1'
_cell_length_a   5.79078216
_cell_length_b   5.79078246
_cell_length_c   8.67175528
_cell_angle_alpha   90.00000000
_cell_angle_beta   90.00000000
_cell_angle_gamma   145.91022914
_symmetry_Int_Tables_number   1
_chemical_formula_structural   Hf6ZnPC2
_chemical_formula_sum   'Hf6 Zn1 P1 C2'
_cell_volume   162.98598125
_cell_formula_units_Z   1
loop_
 _symmetry_equiv_pos_site_id
 _symmetry_equiv_pos_as_xyz
  1  'x, y, z'
loop_
 _atom_site_type_symbol
 _atom_site_label
 _atom_site_symmetry_multiplicity
 _atom_site_fract_x
 _atom_site_fract_y
 _atom_site_fract_z
 _atom_site_occupancy
  Hf  Hf0  1  0.63176896  0.36823104  0.94212810  1
  Hf  Hf1  1  0.37029539  0.62970461  0.45362389  1
  Hf  Hf2  1  0.37029539  0.62970461  0.04637611  1
  Hf  Hf3  1  0.63176896  0.36823104  0.55787190  1
  Hf  Hf4  1  0.93514919  0.06485081  0.75000000  1
  Hf  Hf5  1  0.05238964  0.94761036  0.25000000  1
  Zn  Zn0  1  0.75147711  0.24852289  0.25000000  1
  P  P0  1  0.25382279  0.74617721  0.75000000  1
  C  C0  1  0.00151478  0.99848522  0.99603953  1
  C  C1  1  0.00151478  0.99848522  0.50396047  1
loop_
_geom_bond_atom_site_label_1
_geom_bond_atom_site_label_2
_geom_bond_distance
_geom_bond_site_symmetry_2
Hf0 P0 2.735602 1_655
Hf0 P0 2.735602 1_545
Hf0 Zn0 2.980731 1_556
Hf1 Zn0 2.780302 1_455
Hf1 Zn0 2.780303 1_565
Hf1 P0 2.875535 1_555
Hf2 Zn0 2.780302 1_455
Hf2 Zn0 2.780303 1_565
Hf2 P0 2.875535 1_554
Hf3 P0 2.735602 1_655
Hf3 P0 2.735602 1_545
Hf3 Zn0 2.980731 1_555
Hf4 P0 2.629148 1_545
Hf4 P0 2.629149 1_655
Hf5 Zn0 2.782235 1_565
Hf5 Zn0 2.782235 1_455
Hf5 Zn0 3.331959 1_465
C0 Hf4 2.256599 1_465
C0 Hf5 2.273190 1_556
C0 Hf0 2.275942 1_565
C0 Hf0 2.275942 1_455
C0 Hf2 2.276583 1_456
C0 Hf2 2.276583 1_566
C1 Hf4 2.256599 1_465
C1 Hf5 2.273190 1_555
C1 Hf3 2.275942 1_565
C1 Hf3 2.275942 1_455
C1 Hf1 2.276583 1_455
C1 Hf1 2.276583 1_565
