# generated using pymatgen
data_Sr(BC3)2
_symmetry_space_group_name_H-M   'P 1'
_cell_length_a   6.58380607
_cell_length_b   5.19210564
_cell_length_c   5.44672843
_cell_angle_alpha   76.42223423
_cell_angle_beta   50.04753326
_cell_angle_gamma   53.53024643
_symmetry_Int_Tables_number   1
_chemical_formula_structural   Sr(BC3)2
_chemical_formula_sum   'Sr1 B2 C6'
_cell_volume   111.47069628
_cell_formula_units_Z   1
loop_
 _symmetry_equiv_pos_site_id
 _symmetry_equiv_pos_as_xyz
  1  'x, y, z'
loop_
 _atom_site_type_symbol
 _atom_site_label
 _atom_site_symmetry_multiplicity
 _atom_site_fract_x
 _atom_site_fract_y
 _atom_site_fract_z
 _atom_site_occupancy
  Sr  Sr0  1  0.00162832  0.00162832  0.99837168  1
  B  B0  1  0.08993451  0.57795343  0.42204657  1
  B  B1  1  0.57795343  0.08993451  0.91006549  1
  C  C0  1  0.08160460  0.08160460  0.41839540  1
  C  C1  1  0.58160460  0.58160460  0.91839540  1
  C  C2  1  0.92113733  0.92113733  0.57886267  1
  C  C3  1  0.42113733  0.42113733  0.07886267  1
  C  C4  1  0.91264280  0.41241006  0.58758994  1
  C  C5  1  0.41241006  0.91264280  0.08735720  1
loop_
_geom_bond_atom_site_label_1
_geom_bond_atom_site_label_2
_geom_bond_distance
_geom_bond_site_symmetry_2
B0 C3 1.510299 1_555
B0 C2 1.510299 1_455
B0 C4 1.546405 1_455
B0 Sr0 2.884689 1_564
B1 C2 1.510299 1_545
B1 C3 1.510299 1_556
B1 C5 1.546405 1_546
B1 Sr0 2.884688 1_655
C0 C2 1.446657 1_445
C0 C5 1.480543 1_545
C0 C4 1.480543 1_455
C0 Sr0 2.817191 1_554
C0 Sr0 2.817191 1_555
C1 C3 1.446657 1_556
C1 C4 1.480543 1_555
C1 C5 1.480543 1_556
C1 Sr0 2.817191 1_565
C1 Sr0 2.817191 1_655
C2 Sr0 2.818382 1_665
C2 Sr0 2.818382 1_664
C3 Sr0 2.818382 1_654
C3 Sr0 2.818383 1_564
C4 Sr0 2.802791 1_655
C5 Sr0 2.802791 1_564
