# generated using pymatgen
data_Y6Ir14PtRh3
_symmetry_space_group_name_H-M   'P 1'
_cell_length_a   5.27222581
_cell_length_b   5.27222656
_cell_length_c   17.46690280
_cell_angle_alpha   90.00000000
_cell_angle_beta   90.00000000
_cell_angle_gamma   119.99999528
_symmetry_Int_Tables_number   1
_chemical_formula_structural   Y6Ir14PtRh3
_chemical_formula_sum   'Y6 Ir14 Pt1 Rh3'
_cell_volume   420.46962049
_cell_formula_units_Z   1
loop_
 _symmetry_equiv_pos_site_id
 _symmetry_equiv_pos_as_xyz
  1  'x, y, z'
loop_
 _atom_site_type_symbol
 _atom_site_label
 _atom_site_symmetry_multiplicity
 _atom_site_fract_x
 _atom_site_fract_y
 _atom_site_fract_z
 _atom_site_occupancy
  Y  Y0  1  0.33333300  0.66666700  0.95792040  1
  Y  Y1  1  0.66666700  0.33333300  0.04019258  1
  Y  Y2  1  0.66666700  0.33333300  0.45980742  1
  Y  Y3  1  0.33333300  0.66666700  0.54207960  1
  Y  Y4  1  0.33333300  0.66666700  0.75000000  1
  Y  Y5  1  0.66666700  0.33333300  0.25000000  1
  Ir  Ir0  1  0.16749944  0.83250056  0.37526164  1
  Ir  Ir1  1  0.16749944  0.33499987  0.37526164  1
  Ir  Ir2  1  0.66500013  0.83250056  0.37526164  1
  Ir  Ir3  1  0.83261536  0.16738464  0.62680598  1
  Ir  Ir4  1  0.83261536  0.66523071  0.62680598  1
  Ir  Ir5  1  0.33476929  0.16738464  0.62680598  1
  Ir  Ir6  1  0.83261536  0.16738464  0.87319402  1
  Ir  Ir7  1  0.83261536  0.66523071  0.87319402  1
  Ir  Ir8  1  0.33476929  0.16738464  0.87319402  1
  Ir  Ir9  1  0.16749944  0.83250056  0.12473836  1
  Ir  Ir10  1  0.16749944  0.33499987  0.12473836  1
  Ir  Ir11  1  0.66500013  0.83250056  0.12473836  1
  Ir  Ir12  1  0.00000000  0.00000000  0.50000839  1
  Ir  Ir13  1  0.00000000  0.00000000  0.99999161  1
  Pt  Pt0  1  0.33333300  0.66666700  0.25000000  1
  Rh  Rh0  1  0.66666700  0.33333300  0.75000000  1
  Rh  Rh1  1  0.00000000  0.00000000  0.25000000  1
  Rh  Rh2  1  0.00000000  0.00000000  0.75000000  1
loop_
_geom_bond_atom_site_label_1
_geom_bond_atom_site_label_2
_geom_bond_distance
_geom_bond_site_symmetry_2
Ir0 Ir2 2.622936 1_555
Ir0 Ir1 2.622936 1_555
Ir0 Ir2 2.649290 1_455
Ir0 Ir1 2.649290 1_565
Ir0 Pt0 2.660886 1_555
Ir0 Ir12 2.662207 1_565
Ir0 Rh1 2.669573 1_565
Ir0 Y2 3.021581 1_455
Ir0 Y2 3.021581 1_565
Ir0 Y3 3.283817 1_555
Ir0 Y5 3.425814 1_455
Ir0 Y5 3.425814 1_565
Ir1 Ir2 2.622936 1_555
Ir1 Ir2 2.649290 1_445
Ir1 Pt0 2.660886 1_555
Ir1 Ir12 2.662210 1_555
Ir1 Rh1 2.669576 1_555
Ir1 Y2 3.021576 1_455
Ir1 Y2 3.021585 1_555
Ir1 Y3 3.283817 1_555
Ir1 Y5 3.425810 1_455
Ir1 Y5 3.425818 1_555
Ir2 Pt0 2.660886 1_555
Ir2 Rh1 2.669576 1_665
Ir2 Y2 3.021576 1_565
Ir2 Y2 3.021585 1_555
Ir2 Y3 3.283817 1_555
Ir2 Y5 3.425810 1_565
Ir2 Y5 3.425818 1_555
Ir3 Ir5 2.624757 1_555
Ir3 Ir4 2.624757 1_555
Ir3 Rh0 2.631874 1_555
Ir3 Rh2 2.639448 1_655
Ir3 Ir5 2.647469 1_655
Ir3 Ir4 2.647469 1_545
Ir3 Y3 3.023121 1_655
Ir3 Y3 3.023121 1_545
Ir3 Y2 3.287100 1_555
Ir3 Y4 3.402860 1_655
Ir3 Y4 3.402860 1_545
Ir4 Ir5 2.624757 1_555
Ir4 Rh0 2.631877 1_555
Ir4 Rh2 2.639448 1_665
Ir4 Ir5 2.647469 1_665
Ir4 Y3 3.023119 1_655
Ir4 Y3 3.023123 1_555
Ir4 Y2 3.287102 1_555
Ir4 Y4 3.402858 1_655
Ir4 Y4 3.402862 1_555
Ir5 Rh0 2.631877 1_555
Ir5 Rh2 2.639448 1_555
Ir5 Y3 3.023119 1_545
Ir5 Y3 3.023124 1_555
Ir5 Y2 3.287102 1_555
Ir5 Y4 3.402858 1_545
Ir5 Y4 3.402862 1_555
Ir6 Ir8 2.624757 1_555
Ir6 Ir7 2.624757 1_555
Ir6 Rh0 2.631874 1_555
Ir6 Rh2 2.639448 1_655
Ir6 Ir8 2.647469 1_655
Ir6 Ir7 2.647469 1_545
Ir6 Y0 3.023121 1_655
Ir6 Y0 3.023121 1_545
Ir6 Y1 3.287100 1_556
Ir6 Y4 3.402860 1_655
Ir6 Y4 3.402860 1_545
Ir7 Ir8 2.624757 1_555
Ir7 Rh0 2.631877 1_555
Ir7 Rh2 2.639448 1_665
Ir7 Ir8 2.647469 1_665
Ir7 Y0 3.023119 1_655
Ir7 Y0 3.023123 1_555
Ir7 Y1 3.287102 1_556
Ir7 Y4 3.402858 1_655
Ir7 Y4 3.402862 1_555
Ir8 Rh0 2.631877 1_555
Ir8 Rh2 2.639448 1_555
Ir8 Y0 3.023119 1_545
Ir8 Y0 3.023124 1_555
Ir8 Y1 3.287102 1_556
Ir8 Y4 3.402858 1_545
Ir8 Y4 3.402862 1_555
Ir9 Pt0 2.660886 1_555
Ir9 Rh1 2.669573 1_565
Ir9 Y1 3.021581 1_455
Ir9 Y1 3.021581 1_565
Ir9 Y0 3.283817 1_554
Ir9 Y5 3.425814 1_455
Ir9 Y5 3.425814 1_565
Ir10 Ir9 2.622936 1_555
Ir10 Ir11 2.622936 1_555
Ir10 Ir11 2.649290 1_445
Ir10 Ir9 2.649290 1_545
Ir10 Pt0 2.660886 1_555
Ir10 Ir13 2.662210 1_554
Ir10 Rh1 2.669576 1_555
Ir10 Y1 3.021576 1_455
Ir10 Y1 3.021585 1_555
Ir10 Y0 3.283817 1_554
Ir10 Y5 3.425810 1_455
Ir10 Y5 3.425818 1_555
Ir11 Ir9 2.622936 1_555
Ir11 Ir9 2.649290 1_655
Ir11 Pt0 2.660886 1_555
Ir11 Ir13 2.662210 1_664
Ir11 Rh1 2.669576 1_665
Ir11 Y1 3.021576 1_565
Ir11 Y1 3.021585 1_555
Ir11 Y0 3.283817 1_554
Ir11 Y5 3.425810 1_565
Ir11 Y5 3.425818 1_555
Ir12 Ir2 2.662210 1_445
Ir12 Ir5 2.691009 1_555
Ir12 Ir3 2.691009 1_455
Ir12 Ir4 2.691009 1_445
Ir12 Y2 3.123860 1_455
Ir12 Y2 3.123865 1_555
Ir12 Y2 3.123865 1_445
Ir12 Y3 3.131365 1_545
Ir12 Y3 3.131370 1_445
Ir12 Y3 3.131370 1_555
Ir13 Ir9 2.662207 1_546
Ir13 Ir8 2.691009 1_555
Ir13 Ir6 2.691009 1_455
Ir13 Ir7 2.691009 1_445
Ir13 Y1 3.123860 1_456
Ir13 Y1 3.123865 1_556
Ir13 Y1 3.123865 1_446
Ir13 Y0 3.131365 1_545
Ir13 Y0 3.131370 1_445
Ir13 Y0 3.131370 1_555
Pt0 Y5 3.043918 1_455
Pt0 Y5 3.043919 1_565
Pt0 Y5 3.043927 1_555
Rh0 Y4 3.043918 1_655
Rh0 Y4 3.043919 1_545
Rh0 Y4 3.043927 1_555
Rh1 Y5 3.043918 1_455
Rh1 Y5 3.043923 1_555
Rh1 Y5 3.043923 1_445
Rh2 Y4 3.043918 1_545
Rh2 Y4 3.043923 1_445
Rh2 Y4 3.043923 1_555
