# generated using pymatgen
data_Hf3Cu3N
_symmetry_space_group_name_H-M   'P 1'
_cell_length_a   8.27197086
_cell_length_b   8.27197053
_cell_length_c   8.27196969
_cell_angle_alpha   59.99999560
_cell_angle_beta   59.99999692
_cell_angle_gamma   59.99999438
_symmetry_Int_Tables_number   1
_chemical_formula_structural   Hf3Cu3N
_chemical_formula_sum   'Hf12 Cu12 N4'
_cell_volume   400.23205428
_cell_formula_units_Z   4
loop_
 _symmetry_equiv_pos_site_id
 _symmetry_equiv_pos_as_xyz
  1  'x, y, z'
loop_
 _atom_site_type_symbol
 _atom_site_label
 _atom_site_symmetry_multiplicity
 _atom_site_fract_x
 _atom_site_fract_y
 _atom_site_fract_z
 _atom_site_occupancy
  Hf  Hf0  1  0.80867505  0.19132495  0.19132495  1
  Hf  Hf1  1  0.19132495  0.80867505  0.19132495  1
  Hf  Hf2  1  0.80867505  0.80867505  0.19132495  1
  Hf  Hf3  1  0.19132495  0.80867505  0.80867505  1
  Hf  Hf4  1  0.80867505  0.19132495  0.80867505  1
  Hf  Hf5  1  0.19132495  0.19132495  0.80867505  1
  Hf  Hf6  1  0.44132495  0.05867505  0.05867505  1
  Hf  Hf7  1  0.05867505  0.44132495  0.05867505  1
  Hf  Hf8  1  0.44132495  0.44132495  0.05867505  1
  Hf  Hf9  1  0.05867505  0.44132495  0.44132495  1
  Hf  Hf10  1  0.44132495  0.05867505  0.44132495  1
  Hf  Hf11  1  0.05867505  0.05867505  0.44132495  1
  Cu  Cu0  1  0.41771858  0.41771858  0.74684326  1
  Cu  Cu1  1  0.41771858  0.41771858  0.41771858  1
  Cu  Cu2  1  0.74684326  0.41771858  0.41771858  1
  Cu  Cu3  1  0.41771858  0.74684326  0.41771858  1
  Cu  Cu4  1  0.83228142  0.83228142  0.50315674  1
  Cu  Cu5  1  0.83228142  0.83228142  0.83228142  1
  Cu  Cu6  1  0.50315674  0.83228142  0.83228142  1
  Cu  Cu7  1  0.83228142  0.50315674  0.83228142  1
  Cu  Cu8  1  0.62500000  0.62500000  0.12500000  1
  Cu  Cu9  1  0.62500000  0.62500000  0.62500000  1
  Cu  Cu10  1  0.12500000  0.62500000  0.62500000  1
  Cu  Cu11  1  0.62500000  0.12500000  0.62500000  1
  N  N0  1  0.12500000  0.12500000  0.62500000  1
  N  N1  1  0.12500000  0.12500000  0.12500000  1
  N  N2  1  0.62500000  0.12500000  0.12500000  1
  N  N3  1  0.12500000  0.62500000  0.12500000  1
loop_
_geom_bond_atom_site_label_1
_geom_bond_atom_site_label_2
_geom_bond_distance
_geom_bond_site_symmetry_2
Hf0 N1 2.208756 1_655
Hf0 N2 2.208756 1_555
Hf1 N1 2.208755 1_565
Hf1 N3 2.208756 1_555
Hf2 N2 2.208755 1_565
Hf2 N3 2.208755 1_655
Hf3 N3 2.208755 1_556
Hf3 N0 2.208755 1_565
Hf4 N2 2.208755 1_556
Hf4 N0 2.208755 1_655
Hf5 N1 2.208755 1_556
Hf5 N0 2.208755 1_555
Hf6 N1 2.208756 1_555
Hf6 N2 2.208756 1_555
Hf7 N1 2.208755 1_555
Hf7 N3 2.208756 1_555
Hf8 N2 2.208755 1_555
Hf8 N3 2.208755 1_555
Hf9 N3 2.208755 1_555
Hf9 N0 2.208755 1_555
Hf10 N2 2.208755 1_555
Hf10 N0 2.208755 1_555
Hf11 N1 2.208755 1_555
Hf11 N0 2.208755 1_555
Cu0 Cu11 2.525734 1_555
Cu0 Cu10 2.525734 1_555
Cu0 Cu9 2.525741 1_555
Cu0 Cu3 2.722509 1_555
Cu0 Cu1 2.722509 1_555
Cu0 Cu2 2.722509 1_555
Cu0 Hf6 2.788438 1_556
Cu0 Hf7 2.788438 1_556
Cu0 Hf8 2.788443 1_556
Cu0 Hf5 2.977780 1_555
Cu0 Hf3 2.977787 1_555
Cu0 Hf4 2.977787 1_555
Cu1 Cu11 2.525738 1_555
Cu1 Cu10 2.525738 1_555
Cu1 Cu8 2.525739 1_555
Cu1 Cu3 2.722510 1_555
Cu1 Cu2 2.722510 1_555
Cu1 Hf8 2.788434 1_555
Cu1 Hf10 2.788435 1_555
Cu1 Hf9 2.788435 1_555
Cu1 Hf1 2.977784 1_555
Cu1 Hf5 2.977784 1_555
Cu1 Hf0 2.977784 1_555
Cu2 Cu8 2.525734 1_555
Cu2 Cu9 2.525741 1_555
Cu2 Cu3 2.722509 1_555
Cu2 Hf7 2.788438 1_655
Cu2 Hf11 2.788438 1_655
Cu2 Hf9 2.788443 1_655
Cu2 Hf0 2.977780 1_555
Cu2 Hf4 2.977787 1_555
Cu2 Hf2 2.977787 1_555
Cu3 Cu8 2.525734 1_555
Cu3 Cu9 2.525741 1_555
Cu3 Hf6 2.788438 1_565
Cu3 Hf11 2.788438 1_565
Cu3 Hf10 2.788443 1_565
Cu3 Hf1 2.977780 1_555
Cu3 Hf3 2.977787 1_555
Cu3 Hf2 2.977787 1_555
Cu4 Cu9 2.525741 1_555
Cu4 Cu7 2.722509 1_555
Cu4 Cu5 2.722509 1_555
Cu4 Cu6 2.722509 1_555
Cu4 Hf0 2.788438 1_565
Cu4 Hf1 2.788438 1_655
Cu4 Hf2 2.788443 1_555
Cu4 Hf11 2.977780 1_665
Cu4 Hf9 2.977787 1_655
Cu4 Hf10 2.977787 1_565
Cu5 Cu8 2.525739 1_556
Cu5 Cu7 2.722510 1_555
Cu5 Cu6 2.722510 1_555
Cu5 Hf2 2.788434 1_556
Cu5 Hf4 2.788435 1_565
Cu5 Hf3 2.788435 1_655
Cu5 Hf7 2.977784 1_656
Cu5 Hf11 2.977784 1_665
Cu5 Hf6 2.977784 1_566
Cu6 Cu8 2.525734 1_556
Cu6 Cu9 2.525741 1_555
Cu6 Cu7 2.722509 1_555
Cu6 Hf1 2.788438 1_556
Cu6 Hf5 2.788438 1_565
Cu6 Hf3 2.788443 1_555
Cu6 Hf6 2.977780 1_566
Cu6 Hf10 2.977787 1_565
Cu6 Hf8 2.977787 1_556
Cu7 Cu8 2.525734 1_556
Cu7 Cu9 2.525741 1_555
Cu7 Hf0 2.788438 1_556
Cu7 Hf5 2.788438 1_655
Cu7 Hf4 2.788443 1_555
Cu7 Hf7 2.977780 1_656
Cu7 Hf9 2.977787 1_655
Cu7 Hf8 2.977787 1_556
Cu8 Hf6 2.982192 1_565
Cu8 Hf0 2.982192 1_555
Cu8 Hf7 2.982192 1_655
Cu8 Hf1 2.982192 1_555
Cu8 Hf2 2.982192 1_555
Cu8 Hf8 2.982192 1_555
Cu9 Hf8 2.982192 1_556
Cu9 Hf2 2.982192 1_555
Cu9 Hf10 2.982192 1_565
Cu9 Hf4 2.982192 1_555
Cu9 Hf3 2.982192 1_555
Cu9 Hf9 2.982192 1_655
Cu10 Cu4 2.525734 1_455
Cu10 Cu3 2.525734 1_555
Cu10 Cu7 2.525734 1_455
Cu10 Cu5 2.525738 1_455
Cu10 Hf7 2.982192 1_556
Cu10 Hf1 2.982192 1_555
Cu10 Hf11 2.982192 1_565
Cu10 Hf5 2.982192 1_555
Cu10 Hf3 2.982192 1_555
Cu10 Hf9 2.982192 1_555
Cu11 Cu4 2.525734 1_545
Cu11 Cu2 2.525734 1_555
Cu11 Cu6 2.525734 1_545
Cu11 Cu5 2.525738 1_545
Cu11 Hf6 2.982192 1_556
Cu11 Hf0 2.982192 1_555
Cu11 Hf4 2.982192 1_555
Cu11 Hf10 2.982192 1_555
Cu11 Hf11 2.982192 1_655
Cu11 Hf5 2.982192 1_555
