# generated using pymatgen
data_K3Ca2SbO6
_symmetry_space_group_name_H-M   'P 1'
_cell_length_a   5.85957712
_cell_length_b   5.85957729
_cell_length_c   6.42991281
_cell_angle_alpha   98.82554846
_cell_angle_beta   98.82555426
_cell_angle_gamma   119.93190725
_symmetry_Int_Tables_number   1
_chemical_formula_structural   K3Ca2SbO6
_chemical_formula_sum   'K3 Ca2 Sb1 O6'
_cell_volume   182.11187761
_cell_formula_units_Z   1
loop_
 _symmetry_equiv_pos_site_id
 _symmetry_equiv_pos_as_xyz
  1  'x, y, z'
loop_
 _atom_site_type_symbol
 _atom_site_label
 _atom_site_symmetry_multiplicity
 _atom_site_fract_x
 _atom_site_fract_y
 _atom_site_fract_z
 _atom_site_occupancy
  K  K0  1  0.82974842  0.17025358  0.50000000  1
  K  K1  1  0.50000100  0.50000100  0.50000000  1
  K  K2  1  0.17025358  0.82974842  0.50000000  1
  Ca  Ca0  1  0.66649888  0.33350212  0.00000000  1
  Ca  Ca1  1  0.33350212  0.66649888  0.00000000  1
  Sb  Sb0  1  0.00000000  0.00000000  0.00000000  1
  O  O0  1  0.77325741  0.77325741  0.18520077  1
  O  O1  1  0.35182791  0.06199652  0.18481017  1
  O  O2  1  0.06199652  0.35182791  0.18481017  1
  O  O3  1  0.93800348  0.64817209  0.81518883  1
  O  O4  1  0.64817209  0.93800348  0.81518883  1
  O  O5  1  0.22674259  0.22674259  0.81479923  1
loop_
_geom_bond_atom_site_label_1
_geom_bond_atom_site_label_2
_geom_bond_distance
_geom_bond_site_symmetry_2
K0 O2 2.674750 1_655
K0 O4 2.674752 1_545
K0 O5 2.683120 1_655
K0 O0 2.683124 1_545
K0 O3 2.905713 1_555
K0 O1 2.905720 1_555
K1 O3 2.662393 1_555
K1 O4 2.662393 1_555
K1 O2 2.662402 1_555
K1 O1 2.662402 1_555
K1 O0 2.941960 1_555
K1 O5 2.941969 1_555
K2 O1 2.674750 1_565
K2 O3 2.674752 1_455
K2 O5 2.683121 1_565
K2 O0 2.683124 1_455
K2 O4 2.905713 1_555
K2 O2 2.905721 1_555
Ca0 O2 2.379426 1_655
Ca0 O4 2.379430 1_544
Ca0 O3 2.380739 1_554
Ca0 O1 2.380739 1_555
Ca0 O0 2.381263 1_555
Ca0 O5 2.381266 1_554
Ca1 O1 2.379426 1_565
Ca1 O3 2.379430 1_454
Ca1 O4 2.380739 1_554
Ca1 O2 2.380739 1_555
Ca1 O0 2.381263 1_555
Ca1 O5 2.381266 1_554
O0 Sb0 2.039091 1_665
O1 Sb0 2.040231 1_555
O2 Sb0 2.040231 1_555
O3 Sb0 2.040234 1_666
O4 Sb0 2.040233 1_666
O5 Sb0 2.039091 1_556
