# generated using pymatgen
data_Ba2HgSb3Pd2
_symmetry_space_group_name_H-M   'P 1'
_cell_length_a   9.88636717
_cell_length_b   9.88636743
_cell_length_c   4.87735729
_cell_angle_alpha   90.00000000
_cell_angle_beta   90.00000000
_cell_angle_gamma   151.39425720
_symmetry_Int_Tables_number   1
_chemical_formula_structural   Ba2HgSb3Pd2
_chemical_formula_sum   'Ba2 Hg1 Sb3 Pd2'
_cell_volume   228.24113787
_cell_formula_units_Z   1
loop_
 _symmetry_equiv_pos_site_id
 _symmetry_equiv_pos_as_xyz
  1  'x, y, z'
loop_
 _atom_site_type_symbol
 _atom_site_label
 _atom_site_symmetry_multiplicity
 _atom_site_fract_x
 _atom_site_fract_y
 _atom_site_fract_z
 _atom_site_occupancy
  Ba  Ba0  1  0.38872820  0.61127180  0.75000000  1
  Ba  Ba1  1  0.60946523  0.39053477  0.25000000  1
  Hg  Hg0  1  0.04556680  0.95443320  0.75000000  1
  Sb  Sb0  1  0.95585171  0.04414829  0.25000000  1
  Sb  Sb1  1  0.24918137  0.75081863  0.25000000  1
  Sb  Sb2  1  0.74954482  0.25045518  0.75000000  1
  Pd  Pd0  1  0.81225862  0.18774138  0.25000000  1
  Pd  Pd1  1  0.18940425  0.81059575  0.75000000  1
loop_
_geom_bond_atom_site_label_1
_geom_bond_atom_site_label_2
_geom_bond_distance
_geom_bond_site_symmetry_2
Ba0 Sb2 3.616185 1_455
Ba0 Sb2 3.616185 1_565
Ba0 Sb1 3.618812 1_556
Ba0 Sb1 3.618812 1_555
Ba0 Sb0 3.683270 1_566
Ba0 Sb0 3.683270 1_565
Ba0 Sb0 3.683270 1_456
Ba0 Sb0 3.683270 1_455
Ba0 Pd0 3.749552 1_456
Ba0 Pd0 3.749552 1_455
Ba0 Pd0 3.749552 1_565
Ba0 Pd0 3.749552 1_566
Ba0 Pd1 3.819016 1_555
Ba0 Hg0 3.872387 1_655
Ba0 Hg0 3.872387 1_545
Ba1 Sb1 3.623719 1_655
Ba1 Sb1 3.623719 1_545
Ba1 Sb2 3.626361 1_555
Ba1 Sb2 3.626361 1_554
Ba1 Hg0 3.662152 1_545
Ba1 Hg0 3.662152 1_544
Ba1 Hg0 3.662152 1_655
Ba1 Hg0 3.662152 1_654
Ba1 Pd1 3.776022 1_655
Ba1 Pd1 3.776022 1_654
Ba1 Pd1 3.776022 1_544
Ba1 Pd1 3.776022 1_545
Ba1 Sb0 3.824634 1_455
Ba1 Sb0 3.824634 1_565
Ba1 Pd0 3.885490 1_555
Hg0 Pd1 2.755903 1_555
Hg0 Sb0 2.983599 1_466
Hg0 Sb0 2.983599 1_465
Pd0 Sb2 2.718633 1_555
Pd0 Sb2 2.718633 1_554
Pd0 Sb1 2.725055 1_545
Pd0 Sb1 2.725055 1_655
Pd0 Sb0 2.751221 1_555
Pd1 Sb1 2.694237 1_556
Pd1 Sb1 2.694237 1_555
Pd1 Sb2 2.700572 1_565
Pd1 Sb2 2.700573 1_455
