# generated using pymatgen
data_Cd6RuIO12
_symmetry_space_group_name_H-M   'P 1'
_cell_length_a   5.68068704
_cell_length_b   5.52112229
_cell_length_c   9.68855474
_cell_angle_alpha   55.61518921
_cell_angle_beta   90.44371705
_cell_angle_gamma   90.46289802
_symmetry_Int_Tables_number   1
_chemical_formula_structural   Cd6RuIO12
_chemical_formula_sum   'Cd6 Ru1 I1 O12'
_cell_volume   250.76234850
_cell_formula_units_Z   1
loop_
 _symmetry_equiv_pos_site_id
 _symmetry_equiv_pos_as_xyz
  1  'x, y, z'
loop_
 _atom_site_type_symbol
 _atom_site_label
 _atom_site_symmetry_multiplicity
 _atom_site_fract_x
 _atom_site_fract_y
 _atom_site_fract_z
 _atom_site_occupancy
  Cd  Cd0  1  0.95447869  0.26815631  0.22816723  1
  Cd  Cd1  1  0.44484146  0.77954566  0.23726065  1
  Cd  Cd2  1  0.04552131  0.73184369  0.77183277  1
  Cd  Cd3  1  0.55515854  0.22045434  0.76273935  1
  Cd  Cd4  1  0.00000000  0.50000000  0.50000000  1
  Cd  Cd5  1  0.50000000  0.50000000  0.00000000  1
  Ru  Ru0  1  0.00000000  0.00000000  0.00000000  1
  I  I0  1  0.50000000  0.00000000  0.50000000  1
  O  O0  1  0.28273163  0.90079685  0.92853083  1
  O  O1  1  0.77484251  0.07087461  0.58323606  1
  O  O2  1  0.71726837  0.09920315  0.07146917  1
  O  O3  1  0.22515749  0.92912539  0.41676394  1
  O  O4  1  0.17734671  0.24838960  0.04506164  1
  O  O5  1  0.66992265  0.78108974  0.44071039  1
  O  O6  1  0.82265329  0.75161040  0.95493836  1
  O  O7  1  0.33007735  0.21891026  0.55928961  1
  O  O8  1  0.42944308  0.65785627  0.71395218  1
  O  O9  1  0.93323449  0.34247644  0.76722387  1
  O  O10  1  0.57055692  0.34214373  0.28604782  1
  O  O11  1  0.06676551  0.65752356  0.23277613  1
loop_
_geom_bond_atom_site_label_1
_geom_bond_atom_site_label_2
_geom_bond_distance
_geom_bond_site_symmetry_2
Cd0 O4 2.240012 1_655
Cd0 O11 2.261878 1_655
Cd0 O3 2.312287 1_645
Cd0 O10 2.351577 1_555
Cd0 O2 2.557024 1_555
Cd0 O6 2.591094 1_554
Cd1 O2 2.209585 1_565
Cd1 O11 2.253163 1_555
Cd1 O10 2.301900 1_555
Cd1 O5 2.345222 1_555
Cd1 O3 2.633723 1_555
Cd1 O4 2.655647 1_565
Cd2 O6 2.240012 1_455
Cd2 O9 2.261878 1_455
Cd2 O1 2.312287 1_465
Cd2 O8 2.351577 1_555
Cd2 O0 2.557024 1_555
Cd2 O4 2.591094 1_556
Cd3 O0 2.209585 1_545
Cd3 O9 2.253163 1_555
Cd3 O8 2.301900 1_555
Cd3 O7 2.345222 1_555
Cd3 O1 2.633723 1_555
Cd3 O6 2.655647 1_545
Cd4 O9 2.251630 1_455
Cd4 O11 2.251630 1_555
Cd4 O7 2.297335 1_555
Cd4 O5 2.297335 1_455
Cd4 O3 2.389269 1_555
Cd4 O1 2.389269 1_455
Cd5 O6 2.183145 1_554
Cd5 O4 2.183145 1_555
Cd5 O0 2.280289 1_554
Cd5 O2 2.280289 1_555
Cd5 O10 2.420973 1_555
Cd5 O8 2.420973 1_554
I0 O7 1.879930 1_555
I0 O5 1.879930 1_545
I0 O1 1.888957 1_555
I0 O3 1.888957 1_545
I0 O10 1.898352 1_555
I0 O8 1.898352 1_545
O0 Ru0 1.954187 1_566
O2 Ru0 1.954187 1_655
O4 Ru0 1.932198 1_555
O6 Ru0 1.932198 1_666
O9 Ru0 1.996782 1_656
O11 Ru0 1.996782 1_565
