# generated using pymatgen
data_Ba3Sc2TeO5
_symmetry_space_group_name_H-M   'P 1'
_cell_length_a   4.22344564
_cell_length_b   4.22344564
_cell_length_c   11.92212843
_cell_angle_alpha   90.00000000
_cell_angle_beta   90.00000000
_cell_angle_gamma   90.00000000
_symmetry_Int_Tables_number   1
_chemical_formula_structural   Ba3Sc2TeO5
_chemical_formula_sum   'Ba3 Sc2 Te1 O5'
_cell_volume   212.66088313
_cell_formula_units_Z   1
loop_
 _symmetry_equiv_pos_site_id
 _symmetry_equiv_pos_as_xyz
  1  'x, y, z'
loop_
 _atom_site_type_symbol
 _atom_site_label
 _atom_site_symmetry_multiplicity
 _atom_site_fract_x
 _atom_site_fract_y
 _atom_site_fract_z
 _atom_site_occupancy
  Ba  Ba0  1  0.00000000  0.00000000  0.00000000  1
  Ba  Ba1  1  0.00000000  0.00000000  0.66742223  1
  Ba  Ba2  1  0.00000000  0.00000000  0.33257777  1
  Sc  Sc0  1  0.50000000  0.50000000  0.83420563  1
  Sc  Sc1  1  0.50000000  0.50000000  0.16579437  1
  Te  Te0  1  0.50000000  0.50000000  0.50000000  1
  O  O0  1  0.50000000  0.00000000  0.81180140  1
  O  O1  1  0.00000000  0.50000000  0.81180140  1
  O  O2  1  0.50000000  0.00000000  0.18819860  1
  O  O3  1  0.00000000  0.50000000  0.18819860  1
  O  O4  1  0.50000000  0.50000000  0.00000000  1
loop_
_geom_bond_atom_site_label_1
_geom_bond_atom_site_label_2
_geom_bond_distance
_geom_bond_site_symmetry_2
Ba0 O4 2.986427 1_545
Ba0 O4 2.986427 1_445
Ba0 O4 2.986427 1_455
Ba0 O4 2.986427 1_555
Ba0 O0 3.081183 1_554
Ba0 O0 3.081183 1_454
Ba0 O1 3.081183 1_554
Ba0 O1 3.081183 1_544
Ba0 O3 3.081183 1_555
Ba0 O3 3.081183 1_545
Ba0 O2 3.081183 1_455
Ba0 O2 3.081183 1_555
Ba1 O1 2.724384 1_555
Ba1 O0 2.724384 1_555
Ba1 O1 2.724384 1_545
Ba1 O0 2.724384 1_455
Ba1 Te0 3.592058 1_545
Ba1 Te0 3.592058 1_445
Ba1 Te0 3.592058 1_455
Ba1 Te0 3.592058 1_555
Ba2 O3 2.724384 1_545
Ba2 O2 2.724384 1_455
Ba2 O2 2.724384 1_555
Ba2 O3 2.724384 1_555
Ba2 Te0 3.592058 1_545
Ba2 Te0 3.592058 1_555
Ba2 Te0 3.592058 1_445
Ba2 Te0 3.592058 1_455
O0 Sc0 2.128549 1_545
O0 Sc0 2.128549 1_555
O1 Sc0 2.128549 1_455
O1 Sc0 2.128549 1_555
O2 Sc1 2.128549 1_545
O2 Sc1 2.128549 1_555
O3 Sc1 2.128549 1_555
O3 Sc1 2.128549 1_455
O4 Sc1 1.976622 1_555
O4 Sc0 1.976622 1_554
