# generated using pymatgen
data_Na2PPd2
_symmetry_space_group_name_H-M   'P 1'
_cell_length_a   8.74800558
_cell_length_b   7.90651649
_cell_length_c   5.52670515
_cell_angle_alpha   79.09728516
_cell_angle_beta   62.56000247
_cell_angle_gamma   38.34269942
_symmetry_Int_Tables_number   1
_chemical_formula_structural   Na2PPd2
_chemical_formula_sum   'Na4 P2 Pd4'
_cell_volume   199.89169016
_cell_formula_units_Z   2
loop_
 _symmetry_equiv_pos_site_id
 _symmetry_equiv_pos_as_xyz
  1  'x, y, z'
loop_
 _atom_site_type_symbol
 _atom_site_label
 _atom_site_symmetry_multiplicity
 _atom_site_fract_x
 _atom_site_fract_y
 _atom_site_fract_z
 _atom_site_occupancy
  Na  Na0  1  0.04348644  0.04958765  0.62946780  1
  Na  Na1  1  0.27745811  0.62946780  0.04958765  1
  Na  Na2  1  0.62053220  0.97254189  0.20651356  1
  Na  Na3  1  0.20041235  0.20651356  0.97254189  1
  P  P0  1  0.82832303  0.67167697  0.67167697  1
  P  P1  1  0.57832303  0.42167697  0.42167697  1
  Pd  Pd0  1  0.64527523  0.59228753  0.05612005  1
  Pd  Pd1  1  0.70631619  0.05612005  0.59228753  1
  Pd  Pd2  1  0.19387995  0.54368381  0.60472477  1
  Pd  Pd3  1  0.65771247  0.60472477  0.54368381  1
loop_
_geom_bond_atom_site_label_1
_geom_bond_atom_site_label_2
_geom_bond_distance
_geom_bond_site_symmetry_2
Na0 Pd3 2.886343 1_455
Na0 P1 2.936858 1_545
Na0 Pd0 2.986075 1_456
Na0 Pd1 3.010059 1_455
Na0 Pd2 3.087932 1_545
Na0 Pd0 3.151167 1_545
Na0 Pd3 3.178822 1_545
Na0 P1 3.283705 1_455
Na1 Pd2 2.886344 1_555
Na1 P1 2.936859 1_554
Na1 Pd1 2.986078 1_465
Na1 Pd0 3.010050 1_555
Na1 Pd3 3.087937 1_554
Na1 Pd1 3.151170 1_554
Na1 Pd2 3.178817 1_554
Na1 P1 3.283705 1_555
Na2 Pd1 2.886339 1_565
Na2 P0 2.936859 1_554
Na2 Pd2 2.986080 1_565
Na2 Pd3 3.010053 1_555
Na2 Pd0 3.087940 1_555
Na2 Pd2 3.151167 1_654
Na2 Pd1 3.178822 1_564
Na2 P0 3.283705 1_555
Na3 Pd0 2.886345 1_456
Na3 P0 2.936858 1_545
Na3 Pd3 2.986078 1_456
Na3 Pd2 3.010056 1_555
Na3 Pd1 3.087932 1_555
Na3 Pd3 3.151165 1_545
Na3 Pd0 3.178820 1_546
Na3 P0 3.283705 1_455
P0 Pd3 2.315639 1_555
P0 Pd2 2.315647 1_655
P0 Pd1 2.325725 1_565
P0 Pd0 2.325730 1_556
P1 Pd0 2.315642 1_555
P1 Pd1 2.315645 1_555
P1 Pd2 2.325724 1_555
P1 Pd3 2.325733 1_555
Pd0 Pd3 2.769414 1_554
Pd0 Pd3 2.769425 1_555
Pd1 Pd2 2.769415 1_555
Pd1 Pd2 2.769420 1_645
