# generated using pymatgen
data_Ba8Bi5I
_symmetry_space_group_name_H-M   'P 1'
_cell_length_a   9.31688770
_cell_length_b   9.31688758
_cell_length_c   9.31688767
_cell_angle_alpha   109.45895402
_cell_angle_beta   109.49575052
_cell_angle_gamma   109.45895236
_symmetry_Int_Tables_number   1
_chemical_formula_structural   Ba8Bi5I
_chemical_formula_sum   'Ba8 Bi5 I1'
_cell_volume   622.57355120
_cell_formula_units_Z   1
loop_
 _symmetry_equiv_pos_site_id
 _symmetry_equiv_pos_as_xyz
  1  'x, y, z'
loop_
 _atom_site_type_symbol
 _atom_site_label
 _atom_site_symmetry_multiplicity
 _atom_site_fract_x
 _atom_site_fract_y
 _atom_site_fract_z
 _atom_site_occupancy
  Ba  Ba0  1  0.48757189  0.99233210  0.62170626  1
  Ba  Ba1  1  0.14988690  0.50552883  0.99468271  1
  Ba  Ba2  1  0.37829374  0.36586562  0.37062584  1
  Ba  Ba3  1  0.00476021  0.13413438  0.51242811  1
  Ba  Ba4  1  0.85564193  0.84479581  0.85011310  1
  Ba  Ba5  1  0.00531729  0.65520419  0.51084612  1
  Ba  Ba6  1  0.48915388  0.99447117  0.14435807  1
  Ba  Ba7  1  0.62937416  0.50766790  0.99523979  1
  Bi  Bi0  1  0.11524077  0.86775740  0.24320176  1
  Bi  Bi1  1  0.37544436  0.63224260  0.74748337  1
  Bi  Bi2  1  0.25251663  0.12796099  0.88475923  1
  Bi  Bi3  1  0.75679824  0.37203901  0.62455564  1
  Bi  Bi4  1  0.62500000  0.75000000  0.37500000  1
  I  I0  1  0.87500000  0.25000000  0.12500000  1
loop_
_geom_bond_atom_site_label_1
_geom_bond_atom_site_label_2
_geom_bond_distance
_geom_bond_site_symmetry_2
Ba0 Bi0 3.498855 1_555
Ba0 Bi4 3.528898 1_555
Ba0 Bi3 3.576099 1_565
Ba0 Bi1 3.849860 1_555
Ba0 Bi2 3.970178 1_565
Ba0 I0 4.026068 1_566
Ba1 Bi3 3.539679 1_455
Ba1 Bi0 3.587942 1_556
Ba1 I0 3.693275 1_456
Ba1 Bi1 3.808362 1_555
Ba1 Bi4 3.843679 1_556
Ba1 Bi2 3.851254 1_555
Ba2 Bi3 3.498855 1_555
Ba2 Bi4 3.528898 1_555
Ba2 Bi1 3.576099 1_555
Ba2 Bi2 3.849860 1_554
Ba2 Bi0 3.970178 1_545
Ba2 I0 4.026068 1_455
Ba3 Bi2 3.498855 1_555
Ba3 Bi4 3.528898 1_445
Ba3 Bi0 3.576098 1_545
Ba3 Bi3 3.849860 1_455
Ba3 Bi1 3.970178 1_555
Ba3 I0 4.026068 1_455
Ba4 Bi0 3.539679 1_656
Ba4 Bi2 3.587942 1_665
Ba4 I0 3.693275 1_566
Ba4 Bi3 3.808362 1_555
Ba4 Bi4 3.843679 1_555
Ba4 Bi1 3.851254 1_555
Ba5 Bi1 3.539679 1_555
Ba5 Bi3 3.587942 1_455
Ba5 I0 3.693275 1_455
Ba5 Bi2 3.808362 1_565
Ba5 Bi4 3.843679 1_455
Ba5 Bi0 3.851254 1_555
Ba6 Bi2 3.539679 1_564
Ba6 Bi1 3.587942 1_554
Ba6 I0 3.693275 1_565
Ba6 Bi0 3.808362 1_555
Ba6 Bi4 3.843678 1_555
Ba6 Bi3 3.851254 1_565
Ba7 Bi1 3.498855 1_555
Ba7 Bi4 3.528898 1_556
Ba7 Bi2 3.576099 1_555
Ba7 Bi0 3.849861 1_656
Ba7 Bi3 3.970178 1_555
Ba7 I0 4.026068 1_556
