# generated using pymatgen
data_AgSbSe2
_symmetry_space_group_name_H-M   'P 1'
_cell_length_a   7.14858609
_cell_length_b   7.14858609
_cell_length_c   7.14858609
_cell_angle_alpha   132.66312549
_cell_angle_beta   132.66312549
_cell_angle_gamma   69.18368722
_symmetry_Int_Tables_number   1
_chemical_formula_structural   AgSbSe2
_chemical_formula_sum   'Ag2 Sb2 Se4'
_cell_volume   193.85781414
_cell_formula_units_Z   2
loop_
 _symmetry_equiv_pos_site_id
 _symmetry_equiv_pos_as_xyz
  1  'x, y, z'
loop_
 _atom_site_type_symbol
 _atom_site_label
 _atom_site_symmetry_multiplicity
 _atom_site_fract_x
 _atom_site_fract_y
 _atom_site_fract_z
 _atom_site_occupancy
  Ag  Ag0  1  0.25000000  0.75000000  0.50000000  1
  Ag  Ag1  1  0.50000000  0.50000000  0.00000000  1
  Sb  Sb0  1  0.00000000  0.00000000  0.00000000  1
  Sb  Sb1  1  0.75000000  0.25000000  0.50000000  1
  Se  Se0  1  0.75341500  0.75341500  0.00000000  1
  Se  Se1  1  0.99658500  0.49658500  0.50000000  1
  Se  Se2  1  0.50341500  0.00341500  0.50000000  1
  Se  Se3  1  0.24658500  0.24658500  0.00000000  1
loop_
_geom_bond_atom_site_label_1
_geom_bond_atom_site_label_2
_geom_bond_distance
_geom_bond_site_symmetry_2
Ag0 Se3 2.870033 1_566
Ag0 Se0 2.870033 1_556
Ag0 Se0 2.870033 1_455
Ag0 Se3 2.870033 1_555
Ag0 Se2 2.982613 1_565
Ag0 Se1 2.982613 1_455
Ag1 Se2 2.870033 1_565
Ag1 Se1 2.870033 1_555
Ag1 Se2 2.870033 1_554
Ag1 Se1 2.870033 1_454
Ag1 Se0 2.982613 1_555
Ag1 Se3 2.982613 1_555
Sb0 Se2 2.870033 1_454
Sb0 Se1 2.870033 1_444
Sb0 Se2 2.870033 1_555
Sb0 Se1 2.870033 1_455
Sb0 Se3 2.902226 1_555
Sb0 Se0 2.902226 1_445
Sb1 Se0 2.870033 1_545
Sb1 Se0 2.870033 1_556
Sb1 Se3 2.870033 1_656
Sb1 Se3 2.870033 1_555
Sb1 Se1 2.902226 1_555
Sb1 Se2 2.902226 1_555
