# generated using pymatgen
data_Lu6Ti4Al12Rh7
_symmetry_space_group_name_H-M   'P 1'
_cell_length_a   8.86390570
_cell_length_b   8.86390500
_cell_length_c   8.86390461
_cell_angle_alpha   59.99999781
_cell_angle_beta   60.00000041
_cell_angle_gamma   59.99999768
_symmetry_Int_Tables_number   1
_chemical_formula_structural   Lu6Ti4Al12Rh7
_chemical_formula_sum   'Lu6 Ti4 Al12 Rh7'
_cell_volume   492.44789142
_cell_formula_units_Z   1
loop_
 _symmetry_equiv_pos_site_id
 _symmetry_equiv_pos_as_xyz
  1  'x, y, z'
loop_
 _atom_site_type_symbol
 _atom_site_label
 _atom_site_symmetry_multiplicity
 _atom_site_fract_x
 _atom_site_fract_y
 _atom_site_fract_z
 _atom_site_occupancy
  Lu  Lu0  1  0.70332655  0.70332655  0.29667345  1
  Lu  Lu1  1  0.29667345  0.70332655  0.29667345  1
  Lu  Lu2  1  0.70332655  0.29667345  0.29667345  1
  Lu  Lu3  1  0.29667345  0.29667345  0.70332655  1
  Lu  Lu4  1  0.70332655  0.29667345  0.70332655  1
  Lu  Lu5  1  0.29667345  0.70332655  0.70332655  1
  Ti  Ti0  1  0.88096530  0.88096530  0.35710110  1
  Ti  Ti1  1  0.88096530  0.35710110  0.88096530  1
  Ti  Ti2  1  0.35710110  0.88096530  0.88096530  1
  Ti  Ti3  1  0.88096530  0.88096530  0.88096530  1
  Al  Al0  1  0.11983213  0.11983213  0.64050262  1
  Al  Al1  1  0.11983213  0.64050262  0.11983213  1
  Al  Al2  1  0.64050262  0.11983213  0.11983213  1
  Al  Al3  1  0.11983213  0.11983213  0.11983213  1
  Al  Al4  1  0.66965513  0.66965513  0.99103361  1
  Al  Al5  1  0.66965513  0.99103361  0.66965513  1
  Al  Al6  1  0.99103361  0.66965513  0.66965513  1
  Al  Al7  1  0.66965513  0.66965513  0.66965513  1
  Al  Al8  1  0.32889352  0.32889352  0.01332044  1
  Al  Al9  1  0.32889352  0.01332044  0.32889352  1
  Al  Al10  1  0.01332044  0.32889352  0.32889352  1
  Al  Al11  1  0.32889352  0.32889352  0.32889352  1
  Rh  Rh0  1  0.00000000  0.00000000  0.00000000  1
  Rh  Rh1  1  0.99862287  0.99862287  0.50137713  1
  Rh  Rh2  1  0.50137713  0.99862287  0.50137713  1
  Rh  Rh3  1  0.99862287  0.50137713  0.50137713  1
  Rh  Rh4  1  0.50137713  0.50137713  0.99862287  1
  Rh  Rh5  1  0.99862287  0.50137713  0.99862287  1
  Rh  Rh6  1  0.50137713  0.99862287  0.99862287  1
loop_
_geom_bond_atom_site_label_1
_geom_bond_atom_site_label_2
_geom_bond_distance
_geom_bond_site_symmetry_2
Lu0 Ti0 3.067816 1_555
Lu0 Ti3 3.067834 1_554
Lu0 Rh6 3.188057 1_554
Lu0 Rh2 3.188057 1_555
Lu0 Rh5 3.188057 1_554
Lu0 Rh3 3.188057 1_555
Lu0 Lu4 3.604534 1_555
Lu0 Lu2 3.604534 1_555
Lu0 Lu5 3.604534 1_555
Lu0 Lu1 3.604535 1_555
Lu1 Ti2 3.067839 1_554
Lu1 Ti0 3.067839 1_455
Lu1 Rh4 3.188057 1_554
Lu1 Rh1 3.188057 1_455
Lu1 Rh6 3.188057 1_554
Lu1 Rh3 3.188058 1_455
Lu1 Lu3 3.604534 1_555
Lu1 Lu5 3.604534 1_555
Lu1 Lu2 3.604534 1_555
Lu2 Ti1 3.067839 1_554
Lu2 Ti0 3.067839 1_545
Lu2 Rh4 3.188057 1_554
Lu2 Rh1 3.188057 1_545
Lu2 Rh2 3.188057 1_545
Lu2 Rh5 3.188058 1_554
Lu2 Lu4 3.604534 1_555
Lu2 Lu3 3.604534 1_555
Lu3 Ti2 3.067839 1_545
Lu3 Ti1 3.067839 1_455
Lu3 Rh6 3.188057 1_545
Lu3 Rh2 3.188057 1_545
Lu3 Rh5 3.188057 1_455
Lu3 Rh3 3.188057 1_455
Lu3 Lu5 3.604534 1_555
Lu3 Lu4 3.604535 1_555
Lu4 Ti1 3.067816 1_555
Lu4 Ti3 3.067834 1_545
Lu4 Rh4 3.188057 1_555
Lu4 Rh1 3.188057 1_545
Lu4 Rh6 3.188057 1_545
Lu4 Rh3 3.188058 1_555
Lu4 Lu5 3.604534 1_555
Lu5 Ti2 3.067816 1_555
Lu5 Ti3 3.067835 1_455
Lu5 Rh4 3.188057 1_555
Lu5 Rh1 3.188057 1_455
Lu5 Rh2 3.188057 1_555
Lu5 Rh5 3.188058 1_455
Al0 Rh0 2.601808 1_556
Al0 Rh1 2.762889 1_445
Al0 Rh3 2.762896 1_455
Al0 Rh2 2.762896 1_545
Al0 Al10 2.773832 1_555
Al0 Al9 2.773832 1_555
Al0 Al11 2.773841 1_555
Al0 Ti2 2.994325 1_545
Al0 Ti1 2.994325 1_455
Al0 Ti3 2.994338 1_445
Al0 Lu5 3.070349 1_545
Al0 Lu4 3.070349 1_455
Al0 Lu3 3.070357 1_555
Al1 Rh0 2.601808 1_565
Al1 Rh5 2.762889 1_454
Al1 Rh3 2.762896 1_455
Al1 Rh4 2.762896 1_554
Al1 Al8 2.773832 1_555
Al1 Al10 2.773832 1_555
Al1 Al11 2.773841 1_555
Al1 Ti0 2.994325 1_455
Al1 Ti2 2.994325 1_554
Al1 Ti3 2.994338 1_454
Al1 Lu5 3.070349 1_554
Al1 Lu0 3.070349 1_455
Al1 Lu1 3.070357 1_555
Al2 Rh0 2.601808 1_655
Al2 Rh6 2.762889 1_544
Al2 Rh2 2.762896 1_545
Al2 Rh4 2.762896 1_554
Al2 Al8 2.773832 1_555
Al2 Al9 2.773832 1_555
Al2 Ti0 2.994325 1_545
Al2 Ti1 2.994325 1_554
Al2 Ti3 2.994338 1_544
Al2 Lu4 3.070349 1_554
Al2 Lu0 3.070349 1_545
Al2 Lu2 3.070357 1_555
Al3 Rh0 2.601801 1_555
Al3 Rh1 2.762896 1_445
Al3 Rh5 2.762896 1_454
Al3 Rh6 2.762896 1_544
Al3 Al9 2.773847 1_555
Al3 Al8 2.773847 1_555
Al3 Ti2 2.994338 1_544
Al3 Ti1 2.994338 1_454
Al3 Ti0 2.994338 1_445
Al3 Lu1 3.070350 1_545
Al3 Lu3 3.070350 1_554
Al3 Lu2 3.070351 1_455
Al4 Rh4 2.545282 1_555
Al4 Rh6 2.545289 1_555
Al4 Rh5 2.545289 1_555
Al4 Ti3 2.796754 1_555
Al4 Ti1 2.796768 1_555
Al4 Ti2 2.796768 1_555
Al4 Al5 2.848668 1_555
Al4 Al7 2.848668 1_555
Al4 Al6 2.848668 1_555
Al4 Lu2 3.037091 1_556
Al4 Lu1 3.037091 1_556
Al4 Lu0 3.037096 1_556
Al5 Rh2 2.545281 1_555
Al5 Rh6 2.545289 1_555
Al5 Rh1 2.545289 1_555
Al5 Ti3 2.796754 1_555
Al5 Ti0 2.796768 1_555
Al5 Ti2 2.796769 1_555
Al5 Al7 2.848668 1_555
Al5 Al6 2.848668 1_555
Al5 Lu2 3.037091 1_565
Al5 Lu3 3.037091 1_565
Al5 Lu4 3.037096 1_565
Al6 Rh3 2.545281 1_555
Al6 Rh5 2.545289 1_555
Al6 Rh1 2.545289 1_555
Al6 Ti3 2.796754 1_555
Al6 Ti0 2.796768 1_555
Al6 Ti1 2.796768 1_555
Al6 Al7 2.848669 1_555
Al6 Lu3 3.037091 1_655
Al6 Lu1 3.037091 1_655
Al6 Lu5 3.037096 1_655
Al7 Rh2 2.545286 1_555
Al7 Rh4 2.545286 1_555
Al7 Rh3 2.545286 1_555
Al7 Ti1 2.796759 1_555
Al7 Ti2 2.796759 1_555
Al7 Ti0 2.796759 1_555
Al7 Lu0 3.037087 1_555
Al7 Lu4 3.037087 1_555
Al7 Lu5 3.037087 1_555
Al8 Rh4 2.575077 1_554
Al8 Rh6 2.575085 1_544
Al8 Rh5 2.575085 1_454
Al8 Al9 2.797210 1_555
Al8 Lu5 3.060118 1_554
Al8 Lu4 3.060118 1_554
Al8 Lu3 3.060123 1_554
Al9 Rh2 2.575077 1_545
Al9 Rh6 2.575084 1_544
Al9 Rh1 2.575085 1_445
Al9 Lu5 3.060118 1_545
Al9 Lu0 3.060118 1_545
Al9 Lu1 3.060123 1_545
Al10 Rh3 2.575077 1_455
Al10 Rh5 2.575084 1_454
Al10 Rh1 2.575085 1_445
Al10 Al3 2.773847 1_555
Al10 Al9 2.797210 1_555
Al10 Al8 2.797210 1_555
Al10 Al11 2.797210 1_555
Al10 Lu0 3.060118 1_455
Al10 Lu4 3.060118 1_455
Al10 Lu2 3.060123 1_455
Al11 Rh2 2.575082 1_545
Al11 Rh4 2.575082 1_554
Al11 Rh3 2.575082 1_455
Al11 Al2 2.773841 1_555
Al11 Al8 2.797210 1_555
Al11 Al9 2.797210 1_555
Al11 Lu3 3.060114 1_555
Al11 Lu1 3.060114 1_555
Al11 Lu2 3.060115 1_555
Rh0 Ti0 2.584465 1_445
Rh0 Ti1 2.584465 1_454
Rh0 Ti2 2.584465 1_544
Rh0 Ti3 2.584487 1_444
Rh1 Ti3 2.750586 1_555
Rh1 Ti0 2.750609 1_555
Rh2 Ti2 2.750587 1_555
Rh2 Ti0 2.750588 1_555
Rh3 Ti1 2.750587 1_555
Rh3 Ti0 2.750587 1_555
Rh4 Ti2 2.750587 1_555
Rh4 Ti1 2.750588 1_555
Rh5 Ti3 2.750586 1_555
Rh5 Ti1 2.750609 1_555
Rh6 Ti3 2.750586 1_555
Rh6 Ti2 2.750609 1_555
