# generated using pymatgen
data_Li3Cr(PO4)2
_symmetry_space_group_name_H-M   'P 1'
_cell_length_a   10.15117400
_cell_length_b   8.19655000
_cell_length_c   8.50648094
_cell_angle_alpha   71.29058695
_cell_angle_beta   90.00000000
_cell_angle_gamma   90.00000000
_symmetry_Int_Tables_number   1
_chemical_formula_structural   Li3Cr(PO4)2
_chemical_formula_sum   'Li12 Cr4 P8 O32'
_cell_volume   670.37767400
_cell_formula_units_Z   4
loop_
 _symmetry_equiv_pos_site_id
 _symmetry_equiv_pos_as_xyz
  1  'x, y, z'
loop_
 _atom_site_type_symbol
 _atom_site_label
 _atom_site_symmetry_multiplicity
 _atom_site_fract_x
 _atom_site_fract_y
 _atom_site_fract_z
 _atom_site_occupancy
  Li  Li0  1  0.33625900  0.61470200  0.65070500  1
  Li  Li1  1  0.34322400  0.82162100  0.90291600  1
  Li  Li2  1  0.64924800  0.63794400  0.07174900  1
  Li  Li3  1  0.83625900  0.38529800  0.34929500  1
  Li  Li4  1  0.84322400  0.17837900  0.09708400  1
  Li  Li5  1  0.15572200  0.60308300  0.15841100  1
  Li  Li6  1  0.14924800  0.36205600  0.92825100  1
  Li  Li7  1  0.84309200  0.65350600  0.58657300  1
  Li  Li8  1  0.34309200  0.34649400  0.41342700  1
  Li  Li9  1  0.58052300  0.45832400  0.51728600  1
  Li  Li10  1  0.08052300  0.54167600  0.48271400  1
  Li  Li11  1  0.65572200  0.39691700  0.84158900  1
  Cr  Cr0  1  0.13059100  0.11920000  0.64205900  1
  Cr  Cr1  1  0.35329200  0.12592700  0.12054900  1
  Cr  Cr2  1  0.85329200  0.87407300  0.87945100  1
  Cr  Cr3  1  0.63059100  0.88080000  0.35794100  1
  P  P0  1  0.40436200  0.21163800  0.79574300  1
  P  P1  1  0.58943400  0.28791500  0.22117000  1
  P  P2  1  0.08943400  0.71208500  0.77883000  1
  P  P3  1  0.09065000  0.21308100  0.30689500  1
  P  P4  1  0.91671200  0.28024700  0.72425200  1
  P  P5  1  0.59065000  0.78691900  0.69310500  1
  P  P6  1  0.90436200  0.78836200  0.20425700  1
  P  P7  1  0.41671200  0.71975300  0.27574800  1
  O  O0  1  0.10579400  0.04113300  0.45156800  1
  O  O1  1  0.31713900  0.19261100  0.65228600  1
  O  O2  1  0.67659600  0.79763500  0.84153800  1
  O  O3  1  0.33290400  0.69352000  0.13889700  1
  O  O4  1  0.64639500  0.34919900  0.35826400  1
  O  O5  1  0.89417900  0.42514000  0.55706500  1
  O  O6  1  0.91079900  0.96631400  0.05916900  1
  O  O7  1  0.65590300  0.11678200  0.21003100  1
  O  O8  1  0.11101800  0.58055000  0.95061000  1
  O  O9  1  0.61101800  0.41945000  0.04939000  1
  O  O10  1  0.93747000  0.74924700  0.74360800  1
  O  O11  1  0.15590300  0.88321800  0.78996900  1
  O  O12  1  0.81713900  0.80738900  0.34771400  1
  O  O13  1  0.43747000  0.25075300  0.25639200  1
  O  O14  1  0.60579400  0.95886700  0.54843200  1
  O  O15  1  0.06933500  0.27693800  0.76380800  1
  O  O16  1  0.83660400  0.67742100  0.10696500  1
  O  O17  1  0.90163000  0.09777700  0.69904000  1
  O  O18  1  0.94998300  0.25798400  0.24627100  1
  O  O19  1  0.39417900  0.57486000  0.44293500  1
  O  O20  1  0.64753700  0.64784300  0.61840700  1
  O  O21  1  0.17659600  0.20236500  0.15846200  1
  O  O22  1  0.14753700  0.35215700  0.38159300  1
  O  O23  1  0.03743500  0.71575800  0.27192000  1
  O  O24  1  0.56933500  0.72306200  0.23619200  1
  O  O25  1  0.33660400  0.32257900  0.89303500  1
  O  O26  1  0.41079900  0.03368600  0.94083100  1
  O  O27  1  0.44998300  0.74201600  0.75372900  1
  O  O28  1  0.83290400  0.30648000  0.86110300  1
  O  O29  1  0.53743500  0.28424200  0.72808000  1
  O  O30  1  0.40163000  0.90222300  0.30096000  1
  O  O31  1  0.14639500  0.65080100  0.64173600  1
loop_
_geom_bond_atom_site_label_1
_geom_bond_atom_site_label_2
_geom_bond_distance
_geom_bond_site_symmetry_2
Li0 O27 1.943299 1_555
Li0 O31 1.947700 1_555
Li0 O19 1.986527 1_555
Li0 O25 2.610740 1_555
Li1 O27 1.934407 1_555
Li1 O3 1.946997 1_556
Li1 O26 1.988861 1_565
Li1 O11 2.117220 1_555
Li2 O9 1.900688 1_555
Li2 O24 1.930708 1_555
Li2 O16 1.968193 1_555
Li2 O2 1.995195 1_554
Li3 O18 1.943299 1_555
Li3 O4 1.947700 1_555
Li3 O5 1.986527 1_555
Li3 O16 2.610740 1_555
Li4 O18 1.934407 1_555
Li4 O28 1.946997 1_554
Li4 O6 1.988861 1_545
Li4 O7 2.117220 1_555
Li5 O8 1.890527 1_554
Li5 O3 1.932118 1_555
Li5 O23 1.949138 1_555
Li5 O22 2.310045 1_555
Li6 O8 1.900688 1_555
Li6 O15 1.930708 1_555
Li6 O25 1.968193 1_555
Li6 O21 1.995195 1_556
Li7 O10 1.997646 1_555
Li7 O20 2.002022 1_555
Li7 O5 2.033974 1_555
Li7 O12 2.035828 1_555
Li8 O13 1.997646 1_555
Li8 O22 2.002022 1_555
Li8 O19 2.033974 1_555
Li8 O1 2.035828 1_555
Li9 O29 1.949650 1_555
Li9 O4 1.962965 1_555
Li9 O20 2.114940 1_555
Li9 O19 2.122034 1_555
Li10 O23 1.949650 1_555
Li10 O31 1.962965 1_555
Li10 O22 2.114940 1_555
Li10 O5 2.122034 1_455
Li11 O9 1.890527 1_556
Li11 O28 1.932118 1_555
Li11 O29 1.949138 1_555
Li11 O20 2.310045 1_555
Cr0 O0 1.940031 1_555
Cr0 O11 1.956802 1_545
Cr0 O1 1.997309 1_555
Cr0 O15 1.997467 1_555
Cr0 O17 2.369216 1_455
Cr0 O22 2.422920 1_555
Cr1 O21 1.960468 1_555
Cr1 O13 1.967427 1_555
Cr1 O26 1.997760 1_554
Cr1 O30 2.037841 1_545
Cr1 O25 2.090714 1_554
Cr2 O2 1.960468 1_555
Cr2 O10 1.967427 1_555
Cr2 O6 1.997760 1_556
Cr2 O17 2.037841 1_565
Cr2 O16 2.090714 1_556
Cr3 O14 1.940031 1_555
Cr3 O7 1.956802 1_565
Cr3 O12 1.997309 1_555
Cr3 O24 1.997467 1_555
Cr3 O30 2.369216 1_555
Cr3 O20 2.422920 1_555
O0 P3 1.552991 1_555
O1 P0 1.555488 1_555
O2 P5 1.560225 1_555
O3 P7 1.511876 1_555
O4 P1 1.523964 1_555
O5 P4 1.549769 1_555
O6 P6 1.581171 1_555
O7 P1 1.586532 1_555
O8 P2 1.528045 1_555
O9 P1 1.528045 1_555
O10 P2 1.582295 1_655
O11 P2 1.586532 1_555
O12 P6 1.555488 1_555
O13 P1 1.582295 1_555
O14 P5 1.552991 1_555
O15 P4 1.583805 1_455
O16 P6 1.570903 1_555
O17 P4 1.584963 1_555
O18 P3 1.522707 1_655
O19 P7 1.549769 1_555
O20 P5 1.581578 1_555
O21 P3 1.560225 1_555
O22 P3 1.581578 1_555
O23 P6 1.513432 1_455
O24 P7 1.583805 1_555
O25 P0 1.570903 1_555
O26 P0 1.581171 1_555
O27 P5 1.522707 1_555
O28 P4 1.511876 1_555
O29 P0 1.513432 1_555
O30 P7 1.584963 1_555
O31 P2 1.523964 1_555
