# generated using pymatgen
data_Sr2B4Ir3Os
_symmetry_space_group_name_H-M   'P 1'
_cell_length_a   7.06922116
_cell_length_b   6.12500184
_cell_length_c   5.62808004
_cell_angle_alpha   73.81534777
_cell_angle_beta   56.31445877
_cell_angle_gamma   49.92040356
_symmetry_Int_Tables_number   1
_chemical_formula_structural   Sr2B4Ir3Os
_chemical_formula_sum   'Sr2 B4 Ir3 Os1'
_cell_volume   153.97220583
_cell_formula_units_Z   1
loop_
 _symmetry_equiv_pos_site_id
 _symmetry_equiv_pos_as_xyz
  1  'x, y, z'
loop_
 _atom_site_type_symbol
 _atom_site_label
 _atom_site_symmetry_multiplicity
 _atom_site_fract_x
 _atom_site_fract_y
 _atom_site_fract_z
 _atom_site_occupancy
  Sr  Sr0  1  0.49855825  0.49855825  0.50144175  1
  Sr  Sr1  1  0.75251212  0.75251212  0.74748788  1
  B  B0  1  0.82373985  0.18361842  0.83013729  1
  B  B1  1  0.06689625  0.42748603  0.07627568  1
  B  B2  1  0.18361842  0.82373985  0.16250544  1
  B  B3  1  0.42748603  0.06689625  0.42934204  1
  Ir  Ir0  1  0.38099288  0.38099288  0.11900712  1
  Ir  Ir1  1  0.11694828  0.11694828  0.38305172  1
  Ir  Ir2  1  0.86697524  0.86697524  0.13302476  1
  Os  Os0  1  0.13227369  0.13227369  0.86772631  1
loop_
_geom_bond_atom_site_label_1
_geom_bond_atom_site_label_2
_geom_bond_distance
_geom_bond_site_symmetry_2
B0 Ir0 2.116499 1_556
B0 Ir1 2.119419 1_655
B0 Os0 2.119507 1_655
B0 Ir2 2.175395 1_546
B0 Sr0 3.073346 1_555
B0 Sr1 3.115835 1_555
B0 Sr1 3.177878 1_545
B1 Os0 2.089504 1_554
B1 Ir2 2.103621 1_455
B1 Ir1 2.168939 1_555
B1 Ir0 2.192974 1_555
B1 Sr1 3.022845 1_454
B1 Sr0 3.117929 1_455
B1 Sr0 3.153134 1_554
B2 Ir0 2.116500 1_555
B2 Ir1 2.119415 1_565
B2 Os0 2.119511 1_564
B2 Ir2 2.175398 1_455
B2 Sr0 3.073341 1_555
B2 Sr1 3.115835 1_554
B2 Sr1 3.177875 1_455
B3 Os0 2.089504 1_555
B3 Ir2 2.103621 1_545
B3 Ir1 2.168938 1_555
B3 Ir0 2.192975 1_555
B3 Sr1 3.022845 1_545
B3 Sr0 3.117929 1_545
B3 Sr0 3.153134 1_555
Ir0 Sr0 3.075858 1_555
Ir0 Sr0 3.075859 1_554
Ir0 Sr1 3.385964 1_455
Ir0 Sr1 3.385964 1_544
Ir1 Sr0 3.081740 1_455
Ir1 Sr0 3.081741 1_545
Ir1 Sr1 3.416638 1_544
Ir1 Sr1 3.416639 1_455
Ir2 Sr1 3.062776 1_554
Ir2 Sr1 3.062776 1_555
Os0 Sr1 3.089714 1_545
Os0 Sr1 3.089715 1_455
