# generated using pymatgen
data_Zr6SnPbC2
_symmetry_space_group_name_H-M   'P 1'
_cell_length_a   6.28482225
_cell_length_b   6.28482231
_cell_length_c   9.19998120
_cell_angle_alpha   90.00000000
_cell_angle_beta   90.00000000
_cell_angle_gamma   147.98685937
_symmetry_Int_Tables_number   1
_chemical_formula_structural   Zr6SnPbC2
_chemical_formula_sum   'Zr6 Sn1 Pb1 C2'
_cell_volume   192.63802166
_cell_formula_units_Z   1
loop_
 _symmetry_equiv_pos_site_id
 _symmetry_equiv_pos_as_xyz
  1  'x, y, z'
loop_
 _atom_site_type_symbol
 _atom_site_label
 _atom_site_symmetry_multiplicity
 _atom_site_fract_x
 _atom_site_fract_y
 _atom_site_fract_z
 _atom_site_occupancy
  Zr  Zr0  1  0.62102323  0.37897777  0.03959738  1
  Zr  Zr1  1  0.96214751  0.03785449  0.25000000  1
  Zr  Zr2  1  0.62102323  0.37897777  0.46040262  1
  Zr  Zr3  1  0.37797952  0.62202148  0.54410346  1
  Zr  Zr4  1  0.04064167  0.95936033  0.75000000  1
  Zr  Zr5  1  0.37797952  0.62202148  0.95589654  1
  Sn  Sn0  1  0.74672588  0.25327512  0.75000000  1
  Pb  Pb0  1  0.25356089  0.74644011  0.25000000  1
  C  C0  1  0.99946276  0.00053724  0.99976706  1
  C  C1  1  0.99946276  0.00053724  0.50023294  1
loop_
_geom_bond_atom_site_label_1
_geom_bond_atom_site_label_2
_geom_bond_distance
_geom_bond_site_symmetry_2
Sn0 Zr5 3.017690 1_655
Sn0 Zr3 3.017690 1_655
Sn0 Zr5 3.017690 1_545
Sn0 Zr3 3.017690 1_545
Sn0 Zr4 3.033707 1_545
Sn0 Zr4 3.033709 1_655
Sn0 Zr0 3.066779 1_556
Sn0 Zr2 3.066779 1_555
Pb0 Zr2 3.051995 1_455
Pb0 Zr0 3.051995 1_455
Pb0 Zr2 3.051995 1_565
Pb0 Zr0 3.051995 1_565
Pb0 Zr1 3.058561 1_455
Pb0 Zr1 3.058563 1_565
Pb0 Zr3 3.095298 1_555
Pb0 Zr5 3.095298 1_554
C0 Zr0 2.301044 1_546
C0 Zr0 2.301046 1_656
C0 Zr5 2.306669 1_545
C0 Zr5 2.306671 1_655
C0 Zr1 2.345873 1_556
C0 Zr4 2.351097 1_645
C1 Zr2 2.301044 1_545
C1 Zr2 2.301046 1_655
C1 Zr3 2.306669 1_545
C1 Zr3 2.306671 1_655
C1 Zr1 2.345873 1_555
C1 Zr4 2.351097 1_645
