# generated using pymatgen
data_Sr2Ca3(SnAs3)2
_symmetry_space_group_name_H-M   'P 1'
_cell_length_a   4.20492882
_cell_length_b   12.12807382
_cell_length_c   13.82658699
_cell_angle_alpha   90.00000000
_cell_angle_beta   90.00000000
_cell_angle_gamma   90.00000000
_symmetry_Int_Tables_number   1
_chemical_formula_structural   Sr2Ca3(SnAs3)2
_chemical_formula_sum   'Sr4 Ca6 Sn4 As12'
_cell_volume   705.12395783
_cell_formula_units_Z   2
loop_
 _symmetry_equiv_pos_site_id
 _symmetry_equiv_pos_as_xyz
  1  'x, y, z'
loop_
 _atom_site_type_symbol
 _atom_site_label
 _atom_site_symmetry_multiplicity
 _atom_site_fract_x
 _atom_site_fract_y
 _atom_site_fract_z
 _atom_site_occupancy
  Sr  Sr0  1  0.00000000  0.87067323  0.43337079  1
  Sr  Sr1  1  0.00000000  0.12932677  0.56662921  1
  Sr  Sr2  1  0.00000000  0.37067323  0.06662921  1
  Sr  Sr3  1  0.00000000  0.62932677  0.93337079  1
  Ca  Ca0  1  0.00000000  0.62284332  0.26134478  1
  Ca  Ca1  1  0.00000000  0.37715668  0.73865522  1
  Ca  Ca2  1  0.00000000  0.12284332  0.23865522  1
  Ca  Ca3  1  0.00000000  0.87715668  0.76134478  1
  Ca  Ca4  1  0.00000000  0.50000000  0.50000000  1
  Ca  Ca5  1  0.00000000  0.00000000  0.00000000  1
  Sn  Sn0  1  0.50000000  0.78814498  0.10518639  1
  Sn  Sn1  1  0.50000000  0.21185502  0.89481361  1
  Sn  Sn2  1  0.50000000  0.28814498  0.39481361  1
  Sn  Sn3  1  0.50000000  0.71185502  0.60518639  1
  As  As0  1  0.50000000  0.57466462  0.11644837  1
  As  As1  1  0.50000000  0.42533538  0.88355163  1
  As  As2  1  0.50000000  0.07466462  0.38355163  1
  As  As3  1  0.50000000  0.92533538  0.61644837  1
  As  As4  1  0.50000000  0.66223974  0.42002422  1
  As  As5  1  0.50000000  0.33776026  0.57997578  1
  As  As6  1  0.50000000  0.16223974  0.07997578  1
  As  As7  1  0.50000000  0.83776026  0.92002422  1
  As  As8  1  0.00000000  0.87330706  0.19696998  1
  As  As9  1  0.00000000  0.12669294  0.80303002  1
  As  As10  1  0.00000000  0.37330706  0.30303002  1
  As  As11  1  0.00000000  0.62669294  0.69696998  1
loop_
_geom_bond_atom_site_label_1
_geom_bond_atom_site_label_2
_geom_bond_distance
_geom_bond_site_symmetry_2
As0 Sn0 2.593784 1_555
As0 Ca0 2.962344 1_655
As0 Ca0 2.962344 1_555
As0 Sr2 3.318980 1_655
As0 Sr2 3.318980 1_555
As0 Sr3 3.356714 1_654
As0 Sr3 3.356714 1_554
As1 Sn1 2.593784 1_555
As1 Ca1 2.962344 1_655
As1 Ca1 2.962344 1_555
As1 Sr3 3.318980 1_555
As1 Sr3 3.318980 1_655
As1 Sr2 3.356714 1_556
As1 Sr2 3.356714 1_656
As2 Sn2 2.593784 1_555
As2 Ca2 2.962344 1_555
As2 Ca2 2.962344 1_655
As2 Sr0 3.318980 1_545
As2 Sr0 3.318980 1_645
As2 Sr1 3.356714 1_655
As2 Sr1 3.356714 1_555
As3 Sn3 2.593784 1_555
As3 Ca3 2.962344 1_655
As3 Ca3 2.962344 1_555
As3 Sr1 3.318980 1_665
As3 Sr1 3.318980 1_565
As3 Sr0 3.356714 1_555
As3 Sr0 3.356714 1_655
As4 Sn3 2.629926 1_555
As4 Ca0 3.076080 1_655
As4 Ca0 3.076080 1_555
As4 Ca4 3.084607 1_555
As4 Ca4 3.084607 1_655
As4 Sr0 3.293125 1_555
As4 Sr0 3.293125 1_655
As5 Sn2 2.629926 1_555
As5 Ca1 3.076080 1_555
As5 Ca1 3.076080 1_655
As5 Ca4 3.084607 1_555
As5 Ca4 3.084607 1_655
As5 Sr1 3.293125 1_555
As5 Sr1 3.293125 1_655
As6 Sn1 2.629926 1_554
As6 Ca2 3.076080 1_555
As6 Ca2 3.076080 1_655
As6 Ca5 3.084607 1_655
As6 Ca5 3.084607 1_555
As6 Sr2 3.293125 1_555
As6 Sr2 3.293125 1_655
As7 Sn0 2.629926 1_556
As7 Ca3 3.076080 1_655
As7 Ca3 3.076080 1_555
As7 Ca5 3.084607 1_566
As7 Ca5 3.084607 1_666
As7 Sr3 3.293125 1_555
As7 Sr3 3.293125 1_655
As8 Sn0 2.664139 1_455
As8 Sn0 2.664139 1_555
As8 Ca2 3.080789 1_565
As8 Ca5 3.126978 1_565
As8 Ca0 3.165363 1_555
As8 Sr0 3.268772 1_555
As9 Sn1 2.664139 1_455
As9 Sn1 2.664139 1_555
As9 Ca3 3.080789 1_545
As9 Ca5 3.126978 1_556
As9 Ca1 3.165363 1_555
As9 Sr1 3.268772 1_555
As10 Sn2 2.664139 1_555
As10 Sn2 2.664139 1_455
As10 Ca0 3.080789 1_555
As10 Ca4 3.126978 1_555
As10 Ca2 3.165363 1_555
As10 Sr2 3.268772 1_555
As11 Sn3 2.664139 1_555
As11 Sn3 2.664139 1_455
As11 Ca1 3.080789 1_555
As11 Ca4 3.126978 1_555
As11 Ca3 3.165363 1_555
As11 Sr3 3.268772 1_555
