# generated using pymatgen
data_TcPbF6
_symmetry_space_group_name_H-M   'P 1'
_cell_length_a   5.10286942
_cell_length_b   5.10286942
_cell_length_c   9.11277407
_cell_angle_alpha   90.00000000
_cell_angle_beta   90.00000000
_cell_angle_gamma   90.00000000
_symmetry_Int_Tables_number   1
_chemical_formula_structural   TcPbF6
_chemical_formula_sum   'Tc2 Pb2 F12'
_cell_volume   237.29004184
_cell_formula_units_Z   2
loop_
 _symmetry_equiv_pos_site_id
 _symmetry_equiv_pos_as_xyz
  1  'x, y, z'
loop_
 _atom_site_type_symbol
 _atom_site_label
 _atom_site_symmetry_multiplicity
 _atom_site_fract_x
 _atom_site_fract_y
 _atom_site_fract_z
 _atom_site_occupancy
  Tc  Tc0  1  0.00000000  0.00000000  0.50000000  1
  Tc  Tc1  1  0.00000000  0.00000000  0.00000000  1
  Pb  Pb0  1  0.50000000  0.50000000  0.25000000  1
  Pb  Pb1  1  0.50000000  0.50000000  0.75000000  1
  F  F0  1  0.19398173  0.80601827  0.35338632  1
  F  F1  1  0.80601827  0.19398173  0.35338632  1
  F  F2  1  0.80601827  0.80601827  0.14661368  1
  F  F3  1  0.19398173  0.19398173  0.14661368  1
  F  F4  1  0.27177175  0.72822825  0.00000000  1
  F  F5  1  0.72822825  0.72822825  0.50000000  1
  F  F6  1  0.27177175  0.27177175  0.50000000  1
  F  F7  1  0.72822825  0.27177175  0.00000000  1
  F  F8  1  0.19398173  0.19398173  0.85338632  1
  F  F9  1  0.19398173  0.80601827  0.64661368  1
  F  F10  1  0.80601827  0.19398173  0.64661368  1
  F  F11  1  0.80601827  0.80601827  0.85338632  1
loop_
_geom_bond_atom_site_label_1
_geom_bond_atom_site_label_2
_geom_bond_distance
_geom_bond_site_symmetry_2
F0 Tc0 1.935125 1_565
F0 Pb0 2.400964 1_555
F1 Tc0 1.935125 1_655
F1 Pb0 2.400964 1_555
F2 Tc1 1.935125 1_665
F2 Pb0 2.400964 1_555
F3 Tc1 1.935125 1_555
F3 Pb0 2.400964 1_555
F4 Tc1 1.961254 1_565
F5 Tc0 1.961254 1_665
F6 Tc0 1.961254 1_555
F7 Tc1 1.961254 1_655
F8 Tc1 1.935125 1_556
F8 Pb1 2.400964 1_555
F9 Tc0 1.935125 1_565
F9 Pb1 2.400964 1_555
F10 Tc0 1.935125 1_655
F10 Pb1 2.400964 1_555
F11 Tc1 1.935125 1_666
F11 Pb1 2.400964 1_555
