# generated using pymatgen
data_Zr2TaW3
_symmetry_space_group_name_H-M   'P 1'
_cell_length_a   5.39773565
_cell_length_b   5.39773667
_cell_length_c   5.47621031
_cell_angle_alpha   60.47291476
_cell_angle_beta   60.47291117
_cell_angle_gamma   60.00000587
_symmetry_Int_Tables_number   1
_chemical_formula_structural   Zr2TaW3
_chemical_formula_sum   'Zr2 Ta1 W3'
_cell_volume   113.62034680
_cell_formula_units_Z   1
loop_
 _symmetry_equiv_pos_site_id
 _symmetry_equiv_pos_as_xyz
  1  'x, y, z'
loop_
 _atom_site_type_symbol
 _atom_site_label
 _atom_site_symmetry_multiplicity
 _atom_site_fract_x
 _atom_site_fract_y
 _atom_site_fract_z
 _atom_site_occupancy
  Zr  Zr0  1  0.74920224  0.74920224  0.75239227  1
  Zr  Zr1  1  0.50079776  0.50079776  0.49760773  1
  Ta  Ta0  1  0.12500000  0.12500000  0.62500000  1
  W  W0  1  0.12500000  0.62500000  0.12500000  1
  W  W1  1  0.62500000  0.12500000  0.12500000  1
  W  W2  1  0.12500000  0.12500000  0.12500000  1
loop_
_geom_bond_atom_site_label_1
_geom_bond_atom_site_label_2
_geom_bond_distance
_geom_bond_site_symmetry_2
Zr0 Zr1 3.320858 1_555
Zr0 Zr1 3.320867 1_655
Zr0 Zr1 3.320868 1_565
Zr0 Zr1 3.355707 1_556
Ta0 W1 2.738105 1_555
Ta0 W1 2.738105 1_456
Ta0 W2 2.738105 1_555
Ta0 W2 2.738105 1_556
Ta0 W0 2.738105 1_546
Ta0 W0 2.738105 1_555
Ta0 Zr0 3.168740 1_545
Ta0 Zr1 3.168740 1_455
Ta0 Zr0 3.168741 1_455
Ta0 Zr1 3.168741 1_545
Ta0 Zr1 3.168745 1_555
Ta0 Zr0 3.168745 1_445
W0 W1 2.698868 1_465
W0 W1 2.698868 1_555
W0 W2 2.698868 1_555
W0 W2 2.698868 1_565
W0 Zr0 3.177903 1_554
W0 Zr1 3.177903 1_455
W0 Zr1 3.177907 1_555
W0 Zr0 3.177907 1_454
W0 Zr0 3.226364 1_455
W0 Zr1 3.226364 1_554
W1 W2 2.698868 1_655
W1 W2 2.698868 1_555
W1 Zr0 3.177903 1_554
W1 Zr1 3.177903 1_545
W1 Zr1 3.177908 1_555
W1 Zr0 3.177908 1_544
W1 Zr0 3.226364 1_545
W1 Zr1 3.226364 1_554
W2 Zr1 3.177905 1_455
W2 Zr0 3.177905 1_544
W2 Zr1 3.177905 1_545
W2 Zr0 3.177905 1_454
W2 Zr1 3.226366 1_554
W2 Zr0 3.226366 1_445
