# generated using pymatgen
data_CsZr2(AsO4)3
_symmetry_space_group_name_H-M   'P 1'
_cell_length_a   10.05788308
_cell_length_b   10.05788295
_cell_length_c   10.05788293
_cell_angle_alpha   52.69779889
_cell_angle_beta   52.69780000
_cell_angle_gamma   52.69779678
_symmetry_Int_Tables_number   1
_chemical_formula_structural   CsZr2(AsO4)3
_chemical_formula_sum   'Cs2 Zr4 As6 O24'
_cell_volume   596.19913138
_cell_formula_units_Z   2
loop_
 _symmetry_equiv_pos_site_id
 _symmetry_equiv_pos_as_xyz
  1  'x, y, z'
loop_
 _atom_site_type_symbol
 _atom_site_label
 _atom_site_symmetry_multiplicity
 _atom_site_fract_x
 _atom_site_fract_y
 _atom_site_fract_z
 _atom_site_occupancy
  Cs  Cs0  1  0.50000000  0.50000000  0.50000000  1
  Cs  Cs1  1  0.00000000  0.00000000  0.00000000  1
  Zr  Zr0  1  0.34869264  0.34869264  0.34869264  1
  Zr  Zr1  1  0.84869264  0.84869264  0.84869264  1
  Zr  Zr2  1  0.65130736  0.65130736  0.65130736  1
  Zr  Zr3  1  0.15130736  0.15130736  0.15130736  1
  As  As0  1  0.97361324  0.52638676  0.25000000  1
  As  As1  1  0.25000000  0.97361324  0.52638676  1
  As  As2  1  0.52638676  0.25000000  0.97361324  1
  As  As3  1  0.75000000  0.02638676  0.47361324  1
  As  As4  1  0.47361324  0.75000000  0.02638676  1
  As  As5  1  0.02638676  0.47361324  0.75000000  1
  O  O0  1  0.16153368  0.51409923  0.22573576  1
  O  O1  1  0.22573576  0.16153368  0.51409923  1
  O  O2  1  0.51409923  0.22573576  0.16153368  1
  O  O3  1  0.72573576  0.01409923  0.66153368  1
  O  O4  1  0.66153368  0.72573576  0.01409923  1
  O  O5  1  0.01409923  0.66153368  0.72573576  1
  O  O6  1  0.83846632  0.48590077  0.77426424  1
  O  O7  1  0.77426424  0.83846632  0.48590077  1
  O  O8  1  0.48590077  0.77426424  0.83846632  1
  O  O9  1  0.27426424  0.98590077  0.33846632  1
  O  O10  1  0.33846632  0.27426424  0.98590077  1
  O  O11  1  0.98590077  0.33846632  0.27426424  1
  O  O12  1  0.19716486  0.42760387  0.56461474  1
  O  O13  1  0.56461474  0.19716486  0.42760387  1
  O  O14  1  0.42760387  0.56461474  0.19716486  1
  O  O15  1  0.06461474  0.92760387  0.69716486  1
  O  O16  1  0.69716486  0.06461474  0.92760387  1
  O  O17  1  0.92760387  0.69716486  0.06461474  1
  O  O18  1  0.80283514  0.57239613  0.43538526  1
  O  O19  1  0.43538526  0.80283514  0.57239613  1
  O  O20  1  0.57239613  0.43538526  0.80283514  1
  O  O21  1  0.93538526  0.07239613  0.30283514  1
  O  O22  1  0.30283514  0.93538526  0.07239613  1
  O  O23  1  0.07239613  0.30283514  0.93538526  1
loop_
_geom_bond_atom_site_label_1
_geom_bond_atom_site_label_2
_geom_bond_distance
_geom_bond_site_symmetry_2
Cs0 O19 3.153620 1_555
Cs0 O13 3.153620 1_555
Cs0 O20 3.153620 1_555
Cs0 O14 3.153620 1_555
Cs0 O18 3.153620 1_555
Cs0 O12 3.153620 1_555
Cs0 O9 3.616230 1_555
Cs0 O3 3.616230 1_555
Cs0 O11 3.616230 1_555
Cs0 O5 3.616230 1_555
Cs0 O10 3.616230 1_555
Cs0 O4 3.616230 1_555
Cs1 O21 3.153620 1_455
Cs1 O15 3.153620 1_544
Cs1 O22 3.153620 1_545
Cs1 O16 3.153620 1_454
Cs1 O23 3.153620 1_554
Cs1 O17 3.153620 1_445
Cs1 O6 3.616230 1_454
Cs1 O0 3.616230 1_545
Cs1 O8 3.616230 1_544
Cs1 O2 3.616230 1_455
Cs1 O1 3.616230 1_554
Cs1 O7 3.616230 1_445
As0 O11 1.685706 1_555
As0 O0 1.685706 1_655
As0 O17 1.685753 1_555
As0 O18 1.685753 1_555
As1 O1 1.685706 1_565
As1 O9 1.685706 1_555
As1 O19 1.685753 1_555
As1 O15 1.685753 1_555
As2 O2 1.685706 1_556
As2 O10 1.685706 1_555
As2 O16 1.685753 1_555
As2 O20 1.685753 1_555
As3 O7 1.685706 1_545
As3 O3 1.685706 1_555
As3 O13 1.685753 1_555
As3 O21 1.685753 1_555
As4 O8 1.685706 1_554
As4 O4 1.685706 1_555
As4 O22 1.685753 1_555
As4 O14 1.685753 1_555
As5 O5 1.685706 1_555
As5 O6 1.685706 1_455
As5 O23 1.685753 1_555
As5 O12 1.685753 1_555
O0 Zr0 2.091132 1_555
O1 Zr0 2.091132 1_555
O2 Zr0 2.091132 1_555
O3 Zr1 2.091132 1_545
O4 Zr1 2.091132 1_554
O5 Zr1 2.091132 1_455
O6 Zr2 2.091132 1_555
O7 Zr2 2.091132 1_555
O8 Zr2 2.091132 1_555
O9 Zr3 2.091132 1_565
O10 Zr3 2.091132 1_556
O11 Zr3 2.091132 1_655
O12 Zr0 2.068924 1_555
O13 Zr0 2.068924 1_555
O14 Zr0 2.068924 1_555
O15 Zr1 2.068924 1_455
O16 Zr1 2.068924 1_545
O17 Zr1 2.068924 1_554
O18 Zr2 2.068924 1_555
O19 Zr2 2.068924 1_555
O20 Zr2 2.068924 1_555
O21 Zr3 2.068924 1_655
O22 Zr3 2.068924 1_565
O23 Zr3 2.068924 1_556
