# generated using pymatgen
data_Cs2TiZn3Sb4
_symmetry_space_group_name_H-M   'P 1'
_cell_length_a   8.74107836
_cell_length_b   8.74107876
_cell_length_c   6.21021045
_cell_angle_alpha   90.00000000
_cell_angle_beta   90.00000000
_cell_angle_gamma   138.32736826
_symmetry_Int_Tables_number   1
_chemical_formula_structural   Cs2TiZn3Sb4
_chemical_formula_sum   'Cs2 Ti1 Zn3 Sb4'
_cell_volume   315.48264715
_cell_formula_units_Z   1
loop_
 _symmetry_equiv_pos_site_id
 _symmetry_equiv_pos_as_xyz
  1  'x, y, z'
loop_
 _atom_site_type_symbol
 _atom_site_label
 _atom_site_symmetry_multiplicity
 _atom_site_fract_x
 _atom_site_fract_y
 _atom_site_fract_z
 _atom_site_occupancy
  Cs  Cs0  1  0.50000000  0.00000000  0.25607438  1
  Cs  Cs1  1  0.00000000  0.50000000  0.74392562  1
  Ti  Ti0  1  0.00000000  0.00000000  0.00000000  1
  Zn  Zn0  1  0.50000000  0.50000000  0.50000000  1
  Zn  Zn1  1  0.50000000  0.50000000  0.00000000  1
  Zn  Zn2  1  0.00000000  0.00000000  0.50000000  1
  Sb  Sb0  1  0.65550458  0.85320101  0.75490994  1
  Sb  Sb1  1  0.14679899  0.34449542  0.24509006  1
  Sb  Sb2  1  0.85320101  0.65550458  0.24509006  1
  Sb  Sb3  1  0.34449542  0.14679899  0.75490994  1
loop_
_geom_bond_atom_site_label_1
_geom_bond_atom_site_label_2
_geom_bond_distance
_geom_bond_site_symmetry_2
Cs0 Sb1 3.950103 1_655
Cs0 Sb2 3.950103 1_445
Cs0 Sb0 3.961905 1_545
Cs0 Sb3 3.961905 1_555
Cs0 Sb0 3.973224 1_544
Cs0 Sb3 3.973224 1_554
Cs0 Sb1 3.992486 1_545
Cs0 Sb2 3.992486 1_555
Cs1 Sb3 3.950103 1_565
Cs1 Sb0 3.950103 1_445
Cs1 Sb1 3.961905 1_555
Cs1 Sb2 3.961905 1_455
Cs1 Sb1 3.973224 1_556
Cs1 Sb2 3.973224 1_456
Cs1 Sb0 3.992486 1_555
Cs1 Sb3 3.992486 1_455
Sb0 Ti0 2.694151 1_666
Sb0 Zn1 2.725210 1_556
Sb0 Zn2 2.729068 1_665
Sb0 Zn0 2.759733 1_555
Sb1 Ti0 2.694152 1_555
Sb1 Zn1 2.725210 1_555
Sb1 Zn2 2.729068 1_555
Sb1 Zn0 2.759733 1_555
Sb2 Ti0 2.694152 1_665
Sb2 Zn1 2.725210 1_555
Sb2 Zn2 2.729068 1_665
Sb2 Zn0 2.759733 1_555
Sb3 Ti0 2.694151 1_556
Sb3 Zn1 2.725210 1_556
Sb3 Zn2 2.729068 1_555
Sb3 Zn0 2.759733 1_555
