# generated using pymatgen
data_KAs12PdRu3
_symmetry_space_group_name_H-M   'P 1'
_cell_length_a   7.43252014
_cell_length_b   7.43251978
_cell_length_c   7.43252061
_cell_angle_alpha   109.51000994
_cell_angle_beta   109.51000057
_cell_angle_gamma   109.51000934
_symmetry_Int_Tables_number   1
_chemical_formula_structural   KAs12PdRu3
_chemical_formula_sum   'K1 As12 Pd1 Ru3'
_cell_volume   315.61757324
_cell_formula_units_Z   1
loop_
 _symmetry_equiv_pos_site_id
 _symmetry_equiv_pos_as_xyz
  1  'x, y, z'
loop_
 _atom_site_type_symbol
 _atom_site_label
 _atom_site_symmetry_multiplicity
 _atom_site_fract_x
 _atom_site_fract_y
 _atom_site_fract_z
 _atom_site_occupancy
  K  K0  1  0.00000000  0.00000000  0.00000000  1
  As  As0  1  0.85937035  0.65049698  0.49832044  1
  As  As1  1  0.14062965  0.34950302  0.50167956  1
  As  As2  1  0.14932096  0.65025090  0.79988270  1
  As  As3  1  0.85067904  0.34974910  0.20011730  1
  As  As4  1  0.65049698  0.49832044  0.85937035  1
  As  As5  1  0.34950302  0.50167956  0.14062965  1
  As  As6  1  0.65025090  0.79988270  0.14932096  1
  As  As7  1  0.34974910  0.20011730  0.85067904  1
  As  As8  1  0.49832044  0.85937035  0.65049698  1
  As  As9  1  0.50167956  0.14062965  0.34950302  1
  As  As10  1  0.20011730  0.85067904  0.34974910  1
  As  As11  1  0.79988270  0.14932096  0.65025090  1
  Pd  Pd0  1  0.50000000  0.50000000  0.50000000  1
  Ru  Ru0  1  0.50000000  0.00000000  0.00000000  1
  Ru  Ru1  1  0.00000000  0.50000000  0.00000000  1
  Ru  Ru2  1  0.00000000  0.00000000  0.50000000  1
loop_
_geom_bond_atom_site_label_1
_geom_bond_atom_site_label_2
_geom_bond_distance
_geom_bond_site_symmetry_2
As0 Ru2 2.448813 1_665
As0 As3 2.532179 1_555
As0 Pd0 2.534109 1_555
As0 As2 2.539103 1_655
As0 K0 3.295060 1_666
As1 Ru2 2.448813 1_555
As1 As2 2.532179 1_555
As1 Pd0 2.534109 1_555
As1 As3 2.539103 1_455
As1 K0 3.295060 1_555
As2 Ru0 2.462847 1_566
As2 Ru1 2.464821 1_556
As2 K0 3.263213 1_566
As3 Ru0 2.462847 1_555
As3 Ru1 2.464821 1_655
As3 K0 3.263213 1_655
As4 Ru1 2.448813 1_656
As4 As7 2.532179 1_555
As4 Pd0 2.534109 1_555
As4 As6 2.539103 1_556
As4 K0 3.295059 1_666
As5 Ru1 2.448813 1_555
As5 As6 2.532179 1_555
As5 Pd0 2.534109 1_555
As5 As7 2.539103 1_554
As5 K0 3.295059 1_555
As6 Ru2 2.462847 1_665
As6 Ru0 2.464821 1_565
As6 K0 3.263213 1_665
As7 Ru2 2.462847 1_555
As7 Ru0 2.464821 1_556
As7 K0 3.263213 1_556
As8 Ru0 2.448813 1_566
As8 Pd0 2.534109 1_555
As8 K0 3.295060 1_666
As9 Ru0 2.448813 1_555
As9 Pd0 2.534109 1_555
As9 K0 3.295060 1_555
As10 Ru1 2.462847 1_555
As10 Ru2 2.464821 1_565
As10 As8 2.532179 1_555
As10 As9 2.539103 1_565
As10 K0 3.263213 1_565
As11 Ru1 2.462847 1_656
As11 Ru2 2.464821 1_655
As11 As9 2.532179 1_555
As11 As8 2.539103 1_545
As11 K0 3.263213 1_656
