# generated using pymatgen
data_Rb4HfSnBr12
_symmetry_space_group_name_H-M   'P 1'
_cell_length_a   7.52758561
_cell_length_b   7.52758561
_cell_length_c   10.94028355
_cell_angle_alpha   90.00000000
_cell_angle_beta   90.00000000
_cell_angle_gamma   90.00000000
_symmetry_Int_Tables_number   1
_chemical_formula_structural   Rb4HfSnBr12
_chemical_formula_sum   'Rb4 Hf1 Sn1 Br12'
_cell_volume   619.92619062
_cell_formula_units_Z   1
loop_
 _symmetry_equiv_pos_site_id
 _symmetry_equiv_pos_as_xyz
  1  'x, y, z'
loop_
 _atom_site_type_symbol
 _atom_site_label
 _atom_site_symmetry_multiplicity
 _atom_site_fract_x
 _atom_site_fract_y
 _atom_site_fract_z
 _atom_site_occupancy
  Rb  Rb0  1  0.00000000  0.50000000  0.25159812  1
  Rb  Rb1  1  0.50000000  0.00000000  0.25159812  1
  Rb  Rb2  1  0.00000000  0.50000000  0.74840188  1
  Rb  Rb3  1  0.50000000  0.00000000  0.74840188  1
  Hf  Hf0  1  0.00000000  0.00000000  0.00000000  1
  Sn  Sn0  1  0.50000000  0.50000000  0.50000000  1
  Br  Br0  1  0.00000000  0.00000000  0.23914096  1
  Br  Br1  1  0.50000000  0.50000000  0.25979178  1
  Br  Br2  1  0.00000000  0.00000000  0.76085804  1
  Br  Br3  1  0.50000000  0.50000000  0.74020822  1
  Br  Br4  1  0.20921322  0.27600443  0.00000000  1
  Br  Br5  1  0.72399557  0.20921322  0.00000000  1
  Br  Br6  1  0.27600443  0.79078678  0.00000000  1
  Br  Br7  1  0.72114292  0.23085214  0.50000000  1
  Br  Br8  1  0.27885708  0.76914786  0.50000000  1
  Br  Br9  1  0.79078678  0.72399557  0.00000000  1
  Br  Br10  1  0.76914786  0.72114292  0.50000000  1
  Br  Br11  1  0.23085214  0.27885708  0.50000000  1
loop_
_geom_bond_atom_site_label_1
_geom_bond_atom_site_label_2
_geom_bond_distance
_geom_bond_site_symmetry_2
Br0 Hf0 2.616270 1_555
Br0 Rb1 3.766259 1_555
Br0 Rb0 3.766259 1_545
Br0 Rb0 3.766259 1_555
Br0 Rb1 3.766259 1_455
Br1 Sn0 2.627946 1_555
Br1 Rb0 3.764860 1_655
Br1 Rb1 3.764860 1_565
Br1 Rb0 3.764860 1_555
Br1 Rb1 3.764860 1_555
Br2 Hf0 2.616281 1_556
Br2 Rb3 3.766259 1_455
Br2 Rb2 3.766259 1_545
Br2 Rb2 3.766259 1_555
Br2 Rb3 3.766259 1_555
Br3 Sn0 2.627946 1_555
Br3 Rb3 3.764860 1_555
Br3 Rb2 3.764860 1_555
Br3 Rb2 3.764860 1_655
Br3 Rb3 3.764860 1_565
Br4 Hf0 2.607074 1_555
Br4 Rb0 3.591638 1_555
Br4 Rb2 3.591638 1_554
Br4 Rb1 4.084673 1_555
Br4 Rb3 4.084673 1_554
Br5 Hf0 2.607074 1_655
Br5 Rb1 3.591638 1_555
Br5 Rb3 3.591638 1_554
Br5 Rb0 4.084673 1_655
Br5 Rb2 4.084673 1_654
Br6 Hf0 2.607074 1_565
Br6 Rb1 3.591638 1_565
Br6 Rb3 3.591638 1_564
Br6 Rb0 4.084673 1_555
Br6 Rb2 4.084673 1_554
Br7 Sn0 2.622202 1_555
Br7 Rb3 3.629906 1_555
Br7 Rb1 3.629906 1_555
Br7 Rb2 3.987029 1_655
Br7 Rb0 3.987029 1_655
Br8 Sn0 2.622202 1_555
Br8 Rb3 3.629906 1_565
Br8 Rb1 3.629906 1_565
Br8 Rb2 3.987029 1_555
Br8 Rb0 3.987029 1_555
Br9 Hf0 2.607074 1_665
Br9 Rb0 3.591638 1_655
Br9 Rb2 3.591638 1_654
Br9 Rb1 4.084673 1_565
Br9 Rb3 4.084673 1_564
Br10 Sn0 2.622202 1_555
Br10 Rb2 3.629906 1_655
Br10 Rb0 3.629906 1_655
Br10 Rb3 3.987029 1_565
Br10 Rb1 3.987029 1_565
Br11 Sn0 2.622202 1_555
Br11 Rb2 3.629906 1_555
Br11 Rb0 3.629906 1_555
Br11 Rb3 3.987029 1_555
Br11 Rb1 3.987029 1_555
