# generated using pymatgen
data_Na3TaS3O
_symmetry_space_group_name_H-M   'P 1'
_cell_length_a   6.00501266
_cell_length_b   9.78808386
_cell_length_c   12.07542853
_cell_angle_alpha   90.00000000
_cell_angle_beta   90.00000000
_cell_angle_gamma   90.00000000
_symmetry_Int_Tables_number   1
_chemical_formula_structural   Na3TaS3O
_chemical_formula_sum   'Na12 Ta4 S12 O4'
_cell_volume   709.76431555
_cell_formula_units_Z   4
loop_
 _symmetry_equiv_pos_site_id
 _symmetry_equiv_pos_as_xyz
  1  'x, y, z'
loop_
 _atom_site_type_symbol
 _atom_site_label
 _atom_site_symmetry_multiplicity
 _atom_site_fract_x
 _atom_site_fract_y
 _atom_site_fract_z
 _atom_site_occupancy
  Na  Na0  1  0.26348859  0.45520711  0.13136932  1
  Na  Na1  1  0.22892841  0.75000000  0.36948974  1
  Na  Na2  1  0.23651141  0.95520711  0.63136932  1
  Na  Na3  1  0.76348859  0.04479289  0.36863068  1
  Na  Na4  1  0.27107159  0.25000000  0.86948974  1
  Na  Na5  1  0.26348859  0.04479289  0.13136932  1
  Na  Na6  1  0.23651141  0.54479289  0.63136932  1
  Na  Na7  1  0.72892841  0.75000000  0.13051026  1
  Na  Na8  1  0.76348859  0.45520711  0.36863068  1
  Na  Na9  1  0.73651141  0.95520711  0.86863068  1
  Na  Na10  1  0.77107159  0.25000000  0.63051026  1
  Na  Na11  1  0.73651141  0.54479289  0.86863068  1
  Ta  Ta0  1  0.34642198  0.25000000  0.45125269  1
  Ta  Ta1  1  0.15357802  0.75000000  0.95125269  1
  Ta  Ta2  1  0.65357802  0.75000000  0.54874731  1
  Ta  Ta3  1  0.84642198  0.25000000  0.04874731  1
  S  S0  1  0.24930071  0.75000000  0.13540698  1
  S  S1  1  0.23460849  0.04990172  0.36956392  1
  S  S2  1  0.25069929  0.25000000  0.63540798  1
  S  S3  1  0.23460849  0.45009828  0.36956392  1
  S  S4  1  0.75069929  0.25000000  0.86459202  1
  S  S5  1  0.73460849  0.45009828  0.13043608  1
  S  S6  1  0.76539151  0.54990172  0.63043608  1
  S  S7  1  0.73460849  0.04990172  0.13043608  1
  S  S8  1  0.76539151  0.95009828  0.63043608  1
  S  S9  1  0.26539151  0.95009828  0.86956392  1
  S  S10  1  0.26539151  0.54990172  0.86956392  1
  S  S11  1  0.74930071  0.75000000  0.36459302  1
  O  O0  1  0.64686530  0.25000000  0.44662195  1
  O  O1  1  0.35313470  0.75000000  0.55337805  1
  O  O2  1  0.85313470  0.75000000  0.94662195  1
  O  O3  1  0.14686530  0.25000000  0.05337805  1
loop_
_geom_bond_atom_site_label_1
_geom_bond_atom_site_label_2
_geom_bond_distance
_geom_bond_site_symmetry_2
Na0 O3 2.326330 1_555
Na0 S5 2.829545 1_555
Na0 S3 2.881959 1_555
Na0 S0 2.887127 1_555
Na0 S5 3.176345 1_455
Na0 S10 3.294505 1_554
Na1 O1 2.342448 1_555
Na1 S0 2.829296 1_555
Na1 S11 2.880777 1_455
Na1 S1 2.935661 1_565
Na1 S3 2.935661 1_555
Na1 S11 3.125402 1_555
Na2 O1 2.326330 1_555
Na2 S8 2.829545 1_455
Na2 S9 2.881959 1_555
Na2 S2 2.887127 1_565
Na2 S8 3.176345 1_555
Na2 S1 3.294505 1_565
Na3 O0 2.326330 1_555
Na3 S1 2.829545 1_655
Na3 S7 2.881959 1_555
Na3 S11 2.887127 1_545
Na3 S1 3.176345 1_555
Na3 S8 3.294505 1_545
Na4 O3 2.342448 1_556
Na4 S2 2.829284 1_555
Na4 S4 2.880778 1_555
Na4 S10 2.935661 1_555
Na4 S9 2.935661 1_545
Na4 S4 3.125402 1_455
Na5 O3 2.326330 1_555
Na5 S7 2.829545 1_555
Na5 S1 2.881959 1_555
Na5 S0 2.887127 1_545
Na5 S7 3.176345 1_455
Na5 S9 3.294505 1_544
Na6 O1 2.326330 1_555
Na6 S6 2.829545 1_455
Na6 S10 2.881959 1_555
Na6 S2 2.887127 1_555
Na6 S6 3.176345 1_555
Na6 S3 3.294505 1_555
Na7 O2 2.342448 1_554
Na7 S11 2.829296 1_555
Na7 S0 2.880777 1_555
Na7 S7 2.935661 1_565
Na7 S5 2.935661 1_555
Na7 S0 3.125402 1_655
Na8 O0 2.326330 1_555
Na8 S3 2.829545 1_655
Na8 S5 2.881959 1_555
Na8 S11 2.887127 1_555
Na8 S3 3.176345 1_555
Na8 S6 3.294505 1_555
Na9 O2 2.326330 1_555
Na9 S9 2.829545 1_555
Na9 S8 2.881959 1_555
Na9 S4 2.887127 1_565
Na9 S9 3.176345 1_655
Na9 S7 3.294505 1_566
Na10 O0 2.342448 1_555
Na10 S4 2.829284 1_555
Na10 S2 2.880778 1_655
Na10 S6 2.935661 1_555
Na10 S8 2.935661 1_545
Na10 S2 3.125402 1_555
Na11 O2 2.326330 1_555
Na11 S10 2.829545 1_555
Na11 S6 2.881959 1_555
Na11 S4 2.887127 1_555
Na11 S10 3.176345 1_655
Na11 S5 3.294505 1_556
S0 Ta1 2.296833 1_554
S1 Ta0 2.293448 1_555
S2 Ta0 2.296845 1_555
S3 Ta0 2.293448 1_555
S4 Ta3 2.296845 1_556
S5 Ta3 2.293448 1_555
S6 Ta2 2.293448 1_555
S7 Ta3 2.293448 1_555
S8 Ta2 2.293448 1_555
S9 Ta1 2.293448 1_555
S10 Ta1 2.293448 1_555
S11 Ta2 2.296833 1_555
O0 Ta0 1.805032 1_555
O1 Ta2 1.805032 1_555
O2 Ta1 1.805032 1_655
O3 Ta3 1.805032 1_455
