# generated using pymatgen
data_Ga2IrRhS6
_symmetry_space_group_name_H-M   'P 1'
_cell_length_a   3.63048679
_cell_length_b   9.72966516
_cell_length_c   11.93389164
_cell_angle_alpha   89.30184639
_cell_angle_beta   90.00000000
_cell_angle_gamma   90.00000000
_symmetry_Int_Tables_number   1
_chemical_formula_structural   Ga2IrRhS6
_chemical_formula_sum   'Ga4 Ir2 Rh2 S12'
_cell_volume   421.51458208
_cell_formula_units_Z   2
loop_
 _symmetry_equiv_pos_site_id
 _symmetry_equiv_pos_as_xyz
  1  'x, y, z'
loop_
 _atom_site_type_symbol
 _atom_site_label
 _atom_site_symmetry_multiplicity
 _atom_site_fract_x
 _atom_site_fract_y
 _atom_site_fract_z
 _atom_site_occupancy
  Ga  Ga0  1  0.75000000  0.25404493  0.79488123  1
  Ga  Ga1  1  0.25000000  0.74595507  0.20511877  1
  Ga  Ga2  1  0.75000000  0.75183063  0.70421008  1
  Ga  Ga3  1  0.25000000  0.24816937  0.29578992  1
  Ir  Ir0  1  0.25000000  0.90458013  0.89350657  1
  Ir  Ir1  1  0.75000000  0.09541987  0.10649343  1
  Rh  Rh0  1  0.25000000  0.40429087  0.60667431  1
  Rh  Rh1  1  0.75000000  0.59570913  0.39332569  1
  S  S0  1  0.25000000  0.93891645  0.09093641  1
  S  S1  1  0.75000000  0.06108355  0.90906359  1
  S  S2  1  0.25000000  0.43783953  0.40867153  1
  S  S3  1  0.75000000  0.56216047  0.59132847  1
  S  S4  1  0.75000000  0.10487466  0.30810650  1
  S  S5  1  0.25000000  0.89512534  0.69189350  1
  S  S6  1  0.75000000  0.60459556  0.19060971  1
  S  S7  1  0.25000000  0.39540444  0.80939029  1
  S  S8  1  0.25000000  0.25869765  0.10437364  1
  S  S9  1  0.75000000  0.74130235  0.89562636  1
  S  S10  1  0.25000000  0.75911602  0.39495540  1
  S  S11  1  0.75000000  0.24088398  0.60504460  1
loop_
_geom_bond_atom_site_label_1
_geom_bond_atom_site_label_2
_geom_bond_distance
_geom_bond_site_symmetry_2
Ga0 S11 2.270663 1_555
Ga0 S7 2.285293 1_555
Ga0 S7 2.285293 1_655
Ga0 S1 2.306352 1_555
Ga1 S10 2.270663 1_555
Ga1 S6 2.285293 1_455
Ga1 S6 2.285293 1_555
Ga1 S0 2.306352 1_555
Ga2 S9 2.285390 1_555
Ga2 S5 2.292496 1_555
Ga2 S5 2.292496 1_655
Ga2 S3 2.298023 1_555
Ga3 S8 2.285390 1_555
Ga3 S4 2.292496 1_555
Ga3 S4 2.292496 1_455
Ga3 S2 2.298023 1_555
Ir0 S1 2.378058 1_565
Ir0 S1 2.378058 1_465
Ir0 S0 2.383701 1_556
Ir0 S5 2.408906 1_555
Ir0 S9 2.412165 1_555
Ir0 S9 2.412165 1_455
Ir1 S0 2.378058 1_545
Ir1 S0 2.378058 1_645
Ir1 S1 2.383701 1_554
Ir1 S4 2.408906 1_555
Ir1 S8 2.412165 1_555
Ir1 S8 2.412165 1_655
Rh0 S2 2.381440 1_555
Rh0 S3 2.383515 1_455
Rh0 S3 2.383515 1_555
Rh0 S11 2.413297 1_555
Rh0 S11 2.413297 1_455
Rh0 S7 2.419682 1_555
Rh1 S3 2.381440 1_555
Rh1 S2 2.383515 1_555
Rh1 S2 2.383515 1_655
Rh1 S10 2.413297 1_555
Rh1 S10 2.413297 1_655
Rh1 S6 2.419682 1_555
