# generated using pymatgen
data_OsPbF7
_symmetry_space_group_name_H-M   'P 1'
_cell_length_a   4.68996939
_cell_length_b   7.35956989
_cell_length_c   7.65189554
_cell_angle_alpha   106.30994958
_cell_angle_beta   101.18983147
_cell_angle_gamma   90.50051293
_symmetry_Int_Tables_number   1
_chemical_formula_structural   OsPbF7
_chemical_formula_sum   'Os2 Pb2 F14'
_cell_volume   248.10484411
_cell_formula_units_Z   2
loop_
 _symmetry_equiv_pos_site_id
 _symmetry_equiv_pos_as_xyz
  1  'x, y, z'
loop_
 _atom_site_type_symbol
 _atom_site_label
 _atom_site_symmetry_multiplicity
 _atom_site_fract_x
 _atom_site_fract_y
 _atom_site_fract_z
 _atom_site_occupancy
  Os  Os0  1  0.34503150  0.18591999  0.28288277  1
  Os  Os1  1  0.65496850  0.81408001  0.71711723  1
  Pb  Pb0  1  0.81754978  0.64839834  0.19993989  1
  Pb  Pb1  1  0.18245022  0.35160166  0.80006011  1
  F  F0  1  0.71937311  0.43418724  0.90923545  1
  F  F1  1  0.28062689  0.56581276  0.09076455  1
  F  F2  1  0.04110161  0.05518787  0.33866647  1
  F  F3  1  0.95889839  0.94481213  0.66133353  1
  F  F4  1  0.48173632  0.94833811  0.17123767  1
  F  F5  1  0.51826368  0.05166189  0.82876233  1
  F  F6  1  0.56801561  0.19748044  0.52130480  1
  F  F7  1  0.43198439  0.80251956  0.47869520  1
  F  F8  1  0.65139984  0.31815285  0.22769017  1
  F  F9  1  0.34860016  0.68184715  0.77230983  1
  F  F10  1  0.20268049  0.42229935  0.39617970  1
  F  F11  1  0.79731951  0.57770065  0.60382030  1
  F  F12  1  0.11615510  0.18586174  0.04694264  1
  F  F13  1  0.88384490  0.81413826  0.95305736  1
loop_
_geom_bond_atom_site_label_1
_geom_bond_atom_site_label_2
_geom_bond_distance
_geom_bond_site_symmetry_2
F0 Pb0 2.294694 1_556
F0 Pb1 2.495226 1_655
F0 Pb1 2.505992 1_555
F1 Pb1 2.294694 1_554
F1 Pb0 2.495226 1_455
F1 Pb0 2.505992 1_555
F2 Os0 1.892772 1_555
F3 Os1 1.892772 1_555
F4 Os0 1.895079 1_565
F4 Pb0 2.756854 1_555
F5 Os1 1.895079 1_545
F5 Pb1 2.756854 1_555
F6 Os0 1.897377 1_555
F7 Os1 1.897377 1_555
F8 Os0 1.905763 1_555
F8 Pb0 2.623064 1_555
F9 Os1 1.905763 1_555
F9 Pb1 2.623064 1_555
F10 Os0 1.903030 1_555
F11 Os1 1.903030 1_555
F12 Os0 1.912869 1_555
F12 Pb1 2.582419 1_554
F13 Os1 1.912869 1_555
F13 Pb0 2.582419 1_556
