# generated using pymatgen
data_YCd(CuPd)2
_symmetry_space_group_name_H-M   'P 1'
_cell_length_a   5.01741381
_cell_length_b   5.18646996
_cell_length_c   5.18646971
_cell_angle_alpha   63.62767648
_cell_angle_beta   61.07251595
_cell_angle_gamma   61.07252410
_symmetry_Int_Tables_number   1
_chemical_formula_structural   YCd(CuPd)2
_chemical_formula_sum   'Y1 Cd1 Cu2 Pd2'
_cell_volume   99.41827036
_cell_formula_units_Z   1
loop_
 _symmetry_equiv_pos_site_id
 _symmetry_equiv_pos_as_xyz
  1  'x, y, z'
loop_
 _atom_site_type_symbol
 _atom_site_label
 _atom_site_symmetry_multiplicity
 _atom_site_fract_x
 _atom_site_fract_y
 _atom_site_fract_z
 _atom_site_occupancy
  Y  Y0  1  0.74874558  0.75125442  0.75125442  1
  Cd  Cd0  1  0.99093856  0.00906144  0.00906144  1
  Cu  Cu0  1  0.37915631  0.37131684  0.37131684  1
  Cu  Cu1  1  0.87821000  0.37131684  0.37131684  1
  Pd  Pd0  1  0.37647477  0.37284998  0.87419847  1
  Pd  Pd1  1  0.37647477  0.87419847  0.37284998  1
loop_
_geom_bond_atom_site_label_1
_geom_bond_atom_site_label_2
_geom_bond_distance
_geom_bond_site_symmetry_2
Cd0 Cu0 2.908587 1_555
Cd0 Cu1 2.908587 1_555
Cd0 Pd0 2.973295 1_654
Cd0 Pd1 2.973295 1_645
Cd0 Pd1 2.973303 1_545
Cd0 Pd0 2.973303 1_554
Cd0 Pd1 3.112195 1_644
Cd0 Pd0 3.112195 1_644
Cd0 Y0 3.128013 1_644
Cd0 Y0 3.128013 1_544
Cd0 Cu0 3.170367 1_654
Cd0 Cu1 3.170367 1_554
Cd0 Cu1 3.170367 1_545
Cd0 Cu0 3.170367 1_645
Cd0 Y0 3.249022 1_545
Cd0 Y0 3.249022 1_554
Cu0 Cu1 2.503959 1_555
Cu0 Cu1 2.513455 1_455
Cu0 Pd0 2.581291 1_554
Cu0 Pd1 2.581291 1_545
Cu0 Pd0 2.605230 1_555
Cu0 Pd1 2.605230 1_555
Cu0 Y0 3.026725 1_455
Cu0 Y0 3.130477 1_554
Cu0 Y0 3.130477 1_545
Cu1 Pd0 2.581286 1_654
Cu1 Pd1 2.581286 1_645
Cu1 Pd0 2.605235 1_555
Cu1 Pd1 2.605235 1_555
Cu1 Y0 3.026725 1_555
Cu1 Y0 3.130477 1_545
Cu1 Y0 3.130477 1_554
Pd0 Pd1 2.726731 1_546
Pd0 Pd1 2.741479 1_555
Pd0 Y0 3.004898 1_455
Pd0 Y0 3.004906 1_555
Pd0 Y0 3.022835 1_545
Pd1 Y0 3.004897 1_455
Pd1 Y0 3.004906 1_555
Pd1 Y0 3.022835 1_554
