# generated using pymatgen
data_Ba4FeRhO8
_symmetry_space_group_name_H-M   'P 1'
_cell_length_a   7.16872391
_cell_length_b   7.16872405
_cell_length_c   5.72643649
_cell_angle_alpha   90.00000000
_cell_angle_beta   90.00000000
_cell_angle_gamma   132.76520524
_symmetry_Int_Tables_number   1
_chemical_formula_structural   Ba4FeRhO8
_chemical_formula_sum   'Ba4 Fe1 Rh1 O8'
_cell_volume   216.04709908
_cell_formula_units_Z   1
loop_
 _symmetry_equiv_pos_site_id
 _symmetry_equiv_pos_as_xyz
  1  'x, y, z'
loop_
 _atom_site_type_symbol
 _atom_site_label
 _atom_site_symmetry_multiplicity
 _atom_site_fract_x
 _atom_site_fract_y
 _atom_site_fract_z
 _atom_site_occupancy
  Ba  Ba0  1  0.64163743  0.35836257  0.00000000  1
  Ba  Ba1  1  0.14127469  0.85872531  0.50000000  1
  Ba  Ba2  1  0.85872531  0.14127469  0.50000000  1
  Ba  Ba3  1  0.35836257  0.64163743  0.00000000  1
  Fe  Fe0  1  0.00000000  0.00000000  0.00000000  1
  Rh  Rh0  1  0.50000000  0.50000000  0.50000000  1
  O  O0  1  0.75123900  0.75123900  0.75070336  1
  O  O1  1  0.24876100  0.24876100  0.24929664  1
  O  O2  1  0.24876100  0.24876100  0.75070336  1
  O  O3  1  0.75123900  0.75123900  0.24929664  1
  O  O4  1  0.85699375  0.14300625  0.00000000  1
  O  O5  1  0.34714425  0.65285575  0.50000000  1
  O  O6  1  0.65285575  0.34714425  0.50000000  1
  O  O7  1  0.14300625  0.85699375  0.00000000  1
loop_
_geom_bond_atom_site_label_1
_geom_bond_atom_site_label_2
_geom_bond_distance
_geom_bond_site_symmetry_2
Ba0 O1 2.753633 1_555
Ba0 O2 2.753633 1_554
Ba0 O3 2.753633 1_555
Ba0 O0 2.753633 1_554
Ba0 O4 2.829041 1_555
Ba0 O6 2.867008 1_555
Ba0 O6 2.867008 1_554
Ba0 O7 2.872043 1_655
Ba0 O7 2.872043 1_545
Ba1 O5 2.704418 1_555
Ba1 O0 2.747175 1_455
Ba1 O3 2.747175 1_455
Ba1 O2 2.747175 1_565
Ba1 O1 2.747175 1_565
Ba1 O7 2.863309 1_556
Ba1 O7 2.863309 1_555
Ba1 O6 2.876013 1_565
Ba1 O6 2.876013 1_455
Ba2 O6 2.704418 1_555
Ba2 O2 2.747175 1_655
Ba2 O1 2.747175 1_655
Ba2 O0 2.747175 1_545
Ba2 O3 2.747175 1_545
Ba2 O4 2.863309 1_556
Ba2 O4 2.863309 1_555
Ba2 O5 2.876013 1_545
Ba2 O5 2.876013 1_655
Ba3 O3 2.753633 1_555
Ba3 O0 2.753633 1_554
Ba3 O1 2.753633 1_555
Ba3 O2 2.753633 1_554
Ba3 O7 2.829041 1_555
Ba3 O5 2.867008 1_555
Ba3 O5 2.867008 1_554
Ba3 O4 2.872043 1_455
Ba3 O4 2.872043 1_565
Fe0 O4 1.878610 1_455
Fe0 O7 1.878610 1_545
Fe0 O1 2.019821 1_555
Fe0 O3 2.019821 1_445
Fe0 O2 2.019821 1_554
Fe0 O0 2.019821 1_444
O0 Rh0 2.035588 1_555
O1 Rh0 2.035588 1_555
O2 Rh0 2.035588 1_555
O3 Rh0 2.035588 1_555
O5 Rh0 2.007999 1_555
O6 Rh0 2.007999 1_555
