# generated using pymatgen
data_TiCd3P6N13
_symmetry_space_group_name_H-M   'P 1'
_cell_length_a   7.10413722
_cell_length_b   7.18567864
_cell_length_c   7.18567989
_cell_angle_alpha   109.69995082
_cell_angle_beta   109.24151337
_cell_angle_gamma   109.24151147
_symmetry_Int_Tables_number   1
_chemical_formula_structural   TiCd3P6N13
_chemical_formula_sum   'Ti1 Cd3 P6 N13'
_cell_volume   283.17077935
_cell_formula_units_Z   1
loop_
 _symmetry_equiv_pos_site_id
 _symmetry_equiv_pos_as_xyz
  1  'x, y, z'
loop_
 _atom_site_type_symbol
 _atom_site_label
 _atom_site_symmetry_multiplicity
 _atom_site_fract_x
 _atom_site_fract_y
 _atom_site_fract_z
 _atom_site_occupancy
  Ti  Ti0  1  0.67990619  0.00000000  0.00000000  1
  Cd  Cd0  1  0.99657813  0.00000000  0.71329158  1
  Cd  Cd1  1  0.99657813  0.71329158  1.00000000  1
  Cd  Cd2  1  0.28328556  0.28670842  0.28670842  1
  P  P0  1  0.25463203  0.74969500  0.50091519  1
  P  P1  1  0.75371685  0.24877981  0.49908481  1
  P  P2  1  0.75371685  0.49908481  0.24877981  1
  P  P3  1  0.25463203  0.50091519  0.74969500  1
  P  P4  1  0.50493603  0.75122019  0.25030500  1
  P  P5  1  0.50493603  0.25030500  0.75122019  1
  N  N0  1  0.95340023  0.00000000  0.00000000  1
  N  N1  1  0.71739840  0.27143908  0.27143908  1
  N  N2  1  0.28211225  0.72166404  0.27946850  1
  N  N3  1  0.30093043  0.56941741  0.56941741  1
  N  N4  1  0.56044821  0.55780446  0.27833596  1
  N  N5  1  0.44595932  0.72856092  1.00000000  1
  N  N6  1  0.00264375  0.72053150  0.44219554  1
  N  N7  1  0.56044821  0.27833596  0.55780446  1
  N  N8  1  0.73151302  1.00000000  0.43058259  1
  N  N9  1  0.44595932  0.00000000  0.72856092  1
  N  N10  1  0.73151302  0.43058259  1.00000000  1
  N  N11  1  0.28211225  0.27946850  0.72166404  1
  N  N12  1  0.00264375  0.44219554  0.72053150  1
loop_
_geom_bond_atom_site_label_1
_geom_bond_atom_site_label_2
_geom_bond_distance
_geom_bond_site_symmetry_2
Cd0 N0 2.180599 1_556
Cd0 N8 2.269676 1_545
Cd0 N11 2.303112 1_655
Cd0 N6 2.303112 1_645
Cd1 N0 2.180599 1_566
Cd1 N10 2.269676 1_555
Cd1 N2 2.303112 1_656
Cd1 N12 2.303112 1_655
Cd2 N0 2.180595 1_455
Cd2 N3 2.269672 1_555
Cd2 N4 2.303116 1_555
Cd2 N7 2.303116 1_555
N0 Ti0 1.942939 1_555
N1 P2 1.642549 1_555
N1 P1 1.642549 1_555
N1 Ti0 2.104750 1_555
N2 P4 1.619222 1_555
N2 P0 1.620285 1_555
N3 P0 1.622528 1_555
N3 P3 1.622528 1_555
N4 P2 1.619229 1_555
N4 P4 1.620288 1_555
N5 P3 1.642549 1_555
N5 P4 1.642550 1_556
N5 Ti0 2.104750 1_566
N6 P0 1.619229 1_555
N6 P2 1.620285 1_455
N7 P1 1.619229 1_555
N7 P5 1.620289 1_555
N8 P1 1.622528 1_565
N8 P4 1.622530 1_555
N9 P0 1.642549 1_545
N9 P5 1.642550 1_555
N9 Ti0 2.104750 1_556
N10 P2 1.622528 1_556
N10 P5 1.622530 1_555
N11 P5 1.619222 1_555
N11 P3 1.620285 1_555
N12 P3 1.619229 1_555
N12 P1 1.620285 1_455
