# generated using pymatgen
data_LuPbF7
_symmetry_space_group_name_H-M   'P 1'
_cell_length_a   5.67640394
_cell_length_b   5.91102846
_cell_length_c   8.14563253
_cell_angle_alpha   103.25657324
_cell_angle_beta   90.00000000
_cell_angle_gamma   90.00000000
_symmetry_Int_Tables_number   1
_chemical_formula_structural   LuPbF7
_chemical_formula_sum   'Lu2 Pb2 F14'
_cell_volume   266.03054850
_cell_formula_units_Z   2
loop_
 _symmetry_equiv_pos_site_id
 _symmetry_equiv_pos_as_xyz
  1  'x, y, z'
loop_
 _atom_site_type_symbol
 _atom_site_label
 _atom_site_symmetry_multiplicity
 _atom_site_fract_x
 _atom_site_fract_y
 _atom_site_fract_z
 _atom_site_occupancy
  Lu  Lu0  1  0.70188908  0.65039843  0.68601016  1
  Lu  Lu1  1  0.20188908  0.34960157  0.31398984  1
  Pb  Pb0  1  0.70764606  0.81478618  0.22929390  1
  Pb  Pb1  1  0.20764606  0.18521382  0.77070610  1
  F  F0  1  0.93161280  0.49648151  0.48933661  1
  F  F1  1  0.43161280  0.50351849  0.51066339  1
  F  F2  1  0.41760847  0.89434876  0.76057353  1
  F  F3  1  0.91760847  0.10565124  0.23942647  1
  F  F4  1  0.93165857  0.94848441  0.76047590  1
  F  F5  1  0.43165857  0.05151559  0.23952410  1
  F  F6  1  0.98609129  0.47037164  0.79834369  1
  F  F7  1  0.48609129  0.52962836  0.20165631  1
  F  F8  1  0.69551303  0.76719610  0.97189405  1
  F  F9  1  0.19551303  0.23280390  0.02810595  1
  F  F10  1  0.68660506  0.87989374  0.48869553  1
  F  F11  1  0.18660506  0.12010626  0.51130447  1
  F  F12  1  0.51773563  0.37890415  0.78653463  1
  F  F13  1  0.01773563  0.62109585  0.21346537  1
loop_
_geom_bond_atom_site_label_1
_geom_bond_atom_site_label_2
_geom_bond_distance
_geom_bond_site_symmetry_2
F0 Lu0 2.103858 1_555
F0 Lu1 2.139835 1_655
F1 Lu1 2.103858 1_555
F1 Lu0 2.139835 1_555
F2 Pb1 2.078034 1_565
F2 Lu0 2.156520 1_555
F3 Pb0 2.078034 1_545
F3 Lu1 2.156520 1_655
F4 Pb1 2.089458 1_665
F4 Lu0 2.164138 1_555
F5 Pb0 2.089458 1_545
F5 Lu1 2.164138 1_555
F6 Pb1 2.073514 1_655
F6 Lu0 2.240271 1_555
F7 Pb0 2.073514 1_555
F7 Lu1 2.240271 1_555
F8 Pb0 2.051697 1_556
F8 Lu0 2.272329 1_555
F9 Pb1 2.051697 1_554
F9 Lu1 2.272329 1_555
F10 Pb0 2.062561 1_555
F10 Lu0 2.330445 1_555
F11 Pb1 2.062561 1_555
F11 Lu1 2.330445 1_555
F12 Pb1 2.087588 1_555
F12 Lu0 2.222901 1_555
F13 Pb0 2.087588 1_455
F13 Lu1 2.222901 1_555
