# generated using pymatgen
data_Zr16Pd5Rh3O4
_symmetry_space_group_name_H-M   'P 1'
_cell_length_a   8.83108819
_cell_length_b   8.81593106
_cell_length_c   8.83108878
_cell_angle_alpha   59.94311156
_cell_angle_beta   60.00000148
_cell_angle_gamma   59.94311107
_symmetry_Int_Tables_number   1
_chemical_formula_structural   Zr16Pd5Rh3O4
_chemical_formula_sum   'Zr16 Pd5 Rh3 O4'
_cell_volume   485.74427560
_cell_formula_units_Z   1
loop_
 _symmetry_equiv_pos_site_id
 _symmetry_equiv_pos_as_xyz
  1  'x, y, z'
loop_
 _atom_site_type_symbol
 _atom_site_label
 _atom_site_symmetry_multiplicity
 _atom_site_fract_x
 _atom_site_fract_y
 _atom_site_fract_z
 _atom_site_occupancy
  Zr  Zr0  1  0.31744338  0.68170640  0.31744338  1
  Zr  Zr1  1  0.93352190  0.56893431  0.93352190  1
  Zr  Zr2  1  0.68288850  0.31676549  0.68288850  1
  Zr  Zr3  1  0.68288850  0.31676549  0.31745851  1
  Zr  Zr4  1  0.31744338  0.68170640  0.68340783  1
  Zr  Zr5  1  0.63804472  0.11742778  0.12226325  1
  Zr  Zr6  1  0.93371783  0.93281817  0.56673200  1
  Zr  Zr7  1  0.68340783  0.68170640  0.31744338  1
  Zr  Zr8  1  0.11649166  0.65052402  0.11649166  1
  Zr  Zr9  1  0.12226325  0.11742778  0.63804472  1
  Zr  Zr10  1  0.31745851  0.31676549  0.68288850  1
  Zr  Zr11  1  0.12226325  0.11742778  0.12226325  1
  Zr  Zr12  1  0.56402188  0.56893431  0.93352190  1
  Zr  Zr13  1  0.56673200  0.93281817  0.93371783  1
  Zr  Zr14  1  0.93352190  0.56893431  0.56402188  1
  Zr  Zr15  1  0.56673200  0.93281817  0.56673200  1
  Pd  Pd0  1  0.33998398  0.98004707  0.33998398  1
  Pd  Pd1  1  0.33794437  0.34163636  0.33794437  1
  Pd  Pd2  1  0.98247390  0.34163636  0.33794437  1
  Pd  Pd3  1  0.33794437  0.34163636  0.98247390  1
  Pd  Pd4  1  0.90603209  0.28190573  0.90603209  1
  Rh  Rh0  1  0.29594848  0.90439744  0.89982754  1
  Rh  Rh1  1  0.89982754  0.90439744  0.89982754  1
  Rh  Rh2  1  0.89982754  0.90439744  0.29594848  1
  O  O0  1  0.62562024  0.62413225  0.62562024  1
  O  O1  1  0.12462727  0.62413225  0.62562024  1
  O  O2  1  0.62562024  0.62413225  0.12462727  1
  O  O3  1  0.62530949  0.12407054  0.62530949  1
loop_
_geom_bond_atom_site_label_1
_geom_bond_atom_site_label_2
_geom_bond_distance
_geom_bond_site_symmetry_2
Pd0 Zr5 2.809264 1_565
Pd0 Zr11 2.809264 1_565
Pd0 Zr9 2.809264 1_565
Pd0 Zr0 2.843496 1_555
Pd0 Zr7 2.843506 1_555
Pd0 Zr4 2.843506 1_555
Pd1 Zr0 2.828270 1_555
Pd1 Zr9 2.834520 1_555
Pd1 Zr5 2.834520 1_555
Pd1 Zr3 2.860053 1_555
Pd1 Zr10 2.860053 1_555
Pd1 Zr8 2.867048 1_555
Pd2 Zr7 2.828262 1_555
Pd2 Zr11 2.834520 1_655
Pd2 Zr9 2.834520 1_655
Pd2 Zr3 2.860035 1_555
Pd2 Zr2 2.860045 1_555
Pd2 Zr8 2.867048 1_655
Pd3 Zr4 2.828262 1_555
Pd3 Zr11 2.834520 1_556
Pd3 Zr5 2.834520 1_556
Pd3 Zr10 2.860036 1_555
Pd3 Zr2 2.860045 1_555
Pd3 Zr8 2.867048 1_556
Pd4 Zr11 2.737601 1_656
Pd4 Zr5 2.737622 1_556
Pd4 Zr9 2.737622 1_655
Pd4 Zr1 2.794738 1_555
Pd4 Zr12 2.794748 1_555
Pd4 Zr14 2.794748 1_555
Rh0 Zr12 2.692379 1_555
Rh0 Zr13 2.694759 1_555
Rh0 Zr15 2.694764 1_555
Rh0 Zr8 2.722654 1_556
Rh0 Zr11 2.745063 1_566
Rh0 Zr9 2.745077 1_565
Rh1 Zr1 2.692382 1_555
Rh1 Zr13 2.694767 1_555
Rh1 Zr6 2.694768 1_555
Rh1 Zr8 2.722643 1_656
Rh1 Zr9 2.745065 1_665
Rh1 Zr5 2.745065 1_566
Rh2 Zr14 2.692379 1_555
Rh2 Zr6 2.694759 1_555
Rh2 Zr15 2.694764 1_555
Rh2 Zr8 2.722654 1_655
Rh2 Zr11 2.745063 1_665
Rh2 Zr5 2.745077 1_565
O0 Zr2 2.316113 1_555
O0 Zr15 2.319867 1_555
O0 Zr14 2.320955 1_555
O0 Zr12 2.320955 1_555
O0 Zr4 2.326301 1_555
O0 Zr7 2.326301 1_555
O1 Zr10 2.316115 1_555
O1 Zr6 2.319867 1_455
O1 Zr14 2.320955 1_455
O1 Zr1 2.320955 1_455
O1 Zr0 2.326304 1_555
O1 Zr4 2.326310 1_555
O2 Zr3 2.316115 1_555
O2 Zr13 2.319867 1_554
O2 Zr1 2.320955 1_554
O2 Zr12 2.320955 1_554
O2 Zr0 2.326304 1_555
O2 Zr7 2.326310 1_555
O3 Zr10 2.322084 1_555
O3 Zr3 2.322084 1_555
O3 Zr2 2.322096 1_555
O3 Zr15 2.322293 1_545
O3 Zr6 2.322299 1_545
O3 Zr13 2.322300 1_545
