# generated using pymatgen
data_K2HfIrO6
_symmetry_space_group_name_H-M   'P 1'
_cell_length_a   5.64961568
_cell_length_b   5.64963259
_cell_length_c   5.64961568
_cell_angle_alpha   120.00073497
_cell_angle_beta   89.99855548
_cell_angle_gamma   120.00074069
_symmetry_Int_Tables_number   1
_chemical_formula_structural   K2HfIrO6
_chemical_formula_sum   'K2 Hf1 Ir1 O6'
_cell_volume   127.50840295
_cell_formula_units_Z   1
loop_
 _symmetry_equiv_pos_site_id
 _symmetry_equiv_pos_as_xyz
  1  'x, y, z'
loop_
 _atom_site_type_symbol
 _atom_site_label
 _atom_site_symmetry_multiplicity
 _atom_site_fract_x
 _atom_site_fract_y
 _atom_site_fract_z
 _atom_site_occupancy
  K  K0  1  0.74999700  0.49999800  0.24999900  1
  K  K1  1  0.24999900  0.49999800  0.75000000  1
  Hf  Hf0  1  0.00000000  0.00000000  0.00000000  1
  Ir  Ir0  1  0.50000000  0.00000000  0.50000000  1
  O  O0  1  0.25778175  0.51556350  0.25778175  1
  O  O1  1  0.74223004  1.00000000  0.25776996  1
  O  O2  1  0.25781027  0.00000000  0.25781027  1
  O  O3  1  0.74218973  1.00000000  0.74218973  1
  O  O4  1  0.74221825  0.48443650  0.74221825  1
  O  O5  1  0.25776996  0.00000000  0.74223004  1
loop_
_geom_bond_atom_site_label_1
_geom_bond_atom_site_label_2
_geom_bond_distance
_geom_bond_site_symmetry_2
K0 O2 2.825459 1_555
K0 O3 2.825470 1_544
K0 O3 2.825470 1_555
K0 O0 2.825481 1_555
K0 O2 2.825481 1_665
K0 O5 2.825487 1_554
K0 O4 2.825492 1_554
K0 O4 2.825492 1_555
K0 O1 2.825498 1_545
K0 O1 2.825498 1_555
K0 O0 2.825503 1_655
K0 O5 2.825510 1_665
K1 O3 2.825461 1_445
K1 O2 2.825467 1_555
K1 O2 2.825473 1_566
K1 O3 2.825478 1_555
K1 O0 2.825487 1_556
K1 O5 2.825490 1_555
K1 O4 2.825492 1_455
K1 O4 2.825492 1_555
K1 O1 2.825495 1_445
K1 O0 2.825498 1_555
K1 O1 2.825501 1_556
K1 O5 2.825507 1_565
Hf0 O5 2.059495 1_554
Hf0 O1 2.059495 1_445
Hf0 O0 2.059601 1_555
Hf0 O4 2.059601 1_444
Hf0 O2 2.059869 1_555
Hf0 O3 2.059869 1_444
Ir0 O3 1.935063 1_545
Ir0 O2 1.935063 1_555
Ir0 O4 1.935253 1_555
Ir0 O0 1.935253 1_545
Ir0 O5 1.935336 1_555
Ir0 O1 1.935336 1_545
