# generated using pymatgen
data_Sr4TaRhO8
_symmetry_space_group_name_H-M   'P 1'
_cell_length_a   6.94692977
_cell_length_b   6.94692986
_cell_length_c   5.57216937
_cell_angle_alpha   90.00000000
_cell_angle_beta   90.00000000
_cell_angle_gamma   132.64019572
_symmetry_Int_Tables_number   1
_chemical_formula_structural   Sr4TaRhO8
_chemical_formula_sum   'Sr4 Ta1 Rh1 O8'
_cell_volume   197.81757211
_cell_formula_units_Z   1
loop_
 _symmetry_equiv_pos_site_id
 _symmetry_equiv_pos_as_xyz
  1  'x, y, z'
loop_
 _atom_site_type_symbol
 _atom_site_label
 _atom_site_symmetry_multiplicity
 _atom_site_fract_x
 _atom_site_fract_y
 _atom_site_fract_z
 _atom_site_occupancy
  Sr  Sr0  1  0.64761646  0.35238354  0.00000000  1
  Sr  Sr1  1  0.14537561  0.85462439  0.50000000  1
  Sr  Sr2  1  0.85462439  0.14537561  0.50000000  1
  Sr  Sr3  1  0.35238354  0.64761646  0.00000000  1
  Ta  Ta0  1  0.50000000  0.50000000  0.50000000  1
  Rh  Rh0  1  0.00000000  0.00000000  0.00000000  1
  O  O0  1  0.74730564  0.74730564  0.74624054  1
  O  O1  1  0.25269436  0.25269436  0.25375946  1
  O  O2  1  0.25269436  0.25269436  0.74624054  1
  O  O3  1  0.74730564  0.74730564  0.25375946  1
  O  O4  1  0.83591050  0.16408950  0.00000000  1
  O  O5  1  0.34000474  0.65999526  0.50000000  1
  O  O6  1  0.65999526  0.34000474  0.50000000  1
  O  O7  1  0.16408950  0.83591050  0.00000000  1
loop_
_geom_bond_atom_site_label_1
_geom_bond_atom_site_label_2
_geom_bond_distance
_geom_bond_site_symmetry_2
O0 Ta0 1.946033 1_555
O0 Rh0 1.996915 1_666
O0 Sr1 2.700477 1_655
O0 Sr2 2.700477 1_565
O0 Sr3 2.726115 1_556
O0 Sr0 2.726115 1_556
O1 Ta0 1.946033 1_555
O1 Rh0 1.996915 1_555
O1 Sr2 2.700477 1_455
O1 Sr1 2.700477 1_545
O1 Sr0 2.726115 1_555
O1 Sr3 2.726115 1_555
O2 Ta0 1.946033 1_555
O2 Rh0 1.996915 1_556
O2 Sr2 2.700477 1_455
O2 Sr1 2.700477 1_545
O2 Sr0 2.726115 1_556
O2 Sr3 2.726115 1_556
O3 Ta0 1.946033 1_555
O3 Rh0 1.996915 1_665
O3 Sr1 2.700477 1_655
O3 Sr2 2.700477 1_565
O3 Sr3 2.726115 1_555
O3 Sr0 2.726115 1_555
O4 Rh0 2.087882 1_655
O4 Sr0 2.395862 1_555
O4 Sr2 2.796242 1_555
O4 Sr2 2.796242 1_554
O4 Sr3 2.797934 1_655
O4 Sr3 2.797934 1_545
O5 Ta0 2.035787 1_555
O5 Sr1 2.476470 1_555
O5 Sr3 2.790533 1_555
O5 Sr3 2.790533 1_556
O5 Sr2 2.796266 1_565
O5 Sr2 2.796266 1_455
O6 Ta0 2.035787 1_555
O6 Sr2 2.476470 1_555
O6 Sr0 2.790533 1_555
O6 Sr0 2.790533 1_556
O6 Sr1 2.796266 1_545
O6 Sr1 2.796266 1_655
O7 Rh0 2.087882 1_565
O7 Sr3 2.395862 1_555
O7 Sr1 2.796242 1_555
O7 Sr1 2.796242 1_554
O7 Sr0 2.797934 1_455
O7 Sr0 2.797934 1_565
