# generated using pymatgen
data_Sr3MgPdO6
_symmetry_space_group_name_H-M   'P 1'
_cell_length_a   6.67356625
_cell_length_b   6.67356684
_cell_length_c   6.67356649
_cell_angle_alpha   92.58780686
_cell_angle_beta   92.58780484
_cell_angle_gamma   92.58779499
_symmetry_Int_Tables_number   1
_chemical_formula_structural   Sr3MgPdO6
_chemical_formula_sum   'Sr6 Mg2 Pd2 O12'
_cell_volume   296.27955578
_cell_formula_units_Z   2
loop_
 _symmetry_equiv_pos_site_id
 _symmetry_equiv_pos_as_xyz
  1  'x, y, z'
loop_
 _atom_site_type_symbol
 _atom_site_label
 _atom_site_symmetry_multiplicity
 _atom_site_fract_x
 _atom_site_fract_y
 _atom_site_fract_z
 _atom_site_occupancy
  Sr  Sr0  1  0.61655615  0.25000000  0.88344385  1
  Sr  Sr1  1  0.88344385  0.61655615  0.25000000  1
  Sr  Sr2  1  0.75000000  0.11655615  0.38344385  1
  Sr  Sr3  1  0.38344385  0.75000000  0.11655615  1
  Sr  Sr4  1  0.11655615  0.38344385  0.75000000  1
  Sr  Sr5  1  0.25000000  0.88344385  0.61655615  1
  Mg  Mg0  1  0.25000000  0.25000000  0.25000000  1
  Mg  Mg1  1  0.75000000  0.75000000  0.75000000  1
  Pd  Pd0  1  0.00000000  0.00000000  0.00000000  1
  Pd  Pd1  1  0.50000000  0.50000000  0.50000000  1
  O  O0  1  0.59362016  0.78739435  0.46416750  1
  O  O1  1  0.46416750  0.59362016  0.78739435  1
  O  O2  1  0.78739435  0.46416750  0.59362016  1
  O  O3  1  0.90637984  0.03583250  0.71260565  1
  O  O4  1  0.71260565  0.90637984  0.03583250  1
  O  O5  1  0.03583250  0.71260565  0.90637984  1
  O  O6  1  0.40637984  0.21260565  0.53583250  1
  O  O7  1  0.53583250  0.40637984  0.21260565  1
  O  O8  1  0.21260565  0.53583250  0.40637984  1
  O  O9  1  0.09362016  0.96416750  0.28739435  1
  O  O10  1  0.96416750  0.28739435  0.09362016  1
  O  O11  1  0.28739435  0.09362016  0.96416750  1
loop_
_geom_bond_atom_site_label_1
_geom_bond_atom_site_label_2
_geom_bond_distance
_geom_bond_site_symmetry_2
Mg0 O10 2.162587 1_455
Mg0 O11 2.162587 1_554
Mg0 O6 2.162587 1_555
Mg0 O8 2.162587 1_555
Mg0 O7 2.162587 1_555
Mg0 O9 2.162587 1_545
Mg1 O5 2.162587 1_655
Mg1 O4 2.162587 1_556
Mg1 O0 2.162587 1_555
Mg1 O2 2.162587 1_555
Mg1 O1 2.162587 1_555
Mg1 O3 2.162587 1_565
O0 Pd1 2.018105 1_555
O0 Sr2 2.481002 1_565
O0 Sr5 2.643522 1_555
O0 Sr3 2.652062 1_555
O0 Sr1 2.717570 1_555
O1 Pd1 2.018105 1_555
O1 Sr3 2.481002 1_556
O1 Sr0 2.643522 1_555
O1 Sr4 2.652063 1_555
O1 Sr5 2.717571 1_555
O2 Pd1 2.018105 1_555
O2 Sr4 2.481002 1_655
O2 Sr1 2.643522 1_555
O2 Sr2 2.652063 1_555
O2 Sr0 2.717571 1_555
O3 Pd0 2.018105 1_656
O3 Sr2 2.481002 1_555
O3 Sr5 2.643522 1_645
O3 Sr4 2.652063 1_655
O3 Sr0 2.717570 1_555
O4 Pd0 2.018105 1_665
O4 Sr3 2.481002 1_555
O4 Sr0 2.643522 1_564
O4 Sr2 2.652062 1_565
O4 Sr1 2.717571 1_555
O5 Pd0 2.018105 1_566
O5 Sr4 2.481002 1_555
O5 Sr1 2.643522 1_456
O5 Sr3 2.652062 1_556
O5 Sr5 2.717571 1_555
O6 Pd1 2.018105 1_555
O6 Sr5 2.481002 1_545
O6 Sr2 2.643522 1_555
O6 Sr0 2.652062 1_555
O6 Sr4 2.717570 1_555
O7 Pd1 2.018105 1_555
O7 Sr0 2.481002 1_554
O7 Sr3 2.643522 1_555
O7 Sr1 2.652063 1_555
O7 Sr2 2.717571 1_555
O8 Pd1 2.018105 1_555
O8 Sr1 2.481002 1_455
O8 Sr4 2.643522 1_555
O8 Sr5 2.652063 1_555
O8 Sr3 2.717571 1_555
O9 Pd0 2.018105 1_565
O9 Sr5 2.481002 1_555
O9 Sr2 2.643522 1_465
O9 Sr1 2.652063 1_455
O9 Sr3 2.717570 1_555
O10 Pd0 2.018105 1_655
O10 Sr1 2.481002 1_555
O10 Sr4 2.643522 1_654
O10 Sr0 2.652062 1_554
O10 Sr2 2.717571 1_555
O11 Pd0 2.018105 1_556
O11 Sr0 2.481002 1_555
O11 Sr3 2.643522 1_546
O11 Sr5 2.652062 1_545
O11 Sr4 2.717571 1_555
