# generated using pymatgen
data_Ta7Ti2Si6Mo
_symmetry_space_group_name_H-M   'P 1'
_cell_length_a   7.49033240
_cell_length_b   7.44825591
_cell_length_c   7.47145777
_cell_angle_alpha   128.63895887
_cell_angle_beta   128.79377668
_cell_angle_gamma   75.44599456
_symmetry_Int_Tables_number   1
_chemical_formula_structural   Ta7Ti2Si6Mo
_chemical_formula_sum   'Ta7 Ti2 Si6 Mo1'
_cell_volume   246.97104220
_cell_formula_units_Z   1
loop_
 _symmetry_equiv_pos_site_id
 _symmetry_equiv_pos_as_xyz
  1  'x, y, z'
loop_
 _atom_site_type_symbol
 _atom_site_label
 _atom_site_symmetry_multiplicity
 _atom_site_fract_x
 _atom_site_fract_y
 _atom_site_fract_z
 _atom_site_occupancy
  Ta  Ta0  1  0.68615562  0.51230768  0.50000000  1
  Ta  Ta1  1  0.51625677  0.01594203  0.83144548  1
  Ta  Ta2  1  0.18481130  0.68449755  0.16855452  1
  Ta  Ta3  1  0.98394510  0.81805878  0.50000000  1
  Ta  Ta4  1  0.31452069  0.48480990  0.50000000  1
  Ta  Ta5  1  0.48241691  0.98367699  0.16894159  1
  Ta  Ta6  1  0.81347433  0.31473540  0.83105841  1
  Ti  Ti0  1  0.99934686  0.99947784  0.00008650  1
  Ti  Ti1  1  0.49926036  0.49939134  0.99991350  1
  Si  Si0  1  0.75120344  0.75315827  0.00272191  1
  Si  Si1  1  0.24848153  0.25043636  0.99727809  1
  Si  Si2  1  0.36746857  0.13072443  0.50000000  1
  Si  Si3  1  0.63083776  0.86761257  0.50000000  1
  Si  Si4  1  0.86970860  0.36918920  0.23954846  1
  Si  Si5  1  0.13016013  0.62964173  0.76045154  1
  Mo  Mo0  1  0.02195303  0.18634192  0.50000000  1
loop_
_geom_bond_atom_site_label_1
_geom_bond_atom_site_label_2
_geom_bond_distance
_geom_bond_site_symmetry_2
Si0 Ta1 2.672161 1_564
Si0 Ta3 2.672368 1_555
Si0 Ta2 2.694334 1_655
Si0 Ta5 2.697496 1_555
Si0 Ta6 2.698093 1_554
Si0 Ta0 2.700935 1_554
Si0 Ta4 2.705111 1_554
Si0 Ti0 2.936973 1_555
Si0 Ti1 2.971165 1_554
Si1 Ta2 2.672168 1_556
Si1 Ta3 2.672368 1_445
Si1 Ta1 2.694335 1_555
Si1 Ta6 2.697502 1_455
Si1 Ta5 2.698094 1_546
Si1 Ta0 2.700935 1_556
Si1 Ta4 2.705111 1_556
Si1 Ti1 2.936973 1_555
Si1 Ti0 2.971165 1_446
Si2 Si3 2.406068 1_545
Si2 Ti0 2.529708 1_445
Si2 Ti1 2.529708 1_555
Si2 Ta4 2.566527 1_555
Si2 Ta2 2.610025 1_545
Si2 Ta1 2.610031 1_555
Si2 Ta6 2.621158 1_555
Si2 Ta5 2.621164 1_545
Si3 Ti0 2.529982 1_556
Si3 Ti1 2.529982 1_554
Si3 Ta0 2.573718 1_555
Si3 Ta3 2.577024 1_555
Si3 Ta6 2.615923 1_565
Si3 Ta5 2.615925 1_555
Si3 Ta2 2.619079 1_555
Si3 Ta1 2.619081 1_565
Si4 Si5 2.382384 1_655
Si4 Ti0 2.531244 1_545
Si4 Ti1 2.536984 1_554
Si4 Ta6 2.566297 1_554
Si4 Ta1 2.568252 1_554
Si4 Ta0 2.615085 1_555
Si4 Ta4 2.618083 1_655
Si4 Ta3 2.631192 1_555
Si5 Ti1 2.531248 1_555
Si5 Ti0 2.536980 1_456
Si5 Ta5 2.566297 1_556
Si5 Ta2 2.568252 1_556
Si5 Ta0 2.615087 1_455
Si5 Ta4 2.618082 1_555
Si5 Ta3 2.631185 1_455
Mo0 Si2 2.516081 1_555
Mo0 Si4 2.586575 1_455
Mo0 Si5 2.586581 1_555
Mo0 Si1 2.683986 1_555
Mo0 Si0 2.683986 1_445
Mo0 Ta3 2.828065 1_445
Mo0 Ti0 2.958137 1_445
Mo0 Ti1 2.958137 1_555
Mo0 Ta0 3.025205 1_455
Mo0 Ta5 3.256768 1_445
Mo0 Ta6 3.256774 1_455
