# generated using pymatgen
data_Sn3P6BrN12
_symmetry_space_group_name_H-M   'P 1'
_cell_length_a   7.33027902
_cell_length_b   7.33027835
_cell_length_c   7.33027904
_cell_angle_alpha   109.38842991
_cell_angle_beta   109.38841807
_cell_angle_gamma   109.38839935
_symmetry_Int_Tables_number   1
_chemical_formula_structural   Sn3P6BrN12
_chemical_formula_sum   'Sn3 P6 Br1 N12'
_cell_volume   304.13326654
_cell_formula_units_Z   1
loop_
 _symmetry_equiv_pos_site_id
 _symmetry_equiv_pos_as_xyz
  1  'x, y, z'
loop_
 _atom_site_type_symbol
 _atom_site_label
 _atom_site_symmetry_multiplicity
 _atom_site_fract_x
 _atom_site_fract_y
 _atom_site_fract_z
 _atom_site_occupancy
  Sn  Sn0  1  0.01502072  0.33438286  0.01502072  1
  Sn  Sn1  1  0.01502072  0.01502072  0.33438286  1
  Sn  Sn2  1  0.33438286  0.01502072  0.01502072  1
  P  P0  1  0.51095278  0.26444857  0.76044189  1
  P  P1  1  0.26444857  0.76044189  0.51095278  1
  P  P2  1  0.76044189  0.51095278  0.26444857  1
  P  P3  1  0.76044189  0.26444857  0.51095278  1
  P  P4  1  0.51095278  0.76044189  0.26444857  1
  P  P5  1  0.26444857  0.51095278  0.76044189  1
  Br  Br0  1  0.82079572  0.82079572  0.82079572  1
  N  N0  1  0.42351711  0.71473309  0.42351711  1
  N  N1  1  0.71473309  0.42351711  0.42351711  1
  N  N2  1  0.42351711  0.42351711  0.71473309  1
  N  N3  1  0.72640850  0.29344556  0.72640850  1
  N  N4  1  0.01070046  0.59229615  0.29453269  1
  N  N5  1  0.29453269  0.59229615  0.01070046  1
  N  N6  1  0.29453269  0.01070046  0.59229615  1
  N  N7  1  0.01070046  0.29453269  0.59229615  1
  N  N8  1  0.72640850  0.72640850  0.29344556  1
  N  N9  1  0.59229615  0.01070046  0.29453269  1
  N  N10  1  0.29344556  0.72640850  0.72640850  1
  N  N11  1  0.59229615  0.29453269  0.01070046  1
loop_
_geom_bond_atom_site_label_1
_geom_bond_atom_site_label_2
_geom_bond_distance
_geom_bond_site_symmetry_2
Br0 Sn0 3.124748 1_666
Br0 Sn1 3.124748 1_666
Br0 Sn2 3.124748 1_666
N0 P1 1.579760 1_555
N0 P4 1.579761 1_555
N1 P3 1.579760 1_555
N1 P2 1.579761 1_555
N2 P5 1.579760 1_555
N2 P0 1.579760 1_555
N3 P3 1.635752 1_555
N3 P0 1.635752 1_555
N3 Sn0 2.286256 1_656
N4 P2 1.639296 1_455
N4 P1 1.648068 1_555
N4 Sn0 2.298752 1_555
N5 P5 1.639296 1_554
N5 P4 1.648068 1_555
N5 Sn0 2.298753 1_555
N6 P1 1.639296 1_545
N6 P0 1.648068 1_555
N6 Sn1 2.298753 1_555
N7 P3 1.639296 1_455
N7 P5 1.648068 1_555
N7 Sn1 2.298752 1_555
N8 P2 1.635752 1_555
N8 P4 1.635752 1_555
N8 Sn1 2.286256 1_665
N9 P4 1.639296 1_545
N9 P3 1.648068 1_555
N9 Sn2 2.298753 1_555
N10 P5 1.635752 1_555
N10 P1 1.635752 1_555
N10 Sn2 2.286256 1_566
N11 P0 1.639296 1_554
N11 P2 1.648068 1_555
N11 Sn2 2.298753 1_555
