# generated using pymatgen
data_Ti8Al14AsOs7
_symmetry_space_group_name_H-M   'P 1'
_cell_length_a   8.61936388
_cell_length_b   8.61936350
_cell_length_c   8.61936295
_cell_angle_alpha   120.13161646
_cell_angle_beta   119.81295582
_cell_angle_gamma   90.04823075
_symmetry_Int_Tables_number   1
_chemical_formula_structural   Ti8Al14AsOs7
_chemical_formula_sum   'Ti8 Al14 As1 Os7'
_cell_volume   452.98946774
_cell_formula_units_Z   1
loop_
 _symmetry_equiv_pos_site_id
 _symmetry_equiv_pos_as_xyz
  1  'x, y, z'
loop_
 _atom_site_type_symbol
 _atom_site_label
 _atom_site_symmetry_multiplicity
 _atom_site_fract_x
 _atom_site_fract_y
 _atom_site_fract_z
 _atom_site_occupancy
  Ti  Ti0  1  0.79629987  0.28900567  0.07519495  1
  Ti  Ti1  1  0.21381072  0.28900567  0.49270680  1
  Ti  Ti2  1  0.20927101  0.70927101  0.50000000  1
  Ti  Ti3  1  0.21381072  0.72110392  0.92480505  1
  Ti  Ti4  1  0.79629987  0.72110392  0.50729320  1
  Ti  Ti5  1  0.78167204  0.28167204  0.50000000  1
  Ti  Ti6  1  0.37979336  0.12043788  0.74064452  1
  Ti  Ti7  1  0.37979336  0.63914884  0.25935548  1
  Al  Al0  1  0.16183517  0.33767380  0.17583763  1
  Al  Al1  1  0.16183517  0.98599854  0.82416237  1
  Al  Al2  1  0.15833948  0.34075781  0.81758267  1
  Al  Al3  1  0.52317414  0.34075781  0.18241733  1
  Al  Al4  1  0.83950997  0.65842378  0.81891481  1
  Al  Al5  1  0.83950997  0.02059516  0.18108519  1
  Al  Al6  1  0.83802185  0.66019965  0.17782220  1
  Al  Al7  1  0.48237745  0.66019965  0.82217780  1
  Al  Al8  1  0.38013547  0.11977940  0.26035607  1
  Al  Al9  1  0.85942433  0.11977940  0.73964393  1
  Al  Al10  1  0.61927123  0.87726223  0.25799100  1
  Al  Al11  1  0.61927123  0.36127923  0.74200900  1
  Al  Al12  1  0.61999990  0.87902347  0.74097643  1
  Al  Al13  1  0.13804604  0.87902347  0.25902357  1
  As  As0  1  0.99650484  0.49650484  0.50000000  1
  Os  Os0  1  0.99895923  0.99899897  0.50078035  1
  Os  Os1  1  0.49821861  0.99899897  0.00003974  1
  Os  Os2  1  0.49875636  0.49875636  0.00000000  1
  Os  Os3  1  0.49821861  0.49817888  0.49921965  1
  Os  Os4  1  0.99895923  0.49817888  0.99996026  1
  Os  Os5  1  0.99973701  0.99973701  0.00000000  1
  Os  Os6  1  0.49914075  0.99914075  0.50000000  1
loop_
_geom_bond_atom_site_label_1
_geom_bond_atom_site_label_2
_geom_bond_distance
_geom_bond_site_symmetry_2
Al0 Os4 2.485079 1_454
Al0 Os3 2.485087 1_555
Al0 Os5 2.487755 1_445
Al1 Os0 2.485081 1_455
Al1 Os1 2.485089 1_556
Al1 Os5 2.487750 1_456
Al2 Os2 2.488444 1_556
Al2 Os4 2.491666 1_455
Al2 Os0 2.491673 1_445
Al3 Os2 2.488439 1_555
Al3 Os3 2.491668 1_555
Al3 Os1 2.491675 1_545
Al4 Os5 2.497596 1_556
Al4 Os4 2.503265 1_555
Al4 Os3 2.503272 1_555
Al5 Os5 2.497588 1_545
Al5 Os0 2.503272 1_545
Al5 Os1 2.503272 1_545
Al6 Os0 2.488610 1_555
Al6 Os4 2.488610 1_554
Al6 Os2 2.496399 1_555
Al7 Os3 2.488610 1_555
Al7 Os1 2.488610 1_556
Al7 Os2 2.496399 1_556
Al8 Os6 2.539966 1_545
Al8 Os1 2.661123 1_545
Al8 Os3 2.661123 1_555
Al8 Os5 2.684001 1_445
Al9 Os6 2.539973 1_545
Al9 Os0 2.661116 1_545
Al9 Os4 2.661123 1_555
Al9 Os5 2.684001 1_546
Al10 Os6 2.544886 1_555
Al10 Os2 2.661108 1_555
Al10 Os1 2.677770 1_555
Al10 Os0 2.677770 1_555
Al11 Os6 2.544879 1_545
Al11 Os2 2.661108 1_556
Al11 Os4 2.677770 1_555
Al11 Os3 2.677777 1_555
Al12 Os6 2.545710 1_555
Al12 Os1 2.677958 1_556
Al12 Os3 2.677958 1_555
Al12 Os5 2.678833 1_556
Al13 Os6 2.545717 1_555
Al13 Os0 2.677951 1_455
Al13 Os4 2.677958 1_454
Al13 Os5 2.678832 1_455
As0 Ti2 2.592447 1_655
As0 Ti4 2.592452 1_555
As0 Ti3 2.592457 1_655
As0 Ti1 2.592457 1_655
As0 Ti0 2.592458 1_555
As0 Ti5 2.617628 1_555
Os0 Ti6 2.686738 1_665
Os0 Ti4 3.002875 1_555
Os0 Ti5 3.075008 1_565
Os0 Ti2 3.086319 1_655
Os0 Ti1 3.158745 1_665
Os1 Ti6 2.686738 1_564
Os1 Ti3 3.002880 1_554
Os1 Ti5 3.075007 1_565
Os1 Ti2 3.086318 1_554
Os1 Ti0 3.158751 1_565
Os2 Ti7 2.660556 1_555
Os2 Ti6 2.660556 1_554
Os3 Ti7 2.686738 1_555
Os3 Ti1 3.002880 1_555
Os3 Ti5 3.075008 1_555
Os3 Ti2 3.086319 1_555
Os3 Ti4 3.158752 1_555
Os4 Ti7 2.686738 1_656
Os4 Ti0 3.002874 1_556
Os4 Ti5 3.075007 1_555
Os4 Ti2 3.086318 1_656
Os4 Ti3 3.158745 1_655
Os5 Ti0 3.037506 1_565
Os5 Ti1 3.037512 1_665
Os5 Ti3 3.037512 1_654
Os5 Ti4 3.037513 1_554
Os6 Ti6 2.529796 1_565
Os6 Ti7 2.529796 1_555
