# generated using pymatgen
data_TaNb9(GaSi2)2
_symmetry_space_group_name_H-M   'P 1'
_cell_length_a   7.59685729
_cell_length_b   7.59680116
_cell_length_c   7.59684087
_cell_angle_alpha   128.10518979
_cell_angle_beta   128.10539756
_cell_angle_gamma   76.45453199
_symmetry_Int_Tables_number   1
_chemical_formula_structural   TaNb9(GaSi2)2
_chemical_formula_sum   'Ta1 Nb9 Ga2 Si4'
_cell_volume   263.74494238
_cell_formula_units_Z   1
loop_
 _symmetry_equiv_pos_site_id
 _symmetry_equiv_pos_as_xyz
  1  'x, y, z'
loop_
 _atom_site_type_symbol
 _atom_site_label
 _atom_site_symmetry_multiplicity
 _atom_site_fract_x
 _atom_site_fract_y
 _atom_site_fract_z
 _atom_site_occupancy
  Ta  Ta0  1  0.00000000  0.00000000  0.00000000  1
  Nb  Nb0  1  0.01788919  0.18620332  0.49921284  1
  Nb  Nb1  1  0.68698875  0.51867827  0.50078773  1
  Nb  Nb2  1  0.51867761  0.01788922  0.83168795  1
  Nb  Nb3  1  0.18620320  0.68698962  0.16831308  1
  Nb  Nb4  1  0.98211081  0.81379668  0.50078716  1
  Nb  Nb5  1  0.31301125  0.48132173  0.49921227  1
  Nb  Nb6  1  0.48132239  0.98211078  0.16831205  1
  Nb  Nb7  1  0.81379680  0.31301038  0.83168692  1
  Nb  Nb8  1  0.50000000  0.50000000  0.00000000  1
  Ga  Ga0  1  0.74973115  0.74973199  0.99999883  1
  Ga  Ga1  1  0.25026885  0.25026801  0.00000117  1
  Si  Si0  1  0.37091242  0.12829054  0.49920332  1
  Si  Si1  1  0.62908758  0.87170946  0.50079668  1
  Si  Si2  1  0.87170897  0.37091231  0.24262189  1
  Si  Si3  1  0.12829103  0.62908769  0.75737811  1
loop_
_geom_bond_atom_site_label_1
_geom_bond_atom_site_label_2
_geom_bond_distance
_geom_bond_site_symmetry_2
Nb0 Si0 2.614090 1_555
Nb0 Si2 2.641229 1_455
Nb0 Si3 2.649030 1_555
Nb0 Ta0 3.038898 1_555
Nb1 Si1 2.614062 1_555
Nb1 Si3 2.641256 1_655
Nb1 Si2 2.649058 1_555
Nb1 Ta0 3.038880 1_666
Nb2 Si2 2.614074 1_556
Nb2 Si1 2.641254 1_545
Nb2 Si0 2.649044 1_555
Nb2 Ta0 3.038894 1_656
Nb3 Si3 2.614085 1_554
Nb3 Si0 2.641232 1_565
Nb3 Si1 2.649044 1_555
Nb3 Ta0 3.038881 1_565
Nb4 Si1 2.614090 1_555
Nb4 Si3 2.641229 1_655
Nb4 Si2 2.649030 1_555
Nb4 Ta0 3.038898 1_666
Nb5 Si0 2.614062 1_555
Nb5 Si2 2.641256 1_455
Nb5 Si3 2.649058 1_555
Nb5 Ta0 3.038880 1_555
Nb6 Si3 2.614074 1_554
Nb6 Si0 2.641254 1_565
Nb6 Si1 2.649044 1_555
Nb6 Ta0 3.038894 1_565
Nb7 Si2 2.614085 1_556
Nb7 Si1 2.641232 1_545
Nb7 Si0 2.649044 1_555
Nb7 Ta0 3.038881 1_656
Nb8 Si2 2.615862 1_555
Nb8 Si3 2.615862 1_554
Nb8 Si1 2.615864 1_555
Nb8 Si0 2.615864 1_554
Ga0 Nb2 2.763263 1_565
Ga0 Nb1 2.763280 1_555
Ga0 Nb0 2.763285 1_666
Ga0 Nb3 2.763298 1_656
Ga0 Nb7 2.766737 1_555
Ga0 Nb5 2.766741 1_555
Ga0 Nb6 2.766755 1_556
Ga0 Nb4 2.766756 1_556
Ga0 Nb8 2.980695 1_556
Ga0 Ta0 2.987089 1_666
Ga1 Nb6 2.763263 1_545
Ga1 Nb5 2.763280 1_555
Ga1 Nb4 2.763285 1_444
Ga1 Nb7 2.763298 1_454
Ga1 Nb3 2.766737 1_555
Ga1 Nb1 2.766741 1_555
Ga1 Nb2 2.766755 1_554
Ga1 Nb0 2.766756 1_554
Ga1 Nb8 2.980695 1_555
Ga1 Ta0 2.987089 1_555
Si0 Si1 2.419769 1_545
Si0 Ta0 2.609125 1_555
Si1 Ta0 2.609125 1_666
Si2 Si3 2.419772 1_655
Si2 Ta0 2.609123 1_655
Si3 Ta0 2.609123 1_566
