# generated using pymatgen
data_AlIn2(Ni10B3)2
_symmetry_space_group_name_H-M   'P 1'
_cell_length_a   7.43764902
_cell_length_b   7.43764907
_cell_length_c   7.43764832
_cell_angle_alpha   60.00000331
_cell_angle_beta   60.00000311
_cell_angle_gamma   59.99999976
_symmetry_Int_Tables_number   1
_chemical_formula_structural   AlIn2(Ni10B3)2
_chemical_formula_sum   'Al1 In2 Ni20 B6'
_cell_volume   290.93235683
_cell_formula_units_Z   1
loop_
 _symmetry_equiv_pos_site_id
 _symmetry_equiv_pos_as_xyz
  1  'x, y, z'
loop_
 _atom_site_type_symbol
 _atom_site_label
 _atom_site_symmetry_multiplicity
 _atom_site_fract_x
 _atom_site_fract_y
 _atom_site_fract_z
 _atom_site_occupancy
  Al  Al0  1  0.00000000  0.00000000  0.00000000  1
  In  In0  1  0.75000000  0.75000000  0.75000000  1
  In  In1  1  0.25000000  0.25000000  0.25000000  1
  Ni  Ni0  1  0.00000000  0.33640736  0.66359264  1
  Ni  Ni1  1  0.00000000  0.00000000  0.66359264  1
  Ni  Ni2  1  0.66359264  0.33640736  0.00000000  1
  Ni  Ni3  1  0.00000000  0.33640736  1.00000000  1
  Ni  Ni4  1  0.33640736  0.00000000  0.66359264  1
  Ni  Ni5  1  0.33640736  0.00000000  1.00000000  1
  Ni  Ni6  1  0.66359264  1.00000000  0.00000000  1
  Ni  Ni7  1  0.33640736  0.66359264  0.00000000  1
  Ni  Ni8  1  0.66359264  1.00000000  0.33640736  1
  Ni  Ni9  1  0.00000000  0.00000000  0.33640736  1
  Ni  Ni10  1  1.00000000  0.66359264  0.00000000  1
  Ni  Ni11  1  1.00000000  0.66359264  0.33640736  1
  Ni  Ni12  1  0.61389373  0.15831782  0.61389373  1
  Ni  Ni13  1  0.38610627  0.38610627  0.84168218  1
  Ni  Ni14  1  0.84168218  0.38610627  0.38610627  1
  Ni  Ni15  1  0.38610627  0.38610627  0.38610627  1
  Ni  Ni16  1  0.15831782  0.61389373  0.61389373  1
  Ni  Ni17  1  0.61389373  0.61389373  0.61389373  1
  Ni  Ni18  1  0.61389373  0.61389373  0.15831782  1
  Ni  Ni19  1  0.38610627  0.84168218  0.38610627  1
  B  B0  1  0.72648942  0.27351058  0.72648942  1
  B  B1  1  0.72648942  0.27351058  0.27351058  1
  B  B2  1  0.27351058  0.72648942  0.72648942  1
  B  B3  1  0.27351058  0.27351058  0.72648942  1
  B  B4  1  0.72648942  0.72648942  0.27351058  1
  B  B5  1  0.27351058  0.72648942  0.27351058  1
loop_
_geom_bond_atom_site_label_1
_geom_bond_atom_site_label_2
_geom_bond_distance
_geom_bond_site_symmetry_2
Al0 Ni9 2.502080 1_555
Al0 Ni1 2.502080 1_554
Al0 Ni7 2.502080 1_545
Al0 Ni2 2.502080 1_455
Al0 Ni5 2.502080 1_554
Al0 Ni4 2.502080 1_554
Al0 Ni8 2.502080 1_445
Al0 Ni6 2.502080 1_445
Al0 Ni11 2.502080 1_445
Al0 Ni0 2.502080 1_554
Al0 Ni3 2.502080 1_554
Al0 Ni10 2.502080 1_445
In0 Ni18 2.479638 1_556
In0 Ni16 2.479639 1_655
In0 Ni12 2.479639 1_565
In0 Ni17 2.479645 1_555
In1 Ni13 2.479638 1_554
In1 Ni14 2.479639 1_455
In1 Ni19 2.479639 1_545
In1 Ni15 2.479645 1_555
B0 Ni14 2.067114 1_555
B0 Ni17 2.067114 1_555
B0 Ni13 2.067114 1_555
B0 Ni12 2.067120 1_555
B0 Ni2 2.087371 1_556
B0 Ni1 2.087371 1_655
B0 Ni0 2.087371 1_655
B0 Ni6 2.087371 1_546
B1 Ni12 2.067114 1_555
B1 Ni15 2.067114 1_555
B1 Ni18 2.067114 1_555
B1 Ni14 2.067120 1_555
B1 Ni2 2.087371 1_555
B1 Ni9 2.087371 1_655
B1 Ni3 2.087371 1_654
B1 Ni8 2.087371 1_545
B2 Ni19 2.067114 1_555
B2 Ni17 2.067114 1_555
B2 Ni13 2.067114 1_555
B2 Ni16 2.067120 1_555
B2 Ni7 2.087371 1_556
B2 Ni1 2.087371 1_565
B2 Ni10 2.087371 1_456
B2 Ni4 2.087371 1_565
B3 Ni15 2.067114 1_555
B3 Ni12 2.067114 1_555
B3 Ni16 2.067114 1_555
B3 Ni13 2.067120 1_555
B3 Ni0 2.087371 1_555
B3 Ni3 2.087371 1_555
B3 Ni5 2.087371 1_555
B3 Ni4 2.087371 1_555
B4 Ni17 2.067114 1_555
B4 Ni19 2.067114 1_555
B4 Ni14 2.067114 1_555
B4 Ni18 2.067120 1_555
B4 Ni11 2.087371 1_555
B4 Ni10 2.087371 1_555
B4 Ni8 2.087371 1_555
B4 Ni6 2.087371 1_555
B5 Ni16 2.067114 1_555
B5 Ni15 2.067114 1_555
B5 Ni18 2.067114 1_555
B5 Ni19 2.067120 1_555
B5 Ni7 2.087371 1_555
B5 Ni9 2.087371 1_565
B5 Ni11 2.087371 1_455
B5 Ni5 2.087371 1_564
