# generated using pymatgen
data_NaCa(Cu9Si4)2
_symmetry_space_group_name_H-M   'P 1'
_cell_length_a   8.07591233
_cell_length_b   8.07591142
_cell_length_c   8.07591101
_cell_angle_alpha   120.39492942
_cell_angle_beta   120.39492350
_cell_angle_gamma   89.31731496
_symmetry_Int_Tables_number   1
_chemical_formula_structural   NaCa(Cu9Si4)2
_chemical_formula_sum   'Na1 Ca1 Cu18 Si8'
_cell_volume   370.19116841
_cell_formula_units_Z   1
loop_
 _symmetry_equiv_pos_site_id
 _symmetry_equiv_pos_as_xyz
  1  'x, y, z'
loop_
 _atom_site_type_symbol
 _atom_site_label
 _atom_site_symmetry_multiplicity
 _atom_site_fract_x
 _atom_site_fract_y
 _atom_site_fract_z
 _atom_site_occupancy
  Na  Na0  1  0.25000000  0.25000000  0.00000000  1
  Ca  Ca0  1  0.75000000  0.75000000  0.00000000  1
  Cu  Cu0  1  0.93432733  0.20328980  0.13837586  1
  Cu  Cu1  1  0.20328980  0.06491494  0.26896247  1
  Cu  Cu2  1  0.79595247  0.93432733  0.73103753  1
  Cu  Cu3  1  0.43508506  0.29671020  0.73103753  1
  Cu  Cu4  1  0.06491494  0.79595247  0.86162414  1
  Cu  Cu5  1  0.80836696  0.05979903  0.50042411  1
  Cu  Cu6  1  0.55937292  0.30794184  0.49957589  1
  Cu  Cu7  1  0.19205816  0.94062708  0.50042411  1
  Cu  Cu8  1  0.44020097  0.69163304  0.49957589  1
  Cu  Cu9  1  0.94062708  0.44020097  0.74856693  1
  Cu  Cu10  1  0.69163304  0.19205816  0.25143307  1
  Cu  Cu11  1  0.05979903  0.55937292  0.25143307  1
  Cu  Cu12  1  0.70404753  0.43508506  0.13837586  1
  Cu  Cu13  1  0.56567267  0.70404753  0.26896247  1
  Cu  Cu14  1  0.50000000  0.00000000  0.50000000  1
  Cu  Cu15  1  0.00000000  0.50000000  0.50000000  1
  Cu  Cu16  1  0.30794184  0.80836696  0.74856693  1
  Cu  Cu17  1  0.29671020  0.56567267  0.86162414  1
  Si  Si0  1  0.79224518  0.29169917  0.85220746  1
  Si  Si1  1  0.55996229  0.06050830  0.85220746  1
  Si  Si2  1  0.06050830  0.20830083  0.50054601  1
  Si  Si3  1  0.29169917  0.43949170  0.49945399  1
  Si  Si4  1  0.94003771  0.79224518  0.50054601  1
  Si  Si5  1  0.43949170  0.94003771  0.14779254  1
  Si  Si6  1  0.20830083  0.70775482  0.14779254  1
  Si  Si7  1  0.70775482  0.55996229  0.49945399  1
loop_
_geom_bond_atom_site_label_1
_geom_bond_atom_site_label_2
_geom_bond_distance
_geom_bond_site_symmetry_2
Na0 Si3 3.334124 1_555
Na0 Si2 3.334124 1_554
Na0 Si6 3.334124 1_555
Na0 Si5 3.334124 1_545
Na0 Si4 3.334124 1_444
Na0 Si1 3.334124 1_554
Na0 Si7 3.334125 1_555
Na0 Si0 3.334125 1_454
Ca0 Cu5 3.268530 1_565
Ca0 Cu8 3.268530 1_554
Ca0 Cu6 3.268532 1_554
Ca0 Cu7 3.268532 1_655
Ca0 Cu10 3.268537 1_565
Ca0 Cu16 3.268538 1_554
Ca0 Cu9 3.268546 1_554
Ca0 Cu11 3.268547 1_655
Ca0 Si7 3.339397 1_554
Ca0 Si4 3.339397 1_555
Ca0 Si0 3.339397 1_554
Ca0 Si1 3.339397 1_564
Ca0 Si2 3.339397 1_665
Ca0 Si5 3.339397 1_555
Ca0 Si3 3.339397 1_554
Ca0 Si6 3.339397 1_655
Ca0 Cu0 3.342540 1_565
Ca0 Cu17 3.342541 1_554
Ca0 Cu2 3.342544 1_554
Ca0 Cu13 3.342544 1_555
Ca0 Cu3 3.342544 1_554
Ca0 Cu1 3.342544 1_665
Ca0 Cu12 3.342550 1_555
Ca0 Cu4 3.342550 1_654
Cu0 Cu1 2.428128 1_655
Cu0 Cu2 2.428134 1_544
Cu0 Cu15 2.435907 1_655
Cu0 Si1 2.475337 1_554
Cu0 Si0 2.476740 1_554
Cu0 Si3 2.541216 1_655
Cu0 Si2 2.541656 1_655
Cu0 Cu10 2.565596 1_555
Cu0 Cu11 2.570285 1_655
Cu0 Cu12 2.622942 1_555
Cu0 Na0 3.350023 1_655
Cu1 Cu4 2.428134 1_544
Cu1 Cu14 2.435912 1_555
Cu1 Si2 2.475336 1_555
Cu1 Si3 2.476733 1_555
Cu1 Si5 2.541217 1_545
Cu1 Si6 2.541664 1_545
Cu1 Cu7 2.565582 1_545
Cu1 Cu6 2.570285 1_555
Cu1 Cu3 2.622942 1_555
Cu1 Na0 3.350016 1_555
Cu2 Cu4 2.428128 1_655
Cu2 Si7 2.475336 1_555
Cu2 Si4 2.476733 1_555
Cu2 Si0 2.541217 1_565
Cu2 Si1 2.541664 1_565
Cu2 Cu8 2.565598 1_555
Cu2 Cu5 2.570300 1_565
Cu2 Na0 3.350017 1_666
Cu3 Si3 2.475336 1_555
Cu3 Si2 2.476734 1_555
Cu3 Si1 2.541217 1_555
Cu3 Si0 2.541664 1_555
Cu3 Cu6 2.565582 1_555
Cu3 Cu7 2.570285 1_545
Cu3 Na0 3.350016 1_556
Cu4 Si6 2.475343 1_556
Cu4 Si5 2.476734 1_556
Cu4 Si4 2.541209 1_455
Cu4 Si7 2.541662 1_455
Cu4 Cu9 2.565594 1_455
Cu4 Na0 3.350013 1_566
Cu5 Si2 2.374797 1_655
Cu5 Si4 2.397057 1_545
Cu5 Cu9 2.505395 1_555
Cu5 Si0 2.565146 1_555
Cu5 Si5 2.572299 1_545
Cu5 Na0 3.264347 1_656
Cu6 Si7 2.374813 1_555
Cu6 Si3 2.397046 1_555
Cu6 Cu9 2.510839 1_555
Cu6 Si5 2.565144 1_545
Cu6 Si0 2.572296 1_555
Cu6 Na0 3.264348 1_555
Cu7 Si4 2.374813 1_455
Cu7 Si2 2.397046 1_565
Cu7 Si1 2.565144 1_565
Cu7 Si6 2.572296 1_555
Cu7 Na0 3.264348 1_566
Cu8 Si3 2.374797 1_555
Cu8 Si7 2.397057 1_555
Cu8 Si6 2.565146 1_555
Cu8 Si1 2.572298 1_565
Cu8 Na0 3.264346 1_555
Cu9 Si0 2.374815 1_555
Cu9 Si6 2.397057 1_656
Cu9 Si2 2.565129 1_655
Cu9 Si7 2.572299 1_555
Cu9 Na0 3.264343 1_656
Cu10 Si5 2.374799 1_545
Cu10 Si1 2.397062 1_554
Cu10 Cu6 2.505401 1_555
Cu10 Cu5 2.510811 1_555
Cu10 Cu15 2.540352 1_655
Cu10 Si7 2.565138 1_555
Cu10 Cu12 2.570293 1_555
Cu10 Si2 2.572300 1_655
Cu10 Na0 3.264344 1_555
Cu11 Si6 2.374815 1_555
Cu11 Si0 2.397057 1_454
Cu11 Cu8 2.505395 1_555
Cu11 Cu7 2.510839 1_555
Cu11 Cu15 2.540337 1_555
Cu11 Si3 2.565129 1_555
Cu11 Cu12 2.565595 1_455
Cu11 Si4 2.572299 1_455
Cu11 Na0 3.264343 1_555
Cu12 Cu13 2.428127 1_555
Cu12 Cu3 2.428135 1_554
Cu12 Cu15 2.435907 1_655
Cu12 Si0 2.475343 1_554
Cu12 Si1 2.476734 1_554
Cu12 Si7 2.541209 1_555
Cu12 Si4 2.541662 1_555
Cu12 Na0 3.350013 1_555
Cu13 Cu17 2.428135 1_554
Cu13 Cu14 2.435912 1_565
Cu13 Si4 2.475337 1_555
Cu13 Si7 2.476733 1_555
Cu13 Si6 2.541217 1_555
Cu13 Si5 2.541664 1_555
Cu13 Cu5 2.565598 1_565
Cu13 Cu8 2.570300 1_555
Cu13 Cu2 2.622942 1_555
Cu13 Na0 3.350016 1_555
Cu14 Si1 2.401916 1_555
Cu14 Si5 2.401916 1_545
Cu14 Si6 2.401917 1_545
Cu14 Si0 2.401917 1_555
Cu14 Cu3 2.435912 1_555
Cu14 Cu2 2.435912 1_545
Cu14 Cu6 2.540344 1_555
Cu14 Cu7 2.540344 1_545
Cu14 Cu8 2.540355 1_545
Cu14 Cu5 2.540355 1_555
Cu15 Si4 2.401916 1_455
Cu15 Si2 2.401916 1_555
Cu15 Si3 2.401917 1_555
Cu15 Si7 2.401917 1_455
Cu15 Cu4 2.435907 1_555
Cu15 Cu17 2.435907 1_555
Cu15 Cu9 2.540337 1_455
Cu15 Cu16 2.540352 1_555
Cu16 Si1 2.374799 1_565
Cu16 Si5 2.397062 1_556
Cu16 Cu7 2.505401 1_555
Cu16 Cu8 2.510811 1_555
Cu16 Si4 2.565139 1_455
Cu16 Cu17 2.565596 1_555
Cu16 Cu4 2.570293 1_555
Cu16 Si3 2.572300 1_555
Cu16 Na0 3.264344 1_566
Cu17 Cu3 2.428127 1_555
Cu17 Si5 2.475337 1_556
Cu17 Si6 2.476740 1_556
Cu17 Si2 2.541215 1_555
Cu17 Si3 2.541656 1_555
Cu17 Cu9 2.570285 1_455
Cu17 Cu4 2.622942 1_555
Cu17 Na0 3.350022 1_556
Si0 Si1 2.662410 1_555
Si2 Si3 2.662410 1_555
Si4 Si7 2.662410 1_555
Si5 Si6 2.662410 1_555
