# generated using pymatgen
data_Y4C2SCl
_symmetry_space_group_name_H-M   'P 1'
_cell_length_a   3.68679569
_cell_length_b   3.68679639
_cell_length_c   13.17237314
_cell_angle_alpha   90.00000000
_cell_angle_beta   90.00000000
_cell_angle_gamma   119.99998490
_symmetry_Int_Tables_number   1
_chemical_formula_structural   Y4C2SCl
_chemical_formula_sum   'Y4 C2 S1 Cl1'
_cell_volume   155.05756057
_cell_formula_units_Z   1
loop_
 _symmetry_equiv_pos_site_id
 _symmetry_equiv_pos_as_xyz
  1  'x, y, z'
loop_
 _atom_site_type_symbol
 _atom_site_label
 _atom_site_symmetry_multiplicity
 _atom_site_fract_x
 _atom_site_fract_y
 _atom_site_fract_z
 _atom_site_occupancy
  Y  Y0  1  0.33333300  0.66666700  0.58917617  1
  Y  Y1  1  0.66666700  0.33333300  0.39087461  1
  Y  Y2  1  0.66666700  0.33333300  0.10912539  1
  Y  Y3  1  0.33333300  0.66666700  0.91082383  1
  C  C0  1  0.00000000  0.00000000  0.00057914  1
  C  C1  1  0.00000000  0.00000000  0.49942086  1
  S  S0  1  0.33333300  0.66666700  0.25000000  1
  Cl  Cl0  1  0.66666700  0.33333300  0.75000000  1
loop_
_geom_bond_atom_site_label_1
_geom_bond_atom_site_label_2
_geom_bond_distance
_geom_bond_site_symmetry_2
C0 Y3 2.434876 1_544
C0 Y3 2.434879 1_444
C0 Y3 2.434880 1_554
C0 Y2 2.564210 1_455
C0 Y2 2.564213 1_555
C0 Y2 2.564213 1_445
C1 Y0 2.434876 1_545
C1 Y0 2.434879 1_445
C1 Y0 2.434880 1_555
C1 Y1 2.564210 1_455
C1 Y1 2.564213 1_555
C1 Y1 2.564213 1_445
S0 Y1 2.823873 1_455
S0 Y2 2.823873 1_455
S0 Y1 2.823874 1_565
S0 Y2 2.823874 1_565
S0 Y1 2.823878 1_555
S0 Y2 2.823878 1_555
Cl0 Y3 3.003093 1_655
Cl0 Y0 3.003093 1_655
Cl0 Y3 3.003093 1_545
Cl0 Y0 3.003093 1_545
Cl0 Y3 3.003097 1_555
Cl0 Y0 3.003097 1_555
