# generated using pymatgen
data_Li6Ca6Ag10N
_symmetry_space_group_name_H-M   'P 1'
_cell_length_a   8.42746720
_cell_length_b   8.43462312
_cell_length_c   8.43462269
_cell_angle_alpha   109.30286444
_cell_angle_beta   109.31073192
_cell_angle_gamma   109.83518685
_symmetry_Int_Tables_number   1
_chemical_formula_structural   Li6Ca6Ag10N
_chemical_formula_sum   'Li6 Ca6 Ag10 N1'
_cell_volume   461.32701723
_cell_formula_units_Z   1
loop_
 _symmetry_equiv_pos_site_id
 _symmetry_equiv_pos_as_xyz
  1  'x, y, z'
loop_
 _atom_site_type_symbol
 _atom_site_label
 _atom_site_symmetry_multiplicity
 _atom_site_fract_x
 _atom_site_fract_y
 _atom_site_fract_z
 _atom_site_occupancy
  Li  Li0  1  0.67373195  0.34032090  0.33341205  1
  Li  Li1  1  0.34408960  0.00230497  0.66623878  1
  Li  Li2  1  0.34408960  0.67784982  0.34178463  1
  Li  Li3  1  0.35277594  0.34561883  0.68309878  1
  Li  Li4  1  0.35277594  0.66967617  0.00715712  1
  Li  Li5  1  0.00026645  0.34040176  0.65986569  1
  Ca  Ca0  1  0.99386034  0.25121754  0.24779145  1
  Ca  Ca1  1  0.25049847  0.99894216  0.25155632  1
  Ca  Ca2  1  0.74574432  0.99912694  0.74661738  1
  Ca  Ca3  1  0.74908627  0.74555835  0.00352792  1
  Ca  Ca4  1  0.25326866  0.25009263  0.00317602  1
  Ca  Ca5  1  0.99386034  0.74606889  0.74264280  1
  Ag  Ag0  1  0.49152263  0.49239947  0.49255358  1
  Ag  Ag1  1  0.49152263  0.99896905  0.99912216  1
  Ag  Ag2  1  0.01142530  0.50015189  0.99950190  1
  Ag  Ag3  1  0.01142530  0.01192340  0.51127342  1
  Ag  Ag4  1  0.01499360  0.66345970  0.35153390  1
  Ag  Ag5  1  0.65460894  0.65500428  0.30678052  1
  Ag  Ag6  1  0.65884493  0.00879985  0.35120974  1
  Ag  Ag7  1  0.65460894  0.34783042  0.99960466  1
  Ag  Ag8  1  0.65884493  0.30763619  0.65004508  1
  Ag  Ag9  1  0.30354452  0.65032454  0.65321899  1
  N  N0  1  0.99461137  0.99632325  0.99828712  1
loop_
_geom_bond_atom_site_label_1
_geom_bond_atom_site_label_2
_geom_bond_distance
_geom_bond_site_symmetry_2
Ca0 N0 2.465337 1_544
Ca1 N0 2.470634 1_454
Ca2 N0 2.455129 1_555
Ca3 N0 2.430910 1_554
Ca4 N0 2.459817 1_444
Ca5 N0 2.465327 1_555
Ag0 Li3 2.656869 1_555
Ag0 Li2 2.682660 1_555
Ag0 Li0 2.714170 1_555
Ag0 Ag9 2.789065 1_555
Ag0 Ag5 2.791271 1_555
Ag0 Ag8 2.793329 1_555
Ag1 Li4 2.656881 1_556
Ag1 Li1 2.682660 1_565
Ag1 Li0 2.714183 1_566
Ag1 Ag9 2.789069 1_555
Ag1 Ag7 2.791282 1_565
Ag1 Ag6 2.793344 1_566
Ag2 Li5 2.686046 1_555
Ag2 Li4 2.710885 1_556
Ag2 Li2 2.715810 1_556
Ag2 Ag8 2.814705 1_455
Ag2 Ag4 2.814887 1_556
Ag2 Ag7 2.841423 1_455
Ag3 Li5 2.686055 1_555
Ag3 Li3 2.710887 1_555
Ag3 Li1 2.715809 1_555
Ag3 Ag6 2.814704 1_455
Ag3 Ag4 2.814888 1_545
Ag3 Ag5 2.841425 1_445
Ag4 Li1 2.764502 1_565
Ag4 Li2 2.764505 1_555
Ag4 Ag7 2.906661 1_454
Ag4 Ag5 2.906665 1_455
Ag4 Ag9 2.945738 1_555
Ag4 Li0 3.136482 1_455
Ag4 Ca5 3.217581 1_455
Ag4 Ca0 3.217581 1_455
Ag4 Ca1 3.395651 1_555
Ag4 Ca3 3.487650 1_455
Ag5 Li0 2.789608 1_555
Ag5 Li2 2.790702 1_555
Ag5 Ag6 2.868150 1_565
Ag5 Ag7 2.997931 1_554
Ag5 Li4 3.006857 1_555
Ag5 Ca3 3.160000 1_555
Ag5 Ca4 3.211220 1_555
Ag5 Ca5 3.459868 1_555
Ag5 Ca2 3.501623 1_555
Ag6 Li5 2.765829 1_655
Ag6 Li4 2.794815 1_545
Ag6 Li0 2.812333 1_555
Ag6 Ag8 2.916545 1_555
Ag6 Li2 3.086025 1_545
Ag6 Ca2 3.204843 1_545
Ag6 Ca1 3.225317 1_545
Ag6 Ca0 3.435587 1_555
Ag6 Ca3 3.524829 1_545
Ag7 Li0 2.789619 1_556
Ag7 Li1 2.790712 1_555
Ag7 Ag8 2.868148 1_555
Ag7 Li3 3.006852 1_555
Ag7 Ca3 3.159984 1_556
Ag7 Ca4 3.211219 1_556
Ag7 Ca0 3.459880 1_556
Ag7 Ca2 3.501635 1_545
Ag8 Li5 2.765826 1_655
Ag8 Li3 2.794808 1_555
Ag8 Li0 2.812324 1_555
Ag8 Li1 3.086025 1_555
Ag8 Ca2 3.204852 1_545
Ag8 Ca1 3.225318 1_545
Ag8 Ca5 3.435581 1_555
Ag8 Ca3 3.524823 1_556
Ag9 Li3 2.814899 1_555
Ag9 Li4 2.814908 1_556
Ag9 Li2 2.830881 1_555
Ag9 Li1 2.830890 1_565
Ag9 Li5 3.004426 1_555
Ag9 Ca0 3.218989 1_455
Ag9 Ca5 3.218996 1_455
Ag9 Ca2 3.499928 1_555
Ag9 Ca3 3.538434 1_556
