# generated using pymatgen
data_SrSb12Ru3Rh
_symmetry_space_group_name_H-M   'P 1'
_cell_length_a   8.09908213
_cell_length_b   8.09888747
_cell_length_c   8.09839939
_cell_angle_alpha   109.46147755
_cell_angle_beta   109.46460298
_cell_angle_gamma   109.46896708
_symmetry_Int_Tables_number   1
_chemical_formula_structural   SrSb12Ru3Rh
_chemical_formula_sum   'Sr1 Sb12 Ru3 Rh1'
_cell_volume   409.01402044
_cell_formula_units_Z   1
loop_
 _symmetry_equiv_pos_site_id
 _symmetry_equiv_pos_as_xyz
  1  'x, y, z'
loop_
 _atom_site_type_symbol
 _atom_site_label
 _atom_site_symmetry_multiplicity
 _atom_site_fract_x
 _atom_site_fract_y
 _atom_site_fract_z
 _atom_site_occupancy
  Sr  Sr0  1  0.00000000  0.00000000  0.00000000  1
  Sb  Sb0  1  0.15589200  0.50098738  0.34231788  1
  Sb  Sb1  1  0.49898667  0.65767330  0.84408026  1
  Sb  Sb2  1  0.34230855  0.84164747  0.18367302  1
  Sb  Sb3  1  0.81634242  0.65765685  0.15837130  1
  Sb  Sb4  1  0.65770348  0.84410517  0.49900608  1
  Sb  Sb5  1  0.18365758  0.34234315  0.84162870  1
  Sb  Sb6  1  0.65769145  0.15835253  0.81632698  1
  Sb  Sb7  1  0.34229652  0.15589483  0.50099392  1
  Sb  Sb8  1  0.50101333  0.34232670  0.15591974  1
  Sb  Sb9  1  0.84410800  0.49901262  0.65768212  1
  Sb  Sb10  1  0.84166207  0.18366234  0.34239383  1
  Sb  Sb11  1  0.15833793  0.81633766  0.65760617  1
  Ru  Ru0  1  0.50000000  0.00000000  0.00000000  1
  Ru  Ru1  1  0.00000000  0.50000000  0.00000000  1
  Ru  Ru2  1  0.00000000  0.00000000  0.50000000  1
  Rh  Rh0  1  0.50000000  0.50000000  0.50000000  1
loop_
_geom_bond_atom_site_label_1
_geom_bond_atom_site_label_2
_geom_bond_distance
_geom_bond_site_symmetry_2
Sb0 Sb11 2.937677 1_555
Sb0 Sb10 2.953628 1_455
Sb0 Sr0 3.535461 1_555
Sb1 Sb5 2.937601 1_555
Sb1 Sb3 2.953850 1_556
Sb1 Sr0 3.535494 1_666
Sb2 Sb4 2.937963 1_555
Sb2 Sb7 2.953538 1_565
Sb2 Sr0 3.526518 1_565
Sb3 Sb8 2.937601 1_555
Sb3 Sr0 3.526559 1_665
Sb4 Sb6 2.953538 1_565
Sb4 Sr0 3.535277 1_666
Sb5 Sb8 2.953850 1_556
Sb5 Sr0 3.526559 1_556
Sb6 Sb7 2.937963 1_555
Sb6 Sr0 3.526518 1_656
Sb7 Sr0 3.535277 1_555
Sb8 Sr0 3.535494 1_555
Sb9 Sr0 3.535461 1_666
Sb10 Sb9 2.937677 1_555
Sb10 Sr0 3.526857 1_655
Sb11 Sb9 2.953628 1_455
Sb11 Sr0 3.526857 1_566
Ru0 Sb8 2.631773 1_555
Ru0 Sb1 2.631773 1_544
Ru0 Sb6 2.633209 1_554
Ru0 Sb2 2.633209 1_545
Ru0 Sb10 2.636794 1_555
Ru0 Sb11 2.636794 1_544
Ru1 Sb0 2.631584 1_555
Ru1 Sb9 2.631584 1_454
Ru1 Sb3 2.633254 1_455
Ru1 Sb5 2.633254 1_554
Ru1 Sb2 2.636368 1_555
Ru1 Sb6 2.636368 1_454
Ru2 Sb7 2.631516 1_555
Ru2 Sb4 2.631516 1_445
Ru2 Sb11 2.632856 1_545
Ru2 Sb10 2.632856 1_455
Ru2 Sb5 2.636481 1_555
Ru2 Sb3 2.636481 1_445
Rh0 Sb1 2.654522 1_555
Rh0 Sb8 2.654522 1_555
Rh0 Sb4 2.654641 1_555
Rh0 Sb7 2.654641 1_555
Rh0 Sb9 2.654754 1_555
Rh0 Sb0 2.654754 1_555
