# generated using pymatgen
data_Ca7TaSi2N9
_symmetry_space_group_name_H-M   'P 1'
_cell_length_a   9.90355565
_cell_length_b   6.03819191
_cell_length_c   8.97686344
_cell_angle_alpha   88.12839960
_cell_angle_beta   90.00000000
_cell_angle_gamma   90.00000000
_symmetry_Int_Tables_number   1
_chemical_formula_structural   Ca7TaSi2N9
_chemical_formula_sum   'Ca14 Ta2 Si4 N18'
_cell_volume   536.52619497
_cell_formula_units_Z   2
loop_
 _symmetry_equiv_pos_site_id
 _symmetry_equiv_pos_as_xyz
  1  'x, y, z'
loop_
 _atom_site_type_symbol
 _atom_site_label
 _atom_site_symmetry_multiplicity
 _atom_site_fract_x
 _atom_site_fract_y
 _atom_site_fract_z
 _atom_site_occupancy
  Ca  Ca0  1  0.94270970  0.43139387  0.16578616  1
  Ca  Ca1  1  0.07847458  0.24826270  0.49496827  1
  Ca  Ca2  1  0.25000000  0.09133927  0.80026400  1
  Ca  Ca3  1  0.44270970  0.56860613  0.83421384  1
  Ca  Ca4  1  0.57847458  0.75173730  0.50503173  1
  Ca  Ca5  1  0.57765674  0.06849432  0.83058813  1
  Ca  Ca6  1  0.92234326  0.06849432  0.83058813  1
  Ca  Ca7  1  0.42234326  0.93150568  0.16941187  1
  Ca  Ca8  1  0.42152542  0.24826270  0.49496827  1
  Ca  Ca9  1  0.07765674  0.93150568  0.16941187  1
  Ca  Ca10  1  0.92152542  0.75173730  0.50503173  1
  Ca  Ca11  1  0.05729030  0.56860613  0.83421384  1
  Ca  Ca12  1  0.75000000  0.90866073  0.19973600  1
  Ca  Ca13  1  0.55729030  0.43139387  0.16578616  1
  Ta  Ta0  1  0.75000000  0.27973113  0.43967049  1
  Ta  Ta1  1  0.25000000  0.72026887  0.56032951  1
  Si  Si0  1  0.25000000  0.32344578  0.06227499  1
  Si  Si1  1  0.75000000  0.45885977  0.72262029  1
  Si  Si2  1  0.75000000  0.67655422  0.93772501  1
  Si  Si3  1  0.25000000  0.54114023  0.27737971  1
  N  N0  1  0.39921659  0.23267045  0.98238974  1
  N  N1  1  0.25000000  0.24757186  0.25901110  1
  N  N2  1  0.90130707  0.11580927  0.34288958  1
  N  N3  1  0.61119972  0.36486051  0.62922625  1
  N  N4  1  0.75000000  0.55694778  0.33321304  1
  N  N5  1  0.25000000  0.61928579  0.08445592  1
  N  N6  1  0.88880028  0.36486051  0.62922625  1
  N  N7  1  0.38880028  0.63513949  0.37077375  1
  N  N8  1  0.75000000  0.38071421  0.91554408  1
  N  N9  1  0.09869293  0.88419073  0.65711042  1
  N  N10  1  0.75000000  0.75242814  0.74098890  1
  N  N11  1  0.11119972  0.63513949  0.37077375  1
  N  N12  1  0.60078341  0.76732955  0.01761026  1
  N  N13  1  0.25000000  0.44305222  0.66678696  1
  N  N14  1  0.40130707  0.88419073  0.65711042  1
  N  N15  1  0.59869293  0.11580927  0.34288958  1
  N  N16  1  0.10078341  0.23267045  0.98238974  1
  N  N17  1  0.89921659  0.76732955  0.01761026  1
loop_
_geom_bond_atom_site_label_1
_geom_bond_atom_site_label_2
_geom_bond_distance
_geom_bond_site_symmetry_2
Ca0 N17 2.427589 1_555
Ca0 N2 2.475676 1_555
Ca0 N4 2.559394 1_555
Ca0 N16 2.594228 1_654
Ca0 N11 2.798559 1_655
Ca0 N8 2.971065 1_554
Ca1 N6 2.352066 1_455
Ca1 N2 2.377665 1_455
Ca1 N11 2.575837 1_555
Ca1 N13 2.601247 1_555
Ca1 N9 2.604291 1_545
Ca1 N1 2.715290 1_555
Ca2 N14 2.359309 1_545
Ca2 N9 2.359309 1_545
Ca2 N0 2.382472 1_555
Ca2 N16 2.382472 1_555
Ca2 N13 2.404085 1_555
Ca3 N0 2.427589 1_555
Ca3 N14 2.475676 1_555
Ca3 N13 2.559394 1_555
Ca3 N12 2.594228 1_556
Ca3 N3 2.798559 1_555
Ca3 N5 2.971065 1_556
Ca4 N7 2.352066 1_555
Ca4 N14 2.377665 1_555
Ca4 N3 2.575837 1_555
Ca4 N4 2.601247 1_555
Ca4 N15 2.604291 1_565
Ca4 N10 2.715290 1_555
Ca5 N12 2.445109 1_546
Ca5 N0 2.459856 1_555
Ca5 N3 2.523656 1_555
Ca5 N14 2.612857 1_545
Ca5 N8 2.672616 1_555
Ca5 N10 2.702342 1_545
Ca6 N17 2.445109 1_546
Ca6 N16 2.459856 1_655
Ca6 N6 2.523656 1_555
Ca6 N9 2.612857 1_645
Ca6 N8 2.672616 1_555
Ca6 N10 2.702342 1_545
Ca7 N0 2.445109 1_564
Ca7 N12 2.459856 1_555
Ca7 N7 2.523656 1_555
Ca7 N15 2.612857 1_565
Ca7 N5 2.672616 1_555
Ca7 N1 2.702342 1_565
Ca8 N3 2.352066 1_555
Ca8 N15 2.377665 1_555
Ca8 N7 2.575837 1_555
Ca8 N13 2.601247 1_555
Ca8 N14 2.604291 1_545
Ca8 N1 2.715290 1_555
Ca9 N16 2.445109 1_564
Ca9 N17 2.459856 1_455
Ca9 N11 2.523656 1_555
Ca9 N2 2.612857 1_465
Ca9 N5 2.672616 1_555
Ca9 N1 2.702342 1_565
Ca10 N11 2.352066 1_655
Ca10 N9 2.377665 1_655
Ca10 N6 2.575837 1_555
Ca10 N4 2.601247 1_555
Ca10 N2 2.604291 1_565
Ca10 N10 2.715290 1_555
Ca11 N16 2.427589 1_555
Ca11 N9 2.475676 1_555
Ca11 N13 2.559394 1_555
Ca11 N17 2.594228 1_456
Ca11 N6 2.798559 1_455
Ca11 N5 2.971065 1_556
Ca12 N2 2.359309 1_565
Ca12 N15 2.359309 1_565
Ca12 N17 2.382472 1_555
Ca12 N12 2.382472 1_555
Ca12 N4 2.404085 1_555
Ca13 N12 2.427589 1_555
Ca13 N15 2.475676 1_555
Ca13 N4 2.559394 1_555
Ca13 N0 2.594228 1_554
Ca13 N7 2.798559 1_555
Ca13 N8 2.971065 1_554
N0 Si0 1.739019 1_556
N1 Si3 1.785629 1_555
N1 Si0 1.809988 1_555
N2 Ta0 2.009002 1_555
N3 Si1 1.716303 1_555
N3 Ta0 2.259740 1_555
N4 Ta0 1.900180 1_555
N5 Si3 1.780050 1_555
N5 Si0 1.803853 1_555
N6 Si1 1.716303 1_555
N6 Ta0 2.259740 1_555
N7 Si3 1.716303 1_555
N7 Ta1 2.259740 1_555
N8 Si1 1.780050 1_555
N8 Si2 1.803853 1_555
N9 Ta1 2.009002 1_555
N10 Si1 1.785629 1_555
N10 Si2 1.809988 1_555
N11 Si3 1.716303 1_555
N11 Ta1 2.259740 1_555
N12 Si2 1.739019 1_554
N13 Ta1 1.900180 1_555
N14 Ta1 2.009002 1_555
N15 Ta0 2.009002 1_555
N16 Si0 1.739019 1_556
N17 Si2 1.739019 1_554
