# generated using pymatgen
data_Zr2BeCuNi5
_symmetry_space_group_name_H-M   'P 1'
_cell_length_a   4.60006935
_cell_length_b   4.76251002
_cell_length_c   6.29569836
_cell_angle_alpha   81.47686450
_cell_angle_beta   82.13641928
_cell_angle_gamma   121.53060596
_symmetry_Int_Tables_number   1
_chemical_formula_structural   Zr2BeCuNi5
_chemical_formula_sum   'Zr2 Be1 Cu1 Ni5'
_cell_volume   112.44319333
_cell_formula_units_Z   1
loop_
 _symmetry_equiv_pos_site_id
 _symmetry_equiv_pos_as_xyz
  1  'x, y, z'
loop_
 _atom_site_type_symbol
 _atom_site_label
 _atom_site_symmetry_multiplicity
 _atom_site_fract_x
 _atom_site_fract_y
 _atom_site_fract_z
 _atom_site_occupancy
  Zr  Zr0  1  0.61353383  0.61746409  0.22829091  1
  Zr  Zr1  1  0.38346942  0.38634273  0.77163212  1
  Be  Be0  1  0.49914565  0.99916957  0.50629555  1
  Cu  Cu0  1  0.31066790  0.97508434  0.15750637  1
  Ni  Ni0  1  0.00095928  0.00071170  0.49830560  1
  Ni  Ni1  1  0.03563621  0.70295299  0.84033468  1
  Ni  Ni2  1  0.69506947  0.02157765  0.83816577  1
  Ni  Ni3  1  0.96115890  0.29691940  0.15864899  1
  Ni  Ni4  1  0.00035933  0.49977854  0.50082002  1
loop_
_geom_bond_atom_site_label_1
_geom_bond_atom_site_label_2
_geom_bond_distance
_geom_bond_site_symmetry_2
Zr0 Zr1 3.272281 1_555
Zr0 Zr1 3.339064 1_554
Be0 Ni4 2.281632 1_665
Be0 Ni4 2.293616 1_555
Be0 Ni0 2.298168 1_665
Be0 Ni0 2.302927 1_565
Be0 Ni2 2.381139 1_565
Be0 Ni1 2.388852 1_555
Be0 Ni3 2.443999 1_565
Be0 Cu0 2.465423 1_555
Be0 Zr1 2.858270 1_565
Be0 Zr1 2.877344 1_555
Be0 Zr0 2.887291 1_555
Be0 Zr0 2.934418 1_565
Cu0 Ni2 2.388216 1_564
Cu0 Ni0 2.463970 1_565
Cu0 Ni4 2.481791 1_555
Cu0 Ni3 2.552529 1_565
Cu0 Ni1 2.647834 1_554
Cu0 Zr0 2.656080 1_455
Cu0 Zr0 2.732600 1_555
Cu0 Ni3 2.740764 1_465
Cu0 Zr1 2.744271 1_564
Cu0 Ni3 2.752310 1_455
Cu0 Zr0 2.759570 1_565
Ni0 Ni4 2.380649 1_555
Ni0 Ni4 2.381958 1_545
Ni0 Ni2 2.439964 1_455
Ni0 Ni3 2.465626 1_455
Ni0 Ni1 2.469533 1_545
Ni0 Zr0 2.782779 1_445
Ni0 Zr1 2.795627 1_555
Ni0 Zr0 2.830226 1_555
Ni0 Zr1 2.840433 1_445
Ni1 Ni3 2.417294 1_456
Ni1 Ni4 2.464793 1_555
Ni1 Ni2 2.583158 1_565
Ni1 Ni2 2.691341 1_465
Ni1 Zr1 2.697761 1_455
Ni1 Zr1 2.699383 1_565
Ni1 Zr0 2.735371 1_456
Ni1 Zr1 2.747413 1_555
Ni1 Ni2 2.772491 1_455
Ni2 Ni4 2.464660 1_655
Ni2 Zr1 2.624664 1_655
Ni2 Ni3 2.658955 1_556
Ni2 Zr1 2.717898 1_545
Ni2 Zr0 2.732944 1_546
Ni2 Zr1 2.793004 1_555
Ni3 Ni4 2.479414 1_655
Ni3 Zr0 2.682534 1_545
Ni3 Zr0 2.700999 1_655
Ni3 Zr1 2.724689 1_654
Ni3 Zr0 2.763993 1_555
Ni4 Zr1 2.801691 1_555
Ni4 Zr0 2.819792 1_555
Ni4 Zr0 2.831572 1_455
Ni4 Zr1 2.837451 1_455
