# generated using pymatgen
data_HfTi3(PN3)4
_symmetry_space_group_name_H-M   'P 1'
_cell_length_a   6.59115932
_cell_length_b   6.59115846
_cell_length_c   5.33708868
_cell_angle_alpha   73.87673146
_cell_angle_beta   73.87673372
_cell_angle_gamma   80.40435345
_symmetry_Int_Tables_number   1
_chemical_formula_structural   HfTi3(PN3)4
_chemical_formula_sum   'Hf1 Ti3 P4 N12'
_cell_volume   212.96974639
_cell_formula_units_Z   1
loop_
 _symmetry_equiv_pos_site_id
 _symmetry_equiv_pos_as_xyz
  1  'x, y, z'
loop_
 _atom_site_type_symbol
 _atom_site_label
 _atom_site_symmetry_multiplicity
 _atom_site_fract_x
 _atom_site_fract_y
 _atom_site_fract_z
 _atom_site_occupancy
  Hf  Hf0  1  0.71713584  0.28286416  0.75000000  1
  Ti  Ti0  1  0.89271598  0.10728402  0.25000000  1
  Ti  Ti1  1  0.27922521  0.72077479  0.25000000  1
  Ti  Ti2  1  0.11069688  0.88930312  0.75000000  1
  P  P0  1  0.20328991  0.37689681  0.71147680  1
  P  P1  1  0.37504263  0.20222893  0.21538546  1
  P  P2  1  0.79777107  0.62495737  0.28461454  1
  P  P3  1  0.62310319  0.79671009  0.78852320  1
  N  N0  1  0.37410128  0.31629845  0.89940380  1
  N  N1  1  0.02032609  0.21589541  0.84352711  1
  N  N2  1  0.98589910  0.78193908  0.15607596  1
  N  N3  1  0.31363492  0.38047572  0.39408884  1
  N  N4  1  0.62508352  0.12821204  0.17324000  1
  N  N5  1  0.37130978  0.86651369  0.84243623  1
  N  N6  1  0.87178796  0.37491648  0.32676000  1
  N  N7  1  0.61952428  0.68636508  0.10591116  1
  N  N8  1  0.78410459  0.97967391  0.65647289  1
  N  N9  1  0.13348631  0.62869022  0.65756377  1
  N  N10  1  0.21806092  0.01410090  0.34392404  1
  N  N11  1  0.68370155  0.62589872  0.60059620  1
loop_
_geom_bond_atom_site_label_1
_geom_bond_atom_site_label_2
_geom_bond_distance
_geom_bond_site_symmetry_2
Hf0 N8 2.138944 1_545
Hf0 N1 2.138944 1_655
Hf0 N4 2.162357 1_556
Hf0 N6 2.162357 1_555
Hf0 N11 2.174081 1_555
Hf0 N0 2.174081 1_555
N0 P0 1.639447 1_555
N0 P1 1.646016 1_556
N1 P0 1.617506 1_555
N1 Ti0 2.061769 1_456
N1 Ti2 2.289525 1_545
N2 P2 1.624746 1_555
N2 Ti2 2.055851 1_654
N2 Ti1 2.077949 1_655
N2 Ti0 2.283397 1_565
N3 P0 1.642613 1_555
N3 P1 1.644130 1_555
N3 Ti1 2.154757 1_555
N4 P1 1.609877 1_555
N4 Ti0 1.894058 1_555
N5 P3 1.613232 1_555
N5 Ti2 1.886816 1_555
N5 Ti1 2.079234 1_556
N6 P2 1.609877 1_555
N6 Ti0 1.894058 1_555
N7 P3 1.642613 1_554
N7 P2 1.644130 1_555
N7 Ti1 2.154757 1_555
N8 P3 1.617506 1_555
N8 Ti0 2.061769 1_565
N8 Ti2 2.289525 1_655
N9 P0 1.613232 1_555
N9 Ti2 1.886816 1_555
N9 Ti1 2.079234 1_555
N10 P1 1.624746 1_555
N10 Ti2 2.055851 1_545
N10 Ti1 2.077949 1_545
N10 Ti0 2.283397 1_455
N11 P3 1.639447 1_555
N11 P2 1.646016 1_555
