# generated using pymatgen
data_Sc(Te4Mo3)2
_symmetry_space_group_name_H-M   'P 1'
_cell_length_a   7.26326509
_cell_length_b   7.38842144
_cell_length_c   7.32832558
_cell_angle_alpha   91.81181157
_cell_angle_beta   96.04048153
_cell_angle_gamma   99.27345052
_symmetry_Int_Tables_number   1
_chemical_formula_structural   Sc(Te4Mo3)2
_chemical_formula_sum   'Sc1 Te8 Mo6'
_cell_volume   385.49993745
_cell_formula_units_Z   1
loop_
 _symmetry_equiv_pos_site_id
 _symmetry_equiv_pos_as_xyz
  1  'x, y, z'
loop_
 _atom_site_type_symbol
 _atom_site_label
 _atom_site_symmetry_multiplicity
 _atom_site_fract_x
 _atom_site_fract_y
 _atom_site_fract_z
 _atom_site_occupancy
  Sc  Sc0  1  0.98835169  0.99560615  0.50040691  1
  Te  Te0  1  0.79803320  0.80190086  0.79208444  1
  Te  Te1  1  0.17917765  0.18973547  0.20900918  1
  Te  Te2  1  0.86849905  0.30667463  0.65207828  1
  Te  Te3  1  0.10881550  0.68515410  0.34933332  1
  Te  Te4  1  0.27980295  0.60777862  0.87421087  1
  Te  Te5  1  0.69754899  0.38358682  0.12703105  1
  Te  Te6  1  0.61596143  0.89448905  0.27280576  1
  Te  Te7  1  0.36074169  0.09643932  0.72783879  1
  Mo  Mo0  1  0.57096448  0.45621859  0.74877956  1
  Mo  Mo1  1  0.40609532  0.53512519  0.25241283  1
  Mo  Mo2  1  0.73272054  0.59002153  0.45831039  1
  Mo  Mo3  1  0.24437107  0.40139496  0.54292075  1
  Mo  Mo4  1  0.45199393  0.74040806  0.57865463  1
  Mo  Mo5  1  0.52512150  0.25096764  0.42252825  1
loop_
_geom_bond_atom_site_label_1
_geom_bond_atom_site_label_2
_geom_bond_distance
_geom_bond_site_symmetry_2
Sc0 Te3 2.818274 1_655
Sc0 Te2 2.821766 1_565
Sc0 Te0 2.950550 1_555
Sc0 Te1 2.952010 1_665
Sc0 Te7 2.995320 1_665
Sc0 Te6 2.996064 1_555
Mo0 Mo3 2.639222 1_555
Mo0 Mo2 2.678412 1_555
Mo0 Mo4 2.689495 1_555
Mo0 Te2 2.726826 1_555
Mo0 Mo5 2.750876 1_555
Mo0 Te4 2.770997 1_555
Mo0 Te0 2.797307 1_555
Mo0 Te7 2.835098 1_555
Mo0 Te5 2.921251 1_556
Mo1 Mo2 2.639539 1_555
Mo1 Mo3 2.678374 1_555
Mo1 Mo5 2.689424 1_555
Mo1 Te3 2.727602 1_555
Mo1 Mo4 2.750912 1_555
Mo1 Te5 2.772602 1_555
Mo1 Te1 2.795091 1_555
Mo1 Te6 2.831634 1_555
Mo1 Te4 2.920441 1_554
Mo2 Mo4 2.686360 1_555
Mo2 Mo5 2.697335 1_555
Mo2 Te5 2.791983 1_555
Mo2 Te2 2.816079 1_555
Mo2 Te0 2.816548 1_555
Mo2 Te6 2.862386 1_555
Mo2 Te3 2.910277 1_655
Mo2 Sc0 3.248099 1_555
Mo3 Mo5 2.686807 1_555
Mo3 Mo4 2.697149 1_555
Mo3 Te4 2.791694 1_555
Mo3 Te1 2.816586 1_555
Mo3 Te3 2.817241 1_555
Mo3 Te7 2.862386 1_555
Mo3 Te2 2.908977 1_455
Mo3 Sc0 3.250531 1_445
Mo4 Te4 2.743177 1_555
Mo4 Te0 2.780200 1_555
Mo4 Te3 2.819746 1_555
Mo4 Te6 2.832702 1_555
Mo4 Te7 3.014410 1_565
Mo5 Te5 2.743613 1_555
Mo5 Te1 2.779936 1_555
Mo5 Te2 2.821681 1_555
Mo5 Te7 2.831862 1_555
Mo5 Te6 3.017596 1_545
