# generated using pymatgen
data_Y2CoNiOs2
_symmetry_space_group_name_H-M   'P 1'
_cell_length_a   5.31390003
_cell_length_b   5.31390070
_cell_length_c   5.28899578
_cell_angle_alpha   58.41419506
_cell_angle_beta   58.41418861
_cell_angle_gamma   57.13752594
_symmetry_Int_Tables_number   1
_chemical_formula_structural   Y2CoNiOs2
_chemical_formula_sum   'Y2 Co1 Ni1 Os2'
_cell_volume   100.69722364
_cell_formula_units_Z   1
loop_
 _symmetry_equiv_pos_site_id
 _symmetry_equiv_pos_as_xyz
  1  'x, y, z'
loop_
 _atom_site_type_symbol
 _atom_site_label
 _atom_site_symmetry_multiplicity
 _atom_site_fract_x
 _atom_site_fract_y
 _atom_site_fract_z
 _atom_site_occupancy
  Y  Y0  1  0.12075680  0.12075680  0.12672210  1
  Y  Y1  1  0.87924320  0.87924320  0.87327790  1
  Co  Co0  1  0.50000000  0.50000000  0.00000000  1
  Ni  Ni0  1  0.50000000  0.50000000  0.50000000  1
  Os  Os0  1  0.50000000  0.00000000  0.50000000  1
  Os  Os1  1  0.00000000  0.50000000  0.50000000  1
loop_
_geom_bond_atom_site_label_1
_geom_bond_atom_site_label_2
_geom_bond_distance
_geom_bond_site_symmetry_2
Co0 Os1 2.586958 1_555
Co0 Os1 2.586958 1_654
Co0 Os0 2.586959 1_564
Co0 Os0 2.586959 1_555
Co0 Ni0 2.644498 1_554
Co0 Ni0 2.644498 1_555
Co0 Y0 3.013014 1_655
Co0 Y1 3.013014 1_454
Co0 Y0 3.013014 1_565
Co0 Y1 3.013014 1_544
Co0 Y1 3.185815 1_554
Co0 Y0 3.185815 1_555
Ni0 Os1 2.656950 1_655
Ni0 Os1 2.656950 1_555
Ni0 Os0 2.656950 1_555
Ni0 Os0 2.656950 1_565
Ni0 Y0 2.995245 1_655
Ni0 Y1 2.995245 1_455
Ni0 Y1 2.995245 1_545
Ni0 Y0 2.995245 1_565
Ni0 Y1 3.085793 1_554
Ni0 Y0 3.085793 1_556
Os0 Os1 2.541177 1_645
Os0 Os1 2.541177 1_555
Os0 Y0 3.047549 1_556
Os0 Y1 3.047549 1_544
Os0 Y0 3.055897 1_655
Os0 Y1 3.055897 1_445
Os0 Y1 3.131787 1_545
Os0 Y0 3.131787 1_555
Os1 Y0 3.047549 1_556
Os1 Y1 3.047549 1_454
Os1 Y0 3.055897 1_565
Os1 Y1 3.055897 1_445
Os1 Y1 3.131787 1_455
Os1 Y0 3.131787 1_555
