# generated using pymatgen
data_CdSb2PbO7
_symmetry_space_group_name_H-M   'P 1'
_cell_length_a   7.42550969
_cell_length_b   7.42550965
_cell_length_c   7.42551025
_cell_angle_alpha   120.65489900
_cell_angle_beta   119.73767695
_cell_angle_gamma   89.66220551
_symmetry_Int_Tables_number   1
_chemical_formula_structural   CdSb2PbO7
_chemical_formula_sum   'Cd2 Sb4 Pb2 O14'
_cell_volume   288.62250041
_cell_formula_units_Z   2
loop_
 _symmetry_equiv_pos_site_id
 _symmetry_equiv_pos_as_xyz
  1  'x, y, z'
loop_
 _atom_site_type_symbol
 _atom_site_label
 _atom_site_symmetry_multiplicity
 _atom_site_fract_x
 _atom_site_fract_y
 _atom_site_fract_z
 _atom_site_occupancy
  Cd  Cd0  1  0.00000000  0.00000000  0.00000000  1
  Cd  Cd1  1  0.50000000  0.50000000  0.00000000  1
  Sb  Sb0  1  0.50000000  0.00000000  0.00000000  1
  Sb  Sb1  1  0.50000000  0.50000000  0.50000000  1
  Sb  Sb2  1  0.50000000  0.00000000  0.50000000  1
  Sb  Sb3  1  0.00000000  0.50000000  0.50000000  1
  Pb  Pb0  1  0.00000000  0.00000000  0.50000000  1
  Pb  Pb1  1  0.00000000  0.50000000  0.00000000  1
  O  O0  1  0.44432558  0.08399502  0.76701608  1
  O  O1  1  0.55567442  0.32269150  0.63966945  1
  O  O2  1  0.18302206  0.41600498  0.36033055  1
  O  O3  1  0.81697794  0.17730850  0.23298392  1
  O  O4  1  0.55567442  0.91600498  0.23298392  1
  O  O5  1  0.44432558  0.67730850  0.36033055  1
  O  O6  1  0.81697794  0.58399502  0.63966945  1
  O  O7  1  0.18302206  0.82269150  0.76701608  1
  O  O8  1  0.59712442  0.75000000  0.84712442  1
  O  O9  1  0.40287558  0.25000000  0.15287558  1
  O  O10  1  0.18288083  0.91896199  0.26391884  1
  O  O11  1  0.81711917  0.08103801  0.73608116  1
  O  O12  1  0.84495585  0.58103801  0.26391884  1
  O  O13  1  0.15504415  0.41896199  0.73608116  1
loop_
_geom_bond_atom_site_label_1
_geom_bond_atom_site_label_2
_geom_bond_distance
_geom_bond_site_symmetry_2
Cd0 O10 2.144649 1_545
Cd0 O11 2.144649 1_454
Cd0 O2 2.561652 1_555
Cd0 O6 2.561652 1_444
Cd0 O7 2.561658 1_544
Cd0 O3 2.561658 1_455
Cd1 O12 2.144643 1_555
Cd1 O13 2.144643 1_554
Cd1 O4 2.561652 1_555
Cd1 O0 2.561652 1_554
Cd1 O1 2.561653 1_554
Cd1 O5 2.561653 1_555
O0 Sb0 1.985106 1_556
O0 Sb2 2.010032 1_555
O0 Pb0 2.734841 1_555
O1 Sb1 1.985100 1_555
O1 Sb2 2.010039 1_555
O1 Pb1 2.734841 1_656
O2 Sb1 1.985099 1_555
O2 Sb3 2.010039 1_555
O2 Pb1 2.734841 1_555
O3 Sb0 1.985099 1_555
O3 Sb3 2.010039 1_655
O3 Pb0 2.734836 1_655
O4 Sb0 1.985106 1_565
O4 Sb2 2.010032 1_565
O4 Pb0 2.734841 1_665
O5 Sb1 1.985100 1_555
O5 Sb2 2.010039 1_565
O5 Pb1 2.734841 1_555
O6 Sb1 1.985099 1_555
O6 Sb3 2.010039 1_655
O6 Pb1 2.734841 1_656
O7 Sb0 1.985099 1_566
O7 Sb3 2.010039 1_555
O7 Pb0 2.734836 1_565
O8 Sb1 1.975448 1_555
O8 Sb0 1.975448 1_566
O9 Sb1 1.975448 1_555
O9 Sb0 1.975448 1_555
O10 Sb2 1.956007 1_565
O10 Pb1 2.560401 1_555
O10 Pb0 2.560401 1_565
O11 Sb2 1.956007 1_555
O11 Pb1 2.560401 1_656
O11 Pb0 2.560401 1_655
O12 Sb3 1.956008 1_655
O12 Pb0 2.560402 1_665
O12 Pb1 2.560407 1_655
O13 Sb3 1.956008 1_555
O13 Pb0 2.560402 1_555
O13 Pb1 2.560407 1_556
