# generated using pymatgen
data_Cd4IrOs3O14
_symmetry_space_group_name_H-M   'P 1'
_cell_length_a   7.19674560
_cell_length_b   7.19674590
_cell_length_c   7.19674652
_cell_angle_alpha   60.46247911
_cell_angle_beta   60.46247892
_cell_angle_gamma   60.46247754
_symmetry_Int_Tables_number   1
_chemical_formula_structural   Cd4IrOs3O14
_chemical_formula_sum   'Cd4 Ir1 Os3 O14'
_cell_volume   266.32399753
_cell_formula_units_Z   1
loop_
 _symmetry_equiv_pos_site_id
 _symmetry_equiv_pos_as_xyz
  1  'x, y, z'
loop_
 _atom_site_type_symbol
 _atom_site_label
 _atom_site_symmetry_multiplicity
 _atom_site_fract_x
 _atom_site_fract_y
 _atom_site_fract_z
 _atom_site_occupancy
  Cd  Cd0  1  0.12500000  0.12500000  0.12500000  1
  Cd  Cd1  1  0.62500000  0.12500000  0.12500000  1
  Cd  Cd2  1  0.12500000  0.62500000  0.12500000  1
  Cd  Cd3  1  0.12500000  0.12500000  0.62500000  1
  Ir  Ir0  1  0.62500000  0.62500000  0.62500000  1
  Os  Os0  1  0.12500000  0.62500000  0.62500000  1
  Os  Os1  1  0.62500000  0.12500000  0.62500000  1
  Os  Os2  1  0.62500000  0.62500000  0.12500000  1
  O  O0  1  0.24932660  0.24932660  0.24932660  1
  O  O1  1  0.00067340  0.00067340  0.00067340  1
  O  O2  1  0.55250394  0.95034995  0.55250394  1
  O  O3  1  0.30348188  0.69503709  0.30348188  1
  O  O4  1  0.55250394  0.55250394  0.95034995  1
  O  O5  1  0.95034995  0.55250394  0.55250394  1
  O  O6  1  0.55496291  0.94651812  0.94651812  1
  O  O7  1  0.94651812  0.94651812  0.55496291  1
  O  O8  1  0.94651812  0.55496291  0.94651812  1
  O  O9  1  0.69503709  0.30348188  0.30348188  1
  O  O10  1  0.29965005  0.69749606  0.69749606  1
  O  O11  1  0.69749606  0.29965005  0.69749606  1
  O  O12  1  0.30348188  0.30348188  0.69503709  1
  O  O13  1  0.69749606  0.69749606  0.29965005  1
loop_
_geom_bond_atom_site_label_1
_geom_bond_atom_site_label_2
_geom_bond_distance
_geom_bond_site_symmetry_2
Cd0 O0 2.183982 1_555
Cd0 O1 2.183982 1_555
Cd0 O6 2.581402 1_544
Cd0 O9 2.581402 1_455
Cd0 O3 2.581402 1_545
Cd0 O8 2.581402 1_454
Cd0 O7 2.581402 1_445
Cd0 O12 2.581402 1_554
Cd1 O1 2.220308 1_655
Cd1 O0 2.220308 1_555
Cd1 O9 2.541139 1_555
Cd1 O6 2.541139 1_544
Cd1 O4 2.562957 1_554
Cd1 O13 2.562957 1_545
Cd1 O2 2.562957 1_545
Cd1 O11 2.562957 1_554
Cd2 O0 2.220308 1_555
Cd2 O1 2.220308 1_565
Cd2 O3 2.541139 1_555
Cd2 O8 2.541139 1_454
Cd2 O4 2.562957 1_554
Cd2 O13 2.562957 1_455
Cd2 O5 2.562957 1_455
Cd2 O10 2.562957 1_554
Cd3 O1 2.220308 1_556
Cd3 O0 2.220308 1_555
Cd3 O12 2.541139 1_555
Cd3 O7 2.541139 1_445
Cd3 O2 2.562957 1_545
Cd3 O11 2.562957 1_455
Cd3 O5 2.562957 1_455
Cd3 O10 2.562957 1_545
Ir0 O5 1.971355 1_555
Ir0 O10 1.971355 1_555
Ir0 O2 1.971355 1_555
Ir0 O11 1.971355 1_555
Ir0 O4 1.971355 1_555
Ir0 O13 1.971355 1_555
O2 Os1 1.919847 1_565
O3 Os2 1.953441 1_555
O3 Os0 1.953442 1_555
O4 Os2 1.919847 1_556
O5 Os0 1.919847 1_655
O6 Os2 1.953441 1_556
O6 Os1 1.953442 1_565
O7 Os1 1.953441 1_565
O7 Os0 1.953441 1_655
O8 Os2 1.953441 1_556
O8 Os0 1.953442 1_655
O9 Os2 1.953441 1_555
O9 Os1 1.953442 1_555
O10 Os0 1.919847 1_555
O11 Os1 1.919847 1_555
O12 Os1 1.953441 1_555
O12 Os0 1.953441 1_555
O13 Os2 1.919847 1_555
