# generated using pymatgen
data_Cs2ZnSnTe4
_symmetry_space_group_name_H-M   'P 1'
_cell_length_a   15.25203128
_cell_length_b   13.61168819
_cell_length_c   8.40659032
_cell_angle_alpha   84.15041096
_cell_angle_beta   62.59855062
_cell_angle_gamma   33.25103525
_symmetry_Int_Tables_number   1
_chemical_formula_structural   Cs2ZnSnTe4
_chemical_formula_sum   'Cs4 Zn2 Sn2 Te8'
_cell_volume   691.30892923
_cell_formula_units_Z   2
loop_
 _symmetry_equiv_pos_site_id
 _symmetry_equiv_pos_as_xyz
  1  'x, y, z'
loop_
 _atom_site_type_symbol
 _atom_site_label
 _atom_site_symmetry_multiplicity
 _atom_site_fract_x
 _atom_site_fract_y
 _atom_site_fract_z
 _atom_site_occupancy
  Cs  Cs0  1  0.81541821  0.81541821  0.18458179  1
  Cs  Cs1  1  0.18458179  0.18458179  0.81541821  1
  Cs  Cs2  1  0.43458179  0.43458179  0.06541821  1
  Cs  Cs3  1  0.06541821  0.06541821  0.43458179  1
  Zn  Zn0  1  0.75000000  0.75000000  0.75000000  1
  Zn  Zn1  1  0.50000000  0.50000000  0.50000000  1
  Sn  Sn0  1  0.25000000  0.25000000  0.25000000  1
  Sn  Sn1  1  0.00000000  0.00000000  0.00000000  1
  Te  Te0  1  0.40878130  0.70950127  0.78141910  1
  Te  Te1  1  0.10029833  0.78141910  0.70950127  1
  Te  Te2  1  0.78141910  0.10029833  0.40878130  1
  Te  Te3  1  0.70950127  0.40878130  0.10029833  1
  Te  Te4  1  0.84121870  0.54049873  0.46858090  1
  Te  Te5  1  0.14970167  0.46858090  0.54049873  1
  Te  Te6  1  0.46858090  0.14970167  0.84121870  1
  Te  Te7  1  0.54049873  0.84121870  0.14970167  1
loop_
_geom_bond_atom_site_label_1
_geom_bond_atom_site_label_2
_geom_bond_distance
_geom_bond_site_symmetry_2
Cs0 Te1 4.010574 1_654
Cs0 Te2 4.010574 1_565
Cs0 Te4 4.054504 1_555
Cs0 Te7 4.054504 1_555
Cs0 Te6 4.140305 1_565
Cs0 Te5 4.140305 1_654
Cs0 Te6 4.191142 1_654
Cs0 Te5 4.191142 1_565
Cs1 Te0 4.010574 1_545
Cs1 Te3 4.010574 1_456
Cs1 Te5 4.054504 1_555
Cs1 Te6 4.054504 1_555
Cs1 Te7 4.140305 1_456
Cs1 Te4 4.140305 1_545
Cs1 Te7 4.191143 1_545
Cs1 Te4 4.191143 1_456
Cs2 Te5 4.010574 1_555
Cs2 Te6 4.010574 1_554
Cs2 Te0 4.054504 1_554
Cs2 Te3 4.054504 1_555
Cs2 Te2 4.140305 1_554
Cs2 Te1 4.140305 1_555
Cs2 Te2 4.191142 1_465
Cs2 Te1 4.191142 1_644
Cs3 Te4 4.010574 1_455
Cs3 Te7 4.010574 1_545
Cs3 Te1 4.054504 1_545
Cs3 Te2 4.054504 1_455
Cs3 Te3 4.140305 1_545
Cs3 Te0 4.140305 1_455
Cs3 Te3 4.191143 1_456
Cs3 Te0 4.191143 1_544
Sn0 Te7 2.754291 1_545
Sn0 Te4 2.754291 1_455
Sn0 Te6 2.754291 1_554
Sn0 Te5 2.754291 1_555
Sn1 Te3 2.754291 1_455
Sn1 Te0 2.754291 1_544
Sn1 Te2 2.754291 1_455
Sn1 Te1 2.754291 1_544
Te0 Zn1 2.715574 1_555
Te1 Zn1 2.715574 1_555
Te2 Zn1 2.715574 1_555
Te3 Zn1 2.715574 1_555
Te4 Zn0 2.715574 1_555
Te5 Zn0 2.715574 1_455
Te6 Zn0 2.715574 1_545
Te7 Zn0 2.715574 1_554
