# generated using pymatgen
data_Rb2Ni(PdS2)2
_symmetry_space_group_name_H-M   'P 1'
_cell_length_a   8.52418003
_cell_length_b   7.51959565
_cell_length_c   5.98907149
_cell_angle_alpha   77.33265196
_cell_angle_beta   59.39268376
_cell_angle_gamma   43.27465804
_symmetry_Int_Tables_number   1
_chemical_formula_structural   Rb2Ni(PdS2)2
_chemical_formula_sum   'Rb2 Ni1 Pd2 S4'
_cell_volume   218.90614419
_cell_formula_units_Z   1
loop_
 _symmetry_equiv_pos_site_id
 _symmetry_equiv_pos_as_xyz
  1  'x, y, z'
loop_
 _atom_site_type_symbol
 _atom_site_label
 _atom_site_symmetry_multiplicity
 _atom_site_fract_x
 _atom_site_fract_y
 _atom_site_fract_z
 _atom_site_occupancy
  Rb  Rb0  1  0.65902338  0.65902338  0.34097662  1
  Rb  Rb1  1  0.34097662  0.34097662  0.65902338  1
  Ni  Ni0  1  0.00000000  0.00000000  0.00000000  1
  Pd  Pd0  1  0.00000000  0.00000000  0.50000000  1
  Pd  Pd1  1  0.50000000  0.50000000  0.00000000  1
  S  S0  1  0.05028923  0.73109843  0.26890157  1
  S  S1  1  0.26890157  0.94971077  0.05028923  1
  S  S2  1  0.73109843  0.05028923  0.94971077  1
  S  S3  1  0.94971077  0.26890157  0.73109843  1
loop_
_geom_bond_atom_site_label_1
_geom_bond_atom_site_label_2
_geom_bond_distance
_geom_bond_site_symmetry_2
Rb0 S1 3.536846 1_555
Rb0 S3 3.536846 1_555
Rb0 S0 3.559111 1_655
Rb0 S2 3.559111 1_564
Rb0 S3 3.603539 1_465
Rb0 S1 3.603539 1_645
Rb0 S1 3.603539 1_556
Rb0 S3 3.603540 1_554
Rb1 S2 3.536846 1_555
Rb1 S0 3.536846 1_555
Rb1 S3 3.559111 1_455
Rb1 S1 3.559111 1_546
Rb1 S0 3.603539 1_645
Rb1 S2 3.603539 1_465
Rb1 S2 3.603539 1_554
Rb1 S0 3.603540 1_556
Ni0 S2 2.208756 1_454
Ni0 S1 2.208756 1_545
Ni0 S3 2.208757 1_454
Ni0 S0 2.208757 1_545
Pd0 S2 2.355647 1_455
Pd0 S1 2.355647 1_545
Pd0 S3 2.355647 1_455
Pd0 S0 2.355647 1_545
Pd1 S3 2.355647 1_554
Pd1 S0 2.355647 1_555
Pd1 S2 2.355647 1_554
Pd1 S1 2.355647 1_555
