# generated using pymatgen
data_Mn4CuNiSe8
_symmetry_space_group_name_H-M   'P 1'
_cell_length_a   7.36971545
_cell_length_b   7.36971426
_cell_length_c   7.36971541
_cell_angle_alpha   59.99999947
_cell_angle_beta   60.00000481
_cell_angle_gamma   59.99999787
_symmetry_Int_Tables_number   1
_chemical_formula_structural   Mn4CuNiSe8
_chemical_formula_sum   'Mn4 Cu1 Ni1 Se8'
_cell_volume   283.03301376
_cell_formula_units_Z   1
loop_
 _symmetry_equiv_pos_site_id
 _symmetry_equiv_pos_as_xyz
  1  'x, y, z'
loop_
 _atom_site_type_symbol
 _atom_site_label
 _atom_site_symmetry_multiplicity
 _atom_site_fract_x
 _atom_site_fract_y
 _atom_site_fract_z
 _atom_site_occupancy
  Mn  Mn0  1  0.12463329  0.62512224  0.62512224  1
  Mn  Mn1  1  0.62512224  0.12463329  0.62512224  1
  Mn  Mn2  1  0.62512224  0.62512224  0.12463329  1
  Mn  Mn3  1  0.62512224  0.62512224  0.62512224  1
  Cu  Cu0  1  0.00000000  0.00000000  0.00000000  1
  Ni  Ni0  1  0.25000000  0.25000000  0.25000000  1
  Se  Se0  1  0.39302599  0.86899167  0.86899167  1
  Se  Se1  1  0.86899167  0.39302599  0.86899167  1
  Se  Se2  1  0.86899167  0.86899167  0.39302599  1
  Se  Se3  1  0.86899167  0.86899167  0.86899167  1
  Se  Se4  1  0.86135015  0.37954995  0.37954995  1
  Se  Se5  1  0.37954995  0.86135015  0.37954995  1
  Se  Se6  1  0.37954995  0.37954995  0.86135015  1
  Se  Se7  1  0.37954995  0.37954995  0.37954995  1
loop_
_geom_bond_atom_site_label_1
_geom_bond_atom_site_label_2
_geom_bond_distance
_geom_bond_site_symmetry_2
Mn0 Se2 2.543168 1_455
Mn0 Se1 2.543168 1_455
Mn0 Se3 2.543173 1_455
Mn0 Se6 2.560367 1_555
Mn0 Se7 2.560367 1_555
Mn0 Se5 2.560367 1_555
Mn1 Se2 2.543168 1_545
Mn1 Se0 2.543168 1_545
Mn1 Se3 2.543173 1_545
Mn1 Se6 2.560367 1_555
Mn1 Se7 2.560367 1_555
Mn1 Se4 2.560367 1_555
Mn2 Se0 2.543168 1_554
Mn2 Se1 2.543168 1_554
Mn2 Se3 2.543173 1_554
Mn2 Se4 2.560367 1_555
Mn2 Se5 2.560367 1_555
Mn2 Se7 2.560367 1_555
Mn3 Se0 2.543173 1_555
Mn3 Se1 2.543173 1_555
Mn3 Se2 2.543173 1_555
Mn3 Se4 2.560367 1_555
Mn3 Se5 2.560367 1_555
Mn3 Se6 2.560367 1_555
Cu0 Se3 2.364968 1_444
Cu0 Se1 2.364973 1_454
Cu0 Se0 2.364974 1_544
Cu0 Se2 2.364974 1_445
Ni0 Se5 2.338641 1_545
Ni0 Se7 2.338641 1_555
Ni0 Se4 2.338641 1_455
Ni0 Se6 2.338641 1_554
