# generated using pymatgen
data_Cs2LiVTe4
_symmetry_space_group_name_H-M   'P 1'
_cell_length_a   15.33477490
_cell_length_b   13.79291219
_cell_length_c   8.16455851
_cell_angle_alpha   84.45855499
_cell_angle_beta   63.54051562
_cell_angle_gamma   32.00092166
_symmetry_Int_Tables_number   1
_chemical_formula_structural   Cs2LiVTe4
_chemical_formula_sum   'Cs4 Li2 V2 Te8'
_cell_volume   659.73720066
_cell_formula_units_Z   2
loop_
 _symmetry_equiv_pos_site_id
 _symmetry_equiv_pos_as_xyz
  1  'x, y, z'
loop_
 _atom_site_type_symbol
 _atom_site_label
 _atom_site_symmetry_multiplicity
 _atom_site_fract_x
 _atom_site_fract_y
 _atom_site_fract_z
 _atom_site_occupancy
  Cs  Cs0  1  0.82060855  0.82060855  0.17939145  1
  Cs  Cs1  1  0.42939145  0.42939145  0.07060855  1
  Cs  Cs2  1  0.17939145  0.17939145  0.82060855  1
  Cs  Cs3  1  0.07060855  0.07060855  0.42939145  1
  Li  Li0  1  0.50000000  0.50000000  0.50000000  1
  Li  Li1  1  0.75000000  0.75000000  0.75000000  1
  V  V0  1  0.00000000  0.00000000  0.00000000  1
  V  V1  1  0.25000000  0.25000000  0.25000000  1
  Te  Te0  1  0.51276713  0.87901030  0.17912395  1
  Te  Te1  1  0.87901030  0.51276713  0.42909861  1
  Te  Te2  1  0.82090139  0.07087605  0.37098970  1
  Te  Te3  1  0.07087605  0.82090139  0.73723287  1
  Te  Te4  1  0.17912395  0.42909861  0.51276713  1
  Te  Te5  1  0.42909861  0.17912395  0.87901030  1
  Te  Te6  1  0.37098970  0.73723287  0.82090139  1
  Te  Te7  1  0.73723287  0.37098970  0.07087605  1
loop_
_geom_bond_atom_site_label_1
_geom_bond_atom_site_label_2
_geom_bond_distance
_geom_bond_site_symmetry_2
Cs0 Te4 3.890756 1_565
Cs0 Te5 3.890756 1_654
Cs0 Te3 3.929157 1_654
Cs0 Te2 3.929157 1_565
Cs0 Te1 4.061151 1_555
Cs0 Te0 4.061151 1_555
Cs0 Te5 4.203180 1_565
Cs0 Te4 4.203180 1_654
Cs1 Te3 3.890756 1_644
Cs1 Te2 3.890756 1_465
Cs1 Te4 3.929157 1_555
Cs1 Te5 3.929157 1_554
Cs1 Te6 4.061151 1_554
Cs1 Te7 4.061151 1_555
Cs1 Te2 4.203180 1_554
Cs1 Te3 4.203180 1_555
Cs2 Te0 3.890756 1_545
Cs2 Te1 3.890756 1_456
Cs2 Te7 3.929157 1_456
Cs2 Te6 3.929157 1_545
Cs2 Te4 4.061151 1_555
Cs2 Te5 4.061151 1_555
Cs2 Te1 4.203179 1_545
Cs2 Te0 4.203179 1_456
Cs3 Te7 3.890756 1_456
Cs3 Te6 3.890756 1_544
Cs3 Te0 3.929157 1_545
Cs3 Te1 3.929157 1_455
Cs3 Te3 4.061151 1_545
Cs3 Te2 4.061151 1_455
Cs3 Te6 4.203179 1_455
Cs3 Te7 4.203179 1_545
Li0 Te3 2.746365 1_555
Li0 Te7 2.746365 1_555
Li0 Te2 2.746365 1_555
Li0 Te6 2.746365 1_555
Li1 Te4 2.746365 1_655
Li1 Te0 2.746365 1_556
Li1 Te5 2.746365 1_565
Li1 Te1 2.746365 1_555
Te0 V1 2.505624 1_565
Te1 V1 2.505624 1_655
Te2 V0 2.505624 1_655
Te3 V0 2.505624 1_566
Te4 V1 2.505624 1_555
Te5 V1 2.505624 1_556
Te6 V0 2.505624 1_566
Te7 V0 2.505624 1_655
