# generated using pymatgen
data_Mg2BRhO5
_symmetry_space_group_name_H-M   'P 1'
_cell_length_a   3.09238612
_cell_length_b   9.20218581
_cell_length_c   12.19859993
_cell_angle_alpha   90.00000000
_cell_angle_beta   90.00000000
_cell_angle_gamma   90.00000000
_symmetry_Int_Tables_number   1
_chemical_formula_structural   Mg2BRhO5
_chemical_formula_sum   'Mg8 B4 Rh4 O20'
_cell_volume   347.13204139
_cell_formula_units_Z   4
loop_
 _symmetry_equiv_pos_site_id
 _symmetry_equiv_pos_as_xyz
  1  'x, y, z'
loop_
 _atom_site_type_symbol
 _atom_site_label
 _atom_site_symmetry_multiplicity
 _atom_site_fract_x
 _atom_site_fract_y
 _atom_site_fract_z
 _atom_site_occupancy
  Mg  Mg0  1  0.50000000  0.00000000  0.50000000  1
  Mg  Mg1  1  0.50000000  0.50000000  0.00000000  1
  Mg  Mg2  1  0.50000000  0.00219376  0.21803807  1
  Mg  Mg3  1  0.50000000  0.99780624  0.78196193  1
  Mg  Mg4  1  0.50000000  0.49780624  0.71803807  1
  Mg  Mg5  1  0.50000000  0.50219376  0.28196193  1
  Mg  Mg6  1  0.00000000  0.00000000  0.00000000  1
  Mg  Mg7  1  0.00000000  0.50000000  0.50000000  1
  B  B0  1  0.00000000  0.27096035  0.14037943  1
  B  B1  1  0.00000000  0.72903965  0.85962057  1
  B  B2  1  0.00000000  0.22903965  0.64037943  1
  B  B3  1  0.00000000  0.77096035  0.35962057  1
  Rh  Rh0  1  0.00000000  0.24354881  0.38855214  1
  Rh  Rh1  1  0.00000000  0.75645119  0.61144786  1
  Rh  Rh2  1  0.00000000  0.25645119  0.88855214  1
  Rh  Rh3  1  0.00000000  0.74354881  0.11144786  1
  O  O0  1  0.00000000  0.35022628  0.23746609  1
  O  O1  1  0.00000000  0.64977372  0.76253391  1
  O  O2  1  0.00000000  0.14977372  0.73746609  1
  O  O3  1  0.00000000  0.85022628  0.26253391  1
  O  O4  1  0.50000000  0.10681465  0.35780014  1
  O  O5  1  0.50000000  0.89318535  0.64219986  1
  O  O6  1  0.50000000  0.39318535  0.85780014  1
  O  O7  1  0.50000000  0.60681465  0.14219986  1
  O  O8  1  0.00000000  0.12289746  0.14190693  1
  O  O9  1  0.00000000  0.87710254  0.85809307  1
  O  O10  1  0.00000000  0.37710254  0.64190693  1
  O  O11  1  0.00000000  0.62289746  0.35809307  1
  O  O12  1  0.00000000  0.35197732  0.04359394  1
  O  O13  1  0.00000000  0.64802268  0.95640606  1
  O  O14  1  0.00000000  0.14802268  0.54359394  1
  O  O15  1  0.00000000  0.85197732  0.45640606  1
  O  O16  1  0.50000000  0.38627676  0.42316776  1
  O  O17  1  0.50000000  0.61372324  0.57683224  1
  O  O18  1  0.50000000  0.11372324  0.92316776  1
  O  O19  1  0.50000000  0.88627676  0.07683224  1
loop_
_geom_bond_atom_site_label_1
_geom_bond_atom_site_label_2
_geom_bond_distance
_geom_bond_site_symmetry_2
Mg0 O5 1.993771 1_545
Mg0 O4 1.993771 1_555
Mg0 O15 2.128124 1_545
Mg0 O15 2.128124 1_645
Mg0 O14 2.128124 1_555
Mg0 O14 2.128124 1_655
Mg1 O7 1.993771 1_555
Mg1 O6 1.993771 1_554
Mg1 O12 2.128124 1_655
Mg1 O13 2.128124 1_554
Mg1 O12 2.128124 1_555
Mg1 O13 2.128124 1_654
Mg2 O4 1.957948 1_555
Mg2 O19 2.026050 1_545
Mg2 O8 2.118236 1_655
Mg2 O8 2.118236 1_555
Mg2 O3 2.154285 1_545
Mg2 O3 2.154285 1_645
Mg3 O5 1.957948 1_555
Mg3 O18 2.026050 1_565
Mg3 O9 2.118236 1_555
Mg3 O9 2.118236 1_655
Mg3 O2 2.154285 1_565
Mg3 O2 2.154285 1_665
Mg4 O6 1.957948 1_555
Mg4 O17 2.026050 1_555
Mg4 O10 2.118236 1_655
Mg4 O10 2.118236 1_555
Mg4 O1 2.154285 1_655
Mg4 O1 2.154285 1_555
Mg5 O7 1.957948 1_555
Mg5 O16 2.026050 1_555
Mg5 O11 2.118236 1_555
Mg5 O11 2.118236 1_655
Mg5 O0 2.154285 1_655
Mg5 O0 2.154285 1_555
Mg6 O8 2.067748 1_555
Mg6 O9 2.067748 1_544
Mg6 O18 2.089093 1_554
Mg6 O18 2.089093 1_454
Mg6 O19 2.089093 1_445
Mg6 O19 2.089093 1_545
Mg7 O10 2.067748 1_555
Mg7 O11 2.067748 1_555
Mg7 O17 2.089093 1_555
Mg7 O17 2.089093 1_455
Mg7 O16 2.089093 1_455
Mg7 O16 2.089093 1_555
B0 O8 1.362630 1_555
B0 O0 1.390924 1_555
B0 O12 1.396334 1_555
B1 O9 1.362630 1_555
B1 O1 1.390924 1_555
B1 O13 1.396334 1_555
B2 O10 1.362630 1_555
B2 O2 1.390924 1_555
B2 O14 1.396334 1_555
B3 O11 1.362630 1_555
B3 O3 1.390924 1_555
B3 O15 1.396334 1_555
O0 Rh0 2.088171 1_555
O1 Rh1 2.088171 1_555
O2 Rh2 2.088171 1_555
O3 Rh3 2.088171 1_555
O4 Rh0 2.028457 1_655
O4 Rh0 2.028457 1_555
O5 Rh1 2.028457 1_555
O5 Rh1 2.028457 1_655
O6 Rh2 2.028457 1_655
O6 Rh2 2.028457 1_555
O7 Rh3 2.028457 1_555
O7 Rh3 2.028457 1_655
O12 Rh2 2.085597 1_554
O13 Rh3 2.085597 1_556
O14 Rh0 2.085597 1_555
O15 Rh1 2.085597 1_555
O16 Rh0 2.072212 1_555
O16 Rh0 2.072212 1_655
O17 Rh1 2.072212 1_655
O17 Rh1 2.072212 1_555
O18 Rh2 2.072212 1_655
O18 Rh2 2.072212 1_555
O19 Rh3 2.072212 1_555
O19 Rh3 2.072212 1_655
