# generated using pymatgen
data_Zr3Zn2AuC
_symmetry_space_group_name_H-M   'P 1'
_cell_length_a   8.68270500
_cell_length_b   8.68270444
_cell_length_c   8.68270620
_cell_angle_alpha   59.99999705
_cell_angle_beta   59.99999916
_cell_angle_gamma   59.99999948
_symmetry_Int_Tables_number   1
_chemical_formula_structural   Zr3Zn2AuC
_chemical_formula_sum   'Zr12 Zn8 Au4 C4'
_cell_volume   462.86054003
_cell_formula_units_Z   4
loop_
 _symmetry_equiv_pos_site_id
 _symmetry_equiv_pos_as_xyz
  1  'x, y, z'
loop_
 _atom_site_type_symbol
 _atom_site_label
 _atom_site_symmetry_multiplicity
 _atom_site_fract_x
 _atom_site_fract_y
 _atom_site_fract_z
 _atom_site_occupancy
  Zr  Zr0  1  0.43882333  0.43882333  0.06117667  1
  Zr  Zr1  1  0.06117667  0.43882333  0.06117667  1
  Zr  Zr2  1  0.43882333  0.06117667  0.06117667  1
  Zr  Zr3  1  0.06117667  0.06117667  0.43882333  1
  Zr  Zr4  1  0.43882333  0.06117667  0.43882333  1
  Zr  Zr5  1  0.06117667  0.43882333  0.43882333  1
  Zr  Zr6  1  0.81117667  0.81117667  0.18882333  1
  Zr  Zr7  1  0.18882333  0.81117667  0.18882333  1
  Zr  Zr8  1  0.81117667  0.18882333  0.18882333  1
  Zr  Zr9  1  0.18882333  0.18882333  0.81117667  1
  Zr  Zr10  1  0.81117667  0.18882333  0.81117667  1
  Zr  Zr11  1  0.18882333  0.81117667  0.81117667  1
  Zn  Zn0  1  0.83297724  0.83297724  0.50106829  1
  Zn  Zn1  1  0.83297724  0.50106829  0.83297724  1
  Zn  Zn2  1  0.50106829  0.83297724  0.83297724  1
  Zn  Zn3  1  0.83297724  0.83297724  0.83297724  1
  Zn  Zn4  1  0.41702276  0.41702276  0.74893171  1
  Zn  Zn5  1  0.41702276  0.74893171  0.41702276  1
  Zn  Zn6  1  0.74893171  0.41702276  0.41702276  1
  Zn  Zn7  1  0.41702276  0.41702276  0.41702276  1
  Au  Au0  1  0.62500000  0.62500000  0.12500000  1
  Au  Au1  1  0.62500000  0.12500000  0.62500000  1
  Au  Au2  1  0.12500000  0.62500000  0.62500000  1
  Au  Au3  1  0.62500000  0.62500000  0.62500000  1
  C  C0  1  0.12500000  0.12500000  0.62500000  1
  C  C1  1  0.12500000  0.62500000  0.12500000  1
  C  C2  1  0.62500000  0.12500000  0.12500000  1
  C  C3  1  0.12500000  0.12500000  0.12500000  1
loop_
_geom_bond_atom_site_label_1
_geom_bond_atom_site_label_2
_geom_bond_distance
_geom_bond_site_symmetry_2
Au0 Zn3 2.656010 1_554
Au0 Zn7 2.656010 1_555
Au0 Zn6 2.656010 1_555
Au0 Zn2 2.656010 1_554
Au0 Zn5 2.656010 1_555
Au0 Zn1 2.656010 1_554
Au0 Zr2 3.152473 1_565
Au0 Zr8 3.152473 1_555
Au0 Zr1 3.152474 1_655
Au0 Zr7 3.152474 1_555
Au0 Zr6 3.152474 1_555
Au0 Zr0 3.152474 1_555
Au1 Zn2 2.656009 1_545
Au1 Zn6 2.656009 1_555
Au1 Zn4 2.656010 1_555
Au1 Zn0 2.656010 1_545
Au1 Zn3 2.656010 1_545
Au1 Zn7 2.656010 1_555
Au1 Zr3 3.152474 1_655
Au1 Zr9 3.152474 1_555
Au1 Zr10 3.152474 1_555
Au1 Zr4 3.152474 1_555
Au1 Zr2 3.152474 1_556
Au1 Zr8 3.152474 1_555
Au2 Zn1 2.656010 1_455
Au2 Zn5 2.656010 1_555
Au2 Zn4 2.656010 1_555
Au2 Zn0 2.656010 1_455
Au2 Zn3 2.656010 1_455
Au2 Zn7 2.656010 1_555
Au2 Zr3 3.152473 1_565
Au2 Zr9 3.152473 1_555
Au2 Zr11 3.152474 1_555
Au2 Zr5 3.152474 1_555
Au2 Zr1 3.152474 1_556
Au2 Zr7 3.152474 1_555
Au3 Zn0 2.656010 1_555
Au3 Zn4 2.656010 1_555
Au3 Zn6 2.656010 1_555
Au3 Zn2 2.656010 1_555
Au3 Zn5 2.656010 1_555
Au3 Zn1 2.656010 1_555
Au3 Zr4 3.152473 1_565
Au3 Zr10 3.152473 1_555
Au3 Zr5 3.152474 1_655
Au3 Zr11 3.152474 1_555
Au3 Zr0 3.152474 1_556
Au3 Zr6 3.152474 1_555
C0 Zr5 2.307817 1_555
C0 Zr11 2.307817 1_545
C0 Zr4 2.307817 1_555
C0 Zr10 2.307817 1_455
C0 Zr9 2.307817 1_555
C0 Zr3 2.307817 1_555
C1 Zr0 2.307817 1_555
C1 Zr6 2.307817 1_455
C1 Zr7 2.307817 1_555
C1 Zr1 2.307817 1_555
C1 Zr11 2.307817 1_554
C1 Zr5 2.307817 1_555
C2 Zr0 2.307817 1_555
C2 Zr6 2.307817 1_545
C2 Zr8 2.307817 1_555
C2 Zr2 2.307817 1_555
C2 Zr4 2.307817 1_555
C2 Zr10 2.307817 1_554
C3 Zr1 2.307817 1_555
C3 Zr7 2.307817 1_545
C3 Zr2 2.307817 1_555
C3 Zr8 2.307817 1_455
C3 Zr3 2.307818 1_555
C3 Zr9 2.307818 1_554
