# generated using pymatgen
data_Na10ZrSiAs6
_symmetry_space_group_name_H-M   'P 1'
_cell_length_a   7.50913152
_cell_length_b   8.29893447
_cell_length_c   15.80491311
_cell_angle_alpha   59.12277733
_cell_angle_beta   90.00000000
_cell_angle_gamma   90.00000000
_symmetry_Int_Tables_number   1
_chemical_formula_structural   Na10ZrSiAs6
_chemical_formula_sum   'Na20 Zr2 Si2 As12'
_cell_volume   845.33252752
_cell_formula_units_Z   2
loop_
 _symmetry_equiv_pos_site_id
 _symmetry_equiv_pos_as_xyz
  1  'x, y, z'
loop_
 _atom_site_type_symbol
 _atom_site_label
 _atom_site_symmetry_multiplicity
 _atom_site_fract_x
 _atom_site_fract_y
 _atom_site_fract_z
 _atom_site_occupancy
  Na  Na0  1  0.52148695  0.55857745  0.75268150  1
  Na  Na1  1  0.02148695  0.44142255  0.74731850  1
  Na  Na2  1  0.48804520  0.44302827  0.23657987  1
  Na  Na3  1  0.98804520  0.55697173  0.26342013  1
  Na  Na4  1  0.98014296  0.26374645  0.58002558  1
  Na  Na5  1  0.48014296  0.73625355  0.91997442  1
  Na  Na6  1  0.02930418  0.76493183  0.41650045  1
  Na  Na7  1  0.52930418  0.23506817  0.08349955  1
  Na  Na8  1  0.48002432  0.06792488  0.59284424  1
  Na  Na9  1  0.98002432  0.93207512  0.90715576  1
  Na  Na10  1  0.51410721  0.92209046  0.41119411  1
  Na  Na11  1  0.01410721  0.07790954  0.08880589  1
  Na  Na12  1  0.34473212  0.16173081  0.91325433  1
  Na  Na13  1  0.84473212  0.83826919  0.58674567  1
  Na  Na14  1  0.65997382  0.85028156  0.07861735  1
  Na  Na15  1  0.15997382  0.14971844  0.42138265  1
  Na  Na16  1  0.15511317  0.83538524  0.74152964  1
  Na  Na17  1  0.65511317  0.16461476  0.75847036  1
  Na  Na18  1  0.84413782  0.16355536  0.25744654  1
  Na  Na19  1  0.34413782  0.83644464  0.24255346  1
  Zr  Zr0  1  0.13236654  0.49148851  0.07941450  1
  Zr  Zr1  1  0.63236654  0.50851149  0.42058550  1
  Si  Si0  1  0.86344049  0.51234216  0.91648652  1
  Si  Si1  1  0.36344049  0.48765784  0.58351348  1
  As  As0  1  0.24442558  0.75708894  0.58136812  1
  As  As1  1  0.74442558  0.24291106  0.91863188  1
  As  As2  1  0.76100150  0.21491255  0.42337677  1
  As  As3  1  0.26100150  0.78508745  0.07662323  1
  As  As4  1  0.27244382  0.19489132  0.72025803  1
  As  As5  1  0.77244382  0.80510868  0.77974197  1
  As  As6  1  0.73286896  0.82020502  0.26712909  1
  As  As7  1  0.23286896  0.17979498  0.23287091  1
  As  As8  1  0.19088958  0.47704900  0.92112057  1
  As  As9  1  0.69088958  0.52295100  0.57887943  1
  As  As10  1  0.78549678  0.52042439  0.06487076  1
  As  As11  1  0.28549678  0.47957561  0.43512924  1
loop_
_geom_bond_atom_site_label_1
_geom_bond_atom_site_label_2
_geom_bond_distance
_geom_bond_site_symmetry_2
Na0 Si1 3.243244 1_555
Na1 Si0 3.243244 1_455
As0 Si1 2.392004 1_555
As0 Na15 2.992723 1_565
As0 Na16 2.994644 1_555
As0 Na6 3.037987 1_555
As0 Na10 3.070782 1_555
As0 Na1 3.080935 1_555
As0 Na13 3.086744 1_455
As0 Na0 3.129728 1_555
As0 Na8 3.208952 1_565
As1 Si0 2.392004 1_555
As1 Na14 2.992723 1_546
As1 Na17 2.994644 1_555
As1 Na7 3.037987 1_556
As1 Na11 3.070782 1_656
As1 Na0 3.080935 1_555
As1 Na12 3.086744 1_555
As1 Na1 3.129728 1_655
As1 Na9 3.208952 1_545
As2 Zr1 2.600282 1_555
As2 Na13 2.923803 1_545
As2 Na18 2.931929 1_555
As2 Na15 3.047434 1_655
As2 Na8 3.124115 1_555
As2 Na10 3.140056 1_545
As2 Na3 3.160744 1_555
As2 Na4 3.167281 1_555
As2 Na2 3.280934 1_555
As3 Zr0 2.600282 1_555
As3 Na12 2.923803 1_564
As3 Na19 2.931929 1_555
As3 Na14 3.047434 1_555
As3 Na9 3.124115 1_454
As3 Na11 3.140056 1_565
As3 Na2 3.160744 1_555
As3 Na5 3.167281 1_554
As3 Na3 3.280934 1_455
As4 Si1 2.377261 1_555
As4 Na17 2.920481 1_555
As4 Na4 2.959149 1_455
As4 Na16 2.959920 1_545
As4 Na12 2.968681 1_555
As4 Na1 2.969539 1_555
As4 Na8 3.126194 1_555
As4 Na9 3.419283 1_445
As5 Si0 2.377261 1_555
As5 Na16 2.920481 1_655
As5 Na5 2.959149 1_555
As5 Na17 2.959920 1_565
As5 Na13 2.968681 1_555
As5 Na0 2.969539 1_555
As5 Na9 3.126194 1_555
As5 Na8 3.419283 1_565
As6 Zr1 2.589152 1_555
As6 Na18 2.897117 1_565
As6 Na14 2.911274 1_555
As6 Na3 2.928958 1_555
As6 Na19 2.938717 1_555
As6 Na6 3.102779 1_655
As6 Na10 3.251759 1_555
As6 Na11 3.284875 1_665
As6 Na7 3.515302 1_565
As7 Zr0 2.589152 1_555
As7 Na19 2.897117 1_545
As7 Na15 2.911274 1_555
As7 Na2 2.928958 1_555
As7 Na18 2.938717 1_455
As7 Na7 3.102779 1_555
As7 Na11 3.251759 1_555
As7 Na10 3.284875 1_545
As7 Na6 3.515302 1_545
As8 Si0 2.472876 1_455
As8 Zr0 2.602750 1_556
As8 Na16 2.882460 1_555
As8 Na12 2.920889 1_555
As8 Na5 3.050479 1_555
As8 Na1 3.175654 1_555
As8 Na11 3.278370 1_556
As8 Na7 3.433220 1_556
As8 Na0 3.443681 1_555
As9 Si1 2.472876 1_555
As9 Zr1 2.602750 1_555
As9 Na17 2.882460 1_555
As9 Na13 2.920889 1_555
As9 Na4 3.050479 1_555
As9 Na0 3.175654 1_555
As9 Na10 3.278370 1_555
As9 Na6 3.433220 1_655
As9 Na1 3.443681 1_655
As10 Si0 2.451220 1_554
As10 Zr0 2.615007 1_655
As10 Na7 2.946205 1_555
As10 Na18 2.996132 1_555
As10 Na14 3.006625 1_555
As10 Na5 3.082221 1_554
As10 Na2 3.313211 1_555
As10 Na9 3.358209 1_554
As11 Si1 2.451220 1_555
As11 Zr1 2.615007 1_555
As11 Na6 2.946205 1_555
As11 Na19 2.996132 1_555
As11 Na15 3.006625 1_555
As11 Na4 3.082221 1_455
As11 Na3 3.313211 1_455
As11 Na8 3.358209 1_555
