# generated using pymatgen
data_DyBe13
_symmetry_space_group_name_H-M   'P 1'
_cell_length_a   7.21245673
_cell_length_b   7.21245620
_cell_length_c   7.21243325
_cell_angle_alpha   60.00011467
_cell_angle_beta   60.00011710
_cell_angle_gamma   60.00128298
_symmetry_Int_Tables_number   1
_chemical_formula_structural   DyBe13
_chemical_formula_sum   'Dy2 Be26'
_cell_volume   265.30057439
_cell_formula_units_Z   2
loop_
 _symmetry_equiv_pos_site_id
 _symmetry_equiv_pos_as_xyz
  1  'x, y, z'
loop_
 _atom_site_type_symbol
 _atom_site_label
 _atom_site_symmetry_multiplicity
 _atom_site_fract_x
 _atom_site_fract_y
 _atom_site_fract_z
 _atom_site_occupancy
  Dy  Dy0  1  0.25000000  0.25000000  0.25000000  1
  Dy  Dy1  1  0.75000000  0.75000000  0.75000000  1
  Be  Be0  1  -0.00000000  -0.00000000  -0.00000000  1
  Be  Be1  1  0.50000000  0.50000000  0.50000000  1
  Be  Be2  1  0.28984857  0.06252903  0.93746955  1
  Be  Be3  1  0.43747670  0.56252330  0.78987608  1
  Be  Be4  1  0.78987114  0.21012886  0.43747936  1
  Be  Be5  1  0.43747689  0.78990313  0.21009164  1
  Be  Be6  1  0.56252311  0.21009687  0.78990836  1
  Be  Be7  1  0.56252903  0.78984857  0.43746955  1
  Be  Be8  1  0.78984857  0.56252903  0.21015385  1
  Be  Be9  1  0.93747689  0.28990313  0.06252734  1
  Be  Be10  1  0.06252330  0.93747670  0.28987708  1
  Be  Be11  1  0.71012886  0.28987114  0.93747936  1
  Be  Be12  1  0.06252311  0.71009687  0.93747266  1
  Be  Be13  1  0.71009687  0.06252311  0.28990836  1
  Be  Be14  1  0.93747670  0.06252330  0.71012292  1
  Be  Be15  1  0.28990313  0.93747689  0.71009164  1
  Be  Be16  1  0.28987114  0.71012886  0.06252064  1
  Be  Be17  1  0.78990313  0.43747689  0.56252734  1
  Be  Be18  1  0.21012886  0.78987114  0.56252064  1
  Be  Be19  1  0.21015143  0.43747097  0.78984615  1
  Be  Be20  1  0.43747097  0.21015143  0.56253045  1
  Be  Be21  1  0.56252330  0.43747670  0.21012292  1
  Be  Be22  1  0.21009687  0.56252311  0.43747266  1
  Be  Be23  1  0.93747097  0.71015143  0.28984615  1
  Be  Be24  1  0.71015143  0.93747097  0.06253045  1
  Be  Be25  1  0.06252903  0.28984857  0.71015385  1
loop_
_geom_bond_atom_site_label_1
_geom_bond_atom_site_label_2
_geom_bond_distance
_geom_bond_site_symmetry_2
Be0 Be25 2.138599 1_554
Be0 Be23 2.138599 1_445
Be0 Be24 2.138602 1_445
Be0 Be2 2.138602 1_554
Be0 Be11 2.138799 1_454
Be0 Be16 2.138799 1_545
Be0 Be10 2.138800 1_545
Be0 Be14 2.138800 1_454
Be0 Be12 2.139014 1_544
Be0 Be9 2.139014 1_455
Be0 Be15 2.139018 1_544
Be0 Be13 2.139018 1_455
Be1 Be19 2.138599 1_555
Be1 Be8 2.138599 1_555
Be1 Be20 2.138602 1_555
Be1 Be7 2.138602 1_555
Be1 Be3 2.138793 1_555
Be1 Be18 2.138799 1_555
Be1 Be4 2.138799 1_555
Be1 Be21 2.138800 1_555
Be1 Be22 2.139014 1_555
Be1 Be17 2.139014 1_555
Be1 Be6 2.139018 1_555
Be1 Be5 2.139018 1_555
Be2 Be20 2.226029 1_555
Be2 Be9 2.231847 1_456
Be2 Be5 2.236079 1_546
Be2 Be6 2.236178 1_555
Be2 Be25 2.318648 1_555
Be2 Dy0 3.000537 1_556
Be2 Dy1 3.000579 1_545
Be3 Be7 2.231804 1_555
Be3 Be6 2.231969 1_555
Be3 Dy1 3.000409 1_555
Be3 Dy0 3.000409 1_556
Be4 Be9 2.226047 1_555
Be4 Be8 2.231793 1_555
Be4 Be6 2.231961 1_555
Be4 Dy1 3.000440 1_545
Be4 Dy0 3.000440 1_655
Be5 Be7 2.231822 1_555
Be5 Be8 2.231850 1_555
Be5 Dy1 3.000299 1_554
Be5 Dy0 3.000373 1_565
Be6 Dy0 3.000299 1_556
Be6 Dy1 3.000373 1_545
Be7 Be8 2.318648 1_555
Be7 Dy1 3.000538 1_555
Be7 Dy0 3.000579 1_565
Be8 Be9 2.236089 1_555
Be8 Dy1 3.000544 1_554
Be8 Dy0 3.000577 1_655
Be9 Dy0 3.000304 1_655
Be9 Dy1 3.000370 1_554
Be10 Be5 2.226083 1_555
Be10 Be22 2.226084 1_555
Be10 Be2 2.231808 1_564
Be10 Be23 2.231812 1_455
Be10 Be13 2.231972 1_465
Be10 Be9 2.231975 1_465
Be10 Be18 2.236121 1_555
Be10 Be4 2.236192 1_465
Be10 Be16 2.319000 1_555
Be10 Dy0 3.000405 1_565
Be10 Dy1 3.000405 1_455
Be11 Be6 2.226040 1_555
Be11 Be17 2.226047 1_555
Be11 Be25 2.231793 1_655
Be11 Be24 2.231794 1_546
Be11 Be9 2.231955 1_556
Be11 Be13 2.231961 1_556
Be11 Be21 2.236121 1_556
Be11 Be3 2.236195 1_555
Be11 Be14 2.319000 1_555
Be11 Dy1 3.000439 1_555
Be11 Dy0 3.000440 1_556
Be12 Be18 2.226047 1_555
Be12 Be3 2.226085 1_555
Be12 Be23 2.231809 1_456
Be12 Be24 2.231847 1_456
Be12 Be16 2.231955 1_556
Be12 Be14 2.231975 1_465
Be12 Be19 2.236089 1_555
Be12 Be8 2.236178 1_456
Be12 Be15 2.319247 1_555
Be12 Dy1 3.000304 1_455
Be12 Dy0 3.000370 1_556
Be13 Be4 2.226040 1_555
Be13 Be21 2.226083 1_555
Be13 Be24 2.231822 1_545
Be13 Be23 2.231850 1_545
Be13 Be20 2.236079 1_555
Be13 Be7 2.236178 1_545
Be13 Be9 2.319247 1_555
Be13 Dy1 3.000299 1_545
Be13 Dy0 3.000373 1_555
Be14 Be6 2.226083 1_555
Be14 Be17 2.226084 1_555
Be14 Be24 2.231808 1_546
Be14 Be25 2.231812 1_655
Be14 Be15 2.231972 1_645
Be14 Be4 2.236121 1_555
Be14 Be18 2.236192 1_645
Be14 Dy1 3.000405 1_545
Be14 Dy0 3.000405 1_655
Be15 Be18 2.226040 1_555
Be15 Be3 2.226084 1_555
Be15 Be2 2.231822 1_565
Be15 Be25 2.231850 1_565
Be15 Be16 2.231961 1_556
Be15 Be7 2.236079 1_555
Be15 Be20 2.236178 1_565
Be15 Dy0 3.000299 1_565
Be15 Dy1 3.000373 1_555
Be16 Be5 2.226040 1_555
Be16 Be22 2.226047 1_555
Be16 Be23 2.231793 1_455
Be16 Be2 2.231794 1_564
Be16 Be3 2.236127 1_554
Be16 Be21 2.236192 1_555
Be16 Dy0 3.000439 1_555
Be16 Dy1 3.000440 1_554
Be17 Be8 2.231809 1_555
Be17 Be7 2.231847 1_555
Be17 Be4 2.231955 1_555
Be17 Be3 2.231972 1_555
Be17 Be25 2.236089 1_655
Be17 Be23 2.236178 1_555
Be17 Be6 2.319247 1_555
Be17 Dy1 3.000304 1_555
Be17 Dy0 3.000370 1_655
Be18 Be19 2.231793 1_555
Be18 Be7 2.231794 1_555
Be18 Be22 2.231955 1_555
Be18 Be5 2.231961 1_555
Be18 Be3 2.318995 1_555
Be18 Dy0 3.000440 1_565
Be18 Dy1 3.000440 1_455
Be19 Be25 2.226018 1_555
Be19 Be2 2.226071 1_555
Be19 Be3 2.231808 1_555
Be19 Be22 2.231809 1_555
Be19 Be6 2.231850 1_555
Be19 Be9 2.236178 1_456
Be19 Be20 2.318648 1_555
Be19 Dy0 3.000544 1_556
Be19 Dy1 3.000577 1_455
Be20 Be25 2.226071 1_555
Be20 Be4 2.231794 1_555
Be20 Be21 2.231808 1_555
Be20 Be6 2.231822 1_555
Be20 Be22 2.231847 1_555
Be20 Dy0 3.000538 1_555
Be20 Dy1 3.000579 1_545
Be21 Be9 2.226084 1_555
Be21 Be8 2.231812 1_555
Be21 Be5 2.231972 1_555
Be21 Be22 2.231975 1_555
Be21 Be4 2.319000 1_555
Be21 Dy0 3.000405 1_555
Be21 Dy1 3.000405 1_554
Be22 Be23 2.236089 1_455
Be22 Be25 2.236178 1_555
Be22 Be5 2.319247 1_555
Be22 Dy0 3.000304 1_555
Be22 Dy1 3.000370 1_455
Be23 Be8 2.226018 1_555
Be23 Be7 2.226071 1_555
Be23 Be24 2.318648 1_555
Be23 Dy1 3.000545 1_555
Be23 Dy0 3.000577 1_655
Be24 Be7 2.226029 1_555
Be24 Be8 2.226071 1_555
Be24 Be6 2.236079 1_564
Be24 Be5 2.236178 1_555
Be24 Dy1 3.000537 1_554
Be24 Dy0 3.000579 1_565
Be25 Be9 2.231809 1_456
Be25 Dy0 3.000545 1_555
Be25 Dy1 3.000577 1_455
