# generated using pymatgen
data_TbScO3
_symmetry_space_group_name_H-M   'P 1'
_cell_length_a   5.43955610
_cell_length_b   5.73025335
_cell_length_c   7.93211736
_cell_angle_alpha   90.00000000
_cell_angle_beta   90.00000000
_cell_angle_gamma   90.00000000
_symmetry_Int_Tables_number   1
_chemical_formula_structural   TbScO3
_chemical_formula_sum   'Tb4 Sc4 O12'
_cell_volume   247.24437228
_cell_formula_units_Z   4
loop_
 _symmetry_equiv_pos_site_id
 _symmetry_equiv_pos_as_xyz
  1  'x, y, z'
loop_
 _atom_site_type_symbol
 _atom_site_label
 _atom_site_symmetry_multiplicity
 _atom_site_fract_x
 _atom_site_fract_y
 _atom_site_fract_z
 _atom_site_occupancy
  Tb  Tb0  1  0.98009536  0.06229845  0.75000000  1
  Tb  Tb1  1  0.48009536  0.43770155  0.25000000  1
  Tb  Tb2  1  0.51990464  0.56229845  0.75000000  1
  Tb  Tb3  1  0.01990464  0.93770155  0.25000000  1
  Sc  Sc0  1  0.00000000  0.50000000  0.50000000  1
  Sc  Sc1  1  0.50000000  -0.00000000  0.50000000  1
  Sc  Sc2  1  0.50000000  -0.00000000  0.00000000  1
  Sc  Sc3  1  0.00000000  0.50000000  0.00000000  1
  O  O0  1  0.69169284  0.30542761  0.56729353  1
  O  O1  1  0.19169284  0.19457239  0.43270647  1
  O  O2  1  0.80830716  0.80542761  0.93270647  1
  O  O3  1  0.30830716  0.69457239  0.06729353  1
  O  O4  1  0.30830716  0.69457239  0.43270647  1
  O  O5  1  0.80830716  0.80542761  0.56729353  1
  O  O6  1  0.19169284  0.19457239  0.06729353  1
  O  O7  1  0.69169284  0.30542761  0.93270647  1
  O  O8  1  0.87146236  0.55491455  0.25000000  1
  O  O9  1  0.37146236  0.94508545  0.75000000  1
  O  O10  1  0.62853764  0.05491455  0.25000000  1
  O  O11  1  0.12853764  0.44508545  0.75000000  1
loop_
_geom_bond_atom_site_label_1
_geom_bond_atom_site_label_2
_geom_bond_distance
_geom_bond_site_symmetry_2
O0 Sc0 2.083397 1_655
O0 Sc1 2.106019 1_555
O0 Tb2 2.267182 1_555
O0 Tb0 2.549977 1_555
O0 Tb1 2.869430 1_555
O1 Sc1 2.083397 1_555
O1 Sc0 2.106019 1_555
O1 Tb3 2.267182 1_545
O1 Tb1 2.549977 1_555
O1 Tb0 2.869430 1_455
O2 Sc2 2.083397 1_566
O2 Sc3 2.106019 1_656
O2 Tb0 2.267182 1_565
O2 Tb2 2.549977 1_555
O2 Tb3 2.869430 1_656
O3 Sc3 2.083397 1_555
O3 Sc2 2.106019 1_565
O3 Tb1 2.267182 1_555
O3 Tb3 2.549977 1_555
O3 Tb2 2.869430 1_554
O4 Sc0 2.083397 1_555
O4 Sc1 2.106019 1_565
O4 Tb1 2.267182 1_555
O4 Tb3 2.549977 1_555
O4 Tb2 2.869430 1_555
O5 Sc1 2.083397 1_565
O5 Sc0 2.106019 1_655
O5 Tb0 2.267182 1_565
O5 Tb2 2.549977 1_555
O5 Tb3 2.869430 1_655
O6 Sc2 2.083397 1_555
O6 Sc3 2.106019 1_555
O6 Tb3 2.267182 1_545
O6 Tb1 2.549977 1_555
O6 Tb0 2.869430 1_454
O7 Sc3 2.083397 1_656
O7 Sc2 2.106019 1_556
O7 Tb2 2.267182 1_555
O7 Tb0 2.549977 1_555
O7 Tb1 2.869430 1_556
O8 Sc3 2.126097 1_655
O8 Sc0 2.126097 1_655
O8 Tb1 2.232305 1_555
O8 Tb3 2.337368 1_655
O9 Sc2 2.126097 1_566
O9 Sc1 2.126097 1_565
O9 Tb0 2.232305 1_465
O9 Tb2 2.337368 1_555
O10 Sc2 2.126097 1_555
O10 Sc1 2.126097 1_555
O10 Tb3 2.232305 1_645
O10 Tb1 2.337368 1_555
O11 Sc0 2.126097 1_555
O11 Sc3 2.126097 1_556
O11 Tb2 2.232305 1_555
O11 Tb0 2.337368 1_455
