# generated using pymatgen
data_Ca20(Si3Bi)3
_symmetry_space_group_name_H-M   'P 1'
_cell_length_a   7.77686726
_cell_length_b   7.77686726
_cell_length_c   14.91552253
_cell_angle_alpha   90.00000000
_cell_angle_beta   90.00000000
_cell_angle_gamma   90.00000000
_symmetry_Int_Tables_number   1
_chemical_formula_structural   Ca20(Si3Bi)3
_chemical_formula_sum   'Ca20 Si9 Bi3'
_cell_volume   902.08579746
_cell_formula_units_Z   1
loop_
 _symmetry_equiv_pos_site_id
 _symmetry_equiv_pos_as_xyz
  1  'x, y, z'
loop_
 _atom_site_type_symbol
 _atom_site_label
 _atom_site_symmetry_multiplicity
 _atom_site_fract_x
 _atom_site_fract_y
 _atom_site_fract_z
 _atom_site_occupancy
  Ca  Ca0  1  0.68311581  0.16487301  0.10888478  1
  Ca  Ca1  1  0.17393588  0.67169883  0.61522166  1
  Ca  Ca2  1  0.31688419  0.83512699  0.10888478  1
  Ca  Ca3  1  0.82606412  0.32830117  0.61522166  1
  Ca  Ca4  1  0.83512699  0.68311581  0.10888478  1
  Ca  Ca5  1  0.32830117  0.17393588  0.61522166  1
  Ca  Ca6  1  0.16487301  0.31688419  0.10888478  1
  Ca  Ca7  1  0.67169883  0.82606412  0.61522166  1
  Ca  Ca8  1  0.83512699  0.31688419  0.89111522  1
  Ca  Ca9  1  0.32830117  0.82606412  0.38477834  1
  Ca  Ca10  1  0.16487301  0.68311581  0.89111522  1
  Ca  Ca11  1  0.67169883  0.17393588  0.38477834  1
  Ca  Ca12  1  0.68311581  0.83512699  0.89111522  1
  Ca  Ca13  1  0.17393588  0.32830117  0.38477834  1
  Ca  Ca14  1  0.31688419  0.16487301  0.89111522  1
  Ca  Ca15  1  0.82606412  0.67169883  0.38477834  1
  Ca  Ca16  1  0.50000000  0.50000000  0.75909658  1
  Ca  Ca17  1  0.00000000  0.00000000  0.24712310  1
  Ca  Ca18  1  0.00000000  0.00000000  0.75287690  1
  Ca  Ca19  1  0.50000000  0.50000000  0.24090342  1
  Si  Si0  1  0.61250648  0.11404898  0.75176659  1
  Si  Si1  1  0.11404898  0.61250648  0.24823341  1
  Si  Si2  1  0.88595102  0.38749352  0.24823341  1
  Si  Si3  1  0.38749352  0.88595102  0.75176659  1
  Si  Si4  1  0.88595102  0.61250648  0.75176659  1
  Si  Si5  1  0.38749352  0.11404898  0.24823341  1
  Si  Si6  1  0.11404898  0.38749352  0.75176659  1
  Si  Si7  1  0.61250648  0.88595102  0.24823341  1
  Si  Si8  1  0.00000000  0.00000000  0.00000000  1
  Bi  Bi0  1  0.50000000  0.50000000  0.50000000  1
  Bi  Bi1  1  0.50000000  0.50000000  0.00000000  1
  Bi  Bi2  1  0.00000000  0.00000000  0.50000000  1
loop_
_geom_bond_atom_site_label_1
_geom_bond_atom_site_label_2
_geom_bond_distance
_geom_bond_site_symmetry_2
Ca0 Si7 3.053962 1_545
Ca0 Si5 3.124369 1_555
Ca0 Si2 3.131392 1_555
Ca0 Si8 3.217878 1_655
Ca1 Si6 3.041366 1_555
Ca1 Si4 3.061977 1_455
Ca1 Si3 3.111663 1_555
Ca2 Si5 3.053962 1_565
Ca2 Si7 3.124369 1_555
Ca2 Si1 3.131392 1_555
Ca2 Si8 3.217878 1_565
Ca3 Si4 3.041366 1_555
Ca3 Si6 3.061977 1_655
Ca3 Si0 3.111663 1_555
Ca4 Si1 3.053962 1_655
Ca4 Si2 3.124369 1_555
Ca4 Si7 3.131392 1_555
Ca4 Si8 3.217878 1_665
Ca5 Si0 3.041366 1_555
Ca5 Si3 3.061977 1_545
Ca5 Si6 3.111663 1_555
Ca6 Si2 3.053962 1_455
Ca6 Si1 3.124369 1_555
Ca6 Si5 3.131392 1_555
Ca6 Si8 3.217878 1_555
Ca7 Si3 3.041366 1_555
Ca7 Si0 3.061977 1_565
Ca7 Si4 3.111663 1_555
Ca8 Si6 3.053962 1_655
Ca8 Si4 3.124369 1_555
Ca8 Si0 3.131392 1_555
Ca8 Si8 3.217878 1_656
Ca9 Si7 3.041366 1_555
Ca9 Si5 3.061977 1_565
Ca9 Si1 3.111663 1_555
Ca10 Si4 3.053962 1_455
Ca10 Si6 3.124369 1_555
Ca10 Si3 3.131392 1_555
Ca10 Si8 3.217878 1_566
Ca11 Si5 3.041366 1_555
Ca11 Si7 3.061977 1_545
Ca11 Si2 3.111663 1_555
Ca12 Si0 3.053962 1_565
Ca12 Si3 3.124369 1_555
Ca12 Si4 3.131392 1_555
Ca12 Si8 3.217878 1_666
Ca13 Si1 3.041366 1_555
Ca13 Si2 3.061977 1_455
Ca13 Si5 3.111663 1_555
Ca14 Si3 3.053962 1_545
Ca14 Si0 3.124369 1_555
Ca14 Si6 3.131392 1_555
Ca14 Si8 3.217878 1_556
Ca15 Si2 3.041366 1_555
Ca15 Si1 3.061977 1_655
Ca15 Si7 3.111663 1_555
Ca16 Si4 3.128327 1_555
Ca16 Si3 3.128327 1_555
Ca16 Si0 3.128327 1_555
Ca16 Si6 3.128327 1_555
Ca17 Si5 3.141344 1_555
Ca17 Si2 3.141344 1_455
Ca17 Si1 3.141344 1_545
Ca17 Si7 3.141344 1_445
Ca18 Si6 3.141344 1_555
Ca18 Si3 3.141344 1_545
Ca18 Si0 3.141344 1_455
Ca18 Si4 3.141344 1_445
Ca19 Si7 3.128327 1_555
Ca19 Si2 3.128327 1_555
Ca19 Si1 3.128327 1_555
Ca19 Si5 3.128327 1_555
Si0 Si3 2.491749 1_545
Si1 Si2 2.491749 1_455
Si4 Si6 2.491749 1_655
Si5 Si7 2.491749 1_545
Bi0 Ca7 3.341645 1_555
Bi0 Ca3 3.341645 1_555
Bi0 Ca1 3.341645 1_555
Bi0 Ca15 3.341645 1_555
Bi0 Ca5 3.341645 1_555
Bi0 Ca9 3.341645 1_555
Bi0 Ca11 3.341645 1_555
Bi0 Ca13 3.341645 1_555
Bi1 Ca8 3.384976 1_554
Bi1 Ca2 3.384976 1_555
Bi1 Ca14 3.384976 1_554
Bi1 Ca6 3.384976 1_555
Bi1 Ca12 3.384976 1_554
Bi1 Ca4 3.384976 1_555
Bi1 Ca10 3.384976 1_554
Bi1 Ca0 3.384976 1_555
Bi1 Ca19 3.593200 1_555
Bi1 Ca16 3.593200 1_554
Bi2 Ca5 3.361828 1_555
Bi2 Ca3 3.361828 1_455
Bi2 Ca1 3.361828 1_545
Bi2 Ca13 3.361828 1_555
Bi2 Ca7 3.361828 1_445
Bi2 Ca9 3.361828 1_545
Bi2 Ca11 3.361828 1_455
Bi2 Ca15 3.361828 1_445
Bi2 Ca17 3.771791 1_555
Bi2 Ca18 3.771791 1_555
