# generated using pymatgen
data_Nb4B2PW
_symmetry_space_group_name_H-M   'P 1'
_cell_length_a   6.15481538
_cell_length_b   6.15481621
_cell_length_c   7.23895184
_cell_angle_alpha   115.15812375
_cell_angle_beta   115.15813124
_cell_angle_gamma   89.99999867
_symmetry_Int_Tables_number   1
_chemical_formula_structural   Nb4B2PW
_chemical_formula_sum   'Nb8 B4 P2 W2'
_cell_volume   219.13063525
_cell_formula_units_Z   2
loop_
 _symmetry_equiv_pos_site_id
 _symmetry_equiv_pos_as_xyz
  1  'x, y, z'
loop_
 _atom_site_type_symbol
 _atom_site_label
 _atom_site_symmetry_multiplicity
 _atom_site_fract_x
 _atom_site_fract_y
 _atom_site_fract_z
 _atom_site_occupancy
  Nb  Nb0  1  0.02829271  0.52829271  0.72038293  1
  Nb  Nb1  1  0.69209022  0.19209022  0.72038293  1
  Nb  Nb2  1  0.19209022  0.02829271  0.72038293  1
  Nb  Nb3  1  0.52829271  0.69209022  0.72038293  1
  Nb  Nb4  1  0.97170729  0.47170729  0.27961707  1
  Nb  Nb5  1  0.30790978  0.80790978  0.27961707  1
  Nb  Nb6  1  0.80790978  0.97170729  0.27961707  1
  Nb  Nb7  1  0.47170729  0.30790978  0.27961707  1
  B  B0  1  0.38197406  0.88197406  0.00000000  1
  B  B1  1  0.61802594  0.11802594  0.00000000  1
  B  B2  1  0.11802594  0.38197406  0.00000000  1
  B  B3  1  0.88197406  0.61802594  1.00000000  1
  P  P0  1  0.25000000  0.25000000  0.50000000  1
  P  P1  1  0.75000000  0.75000000  0.50000000  1
  W  W0  1  0.50000000  0.50000000  0.00000000  1
  W  W1  1  0.00000000  0.00000000  0.00000000  1
loop_
_geom_bond_atom_site_label_1
_geom_bond_atom_site_label_2
_geom_bond_distance
_geom_bond_site_symmetry_2
Nb0 P1 2.620797 1_455
Nb0 P0 2.620797 1_555
Nb0 W0 2.803499 1_556
Nb0 W1 2.803500 1_566
Nb1 P0 2.620797 1_555
Nb1 P1 2.620797 1_545
Nb1 W1 2.803500 1_656
Nb1 W0 2.803500 1_556
Nb2 P1 2.620797 1_445
Nb2 P0 2.620797 1_555
Nb2 W1 2.803500 1_556
Nb2 W0 2.803500 1_556
Nb3 P1 2.620797 1_555
Nb3 P0 2.620797 1_555
Nb3 W1 2.803500 1_666
Nb3 W0 2.803500 1_556
Nb4 P0 2.620797 1_655
Nb4 P1 2.620797 1_555
Nb4 W0 2.803499 1_555
Nb4 W1 2.803500 1_655
Nb5 P1 2.620797 1_555
Nb5 P0 2.620797 1_565
Nb5 W1 2.803500 1_565
Nb5 W0 2.803500 1_555
Nb6 P0 2.620797 1_665
Nb6 P1 2.620797 1_555
Nb6 W1 2.803500 1_665
Nb6 W0 2.803500 1_555
Nb7 P0 2.620797 1_555
Nb7 P1 2.620797 1_555
Nb7 W1 2.803500 1_555
Nb7 W0 2.803500 1_555
B0 B1 2.054648 1_565
B0 Nb6 2.410920 1_555
B0 Nb2 2.410920 1_564
B0 Nb3 2.410920 1_554
B0 Nb7 2.410921 1_565
B0 W1 2.460651 1_565
B0 W0 2.460651 1_555
B0 Nb0 2.466122 1_554
B0 Nb5 2.466122 1_555
B1 Nb2 2.410920 1_554
B1 Nb6 2.410920 1_545
B1 Nb7 2.410920 1_555
B1 Nb3 2.410921 1_544
B1 W1 2.460651 1_655
B1 W0 2.460651 1_555
B1 Nb4 2.466122 1_555
B1 Nb1 2.466122 1_554
B2 B3 2.054648 1_454
B2 Nb1 2.410920 1_454
B2 Nb0 2.410920 1_554
B2 Nb4 2.410920 1_455
B2 Nb5 2.410920 1_555
B2 W0 2.460651 1_555
B2 W1 2.460651 1_555
B2 Nb7 2.466122 1_555
B2 Nb2 2.466122 1_554
B3 Nb5 2.410920 1_656
B3 Nb4 2.410920 1_556
B3 Nb0 2.410920 1_655
B3 Nb1 2.410920 1_555
B3 W0 2.460651 1_556
B3 W1 2.460651 1_666
B3 Nb3 2.466122 1_555
B3 Nb6 2.466122 1_556
P0 W1 2.892298 1_555
P0 W0 2.892298 1_556
P1 W1 2.892298 1_666
P1 W0 2.892298 1_555
