# generated using pymatgen
data_TaBe3NiRu
_symmetry_space_group_name_H-M   'P 1'
_cell_length_a   4.45795169
_cell_length_b   4.45795151
_cell_length_c   4.45795201
_cell_angle_alpha   60.95053609
_cell_angle_beta   60.95053391
_cell_angle_gamma   60.95053191
_symmetry_Int_Tables_number   1
_chemical_formula_structural   TaBe3NiRu
_chemical_formula_sum   'Ta1 Be3 Ni1 Ru1'
_cell_volume   63.98740785
_cell_formula_units_Z   1
loop_
 _symmetry_equiv_pos_site_id
 _symmetry_equiv_pos_as_xyz
  1  'x, y, z'
loop_
 _atom_site_type_symbol
 _atom_site_label
 _atom_site_symmetry_multiplicity
 _atom_site_fract_x
 _atom_site_fract_y
 _atom_site_fract_z
 _atom_site_occupancy
  Ta  Ta0  1  0.24903305  0.24903305  0.24903305  1
  Be  Be0  1  0.12018238  0.62553882  0.62553882  1
  Be  Be1  1  0.62553882  0.12018238  0.62553882  1
  Be  Be2  1  0.62553882  0.62553882  0.12018238  1
  Ni  Ni0  1  0.62224678  0.62224678  0.62224678  1
  Ru  Ru0  1  0.00746015  0.00746015  0.00746015  1
loop_
_geom_bond_atom_site_label_1
_geom_bond_atom_site_label_2
_geom_bond_distance
_geom_bond_site_symmetry_2
Be0 Ni0 2.224025 1_555
Be0 Ni0 2.234123 1_455
Be0 Be1 2.236702 1_465
Be0 Be2 2.236702 1_456
Be0 Be1 2.285144 1_555
Be0 Be2 2.285144 1_555
Be0 Ru0 2.588688 1_556
Be0 Ru0 2.588688 1_565
Be0 Ta0 2.612964 1_555
Be0 Ta0 2.637504 1_565
Be0 Ta0 2.637504 1_556
Be0 Ru0 2.683933 1_566
Be1 Ni0 2.224025 1_555
Be1 Ni0 2.234123 1_545
Be1 Be2 2.236702 1_546
Be1 Be2 2.285144 1_555
Be1 Ru0 2.588688 1_556
Be1 Ru0 2.588688 1_655
Be1 Ta0 2.612964 1_555
Be1 Ta0 2.637504 1_655
Be1 Ta0 2.637504 1_556
Be1 Ru0 2.683934 1_656
Be2 Ni0 2.224025 1_555
Be2 Ni0 2.234123 1_554
Be2 Ru0 2.588688 1_655
Be2 Ru0 2.588688 1_565
Be2 Ta0 2.612964 1_555
Be2 Ta0 2.637504 1_565
Be2 Ta0 2.637504 1_655
Be2 Ru0 2.683933 1_665
Ni0 Ta0 2.646244 1_655
Ni0 Ta0 2.646244 1_565
Ni0 Ta0 2.646244 1_556
Ni0 Ru0 2.670581 1_566
Ni0 Ru0 2.670581 1_656
Ni0 Ru0 2.670581 1_665
Ru0 Ta0 2.618796 1_555
Ru0 Ta0 2.793779 1_545
Ru0 Ta0 2.793779 1_455
Ru0 Ta0 2.793780 1_554
