# generated using pymatgen
data_KH6IrPb
_symmetry_space_group_name_H-M   'P 1'
_cell_length_a   5.45050023
_cell_length_b   5.45050025
_cell_length_c   5.45049919
_cell_angle_alpha   60.00000056
_cell_angle_beta   60.00000043
_cell_angle_gamma   59.99999699
_symmetry_Int_Tables_number   1
_chemical_formula_structural   KH6IrPb
_chemical_formula_sum   'K1 H6 Ir1 Pb1'
_cell_volume   114.49697199
_cell_formula_units_Z   1
loop_
 _symmetry_equiv_pos_site_id
 _symmetry_equiv_pos_as_xyz
  1  'x, y, z'
loop_
 _atom_site_type_symbol
 _atom_site_label
 _atom_site_symmetry_multiplicity
 _atom_site_fract_x
 _atom_site_fract_y
 _atom_site_fract_z
 _atom_site_occupancy
  K  K0  1  0.25000000  0.25000000  0.25000000  1
  H  H0  1  0.78220380  0.21779620  0.21779620  1
  H  H1  1  0.21779620  0.78220380  0.78220380  1
  H  H2  1  0.21779620  0.78220380  0.21779620  1
  H  H3  1  0.78220380  0.21779620  0.78220380  1
  H  H4  1  0.21779620  0.21779620  0.78220380  1
  H  H5  1  0.78220380  0.78220380  0.21779620  1
  Ir  Ir0  1  0.00000000  0.00000000  0.00000000  1
  Pb  Pb0  1  0.75000000  0.75000000  0.75000000  1
loop_
_geom_bond_atom_site_label_1
_geom_bond_atom_site_label_2
_geom_bond_distance
_geom_bond_site_symmetry_2
H0 Ir0 1.678810 1_655
H0 K0 2.736532 1_655
H0 K0 2.736532 1_555
H1 Ir0 1.678810 1_566
H1 K0 2.736532 1_565
H1 K0 2.736532 1_556
H2 Ir0 1.678810 1_565
H2 K0 2.736532 1_565
H2 K0 2.736532 1_555
H3 Ir0 1.678810 1_656
H3 K0 2.736532 1_655
H3 K0 2.736532 1_556
H4 Ir0 1.678810 1_556
H4 K0 2.736531 1_555
H4 K0 2.736532 1_556
H5 Ir0 1.678810 1_665
H5 K0 2.736532 1_565
H5 K0 2.736532 1_655
