# generated using pymatgen
data_Cs2NaCrO4
_symmetry_space_group_name_H-M   'P 1'
_cell_length_a   6.13406618
_cell_length_b   6.03366724
_cell_length_c   8.27593647
_cell_angle_alpha   87.50098324
_cell_angle_beta   90.00000000
_cell_angle_gamma   90.00000000
_symmetry_Int_Tables_number   1
_chemical_formula_structural   Cs2NaCrO4
_chemical_formula_sum   'Cs4 Na2 Cr2 O8'
_cell_volume   306.00867358
_cell_formula_units_Z   2
loop_
 _symmetry_equiv_pos_site_id
 _symmetry_equiv_pos_as_xyz
  1  'x, y, z'
loop_
 _atom_site_type_symbol
 _atom_site_label
 _atom_site_symmetry_multiplicity
 _atom_site_fract_x
 _atom_site_fract_y
 _atom_site_fract_z
 _atom_site_occupancy
  Cs  Cs0  1  0.25000000  0.15628108  0.81734209  1
  Cs  Cs1  1  0.75000000  0.84371892  0.18265791  1
  Cs  Cs2  1  0.25000000  0.70183556  0.50813836  1
  Cs  Cs3  1  0.75000000  0.29816444  0.49186164  1
  Na  Na0  1  0.75000000  0.36774640  0.97337537  1
  Na  Na1  1  0.25000000  0.63225360  0.02662463  1
  Cr  Cr0  1  0.25000000  0.21032795  0.24072493  1
  Cr  Cr1  1  0.75000000  0.78967205  0.75927507  1
  O  O0  1  0.97254499  0.64751624  0.83402181  1
  O  O1  1  0.47254499  0.35248376  0.16597819  1
  O  O2  1  0.02745501  0.35248376  0.16597819  1
  O  O3  1  0.52745501  0.64751624  0.83402181  1
  O  O4  1  0.75000000  0.05690426  0.82169079  1
  O  O5  1  0.75000000  0.80386210  0.55354522  1
  O  O6  1  0.25000000  0.94309574  0.17830921  1
  O  O7  1  0.25000000  0.19613790  0.44645478  1
loop_
_geom_bond_atom_site_label_1
_geom_bond_atom_site_label_2
_geom_bond_distance
_geom_bond_site_symmetry_2
Cs0 O7 3.068375 1_555
Cs0 O4 3.125001 1_455
Cs0 O4 3.125001 1_555
Cs0 O6 3.200571 1_546
Cs0 O3 3.425827 1_555
Cs0 O0 3.425827 1_455
Cs0 O1 3.447856 1_556
Cs0 O2 3.447856 1_556
Cs0 O3 3.507396 1_545
Cs0 O0 3.507396 1_445
Cs1 O5 3.068375 1_555
Cs1 O6 3.125001 1_555
Cs1 O6 3.125001 1_655
Cs1 O4 3.200571 1_564
Cs1 O2 3.425827 1_655
Cs1 O1 3.425827 1_555
Cs1 O0 3.447856 1_554
Cs1 O3 3.447856 1_554
Cs1 O2 3.507396 1_665
Cs1 O1 3.507396 1_565
Cs2 O7 3.003810 1_565
Cs2 O6 3.037017 1_555
Cs2 O7 3.115497 1_555
Cs2 O5 3.153892 1_455
Cs2 O5 3.153892 1_555
Cs2 O3 3.193846 1_555
Cs2 O0 3.193846 1_455
Cs3 O5 3.003810 1_545
Cs3 O4 3.037017 1_555
Cs3 O5 3.115497 1_555
Cs3 O7 3.153892 1_555
Cs3 O7 3.153892 1_655
Cs3 O2 3.193846 1_655
Cs3 O1 3.193846 1_555
Na0 O4 2.301899 1_555
Na0 O2 2.330874 1_656
Na0 O1 2.330874 1_556
Na0 O0 2.423484 1_555
Na0 O3 2.423484 1_555
Na1 O6 2.301899 1_555
Na1 O3 2.330874 1_554
Na1 O0 2.330874 1_454
Na1 O1 2.423484 1_555
Na1 O2 2.423484 1_555
Cr0 O7 1.701026 1_555
Cr0 O1 1.713358 1_555
Cr0 O2 1.713358 1_555
Cr0 O6 1.714426 1_545
Cr1 O5 1.701026 1_555
Cr1 O0 1.713358 1_555
Cr1 O3 1.713358 1_555
Cr1 O4 1.714426 1_565
