# generated using pymatgen
data_ScAlV2Ga3
_symmetry_space_group_name_H-M   'P 1'
_cell_length_a   5.26536132
_cell_length_b   5.26536156
_cell_length_c   5.24570128
_cell_angle_alpha   103.80764937
_cell_angle_beta   103.80763972
_cell_angle_gamma   121.63164484
_symmetry_Int_Tables_number   1
_chemical_formula_structural   ScAlV2Ga3
_chemical_formula_sum   'Sc1 Al1 V2 Ga3'
_cell_volume   107.98062680
_cell_formula_units_Z   1
loop_
 _symmetry_equiv_pos_site_id
 _symmetry_equiv_pos_as_xyz
  1  'x, y, z'
loop_
 _atom_site_type_symbol
 _atom_site_label
 _atom_site_symmetry_multiplicity
 _atom_site_fract_x
 _atom_site_fract_y
 _atom_site_fract_z
 _atom_site_occupancy
  Sc  Sc0  1  0.99893632  0.99893632  0.99787265  1
  Al  Al0  1  0.30276830  0.30276830  0.60553759  1
  V  V0  1  0.24991301  0.74991301  0.49982602  1
  V  V1  1  0.74991301  0.24991301  0.49982602  1
  Ga  Ga0  1  0.69920398  0.69920398  0.39840696  1
  Ga  Ga1  1  0.69915129  0.30011410  0.99926538  1
  Ga  Ga2  1  0.30011410  0.69915129  0.99926538  1
loop_
_geom_bond_atom_site_label_1
_geom_bond_atom_site_label_2
_geom_bond_distance
_geom_bond_site_symmetry_2
Al0 Ga2 2.570750 1_555
Al0 Ga1 2.570750 1_555
Al0 V1 2.676722 1_455
Al0 V0 2.676722 1_545
Al0 V1 2.676724 1_555
Al0 V0 2.676725 1_555
Al0 Ga0 2.736738 1_445
Al0 Ga0 2.736747 1_555
Al0 Sc0 2.779719 1_444
Al0 Sc0 3.132564 1_445
Al0 Sc0 3.132569 1_555
V0 V1 2.567488 1_455
V0 V1 2.567488 1_565
Ga0 Ga1 2.588161 1_554
Ga0 Ga2 2.588161 1_554
Ga0 V0 2.673244 1_655
Ga0 V1 2.673245 1_565
Ga0 V0 2.673247 1_555
Ga0 V1 2.673247 1_555
Ga0 Sc0 2.742212 1_555
Ga0 Sc0 3.154203 1_554
Ga0 Sc0 3.154207 1_444
Ga1 V0 2.661396 1_545
Ga1 V1 2.661396 1_555
Ga1 V0 2.665801 1_656
Ga1 V1 2.665801 1_556
Ga1 Ga2 2.730134 1_655
Ga1 Ga2 2.730134 1_545
Ga1 Sc0 2.762609 1_545
Ga1 Sc0 3.155456 1_445
Ga1 Sc0 3.155456 1_555
Ga2 V1 2.661396 1_455
Ga2 V0 2.661396 1_555
Ga2 V1 2.665801 1_566
Ga2 V0 2.665801 1_556
Ga2 Sc0 2.762609 1_455
Ga2 Sc0 3.155456 1_555
Ga2 Sc0 3.155456 1_445
