# generated using pymatgen
data_Cs2Sc(SbSe2)5
_symmetry_space_group_name_H-M   'P 1'
_cell_length_a   4.04695801
_cell_length_b   12.16626487
_cell_length_c   22.82988115
_cell_angle_alpha   90.00000000
_cell_angle_beta   90.00000000
_cell_angle_gamma   90.00000000
_symmetry_Int_Tables_number   1
_chemical_formula_structural   Cs2Sc(SbSe2)5
_chemical_formula_sum   'Cs4 Sc2 Sb10 Se20'
_cell_volume   1124.06031859
_cell_formula_units_Z   2
loop_
 _symmetry_equiv_pos_site_id
 _symmetry_equiv_pos_as_xyz
  1  'x, y, z'
loop_
 _atom_site_type_symbol
 _atom_site_label
 _atom_site_symmetry_multiplicity
 _atom_site_fract_x
 _atom_site_fract_y
 _atom_site_fract_z
 _atom_site_occupancy
  Cs  Cs0  1  0.25000000  0.99164203  0.29127358  1
  Cs  Cs1  1  0.75000000  0.49048553  0.21003067  1
  Cs  Cs2  1  0.75000000  0.00951447  0.71003067  1
  Cs  Cs3  1  0.25000000  0.50835797  0.79127358  1
  Sc  Sc0  1  0.75000000  0.36420725  0.02148963  1
  Sc  Sc1  1  0.75000000  0.13579275  0.52148963  1
  Sb  Sb0  1  0.75000000  0.81667929  0.12142821  1
  Sb  Sb1  1  0.25000000  0.40004654  0.56967484  1
  Sb  Sb2  1  0.25000000  0.18537453  0.87836826  1
  Sb  Sb3  1  0.75000000  0.59898268  0.43036421  1
  Sb  Sb4  1  0.25000000  0.09995346  0.06967484  1
  Sb  Sb5  1  0.25000000  0.62858287  0.97898693  1
  Sb  Sb6  1  0.25000000  0.31462547  0.37836826  1
  Sb  Sb7  1  0.25000000  0.87141713  0.47898693  1
  Sb  Sb8  1  0.75000000  0.90101732  0.93036421  1
  Sb  Sb9  1  0.75000000  0.68332071  0.62142821  1
  Se  Se0  1  0.25000000  0.74258214  0.69398213  1
  Se  Se1  1  0.75000000  0.15082632  0.98403029  1
  Se  Se2  1  0.25000000  0.31204826  0.10068909  1
  Se  Se3  1  0.75000000  0.57422102  0.05913786  1
  Se  Se4  1  0.25000000  0.08604159  0.44426526  1
  Se  Se5  1  0.75000000  0.92577898  0.55913786  1
  Se  Se6  1  0.25000000  0.41395841  0.94426526  1
  Se  Se7  1  0.25000000  0.86225746  0.01838981  1
  Se  Se8  1  0.75000000  0.34917368  0.48403029  1
  Se  Se9  1  0.75000000  0.24523596  0.80628447  1
  Se  Se10  1  0.25000000  0.52711650  0.34689766  1
  Se  Se11  1  0.25000000  0.97288350  0.84689766  1
  Se  Se12  1  0.75000000  0.80289530  0.39184971  1
  Se  Se13  1  0.75000000  0.46952339  0.65286041  1
  Se  Se14  1  0.25000000  0.18795174  0.60068909  1
  Se  Se15  1  0.25000000  0.75741786  0.19398213  1
  Se  Se16  1  0.75000000  0.03047661  0.15286041  1
  Se  Se17  1  0.75000000  0.25476404  0.30628447  1
  Se  Se18  1  0.75000000  0.69710470  0.89184971  1
  Se  Se19  1  0.25000000  0.63774254  0.51838981  1
loop_
_geom_bond_atom_site_label_1
_geom_bond_atom_site_label_2
_geom_bond_distance
_geom_bond_site_symmetry_2
Cs0 Se15 3.613022 1_555
Cs0 Se4 3.676759 1_565
Cs0 Se16 3.781933 1_565
Cs0 Se16 3.781933 1_465
Cs0 Se17 3.802587 1_565
Cs0 Se17 3.802587 1_465
Cs0 Se12 3.826215 1_455
Cs0 Se12 3.826215 1_555
Cs1 Se3 3.592345 1_555
Cs1 Se17 3.612950 1_555
Cs1 Se10 3.749208 1_555
Cs1 Se10 3.749208 1_655
Cs1 Se15 3.843880 1_555
Cs1 Se15 3.843880 1_655
Cs1 Se2 3.877967 1_655
Cs1 Se2 3.877967 1_555
Cs2 Se5 3.592345 1_545
Cs2 Se9 3.612950 1_555
Cs2 Se11 3.749208 1_645
Cs2 Se11 3.749208 1_545
Cs2 Se0 3.843880 1_645
Cs2 Se0 3.843880 1_545
Cs2 Se14 3.877967 1_655
Cs2 Se14 3.877967 1_555
Cs3 Se0 3.613022 1_555
Cs3 Se6 3.676759 1_555
Cs3 Se13 3.781933 1_455
Cs3 Se13 3.781933 1_555
Cs3 Se9 3.802587 1_555
Cs3 Se9 3.802587 1_455
Cs3 Se18 3.826215 1_555
Cs3 Se18 3.826215 1_455
Sc0 Se3 2.695774 1_555
Sc0 Se1 2.733281 1_554
Sc0 Se6 2.751198 1_554
Sc0 Se6 2.751198 1_654
Sc0 Se2 2.786833 1_555
Sc0 Se2 2.786833 1_655
Sc1 Se5 2.695774 1_545
Sc1 Se8 2.733281 1_555
Sc1 Se4 2.751198 1_555
Sc1 Se4 2.751198 1_655
Sc1 Se14 2.786833 1_655
Sc1 Se14 2.786833 1_555
Sb0 Se16 2.698284 1_565
Sb0 Se15 2.712553 1_655
Sb0 Se15 2.712553 1_555
Sb0 Se7 3.152067 1_555
Sb0 Se7 3.152067 1_655
Sb0 Se3 3.274707 1_555
Sb1 Se14 2.675782 1_555
Sb1 Se8 2.881070 1_455
Sb1 Se8 2.881070 1_555
Sb1 Se13 2.900965 1_455
Sb1 Se13 2.900965 1_555
Sb1 Se19 3.119899 1_555
Sb2 Se11 2.683202 1_545
Sb2 Se9 2.707967 1_555
Sb2 Se9 2.707967 1_455
Sb2 Se6 3.161852 1_555
Sb2 Se1 3.176491 1_455
Sb2 Se1 3.176491 1_555
Sb3 Se12 2.632067 1_555
Sb3 Se19 2.890569 1_655
Sb3 Se19 2.890569 1_555
Sb3 Se10 2.913759 1_655
Sb3 Se10 2.913759 1_555
Sb3 Se8 3.276902 1_555
Sb4 Se2 2.675782 1_555
Sb4 Se1 2.881070 1_454
Sb4 Se1 2.881070 1_554
Sb4 Se16 2.900965 1_455
Sb4 Se16 2.900965 1_555
Sb4 Se7 3.119899 1_545
Sb5 Se6 2.728848 1_555
Sb5 Se3 2.807168 1_556
Sb5 Se3 2.807168 1_456
Sb5 Se18 2.957514 1_455
Sb5 Se18 2.957514 1_555
Sb5 Se7 2.981872 1_556
Sb6 Se10 2.683202 1_555
Sb6 Se17 2.707967 1_455
Sb6 Se17 2.707967 1_555
Sb6 Se4 3.161852 1_555
Sb6 Se8 3.176491 1_455
Sb6 Se8 3.176491 1_555
Sb7 Se4 2.728848 1_565
Sb7 Se5 2.807168 1_455
Sb7 Se5 2.807168 1_555
Sb7 Se12 2.957514 1_455
Sb7 Se12 2.957514 1_555
Sb7 Se19 2.981872 1_555
Sb8 Se18 2.632067 1_555
Sb8 Se7 2.890569 1_556
Sb8 Se7 2.890569 1_656
Sb8 Se11 2.913759 1_555
Sb8 Se11 2.913759 1_655
Sb8 Se1 3.276902 1_565
Sb9 Se13 2.698284 1_555
Sb9 Se0 2.712553 1_555
Sb9 Se0 2.712553 1_655
Sb9 Se19 3.152067 1_555
Sb9 Se19 3.152067 1_655
Sb9 Se5 3.274707 1_555
