# generated using pymatgen
data_Sb2(AuF6)3
_symmetry_space_group_name_H-M   'P 1'
_cell_length_a   8.38552841
_cell_length_b   9.04379051
_cell_length_c   10.07947296
_cell_angle_alpha   59.99703329
_cell_angle_beta   90.00000000
_cell_angle_gamma   90.00000000
_symmetry_Int_Tables_number   1
_chemical_formula_structural   Sb2(AuF6)3
_chemical_formula_sum   'Sb4 Au6 F36'
_cell_volume   661.96709274
_cell_formula_units_Z   2
loop_
 _symmetry_equiv_pos_site_id
 _symmetry_equiv_pos_as_xyz
  1  'x, y, z'
loop_
 _atom_site_type_symbol
 _atom_site_label
 _atom_site_symmetry_multiplicity
 _atom_site_fract_x
 _atom_site_fract_y
 _atom_site_fract_z
 _atom_site_occupancy
  Sb  Sb0  1  0.87416448  0.13757894  0.71879830  1
  Sb  Sb1  1  0.37416448  0.86242106  0.78120170  1
  Sb  Sb2  1  0.12583552  0.86242106  0.28120170  1
  Sb  Sb3  1  0.62583552  0.13757894  0.21879830  1
  Au  Au0  1  0.50000000  0.50000000  0.50000000  1
  Au  Au1  1  -0.00000000  0.50000000  0.00000000  1
  Au  Au2  1  0.16886396  0.33127271  0.36882935  1
  Au  Au3  1  0.66886396  0.66872729  0.13117065  1
  Au  Au4  1  0.83113604  0.66872729  0.63117065  1
  Au  Au5  1  0.33113604  0.33127271  0.86882935  1
  F  F0  1  0.05567824  0.05890462  0.84268292  1
  F  F1  1  0.55567824  0.94109538  0.65731708  1
  F  F2  1  0.94432176  0.94109538  0.15731708  1
  F  F3  1  0.44432176  0.05890462  0.34268292  1
  F  F4  1  0.89675151  0.97008243  0.66220523  1
  F  F5  1  0.39675151  0.02991757  0.83779477  1
  F  F6  1  0.20678154  0.39864431  0.69068102  1
  F  F7  1  0.70678154  0.60135569  0.80931898  1
  F  F8  1  0.79321846  0.60135569  0.30931898  1
  F  F9  1  0.29321846  0.39864431  0.19068102  1
  F  F10  1  0.51998837  0.35914326  0.74296200  1
  F  F11  1  0.01998837  0.64085674  0.75703800  1
  F  F12  1  0.48001163  0.64085674  0.25703800  1
  F  F13  1  0.98001163  0.35914326  0.24296200  1
  F  F14  1  0.13780132  0.30888581  0.98876335  1
  F  F15  1  0.63780132  0.69111419  0.51123665  1
  F  F16  1  0.86219868  0.69111419  0.01123665  1
  F  F17  1  0.36219868  0.30888581  0.48876335  1
  F  F18  1  0.10324849  0.02991757  0.33779477  1
  F  F19  1  0.60324849  0.97008243  0.16220523  1
  F  F20  1  0.71430713  0.24790717  0.56895943  1
  F  F21  1  0.21430713  0.75209283  0.93104057  1
  F  F22  1  0.47456398  0.28536736  0.04503737  1
  F  F23  1  0.97456398  0.71463264  0.45496263  1
  F  F24  1  0.52543602  0.71463264  0.95496263  1
  F  F25  1  0.02543602  0.28536736  0.54503737  1
  F  F26  1  0.77015063  0.01095973  0.37802707  1
  F  F27  1  0.27015063  0.98904027  0.12197293  1
  F  F28  1  0.22984937  0.98904027  0.62197293  1
  F  F29  1  0.72984937  0.01095973  0.87802707  1
  F  F30  1  0.63307987  0.32782482  0.24888841  1
  F  F31  1  0.13307987  0.67217518  0.25111159  1
  F  F32  1  0.36692013  0.67217518  0.75111159  1
  F  F33  1  0.86692013  0.32782482  0.74888841  1
  F  F34  1  0.78569287  0.24790717  0.06895943  1
  F  F35  1  0.28569287  0.75209283  0.43104057  1
loop_
_geom_bond_atom_site_label_1
_geom_bond_atom_site_label_2
_geom_bond_distance
_geom_bond_site_symmetry_2
Au0 F10 2.127956 1_555
Au0 F12 2.127956 1_555
Au0 F15 2.128667 1_555
Au0 F17 2.128667 1_555
Au1 F13 2.127956 1_455
Au1 F11 2.127956 1_554
Au1 F16 2.128667 1_455
Au1 F14 2.128667 1_554
Au2 F9 1.894408 1_555
Au2 F13 1.964978 1_455
Au2 F17 1.971274 1_555
Au2 F25 2.008965 1_555
Au3 F8 1.894408 1_555
Au3 F12 1.964978 1_555
Au3 F16 1.971274 1_555
Au3 F24 2.008965 1_554
Au4 F7 1.894408 1_555
Au4 F11 1.964978 1_655
Au4 F15 1.971274 1_555
Au4 F23 2.008965 1_555
Au5 F6 1.894408 1_555
Au5 F10 1.964978 1_555
Au5 F14 1.971274 1_555
Au5 F22 2.008965 1_556
F0 Sb0 1.869143 1_455
F1 Sb1 1.869143 1_555
F2 Sb2 1.869143 1_655
F3 Sb3 1.869143 1_555
F4 Sb0 1.876181 1_565
F5 Sb1 1.876181 1_545
F18 Sb2 1.876181 1_545
F19 Sb3 1.876181 1_565
F20 Sb0 1.888490 1_555
F21 Sb1 1.888490 1_555
F22 Sb3 2.030234 1_555
F23 Sb2 2.030234 1_655
F24 Sb1 2.030234 1_555
F25 Sb0 2.030234 1_455
F26 Sb3 1.874461 1_555
F27 Sb2 1.874461 1_555
F28 Sb1 1.874461 1_555
F29 Sb0 1.874461 1_555
F30 Sb3 1.891513 1_555
F31 Sb2 1.891513 1_555
F32 Sb1 1.891513 1_555
F33 Sb0 1.891513 1_555
F34 Sb3 1.888490 1_555
F35 Sb2 1.888490 1_555
