# generated using pymatgen
data_Ba4CdWO8
_symmetry_space_group_name_H-M   'P 1'
_cell_length_a   7.32693557
_cell_length_b   7.32693583
_cell_length_c   6.00703692
_cell_angle_alpha   90.00000000
_cell_angle_beta   90.00000000
_cell_angle_gamma   132.16508809
_symmetry_Int_Tables_number   1
_chemical_formula_structural   Ba4CdWO8
_chemical_formula_sum   'Ba4 Cd1 W1 O8'
_cell_volume   239.02786564
_cell_formula_units_Z   1
loop_
 _symmetry_equiv_pos_site_id
 _symmetry_equiv_pos_as_xyz
  1  'x, y, z'
loop_
 _atom_site_type_symbol
 _atom_site_label
 _atom_site_symmetry_multiplicity
 _atom_site_fract_x
 _atom_site_fract_y
 _atom_site_fract_z
 _atom_site_occupancy
  Ba  Ba0  1  0.35528485  0.64471515  0.00000000  1
  Ba  Ba1  1  0.85545938  0.14454062  0.50000000  1
  Ba  Ba2  1  0.14454062  0.85545938  0.50000000  1
  Ba  Ba3  1  0.64471515  0.35528485  0.00000000  1
  Cd  Cd0  1  0.00000000  0.00000000  0.00000000  1
  W  W0  1  0.50000000  0.50000000  0.50000000  1
  O  O0  1  0.27109306  0.27109306  0.72274007  1
  O  O1  1  0.72890694  0.72890694  0.27725993  1
  O  O2  1  0.72890694  0.72890694  0.72274007  1
  O  O3  1  0.27109306  0.27109306  0.27725993  1
  O  O4  1  0.16704189  0.83295811  0.00000000  1
  O  O5  1  0.64796010  0.35203990  0.50000000  1
  O  O6  1  0.35203990  0.64796010  0.50000000  1
  O  O7  1  0.83295811  0.16704189  0.00000000  1
loop_
_geom_bond_atom_site_label_1
_geom_bond_atom_site_label_2
_geom_bond_distance
_geom_bond_site_symmetry_2
Ba0 O4 2.521618 1_555
Ba0 O2 2.895042 1_554
Ba0 O1 2.895042 1_555
Ba0 O0 2.895042 1_554
Ba0 O3 2.895042 1_555
Ba0 O7 2.985505 1_455
Ba0 O7 2.985505 1_565
Ba0 O6 3.003833 1_555
Ba0 O6 3.003833 1_554
Ba1 O5 2.779567 1_555
Ba1 O3 2.851847 1_655
Ba1 O0 2.851847 1_655
Ba1 O1 2.851847 1_545
Ba1 O2 2.851847 1_545
Ba1 O6 2.970840 1_545
Ba1 O6 2.970840 1_655
Ba1 O7 3.018605 1_555
Ba1 O7 3.018605 1_556
Ba2 O6 2.779567 1_555
Ba2 O1 2.851847 1_455
Ba2 O2 2.851847 1_455
Ba2 O3 2.851847 1_565
Ba2 O0 2.851847 1_565
Ba2 O5 2.970840 1_565
Ba2 O5 2.970840 1_455
Ba2 O4 3.018605 1_556
Ba2 O4 3.018605 1_555
Ba3 O7 2.521618 1_555
Ba3 O0 2.895042 1_554
Ba3 O3 2.895042 1_555
Ba3 O2 2.895042 1_554
Ba3 O1 2.895042 1_555
Ba3 O4 2.985505 1_655
Ba3 O4 2.985505 1_545
Ba3 O5 3.003833 1_554
Ba3 O5 3.003833 1_555
Cd0 O4 2.237618 1_545
Cd0 O7 2.237618 1_455
Cd0 O0 2.316855 1_554
Cd0 O2 2.316855 1_444
Cd0 O3 2.316855 1_555
Cd0 O1 2.316855 1_445
O0 W0 1.907793 1_555
O1 W0 1.907793 1_555
O2 W0 1.907793 1_555
O3 W0 1.907793 1_555
O5 W0 1.982007 1_555
O6 W0 1.982007 1_555
