# generated using pymatgen
data_Cs2Zr(TeO4)3
_symmetry_space_group_name_H-M   'P 1'
_cell_length_a   7.24339419
_cell_length_b   7.24339490
_cell_length_c   7.39364813
_cell_angle_alpha   60.66555681
_cell_angle_beta   60.66554888
_cell_angle_gamma   60.00204570
_symmetry_Int_Tables_number   1
_chemical_formula_structural   Cs2Zr(TeO4)3
_chemical_formula_sum   'Cs2 Zr1 Te3 O12'
_cell_volume   277.03290657
_cell_formula_units_Z   1
loop_
 _symmetry_equiv_pos_site_id
 _symmetry_equiv_pos_as_xyz
  1  'x, y, z'
loop_
 _atom_site_type_symbol
 _atom_site_label
 _atom_site_symmetry_multiplicity
 _atom_site_fract_x
 _atom_site_fract_y
 _atom_site_fract_z
 _atom_site_occupancy
  Cs  Cs0  1  0.87811796  0.86953931  0.87835997  1
  Cs  Cs1  1  0.13046069  0.12188204  0.12164003  1
  Zr  Zr0  1  0.50329365  0.49670635  0.00000000  1
  Te  Te0  1  0.50327804  0.99672909  0.49997927  1
  Te  Te1  1  0.00327091  0.49672196  0.50002073  1
  Te  Te2  1  0.50325258  0.49674742  0.50000000  1
  O  O0  1  0.18514430  0.17876128  0.56268804  1
  O  O1  1  0.56979052  0.56352286  0.20081369  1
  O  O2  1  0.56986209  0.16257436  0.20078541  1
  O  O3  1  0.18517143  0.57033032  0.56255338  1
  O  O4  1  0.16922677  0.56343636  0.20083815  1
  O  O5  1  0.57650906  0.17875280  0.56278466  1
  O  O6  1  0.82123872  0.81485570  0.43731196  1
  O  O7  1  0.43647714  0.43020948  0.79918631  1
  O  O8  1  0.43656364  0.83077323  0.79916185  1
  O  O9  1  0.82124720  0.42349094  0.43721534  1
  O  O10  1  0.83742564  0.43013791  0.79921459  1
  O  O11  1  0.42966968  0.81482857  0.43744662  1
loop_
_geom_bond_atom_site_label_1
_geom_bond_atom_site_label_2
_geom_bond_distance
_geom_bond_site_symmetry_2
Cs0 O4 3.180955 1_656
Cs0 O1 3.184370 1_556
Cs0 O3 3.185258 1_655
Cs0 O2 3.190175 1_566
Cs0 O0 3.191070 1_665
Cs0 O5 3.196030 1_565
Cs1 O8 3.180955 1_544
Cs1 O7 3.184370 1_554
Cs1 O11 3.185258 1_545
Cs1 O10 3.190176 1_454
Cs1 O6 3.191070 1_445
Cs1 O9 3.196030 1_455
O0 Te1 1.942450 1_555
O0 Te0 1.943594 1_545
O1 Te2 1.870741 1_555
O1 Zr0 2.075715 1_555
O2 Te0 1.870680 1_545
O2 Zr0 2.075567 1_555
O3 Te1 1.942914 1_555
O3 Te2 1.943159 1_555
O4 Te1 1.870772 1_555
O4 Zr0 2.075337 1_555
O5 Te2 1.942697 1_555
O5 Te0 1.943172 1_545
O6 Te0 1.942450 1_555
O6 Te1 1.943594 1_655
O7 Te2 1.870741 1_555
O7 Zr0 2.075715 1_556
O8 Te0 1.870772 1_555
O8 Zr0 2.075338 1_556
O9 Te2 1.942696 1_555
O9 Te1 1.943172 1_655
O10 Te1 1.870680 1_655
O10 Zr0 2.075566 1_556
O11 Te0 1.942914 1_555
O11 Te2 1.943159 1_555
