# generated using pymatgen
data_K2Hg(AuS)4
_symmetry_space_group_name_H-M   'P 1'
_cell_length_a   9.72781972
_cell_length_b   9.72781991
_cell_length_c   9.72782032
_cell_angle_alpha   137.15943030
_cell_angle_beta   113.35708502
_cell_angle_gamma   82.54722710
_symmetry_Int_Tables_number   1
_chemical_formula_structural   K2Hg(AuS)4
_chemical_formula_sum   'K4 Hg2 Au8 S8'
_cell_volume   555.20211932
_cell_formula_units_Z   2
loop_
 _symmetry_equiv_pos_site_id
 _symmetry_equiv_pos_as_xyz
  1  'x, y, z'
loop_
 _atom_site_type_symbol
 _atom_site_label
 _atom_site_symmetry_multiplicity
 _atom_site_fract_x
 _atom_site_fract_y
 _atom_site_fract_z
 _atom_site_occupancy
  K  K0  1  0.15014339  0.16017432  0.31031771  1
  K  K1  1  0.34985661  0.66017432  0.01003092  1
  K  K2  1  0.65014339  0.33982568  0.98996908  1
  K  K3  1  0.84985661  0.83982568  0.68968229  1
  Hg  Hg0  1  0.75000000  0.75000000  0.00000000  1
  Hg  Hg1  1  0.25000000  0.25000000  0.00000000  1
  Au  Au0  1  0.13588929  0.63588929  0.50000000  1
  Au  Au1  1  0.86411071  0.36411071  0.50000000  1
  Au  Au2  1  0.50000000  0.00000000  0.00000000  1
  Au  Au3  1  0.63588929  0.13588929  0.50000000  1
  Au  Au4  1  0.36411071  0.86411071  0.50000000  1
  Au  Au5  1  0.00000000  0.50000000  0.00000000  1
  Au  Au6  1  0.00000000  0.00000000  0.50000000  1
  Au  Au7  1  0.50000000  0.50000000  0.50000000  1
  S  S0  1  0.01638039  0.35138065  0.11021767  1
  S  S1  1  0.74116397  0.85138065  0.33499926  1
  S  S2  1  0.75883603  0.09383629  0.11021767  1
  S  S3  1  0.98361961  0.64861935  0.88978233  1
  S  S4  1  0.25883603  0.14861935  0.66500074  1
  S  S5  1  0.51638039  0.40616371  0.66500074  1
  S  S6  1  0.48361961  0.59383629  0.33499926  1
  S  S7  1  0.24116397  0.90616371  0.88978233  1
loop_
_geom_bond_atom_site_label_1
_geom_bond_atom_site_label_2
_geom_bond_distance
_geom_bond_site_symmetry_2
K0 S5 3.268073 1_555
K0 S4 3.268082 1_555
K0 S3 3.332496 1_444
K0 S7 3.332505 1_544
K0 S0 3.408111 1_555
K0 S2 3.408119 1_455
K1 S3 3.268072 1_454
K1 S7 3.268080 1_554
K1 S5 3.332491 1_554
K1 S4 3.332499 1_554
K1 S6 3.408110 1_555
K1 S1 3.408118 1_555
K2 S0 3.268072 1_656
K2 S2 3.268080 1_556
K2 S6 3.332491 1_556
K2 S1 3.332499 1_556
K2 S5 3.408110 1_555
K2 S4 3.408118 1_555
K3 S6 3.268073 1_555
K3 S1 3.268082 1_555
K3 S0 3.332496 1_666
K3 S2 3.332505 1_566
K3 S3 3.408111 1_555
K3 S7 3.408119 1_655
Hg0 S1 2.662110 1_555
Hg0 S2 2.662114 1_565
Hg0 S5 2.662120 1_554
Hg0 S3 2.662124 1_554
Hg1 S4 2.662110 1_554
Hg1 S7 2.662114 1_544
Hg1 S6 2.662120 1_555
Hg1 S0 2.662124 1_555
Au0 S7 2.310492 1_555
Au0 S0 2.310492 1_555
Au0 K0 3.514734 1_555
Au0 K3 3.514734 1_455
Au1 S2 2.310492 1_555
Au1 S3 2.310492 1_555
Au1 K3 3.514734 1_555
Au1 K0 3.514734 1_655
Au2 S7 2.311504 1_544
Au2 S2 2.311504 1_555
Au3 S1 2.310498 1_545
Au3 S5 2.310498 1_555
Au3 K1 3.514734 1_545
Au3 K2 3.514735 1_555
Au4 S4 2.310498 1_565
Au4 S6 2.310498 1_555
Au4 K2 3.514734 1_565
Au4 K1 3.514735 1_555
Au5 S3 2.311515 1_454
Au5 S0 2.311515 1_555
Au6 S4 2.311505 1_555
Au6 S1 2.311505 1_445
Au7 S6 2.311516 1_555
Au7 S5 2.311516 1_555
