# generated using pymatgen
data_Y2GaIrRu
_symmetry_space_group_name_H-M   'P 1'
_cell_length_a   5.52441507
_cell_length_b   5.52441471
_cell_length_c   5.52441578
_cell_angle_alpha   136.80377395
_cell_angle_beta   116.29647136
_cell_angle_gamma   80.09415427
_symmetry_Int_Tables_number   1
_chemical_formula_structural   Y2GaIrRu
_chemical_formula_sum   'Y2 Ga1 Ir1 Ru1'
_cell_volume   100.28552316
_cell_formula_units_Z   1
loop_
 _symmetry_equiv_pos_site_id
 _symmetry_equiv_pos_as_xyz
  1  'x, y, z'
loop_
 _atom_site_type_symbol
 _atom_site_label
 _atom_site_symmetry_multiplicity
 _atom_site_fract_x
 _atom_site_fract_y
 _atom_site_fract_z
 _atom_site_occupancy
  Y  Y0  1  0.70358826  0.20472070  0.49886756  1
  Y  Y1  1  0.29414686  0.79527930  0.49886756  1
  Ga  Ga0  1  0.00541504  1.00000000  0.00541504  1
  Ir  Ir0  1  0.72740117  0.50000000  0.22740117  1
  Ru  Ru0  1  0.26944866  0.50000000  0.76944866  1
loop_
_geom_bond_atom_site_label_1
_geom_bond_atom_site_label_2
_geom_bond_distance
_geom_bond_site_symmetry_2
Y0 Y1 3.463078 1_545
Y0 Y1 3.636091 1_555
Y0 Y1 3.636091 1_656
Y0 Y1 3.636091 1_645
Y0 Y1 3.636092 1_544
Ga0 Ru0 2.550534 1_554
Ga0 Ru0 2.550534 1_565
Ga0 Ir0 2.600548 1_465
Ga0 Ir0 2.600549 1_454
Ga0 Y0 3.220876 1_454
Ga0 Y1 3.220876 1_565
Ga0 Y0 3.220877 1_465
Ga0 Y1 3.220877 1_554
Ga0 Y0 3.358040 1_565
Ga0 Y1 3.358040 1_555
Ga0 Y1 3.423686 1_454
Ga0 Y0 3.423686 1_464
Ir0 Ru0 2.670196 1_554
Ir0 Y1 2.956832 1_655
Ir0 Y0 2.956832 1_555
Ir0 Y1 2.984789 1_544
Ir0 Y0 2.984789 1_565
Ir0 Y1 2.984789 1_555
Ir0 Y0 2.984790 1_554
Ru0 Y0 2.954071 1_455
Ru0 Y1 2.954072 1_555
Ru0 Y0 2.987097 1_566
Ru0 Y1 2.987097 1_545
Ru0 Y0 2.987098 1_555
Ru0 Y1 2.987098 1_556
