# generated using pymatgen
data_Zr5SiSn2Sb
_symmetry_space_group_name_H-M   'P 1'
_cell_length_a   8.66823628
_cell_length_b   8.66293859
_cell_length_c   5.85790632
_cell_angle_alpha   90.00000000
_cell_angle_beta   90.00000000
_cell_angle_gamma   119.97978409
_symmetry_Int_Tables_number   1
_chemical_formula_structural   Zr5SiSn2Sb
_chemical_formula_sum   'Zr10 Si2 Sn4 Sb2'
_cell_volume   381.02850256
_cell_formula_units_Z   2
loop_
 _symmetry_equiv_pos_site_id
 _symmetry_equiv_pos_as_xyz
  1  'x, y, z'
loop_
 _atom_site_type_symbol
 _atom_site_label
 _atom_site_symmetry_multiplicity
 _atom_site_fract_x
 _atom_site_fract_y
 _atom_site_fract_z
 _atom_site_occupancy
  Zr  Zr0  1  0.25802108  0.00035809  0.25000000  1
  Zr  Zr1  1  0.25802108  0.25766399  0.75000000  1
  Zr  Zr2  1  0.00075479  0.74325709  0.75000000  1
  Zr  Zr3  1  0.00075479  0.25749671  0.25000000  1
  Zr  Zr4  1  0.74129799  0.74117968  0.25000000  1
  Zr  Zr5  1  0.74129799  0.00011831  0.75000000  1
  Zr  Zr6  1  0.33390437  0.66695269  0.00000000  1
  Zr  Zr7  1  0.66480085  0.33239992  0.50000000  1
  Zr  Zr8  1  0.66480085  0.33239992  0.00000000  1
  Zr  Zr9  1  0.33390437  0.66695269  0.50000000  1
  Si  Si0  1  0.99879484  0.99939692  0.00000000  1
  Si  Si1  1  0.99879484  0.99939692  0.50000000  1
  Sn  Sn0  1  0.60697179  0.00000314  0.25000000  1
  Sn  Sn1  1  0.60697179  0.60696866  0.75000000  1
  Sn  Sn2  1  0.99927022  0.39540344  0.75000000  1
  Sn  Sn3  1  0.99927022  0.60386678  0.25000000  1
  Sb  Sb0  1  0.39618506  0.39688094  0.25000000  1
  Sb  Sb1  1  0.39618506  0.99930412  0.75000000  1
loop_
_geom_bond_atom_site_label_1
_geom_bond_atom_site_label_2
_geom_bond_distance
_geom_bond_site_symmetry_2
Si0 Zr2 2.665760 1_654
Si0 Zr3 2.665760 1_665
Si0 Zr4 2.672203 1_555
Si0 Zr5 2.672207 1_564
Si0 Zr0 2.678661 1_665
Si0 Zr1 2.678668 1_664
Si1 Zr2 2.665760 1_655
Si1 Zr3 2.665760 1_665
Si1 Zr4 2.672203 1_555
Si1 Zr5 2.672207 1_565
Si1 Zr0 2.678661 1_665
Si1 Zr1 2.678668 1_665
Sn0 Zr4 2.998703 1_545
Sn0 Zr3 3.002944 1_655
Sn0 Zr0 3.026325 1_555
Sn0 Zr8 3.040579 1_555
Sn0 Zr7 3.040579 1_555
Sn0 Zr6 3.040834 1_545
Sn0 Zr9 3.040834 1_545
Sn0 Zr5 3.151724 1_555
Sn0 Zr5 3.151724 1_554
Sn1 Zr5 2.998703 1_565
Sn1 Zr2 3.002945 1_655
Sn1 Zr1 3.026321 1_555
Sn1 Zr7 3.040587 1_555
Sn1 Zr8 3.040587 1_556
Sn1 Zr9 3.040839 1_555
Sn1 Zr6 3.040839 1_556
Sn1 Zr4 3.151724 1_556
Sn1 Zr4 3.151724 1_555
Sn2 Zr2 3.007025 1_655
Sn2 Zr5 3.012273 1_555
Sn2 Zr1 3.021445 1_655
Sn2 Zr8 3.044151 1_556
Sn2 Zr7 3.044151 1_555
Sn2 Zr9 3.045174 1_655
Sn2 Zr6 3.045174 1_656
Sn2 Zr3 3.165683 1_656
Sn2 Zr3 3.165683 1_655
Sn3 Zr3 3.007034 1_655
Sn3 Zr4 3.012273 1_555
Sn3 Zr0 3.021451 1_665
Sn3 Zr7 3.044153 1_555
Sn3 Zr8 3.044153 1_555
Sn3 Zr9 3.045172 1_655
Sn3 Zr6 3.045172 1_655
Sn3 Zr2 3.165680 1_655
Sn3 Zr2 3.165680 1_654
Sb0 Zr4 2.988002 1_555
Sb0 Zr3 3.011759 1_555
Sb0 Zr0 3.020346 1_555
Sb0 Zr9 3.028571 1_555
Sb0 Zr6 3.028571 1_555
Sb0 Zr8 3.029544 1_555
Sb0 Zr7 3.029544 1_555
Sb0 Zr1 3.166087 1_555
Sb0 Zr1 3.166087 1_554
Sb1 Zr5 2.988002 1_565
Sb1 Zr2 3.011761 1_555
Sb1 Zr1 3.020354 1_565
Sb1 Zr9 3.028564 1_555
Sb1 Zr6 3.028564 1_556
Sb1 Zr7 3.029539 1_565
Sb1 Zr8 3.029539 1_566
Sb1 Zr0 3.166088 1_566
Sb1 Zr0 3.166088 1_565
