# generated using pymatgen
data_Zr3C2Se
_symmetry_space_group_name_H-M   'P 1'
_cell_length_a   3.44259675
_cell_length_b   3.44259691
_cell_length_c   17.96374749
_cell_angle_alpha   90.00000000
_cell_angle_beta   90.00000000
_cell_angle_gamma   119.99998897
_symmetry_Int_Tables_number   1
_chemical_formula_structural   Zr3C2Se
_chemical_formula_sum   'Zr6 C4 Se2'
_cell_volume   184.37411598
_cell_formula_units_Z   2
loop_
 _symmetry_equiv_pos_site_id
 _symmetry_equiv_pos_as_xyz
  1  'x, y, z'
loop_
 _atom_site_type_symbol
 _atom_site_label
 _atom_site_symmetry_multiplicity
 _atom_site_fract_x
 _atom_site_fract_y
 _atom_site_fract_z
 _atom_site_occupancy
  Zr  Zr0  1  0.00000000  0.00000000  0.00000000  1
  Zr  Zr1  1  0.66666700  0.33333400  0.14013853  1
  Zr  Zr2  1  0.66666700  0.33333400  0.35986147  1
  Zr  Zr3  1  0.00000000  0.00000000  0.50000000  1
  Zr  Zr4  1  0.33333400  0.66666800  0.64013853  1
  Zr  Zr5  1  0.33333400  0.66666800  0.85986147  1
  C  C0  1  0.33333400  0.66666800  0.07762222  1
  C  C1  1  0.33333400  0.66666800  0.42237778  1
  C  C2  1  0.66666700  0.33333400  0.57762222  1
  C  C3  1  0.66666700  0.33333400  0.92237778  1
  Se  Se0  1  0.00000000  0.00000000  0.25000000  1
  Se  Se1  1  0.00000000  0.00000000  0.75000000  1
loop_
_geom_bond_atom_site_label_1
_geom_bond_atom_site_label_2
_geom_bond_distance
_geom_bond_site_symmetry_2
C0 Zr1 2.282909 1_565
C0 Zr1 2.282911 1_555
C0 Zr1 2.282912 1_455
C0 Zr0 2.427920 1_565
C0 Zr0 2.427920 1_665
C0 Zr0 2.427925 1_555
C1 Zr2 2.282909 1_565
C1 Zr2 2.282911 1_555
C1 Zr2 2.282912 1_455
C1 Zr3 2.427920 1_565
C1 Zr3 2.427920 1_665
C1 Zr3 2.427925 1_555
C2 Zr4 2.282909 1_545
C2 Zr4 2.282911 1_555
C2 Zr4 2.282912 1_655
C2 Zr3 2.427920 1_665
C2 Zr3 2.427922 1_655
C2 Zr3 2.427922 1_555
C3 Zr5 2.282909 1_545
C3 Zr5 2.282911 1_555
C3 Zr5 2.282912 1_655
C3 Zr0 2.427920 1_666
C3 Zr0 2.427922 1_656
C3 Zr0 2.427922 1_556
Se0 Zr2 2.800943 1_445
Se0 Zr1 2.800943 1_445
Se0 Zr2 2.800945 1_455
Se0 Zr1 2.800945 1_455
Se0 Zr2 2.800945 1_555
Se0 Zr1 2.800945 1_555
Se1 Zr5 2.800942 1_545
Se1 Zr4 2.800942 1_545
Se1 Zr5 2.800943 1_445
Se1 Zr4 2.800943 1_445
Se1 Zr5 2.800947 1_555
Se1 Zr4 2.800947 1_555
