# generated using pymatgen
data_BaCo2(Sb6Os)2
_symmetry_space_group_name_H-M   'P 1'
_cell_length_a   8.06972805
_cell_length_b   8.02147670
_cell_length_c   8.06972801
_cell_angle_alpha   109.48104531
_cell_angle_beta   109.62037542
_cell_angle_gamma   109.55514667
_symmetry_Int_Tables_number   1
_chemical_formula_structural   BaCo2(Sb6Os)2
_chemical_formula_sum   'Ba1 Co2 Sb12 Os2'
_cell_volume   400.90453416
_cell_formula_units_Z   1
loop_
 _symmetry_equiv_pos_site_id
 _symmetry_equiv_pos_as_xyz
  1  'x, y, z'
loop_
 _atom_site_type_symbol
 _atom_site_label
 _atom_site_symmetry_multiplicity
 _atom_site_fract_x
 _atom_site_fract_y
 _atom_site_fract_z
 _atom_site_occupancy
  Ba  Ba0  1  0.00000000  0.00000000  0.00000000  1
  Co  Co0  1  0.00000000  0.00000000  0.50000000  1
  Co  Co1  1  0.50000000  0.00000000  0.00000000  1
  Sb  Sb0  1  0.33925262  0.17841579  0.83916217  1
  Sb  Sb1  1  0.66074738  0.82158421  0.16083783  1
  Sb  Sb2  1  0.65702314  0.49901505  0.84199291  1
  Sb  Sb3  1  0.34297686  0.50098495  0.15800709  1
  Sb  Sb4  1  0.18155054  0.84519473  0.34593618  1
  Sb  Sb5  1  0.81844946  0.15480527  0.65406382  1
  Sb  Sb6  1  0.49925755  0.84519473  0.66364419  1
  Sb  Sb7  1  0.50074245  0.15480527  0.33635581  1
  Sb  Sb8  1  0.83610760  0.33679230  0.18118433  1
  Sb  Sb9  1  0.16389240  0.66320770  0.81881567  1
  Sb  Sb10  1  0.84439203  0.66320770  0.49931430  1
  Sb  Sb11  1  0.15560797  0.33679230  0.50068570  1
  Os  Os0  1  0.00000000  0.50000000  0.00000000  1
  Os  Os1  1  0.50000000  0.50000000  0.50000000  1
loop_
_geom_bond_atom_site_label_1
_geom_bond_atom_site_label_2
_geom_bond_distance
_geom_bond_site_symmetry_2
Ba0 Sb2 3.493160 1_444
Ba0 Sb3 3.493160 1_555
Ba0 Sb0 3.497150 1_554
Ba0 Sb1 3.497150 1_445
Ba0 Sb8 3.498764 1_455
Ba0 Sb9 3.498764 1_544
Ba0 Sb11 3.498770 1_555
Ba0 Sb10 3.498770 1_444
Ba0 Sb4 3.502119 1_545
Ba0 Sb5 3.502119 1_454
Ba0 Sb7 3.502125 1_555
Ba0 Sb6 3.502125 1_444
Co0 Sb11 2.567047 1_555
Co0 Sb10 2.567047 1_445
Co0 Sb5 2.577878 1_455
Co0 Sb4 2.577878 1_545
Co0 Sb0 2.601249 1_555
Co0 Sb1 2.601249 1_445
Co1 Sb9 2.567051 1_544
Co1 Sb8 2.567051 1_555
Co1 Sb7 2.577874 1_555
Co1 Sb6 2.577874 1_544
Co1 Sb1 2.601258 1_545
Co1 Sb0 2.601258 1_554
Sb0 Sb2 2.949010 1_555
Sb0 Sb3 2.961710 1_556
Sb1 Sb3 2.949010 1_555
Sb1 Sb2 2.961710 1_554
Sb4 Sb6 2.954985 1_555
Sb4 Sb7 2.964464 1_565
Sb5 Sb7 2.954985 1_555
Sb5 Sb6 2.964464 1_545
Sb10 Sb8 2.955491 1_555
Sb10 Sb9 2.971664 1_655
Sb11 Sb9 2.955491 1_555
Sb11 Sb8 2.971664 1_455
Os0 Sb3 2.625800 1_555
Os0 Sb2 2.625800 1_454
Os0 Sb4 2.643597 1_555
Os0 Sb5 2.643597 1_454
Os0 Sb8 2.648987 1_455
Os0 Sb9 2.648987 1_554
Os1 Sb2 2.625808 1_555
Os1 Sb3 2.625808 1_555
Os1 Sb6 2.643602 1_555
Os1 Sb7 2.643602 1_555
Os1 Sb10 2.648991 1_555
Os1 Sb11 2.648991 1_555
