# generated using pymatgen
data_CsRb4Sb2Pt
_symmetry_space_group_name_H-M   'P 1'
_cell_length_a   10.46497623
_cell_length_b   10.46497675
_cell_length_c   10.46497756
_cell_angle_alpha   34.39361750
_cell_angle_beta   34.39361292
_cell_angle_gamma   34.39361084
_symmetry_Int_Tables_number   1
_chemical_formula_structural   CsRb4Sb2Pt
_chemical_formula_sum   'Cs1 Rb4 Sb2 Pt1'
_cell_volume   326.18693967
_cell_formula_units_Z   1
loop_
 _symmetry_equiv_pos_site_id
 _symmetry_equiv_pos_as_xyz
  1  'x, y, z'
loop_
 _atom_site_type_symbol
 _atom_site_label
 _atom_site_symmetry_multiplicity
 _atom_site_fract_x
 _atom_site_fract_y
 _atom_site_fract_z
 _atom_site_occupancy
  Cs  Cs0  1  0.50000000  0.50000000  0.50000000  1
  Rb  Rb0  1  0.22004668  0.22004668  0.22004668  1
  Rb  Rb1  1  0.35870231  0.35870231  0.35870231  1
  Rb  Rb2  1  0.64129869  0.64129869  0.64129869  1
  Rb  Rb3  1  0.77995332  0.77995332  0.77995332  1
  Sb  Sb0  1  0.08736852  0.08736852  0.08736852  1
  Sb  Sb1  1  0.91263148  0.91263148  0.91263148  1
  Pt  Pt0  1  0.00000000  0.00000000  0.00000000  1
loop_
_geom_bond_atom_site_label_1
_geom_bond_atom_site_label_2
_geom_bond_distance
_geom_bond_site_symmetry_2
Cs0 Rb0 3.904501 1_655
Cs0 Rb3 3.904501 1_455
Cs0 Rb0 3.904502 1_565
Cs0 Rb3 3.904502 1_545
Cs0 Rb0 3.904503 1_556
Cs0 Rb3 3.904503 1_554
Cs0 Rb1 4.169518 1_555
Cs0 Rb2 4.169547 1_555
Cs0 Sb1 4.270773 1_455
Cs0 Sb0 4.270773 1_655
Cs0 Sb1 4.270773 1_554
Cs0 Sb0 4.270773 1_556
Cs0 Sb1 4.270773 1_545
Cs0 Sb0 4.270773 1_565
Rb0 Sb1 3.653613 1_544
Rb0 Sb1 3.653613 1_454
Rb0 Sb1 3.653614 1_445
Rb0 Sb0 3.915166 1_555
Rb1 Sb0 4.013866 1_655
Rb1 Sb0 4.013867 1_565
Rb1 Sb0 4.013868 1_556
Rb2 Sb1 4.013880 1_455
Rb2 Sb1 4.013880 1_545
Rb2 Sb1 4.013881 1_554
Rb3 Sb0 3.653613 1_566
Rb3 Sb0 3.653613 1_656
Rb3 Sb0 3.653614 1_665
Rb3 Sb1 3.915166 1_555
Pt0 Sb0 2.578135 1_555
Pt0 Sb1 2.578135 1_444
Pt0 Rb2 3.650249 1_544
Pt0 Rb2 3.650249 1_454
Pt0 Rb2 3.650250 1_445
Pt0 Rb1 3.650255 1_455
Pt0 Rb1 3.650255 1_545
Pt0 Rb1 3.650256 1_554
