# generated using pymatgen
data_Ta9Si2B4Os
_symmetry_space_group_name_H-M   'P 1'
_cell_length_a   6.14187343
_cell_length_b   6.14179113
_cell_length_c   7.24459001
_cell_angle_alpha   115.07641449
_cell_angle_beta   115.07936068
_cell_angle_gamma   90.00540674
_symmetry_Int_Tables_number   1
_chemical_formula_structural   Ta9Si2B4Os
_chemical_formula_sum   'Ta9 Si2 B4 Os1'
_cell_volume   218.73910964
_cell_formula_units_Z   1
loop_
 _symmetry_equiv_pos_site_id
 _symmetry_equiv_pos_as_xyz
  1  'x, y, z'
loop_
 _atom_site_type_symbol
 _atom_site_label
 _atom_site_symmetry_multiplicity
 _atom_site_fract_x
 _atom_site_fract_y
 _atom_site_fract_z
 _atom_site_occupancy
  Ta  Ta0  1  0.00000000  0.00000000  0.00000000  1
  Ta  Ta1  1  0.02915912  0.52420981  0.71908752  1
  Ta  Ta2  1  0.68993713  0.19481346  0.71911018  1
  Ta  Ta3  1  0.19482117  0.02908489  0.71909316  1
  Ta  Ta4  1  0.52421765  0.68994188  0.71910412  1
  Ta  Ta5  1  0.97084088  0.47579019  0.28091248  1
  Ta  Ta6  1  0.31006287  0.80518654  0.28088982  1
  Ta  Ta7  1  0.80517883  0.97091511  0.28090684  1
  Ta  Ta8  1  0.47578235  0.31005812  0.28089588  1
  Si  Si0  1  0.24379206  0.24377733  0.48755110  1
  Si  Si1  1  0.75620794  0.75622267  0.51244890  1
  B  B0  1  0.38163817  0.87870451  0.99999783  1
  B  B1  1  0.61836183  0.12129549  0.00000217  1
  B  B2  1  0.12132654  0.38162205  0.00000062  1
  B  B3  1  0.87867346  0.61837795  0.99999938  1
  Os  Os0  1  0.50000000  0.50000000  0.00000000  1
loop_
_geom_bond_atom_site_label_1
_geom_bond_atom_site_label_2
_geom_bond_distance
_geom_bond_site_symmetry_2
Si0 Ta7 2.600083 1_445
Si0 Ta6 2.600316 1_545
Si0 Ta8 2.600431 1_555
Si0 Ta5 2.600606 1_455
Si0 Ta4 2.634907 1_555
Si0 Ta1 2.635142 1_555
Si0 Ta2 2.635150 1_555
Si0 Ta3 2.635420 1_555
Si0 Ta0 2.827162 1_555
Si1 Ta3 2.600083 1_665
Si1 Ta2 2.600316 1_565
Si1 Ta4 2.600431 1_555
Si1 Ta1 2.600606 1_655
Si1 Ta8 2.634907 1_555
Si1 Ta5 2.635142 1_555
Si1 Ta6 2.635150 1_555
Si1 Ta7 2.635420 1_555
Si1 Ta0 2.827162 1_666
B0 B1 2.081669 1_566
B0 Ta4 2.400645 1_555
B0 Ta7 2.400848 1_556
B0 Ta3 2.434111 1_565
B0 Ta8 2.434439 1_566
B0 Os0 2.436953 1_556
B0 Ta0 2.459582 1_566
B0 Ta6 2.464821 1_556
B0 Ta1 2.465152 1_555
B1 Ta8 2.400645 1_555
B1 Ta3 2.400848 1_554
B1 Ta7 2.434111 1_545
B1 Ta4 2.434439 1_544
B1 Os0 2.436953 1_555
B1 Ta0 2.459582 1_655
B1 Ta2 2.464821 1_554
B1 Ta5 2.465152 1_555
B2 B3 2.082296 1_454
B2 Ta1 2.400663 1_554
B2 Ta6 2.400961 1_555
B2 Ta2 2.434548 1_454
B2 Ta5 2.434612 1_455
B2 Os0 2.436694 1_555
B2 Ta0 2.459378 1_555
B2 Ta8 2.465036 1_555
B2 Ta3 2.465209 1_554
B3 Ta5 2.400663 1_556
B3 Ta2 2.400961 1_555
B3 Ta6 2.434548 1_656
B3 Ta1 2.434612 1_655
B3 Os0 2.436694 1_556
B3 Ta0 2.459378 1_666
B3 Ta4 2.465036 1_555
B3 Ta7 2.465209 1_556
Os0 Ta8 2.791601 1_555
Os0 Ta4 2.791601 1_554
Os0 Ta5 2.791762 1_555
Os0 Ta1 2.791762 1_554
Os0 Ta6 2.791931 1_555
Os0 Ta2 2.791931 1_554
Os0 Ta7 2.792127 1_555
Os0 Ta3 2.792127 1_554
Os0 Si1 2.971537 1_555
Os0 Si0 2.971537 1_554
