# generated using pymatgen
data_Lu4V4O13
_symmetry_space_group_name_H-M   'P 1'
_cell_length_a   7.05600219
_cell_length_b   7.05600219
_cell_length_c   7.05600219
_cell_angle_alpha   60.00000000
_cell_angle_beta   60.00000000
_cell_angle_gamma   60.00000000
_symmetry_Int_Tables_number   1
_chemical_formula_structural   Lu4V4O13
_chemical_formula_sum   'Lu4 V4 O13'
_cell_volume   248.40545217
_cell_formula_units_Z   1
loop_
 _symmetry_equiv_pos_site_id
 _symmetry_equiv_pos_as_xyz
  1  'x, y, z'
loop_
 _atom_site_type_symbol
 _atom_site_label
 _atom_site_symmetry_multiplicity
 _atom_site_fract_x
 _atom_site_fract_y
 _atom_site_fract_z
 _atom_site_occupancy
  Lu  Lu0  1  0.87671000  0.36987100  0.87671000  1
  Lu  Lu1  1  0.36987100  0.87671000  0.87671000  1
  Lu  Lu2  1  0.87671000  0.87671000  0.36987100  1
  Lu  Lu3  1  0.87671000  0.87671000  0.87671000  1
  V  V0  1  0.37628000  0.37628000  0.37628000  1
  V  V1  1  0.37628000  0.37628000  0.87116100  1
  V  V2  1  0.37628000  0.87116100  0.37628000  1
  V  V3  1  0.87116100  0.37628000  0.37628000  1
  O  O0  1  0.71419800  0.28580200  0.71419800  1
  O  O1  1  0.71419800  0.28580200  0.28580200  1
  O  O2  1  0.28580200  0.28580200  0.71419800  1
  O  O3  1  0.71419800  0.71419800  0.28580200  1
  O  O4  1  0.28580200  0.71419800  0.71419800  1
  O  O5  1  0.28580200  0.71419800  0.28580200  1
  O  O6  1  0.46621600  0.03378400  0.46621600  1
  O  O7  1  0.46621600  0.03378400  0.03378400  1
  O  O8  1  0.03378400  0.03378400  0.46621600  1
  O  O9  1  0.46621600  0.46621600  0.03378400  1
  O  O10  1  0.03378400  0.46621600  0.46621600  1
  O  O11  1  0.03378400  0.46621600  0.03378400  1
  O  O12  1  0.00000000  0.00000000  0.00000000  1
loop_
_geom_bond_atom_site_label_1
_geom_bond_atom_site_label_2
_geom_bond_distance
_geom_bond_site_symmetry_2
Lu0 O12 2.130901 1_656
Lu0 O11 2.377838 1_656
Lu0 O10 2.377844 1_655
Lu0 O9 2.377844 1_556
Lu0 O2 2.378427 1_655
Lu0 O1 2.378427 1_556
Lu0 O0 2.378433 1_555
Lu1 O12 2.130901 1_566
Lu1 O7 2.377838 1_566
Lu1 O9 2.377844 1_556
Lu1 O6 2.377844 1_565
Lu1 O2 2.378427 1_565
Lu1 O5 2.378427 1_556
Lu1 O4 2.378433 1_555
Lu2 O12 2.130901 1_665
Lu2 O8 2.377838 1_665
Lu2 O10 2.377844 1_655
Lu2 O6 2.377844 1_565
Lu2 O1 2.378427 1_565
Lu2 O5 2.378427 1_655
Lu2 O3 2.378433 1_555
Lu3 O12 2.130896 1_666
Lu3 O7 2.377843 1_566
Lu3 O11 2.377843 1_656
Lu3 O8 2.377843 1_665
Lu3 O3 2.378427 1_556
Lu3 O4 2.378427 1_655
Lu3 O0 2.378427 1_565
O0 V3 1.965564 1_555
O0 V1 1.965564 1_555
O1 V0 1.965563 1_555
O1 V3 1.965570 1_555
O2 V0 1.965563 1_555
O2 V1 1.965570 1_555
O3 V3 1.965564 1_555
O3 V2 1.965564 1_555
O4 V1 1.965564 1_555
O4 V2 1.965564 1_555
O5 V0 1.965563 1_555
O5 V2 1.965570 1_555
O6 V2 1.995277 1_545
O6 V0 1.995284 1_555
O7 V1 1.995283 1_554
O7 V2 1.995283 1_545
O8 V3 1.995283 1_455
O8 V2 1.995283 1_545
O9 V1 1.995277 1_554
O9 V0 1.995284 1_555
O10 V3 1.995277 1_455
O10 V0 1.995284 1_555
O11 V1 1.995283 1_554
O11 V3 1.995283 1_455
