# generated using pymatgen
data_Nb3VRe2Si3
_symmetry_space_group_name_H-M   'P 1'
_cell_length_a   7.58631606
_cell_length_b   7.58631706
_cell_length_c   7.58631653
_cell_angle_alpha   126.62655540
_cell_angle_beta   128.20378031
_cell_angle_gamma   77.58112304
_symmetry_Int_Tables_number   1
_chemical_formula_structural   Nb3VRe2Si3
_chemical_formula_sum   'Nb6 V2 Re4 Si6'
_cell_volume   267.02119549
_cell_formula_units_Z   2
loop_
 _symmetry_equiv_pos_site_id
 _symmetry_equiv_pos_as_xyz
  1  'x, y, z'
loop_
 _atom_site_type_symbol
 _atom_site_label
 _atom_site_symmetry_multiplicity
 _atom_site_fract_x
 _atom_site_fract_y
 _atom_site_fract_z
 _atom_site_occupancy
  Nb  Nb0  1  0.55424547  0.09553191  0.04128544  1
  Nb  Nb1  1  0.44575453  0.48703997  0.54128544  1
  Nb  Nb2  1  0.94587224  0.48706727  0.04119603  1
  Nb  Nb3  1  0.05412776  0.09532280  0.54119603  1
  Nb  Nb4  1  0.75007118  0.91014545  0.66007327  1
  Nb  Nb5  1  0.24992882  0.91000209  0.16007327  1
  V  V0  1  0.50000000  0.24108423  0.74108423  1
  V  V1  1  0.00000000  0.24108423  0.24108423  1
  Re  Re0  1  0.12836253  0.75427966  0.62613104  1
  Re  Re1  1  0.87163747  0.49776851  0.62591713  1
  Re  Re2  1  0.62814962  0.75427966  0.12591713  1
  Re  Re3  1  0.37185038  0.49776851  0.12613104  1
  Si  Si0  1  0.75007825  0.49563930  0.24556104  1
  Si  Si1  1  0.24992175  0.49548279  0.74556104  1
  Si  Si2  1  0.33230056  0.82713845  0.49501292  1
  Si  Si3  1  0.66769944  0.16271336  0.49483789  1
  Si  Si4  1  0.83212553  0.82713845  0.99483789  1
  Si  Si5  1  0.16787447  0.16271336  0.99501292  1
loop_
_geom_bond_atom_site_label_1
_geom_bond_atom_site_label_2
_geom_bond_distance
_geom_bond_site_symmetry_2
Nb0 Si2 2.632584 1_544
Nb0 Si4 2.632588 1_544
Nb0 Si5 2.696801 1_554
Nb0 Si3 2.696802 1_555
Nb0 Si0 2.702073 1_555
Nb0 V0 2.867253 1_554
Nb0 V1 2.867257 1_655
Nb0 Re0 2.888320 1_544
Nb0 Re2 2.888324 1_545
Nb0 Re3 2.929594 1_555
Nb0 Re1 2.929594 1_555
Nb1 Si3 2.632579 1_555
Nb1 Si5 2.632583 1_554
Nb1 Si4 2.696801 1_555
Nb1 Si2 2.696802 1_555
Nb1 Si1 2.702080 1_555
Nb1 V1 2.867259 1_555
Nb1 V0 2.867260 1_555
Nb1 Re3 2.888313 1_555
Nb1 Re1 2.888317 1_555
Nb1 Re2 2.929594 1_556
Nb1 Re0 2.929597 1_555
Nb2 Si5 2.633011 1_654
Nb2 Si3 2.633019 1_554
Nb2 Si2 2.696998 1_655
Nb2 Si4 2.697003 1_554
Nb2 Si0 2.701997 1_555
Nb2 V1 2.868304 1_655
Nb2 V0 2.868308 1_554
Nb2 Re3 2.887883 1_655
Nb2 Re1 2.887895 1_554
Nb2 Re2 2.931249 1_555
Nb2 Re0 2.931251 1_655
Nb3 Si2 2.633018 1_545
Nb3 Si4 2.633022 1_444
Nb3 Si5 2.696987 1_555
Nb3 Si3 2.696995 1_455
Nb3 Si1 2.702008 1_555
Nb3 V0 2.868313 1_555
Nb3 V1 2.868317 1_555
Nb3 Re2 2.887881 1_445
Nb3 Re0 2.887883 1_545
Nb3 Re3 2.931253 1_556
Nb3 Re1 2.931258 1_455
Nb4 Si5 2.648596 1_665
Nb4 Si3 2.648597 1_565
Nb4 Si2 2.649134 1_555
Nb4 Si4 2.649138 1_555
Nb4 V0 2.798645 1_565
Nb4 V1 2.798649 1_666
Nb4 Si0 2.824577 1_555
Nb4 Re2 2.965070 1_555
Nb4 Re0 2.965071 1_655
Nb4 Re3 2.965145 1_555
Nb4 Re1 2.965146 1_555
Nb5 Si4 2.648596 1_454
Nb5 Si2 2.648596 1_555
Nb5 Si3 2.649135 1_565
Nb5 Si5 2.649140 1_564
Nb5 V0 2.798650 1_565
Nb5 V1 2.798650 1_565
Nb5 Si1 2.824574 1_554
Nb5 Re3 2.965069 1_555
Nb5 Re1 2.965070 1_454
Nb5 Re0 2.965139 1_554
Nb5 Re2 2.965146 1_555
Re0 Si0 2.415631 1_455
Re0 Si1 2.415821 1_555
Re0 Si5 2.556879 1_565
Re0 Si2 2.572152 1_555
Re1 Si1 2.415631 1_655
Re1 Si0 2.415821 1_555
Re1 Si4 2.556875 1_555
Re1 Si3 2.572146 1_555
Re2 Si0 2.415632 1_555
Re2 Si1 2.415826 1_554
Re2 Si3 2.556881 1_565
Re2 Si4 2.572145 1_554
Re3 Si1 2.415634 1_554
Re3 Si0 2.415828 1_555
Re3 Si2 2.556870 1_555
Re3 Si5 2.572141 1_554
Si0 V0 2.398284 1_554
Si0 V1 2.398284 1_655
Si1 V1 2.398284 1_555
Si1 V0 2.398284 1_555
Si2 V0 2.598260 1_565
Si3 V0 2.598263 1_555
Si4 V1 2.598260 1_666
Si5 V1 2.598263 1_556
