# generated using pymatgen
data_RbP2OsPd
_symmetry_space_group_name_H-M   'P 1'
_cell_length_a   7.49985836
_cell_length_b   7.49985735
_cell_length_c   7.49985903
_cell_angle_alpha   149.54676463
_cell_angle_beta   149.54676329
_cell_angle_gamma   43.60711487
_symmetry_Int_Tables_number   1
_chemical_formula_structural   RbP2OsPd
_chemical_formula_sum   'Rb1 P2 Os1 Pd1'
_cell_volume   108.06797685
_cell_formula_units_Z   1
loop_
 _symmetry_equiv_pos_site_id
 _symmetry_equiv_pos_as_xyz
  1  'x, y, z'
loop_
 _atom_site_type_symbol
 _atom_site_label
 _atom_site_symmetry_multiplicity
 _atom_site_fract_x
 _atom_site_fract_y
 _atom_site_fract_z
 _atom_site_occupancy
  Rb  Rb0  1  0.00000000  0.00000000  0.00000000  1
  P  P0  1  0.34310111  0.34310111  1.00000000  1
  P  P1  1  0.65689889  0.65689889  0.00000000  1
  Os  Os0  1  0.75000000  0.25000000  0.50000000  1
  Pd  Pd0  1  0.25000000  0.75000000  0.50000000  1
loop_
_geom_bond_atom_site_label_1
_geom_bond_atom_site_label_2
_geom_bond_distance
_geom_bond_site_symmetry_2
P0 Pd0 2.358184 1_545
P0 Pd0 2.358185 1_556
P0 Rb0 3.540389 1_667
P0 Rb0 3.540389 1_566
P0 Rb0 3.540390 1_656
P0 Rb0 3.540390 1_555
P1 Pd0 2.358184 1_655
P1 Pd0 2.358185 1_554
P1 Rb0 3.540389 1_554
P1 Rb0 3.540389 1_655
P1 Rb0 3.540390 1_565
P1 Rb0 3.540390 1_666
Os0 P1 2.358184 1_545
Os0 P0 2.358184 1_655
Os0 P0 2.358185 1_554
Os0 P1 2.358185 1_556
