# generated using pymatgen
data_Li2CO3
_symmetry_space_group_name_H-M   'P 1'
_cell_length_a   4.82924323
_cell_length_b   4.82924369
_cell_length_c   6.07631725
_cell_angle_alpha   69.79975189
_cell_angle_beta   69.79973796
_cell_angle_gamma   61.92438976
_symmetry_Int_Tables_number   1
_chemical_formula_structural   Li2CO3
_chemical_formula_sum   'Li4 C2 O6'
_cell_volume   114.44868910
_cell_formula_units_Z   2
loop_
 _symmetry_equiv_pos_site_id
 _symmetry_equiv_pos_as_xyz
  1  'x, y, z'
loop_
 _atom_site_type_symbol
 _atom_site_label
 _atom_site_symmetry_multiplicity
 _atom_site_fract_x
 _atom_site_fract_y
 _atom_site_fract_z
 _atom_site_occupancy
  Li  Li0  1  0.64295592  0.74982744  0.16260976  1
  Li  Li1  1  0.25017256  0.35704408  0.33739024  1
  Li  Li2  1  0.35704408  0.25017256  0.83739024  1
  Li  Li3  1  0.74982744  0.64295592  0.66260976  1
  C  C0  1  0.06619574  0.93380426  0.75000000  1
  C  C1  1  0.93380426  0.06619574  0.25000000  1
  O  O0  1  0.32319230  0.67680770  0.75000000  1
  O  O1  1  0.67680770  0.32319230  0.25000000  1
  O  O2  1  0.08250066  0.21240658  0.68576076  1
  O  O3  1  0.78759342  0.91749934  0.81423924  1
  O  O4  1  0.91749934  0.78759342  0.31423924  1
  O  O5  1  0.21240658  0.08250066  0.18576076  1
loop_
_geom_bond_atom_site_label_1
_geom_bond_atom_site_label_2
_geom_bond_distance
_geom_bond_site_symmetry_2
Li0 O1 1.881752 1_555
Li0 O5 1.932320 1_565
Li0 O4 1.956338 1_555
Li0 O3 1.987957 1_554
Li1 O1 1.881752 1_555
Li1 O4 1.932320 1_455
Li1 O5 1.956338 1_555
Li1 O2 1.987956 1_555
Li2 O0 1.881752 1_555
Li2 O3 1.932320 1_545
Li2 O2 1.956338 1_555
Li2 O5 1.987957 1_556
Li3 O0 1.881752 1_555
Li3 O2 1.932320 1_655
Li3 O3 1.956338 1_555
Li3 O4 1.987956 1_555
C0 O0 1.277022 1_555
C0 O3 1.297911 1_455
C0 O2 1.297911 1_565
C1 O1 1.277022 1_555
C1 O5 1.297911 1_655
C1 O4 1.297911 1_545
