# generated using pymatgen
data_MnV(SiTc2)2
_symmetry_space_group_name_H-M   'P 1'
_cell_length_a   7.26083598
_cell_length_b   7.26083590
_cell_length_c   7.26083576
_cell_angle_alpha   33.61097167
_cell_angle_beta   33.61097370
_cell_angle_gamma   33.61098040
_symmetry_Int_Tables_number   1
_chemical_formula_structural   MnV(SiTc2)2
_chemical_formula_sum   'Mn1 V1 Si2 Tc4'
_cell_volume   104.48563023
_cell_formula_units_Z   1
loop_
 _symmetry_equiv_pos_site_id
 _symmetry_equiv_pos_as_xyz
  1  'x, y, z'
loop_
 _atom_site_type_symbol
 _atom_site_label
 _atom_site_symmetry_multiplicity
 _atom_site_fract_x
 _atom_site_fract_y
 _atom_site_fract_z
 _atom_site_occupancy
  Mn  Mn0  1  0.00000000  0.00000000  0.00000000  1
  V  V0  1  0.50000000  0.50000000  0.50000000  1
  Si  Si0  1  0.24949947  0.24949947  0.24949947  1
  Si  Si1  1  0.75050053  0.75050053  0.75050053  1
  Tc  Tc0  1  0.62578264  0.62578264  0.62578264  1
  Tc  Tc1  1  0.12418206  0.12418206  0.12418206  1
  Tc  Tc2  1  0.87581794  0.87581794  0.87581794  1
  Tc  Tc3  1  0.37421736  0.37421736  0.37421736  1
loop_
_geom_bond_atom_site_label_1
_geom_bond_atom_site_label_2
_geom_bond_distance
_geom_bond_site_symmetry_2
Mn0 Tc1 2.549800 1_555
Mn0 Tc2 2.549800 1_444
Mn0 Tc3 2.565278 1_554
Mn0 Tc0 2.565278 1_445
Mn0 Tc3 2.565279 1_545
Mn0 Tc0 2.565279 1_454
Mn0 Tc3 2.565279 1_455
Mn0 Tc0 2.565279 1_544
Mn0 Si1 2.973040 1_445
Mn0 Si0 2.973040 1_554
Mn0 Si1 2.973041 1_454
Mn0 Si0 2.973041 1_545
Mn0 Si1 2.973041 1_544
Mn0 Si0 2.973041 1_455
Si0 Tc3 2.560802 1_555
Si0 Tc2 2.561699 1_445
Si0 Tc2 2.561699 1_454
Si0 Tc2 2.561700 1_544
Si0 Tc1 2.573112 1_555
Si0 Tc0 2.579470 1_554
Si0 Tc0 2.579471 1_545
Si0 Tc0 2.579471 1_455
Si0 V0 2.961187 1_554
Si0 V0 2.961187 1_545
Si0 V0 2.961188 1_455
Si1 Tc0 2.560802 1_555
Si1 Tc1 2.561699 1_665
Si1 Tc1 2.561699 1_656
Si1 Tc1 2.561700 1_566
Si1 Tc2 2.573112 1_555
Si1 Tc3 2.579470 1_556
Si1 Tc3 2.579471 1_565
Si1 Tc3 2.579471 1_655
Si1 V0 2.961187 1_556
Si1 V0 2.961187 1_565
Si1 V0 2.961188 1_655
Tc0 V0 2.582664 1_555
Tc1 V0 2.576220 1_554
Tc1 V0 2.576220 1_545
Tc1 V0 2.576221 1_455
Tc2 V0 2.576220 1_556
Tc2 V0 2.576220 1_565
Tc2 V0 2.576221 1_655
Tc3 V0 2.582664 1_555
