# generated using pymatgen
data_V10GeB4P
_symmetry_space_group_name_H-M   'P 1'
_cell_length_a   6.71313358
_cell_length_b   6.71313531
_cell_length_c   6.71313409
_cell_angle_alpha   129.25344988
_cell_angle_beta   129.25346532
_cell_angle_gamma   74.60309301
_symmetry_Int_Tables_number   1
_chemical_formula_structural   V10GeB4P
_chemical_formula_sum   'V10 Ge1 B4 P1'
_cell_volume   176.75925119
_cell_formula_units_Z   1
loop_
 _symmetry_equiv_pos_site_id
 _symmetry_equiv_pos_as_xyz
  1  'x, y, z'
loop_
 _atom_site_type_symbol
 _atom_site_label
 _atom_site_symmetry_multiplicity
 _atom_site_fract_x
 _atom_site_fract_y
 _atom_site_fract_z
 _atom_site_occupancy
  V  V0  1  0.19800902  0.68899608  0.16266589  1
  V  V1  1  0.46465687  0.97366981  0.16266589  1
  V  V2  1  0.99991097  0.99991097  0.00000000  1
  V  V3  1  0.50008903  0.50008903  0.00000000  1
  V  V4  1  0.52633019  0.03534313  0.83733411  1
  V  V5  1  0.03534313  0.19800902  0.50901194  1
  V  V6  1  0.68899608  0.52633019  0.49098806  1
  V  V7  1  0.97366981  0.81100392  0.50901194  1
  V  V8  1  0.30199098  0.46465687  0.49098806  1
  V  V9  1  0.81100392  0.30199098  0.83733411  1
  Ge  Ge0  1  0.75000000  0.75000000  0.00000000  1
  B  B0  1  0.88453707  0.38453707  0.26907313  1
  B  B1  1  0.38453707  0.11546293  0.50000000  1
  B  B2  1  0.61546293  0.88453707  0.50000000  1
  B  B3  1  0.11546293  0.61546293  0.73092687  1
  P  P0  1  0.25000000  0.25000000  0.00000000  1
loop_
_geom_bond_atom_site_label_1
_geom_bond_atom_site_label_2
_geom_bond_distance
_geom_bond_site_symmetry_2
Ge0 V7 2.482170 1_555
Ge0 V6 2.482170 1_554
Ge0 V8 2.482175 1_554
Ge0 V5 2.482175 1_665
Ge0 V0 2.482175 1_655
Ge0 V1 2.482176 1_555
Ge0 V4 2.482176 1_564
Ge0 V9 2.482176 1_554
Ge0 V2 2.669054 1_555
Ge0 V3 2.669054 1_555
B0 B3 1.878925 1_655
B0 V8 2.205729 1_655
B0 V6 2.205743 1_555
B0 V5 2.236749 1_655
B0 V7 2.236749 1_555
B0 V9 2.291983 1_554
B0 V4 2.291990 1_554
B0 V3 2.309951 1_555
B0 V2 2.309952 1_545
B1 B2 1.878917 1_545
B1 V4 2.205733 1_555
B1 V1 2.205733 1_545
B1 V9 2.236748 1_555
B1 V0 2.236749 1_545
B1 V5 2.291986 1_555
B1 V8 2.291987 1_555
B1 V2 2.309953 1_445
B1 V3 2.309953 1_556
B2 V0 2.205733 1_555
B2 V9 2.205733 1_565
B2 V1 2.236749 1_555
B2 V4 2.236749 1_565
B2 V7 2.291993 1_555
B2 V6 2.291994 1_555
B2 V2 2.309953 1_556
B2 V3 2.309953 1_555
B3 V5 2.205730 1_555
B3 V7 2.205743 1_455
B3 V6 2.236748 1_455
B3 V8 2.236749 1_555
B3 V0 2.291983 1_556
B3 V1 2.291990 1_556
B3 V3 2.309951 1_556
B3 V2 2.309952 1_456
P0 V9 2.421334 1_454
P0 V4 2.421334 1_554
P0 V1 2.421335 1_545
P0 V6 2.421335 1_555
P0 V0 2.421335 1_555
P0 V7 2.421335 1_444
P0 V5 2.421340 1_554
P0 V8 2.421340 1_555
P0 V3 2.670956 1_555
P0 V2 2.670956 1_445
