# generated using pymatgen
data_Sr2CrBrO4
_symmetry_space_group_name_H-M   'P 1'
_cell_length_a   6.49656725
_cell_length_b   7.49720651
_cell_length_c   11.52135546
_cell_angle_alpha   90.00000000
_cell_angle_beta   90.00000000
_cell_angle_gamma   90.00000000
_symmetry_Int_Tables_number   1
_chemical_formula_structural   Sr2CrBrO4
_chemical_formula_sum   'Sr8 Cr4 Br4 O16'
_cell_volume   561.16036351
_cell_formula_units_Z   4
loop_
 _symmetry_equiv_pos_site_id
 _symmetry_equiv_pos_as_xyz
  1  'x, y, z'
loop_
 _atom_site_type_symbol
 _atom_site_label
 _atom_site_symmetry_multiplicity
 _atom_site_fract_x
 _atom_site_fract_y
 _atom_site_fract_z
 _atom_site_occupancy
  Sr  Sr0  1  0.11520273  0.46624533  0.25000000  1
  Sr  Sr1  1  0.61532275  0.25000000  0.00000000  1
  Sr  Sr2  1  0.38467725  0.75000000  0.00000000  1
  Sr  Sr3  1  0.61532275  0.25000000  0.50000000  1
  Sr  Sr4  1  0.11520273  0.03375467  0.75000000  1
  Sr  Sr5  1  0.88479727  0.96624533  0.25000000  1
  Sr  Sr6  1  0.88479727  0.53375467  0.75000000  1
  Sr  Sr7  1  0.38467725  0.75000000  0.50000000  1
  Cr  Cr0  1  0.88426655  0.75000000  0.50000000  1
  Cr  Cr1  1  0.11573345  0.25000000  0.00000000  1
  Cr  Cr2  1  0.88426655  0.75000000  0.00000000  1
  Cr  Cr3  1  0.11573345  0.25000000  0.50000000  1
  Br  Br0  1  0.57219692  0.89259273  0.75000000  1
  Br  Br1  1  0.42780308  0.39259273  0.75000000  1
  Br  Br2  1  0.57219692  0.60740727  0.25000000  1
  Br  Br3  1  0.42780308  0.10740727  0.25000000  1
  O  O0  1  0.04614575  0.73303258  0.38306592  1
  O  O1  1  0.95385425  0.26696742  0.61693408  1
  O  O2  1  0.27509564  0.07858980  0.96525804  1
  O  O3  1  0.95385425  0.23303258  0.11693408  1
  O  O4  1  0.72490436  0.57858980  0.96525804  1
  O  O5  1  0.72490436  0.92141020  0.03474196  1
  O  O6  1  0.04614575  0.76696742  0.61693408  1
  O  O7  1  0.95385425  0.23303258  0.38306592  1
  O  O8  1  0.72490436  0.92141020  0.46525804  1
  O  O9  1  0.95385425  0.26696742  0.88306592  1
  O  O10  1  0.27509564  0.42141020  0.03474196  1
  O  O11  1  0.72490436  0.57858980  0.53474196  1
  O  O12  1  0.27509564  0.42141020  0.46525804  1
  O  O13  1  0.04614575  0.73303258  0.11693408  1
  O  O14  1  0.27509564  0.07858980  0.53474196  1
  O  O15  1  0.04614575  0.76696742  0.88306592  1
loop_
_geom_bond_atom_site_label_1
_geom_bond_atom_site_label_2
_geom_bond_distance
_geom_bond_site_symmetry_2
Cr0 O8 1.698104 1_555
Cr0 O11 1.698104 1_555
Cr0 O6 1.713833 1_655
Cr0 O0 1.713833 1_655
Cr1 O10 1.698104 1_555
Cr1 O2 1.698104 1_554
Cr1 O3 1.713833 1_455
Cr1 O9 1.713833 1_454
Cr2 O5 1.698104 1_555
Cr2 O4 1.698104 1_554
Cr2 O13 1.713833 1_655
Cr2 O15 1.713833 1_654
Cr3 O12 1.698104 1_555
Cr3 O14 1.698104 1_555
Cr3 O1 1.713833 1_455
Cr3 O7 1.713833 1_455
Br0 Sr4 3.151884 1_565
Br0 Sr7 3.305043 1_555
Br0 Sr2 3.305043 1_556
Br0 Sr6 3.370740 1_555
Br0 Sr4 3.683005 1_665
Br1 Sr6 3.151884 1_555
Br1 Sr1 3.305043 1_556
Br1 Sr3 3.305043 1_555
Br1 Sr4 3.370740 1_555
Br1 Sr6 3.683005 1_455
Br2 Sr0 3.151884 1_555
Br2 Sr7 3.305043 1_555
Br2 Sr2 3.305043 1_555
Br2 Sr5 3.370740 1_555
Br2 Sr0 3.683005 1_655
Br3 Sr5 3.151884 1_545
Br3 Sr3 3.305043 1_555
Br3 Sr1 3.305043 1_555
Br3 Sr0 3.370740 1_555
Br3 Sr5 3.683005 1_445
O0 Sr5 2.550725 1_455
O0 Sr0 2.559747 1_555
O0 Sr7 2.582271 1_555
O1 Sr4 2.550725 1_655
O1 Sr6 2.559747 1_555
O1 Sr3 2.582271 1_555
O2 Sr1 2.587887 1_556
O2 Sr2 2.595359 1_546
O2 Sr4 2.709745 1_555
O3 Sr0 2.550725 1_655
O3 Sr5 2.559747 1_545
O3 Sr1 2.582271 1_555
O4 Sr2 2.587887 1_556
O4 Sr1 2.595359 1_556
O4 Sr6 2.709745 1_555
O5 Sr2 2.587887 1_555
O5 Sr1 2.595359 1_565
O5 Sr5 2.709745 1_555
O6 Sr6 2.550725 1_455
O6 Sr4 2.559747 1_565
O6 Sr7 2.582271 1_555
O7 Sr0 2.550725 1_655
O7 Sr5 2.559747 1_545
O7 Sr3 2.582271 1_555
O8 Sr7 2.587887 1_555
O8 Sr3 2.595359 1_565
O8 Sr5 2.709745 1_555
O9 Sr4 2.550725 1_655
O9 Sr6 2.559747 1_555
O9 Sr1 2.582271 1_556
O10 Sr1 2.587887 1_555
O10 Sr2 2.595359 1_555
O10 Sr0 2.709745 1_555
O11 Sr7 2.587887 1_555
O11 Sr3 2.595359 1_555
O11 Sr6 2.709745 1_555
O12 Sr3 2.587887 1_555
O12 Sr7 2.595359 1_555
O12 Sr0 2.709745 1_555
O13 Sr5 2.550725 1_455
O13 Sr0 2.559747 1_555
O13 Sr2 2.582271 1_555
O14 Sr3 2.587887 1_555
O14 Sr7 2.595359 1_545
O14 Sr4 2.709745 1_555
O15 Sr6 2.550725 1_455
O15 Sr4 2.559747 1_565
O15 Sr2 2.582271 1_556
