# generated using pymatgen
data_Cs2Mn3FeAs4
_symmetry_space_group_name_H-M   'P 1'
_cell_length_a   7.98288187
_cell_length_b   7.98287992
_cell_length_c   6.00222421
_cell_angle_alpha   90.00000000
_cell_angle_beta   90.00000000
_cell_angle_gamma   135.85245875
_symmetry_Int_Tables_number   1
_chemical_formula_structural   Cs2Mn3FeAs4
_chemical_formula_sum   'Cs2 Mn3 Fe1 As4'
_cell_volume   266.41451723
_cell_formula_units_Z   1
loop_
 _symmetry_equiv_pos_site_id
 _symmetry_equiv_pos_as_xyz
  1  'x, y, z'
loop_
 _atom_site_type_symbol
 _atom_site_label
 _atom_site_symmetry_multiplicity
 _atom_site_fract_x
 _atom_site_fract_y
 _atom_site_fract_z
 _atom_site_occupancy
  Cs  Cs0  1  0.50000000  0.00000000  0.25394990  1
  Cs  Cs1  1  0.00000000  0.50000000  0.74605010  1
  Mn  Mn0  1  0.50000000  0.50000000  0.50000000  1
  Mn  Mn1  1  0.50000000  0.50000000  0.00000000  1
  Mn  Mn2  1  0.00000000  0.00000000  0.50000000  1
  Fe  Fe0  1  0.00000000  0.00000000  0.00000000  1
  As  As0  1  0.66932586  0.84924906  0.75963291  1
  As  As1  1  0.15075094  0.33067414  0.24036709  1
  As  As2  1  0.84924906  0.66932586  0.24036709  1
  As  As3  1  0.33067414  0.15075094  0.75963291  1
loop_
_geom_bond_atom_site_label_1
_geom_bond_atom_site_label_2
_geom_bond_distance
_geom_bond_site_symmetry_2
As0 Fe0 2.437008 1_666
As0 Mn1 2.504665 1_556
As0 Mn2 2.507199 1_665
As0 Mn0 2.573011 1_555
As0 Cs1 3.779140 1_665
As0 Cs0 3.796432 1_566
As0 Cs0 3.849984 1_565
As0 Cs1 3.866600 1_555
As1 Fe0 2.437007 1_555
As1 Mn1 2.504665 1_555
As1 Mn2 2.507199 1_555
As1 Mn0 2.573012 1_555
As1 Cs0 3.779142 1_455
As1 Cs1 3.796432 1_554
As1 Cs1 3.849984 1_555
As1 Cs0 3.866598 1_565
As2 Fe0 2.437007 1_665
As2 Mn1 2.504665 1_555
As2 Mn2 2.507199 1_665
As2 Mn0 2.573012 1_555
As2 Cs0 3.779142 1_665
As2 Cs1 3.796432 1_654
As2 Cs1 3.849984 1_655
As2 Cs0 3.866598 1_555
As3 Fe0 2.437008 1_556
As3 Mn1 2.504665 1_556
As3 Mn2 2.507199 1_555
As3 Mn0 2.573011 1_555
As3 Cs1 3.779140 1_545
As3 Cs0 3.796432 1_556
As3 Cs0 3.849984 1_555
As3 Cs1 3.866600 1_655
