# generated using pymatgen
data_Y6LuScO12
_symmetry_space_group_name_H-M   'P 1'
_cell_length_a   6.59970571
_cell_length_b   6.59970588
_cell_length_c   6.59970563
_cell_angle_alpha   92.33443098
_cell_angle_beta   92.33444445
_cell_angle_gamma   92.33443744
_symmetry_Int_Tables_number   1
_chemical_formula_structural   Y6LuScO12
_chemical_formula_sum   'Y6 Lu1 Sc1 O12'
_cell_volume   286.72178813
_cell_formula_units_Z   1
loop_
 _symmetry_equiv_pos_site_id
 _symmetry_equiv_pos_as_xyz
  1  'x, y, z'
loop_
 _atom_site_type_symbol
 _atom_site_label
 _atom_site_symmetry_multiplicity
 _atom_site_fract_x
 _atom_site_fract_y
 _atom_site_fract_z
 _atom_site_occupancy
  Y  Y0  1  0.74480634  0.93075567  0.43906722  1
  Y  Y1  1  0.93075567  0.43906722  0.74480634  1
  Y  Y2  1  0.43906722  0.74480634  0.93075567  1
  Y  Y3  1  0.25519366  0.06924433  0.56093278  1
  Y  Y4  1  0.06924433  0.56093278  0.25519366  1
  Y  Y5  1  0.56093278  0.25519366  0.06924433  1
  Lu  Lu0  1  0.00000000  0.00000000  0.00000000  1
  Sc  Sc0  1  0.50000000  0.50000000  0.50000000  1
  O  O0  1  0.59280847  0.46371023  0.80608798  1
  O  O1  1  0.46371023  0.80608798  0.59280847  1
  O  O2  1  0.80608798  0.59280847  0.46371023  1
  O  O3  1  0.40719153  0.53628977  0.19391202  1
  O  O4  1  0.53628977  0.19391202  0.40719153  1
  O  O5  1  0.19391202  0.40719153  0.53628977  1
  O  O6  1  0.06924537  0.91015492  0.31216785  1
  O  O7  1  0.91015492  0.31216785  0.06924537  1
  O  O8  1  0.68783215  0.93075463  0.08984508  1
  O  O9  1  0.08984508  0.68783215  0.93075463  1
  O  O10  1  0.93075463  0.08984508  0.68783215  1
  O  O11  1  0.31216785  0.06924537  0.91015492  1
loop_
_geom_bond_atom_site_label_1
_geom_bond_atom_site_label_2
_geom_bond_distance
_geom_bond_site_symmetry_2
Lu0 O6 2.202231 1_545
Lu0 O10 2.202231 1_454
Lu0 O11 2.202231 1_554
Lu0 O8 2.202231 1_445
Lu0 O7 2.202231 1_455
Lu0 O9 2.202231 1_544
O0 Sc0 2.112785 1_555
O0 Y5 2.270515 1_556
O0 Y2 2.290208 1_555
O0 Y1 2.293942 1_555
O1 Sc0 2.112785 1_555
O1 Y3 2.270515 1_565
O1 Y0 2.290208 1_555
O1 Y2 2.293942 1_555
O2 Sc0 2.112785 1_555
O2 Y4 2.270515 1_655
O2 Y1 2.290208 1_555
O2 Y0 2.293942 1_555
O3 Sc0 2.112785 1_555
O3 Y2 2.270515 1_554
O3 Y5 2.290208 1_555
O3 Y4 2.293942 1_555
O4 Sc0 2.112785 1_555
O4 Y0 2.270515 1_545
O4 Y3 2.290208 1_555
O4 Y5 2.293942 1_555
O5 Sc0 2.112785 1_555
O5 Y1 2.270515 1_455
O5 Y4 2.290208 1_555
O5 Y3 2.293942 1_555
O6 Y3 2.212308 1_565
O6 Y4 2.320069 1_555
O6 Y0 2.337769 1_455
O7 Y4 2.212309 1_655
O7 Y5 2.320069 1_555
O7 Y1 2.337768 1_554
O8 Y2 2.212308 1_554
O8 Y0 2.320069 1_555
O8 Y5 2.337769 1_565
O9 Y1 2.212309 1_455
O9 Y2 2.320069 1_555
O9 Y4 2.337768 1_556
O10 Y0 2.212308 1_545
O10 Y1 2.320069 1_555
O10 Y3 2.337769 1_655
O11 Y5 2.212308 1_556
O11 Y3 2.320069 1_555
O11 Y2 2.337769 1_545
