# generated using pymatgen
data_Mn2Al3CrS8
_symmetry_space_group_name_H-M   'P 1'
_cell_length_a   7.14259031
_cell_length_b   7.16938315
_cell_length_c   7.14230854
_cell_angle_alpha   60.12575082
_cell_angle_beta   60.00249173
_cell_angle_gamma   60.12526570
_symmetry_Int_Tables_number   1
_chemical_formula_structural   Mn2Al3CrS8
_chemical_formula_sum   'Mn2 Al3 Cr1 S8'
_cell_volume   259.11385184
_cell_formula_units_Z   1
loop_
 _symmetry_equiv_pos_site_id
 _symmetry_equiv_pos_as_xyz
  1  'x, y, z'
loop_
 _atom_site_type_symbol
 _atom_site_label
 _atom_site_symmetry_multiplicity
 _atom_site_fract_x
 _atom_site_fract_y
 _atom_site_fract_z
 _atom_site_occupancy
  Mn  Mn0  1  0.87456699  0.87645873  0.87449999  1
  Mn  Mn1  1  0.12542534  0.12356624  0.12549028  1
  Al  Al0  1  0.50000441  0.50000433  0.49998582  1
  Al  Al1  1  0.50000254  0.49999805  0.00000480  1
  Al  Al2  1  0.00000500  0.50000020  0.50000685  1
  Cr  Cr0  1  0.49999788  0.99997382  0.50000928  1
  S  S0  1  0.73956461  0.73784280  0.73959450  1
  S  S1  1  0.26044136  0.26215934  0.71697954  1
  S  S2  1  0.26110807  0.71655532  0.26116289  1
  S  S3  1  0.71693977  0.26218426  0.26043652  1
  S  S4  1  0.73888827  0.28346067  0.73882917  1
  S  S5  1  0.28305672  0.73779563  0.73957153  1
  S  S6  1  0.26043200  0.26215662  0.26041706  1
  S  S7  1  0.73957003  0.73783598  0.28301277  1
loop_
_geom_bond_atom_site_label_1
_geom_bond_atom_site_label_2
_geom_bond_distance
_geom_bond_site_symmetry_2
Mn0 S5 2.383931 1_655
Mn0 S7 2.383981 1_556
Mn0 S0 2.383994 1_555
Mn0 S4 2.386993 1_565
Mn1 S3 2.383904 1_455
Mn1 S1 2.383967 1_554
Mn1 S6 2.383993 1_555
Mn1 S2 2.387046 1_545
Al0 S3 2.420461 1_555
Al0 S5 2.420495 1_555
Al0 S7 2.420661 1_555
Al0 S1 2.420709 1_555
Al0 S2 2.421698 1_555
Al0 S4 2.421743 1_555
Al1 S3 2.420451 1_555
Al1 S5 2.420500 1_554
Al1 S0 2.420708 1_554
Al1 S6 2.420734 1_555
Al1 S4 2.421685 1_554
Al1 S2 2.421688 1_555
Al2 S1 2.420658 1_555
Al2 S7 2.420753 1_455
Al2 S0 2.420775 1_455
Al2 S6 2.420784 1_555
Al2 S4 2.421456 1_455
Al2 S2 2.421459 1_555
Cr0 S7 2.430688 1_555
Cr0 S5 2.430697 1_555
Cr0 S0 2.430763 1_555
Cr0 S1 2.430816 1_565
Cr0 S6 2.430819 1_565
Cr0 S3 2.430871 1_565
