# generated using pymatgen
data_Rb2Pd(IO3)6
_symmetry_space_group_name_H-M   'P 1'
_cell_length_a   7.59977254
_cell_length_b   7.59977288
_cell_length_c   7.59977317
_cell_angle_alpha   97.07603204
_cell_angle_beta   97.07603385
_cell_angle_gamma   97.07603610
_symmetry_Int_Tables_number   1
_chemical_formula_structural   Rb2Pd(IO3)6
_chemical_formula_sum   'Rb2 Pd1 I6 O18'
_cell_volume   427.98836097
_cell_formula_units_Z   1
loop_
 _symmetry_equiv_pos_site_id
 _symmetry_equiv_pos_as_xyz
  1  'x, y, z'
loop_
 _atom_site_type_symbol
 _atom_site_label
 _atom_site_symmetry_multiplicity
 _atom_site_fract_x
 _atom_site_fract_y
 _atom_site_fract_z
 _atom_site_occupancy
  Rb  Rb0  1  0.16779316  0.16779316  0.16779316  1
  Rb  Rb1  1  0.83220684  0.83220684  0.83220684  1
  Pd  Pd0  1  0.50000000  0.50000000  0.50000000  1
  I  I0  1  0.33602696  0.70269950  0.13875422  1
  I  I1  1  0.13875422  0.33602696  0.70269950  1
  I  I2  1  0.86124578  0.66397304  0.29730050  1
  I  I3  1  0.66397304  0.29730050  0.86124578  1
  I  I4  1  0.70269950  0.13875422  0.33602696  1
  I  I5  1  0.29730050  0.86124578  0.66397304  1
  O  O0  1  0.90988449  0.29088618  0.38666851  1
  O  O1  1  0.09617641  0.68615854  0.08916606  1
  O  O2  1  0.09011551  0.70911382  0.61333149  1
  O  O3  1  0.44575779  0.68101269  0.69199742  1
  O  O4  1  0.55424321  0.31898731  0.30800258  1
  O  O5  1  0.30800258  0.55424321  0.31898731  1
  O  O6  1  0.29088618  0.38666851  0.90988449  1
  O  O7  1  0.69199742  0.44575679  0.68101269  1
  O  O8  1  0.70911382  0.61333149  0.09011551  1
  O  O9  1  0.08916606  0.09617641  0.68615854  1
  O  O10  1  0.38666851  0.90988449  0.29088618  1
  O  O11  1  0.61333149  0.09011551  0.70911382  1
  O  O12  1  0.68615854  0.08916606  0.09617641  1
  O  O13  1  0.68101269  0.69199742  0.44575679  1
  O  O14  1  0.91083394  0.90382359  0.31384146  1
  O  O15  1  0.31898731  0.30800258  0.55424321  1
  O  O16  1  0.90382359  0.31384146  0.91083394  1
  O  O17  1  0.31384146  0.91083394  0.90382359  1
loop_
_geom_bond_atom_site_label_1
_geom_bond_atom_site_label_2
_geom_bond_distance
_geom_bond_site_symmetry_2
I0 O1 1.800858 1_555
I0 O10 1.804617 1_555
I0 O5 1.894161 1_555
I1 O9 1.800858 1_555
I1 O6 1.804617 1_555
I1 O15 1.894161 1_555
I2 O14 1.800858 1_555
I2 O8 1.804617 1_555
I2 O13 1.894161 1_555
I3 O16 1.800858 1_555
I3 O11 1.804617 1_555
I3 O7 1.894161 1_555
I4 O12 1.800858 1_555
I4 O0 1.804617 1_555
I4 O4 1.894161 1_555
I5 O17 1.800858 1_555
I5 O2 1.804617 1_555
I5 O3 1.894166 1_555
O0 Rb0 2.890579 1_655
O1 Rb1 3.031071 1_454
O2 Rb1 2.890579 1_455
O3 Pd0 1.996199 1_555
O3 Rb1 3.029381 1_555
O4 Pd0 1.996202 1_555
O4 Rb0 3.029388 1_555
O5 Pd0 1.996202 1_555
O5 Rb0 3.029388 1_555
O6 Rb0 2.890579 1_556
O7 Pd0 1.996202 1_555
O7 Rb1 3.029388 1_555
O8 Rb1 2.890579 1_554
O9 Rb1 3.031071 1_445
O10 Rb0 2.890579 1_565
O11 Rb1 2.890579 1_545
O12 Rb1 3.031071 1_544
O13 Pd0 1.996202 1_555
O13 Rb1 3.029388 1_555
O14 Rb0 3.031071 1_665
O15 Pd0 1.996202 1_555
O15 Rb0 3.029388 1_555
O16 Rb0 3.031071 1_656
O17 Rb0 3.031071 1_566
