# generated using pymatgen
data_NaSn6RuRh3
_symmetry_space_group_name_H-M   'P 1'
_cell_length_a   6.90958879
_cell_length_b   6.90958901
_cell_length_c   6.89156183
_cell_angle_alpha   120.01755058
_cell_angle_beta   120.01754737
_cell_angle_gamma   90.12361639
_symmetry_Int_Tables_number   1
_chemical_formula_structural   NaSn6RuRh3
_chemical_formula_sum   'Na1 Sn6 Ru1 Rh3'
_cell_volume   232.27608037
_cell_formula_units_Z   1
loop_
 _symmetry_equiv_pos_site_id
 _symmetry_equiv_pos_as_xyz
  1  'x, y, z'
loop_
 _atom_site_type_symbol
 _atom_site_label
 _atom_site_symmetry_multiplicity
 _atom_site_fract_x
 _atom_site_fract_y
 _atom_site_fract_z
 _atom_site_occupancy
  Na  Na0  1  0.00241434  0.00241434  0.00222030  1
  Sn  Sn0  1  0.88104610  0.54015346  0.00192787  1
  Sn  Sn1  1  0.54015346  0.88104610  0.00192787  1
  Sn  Sn2  1  0.11621273  0.11621273  0.65564978  1
  Sn  Sn3  1  0.00107323  0.50684009  0.50351233  1
  Sn  Sn4  1  0.46579118  0.46579118  0.34610904  1
  Sn  Sn5  1  0.50684009  0.00107323  0.50351233  1
  Ru  Ru0  1  0.74474321  0.74474321  0.33316091  1
  Rh  Rh0  1  0.24602643  0.58767471  0.99682556  1
  Rh  Rh1  1  0.40802251  0.40802251  0.65833246  1
  Rh  Rh2  1  0.58767471  0.24602643  0.99682556  1
loop_
_geom_bond_atom_site_label_1
_geom_bond_atom_site_label_2
_geom_bond_distance
_geom_bond_site_symmetry_2
Na0 Sn2 3.270534 1_554
Na0 Rh1 3.280593 1_555
Na0 Sn1 3.299306 1_445
Na0 Sn0 3.299306 1_445
Na0 Sn4 3.300120 1_555
Na0 Rh2 3.320196 1_454
Na0 Rh0 3.320196 1_544
Na0 Ru0 3.340503 1_444
Na0 Sn3 3.424997 1_544
Na0 Sn5 3.424997 1_454
Na0 Sn3 3.473857 1_555
Na0 Sn5 3.473857 1_555
Ru0 Sn2 2.583019 1_665
Ru0 Sn0 2.650325 1_555
Ru0 Sn1 2.650325 1_555
Ru0 Sn5 2.660882 1_565
Ru0 Sn3 2.660882 1_655
Ru0 Sn4 2.786786 1_555
Rh0 Sn0 2.562333 1_456
Rh0 Sn3 2.659604 1_555
Rh0 Sn2 2.675575 1_555
Rh0 Sn4 2.680651 1_556
Rh0 Sn5 2.702229 1_566
Rh0 Ru0 2.810750 1_556
Rh0 Rh1 2.820769 1_555
Rh0 Sn1 2.842519 1_556
Rh1 Sn4 2.581949 1_555
Rh1 Sn1 2.683972 1_556
Rh1 Sn0 2.683972 1_556
Rh1 Sn5 2.691946 1_555
Rh1 Sn3 2.691946 1_555
Rh1 Rh2 2.820769 1_555
Rh1 Sn2 2.835317 1_555
Rh2 Sn1 2.562333 1_546
Rh2 Sn5 2.659603 1_555
Rh2 Sn2 2.675575 1_555
Rh2 Sn4 2.680651 1_556
Rh2 Sn3 2.702229 1_656
Rh2 Ru0 2.810750 1_556
Rh2 Sn0 2.842519 1_556
