# generated using pymatgen
data_Rb6Cr(IrBr6)3
_symmetry_space_group_name_H-M   'P 1'
_cell_length_a   7.40233625
_cell_length_b   7.40233627
_cell_length_c   18.95653890
_cell_angle_alpha   90.00000000
_cell_angle_beta   90.00000000
_cell_angle_gamma   119.99999144
_symmetry_Int_Tables_number   1
_chemical_formula_structural   Rb6Cr(IrBr6)3
_chemical_formula_sum   'Rb6 Cr1 Ir3 Br18'
_cell_volume   899.55419853
_cell_formula_units_Z   1
loop_
 _symmetry_equiv_pos_site_id
 _symmetry_equiv_pos_as_xyz
  1  'x, y, z'
loop_
 _atom_site_type_symbol
 _atom_site_label
 _atom_site_symmetry_multiplicity
 _atom_site_fract_x
 _atom_site_fract_y
 _atom_site_fract_z
 _atom_site_occupancy
  Rb  Rb0  1  0.66666700  0.33333300  0.56163273  1
  Rb  Rb1  1  0.33333300  0.66666700  0.06360984  1
  Rb  Rb2  1  0.33333300  0.66666700  0.43360502  1
  Rb  Rb3  1  0.66666700  0.33333300  0.93763519  1
  Rb  Rb4  1  0.00000000  0.00000000  0.25277044  1
  Rb  Rb5  1  0.00000000  0.00000000  0.74869240  1
  Cr  Cr0  1  0.66666700  0.33333300  0.16338931  1
  Ir  Ir0  1  0.33333300  0.66666700  0.66328809  1
  Ir  Ir1  1  0.66666700  0.33333300  0.33369534  1
  Ir  Ir2  1  0.33333300  0.66666700  0.83603834  1
  Br  Br0  1  0.82558377  0.65116754  0.40803593  1
  Br  Br1  1  0.17407086  0.82592914  0.58974593  1
  Br  Br2  1  0.65185729  0.82592914  0.58974593  1
  Br  Br3  1  0.82558377  0.17441623  0.40803593  1
  Br  Br4  1  0.34883246  0.17441623  0.40803593  1
  Br  Br5  1  0.17408865  0.34817730  0.90959715  1
  Br  Br6  1  0.02846724  0.51423412  0.74973899  1
  Br  Br7  1  0.65182270  0.82591135  0.90959715  1
  Br  Br8  1  0.82724883  0.65449767  0.09318973  1
  Br  Br9  1  0.17407086  0.34814271  0.58974593  1
  Br  Br10  1  0.48576588  0.97153276  0.74973899  1
  Br  Br11  1  0.51075325  0.48924675  0.25157202  1
  Br  Br12  1  0.48576588  0.51423412  0.74973899  1
  Br  Br13  1  0.17408865  0.82591135  0.90959715  1
  Br  Br14  1  0.34550233  0.17275117  0.09318973  1
  Br  Br15  1  0.97849449  0.48924675  0.25157202  1
  Br  Br16  1  0.51075325  0.02150551  0.25157202  1
  Br  Br17  1  0.82724883  0.17275117  0.09318973  1
loop_
_geom_bond_atom_site_label_1
_geom_bond_atom_site_label_2
_geom_bond_distance
_geom_bond_site_symmetry_2
Br0 Ir1 2.477382 1_555
Br0 Rb0 3.553765 1_555
Br0 Rb4 3.696446 1_665
Br0 Rb2 3.734090 1_655
Br0 Rb2 3.734097 1_555
Br1 Ir0 2.472454 1_555
Br1 Rb2 3.595894 1_555
Br1 Rb0 3.740545 1_455
Br1 Rb0 3.740545 1_565
Br1 Rb5 3.749608 1_565
Br2 Ir0 2.472454 1_555
Br2 Rb2 3.595894 1_555
Br2 Rb0 3.740537 1_565
Br2 Rb0 3.740552 1_555
Br2 Rb5 3.749612 1_665
Br3 Ir1 2.477376 1_555
Br3 Rb0 3.553762 1_555
Br3 Rb4 3.696446 1_655
Br3 Rb2 3.734094 1_655
Br3 Rb2 3.734094 1_545
Br4 Ir1 2.477382 1_555
Br4 Rb0 3.553765 1_555
Br4 Rb4 3.696446 1_555
Br4 Rb2 3.734090 1_545
Br4 Rb2 3.734097 1_555
Br5 Ir2 2.472449 1_555
Br5 Rb1 3.562633 1_556
Br5 Rb3 3.740344 1_455
Br5 Rb3 3.740351 1_555
Br5 Rb5 3.779637 1_555
Br6 Ir2 2.548701 1_555
Br6 Ir0 2.550546 1_555
Br6 Rb5 3.705714 1_565
Br6 Rb5 3.705721 1_555
Br7 Ir2 2.472449 1_555
Br7 Rb1 3.562633 1_556
Br7 Rb3 3.740344 1_565
Br7 Rb3 3.740351 1_555
Br7 Rb5 3.779637 1_665
Br8 Cr0 2.451486 1_555
Br8 Rb3 3.596414 1_554
Br8 Rb1 3.744212 1_655
Br8 Rb1 3.744219 1_555
Br8 Rb4 3.749256 1_665
Br9 Ir0 2.472454 1_555
Br9 Rb2 3.595894 1_555
Br9 Rb0 3.740537 1_455
Br9 Rb0 3.740552 1_555
Br9 Rb5 3.749612 1_555
Br10 Ir2 2.548701 1_555
Br10 Ir0 2.550546 1_555
Br10 Rb5 3.705714 1_565
Br10 Rb5 3.705721 1_665
Br11 Ir1 2.533686 1_555
Br11 Cr0 2.605839 1_555
Br11 Rb4 3.703805 1_555
Br11 Rb4 3.703805 1_665
Br12 Ir2 2.548701 1_555
Br12 Ir0 2.550546 1_555
Br12 Rb5 3.705718 1_665
Br12 Rb5 3.705718 1_555
Br13 Ir2 2.472443 1_555
Br13 Rb1 3.562629 1_556
Br13 Rb3 3.740348 1_455
Br13 Rb3 3.740348 1_565
Br13 Rb5 3.779637 1_565
Br14 Cr0 2.451486 1_555
Br14 Rb3 3.596414 1_554
Br14 Rb1 3.744212 1_545
Br14 Rb1 3.744219 1_555
Br14 Rb4 3.749256 1_555
Br15 Ir1 2.533686 1_555
Br15 Cr0 2.605839 1_555
Br15 Rb4 3.703801 1_655
Br15 Rb4 3.703808 1_665
Br16 Ir1 2.533686 1_555
Br16 Cr0 2.605839 1_555
Br16 Rb4 3.703801 1_655
Br16 Rb4 3.703808 1_555
Br17 Cr0 2.451481 1_555
Br17 Rb3 3.596410 1_554
Br17 Rb1 3.744216 1_655
Br17 Rb1 3.744216 1_545
Br17 Rb4 3.749255 1_655
