# generated using pymatgen
data_Te7OsBr6
_symmetry_space_group_name_H-M   'P 1'
_cell_length_a   9.68338869
_cell_length_b   10.31745705
_cell_length_c   11.16022455
_cell_angle_alpha   99.98106248
_cell_angle_beta   103.73466400
_cell_angle_gamma   111.75343050
_symmetry_Int_Tables_number   1
_chemical_formula_structural   Te7OsBr6
_chemical_formula_sum   'Te14 Os2 Br12'
_cell_volume   962.86253214
_cell_formula_units_Z   2
loop_
 _symmetry_equiv_pos_site_id
 _symmetry_equiv_pos_as_xyz
  1  'x, y, z'
loop_
 _atom_site_type_symbol
 _atom_site_label
 _atom_site_symmetry_multiplicity
 _atom_site_fract_x
 _atom_site_fract_y
 _atom_site_fract_z
 _atom_site_occupancy
  Te  Te0  1  0.91959833  0.01047947  0.69514139  1
  Te  Te1  1  0.08040167  0.98952053  0.30485861  1
  Te  Te2  1  0.18656139  0.27067780  0.85052532  1
  Te  Te3  1  0.81343861  0.72932220  0.14947468  1
  Te  Te4  1  0.73446971  0.11298110  0.80891888  1
  Te  Te5  1  0.26553029  0.88701890  0.19108112  1
  Te  Te6  1  0.01296783  0.32178814  0.00709440  1
  Te  Te7  1  0.98703217  0.67821186  0.99290560  1
  Te  Te8  1  0.21211352  0.07290732  0.01928298  1
  Te  Te9  1  0.78788648  0.92709268  0.98071702  1
  Te  Te10  1  0.70859166  0.61901509  0.67556625  1
  Te  Te11  1  0.29140834  0.38098491  0.32443375  1
  Te  Te12  1  0.10829233  0.75324230  0.71356466  1
  Te  Te13  1  0.89170767  0.24675770  0.28643534  1
  Os  Os0  1  0.95328373  0.83920163  0.84073866  1
  Os  Os1  1  0.04671627  0.16079837  0.15926134  1
  Br  Br0  1  0.52003732  0.75102597  0.61832209  1
  Br  Br1  1  0.47996268  0.24897403  0.38167791  1
  Br  Br2  1  0.82971381  0.68074627  0.47118694  1
  Br  Br3  1  0.17028619  0.31925373  0.52881306  1
  Br  Br4  1  0.89922506  0.44677165  0.68595051  1
  Br  Br5  1  0.10077494  0.55322835  0.31404949  1
  Br  Br6  1  0.59014501  0.49458199  0.85189172  1
  Br  Br7  1  0.40985499  0.50541801  0.14810828  1
  Br  Br8  1  0.28862697  0.01072259  0.68648417  1
  Br  Br9  1  0.71137303  0.98927741  0.31351583  1
  Br  Br10  1  0.32667213  0.74932128  0.90796702  1
  Br  Br11  1  0.67332787  0.25067872  0.09203298  1
loop_
_geom_bond_atom_site_label_1
_geom_bond_atom_site_label_2
_geom_bond_distance
_geom_bond_site_symmetry_2
Te0 Te4 2.822253 1_555
Te0 Te2 2.830266 1_655
Te1 Te5 2.822253 1_555
Te1 Te3 2.830266 1_455
Te2 Te6 2.808800 1_556
Te2 Te8 3.042535 1_556
Te3 Te7 2.808800 1_554
Te3 Te9 3.042535 1_554
Te4 Te6 2.831113 1_656
Te4 Te9 3.026718 1_545
Te5 Te7 2.831113 1_454
Te5 Te8 3.026718 1_565
Os0 Te12 2.572154 1_655
Os0 Te10 2.580235 1_555
Os0 Te7 2.620361 1_555
Os0 Te0 2.653388 1_565
Os0 Te8 2.747692 1_666
Os0 Te9 2.757070 1_555
Os1 Te13 2.572154 1_455
Os1 Te11 2.580235 1_555
Os1 Te6 2.620361 1_555
Os1 Te1 2.653388 1_545
Os1 Te9 2.747692 1_444
Os1 Te8 2.757070 1_555
Br0 Te10 2.681040 1_555
Br1 Te11 2.681040 1_555
Br2 Te10 2.864278 1_555
Br2 Te12 3.080826 1_655
Br3 Te11 2.864278 1_555
Br3 Te13 3.080826 1_455
Br4 Te12 2.968633 1_655
Br4 Te10 2.996766 1_555
Br5 Te13 2.968633 1_455
Br5 Te11 2.996766 1_555
Br6 Te10 2.773475 1_555
Br6 Te3 3.389820 1_556
Br7 Te11 2.773475 1_555
Br7 Te2 3.389820 1_554
Br8 Te12 2.699690 1_545
Br9 Te13 2.699690 1_565
Br10 Te12 2.663780 1_555
Br11 Te13 2.663780 1_555
