# generated using pymatgen
data_Ta4Cd3HgO14
_symmetry_space_group_name_H-M   'P 1'
_cell_length_a   7.41418465
_cell_length_b   7.34031285
_cell_length_c   7.41418459
_cell_angle_alpha   59.66652869
_cell_angle_beta   60.00000027
_cell_angle_gamma   59.66652860
_symmetry_Int_Tables_number   1
_chemical_formula_structural   Ta4Cd3HgO14
_chemical_formula_sum   'Ta4 Cd3 Hg1 O14'
_cell_volume   283.86957720
_cell_formula_units_Z   1
loop_
 _symmetry_equiv_pos_site_id
 _symmetry_equiv_pos_as_xyz
  1  'x, y, z'
loop_
 _atom_site_type_symbol
 _atom_site_label
 _atom_site_symmetry_multiplicity
 _atom_site_fract_x
 _atom_site_fract_y
 _atom_site_fract_z
 _atom_site_occupancy
  Ta  Ta0  1  0.62500000  0.62500000  0.62500000  1
  Ta  Ta1  1  0.12500000  0.62500000  0.62500000  1
  Ta  Ta2  1  0.62500000  0.62500000  0.12500000  1
  Ta  Ta3  1  0.62500000  0.12500000  0.62500000  1
  Cd  Cd0  1  0.12500000  0.12500000  0.12500000  1
  Cd  Cd1  1  0.62500000  0.12500000  0.12500000  1
  Cd  Cd2  1  0.12500000  0.12500000  0.62500000  1
  Hg  Hg0  1  0.12500000  0.62500000  0.12500000  1
  O  O0  1  0.56444478  0.55445744  0.94054939  1
  O  O1  1  0.30773578  0.30524441  0.69350941  1
  O  O2  1  0.94054939  0.55445744  0.94054939  1
  O  O3  1  0.94054939  0.55445744  0.56444478  1
  O  O4  1  0.55649059  0.94475559  0.94226422  1
  O  O5  1  0.55649059  0.94475559  0.55649059  1
  O  O6  1  0.30945061  0.69554256  0.30945061  1
  O  O7  1  0.69350941  0.30524441  0.69350941  1
  O  O8  1  0.24864274  0.25407179  0.24864274  1
  O  O9  1  0.00135726  0.99592821  0.00135726  1
  O  O10  1  0.94226422  0.94475559  0.55649059  1
  O  O11  1  0.69350941  0.30524441  0.30773578  1
  O  O12  1  0.30945061  0.69554256  0.68555522  1
  O  O13  1  0.68555522  0.69554256  0.30945061  1
loop_
_geom_bond_atom_site_label_1
_geom_bond_atom_site_label_2
_geom_bond_distance
_geom_bond_site_symmetry_2
Cd0 O8 2.274468 1_555
Cd0 O9 2.274468 1_545
Cd0 O2 2.615174 1_454
Cd0 O6 2.615174 1_545
Cd0 O10 2.649831 1_445
Cd0 O1 2.649831 1_554
Cd0 O4 2.649831 1_544
Cd0 O11 2.649831 1_455
Cd1 O9 2.274468 1_645
Cd1 O8 2.274468 1_555
Cd1 O0 2.615175 1_554
Cd1 O13 2.615175 1_545
Cd1 O11 2.649826 1_555
Cd1 O4 2.649826 1_544
Cd1 O5 2.649833 1_545
Cd1 O7 2.649833 1_554
Cd2 O9 2.274468 1_546
Cd2 O8 2.274468 1_555
Cd2 O3 2.615175 1_455
Cd2 O12 2.615175 1_545
Cd2 O1 2.649826 1_555
Cd2 O10 2.649826 1_445
Cd2 O5 2.649833 1_545
Cd2 O7 2.649833 1_455
Hg0 O9 2.211828 1_555
Hg0 O8 2.211828 1_555
O0 Ta2 1.975840 1_556
O0 Ta0 1.975847 1_555
O1 Ta1 1.968383 1_555
O1 Ta3 1.970301 1_555
O2 Ta1 1.975845 1_655
O2 Ta2 1.975845 1_556
O3 Ta1 1.975840 1_655
O3 Ta0 1.975847 1_555
O4 Ta2 1.968383 1_556
O4 Ta3 1.970301 1_565
O5 Ta0 1.968385 1_555
O5 Ta3 1.970296 1_565
O6 Ta1 1.975845 1_555
O6 Ta2 1.975845 1_555
O7 Ta0 1.968385 1_555
O7 Ta3 1.970296 1_555
O10 Ta1 1.968383 1_655
O10 Ta3 1.970301 1_565
O11 Ta2 1.968383 1_555
O11 Ta3 1.970301 1_555
O12 Ta1 1.975840 1_555
O12 Ta0 1.975847 1_555
O13 Ta2 1.975840 1_555
O13 Ta0 1.975847 1_555
