# generated using pymatgen
data_RbMgAsO4
_symmetry_space_group_name_H-M   'P 1'
_cell_length_a   5.06872260
_cell_length_b   10.29191469
_cell_length_c   8.77581185
_cell_angle_alpha   106.53976251
_cell_angle_beta   89.97281571
_cell_angle_gamma   90.03844061
_symmetry_Int_Tables_number   1
_chemical_formula_structural   RbMgAsO4
_chemical_formula_sum   'Rb4 Mg4 As4 O16'
_cell_volume   438.86349957
_cell_formula_units_Z   4
loop_
 _symmetry_equiv_pos_site_id
 _symmetry_equiv_pos_as_xyz
  1  'x, y, z'
loop_
 _atom_site_type_symbol
 _atom_site_label
 _atom_site_symmetry_multiplicity
 _atom_site_fract_x
 _atom_site_fract_y
 _atom_site_fract_z
 _atom_site_occupancy
  Rb  Rb0  1  0.49996523  0.13201613  0.21067832  1
  Rb  Rb1  1  0.99995747  0.13201368  0.71067738  1
  Rb  Rb2  1  0.50003963  0.86798492  0.78932182  1
  Rb  Rb3  1  0.00003819  0.86798543  0.28932084  1
  Mg  Mg0  1  0.49960638  0.49387590  0.66476377  1
  Mg  Mg1  1  0.00038902  0.50612607  0.83523652  1
  Mg  Mg2  1  0.99960172  0.49387424  0.16476195  1
  Mg  Mg3  1  0.50039077  0.50612184  0.33523347  1
  As  As0  1  0.50008643  0.67481316  0.05826300  1
  As  As1  1  0.00008794  0.67480950  0.55826356  1
  As  As2  1  0.49993763  0.32518751  0.94174992  1
  As  As3  1  0.99991956  0.32518589  0.44173560  1
  O  O0  1  0.49983351  0.15478531  0.88492095  1
  O  O1  1  0.99986442  0.15478525  0.38492545  1
  O  O2  1  0.50014265  0.84521705  0.11507752  1
  O  O3  1  0.00014954  0.84521771  0.61507285  1
  O  O4  1  0.34490815  0.61856020  0.87784735  1
  O  O5  1  0.84490948  0.61856156  0.37784594  1
  O  O6  1  0.33515025  0.61851458  0.19795772  1
  O  O7  1  0.83515438  0.61851659  0.69795717  1
  O  O8  1  0.17996569  0.38146853  0.95723233  1
  O  O9  1  0.67997799  0.38147001  0.45723580  1
  O  O10  1  0.65508332  0.38144168  0.12215771  1
  O  O11  1  0.15509816  0.38144123  0.62216037  1
  O  O12  1  0.82002902  0.61852988  0.04276450  1
  O  O13  1  0.32003111  0.61852793  0.54276170  1
  O  O14  1  0.66483212  0.38148395  0.80203693  1
  O  O15  1  0.16484825  0.38148428  0.30204357  1
loop_
_geom_bond_atom_site_label_1
_geom_bond_atom_site_label_2
_geom_bond_distance
_geom_bond_site_symmetry_2
Mg0 O11 2.068738 1_555
Mg0 O14 2.070343 1_555
Mg0 O9 2.071549 1_555
Mg0 O4 2.095730 1_555
Mg0 O13 2.098863 1_555
Mg0 O7 2.099503 1_555
Mg1 O4 2.068783 1_555
Mg1 O7 2.070391 1_455
Mg1 O12 2.071516 1_456
Mg1 O11 2.095706 1_555
Mg1 O8 2.098871 1_555
Mg1 O14 2.099546 1_455
Mg2 O10 2.068770 1_555
Mg2 O15 2.070425 1_655
Mg2 O8 2.071542 1_654
Mg2 O5 2.095732 1_555
Mg2 O12 2.098858 1_555
Mg2 O6 2.099503 1_655
Mg3 O5 2.068810 1_555
Mg3 O6 2.070396 1_555
Mg3 O13 2.071525 1_555
Mg3 O10 2.095654 1_555
Mg3 O9 2.098889 1_555
Mg3 O15 2.099464 1_555
As0 O2 1.681215 1_555
As0 O4 1.714450 1_554
As0 O12 1.714686 1_555
As0 O6 1.714753 1_555
As1 O3 1.681258 1_555
As1 O5 1.714461 1_455
As1 O13 1.714683 1_555
As1 O7 1.714707 1_455
As2 O0 1.681198 1_555
As2 O10 1.714318 1_556
As2 O14 1.714768 1_555
As2 O8 1.714822 1_555
As3 O1 1.681183 1_555
As3 O11 1.714519 1_655
As3 O9 1.714684 1_555
As3 O15 1.714715 1_655
O0 Rb2 2.829591 1_545
O0 Rb0 2.934110 1_556
O0 Rb1 2.934587 1_455
O0 Rb1 2.934691 1_555
O1 Rb3 2.829585 1_645
O1 Rb1 2.934071 1_555
O1 Rb0 2.934607 1_655
O1 Rb0 2.934706 1_555
O2 Rb0 2.829578 1_565
O2 Rb2 2.934090 1_554
O2 Rb3 2.934606 1_555
O2 Rb3 2.934673 1_655
O3 Rb1 2.829547 1_465
O3 Rb3 2.934057 1_555
O3 Rb2 2.934656 1_455
O3 Rb2 2.934675 1_555
O4 Rb2 2.990623 1_555
O5 Rb3 2.990609 1_655
O6 Rb3 2.992116 1_555
O7 Rb2 2.992104 1_555
O8 Rb1 2.990225 1_455
O9 Rb0 2.990237 1_555
O10 Rb0 2.990591 1_555
O11 Rb1 2.990624 1_455
O12 Rb3 2.990237 1_655
O13 Rb2 2.990262 1_555
O14 Rb1 2.992149 1_555
O15 Rb0 2.992109 1_555
