# generated using pymatgen
data_LiTi2(SnIr)2
_symmetry_space_group_name_H-M   'P 1'
_cell_length_a   7.57249778
_cell_length_b   7.57249668
_cell_length_c   7.57249740
_cell_angle_alpha   33.94163115
_cell_angle_beta   33.94164387
_cell_angle_gamma   33.94163676
_symmetry_Int_Tables_number   1
_chemical_formula_structural   LiTi2(SnIr)2
_chemical_formula_sum   'Li1 Ti2 Sn2 Ir2'
_cell_volume   120.65529141
_cell_formula_units_Z   1
loop_
 _symmetry_equiv_pos_site_id
 _symmetry_equiv_pos_as_xyz
  1  'x, y, z'
loop_
 _atom_site_type_symbol
 _atom_site_label
 _atom_site_symmetry_multiplicity
 _atom_site_fract_x
 _atom_site_fract_y
 _atom_site_fract_z
 _atom_site_occupancy
  Li  Li0  1  0.37481102  0.37481102  0.37481102  1
  Ti  Ti0  1  0.75481342  0.75481342  0.75481342  1
  Ti  Ti1  1  0.24628164  0.24628164  0.24628164  1
  Sn  Sn0  1  0.99553788  0.99553788  0.99553788  1
  Sn  Sn1  1  0.50245592  0.50245592  0.50245592  1
  Ir  Ir0  1  0.12381164  0.12381164  0.12381164  1
  Ir  Ir1  1  0.62728948  0.62728948  0.62728948  1
loop_
_geom_bond_atom_site_label_1
_geom_bond_atom_site_label_2
_geom_bond_distance
_geom_bond_site_symmetry_2
Li0 Sn1 2.730108 1_555
Li0 Sn0 2.734835 1_454
Li0 Sn0 2.734836 1_445
Li0 Sn0 2.734836 1_544
Li0 Ti0 2.740478 1_545
Li0 Ti0 2.740479 1_554
Li0 Ti0 2.740479 1_455
Li0 Ti1 2.749025 1_555
Sn0 Ti1 3.103904 1_656
Sn0 Ti1 3.103905 1_665
Sn0 Ti1 3.103905 1_566
Sn1 Ti1 3.039303 1_565
Sn1 Ti1 3.039304 1_556
Sn1 Ti1 3.039305 1_655
Sn1 Ti0 3.084392 1_545
Sn1 Ti0 3.084392 1_554
Sn1 Ti0 3.084393 1_455
Ir0 Ti1 2.619426 1_555
Ir0 Ti0 2.663786 1_454
Ir0 Ti0 2.663786 1_445
Ir0 Ti0 2.663786 1_544
Ir0 Sn1 2.730032 1_545
Ir0 Sn1 2.730032 1_554
Ir0 Sn1 2.730033 1_455
Ir0 Sn0 2.743558 1_444
Ir1 Sn0 2.659237 1_545
Ir1 Sn0 2.659238 1_554
Ir1 Sn0 2.659238 1_455
Ir1 Sn1 2.669978 1_555
Ir1 Ti0 2.727521 1_555
Ir1 Ti1 2.748384 1_565
Ir1 Ti1 2.748384 1_556
Ir1 Ti1 2.748384 1_655
