# generated using pymatgen
data_Rb8HfAs4
_symmetry_space_group_name_H-M   'P 1'
_cell_length_a   11.36782388
_cell_length_b   11.36782394
_cell_length_c   11.36782412
_cell_angle_alpha   59.99999946
_cell_angle_beta   59.99999929
_cell_angle_gamma   59.99999970
_symmetry_Int_Tables_number   1
_chemical_formula_structural   Rb8HfAs4
_chemical_formula_sum   'Rb16 Hf2 As8'
_cell_volume   1038.76430584
_cell_formula_units_Z   2
loop_
 _symmetry_equiv_pos_site_id
 _symmetry_equiv_pos_as_xyz
  1  'x, y, z'
loop_
 _atom_site_type_symbol
 _atom_site_label
 _atom_site_symmetry_multiplicity
 _atom_site_fract_x
 _atom_site_fract_y
 _atom_site_fract_z
 _atom_site_occupancy
  Rb  Rb0  1  0.62500000  0.62500000  0.12500000  1
  Rb  Rb1  1  0.62500000  0.12500000  0.62500000  1
  Rb  Rb2  1  0.12500000  0.62500000  0.62500000  1
  Rb  Rb3  1  0.62500000  0.62500000  0.62500000  1
  Rb  Rb4  1  0.02703431  0.47296569  0.47296569  1
  Rb  Rb5  1  0.77703431  0.22296569  0.22296569  1
  Rb  Rb6  1  0.47296569  0.02703431  0.47296569  1
  Rb  Rb7  1  0.47296569  0.47296569  0.02703431  1
  Rb  Rb8  1  0.02703431  0.02703431  0.47296569  1
  Rb  Rb9  1  0.02703431  0.47296569  0.02703431  1
  Rb  Rb10  1  0.47296569  0.02703431  0.02703431  1
  Rb  Rb11  1  0.77703431  0.22296569  0.77703431  1
  Rb  Rb12  1  0.22296569  0.77703431  0.22296569  1
  Rb  Rb13  1  0.22296569  0.22296569  0.77703431  1
  Rb  Rb14  1  0.77703431  0.77703431  0.22296569  1
  Rb  Rb15  1  0.22296569  0.77703431  0.77703431  1
  Hf  Hf0  1  0.75000000  0.75000000  0.75000000  1
  Hf  Hf1  1  0.50000000  0.50000000  0.50000000  1
  As  As0  1  0.84567794  0.84567794  0.46296817  1
  As  As1  1  0.84567794  0.46296817  0.84567794  1
  As  As2  1  0.40432206  0.40432206  0.78703183  1
  As  As3  1  0.40432206  0.78703183  0.40432206  1
  As  As4  1  0.78703183  0.40432206  0.40432206  1
  As  As5  1  0.84567794  0.84567794  0.84567794  1
  As  As6  1  0.46296817  0.84567794  0.84567794  1
  As  As7  1  0.40432206  0.40432206  0.40432206  1
loop_
_geom_bond_atom_site_label_1
_geom_bond_atom_site_label_2
_geom_bond_distance
_geom_bond_site_symmetry_2
Hf0 Rb2 3.480671 1_655
Hf0 Rb1 3.480671 1_565
Hf0 Rb0 3.480671 1_556
Hf0 Rb3 3.480671 1_555
Hf1 Rb2 3.480671 1_555
Hf1 Rb1 3.480671 1_555
Hf1 Rb0 3.480671 1_555
Hf1 Rb3 3.480671 1_555
As0 Hf0 2.664169 1_555
As0 Rb2 3.609814 1_655
As0 Rb1 3.609814 1_565
As0 Rb3 3.609832 1_555
As0 Rb8 3.637643 1_665
As0 Rb6 3.637662 1_565
As0 Rb4 3.637662 1_655
As0 Rb12 3.678074 1_655
As0 Rb5 3.678074 1_565
As0 Rb14 3.678090 1_555
As1 Hf0 2.664169 1_555
As1 Rb2 3.609814 1_655
As1 Rb0 3.609814 1_556
As1 Rb3 3.609832 1_555
As1 Rb9 3.637643 1_656
As1 Rb7 3.637662 1_556
As1 Rb4 3.637662 1_655
As1 Rb13 3.678074 1_655
As1 Rb5 3.678074 1_556
As1 Rb11 3.678090 1_555
As2 Hf1 2.664169 1_555
As2 Rb2 3.609814 1_555
As2 Rb1 3.609814 1_555
As2 Rb3 3.609832 1_555
As2 Rb13 3.637643 1_555
As2 Rb11 3.637662 1_555
As2 Rb15 3.637662 1_555
As2 Rb9 3.678074 1_556
As2 Rb10 3.678074 1_556
As2 Rb7 3.678090 1_556
As3 Hf1 2.664169 1_555
As3 Rb2 3.609814 1_555
As3 Rb0 3.609814 1_555
As3 Rb3 3.609832 1_555
As3 Rb12 3.637643 1_555
As3 Rb14 3.637662 1_555
As3 Rb15 3.637662 1_555
As3 Rb8 3.678074 1_565
As3 Rb10 3.678074 1_565
As3 Rb6 3.678090 1_565
As4 Hf1 2.664169 1_555
As4 Rb1 3.609814 1_555
As4 Rb0 3.609814 1_555
As4 Rb3 3.609832 1_555
As4 Rb5 3.637643 1_555
As4 Rb14 3.637662 1_555
As4 Rb11 3.637662 1_555
As4 Rb8 3.678074 1_655
As4 Rb9 3.678074 1_655
As4 Rb4 3.678090 1_655
As5 Hf0 2.664188 1_555
As5 Rb0 3.609828 1_556
As5 Rb2 3.609828 1_655
As5 Rb1 3.609828 1_565
As5 Rb10 3.637656 1_566
As5 Rb9 3.637656 1_656
As5 Rb8 3.637656 1_665
As5 Rb15 3.678068 1_655
As5 Rb11 3.678068 1_565
As5 Rb14 3.678068 1_556
As6 Hf0 2.664169 1_555
As6 Rb1 3.609814 1_565
As6 Rb0 3.609814 1_556
As6 Rb3 3.609832 1_555
As6 Rb10 3.637643 1_566
As6 Rb7 3.637662 1_556
As6 Rb6 3.637662 1_565
As6 Rb13 3.678074 1_565
As6 Rb12 3.678074 1_556
As6 Rb15 3.678090 1_555
As7 Hf1 2.664188 1_555
As7 Rb0 3.609828 1_555
As7 Rb2 3.609828 1_555
As7 Rb1 3.609828 1_555
As7 Rb5 3.637656 1_555
As7 Rb12 3.637656 1_555
As7 Rb13 3.637656 1_555
As7 Rb4 3.678068 1_555
As7 Rb6 3.678068 1_555
As7 Rb7 3.678068 1_555
