# generated using pymatgen
data_Ca10CuHg2Ir3
_symmetry_space_group_name_H-M   'P 1'
_cell_length_a   9.16274343
_cell_length_b   9.16274362
_cell_length_c   9.19359382
_cell_angle_alpha   130.50902509
_cell_angle_beta   130.50901642
_cell_angle_gamma   72.33147150
_symmetry_Int_Tables_number   1
_chemical_formula_structural   Ca10CuHg2Ir3
_chemical_formula_sum   'Ca10 Cu1 Hg2 Ir3'
_cell_volume   436.71648617
_cell_formula_units_Z   1
loop_
 _symmetry_equiv_pos_site_id
 _symmetry_equiv_pos_as_xyz
  1  'x, y, z'
loop_
 _atom_site_type_symbol
 _atom_site_label
 _atom_site_symmetry_multiplicity
 _atom_site_fract_x
 _atom_site_fract_y
 _atom_site_fract_z
 _atom_site_occupancy
  Ca  Ca0  1  0.52933736  0.02933736  0.82641847  1
  Ca  Ca1  1  0.19520430  0.69520430  0.15195124  1
  Ca  Ca2  1  0.04746453  0.19716077  0.51001310  1
  Ca  Ca3  1  0.69716077  0.54746453  0.51001310  1
  Ca  Ca4  1  0.45674794  0.95674794  0.15195124  1
  Ca  Ca5  1  0.79708010  0.29708010  0.82641847  1
  Ca  Ca6  1  0.96254857  0.81285333  0.51001310  1
  Ca  Ca7  1  0.31285333  0.46254857  0.51001310  1
  Ca  Ca8  1  0.49606595  0.50146328  0.99753023  1
  Ca  Ca9  1  0.00146328  0.99606595  0.99753023  1
  Cu  Cu0  1  0.88603408  0.38603408  0.27206816  1
  Hg  Hg0  1  0.25281682  0.25281682  0.00563365  1
  Hg  Hg1  1  0.75281682  0.75281682  0.00563365  1
  Ir  Ir0  1  0.61959279  0.87910501  0.49869780  1
  Ir  Ir1  1  0.37910501  0.11959279  0.49869780  1
  Ir  Ir2  1  0.11370834  0.61370834  0.72741668  1
loop_
_geom_bond_atom_site_label_1
_geom_bond_atom_site_label_2
_geom_bond_distance
_geom_bond_site_symmetry_2
Ca0 Ir0 2.968912 1_545
Ca0 Ir1 2.968912 1_555
Ca0 Cu0 3.137147 1_556
Ca0 Hg0 3.349362 1_556
Ca0 Hg1 3.349362 1_546
Ca0 Ca8 3.501879 1_555
Ca0 Ca9 3.501879 1_645
Ca1 Ir1 3.002881 1_565
Ca1 Ir0 3.002881 1_555
Ca1 Ir2 3.019020 1_554
Ca1 Hg0 3.325473 1_555
Ca1 Hg1 3.325473 1_455
Ca1 Ca8 3.406761 1_554
Ca1 Ca9 3.406761 1_554
Ca2 Ir1 2.958632 1_555
Ca2 Ir2 2.974944 1_555
Ca2 Cu0 3.021434 1_455
Ca2 Hg0 3.314812 1_556
Ca2 Hg1 3.353957 1_445
Ca2 Ca8 3.397958 1_555
Ca2 Ca9 3.519186 1_544
Ca3 Ir0 2.958632 1_555
Ca3 Ir2 2.974945 1_655
Ca3 Cu0 3.021433 1_555
Ca3 Hg1 3.314812 1_556
Ca3 Hg0 3.353957 1_555
Ca3 Ca9 3.397958 1_655
Ca3 Ca8 3.519187 1_554
Ca4 Ir1 3.002890 1_565
Ca4 Ir0 3.002890 1_555
Ca4 Ir2 3.019030 1_554
Ca4 Hg1 3.325465 1_555
Ca4 Hg0 3.325465 1_565
Ca4 Ca8 3.406778 1_554
Ca4 Ca9 3.406778 1_554
Ca5 Ir0 2.968903 1_545
Ca5 Ir1 2.968903 1_555
Ca5 Cu0 3.137137 1_556
Ca5 Hg1 3.349369 1_556
Ca5 Hg0 3.349369 1_656
Ca5 Ca8 3.501879 1_555
Ca5 Ca9 3.501879 1_645
Ca6 Ir0 2.958633 1_555
Ca6 Ir2 2.974953 1_655
Ca6 Cu0 3.021442 1_555
Ca6 Hg0 3.314807 1_666
Ca6 Hg1 3.353951 1_555
Ca6 Ca9 3.397969 1_655
Ca6 Ca8 3.519198 1_554
Ca7 Ir1 2.958633 1_555
Ca7 Ir2 2.974953 1_555
Ca7 Cu0 3.021442 1_455
Ca7 Hg1 3.314807 1_556
Ca7 Hg0 3.353951 1_555
Ca7 Ca8 3.397969 1_555
Ca7 Ca9 3.519198 1_544
Ca8 Ir2 3.053991 1_555
Ca8 Ir0 3.061649 1_556
Ca8 Ir1 3.076996 1_555
Ca8 Cu0 3.116775 1_556
Ca8 Hg0 3.698975 1_556
Ca8 Hg1 3.698990 1_556
Ca9 Ir2 3.053991 1_555
Ca9 Ir1 3.061650 1_566
Ca9 Ir0 3.076997 1_455
Ca9 Cu0 3.116774 1_466
Ca9 Hg1 3.698975 1_456
Ca9 Hg0 3.698990 1_566
Cu0 Ir2 2.485866 1_655
Ir0 Ir1 2.600705 1_565
