# generated using pymatgen
data_K2In(GaTe2)5
_symmetry_space_group_name_H-M   'P 1'
_cell_length_a   10.86286865
_cell_length_b   10.79683617
_cell_length_c   10.82697360
_cell_angle_alpha   90.37270909
_cell_angle_beta   90.75341615
_cell_angle_gamma   90.21270220
_symmetry_Int_Tables_number   1
_chemical_formula_structural   K2In(GaTe2)5
_chemical_formula_sum   'K4 In2 Ga10 Te20'
_cell_volume   1269.69160337
_cell_formula_units_Z   2
loop_
 _symmetry_equiv_pos_site_id
 _symmetry_equiv_pos_as_xyz
  1  'x, y, z'
loop_
 _atom_site_type_symbol
 _atom_site_label
 _atom_site_symmetry_multiplicity
 _atom_site_fract_x
 _atom_site_fract_y
 _atom_site_fract_z
 _atom_site_occupancy
  K  K0  1  0.25507674  0.00048288  0.74115301  1
  K  K1  1  0.74233975  0.25701900  0.00018223  1
  K  K2  1  0.99702078  0.74244286  0.25061475  1
  K  K3  1  0.49997813  0.49689152  0.50061420  1
  In  In0  1  0.84358355  0.88859630  0.58009899  1
  In  In1  1  0.57764123  0.83646637  0.89002379  1
  Ga  Ga0  1  0.89417221  0.57660815  0.83713165  1
  Ga  Ga1  1  0.16936520  0.42191040  0.11037558  1
  Ga  Ga2  1  0.11266565  0.17035820  0.41883540  1
  Ga  Ga3  1  0.41928256  0.11311784  0.16968970  1
  Ga  Ga4  1  0.73573677  0.16150419  0.35177376  1
  Ga  Ga5  1  0.34953120  0.73666421  0.16342106  1
  Ga  Ga6  1  0.16012618  0.34962027  0.73871608  1
  Ga  Ga7  1  0.26050299  0.64833054  0.83659538  1
  Ga  Ga8  1  0.83890973  0.26542719  0.64836478  1
  Ga  Ga9  1  0.64647944  0.83514399  0.26348785  1
  Te  Te0  1  0.19093360  0.81124051  0.99880670  1
  Te  Te1  1  0.80575067  0.99823324  0.19022691  1
  Te  Te2  1  0.17605314  0.17774613  0.17579621  1
  Te  Te3  1  0.83850987  0.82253064  0.83847681  1
  Te  Te4  1  0.99919866  0.18706906  0.80931423  1
  Te  Te5  1  0.94129742  0.49509909  0.06244539  1
  Te  Te6  1  0.07881847  0.93847546  0.48642197  1
  Te  Te7  1  0.48999307  0.07671949  0.93989647  1
  Te  Te8  1  0.73795428  0.69813158  0.43769816  1
  Te  Te9  1  0.43318106  0.73629023  0.69774743  1
  Te  Te10  1  0.71185198  0.44751637  0.73950437  1
  Te  Te11  1  0.25913570  0.55696225  0.29329034  1
  Te  Te12  1  0.29056213  0.26423090  0.55749011  1
  Te  Te13  1  0.55572183  0.29319273  0.26253786  1
  Te  Te14  1  0.67546140  0.08851221  0.58134963  1
  Te  Te15  1  0.57543628  0.66953437  0.08929592  1
  Te  Te16  1  0.07833878  0.57764735  0.67954072  1
  Te  Te17  1  0.32023686  0.42083682  0.91900396  1
  Te  Te18  1  0.91839610  0.31969839  0.41943373  1
  Te  Te19  1  0.42075562  0.91974927  0.32064687  1
loop_
_geom_bond_atom_site_label_1
_geom_bond_atom_site_label_2
_geom_bond_distance
_geom_bond_site_symmetry_2
K0 Te6 3.398255 1_545
K0 Te7 3.411259 1_555
K0 Te9 3.485383 1_545
K0 Te12 3.506783 1_555
K0 Te4 3.522098 1_455
K0 Te0 3.543567 1_545
K1 Te7 3.409774 1_554
K1 Te5 3.410406 1_555
K1 Te10 3.515914 1_554
K1 Te13 3.531787 1_555
K1 Te1 3.544976 1_545
K1 Te4 3.573966 1_554
K2 Te5 3.396105 1_555
K2 Te6 3.412261 1_655
K2 Te11 3.514387 1_655
K2 Te1 3.521647 1_555
K2 Te8 3.521931 1_555
K2 Te0 3.547880 1_654
K3 Te9 3.427213 1_555
K3 Te13 3.438757 1_555
K3 Te12 3.446572 1_555
K3 Te8 3.448407 1_555
K3 Te10 3.484483 1_555
K3 Te11 3.490142 1_555
In0 Te8 2.795930 1_555
In0 Te6 2.813084 1_655
In0 Te14 2.832666 1_565
In0 Te3 2.892626 1_555
In1 Te9 2.799704 1_555
In1 Te7 2.817874 1_565
In1 Te15 2.820548 1_556
In1 Te3 2.899672 1_555
Ga0 Te10 2.624432 1_555
Ga0 Te5 2.643096 1_556
Ga0 Te16 2.646416 1_655
Ga0 Te3 2.725339 1_555
Ga1 Te11 2.626827 1_555
Ga1 Te5 2.649083 1_455
Ga1 Te17 2.658635 1_554
Ga1 Te2 2.735123 1_555
Ga2 Te12 2.627674 1_555
Ga2 Te6 2.638701 1_545
Ga2 Te18 2.660609 1_455
Ga2 Te2 2.730315 1_555
Ga3 Te13 2.627033 1_555
Ga3 Te7 2.640870 1_554
Ga3 Te19 2.659752 1_545
Ga3 Te2 2.736788 1_555
Ga4 Te1 2.598073 1_545
Ga4 Te13 2.601490 1_555
Ga4 Te14 2.700465 1_555
Ga4 Te18 2.703939 1_555
Ga5 Te0 2.596378 1_554
Ga5 Te11 2.600656 1_555
Ga5 Te15 2.692368 1_555
Ga5 Te19 2.704459 1_555
Ga6 Te4 2.598115 1_455
Ga6 Te12 2.601312 1_555
Ga6 Te16 2.698687 1_555
Ga6 Te17 2.703278 1_555
Ga7 Te0 2.598830 1_555
Ga7 Te9 2.599976 1_555
Ga7 Te16 2.696854 1_555
Ga7 Te17 2.697263 1_555
Ga8 Te4 2.595088 1_555
Ga8 Te10 2.602791 1_555
Ga8 Te14 2.692655 1_555
Ga8 Te18 2.702577 1_555
Ga9 Te8 2.594473 1_555
Ga9 Te1 2.598995 1_555
Ga9 Te15 2.693923 1_555
Ga9 Te19 2.697951 1_555
