# generated using pymatgen
data_MgCd2Rh3O8
_symmetry_space_group_name_H-M   'P 1'
_cell_length_a   6.12910366
_cell_length_b   6.12910404
_cell_length_c   6.12910505
_cell_angle_alpha   61.56904733
_cell_angle_beta   61.56904185
_cell_angle_gamma   61.56905274
_symmetry_Int_Tables_number   1
_chemical_formula_structural   MgCd2Rh3O8
_chemical_formula_sum   'Mg1 Cd2 Rh3 O8'
_cell_volume   168.53960517
_cell_formula_units_Z   1
loop_
 _symmetry_equiv_pos_site_id
 _symmetry_equiv_pos_as_xyz
  1  'x, y, z'
loop_
 _atom_site_type_symbol
 _atom_site_label
 _atom_site_symmetry_multiplicity
 _atom_site_fract_x
 _atom_site_fract_y
 _atom_site_fract_z
 _atom_site_occupancy
  Mg  Mg0  1  0.62500000  0.62500000  0.62500000  1
  Cd  Cd0  1  0.24271869  0.24271869  0.24271869  1
  Cd  Cd1  1  0.00728131  0.00728131  0.00728131  1
  Rh  Rh0  1  0.62500000  0.62500000  0.12500000  1
  Rh  Rh1  1  0.62500000  0.12500000  0.62500000  1
  Rh  Rh2  1  0.12500000  0.62500000  0.62500000  1
  O  O0  1  0.86113656  0.86113656  0.42916293  1
  O  O1  1  0.86113656  0.42916293  0.86113656  1
  O  O2  1  0.42916293  0.86113656  0.86113656  1
  O  O3  1  0.85837345  0.85837345  0.85837345  1
  O  O4  1  0.38886344  0.38886344  0.82083707  1
  O  O5  1  0.38886344  0.82083707  0.38886344  1
  O  O6  1  0.82083707  0.38886344  0.38886344  1
  O  O7  1  0.39162655  0.39162655  0.39162655  1
loop_
_geom_bond_atom_site_label_1
_geom_bond_atom_site_label_2
_geom_bond_distance
_geom_bond_site_symmetry_2
Mg0 O0 2.077582 1_555
Mg0 O4 2.077582 1_555
Mg0 O2 2.077582 1_555
Mg0 O6 2.077582 1_555
Mg0 O1 2.077583 1_555
Mg0 O5 2.077583 1_555
Cd0 O6 2.154978 1_455
Cd0 O5 2.154979 1_545
Cd0 O4 2.154979 1_554
Cd0 O7 2.208703 1_555
Cd1 O2 2.154978 1_544
Cd1 O1 2.154979 1_454
Cd1 O0 2.154979 1_445
Cd1 O3 2.208703 1_444
O0 Rh1 2.028887 1_565
O0 Rh2 2.028887 1_655
O1 Rh2 2.028886 1_655
O1 Rh0 2.028887 1_556
O2 Rh1 2.028886 1_565
O2 Rh0 2.028887 1_556
O3 Rh0 2.063765 1_556
O3 Rh2 2.063765 1_655
O3 Rh1 2.063766 1_565
O4 Rh1 2.028887 1_555
O4 Rh2 2.028887 1_555
O5 Rh2 2.028886 1_555
O5 Rh0 2.028887 1_555
O6 Rh1 2.028886 1_555
O6 Rh0 2.028887 1_555
O7 Rh0 2.063765 1_555
O7 Rh2 2.063765 1_555
O7 Rh1 2.063766 1_555
