# generated using pymatgen
data_Ca2B4Ru3C
_symmetry_space_group_name_H-M   'P 1'
_cell_length_a   5.56554838
_cell_length_b   5.56554719
_cell_length_c   7.87795488
_cell_angle_alpha   58.85045747
_cell_angle_beta   58.85046432
_cell_angle_gamma   42.34716358
_symmetry_Int_Tables_number   1
_chemical_formula_structural   Ca2B4Ru3C
_chemical_formula_sum   'Ca2 B4 Ru3 C1'
_cell_volume   136.76872983
_cell_formula_units_Z   1
loop_
 _symmetry_equiv_pos_site_id
 _symmetry_equiv_pos_as_xyz
  1  'x, y, z'
loop_
 _atom_site_type_symbol
 _atom_site_label
 _atom_site_symmetry_multiplicity
 _atom_site_fract_x
 _atom_site_fract_y
 _atom_site_fract_z
 _atom_site_occupancy
  Ca  Ca0  1  0.39574837  0.91524287  0.74597680  1
  Ca  Ca1  1  0.08475713  0.60425163  0.25402320  1
  B  B0  1  0.54411367  0.53493414  0.37619904  1
  B  B1  1  0.46506586  0.45588633  0.62380096  1
  B  B2  1  0.07261377  0.63021553  0.81092352  1
  B  B3  1  0.36978447  0.92738623  0.18907648  1
  Ru  Ru0  1  0.00694060  0.99305940  0.50000000  1
  Ru  Ru1  1  0.61062870  0.12785878  0.90874136  1
  Ru  Ru2  1  0.87214122  0.38937130  0.09125864  1
  C  C0  1  0.74447820  0.25552180  1.00000000  1
loop_
_geom_bond_atom_site_label_1
_geom_bond_atom_site_label_2
_geom_bond_distance
_geom_bond_site_symmetry_2
Ca0 Ru0 3.162858 1_655
Ca0 Ru0 3.272580 1_555
Ca1 Ru0 3.162857 1_545
Ca1 Ru0 3.272580 1_555
B0 B1 1.643906 1_555
B0 B3 1.703330 1_555
B0 Ru2 2.117466 1_555
B0 Ru0 2.163050 1_555
B0 Ru0 2.180547 1_645
B0 Ca1 2.883563 1_555
B0 Ca1 2.909422 1_655
B1 B2 1.703330 1_555
B1 Ru1 2.117465 1_555
B1 Ru0 2.163050 1_555
B1 Ru0 2.180547 1_645
B1 Ca0 2.883562 1_555
B1 Ca0 2.909421 1_545
B2 Ru1 2.123129 1_465
B2 Ru2 2.125529 1_456
B2 Ru0 2.220193 1_555
B2 Ru1 2.271621 1_555
B2 Ca0 2.904814 1_555
B2 Ca0 3.048032 1_455
B2 Ca0 3.147455 1_545
B3 Ru2 2.123129 1_465
B3 Ru1 2.125529 1_564
B3 Ru0 2.220194 1_555
B3 Ru2 2.271621 1_555
B3 Ca1 2.904814 1_555
B3 Ca1 3.048032 1_565
B3 Ca1 3.147456 1_655
C0 Ru2 1.855139 1_556
C0 Ru1 1.855139 1_555
C0 Ca1 2.645635 1_646
C0 Ca0 2.645636 1_645
C0 Ca0 2.671327 1_555
C0 Ca1 2.671328 1_556
