# generated using pymatgen
data_NaScB14
_symmetry_space_group_name_H-M   'P 1'
_cell_length_a   7.37274348
_cell_length_b   7.37274368
_cell_length_c   7.37274347
_cell_angle_alpha   131.95780274
_cell_angle_beta   112.49706838
_cell_angle_gamma   87.06406330
_symmetry_Int_Tables_number   1
_chemical_formula_structural   NaScB14
_chemical_formula_sum   'Na2 Sc2 B28'
_cell_volume   262.84938335
_cell_formula_units_Z   2
loop_
 _symmetry_equiv_pos_site_id
 _symmetry_equiv_pos_as_xyz
  1  'x, y, z'
loop_
 _atom_site_type_symbol
 _atom_site_label
 _atom_site_symmetry_multiplicity
 _atom_site_fract_x
 _atom_site_fract_y
 _atom_site_fract_z
 _atom_site_occupancy
  Na  Na0  1  0.09814268  0.75000000  0.34814268  1
  Na  Na1  1  0.90185732  0.25000000  0.65185732  1
  Sc  Sc0  1  0.50000000  0.50000000  0.50000000  1
  Sc  Sc1  1  0.50000000  0.00000000  0.00000000  1
  B  B0  1  0.89768845  0.21819910  0.99255729  1
  B  B1  1  0.46746696  0.17910269  0.79880056  1
  B  B2  1  0.88030213  0.16866740  0.20119944  1
  B  B3  1  0.72564381  0.40513116  0.00744271  1
  B  B4  1  0.59083579  0.41983694  0.17099885  1
  B  B5  1  0.75149747  0.36617318  0.38532329  1
  B  B6  1  0.30855500  0.33456778  0.97398722  1
  B  B7  1  0.72564381  0.71819910  0.32051165  1
  B  B8  1  0.88030213  0.67910269  0.71163473  1
  B  B9  1  0.46746696  0.66866740  0.28836527  1
  B  B10  1  0.10231155  0.09486884  0.32051165  1
  B  B11  1  0.89768845  0.90513116  0.67948835  1
  B  B12  1  0.53253304  0.33133260  0.71163473  1
  B  B13  1  0.11969787  0.32089731  0.28836527  1
  B  B14  1  0.27435619  0.28180090  0.67948835  1
  B  B15  1  0.74883709  0.91983694  0.82900115  1
  B  B16  1  0.48084989  0.86617318  0.61467671  1
  B  B17  1  0.86058056  0.83456778  0.02601278  1
  B  B18  1  0.69144500  0.66543222  0.02601278  1
  B  B19  1  0.24850253  0.63382682  0.61467671  1
  B  B20  1  0.40916421  0.58016306  0.82900115  1
  B  B21  1  0.27435619  0.59486884  0.99255729  1
  B  B22  1  0.11969787  0.83133260  0.79880056  1
  B  B23  1  0.53253304  0.82089731  0.20119944  1
  B  B24  1  0.10231155  0.78180090  0.00744271  1
  B  B25  1  0.13941944  0.16543222  0.97398722  1
  B  B26  1  0.51915011  0.13382682  0.38532329  1
  B  B27  1  0.25116291  0.08016306  0.17099885  1
loop_
_geom_bond_atom_site_label_1
_geom_bond_atom_site_label_2
_geom_bond_distance
_geom_bond_site_symmetry_2
B0 B15 1.784653 1_545
B0 B13 1.787708 1_656
B0 B3 1.801563 1_556
B0 B25 1.841437 1_655
B0 B2 1.850108 1_556
B0 B11 1.879190 1_545
B0 Na1 2.685676 1_555
B0 Na0 2.883381 1_656
B1 B16 1.751205 1_545
B1 B12 1.777176 1_555
B1 B14 1.787716 1_555
B1 B4 1.802873 1_556
B1 B6 1.842719 1_555
B1 B3 1.850124 1_556
B1 Sc1 2.513193 1_556
B1 Na0 2.892391 1_545
B2 B5 1.751197 1_555
B2 Sc1 2.513194 1_555
B2 Na1 2.892395 1_555
B3 B4 1.784662 1_555
B3 B7 1.879190 1_555
B3 Na0 2.685666 1_655
B3 Na1 2.883369 1_554
B4 B7 1.784652 1_555
B4 B9 1.802878 1_555
B4 B5 1.847191 1_555
B4 B6 1.853636 1_554
B4 Sc0 2.442785 1_555
B4 Sc1 2.442785 1_555
B5 B8 1.751202 1_555
B5 Sc1 2.241279 1_555
B5 Sc0 2.241283 1_555
B5 Na1 2.512044 1_555
B6 B9 1.842724 1_556
B6 Na1 2.789596 1_455
B7 B9 1.850126 1_555
B7 Na0 2.685664 1_655
B7 Na1 2.883380 1_565
B8 Sc0 2.513194 1_555
B8 Na1 2.892395 1_555
B9 Sc0 2.513193 1_555
B9 Na0 2.892387 1_555
B10 B27 1.784662 1_555
B10 B2 1.787711 1_455
B10 B14 1.801560 1_555
B10 B17 1.841438 1_445
B10 B13 1.850113 1_555
B10 B24 1.879190 1_545
B10 Na0 2.685671 1_545
B10 Na1 2.883375 1_455
B11 B15 1.784662 1_555
B11 B22 1.787711 1_655
B11 B7 1.801560 1_555
B11 B25 1.841438 1_665
B11 B8 1.850113 1_555
B11 Na1 2.685671 1_565
B11 Na0 2.883375 1_655
B12 B26 1.751199 1_555
B12 B3 1.787711 1_556
B12 B20 1.802878 1_555
B12 B18 1.842724 1_556
B12 B14 1.850126 1_555
B12 Sc0 2.513193 1_555
B12 Na1 2.892387 1_555
B13 B19 1.751202 1_555
B13 B2 1.777170 1_455
B13 B27 1.802878 1_555
B13 B25 1.842725 1_554
B13 Sc0 2.513194 1_555
B13 Na0 2.892395 1_555
B14 B20 1.784652 1_555
B14 B6 1.841439 1_555
B14 B21 1.879190 1_555
B14 Na1 2.685664 1_455
B14 Na0 2.883380 1_545
B15 B2 1.802873 1_566
B15 B8 1.802878 1_555
B15 B16 1.847183 1_555
B15 B17 1.853636 1_556
B15 Sc1 2.442778 1_566
B15 Sc0 2.442782 1_555
B16 B9 1.751199 1_555
B16 Sc1 2.241276 1_566
B16 Sc0 2.241276 1_555
B16 Na0 2.512045 1_555
B17 B18 1.808114 1_555
B17 B24 1.841437 1_655
B17 B8 1.842725 1_554
B17 B2 1.842726 1_565
B17 Na0 2.789596 1_655
B18 B3 1.841438 1_555
B18 B7 1.841439 1_555
B18 B23 1.842719 1_555
B18 B20 1.853636 1_554
B18 Na0 2.789596 1_655
B19 B22 1.751197 1_555
B19 B20 1.847191 1_555
B19 Sc1 2.241279 1_566
B19 Sc0 2.241283 1_555
B19 Na0 2.512044 1_555
B20 B21 1.784662 1_555
B20 B23 1.802873 1_556
B20 Sc0 2.442785 1_555
B20 Sc1 2.442785 1_566
B21 B9 1.787711 1_556
B21 B24 1.801563 1_556
B21 B6 1.841438 1_555
B21 B23 1.850124 1_556
B21 Na1 2.685666 1_455
B21 Na0 2.883369 1_556
B22 B8 1.777170 1_455
B22 B27 1.802873 1_566
B22 B25 1.842726 1_565
B22 B24 1.850108 1_556
B22 Sc1 2.513194 1_566
B22 Na0 2.892395 1_555
B23 B26 1.751205 1_565
B23 B9 1.777176 1_555
B23 B7 1.787716 1_555
B23 Sc1 2.513193 1_565
B23 Na1 2.892391 1_565
B24 B27 1.784653 1_565
B24 B8 1.787708 1_454
B24 Na0 2.685676 1_555
B24 Na1 2.883381 1_454
B25 B6 1.808114 1_555
B25 B27 1.853636 1_556
B25 Na1 2.789596 1_455
B26 B27 1.847183 1_555
B26 Sc1 2.241276 1_555
B26 Sc0 2.241276 1_555
B26 Na1 2.512045 1_555
B27 Sc1 2.442778 1_555
B27 Sc0 2.442782 1_555
