# generated using pymatgen
data_CdPd2PbO7
_symmetry_space_group_name_H-M   'P 1'
_cell_length_a   7.14694984
_cell_length_b   7.14695065
_cell_length_c   7.14694914
_cell_angle_alpha   119.23792688
_cell_angle_beta   121.03870541
_cell_angle_gamma   89.76769078
_symmetry_Int_Tables_number   1
_chemical_formula_structural   CdPd2PbO7
_chemical_formula_sum   'Cd2 Pd4 Pb2 O14'
_cell_volume   257.51332433
_cell_formula_units_Z   2
loop_
 _symmetry_equiv_pos_site_id
 _symmetry_equiv_pos_as_xyz
  1  'x, y, z'
loop_
 _atom_site_type_symbol
 _atom_site_label
 _atom_site_symmetry_multiplicity
 _atom_site_fract_x
 _atom_site_fract_y
 _atom_site_fract_z
 _atom_site_occupancy
  Cd  Cd0  1  0.00000000  0.50000000  0.50000000  1
  Cd  Cd1  1  0.50000000  0.50000000  0.00000000  1
  Pd  Pd0  1  0.50000000  0.00000000  0.00000000  1
  Pd  Pd1  1  0.50000000  0.50000000  0.50000000  1
  Pd  Pd2  1  0.50000000  0.00000000  0.50000000  1
  Pd  Pd3  1  0.00000000  0.00000000  0.00000000  1
  Pb  Pb0  1  0.00000000  0.50000000  0.00000000  1
  Pb  Pb1  1  0.00000000  0.00000000  0.50000000  1
  O  O0  1  0.88632184  0.63632184  0.25000000  1
  O  O1  1  0.11367816  0.36367816  0.75000000  1
  O  O2  1  0.83478419  0.08478419  0.75000000  1
  O  O3  1  0.41428213  0.66428213  0.75000000  1
  O  O4  1  0.83814403  0.66570787  0.75709033  1
  O  O5  1  0.40861754  0.08105570  0.74290967  1
  O  O6  1  0.83814403  0.08105570  0.17243816  1
  O  O7  1  0.40861754  0.66570787  0.32756184  1
  O  O8  1  0.16521581  0.91521581  0.25000000  1
  O  O9  1  0.58571787  0.33571787  0.25000000  1
  O  O10  1  0.16185597  0.33429213  0.24290967  1
  O  O11  1  0.59138246  0.91894430  0.25709033  1
  O  O12  1  0.16185597  0.91894430  0.82756184  1
  O  O13  1  0.59138246  0.33429213  0.67243816  1
loop_
_geom_bond_atom_site_label_1
_geom_bond_atom_site_label_2
_geom_bond_distance
_geom_bond_site_symmetry_2
Cd0 O0 2.235817 1_455
Cd0 O1 2.235817 1_555
Cd0 O9 2.420949 1_455
Cd0 O3 2.420949 1_555
Cd0 O12 2.484301 1_555
Cd0 O6 2.484301 1_455
Cd0 O4 2.484313 1_455
Cd0 O10 2.484313 1_555
Cd1 O0 2.235818 1_555
Cd1 O1 2.235818 1_554
Cd1 O9 2.420949 1_555
Cd1 O3 2.420949 1_554
Cd1 O7 2.484301 1_555
Cd1 O13 2.484301 1_554
Cd1 O11 2.484301 1_555
Cd1 O5 2.484301 1_554
O0 Pb0 2.142840 1_655
O0 Pb1 2.142841 1_665
O1 Pb0 2.142840 1_556
O1 Pb1 2.142841 1_555
O2 Pd3 1.957049 1_656
O2 Pd2 1.957050 1_555
O2 Pb1 2.462943 1_655
O2 Pb0 2.462943 1_656
O3 Pd1 2.004971 1_555
O3 Pd0 2.004971 1_566
O4 Pd1 1.984289 1_555
O4 Pd3 1.989923 1_666
O4 Pb0 2.383493 1_656
O5 Pd0 1.984299 1_556
O5 Pd2 1.989921 1_555
O5 Pb1 2.383492 1_555
O6 Pd0 1.984287 1_555
O6 Pd3 1.989934 1_655
O6 Pb1 2.383491 1_655
O7 Pd1 1.984299 1_555
O7 Pd2 1.989921 1_565
O7 Pb0 2.383492 1_555
O8 Pd3 1.957049 1_565
O8 Pd2 1.957050 1_565
O8 Pb1 2.462943 1_565
O8 Pb0 2.462943 1_555
O9 Pd1 2.004971 1_555
O9 Pd0 2.004971 1_555
O10 Pd1 1.984289 1_555
O10 Pd3 1.989923 1_555
O10 Pb0 2.383493 1_555
O11 Pd0 1.984299 1_565
O11 Pd2 1.989921 1_565
O11 Pb1 2.383492 1_665
O12 Pd0 1.984287 1_566
O12 Pd3 1.989934 1_566
O12 Pb1 2.383491 1_565
O13 Pd1 1.984299 1_555
O13 Pd2 1.989921 1_555
O13 Pb0 2.383492 1_656
