# generated using pymatgen
data_Cs4Al3GaS8
_symmetry_space_group_name_H-M   'P 1'
_cell_length_a   5.81078752
_cell_length_b   7.24747504
_cell_length_c   12.25065379
_cell_angle_alpha   87.47297179
_cell_angle_beta   82.94869318
_cell_angle_gamma   78.58168652
_symmetry_Int_Tables_number   1
_chemical_formula_structural   Cs4Al3GaS8
_chemical_formula_sum   'Cs4 Al3 Ga1 S8'
_cell_volume   501.77858386
_cell_formula_units_Z   1
loop_
 _symmetry_equiv_pos_site_id
 _symmetry_equiv_pos_as_xyz
  1  'x, y, z'
loop_
 _atom_site_type_symbol
 _atom_site_label
 _atom_site_symmetry_multiplicity
 _atom_site_fract_x
 _atom_site_fract_y
 _atom_site_fract_z
 _atom_site_occupancy
  Cs  Cs0  1  0.07177389  0.03106976  0.67719687  1
  Cs  Cs1  1  0.57413193  0.53152485  0.17691106  1
  Cs  Cs2  1  0.42853924  0.46758697  0.82272789  1
  Cs  Cs3  1  0.92575658  0.96901343  0.32281856  1
  Al  Al0  1  0.25133853  0.49623235  0.49861702  1
  Al  Al1  1  0.74860496  0.50392859  0.50131621  1
  Al  Al2  1  0.24863248  0.00397000  0.00142253  1
  Ga  Ga0  1  0.75152167  0.99554079  0.99862982  1
  S  S0  1  0.95452689  0.55780238  0.63707669  1
  S  S1  1  0.45058268  0.05925014  0.13849299  1
  S  S2  1  0.95060382  0.23701392  0.96043602  1
  S  S3  1  0.44809883  0.73461435  0.46049751  1
  S  S4  1  0.54228674  0.94166100  0.86139056  1
  S  S5  1  0.04552473  0.44226505  0.36284098  1
  S  S6  1  0.55183753  0.26559558  0.53943456  1
  S  S7  1  0.05623850  0.76292884  0.04019072  1
loop_
_geom_bond_atom_site_label_1
_geom_bond_atom_site_label_2
_geom_bond_distance
_geom_bond_site_symmetry_2
Cs0 S0 3.691438 1_445
Cs0 S3 3.696356 1_545
Cs0 S4 3.697426 1_545
Cs0 S6 3.718983 1_455
Cs0 S4 3.732811 1_445
Cs0 S6 3.739974 1_555
Cs0 S0 3.763759 1_455
Cs0 S2 3.768854 1_455
Cs1 S2 3.687875 1_554
Cs1 S1 3.694648 1_555
Cs1 S7 3.696725 1_555
Cs1 S5 3.716179 1_655
Cs1 S7 3.731818 1_655
Cs1 S5 3.739071 1_555
Cs1 S3 3.764538 1_555
Cs1 S1 3.768568 1_565
Cs2 S4 3.685883 1_555
Cs2 S7 3.689636 1_556
Cs2 S2 3.713472 1_455
Cs2 S2 3.720482 1_555
Cs2 S0 3.725672 1_455
Cs2 S0 3.727627 1_555
Cs2 S4 3.756318 1_545
Cs2 S6 3.758088 1_555
Cs3 S6 3.690719 1_565
Cs3 S5 3.696755 1_665
Cs3 S1 3.714278 1_665
Cs3 S1 3.719705 1_565
Cs3 S3 3.728190 1_555
Cs3 S3 3.729069 1_655
Cs3 S7 3.762559 1_655
Cs3 S5 3.763714 1_655
Al0 S6 2.253459 1_555
Al0 S5 2.254095 1_555
Al0 S3 2.256101 1_555
Al0 S0 2.257139 1_455
Al1 S3 2.253696 1_555
Al1 S0 2.254141 1_555
Al1 S6 2.255822 1_555
Al1 S5 2.257718 1_655
Al2 S2 2.254869 1_454
Al2 S1 2.255346 1_555
Al2 S7 2.257643 1_545
Al2 S4 2.258985 1_544
Ga0 S7 2.280406 1_656
Ga0 S4 2.281471 1_555
Ga0 S2 2.283946 1_565
Ga0 S1 2.285029 1_566
