# generated using pymatgen
data_Ca2Pt3Rh
_symmetry_space_group_name_H-M   'P 1'
_cell_length_a   5.39776296
_cell_length_b   5.39776301
_cell_length_c   5.37514040
_cell_angle_alpha   59.86068319
_cell_angle_beta   59.86067910
_cell_angle_gamma   59.99999972
_symmetry_Int_Tables_number   1
_chemical_formula_structural   Ca2Pt3Rh
_chemical_formula_sum   'Ca2 Pt3 Rh1'
_cell_volume   110.50569991
_cell_formula_units_Z   1
loop_
 _symmetry_equiv_pos_site_id
 _symmetry_equiv_pos_as_xyz
  1  'x, y, z'
loop_
 _atom_site_type_symbol
 _atom_site_label
 _atom_site_symmetry_multiplicity
 _atom_site_fract_x
 _atom_site_fract_y
 _atom_site_fract_z
 _atom_site_occupancy
  Ca  Ca0  1  0.49942665  0.49942665  0.50172105  1
  Ca  Ca1  1  0.75057335  0.75057335  0.74827895  1
  Pt  Pt0  1  0.12500000  0.62500000  0.12500000  1
  Pt  Pt1  1  0.12500000  0.12500000  0.12500000  1
  Pt  Pt2  1  0.62500000  0.12500000  0.12500000  1
  Rh  Rh0  1  0.12500000  0.12500000  0.62500000  1
loop_
_geom_bond_atom_site_label_1
_geom_bond_atom_site_label_2
_geom_bond_distance
_geom_bond_site_symmetry_2
Ca0 Pt0 3.143093 1_556
Ca0 Pt2 3.143094 1_556
Ca0 Pt1 3.143096 1_556
Ca0 Rh0 3.162820 1_565
Ca0 Rh0 3.162820 1_655
Ca0 Rh0 3.162825 1_555
Ca0 Pt0 3.163222 1_655
Ca0 Pt2 3.163222 1_565
Ca0 Pt1 3.163224 1_655
Ca0 Pt1 3.163225 1_565
Ca0 Pt2 3.163227 1_555
Ca0 Pt0 3.163227 1_555
Ca0 Ca1 3.298164 1_555
Ca0 Ca1 3.298173 1_455
Ca0 Ca1 3.298173 1_545
Ca0 Ca1 3.299714 1_554
Ca1 Pt0 3.143093 1_655
Ca1 Pt2 3.143094 1_565
Ca1 Pt1 3.143096 1_665
Ca1 Rh0 3.162820 1_655
Ca1 Rh0 3.162820 1_565
Ca1 Rh0 3.162825 1_665
Ca1 Pt0 3.163222 1_556
Ca1 Pt2 3.163222 1_556
Ca1 Pt1 3.163224 1_566
Ca1 Pt1 3.163225 1_656
Ca1 Pt2 3.163227 1_566
Ca1 Pt0 3.163227 1_656
Pt0 Rh0 2.687570 1_555
Pt0 Rh0 2.687570 1_564
Pt0 Pt2 2.698881 1_555
Pt0 Pt2 2.698881 1_465
Pt0 Pt1 2.698882 1_555
Pt0 Pt1 2.698882 1_565
Pt1 Rh0 2.687570 1_555
Pt1 Rh0 2.687570 1_554
Pt1 Pt2 2.698881 1_455
Pt1 Pt2 2.698881 1_555
Pt2 Rh0 2.687570 1_555
Pt2 Rh0 2.687570 1_654
