# generated using pymatgen
data_Sr2FeNi3P4
_symmetry_space_group_name_H-M   'P 1'
_cell_length_a   5.45712200
_cell_length_b   6.31031095
_cell_length_c   5.45176713
_cell_angle_alpha   64.39473423
_cell_angle_beta   90.00792690
_cell_angle_gamma   90.00583021
_symmetry_Int_Tables_number   1
_chemical_formula_structural   Sr2FeNi3P4
_chemical_formula_sum   'Sr2 Fe1 Ni3 P4'
_cell_volume   169.30059525
_cell_formula_units_Z   1
loop_
 _symmetry_equiv_pos_site_id
 _symmetry_equiv_pos_as_xyz
  1  'x, y, z'
loop_
 _atom_site_type_symbol
 _atom_site_label
 _atom_site_symmetry_multiplicity
 _atom_site_fract_x
 _atom_site_fract_y
 _atom_site_fract_z
 _atom_site_occupancy
  Sr  Sr0  1  0.99713520  0.99999533  0.99998684  1
  Sr  Sr1  1  0.50290187  0.00001253  0.49996534  1
  Fe  Fe0  1  0.25001966  0.49971241  0.50010871  1
  Ni  Ni0  1  0.24986620  0.49920641  0.00029116  1
  Ni  Ni1  1  0.75020334  0.50060710  0.99980104  1
  Ni  Ni2  1  0.74991350  0.50060396  0.49979542  1
  P  P0  1  0.49695877  0.69811214  0.15285901  1
  P  P1  1  0.00297336  0.69825583  0.64851605  1
  P  P2  1  0.00234180  0.30171263  0.35161448  1
  P  P3  1  0.49768631  0.30177966  0.84706494  1
loop_
_geom_bond_atom_site_label_1
_geom_bond_atom_site_label_2
_geom_bond_distance
_geom_bond_site_symmetry_2
Fe0 P2 2.217420 1_555
Fe0 P1 2.217801 1_555
Fe0 P0 2.217899 1_555
Fe0 P3 2.218600 1_555
Ni0 P3 2.231370 1_554
Ni0 P2 2.232360 1_555
Ni0 P0 2.233200 1_555
Ni0 P1 2.233488 1_554
Ni1 P0 2.249230 1_556
Ni1 P1 2.249853 1_655
Ni1 P2 2.250813 1_656
Ni1 P3 2.251400 1_555
Ni2 P1 2.234615 1_655
Ni2 P0 2.235715 1_555
Ni2 P3 2.236138 1_555
Ni2 P2 2.236608 1_655
P0 Sr1 3.213617 1_565
P0 Sr0 3.223583 1_454
P0 Sr0 3.225079 1_554
P0 Sr1 3.230920 1_564
P1 Sr0 3.210664 1_454
P1 Sr1 3.223559 1_565
P1 Sr1 3.224357 1_465
P1 Sr0 3.232894 1_455
P2 Sr0 3.209899 1_445
P2 Sr1 3.221135 1_455
P2 Sr1 3.226447 1_555
P2 Sr0 3.233460 1_444
P3 Sr1 3.212845 1_555
P3 Sr0 3.221554 1_545
P3 Sr0 3.226512 1_445
P3 Sr1 3.230813 1_556
