# generated using pymatgen
data_Zn11Cu(Mo3N)4
_symmetry_space_group_name_H-M   'P 1'
_cell_length_a   7.95386391
_cell_length_b   7.95227609
_cell_length_c   7.95385084
_cell_angle_alpha   59.99411741
_cell_angle_beta   60.00072935
_cell_angle_gamma   59.99406150
_symmetry_Int_Tables_number   1
_chemical_formula_structural   Zn11Cu(Mo3N)4
_chemical_formula_sum   'Zn11 Cu1 Mo12 N4'
_cell_volume   355.70964314
_cell_formula_units_Z   1
loop_
 _symmetry_equiv_pos_site_id
 _symmetry_equiv_pos_as_xyz
  1  'x, y, z'
loop_
 _atom_site_type_symbol
 _atom_site_label
 _atom_site_symmetry_multiplicity
 _atom_site_fract_x
 _atom_site_fract_y
 _atom_site_fract_z
 _atom_site_occupancy
  Zn  Zn0  1  0.62493417  0.12519591  0.62493433  1
  Zn  Zn1  1  0.62215433  0.62795953  0.12774122  1
  Zn  Zn2  1  0.12775812  0.62795681  0.62214288  1
  Zn  Zn3  1  0.62215431  0.62795540  0.62214592  1
  Zn  Zn4  1  0.83370759  0.49890165  0.83369632  1
  Zn  Zn5  1  0.41594318  0.41695625  0.75116667  1
  Zn  Zn6  1  0.75116683  0.41695852  0.41593615  1
  Zn  Zn7  1  0.41594580  0.41696222  0.41593367  1
  Zn  Zn8  1  0.49791955  0.83356988  0.83425535  1
  Zn  Zn9  1  0.83426248  0.83356317  0.83425130  1
  Zn  Zn10  1  0.83426467  0.83356502  0.49791728  1
  Cu  Cu0  1  0.41651107  0.75049515  0.41649873  1
  Mo  Mo0  1  0.19157560  0.19176759  0.80832870  1
  Mo  Mo1  1  0.44006851  0.05772050  0.06212255  1
  Mo  Mo2  1  0.05841960  0.44045594  0.44270757  1
  Mo  Mo3  1  0.44270699  0.44047258  0.05841069  1
  Mo  Mo4  1  0.44006874  0.05772224  0.44008762  1
  Mo  Mo5  1  0.05841863  0.44045580  0.05841722  1
  Mo  Mo6  1  0.80832728  0.19175917  0.80834652  1
  Mo  Mo7  1  0.80832697  0.19176001  0.19156763  1
  Mo  Mo8  1  0.19064662  0.80855071  0.81015827  1
  Mo  Mo9  1  0.19064723  0.80855114  0.19064397  1
  Mo  Mo10  1  0.06213047  0.05772708  0.44007069  1
  Mo  Mo11  1  0.81015456  0.80856534  0.19063970  1
  N  N0  1  0.12582441  0.62250652  0.12583446  1
  N  N1  1  0.12489388  0.12397872  0.62622053  1
  N  N2  1  0.62617447  0.12399028  0.12491751  1
  N  N3  1  0.12489395  0.12397886  0.12490656  1
loop_
_geom_bond_atom_site_label_1
_geom_bond_atom_site_label_2
_geom_bond_distance
_geom_bond_site_symmetry_2
Zn0 Zn5 2.440887 1_555
Zn0 Zn7 2.440891 1_555
Zn0 Zn6 2.440907 1_555
Zn0 Zn8 2.443422 1_545
Zn0 Zn9 2.443460 1_545
Zn0 Zn10 2.443461 1_545
Zn1 Zn7 2.430221 1_555
Zn1 Zn6 2.430222 1_555
Zn1 Zn9 2.443791 1_554
Zn1 Zn8 2.443807 1_554
Zn1 Zn4 2.468357 1_554
Zn2 Zn7 2.430199 1_555
Zn2 Zn5 2.430209 1_555
Zn2 Zn9 2.443813 1_455
Zn2 Zn4 2.468386 1_455
Zn3 Zn6 2.430206 1_555
Zn3 Zn5 2.430217 1_555
Zn3 Zn8 2.443818 1_555
Zn3 Zn4 2.468360 1_555
Zn4 Zn9 2.665743 1_555
Zn4 Zn8 2.665863 1_555
Zn5 Zn7 2.666359 1_555
Zn5 Zn6 2.666378 1_555
Zn6 Zn7 2.666298 1_555
Zn8 Zn9 2.675183 1_555
Zn10 Zn3 2.443810 1_555
Zn10 Zn2 2.443819 1_655
Zn10 Zn4 2.665808 1_555
Zn10 Zn9 2.675135 1_555
Zn10 Zn8 2.675243 1_555
Cu0 Zn3 2.405704 1_555
Cu0 Zn2 2.405728 1_555
Cu0 Zn1 2.405742 1_555
Cu0 Mo4 2.644014 1_565
Cu0 Mo1 2.644050 1_565
Cu0 Mo10 2.644092 1_565
Cu0 Zn7 2.656850 1_555
Cu0 Zn6 2.656861 1_555
Cu0 Zn5 2.656919 1_555
Cu0 Mo11 2.869741 1_555
Cu0 Mo9 2.869798 1_555
Cu0 Mo8 2.869799 1_555
Mo0 N1 2.122520 1_555
Mo0 N3 2.122534 1_556
Mo0 Zn8 2.658297 1_545
Mo0 Zn4 2.659595 1_455
Mo0 Zn5 2.858140 1_555
Mo0 Zn7 2.858203 1_555
Mo0 Zn0 2.865038 1_555
Mo0 Zn2 2.887134 1_555
Mo1 N2 2.121596 1_555
Mo1 N3 2.121687 1_555
Mo1 Zn5 2.678522 1_554
Mo1 Zn1 2.840969 1_545
Mo1 Zn8 2.872432 1_544
Mo1 Zn9 2.872603 1_544
Mo1 Zn0 2.889947 1_554
Mo2 N1 2.123826 1_555
Mo2 N0 2.123962 1_555
Mo2 Zn6 2.658862 1_455
Mo2 Zn7 2.658911 1_555
Mo2 Zn4 2.852786 1_455
Mo2 Zn10 2.856519 1_455
Mo2 Zn3 2.881369 1_455
Mo2 Zn2 2.881375 1_555
Mo3 N2 2.123775 1_555
Mo3 N0 2.123989 1_555
Mo3 Zn5 2.658839 1_554
Mo3 Zn7 2.658867 1_555
Mo3 Zn4 2.852820 1_554
Mo3 Zn8 2.856450 1_554
Mo3 Zn1 2.881318 1_555
Mo3 Zn3 2.881354 1_554
Mo4 N2 2.121621 1_555
Mo4 N1 2.121699 1_555
Mo4 Zn7 2.678542 1_555
Mo4 Zn3 2.841010 1_545
Mo4 Zn8 2.872461 1_545
Mo4 Zn10 2.872590 1_545
Mo4 Zn0 2.889898 1_555
Mo5 N3 2.123815 1_555
Mo5 N0 2.123937 1_555
Mo5 Zn6 2.658877 1_455
Mo5 Zn5 2.658899 1_554
Mo5 Zn4 2.852745 1_454
Mo5 Zn9 2.856534 1_454
Mo5 Zn1 2.881361 1_455
Mo5 Zn2 2.881406 1_554
Mo6 N1 2.122513 1_655
Mo6 N2 2.122583 1_556
Mo6 Zn9 2.658307 1_545
Mo6 Zn4 2.659613 1_555
Mo6 Zn5 2.858148 1_555
Mo6 Zn6 2.858264 1_555
Mo6 Zn0 2.865079 1_555
Mo6 Zn3 2.887180 1_555
Mo7 N3 2.122505 1_655
Mo7 N2 2.122561 1_555
Mo7 Zn10 2.658304 1_545
Mo7 Zn4 2.659635 1_554
Mo7 Zn7 2.858161 1_555
Mo7 Zn6 2.858216 1_555
Mo7 Zn0 2.865100 1_555
Mo7 Zn1 2.887191 1_555
Mo8 N1 2.118597 1_565
Mo8 N0 2.124151 1_556
Mo8 Zn8 2.653751 1_555
Mo8 Zn9 2.653756 1_455
Mo8 Zn2 2.857200 1_555
Mo8 Zn3 2.857296 1_555
Mo8 Zn5 2.857977 1_555
Mo9 N3 2.118585 1_565
Mo9 N0 2.124128 1_555
Mo9 Zn10 2.653754 1_455
Mo9 Zn8 2.653777 1_554
Mo9 Zn2 2.857241 1_555
Mo9 Zn1 2.857281 1_555
Mo9 Zn7 2.857974 1_555
Mo10 N1 2.121641 1_555
Mo10 N3 2.121655 1_555
Mo10 Zn6 2.678528 1_455
Mo10 Zn2 2.841022 1_545
Mo10 Zn10 2.872521 1_445
Mo10 Zn9 2.872565 1_445
Mo10 Zn0 2.890014 1_455
Mo11 N2 2.118654 1_565
Mo11 N0 2.124143 1_655
Mo11 Zn10 2.653755 1_555
Mo11 Zn9 2.653784 1_554
Mo11 Zn1 2.857233 1_555
Mo11 Zn3 2.857289 1_555
Mo11 Zn6 2.858052 1_555
