# generated using pymatgen
data_Cs2HfCd3As4
_symmetry_space_group_name_H-M   'P 1'
_cell_length_a   8.29954285
_cell_length_b   8.29954269
_cell_length_c   6.31646408
_cell_angle_alpha   90.00000000
_cell_angle_beta   90.00000000
_cell_angle_gamma   135.23811775
_symmetry_Int_Tables_number   1
_chemical_formula_structural   Cs2HfCd3As4
_chemical_formula_sum   'Cs2 Hf1 Cd3 As4'
_cell_volume   306.37614301
_cell_formula_units_Z   1
loop_
 _symmetry_equiv_pos_site_id
 _symmetry_equiv_pos_as_xyz
  1  'x, y, z'
loop_
 _atom_site_type_symbol
 _atom_site_label
 _atom_site_symmetry_multiplicity
 _atom_site_fract_x
 _atom_site_fract_y
 _atom_site_fract_z
 _atom_site_occupancy
  Cs  Cs0  1  0.50000000  0.00000000  0.26227463  1
  Cs  Cs1  1  0.00000000  0.50000000  0.73772537  1
  Hf  Hf0  1  0.00000000  0.00000000  0.00000000  1
  Cd  Cd0  1  0.50000000  0.50000000  0.50000000  1
  Cd  Cd1  1  0.50000000  0.50000000  0.00000000  1
  Cd  Cd2  1  0.00000000  0.00000000  0.50000000  1
  As  As0  1  0.66263538  0.86640027  0.76519718  1
  As  As1  1  0.13359973  0.33736462  0.23480282  1
  As  As2  1  0.86640027  0.66263538  0.23480282  1
  As  As3  1  0.33736462  0.13359973  0.76519718  1
loop_
_geom_bond_atom_site_label_1
_geom_bond_atom_site_label_2
_geom_bond_distance
_geom_bond_site_symmetry_2
As0 Hf0 2.619183 1_666
As0 Cd1 2.727646 1_556
As0 Cd2 2.732481 1_665
As0 Cd0 2.836615 1_555
As0 Cs1 3.822775 1_665
As0 Cs0 3.877500 1_566
As0 Cs0 3.907456 1_565
As0 Cs1 3.971584 1_555
As1 Hf0 2.619183 1_555
As1 Cd1 2.727646 1_555
As1 Cd2 2.732481 1_555
As1 Cd0 2.836615 1_555
As1 Cs0 3.822775 1_455
As1 Cs1 3.877500 1_554
As1 Cs1 3.907456 1_555
As1 Cs0 3.971583 1_565
As2 Hf0 2.619183 1_665
As2 Cd1 2.727646 1_555
As2 Cd2 2.732481 1_665
As2 Cd0 2.836615 1_555
As2 Cs0 3.822775 1_665
As2 Cs1 3.877500 1_654
As2 Cs1 3.907456 1_655
As2 Cs0 3.971583 1_555
As3 Hf0 2.619183 1_556
As3 Cd1 2.727646 1_556
As3 Cd2 2.732481 1_555
As3 Cd0 2.836615 1_555
As3 Cs1 3.822775 1_545
As3 Cs0 3.877500 1_556
As3 Cs0 3.907456 1_555
As3 Cs1 3.971584 1_655
