# generated using pymatgen
data_Ba16Nb5N19
_symmetry_space_group_name_H-M   'P 1'
_cell_length_a   11.14384300
_cell_length_b   11.60298243
_cell_length_c   14.55015343
_cell_angle_alpha   104.08997316
_cell_angle_beta   101.54227750
_cell_angle_gamma   97.78196080
_symmetry_Int_Tables_number   1
_chemical_formula_structural   Ba16Nb5N19
_chemical_formula_sum   'Ba32 Nb10 N38'
_cell_volume   1753.98221521
_cell_formula_units_Z   2
loop_
 _symmetry_equiv_pos_site_id
 _symmetry_equiv_pos_as_xyz
  1  'x, y, z'
loop_
 _atom_site_type_symbol
 _atom_site_label
 _atom_site_symmetry_multiplicity
 _atom_site_fract_x
 _atom_site_fract_y
 _atom_site_fract_z
 _atom_site_occupancy
  Ba  Ba0  1  0.84680900  0.33797500  0.98729200  1
  Ba  Ba1  1  0.15319100  0.66202500  0.01270800  1
  Ba  Ba2  1  0.89716900  0.81203800  0.13829700  1
  Ba  Ba3  1  0.10283100  0.18796200  0.86170300  1
  Ba  Ba4  1  0.01352800  0.12636400  0.38866500  1
  Ba  Ba5  1  0.98647200  0.87363600  0.61133500  1
  Ba  Ba6  1  0.38311300  0.12406500  0.46153500  1
  Ba  Ba7  1  0.61688700  0.87593500  0.53846500  1
  Ba  Ba8  1  0.50772100  0.23325900  0.92343900  1
  Ba  Ba9  1  0.49227900  0.76674100  0.07656100  1
  Ba  Ba10  1  0.34015800  0.00123400  0.69121400  1
  Ba  Ba11  1  0.65984200  0.99876600  0.30878600  1
  Ba  Ba12  1  0.11412500  0.84144300  0.38746100  1
  Ba  Ba13  1  0.88587500  0.15855700  0.61253900  1
  Ba  Ba14  1  0.62923200  0.30793600  0.72074100  1
  Ba  Ba15  1  0.37076800  0.69206400  0.27925900  1
  Ba  Ba16  1  0.21920700  0.38086500  0.35872300  1
  Ba  Ba17  1  0.78079300  0.61913500  0.64127700  1
  Ba  Ba18  1  0.91447200  0.51423600  0.39580600  1
  Ba  Ba19  1  0.08552800  0.48576400  0.60419400  1
  Ba  Ba20  1  0.37052100  0.49010700  0.86631000  1
  Ba  Ba21  1  0.62947900  0.50989300  0.13369000  1
  Ba  Ba22  1  0.68433000  0.00431400  0.00932700  1
  Ba  Ba23  1  0.31567000  0.99568600  0.99067300  1
  Ba  Ba24  1  0.04638500  0.15167000  0.11759400  1
  Ba  Ba25  1  0.95361500  0.84833000  0.88240600  1
  Ba  Ba26  1  0.53120600  0.77500900  0.78462800  1
  Ba  Ba27  1  0.46879400  0.22499100  0.21537200  1
  Ba  Ba28  1  0.43854200  0.46941000  0.60995000  1
  Ba  Ba29  1  0.56145800  0.53059000  0.39005000  1
  Ba  Ba30  1  0.04629300  0.53991500  0.20123000  1
  Ba  Ba31  1  0.95370700  0.46008500  0.79877000  1
  Nb  Nb0  1  0.79580500  0.23857000  0.22091100  1
  Nb  Nb1  1  0.20419500  0.76143000  0.77908900  1
  Nb  Nb2  1  0.31524200  0.71008700  0.52704700  1
  Nb  Nb3  1  0.68475800  0.28991300  0.47295300  1
  Nb  Nb4  1  0.71602100  0.59663000  0.91534900  1
  Nb  Nb5  1  0.28397900  0.40337000  0.08465100  1
  Nb  Nb6  1  0.21576600  0.24605100  0.64519900  1
  Nb  Nb7  1  0.78423400  0.75394900  0.35480100  1
  Nb  Nb8  1  0.77183200  0.05959900  0.80603700  1
  Nb  Nb9  1  0.22816800  0.94040100  0.19396300  1
  N  N0  1  0.28076800  0.72378400  0.66162000  1
  N  N1  1  0.71923200  0.27621600  0.33838000  1
  N  N2  1  0.81917400  0.07149600  0.19266300  1
  N  N3  1  0.18082600  0.92850400  0.80733700  1
  N  N4  1  0.96475900  0.33605100  0.25055500  1
  N  N5  1  0.03524100  0.66394900  0.74944500  1
  N  N6  1  0.67441800  0.25327600  0.10559200  1
  N  N7  1  0.32558200  0.74672400  0.89440800  1
  N  N8  1  0.35166400  0.87070600  0.50999600  1
  N  N9  1  0.64833600  0.12929400  0.49000400  1
  N  N10  1  0.17271700  0.61243100  0.41756800  1
  N  N11  1  0.82728300  0.38756900  0.58243200  1
  N  N12  1  0.47389500  0.65325200  0.52825900  1
  N  N13  1  0.52610500  0.34674800  0.47174100  1
  N  N14  1  0.89748800  0.60651300  0.96103000  1
  N  N15  1  0.10251200  0.39348700  0.03897000  1
  N  N16  1  0.65367200  0.57241400  0.77171500  1
  N  N17  1  0.34632800  0.42758600  0.22828500  1
  N  N18  1  0.63154700  0.45021300  0.94207300  1
  N  N19  1  0.36845300  0.54978700  0.05792700  1
  N  N20  1  0.67959800  0.75186500  0.98698900  1
  N  N21  1  0.32040200  0.24813500  0.01301100  1
  N  N22  1  0.20983800  0.31394600  0.53088900  1
  N  N23  1  0.79016200  0.68605400  0.46911100  1
  N  N24  1  0.86364500  0.65039600  0.26337300  1
  N  N25  1  0.13635500  0.34960400  0.73662700  1
  N  N26  1  0.39050800  0.25374300  0.71239600  1
  N  N27  1  0.60949200  0.74625700  0.28760400  1
  N  N28  1  0.12481600  0.07874200  0.59975700  1
  N  N29  1  0.87518400  0.92125800  0.40024300  1
  N  N30  1  0.17104500  0.77709600  0.21017000  1
  N  N31  1  0.82895500  0.22290400  0.78983000  1
  N  N32  1  0.59597100  0.02989300  0.81627700  1
  N  N33  1  0.40402900  0.97010700  0.18372300  1
  N  N34  1  0.87406500  0.06685500  0.93607600  1
  N  N35  1  0.12593500  0.93314500  0.06392400  1
  N  N36  1  0.18929800  0.07026300  0.29461800  1
  N  N37  1  0.81070200  0.92973700  0.70538200  1
loop_
_geom_bond_atom_site_label_1
_geom_bond_atom_site_label_2
_geom_bond_distance
_geom_bond_site_symmetry_2
Ba0 N15 2.740385 1_656
Ba0 N31 2.812211 1_555
Ba0 N18 2.918031 1_555
Ba0 N6 3.042188 1_556
Ba0 N34 3.122752 1_555
Ba0 N14 3.219154 1_555
Ba1 N14 2.740385 1_454
Ba1 N30 2.812211 1_555
Ba1 N19 2.918031 1_555
Ba1 N7 3.042188 1_554
Ba1 N35 3.122752 1_555
Ba1 N15 3.219154 1_555
Ba2 N20 2.805344 1_554
Ba2 N24 2.951833 1_555
Ba2 N14 3.057879 1_554
Ba2 N30 3.136424 1_655
Ba2 N2 3.204445 1_565
Ba2 N35 3.243295 1_655
Ba3 N21 2.805344 1_556
Ba3 N25 2.951833 1_555
Ba3 N15 3.057879 1_556
Ba3 N31 3.136424 1_455
Ba3 N3 3.204445 1_545
Ba3 N34 3.243295 1_455
Ba4 N36 2.667803 1_555
Ba4 N29 2.715578 1_445
Ba4 N22 2.917410 1_555
Ba4 N2 3.082225 1_455
Ba4 N28 3.280936 1_555
Ba5 N37 2.667803 1_555
Ba5 N28 2.715578 1_665
Ba5 N23 2.917410 1_555
Ba5 N3 3.082225 1_655
Ba5 N29 3.280936 1_555
Ba6 N36 2.783984 1_555
Ba6 N13 2.800126 1_555
Ba6 N9 2.891387 1_555
Ba6 N8 3.176649 1_545
Ba6 N22 3.232687 1_555
Ba7 N37 2.783984 1_555
Ba7 N12 2.800126 1_555
Ba7 N8 2.891387 1_555
Ba7 N9 3.176649 1_565
Ba7 N23 3.232687 1_555
Ba8 N18 2.625220 1_555
Ba8 N21 2.676298 1_556
Ba8 N6 2.853481 1_556
Ba8 N32 2.901205 1_555
Ba8 N26 3.166419 1_555
Ba9 N19 2.625220 1_555
Ba9 N20 2.676298 1_554
Ba9 N7 2.853481 1_554
Ba9 N33 2.901205 1_555
Ba9 N27 3.166419 1_555
Ba10 N8 2.739741 1_545
Ba10 N26 2.835460 1_555
Ba10 N3 2.865061 1_545
Ba10 N28 2.868365 1_555
Ba10 N32 2.986854 1_555
Ba10 N0 3.101779 1_545
Ba11 N9 2.739741 1_565
Ba11 N27 2.835460 1_555
Ba11 N2 2.865061 1_565
Ba11 N29 2.868365 1_555
Ba11 N33 2.986854 1_555
Ba11 N1 3.101779 1_565
Ba12 N30 2.731207 1_555
Ba12 N8 2.806126 1_555
Ba12 N10 2.932780 1_555
Ba12 N29 2.960477 1_455
Ba12 N24 3.213092 1_455
Ba12 N36 3.342524 1_565
Ba13 N31 2.731207 1_555
Ba13 N9 2.806126 1_555
Ba13 N11 2.932780 1_555
Ba13 N28 2.960477 1_655
Ba13 N25 3.213092 1_655
Ba13 N37 3.342524 1_545
Ba14 N26 2.620668 1_555
Ba14 N31 2.668303 1_555
Ba14 N16 2.937013 1_555
Ba14 N18 3.234768 1_555
Ba15 N27 2.620668 1_555
Ba15 N30 2.668303 1_555
Ba15 N17 2.937013 1_555
Ba15 N19 3.234768 1_555
Ba16 N17 2.696585 1_555
Ba16 N10 2.766780 1_555
Ba16 N22 2.814031 1_555
Ba16 N4 2.864262 1_455
Ba16 N36 3.447154 1_555
Ba17 N16 2.696585 1_555
Ba17 N11 2.766780 1_555
Ba17 N23 2.814031 1_555
Ba17 N5 2.864262 1_655
Ba17 N37 3.447154 1_555
Ba18 N23 2.708317 1_555
Ba18 N4 2.777647 1_555
Ba18 N24 2.795996 1_555
Ba18 N10 2.872647 1_655
Ba18 N1 3.095298 1_555
Ba19 N22 2.708317 1_555
Ba19 N5 2.777647 1_555
Ba19 N25 2.795996 1_555
Ba19 N11 2.872647 1_455
Ba19 N0 3.095298 1_555
Ba20 N19 2.709857 1_556
Ba20 N25 2.899557 1_555
Ba20 N7 3.029294 1_555
Ba20 N18 3.036551 1_555
Ba20 N26 3.156096 1_555
Ba21 N18 2.709857 1_554
Ba21 N24 2.899557 1_555
Ba21 N6 3.029294 1_555
Ba21 N19 3.036551 1_555
Ba21 N27 3.156096 1_555
Ba22 N34 2.644999 1_554
Ba22 N2 2.654773 1_555
Ba22 N20 2.859402 1_544
Ba22 N32 2.885448 1_554
Ba22 N6 2.914958 1_555
Ba23 N35 2.644999 1_556
Ba23 N3 2.654773 1_555
Ba23 N21 2.859402 1_566
Ba23 N33 2.885448 1_556
Ba23 N7 2.914958 1_555
Ba24 N35 2.783225 1_545
Ba24 N34 2.797257 1_454
Ba24 N4 2.891899 1_455
Ba24 N2 3.071331 1_455
Ba24 N36 3.164381 1_555
Ba24 N15 3.308527 1_555
Ba25 N34 2.783225 1_565
Ba25 N35 2.797257 1_656
Ba25 N5 2.891899 1_655
Ba25 N3 3.071331 1_655
Ba25 N37 3.164381 1_555
Ba25 N14 3.308527 1_555
Ba26 N32 2.846952 1_565
Ba26 N16 2.860068 1_555
Ba26 N0 2.894708 1_555
Ba26 N7 3.070203 1_555
Ba26 N20 3.167466 1_555
Ba27 N33 2.846952 1_545
Ba27 N17 2.860068 1_555
Ba27 N1 2.894708 1_555
Ba27 N6 3.070203 1_555
Ba27 N21 3.167466 1_555
Ba28 N13 2.605685 1_555
Ba28 N12 2.704165 1_555
Ba28 N22 2.764806 1_555
Ba28 N16 2.883062 1_555
Ba28 N26 3.247004 1_555
Ba29 N12 2.605685 1_555
Ba29 N13 2.704165 1_555
Ba29 N23 2.764806 1_555
Ba29 N17 2.883062 1_555
Ba29 N27 3.247004 1_555
Ba30 N4 2.727890 1_455
Ba30 N24 2.735404 1_455
Ba30 N15 2.789290 1_555
Ba30 N30 2.870614 1_555
Ba30 N10 3.035770 1_555
Ba31 N5 2.727890 1_655
Ba31 N25 2.735404 1_655
Ba31 N14 2.789290 1_555
Ba31 N31 2.870614 1_555
Ba31 N11 3.035770 1_555
N0 Nb1 2.039946 1_555
N0 Nb2 2.042765 1_555
N1 Nb0 2.039946 1_555
N1 Nb3 2.042765 1_555
N2 Nb0 1.945857 1_555
N3 Nb1 1.945857 1_555
N4 Nb0 1.967501 1_555
N5 Nb1 1.967501 1_555
N6 Nb0 1.991969 1_555
N7 Nb1 1.991969 1_555
N8 Nb2 1.939095 1_555
N9 Nb3 1.939095 1_555
N10 Nb2 1.991314 1_555
N11 Nb3 1.991314 1_555
N12 Nb2 1.967220 1_555
N13 Nb3 1.967220 1_555
N14 Nb4 1.976508 1_555
N15 Nb5 1.976508 1_555
N16 Nb4 2.002374 1_555
N17 Nb5 2.002374 1_555
N18 Nb4 1.989613 1_555
N19 Nb5 1.989613 1_555
N20 Nb4 1.987140 1_555
N21 Nb5 1.987140 1_555
N22 Nb6 1.999844 1_555
N23 Nb7 1.999844 1_555
N24 Nb7 1.994311 1_555
N25 Nb6 1.994311 1_555
N26 Nb6 1.975959 1_555
N27 Nb7 1.975959 1_555
N28 Nb6 1.951165 1_555
N29 Nb7 1.951165 1_555
N30 Nb9 2.000544 1_555
N31 Nb8 2.000544 1_555
N32 Nb8 1.985099 1_555
N33 Nb9 1.985099 1_555
N34 Nb8 1.979609 1_555
N35 Nb9 1.979609 1_555
N36 Nb9 1.989748 1_545
N37 Nb8 1.989748 1_565
