# generated using pymatgen
data_Ti6CrSi6Tc5
_symmetry_space_group_name_H-M   'P 1'
_cell_length_a   7.48804798
_cell_length_b   7.48800805
_cell_length_c   7.48800709
_cell_angle_alpha   126.46683193
_cell_angle_beta   129.03370647
_cell_angle_gamma   77.04786193
_symmetry_Int_Tables_number   1
_chemical_formula_structural   Ti6CrSi6Tc5
_chemical_formula_sum   'Ti6 Cr1 Si6 Tc5'
_cell_volume   254.58594189
_cell_formula_units_Z   1
loop_
 _symmetry_equiv_pos_site_id
 _symmetry_equiv_pos_as_xyz
  1  'x, y, z'
loop_
 _atom_site_type_symbol
 _atom_site_label
 _atom_site_symmetry_multiplicity
 _atom_site_fract_x
 _atom_site_fract_y
 _atom_site_fract_z
 _atom_site_occupancy
  Ti  Ti0  1  0.45092839  0.40582571  0.45326279  1
  Ti  Ti1  1  0.54907161  0.00233440  0.95489732  1
  Ti  Ti2  1  0.04740132  0.00228686  0.45327596  1
  Ti  Ti3  1  0.95259868  0.40587363  0.95488553  1
  Ti  Ti4  1  0.24997886  0.60188505  0.85182421  1
  Ti  Ti5  1  0.75002114  0.60184634  0.35190619  1
  Cr  Cr0  1  0.50000000  0.26578440  0.76578440  1
  Si  Si0  1  0.16633691  0.66923197  0.50297346  1
  Si  Si1  1  0.83366309  0.33663555  0.50289606  1
  Si  Si2  1  0.66575381  0.66692389  0.00114829  1
  Si  Si3  1  0.33424619  0.33539348  0.00117107  1
  Si  Si4  1  0.25092118  0.00471883  0.25565065  1
  Si  Si5  1  0.74907882  0.00473047  0.75379965  1
  Tc  Tc0  1  0.36960306  0.74351253  0.37391473  1
  Tc  Tc1  1  0.63039694  0.00431267  0.37390947  1
  Tc  Tc2  1  0.86986591  0.74236020  0.87251582  1
  Tc  Tc3  1  0.13013409  0.00264991  0.87249529  1
  Tc  Tc4  1  0.00000000  0.26369012  0.26369012  1
loop_
_geom_bond_atom_site_label_1
_geom_bond_atom_site_label_2
_geom_bond_distance
_geom_bond_site_symmetry_2
Cr0 Si5 2.382391 1_555
Cr0 Si4 2.382396 1_555
Cr0 Si2 2.508428 1_556
Cr0 Si3 2.508437 1_556
Cr0 Ti4 2.780947 1_555
Cr0 Ti5 2.780948 1_556
Cr0 Ti0 2.893487 1_555
Cr0 Ti1 2.893487 1_555
Cr0 Ti3 2.893922 1_555
Cr0 Ti2 2.893925 1_555
Si0 Tc3 2.528329 1_565
Si0 Tc4 2.529832 1_555
Si0 Tc0 2.535969 1_555
Si0 Ti0 2.610053 1_555
Si0 Ti3 2.610495 1_454
Si0 Ti4 2.614149 1_555
Si0 Ti5 2.614825 1_455
Si0 Ti2 2.615606 1_565
Si0 Ti1 2.615690 1_565
Si1 Tc2 2.528327 1_555
Si1 Tc4 2.529840 1_655
Si1 Tc1 2.535951 1_555
Si1 Ti1 2.610055 1_554
Si1 Ti2 2.610489 1_655
Si1 Ti5 2.614170 1_555
Si1 Ti4 2.614832 1_655
Si1 Ti3 2.615598 1_555
Si1 Ti0 2.615687 1_555
Si2 Tc2 2.543792 1_554
Si2 Tc1 2.547971 1_565
Si2 Ti0 2.608443 1_554
Si2 Ti3 2.608576 1_554
Si2 Ti4 2.613043 1_554
Si2 Ti5 2.613451 1_555
Si2 Ti2 2.619053 1_665
Si2 Ti1 2.619235 1_564
Si3 Tc3 2.543785 1_554
Si3 Tc0 2.547971 1_555
Si3 Ti1 2.608437 1_554
Si3 Ti2 2.608574 1_554
Si3 Ti5 2.613051 1_555
Si3 Ti4 2.613469 1_554
Si3 Ti3 2.619050 1_454
Si3 Ti0 2.619224 1_555
Si4 Tc4 2.380071 1_555
Si4 Tc0 2.384973 1_545
Si4 Tc1 2.385047 1_555
Si4 Tc2 2.394596 1_444
Si4 Tc3 2.394745 1_554
Si4 Ti4 2.717110 1_544
Si4 Ti0 2.719485 1_555
Si4 Ti2 2.719869 1_555
Si5 Tc4 2.380061 1_656
Si5 Tc1 2.384987 1_555
Si5 Tc0 2.385049 1_545
Si5 Tc3 2.394598 1_655
Si5 Tc2 2.394750 1_545
Si5 Ti5 2.717117 1_545
Si5 Ti1 2.719474 1_555
Si5 Ti3 2.719863 1_555
Tc0 Ti3 2.784934 1_454
Tc0 Ti0 2.785247 1_555
Tc0 Ti1 2.875640 1_565
Tc0 Ti2 2.875789 1_565
Tc0 Ti5 2.880245 1_555
Tc0 Ti4 2.880497 1_554
Tc1 Ti2 2.784929 1_655
Tc1 Ti1 2.785242 1_554
Tc1 Ti0 2.875634 1_555
Tc1 Ti3 2.875784 1_555
Tc1 Ti4 2.880249 1_544
Tc1 Ti5 2.880498 1_545
Tc2 Ti3 2.789087 1_555
Tc2 Ti0 2.789625 1_555
Tc2 Ti5 2.872365 1_555
Tc2 Ti4 2.872546 1_655
Tc2 Ti1 2.878028 1_565
Tc2 Ti2 2.878157 1_666
Tc3 Ti2 2.789086 1_555
Tc3 Ti1 2.789629 1_555
Tc3 Ti4 2.872360 1_545
Tc3 Ti5 2.872543 1_445
Tc3 Ti0 2.878026 1_556
Tc3 Ti3 2.878152 1_455
Tc4 Ti4 2.792168 1_555
Tc4 Ti5 2.792172 1_455
Tc4 Ti0 2.885637 1_555
Tc4 Ti1 2.885637 1_454
Tc4 Ti3 2.886117 1_454
Tc4 Ti2 2.886123 1_555
