# generated using pymatgen
data_Cs4SbOsCl12
_symmetry_space_group_name_H-M   'P 1'
_cell_length_a   7.41487262
_cell_length_b   7.41472645
_cell_length_c   10.28416421
_cell_angle_alpha   90.00000000
_cell_angle_beta   90.00000000
_cell_angle_gamma   89.99725655
_symmetry_Int_Tables_number   1
_chemical_formula_structural   Cs4SbOsCl12
_chemical_formula_sum   'Cs4 Sb1 Os1 Cl12'
_cell_volume   565.41565672
_cell_formula_units_Z   1
loop_
 _symmetry_equiv_pos_site_id
 _symmetry_equiv_pos_as_xyz
  1  'x, y, z'
loop_
 _atom_site_type_symbol
 _atom_site_label
 _atom_site_symmetry_multiplicity
 _atom_site_fract_x
 _atom_site_fract_y
 _atom_site_fract_z
 _atom_site_occupancy
  Cs  Cs0  1  0.50000000  0.00000000  0.75395144  1
  Cs  Cs1  1  0.00000000  0.50000000  0.24604732  1
  Cs  Cs2  1  0.50000000  0.00000000  0.24604856  1
  Cs  Cs3  1  0.00000000  0.50000000  0.75395268  1
  Sb  Sb0  1  0.50000000  0.50000000  0.50000000  1
  Os  Os0  1  0.00000000  0.00000000  0.00000000  1
  Cl  Cl0  1  0.00000000  0.00000000  0.77408892  1
  Cl  Cl1  1  0.50000000  0.50000000  0.25360229  1
  Cl  Cl2  1  0.74198407  0.74198318  0.50000000  1
  Cl  Cl3  1  0.22508258  0.22508388  0.00000000  1
  Cl  Cl4  1  0.74202241  0.25797816  0.50000000  1
  Cl  Cl5  1  0.22508843  0.77491818  0.00000000  1
  Cl  Cl6  1  0.00000000  0.00000000  0.22591108  1
  Cl  Cl7  1  0.50000000  0.50000000  0.74639771  1
  Cl  Cl8  1  0.25801593  0.25801682  0.50000000  1
  Cl  Cl9  1  0.77491742  0.77491612  0.00000000  1
  Cl  Cl10  1  0.25797759  0.74202184  0.50000000  1
  Cl  Cl11  1  0.77491157  0.22508182  0.00000000  1
loop_
_geom_bond_atom_site_label_1
_geom_bond_atom_site_label_2
_geom_bond_distance
_geom_bond_site_symmetry_2
Cl0 Os0 2.323307 1_556
Cl0 Cs3 3.713142 1_545
Cl0 Cs3 3.713142 1_555
Cl0 Cs0 3.713216 1_455
Cl0 Cs0 3.713216 1_555
Cl1 Sb0 2.533995 1_555
Cl1 Cs2 3.708177 1_565
Cl1 Cs2 3.708177 1_555
Cl1 Cs1 3.708250 1_655
Cl1 Cs1 3.708250 1_555
Cl2 Sb0 2.537528 1_555
Cl2 Cs0 3.701354 1_565
Cl2 Cs2 3.701354 1_565
Cl2 Cs3 3.701359 1_655
Cl2 Cs1 3.701359 1_655
Cl3 Os0 2.360304 1_555
Cl3 Cs1 3.652830 1_555
Cl3 Cs3 3.652830 1_554
Cl3 Cs2 3.652856 1_555
Cl3 Cs0 3.652856 1_554
Cl4 Sb0 2.537810 1_555
Cl4 Cs0 3.701433 1_555
Cl4 Cs2 3.701433 1_555
Cl4 Cs3 3.701440 1_655
Cl4 Cs1 3.701440 1_655
Cl5 Os0 2.360211 1_565
Cl5 Cs2 3.652914 1_565
Cl5 Cs0 3.652914 1_564
Cl5 Cs1 3.652947 1_555
Cl5 Cs3 3.652947 1_554
Cl6 Os0 2.323307 1_555
Cl6 Cs1 3.713142 1_555
Cl6 Cs1 3.713142 1_545
Cl6 Cs2 3.713216 1_455
Cl6 Cs2 3.713216 1_555
Cl7 Sb0 2.533995 1_555
Cl7 Cs0 3.708177 1_565
Cl7 Cs0 3.708177 1_555
Cl7 Cs3 3.708250 1_555
Cl7 Cs3 3.708250 1_655
Cl8 Sb0 2.537528 1_555
Cl8 Cs0 3.701354 1_555
Cl8 Cs2 3.701354 1_555
Cl8 Cs3 3.701359 1_555
Cl8 Cs1 3.701359 1_555
Cl9 Os0 2.360304 1_665
Cl9 Cs1 3.652830 1_655
Cl9 Cs3 3.652830 1_654
Cl9 Cs2 3.652856 1_565
Cl9 Cs0 3.652856 1_564
Cl10 Sb0 2.537810 1_555
Cl10 Cs0 3.701433 1_565
Cl10 Cs2 3.701433 1_565
Cl10 Cs3 3.701440 1_555
Cl10 Cs1 3.701440 1_555
Cl11 Os0 2.360211 1_655
Cl11 Cs2 3.652914 1_555
Cl11 Cs0 3.652914 1_554
Cl11 Cs1 3.652947 1_655
Cl11 Cs3 3.652947 1_654
