# generated using pymatgen
data_Sc6NiCl10
_symmetry_space_group_name_H-M   'P 1'
_cell_length_a   6.54772102
_cell_length_b   8.21476397
_cell_length_c   8.25703218
_cell_angle_alpha   107.76978849
_cell_angle_beta   96.72000388
_cell_angle_gamma   104.76123813
_symmetry_Int_Tables_number   1
_chemical_formula_structural   Sc6NiCl10
_chemical_formula_sum   'Sc6 Ni1 Cl10'
_cell_volume   399.72767285
_cell_formula_units_Z   1
loop_
 _symmetry_equiv_pos_site_id
 _symmetry_equiv_pos_as_xyz
  1  'x, y, z'
loop_
 _atom_site_type_symbol
 _atom_site_label
 _atom_site_symmetry_multiplicity
 _atom_site_fract_x
 _atom_site_fract_y
 _atom_site_fract_z
 _atom_site_occupancy
  Sc  Sc0  1  0.87285457  0.95278787  0.25008966  1
  Sc  Sc1  1  0.12714543  0.04721213  0.74991034  1
  Sc  Sc2  1  0.03437246  0.69911701  0.90650689  1
  Sc  Sc3  1  0.96562754  0.30088299  0.09349311  1
  Sc  Sc4  1  0.63822542  0.86362064  0.81965538  1
  Sc  Sc5  1  0.36177458  0.13637936  0.18034462  1
  Ni  Ni0  1  0.00000000  0.00000000  0.00000000  1
  Cl  Cl0  1  0.65733483  0.55104290  0.72643913  1
  Cl  Cl1  1  0.34266517  0.44895710  0.27356087  1
  Cl  Cl2  1  0.74953530  0.91781238  0.54402498  1
  Cl  Cl3  1  0.25046470  0.08218762  0.45597502  1
  Cl  Cl4  1  0.91073342  0.62945089  0.17249333  1
  Cl  Cl5  1  0.08926658  0.37054911  0.82750667  1
  Cl  Cl6  1  0.54541546  0.17797711  0.91350460  1
  Cl  Cl7  1  0.45458454  0.82202289  0.08649540  1
  Cl  Cl8  1  0.21819838  0.74473525  0.65369009  1
  Cl  Cl9  1  0.78180162  0.25526475  0.34630991  1
loop_
_geom_bond_atom_site_label_1
_geom_bond_atom_site_label_2
_geom_bond_distance
_geom_bond_site_symmetry_2
Ni0 Sc0 2.415443 1_445
Ni0 Sc1 2.415443 1_554
Ni0 Sc5 2.426439 1_555
Ni0 Sc4 2.426439 1_444
Ni0 Sc3 2.432135 1_455
Ni0 Sc2 2.432135 1_544
Cl0 Sc4 2.486230 1_555
Cl0 Sc2 2.508327 1_655
Cl1 Sc5 2.486230 1_555
Cl1 Sc3 2.508327 1_455
Cl2 Sc1 2.589810 1_665
Cl2 Sc4 2.598138 1_555
Cl2 Sc0 2.718657 1_555
Cl3 Sc0 2.589810 1_445
Cl3 Sc5 2.598138 1_555
Cl3 Sc1 2.718657 1_555
Cl4 Sc2 2.598781 1_654
Cl4 Sc0 2.619392 1_555
Cl4 Sc3 2.704523 1_555
Cl5 Sc3 2.598781 1_456
Cl5 Sc1 2.619392 1_555
Cl5 Sc2 2.704523 1_555
Cl6 Sc1 2.688584 1_555
Cl6 Sc5 2.699515 1_556
Cl6 Sc4 2.706812 1_545
Cl6 Sc3 2.740434 1_556
Cl7 Sc0 2.688584 1_555
Cl7 Sc4 2.699515 1_554
Cl7 Sc5 2.706812 1_565
Cl7 Sc2 2.740434 1_554
Cl8 Sc2 2.604341 1_555
Cl8 Sc1 2.611807 1_565
Cl8 Sc4 2.706990 1_555
Cl9 Sc3 2.604341 1_555
Cl9 Sc0 2.611807 1_545
Cl9 Sc5 2.706990 1_555
