# generated using pymatgen
data_Ti8Al14AsRh7
_symmetry_space_group_name_H-M   'P 1'
_cell_length_a   8.58599218
_cell_length_b   8.58599272
_cell_length_c   8.58599183
_cell_angle_alpha   119.97105990
_cell_angle_beta   119.92099684
_cell_angle_gamma   90.09351452
_symmetry_Int_Tables_number   1
_chemical_formula_structural   Ti8Al14AsRh7
_chemical_formula_sum   'Ti8 Al14 As1 Rh7'
_cell_volume   447.92972638
_cell_formula_units_Z   1
loop_
 _symmetry_equiv_pos_site_id
 _symmetry_equiv_pos_as_xyz
  1  'x, y, z'
loop_
 _atom_site_type_symbol
 _atom_site_label
 _atom_site_symmetry_multiplicity
 _atom_site_fract_x
 _atom_site_fract_y
 _atom_site_fract_z
 _atom_site_occupancy
  Ti  Ti0  1  0.79702382  0.29536187  0.08559061  1
  Ti  Ti1  1  0.20977026  0.29536187  0.49833806  1
  Ti  Ti2  1  0.20467407  0.70467407  0.50000000  1
  Ti  Ti3  1  0.20977026  0.71143221  0.91440939  1
  Ti  Ti4  1  0.79702382  0.71143221  0.50166194  1
  Ti  Ti5  1  0.79095706  0.29095706  0.50000000  1
  Ti  Ti6  1  0.38022129  0.12267216  0.74245087  1
  Ti  Ti7  1  0.38022129  0.63777142  0.25754913  1
  Al  Al0  1  0.15981969  0.33731147  0.17749077  1
  Al  Al1  1  0.15981969  0.98232992  0.82250923  1
  Al  Al2  1  0.15577784  0.33925789  0.81651995  1
  Al  Al3  1  0.52273694  0.33925789  0.18348005  1
  Al  Al4  1  0.83860087  0.65963547  0.82103560  1
  Al  Al5  1  0.83860087  0.01756527  0.17896440  1
  Al  Al6  1  0.83735415  0.66100491  0.17634924  1
  Al  Al7  1  0.48465566  0.66100491  0.82365076  1
  Al  Al8  1  0.38062141  0.11976634  0.26085607  1
  Al  Al9  1  0.85891127  0.11976634  0.73914393  1
  Al  Al10  1  0.62037400  0.87991418  0.25954017  1
  Al  Al11  1  0.62037400  0.36083383  0.74045983  1
  Al  Al12  1  0.62138896  0.87936165  0.74202731  1
  Al  Al13  1  0.13733334  0.87936165  0.25797269  1
  As  As0  1  0.99823561  0.49823561  0.50000000  1
  Rh  Rh0  1  0.00177916  0.99984855  0.50151490  1
  Rh  Rh1  1  0.49833365  0.99984855  0.99806938  1
  Rh  Rh2  1  0.49758297  0.49758297  1.00000000  1
  Rh  Rh3  1  0.49833365  0.50026426  0.49848510  1
  Rh  Rh4  1  0.00177916  0.50026426  0.00193062  1
  Rh  Rh5  1  0.00007934  0.00007934  0.00000000  1
  Rh  Rh6  1  0.49783991  0.99783991  0.50000000  1
loop_
_geom_bond_atom_site_label_1
_geom_bond_atom_site_label_2
_geom_bond_distance
_geom_bond_site_symmetry_2
Al0 Rh5 2.465865 1_555
Al0 Rh4 2.478654 1_555
Al0 Rh3 2.478662 1_555
Al1 Rh5 2.465860 1_566
Al1 Rh0 2.478656 1_555
Al1 Rh1 2.478664 1_555
Al2 Rh4 2.469951 1_556
Al2 Rh0 2.469951 1_545
Al2 Rh2 2.485451 1_555
Al3 Rh3 2.469946 1_555
Al3 Rh1 2.469953 1_544
Al3 Rh2 2.485453 1_554
Al4 Rh5 2.490267 1_666
Al4 Rh4 2.491282 1_656
Al4 Rh3 2.491290 1_555
Al5 Rh5 2.490260 1_655
Al5 Rh0 2.491290 1_645
Al5 Rh1 2.491290 1_544
Al6 Rh4 2.488159 1_655
Al6 Rh0 2.488159 1_655
Al6 Rh2 2.495847 1_554
Al7 Rh3 2.488159 1_555
Al7 Rh1 2.488159 1_555
Al7 Rh2 2.495847 1_555
Al8 Rh6 2.532650 1_545
Al8 Rh3 2.670133 1_555
Al8 Rh1 2.670139 1_544
Al8 Rh5 2.671488 1_555
Al9 Rh6 2.532657 1_545
Al9 Rh0 2.670125 1_645
Al9 Rh4 2.670132 1_656
Al9 Rh5 2.671494 1_656
Al10 Rh6 2.544870 1_555
Al10 Rh0 2.676723 1_655
Al10 Rh1 2.676724 1_554
Al10 Rh2 2.681334 1_554
Al11 Rh6 2.544870 1_545
Al11 Rh4 2.676723 1_656
Al11 Rh3 2.676724 1_555
Al11 Rh2 2.681334 1_555
Al12 Rh6 2.528798 1_555
Al12 Rh5 2.657595 1_666
Al12 Rh1 2.658540 1_555
Al12 Rh3 2.658540 1_555
Al13 Rh6 2.528805 1_555
Al13 Rh5 2.657595 1_565
Al13 Rh0 2.658532 1_555
Al13 Rh4 2.658540 1_555
As0 Ti2 2.504617 1_655
As0 Ti5 2.514810 1_555
As0 Ti1 2.518805 1_655
As0 Ti4 2.518805 1_555
As0 Ti3 2.518811 1_655
As0 Ti0 2.518811 1_555
Rh0 Ti6 2.655742 1_565
Rh1 Ti6 2.655742 1_565
Rh2 Ti6 2.630905 1_555
Rh2 Ti7 2.630905 1_556
Rh3 Ti7 2.655749 1_555
Rh4 Ti7 2.655742 1_555
Rh6 Ti7 2.524581 1_555
Rh6 Ti6 2.524588 1_565
