# generated using pymatgen
data_Ti13Al9FeRh7
_symmetry_space_group_name_H-M   'P 1'
_cell_length_a   8.67553263
_cell_length_b   8.67553320
_cell_length_c   8.67553339
_cell_angle_alpha   59.74092693
_cell_angle_beta   59.74092000
_cell_angle_gamma   59.74093410
_symmetry_Int_Tables_number   1
_chemical_formula_structural   Ti13Al9FeRh7
_chemical_formula_sum   'Ti13 Al9 Fe1 Rh7'
_cell_volume   458.99807890
_cell_formula_units_Z   1
loop_
 _symmetry_equiv_pos_site_id
 _symmetry_equiv_pos_as_xyz
  1  'x, y, z'
loop_
 _atom_site_type_symbol
 _atom_site_label
 _atom_site_symmetry_multiplicity
 _atom_site_fract_x
 _atom_site_fract_y
 _atom_site_fract_z
 _atom_site_occupancy
  Ti  Ti0  1  0.20461493  0.20461493  0.79498684  1
  Ti  Ti1  1  0.79498684  0.20461493  0.20461493  1
  Ti  Ti2  1  0.20461493  0.79498684  0.20461493  1
  Ti  Ti3  1  0.80535355  0.80535355  0.17890322  1
  Ti  Ti4  1  0.17890322  0.80535355  0.80535355  1
  Ti  Ti5  1  0.80535355  0.17890322  0.80535355  1
  Ti  Ti6  1  0.37900489  0.37900489  0.37900489  1
  Ti  Ti7  1  0.37965178  0.86486021  0.37965178  1
  Ti  Ti8  1  0.86486021  0.37965178  0.37965178  1
  Ti  Ti9  1  0.37965178  0.37965178  0.86486021  1
  Ti  Ti10  1  0.84394316  0.47223193  0.84394316  1
  Ti  Ti11  1  0.47223193  0.84394316  0.84394316  1
  Ti  Ti12  1  0.84394316  0.84394316  0.47223193  1
  Al  Al0  1  0.15517490  0.15517490  0.15517490  1
  Al  Al1  1  0.16016578  0.52464542  0.16016578  1
  Al  Al2  1  0.52464542  0.16016578  0.16016578  1
  Al  Al3  1  0.16016578  0.16016578  0.52464542  1
  Al  Al4  1  0.61964960  0.61964960  0.61964960  1
  Al  Al5  1  0.62021968  0.14304081  0.62021968  1
  Al  Al6  1  0.14304081  0.62021968  0.62021968  1
  Al  Al7  1  0.62021968  0.62021968  0.14304081  1
  Al  Al8  1  0.82791452  0.82791452  0.82791452  1
  Fe  Fe0  1  0.00357096  0.00357096  0.00357096  1
  Rh  Rh0  1  0.00428169  0.00428169  0.49820278  1
  Rh  Rh1  1  0.49820278  0.00428169  0.00428169  1
  Rh  Rh2  1  0.00428169  0.49820278  0.00428169  1
  Rh  Rh3  1  0.49943605  0.49943605  0.00153956  1
  Rh  Rh4  1  0.00153956  0.49943605  0.49943605  1
  Rh  Rh5  1  0.49943605  0.00153956  0.49943605  1
  Rh  Rh6  1  0.50094313  0.50094313  0.50094313  1
loop_
_geom_bond_atom_site_label_1
_geom_bond_atom_site_label_2
_geom_bond_distance
_geom_bond_site_symmetry_2
Ti0 Ti10 2.773887 1_455
Ti0 Ti11 2.773887 1_545
Ti0 Ti6 2.983847 1_555
Ti0 Ti9 3.026353 1_555
Ti1 Ti10 2.773887 1_554
Ti1 Ti12 2.773887 1_545
Ti1 Ti6 2.983847 1_555
Ti1 Ti8 3.026353 1_555
Ti2 Ti6 2.983847 1_555
Ti2 Ti7 3.026353 1_555
Ti3 Ti7 3.072715 1_555
Ti3 Ti8 3.072715 1_555
Ti4 Ti7 3.072715 1_555
Ti4 Ti9 3.072715 1_555
Ti5 Ti9 3.072715 1_555
Ti5 Ti8 3.072715 1_555
Ti10 Ti5 2.920664 1_555
Ti11 Ti2 2.773887 1_556
Ti11 Ti4 2.920664 1_555
Ti12 Ti2 2.773887 1_655
Ti12 Ti3 2.920665 1_555
Al0 Rh0 2.481591 1_555
Al0 Rh1 2.481591 1_555
Al0 Rh2 2.481592 1_555
Al0 Ti1 2.759768 1_455
Al0 Ti0 2.759768 1_554
Al0 Ti2 2.759768 1_545
Al0 Ti9 2.804345 1_554
Al0 Ti8 2.804346 1_455
Al0 Ti7 2.804346 1_545
Al1 Rh3 2.485422 1_555
Al1 Rh4 2.485422 1_555
Al1 Rh2 2.485768 1_555
Al1 Ti6 2.757334 1_555
Al1 Ti8 2.772909 1_455
Al1 Ti9 2.772910 1_554
Al1 Ti2 2.787642 1_555
Al1 Ti4 2.787842 1_554
Al1 Ti3 2.787842 1_455
Al2 Rh5 2.485422 1_555
Al2 Rh3 2.485423 1_555
Al2 Rh1 2.485768 1_555
Al2 Ti6 2.757334 1_555
Al2 Ti7 2.772910 1_545
Al2 Ti9 2.772910 1_554
Al2 Ti1 2.787642 1_555
Al2 Ti5 2.787841 1_554
Al2 Ti3 2.787842 1_545
Al3 Rh5 2.485422 1_555
Al3 Rh4 2.485423 1_555
Al3 Rh0 2.485768 1_555
Al3 Ti6 2.757334 1_555
Al3 Ti7 2.772910 1_545
Al3 Ti8 2.772910 1_455
Al3 Ti0 2.787642 1_555
Al3 Ti5 2.787841 1_455
Al3 Ti4 2.787842 1_545
Al4 Rh6 2.527515 1_555
Al4 Rh4 2.698802 1_655
Al4 Rh3 2.698802 1_556
Al4 Rh5 2.698803 1_565
Al4 Ti12 2.829891 1_555
Al4 Ti11 2.829891 1_555
Al4 Ti10 2.829892 1_555
Al4 Ti9 2.938880 1_555
Al4 Ti8 2.938881 1_555
Al4 Ti7 2.938881 1_555
Al4 Ti3 3.163989 1_555
Al4 Ti4 3.163989 1_555
Al4 Ti5 3.163989 1_555
Al5 Rh6 2.526942 1_555
Al5 Al8 2.703781 1_545
Al5 Rh0 2.712706 1_655
Al5 Rh1 2.712706 1_556
Al5 Rh5 2.720747 1_555
Al5 Ti11 2.814072 1_545
Al5 Ti12 2.814072 1_545
Al5 Ti8 2.946679 1_555
Al5 Ti9 2.946680 1_555
Al5 Ti6 2.954289 1_555
Al5 Ti5 2.977116 1_555
Al5 Ti0 2.991672 1_555
Al5 Ti1 2.991672 1_555
Al6 Rh6 2.526942 1_555
Al6 Al8 2.703781 1_455
Al6 Rh2 2.712706 1_556
Al6 Rh0 2.712707 1_565
Al6 Rh4 2.720747 1_555
Al6 Ti10 2.814072 1_455
Al6 Ti12 2.814073 1_455
Al6 Ti7 2.946679 1_555
Al6 Ti9 2.946680 1_555
Al6 Ti6 2.954289 1_555
Al6 Ti4 2.977116 1_555
Al6 Ti2 2.991672 1_555
Al6 Ti0 2.991672 1_555
Al7 Rh6 2.526942 1_555
Al7 Al8 2.703780 1_554
Al7 Rh2 2.712706 1_655
Al7 Rh1 2.712706 1_565
Al7 Rh3 2.720747 1_555
Al7 Ti10 2.814072 1_554
Al7 Ti11 2.814073 1_554
Al7 Ti7 2.946680 1_555
Al7 Ti8 2.946680 1_555
Al7 Ti6 2.954289 1_555
Al7 Ti3 2.977116 1_555
Al7 Ti2 2.991672 1_555
Al7 Ti1 2.991672 1_555
Al8 Rh0 2.530208 1_665
Al8 Rh1 2.530208 1_566
Al8 Rh2 2.530208 1_656
Al8 Ti4 2.861123 1_655
Al8 Ti5 2.861123 1_565
Al8 Ti3 2.861123 1_556
Al8 Ti11 2.952123 1_555
Al8 Ti10 2.952123 1_555
Al8 Ti12 2.952123 1_555
Fe0 Ti3 2.436383 1_445
Fe0 Ti4 2.436384 1_544
Fe0 Ti5 2.436384 1_454
Fe0 Ti0 2.462298 1_554
Fe0 Ti1 2.462299 1_455
Fe0 Ti2 2.462299 1_545
Rh0 Ti12 2.549991 1_445
Rh0 Ti7 2.652227 1_545
Rh0 Ti8 2.652227 1_455
Rh0 Ti5 3.028664 1_455
Rh0 Ti4 3.028664 1_545
Rh0 Ti2 3.134336 1_545
Rh0 Ti1 3.134336 1_455
Rh1 Ti11 2.549991 1_544
Rh1 Ti7 2.652227 1_545
Rh1 Ti9 2.652227 1_554
Rh1 Ti5 3.028664 1_554
Rh1 Ti3 3.028664 1_545
Rh1 Ti2 3.134335 1_545
Rh1 Ti0 3.134336 1_554
Rh2 Ti10 2.549991 1_454
Rh2 Ti9 2.652226 1_554
Rh2 Ti8 2.652227 1_455
Rh2 Ti4 3.028664 1_554
Rh2 Ti3 3.028664 1_455
Rh2 Ti1 3.134335 1_455
Rh2 Ti0 3.134336 1_554
Rh3 Ti10 2.520680 1_554
Rh3 Ti11 2.520681 1_554
Rh3 Ti6 2.666597 1_555
Rh3 Ti9 2.671705 1_554
Rh3 Ti2 3.101944 1_555
Rh3 Ti1 3.101944 1_555
Rh4 Ti10 2.520680 1_455
Rh4 Ti12 2.520681 1_455
Rh4 Ti6 2.666597 1_555
Rh4 Ti8 2.671704 1_455
Rh4 Ti2 3.101943 1_555
Rh4 Ti0 3.101944 1_555
Rh5 Ti12 2.520681 1_545
Rh5 Ti11 2.520681 1_545
Rh5 Ti6 2.666597 1_555
Rh5 Ti7 2.671705 1_545
Rh5 Ti1 3.101943 1_555
Rh5 Ti0 3.101944 1_555
Rh6 Ti8 2.569408 1_555
Rh6 Ti9 2.569408 1_555
Rh6 Ti7 2.569409 1_555
Rh6 Ti6 2.596326 1_555
