# generated using pymatgen
data_K3Rb6GaAs4
_symmetry_space_group_name_H-M   'P 1'
_cell_length_a   10.20563584
_cell_length_b   10.20563594
_cell_length_c   10.78659578
_cell_angle_alpha   90.00000000
_cell_angle_beta   90.00000000
_cell_angle_gamma   119.99999658
_symmetry_Int_Tables_number   1
_chemical_formula_structural   K3Rb6GaAs4
_chemical_formula_sum   'K6 Rb12 Ga2 As8'
_cell_volume   972.96045836
_cell_formula_units_Z   2
loop_
 _symmetry_equiv_pos_site_id
 _symmetry_equiv_pos_as_xyz
  1  'x, y, z'
loop_
 _atom_site_type_symbol
 _atom_site_label
 _atom_site_symmetry_multiplicity
 _atom_site_fract_x
 _atom_site_fract_y
 _atom_site_fract_z
 _atom_site_occupancy
  K  K0  1  0.11987831  0.23975461  0.25000000  1
  K  K1  1  0.88012169  0.11987831  0.75000000  1
  K  K2  1  0.23975461  0.11987831  0.75000000  1
  K  K3  1  0.76024539  0.88012169  0.25000000  1
  K  K4  1  0.11987831  0.88012169  0.25000000  1
  K  K5  1  0.88012169  0.76024539  0.75000000  1
  Rb  Rb0  1  0.20828170  0.41656139  0.54428808  1
  Rb  Rb1  1  0.79171830  0.20828170  0.04428808  1
  Rb  Rb2  1  0.41656139  0.20828170  0.04428808  1
  Rb  Rb3  1  0.58343861  0.79171830  0.54428808  1
  Rb  Rb4  1  0.20828170  0.79171830  0.54428808  1
  Rb  Rb5  1  0.79171830  0.58343861  0.45571192  1
  Rb  Rb6  1  0.79171830  0.20828170  0.45571192  1
  Rb  Rb7  1  0.79171830  0.58343861  0.04428808  1
  Rb  Rb8  1  0.41656139  0.20828170  0.45571192  1
  Rb  Rb9  1  0.58343861  0.79171830  0.95571192  1
  Rb  Rb10  1  0.20828170  0.41656139  0.95571192  1
  Rb  Rb11  1  0.20828170  0.79171830  0.95571192  1
  Ga  Ga0  1  0.33333300  0.66666700  0.25000000  1
  Ga  Ga1  1  0.66666700  0.33333300  0.75000000  1
  As  As0  1  0.47301545  0.52698455  0.25000000  1
  As  As1  1  0.94602891  0.47301545  0.75000000  1
  As  As2  1  0.52698455  0.05397109  0.75000000  1
  As  As3  1  0.47301545  0.94602891  0.25000000  1
  As  As4  1  0.05397109  0.52698455  0.25000000  1
  As  As5  1  0.52698455  0.47301545  0.75000000  1
  As  As6  1  0.00000000  0.00000000  0.00000000  1
  As  As7  1  0.00000000  0.00000000  0.50000000  1
loop_
_geom_bond_atom_site_label_1
_geom_bond_atom_site_label_2
_geom_bond_distance
_geom_bond_site_symmetry_2
As0 Ga0 2.469122 1_555
As0 K0 3.319191 1_555
As0 K3 3.319191 1_555
As0 Rb5 3.736418 1_555
As0 Rb7 3.736418 1_555
As0 Rb8 3.736418 1_555
As0 Rb2 3.736418 1_555
As0 Rb0 3.949868 1_555
As0 Rb10 3.949868 1_554
As0 Rb3 3.949868 1_555
As0 Rb9 3.949868 1_554
As1 Ga1 2.469096 1_555
As1 K5 3.319191 1_555
As1 K1 3.319191 1_555
As1 Rb11 3.736430 1_655
As1 Rb4 3.736430 1_655
As1 Rb10 3.736451 1_655
As1 Rb0 3.736451 1_655
As1 Rb7 3.949867 1_556
As1 Rb5 3.949867 1_555
As1 Rb1 3.949868 1_556
As1 Rb6 3.949868 1_555
As2 Ga1 2.469096 1_555
As2 K2 3.319191 1_555
As2 K1 3.319191 1_555
As2 Rb11 3.736430 1_545
As2 Rb4 3.736430 1_545
As2 Rb9 3.736451 1_545
As2 Rb3 3.736451 1_545
As2 Rb2 3.949867 1_556
As2 Rb8 3.949867 1_555
As2 Rb1 3.949868 1_556
As2 Rb6 3.949868 1_555
As3 Ga0 2.469096 1_555
As3 K3 3.319191 1_555
As3 K4 3.319191 1_555
As3 Rb6 3.736430 1_565
As3 Rb1 3.736430 1_565
As3 Rb8 3.736451 1_565
As3 Rb2 3.736451 1_565
As3 Rb3 3.949867 1_555
As3 Rb9 3.949867 1_554
As3 Rb4 3.949868 1_555
As3 Rb11 3.949868 1_554
As4 Ga0 2.469096 1_555
As4 K0 3.319191 1_555
As4 K4 3.319191 1_555
As4 Rb6 3.736430 1_455
As4 Rb1 3.736430 1_455
As4 Rb5 3.736451 1_455
As4 Rb7 3.736451 1_455
As4 Rb0 3.949867 1_555
As4 Rb10 3.949867 1_554
As4 Rb4 3.949868 1_555
As4 Rb11 3.949868 1_554
As5 Ga1 2.469122 1_555
As5 K5 3.319191 1_555
As5 K2 3.319191 1_555
As5 Rb10 3.736418 1_555
As5 Rb0 3.736418 1_555
As5 Rb9 3.736418 1_555
As5 Rb3 3.736418 1_555
As5 Rb7 3.949868 1_556
As5 Rb5 3.949868 1_555
As5 Rb2 3.949868 1_556
As5 Rb8 3.949868 1_555
As6 K2 3.429609 1_554
As6 K3 3.429609 1_445
As6 K0 3.429609 1_555
As6 K5 3.429609 1_444
As6 K4 3.429620 1_545
As6 K1 3.429620 1_454
As6 Rb2 3.712575 1_555
As6 Rb9 3.712575 1_444
As6 Rb10 3.712575 1_554
As6 Rb7 3.712575 1_445
As6 Rb1 3.712592 1_455
As6 Rb11 3.712592 1_544
As7 K2 3.429609 1_555
As7 K3 3.429609 1_445
As7 K0 3.429609 1_555
As7 K5 3.429609 1_445
As7 K4 3.429620 1_545
As7 K1 3.429620 1_455
As7 Rb8 3.712575 1_555
As7 Rb3 3.712575 1_445
As7 Rb0 3.712575 1_555
As7 Rb5 3.712575 1_445
As7 Rb4 3.712592 1_545
As7 Rb6 3.712592 1_455
