# generated using pymatgen
data_Hf6Al2CN
_symmetry_space_group_name_H-M   'P 1'
_cell_length_a   5.93555872
_cell_length_b   5.93555845
_cell_length_c   8.91777638
_cell_angle_alpha   89.83842167
_cell_angle_beta   90.16157750
_cell_angle_gamma   147.51739589
_symmetry_Int_Tables_number   1
_chemical_formula_structural   Hf6Al2CN
_chemical_formula_sum   'Hf6 Al2 C1 N1'
_cell_volume   168.72808370
_cell_formula_units_Z   1
loop_
 _symmetry_equiv_pos_site_id
 _symmetry_equiv_pos_as_xyz
  1  'x, y, z'
loop_
 _atom_site_type_symbol
 _atom_site_label
 _atom_site_symmetry_multiplicity
 _atom_site_fract_x
 _atom_site_fract_y
 _atom_site_fract_z
 _atom_site_occupancy
  Hf  Hf0  1  0.62917998  0.37082002  0.45744488  1
  Hf  Hf1  1  0.37082002  0.62917998  0.54255512  1
  Hf  Hf2  1  0.62768117  0.37231883  0.03967736  1
  Hf  Hf3  1  0.37231883  0.62768117  0.96032264  1
  Hf  Hf4  1  0.95808415  0.04191585  0.24954675  1
  Hf  Hf5  1  0.04191585  0.95808415  0.75045325  1
  Al  Al0  1  0.25199046  0.74800954  0.24797286  1
  Al  Al1  1  0.74800954  0.25199046  0.75202714  1
  C  C0  1  0.00000000  0.00000000  0.50000000  1
  N  N0  1  0.00000000  0.00000000  0.00000000  1
loop_
_geom_bond_atom_site_label_1
_geom_bond_atom_site_label_2
_geom_bond_distance
_geom_bond_site_symmetry_2
Hf2 N0 2.235111 1_665
Hf2 N0 2.235111 1_555
Hf3 N0 2.235111 1_556
Hf3 N0 2.235111 1_666
Hf4 N0 2.277474 1_655
Hf5 N0 2.277474 1_566
Al0 Hf2 2.863239 1_565
Al0 Hf2 2.863239 1_455
Al0 Hf0 2.867043 1_565
Al0 Hf0 2.867043 1_455
Al0 Hf4 2.876336 1_455
Al0 Hf4 2.876336 1_565
Al0 Hf3 2.912341 1_554
Al0 Hf1 2.952046 1_555
Al0 Hf4 3.349829 1_465
Al1 Hf3 2.863239 1_545
Al1 Hf3 2.863239 1_655
Al1 Hf1 2.867043 1_545
Al1 Hf1 2.867043 1_655
Al1 Hf5 2.876336 1_655
Al1 Hf5 2.876336 1_545
Al1 Hf2 2.912341 1_556
Al1 Hf0 2.952046 1_555
Al1 Hf5 3.349829 1_645
C0 Hf1 2.251856 1_555
C0 Hf0 2.251856 1_445
C0 Hf0 2.251856 1_555
C0 Hf1 2.251856 1_445
C0 Hf5 2.282634 1_545
C0 Hf4 2.282634 1_455
