# generated using pymatgen
data_Mg4TiNb7N12
_symmetry_space_group_name_H-M   'P 1'
_cell_length_a   5.24952487
_cell_length_b   5.24952568
_cell_length_c   10.43227264
_cell_angle_alpha   90.00000000
_cell_angle_beta   90.00000000
_cell_angle_gamma   119.99999489
_symmetry_Int_Tables_number   1
_chemical_formula_structural   Mg4TiNb7N12
_chemical_formula_sum   'Mg4 Ti1 Nb7 N12'
_cell_volume   248.97150520
_cell_formula_units_Z   1
loop_
 _symmetry_equiv_pos_site_id
 _symmetry_equiv_pos_as_xyz
  1  'x, y, z'
loop_
 _atom_site_type_symbol
 _atom_site_label
 _atom_site_symmetry_multiplicity
 _atom_site_fract_x
 _atom_site_fract_y
 _atom_site_fract_z
 _atom_site_occupancy
  Mg  Mg0  1  0.33333300  0.66666700  0.00000000  1
  Mg  Mg1  1  0.33333300  0.66666700  0.50000000  1
  Mg  Mg2  1  0.66666700  0.33333300  0.50000000  1
  Mg  Mg3  1  0.66666700  0.33333300  0.00000000  1
  Ti  Ti0  1  0.00000000  0.00000000  0.00000000  1
  Nb  Nb0  1  1.00000000  0.33879009  0.24876127  1
  Nb  Nb1  1  0.66120991  0.00000000  0.75123873  1
  Nb  Nb2  1  0.33879009  0.33879009  0.75123873  1
  Nb  Nb3  1  0.00000000  0.00000000  0.50000000  1
  Nb  Nb4  1  0.66120991  0.66120991  0.24876127  1
  Nb  Nb5  1  0.33879009  0.00000000  0.24876127  1
  Nb  Nb6  1  0.00000000  0.66120991  0.75123873  1
  N  N0  1  0.66916258  0.66916258  0.62052337  1
  N  N1  1  0.67536449  0.67536449  0.88044624  1
  N  N2  1  0.32463551  0.32463551  0.11955376  1
  N  N3  1  0.33083742  0.33083742  0.37947663  1
  N  N4  1  0.32463551  0.00000000  0.88044624  1
  N  N5  1  0.33083742  0.00000000  0.62052337  1
  N  N6  1  1.00000000  0.66916258  0.37947663  1
  N  N7  1  1.00000000  0.67536449  0.11955376  1
  N  N8  1  0.67536449  0.00000000  0.11955376  1
  N  N9  1  0.66916258  0.00000000  0.37947663  1
  N  N10  1  0.00000000  0.32463551  0.88044624  1
  N  N11  1  0.00000000  0.33083742  0.62052337  1
loop_
_geom_bond_atom_site_label_1
_geom_bond_atom_site_label_2
_geom_bond_distance
_geom_bond_site_symmetry_2
Mg0 N7 2.167826 1_455
Mg0 N4 2.167826 1_564
Mg0 N8 2.167828 1_565
Mg0 N10 2.167828 1_554
Mg0 N1 2.167830 1_554
Mg0 N2 2.167830 1_555
Mg1 N6 2.160074 1_455
Mg1 N5 2.160074 1_565
Mg1 N9 2.160077 1_565
Mg1 N11 2.160077 1_555
Mg1 N0 2.160078 1_555
Mg1 N3 2.160079 1_555
Mg2 N11 2.160074 1_655
Mg2 N9 2.160074 1_555
Mg2 N5 2.160077 1_555
Mg2 N6 2.160077 1_555
Mg2 N3 2.160078 1_555
Mg2 N0 2.160079 1_555
Mg3 N10 2.167826 1_654
Mg3 N8 2.167826 1_555
Mg3 N4 2.167828 1_554
Mg3 N7 2.167828 1_555
Mg3 N2 2.167830 1_555
Mg3 N1 2.167830 1_554
N0 Nb3 2.144096 1_665
N0 Nb2 2.206209 1_555
N0 Nb6 2.224876 1_655
N0 Nb1 2.224877 1_565
N1 Ti0 2.111821 1_666
N1 Nb6 2.203020 1_655
N1 Nb1 2.203020 1_565
N1 Nb2 2.222316 1_555
N2 Ti0 2.111821 1_555
N2 Nb0 2.203020 1_455
N2 Nb5 2.203020 1_555
N2 Nb4 2.222316 1_555
N3 Nb3 2.144096 1_555
N3 Nb4 2.206209 1_555
N3 Nb0 2.224876 1_455
N3 Nb5 2.224877 1_555
N4 Ti0 2.111821 1_556
N4 Nb2 2.203020 1_555
N4 Nb6 2.203020 1_545
N4 Nb1 2.222316 1_555
N5 Nb3 2.144096 1_555
N5 Nb1 2.206208 1_555
N5 Nb2 2.224877 1_555
N5 Nb6 2.224877 1_545
N6 Nb3 2.144096 1_665
N6 Nb0 2.206209 1_555
N6 Nb4 2.224876 1_555
N6 Nb5 2.224877 1_665
N7 Ti0 2.111821 1_665
N7 Nb4 2.203020 1_555
N7 Nb5 2.203020 1_665
N7 Nb0 2.222316 1_555
N8 Ti0 2.111821 1_655
N8 Nb0 2.203020 1_555
N8 Nb4 2.203020 1_545
N8 Nb5 2.222316 1_555
N9 Nb3 2.144096 1_655
N9 Nb5 2.206208 1_555
N9 Nb0 2.224877 1_555
N9 Nb4 2.224877 1_545
N10 Ti0 2.111821 1_556
N10 Nb2 2.203020 1_555
N10 Nb1 2.203020 1_455
N10 Nb6 2.222316 1_555
N11 Nb3 2.144096 1_555
N11 Nb6 2.206209 1_555
N11 Nb2 2.224876 1_555
N11 Nb1 2.224877 1_455
