# generated using pymatgen
data_CsKZrSe3
_symmetry_space_group_name_H-M   'P 1'
_cell_length_a   7.74197470
_cell_length_b   8.07692810
_cell_length_c   7.23848458
_cell_angle_alpha   90.00000000
_cell_angle_beta   90.00000000
_cell_angle_gamma   110.14217879
_symmetry_Int_Tables_number   1
_chemical_formula_structural   CsKZrSe3
_chemical_formula_sum   'Cs2 K2 Zr2 Se6'
_cell_volume   424.94984013
_cell_formula_units_Z   2
loop_
 _symmetry_equiv_pos_site_id
 _symmetry_equiv_pos_as_xyz
  1  'x, y, z'
loop_
 _atom_site_type_symbol
 _atom_site_label
 _atom_site_symmetry_multiplicity
 _atom_site_fract_x
 _atom_site_fract_y
 _atom_site_fract_z
 _atom_site_occupancy
  Cs  Cs0  1  0.17414773  0.49212995  0.75000000  1
  Cs  Cs1  1  0.82585227  0.50787005  0.25000000  1
  K  K0  1  0.49242762  0.82559814  0.25000000  1
  K  K1  1  0.50757238  0.17440186  0.75000000  1
  Zr  Zr0  1  0.07721820  0.09286419  0.25000000  1
  Zr  Zr1  1  0.92278180  0.90713581  0.75000000  1
  Se  Se0  1  0.68874760  0.60744754  0.75000000  1
  Se  Se1  1  0.31125240  0.39255246  0.25000000  1
  Se  Se2  1  0.82854500  0.10374697  0.49970270  1
  Se  Se3  1  0.82854500  0.10374697  0.00029730  1
  Se  Se4  1  0.17145500  0.89625303  0.50029730  1
  Se  Se5  1  0.17145500  0.89625303  0.99970270  1
loop_
_geom_bond_atom_site_label_1
_geom_bond_atom_site_label_2
_geom_bond_distance
_geom_bond_site_symmetry_2
Cs0 Se5 3.737434 1_555
Cs0 Se4 3.737434 1_555
Cs0 Se0 3.766209 1_555
Cs0 Se3 3.808083 1_456
Cs0 Se2 3.808083 1_455
Cs0 Se1 3.931976 1_556
Cs0 Se1 3.931976 1_555
Cs0 Se0 4.171373 1_455
Cs1 Se2 3.737434 1_555
Cs1 Se3 3.737434 1_555
Cs1 Se1 3.766209 1_555
Cs1 Se4 3.808083 1_655
Cs1 Se5 3.808083 1_654
Cs1 Se0 3.931976 1_555
Cs1 Se0 3.931976 1_554
Cs1 Se1 4.171373 1_655
K0 Se4 3.280225 1_555
K0 Se5 3.280225 1_554
K0 Se1 3.289742 1_555
K0 Se2 3.325566 1_565
K0 Se3 3.325566 1_565
K1 Se3 3.280225 1_556
K1 Se2 3.280225 1_555
K1 Se0 3.289742 1_555
K1 Se5 3.325566 1_545
K1 Se4 3.325566 1_545
Se0 Zr1 2.474177 1_555
Se1 Zr0 2.474177 1_555
Se2 Zr0 2.664150 1_655
Se2 Zr1 2.671051 1_545
Se3 Zr0 2.664150 1_655
Se3 Zr1 2.671051 1_544
Se4 Zr1 2.664150 1_455
Se4 Zr0 2.671051 1_565
Se5 Zr1 2.664150 1_455
Se5 Zr0 2.671051 1_566
