# generated using pymatgen
data_Sr5Pt2PbF
_symmetry_space_group_name_H-M   'P 1'
_cell_length_a   8.37963723
_cell_length_b   8.37963814
_cell_length_c   9.47918929
_cell_angle_alpha   116.23168504
_cell_angle_beta   116.23167626
_cell_angle_gamma   89.99999765
_symmetry_Int_Tables_number   1
_chemical_formula_structural   Sr5Pt2PbF
_chemical_formula_sum   'Sr10 Pt4 Pb2 F2'
_cell_volume   519.54849582
_cell_formula_units_Z   2
loop_
 _symmetry_equiv_pos_site_id
 _symmetry_equiv_pos_as_xyz
  1  'x, y, z'
loop_
 _atom_site_type_symbol
 _atom_site_label
 _atom_site_symmetry_multiplicity
 _atom_site_fract_x
 _atom_site_fract_y
 _atom_site_fract_z
 _atom_site_occupancy
  Sr  Sr0  1  0.00000000  0.00000000  0.00000000  1
  Sr  Sr1  1  0.50000000  0.50000000  0.00000000  1
  Sr  Sr2  1  0.48138393  0.29557631  0.27695924  1
  Sr  Sr3  1  0.98138393  0.48138393  0.27695924  1
  Sr  Sr4  1  0.29557631  0.79557531  0.27695924  1
  Sr  Sr5  1  0.79557531  0.98138393  0.27695924  1
  Sr  Sr6  1  0.20442369  0.01861607  0.72304076  1
  Sr  Sr7  1  0.70442469  0.20442369  0.72304076  1
  Sr  Sr8  1  0.01861607  0.51861607  0.72304076  1
  Sr  Sr9  1  0.51861607  0.70442469  0.72304076  1
  Pt  Pt0  1  0.63034260  0.13034260  1.00000000  1
  Pt  Pt1  1  0.13034260  0.36965840  0.00000000  1
  Pt  Pt2  1  0.86965740  0.63034260  1.00000000  1
  Pt  Pt3  1  0.36965840  0.86965740  0.00000000  1
  Pb  Pb0  1  0.25000000  0.25000000  0.50000000  1
  Pb  Pb1  1  0.75000000  0.75000000  0.50000000  1
  F  F0  1  0.75000000  0.25000000  0.50000000  1
  F  F1  1  0.25000000  0.75000000  0.50000000  1
loop_
_geom_bond_atom_site_label_1
_geom_bond_atom_site_label_2
_geom_bond_distance
_geom_bond_site_symmetry_2
Pt0 Sr9 3.170348 1_545
Pt0 Sr5 3.170349 1_546
Pt0 Sr2 3.170349 1_556
Pt0 Sr6 3.170354 1_555
Pt0 Sr7 3.247246 1_555
Pt0 Sr3 3.247250 1_556
Pt0 Sr0 3.284516 1_656
Pt0 Sr1 3.284517 1_556
Pt1 Sr8 3.170342 1_554
Pt1 Sr4 3.170342 1_555
Pt1 Sr3 3.170349 1_455
Pt1 Sr7 3.170349 1_454
Pt1 Sr6 3.247250 1_554
Pt1 Sr2 3.247250 1_555
Pt1 Sr1 3.284514 1_555
Pt1 Sr0 3.284524 1_555
Pt2 Sr8 3.170348 1_655
Pt2 Sr3 3.170349 1_556
Pt2 Sr4 3.170354 1_656
Pt2 Sr7 3.170354 1_555
Pt2 Sr5 3.247250 1_556
Pt2 Sr9 3.247250 1_555
Pt2 Sr1 3.284516 1_556
Pt2 Sr0 3.284517 1_666
Pt3 Sr5 3.170342 1_555
Pt3 Sr9 3.170342 1_554
Pt3 Sr6 3.170350 1_564
Pt3 Sr2 3.170355 1_565
Pt3 Sr4 3.247251 1_555
Pt3 Sr8 3.247255 1_554
Pt3 Sr1 3.284514 1_555
Pt3 Sr0 3.284524 1_565
Pb0 Sr5 3.565513 1_445
Pb0 Sr8 3.565513 1_555
Pb0 Sr9 3.565513 1_555
Pb0 Sr3 3.565513 1_455
Pb0 Sr4 3.565516 1_545
Pb0 Sr7 3.565516 1_555
Pb0 Sr2 3.565516 1_555
Pb0 Sr6 3.565516 1_555
Pb0 Sr0 3.699522 1_555
Pb0 Sr1 3.699522 1_556
Pb1 Sr6 3.565506 1_665
Pb1 Sr7 3.565506 1_565
Pb1 Sr4 3.565506 1_555
Pb1 Sr2 3.565506 1_555
Pb1 Sr3 3.565513 1_555
Pb1 Sr9 3.565513 1_555
Pb1 Sr8 3.565513 1_655
Pb1 Sr5 3.565513 1_555
Pb1 Sr1 3.699522 1_555
Pb1 Sr0 3.699522 1_666
F0 Sr8 2.487829 1_655
F0 Sr5 2.487829 1_545
F0 Sr2 2.487834 1_555
F0 Sr7 2.487834 1_555
F1 Sr3 2.487829 1_455
F1 Sr9 2.487830 1_555
F1 Sr6 2.487834 1_565
F1 Sr4 2.487834 1_555
