# generated using pymatgen
data_MgTaBiF12
_symmetry_space_group_name_H-M   'P 1'
_cell_length_a   5.41993365
_cell_length_b   10.94403231
_cell_length_c   5.48617918
_cell_angle_alpha   54.96256566
_cell_angle_beta   55.26274600
_cell_angle_gamma   55.99566393
_symmetry_Int_Tables_number   1
_chemical_formula_structural   MgTaBiF12
_chemical_formula_sum   'Mg1 Ta1 Bi1 F12'
_cell_volume   205.51553346
_cell_formula_units_Z   1
loop_
 _symmetry_equiv_pos_site_id
 _symmetry_equiv_pos_as_xyz
  1  'x, y, z'
loop_
 _atom_site_type_symbol
 _atom_site_label
 _atom_site_symmetry_multiplicity
 _atom_site_fract_x
 _atom_site_fract_y
 _atom_site_fract_z
 _atom_site_occupancy
  Mg  Mg0  1  0.50483757  0.74691770  0.50087883  1
  Ta  Ta0  1  0.98621172  0.48222844  0.03651846  1
  Bi  Bi0  1  0.01707444  0.01794188  0.96092550  1
  F  F0  1  0.44402942  0.03882368  0.74137449  1
  F  F1  1  0.33875108  0.56740508  0.76689040  1
  F  F2  1  0.07568422  0.37718658  0.40440089  1
  F  F3  1  0.12533136  0.87512726  0.37005880  1
  F  F4  1  0.23645513  0.31027885  0.91138427  1
  F  F5  1  0.24563053  0.80935988  0.88012862  1
  F  F6  1  0.92968435  0.12467313  0.56422256  1
  F  F7  1  0.86421943  0.62135970  0.65379789  1
  F  F8  1  0.59355378  0.45588250  0.24613384  1
  F  F9  1  0.63338102  0.93918455  0.24258279  1
  F  F10  1  0.75059651  0.20710672  0.08087675  1
  F  F11  1  0.75456044  0.67652203  0.13982692  1
loop_
_geom_bond_atom_site_label_1
_geom_bond_atom_site_label_2
_geom_bond_distance
_geom_bond_site_symmetry_2
Bi0 F10 1.985359 1_456
Bi0 F0 1.989201 1_555
Bi0 F6 1.990566 1_455
Bi0 F9 2.066110 1_446
Bi0 F3 2.066932 1_546
Bi0 F5 2.077271 1_545
F1 Ta0 1.973797 1_456
F1 Mg0 1.997151 1_555
F2 Ta0 1.859540 1_455
F3 Mg0 2.003158 1_555
F4 Ta0 1.849204 1_456
F5 Mg0 1.999324 1_555
F7 Mg0 1.982652 1_555
F7 Ta0 1.987302 1_556
F8 Ta0 1.857759 1_555
F9 Mg0 2.002970 1_555
F11 Mg0 1.969669 1_555
F11 Ta0 2.001425 1_555
