# generated using pymatgen
data_SrCu12Ni
_symmetry_space_group_name_H-M   'P 1'
_cell_length_a   8.10434764
_cell_length_b   8.10434708
_cell_length_c   8.10434784
_cell_angle_alpha   60.00000086
_cell_angle_beta   60.00000312
_cell_angle_gamma   59.99999981
_symmetry_Int_Tables_number   1
_chemical_formula_structural   SrCu12Ni
_chemical_formula_sum   'Sr2 Cu24 Ni2'
_cell_volume   376.39095758
_cell_formula_units_Z   2
loop_
 _symmetry_equiv_pos_site_id
 _symmetry_equiv_pos_as_xyz
  1  'x, y, z'
loop_
 _atom_site_type_symbol
 _atom_site_label
 _atom_site_symmetry_multiplicity
 _atom_site_fract_x
 _atom_site_fract_y
 _atom_site_fract_z
 _atom_site_occupancy
  Sr  Sr0  1  0.75000000  0.75000000  0.75000000  1
  Sr  Sr1  1  0.25000000  0.25000000  0.25000000  1
  Cu  Cu0  1  0.70492221  0.93707304  0.29507779  1
  Cu  Cu1  1  0.93707304  0.70492221  0.06292696  1
  Cu  Cu2  1  0.06292696  0.29507779  0.93707304  1
  Cu  Cu3  1  0.79507779  0.56292696  0.43707304  1
  Cu  Cu4  1  0.56292696  0.79507779  0.20492221  1
  Cu  Cu5  1  0.20492221  0.56292696  0.79507779  1
  Cu  Cu6  1  0.79507779  0.43707304  0.20492221  1
  Cu  Cu7  1  0.56292696  0.43707304  0.79507779  1
  Cu  Cu8  1  0.20492221  0.79507779  0.43707304  1
  Cu  Cu9  1  0.93707304  0.06292696  0.29507779  1
  Cu  Cu10  1  0.29507779  0.93707304  0.06292696  1
  Cu  Cu11  1  0.06292696  0.70492221  0.29507779  1
  Cu  Cu12  1  0.06292696  0.93707304  0.70492221  1
  Cu  Cu13  1  0.29507779  0.70492221  0.93707304  1
  Cu  Cu14  1  0.70492221  0.06292696  0.93707304  1
  Cu  Cu15  1  0.70492221  0.29507779  0.06292696  1
  Cu  Cu16  1  0.93707304  0.29507779  0.70492221  1
  Cu  Cu17  1  0.43707304  0.79507779  0.56292696  1
  Cu  Cu18  1  0.43707304  0.20492221  0.79507779  1
  Cu  Cu19  1  0.79507779  0.20492221  0.56292696  1
  Cu  Cu20  1  0.43707304  0.56292696  0.20492221  1
  Cu  Cu21  1  0.20492221  0.43707304  0.56292696  1
  Cu  Cu22  1  0.56292696  0.20492221  0.43707304  1
  Cu  Cu23  1  0.29507779  0.06292696  0.70492221  1
  Ni  Ni0  1  0.00000000  0.00000000  0.00000000  1
  Ni  Ni1  1  0.50000000  0.50000000  0.50000000  1
loop_
_geom_bond_atom_site_label_1
_geom_bond_atom_site_label_2
_geom_bond_distance
_geom_bond_site_symmetry_2
Cu0 Ni0 2.445187 1_665
Cu0 Cu22 2.456912 1_565
Cu0 Cu17 2.456912 1_555
Cu0 Cu3 2.487643 1_555
Cu0 Cu4 2.487643 1_555
Cu0 Cu15 2.549333 1_565
Cu0 Cu9 2.549333 1_565
Cu0 Cu11 2.549333 1_655
Cu0 Cu14 2.549334 1_564
Cu0 Cu1 2.660745 1_555
Cu0 Sr1 3.350860 1_565
Cu0 Sr0 3.350860 1_555
Cu1 Ni0 2.445186 1_665
Cu1 Cu6 2.456912 1_555
Cu1 Cu5 2.456912 1_654
Cu1 Cu4 2.487643 1_555
Cu1 Cu3 2.487643 1_555
Cu1 Cu14 2.549333 1_564
Cu1 Cu11 2.549333 1_655
Cu1 Cu13 2.549333 1_654
Cu1 Cu12 2.549333 1_654
Cu1 Sr1 3.350860 1_655
Cu1 Sr0 3.350860 1_554
Cu2 Ni0 2.445186 1_556
Cu2 Cu5 2.456912 1_555
Cu2 Cu6 2.456912 1_456
Cu2 Cu21 2.487643 1_555
Cu2 Cu9 2.549333 1_456
Cu2 Cu23 2.660745 1_555
Cu2 Sr0 3.350860 1_455
Cu2 Sr1 3.350860 1_556
Cu3 Ni1 2.445187 1_555
Cu3 Cu6 2.549333 1_555
Cu3 Cu7 2.549334 1_555
Cu3 Cu4 2.660745 1_555
Cu3 Sr0 3.350860 1_555
Cu3 Sr1 3.350860 1_655
Cu4 Ni1 2.445187 1_555
Cu4 Cu6 2.549333 1_555
Cu4 Cu8 2.549334 1_555
Cu4 Sr1 3.350860 1_565
Cu4 Sr0 3.350860 1_554
Cu5 Ni1 2.445187 1_555
Cu5 Cu7 2.549333 1_555
Cu5 Cu8 2.549333 1_555
Cu5 Sr0 3.350860 1_455
Cu5 Sr1 3.350860 1_556
Cu6 Ni1 2.445187 1_555
Cu6 Cu9 2.487643 1_555
Cu6 Sr1 3.350860 1_655
Cu6 Sr0 3.350860 1_554
Cu7 Ni1 2.445187 1_555
Cu7 Sr0 3.350860 1_555
Cu7 Sr1 3.350860 1_556
Cu8 Ni1 2.445187 1_555
Cu8 Cu9 2.456912 1_465
Cu8 Sr1 3.350860 1_565
Cu8 Sr0 3.350860 1_455
Cu9 Ni0 2.445187 1_655
Cu9 Sr1 3.350860 1_655
Cu9 Sr0 3.350860 1_545
Cu10 Ni0 2.445187 1_565
Cu10 Cu18 2.456912 1_564
Cu10 Cu4 2.456912 1_555
Cu10 Cu20 2.487643 1_555
Cu10 Cu8 2.487643 1_555
Cu10 Cu2 2.549333 1_564
Cu10 Cu13 2.549333 1_554
Cu10 Cu9 2.549334 1_465
Cu10 Cu23 2.549334 1_564
Cu10 Cu11 2.660745 1_555
Cu10 Sr1 3.350860 1_565
Cu10 Sr0 3.350860 1_554
Cu11 Ni0 2.445187 1_565
Cu11 Cu21 2.456912 1_555
Cu11 Cu3 2.456912 1_455
Cu11 Cu8 2.487643 1_555
Cu11 Cu20 2.487643 1_555
Cu11 Cu9 2.549333 1_465
Cu11 Cu13 2.549334 1_554
Cu11 Sr1 3.350860 1_555
Cu11 Sr0 3.350860 1_455
Cu12 Ni0 2.445187 1_566
Cu12 Cu19 2.456912 1_465
Cu12 Cu8 2.456912 1_555
Cu12 Cu5 2.487643 1_555
Cu12 Cu17 2.487643 1_555
Cu12 Cu16 2.549333 1_465
Cu12 Cu23 2.549333 1_565
Cu12 Cu14 2.549334 1_465
Cu12 Cu13 2.660745 1_555
Cu12 Sr0 3.350860 1_455
Cu12 Sr1 3.350860 1_565
Cu13 Ni0 2.445187 1_566
Cu13 Cu7 2.456912 1_555
Cu13 Cu20 2.456912 1_556
Cu13 Cu5 2.487643 1_555
Cu13 Cu17 2.487643 1_555
Cu13 Cu23 2.549333 1_565
Cu13 Sr1 3.350860 1_556
Cu13 Sr0 3.350860 1_555
Cu14 Ni0 2.445187 1_656
Cu14 Cu4 2.456912 1_546
Cu14 Cu18 2.456912 1_555
Cu14 Cu7 2.487643 1_555
Cu14 Cu19 2.487643 1_555
Cu14 Cu15 2.549333 1_556
Cu14 Cu16 2.660745 1_555
Cu14 Sr0 3.350860 1_545
Cu14 Sr1 3.350860 1_556
Cu15 Ni0 2.445187 1_655
Cu15 Cu20 2.456912 1_555
Cu15 Cu7 2.456912 1_554
Cu15 Cu6 2.487643 1_555
Cu15 Cu22 2.487643 1_555
Cu15 Cu2 2.549333 1_654
Cu15 Cu16 2.549334 1_554
Cu15 Cu9 2.660745 1_555
Cu15 Sr0 3.350860 1_554
Cu15 Sr1 3.350860 1_555
Cu16 Ni0 2.445187 1_656
Cu16 Cu3 2.456912 1_555
Cu16 Cu21 2.456912 1_655
Cu16 Cu19 2.487643 1_555
Cu16 Cu7 2.487643 1_555
Cu16 Cu23 2.549333 1_655
Cu16 Cu2 2.549333 1_655
Cu16 Sr0 3.350860 1_555
Cu16 Sr1 3.350860 1_655
Cu17 Ni1 2.445186 1_555
Cu17 Cu23 2.456912 1_565
Cu17 Cu7 2.549333 1_555
Cu17 Cu8 2.549333 1_555
Cu17 Cu3 2.549333 1_555
Cu17 Cu4 2.549334 1_555
Cu17 Cu5 2.660745 1_555
Cu17 Sr1 3.350860 1_565
Cu17 Sr0 3.350860 1_555
Cu18 Ni1 2.445187 1_555
Cu18 Cu23 2.487643 1_555
Cu18 Cu2 2.487643 1_555
Cu18 Cu5 2.549333 1_555
Cu18 Cu7 2.549333 1_555
Cu18 Cu19 2.549334 1_555
Cu18 Cu22 2.549334 1_555
Cu18 Cu21 2.660745 1_555
Cu18 Sr0 3.350860 1_545
Cu18 Sr1 3.350860 1_556
Cu19 Ni1 2.445187 1_555
Cu19 Cu9 2.456912 1_555
Cu19 Cu3 2.549333 1_555
Cu19 Cu22 2.549333 1_555
Cu19 Cu6 2.549333 1_555
Cu19 Cu7 2.660745 1_555
Cu19 Sr0 3.350860 1_545
Cu19 Sr1 3.350860 1_655
Cu20 Ni1 2.445187 1_555
Cu20 Cu4 2.549333 1_555
Cu20 Cu22 2.549333 1_555
Cu20 Cu6 2.549333 1_555
Cu20 Cu21 2.549334 1_555
Cu20 Cu8 2.660745 1_555
Cu20 Sr1 3.350860 1_555
Cu20 Sr0 3.350860 1_554
Cu21 Ni1 2.445187 1_555
Cu21 Cu23 2.487643 1_555
Cu21 Cu8 2.549333 1_555
Cu21 Cu5 2.549333 1_555
Cu21 Cu22 2.549333 1_555
Cu21 Sr1 3.350860 1_555
Cu21 Sr0 3.350860 1_455
Cu22 Ni1 2.445186 1_555
Cu22 Cu23 2.456912 1_555
Cu22 Cu9 2.487643 1_555
Cu22 Cu6 2.660745 1_555
Cu22 Sr0 3.350860 1_545
Cu22 Sr1 3.350860 1_555
Cu23 Ni0 2.445187 1_556
Cu23 Sr0 3.350860 1_545
Cu23 Sr1 3.350860 1_555
