# generated using pymatgen
data_Yb2S3
_symmetry_space_group_name_H-M   'P 1'
_cell_length_a   6.74738945
_cell_length_b   6.74738945
_cell_length_c   18.38679267
_cell_angle_alpha   90.00000000
_cell_angle_beta   90.00000000
_cell_angle_gamma   120.00000091
_symmetry_Int_Tables_number   1
_chemical_formula_structural   Yb2S3
_chemical_formula_sum   'Yb12 S18'
_cell_volume   724.95018070
_cell_formula_units_Z   6
loop_
 _symmetry_equiv_pos_site_id
 _symmetry_equiv_pos_as_xyz
  1  'x, y, z'
loop_
 _atom_site_type_symbol
 _atom_site_label
 _atom_site_symmetry_multiplicity
 _atom_site_fract_x
 _atom_site_fract_y
 _atom_site_fract_z
 _atom_site_occupancy
  Yb  Yb0  1  0.00000000  0.00000000  0.34315857  1
  Yb  Yb1  1  0.33333300  0.66666700  0.20792164  1
  Yb  Yb2  1  0.66666700  0.33333300  0.00911149  1
  Yb  Yb3  1  0.66666700  0.33333300  0.20792164  1
  Yb  Yb4  1  0.33333300  0.66666700  0.70792164  1
  Yb  Yb5  1  0.66666700  0.33333300  0.70792164  1
  Yb  Yb6  1  0.33333300  0.66666700  0.00911149  1
  Yb  Yb7  1  0.00000000  0.00000000  0.04591811  1
  Yb  Yb8  1  0.66666700  0.33333300  0.50911149  1
  Yb  Yb9  1  0.00000000  0.00000000  0.84315857  1
  Yb  Yb10  1  0.33333300  0.66666700  0.50911149  1
  Yb  Yb11  1  0.00000000  0.00000000  0.54591811  1
  S  S0  1  1.00000000  0.69884816  0.94818291  1
  S  S1  1  0.69884816  0.69884816  0.44818291  1
  S  S2  1  0.00000000  0.33550733  0.77482192  1
  S  S3  1  0.30115184  0.00000000  0.44818291  1
  S  S4  1  0.36809622  0.36809622  0.60504686  1
  S  S5  1  0.00000000  0.63190378  0.60504686  1
  S  S6  1  1.00000000  0.66449267  0.27482192  1
  S  S7  1  1.00000000  0.36809622  0.10504686  1
  S  S8  1  0.69884816  1.00000000  0.94818291  1
  S  S9  1  0.66449267  1.00000000  0.27482192  1
  S  S10  1  0.63190378  0.63190378  0.10504686  1
  S  S11  1  0.66449267  0.66449267  0.77482192  1
  S  S12  1  0.30115184  0.30115184  0.94818291  1
  S  S13  1  0.00000000  0.30115184  0.44818291  1
  S  S14  1  0.63190378  0.00000000  0.60504686  1
  S  S15  1  0.33550733  0.00000000  0.77482192  1
  S  S16  1  0.36809622  1.00000000  0.10504686  1
  S  S17  1  0.33550733  0.33550733  0.27482192  1
loop_
_geom_bond_atom_site_label_1
_geom_bond_atom_site_label_2
_geom_bond_distance
_geom_bond_site_symmetry_2
S0 Yb6 2.617084 1_656
S0 Yb2 2.617087 1_556
S0 Yb7 2.712622 1_666
S0 Yb9 2.803208 1_665
S1 Yb8 2.617090 1_555
S1 Yb10 2.617090 1_555
S1 Yb11 2.712622 1_665
S1 Yb0 2.803208 1_665
S2 Yb5 2.557126 1_455
S2 Yb4 2.557129 1_555
S2 Yb9 2.589123 1_555
S3 Yb10 2.617084 1_545
S3 Yb8 2.617087 1_555
S3 Yb11 2.712622 1_555
S3 Yb0 2.803208 1_555
S4 Yb11 2.711215 1_555
S4 Yb8 2.774448 1_555
S4 Yb10 2.774448 1_555
S4 Yb4 2.857268 1_555
S4 Yb5 2.857268 1_555
S5 Yb11 2.711215 1_565
S5 Yb10 2.774443 1_555
S5 Yb8 2.774445 1_455
S5 Yb4 2.857263 1_555
S5 Yb5 2.857265 1_455
S6 Yb1 2.557126 1_655
S6 Yb3 2.557129 1_555
S6 Yb0 2.589123 1_665
S7 Yb7 2.711215 1_655
S7 Yb2 2.774443 1_555
S7 Yb6 2.774445 1_655
S7 Yb3 2.857263 1_555
S7 Yb1 2.857265 1_655
S8 Yb2 2.617084 1_566
S8 Yb6 2.617087 1_556
S8 Yb7 2.712622 1_666
S8 Yb9 2.803208 1_665
S9 Yb3 2.557126 1_565
S9 Yb1 2.557129 1_555
S9 Yb0 2.589123 1_665
S10 Yb7 2.711215 1_665
S10 Yb2 2.774448 1_555
S10 Yb6 2.774448 1_555
S10 Yb1 2.857268 1_555
S10 Yb3 2.857268 1_555
S11 Yb5 2.557132 1_555
S11 Yb4 2.557132 1_555
S11 Yb9 2.589123 1_665
S12 Yb2 2.617090 1_556
S12 Yb6 2.617090 1_556
S12 Yb7 2.712622 1_556
S12 Yb9 2.803208 1_555
S13 Yb8 2.617084 1_455
S13 Yb10 2.617087 1_555
S13 Yb11 2.712622 1_555
S13 Yb0 2.803208 1_555
S14 Yb11 2.711215 1_655
S14 Yb8 2.774443 1_555
S14 Yb10 2.774445 1_545
S14 Yb5 2.857263 1_555
S14 Yb4 2.857265 1_545
S15 Yb4 2.557126 1_545
S15 Yb5 2.557129 1_555
S15 Yb9 2.589123 1_555
S16 Yb7 2.711215 1_565
S16 Yb6 2.774443 1_555
S16 Yb2 2.774445 1_565
S16 Yb1 2.857263 1_555
S16 Yb3 2.857265 1_565
S17 Yb1 2.557132 1_555
S17 Yb3 2.557132 1_555
S17 Yb0 2.589123 1_555
