# generated using pymatgen
data_CsLuMnSe3
_symmetry_space_group_name_H-M   'P 1'
_cell_length_a   8.31955885
_cell_length_b   8.31955888
_cell_length_c   10.88043463
_cell_angle_alpha   90.00000000
_cell_angle_beta   90.00000000
_cell_angle_gamma   151.07084909
_symmetry_Int_Tables_number   1
_chemical_formula_structural   CsLuMnSe3
_chemical_formula_sum   'Cs2 Lu2 Mn2 Se6'
_cell_volume   364.29049048
_cell_formula_units_Z   2
loop_
 _symmetry_equiv_pos_site_id
 _symmetry_equiv_pos_as_xyz
  1  'x, y, z'
loop_
 _atom_site_type_symbol
 _atom_site_label
 _atom_site_symmetry_multiplicity
 _atom_site_fract_x
 _atom_site_fract_y
 _atom_site_fract_z
 _atom_site_occupancy
  Cs  Cs0  1  0.25789572  0.74210428  0.25000000  1
  Cs  Cs1  1  0.74210428  0.25789572  0.75000000  1
  Lu  Lu0  1  0.00000000  0.00000000  0.00000000  1
  Lu  Lu1  1  0.00000000  0.00000000  0.50000000  1
  Mn  Mn0  1  0.53809749  0.46190251  0.25000000  1
  Mn  Mn1  1  0.46190251  0.53809749  0.75000000  1
  Se  Se0  1  0.61417578  0.38582422  0.05172084  1
  Se  Se1  1  0.38582422  0.61417578  0.94827916  1
  Se  Se2  1  0.38582422  0.61417578  0.55172084  1
  Se  Se3  1  0.61417578  0.38582422  0.44827916  1
  Se  Se4  1  0.94542537  0.05457463  0.25000000  1
  Se  Se5  1  0.05457463  0.94542537  0.75000000  1
loop_
_geom_bond_atom_site_label_1
_geom_bond_atom_site_label_2
_geom_bond_distance
_geom_bond_site_symmetry_2
Cs0 Se4 3.667064 1_565
Cs0 Se4 3.667064 1_455
Cs0 Se3 3.786089 1_455
Cs0 Se0 3.786089 1_455
Cs0 Se3 3.786089 1_565
Cs0 Se0 3.786089 1_565
Cs0 Se2 3.876267 1_555
Cs0 Se1 3.876267 1_554
Cs1 Se5 3.667064 1_545
Cs1 Se5 3.667064 1_655
Cs1 Se1 3.786089 1_655
Cs1 Se2 3.786089 1_655
Cs1 Se1 3.786089 1_545
Cs1 Se2 3.786089 1_545
Cs1 Se0 3.876267 1_556
Cs1 Se3 3.876267 1_555
Lu0 Se0 2.831795 1_555
Lu0 Se1 2.831795 1_444
Lu0 Se1 2.831795 1_554
Lu0 Se0 2.831795 1_445
Lu0 Se4 2.858696 1_455
Lu0 Se5 2.858696 1_544
Lu1 Se3 2.831795 1_555
Lu1 Se2 2.831795 1_445
Lu1 Se2 2.831795 1_555
Lu1 Se3 2.831795 1_445
Lu1 Se4 2.858696 1_455
Lu1 Se5 2.858696 1_545
Mn0 Se3 2.481266 1_555
Mn0 Se0 2.481266 1_555
Mn0 Se4 2.558855 1_455
Mn0 Se4 2.558855 1_565
Mn1 Se1 2.481266 1_555
Mn1 Se2 2.481266 1_555
Mn1 Se5 2.558855 1_655
Mn1 Se5 2.558855 1_545
