# generated using pymatgen
data_LiZr6Zn22Ge
_symmetry_space_group_name_H-M   'P 1'
_cell_length_a   8.69656209
_cell_length_b   8.69656137
_cell_length_c   8.69656207
_cell_angle_alpha   60.00000101
_cell_angle_beta   60.00000373
_cell_angle_gamma   59.99999977
_symmetry_Int_Tables_number   1
_chemical_formula_structural   LiZr6Zn22Ge
_chemical_formula_sum   'Li1 Zr6 Zn22 Ge1'
_cell_volume   465.08013057
_cell_formula_units_Z   1
loop_
 _symmetry_equiv_pos_site_id
 _symmetry_equiv_pos_as_xyz
  1  'x, y, z'
loop_
 _atom_site_type_symbol
 _atom_site_label
 _atom_site_symmetry_multiplicity
 _atom_site_fract_x
 _atom_site_fract_y
 _atom_site_fract_z
 _atom_site_occupancy
  Li  Li0  1  0.00000000  0.00000000  0.00000000  1
  Zr  Zr0  1  0.71389095  0.28610905  0.28610905  1
  Zr  Zr1  1  0.28610905  0.71389095  0.71389095  1
  Zr  Zr2  1  0.28610905  0.71389095  0.28610905  1
  Zr  Zr3  1  0.71389095  0.28610905  0.71389095  1
  Zr  Zr4  1  0.28610905  0.28610905  0.71389095  1
  Zr  Zr5  1  0.71389095  0.71389095  0.28610905  1
  Zn  Zn0  1  0.12300012  0.12300012  0.12300012  1
  Zn  Zn1  1  0.87699988  0.87699988  0.87699988  1
  Zn  Zn2  1  0.12300012  0.12300012  0.63100164  1
  Zn  Zn3  1  0.12300012  0.63100164  0.12300012  1
  Zn  Zn4  1  0.87699988  0.87699988  0.36899836  1
  Zn  Zn5  1  0.87699988  0.36899836  0.87699988  1
  Zn  Zn6  1  0.63100164  0.12300012  0.12300012  1
  Zn  Zn7  1  0.36899836  0.87699988  0.87699988  1
  Zn  Zn8  1  0.50000000  0.00000000  0.00000000  1
  Zn  Zn9  1  0.00000000  0.50000000  0.50000000  1
  Zn  Zn10  1  0.00000000  0.50000000  0.00000000  1
  Zn  Zn11  1  0.50000000  0.00000000  0.50000000  1
  Zn  Zn12  1  0.00000000  0.00000000  0.50000000  1
  Zn  Zn13  1  0.50000000  0.50000000  0.00000000  1
  Zn  Zn14  1  0.33423401  0.33423401  0.33423401  1
  Zn  Zn15  1  0.66576599  0.66576599  0.66576599  1
  Zn  Zn16  1  0.33423401  0.33423401  0.99729798  1
  Zn  Zn17  1  0.33423401  0.99729798  0.33423401  1
  Zn  Zn18  1  0.66576599  0.66576599  0.00270202  1
  Zn  Zn19  1  0.66576599  0.00270202  0.66576599  1
  Zn  Zn20  1  0.99729798  0.33423401  0.33423401  1
  Zn  Zn21  1  0.00270202  0.66576599  0.66576599  1
  Ge  Ge0  1  0.50000000  0.50000000  0.50000000  1
loop_
_geom_bond_atom_site_label_1
_geom_bond_atom_site_label_2
_geom_bond_distance
_geom_bond_site_symmetry_2
Li0 Zn5 2.620151 1_454
Li0 Zn3 2.620151 1_545
Li0 Zn7 2.620152 1_544
Li0 Zn6 2.620152 1_455
Li0 Zn4 2.620152 1_445
Li0 Zn2 2.620152 1_554
Li0 Zn0 2.620166 1_555
Li0 Zn1 2.620166 1_444
Zn0 Zn10 2.677269 1_555
Zn0 Zn8 2.677269 1_555
Zn0 Zn12 2.677269 1_555
Zn0 Zn20 2.702311 1_455
Zn0 Zn16 2.702311 1_554
Zn0 Zn17 2.702311 1_545
Zn1 Zn10 2.677269 1_656
Zn1 Zn8 2.677269 1_566
Zn1 Zn12 2.677269 1_665
Zn1 Zn21 2.702311 1_655
Zn1 Zn18 2.702311 1_556
Zn1 Zn19 2.702311 1_565
Zn2 Zn9 2.677269 1_555
Zn2 Zn20 2.702326 1_455
Zn3 Zn9 2.677270 1_555
Zn4 Zn9 2.677269 1_655
Zn5 Zn9 2.677270 1_655
Zn6 Zn8 2.677284 1_555
Zn7 Zn8 2.677284 1_566
Zn8 Zr5 3.106605 1_545
Zn8 Zr4 3.106605 1_554
Zn8 Zr3 3.106605 1_554
Zn8 Zr2 3.106605 1_545
Zn9 Zr4 3.106605 1_555
Zn9 Zr5 3.106605 1_455
Zn9 Zr2 3.106605 1_555
Zn9 Zr3 3.106605 1_455
Zn10 Zn16 2.510555 1_554
Zn10 Zn18 2.510555 1_455
Zn10 Zn20 2.510555 1_455
Zn10 Zn21 2.510555 1_554
Zn10 Zn3 2.677284 1_555
Zn10 Zn5 2.677284 1_454
Zn10 Zr5 3.106605 1_455
Zn10 Zr4 3.106605 1_554
Zn10 Zr1 3.106605 1_554
Zn10 Zr0 3.106605 1_455
Zn11 Zn14 2.510554 1_555
Zn11 Zn15 2.510554 1_545
Zn11 Zn19 2.510554 1_555
Zn11 Zn17 2.510554 1_545
Zn11 Zn4 2.677270 1_545
Zn11 Zn2 2.677270 1_555
Zn11 Zn7 2.677270 1_545
Zn11 Zn6 2.677270 1_555
Zn11 Zr4 3.106605 1_555
Zn11 Zr5 3.106605 1_545
Zn11 Zr0 3.106605 1_555
Zn11 Zr1 3.106605 1_545
Zn12 Zn20 2.510554 1_455
Zn12 Zn21 2.510554 1_545
Zn12 Zn17 2.510555 1_545
Zn12 Zn19 2.510555 1_455
Zn12 Zn2 2.677284 1_555
Zn12 Zn4 2.677284 1_445
Zn12 Zr3 3.106605 1_455
Zn12 Zr1 3.106605 1_545
Zn12 Zr2 3.106605 1_545
Zn12 Zr0 3.106605 1_455
Zn13 Zn18 2.510554 1_555
Zn13 Zn16 2.510554 1_554
Zn13 Zn14 2.510555 1_555
Zn13 Zn15 2.510555 1_554
Zn13 Zn7 2.677269 1_554
Zn13 Zn6 2.677269 1_555
Zn13 Zn5 2.677270 1_554
Zn13 Zn3 2.677270 1_555
Zn13 Zr2 3.106605 1_555
Zn13 Zr0 3.106605 1_555
Zn13 Zr1 3.106605 1_554
Zn13 Zr3 3.106605 1_554
Zn14 Zn9 2.510555 1_555
Zn14 Zn3 2.702316 1_555
Zn14 Zn6 2.702316 1_555
Zn14 Zn2 2.702316 1_555
Zn14 Zn17 2.930185 1_545
Zn14 Zn16 2.930185 1_554
Zn14 Zn20 2.930185 1_455
Zn14 Zr2 2.943314 1_555
Zn14 Zr0 2.943314 1_555
Zn14 Zr4 2.943314 1_555
Zn15 Zn9 2.510555 1_655
Zn15 Zn5 2.702316 1_555
Zn15 Zn7 2.702316 1_555
Zn15 Zn4 2.702316 1_555
Zn15 Zn19 2.930185 1_565
Zn15 Zn18 2.930185 1_556
Zn15 Zn21 2.930185 1_655
Zn15 Zr3 2.943314 1_555
Zn15 Zr1 2.943314 1_555
Zn15 Zr5 2.943314 1_555
Zn16 Zn8 2.510554 1_556
Zn16 Zn3 2.702326 1_556
Zn16 Zn6 2.702326 1_556
Zn16 Zn17 2.930185 1_546
Zn16 Zn20 2.930185 1_456
Zn16 Zr1 2.943314 1_555
Zn16 Zr4 2.943314 1_555
Zn16 Zr3 2.943314 1_555
Zn17 Zn8 2.510555 1_565
Zn17 Zn2 2.702326 1_565
Zn17 Zn6 2.702326 1_565
Zn17 Zn20 2.930185 1_465
Zn17 Zr2 2.943314 1_555
Zn17 Zr5 2.943314 1_555
Zn17 Zr1 2.943314 1_555
Zn18 Zn8 2.510554 1_565
Zn18 Zn5 2.702326 1_554
Zn18 Zn7 2.702326 1_554
Zn18 Zn19 2.930185 1_564
Zn18 Zn21 2.930185 1_654
Zn18 Zr0 2.943314 1_555
Zn18 Zr5 2.943314 1_555
Zn18 Zr2 2.943314 1_555
Zn19 Zn8 2.510555 1_556
Zn19 Zn4 2.702326 1_545
Zn19 Zn7 2.702326 1_545
Zn19 Zn21 2.930185 1_645
Zn19 Zr3 2.943314 1_555
Zn19 Zr4 2.943314 1_555
Zn19 Zr0 2.943314 1_555
Zn20 Zn9 2.510554 1_655
Zn20 Zn3 2.702326 1_655
Zn20 Zr5 2.943314 1_555
Zn20 Zr0 2.943314 1_555
Zn20 Zr3 2.943314 1_555
Zn21 Zn9 2.510554 1_555
Zn21 Zn5 2.702326 1_455
Zn21 Zn4 2.702326 1_455
Zn21 Zr4 2.943314 1_555
Zn21 Zr1 2.943314 1_555
Zn21 Zr2 2.943314 1_555
Ge0 Zr3 2.630601 1_555
Ge0 Zr1 2.630601 1_555
Ge0 Zr0 2.630601 1_555
Ge0 Zr2 2.630601 1_555
Ge0 Zr5 2.630601 1_555
Ge0 Zr4 2.630601 1_555
