# generated using pymatgen
data_Zr2Te4I2O11
_symmetry_space_group_name_H-M   'P 1'
_cell_length_a   7.87065537
_cell_length_b   10.14846222
_cell_length_c   11.16099571
_cell_angle_alpha   116.05651540
_cell_angle_beta   105.72852273
_cell_angle_gamma   99.22791846
_symmetry_Int_Tables_number   1
_chemical_formula_structural   Zr2Te4I2O11
_chemical_formula_sum   'Zr4 Te8 I4 O22'
_cell_volume   729.52833535
_cell_formula_units_Z   2
loop_
 _symmetry_equiv_pos_site_id
 _symmetry_equiv_pos_as_xyz
  1  'x, y, z'
loop_
 _atom_site_type_symbol
 _atom_site_label
 _atom_site_symmetry_multiplicity
 _atom_site_fract_x
 _atom_site_fract_y
 _atom_site_fract_z
 _atom_site_occupancy
  Zr  Zr0  1  0.88695448  0.11124246  0.61885513  1
  Zr  Zr1  1  0.11304552  0.88875754  0.38114487  1
  Zr  Zr2  1  0.62497400  0.38966866  0.89183747  1
  Zr  Zr3  1  0.37502600  0.61033134  0.10816253  1
  Te  Te0  1  0.24449095  0.01484037  0.77412770  1
  Te  Te1  1  0.75550905  0.98515963  0.22587230  1
  Te  Te2  1  0.49455240  0.25594855  0.49160191  1
  Te  Te3  1  0.50544760  0.74405145  0.50839809  1
  Te  Te4  1  0.76969813  0.48444052  0.24396096  1
  Te  Te5  1  0.23030187  0.51555948  0.75603904  1
  Te  Te6  1  0.97698463  0.24301345  0.98168358  1
  Te  Te7  1  0.02301537  0.75698655  0.01831642  1
  I  I0  1  0.10214666  0.37185917  0.36037010  1
  I  I1  1  0.89785334  0.62814083  0.63962990  1
  I  I2  1  0.63251587  0.87542994  0.88751004  1
  I  I3  1  0.36748413  0.12457006  0.11248996  1
  O  O0  1  0.51364693  0.34887530  0.68270834  1
  O  O1  1  0.48635307  0.65112470  0.31729166  1
  O  O2  1  0.67462377  0.15816990  0.50312225  1
  O  O3  1  0.32537623  0.84183010  0.49687775  1
  O  O4  1  0.06822451  0.12265420  0.81909582  1
  O  O5  1  0.93177549  0.87734580  0.18090418  1
  O  O6  1  0.58515111  0.49824987  0.10113626  1
  O  O7  1  0.41484889  0.50175013  0.89886374  1
  O  O8  1  0.81983999  0.37568967  0.07112049  1
  O  O9  1  0.18016001  0.62431033  0.92887951  1
  O  O10  1  0.81574844  0.24572253  0.81888031  1
  O  O11  1  0.18425156  0.75427747  0.18111969  1
  O  O12  1  0.10875420  0.99869052  0.59418314  1
  O  O13  1  0.89124580  0.00130948  0.40581686  1
  O  O14  1  0.93167515  0.67842187  0.31833668  1
  O  O15  1  0.06832485  0.32157813  0.68166332  1
  O  O16  1  0.71004678  0.91615559  0.58052890  1
  O  O17  1  0.28995322  0.08384441  0.41947110  1
  O  O18  1  0.16976351  0.41981247  0.04920111  1
  O  O19  1  0.83023649  0.58018753  0.95079889  1
  O  O20  1  0.44211852  0.18278215  0.83309199  1
  O  O21  1  0.55788148  0.81721785  0.16690801  1
loop_
_geom_bond_atom_site_label_1
_geom_bond_atom_site_label_2
_geom_bond_distance
_geom_bond_site_symmetry_2
I0 Te4 3.203079 1_455
I1 Te5 3.203079 1_655
I2 Te1 3.227469 1_556
I3 Te0 3.227469 1_554
O0 Te2 1.864136 1_555
O0 Zr2 2.076793 1_555
O1 Te3 1.864136 1_555
O1 Zr3 2.076793 1_555
O2 Te2 1.863928 1_555
O2 Zr0 2.076892 1_555
O3 Te3 1.863928 1_555
O3 Zr1 2.076892 1_555
O4 Te0 1.937950 1_555
O4 Te6 2.083547 1_455
O4 Zr0 2.243784 1_455
O5 Te1 1.937950 1_555
O5 Te7 2.083547 1_655
O5 Zr1 2.243784 1_655
O6 Te4 1.917471 1_555
O6 Zr3 2.151828 1_555
O6 Zr2 2.239566 1_554
O7 Te5 1.917471 1_555
O7 Zr2 2.151828 1_555
O7 Zr3 2.239566 1_556
O8 Te4 1.943496 1_555
O8 Te6 2.088499 1_554
O8 Zr2 2.243134 1_554
O9 Te5 1.943496 1_555
O9 Te7 2.088499 1_556
O9 Zr3 2.243134 1_556
O10 Te6 1.928154 1_555
O10 Zr2 2.317972 1_555
O10 Zr0 2.325428 1_555
O11 Te7 1.928154 1_555
O11 Zr3 2.317972 1_555
O11 Zr1 2.325428 1_555
O12 Te0 1.921751 1_565
O12 Zr1 2.150477 1_555
O12 Zr0 2.247629 1_465
O13 Te1 1.921751 1_545
O13 Zr0 2.150477 1_555
O13 Zr1 2.247629 1_645
O14 Te4 1.837248 1_555
O14 Zr1 2.061853 1_655
O15 Te5 1.837248 1_555
O15 Zr0 2.061853 1_455
O16 Te3 1.857863 1_555
O16 Zr0 2.022469 1_565
O17 Te2 1.857863 1_555
O17 Zr1 2.022469 1_545
O18 Te6 1.846210 1_454
O18 Zr3 2.021232 1_555
O19 Te7 1.846210 1_656
O19 Zr2 2.021232 1_555
O20 Te0 1.834871 1_555
O20 Zr2 2.054095 1_555
O21 Te1 1.834871 1_555
O21 Zr3 2.054095 1_555
