# generated using pymatgen
data_LiCa2AgRh
_symmetry_space_group_name_H-M   'P 1'
_cell_length_a   5.72070863
_cell_length_b   5.72070895
_cell_length_c   5.72070967
_cell_angle_alpha   135.86973905
_cell_angle_beta   119.60703514
_cell_angle_gamma   77.77172309
_symmetry_Int_Tables_number   1
_chemical_formula_structural   LiCa2AgRh
_chemical_formula_sum   'Li1 Ca2 Ag1 Rh1'
_cell_volume   110.14024897
_cell_formula_units_Z   1
loop_
 _symmetry_equiv_pos_site_id
 _symmetry_equiv_pos_as_xyz
  1  'x, y, z'
loop_
 _atom_site_type_symbol
 _atom_site_label
 _atom_site_symmetry_multiplicity
 _atom_site_fract_x
 _atom_site_fract_y
 _atom_site_fract_z
 _atom_site_occupancy
  Li  Li0  1  0.97826438  1.00000000  0.97826438  1
  Ca  Ca0  1  0.71185627  0.19715280  0.51470347  1
  Ca  Ca1  1  0.31754968  0.80284720  0.51470347  1
  Ag  Ag0  1  0.25610026  0.50000000  0.75610026  1
  Rh  Rh0  1  0.73622940  0.50000000  0.23622940  1
loop_
_geom_bond_atom_site_label_1
_geom_bond_atom_site_label_2
_geom_bond_distance
_geom_bond_site_symmetry_2
Li0 Rh0 2.560929 1_555
Li0 Rh0 2.560929 1_566
Ca0 Rh0 3.053929 1_545
Ca0 Rh0 3.053930 1_556
Ca0 Rh0 3.137308 1_555
Ca0 Li0 3.193624 1_545
Ca0 Li0 3.454993 1_555
Ca0 Li0 3.454994 1_544
Ca0 Ca1 3.511681 1_545
Ca0 Li0 3.551432 1_444
Ca0 Ca1 3.712605 1_645
Ca0 Ca1 3.712607 1_656
Ca0 Ca1 3.712610 1_544
Ca0 Ca1 3.712612 1_555
Ca1 Rh0 3.053931 1_566
Ca1 Rh0 3.053935 1_555
Ca1 Rh0 3.137302 1_455
Ca1 Li0 3.193628 1_555
Ca1 Li0 3.454989 1_455
Ca1 Li0 3.454991 1_444
Ca1 Li0 3.551432 1_454
Ag0 Li0 2.678564 1_444
Ag0 Li0 2.678564 1_455
Ag0 Rh0 2.762977 1_556
Ag0 Rh0 2.991677 1_455
Ag0 Ca1 3.033868 1_555
Ag0 Ca0 3.033871 1_455
Ag0 Ca0 3.148970 1_566
Ag0 Ca1 3.148970 1_545
Ag0 Ca0 3.148970 1_555
Ag0 Ca1 3.148973 1_556
