# generated using pymatgen
data_SrCa(Ga3Pd)2
_symmetry_space_group_name_H-M   'P 1'
_cell_length_a   6.10757319
_cell_length_b   6.10757314
_cell_length_c   5.87977701
_cell_angle_alpha   90.00000000
_cell_angle_beta   90.00000000
_cell_angle_gamma   116.68741679
_symmetry_Int_Tables_number   1
_chemical_formula_structural   SrCa(Ga3Pd)2
_chemical_formula_sum   'Sr1 Ca1 Ga6 Pd2'
_cell_volume   195.96486347
_cell_formula_units_Z   1
loop_
 _symmetry_equiv_pos_site_id
 _symmetry_equiv_pos_as_xyz
  1  'x, y, z'
loop_
 _atom_site_type_symbol
 _atom_site_label
 _atom_site_symmetry_multiplicity
 _atom_site_fract_x
 _atom_site_fract_y
 _atom_site_fract_z
 _atom_site_occupancy
  Sr  Sr0  1  0.76624636  0.23375364  0.25000000  1
  Ca  Ca0  1  0.23181035  0.76818965  0.75000000  1
  Ga  Ga0  1  0.66317006  0.33682994  0.75000000  1
  Ga  Ga1  1  0.33651985  0.66348015  0.25000000  1
  Ga  Ga2  1  0.71677515  0.71618319  0.99862325  1
  Ga  Ga3  1  0.71677515  0.71618319  0.50137675  1
  Ga  Ga4  1  0.28381681  0.28322485  0.99862325  1
  Ga  Ga5  1  0.28381681  0.28322485  0.50137675  1
  Pd  Pd0  1  0.90357180  0.09642820  0.75000000  1
  Pd  Pd1  1  0.09749765  0.90250235  0.25000000  1
loop_
_geom_bond_atom_site_label_1
_geom_bond_atom_site_label_2
_geom_bond_distance
_geom_bond_site_symmetry_2
Ca0 Ga1 3.135010 1_555
Ca0 Ga1 3.135010 1_556
Ca0 Pd1 3.254730 1_556
Ca0 Pd1 3.254730 1_555
Ca0 Ga0 3.283885 1_565
Ca0 Ga0 3.283885 1_455
Ca0 Ga4 3.351911 1_565
Ca0 Ga5 3.351911 1_565
Ca0 Ga2 3.351911 1_455
Ca0 Ga3 3.351911 1_455
Ca0 Pd0 3.412918 1_465
Ca0 Ga4 3.443279 1_555
Ca0 Ga5 3.443279 1_555
Ca0 Ga2 3.443279 1_555
Ca0 Ga3 3.443279 1_555
Ca0 Pd0 3.669338 1_455
Ca0 Pd0 3.669338 1_565
Ga0 Pd0 2.499619 1_555
Ga0 Ga2 2.632675 1_555
Ga0 Ga3 2.632675 1_555
Ga0 Ga4 2.632675 1_555
Ga0 Ga5 2.632675 1_555
Ga0 Sr0 3.129153 1_555
Ga0 Sr0 3.129153 1_556
Ga1 Pd1 2.485275 1_555
Ga1 Ga5 2.647722 1_555
Ga1 Ga4 2.647722 1_554
Ga1 Ga3 2.647722 1_555
Ga1 Ga2 2.647722 1_554
Ga1 Sr0 3.287618 1_565
Ga1 Sr0 3.287618 1_455
Ga2 Pd0 2.540095 1_565
Ga2 Pd1 2.551410 1_656
Ga2 Ga4 2.775602 1_555
Ga2 Ga3 2.923699 1_555
Ga2 Ga3 2.956079 1_556
Ga2 Sr0 3.377944 1_566
Ga2 Sr0 3.428890 1_556
Ga3 Pd0 2.540095 1_565
Ga3 Pd1 2.551410 1_655
Ga3 Ga5 2.775602 1_555
Ga3 Sr0 3.377944 1_565
Ga3 Sr0 3.428890 1_555
Ga4 Pd0 2.540095 1_455
Ga4 Pd1 2.551410 1_546
Ga4 Ga5 2.923699 1_555
Ga4 Ga5 2.956079 1_556
Ga4 Sr0 3.377944 1_456
Ga4 Sr0 3.428890 1_556
Ga5 Pd0 2.540095 1_455
Ga5 Pd1 2.551410 1_545
Ga5 Sr0 3.377944 1_455
Ga5 Sr0 3.428890 1_555
Pd0 Sr0 3.268294 1_555
Pd0 Sr0 3.268294 1_556
Pd1 Sr0 3.444244 1_465
Pd1 Sr0 3.654194 1_455
Pd1 Sr0 3.654194 1_565
