# generated using pymatgen
data_VCd2(Ni10B3)2
_symmetry_space_group_name_H-M   'P 1'
_cell_length_a   7.43146423
_cell_length_b   7.43146405
_cell_length_c   7.43146345
_cell_angle_alpha   60.00000268
_cell_angle_beta   60.00000349
_cell_angle_gamma   60.00000403
_symmetry_Int_Tables_number   1
_chemical_formula_structural   VCd2(Ni10B3)2
_chemical_formula_sum   'V1 Cd2 Ni20 B6'
_cell_volume   290.20718097
_cell_formula_units_Z   1
loop_
 _symmetry_equiv_pos_site_id
 _symmetry_equiv_pos_as_xyz
  1  'x, y, z'
loop_
 _atom_site_type_symbol
 _atom_site_label
 _atom_site_symmetry_multiplicity
 _atom_site_fract_x
 _atom_site_fract_y
 _atom_site_fract_z
 _atom_site_occupancy
  V  V0  1  0.00000000  0.00000000  0.00000000  1
  Cd  Cd0  1  0.75000000  0.75000000  0.75000000  1
  Cd  Cd1  1  0.25000000  0.25000000  0.25000000  1
  Ni  Ni0  1  0.61344472  0.61344472  0.15966483  1
  Ni  Ni1  1  0.61344472  0.15966483  0.61344472  1
  Ni  Ni2  1  0.15966483  0.61344472  0.61344472  1
  Ni  Ni3  1  0.61344472  0.61344472  0.61344472  1
  Ni  Ni4  1  0.38655528  0.38655528  0.84033517  1
  Ni  Ni5  1  0.38655528  0.84033517  0.38655528  1
  Ni  Ni6  1  0.84033517  0.38655528  0.38655528  1
  Ni  Ni7  1  0.38655528  0.38655528  0.38655528  1
  Ni  Ni8  1  0.00000000  0.00000000  0.33539030  1
  Ni  Ni9  1  0.66460970  0.00000000  0.33539030  1
  Ni  Ni10  1  0.00000000  0.66460970  0.33539030  1
  Ni  Ni11  1  0.66460970  0.33539030  0.00000000  1
  Ni  Ni12  1  1.00000000  0.33539030  1.00000000  1
  Ni  Ni13  1  1.00000000  0.33539030  0.66460970  1
  Ni  Ni14  1  0.33539030  0.66460970  1.00000000  1
  Ni  Ni15  1  0.33539030  1.00000000  0.66460970  1
  Ni  Ni16  1  0.33539030  1.00000000  1.00000000  1
  Ni  Ni17  1  0.00000000  0.00000000  0.66460970  1
  Ni  Ni18  1  0.00000000  0.66460970  0.00000000  1
  Ni  Ni19  1  0.66460970  0.00000000  0.00000000  1
  B  B0  1  0.72737833  0.72737833  0.27262167  1
  B  B1  1  0.27262167  0.72737833  0.27262167  1
  B  B2  1  0.72737833  0.27262167  0.27262167  1
  B  B3  1  0.27262167  0.27262167  0.72737833  1
  B  B4  1  0.72737833  0.27262167  0.72737833  1
  B  B5  1  0.27262167  0.72737833  0.72737833  1
loop_
_geom_bond_atom_site_label_1
_geom_bond_atom_site_label_2
_geom_bond_distance
_geom_bond_site_symmetry_2
Cd0 Ni0 2.485750 1_556
Cd0 Ni1 2.485750 1_565
Cd0 Ni2 2.485750 1_655
Cd0 Ni3 2.485756 1_555
Cd1 Ni4 2.485750 1_554
Cd1 Ni5 2.485750 1_545
Cd1 Ni6 2.485750 1_455
Cd1 Ni7 2.485756 1_555
Ni8 V0 2.492441 1_555
Ni9 V0 2.492441 1_655
Ni10 V0 2.492441 1_565
Ni11 V0 2.492441 1_655
Ni12 V0 2.492441 1_656
Ni13 V0 2.492441 1_656
Ni14 V0 2.492441 1_566
Ni15 V0 2.492441 1_566
Ni16 V0 2.492441 1_566
Ni17 V0 2.492441 1_556
Ni18 V0 2.492441 1_565
Ni19 V0 2.492441 1_655
B0 Ni3 2.068038 1_555
B0 Ni6 2.068039 1_555
B0 Ni5 2.068039 1_555
B0 Ni0 2.068044 1_555
B0 Ni19 2.078984 1_565
B0 Ni9 2.078984 1_565
B0 Ni18 2.078984 1_655
B0 Ni10 2.078984 1_655
B1 Ni2 2.068038 1_555
B1 Ni7 2.068039 1_555
B1 Ni0 2.068039 1_555
B1 Ni5 2.068044 1_555
B1 Ni14 2.078984 1_554
B1 Ni16 2.078984 1_554
B1 Ni10 2.078984 1_555
B1 Ni8 2.078984 1_565
B2 Ni1 2.068038 1_555
B2 Ni0 2.068039 1_555
B2 Ni7 2.068039 1_555
B2 Ni6 2.068044 1_555
B2 Ni11 2.078984 1_555
B2 Ni9 2.078984 1_555
B2 Ni12 2.078984 1_554
B2 Ni8 2.078984 1_655
B3 Ni7 2.068038 1_555
B3 Ni2 2.068039 1_555
B3 Ni1 2.068039 1_555
B3 Ni4 2.068044 1_555
B3 Ni16 2.078984 1_545
B3 Ni15 2.078984 1_545
B3 Ni12 2.078984 1_455
B3 Ni13 2.078984 1_455
B4 Ni6 2.068038 1_555
B4 Ni3 2.068039 1_555
B4 Ni4 2.068039 1_555
B4 Ni1 2.068044 1_555
B4 Ni11 2.078984 1_556
B4 Ni19 2.078984 1_556
B4 Ni13 2.078984 1_555
B4 Ni17 2.078984 1_655
B5 Ni5 2.068038 1_555
B5 Ni4 2.068039 1_555
B5 Ni3 2.068039 1_555
B5 Ni2 2.068044 1_555
B5 Ni14 2.078984 1_555
B5 Ni15 2.078984 1_555
B5 Ni18 2.078984 1_556
B5 Ni17 2.078984 1_565
