# generated using pymatgen
data_Zr10In4Sn2P
_symmetry_space_group_name_H-M   'P 1'
_cell_length_a   5.87283637
_cell_length_b   8.59535719
_cell_length_c   8.60373822
_cell_angle_alpha   119.96778773
_cell_angle_beta   90.12457448
_cell_angle_gamma   89.75060035
_symmetry_Int_Tables_number   1
_chemical_formula_structural   Zr10In4Sn2P
_chemical_formula_sum   'Zr10 In4 Sn2 P1'
_cell_volume   376.24125334
_cell_formula_units_Z   1
loop_
 _symmetry_equiv_pos_site_id
 _symmetry_equiv_pos_as_xyz
  1  'x, y, z'
loop_
 _atom_site_type_symbol
 _atom_site_label
 _atom_site_symmetry_multiplicity
 _atom_site_fract_x
 _atom_site_fract_y
 _atom_site_fract_z
 _atom_site_occupancy
  Zr  Zr0  1  0.49976822  0.33340591  0.66505200  1
  Zr  Zr1  1  0.49976822  0.66835390  0.33494800  1
  Zr  Zr2  1  0.99921119  0.66612008  0.33246232  1
  Zr  Zr3  1  0.99921119  0.33365776  0.66753768  1
  Zr  Zr4  1  0.76282868  0.24279550  1.00000000  1
  Zr  Zr5  1  0.75507442  0.75328201  0.75386962  1
  Zr  Zr6  1  0.75507442  0.99941139  0.24613038  1
  Zr  Zr7  1  0.24190609  0.75802317  0.00000000  1
  Zr  Zr8  1  0.24271692  0.24554509  0.24606706  1
  Zr  Zr9  1  0.24271692  0.99947803  0.75393294  1
  In  In0  1  0.74880527  0.60436503  1.00000000  1
  In  In1  1  0.74964002  0.39310940  0.39311403  1
  In  In2  1  0.74964002  0.99999538  0.60688597  1
  In  In3  1  0.25360466  0.39475329  1.00000000  1
  Sn  Sn0  1  0.24928367  0.60605760  0.60595310  1
  Sn  Sn1  1  0.24928367  0.00010450  0.39404690  1
  P  P0  1  0.50146440  0.00154694  0.00000000  1
loop_
_geom_bond_atom_site_label_1
_geom_bond_atom_site_label_2
_geom_bond_distance
_geom_bond_site_symmetry_2
In0 Zr6 2.972000 1_556
In0 Zr5 2.972007 1_555
In0 Zr3 3.016297 1_555
In0 Zr2 3.016297 1_556
In0 Zr1 3.028899 1_556
In0 Zr0 3.028899 1_555
In0 Zr4 3.108552 1_555
In0 Zr7 3.188088 1_656
In0 Zr7 3.251506 1_556
In1 Zr4 2.957961 1_554
In1 Zr6 2.962354 1_545
In1 Zr0 3.018587 1_555
In1 Zr1 3.024962 1_555
In1 Zr3 3.027839 1_555
In1 Zr2 3.030482 1_555
In1 Zr5 3.101580 1_555
In1 Zr8 3.158423 1_655
In1 Zr8 3.238168 1_555
In2 Zr4 2.957961 1_565
In2 Zr5 2.962346 1_555
In2 Zr1 3.018587 1_555
In2 Zr0 3.024962 1_565
In2 Zr2 3.027838 1_555
In2 Zr3 3.030482 1_565
In2 Zr6 3.101576 1_555
In2 Zr9 3.158423 1_655
In2 Zr9 3.238168 1_555
In3 Zr9 2.974023 1_545
In3 Zr8 2.974024 1_556
In3 Zr0 3.027575 1_555
In3 Zr1 3.027575 1_556
In3 Zr2 3.029427 1_456
In3 Zr3 3.029427 1_455
In3 Zr7 3.122891 1_556
In3 Zr4 3.169558 1_455
In3 Zr4 3.258159 1_555
Sn0 Zr9 2.958973 1_555
Sn0 Zr7 2.962784 1_556
Sn0 Zr0 3.011962 1_555
Sn0 Zr2 3.025259 1_455
Sn0 Zr1 3.025955 1_555
Sn0 Zr3 3.031893 1_455
Sn0 Zr8 3.099382 1_555
Sn0 Zr5 3.165461 1_455
Sn0 Zr5 3.232923 1_555
Sn1 Zr8 2.958973 1_555
Sn1 Zr7 2.962784 1_545
Sn1 Zr1 3.011962 1_545
Sn1 Zr3 3.025258 1_455
Sn1 Zr0 3.025955 1_555
Sn1 Zr2 3.031893 1_445
Sn1 Zr9 3.099383 1_545
Sn1 Zr6 3.165459 1_445
Sn1 Zr6 3.232921 1_545
P0 Zr4 2.585279 1_554
P0 Zr5 2.593828 1_544
P0 Zr6 2.593832 1_545
P0 Zr7 2.594760 1_545
P0 Zr8 2.596185 1_555
P0 Zr9 2.596185 1_544
