# generated using pymatgen
data_Ba2Cu2P4Pd
_symmetry_space_group_name_H-M   'P 1'
_cell_length_a   8.42209380
_cell_length_b   8.42209309
_cell_length_c   8.42209349
_cell_angle_alpha   136.76520423
_cell_angle_beta   112.21557457
_cell_angle_gamma   83.87803323
_symmetry_Int_Tables_number   1
_chemical_formula_structural   Ba2Cu2P4Pd
_chemical_formula_sum   'Ba4 Cu4 P8 Pd2'
_cell_volume   365.16152355
_cell_formula_units_Z   2
loop_
 _symmetry_equiv_pos_site_id
 _symmetry_equiv_pos_as_xyz
  1  'x, y, z'
loop_
 _atom_site_type_symbol
 _atom_site_label
 _atom_site_symmetry_multiplicity
 _atom_site_fract_x
 _atom_site_fract_y
 _atom_site_fract_z
 _atom_site_occupancy
  Ba  Ba0  1  0.09624463  0.89282885  0.20341578  1
  Ba  Ba1  1  0.90375537  0.10717115  0.79658422  1
  Ba  Ba2  1  0.31058793  0.60717115  0.70341578  1
  Ba  Ba3  1  0.68941207  0.39282885  0.29658422  1
  Cu  Cu0  1  0.27829361  0.02829361  0.75000000  1
  Cu  Cu1  1  0.72170639  0.47170639  0.75000000  1
  Cu  Cu2  1  0.27829361  0.52829361  0.25000000  1
  Cu  Cu3  1  0.72170639  0.97170639  0.25000000  1
  P  P0  1  0.49380792  0.12794805  0.36585887  1
  P  P1  1  0.50619208  0.87205195  0.63414113  1
  P  P2  1  0.23791083  0.37205195  0.86585887  1
  P  P3  1  0.76208917  0.62794805  0.13414113  1
  P  P4  1  0.97117832  0.33739099  0.63378733  1
  P  P5  1  0.02882168  0.66260901  0.36621267  1
  P  P6  1  0.70360366  0.83739099  0.86621267  1
  P  P7  1  0.29639634  0.16260901  0.13378733  1
  Pd  Pd0  1  0.50000000  0.75000000  0.25000000  1
  Pd  Pd1  1  0.50000000  0.25000000  0.75000000  1
loop_
_geom_bond_atom_site_label_1
_geom_bond_atom_site_label_2
_geom_bond_distance
_geom_bond_site_symmetry_2
Ba0 P6 3.242576 1_454
Ba0 P4 3.246124 1_465
Ba0 P4 3.246125 1_454
Ba0 Cu3 3.264135 1_455
Ba0 Cu1 3.264135 1_454
Ba0 P5 3.264815 1_555
Ba0 P0 3.317655 1_565
Ba0 P3 3.382051 1_455
Ba0 P7 3.442941 1_565
Ba0 Pd0 3.459838 1_555
Ba0 Pd1 3.459838 1_565
Ba0 P2 3.467413 1_554
Ba0 P2 3.467413 1_565
Ba0 Cu2 3.496683 1_555
Ba0 Cu0 3.496683 1_565
Ba1 P7 3.242576 1_656
Ba1 P5 3.246124 1_645
Ba1 P5 3.246125 1_656
Ba1 Cu0 3.264135 1_655
Ba1 Cu2 3.264135 1_656
Ba1 P4 3.264815 1_555
Ba1 P1 3.317655 1_545
Ba1 P2 3.382051 1_655
Ba1 P6 3.442941 1_545
Ba1 Pd1 3.459838 1_555
Ba1 Pd0 3.459838 1_545
Ba1 P3 3.467413 1_556
Ba1 P3 3.467413 1_545
Ba1 Cu1 3.496683 1_555
Ba1 Cu3 3.496683 1_545
Ba2 P5 3.242579 1_555
Ba2 P7 3.246121 1_555
Ba2 P7 3.246127 1_566
Ba2 Cu2 3.264132 1_555
Ba2 Cu0 3.264134 1_565
Ba2 P6 3.264807 1_555
Ba2 P2 3.317651 1_555
Ba2 P1 3.382040 1_555
Ba2 P4 3.442948 1_455
Ba2 Pd1 3.459835 1_555
Ba2 Pd0 3.459838 1_556
Ba2 P0 3.467413 1_555
Ba2 P0 3.467413 1_566
Ba2 Cu1 3.496675 1_555
Ba2 Cu3 3.496678 1_556
Ba3 P4 3.242579 1_555
Ba3 P6 3.246121 1_555
Ba3 P6 3.246127 1_544
Ba3 Cu1 3.264132 1_555
Ba3 Cu3 3.264134 1_545
Ba3 P7 3.264807 1_555
Ba3 P3 3.317651 1_555
Ba3 P0 3.382040 1_555
Ba3 P5 3.442948 1_655
Ba3 Pd0 3.459835 1_555
Ba3 Pd1 3.459838 1_554
Ba3 P1 3.467413 1_555
Ba3 P1 3.467413 1_544
Ba3 Cu2 3.496675 1_555
Ba3 Cu0 3.496678 1_554
Cu0 P1 2.318259 1_545
Cu0 P2 2.318266 1_555
Cu0 P7 2.467175 1_556
Cu0 P5 2.467175 1_545
Cu0 Pd1 2.777906 1_555
Cu1 P0 2.318263 1_555
Cu1 P3 2.318266 1_556
Cu1 P6 2.467175 1_555
Cu1 P4 2.467175 1_555
Cu1 Pd1 2.777906 1_555
Cu2 P1 2.318263 1_555
Cu2 P2 2.318266 1_554
Cu2 P7 2.467175 1_555
Cu2 P5 2.467175 1_555
Cu2 Pd0 2.777906 1_555
Cu3 P0 2.318259 1_565
Cu3 P3 2.318266 1_555
Cu3 P6 2.467175 1_554
Cu3 P4 2.467175 1_565
Cu3 Pd0 2.777906 1_555
P0 P7 2.222661 1_555
P0 Pd0 2.562103 1_545
P0 Pd1 2.562107 1_555
P1 P6 2.222661 1_555
P1 Pd1 2.562103 1_565
P1 Pd0 2.562107 1_555
P2 P4 2.222658 1_455
P2 Pd1 2.562103 1_555
P2 Pd0 2.562103 1_556
P3 P5 2.222658 1_655
P3 Pd0 2.562103 1_555
P3 Pd1 2.562103 1_554
