# generated using pymatgen
data_Hf4Zr6Sn6S
_symmetry_space_group_name_H-M   'P 1'
_cell_length_a   5.78877322
_cell_length_b   8.51625989
_cell_length_c   8.51627891
_cell_angle_alpha   120.00001352
_cell_angle_beta   90.00016696
_cell_angle_gamma   89.99970601
_symmetry_Int_Tables_number   1
_chemical_formula_structural   Hf4Zr6Sn6S
_chemical_formula_sum   'Hf4 Zr6 Sn6 S1'
_cell_volume   363.59331643
_cell_formula_units_Z   1
loop_
 _symmetry_equiv_pos_site_id
 _symmetry_equiv_pos_as_xyz
  1  'x, y, z'
loop_
 _atom_site_type_symbol
 _atom_site_label
 _atom_site_symmetry_multiplicity
 _atom_site_fract_x
 _atom_site_fract_y
 _atom_site_fract_z
 _atom_site_occupancy
  Hf  Hf0  1  0.49999987  0.33333385  0.66666605  1
  Hf  Hf1  1  0.49999984  0.66666742  0.33333435  1
  Hf  Hf2  1  1.00000000  0.66666634  0.33333201  1
  Hf  Hf3  1  0.00000056  0.33333565  0.66666941  1
  Zr  Zr0  1  0.75704512  0.25095151  0.00003573  1
  Zr  Zr1  1  0.75703532  0.74908038  0.74904657  1
  Zr  Zr2  1  0.75703741  0.99996020  0.25091614  1
  Zr  Zr3  1  0.24295864  0.74908430  0.00003524  1
  Zr  Zr4  1  0.24296234  0.25095684  0.25091819  1
  Zr  Zr5  1  0.24296274  0.99996564  0.74904547  1
  Sn  Sn0  1  0.75065406  0.60497930  0.00001921  1
  Sn  Sn1  1  0.75065758  0.39503806  0.39501880  1
  Sn  Sn2  1  0.75065687  0.99997908  0.60496199  1
  Sn  Sn3  1  0.24934770  0.39503947  0.00001920  1
  Sn  Sn4  1  0.24934234  0.60498448  0.60496263  1
  Sn  Sn5  1  0.24934240  0.99998036  0.39501829  1
  S  S0  1  0.49999921  0.00000112  0.99999970  1
loop_
_geom_bond_atom_site_label_1
_geom_bond_atom_site_label_2
_geom_bond_distance
_geom_bond_site_symmetry_2
Hf0 Sn0 2.991507 1_556
Hf0 Sn3 2.991510 1_556
Hf0 Sn1 2.991518 1_555
Hf0 Sn4 2.991523 1_555
Hf0 Sn5 2.991524 1_545
Hf0 Sn2 2.991524 1_545
Hf1 Sn5 2.991270 1_555
Hf1 Sn2 2.991271 1_555
Hf1 Sn3 2.991275 1_555
Hf1 Sn4 2.991276 1_555
Hf1 Sn1 2.991277 1_555
Hf1 Sn0 2.991281 1_555
Hf2 Sn2 2.987593 1_555
Hf2 Sn4 2.987593 1_655
Hf2 Sn0 2.987595 1_555
Hf2 Sn5 2.987599 1_655
Hf2 Sn3 2.987602 1_655
Hf2 Sn1 2.987607 1_555
Hf3 Sn0 2.987819 1_456
Hf3 Sn3 2.987827 1_556
Hf3 Sn1 2.987841 1_455
Hf3 Sn5 2.987847 1_545
Hf3 Sn4 2.987852 1_555
Hf3 Sn2 2.987862 1_445
Sn0 Zr2 2.948626 1_555
Sn0 Zr1 2.949345 1_554
Sn0 Zr0 3.015290 1_555
Sn0 Zr3 3.102831 1_655
Sn0 Zr3 3.184844 1_555
Sn1 Zr0 2.948646 1_555
Sn1 Zr2 2.949370 1_545
Sn1 Zr1 3.015283 1_555
Sn1 Zr4 3.102804 1_655
Sn1 Zr4 3.184832 1_555
Sn2 Zr1 2.948645 1_555
Sn2 Zr0 2.949346 1_566
Sn2 Zr2 3.015299 1_555
Sn2 Zr5 3.102807 1_655
Sn2 Zr5 3.184825 1_555
Sn3 Zr4 2.948638 1_555
Sn3 Zr5 2.949343 1_544
Sn3 Zr3 3.015296 1_555
Sn3 Zr0 3.102818 1_455
Sn3 Zr0 3.184853 1_555
Sn4 Zr5 2.948628 1_555
Sn4 Zr3 2.949340 1_556
Sn4 Zr4 3.015292 1_555
Sn4 Zr1 3.102813 1_455
Sn4 Zr1 3.184817 1_555
Sn5 Zr3 2.948644 1_555
Sn5 Zr4 2.949366 1_565
Sn5 Zr5 3.015283 1_555
Sn5 Zr2 3.102809 1_455
Sn5 Zr2 3.184836 1_555
S0 Zr5 2.604010 1_545
S0 Zr1 2.604010 1_545
S0 Zr4 2.604014 1_556
S0 Zr3 2.604016 1_546
S0 Zr0 2.604018 1_556
S0 Zr2 2.604018 1_546
