# generated using pymatgen
data_HfZrTa3Os
_symmetry_space_group_name_H-M   'P 1'
_cell_length_a   5.56994817
_cell_length_b   5.56994784
_cell_length_c   5.35511025
_cell_angle_alpha   58.66378358
_cell_angle_beta   58.66378239
_cell_angle_gamma   59.99999980
_symmetry_Int_Tables_number   1
_chemical_formula_structural   HfZrTa3Os
_chemical_formula_sum   'Hf1 Zr1 Ta3 Os1'
_cell_volume   115.04889310
_cell_formula_units_Z   1
loop_
 _symmetry_equiv_pos_site_id
 _symmetry_equiv_pos_as_xyz
  1  'x, y, z'
loop_
 _atom_site_type_symbol
 _atom_site_label
 _atom_site_symmetry_multiplicity
 _atom_site_fract_x
 _atom_site_fract_y
 _atom_site_fract_z
 _atom_site_occupancy
  Hf  Hf0  1  0.24962111  0.24962111  0.25113767  1
  Zr  Zr0  1  0.99983269  0.99983269  0.00050293  1
  Ta  Ta0  1  0.62512003  0.12530813  0.62445181  1
  Ta  Ta1  1  0.12530813  0.62512003  0.62445181  1
  Ta  Ta2  1  0.62512003  0.62512003  0.62445181  1
  Os  Os0  1  0.62499901  0.62499901  0.12500296  1
loop_
_geom_bond_atom_site_label_1
_geom_bond_atom_site_label_2
_geom_bond_distance
_geom_bond_site_symmetry_2
Hf0 Ta2 3.128019 1_554
Hf0 Ta0 3.128022 1_554
Hf0 Ta1 3.128022 1_554
Hf0 Zr0 3.208803 1_446
Hf0 Ta1 3.211137 1_555
Hf0 Ta0 3.211137 1_555
Hf0 Ta2 3.211139 1_455
Hf0 Ta2 3.211139 1_545
Hf0 Ta1 3.211142 1_545
Hf0 Ta0 3.211142 1_455
Hf0 Os0 3.260850 1_555
Hf0 Os0 3.260854 1_545
Hf0 Os0 3.260855 1_455
Hf0 Zr0 3.390170 1_455
Hf0 Zr0 3.390170 1_445
Hf0 Zr0 3.390170 1_545
Ta0 Ta2 2.783926 1_555
Ta0 Ta1 2.783926 1_555
Ta0 Ta2 2.786022 1_545
Ta0 Ta1 2.786022 1_645
Ta0 Zr0 3.118595 1_545
Ta0 Zr0 3.216987 1_446
Ta0 Zr0 3.216992 1_546
Ta1 Ta2 2.783926 1_555
Ta1 Ta2 2.786022 1_455
Ta1 Zr0 3.118596 1_455
Ta1 Zr0 3.216987 1_446
Ta1 Zr0 3.216992 1_456
Ta2 Zr0 3.118598 1_555
Ta2 Zr0 3.216990 1_456
Ta2 Zr0 3.216990 1_546
Os0 Ta2 2.675305 1_555
Os0 Ta0 2.675305 1_555
Os0 Ta1 2.675305 1_555
Os0 Ta2 2.679806 1_554
Os0 Ta0 2.679806 1_564
Os0 Ta1 2.679806 1_654
Os0 Zr0 3.259699 1_545
Os0 Zr0 3.259699 1_455
Os0 Zr0 3.259704 1_555
