# generated using pymatgen
data_KNa4SiAs3
_symmetry_space_group_name_H-M   'P 1'
_cell_length_a   4.72156617
_cell_length_b   12.99804517
_cell_length_c   15.00717881
_cell_angle_alpha   90.00000000
_cell_angle_beta   90.00000000
_cell_angle_gamma   90.00000000
_symmetry_Int_Tables_number   1
_chemical_formula_structural   KNa4SiAs3
_chemical_formula_sum   'K4 Na16 Si4 As12'
_cell_volume   921.00752740
_cell_formula_units_Z   4
loop_
 _symmetry_equiv_pos_site_id
 _symmetry_equiv_pos_as_xyz
  1  'x, y, z'
loop_
 _atom_site_type_symbol
 _atom_site_label
 _atom_site_symmetry_multiplicity
 _atom_site_fract_x
 _atom_site_fract_y
 _atom_site_fract_z
 _atom_site_occupancy
  K  K0  1  0.25000000  0.12873449  0.51651336  1
  K  K1  1  0.75000000  0.87126551  0.48348664  1
  K  K2  1  0.75000000  0.62873449  0.98348664  1
  K  K3  1  0.25000000  0.37126551  0.01651336  1
  Na  Na0  1  0.25000000  0.42775126  0.56370568  1
  Na  Na1  1  0.75000000  0.57224874  0.43629432  1
  Na  Na2  1  0.75000000  0.92775126  0.93629432  1
  Na  Na3  1  0.25000000  0.07224874  0.06370568  1
  Na  Na4  1  0.25000000  0.81051583  0.08075638  1
  Na  Na5  1  0.75000000  0.18948417  0.91924362  1
  Na  Na6  1  0.75000000  0.31051583  0.41924362  1
  Na  Na7  1  0.25000000  0.68948417  0.58075638  1
  Na  Na8  1  0.25000000  0.23540330  0.25714512  1
  Na  Na9  1  0.75000000  0.76459670  0.74285488  1
  Na  Na10  1  0.75000000  0.73540330  0.24285488  1
  Na  Na11  1  0.25000000  0.26459670  0.75714512  1
  Na  Na12  1  0.25000000  0.94157400  0.28604963  1
  Na  Na13  1  0.75000000  0.05842600  0.71395037  1
  Na  Na14  1  0.75000000  0.44157400  0.21395037  1
  Na  Na15  1  0.25000000  0.55842600  0.78604963  1
  Si  Si0  1  0.25000000  0.58442055  0.29451697  1
  Si  Si1  1  0.75000000  0.41557945  0.70548303  1
  Si  Si2  1  0.75000000  0.08442055  0.20548303  1
  Si  Si3  1  0.25000000  0.91557945  0.79451697  1
  As  As0  1  0.25000000  0.59232957  0.14403722  1
  As  As1  1  0.75000000  0.40767043  0.85596278  1
  As  As2  1  0.75000000  0.09232957  0.35596278  1
  As  As3  1  0.25000000  0.90767043  0.64403722  1
  As  As4  1  0.25000000  0.42809758  0.36397814  1
  As  As5  1  0.75000000  0.57190242  0.63602186  1
  As  As6  1  0.75000000  0.92809758  0.13602186  1
  As  As7  1  0.25000000  0.07190242  0.86397814  1
  As  As8  1  0.25000000  0.72852939  0.38071748  1
  As  As9  1  0.75000000  0.27147061  0.61928252  1
  As  As10  1  0.75000000  0.22852939  0.11928252  1
  As  As11  1  0.25000000  0.77147061  0.88071748  1
loop_
_geom_bond_atom_site_label_1
_geom_bond_atom_site_label_2
_geom_bond_distance
_geom_bond_site_symmetry_2
Na0 Si1 3.182034 1_555
Na0 Si1 3.182034 1_455
Na1 Si0 3.182034 1_555
Na1 Si0 3.182034 1_655
Na2 Si3 3.182034 1_555
Na2 Si3 3.182034 1_655
Na3 Si2 3.182034 1_555
Na3 Si2 3.182034 1_455
Na8 Si2 3.166342 1_455
Na8 Si2 3.166342 1_555
Na9 Si3 3.166342 1_555
Na9 Si3 3.166342 1_655
Na10 Si0 3.166342 1_655
Na10 Si0 3.166342 1_555
Na11 Si1 3.166342 1_555
Na11 Si1 3.166342 1_455
Na12 Si2 3.237684 1_565
Na12 Si2 3.237684 1_465
Na13 Si3 3.237684 1_645
Na13 Si3 3.237684 1_545
Na14 Si0 3.237684 1_555
Na14 Si0 3.237684 1_655
Na15 Si1 3.237684 1_555
Na15 Si1 3.237684 1_455
As0 Si0 2.260615 1_555
As0 Na4 2.990775 1_555
As0 Na14 3.242509 1_455
As0 Na14 3.242509 1_555
As0 Na10 3.351256 1_555
As0 Na10 3.351256 1_455
As0 K2 3.406240 1_454
As0 K2 3.406240 1_554
As0 K3 3.452385 1_555
As1 Si1 2.260615 1_555
As1 Na5 2.990775 1_555
As1 Na15 3.242509 1_555
As1 Na15 3.242509 1_655
As1 Na11 3.351256 1_655
As1 Na11 3.351256 1_555
As1 K3 3.406240 1_556
As1 K3 3.406240 1_656
As1 K2 3.452385 1_555
As2 Si2 2.260615 1_555
As2 Na6 2.990775 1_555
As2 Na12 3.242509 1_545
As2 Na12 3.242509 1_645
As2 Na8 3.351256 1_555
As2 Na8 3.351256 1_655
As2 K0 3.406240 1_555
As2 K0 3.406240 1_655
As2 K1 3.452385 1_545
As3 Si3 2.260615 1_555
As3 Na7 2.990775 1_555
As3 Na13 3.242509 1_465
As3 Na13 3.242509 1_565
As3 Na9 3.351256 1_455
As3 Na9 3.351256 1_555
As3 K1 3.406240 1_455
As3 K1 3.406240 1_555
As3 K0 3.452385 1_565
As4 Si0 2.283686 1_555
As4 Na6 2.932059 1_555
As4 Na6 2.932059 1_455
As4 Na8 2.973839 1_555
As4 Na0 2.997350 1_555
As4 Na1 3.203401 1_555
As4 Na1 3.203401 1_455
As4 Na14 3.266987 1_555
As4 Na14 3.266987 1_455
As5 Si1 2.283686 1_555
As5 Na7 2.932059 1_555
As5 Na7 2.932059 1_655
As5 Na9 2.973839 1_555
As5 Na1 2.997350 1_555
As5 Na0 3.203401 1_555
As5 Na0 3.203401 1_655
As5 Na15 3.266987 1_655
As5 Na15 3.266987 1_555
As6 Si2 2.283686 1_565
As6 Na4 2.932059 1_555
As6 Na4 2.932059 1_655
As6 Na10 2.973839 1_555
As6 Na2 2.997350 1_554
As6 Na3 3.203401 1_565
As6 Na3 3.203401 1_665
As6 Na12 3.266987 1_655
As6 Na12 3.266987 1_555
As7 Si3 2.283686 1_545
As7 Na5 2.932059 1_455
As7 Na5 2.932059 1_555
As7 Na11 2.973839 1_555
As7 Na3 2.997350 1_556
As7 Na2 3.203401 1_545
As7 Na2 3.203401 1_445
As7 Na13 3.266987 1_555
As7 Na13 3.266987 1_455
As8 Si0 2.276422 1_555
As8 Na7 3.044616 1_555
As8 Na12 3.112338 1_555
As8 Na10 3.140342 1_455
As8 Na10 3.140342 1_555
As8 Na1 3.224173 1_555
As8 Na1 3.224173 1_455
As8 K1 3.375502 1_455
As8 K1 3.375502 1_555
As9 Si1 2.276422 1_555
As9 Na6 3.044616 1_555
As9 Na13 3.112338 1_555
As9 Na11 3.140342 1_655
As9 Na11 3.140342 1_555
As9 Na0 3.224173 1_555
As9 Na0 3.224173 1_655
As9 K0 3.375502 1_655
As9 K0 3.375502 1_555
As10 Si2 2.276422 1_555
As10 Na5 3.044616 1_554
As10 Na14 3.112338 1_555
As10 Na8 3.140342 1_655
As10 Na8 3.140342 1_555
As10 Na3 3.224173 1_655
As10 Na3 3.224173 1_555
As10 K3 3.375502 1_555
As10 K3 3.375502 1_655
As11 Si3 2.276422 1_555
As11 Na4 3.044616 1_556
As11 Na15 3.112338 1_555
As11 Na9 3.140342 1_555
As11 Na9 3.140342 1_455
As11 Na2 3.224173 1_455
As11 Na2 3.224173 1_555
As11 K2 3.375502 1_455
As11 K2 3.375502 1_555
