# generated using pymatgen
data_CsRbBeBr4
_symmetry_space_group_name_H-M   'P 1'
_cell_length_a   7.48519308
_cell_length_b   9.90437742
_cell_length_c   12.92594608
_cell_angle_alpha   90.00000000
_cell_angle_beta   90.00000000
_cell_angle_gamma   90.00000000
_symmetry_Int_Tables_number   1
_chemical_formula_structural   CsRbBeBr4
_chemical_formula_sum   'Cs4 Rb4 Be4 Br16'
_cell_volume   958.28023073
_cell_formula_units_Z   4
loop_
 _symmetry_equiv_pos_site_id
 _symmetry_equiv_pos_as_xyz
  1  'x, y, z'
loop_
 _atom_site_type_symbol
 _atom_site_label
 _atom_site_symmetry_multiplicity
 _atom_site_fract_x
 _atom_site_fract_y
 _atom_site_fract_z
 _atom_site_occupancy
  Cs  Cs0  1  0.25000000  0.63990544  0.89921301  1
  Cs  Cs1  1  0.75000000  0.36009456  0.10078699  1
  Cs  Cs2  1  0.75000000  0.86009456  0.39921301  1
  Cs  Cs3  1  0.25000000  0.13990544  0.60078699  1
  Rb  Rb0  1  0.25000000  0.98279970  0.17391404  1
  Rb  Rb1  1  0.75000000  0.01720030  0.82608596  1
  Rb  Rb2  1  0.75000000  0.51720030  0.67391404  1
  Rb  Rb3  1  0.25000000  0.48279970  0.32608596  1
  Be  Be0  1  0.25000000  0.73436660  0.58149853  1
  Be  Be1  1  0.75000000  0.26563340  0.41850147  1
  Be  Be2  1  0.75000000  0.76563340  0.08149853  1
  Be  Be3  1  0.25000000  0.23436660  0.91850147  1
  Br  Br0  1  0.00948869  0.81278942  0.65805597  1
  Br  Br1  1  0.99051131  0.18721058  0.34194403  1
  Br  Br2  1  0.99051131  0.68721058  0.15805597  1
  Br  Br3  1  0.50948869  0.18721058  0.34194403  1
  Br  Br4  1  0.00948869  0.31278942  0.84194403  1
  Br  Br5  1  0.49051131  0.81278942  0.65805597  1
  Br  Br6  1  0.49051131  0.31278942  0.84194403  1
  Br  Br7  1  0.50948869  0.68721058  0.15805597  1
  Br  Br8  1  0.25000000  0.51393951  0.59316411  1
  Br  Br9  1  0.75000000  0.48606049  0.40683589  1
  Br  Br10  1  0.75000000  0.98606049  0.09316411  1
  Br  Br11  1  0.25000000  0.01393951  0.90683589  1
  Br  Br12  1  0.25000000  0.30874206  0.07899365  1
  Br  Br13  1  0.75000000  0.69125794  0.92100635  1
  Br  Br14  1  0.75000000  0.19125794  0.57899365  1
  Br  Br15  1  0.25000000  0.80874206  0.42100635  1
loop_
_geom_bond_atom_site_label_1
_geom_bond_atom_site_label_2
_geom_bond_distance
_geom_bond_site_symmetry_2
Be0 Br8 2.188394 1_555
Be0 Br5 2.196260 1_555
Be0 Br0 2.196260 1_555
Be0 Br15 2.201420 1_555
Be1 Br9 2.188394 1_555
Be1 Br1 2.196260 1_555
Be1 Br3 2.196260 1_555
Be1 Br14 2.201420 1_555
Be2 Br10 2.188394 1_555
Be2 Br2 2.196260 1_555
Be2 Br7 2.196260 1_555
Be2 Br13 2.201420 1_554
Be3 Br11 2.188394 1_555
Be3 Br6 2.196260 1_555
Be3 Br4 2.196260 1_555
Be3 Br12 2.201420 1_556
Br0 Rb2 3.519323 1_455
Br0 Rb1 3.548073 1_465
Br0 Cs3 3.779655 1_565
Br0 Cs2 3.896979 1_455
Br0 Cs0 3.986203 1_555
Br1 Rb3 3.519323 1_655
Br1 Rb0 3.548073 1_645
Br1 Cs2 3.779655 1_545
Br1 Cs3 3.896979 1_655
Br1 Cs1 3.986203 1_555
Br2 Rb0 3.519323 1_655
Br2 Rb3 3.548073 1_655
Br2 Cs1 3.779655 1_555
Br2 Cs0 3.896979 1_654
Br2 Cs2 3.986203 1_555
Br3 Rb3 3.519323 1_555
Br3 Rb0 3.548073 1_545
Br3 Cs2 3.779655 1_545
Br3 Cs3 3.896979 1_555
Br3 Cs1 3.986203 1_555
Br4 Rb1 3.519323 1_455
Br4 Rb2 3.548073 1_455
Br4 Cs0 3.779655 1_555
Br4 Cs1 3.896979 1_456
Br4 Cs3 3.986203 1_555
Br5 Rb2 3.519323 1_555
Br5 Rb1 3.548073 1_565
Br5 Cs3 3.779655 1_565
Br5 Cs2 3.896979 1_555
Br5 Cs0 3.986203 1_555
Br6 Rb1 3.519323 1_555
Br6 Rb2 3.548073 1_555
Br6 Cs0 3.779655 1_555
Br6 Cs1 3.896979 1_556
Br6 Cs3 3.986203 1_555
Br7 Rb0 3.519323 1_555
Br7 Rb3 3.548073 1_555
Br7 Cs1 3.779655 1_555
Br7 Cs0 3.896979 1_554
Br7 Cs2 3.986203 1_555
Br8 Rb3 3.465987 1_555
Br8 Cs3 3.705885 1_555
Br8 Rb2 3.885554 1_455
Br8 Rb2 3.885554 1_555
Br8 Cs0 4.148042 1_555
Br9 Rb2 3.465987 1_555
Br9 Cs2 3.705885 1_555
Br9 Rb3 3.885554 1_655
Br9 Rb3 3.885554 1_555
Br9 Cs1 4.148042 1_555
Br10 Rb1 3.465987 1_564
Br10 Cs1 3.705885 1_565
Br10 Rb0 3.885554 1_655
Br10 Rb0 3.885554 1_555
Br10 Cs2 4.148042 1_555
Br11 Rb0 3.465987 1_546
Br11 Cs0 3.705885 1_545
Br11 Rb1 3.885554 1_455
Br11 Rb1 3.885554 1_555
Br11 Cs3 4.148042 1_555
Br12 Rb0 3.453550 1_545
Br12 Rb3 3.629456 1_555
Br12 Cs1 3.787489 1_555
Br12 Cs1 3.787489 1_455
Br12 Cs0 4.019750 1_554
Br13 Rb1 3.453550 1_565
Br13 Rb2 3.629456 1_555
Br13 Cs0 3.787489 1_555
Br13 Cs0 3.787489 1_655
Br13 Cs1 4.019750 1_556
Br14 Rb2 3.453550 1_555
Br14 Rb1 3.629456 1_555
Br14 Cs3 3.787489 1_555
Br14 Cs3 3.787489 1_655
Br14 Cs2 4.019750 1_545
Br15 Rb3 3.453550 1_555
Br15 Rb0 3.629456 1_555
Br15 Cs2 3.787489 1_555
Br15 Cs2 3.787489 1_455
Br15 Cs3 4.019750 1_565
