# generated using pymatgen
data_Hf10In2CuSb5
_symmetry_space_group_name_H-M   'P 1'
_cell_length_a   5.81828356
_cell_length_b   8.64204982
_cell_length_c   8.60487117
_cell_angle_alpha   120.14302827
_cell_angle_beta   90.01488547
_cell_angle_gamma   89.97036601
_symmetry_Int_Tables_number   1
_chemical_formula_structural   Hf10In2CuSb5
_chemical_formula_sum   'Hf10 In2 Cu1 Sb5'
_cell_volume   374.16129778
_cell_formula_units_Z   1
loop_
 _symmetry_equiv_pos_site_id
 _symmetry_equiv_pos_as_xyz
  1  'x, y, z'
loop_
 _atom_site_type_symbol
 _atom_site_label
 _atom_site_symmetry_multiplicity
 _atom_site_fract_x
 _atom_site_fract_y
 _atom_site_fract_z
 _atom_site_occupancy
  Hf  Hf0  1  0.49854870  0.33318442  0.66722063  1
  Hf  Hf1  1  0.49854870  0.66596380  0.33277937  1
  Hf  Hf2  1  0.00284965  0.66569311  0.33215845  1
  Hf  Hf3  1  0.00284965  0.33353366  0.66784155  1
  Hf  Hf4  1  0.73467910  0.26852637  1.00000000  1
  Hf  Hf5  1  0.73120263  0.73433257  0.73323802  1
  Hf  Hf6  1  0.73120263  0.00109455  0.26676198  1
  Hf  Hf7  1  0.26844373  0.72152718  0.00000000  1
  Hf  Hf8  1  0.26870454  0.27630413  0.27684997  1
  Hf  Hf9  1  0.26870454  0.99945416  0.72315003  1
  In  In0  1  0.24441853  0.61643914  0.61693219  1
  In  In1  1  0.24441853  0.99950695  0.38306781  1
  Cu  Cu0  1  0.48338730  0.99723543  1.00000000  1
  Sb  Sb0  1  0.75420084  0.61062410  1.00000000  1
  Sb  Sb1  1  0.75369814  0.39343475  0.39446513  1
  Sb  Sb2  1  0.75369814  0.99896862  0.60553487  1
  Sb  Sb3  1  0.24964657  0.38521284  0.00000000  1
  Sb  Sb4  1  0.01080106  0.99896320  0.00000000  1
loop_
_geom_bond_atom_site_label_1
_geom_bond_atom_site_label_2
_geom_bond_distance
_geom_bond_site_symmetry_2
Hf0 Hf3 2.884121 1_555
Hf0 Hf3 2.934170 1_655
Hf0 Sb3 3.034396 1_556
Hf0 Sb1 3.035364 1_555
Hf0 Sb0 3.044191 1_555
Hf0 Sb2 3.046991 1_545
Hf0 In1 3.066185 1_545
Hf0 In0 3.070098 1_555
Hf1 Hf2 2.884121 1_555
Hf1 Hf2 2.934170 1_655
Hf1 Sb3 3.034395 1_555
Hf1 Sb2 3.035359 1_555
Hf1 Sb0 3.044191 1_554
Hf1 Sb1 3.046984 1_555
Hf1 In0 3.066185 1_555
Hf1 In1 3.070098 1_555
Hf2 Sb0 3.020117 1_454
Hf2 Sb2 3.020507 1_455
Hf2 Sb3 3.024417 1_555
Hf2 Sb1 3.032447 1_455
Hf2 In0 3.034215 1_555
Hf2 In1 3.037156 1_555
Hf3 Sb0 3.020120 1_455
Hf3 Sb1 3.020516 1_455
Hf3 Sb3 3.024414 1_556
Hf3 Sb2 3.032447 1_445
Hf3 In1 3.034211 1_545
Hf3 In0 3.037164 1_555
Hf4 Sb4 2.829149 1_646
Hf4 Sb0 2.958665 1_555
Hf4 Sb3 2.996323 1_556
Hf4 Sb1 3.003158 1_556
Hf4 Sb2 3.003160 1_545
Hf4 Sb3 3.161865 1_656
Hf5 Sb4 2.806298 1_656
Hf5 Sb1 2.927255 1_555
Hf5 Sb0 2.982335 1_555
Hf5 Sb2 2.996558 1_555
Hf5 In0 3.006445 1_555
Hf5 In0 3.151252 1_655
Hf6 Sb4 2.806298 1_645
Hf6 Sb2 2.927259 1_545
Hf6 Sb0 2.982335 1_544
Hf6 Sb1 2.996566 1_555
Hf6 In1 3.006445 1_545
Hf6 In1 3.151252 1_645
Hf7 Sb4 2.827005 1_555
Hf7 Sb3 2.908559 1_555
Hf7 In0 2.950079 1_554
Hf7 In1 2.950079 1_555
Hf7 Sb0 2.983891 1_554
Hf7 Sb0 3.142242 1_454
Hf8 Sb4 2.817597 1_545
Hf8 In0 2.929965 1_555
Hf8 In1 2.962040 1_545
Hf8 Sb3 2.970675 1_555
Hf8 Sb1 2.997371 1_555
Hf8 Sb1 3.161835 1_455
Hf9 Sb4 2.817597 1_556
Hf9 In1 2.929965 1_555
Hf9 In0 2.962040 1_555
Hf9 Sb3 2.970675 1_566
Hf9 Sb2 2.997369 1_555
Hf9 Sb2 3.161834 1_455
Cu0 Hf7 2.691519 1_556
Cu0 Hf6 2.696408 1_566
Cu0 Hf5 2.696409 1_555
Cu0 Hf9 2.698155 1_555
Cu0 Hf8 2.698155 1_566
Cu0 Sb4 2.749674 1_556
Cu0 Hf4 2.763688 1_565
Cu0 Sb4 3.068687 1_656
