# generated using pymatgen
data_KRb(GaSb)3
_symmetry_space_group_name_H-M   'P 1'
_cell_length_a   4.43212010
_cell_length_b   7.38552316
_cell_length_c   29.47145096
_cell_angle_alpha   90.00000000
_cell_angle_beta   90.00000000
_cell_angle_gamma   90.00000000
_symmetry_Int_Tables_number   1
_chemical_formula_structural   KRb(GaSb)3
_chemical_formula_sum   'K4 Rb4 Ga12 Sb12'
_cell_volume   964.70449607
_cell_formula_units_Z   4
loop_
 _symmetry_equiv_pos_site_id
 _symmetry_equiv_pos_as_xyz
  1  'x, y, z'
loop_
 _atom_site_type_symbol
 _atom_site_label
 _atom_site_symmetry_multiplicity
 _atom_site_fract_x
 _atom_site_fract_y
 _atom_site_fract_z
 _atom_site_occupancy
  K  K0  1  0.25000000  0.23637745  0.81043703  1
  K  K1  1  0.75000000  0.76362255  0.18956297  1
  K  K2  1  0.75000000  0.73637745  0.68956297  1
  K  K3  1  0.25000000  0.26362255  0.31043703  1
  Rb  Rb0  1  0.25000000  0.22929760  0.49676661  1
  Rb  Rb1  1  0.75000000  0.77070240  0.50323339  1
  Rb  Rb2  1  0.75000000  0.72929760  0.00323339  1
  Rb  Rb3  1  0.25000000  0.27070240  0.99676661  1
  Ga  Ga0  1  0.25000000  0.55061538  0.62410589  1
  Ga  Ga1  1  0.75000000  0.44938462  0.37589411  1
  Ga  Ga2  1  0.75000000  0.05061538  0.87589411  1
  Ga  Ga3  1  0.25000000  0.94938462  0.12410589  1
  Ga  Ga4  1  0.25000000  0.08295562  0.20569843  1
  Ga  Ga5  1  0.75000000  0.91704438  0.79430157  1
  Ga  Ga6  1  0.75000000  0.58295562  0.29430157  1
  Ga  Ga7  1  0.25000000  0.41704438  0.70569843  1
  Ga  Ga8  1  0.75000000  0.40017972  0.12908310  1
  Ga  Ga9  1  0.25000000  0.59982028  0.87091690  1
  Ga  Ga10  1  0.25000000  0.90017972  0.37091690  1
  Ga  Ga11  1  0.75000000  0.09982028  0.62908310  1
  Sb  Sb0  1  0.75000000  0.20153600  0.71901249  1
  Sb  Sb1  1  0.25000000  0.79846400  0.28098751  1
  Sb  Sb2  1  0.25000000  0.70153600  0.78098751  1
  Sb  Sb3  1  0.75000000  0.29846400  0.21901249  1
  Sb  Sb4  1  0.25000000  0.91243357  0.60218228  1
  Sb  Sb5  1  0.75000000  0.08756643  0.39781772  1
  Sb  Sb6  1  0.75000000  0.41243357  0.89781772  1
  Sb  Sb7  1  0.25000000  0.58756643  0.10218228  1
  Sb  Sb8  1  0.75000000  0.41242354  0.58487158  1
  Sb  Sb9  1  0.25000000  0.58757646  0.41512842  1
  Sb  Sb10  1  0.25000000  0.91242354  0.91512842  1
  Sb  Sb11  1  0.75000000  0.08757646  0.08487158  1
loop_
_geom_bond_atom_site_label_1
_geom_bond_atom_site_label_2
_geom_bond_distance
_geom_bond_site_symmetry_2
K0 Sb0 3.498143 1_455
K0 Sb0 3.498143 1_555
K0 Sb2 3.543378 1_555
K0 Sb6 3.637781 1_455
K0 Sb6 3.637781 1_555
K1 Sb1 3.498143 1_555
K1 Sb1 3.498143 1_655
K1 Sb3 3.543378 1_555
K1 Sb7 3.637781 1_555
K1 Sb7 3.637781 1_655
K2 Sb2 3.498143 1_655
K2 Sb2 3.498143 1_555
K2 Sb0 3.543378 1_565
K2 Sb4 3.637781 1_555
K2 Sb4 3.637781 1_655
K3 Sb3 3.498143 1_455
K3 Sb3 3.498143 1_555
K3 Sb1 3.543378 1_545
K3 Sb5 3.637781 1_555
K3 Sb5 3.637781 1_455
Rb0 Sb9 3.576386 1_555
Rb0 Sb8 3.671834 1_555
Rb0 Sb8 3.671834 1_455
Rb0 Sb5 3.809286 1_455
Rb0 Sb5 3.809286 1_555
Rb0 Sb4 3.889535 1_545
Rb1 Sb8 3.576386 1_555
Rb1 Sb9 3.671834 1_555
Rb1 Sb9 3.671834 1_655
Rb1 Sb4 3.809286 1_555
Rb1 Sb4 3.809286 1_655
Rb1 Sb5 3.889535 1_565
Rb2 Sb11 3.576386 1_565
Rb2 Sb10 3.671834 1_654
Rb2 Sb10 3.671834 1_554
Rb2 Sb7 3.809286 1_655
Rb2 Sb7 3.809286 1_555
Rb2 Sb6 3.889535 1_554
Rb3 Sb10 3.576386 1_545
Rb3 Sb11 3.671834 1_556
Rb3 Sb11 3.671834 1_456
Rb3 Sb6 3.809286 1_455
Rb3 Sb6 3.809286 1_555
Rb3 Sb7 3.889535 1_556
Ga0 Ga7 2.599137 1_555
Ga0 Sb8 2.699925 1_555
Ga0 Sb8 2.699925 1_455
Ga0 Sb4 2.749221 1_555
Ga0 K2 3.242631 1_455
Ga0 K2 3.242631 1_555
Ga1 Ga6 2.599137 1_555
Ga1 Sb9 2.699925 1_655
Ga1 Sb9 2.699925 1_555
Ga1 Sb5 2.749221 1_555
Ga1 K3 3.242631 1_555
Ga1 K3 3.242631 1_655
Ga2 Ga5 2.599137 1_545
Ga2 Sb10 2.699925 1_545
Ga2 Sb10 2.699925 1_645
Ga2 Sb6 2.749221 1_555
Ga2 K0 3.242631 1_555
Ga2 K0 3.242631 1_655
Ga3 Ga4 2.599137 1_565
Ga3 Sb11 2.699925 1_465
Ga3 Sb11 2.699925 1_565
Ga3 Sb7 2.749221 1_555
Ga3 K1 3.242631 1_455
Ga3 K1 3.242631 1_555
Ga4 Sb3 2.756486 1_455
Ga4 Sb3 2.756486 1_555
Ga4 Sb1 3.055834 1_545
Ga4 K1 3.270979 1_445
Ga4 K1 3.270979 1_545
Ga4 K3 3.362846 1_555
Ga5 Sb2 2.756486 1_555
Ga5 Sb2 2.756486 1_655
Ga5 Sb0 3.055834 1_565
Ga5 K0 3.270979 1_565
Ga5 K0 3.270979 1_665
Ga5 K2 3.362846 1_555
Ga6 Sb1 2.756486 1_655
Ga6 Sb1 2.756486 1_555
Ga6 Sb3 3.055834 1_555
Ga6 K3 3.270979 1_655
Ga6 K3 3.270979 1_555
Ga6 K1 3.362846 1_555
Ga7 Sb0 2.756486 1_455
Ga7 Sb0 2.756486 1_555
Ga7 Sb2 3.055834 1_555
Ga7 K2 3.270979 1_455
Ga7 K2 3.270979 1_555
Ga7 K0 3.362846 1_555
Ga8 Sb11 2.651042 1_555
Ga8 Sb7 2.730344 1_655
Ga8 Sb7 2.730344 1_555
Ga8 Sb3 2.754758 1_555
Ga8 K1 3.222122 1_555
Ga9 Sb10 2.651042 1_555
Ga9 Sb6 2.730344 1_555
Ga9 Sb6 2.730344 1_455
Ga9 Sb2 2.754758 1_555
Ga9 K0 3.222122 1_555
Ga10 Sb9 2.651042 1_555
Ga10 Sb5 2.730344 1_465
Ga10 Sb5 2.730344 1_565
Ga10 Sb1 2.754758 1_555
Ga10 K3 3.222122 1_565
Ga11 Sb8 2.651042 1_555
Ga11 Sb4 2.730344 1_545
Ga11 Sb4 2.730344 1_645
Ga11 Sb0 2.754758 1_555
Ga11 K2 3.222122 1_545
