# generated using pymatgen
data_KRbZnI4
_symmetry_space_group_name_H-M   'P 1'
_cell_length_a   7.90025235
_cell_length_b   8.28348837
_cell_length_c   9.84424240
_cell_angle_alpha   90.00000000
_cell_angle_beta   108.15185744
_cell_angle_gamma   90.00000000
_symmetry_Int_Tables_number   1
_chemical_formula_structural   KRbZnI4
_chemical_formula_sum   'K2 Rb2 Zn2 I8'
_cell_volume   612.16312557
_cell_formula_units_Z   2
loop_
 _symmetry_equiv_pos_site_id
 _symmetry_equiv_pos_as_xyz
  1  'x, y, z'
loop_
 _atom_site_type_symbol
 _atom_site_label
 _atom_site_symmetry_multiplicity
 _atom_site_fract_x
 _atom_site_fract_y
 _atom_site_fract_z
 _atom_site_occupancy
  K  K0  1  0.27838107  0.72181980  0.94764465  1
  K  K1  1  0.72161893  0.22181980  0.05235535  1
  Rb  Rb0  1  0.23867139  0.72357002  0.43388416  1
  Rb  Rb1  1  0.76132861  0.22357002  0.56611584  1
  Zn  Zn0  1  0.71772847  0.76120308  0.80583418  1
  Zn  Zn1  1  0.28227153  0.26120308  0.19416582  1
  I  I0  1  0.52839789  0.49570885  0.75912316  1
  I  I1  1  0.47160211  0.99570885  0.24087684  1
  I  I2  1  0.52328660  0.49396308  0.25892503  1
  I  I3  1  0.47671340  0.99396308  0.74107497  1
  I  I4  1  0.90635387  0.79794663  0.07354690  1
  I  I5  1  0.09364613  0.29794663  0.92645310  1
  I  I6  1  0.91068365  0.78038855  0.63302313  1
  I  I7  1  0.08931635  0.28038855  0.36697687  1
loop_
_geom_bond_atom_site_label_1
_geom_bond_atom_site_label_2
_geom_bond_distance
_geom_bond_site_symmetry_2
I0 Zn0 2.618541 1_555
I0 K1 3.614504 1_556
I0 K0 3.624589 1_555
I0 Rb1 3.775795 1_555
I0 Rb0 3.806130 1_555
I1 Zn1 2.618541 1_565
I1 K0 3.614504 1_554
I1 K1 3.624589 1_565
I1 Rb0 3.775795 1_555
I1 Rb1 3.806130 1_565
I2 Zn1 2.644436 1_555
I2 K0 3.605814 1_554
I2 K1 3.695598 1_555
I2 Rb0 3.748700 1_555
I2 Rb1 3.762291 1_555
I3 Zn0 2.644436 1_555
I3 K1 3.605814 1_566
I3 K0 3.695598 1_555
I3 Rb1 3.748700 1_565
I3 Rb0 3.762291 1_555
I4 Zn0 2.609942 1_554
I4 K0 3.583555 1_654
I4 Rb0 3.748679 1_655
I4 K1 3.783118 1_565
I5 Zn1 2.609942 1_556
I5 K1 3.583555 1_456
I5 Rb1 3.748679 1_455
I5 K0 3.783118 1_555
I6 Zn0 2.618951 1_555
I6 K0 3.558187 1_655
I6 Rb0 3.734145 1_655
I6 Rb1 3.849512 1_565
I7 Zn1 2.618951 1_555
I7 K1 3.558187 1_455
I7 Rb1 3.734145 1_455
I7 Rb0 3.849512 1_555
