# generated using pymatgen
data_Tl(MoSe)3
_symmetry_space_group_name_H-M   'P 1'
_cell_length_a   9.15164475
_cell_length_b   9.15164506
_cell_length_c   4.49834710
_cell_angle_alpha   90.00000000
_cell_angle_beta   90.00000000
_cell_angle_gamma   119.99999034
_symmetry_Int_Tables_number   1
_chemical_formula_structural   Tl(MoSe)3
_chemical_formula_sum   'Tl2 Mo6 Se6'
_cell_volume   326.27361769
_cell_formula_units_Z   2
loop_
 _symmetry_equiv_pos_site_id
 _symmetry_equiv_pos_as_xyz
  1  'x, y, z'
loop_
 _atom_site_type_symbol
 _atom_site_label
 _atom_site_symmetry_multiplicity
 _atom_site_fract_x
 _atom_site_fract_y
 _atom_site_fract_z
 _atom_site_occupancy
  Tl  Tl0  1  0.33333300  0.66666700  0.75000000  1
  Tl  Tl1  1  0.66666700  0.33333300  0.25000000  1
  Mo  Mo0  1  0.96813817  0.81994531  0.25000000  1
  Mo  Mo1  1  0.81994531  0.85180714  0.75000000  1
  Mo  Mo2  1  0.03186183  0.18005469  0.75000000  1
  Mo  Mo3  1  0.18005469  0.14819286  0.25000000  1
  Mo  Mo4  1  0.85180714  0.03186183  0.25000000  1
  Mo  Mo5  1  0.14819286  0.96813817  0.75000000  1
  Se  Se0  1  0.93473049  0.64010264  0.75000000  1
  Se  Se1  1  0.29462685  0.93473049  0.25000000  1
  Se  Se2  1  0.70537315  0.06526951  0.75000000  1
  Se  Se3  1  0.06526951  0.35989736  0.25000000  1
  Se  Se4  1  0.64010264  0.70537315  0.25000000  1
  Se  Se5  1  0.35989736  0.29462685  0.75000000  1
loop_
_geom_bond_atom_site_label_1
_geom_bond_atom_site_label_2
_geom_bond_distance
_geom_bond_site_symmetry_2
Mo0 Se1 2.625333 1_655
Mo0 Mo4 2.638056 1_565
Mo0 Mo3 2.638056 1_665
Mo0 Se4 2.638950 1_555
Mo0 Se0 2.712545 1_554
Mo0 Se0 2.712545 1_555
Mo0 Mo1 2.716351 1_555
Mo0 Mo1 2.716351 1_554
Mo0 Mo5 2.716351 1_655
Mo0 Mo5 2.716351 1_654
Mo1 Se0 2.625341 1_555
Mo1 Mo5 2.638056 1_655
Mo1 Mo2 2.638056 1_665
Mo1 Se2 2.638942 1_565
Mo1 Se4 2.712544 1_555
Mo1 Se4 2.712544 1_556
Mo1 Mo4 2.716351 1_565
Mo1 Mo4 2.716351 1_566
Mo2 Se2 2.625333 1_455
Mo2 Mo5 2.638056 1_545
Mo2 Se5 2.638950 1_555
Mo2 Se3 2.712545 1_555
Mo2 Se3 2.712545 1_556
Mo2 Mo3 2.716351 1_556
Mo2 Mo3 2.716351 1_555
Mo2 Mo4 2.716351 1_455
Mo2 Mo4 2.716351 1_456
Mo3 Se3 2.625341 1_555
Mo3 Mo4 2.638056 1_455
Mo3 Se1 2.638942 1_545
Mo3 Se5 2.712544 1_555
Mo3 Se5 2.712544 1_554
Mo3 Mo5 2.716351 1_545
Mo3 Mo5 2.716351 1_544
Mo4 Se4 2.625335 1_545
Mo4 Se3 2.638949 1_655
Mo4 Se2 2.712540 1_554
Mo4 Se2 2.712540 1_555
Mo5 Se5 2.625335 1_565
Mo5 Se0 2.638949 1_455
Mo5 Se1 2.712540 1_555
Mo5 Se1 2.712540 1_556
