# generated using pymatgen
data_Sc12Zn12CO3
_symmetry_space_group_name_H-M   'P 1'
_cell_length_a   8.51821897
_cell_length_b   8.49795869
_cell_length_c   8.49795955
_cell_angle_alpha   59.99999667
_cell_angle_beta   60.07864448
_cell_angle_gamma   60.07864330
_symmetry_Int_Tables_number   1
_chemical_formula_structural   Sc12Zn12CO3
_chemical_formula_sum   'Sc12 Zn12 C1 O3'
_cell_volume   435.49010484
_cell_formula_units_Z   1
loop_
 _symmetry_equiv_pos_site_id
 _symmetry_equiv_pos_as_xyz
  1  'x, y, z'
loop_
 _atom_site_type_symbol
 _atom_site_label
 _atom_site_symmetry_multiplicity
 _atom_site_fract_x
 _atom_site_fract_y
 _atom_site_fract_z
 _atom_site_occupancy
  Sc  Sc0  1  0.43822712  0.43589405  0.06293992  1
  Sc  Sc1  1  0.06058489  0.43810028  0.06321656  1
  Sc  Sc2  1  0.43822712  0.06293992  0.06293992  1
  Sc  Sc3  1  0.06058489  0.06321656  0.43810028  1
  Sc  Sc4  1  0.43822712  0.06293992  0.43589405  1
  Sc  Sc5  1  0.06058489  0.43810028  0.43810028  1
  Sc  Sc6  1  0.81177288  0.81410595  0.18706008  1
  Sc  Sc7  1  0.18941511  0.81189972  0.18678344  1
  Sc  Sc8  1  0.81177288  0.18706008  0.18706008  1
  Sc  Sc9  1  0.18941511  0.18678344  0.81189972  1
  Sc  Sc10  1  0.81177288  0.18706008  0.81410595  1
  Sc  Sc11  1  0.18941511  0.81189972  0.81189972  1
  Zn  Zn0  1  0.83339066  0.82924640  0.50811855  1
  Zn  Zn1  1  0.83339066  0.50811855  0.82924640  1
  Zn  Zn2  1  0.50889116  0.83036995  0.83036995  1
  Zn  Zn3  1  0.83339066  0.82924640  0.82924640  1
  Zn  Zn4  1  0.41660934  0.42075360  0.74188145  1
  Zn  Zn5  1  0.41660934  0.74188145  0.42075360  1
  Zn  Zn6  1  0.74110884  0.41963005  0.41963005  1
  Zn  Zn7  1  0.41660934  0.42075360  0.42075360  1
  Zn  Zn8  1  0.62500000  0.62500000  0.12500000  1
  Zn  Zn9  1  0.62500000  0.12500000  0.62500000  1
  Zn  Zn10  1  0.12500000  0.62500000  0.62500000  1
  Zn  Zn11  1  0.62500000  0.62500000  0.62500000  1
  C  C0  1  0.62500000  0.12500000  0.12500000  1
  O  O0  1  0.12500000  0.12500000  0.62500000  1
  O  O1  1  0.12500000  0.62500000  0.12500000  1
  O  O2  1  0.12500000  0.12500000  0.12500000  1
loop_
_geom_bond_atom_site_label_1
_geom_bond_atom_site_label_2
_geom_bond_distance
_geom_bond_site_symmetry_2
Sc0 Zn7 2.893105 1_555
Sc0 Zn4 2.893130 1_554
Sc0 Zn8 3.102745 1_555
Sc0 Zn11 3.102751 1_554
Sc0 Zn2 3.115576 1_554
Sc0 Zn1 3.134395 1_554
Sc1 Zn6 2.886507 1_455
Sc1 Zn4 2.893187 1_554
Sc1 Zn3 3.091844 1_454
Sc1 Zn1 3.091844 1_454
Sc1 Zn8 3.094626 1_455
Sc1 Zn10 3.099638 1_554
Sc2 Zn4 2.893116 1_554
Sc2 Zn5 2.893116 1_545
Sc2 Zn8 3.102752 1_545
Sc2 Zn9 3.102753 1_554
Sc2 Zn2 3.115577 1_544
Sc2 Zn3 3.134392 1_544
Sc3 Zn6 2.886506 1_455
Sc3 Zn5 2.893187 1_545
Sc3 Zn0 3.091844 1_445
Sc3 Zn3 3.091844 1_445
Sc3 Zn9 3.094626 1_455
Sc3 Zn10 3.099638 1_545
Sc4 Zn7 2.893104 1_555
Sc4 Zn5 2.893130 1_545
Sc4 Zn9 3.102746 1_555
Sc4 Zn11 3.102751 1_545
Sc4 Zn2 3.115577 1_545
Sc4 Zn0 3.134395 1_545
Sc5 Zn6 2.886521 1_455
Sc5 Zn7 2.893172 1_555
Sc5 Zn0 3.091844 1_455
Sc5 Zn1 3.091844 1_455
Sc5 Zn11 3.094623 1_455
Sc5 Zn10 3.099624 1_555
Sc6 Zn3 2.893105 1_554
Sc6 Zn0 2.893130 1_555
Sc6 Zn8 3.102745 1_555
Sc6 Zn11 3.102751 1_555
Sc6 Zn6 3.115576 1_555
Sc6 Zn5 3.134395 1_555
Sc7 Zn2 2.886507 1_554
Sc7 Zn0 2.893187 1_455
Sc7 Zn7 3.091844 1_555
Sc7 Zn5 3.091844 1_555
Sc7 Zn8 3.094626 1_555
Sc7 Zn10 3.099638 1_555
Sc8 Zn0 2.893116 1_545
Sc8 Zn1 2.893116 1_554
Sc8 Zn8 3.102752 1_555
Sc8 Zn9 3.102753 1_555
Sc8 Zn6 3.115577 1_555
Sc8 Zn7 3.134392 1_555
Sc9 Zn2 2.886506 1_545
Sc9 Zn1 2.893187 1_455
Sc9 Zn4 3.091844 1_555
Sc9 Zn7 3.091844 1_555
Sc9 Zn9 3.094626 1_555
Sc9 Zn10 3.099638 1_555
Sc10 Zn3 2.893104 1_545
Sc10 Zn1 2.893130 1_555
Sc10 Zn9 3.102746 1_555
Sc10 Zn11 3.102751 1_555
Sc10 Zn6 3.115577 1_555
Sc10 Zn4 3.134395 1_555
Sc11 Zn2 2.886521 1_555
Sc11 Zn3 2.893172 1_455
Sc11 Zn4 3.091844 1_555
Sc11 Zn5 3.091844 1_555
Sc11 Zn11 3.094623 1_555
Sc11 Zn10 3.099624 1_555
Zn0 Zn10 2.570134 1_655
Zn0 Zn9 2.596321 1_565
Zn0 Zn11 2.596335 1_555
Zn0 Zn1 2.728931 1_555
Zn0 Zn3 2.728931 1_555
Zn0 Zn2 2.754662 1_555
Zn1 Zn10 2.570134 1_655
Zn1 Zn8 2.596321 1_556
Zn1 Zn11 2.596335 1_555
Zn1 Zn3 2.728931 1_555
Zn1 Zn2 2.754661 1_555
Zn2 Zn9 2.582947 1_565
Zn2 Zn8 2.582947 1_556
Zn2 Zn3 2.754666 1_555
Zn3 Zn9 2.596330 1_565
Zn3 Zn8 2.596330 1_556
Zn4 Zn9 2.596321 1_555
Zn4 Zn5 2.728931 1_555
Zn4 Zn7 2.728931 1_555
Zn4 Zn6 2.754662 1_555
Zn5 Zn8 2.596321 1_555
Zn5 Zn7 2.728931 1_555
Zn5 Zn6 2.754661 1_555
Zn6 Zn9 2.582947 1_555
Zn6 Zn8 2.582947 1_555
Zn6 Zn7 2.754666 1_555
Zn7 Zn9 2.596330 1_555
Zn7 Zn8 2.596330 1_555
Zn10 Zn5 2.570134 1_555
Zn10 Zn4 2.570134 1_555
Zn10 Zn3 2.570143 1_455
Zn10 Zn7 2.570143 1_555
Zn11 Zn2 2.582954 1_555
Zn11 Zn6 2.582954 1_555
Zn11 Zn4 2.596335 1_555
Zn11 Zn5 2.596335 1_555
C0 Sc8 2.244930 1_555
C0 Sc2 2.244930 1_555
C0 Sc0 2.244936 1_555
C0 Sc6 2.244936 1_545
C0 Sc4 2.244936 1_555
C0 Sc10 2.244936 1_554
O0 Sc9 2.256109 1_555
O0 Sc3 2.256109 1_555
O0 Sc5 2.256121 1_555
O0 Sc11 2.256121 1_545
O0 Sc4 2.268430 1_555
O0 Sc10 2.268430 1_455
O1 Sc7 2.256109 1_555
O1 Sc1 2.256109 1_555
O1 Sc5 2.256121 1_555
O1 Sc11 2.256121 1_554
O1 Sc0 2.268430 1_555
O1 Sc6 2.268430 1_455
O2 Sc1 2.256125 1_555
O2 Sc7 2.256125 1_545
O2 Sc3 2.256125 1_555
O2 Sc9 2.256125 1_554
O2 Sc2 2.268432 1_555
O2 Sc8 2.268432 1_455
