# generated using pymatgen
data_Sr2Al9Ir2Pt
_symmetry_space_group_name_H-M   'P 1'
_cell_length_a   7.66704083
_cell_length_b   7.66704161
_cell_length_c   9.65467725
_cell_angle_alpha   90.00000000
_cell_angle_beta   90.00000000
_cell_angle_gamma   119.00617145
_symmetry_Int_Tables_number   1
_chemical_formula_structural   Sr2Al9Ir2Pt
_chemical_formula_sum   'Sr4 Al18 Ir4 Pt2'
_cell_volume   496.34846351
_cell_formula_units_Z   2
loop_
 _symmetry_equiv_pos_site_id
 _symmetry_equiv_pos_as_xyz
  1  'x, y, z'
loop_
 _atom_site_type_symbol
 _atom_site_label
 _atom_site_symmetry_multiplicity
 _atom_site_fract_x
 _atom_site_fract_y
 _atom_site_fract_z
 _atom_site_occupancy
  Sr  Sr0  1  0.97536835  0.66810907  0.25000000  1
  Sr  Sr1  1  0.02463165  0.33189093  0.75000000  1
  Sr  Sr2  1  0.66810907  0.97536835  0.25000000  1
  Sr  Sr3  1  0.33189093  0.02463165  0.75000000  1
  Al  Al0  1  0.12959244  0.12959244  0.25000000  1
  Al  Al1  1  0.87040756  0.87040756  0.75000000  1
  Al  Al2  1  0.99202726  0.33587929  0.07315304  1
  Al  Al3  1  0.00797274  0.66412071  0.92684696  1
  Al  Al4  1  0.00797274  0.66412071  0.57315304  1
  Al  Al5  1  0.33587929  0.99202726  0.42684696  1
  Al  Al6  1  0.99202726  0.33587929  0.42684696  1
  Al  Al7  1  0.66412071  0.00797274  0.57315304  1
  Al  Al8  1  0.66412071  0.00797274  0.92684696  1
  Al  Al9  1  0.33587929  0.99202726  0.07315304  1
  Al  Al10  1  0.33264342  0.33264342  0.49953775  1
  Al  Al11  1  0.66735658  0.66735658  0.50046225  1
  Al  Al12  1  0.66735658  0.66735658  0.99953775  1
  Al  Al13  1  0.33264342  0.33264342  0.00046225  1
  Al  Al14  1  0.31199822  0.53629761  0.25000000  1
  Al  Al15  1  0.68800178  0.46370239  0.75000000  1
  Al  Al16  1  0.53629761  0.31199822  0.25000000  1
  Al  Al17  1  0.46370239  0.68800178  0.75000000  1
  Ir  Ir0  1  0.66704879  0.33295121  0.00000000  1
  Ir  Ir1  1  0.33295121  0.66704879  0.00000000  1
  Ir  Ir2  1  0.33295121  0.66704879  0.50000000  1
  Ir  Ir3  1  0.66704879  0.33295121  0.50000000  1
  Pt  Pt0  1  0.00000000  0.00000000  0.00000000  1
  Pt  Pt1  1  0.00000000  0.00000000  0.50000000  1
loop_
_geom_bond_atom_site_label_1
_geom_bond_atom_site_label_2
_geom_bond_distance
_geom_bond_site_symmetry_2
Al0 Pt0 2.615880 1_555
Al0 Pt1 2.615880 1_555
Al0 Al16 2.729460 1_555
Al0 Al14 2.729461 1_555
Al0 Al5 2.854281 1_545
Al0 Al9 2.854281 1_545
Al0 Al6 2.854281 1_455
Al0 Al2 2.854281 1_455
Al0 Al10 2.881159 1_555
Al0 Al13 2.881159 1_555
Al0 Sr2 3.140016 1_445
Al0 Sr0 3.140016 1_445
Al1 Pt0 2.615880 1_666
Al1 Pt1 2.615880 1_665
Al1 Al17 2.729460 1_555
Al1 Al15 2.729461 1_555
Al1 Al8 2.854281 1_565
Al1 Al7 2.854281 1_565
Al1 Al3 2.854281 1_655
Al1 Al4 2.854281 1_655
Al1 Al12 2.881159 1_555
Al1 Al11 2.881159 1_555
Al1 Sr3 3.140016 1_665
Al1 Sr1 3.140016 1_665
Al2 Ir0 2.579391 1_555
Al2 Pt0 2.699421 1_655
Al2 Ir1 2.709550 1_655
Al2 Al3 2.836425 1_654
Al2 Al8 2.916618 1_554
Al2 Sr0 3.120157 1_555
Al2 Sr1 3.131270 1_654
Al2 Sr2 3.172647 1_545
Al3 Ir1 2.579391 1_556
Al3 Pt0 2.699421 1_566
Al3 Ir0 2.709550 1_456
Al3 Al9 2.916618 1_556
Al3 Sr1 3.120157 1_555
Al3 Sr0 3.131270 1_456
Al3 Sr3 3.172647 1_565
Al4 Ir2 2.579391 1_555
Al4 Pt1 2.699421 1_565
Al4 Ir3 2.709550 1_455
Al4 Al6 2.836425 1_455
Al4 Al5 2.916618 1_555
Al4 Sr1 3.120157 1_555
Al4 Sr0 3.131270 1_455
Al4 Sr3 3.172647 1_565
Al5 Ir2 2.579391 1_555
Al5 Pt1 2.699420 1_565
Al5 Ir3 2.709550 1_565
Al5 Al7 2.836425 1_565
Al5 Sr2 3.120156 1_555
Al5 Sr3 3.131270 1_565
Al5 Sr0 3.172647 1_455
Al6 Ir3 2.579391 1_555
Al6 Pt1 2.699421 1_655
Al6 Ir2 2.709550 1_655
Al6 Al7 2.916618 1_555
Al6 Sr0 3.120157 1_555
Al6 Sr1 3.131270 1_655
Al6 Sr2 3.172647 1_545
Al7 Ir3 2.579391 1_555
Al7 Pt1 2.699420 1_655
Al7 Ir2 2.709550 1_545
Al7 Sr3 3.120156 1_555
Al7 Sr2 3.131270 1_545
Al7 Sr1 3.172647 1_655
Al8 Ir0 2.579391 1_556
Al8 Pt0 2.699420 1_656
Al8 Ir1 2.709550 1_546
Al8 Al9 2.836425 1_546
Al8 Sr3 3.120156 1_555
Al8 Sr2 3.131270 1_546
Al8 Sr1 3.172647 1_655
Al9 Ir1 2.579391 1_555
Al9 Pt0 2.699420 1_565
Al9 Ir0 2.709550 1_565
Al9 Sr2 3.120156 1_555
Al9 Sr3 3.131270 1_564
Al9 Sr0 3.172647 1_455
Al10 Ir3 2.562760 1_555
Al10 Ir2 2.562760 1_555
Al10 Pt1 2.588610 1_555
Al10 Al11 2.604727 1_555
Al10 Al6 2.715881 1_455
Al10 Al5 2.715881 1_545
Al10 Al16 2.916688 1_555
Al10 Al14 2.916688 1_555
Al10 Sr1 3.378024 1_555
Al10 Sr3 3.378025 1_555
Al11 Ir2 2.562760 1_555
Al11 Ir3 2.562760 1_555
Al11 Pt1 2.588610 1_665
Al11 Al4 2.715881 1_655
Al11 Al7 2.715881 1_565
Al11 Al17 2.916688 1_555
Al11 Al15 2.916688 1_555
Al11 Sr0 3.378024 1_555
Al11 Sr2 3.378025 1_555
Al12 Ir1 2.562760 1_556
Al12 Ir0 2.562760 1_556
Al12 Pt0 2.588610 1_666
Al12 Al13 2.604727 1_556
Al12 Al3 2.715881 1_655
Al12 Al8 2.715881 1_565
Al12 Al17 2.916688 1_555
Al12 Al15 2.916688 1_555
Al12 Sr0 3.378024 1_556
Al12 Sr2 3.378025 1_556
Al13 Ir0 2.562760 1_555
Al13 Ir1 2.562760 1_555
Al13 Pt0 2.588610 1_555
Al13 Al2 2.715881 1_455
Al13 Al9 2.715881 1_545
Al13 Al16 2.916688 1_555
Al13 Al14 2.916688 1_555
Al13 Sr1 3.378024 1_554
Al13 Sr3 3.378025 1_554
Al14 Ir1 2.588509 1_555
Al14 Ir2 2.588509 1_555
Al14 Al6 2.763853 1_455
Al14 Al2 2.763853 1_455
Al14 Al16 2.963603 1_555
Al14 Sr2 3.142187 1_555
Al14 Sr0 3.195657 1_455
Al15 Ir0 2.588509 1_556
Al15 Ir3 2.588509 1_555
Al15 Al3 2.763853 1_655
Al15 Al4 2.763853 1_655
Al15 Al17 2.963603 1_555
Al15 Sr3 3.142187 1_555
Al15 Sr1 3.195657 1_655
Al16 Ir3 2.588509 1_555
Al16 Ir0 2.588509 1_555
Al16 Al5 2.763854 1_545
Al16 Al9 2.763854 1_545
Al16 Sr0 3.142187 1_555
Al16 Sr2 3.195657 1_545
Al17 Ir2 2.588509 1_555
Al17 Ir1 2.588509 1_556
Al17 Al8 2.763854 1_565
Al17 Al7 2.763854 1_565
Al17 Sr1 3.142187 1_555
Al17 Sr3 3.195657 1_565
