# generated using pymatgen
data_CsRb2MoSe4
_symmetry_space_group_name_H-M   'P 1'
_cell_length_a   10.19256712
_cell_length_b   10.17427437
_cell_length_c   11.26713920
_cell_angle_alpha   90.00000000
_cell_angle_beta   90.00000000
_cell_angle_gamma   90.00000000
_symmetry_Int_Tables_number   1
_chemical_formula_structural   CsRb2MoSe4
_chemical_formula_sum   'Cs4 Rb8 Mo4 Se16'
_cell_volume   1168.42458094
_cell_formula_units_Z   4
loop_
 _symmetry_equiv_pos_site_id
 _symmetry_equiv_pos_as_xyz
  1  'x, y, z'
loop_
 _atom_site_type_symbol
 _atom_site_label
 _atom_site_symmetry_multiplicity
 _atom_site_fract_x
 _atom_site_fract_y
 _atom_site_fract_z
 _atom_site_occupancy
  Cs  Cs0  1  0.64814819  0.91008683  0.25000000  1
  Cs  Cs1  1  0.14814819  0.58991317  0.25000000  1
  Cs  Cs2  1  0.85185181  0.41008683  0.75000000  1
  Cs  Cs3  1  0.35185181  0.08991317  0.75000000  1
  Rb  Rb0  1  0.04771491  0.79223846  0.95555484  1
  Rb  Rb1  1  0.54771491  0.70776154  0.54444516  1
  Rb  Rb2  1  0.45228509  0.29223846  0.04444516  1
  Rb  Rb3  1  0.95228509  0.20776154  0.45555484  1
  Rb  Rb4  1  0.95228509  0.20776154  0.04444516  1
  Rb  Rb5  1  0.45228509  0.29223846  0.45555484  1
  Rb  Rb6  1  0.54771491  0.70776154  0.95555484  1
  Rb  Rb7  1  0.04771491  0.79223846  0.54444516  1
  Mo  Mo0  1  0.77997831  0.98366788  0.75000000  1
  Mo  Mo1  1  0.22002169  0.01633212  0.25000000  1
  Mo  Mo2  1  0.72002169  0.48366788  0.25000000  1
  Mo  Mo3  1  0.27997831  0.51633212  0.75000000  1
  Se  Se0  1  0.32985441  0.94926214  0.07594624  1
  Se  Se1  1  0.82985441  0.55073786  0.42405376  1
  Se  Se2  1  0.17014559  0.44926214  0.92405376  1
  Se  Se3  1  0.67014559  0.05073786  0.57594624  1
  Se  Se4  1  0.00388379  0.92902217  0.25000000  1
  Se  Se5  1  0.50388379  0.57097783  0.25000000  1
  Se  Se6  1  0.49611621  0.42902217  0.75000000  1
  Se  Se7  1  0.99611621  0.07097783  0.75000000  1
  Se  Se8  1  0.67014559  0.05073786  0.92405376  1
  Se  Se9  1  0.32985441  0.94926214  0.42405376  1
  Se  Se10  1  0.82985441  0.55073786  0.07594624  1
  Se  Se11  1  0.17014559  0.44926214  0.57594624  1
  Se  Se12  1  0.79453241  0.75209461  0.75000000  1
  Se  Se13  1  0.29453241  0.74790539  0.75000000  1
  Se  Se14  1  0.70546759  0.25209461  0.25000000  1
  Se  Se15  1  0.20546759  0.24790539  0.25000000  1
loop_
_geom_bond_atom_site_label_1
_geom_bond_atom_site_label_2
_geom_bond_distance
_geom_bond_site_symmetry_2
Cs0 Se14 3.528386 1_565
Cs0 Se4 3.630974 1_655
Cs0 Se5 3.750459 1_555
Cs0 Se9 3.811793 1_555
Cs0 Se0 3.811793 1_555
Cs0 Se3 3.947812 1_565
Cs0 Se8 3.947812 1_564
Cs1 Se15 3.528386 1_555
Cs1 Se5 3.630974 1_555
Cs1 Se4 3.750459 1_555
Cs1 Se1 3.811793 1_455
Cs1 Se10 3.811793 1_455
Cs1 Se11 3.947812 1_555
Cs1 Se2 3.947812 1_554
Cs2 Se12 3.528386 1_555
Cs2 Se6 3.630974 1_555
Cs2 Se7 3.750459 1_555
Cs2 Se2 3.811793 1_655
Cs2 Se11 3.811793 1_655
Cs2 Se10 3.947812 1_556
Cs2 Se1 3.947812 1_555
Cs3 Se13 3.528386 1_545
Cs3 Se7 3.630974 1_455
Cs3 Se6 3.750459 1_555
Cs3 Se8 3.811793 1_555
Cs3 Se3 3.811793 1_555
Cs3 Se0 3.947812 1_546
Cs3 Se9 3.947812 1_545
Rb0 Se13 3.449079 1_555
Rb0 Se12 3.491437 1_455
Rb0 Se0 3.558389 1_556
Rb0 Se10 3.578853 1_456
Rb0 Se4 3.625261 1_556
Rb0 Se7 3.699088 1_465
Rb0 Se2 3.722908 1_555
Rb1 Se12 3.449079 1_555
Rb1 Se13 3.491437 1_555
Rb1 Se1 3.558389 1_555
Rb1 Se9 3.578853 1_555
Rb1 Se5 3.625261 1_555
Rb1 Se6 3.699088 1_555
Rb1 Se3 3.722908 1_565
Rb2 Se15 3.449079 1_555
Rb2 Se14 3.491437 1_555
Rb2 Se2 3.558389 1_554
Rb2 Se8 3.578853 1_554
Rb2 Se6 3.625261 1_554
Rb2 Se5 3.699088 1_555
Rb2 Se0 3.722908 1_545
Rb3 Se14 3.449079 1_555
Rb3 Se15 3.491437 1_655
Rb3 Se3 3.558389 1_555
Rb3 Se11 3.578853 1_655
Rb3 Se7 3.625261 1_555
Rb3 Se4 3.699088 1_645
Rb3 Se1 3.722908 1_555
Rb4 Se14 3.449079 1_555
Rb4 Se15 3.491437 1_655
Rb4 Se8 3.558389 1_554
Rb4 Se2 3.578853 1_654
Rb4 Se7 3.625261 1_554
Rb4 Se4 3.699088 1_645
Rb4 Se10 3.722908 1_555
Rb5 Se15 3.449079 1_555
Rb5 Se14 3.491437 1_555
Rb5 Se11 3.558389 1_555
Rb5 Se3 3.578853 1_555
Rb5 Se6 3.625261 1_555
Rb5 Se5 3.699088 1_555
Rb5 Se9 3.722908 1_545
Rb6 Se12 3.449079 1_555
Rb6 Se13 3.491437 1_555
Rb6 Se10 3.558389 1_556
Rb6 Se0 3.578853 1_556
Rb6 Se5 3.625261 1_556
Rb6 Se6 3.699088 1_555
Rb6 Se8 3.722908 1_565
Rb7 Se13 3.449079 1_555
Rb7 Se12 3.491437 1_455
Rb7 Se9 3.558389 1_555
Rb7 Se1 3.578853 1_455
Rb7 Se4 3.625261 1_555
Rb7 Se7 3.699088 1_465
Rb7 Se11 3.722908 1_555
Mo0 Se8 2.358972 1_565
Mo0 Se3 2.358972 1_565
Mo0 Se12 2.360755 1_555
Mo0 Se7 2.375355 1_565
Mo1 Se9 2.358972 1_545
Mo1 Se0 2.358972 1_545
Mo1 Se15 2.360755 1_555
Mo1 Se4 2.375355 1_545
Mo2 Se1 2.358972 1_555
Mo2 Se10 2.358972 1_555
Mo2 Se14 2.360755 1_555
Mo2 Se5 2.375355 1_555
Mo3 Se2 2.358972 1_555
Mo3 Se11 2.358972 1_555
Mo3 Se13 2.360755 1_555
Mo3 Se6 2.375355 1_555
