# generated using pymatgen
data_CsCaCuH4
_symmetry_space_group_name_H-M   'P 1'
_cell_length_a   7.88763056
_cell_length_b   7.88763056
_cell_length_c   7.88763056
_cell_angle_alpha   90.00000000
_cell_angle_beta   90.00000000
_cell_angle_gamma   90.00000000
_symmetry_Int_Tables_number   1
_chemical_formula_structural   CsCaCuH4
_chemical_formula_sum   'Cs4 Ca4 Cu4 H16'
_cell_volume   490.72669333
_cell_formula_units_Z   4
loop_
 _symmetry_equiv_pos_site_id
 _symmetry_equiv_pos_as_xyz
  1  'x, y, z'
loop_
 _atom_site_type_symbol
 _atom_site_label
 _atom_site_symmetry_multiplicity
 _atom_site_fract_x
 _atom_site_fract_y
 _atom_site_fract_z
 _atom_site_occupancy
  Cs  Cs0  1  0.15447035  0.65447035  0.84552965  1
  Cs  Cs1  1  0.65447035  0.84552965  0.15447035  1
  Cs  Cs2  1  0.84552965  0.15447035  0.65447035  1
  Cs  Cs3  1  0.34552965  0.34552965  0.34552965  1
  Ca  Ca0  1  0.85706880  0.35706880  0.14293120  1
  Ca  Ca1  1  0.35706880  0.14293120  0.85706880  1
  Ca  Ca2  1  0.14293120  0.85706880  0.35706880  1
  Ca  Ca3  1  0.64293120  0.64293120  0.64293120  1
  Cu  Cu0  1  0.42238530  0.92238530  0.57761470  1
  Cu  Cu1  1  0.92238530  0.57761470  0.42238530  1
  Cu  Cu2  1  0.57761470  0.42238530  0.92238530  1
  Cu  Cu3  1  0.07761470  0.07761470  0.07761470  1
  H  H0  1  0.53755416  0.03755416  0.46244584  1
  H  H1  1  0.03755416  0.46244584  0.53755416  1
  H  H2  1  0.46244584  0.53755416  0.03755416  1
  H  H3  1  0.96244584  0.96244584  0.96244584  1
  H  H4  1  0.26550484  0.99270993  0.10978222  1
  H  H5  1  0.89021778  0.76550484  0.50729007  1
  H  H6  1  0.49270993  0.39021778  0.73449516  1
  H  H7  1  0.76550484  0.50729007  0.89021778  1
  H  H8  1  0.39021778  0.73449516  0.49270993  1
  H  H9  1  0.99270993  0.10978222  0.26550484  1
  H  H10  1  0.73449516  0.49270993  0.39021778  1
  H  H11  1  0.10978222  0.26550484  0.99270993  1
  H  H12  1  0.50729007  0.89021778  0.76550484  1
  H  H13  1  0.23449516  0.00729007  0.60978222  1
  H  H14  1  0.60978222  0.23449516  0.00729007  1
  H  H15  1  0.00729007  0.60978222  0.23449516  1
loop_
_geom_bond_atom_site_label_1
_geom_bond_atom_site_label_2
_geom_bond_distance
_geom_bond_site_symmetry_2
Cs0 H2 3.007574 1_556
Cs0 H3 3.007574 1_455
Cs0 H1 3.007574 1_555
Cs0 H15 3.299192 1_556
Cs0 H11 3.299192 1_555
Cs0 H7 3.299192 1_455
Cs1 H0 3.007574 1_565
Cs1 H3 3.007574 1_554
Cs1 H2 3.007574 1_555
Cs1 H14 3.299192 1_565
Cs1 H4 3.299192 1_555
Cs1 H12 3.299192 1_554
Cs2 H3 3.007574 1_545
Cs2 H1 3.007574 1_655
Cs2 H0 3.007574 1_555
Cs2 H13 3.299192 1_655
Cs2 H9 3.299192 1_555
Cs2 H5 3.299192 1_545
Cs3 H2 3.007574 1_555
Cs3 H0 3.007574 1_555
Cs3 H1 3.007574 1_555
Cs3 H6 3.299192 1_555
Cs3 H10 3.299192 1_555
Cs3 H8 3.299192 1_555
Ca0 H10 2.425667 1_555
Ca0 H14 2.425667 1_555
Ca0 H9 2.425667 1_555
Ca0 H7 2.428756 1_554
Ca0 H11 2.428756 1_654
Ca0 H15 2.428756 1_655
Ca1 H6 2.425667 1_555
Ca1 H11 2.425667 1_555
Ca1 H13 2.425667 1_555
Ca1 H12 2.428756 1_545
Ca1 H4 2.428756 1_546
Ca1 H14 2.428756 1_556
Ca2 H8 2.425667 1_555
Ca2 H15 2.425667 1_555
Ca2 H4 2.425667 1_555
Ca2 H5 2.428756 1_455
Ca2 H9 2.428756 1_465
Ca2 H13 2.428756 1_565
Ca3 H5 2.425667 1_555
Ca3 H7 2.425667 1_555
Ca3 H12 2.425667 1_555
Ca3 H8 2.428756 1_555
Ca3 H6 2.428756 1_555
Ca3 H10 2.428756 1_555
Cu0 H0 1.573411 1_565
Cu0 H12 1.645971 1_555
Cu0 H8 1.645971 1_555
Cu0 H13 1.645971 1_565
Cu1 H1 1.573411 1_655
Cu1 H5 1.645971 1_555
Cu1 H10 1.645971 1_555
Cu1 H15 1.645971 1_655
Cu2 H2 1.573411 1_556
Cu2 H7 1.645971 1_555
Cu2 H6 1.645971 1_555
Cu2 H14 1.645971 1_556
Cu3 H3 1.573411 1_444
Cu3 H4 1.645971 1_545
Cu3 H9 1.645971 1_455
Cu3 H11 1.645971 1_554
