# generated using pymatgen
data_Fe11(NiO3)8
_symmetry_space_group_name_H-M   'P 1'
_cell_length_a   5.94145098
_cell_length_b   5.94145098
_cell_length_c   15.13593227
_cell_angle_alpha   89.69287827
_cell_angle_beta   89.69287827
_cell_angle_gamma   60.11683212
_symmetry_Int_Tables_number   1
_chemical_formula_structural   Fe11(NiO3)8
_chemical_formula_sum   'Fe11 Ni8 O24'
_cell_volume   463.26191468
_cell_formula_units_Z   1
loop_
 _symmetry_equiv_pos_site_id
 _symmetry_equiv_pos_as_xyz
  1  'x, y, z'
loop_
 _atom_site_type_symbol
 _atom_site_label
 _atom_site_symmetry_multiplicity
 _atom_site_fract_x
 _atom_site_fract_y
 _atom_site_fract_z
 _atom_site_occupancy
  Fe  Fe0  1  0.99895300  0.99895300  0.15064500  1
  Fe  Fe1  1  0.33501600  0.33501600  0.45893000  1
  Fe  Fe2  1  0.33124400  0.33124400  0.20076400  1
  Fe  Fe3  1  0.66875600  0.66875600  0.79923600  1
  Fe  Fe4  1  0.66498400  0.66498400  0.54107000  1
  Fe  Fe5  1  0.82831900  0.34517500  0.33410200  1
  Fe  Fe6  1  0.34517500  0.82831900  0.33410200  1
  Fe  Fe7  1  0.00000000  0.00000000  0.50000000  1
  Fe  Fe8  1  0.00104700  0.00104700  0.84935500  1
  Fe  Fe9  1  0.17168100  0.65482500  0.66589800  1
  Fe  Fe10  1  0.65482500  0.17168100  0.66589800  1
  Ni  Ni0  1  0.82996700  0.82996700  0.33599800  1
  Ni  Ni1  1  0.66772400  0.66772400  0.16513500  1
  Ni  Ni2  1  0.17003300  0.17003300  0.66400200  1
  Ni  Ni3  1  0.00000000  0.00000000  0.00000000  1
  Ni  Ni4  1  0.50000000  0.50000000  0.00000000  1
  Ni  Ni5  1  0.50000000  0.00000000  0.00000000  1
  Ni  Ni6  1  0.33227600  0.33227600  0.83486500  1
  Ni  Ni7  1  0.00000000  0.50000000  0.00000000  1
  O  O0  1  0.98256200  0.50373700  0.25191200  1
  O  O1  1  0.50373700  0.98256200  0.25191200  1
  O  O2  1  0.66433800  0.66433800  0.41233500  1
  O  O3  1  0.50579800  0.50579800  0.25390800  1
  O  O4  1  0.31274800  0.83917100  0.58109600  1
  O  O5  1  0.15847700  0.15847700  0.41803000  1
  O  O6  1  0.16082900  0.68725200  0.41890400  1
  O  O7  1  0.83917100  0.31274800  0.58109600  1
  O  O8  1  0.00080300  0.00080300  0.27239500  1
  O  O9  1  0.99919700  0.99919700  0.72760500  1
  O  O10  1  0.84152300  0.84152300  0.58197000  1
  O  O11  1  0.68725200  0.16082900  0.41890400  1
  O  O12  1  0.49420200  0.49420200  0.74609200  1
  O  O13  1  0.67439000  0.16416400  0.91696000  1
  O  O14  1  0.49626300  0.01743800  0.74808800  1
  O  O15  1  0.33566200  0.33566200  0.58766500  1
  O  O16  1  0.33257000  0.33257000  0.07513800  1
  O  O17  1  0.16416400  0.67439000  0.91696000  1
  O  O18  1  0.16325900  0.16325900  0.91751400  1
  O  O19  1  0.01743800  0.49626300  0.74808800  1
  O  O20  1  0.83674100  0.83674100  0.08248600  1
  O  O21  1  0.83583600  0.32561000  0.08304000  1
  O  O22  1  0.66743000  0.66743000  0.92486200  1
  O  O23  1  0.32561000  0.83583600  0.08304000  1
loop_
_geom_bond_atom_site_label_1
_geom_bond_atom_site_label_2
_geom_bond_distance
_geom_bond_site_symmetry_2
Fe0 O8 1.843016 1_665
Fe0 O21 1.966758 1_565
Fe0 O23 1.966758 1_655
Fe0 O20 1.966958 1_555
Fe1 O11 1.911225 1_555
Fe1 O6 1.911225 1_555
Fe1 O5 1.921934 1_555
Fe1 O15 1.948577 1_555
Fe2 O16 1.901431 1_555
Fe2 O1 1.953756 1_545
Fe2 O0 1.953756 1_455
Fe2 O3 1.971769 1_555
Fe3 O22 1.901431 1_555
Fe3 O14 1.953756 1_565
Fe3 O19 1.953756 1_655
Fe3 O12 1.971769 1_555
Fe4 O7 1.911225 1_555
Fe4 O4 1.911225 1_555
Fe4 O10 1.921934 1_555
Fe4 O2 1.948577 1_555
Fe5 O8 2.007432 1_655
Fe5 O0 2.027432 1_555
Fe5 O2 2.029290 1_555
Fe5 O3 2.060660 1_555
Fe5 O11 2.106609 1_555
Fe5 O5 2.129669 1_655
Fe6 O8 2.007432 1_565
Fe6 O1 2.027432 1_555
Fe6 O2 2.029290 1_555
Fe6 O3 2.060660 1_555
Fe6 O6 2.106609 1_555
Fe6 O5 2.129669 1_565
Fe7 O4 2.028580 1_545
Fe7 O7 2.028580 1_455
Fe7 O11 2.028580 1_455
Fe7 O6 2.028580 1_545
Fe7 O10 2.042272 1_445
Fe7 O5 2.042272 1_555
Fe8 O9 1.843016 1_445
Fe8 O17 1.966758 1_545
Fe8 O13 1.966758 1_455
Fe8 O18 1.966958 1_555
Fe9 O9 2.007432 1_455
Fe9 O19 2.027432 1_555
Fe9 O15 2.029290 1_555
Fe9 O12 2.060660 1_555
Fe9 O4 2.106609 1_555
Fe9 O10 2.129669 1_455
Fe10 O9 2.007432 1_545
Fe10 O14 2.027432 1_555
Fe10 O15 2.029290 1_555
Fe10 O12 2.060660 1_555
Fe10 O7 2.106609 1_555
Fe10 O10 2.129669 1_545
Ni0 O8 1.998234 1_665
Ni0 O2 2.052423 1_555
Ni0 O0 2.112275 1_555
Ni0 O1 2.112275 1_555
Ni0 O11 2.124169 1_565
Ni0 O6 2.124169 1_655
Ni1 O1 2.090474 1_555
Ni1 O0 2.090474 1_555
Ni1 O3 2.133356 1_555
Ni1 O20 2.135349 1_555
Ni1 O21 2.159636 1_555
Ni1 O23 2.159636 1_555
Ni2 O9 1.998234 1_445
Ni2 O15 2.052423 1_555
Ni2 O19 2.112275 1_555
Ni2 O14 2.112275 1_555
Ni2 O4 2.124169 1_545
Ni2 O7 2.124169 1_455
Ni3 O18 2.086178 1_554
Ni3 O20 2.086178 1_445
Ni3 O21 2.099148 1_455
Ni3 O17 2.099148 1_544
Ni3 O23 2.099148 1_545
Ni3 O13 2.099148 1_454
Ni4 O22 2.057767 1_554
Ni4 O16 2.057767 1_555
Ni4 O13 2.141857 1_554
Ni4 O23 2.141857 1_555
Ni4 O17 2.141857 1_554
Ni4 O21 2.141857 1_555
Ni5 O16 2.059283 1_555
Ni5 O22 2.059283 1_544
Ni5 O18 2.140684 1_554
Ni5 O20 2.140684 1_545
Ni5 O23 2.141172 1_545
Ni5 O13 2.141172 1_554
Ni6 O14 2.090474 1_555
Ni6 O19 2.090474 1_555
Ni6 O12 2.133356 1_555
Ni6 O18 2.135349 1_555
Ni6 O13 2.159636 1_555
Ni6 O17 2.159636 1_555
Ni7 O16 2.059283 1_555
Ni7 O22 2.059283 1_454
Ni7 O20 2.140684 1_455
Ni7 O18 2.140684 1_554
Ni7 O21 2.141172 1_455
Ni7 O17 2.141172 1_554
