# generated using pymatgen
data_Au2IBr
_symmetry_space_group_name_H-M   'P 1'
_cell_length_a   4.31132273
_cell_length_b   4.31132273
_cell_length_c   13.71193784
_cell_angle_alpha   90.00000000
_cell_angle_beta   90.00000000
_cell_angle_gamma   90.00000000
_symmetry_Int_Tables_number   1
_chemical_formula_structural   Au2IBr
_chemical_formula_sum   'Au4 I2 Br2'
_cell_volume   254.87069495
_cell_formula_units_Z   2
loop_
 _symmetry_equiv_pos_site_id
 _symmetry_equiv_pos_as_xyz
  1  'x, y, z'
loop_
 _atom_site_type_symbol
 _atom_site_label
 _atom_site_symmetry_multiplicity
 _atom_site_fract_x
 _atom_site_fract_y
 _atom_site_fract_z
 _atom_site_occupancy
  Au  Au0  1  0.24715899  0.74715899  0.74796250  1
  Au  Au1  1  0.75284101  0.74715899  0.24796250  1
  Au  Au2  1  0.24715899  0.25284101  0.24796250  1
  Au  Au3  1  0.75284101  0.25284101  0.74796250  1
  I  I0  1  0.50000000  0.00000000  0.90093671  1
  I  I1  1  0.50000000  0.00000000  0.40093671  1
  Br  Br0  1  0.00000000  0.50000000  0.10313829  1
  Br  Br1  1  0.00000000  0.50000000  0.60313829  1
loop_
_geom_bond_atom_site_label_1
_geom_bond_atom_site_label_2
_geom_bond_distance
_geom_bond_site_symmetry_2
Au0 Br1 2.492873 1_555
Au0 I0 2.603144 1_565
Au1 Br0 2.492873 1_655
Au1 I1 2.603144 1_565
Au2 Br0 2.492873 1_555
Au2 I1 2.603144 1_555
Au3 Br1 2.492873 1_655
Au3 I0 2.603144 1_555
