# generated using pymatgen
data_Hf10BeGaSn6
_symmetry_space_group_name_H-M   'P 1'
_cell_length_a   8.53106791
_cell_length_b   8.53106708
_cell_length_c   5.78267621
_cell_angle_alpha   90.00000000
_cell_angle_beta   90.00000000
_cell_angle_gamma   120.00000700
_symmetry_Int_Tables_number   1
_chemical_formula_structural   Hf10BeGaSn6
_chemical_formula_sum   'Hf10 Be1 Ga1 Sn6'
_cell_volume   364.47373110
_cell_formula_units_Z   1
loop_
 _symmetry_equiv_pos_site_id
 _symmetry_equiv_pos_as_xyz
  1  'x, y, z'
loop_
 _atom_site_type_symbol
 _atom_site_label
 _atom_site_symmetry_multiplicity
 _atom_site_fract_x
 _atom_site_fract_y
 _atom_site_fract_z
 _atom_site_occupancy
  Hf  Hf0  1  0.74273247  0.74273247  0.76253851  1
  Hf  Hf1  1  0.25726753  1.00000000  0.76253851  1
  Hf  Hf2  1  1.00000000  0.25726753  0.76253851  1
  Hf  Hf3  1  0.25726753  0.25726753  0.23746149  1
  Hf  Hf4  1  0.74273247  0.00000000  0.23746149  1
  Hf  Hf5  1  0.00000000  0.74273247  0.23746149  1
  Hf  Hf6  1  0.66666700  0.33333300  0.00000000  1
  Hf  Hf7  1  0.33333300  0.66666700  0.00000000  1
  Hf  Hf8  1  0.33333300  0.66666700  0.50000000  1
  Hf  Hf9  1  0.66666700  0.33333300  0.50000000  1
  Be  Be0  1  0.00000000  0.00000000  0.00000000  1
  Ga  Ga0  1  0.00000000  0.00000000  0.50000000  1
  Sn  Sn0  1  0.39040957  0.39040957  0.74580115  1
  Sn  Sn1  1  0.60959043  1.00000000  0.74580115  1
  Sn  Sn2  1  1.00000000  0.60959043  0.74580115  1
  Sn  Sn3  1  0.60959043  0.60959043  0.25419885  1
  Sn  Sn4  1  0.39040957  0.00000000  0.25419885  1
  Sn  Sn5  1  0.00000000  0.39040957  0.25419885  1
loop_
_geom_bond_atom_site_label_1
_geom_bond_atom_site_label_2
_geom_bond_distance
_geom_bond_site_symmetry_2
Hf0 Sn1 2.934182 1_555
Hf0 Sn2 2.934182 1_555
Hf0 Sn0 3.007248 1_555
Hf0 Sn3 3.061606 1_556
Hf0 Sn3 3.151377 1_555
Hf1 Sn2 2.934181 1_455
Hf1 Sn0 2.934181 1_565
Hf1 Sn1 3.007249 1_555
Hf1 Sn4 3.061606 1_566
Hf1 Sn4 3.151377 1_565
Hf2 Sn1 2.934181 1_545
Hf2 Sn0 2.934182 1_655
Hf2 Sn2 3.007248 1_555
Hf2 Sn5 3.061606 1_656
Hf2 Sn5 3.151377 1_655
Hf3 Sn4 2.934182 1_555
Hf3 Sn5 2.934182 1_555
Hf3 Sn3 3.007248 1_555
Hf3 Sn0 3.061606 1_554
Hf3 Sn0 3.151377 1_555
Hf4 Sn5 2.934181 1_655
Hf4 Sn3 2.934181 1_545
Hf4 Sn4 3.007249 1_555
Hf4 Sn1 3.061606 1_544
Hf4 Sn1 3.151377 1_545
Hf5 Sn4 2.934181 1_565
Hf5 Sn3 2.934182 1_455
Hf5 Sn5 3.007248 1_555
Hf5 Sn2 3.061606 1_454
Hf5 Sn2 3.151377 1_455
Hf6 Sn1 3.016577 1_544
Hf6 Sn5 3.016578 1_655
Hf6 Sn4 3.016580 1_555
Hf6 Sn2 3.016580 1_554
Hf6 Sn3 3.016585 1_555
Hf6 Sn0 3.016585 1_554
Hf7 Sn4 3.016577 1_565
Hf7 Sn2 3.016578 1_454
Hf7 Sn1 3.016580 1_554
Hf7 Sn5 3.016580 1_555
Hf7 Sn0 3.016585 1_554
Hf7 Sn3 3.016585 1_555
Hf8 Sn4 2.993214 1_565
Hf8 Sn2 2.993215 1_455
Hf8 Sn1 2.993217 1_555
Hf8 Sn5 2.993217 1_555
Hf8 Sn0 2.993222 1_555
Hf8 Sn3 2.993222 1_555
Hf9 Sn1 2.993214 1_545
Hf9 Sn5 2.993215 1_655
Hf9 Sn4 2.993217 1_555
Hf9 Sn2 2.993217 1_555
Hf9 Sn3 2.993222 1_555
Hf9 Sn0 2.993222 1_555
Be0 Hf3 2.588933 1_555
Be0 Hf0 2.588933 1_444
Be0 Hf2 2.588933 1_454
Be0 Hf5 2.588933 1_545
Be0 Hf1 2.588934 1_544
Be0 Hf4 2.588934 1_455
Ga0 Hf3 2.668681 1_555
Ga0 Hf0 2.668681 1_445
Ga0 Hf2 2.668681 1_455
Ga0 Hf5 2.668681 1_545
Ga0 Hf1 2.668681 1_545
Ga0 Hf4 2.668681 1_455
