# generated using pymatgen
data_BaGa2AgF9
_symmetry_space_group_name_H-M   'P 1'
_cell_length_a   7.29268826
_cell_length_b   7.29268954
_cell_length_c   7.77663229
_cell_angle_alpha   89.25199164
_cell_angle_beta   89.25199069
_cell_angle_gamma   119.44068005
_symmetry_Int_Tables_number   1
_chemical_formula_structural   BaGa2AgF9
_chemical_formula_sum   'Ba2 Ga4 Ag2 F18'
_cell_volume   360.05776910
_cell_formula_units_Z   2
loop_
 _symmetry_equiv_pos_site_id
 _symmetry_equiv_pos_as_xyz
  1  'x, y, z'
loop_
 _atom_site_type_symbol
 _atom_site_label
 _atom_site_symmetry_multiplicity
 _atom_site_fract_x
 _atom_site_fract_y
 _atom_site_fract_z
 _atom_site_occupancy
  Ba  Ba0  1  0.47376015  0.52623985  0.75000000  1
  Ba  Ba1  1  0.52623985  0.47376015  0.25000000  1
  Ga  Ga0  1  0.00000000  0.00000000  0.50000000  1
  Ga  Ga1  1  0.00000000  0.00000000  0.00000000  1
  Ga  Ga2  1  0.50000000  0.00000000  0.50000000  1
  Ga  Ga3  1  0.00000000  0.50000000  0.00000000  1
  Ag  Ag0  1  0.50000000  0.00000000  0.00000000  1
  Ag  Ag1  1  0.00000000  0.50000000  0.50000000  1
  F  F0  1  0.20340721  0.91307063  0.53811921  1
  F  F1  1  0.79659279  0.08692937  0.46188079  1
  F  F2  1  0.08692937  0.79659279  0.96188079  1
  F  F3  1  0.91307063  0.20340721  0.03811921  1
  F  F4  1  0.97915801  0.02084199  0.75000000  1
  F  F5  1  0.02084199  0.97915801  0.25000000  1
  F  F6  1  0.51639532  0.91202959  0.72327633  1
  F  F7  1  0.48360468  0.08797041  0.27672367  1
  F  F8  1  0.08797041  0.48360468  0.77672367  1
  F  F9  1  0.91202959  0.51639532  0.22327633  1
  F  F10  1  0.58056826  0.27814503  0.56413978  1
  F  F11  1  0.41943174  0.72185497  0.43586022  1
  F  F12  1  0.72185497  0.41943174  0.93586022  1
  F  F13  1  0.27814503  0.58056826  0.06413978  1
  F  F14  1  0.71777375  0.79128500  0.01183605  1
  F  F15  1  0.28222625  0.20871500  0.98816395  1
  F  F16  1  0.20871500  0.28222625  0.48816395  1
  F  F17  1  0.79128500  0.71777375  0.51183605  1
loop_
_geom_bond_atom_site_label_1
_geom_bond_atom_site_label_2
_geom_bond_distance
_geom_bond_site_symmetry_2
Ba0 F8 2.679261 1_555
Ba0 F6 2.679262 1_555
Ba0 F17 2.717406 1_555
Ba0 F15 2.717406 1_555
Ba0 F12 2.719109 1_555
Ba0 F10 2.719109 1_555
Ba0 F16 2.804451 1_555
Ba0 F14 2.804451 1_556
Ba0 F13 2.941080 1_556
Ba0 F11 2.941080 1_555
Ba1 F9 2.679261 1_555
Ba1 F7 2.679262 1_555
Ba1 F16 2.717406 1_555
Ba1 F14 2.717406 1_555
Ba1 F13 2.719109 1_555
Ba1 F11 2.719109 1_555
Ba1 F17 2.804451 1_555
Ba1 F15 2.804451 1_554
Ba1 F12 2.941080 1_554
Ba1 F10 2.941080 1_555
Ag0 F7 2.271919 1_555
Ag0 F6 2.271919 1_544
Ag0 F2 2.646669 1_544
Ag0 F3 2.646669 1_555
Ag0 F14 2.687745 1_545
Ag0 F15 2.687745 1_554
Ag0 F12 2.701252 1_554
Ag0 F13 2.701252 1_545
Ag1 F8 2.271919 1_555
Ag1 F9 2.271919 1_455
Ag1 F0 2.646669 1_555
Ag1 F1 2.646669 1_455
Ag1 F17 2.687745 1_455
Ag1 F16 2.687745 1_555
Ag1 F11 2.701251 1_555
Ag1 F10 2.701251 1_455
F0 Ga0 1.902950 1_565
F0 Ga2 1.948988 1_565
F1 Ga0 1.902950 1_655
F1 Ga2 1.948988 1_555
F2 Ga1 1.902950 1_566
F2 Ga3 1.948988 1_556
F3 Ga1 1.902950 1_655
F3 Ga3 1.948988 1_655
F4 Ga0 1.961802 1_655
F4 Ga1 1.961802 1_656
F5 Ga0 1.961802 1_565
F5 Ga1 1.961802 1_565
F6 Ga2 1.868818 1_565
F7 Ga2 1.868818 1_555
F8 Ga3 1.868818 1_556
F9 Ga3 1.868818 1_655
F10 Ga2 1.889705 1_555
F11 Ga2 1.889705 1_565
F12 Ga3 1.889705 1_656
F13 Ga3 1.889705 1_555
F14 Ga1 1.863636 1_665
F15 Ga1 1.863636 1_556
F16 Ga0 1.863636 1_555
F17 Ga0 1.863636 1_665
