# generated using pymatgen
data_Ba4CoAgH12
_symmetry_space_group_name_H-M   'P 1'
_cell_length_a   7.99452332
_cell_length_b   7.99452335
_cell_length_c   5.87522362
_cell_angle_alpha   90.00622296
_cell_angle_beta   90.00622625
_cell_angle_gamma   136.96076762
_symmetry_Int_Tables_number   1
_chemical_formula_structural   Ba4CoAgH12
_chemical_formula_sum   'Ba4 Co1 Ag1 H12'
_cell_volume   256.27812625
_cell_formula_units_Z   1
loop_
 _symmetry_equiv_pos_site_id
 _symmetry_equiv_pos_as_xyz
  1  'x, y, z'
loop_
 _atom_site_type_symbol
 _atom_site_label
 _atom_site_symmetry_multiplicity
 _atom_site_fract_x
 _atom_site_fract_y
 _atom_site_fract_z
 _atom_site_occupancy
  Ba  Ba0  1  0.35795653  0.64204347  1.00000000  1
  Ba  Ba1  1  0.85803714  0.14196286  0.50000000  1
  Ba  Ba2  1  0.64204347  0.35795653  0.00000000  1
  Ba  Ba3  1  0.14196286  0.85803714  0.50000000  1
  Co  Co0  1  0.00000000  0.00000000  0.00000000  1
  Ag  Ag0  1  0.50000000  0.50000000  0.50000000  1
  H  H0  1  0.99997839  0.49983692  0.25142404  1
  H  H1  1  0.50016308  0.00002161  0.74857596  1
  H  H2  1  0.00002161  0.50016308  0.74857596  1
  H  H3  1  0.49983692  0.99997839  0.25142404  1
  H  H4  1  0.10463767  0.89536233  0.00000000  1
  H  H5  1  0.61468844  0.38531156  0.50000000  1
  H  H6  1  0.89536233  0.10463767  1.00000000  1
  H  H7  1  0.38531156  0.61468844  0.50000000  1
  H  H8  1  0.81054431  0.81054431  0.18909556  1
  H  H9  1  0.18945569  0.18945569  0.81090444  1
  H  H10  1  0.81019987  0.81019987  0.81111301  1
  H  H11  1  0.18980013  0.18980013  0.18888699  1
loop_
_geom_bond_atom_site_label_1
_geom_bond_atom_site_label_2
_geom_bond_distance
_geom_bond_site_symmetry_2
Ba0 H1 2.628703 1_565
Ba0 H0 2.628703 1_456
Ba0 H2 2.628896 1_555
Ba0 H3 2.628896 1_556
Ba0 H7 2.965657 1_556
Ba0 H7 2.965657 1_555
Ba0 H6 2.984864 1_565
Ba0 H6 2.984864 1_455
Ba0 H11 3.001135 1_556
Ba0 H10 3.001135 1_555
Ba0 H8 3.002415 1_556
Ba0 H9 3.002415 1_555
Ba1 H0 2.619462 1_555
Ba1 H1 2.619462 1_555
Ba1 H3 2.620875 1_545
Ba1 H2 2.620875 1_655
Ba1 H7 2.960478 1_655
Ba1 H7 2.960478 1_545
Ba1 H6 2.989616 1_555
Ba1 H6 2.989616 1_554
Ba1 H9 3.004839 1_655
Ba1 H8 3.004839 1_545
Ba1 H10 3.006731 1_545
Ba1 H11 3.006732 1_655
Ba2 H3 2.628703 1_545
Ba2 H2 2.628703 1_654
Ba2 H0 2.628896 1_555
Ba2 H1 2.628896 1_554
Ba2 H5 2.965657 1_554
Ba2 H5 2.965657 1_555
Ba2 H4 2.984864 1_545
Ba2 H4 2.984864 1_655
Ba2 H10 3.001135 1_554
Ba2 H11 3.001135 1_555
Ba2 H9 3.002415 1_554
Ba2 H8 3.002415 1_555
Ba3 H2 2.619462 1_555
Ba3 H3 2.619462 1_555
Ba3 H1 2.620875 1_565
Ba3 H0 2.620875 1_455
Ba3 H5 2.960478 1_455
Ba3 H5 2.960478 1_565
Ba3 H4 2.989616 1_555
Ba3 H4 2.989616 1_556
Ba3 H8 3.004839 1_455
Ba3 H9 3.004839 1_565
Ba3 H11 3.006731 1_565
Ba3 H10 3.006732 1_455
Co0 H4 1.556431 1_545
Co0 H6 1.556431 1_454
Co0 H8 1.571533 1_445
Co0 H9 1.571533 1_554
Co0 H11 1.571632 1_555
Co0 H10 1.571632 1_444
Ag0 H7 1.705931 1_555
Ag0 H5 1.705931 1_555
