# generated using pymatgen
data_Li13Sn5
_symmetry_space_group_name_H-M   'P 1'
_cell_length_a   4.66428601
_cell_length_b   4.66428541
_cell_length_c   16.99489080
_cell_angle_alpha   90.00000000
_cell_angle_beta   90.00000000
_cell_angle_gamma   119.99999712
_symmetry_Int_Tables_number   1
_chemical_formula_structural   Li13Sn5
_chemical_formula_sum   'Li13 Sn5'
_cell_volume   320.19851451
_cell_formula_units_Z   1
loop_
 _symmetry_equiv_pos_site_id
 _symmetry_equiv_pos_as_xyz
  1  'x, y, z'
loop_
 _atom_site_type_symbol
 _atom_site_label
 _atom_site_symmetry_multiplicity
 _atom_site_fract_x
 _atom_site_fract_y
 _atom_site_fract_z
 _atom_site_occupancy
  Li  Li0  1  0.00000000  0.00000000  0.50000000  1
  Li  Li1  1  0.00000000  0.00000000  0.67174425  1
  Li  Li2  1  -0.00000000  -0.00000000  0.32825575  1
  Li  Li3  1  0.00000000  0.00000000  0.83850659  1
  Li  Li4  1  -0.00000000  -0.00000000  0.16149341  1
  Li  Li5  1  0.33333300  0.66666700  0.94614560  1
  Li  Li6  1  0.66666700  0.33333300  0.05385440  1
  Li  Li7  1  0.33333300  0.66666700  0.44646731  1
  Li  Li8  1  0.66666700  0.33333300  0.55353269  1
  Li  Li9  1  0.33333300  0.66666700  0.28305811  1
  Li  Li10  1  0.66666700  0.33333300  0.71694189  1
  Li  Li11  1  0.33333300  0.66666700  0.11216906  1
  Li  Li12  1  0.66666700  0.33333300  0.88783094  1
  Sn  Sn0  1  0.00000000  0.00000000  -0.00000000  1
  Sn  Sn1  1  0.33333300  0.66666700  0.77780747  1
  Sn  Sn2  1  0.66666700  0.33333300  0.22219253  1
  Sn  Sn3  1  0.33333300  0.66666700  0.60901336  1
  Sn  Sn4  1  0.66666700  0.33333300  0.39098664  1
loop_
_geom_bond_atom_site_label_1
_geom_bond_atom_site_label_2
_geom_bond_distance
_geom_bond_site_symmetry_2
Li0 Li7 2.842454 1_545
Li0 Li8 2.842454 1_455
Li0 Li7 2.842457 1_555
Li0 Li8 2.842457 1_445
Li0 Li7 2.842458 1_445
Li0 Li8 2.842458 1_555
Li0 Li2 2.918775 1_555
Li0 Li1 2.918775 1_555
Li1 Li10 2.800332 1_455
Li1 Li10 2.800336 1_445
Li1 Li10 2.800336 1_555
Li1 Li3 2.834108 1_555
Li1 Sn3 2.896277 1_545
Li1 Sn3 2.896280 1_555
Li1 Sn3 2.896281 1_445
Li2 Li9 2.800332 1_545
Li2 Li9 2.800336 1_555
Li2 Li9 2.800336 1_445
Li2 Li4 2.834108 1_555
Li2 Sn4 2.896277 1_455
Li2 Sn4 2.896280 1_445
Li2 Sn4 2.896281 1_555
Li3 Sn0 2.744563 1_556
Li3 Sn1 2.883745 1_545
Li3 Sn1 2.883749 1_555
Li3 Sn1 2.883749 1_445
Li4 Sn0 2.744563 1_555
Li4 Sn2 2.883745 1_455
Li4 Sn2 2.883749 1_445
Li4 Sn2 2.883749 1_555
Li5 Sn0 2.844208 1_566
Li5 Sn0 2.844212 1_556
Li5 Sn0 2.844212 1_666
Li5 Sn1 2.860888 1_555
Li6 Sn0 2.844208 1_655
Li6 Sn0 2.844212 1_665
Li6 Sn0 2.844212 1_555
Li6 Sn2 2.860888 1_555
Li7 Sn3 2.762452 1_555
Li7 Li9 2.777122 1_555
Li7 Sn4 2.853222 1_565
Li7 Sn4 2.853222 1_455
Li7 Sn4 2.853230 1_555
Li8 Sn4 2.762452 1_555
Li8 Sn3 2.853222 1_545
Li8 Sn3 2.853222 1_655
Li8 Sn3 2.853230 1_555
Li9 Sn2 2.884758 1_565
Li9 Sn2 2.884759 1_455
Li9 Sn2 2.884766 1_555
Li10 Li8 2.777122 1_555
Li10 Sn1 2.884758 1_545
Li10 Sn1 2.884759 1_655
Li10 Sn1 2.884766 1_555
Li10 Li12 2.904241 1_555
Li11 Li4 2.820376 1_565
Li11 Li4 2.820380 1_555
Li11 Li4 2.820380 1_665
Li11 Li5 2.821551 1_554
Li11 Li6 2.869498 1_565
Li11 Li6 2.869499 1_455
Li11 Li6 2.869506 1_555
Li11 Li9 2.904241 1_555
Li12 Li3 2.820376 1_655
Li12 Li3 2.820380 1_665
Li12 Li3 2.820380 1_555
Li12 Li6 2.821551 1_556
Li12 Li5 2.869498 1_545
Li12 Li5 2.869499 1_655
Li12 Li5 2.869506 1_555
Sn1 Sn3 2.868637 1_555
Sn2 Sn4 2.868637 1_555
