# generated using pymatgen
data_Sc2B2AsRuRh4
_symmetry_space_group_name_H-M   'P 1'
_cell_length_a   9.21112235
_cell_length_b   9.21112235
_cell_length_c   3.12468031
_cell_angle_alpha   90.00000000
_cell_angle_beta   90.00000000
_cell_angle_gamma   90.00000000
_symmetry_Int_Tables_number   1
_chemical_formula_structural   Sc2B2AsRuRh4
_chemical_formula_sum   'Sc4 B4 As2 Ru2 Rh8'
_cell_volume   265.11279705
_cell_formula_units_Z   2
loop_
 _symmetry_equiv_pos_site_id
 _symmetry_equiv_pos_as_xyz
  1  'x, y, z'
loop_
 _atom_site_type_symbol
 _atom_site_label
 _atom_site_symmetry_multiplicity
 _atom_site_fract_x
 _atom_site_fract_y
 _atom_site_fract_z
 _atom_site_occupancy
  Sc  Sc0  1  0.67289668  0.17289668  0.00000000  1
  Sc  Sc1  1  0.32710332  0.82710332  0.00000000  1
  Sc  Sc2  1  0.17289668  0.32710332  0.00000000  1
  Sc  Sc3  1  0.82710332  0.67289668  0.00000000  1
  B  B0  1  0.12357636  0.62357636  0.00000000  1
  B  B1  1  0.87642364  0.37642364  0.00000000  1
  B  B2  1  0.62357636  0.87642364  0.00000000  1
  B  B3  1  0.37642364  0.12357636  0.00000000  1
  As  As0  1  0.50000000  0.50000000  0.00000000  1
  As  As1  1  0.00000000  0.00000000  0.00000000  1
  Ru  Ru0  1  0.50000000  0.00000000  0.50000000  1
  Ru  Ru1  1  0.00000000  0.50000000  0.50000000  1
  Rh  Rh0  1  0.57363672  0.71489571  0.50000000  1
  Rh  Rh1  1  0.42636328  0.28510429  0.50000000  1
  Rh  Rh2  1  0.07363672  0.78510429  0.50000000  1
  Rh  Rh3  1  0.92636328  0.21489571  0.50000000  1
  Rh  Rh4  1  0.28510429  0.57363672  0.50000000  1
  Rh  Rh5  1  0.71489571  0.42636328  0.50000000  1
  Rh  Rh6  1  0.21489571  0.07363672  0.50000000  1
  Rh  Rh7  1  0.78510429  0.92636328  0.50000000  1
loop_
_geom_bond_atom_site_label_1
_geom_bond_atom_site_label_2
_geom_bond_distance
_geom_bond_site_symmetry_2
B0 Rh4 2.205950 1_555
B0 Rh4 2.205950 1_554
B0 Rh2 2.205950 1_555
B0 Rh2 2.205950 1_554
B0 Ru1 2.243269 1_555
B0 Ru1 2.243269 1_554
B0 Sc1 2.651243 1_555
B0 Sc2 2.768379 1_555
B0 Sc3 2.768379 1_455
B1 Rh3 2.205950 1_554
B1 Rh3 2.205950 1_555
B1 Rh5 2.205950 1_555
B1 Rh5 2.205950 1_554
B1 Ru1 2.243269 1_654
B1 Ru1 2.243269 1_655
B1 Sc0 2.651243 1_555
B1 Sc2 2.768379 1_655
B1 Sc3 2.768379 1_555
B2 Rh7 2.205950 1_554
B2 Rh0 2.205950 1_555
B2 Rh7 2.205950 1_555
B2 Rh0 2.205950 1_554
B2 Ru0 2.243269 1_565
B2 Ru0 2.243269 1_564
B2 Sc3 2.651243 1_555
B2 Sc0 2.768379 1_565
B2 Sc1 2.768379 1_555
B3 Rh1 2.205950 1_555
B3 Rh1 2.205950 1_554
B3 Rh6 2.205950 1_555
B3 Rh6 2.205950 1_554
B3 Ru0 2.243269 1_554
B3 Ru0 2.243269 1_555
B3 Sc2 2.651243 1_555
B3 Sc0 2.768379 1_555
B3 Sc1 2.768379 1_545
As0 Rh0 2.611343 1_554
As0 Rh0 2.611343 1_555
As0 Rh5 2.611343 1_555
As0 Rh5 2.611343 1_554
As0 Rh4 2.611343 1_555
As0 Rh4 2.611343 1_554
As0 Rh1 2.611343 1_555
As0 Rh1 2.611343 1_554
As1 Rh6 2.611343 1_555
As1 Rh6 2.611343 1_554
As1 Rh3 2.611343 1_454
As1 Rh3 2.611343 1_455
As1 Rh2 2.611343 1_544
As1 Rh2 2.611343 1_545
As1 Rh7 2.611343 1_445
As1 Rh7 2.611343 1_444
Ru0 Sc0 2.741073 1_555
Ru0 Sc0 2.741073 1_556
Ru0 Sc1 2.741073 1_546
Ru0 Sc1 2.741073 1_545
Ru1 Sc3 2.741073 1_455
Ru1 Sc3 2.741073 1_456
Ru1 Sc2 2.741073 1_555
Ru1 Sc2 2.741073 1_556
Rh0 Sc3 2.835744 1_556
Rh0 Sc3 2.835744 1_555
Rh0 Sc1 2.943791 1_555
Rh0 Sc1 2.943791 1_556
Rh1 Sc2 2.835744 1_555
Rh1 Sc2 2.835744 1_556
Rh1 Sc0 2.943791 1_555
Rh1 Sc0 2.943791 1_556
Rh2 Sc1 2.835744 1_555
Rh2 Sc1 2.835744 1_556
Rh2 Sc3 2.943791 1_455
Rh2 Sc3 2.943791 1_456
Rh3 Sc0 2.835744 1_555
Rh3 Sc0 2.835744 1_556
Rh3 Sc2 2.943791 1_655
Rh3 Sc2 2.943791 1_656
Rh4 Sc1 2.835744 1_555
Rh4 Sc1 2.835744 1_556
Rh4 Sc2 2.943791 1_555
Rh4 Sc2 2.943791 1_556
Rh5 Sc0 2.835744 1_555
Rh5 Sc0 2.835744 1_556
Rh5 Sc3 2.943791 1_555
Rh5 Sc3 2.943791 1_556
Rh6 Sc2 2.835744 1_556
Rh6 Sc2 2.835744 1_555
Rh6 Sc1 2.943791 1_546
Rh6 Sc1 2.943791 1_545
Rh7 Sc3 2.835744 1_556
Rh7 Sc3 2.835744 1_555
Rh7 Sc0 2.943791 1_566
Rh7 Sc0 2.943791 1_565
