# generated using pymatgen
data_MgSnRuRh
_symmetry_space_group_name_H-M   'P 1'
_cell_length_a   4.44239502
_cell_length_b   4.44239476
_cell_length_c   4.44239539
_cell_angle_alpha   60.00000249
_cell_angle_beta   60.00000446
_cell_angle_gamma   60.00000518
_symmetry_Int_Tables_number   1
_chemical_formula_structural   MgSnRuRh
_chemical_formula_sum   'Mg1 Sn1 Ru1 Rh1'
_cell_volume   61.99213218
_cell_formula_units_Z   1
loop_
 _symmetry_equiv_pos_site_id
 _symmetry_equiv_pos_as_xyz
  1  'x, y, z'
loop_
 _atom_site_type_symbol
 _atom_site_label
 _atom_site_symmetry_multiplicity
 _atom_site_fract_x
 _atom_site_fract_y
 _atom_site_fract_z
 _atom_site_occupancy
  Mg  Mg0  1  0.50000000  0.50000000  0.50000000  1
  Sn  Sn0  1  0.00000000  0.00000000  0.00000000  1
  Ru  Ru0  1  0.25000000  0.25000000  0.25000000  1
  Rh  Rh0  1  0.75000000  0.75000000  0.75000000  1
loop_
_geom_bond_atom_site_label_1
_geom_bond_atom_site_label_2
_geom_bond_distance
_geom_bond_site_symmetry_2
Mg0 Ru0 2.720400 1_555
Mg0 Rh0 2.720400 1_555
Mg0 Ru0 2.720400 1_565
Mg0 Rh0 2.720400 1_545
Mg0 Ru0 2.720400 1_655
Mg0 Rh0 2.720400 1_455
Mg0 Rh0 2.720401 1_554
Mg0 Ru0 2.720401 1_556
Mg0 Sn0 3.141248 1_556
Mg0 Sn0 3.141248 1_665
Mg0 Sn0 3.141248 1_655
Mg0 Sn0 3.141248 1_566
Mg0 Sn0 3.141248 1_565
Mg0 Sn0 3.141248 1_656
Ru0 Sn0 2.720400 1_555
Ru0 Sn0 2.720400 1_565
Ru0 Sn0 2.720400 1_655
Ru0 Sn0 2.720401 1_556
Rh0 Sn0 2.720400 1_666
Rh0 Sn0 2.720400 1_656
Rh0 Sn0 2.720400 1_566
Rh0 Sn0 2.720401 1_665
