# generated using pymatgen
data_RbP2RuRh
_symmetry_space_group_name_H-M   'P 1'
_cell_length_a   7.36986483
_cell_length_b   7.36986444
_cell_length_c   7.36986470
_cell_angle_alpha   148.85073660
_cell_angle_beta   148.85073137
_cell_angle_gamma   44.63105936
_symmetry_Int_Tables_number   1
_chemical_formula_structural   RbP2RuRh
_chemical_formula_sum   'Rb1 P2 Ru1 Rh1'
_cell_volume   106.78187372
_cell_formula_units_Z   1
loop_
 _symmetry_equiv_pos_site_id
 _symmetry_equiv_pos_as_xyz
  1  'x, y, z'
loop_
 _atom_site_type_symbol
 _atom_site_label
 _atom_site_symmetry_multiplicity
 _atom_site_fract_x
 _atom_site_fract_y
 _atom_site_fract_z
 _atom_site_occupancy
  Rb  Rb0  1  0.00000000  0.00000000  0.00000000  1
  P  P0  1  0.33789641  0.33789641  0.00000000  1
  P  P1  1  0.66210359  0.66210359  1.00000000  1
  Ru  Ru0  1  0.25000000  0.75000000  0.50000000  1
  Rh  Rh0  1  0.75000000  0.25000000  0.50000000  1
loop_
_geom_bond_atom_site_label_1
_geom_bond_atom_site_label_2
_geom_bond_distance
_geom_bond_site_symmetry_2
P0 Ru0 2.313436 1_544
P0 Ru0 2.313436 1_555
P0 Rh0 2.313437 1_555
P0 Rh0 2.313437 1_454
P0 Rb0 3.566079 1_565
P0 Rb0 3.566079 1_655
P0 Rb0 3.566079 1_554
P0 Rb0 3.566079 1_666
P1 Rh0 2.313436 1_566
P1 Rh0 2.313436 1_555
P1 Ru0 2.313437 1_555
P1 Ru0 2.313437 1_656
P1 Rb0 3.566079 1_656
P1 Rb0 3.566079 1_566
P1 Rb0 3.566079 1_667
P1 Rb0 3.566079 1_555
