# generated using pymatgen
data_Hf6Si6Tc5Mo
_symmetry_space_group_name_H-M   'P 1'
_cell_length_a   7.72306237
_cell_length_b   7.72272217
_cell_length_c   7.72272232
_cell_angle_alpha   126.47792495
_cell_angle_beta   127.97423702
_cell_angle_gamma   77.88714963
_symmetry_Int_Tables_number   1
_chemical_formula_structural   Hf6Si6Tc5Mo
_chemical_formula_sum   'Hf6 Si6 Tc5 Mo1'
_cell_volume   282.97919063
_cell_formula_units_Z   1
loop_
 _symmetry_equiv_pos_site_id
 _symmetry_equiv_pos_as_xyz
  1  'x, y, z'
loop_
 _atom_site_type_symbol
 _atom_site_label
 _atom_site_symmetry_multiplicity
 _atom_site_fract_x
 _atom_site_fract_y
 _atom_site_fract_z
 _atom_site_occupancy
  Hf  Hf0  1  0.54896935  0.09496337  0.04498782  1
  Hf  Hf1  1  0.45103065  0.49601847  0.54599302  1
  Hf  Hf2  1  0.94992441  0.49597713  0.04491412  1
  Hf  Hf3  1  0.05007559  0.09499071  0.54605371  1
  Hf  Hf4  1  0.75044114  0.89806139  0.64852461  1
  Hf  Hf5  1  0.24955886  0.89808448  0.14762025  1
  Si  Si0  1  0.33346827  0.83007855  0.49665110  1
  Si  Si1  1  0.66653173  0.16318283  0.49660828  1
  Si  Si2  1  0.83290812  0.82948393  0.99660065  1
  Si  Si3  1  0.16709188  0.16369253  0.99657381  1
  Si  Si4  1  0.74887616  0.49857839  0.24742646  1
  Si  Si5  1  0.25112384  0.49855130  0.74970223  1
  Tc  Tc0  1  0.12811855  0.75381449  0.62568436  1
  Tc  Tc1  1  0.87188145  0.49756581  0.62569594  1
  Tc  Tc2  1  0.62773233  0.75209248  0.12430795  1
  Tc  Tc3  1  0.37226767  0.49657462  0.12436015  1
  Tc  Tc4  1  0.50000000  0.24187090  0.74187090  1
  Mo  Mo0  1  0.00000000  0.24042361  0.24042361  1
loop_
_geom_bond_atom_site_label_1
_geom_bond_atom_site_label_2
_geom_bond_distance
_geom_bond_site_symmetry_2
Hf0 Si3 2.709554 1_554
Hf0 Si0 2.709711 1_544
Hf0 Si2 2.713376 1_544
Hf0 Si1 2.717580 1_555
Hf0 Si4 2.792595 1_555
Hf0 Tc0 2.913551 1_544
Hf0 Tc2 2.924160 1_545
Hf0 Tc4 2.966177 1_554
Hf0 Mo0 2.971524 1_655
Hf0 Tc3 2.974923 1_555
Hf0 Tc1 2.984956 1_555
Hf1 Si2 2.709560 1_555
Hf1 Si1 2.709711 1_555
Hf1 Si3 2.713380 1_554
Hf1 Si0 2.717591 1_555
Hf1 Si5 2.792599 1_555
Hf1 Tc1 2.913547 1_555
Hf1 Tc3 2.924148 1_555
Hf1 Tc4 2.966183 1_555
Hf1 Mo0 2.971526 1_555
Hf1 Tc2 2.974936 1_556
Hf1 Tc0 2.984959 1_555
Hf2 Si2 2.709313 1_554
Hf2 Si1 2.709543 1_554
Hf2 Si3 2.713418 1_654
Hf2 Si0 2.718441 1_655
Hf2 Si4 2.791980 1_555
Hf2 Tc1 2.913357 1_554
Hf2 Tc3 2.925045 1_655
Hf2 Tc4 2.965762 1_554
Hf2 Mo0 2.971266 1_655
Hf2 Tc2 2.974861 1_555
Hf2 Tc0 2.985024 1_655
Hf3 Si3 2.709295 1_555
Hf3 Si0 2.709541 1_545
Hf3 Si2 2.713424 1_444
Hf3 Si1 2.718432 1_455
Hf3 Si5 2.791983 1_555
Hf3 Tc0 2.913360 1_545
Hf3 Tc2 2.925048 1_445
Hf3 Tc4 2.965763 1_555
Hf3 Mo0 2.971267 1_555
Hf3 Tc3 2.974852 1_556
Hf3 Tc1 2.985019 1_455
Hf4 Si0 2.711268 1_555
Hf4 Si1 2.711486 1_565
Hf4 Si2 2.712247 1_555
Hf4 Si3 2.712502 1_665
Hf4 Si4 2.778451 1_555
Hf4 Mo0 2.920012 1_666
Hf4 Tc4 2.931766 1_565
Hf4 Tc1 2.968936 1_555
Hf4 Tc0 2.969142 1_655
Hf4 Tc3 2.976171 1_555
Hf4 Tc2 2.976393 1_555
Hf5 Si1 2.711267 1_565
Hf5 Si0 2.711481 1_555
Hf5 Si3 2.712251 1_564
Hf5 Si2 2.712501 1_454
Hf5 Si5 2.778451 1_554
Hf5 Mo0 2.920008 1_565
Hf5 Tc4 2.931765 1_565
Hf5 Tc0 2.968933 1_554
Hf5 Tc1 2.969145 1_454
Hf5 Tc2 2.976169 1_555
Hf5 Tc3 2.976408 1_555
Si0 Tc0 2.624822 1_555
Si0 Tc4 2.629108 1_565
Si0 Tc3 2.630794 1_555
Si1 Tc1 2.624813 1_555
Si1 Tc4 2.629122 1_555
Si1 Tc2 2.630787 1_545
Si2 Tc2 2.619607 1_556
Si2 Tc1 2.621619 1_555
Si3 Tc3 2.619591 1_556
Si3 Tc0 2.621614 1_545
Si4 Tc2 2.441796 1_555
Si4 Tc3 2.441901 1_555
Si4 Tc4 2.455392 1_554
Si4 Tc0 2.458582 1_655
Si4 Tc1 2.458710 1_555
Si5 Tc3 2.441806 1_556
Si5 Tc2 2.441898 1_556
Si5 Tc4 2.455397 1_555
Si5 Tc1 2.458582 1_455
Si5 Tc0 2.458703 1_555
Mo0 Si5 2.473298 1_555
Mo0 Si4 2.473298 1_455
Mo0 Si2 2.627844 1_444
Mo0 Si3 2.627858 1_554
