# generated using pymatgen
data_Rb4SnSb2F14
_symmetry_space_group_name_H-M   'P 1'
_cell_length_a   6.97572315
_cell_length_b   7.54747806
_cell_length_c   7.83665053
_cell_angle_alpha   92.36344355
_cell_angle_beta   91.62351811
_cell_angle_gamma   115.49427759
_symmetry_Int_Tables_number   1
_chemical_formula_structural   Rb4SnSb2F14
_chemical_formula_sum   'Rb4 Sn1 Sb2 F14'
_cell_volume   371.61500541
_cell_formula_units_Z   1
loop_
 _symmetry_equiv_pos_site_id
 _symmetry_equiv_pos_as_xyz
  1  'x, y, z'
loop_
 _atom_site_type_symbol
 _atom_site_label
 _atom_site_symmetry_multiplicity
 _atom_site_fract_x
 _atom_site_fract_y
 _atom_site_fract_z
 _atom_site_occupancy
  Rb  Rb0  1  0.28607154  0.56100862  0.14433759  1
  Rb  Rb1  1  0.85516729  0.73745249  0.41465017  1
  Rb  Rb2  1  0.71392846  0.43899138  0.85566241  1
  Rb  Rb3  1  0.14483271  0.26254751  0.58534983  1
  Sn  Sn0  1  0.00000000  0.00000000  0.00000000  1
  Sb  Sb0  1  0.40349110  0.82156495  0.68669684  1
  Sb  Sb1  1  0.59650890  0.17843505  0.31330316  1
  F  F0  1  0.90239974  0.35884657  0.32310382  1
  F  F1  1  0.27399050  0.10845491  0.88453271  1
  F  F2  1  0.42814932  0.66619501  0.48951001  1
  F  F3  1  0.72600950  0.89154509  0.11546729  1
  F  F4  1  0.96000800  0.23575602  0.94037633  1
  F  F5  1  0.28862226  0.94285476  0.49719795  1
  F  F6  1  0.03999200  0.76424398  0.05962367  1
  F  F7  1  0.85474324  0.86864680  0.77733018  1
  F  F8  1  0.09760026  0.64115343  0.67689618  1
  F  F9  1  0.14525676  0.13135320  0.22266982  1
  F  F10  1  0.40936696  0.58584632  0.80890357  1
  F  F11  1  0.59063304  0.41415368  0.19109643  1
  F  F12  1  0.71137774  0.05714524  0.50280205  1
  F  F13  1  0.57185068  0.33380499  0.51048999  1
loop_
_geom_bond_atom_site_label_1
_geom_bond_atom_site_label_2
_geom_bond_distance
_geom_bond_site_symmetry_2
F0 Sb1 1.973334 1_555
F0 Rb0 2.885675 1_655
F0 Rb3 2.931920 1_655
F0 Rb1 3.073021 1_555
F1 Sn0 1.988503 1_556
F1 Rb3 2.944260 1_555
F1 Rb2 3.031195 1_555
F2 Sb0 1.957510 1_555
F2 Rb0 2.814814 1_555
F2 Rb1 2.872693 1_555
F2 Rb3 2.973387 1_555
F3 Sn0 1.988503 1_665
F3 Rb1 2.944260 1_555
F3 Rb0 3.031195 1_555
F4 Sn0 1.987658 1_656
F4 Rb2 2.833084 1_555
F4 Rb0 2.901429 1_656
F4 Rb3 3.077193 1_655
F5 Sb0 2.088437 1_555
F5 Sb1 2.636356 1_565
F5 Rb1 2.781296 1_455
F5 Rb3 3.048026 1_565
F6 Sn0 1.987658 1_565
F6 Rb0 2.833084 1_555
F6 Rb2 2.901429 1_454
F6 Rb1 3.077193 1_455
F7 Sn0 1.986685 1_666
F7 Rb1 2.971438 1_555
F7 Rb2 3.051853 1_555
F7 Rb3 3.249522 1_665
F8 Sb0 1.973334 1_555
F8 Rb2 2.885675 1_455
F8 Rb1 2.931920 1_455
F8 Rb3 3.073021 1_555
F9 Sn0 1.986685 1_555
F9 Rb3 2.971438 1_555
F9 Rb0 3.051853 1_555
F9 Rb1 3.249522 1_445
F10 Sb0 2.070038 1_555
F10 Rb0 2.777550 1_556
F10 Rb2 2.809438 1_555
F10 Rb3 2.831348 1_555
F11 Sb1 2.070038 1_555
F11 Rb2 2.777550 1_554
F11 Rb0 2.809438 1_555
F11 Rb1 2.831348 1_555
F12 Sb1 2.088437 1_555
F12 Sb0 2.636356 1_545
F12 Rb3 2.781296 1_655
F12 Rb1 3.048026 1_545
F13 Sb1 1.957510 1_555
F13 Rb2 2.814814 1_555
F13 Rb3 2.872693 1_555
F13 Rb1 2.973387 1_555
