# generated using pymatgen
data_Mn2GaSnRh4
_symmetry_space_group_name_H-M   'P 1'
_cell_length_a   7.52883338
_cell_length_b   7.52883394
_cell_length_c   7.52883523
_cell_angle_alpha   33.55833937
_cell_angle_beta   33.55832979
_cell_angle_gamma   33.55834376
_symmetry_Int_Tables_number   1
_chemical_formula_structural   Mn2GaSnRh4
_chemical_formula_sum   'Mn2 Ga1 Sn1 Rh4'
_cell_volume   116.15570313
_cell_formula_units_Z   1
loop_
 _symmetry_equiv_pos_site_id
 _symmetry_equiv_pos_as_xyz
  1  'x, y, z'
loop_
 _atom_site_type_symbol
 _atom_site_label
 _atom_site_symmetry_multiplicity
 _atom_site_fract_x
 _atom_site_fract_y
 _atom_site_fract_z
 _atom_site_occupancy
  Mn  Mn0  1  0.25173797  0.25173797  0.25173797  1
  Mn  Mn1  1  0.74826203  0.74826203  0.74826203  1
  Ga  Ga0  1  0.00000000  0.00000000  0.00000000  1
  Sn  Sn0  1  0.50000000  0.50000000  0.50000000  1
  Rh  Rh0  1  0.37294985  0.37294985  0.37294985  1
  Rh  Rh1  1  0.87754562  0.87754562  0.87754562  1
  Rh  Rh2  1  0.62705015  0.62705015  0.62705015  1
  Rh  Rh3  1  0.12245438  0.12245438  0.12245438  1
loop_
_geom_bond_atom_site_label_1
_geom_bond_atom_site_label_2
_geom_bond_distance
_geom_bond_site_symmetry_2
Mn0 Rh0 2.581168 1_555
Mn0 Rh1 2.656230 1_445
Mn0 Rh1 2.656231 1_544
Mn0 Rh1 2.656232 1_454
Mn0 Rh2 2.664137 1_554
Mn0 Rh2 2.664137 1_455
Mn0 Rh2 2.664138 1_545
Mn0 Rh3 2.753053 1_555
Mn1 Rh2 2.581168 1_555
Mn1 Rh3 2.656230 1_665
Mn1 Rh3 2.656231 1_566
Mn1 Rh3 2.656232 1_656
Mn1 Rh0 2.664137 1_556
Mn1 Rh0 2.664137 1_655
Mn1 Rh0 2.664138 1_565
Mn1 Rh1 2.753053 1_555
Ga0 Rh3 2.607627 1_555
Ga0 Rh1 2.607627 1_444
Ga0 Rh0 2.647681 1_554
Ga0 Rh2 2.647681 1_445
Ga0 Rh0 2.647682 1_455
Ga0 Rh2 2.647682 1_544
Ga0 Rh0 2.647683 1_545
Ga0 Rh2 2.647683 1_454
Rh0 Sn0 2.705492 1_555
Rh1 Sn0 2.680470 1_556
Rh1 Sn0 2.680470 1_655
Rh1 Sn0 2.680471 1_565
Rh2 Sn0 2.705492 1_555
Rh3 Sn0 2.680470 1_554
Rh3 Sn0 2.680470 1_455
Rh3 Sn0 2.680471 1_545
