# generated using pymatgen
data_Hf2Ta4TiH16
_symmetry_space_group_name_H-M   'P 1'
_cell_length_a   6.40264618
_cell_length_b   6.31607498
_cell_length_c   6.40264542
_cell_angle_alpha   60.44626892
_cell_angle_beta   59.10745086
_cell_angle_gamma   60.44625946
_symmetry_Int_Tables_number   1
_chemical_formula_structural   Hf2Ta4TiH16
_chemical_formula_sum   'Hf2 Ta4 Ti1 H16'
_cell_volume   183.01827426
_cell_formula_units_Z   1
loop_
 _symmetry_equiv_pos_site_id
 _symmetry_equiv_pos_as_xyz
  1  'x, y, z'
loop_
 _atom_site_type_symbol
 _atom_site_label
 _atom_site_symmetry_multiplicity
 _atom_site_fract_x
 _atom_site_fract_y
 _atom_site_fract_z
 _atom_site_occupancy
  Hf  Hf0  1  0.50000000  0.00000000  0.50000000  1
  Hf  Hf1  1  0.00000000  0.50000000  0.00000000  1
  Ta  Ta0  1  0.00000000  0.00000000  0.50000000  1
  Ta  Ta1  1  0.00000000  0.50000000  0.50000000  1
  Ta  Ta2  1  0.50000000  0.50000000  0.00000000  1
  Ta  Ta3  1  0.50000000  0.00000000  0.00000000  1
  Ti  Ti0  1  0.00000000  0.00000000  0.00000000  1
  H  H0  1  0.88536212  0.87341710  0.36780268  1
  H  H1  1  0.87341710  0.36780268  0.87341710  1
  H  H2  1  0.36780268  0.87341710  0.88536212  1
  H  H3  1  0.87341710  0.88536212  0.87341710  1
  H  H4  1  0.11463788  0.12658290  0.63219732  1
  H  H5  1  0.12658290  0.63219732  0.12658290  1
  H  H6  1  0.63219732  0.12658290  0.11463788  1
  H  H7  1  0.12658290  0.11463788  0.12658290  1
  H  H8  1  0.61085264  0.62751007  0.13412722  1
  H  H9  1  0.62751007  0.13412722  0.62751007  1
  H  H10  1  0.13412722  0.62751007  0.61085264  1
  H  H11  1  0.62751007  0.61085264  0.62751007  1
  H  H12  1  0.38914736  0.37248993  0.86587278  1
  H  H13  1  0.37248993  0.86587278  0.37248993  1
  H  H14  1  0.86587278  0.37248993  0.38914736  1
  H  H15  1  0.37248993  0.38914736  0.37248993  1
loop_
_geom_bond_atom_site_label_1
_geom_bond_atom_site_label_2
_geom_bond_distance
_geom_bond_site_symmetry_2
H0 Ti0 1.915786 1_665
H0 Ta1 1.943897 1_655
H0 Ta0 1.943903 1_665
H0 Hf0 2.005114 1_565
H1 Ti0 1.915786 1_656
H1 Ta1 1.943897 1_655
H1 Ta2 1.943897 1_556
H1 Hf1 2.005119 1_656
H2 Ti0 1.915786 1_566
H2 Ta2 1.943897 1_556
H2 Ta3 1.943903 1_566
H2 Hf0 2.005114 1_565
H3 Ti0 1.915791 1_666
H3 Ta0 1.943897 1_665
H3 Ta3 1.943897 1_566
H3 Hf1 2.005114 1_656
H4 Ti0 1.915786 1_556
H4 Ta1 1.943897 1_555
H4 Ta0 1.943903 1_555
H4 Hf0 2.005114 1_555
H5 Ti0 1.915786 1_565
H5 Ta1 1.943897 1_555
H5 Ta2 1.943897 1_555
H5 Hf1 2.005119 1_555
H6 Ti0 1.915786 1_655
H6 Ta2 1.943897 1_555
H6 Ta3 1.943903 1_555
H6 Hf0 2.005114 1_555
H7 Ti0 1.915791 1_555
H7 Ta0 1.943897 1_555
H7 Ta3 1.943897 1_555
H7 Hf1 2.005114 1_555
H8 Ta3 1.939554 1_565
H8 Ta2 1.939554 1_555
H8 Hf1 2.024760 1_655
H9 Ta3 1.939554 1_556
H9 Ta0 1.939554 1_655
H9 Hf0 2.024760 1_555
H10 Ta0 1.939554 1_565
H10 Ta1 1.939554 1_555
H10 Hf1 2.024760 1_556
H11 Ta2 1.939554 1_556
H11 Ta1 1.939554 1_655
H11 Hf0 2.024760 1_565
H12 Ta3 1.939554 1_556
H12 Ta2 1.939554 1_556
H12 Hf1 2.024760 1_556
H13 Ta3 1.939554 1_565
H13 Ta0 1.939554 1_565
H13 Hf0 2.024760 1_565
H14 Ta0 1.939554 1_655
H14 Ta1 1.939554 1_655
H14 Hf1 2.024760 1_655
H15 Ta2 1.939554 1_555
H15 Ta1 1.939554 1_555
H15 Hf0 2.024760 1_555
