# generated using pymatgen
data_Tc4Te8MoW
_symmetry_space_group_name_H-M   'P 1'
_cell_length_a   7.15271621
_cell_length_b   7.13585838
_cell_length_c   7.11096069
_cell_angle_alpha   94.19733556
_cell_angle_beta   94.48025947
_cell_angle_gamma   93.78219896
_symmetry_Int_Tables_number   1
_chemical_formula_structural   Tc4Te8MoW
_chemical_formula_sum   'Tc4 Te8 Mo1 W1'
_cell_volume   359.93030144
_cell_formula_units_Z   1
loop_
 _symmetry_equiv_pos_site_id
 _symmetry_equiv_pos_as_xyz
  1  'x, y, z'
loop_
 _atom_site_type_symbol
 _atom_site_label
 _atom_site_symmetry_multiplicity
 _atom_site_fract_x
 _atom_site_fract_y
 _atom_site_fract_z
 _atom_site_occupancy
  Tc  Tc0  1  0.74789771  0.91206419  0.04583021  1
  Tc  Tc1  1  0.04573653  0.75123404  0.91332806  1
  Tc  Tc2  1  0.08818051  0.95707846  0.25104870  1
  Tc  Tc3  1  0.24773925  0.08802203  0.95356207  1
  Te  Te0  1  0.70885052  0.70459890  0.71249907  1
  Te  Te1  1  0.29389764  0.28724867  0.29051478  1
  Te  Te2  1  0.77855189  0.11873543  0.38035445  1
  Te  Te3  1  0.38039651  0.78036056  0.11988822  1
  Te  Te4  1  0.12035367  0.38333668  0.76939896  1
  Te  Te5  1  0.22856098  0.87642732  0.61915397  1
  Te  Te6  1  0.61196043  0.22189870  0.88105190  1
  Te  Te7  1  0.88324482  0.62497533  0.22234121  1
  Mo  Mo0  1  0.95385591  0.25035831  0.08688176  1
  W  W0  1  0.91077261  0.04366136  0.75414566  1
loop_
_geom_bond_atom_site_label_1
_geom_bond_atom_site_label_2
_geom_bond_distance
_geom_bond_site_symmetry_2
Tc0 W0 2.656969 1_564
Tc0 Te7 2.675393 1_555
Tc0 Te0 2.686338 1_554
Tc0 Tc1 2.687225 1_654
Tc0 Te2 2.691466 1_565
Tc0 Tc2 2.725832 1_655
Tc0 Te6 2.773344 1_564
Tc0 Te3 2.834272 1_555
Tc1 W0 2.647340 1_465
Tc1 Te0 2.691395 1_455
Tc1 Te3 2.696477 1_556
Tc1 Tc3 2.705896 1_565
Tc1 Tc2 2.707018 1_556
Tc1 Te5 2.725957 1_555
Tc1 Te7 2.746219 1_456
Tc1 Te4 2.846266 1_555
Tc2 Te1 2.678839 1_565
Tc2 Tc3 2.678887 1_564
Tc2 Te7 2.688990 1_455
Tc2 Te3 2.703496 1_555
Tc2 Te2 2.753347 1_465
Tc2 Te5 2.842060 1_555
Tc3 Te1 2.680866 1_556
Tc3 W0 2.686989 1_455
Tc3 Te5 2.710991 1_545
Tc3 Te4 2.730728 1_555
Tc3 Te3 2.756576 1_546
Tc3 Te6 2.814080 1_555
Te0 W0 2.719364 1_565
Te2 W0 2.851141 1_555
Te4 W0 2.755159 1_455
Te5 W0 2.836084 1_465
Te6 W0 2.737175 1_555
Mo0 Tc2 2.667095 1_645
Mo0 Tc3 2.670427 1_654
Mo0 W0 2.680305 1_554
Mo0 Te2 2.711060 1_555
Mo0 Te1 2.718691 1_655
Mo0 Tc0 2.728259 1_545
Mo0 Te6 2.737819 1_554
Mo0 Te4 2.828436 1_654
Mo0 Te7 2.864646 1_555
