# generated using pymatgen
data_Hf3ScAs6Ru7
_symmetry_space_group_name_H-M   'P 1'
_cell_length_a   7.01626537
_cell_length_b   7.01980571
_cell_length_c   7.01626608
_cell_angle_alpha   109.48144728
_cell_angle_beta   109.46099637
_cell_angle_gamma   109.48144020
_symmetry_Int_Tables_number   1
_chemical_formula_structural   Hf3ScAs6Ru7
_chemical_formula_sum   'Hf3 Sc1 As6 Ru7'
_cell_volume   265.98702085
_cell_formula_units_Z   1
loop_
 _symmetry_equiv_pos_site_id
 _symmetry_equiv_pos_as_xyz
  1  'x, y, z'
loop_
 _atom_site_type_symbol
 _atom_site_label
 _atom_site_symmetry_multiplicity
 _atom_site_fract_x
 _atom_site_fract_y
 _atom_site_fract_z
 _atom_site_occupancy
  Hf  Hf0  1  0.00000000  0.00000000  0.50000000  1
  Hf  Hf1  1  0.50000000  0.00000000  0.00000000  1
  Hf  Hf2  1  0.50000000  0.50000000  0.50000000  1
  Sc  Sc0  1  0.00000000  0.50000000  0.00000000  1
  As  As0  1  0.31118174  0.99739550  0.31118174  1
  As  As1  1  0.00000000  0.31378624  0.31118174  1
  As  As2  1  1.00000000  0.68621376  0.68881826  1
  As  As3  1  0.31118174  0.31378624  1.00000000  1
  As  As4  1  0.68881826  0.68621376  0.00000000  1
  As  As5  1  0.68881826  0.00260450  0.68881826  1
  Ru  Ru0  1  0.74821323  0.50000000  0.25178677  1
  Ru  Ru1  1  0.50357454  0.75178677  0.25178677  1
  Ru  Ru2  1  0.49642546  0.24821323  0.74821323  1
  Ru  Ru3  1  0.74821323  0.24821323  0.49642546  1
  Ru  Ru4  1  0.25178677  0.75178677  0.50357454  1
  Ru  Ru5  1  0.25178677  0.50000000  0.74821323  1
  Ru  Ru6  1  0.00000000  0.00000000  0.00000000  1
loop_
_geom_bond_atom_site_label_1
_geom_bond_atom_site_label_2
_geom_bond_distance
_geom_bond_site_symmetry_2
Hf0 Ru2 2.843721 1_555
Hf0 Ru1 2.843721 1_445
Hf0 Ru5 2.865355 1_555
Hf0 Ru0 2.865355 1_445
Hf0 Ru3 2.865355 1_455
Hf0 Ru4 2.865355 1_545
Hf1 Ru3 2.843721 1_555
Hf1 Ru4 2.843721 1_544
Hf1 Ru0 2.865355 1_555
Hf1 Ru5 2.865355 1_544
Hf1 Ru2 2.865355 1_554
Hf1 Ru1 2.865355 1_545
Hf2 Ru0 2.843727 1_555
Hf2 Ru5 2.843727 1_555
Hf2 Ru3 2.865355 1_555
Hf2 Ru4 2.865355 1_555
Hf2 Ru2 2.865355 1_555
Hf2 Ru1 2.865355 1_555
As0 Ru3 2.531537 1_565
As0 Ru2 2.531537 1_565
As0 Ru6 2.532018 1_565
As0 Ru1 2.533061 1_555
As0 Ru4 2.533061 1_555
As0 Sc0 2.894705 1_555
As0 Hf0 2.908640 1_565
As0 Hf1 2.908640 1_565
As0 Hf2 2.924634 1_565
As1 Ru3 2.531531 1_455
As1 Ru5 2.531536 1_555
As1 Ru6 2.532018 1_555
As1 Ru4 2.533055 1_555
As1 Ru0 2.533056 1_455
As1 Sc0 2.894705 1_555
As1 Hf1 2.908640 1_455
As1 Hf2 2.908640 1_555
As1 Hf0 2.924634 1_555
As2 Ru4 2.531531 1_655
As2 Ru0 2.531536 1_555
As2 Ru6 2.532018 1_666
As2 Ru3 2.533055 1_555
As2 Ru5 2.533056 1_655
As2 Sc0 2.894705 1_656
As2 Hf1 2.908640 1_666
As2 Hf2 2.908640 1_555
As2 Hf0 2.924634 1_665
As3 Ru2 2.531531 1_555
As3 Ru0 2.531536 1_556
As3 Ru6 2.532018 1_556
As3 Ru1 2.533055 1_556
As3 Ru5 2.533056 1_555
As3 Sc0 2.894705 1_556
As3 Hf0 2.908640 1_555
As3 Hf2 2.908640 1_556
As3 Hf1 2.924634 1_556
As4 Ru1 2.531531 1_555
As4 Ru5 2.531536 1_554
As4 Ru6 2.532018 1_665
As4 Ru2 2.533055 1_554
As4 Ru0 2.533056 1_555
As4 Sc0 2.894705 1_655
As4 Hf0 2.908640 1_665
As4 Hf2 2.908640 1_554
As4 Hf1 2.924634 1_565
As5 Ru4 2.531537 1_545
As5 Ru1 2.531537 1_545
As5 Ru6 2.532018 1_656
As5 Ru2 2.533061 1_555
As5 Ru3 2.533061 1_555
As5 Sc0 2.894705 1_656
As5 Hf0 2.908640 1_655
As5 Hf1 2.908640 1_556
As5 Hf2 2.924634 1_545
Ru0 Sc0 2.884668 1_655
Ru1 Sc0 2.884674 1_555
Ru2 Sc0 2.884674 1_656
Ru3 Sc0 2.884674 1_656
Ru4 Sc0 2.884674 1_555
Ru5 Sc0 2.884668 1_556
