# generated using pymatgen
data_Y2B4IrRu3
_symmetry_space_group_name_H-M   'P 1'
_cell_length_a   6.66907370
_cell_length_b   5.90674026
_cell_length_c   5.52182424
_cell_angle_alpha   71.30986351
_cell_angle_beta   57.03305679
_cell_angle_gamma   51.99546563
_symmetry_Int_Tables_number   1
_chemical_formula_structural   Y2B4IrRu3
_chemical_formula_sum   'Y2 B4 Ir1 Ru3'
_cell_volume   143.76373608
_cell_formula_units_Z   1
loop_
 _symmetry_equiv_pos_site_id
 _symmetry_equiv_pos_as_xyz
  1  'x, y, z'
loop_
 _atom_site_type_symbol
 _atom_site_label
 _atom_site_symmetry_multiplicity
 _atom_site_fract_x
 _atom_site_fract_y
 _atom_site_fract_z
 _atom_site_occupancy
  Y  Y0  1  0.74944435  0.74944435  0.75055565  1
  Y  Y1  1  0.49909292  0.49909292  0.50090708  1
  B  B0  1  0.06384136  0.43970746  0.05809073  1
  B  B1  1  0.81352695  0.18452764  0.81680000  1
  B  B2  1  0.43970746  0.06384136  0.43836046  1
  B  B3  1  0.18452764  0.81352695  0.18514542  1
  Ir  Ir0  1  0.11325546  0.11325546  0.38674454  1
  Ru  Ru0  1  0.38672481  0.38672481  0.11327519  1
  Ru  Ru1  1  0.13721759  0.13721759  0.86278241  1
  Ru  Ru2  1  0.86266147  0.86266147  0.13733853  1
loop_
_geom_bond_atom_site_label_1
_geom_bond_atom_site_label_2
_geom_bond_distance
_geom_bond_site_symmetry_2
B0 Ru2 2.041324 1_455
B0 Ru1 2.044222 1_554
B0 Ru0 2.156562 1_555
B0 Ir0 2.178485 1_555
B0 Y0 2.790553 1_454
B0 Y1 2.976163 1_554
B0 Y1 3.031074 1_455
B1 Ru0 2.050327 1_556
B1 Ir0 2.061669 1_655
B1 Ru2 2.135886 1_546
B1 Ru1 2.147275 1_655
B1 Y1 2.828045 1_555
B1 Y0 3.007671 1_545
B1 Y0 3.013725 1_555
B2 Ru2 2.041324 1_545
B2 Ru1 2.044222 1_555
B2 Ru0 2.156562 1_555
B2 Ir0 2.178485 1_555
B2 Y0 2.790553 1_545
B2 Y1 2.976163 1_555
B2 Y1 3.031075 1_545
B3 Ru0 2.050327 1_555
B3 Ir0 2.061669 1_565
B3 Ru2 2.135886 1_455
B3 Ru1 2.147275 1_564
B3 Y1 2.828045 1_555
B3 Y0 3.007671 1_455
B3 Y0 3.013725 1_554
Ir0 Y1 2.997218 1_455
Ir0 Y1 2.997218 1_545
Ru0 Y1 2.975278 1_554
Ru0 Y1 2.975278 1_555
Ru1 Y0 2.990090 1_545
Ru1 Y0 2.990090 1_455
Ru2 Y0 2.978411 1_555
Ru2 Y0 2.978411 1_554
