# generated using pymatgen
data_Zr3Nb2Sn3P
_symmetry_space_group_name_H-M   'P 1'
_cell_length_a   8.49112876
_cell_length_b   8.49112852
_cell_length_c   5.75995368
_cell_angle_alpha   90.00000000
_cell_angle_beta   90.00000000
_cell_angle_gamma   119.99998938
_symmetry_Int_Tables_number   1
_chemical_formula_structural   Zr3Nb2Sn3P
_chemical_formula_sum   'Zr6 Nb4 Sn6 P2'
_cell_volume   359.65036876
_cell_formula_units_Z   2
loop_
 _symmetry_equiv_pos_site_id
 _symmetry_equiv_pos_as_xyz
  1  'x, y, z'
loop_
 _atom_site_type_symbol
 _atom_site_label
 _atom_site_symmetry_multiplicity
 _atom_site_fract_x
 _atom_site_fract_y
 _atom_site_fract_z
 _atom_site_occupancy
  Zr  Zr0  1  0.74690722  0.74690722  0.75000000  1
  Zr  Zr1  1  0.25309278  0.00000000  0.75000000  1
  Zr  Zr2  1  0.00000000  0.25309278  0.75000000  1
  Zr  Zr3  1  0.25309278  0.25309278  0.25000000  1
  Zr  Zr4  1  0.74690722  1.00000000  0.25000000  1
  Zr  Zr5  1  1.00000000  0.74690722  0.25000000  1
  Nb  Nb0  1  0.66666700  0.33333300  0.00000000  1
  Nb  Nb1  1  0.33333300  0.66666700  0.00000000  1
  Nb  Nb2  1  0.33333300  0.66666700  0.50000000  1
  Nb  Nb3  1  0.66666700  0.33333300  0.50000000  1
  Sn  Sn0  1  0.40181667  0.40181667  0.75000000  1
  Sn  Sn1  1  0.59818333  0.00000000  0.75000000  1
  Sn  Sn2  1  0.00000000  0.59818333  0.75000000  1
  Sn  Sn3  1  0.59818333  0.59818333  0.25000000  1
  Sn  Sn4  1  0.40181667  1.00000000  0.25000000  1
  Sn  Sn5  1  1.00000000  0.40181667  0.25000000  1
  P  P0  1  0.00000000  0.00000000  0.00000000  1
  P  P1  1  0.00000000  0.00000000  0.50000000  1
loop_
_geom_bond_atom_site_label_1
_geom_bond_atom_site_label_2
_geom_bond_distance
_geom_bond_site_symmetry_2
Nb0 Nb3 2.879977 1_555
Nb0 Nb3 2.879977 1_554
Nb0 Sn1 2.962576 1_554
Nb0 Sn5 2.962576 1_555
Nb0 Sn4 2.962578 1_545
Nb0 Sn2 2.962578 1_654
Nb0 Sn3 2.962583 1_555
Nb0 Sn0 2.962583 1_554
Nb0 Zr4 3.532309 1_545
Nb0 Zr2 3.532309 1_654
Nb0 Zr5 3.532315 1_555
Nb0 Zr1 3.532315 1_554
Nb0 Zr0 3.532317 1_554
Nb0 Zr3 3.532317 1_555
Nb1 Nb2 2.879977 1_554
Nb1 Nb2 2.879977 1_555
Nb1 Sn4 2.962576 1_555
Nb1 Sn2 2.962576 1_554
Nb1 Sn1 2.962578 1_564
Nb1 Sn5 2.962578 1_455
Nb1 Sn0 2.962583 1_554
Nb1 Sn3 2.962583 1_555
Nb1 Zr1 3.532309 1_564
Nb1 Zr5 3.532309 1_455
Nb1 Zr2 3.532315 1_554
Nb1 Zr4 3.532315 1_555
Nb1 Zr3 3.532317 1_555
Nb1 Zr0 3.532317 1_554
Nb2 Sn4 2.962576 1_555
Nb2 Sn2 2.962576 1_555
Nb2 Sn1 2.962578 1_565
Nb2 Sn5 2.962578 1_455
Nb2 Sn0 2.962583 1_555
Nb2 Sn3 2.962583 1_555
Nb2 Zr1 3.532309 1_565
Nb2 Zr5 3.532309 1_455
Nb2 Zr2 3.532315 1_555
Nb2 Zr4 3.532315 1_555
Nb2 Zr3 3.532317 1_555
Nb2 Zr0 3.532317 1_555
Nb3 Sn1 2.962576 1_555
Nb3 Sn5 2.962576 1_555
Nb3 Sn4 2.962578 1_545
Nb3 Sn2 2.962578 1_655
Nb3 Sn3 2.962583 1_555
Nb3 Sn0 2.962583 1_555
Nb3 Zr4 3.532309 1_545
Nb3 Zr2 3.532309 1_655
Nb3 Zr5 3.532315 1_555
Nb3 Zr1 3.532315 1_555
Nb3 Zr0 3.532317 1_555
Nb3 Zr3 3.532317 1_555
Sn0 Zr0 2.930209 1_555
Sn0 Zr1 2.987812 1_555
Sn0 Zr2 2.987812 1_555
Sn0 Zr3 3.144681 1_555
Sn0 Zr3 3.144681 1_556
Sn1 Zr1 2.930208 1_555
Sn1 Zr0 2.987812 1_545
Sn1 Zr2 2.987812 1_655
Sn1 Zr4 3.144681 1_546
Sn1 Zr4 3.144681 1_545
Sn2 Zr2 2.930208 1_555
Sn2 Zr0 2.987812 1_455
Sn2 Zr1 2.987812 1_565
Sn2 Zr5 3.144681 1_455
Sn2 Zr5 3.144681 1_456
Sn3 Zr3 2.930209 1_555
Sn3 Zr4 2.987812 1_555
Sn3 Zr5 2.987812 1_555
Sn3 Zr0 3.144681 1_555
Sn3 Zr0 3.144681 1_554
Sn4 Zr4 2.930208 1_555
Sn4 Zr3 2.987812 1_565
Sn4 Zr5 2.987812 1_455
Sn4 Zr1 3.144681 1_565
Sn4 Zr1 3.144681 1_564
Sn5 Zr5 2.930208 1_555
Sn5 Zr3 2.987812 1_655
Sn5 Zr4 2.987812 1_545
Sn5 Zr2 3.144681 1_655
Sn5 Zr2 3.144681 1_654
P0 Zr5 2.586881 1_445
P0 Zr2 2.586881 1_554
P0 Zr1 2.586881 1_554
P0 Zr4 2.586881 1_445
P0 Zr3 2.586881 1_555
P0 Zr0 2.586881 1_444
P1 Zr5 2.586881 1_445
P1 Zr2 2.586881 1_555
P1 Zr1 2.586881 1_555
P1 Zr4 2.586881 1_445
P1 Zr3 2.586881 1_555
P1 Zr0 2.586881 1_445
