# generated using pymatgen
data_Cs16HfSnSb8
_symmetry_space_group_name_H-M   'P 1'
_cell_length_a   12.50565989
_cell_length_b   12.50595017
_cell_length_c   12.50591204
_cell_angle_alpha   60.00446125
_cell_angle_beta   59.99840885
_cell_angle_gamma   59.99996109
_symmetry_Int_Tables_number   1
_chemical_formula_structural   Cs16HfSnSb8
_chemical_formula_sum   'Cs16 Hf1 Sn1 Sb8'
_cell_volume   1383.03435668
_cell_formula_units_Z   1
loop_
 _symmetry_equiv_pos_site_id
 _symmetry_equiv_pos_as_xyz
  1  'x, y, z'
loop_
 _atom_site_type_symbol
 _atom_site_label
 _atom_site_symmetry_multiplicity
 _atom_site_fract_x
 _atom_site_fract_y
 _atom_site_fract_z
 _atom_site_occupancy
  Cs  Cs0  1  0.62298216  0.13112473  0.62292943  1
  Cs  Cs1  1  0.62297739  0.62293134  0.13112750  1
  Cs  Cs2  1  0.13112430  0.62294714  0.62294268  1
  Cs  Cs3  1  0.62300025  0.62293018  0.62293844  1
  Cs  Cs4  1  0.02189045  0.02182959  0.47814077  1
  Cs  Cs5  1  0.77520147  0.22480174  0.22482256  1
  Cs  Cs6  1  0.22486447  0.77511751  0.77511951  1
  Cs  Cs7  1  0.77517959  0.77510082  0.22489907  1
  Cs  Cs8  1  0.77515917  0.22490454  0.77508047  1
  Cs  Cs9  1  0.22484132  0.77508324  0.22493925  1
  Cs  Cs10  1  0.47815385  0.02182989  0.47813048  1
  Cs  Cs11  1  0.47809108  0.02190526  0.02191494  1
  Cs  Cs12  1  0.02187300  0.47812939  0.47813197  1
  Cs  Cs13  1  0.02188128  0.47814063  0.02183070  1
  Cs  Cs14  1  0.22484346  0.22492499  0.77508145  1
  Cs  Cs15  1  0.47812973  0.47810741  0.02185545  1
  Hf  Hf0  1  0.75003417  0.74997282  0.74998750  1
  Sn  Sn0  1  0.50000008  0.49999223  0.49999465  1
  Sb  Sb0  1  0.40271513  0.79155643  0.40302605  1
  Sb  Sb1  1  0.84389087  0.84390198  0.46827400  1
  Sb  Sb2  1  0.46826253  0.84391732  0.84391606  1
  Sb  Sb3  1  0.84391901  0.84391842  0.84391299  1
  Sb  Sb4  1  0.79179666  0.40280270  0.40277575  1
  Sb  Sb5  1  0.40262719  0.40281889  0.40278498  1
  Sb  Sb6  1  0.40265067  0.40303064  0.79153244  1
  Sb  Sb7  1  0.84391074  0.46828018  0.84391094  1
loop_
_geom_bond_atom_site_label_1
_geom_bond_atom_site_label_2
_geom_bond_distance
_geom_bond_site_symmetry_2
Cs0 Sn0 3.766671 1_555
Cs0 Hf0 3.892113 1_545
Cs0 Sb4 3.948136 1_555
Cs0 Sb5 3.948287 1_555
Cs0 Sb6 3.948469 1_555
Cs0 Sb1 3.994350 1_545
Cs0 Sb2 3.994934 1_545
Cs0 Sb3 3.994942 1_545
Cs0 Cs4 4.081149 1_655
Cs0 Cs10 4.081424 1_555
Cs0 Cs11 4.082244 1_556
Cs0 Cs8 4.086847 1_555
Cs0 Cs14 4.087016 1_555
Cs0 Cs5 4.087037 1_555
Cs1 Sn0 3.766597 1_555
Cs1 Hf0 3.891918 1_554
Cs1 Sb5 3.947832 1_555
Cs1 Sb4 3.947952 1_555
Cs1 Sb0 3.948542 1_555
Cs1 Sb7 3.994225 1_554
Cs1 Sb3 3.994924 1_554
Cs1 Sb2 3.995003 1_554
Cs1 Cs13 4.081115 1_655
Cs1 Cs15 4.081661 1_555
Cs1 Cs11 4.082207 1_565
Cs1 Cs9 4.086996 1_555
Cs1 Cs7 4.087223 1_555
Cs1 Cs5 4.087337 1_555
Cs2 Sn0 3.766439 1_555
Cs2 Hf0 3.891154 1_455
Cs2 Sb6 3.944908 1_555
Cs2 Sb0 3.945592 1_555
Cs2 Sb5 3.945886 1_555
Cs2 Sb7 3.994463 1_455
Cs2 Sb3 3.994713 1_455
Cs2 Sb1 3.994769 1_455
Cs2 Cs4 4.081278 1_565
Cs2 Cs9 4.085987 1_555
Cs2 Cs6 4.086661 1_555
Cs3 Sn0 3.766618 1_555
Cs3 Hf0 3.891637 1_555
Cs3 Sb0 3.945639 1_555
Cs3 Sb4 3.945942 1_555
Cs3 Sb6 3.946136 1_555
Cs3 Sb1 3.994334 1_555
Cs3 Sb7 3.994644 1_555
Cs3 Sb2 3.994993 1_555
Cs3 Cs8 4.086272 1_555
Cs3 Cs7 4.086370 1_555
Cs3 Cs6 4.087008 1_555
Cs4 Sb3 3.927172 1_445
Cs4 Sb1 3.927345 1_445
Cs4 Sb0 4.046312 1_545
Cs4 Sb4 4.047308 1_455
Cs5 Sb4 3.978494 1_555
Cs5 Sb5 3.978639 1_555
Cs5 Sb1 4.089135 1_545
Cs5 Sb7 4.089282 1_554
Cs6 Sb0 3.974088 1_555
Cs6 Sb6 3.974176 1_555
Cs6 Sb3 4.088800 1_455
Cs6 Sb2 4.089454 1_555
Cs7 Sb4 3.975976 1_555
Cs7 Sb0 3.977944 1_555
Cs7 Sb1 4.088472 1_555
Cs7 Sb3 4.089587 1_554
Cs8 Sb4 3.975961 1_555
Cs8 Sb6 3.978488 1_555
Cs8 Sb7 4.089075 1_555
Cs8 Sb3 4.089511 1_545
Cs9 Sb5 3.975570 1_555
Cs9 Sb0 3.977693 1_555
Cs9 Sb1 4.088723 1_455
Cs9 Sb2 4.089798 1_554
Cs10 Sb1 3.926709 1_545
Cs10 Sb2 3.927380 1_545
Cs10 Sb0 4.046336 1_545
Cs10 Sb5 4.047529 1_555
Cs10 Cs3 4.081450 1_545
Cs11 Sb3 3.927639 1_544
Cs11 Sb2 3.927661 1_544
Cs11 Sb0 4.049406 1_545
Cs11 Sb6 4.049683 1_554
Cs12 Sb1 3.927201 1_455
Cs12 Sb7 3.927224 1_455
Cs12 Sb5 4.045167 1_555
Cs12 Sb4 4.045234 1_455
Cs12 Cs3 4.080792 1_455
Cs12 Cs2 4.081005 1_555
Cs13 Sb7 3.926921 1_454
Cs13 Sb3 3.927302 1_454
Cs13 Sb6 4.045844 1_554
Cs13 Sb4 4.046928 1_455
Cs13 Cs2 4.081264 1_554
Cs14 Sb5 3.975865 1_555
Cs14 Sb6 3.976985 1_555
Cs14 Cs2 4.086241 1_555
Cs14 Sb7 4.088700 1_455
Cs14 Sb2 4.089766 1_545
Cs15 Sb7 3.927226 1_554
Cs15 Sb2 3.927741 1_554
Cs15 Sb5 4.047024 1_555
Cs15 Sb6 4.047038 1_554
Cs15 Cs3 4.081563 1_554
Hf0 Sb7 2.876490 1_555
Hf0 Sb1 2.876649 1_555
Hf0 Sb3 2.876983 1_555
Hf0 Sb2 2.877054 1_555
Sb0 Sn0 2.977293 1_555
Sb4 Sn0 2.979415 1_555
Sb5 Sn0 2.979092 1_555
Sb6 Sn0 2.976968 1_555
