# generated using pymatgen
data_Ca21Ga8AgSn6
_symmetry_space_group_name_H-M   'P 1'
_cell_length_a   11.39586597
_cell_length_b   11.39586615
_cell_length_c   11.39586613
_cell_angle_alpha   60.00000293
_cell_angle_beta   60.00000240
_cell_angle_gamma   60.00000213
_symmetry_Int_Tables_number   1
_chemical_formula_structural   Ca21Ga8AgSn6
_chemical_formula_sum   'Ca21 Ga8 Ag1 Sn6'
_cell_volume   1046.47061516
_cell_formula_units_Z   1
loop_
 _symmetry_equiv_pos_site_id
 _symmetry_equiv_pos_as_xyz
  1  'x, y, z'
loop_
 _atom_site_type_symbol
 _atom_site_label
 _atom_site_symmetry_multiplicity
 _atom_site_fract_x
 _atom_site_fract_y
 _atom_site_fract_z
 _atom_site_occupancy
  Ca  Ca0  1  0.86937378  0.86937378  0.39187767  1
  Ca  Ca1  1  0.60812233  0.13062622  0.13062622  1
  Ca  Ca2  1  0.86937378  0.39187767  0.86937378  1
  Ca  Ca3  1  0.13062622  0.13062622  0.13062622  1
  Ca  Ca4  1  0.39187767  0.86937378  0.86937378  1
  Ca  Ca5  1  0.86937378  0.86937378  0.86937378  1
  Ca  Ca6  1  0.17582071  0.82417929  0.50000000  1
  Ca  Ca7  1  0.82417929  0.50000000  0.50000000  1
  Ca  Ca8  1  0.13062622  0.13062622  0.60812233  1
  Ca  Ca9  1  0.82417929  0.17582071  0.50000000  1
  Ca  Ca10  1  0.17582071  0.50000000  0.50000000  1
  Ca  Ca11  1  0.13062622  0.60812233  0.13062622  1
  Ca  Ca12  1  0.50000000  0.50000000  0.17582071  1
  Ca  Ca13  1  0.50000000  0.17582071  0.82417929  1
  Ca  Ca14  1  0.50000000  0.82417929  0.17582071  1
  Ca  Ca15  1  0.50000000  0.50000000  0.82417929  1
  Ca  Ca16  1  0.50000000  0.17582071  0.50000000  1
  Ca  Ca17  1  0.17582071  0.50000000  0.82417929  1
  Ca  Ca18  1  0.00000000  0.00000000  0.00000000  1
  Ca  Ca19  1  0.50000000  0.82417929  0.50000000  1
  Ca  Ca20  1  0.82417929  0.50000000  0.17582071  1
  Ga  Ga0  1  0.69145463  0.92563612  0.69145463  1
  Ga  Ga1  1  0.69145463  0.69145463  0.92563612  1
  Ga  Ga2  1  0.69145463  0.69145463  0.69145463  1
  Ga  Ga3  1  0.30854537  0.07436388  0.30854537  1
  Ga  Ga4  1  0.92563612  0.69145463  0.69145463  1
  Ga  Ga5  1  0.30854537  0.30854537  0.07436388  1
  Ga  Ga6  1  0.07436388  0.30854537  0.30854537  1
  Ga  Ga7  1  0.30854537  0.30854537  0.30854537  1
  Ag  Ag0  1  0.50000000  0.50000000  0.50000000  1
  Sn  Sn0  1  0.78461820  0.21538180  0.78461820  1
  Sn  Sn1  1  0.78461820  0.21538180  0.21538180  1
  Sn  Sn2  1  0.21538180  0.78461820  0.21538180  1
  Sn  Sn3  1  0.21538180  0.78461820  0.78461820  1
  Sn  Sn4  1  0.78461820  0.78461820  0.21538180  1
  Sn  Sn5  1  0.21538180  0.21538180  0.78461820  1
loop_
_geom_bond_atom_site_label_1
_geom_bond_atom_site_label_2
_geom_bond_distance
_geom_bond_site_symmetry_2
Ca0 Ga2 3.184958 1_555
Ca0 Ga0 3.184962 1_555
Ca0 Ga4 3.184962 1_555
Ca0 Sn4 3.275580 1_555
Ca0 Sn2 3.275588 1_655
Ca0 Sn1 3.275588 1_565
Ca0 Ca18 3.646299 1_665
Ca0 Ca19 3.981050 1_555
Ca0 Ca7 3.981050 1_555
Ca0 Ca16 3.981056 1_565
Ca0 Ca10 3.981056 1_655
Ca0 Ca6 3.981061 1_655
Ca0 Ca9 3.981061 1_565
Ca1 Ga7 3.184958 1_555
Ca1 Ga5 3.184962 1_555
Ca1 Ga3 3.184962 1_555
Ca1 Sn1 3.275580 1_555
Ca1 Sn4 3.275588 1_545
Ca1 Sn0 3.275588 1_554
Ca1 Ca18 3.646299 1_655
Ca1 Ca16 3.981050 1_555
Ca1 Ca12 3.981050 1_555
Ca1 Ca15 3.981056 1_554
Ca1 Ca19 3.981056 1_545
Ca1 Ca13 3.981061 1_554
Ca1 Ca14 3.981061 1_545
Ca2 Ga2 3.184958 1_555
Ca2 Ga1 3.184962 1_555
Ca2 Ga4 3.184962 1_555
Ca2 Sn0 3.275580 1_555
Ca2 Sn5 3.275588 1_655
Ca2 Sn1 3.275588 1_556
Ca2 Ca7 3.981050 1_555
Ca2 Ca20 3.981061 1_556
Ca3 Ga3 3.184952 1_555
Ca3 Ga5 3.184952 1_555
Ca3 Ga6 3.184952 1_555
Ca3 Sn1 3.275590 1_455
Ca3 Sn5 3.275590 1_554
Ca3 Sn2 3.275590 1_545
Ca3 Ca9 3.981053 1_455
Ca3 Ca6 3.981053 1_545
Ca4 Ga2 3.184958 1_555
Ca4 Ga1 3.184962 1_555
Ca4 Ga0 3.184962 1_555
Ca4 Sn3 3.275580 1_555
Ca4 Sn5 3.275588 1_565
Ca4 Sn2 3.275588 1_556
Ca5 Ga0 3.184952 1_555
Ca5 Ga1 3.184952 1_555
Ca5 Ga4 3.184952 1_555
Ca5 Sn3 3.275590 1_655
Ca5 Sn4 3.275590 1_556
Ca5 Sn0 3.275590 1_565
Ca5 Ca6 3.981053 1_655
Ca5 Ca9 3.981053 1_565
Ca6 Ga4 3.157271 1_455
Ca6 Ga3 3.157271 1_565
Ca6 Sn2 3.274653 1_555
Ca6 Sn3 3.274653 1_555
Ca6 Ca8 3.981061 1_565
Ca6 Ca9 4.007259 1_465
Ca7 Ga2 3.157271 1_555
Ca7 Ga6 3.157271 1_655
Ca7 Sn4 3.274653 1_555
Ca7 Sn0 3.274653 1_555
Ca7 Ca9 3.694304 1_555
Ca7 Ca8 3.981056 1_655
Ca8 Ga7 3.184958 1_555
Ca8 Ga3 3.184962 1_555
Ca8 Ga6 3.184962 1_555
Ca8 Sn5 3.275580 1_555
Ca8 Sn0 3.275588 1_455
Ca8 Sn3 3.275588 1_545
Ca8 Ca9 3.981061 1_455
Ca9 Ga6 3.157271 1_655
Ca9 Ga0 3.157271 1_545
Ca9 Sn1 3.274653 1_555
Ca9 Sn0 3.274653 1_555
Ca10 Ga7 3.157271 1_555
Ca10 Ga4 3.157271 1_455
Ca10 Sn5 3.274653 1_555
Ca10 Sn2 3.274653 1_555
Ca10 Ca17 3.694304 1_555
Ca10 Ca6 3.694304 1_555
Ca10 Ca16 3.694304 1_555
Ca10 Ca12 3.694304 1_555
Ca10 Ca11 3.981050 1_555
Ca10 Ca8 3.981050 1_555
Ca10 Ca2 3.981056 1_455
Ca10 Ca7 4.007259 1_455
Ca11 Ga7 3.184958 1_555
Ca11 Ga5 3.184962 1_555
Ca11 Ga6 3.184962 1_555
Ca11 Sn2 3.275580 1_555
Ca11 Sn4 3.275588 1_455
Ca11 Sn3 3.275588 1_554
Ca11 Ca18 3.646299 1_565
Ca11 Ca12 3.981050 1_555
Ca11 Ca15 3.981056 1_554
Ca11 Ca7 3.981056 1_455
Ca11 Ca20 3.981061 1_455
Ca11 Ca17 3.981061 1_554
Ca12 Ga7 3.157271 1_555
Ca12 Ga1 3.157271 1_554
Ca12 Sn2 3.274653 1_555
Ca12 Sn1 3.274653 1_555
Ca12 Ca20 3.694304 1_555
Ca12 Ca14 3.694304 1_555
Ca12 Ca16 3.694304 1_555
Ca12 Ca2 3.981056 1_554
Ca12 Ca4 3.981056 1_554
Ca12 Ca15 4.007259 1_554
Ca13 Ga0 3.157271 1_545
Ca13 Ga5 3.157271 1_556
Ca13 Sn5 3.274653 1_555
Ca13 Sn0 3.274653 1_555
Ca13 Ca16 3.694304 1_555
Ca13 Ca15 3.694304 1_555
Ca13 Ca17 3.694304 1_555
Ca13 Ca9 3.694304 1_555
Ca13 Ca5 3.981053 1_545
Ca13 Ca3 3.981053 1_556
Ca13 Ca4 3.981061 1_545
Ca13 Ca14 4.007259 1_546
Ca14 Ga3 3.157271 1_565
Ca14 Ga1 3.157271 1_554
Ca14 Sn4 3.274653 1_555
Ca14 Sn2 3.274653 1_555
Ca14 Ca19 3.694304 1_555
Ca14 Ca20 3.694304 1_555
Ca14 Ca6 3.694304 1_555
Ca14 Ca3 3.981053 1_565
Ca14 Ca5 3.981053 1_554
Ca14 Ca4 3.981061 1_554
Ca15 Ga2 3.157271 1_555
Ca15 Ga5 3.157271 1_556
Ca15 Sn0 3.274653 1_555
Ca15 Sn3 3.274653 1_555
Ca15 Ca17 3.694304 1_555
Ca15 Ca7 3.694304 1_555
Ca15 Ca19 3.694304 1_555
Ca15 Ca2 3.981050 1_555
Ca15 Ca4 3.981050 1_555
Ca16 Ga7 3.157271 1_555
Ca16 Ga0 3.157271 1_545
Ca16 Sn5 3.274653 1_555
Ca16 Sn1 3.274653 1_555
Ca16 Ca9 3.694304 1_555
Ca16 Ca8 3.981050 1_555
Ca16 Ca4 3.981056 1_545
Ca16 Ca19 4.007259 1_545
Ca17 Ga4 3.157271 1_455
Ca17 Ga5 3.157271 1_556
Ca17 Sn5 3.274653 1_555
Ca17 Sn3 3.274653 1_555
Ca17 Ca6 3.694304 1_555
Ca17 Ca5 3.981053 1_455
Ca17 Ca3 3.981053 1_556
Ca17 Ca2 3.981061 1_455
Ca17 Ca20 4.007259 1_456
Ca18 Sn2 3.471134 1_545
Ca18 Sn1 3.471134 1_455
Ca18 Sn0 3.471134 1_454
Ca18 Sn3 3.471134 1_544
Ca18 Sn5 3.471134 1_554
Ca18 Sn4 3.471134 1_445
Ca18 Ca4 3.646299 1_544
Ca18 Ca2 3.646299 1_454
Ca18 Ca8 3.646299 1_554
Ca18 Ca5 3.646308 1_444
Ca18 Ca3 3.646308 1_555
Ca19 Ga2 3.157271 1_555
Ca19 Ga3 3.157271 1_565
Ca19 Sn4 3.274653 1_555
Ca19 Sn3 3.274653 1_555
Ca19 Ca6 3.694304 1_555
Ca19 Ca7 3.694304 1_555
Ca19 Ca4 3.981050 1_555
Ca19 Ca8 3.981056 1_565
Ca20 Ga6 3.157271 1_655
Ca20 Ga1 3.157271 1_554
Ca20 Sn4 3.274653 1_555
Ca20 Sn1 3.274653 1_555
Ca20 Ca7 3.694304 1_555
Ca20 Ca9 3.694304 1_555
Ca20 Ca3 3.981053 1_655
Ca20 Ca5 3.981053 1_554
Ga0 Ga2 2.668701 1_555
Ga0 Ga4 2.668701 1_555
Ga0 Ga1 2.668701 1_555
Ga1 Ga2 2.668701 1_555
Ga1 Ga4 2.668701 1_555
Ga2 Ga4 2.668701 1_555
Ga3 Ga7 2.668701 1_555
Ga3 Ga6 2.668701 1_555
Ga3 Ga5 2.668701 1_555
Ga5 Ga7 2.668701 1_555
Ga5 Ga6 2.668701 1_555
Ga6 Ga7 2.668701 1_555
Ag0 Ca7 3.694304 1_555
Ag0 Ca10 3.694304 1_555
Ag0 Ca15 3.694304 1_555
Ag0 Ca12 3.694304 1_555
Ag0 Ca19 3.694304 1_555
Ag0 Ca16 3.694304 1_555
Ag0 Ca6 3.694304 1_555
Ag0 Ca9 3.694304 1_555
Ag0 Ca20 3.694304 1_555
Ag0 Ca17 3.694304 1_555
Ag0 Ca13 3.694304 1_555
Ag0 Ca14 3.694304 1_555
