# generated using pymatgen
data_Na5Li2TaAs4
_symmetry_space_group_name_H-M   'P 1'
_cell_length_a   7.41277060
_cell_length_b   7.91255212
_cell_length_c   8.80270962
_cell_angle_alpha   90.00000000
_cell_angle_beta   90.00000000
_cell_angle_gamma   90.00000000
_symmetry_Int_Tables_number   1
_chemical_formula_structural   Na5Li2TaAs4
_chemical_formula_sum   'Na10 Li4 Ta2 As8'
_cell_volume   516.31354623
_cell_formula_units_Z   2
loop_
 _symmetry_equiv_pos_site_id
 _symmetry_equiv_pos_as_xyz
  1  'x, y, z'
loop_
 _atom_site_type_symbol
 _atom_site_label
 _atom_site_symmetry_multiplicity
 _atom_site_fract_x
 _atom_site_fract_y
 _atom_site_fract_z
 _atom_site_occupancy
  Na  Na0  1  0.86545733  0.42226469  0.74107216  1
  Na  Na1  1  0.36545733  0.57773531  0.75892784  1
  Na  Na2  1  0.36545733  0.57773531  0.24107216  1
  Na  Na3  1  0.86545733  0.42226469  0.25892784  1
  Na  Na4  1  0.03009463  0.66292816  0.50000000  1
  Na  Na5  1  0.53009463  0.33707184  0.00000000  1
  Na  Na6  1  0.88787678  0.08397893  0.00000000  1
  Na  Na7  1  0.38787678  0.91602107  0.50000000  1
  Na  Na8  1  0.40405223  0.93476952  0.00000000  1
  Na  Na9  1  0.90405223  0.06523048  0.50000000  1
  Li  Li0  1  0.73771823  0.82163994  0.74611379  1
  Li  Li1  1  0.23771823  0.17836006  0.75388621  1
  Li  Li2  1  0.23771823  0.17836006  0.24611379  1
  Li  Li3  1  0.73771823  0.82163994  0.25388621  1
  Ta  Ta0  1  0.01275919  0.68957313  0.00000000  1
  Ta  Ta1  1  0.51275919  0.31042687  0.50000000  1
  As  As0  1  0.68167514  0.67003905  0.00000000  1
  As  As1  1  0.18167514  0.32996095  0.50000000  1
  As  As2  1  0.09645463  0.85734766  0.77156302  1
  As  As3  1  0.59645463  0.14265234  0.72843698  1
  As  As4  1  0.59645463  0.14265234  0.27156302  1
  As  As5  1  0.09645463  0.85734766  0.22843698  1
  As  As6  1  0.63688764  0.60575605  0.50000000  1
  As  As7  1  0.13688764  0.39424395  0.00000000  1
loop_
_geom_bond_atom_site_label_1
_geom_bond_atom_site_label_2
_geom_bond_distance
_geom_bond_site_symmetry_2
As0 Ta0 2.459112 1_655
As0 Li3 2.570258 1_555
As0 Li0 2.570258 1_554
As0 Na5 2.864223 1_555
As0 Na8 2.936481 1_555
As0 Na2 3.245189 1_555
As0 Na1 3.245189 1_554
As0 Na3 3.300709 1_555
As0 Na0 3.300709 1_554
As1 Ta1 2.459112 1_555
As1 Li1 2.570258 1_555
As1 Li2 2.570258 1_555
As1 Na4 2.864223 1_555
As1 Na9 2.936481 1_455
As1 Na0 3.245189 1_455
As1 Na3 3.245189 1_455
As1 Na1 3.300709 1_555
As1 Na2 3.300709 1_555
As2 Ta0 2.488134 1_556
As2 Li0 2.683565 1_455
As2 Li1 2.751815 1_565
As2 Na4 2.884953 1_555
As2 Na1 2.980529 1_555
As2 Na8 3.101281 1_556
As2 Na6 3.106413 1_466
As2 Na9 3.233301 1_465
As2 Na7 3.255248 1_555
As3 Ta1 2.488134 1_555
As3 Li1 2.683565 1_555
As3 Li0 2.751815 1_545
As3 Na5 2.884953 1_556
As3 Na0 2.980529 1_555
As3 Na9 3.101281 1_555
As3 Na7 3.106413 1_545
As3 Na8 3.233301 1_546
As3 Na6 3.255248 1_556
As4 Ta1 2.488134 1_555
As4 Li2 2.683565 1_555
As4 Li3 2.751815 1_545
As4 Na5 2.884953 1_555
As4 Na3 2.980529 1_555
As4 Na9 3.101281 1_555
As4 Na7 3.106413 1_545
As4 Na8 3.233301 1_545
As4 Na6 3.255248 1_555
As5 Ta0 2.488134 1_555
As5 Li3 2.683565 1_455
As5 Li2 2.751815 1_565
As5 Na4 2.884953 1_555
As5 Na2 2.980529 1_555
As5 Na8 3.101281 1_555
As5 Na6 3.106413 1_465
As5 Na9 3.233301 1_465
As5 Na7 3.255248 1_555
As6 Ta1 2.511438 1_555
As6 Li0 2.858350 1_555
As6 Li3 2.858350 1_555
As6 Na4 2.949649 1_655
As6 Na1 3.048370 1_555
As6 Na2 3.048370 1_555
As6 Na7 3.071509 1_555
As6 Na0 3.079285 1_555
As6 Na3 3.079285 1_555
As7 Ta0 2.511438 1_555
As7 Li2 2.858350 1_555
As7 Li1 2.858350 1_554
As7 Na5 2.949649 1_555
As7 Na3 3.048370 1_455
As7 Na0 3.048370 1_454
As7 Na6 3.071509 1_455
As7 Na2 3.079285 1_555
As7 Na1 3.079285 1_554
