# generated using pymatgen
data_LuNiSn4
_symmetry_space_group_name_H-M   'P 1'
_cell_length_a   14.27533618
_cell_length_b   14.27533618
_cell_length_c   4.45063600
_cell_angle_alpha   90.00000000
_cell_angle_beta   90.00000000
_cell_angle_gamma   162.12041693
_symmetry_Int_Tables_number   1
_chemical_formula_structural   LuNiSn4
_chemical_formula_sum   'Lu2 Ni2 Sn8'
_cell_volume   278.45684830
_cell_formula_units_Z   2
loop_
 _symmetry_equiv_pos_site_id
 _symmetry_equiv_pos_as_xyz
  1  'x, y, z'
loop_
 _atom_site_type_symbol
 _atom_site_label
 _atom_site_symmetry_multiplicity
 _atom_site_fract_x
 _atom_site_fract_y
 _atom_site_fract_z
 _atom_site_occupancy
  Lu  Lu0  1  0.69433400  0.30566600  0.00000000  1
  Lu  Lu1  1  0.30566600  0.69433400  0.00000000  1
  Ni  Ni0  1  0.94726000  0.05274000  0.50000000  1
  Ni  Ni1  1  0.05274000  0.94726000  0.50000000  1
  Sn  Sn0  1  0.50000000  0.50000000  0.50000000  1
  Sn  Sn1  1  0.00000000  0.00000000  0.00000000  1
  Sn  Sn2  1  0.78664800  0.21335200  0.50000000  1
  Sn  Sn3  1  0.21335200  0.78664800  0.50000000  1
  Sn  Sn4  1  0.38909400  0.61090600  0.50000000  1
  Sn  Sn5  1  0.61090600  0.38909400  0.50000000  1
  Sn  Sn6  1  0.88932800  0.11067200  0.00000000  1
  Sn  Sn7  1  0.11067200  0.88932800  0.00000000  1
loop_
_geom_bond_atom_site_label_1
_geom_bond_atom_site_label_2
_geom_bond_distance
_geom_bond_site_symmetry_2
Lu0 Sn3 3.187595 1_655
Lu0 Sn3 3.187595 1_654
Lu0 Sn3 3.187595 1_544
Lu0 Sn3 3.187595 1_545
Lu0 Sn5 3.238611 1_555
Lu0 Sn5 3.238611 1_554
Lu0 Sn7 3.238624 1_655
Lu0 Sn7 3.238624 1_545
Lu0 Sn2 3.425029 1_555
Lu0 Sn2 3.425029 1_554
Lu1 Sn2 3.187595 1_565
Lu1 Sn2 3.187595 1_564
Lu1 Sn2 3.187595 1_455
Lu1 Sn2 3.187595 1_454
Lu1 Sn4 3.238611 1_555
Lu1 Sn4 3.238611 1_554
Lu1 Sn6 3.238624 1_565
Lu1 Sn6 3.238624 1_455
Lu1 Sn3 3.425029 1_554
Lu1 Sn3 3.425029 1_555
Ni0 Sn0 2.670878 1_655
Ni0 Sn0 2.670878 1_545
Ni0 Sn1 2.676679 1_655
Ni0 Sn1 2.676679 1_656
Ni0 Sn4 2.759035 1_655
Ni0 Sn4 2.759035 1_545
Ni0 Sn6 2.760740 1_556
Ni0 Sn6 2.760740 1_555
Ni1 Sn0 2.670878 1_565
Ni1 Sn0 2.670878 1_455
Ni1 Sn1 2.676679 1_565
Ni1 Sn1 2.676679 1_566
Ni1 Sn5 2.759035 1_565
Ni1 Sn5 2.759035 1_455
Ni1 Sn7 2.760740 1_555
Ni1 Sn7 2.760740 1_556
Sn2 Sn3 3.032236 1_655
Sn2 Sn3 3.032236 1_545
