# generated using pymatgen
data_NaClO2
_symmetry_space_group_name_H-M   'P 1'
_cell_length_a   4.67581364
_cell_length_b   4.67581364
_cell_length_c   6.53765800
_cell_angle_alpha   71.55918568
_cell_angle_beta   71.55918568
_cell_angle_gamma   89.60610476
_symmetry_Int_Tables_number   1
_chemical_formula_structural   NaClO2
_chemical_formula_sum   'Na2 Cl2 O4'
_cell_volume   127.94066098
_cell_formula_units_Z   2
loop_
 _symmetry_equiv_pos_site_id
 _symmetry_equiv_pos_as_xyz
  1  'x, y, z'
loop_
 _atom_site_type_symbol
 _atom_site_label
 _atom_site_symmetry_multiplicity
 _atom_site_fract_x
 _atom_site_fract_y
 _atom_site_fract_z
 _atom_site_occupancy
  Na  Na0  1  0.63293200  0.36706800  0.25000000  1
  Na  Na1  1  0.36706800  0.63293200  0.75000000  1
  Cl  Cl0  1  0.84448900  0.15551100  0.75000000  1
  Cl  Cl1  1  0.15551100  0.84448900  0.25000000  1
  O  O0  1  0.56939900  0.15926000  0.65640100  1
  O  O1  1  0.84074000  0.43060100  0.84359900  1
  O  O2  1  0.43060100  0.84074000  0.34359900  1
  O  O3  1  0.15926000  0.56939900  0.15640100  1
loop_
_geom_bond_atom_site_label_1
_geom_bond_atom_site_label_2
_geom_bond_distance
_geom_bond_site_symmetry_2
Na0 O0 2.441909 1_555
Na0 O1 2.441909 1_554
Na0 O2 2.457456 1_545
Na0 O3 2.457456 1_655
Na0 O3 2.576273 1_555
Na0 O2 2.576273 1_555
Na1 O3 2.441909 1_556
Na1 O2 2.441909 1_555
Na1 O1 2.457456 1_455
Na1 O0 2.457456 1_565
Na1 O0 2.576273 1_555
Na1 O1 2.576273 1_555
Cl0 O0 1.587482 1_555
Cl0 O1 1.587482 1_555
Cl1 O3 1.587482 1_555
Cl1 O2 1.587482 1_555
