# generated using pymatgen
data_Hf4Zr6Sn6Cl
_symmetry_space_group_name_H-M   'P 1'
_cell_length_a   5.80516506
_cell_length_b   8.52150871
_cell_length_c   8.52160507
_cell_angle_alpha   119.99962851
_cell_angle_beta   90.00163053
_cell_angle_gamma   89.99674292
_symmetry_Int_Tables_number   1
_chemical_formula_structural   Hf4Zr6Sn6Cl
_chemical_formula_sum   'Hf4 Zr6 Sn6 Cl1'
_cell_volume   365.07721150
_cell_formula_units_Z   1
loop_
 _symmetry_equiv_pos_site_id
 _symmetry_equiv_pos_as_xyz
  1  'x, y, z'
loop_
 _atom_site_type_symbol
 _atom_site_label
 _atom_site_symmetry_multiplicity
 _atom_site_fract_x
 _atom_site_fract_y
 _atom_site_fract_z
 _atom_site_occupancy
  Hf  Hf0  1  0.49999993  0.33332688  0.66663766  1
  Hf  Hf1  1  0.49999993  0.66668822  0.33336234  1
  Hf  Hf2  1  0.00000004  0.66665848  0.33330265  1
  Hf  Hf3  1  0.00000004  0.33335583  0.66669735  1
  Zr  Zr0  1  0.76471705  0.25621086  0.00000000  1
  Zr  Zr1  1  0.76460501  0.74377965  0.74380032  1
  Zr  Zr2  1  0.76460501  0.99997833  0.25619968  1
  Zr  Zr3  1  0.23527958  0.74380527  1.00000000  1
  Zr  Zr4  1  0.23539789  0.25621011  0.25622623  1
  Zr  Zr5  1  0.23539789  0.99998489  0.74377377  1
  Sn  Sn0  1  0.74841516  0.60660327  1.00000000  1
  Sn  Sn1  1  0.74851524  0.39341940  0.39343012  1
  Sn  Sn2  1  0.74851524  0.99998928  0.60656988  1
  Sn  Sn3  1  0.25158592  0.39343630  0.00000000  1
  Sn  Sn4  1  0.25148423  0.60658925  0.60660075  1
  Sn  Sn5  1  0.25148423  0.99998850  0.39339925  1
  Cl  Cl0  1  0.49999959  0.99997749  0.00000000  1
loop_
_geom_bond_atom_site_label_1
_geom_bond_atom_site_label_2
_geom_bond_distance
_geom_bond_site_symmetry_2
Hf0 Sn1 2.992717 1_555
Hf0 Sn4 2.992720 1_555
Hf0 Sn3 2.992837 1_556
Hf0 Sn0 2.992901 1_555
Hf0 Sn2 2.992921 1_545
Hf0 Sn5 2.992981 1_545
Hf1 Sn2 2.992722 1_555
Hf1 Sn5 2.992727 1_555
Hf1 Sn3 2.992835 1_555
Hf1 Sn0 2.992904 1_554
Hf1 Sn1 2.992914 1_555
Hf1 Sn4 2.992976 1_555
Hf2 Sn2 3.001273 1_455
Hf2 Sn5 3.001279 1_555
Hf2 Sn3 3.001340 1_555
Hf2 Sn0 3.001402 1_454
Hf2 Sn1 3.001469 1_455
Hf2 Sn4 3.001525 1_555
Hf3 Sn1 3.001273 1_455
Hf3 Sn4 3.001279 1_555
Hf3 Sn3 3.001340 1_556
Hf3 Sn0 3.001402 1_455
Hf3 Sn2 3.001469 1_445
Hf3 Sn5 3.001525 1_545
Sn0 Zr2 2.948529 1_556
Sn0 Zr1 2.948536 1_555
Sn0 Zr0 2.987366 1_556
Sn0 Zr3 3.058670 1_655
Sn0 Zr3 3.200004 1_555
Sn1 Zr2 2.948936 1_545
Sn1 Zr0 2.948945 1_555
Sn1 Zr1 2.987137 1_555
Sn1 Zr4 3.058696 1_655
Sn1 Zr4 3.200017 1_555
Sn2 Zr1 2.948928 1_555
Sn2 Zr0 2.948945 1_566
Sn2 Zr2 2.987133 1_555
Sn2 Zr5 3.058694 1_655
Sn2 Zr5 3.200016 1_555
Sn3 Zr5 2.949067 1_544
Sn3 Zr4 2.949074 1_555
Sn3 Zr3 2.987167 1_554
Sn3 Zr0 3.058770 1_455
Sn3 Zr0 3.200053 1_555
Sn4 Zr5 2.948656 1_555
Sn4 Zr3 2.948688 1_555
Sn4 Zr4 2.987236 1_555
Sn4 Zr1 3.058639 1_455
Sn4 Zr1 3.200000 1_555
Sn5 Zr4 2.948648 1_565
Sn5 Zr3 2.948688 1_554
Sn5 Zr5 2.987231 1_555
Sn5 Zr2 3.058638 1_455
Sn5 Zr2 3.199998 1_555
Cl0 Zr1 2.669422 1_554
Cl0 Zr2 2.669426 1_555
Cl0 Zr4 2.669624 1_565
Cl0 Zr5 2.669627 1_554
Cl0 Zr3 2.669707 1_554
Cl0 Zr0 2.670125 1_565
