# generated using pymatgen
data_Nb7Si2B4W3
_symmetry_space_group_name_H-M   'P 1'
_cell_length_a   7.23505936
_cell_length_b   7.23505994
_cell_length_c   7.25595545
_cell_angle_alpha   129.49352623
_cell_angle_beta   129.49351417
_cell_angle_gamma   74.22246883
_symmetry_Int_Tables_number   1
_chemical_formula_structural   Nb7Si2B4W3
_chemical_formula_sum   'Nb7 Si2 B4 W3'
_cell_volume   220.51238731
_cell_formula_units_Z   1
loop_
 _symmetry_equiv_pos_site_id
 _symmetry_equiv_pos_as_xyz
  1  'x, y, z'
loop_
 _atom_site_type_symbol
 _atom_site_label
 _atom_site_symmetry_multiplicity
 _atom_site_fract_x
 _atom_site_fract_y
 _atom_site_fract_z
 _atom_site_occupancy
  Nb  Nb0  1  0.19103235  0.69103235  0.16248522  1
  Nb  Nb1  1  0.47477104  0.97477104  0.16979730  1
  Nb  Nb2  1  0.30683289  0.47092234  0.49963606  1
  Nb  Nb3  1  0.02863267  0.19317563  0.49889371  1
  Nb  Nb4  1  0.52766989  0.02766989  0.83461136  1
  Nb  Nb5  1  0.69317563  0.52863267  0.49889371  1
  Nb  Nb6  1  0.97092234  0.80683289  0.49963606  1
  Si  Si0  1  0.24563402  0.24970269  0.99811701  1
  Si  Si1  1  0.74970269  0.74563402  0.99811701  1
  B  B0  1  0.12203355  0.62203355  0.74292368  1
  B  B1  1  0.87812174  0.37812174  0.25394729  1
  B  B2  1  0.61927003  0.88552924  0.50318317  1
  B  B3  1  0.38552924  0.11927003  0.50318317  1
  W  W0  1  0.00002200  0.00116337  0.99918340  1
  W  W1  1  0.50116337  0.50002200  0.99918340  1
  W  W2  1  0.80548656  0.30548656  0.83820845  1
loop_
_geom_bond_atom_site_label_1
_geom_bond_atom_site_label_2
_geom_bond_distance
_geom_bond_site_symmetry_2
Nb0 Si0 2.615993 1_554
Nb0 Si1 2.615993 1_454
Nb0 W1 2.821568 1_554
Nb0 W0 2.821569 1_564
Nb0 W2 2.938140 1_454
Nb1 Si1 2.643589 1_554
Nb1 Si0 2.643589 1_564
Nb1 W1 2.811121 1_554
Nb1 W0 2.811121 1_564
Nb1 W2 2.926432 1_565
Nb2 Si1 2.622429 1_555
Nb2 Si0 2.632014 1_554
Nb2 W0 2.795758 1_554
Nb2 W1 2.804894 1_555
Nb3 Si0 2.642808 1_555
Nb3 Si1 2.649698 1_444
Nb3 W1 2.808004 1_555
Nb3 W0 2.813235 1_554
Nb4 Si0 2.650373 1_555
Nb4 Si1 2.650374 1_545
Nb4 W0 2.808205 1_655
Nb4 W1 2.808205 1_555
Nb5 Si1 2.642808 1_555
Nb5 Si0 2.649698 1_554
Nb5 W0 2.808004 1_665
Nb5 W1 2.813236 1_554
Nb6 Si0 2.622429 1_665
Nb6 Si1 2.632015 1_554
Nb6 W1 2.795758 1_554
Nb6 W0 2.804894 1_665
Si0 W2 2.616677 1_455
Si0 W0 2.857314 1_555
Si0 W1 2.912522 1_555
Si1 W2 2.616677 1_555
Si1 W1 2.857314 1_555
Si1 W0 2.912522 1_665
B0 B1 2.140551 1_455
B0 Nb3 2.418526 1_555
B0 Nb5 2.418526 1_455
B0 Nb2 2.418998 1_555
B0 Nb6 2.418999 1_455
B0 Nb0 2.456750 1_556
B0 W0 2.458514 1_565
B0 W1 2.458515 1_555
B0 Nb1 2.460165 1_556
B1 W2 2.401961 1_554
B1 Nb6 2.413771 1_555
B1 Nb2 2.413771 1_655
B1 Nb5 2.430233 1_555
B1 Nb3 2.430234 1_655
B1 Nb4 2.446563 1_554
B1 W0 2.446661 1_654
B1 W1 2.446662 1_554
B2 B3 2.040733 1_565
B2 W2 2.371009 1_565
B2 Nb1 2.400912 1_555
B2 Nb4 2.406419 1_565
B2 Nb0 2.427882 1_555
B2 W0 2.460444 1_665
B2 Nb6 2.464715 1_555
B2 Nb5 2.474385 1_555
B2 W1 2.496060 1_554
B3 W2 2.371009 1_555
B3 Nb1 2.400911 1_545
B3 Nb4 2.406419 1_555
B3 Nb0 2.427882 1_545
B3 W1 2.460443 1_555
B3 Nb2 2.464715 1_555
B3 Nb3 2.474384 1_555
B3 W0 2.496060 1_554
W0 W2 2.772737 1_455
W1 W2 2.772737 1_555
