# generated using pymatgen
data_ZrTa3(NbN2)6
_symmetry_space_group_name_H-M   'P 1'
_cell_length_a   5.26180928
_cell_length_b   5.26180962
_cell_length_c   10.47199192
_cell_angle_alpha   90.00000000
_cell_angle_beta   90.00000000
_cell_angle_gamma   119.99999785
_symmetry_Int_Tables_number   1
_chemical_formula_structural   ZrTa3(NbN2)6
_chemical_formula_sum   'Zr1 Ta3 Nb6 N12'
_cell_volume   251.09043688
_cell_formula_units_Z   1
loop_
 _symmetry_equiv_pos_site_id
 _symmetry_equiv_pos_as_xyz
  1  'x, y, z'
loop_
 _atom_site_type_symbol
 _atom_site_label
 _atom_site_symmetry_multiplicity
 _atom_site_fract_x
 _atom_site_fract_y
 _atom_site_fract_z
 _atom_site_occupancy
  Zr  Zr0  1  0.66666700  0.33333300  0.00000000  1
  Ta  Ta0  1  0.33333300  0.66666700  0.00000000  1
  Ta  Ta1  1  0.33333300  0.66666700  0.50000000  1
  Ta  Ta2  1  0.66666700  0.33333300  0.50000000  1
  Nb  Nb0  1  0.67769789  0.67676324  0.74806305  1
  Nb  Nb1  1  0.32323676  0.00093464  0.74806305  1
  Nb  Nb2  1  0.99906536  0.32230211  0.74806305  1
  Nb  Nb3  1  0.32323676  0.32230211  0.25193695  1
  Nb  Nb4  1  0.67769789  0.00093464  0.25193695  1
  Nb  Nb5  1  0.99906536  0.67676324  0.25193695  1
  N  N0  1  0.65540322  0.65530152  0.38248813  1
  N  N1  1  0.34469848  0.00010270  0.38248813  1
  N  N2  1  0.99989730  0.34459678  0.38248813  1
  N  N3  1  0.34469848  0.34459678  0.61751187  1
  N  N4  1  0.65540322  0.00010270  0.61751187  1
  N  N5  1  0.99989730  0.65530152  0.61751187  1
  N  N6  1  0.34004313  0.34943032  0.87713429  1
  N  N7  1  0.65056968  0.99061280  0.87713429  1
  N  N8  1  0.00938720  0.65995687  0.87713429  1
  N  N9  1  0.65056968  0.65995687  0.12286571  1
  N  N10  1  0.34004313  0.99061280  0.12286571  1
  N  N11  1  0.00938720  0.34943032  0.12286571  1
loop_
_geom_bond_atom_site_label_1
_geom_bond_atom_site_label_2
_geom_bond_distance
_geom_bond_site_symmetry_2
N0 Ta2 2.118574 1_555
N0 Ta1 2.119238 1_555
N0 Nb3 2.220702 1_555
N0 Nb5 2.224295 1_555
N0 Nb4 2.230912 1_565
N1 Ta2 2.118570 1_555
N1 Ta1 2.119239 1_545
N1 Nb4 2.220704 1_555
N1 Nb3 2.224291 1_555
N1 Nb5 2.230914 1_445
N2 Ta2 2.118565 1_555
N2 Ta1 2.119239 1_655
N2 Nb5 2.220700 1_555
N2 Nb4 2.224293 1_555
N2 Nb3 2.230916 1_655
N3 Ta2 2.118574 1_555
N3 Ta1 2.119239 1_555
N3 Nb0 2.220702 1_555
N3 Nb1 2.224295 1_555
N3 Nb2 2.230912 1_455
N4 Ta2 2.118566 1_555
N4 Ta1 2.119239 1_545
N4 Nb1 2.220700 1_555
N4 Nb2 2.224293 1_555
N4 Nb0 2.230917 1_545
N5 Ta2 2.118570 1_555
N5 Ta1 2.119238 1_655
N5 Nb2 2.220705 1_555
N5 Nb0 2.224291 1_555
N5 Nb1 2.230914 1_665
N6 Ta0 2.121793 1_556
N6 Zr0 2.182179 1_556
N6 Nb2 2.193215 1_455
N6 Nb0 2.211321 1_555
N6 Nb1 2.243902 1_555
N7 Ta0 2.121791 1_556
N7 Zr0 2.182175 1_566
N7 Nb0 2.193215 1_555
N7 Nb1 2.211321 1_565
N7 Nb2 2.243902 1_565
N8 Ta0 2.121789 1_556
N8 Zr0 2.182177 1_456
N8 Nb1 2.193215 1_565
N8 Nb2 2.211321 1_455
N8 Nb0 2.243901 1_455
N9 Ta0 2.121793 1_555
N9 Zr0 2.182179 1_555
N9 Nb4 2.193215 1_565
N9 Nb3 2.211321 1_555
N9 Nb5 2.243901 1_555
N10 Ta0 2.121789 1_555
N10 Zr0 2.182177 1_565
N10 Nb5 2.193215 1_455
N10 Nb4 2.211321 1_565
N10 Nb3 2.243902 1_565
N11 Ta0 2.121791 1_555
N11 Zr0 2.182175 1_455
N11 Nb3 2.193215 1_555
N11 Nb5 2.211321 1_455
N11 Nb4 2.243902 1_455
