# generated using pymatgen
data_Sc4Si6RuRh6
_symmetry_space_group_name_H-M   'P 1'
_cell_length_a   6.93051087
_cell_length_b   6.93051016
_cell_length_c   6.93051079
_cell_angle_alpha   109.47122249
_cell_angle_beta   109.47122042
_cell_angle_gamma   109.47121482
_symmetry_Int_Tables_number   1
_chemical_formula_structural   Sc4Si6RuRh6
_chemical_formula_sum   'Sc4 Si6 Ru1 Rh6'
_cell_volume   256.25587391
_cell_formula_units_Z   1
loop_
 _symmetry_equiv_pos_site_id
 _symmetry_equiv_pos_as_xyz
  1  'x, y, z'
loop_
 _atom_site_type_symbol
 _atom_site_label
 _atom_site_symmetry_multiplicity
 _atom_site_fract_x
 _atom_site_fract_y
 _atom_site_fract_z
 _atom_site_occupancy
  Sc  Sc0  1  0.00000000  0.00000000  0.50000000  1
  Sc  Sc1  1  0.00000000  0.50000000  0.00000000  1
  Sc  Sc2  1  0.50000000  0.00000000  0.00000000  1
  Sc  Sc3  1  0.50000000  0.50000000  0.50000000  1
  Si  Si0  1  0.68000578  0.68000578  0.00000000  1
  Si  Si1  1  0.31999422  1.00000000  0.31999422  1
  Si  Si2  1  1.00000000  0.31999422  0.31999422  1
  Si  Si3  1  0.31999422  0.31999422  1.00000000  1
  Si  Si4  1  0.68000578  0.00000000  0.68000578  1
  Si  Si5  1  0.00000000  0.68000578  0.68000578  1
  Ru  Ru0  1  0.00000000  0.00000000  0.00000000  1
  Rh  Rh0  1  0.75000000  0.25000000  0.50000000  1
  Rh  Rh1  1  0.75000000  0.50000000  0.25000000  1
  Rh  Rh2  1  0.50000000  0.25000000  0.75000000  1
  Rh  Rh3  1  0.25000000  0.50000000  0.75000000  1
  Rh  Rh4  1  0.25000000  0.75000000  0.50000000  1
  Rh  Rh5  1  0.50000000  0.75000000  0.25000000  1
loop_
_geom_bond_atom_site_label_1
_geom_bond_atom_site_label_2
_geom_bond_distance
_geom_bond_site_symmetry_2
Sc0 Si2 2.884283 1_455
Sc0 Si5 2.884283 1_545
Sc0 Si1 2.884283 1_545
Sc0 Si4 2.884283 1_455
Sc0 Si3 2.884283 1_555
Sc0 Si0 2.884283 1_445
Sc1 Si3 2.884283 1_554
Sc1 Si0 2.884283 1_455
Sc1 Si2 2.884283 1_455
Sc1 Si5 2.884283 1_554
Sc1 Si1 2.884283 1_555
Sc1 Si4 2.884283 1_454
Sc2 Si3 2.884283 1_554
Sc2 Si0 2.884283 1_545
Sc2 Si1 2.884283 1_545
Sc2 Si4 2.884283 1_554
Sc2 Si2 2.884283 1_555
Sc2 Si5 2.884283 1_544
Sc3 Si4 2.884283 1_565
Sc3 Si1 2.884283 1_545
Sc3 Si0 2.884283 1_556
Sc3 Si3 2.884283 1_554
Sc3 Si2 2.884283 1_455
Sc3 Si5 2.884283 1_655
Ru0 Si2 2.560806 1_455
Ru0 Si5 2.560806 1_544
Ru0 Si1 2.560806 1_545
Ru0 Si4 2.560806 1_454
Ru0 Si3 2.560806 1_554
Ru0 Si0 2.560806 1_445
Rh0 Si4 2.465315 1_555
Rh0 Si5 2.465315 1_655
Rh0 Si2 2.465315 1_555
Rh0 Si1 2.465316 1_545
Rh0 Sc0 2.829369 1_655
Rh0 Sc3 2.829369 1_555
Rh0 Sc2 2.829369 1_555
Rh0 Sc1 2.829369 1_656
Rh1 Si2 2.465315 1_555
Rh1 Si0 2.465315 1_555
Rh1 Si5 2.465315 1_655
Rh1 Si3 2.465316 1_554
Rh1 Sc2 2.829369 1_555
Rh1 Sc0 2.829369 1_665
Rh1 Sc1 2.829369 1_655
Rh1 Sc3 2.829369 1_555
Rh2 Si4 2.465315 1_555
Rh2 Si0 2.465315 1_556
Rh2 Si3 2.465315 1_555
Rh2 Si1 2.465315 1_545
Rh2 Sc3 2.829369 1_555
Rh2 Sc2 2.829369 1_556
Rh2 Sc1 2.829369 1_656
Rh2 Sc0 2.829369 1_555
Rh3 Si5 2.465315 1_555
Rh3 Si3 2.465315 1_555
Rh3 Si2 2.465315 1_455
Rh3 Si0 2.465316 1_556
Rh3 Sc2 2.829369 1_566
Rh3 Sc0 2.829369 1_555
Rh3 Sc3 2.829369 1_555
Rh3 Sc1 2.829369 1_556
Rh4 Si1 2.465315 1_555
Rh4 Si2 2.465315 1_455
Rh4 Si5 2.465315 1_555
Rh4 Si4 2.465316 1_565
Rh4 Sc3 2.829369 1_555
Rh4 Sc0 2.829369 1_565
Rh4 Sc1 2.829369 1_555
Rh4 Sc2 2.829369 1_566
Rh5 Si1 2.465315 1_555
Rh5 Si3 2.465315 1_554
Rh5 Si0 2.465315 1_555
Rh5 Si4 2.465315 1_565
Rh5 Sc3 2.829369 1_555
Rh5 Sc2 2.829369 1_565
Rh5 Sc0 2.829369 1_665
Rh5 Sc1 2.829369 1_555
