# generated using pymatgen
data_CsLi2LuBi2
_symmetry_space_group_name_H-M   'P 1'
_cell_length_a   9.62997500
_cell_length_b   9.62997437
_cell_length_c   18.75114811
_cell_angle_alpha   90.00000000
_cell_angle_beta   90.00000000
_cell_angle_gamma   120.00000894
_symmetry_Int_Tables_number   1
_chemical_formula_structural   CsLi2LuBi2
_chemical_formula_sum   'Cs8 Li16 Lu8 Bi16'
_cell_volume   1505.94373893
_cell_formula_units_Z   8
loop_
 _symmetry_equiv_pos_site_id
 _symmetry_equiv_pos_as_xyz
  1  'x, y, z'
loop_
 _atom_site_type_symbol
 _atom_site_label
 _atom_site_symmetry_multiplicity
 _atom_site_fract_x
 _atom_site_fract_y
 _atom_site_fract_z
 _atom_site_occupancy
  Cs  Cs0_0  1  0.00000000  0.00000000  0.25000000  1
  Cs  Cs0_1  1  0.00000000  0.00000000  0.75000000  1
  Cs  Cs0_2  1  0.00000000  0.50000000  0.25000000  1
  Cs  Cs0_3  1  0.00000000  0.50000000  0.75000000  1
  Cs  Cs0_4  1  0.50000000  0.00000000  0.25000000  1
  Cs  Cs0_5  1  0.50000000  0.00000000  0.75000000  1
  Cs  Cs0_6  1  0.50000000  0.50000000  0.25000000  1
  Cs  Cs0_7  1  0.50000000  0.50000000  0.75000000  1
  Li  Li0_0  1  0.33333350  0.16666650  0.07878228  1
  Li  Li0_1  1  0.33333350  0.16666650  0.57878228  1
  Li  Li0_2  1  0.33333350  0.66666650  0.07878228  1
  Li  Li0_3  1  0.33333350  0.66666650  0.57878228  1
  Li  Li0_4  1  0.83333350  0.16666650  0.07878228  1
  Li  Li0_5  1  0.83333350  0.16666650  0.57878228  1
  Li  Li0_6  1  0.83333350  0.66666650  0.07878228  1
  Li  Li0_7  1  0.83333350  0.66666650  0.57878228  1
  Li  Li1_0  1  0.16666650  0.33333350  0.42121772  1
  Li  Li1_1  1  0.16666650  0.33333350  0.92121772  1
  Li  Li1_2  1  0.16666650  0.83333350  0.42121772  1
  Li  Li1_3  1  0.16666650  0.83333350  0.92121772  1
  Li  Li1_4  1  0.66666650  0.33333350  0.42121772  1
  Li  Li1_5  1  0.66666650  0.33333350  0.92121772  1
  Li  Li1_6  1  0.66666650  0.83333350  0.42121772  1
  Li  Li1_7  1  0.66666650  0.83333350  0.92121772  1
  Lu  Lu0_0  1  0.00000000  0.00000000  0.00000000  1
  Lu  Lu0_1  1  0.00000000  0.00000000  0.50000000  1
  Lu  Lu0_2  1  0.00000000  0.50000000  0.00000000  1
  Lu  Lu0_3  1  0.00000000  0.50000000  0.50000000  1
  Lu  Lu0_4  1  0.50000000  0.00000000  0.00000000  1
  Lu  Lu0_5  1  0.50000000  0.00000000  0.50000000  1
  Lu  Lu0_6  1  0.50000000  0.50000000  0.00000000  1
  Lu  Lu0_7  1  0.50000000  0.50000000  0.50000000  1
  Bi  Bi0_0  1  0.33333350  0.16666650  0.40782734  1
  Bi  Bi0_1  1  0.33333350  0.16666650  0.90782734  1
  Bi  Bi0_2  1  0.33333350  0.66666650  0.40782734  1
  Bi  Bi0_3  1  0.33333350  0.66666650  0.90782734  1
  Bi  Bi0_4  1  0.83333350  0.16666650  0.40782734  1
  Bi  Bi0_5  1  0.83333350  0.16666650  0.90782734  1
  Bi  Bi0_6  1  0.83333350  0.66666650  0.40782734  1
  Bi  Bi0_7  1  0.83333350  0.66666650  0.90782734  1
  Bi  Bi1_0  1  0.16666650  0.33333350  0.09217266  1
  Bi  Bi1_1  1  0.16666650  0.33333350  0.59217266  1
  Bi  Bi1_2  1  0.16666650  0.83333350  0.09217266  1
  Bi  Bi1_3  1  0.16666650  0.83333350  0.59217266  1
  Bi  Bi1_4  1  0.66666650  0.33333350  0.09217266  1
  Bi  Bi1_5  1  0.66666650  0.33333350  0.59217266  1
  Bi  Bi1_6  1  0.66666650  0.83333350  0.09217266  1
  Bi  Bi1_7  1  0.66666650  0.83333350  0.59217266  1
loop_
_geom_bond_atom_site_label_1
_geom_bond_atom_site_label_2
_geom_bond_distance
_geom_bond_site_symmetry_2
Cs0_0 Li1_2 4.246824 1_545
Cs0_0 Li0_4 4.246824 1_455
Cs0_0 Li1_0 4.246827 1_555
Cs0_0 Li0_6 4.246827 1_445
Cs0_0 Li1_6 4.246827 1_445
Cs0_0 Li0_0 4.246827 1_555
Cs0_0 Cs0_6 4.814987 1_445
Cs0_0 Cs0_6 4.814987 1_555
Cs0_0 Cs0_2 4.814987 1_545
Cs0_0 Cs0_2 4.814987 1_555
Cs0_0 Cs0_4 4.814987 1_455
Cs0_0 Cs0_4 4.814987 1_555
Cs0_1 Li1_3 4.246824 1_545
Cs0_1 Li0_5 4.246824 1_455
Cs0_1 Li1_1 4.246827 1_555
Cs0_1 Li0_7 4.246827 1_445
Cs0_1 Li1_7 4.246827 1_445
Cs0_1 Li0_1 4.246827 1_555
Cs0_1 Cs0_7 4.814987 1_445
Cs0_1 Cs0_7 4.814987 1_555
Cs0_1 Cs0_3 4.814987 1_545
Cs0_1 Cs0_3 4.814987 1_555
Cs0_1 Cs0_5 4.814987 1_555
Cs0_1 Cs0_5 4.814987 1_455
Cs0_2 Li1_0 4.246824 1_555
Cs0_2 Li0_6 4.246824 1_455
Cs0_2 Li1_2 4.246827 1_555
Cs0_2 Li0_4 4.246827 1_455
Cs0_2 Li1_4 4.246827 1_455
Cs0_2 Li0_2 4.246827 1_555
Cs0_2 Cs0_4 4.814987 1_565
Cs0_2 Cs0_4 4.814987 1_455
Cs0_2 Cs0_6 4.814987 1_455
Cs0_2 Cs0_6 4.814987 1_555
Cs0_3 Li1_1 4.246824 1_555
Cs0_3 Li0_7 4.246824 1_455
Cs0_3 Li1_3 4.246827 1_555
Cs0_3 Li0_5 4.246827 1_455
Cs0_3 Li1_5 4.246827 1_455
Cs0_3 Li0_3 4.246827 1_555
Cs0_3 Cs0_5 4.814987 1_565
Cs0_3 Cs0_5 4.814987 1_455
Cs0_3 Cs0_7 4.814987 1_455
Cs0_3 Cs0_7 4.814987 1_555
Cs0_4 Li1_6 4.246824 1_545
Cs0_4 Li0_0 4.246824 1_555
Cs0_4 Li1_4 4.246827 1_555
Cs0_4 Li0_2 4.246827 1_545
Cs0_4 Li1_2 4.246827 1_545
Cs0_4 Li0_4 4.246827 1_555
Cs0_4 Cs0_6 4.814987 1_555
Cs0_4 Cs0_6 4.814987 1_545
Cs0_5 Li1_7 4.246824 1_545
Cs0_5 Li0_1 4.246824 1_555
Cs0_5 Li1_5 4.246827 1_555
Cs0_5 Li0_3 4.246827 1_545
Cs0_5 Li1_3 4.246827 1_545
Cs0_5 Li0_5 4.246827 1_555
Cs0_5 Cs0_7 4.814987 1_555
Cs0_5 Cs0_7 4.814987 1_545
Cs0_6 Li1_4 4.246824 1_555
Cs0_6 Li0_2 4.246824 1_555
Cs0_6 Li1_6 4.246827 1_555
Cs0_6 Li0_0 4.246827 1_555
Cs0_6 Li1_0 4.246827 1_555
Cs0_6 Li0_6 4.246827 1_555
Cs0_7 Li1_5 4.246824 1_555
Cs0_7 Li0_3 4.246824 1_555
Cs0_7 Li1_7 4.246827 1_555
Cs0_7 Li0_1 4.246827 1_555
Cs0_7 Li1_1 4.246827 1_555
Cs0_7 Li0_7 4.246827 1_555
Li0_0 Lu0_4 3.148065 1_555
Li0_0 Lu0_6 3.148068 1_555
Li0_0 Lu0_0 3.148068 1_555
Li0_1 Lu0_5 3.148065 1_555
Li0_1 Lu0_7 3.148068 1_555
Li0_1 Lu0_1 3.148068 1_555
Li0_2 Lu0_6 3.148065 1_555
Li0_2 Lu0_4 3.148068 1_565
Li0_2 Lu0_2 3.148068 1_555
Li0_3 Lu0_7 3.148065 1_555
Li0_3 Lu0_5 3.148068 1_565
Li0_3 Lu0_3 3.148068 1_555
Li0_4 Lu0_0 3.148065 1_655
Li0_4 Lu0_2 3.148068 1_655
Li0_4 Lu0_4 3.148068 1_555
Li0_5 Lu0_1 3.148065 1_655
Li0_5 Lu0_3 3.148068 1_655
Li0_5 Lu0_5 3.148068 1_555
Li0_6 Lu0_2 3.148065 1_655
Li0_6 Lu0_0 3.148068 1_665
Li0_6 Lu0_6 3.148068 1_555
Li0_7 Lu0_3 3.148065 1_655
Li0_7 Lu0_1 3.148068 1_665
Li0_7 Lu0_7 3.148068 1_555
Li1_0 Lu0_3 3.148065 1_555
Li1_0 Lu0_1 3.148068 1_555
Li1_0 Lu0_7 3.148068 1_555
Li1_1 Lu0_2 3.148065 1_556
Li1_1 Lu0_0 3.148068 1_556
Li1_1 Lu0_6 3.148068 1_556
Li1_2 Lu0_1 3.148065 1_565
Li1_2 Lu0_3 3.148068 1_555
Li1_2 Lu0_5 3.148068 1_565
Li1_3 Lu0_0 3.148065 1_566
Li1_3 Lu0_2 3.148068 1_556
Li1_3 Lu0_4 3.148068 1_566
Li1_4 Lu0_7 3.148065 1_555
Li1_4 Lu0_5 3.148068 1_555
Li1_4 Lu0_3 3.148068 1_655
Li1_5 Lu0_6 3.148065 1_556
Li1_5 Lu0_4 3.148068 1_556
Li1_5 Lu0_2 3.148068 1_656
Li1_6 Lu0_5 3.148065 1_565
Li1_6 Lu0_7 3.148068 1_555
Li1_6 Lu0_1 3.148068 1_665
Li1_7 Lu0_4 3.148065 1_566
Li1_7 Lu0_6 3.148068 1_556
Li1_7 Lu0_0 3.148068 1_666
Bi0_0 Li1_2 2.791247 1_545
Bi0_0 Li1_4 2.791247 1_555
Bi0_0 Li1_0 2.791256 1_555
Bi0_0 Li0_1 3.205601 1_555
Bi0_0 Lu0_5 3.273406 1_555
Bi0_0 Lu0_7 3.273410 1_555
Bi0_0 Lu0_1 3.273410 1_555
Bi0_0 Cs0_4 4.060336 1_555
Bi0_0 Cs0_6 4.060338 1_555
Bi0_0 Cs0_0 4.060339 1_555
Bi0_1 Li1_3 2.791247 1_545
Bi0_1 Li1_5 2.791247 1_555
Bi0_1 Li1_1 2.791256 1_555
Bi0_1 Li0_0 3.205601 1_556
Bi0_1 Lu0_4 3.273406 1_556
Bi0_1 Lu0_6 3.273410 1_556
Bi0_1 Lu0_0 3.273410 1_556
Bi0_1 Cs0_5 4.060336 1_555
Bi0_1 Cs0_7 4.060338 1_555
Bi0_1 Cs0_1 4.060339 1_555
Bi0_2 Li1_0 2.791247 1_555
Bi0_2 Li1_6 2.791247 1_555
Bi0_2 Li1_2 2.791256 1_555
Bi0_2 Li0_3 3.205601 1_555
Bi0_2 Lu0_7 3.273406 1_555
Bi0_2 Lu0_5 3.273410 1_565
Bi0_2 Lu0_3 3.273410 1_555
Bi0_2 Cs0_6 4.060336 1_555
Bi0_2 Cs0_4 4.060338 1_565
Bi0_2 Cs0_2 4.060339 1_555
Bi0_3 Li1_1 2.791247 1_555
Bi0_3 Li1_7 2.791247 1_555
Bi0_3 Li1_3 2.791256 1_555
Bi0_3 Li0_2 3.205601 1_556
Bi0_3 Lu0_6 3.273406 1_556
Bi0_3 Lu0_4 3.273410 1_566
Bi0_3 Lu0_2 3.273410 1_556
Bi0_3 Cs0_7 4.060336 1_555
Bi0_3 Cs0_5 4.060338 1_565
Bi0_3 Cs0_3 4.060339 1_555
Bi0_4 Li1_6 2.791247 1_545
Bi0_4 Li1_0 2.791247 1_655
Bi0_4 Li1_4 2.791256 1_555
Bi0_4 Li0_5 3.205601 1_555
Bi0_4 Lu0_1 3.273406 1_655
Bi0_4 Lu0_3 3.273410 1_655
Bi0_4 Lu0_5 3.273410 1_555
Bi0_4 Cs0_0 4.060336 1_655
Bi0_4 Cs0_2 4.060338 1_655
Bi0_4 Cs0_4 4.060339 1_555
Bi0_5 Li1_7 2.791247 1_545
Bi0_5 Li1_1 2.791247 1_655
Bi0_5 Li1_5 2.791256 1_555
Bi0_5 Li0_4 3.205601 1_556
Bi0_5 Lu0_0 3.273406 1_656
Bi0_5 Lu0_2 3.273410 1_656
Bi0_5 Lu0_4 3.273410 1_556
Bi0_5 Cs0_1 4.060336 1_655
Bi0_5 Cs0_3 4.060338 1_655
Bi0_5 Cs0_5 4.060339 1_555
Bi0_6 Li1_4 2.791247 1_555
Bi0_6 Li1_2 2.791247 1_655
Bi0_6 Li1_6 2.791256 1_555
Bi0_6 Li0_7 3.205601 1_555
Bi0_6 Lu0_3 3.273406 1_655
Bi0_6 Lu0_1 3.273410 1_665
Bi0_6 Lu0_7 3.273410 1_555
Bi0_6 Cs0_2 4.060336 1_655
Bi0_6 Cs0_0 4.060338 1_665
Bi0_6 Cs0_6 4.060339 1_555
Bi0_7 Li1_5 2.791247 1_555
Bi0_7 Li1_3 2.791247 1_655
Bi0_7 Li1_7 2.791256 1_555
Bi0_7 Li0_6 3.205601 1_556
Bi0_7 Lu0_2 3.273406 1_656
Bi0_7 Lu0_0 3.273410 1_666
Bi0_7 Lu0_6 3.273410 1_556
Bi0_7 Cs0_3 4.060336 1_655
Bi0_7 Cs0_1 4.060338 1_665
Bi0_7 Cs0_7 4.060339 1_555
Bi1_0 Li0_2 2.791247 1_555
Bi1_0 Li0_4 2.791247 1_455
Bi1_0 Li0_0 2.791256 1_555
Bi1_0 Li1_1 3.205601 1_554
Bi1_0 Lu0_2 3.273406 1_555
Bi1_0 Lu0_0 3.273410 1_555
Bi1_0 Lu0_6 3.273410 1_555
Bi1_0 Cs0_2 4.060336 1_555
Bi1_0 Cs0_0 4.060338 1_555
Bi1_0 Cs0_6 4.060339 1_555
Bi1_1 Li0_3 2.791247 1_555
Bi1_1 Li0_5 2.791247 1_455
Bi1_1 Li0_1 2.791256 1_555
Bi1_1 Li1_0 3.205601 1_555
Bi1_1 Lu0_3 3.273406 1_555
Bi1_1 Lu0_1 3.273410 1_555
Bi1_1 Lu0_7 3.273410 1_555
Bi1_1 Cs0_3 4.060336 1_555
Bi1_1 Cs0_1 4.060338 1_555
Bi1_1 Cs0_7 4.060339 1_555
Bi1_2 Li0_0 2.791247 1_565
Bi1_2 Li0_6 2.791247 1_455
Bi1_2 Li0_2 2.791256 1_555
Bi1_2 Li1_3 3.205601 1_554
Bi1_2 Lu0_0 3.273406 1_565
Bi1_2 Lu0_2 3.273410 1_555
Bi1_2 Lu0_4 3.273410 1_565
Bi1_2 Cs0_0 4.060336 1_565
Bi1_2 Cs0_2 4.060338 1_555
Bi1_2 Cs0_4 4.060339 1_565
Bi1_3 Li0_1 2.791247 1_565
Bi1_3 Li0_7 2.791247 1_455
Bi1_3 Li0_3 2.791256 1_555
Bi1_3 Li1_2 3.205601 1_555
Bi1_3 Lu0_1 3.273406 1_565
Bi1_3 Lu0_3 3.273410 1_555
Bi1_3 Lu0_5 3.273410 1_565
Bi1_3 Cs0_1 4.060336 1_565
Bi1_3 Cs0_3 4.060338 1_555
Bi1_3 Cs0_5 4.060339 1_565
Bi1_4 Li0_6 2.791247 1_555
Bi1_4 Li0_0 2.791247 1_555
Bi1_4 Li0_4 2.791256 1_555
Bi1_4 Li1_5 3.205601 1_554
Bi1_4 Lu0_6 3.273406 1_555
Bi1_4 Lu0_4 3.273410 1_555
Bi1_4 Lu0_2 3.273410 1_655
Bi1_4 Cs0_6 4.060336 1_555
Bi1_4 Cs0_4 4.060338 1_555
Bi1_4 Cs0_2 4.060339 1_655
Bi1_5 Li0_7 2.791247 1_555
Bi1_5 Li0_1 2.791247 1_555
Bi1_5 Li0_5 2.791256 1_555
Bi1_5 Li1_4 3.205601 1_555
Bi1_5 Lu0_7 3.273406 1_555
Bi1_5 Lu0_5 3.273410 1_555
Bi1_5 Lu0_3 3.273410 1_655
Bi1_5 Cs0_7 4.060336 1_555
Bi1_5 Cs0_5 4.060338 1_555
Bi1_5 Cs0_3 4.060339 1_655
Bi1_6 Li0_4 2.791247 1_565
Bi1_6 Li0_2 2.791247 1_555
Bi1_6 Li0_6 2.791256 1_555
Bi1_6 Li1_7 3.205601 1_554
Bi1_6 Lu0_4 3.273406 1_565
Bi1_6 Lu0_6 3.273410 1_555
Bi1_6 Lu0_0 3.273410 1_665
Bi1_6 Cs0_4 4.060336 1_565
Bi1_6 Cs0_6 4.060338 1_555
Bi1_6 Cs0_0 4.060339 1_665
Bi1_7 Li0_5 2.791247 1_565
Bi1_7 Li0_3 2.791247 1_555
Bi1_7 Li0_7 2.791256 1_555
Bi1_7 Li1_6 3.205601 1_555
Bi1_7 Lu0_5 3.273406 1_565
Bi1_7 Lu0_7 3.273410 1_555
Bi1_7 Lu0_1 3.273410 1_665
Bi1_7 Cs0_5 4.060336 1_565
Bi1_7 Cs0_7 4.060338 1_555
Bi1_7 Cs0_1 4.060339 1_665
