# generated using pymatgen
data_Hf3Al3Co2Ge
_symmetry_space_group_name_H-M   'P 1'
_cell_length_a   6.58735347
_cell_length_b   6.58735307
_cell_length_c   7.55000644
_cell_angle_alpha   90.00000000
_cell_angle_beta   90.00000000
_cell_angle_gamma   120.00000693
_symmetry_Int_Tables_number   1
_chemical_formula_structural   Hf3Al3Co2Ge
_chemical_formula_sum   'Hf6 Al6 Co4 Ge2'
_cell_volume   283.72645532
_cell_formula_units_Z   2
loop_
 _symmetry_equiv_pos_site_id
 _symmetry_equiv_pos_as_xyz
  1  'x, y, z'
loop_
 _atom_site_type_symbol
 _atom_site_label
 _atom_site_symmetry_multiplicity
 _atom_site_fract_x
 _atom_site_fract_y
 _atom_site_fract_z
 _atom_site_occupancy
  Hf  Hf0  1  0.60020330  0.01485670  0.75000000  1
  Hf  Hf1  1  0.98514330  0.58534660  0.75000000  1
  Hf  Hf2  1  0.41465340  0.39979670  0.75000000  1
  Hf  Hf3  1  0.97704809  0.57875720  0.25000000  1
  Hf  Hf4  1  0.60171011  0.02295191  0.25000000  1
  Hf  Hf5  1  0.42124280  0.39828989  0.25000000  1
  Al  Al0  1  0.76745913  0.75441213  0.99969266  1
  Al  Al1  1  0.24558787  0.01304700  0.99969266  1
  Al  Al2  1  0.98695300  0.23254087  0.99969266  1
  Al  Al3  1  0.76745913  0.75441213  0.50030734  1
  Al  Al4  1  0.24558787  0.01304700  0.50030734  1
  Al  Al5  1  0.98695300  0.23254087  0.50030734  1
  Co  Co0  1  0.00000000  0.00000000  0.75000000  1
  Co  Co1  1  0.00000000  0.00000000  0.25000000  1
  Co  Co2  1  0.66666700  0.33333300  0.99319034  1
  Co  Co3  1  0.66666700  0.33333300  0.50680966  1
  Ge  Ge0  1  0.33333300  0.66666700  0.49797621  1
  Ge  Ge1  1  0.33333300  0.66666700  0.00202479  1
loop_
_geom_bond_atom_site_label_1
_geom_bond_atom_site_label_2
_geom_bond_distance
_geom_bond_site_symmetry_2
Al0 Co0 2.457529 1_665
Al0 Co1 2.461090 1_666
Al0 Co2 2.509088 1_555
Al0 Ge1 2.619079 1_556
Al0 Al2 2.730681 1_565
Al0 Al1 2.730681 1_665
Al0 Hf3 2.900690 1_556
Al0 Hf1 2.906453 1_555
Al0 Hf5 2.987619 1_556
Al0 Hf2 2.997164 1_555
Al0 Hf0 3.098626 1_565
Al0 Hf4 3.134365 1_566
Al1 Co0 2.457529 1_555
Al1 Co1 2.461091 1_556
Al1 Co2 2.509086 1_555
Al1 Ge1 2.619072 1_546
Al1 Al2 2.730681 1_455
Al1 Hf5 2.900686 1_556
Al1 Hf2 2.906453 1_555
Al1 Hf4 2.987622 1_556
Al1 Hf0 2.997164 1_555
Al1 Hf1 3.098625 1_445
Al1 Hf3 3.134368 1_446
Al2 Co0 2.457529 1_655
Al2 Co1 2.461091 1_656
Al2 Co2 2.509082 1_555
Al2 Ge1 2.619077 1_656
Al2 Hf4 2.900686 1_556
Al2 Hf0 2.906453 1_555
Al2 Hf3 2.987616 1_556
Al2 Hf1 2.997164 1_555
Al2 Hf2 3.098626 1_655
Al2 Hf5 3.134369 1_656
Al3 Co0 2.457529 1_665
Al3 Co1 2.461090 1_665
Al3 Co3 2.509088 1_555
Al3 Ge0 2.619079 1_555
Al3 Al5 2.730681 1_565
Al3 Al4 2.730681 1_665
Al3 Hf3 2.900690 1_555
Al3 Hf1 2.906453 1_555
Al3 Hf5 2.987619 1_555
Al3 Hf2 2.997164 1_555
Al3 Hf0 3.098626 1_565
Al3 Hf4 3.134365 1_565
Al4 Co0 2.457529 1_555
Al4 Co1 2.461091 1_555
Al4 Co3 2.509086 1_555
Al4 Ge0 2.619072 1_545
Al4 Al5 2.730681 1_455
Al4 Hf5 2.900686 1_555
Al4 Hf2 2.906453 1_555
Al4 Hf4 2.987622 1_555
Al4 Hf0 2.997164 1_555
Al4 Hf1 3.098625 1_445
Al4 Hf3 3.134368 1_445
Al5 Co0 2.457529 1_655
Al5 Co1 2.461091 1_655
Al5 Co3 2.509082 1_555
Al5 Ge0 2.619076 1_655
Al5 Hf4 2.900686 1_555
Al5 Hf0 2.906453 1_555
Al5 Hf3 2.987616 1_555
Al5 Hf1 2.997164 1_555
Al5 Hf2 3.098626 1_655
Al5 Hf5 3.134369 1_655
Co0 Hf2 2.683874 1_555
Co0 Hf1 2.683874 1_445
Co0 Hf0 2.683874 1_455
Co1 Hf4 2.702446 1_455
Co1 Hf5 2.702450 1_555
Co1 Hf3 2.702453 1_445
Co2 Hf0 2.654364 1_555
Co2 Hf1 2.654366 1_555
Co2 Hf2 2.654369 1_555
Co2 Hf3 2.692204 1_556
Co2 Hf4 2.692204 1_556
Co2 Hf5 2.692204 1_556
Co3 Hf0 2.654364 1_555
Co3 Hf1 2.654366 1_555
Co3 Hf2 2.654369 1_555
Co3 Hf3 2.692204 1_555
Co3 Hf4 2.692204 1_555
Co3 Hf5 2.692204 1_555
Ge0 Hf1 2.817744 1_455
Ge0 Hf0 2.817746 1_565
Ge0 Hf2 2.817749 1_555
Ge0 Hf3 2.826612 1_455
Ge0 Hf4 2.826615 1_565
Ge0 Hf5 2.826622 1_555
Ge1 Hf1 2.817750 1_454
Ge1 Hf0 2.817751 1_564
Ge1 Hf2 2.817754 1_554
Ge1 Hf3 2.826607 1_455
Ge1 Hf4 2.826610 1_565
Ge1 Hf5 2.826617 1_555
