# generated using pymatgen
data_CsMnAgSe2
_symmetry_space_group_name_H-M   'P 1'
_cell_length_a   8.09010237
_cell_length_b   8.09010247
_cell_length_c   8.09010293
_cell_angle_alpha   148.88917044
_cell_angle_beta   148.88917330
_cell_angle_gamma   44.57446353
_symmetry_Int_Tables_number   1
_chemical_formula_structural   CsMnAgSe2
_chemical_formula_sum   'Cs1 Mn1 Ag1 Se2'
_cell_volume   140.93637138
_cell_formula_units_Z   1
loop_
 _symmetry_equiv_pos_site_id
 _symmetry_equiv_pos_as_xyz
  1  'x, y, z'
loop_
 _atom_site_type_symbol
 _atom_site_label
 _atom_site_symmetry_multiplicity
 _atom_site_fract_x
 _atom_site_fract_y
 _atom_site_fract_z
 _atom_site_occupancy
  Cs  Cs0  1  0.00000000  0.00000000  0.00000000  1
  Mn  Mn0  1  0.25000000  0.75000000  0.50000000  1
  Ag  Ag0  1  0.75000000  0.25000000  0.50000000  1
  Se  Se0  1  0.64725163  0.64725163  0.00000000  1
  Se  Se1  1  0.35274837  0.35274837  1.00000000  1
loop_
_geom_bond_atom_site_label_1
_geom_bond_atom_site_label_2
_geom_bond_distance
_geom_bond_site_symmetry_2
Cs0 Se0 3.778069 1_545
Cs0 Se1 3.778069 1_454
Cs0 Se0 3.778069 1_455
Cs0 Se1 3.778069 1_544
Cs0 Se0 3.778069 1_556
Cs0 Se1 3.778069 1_443
Cs0 Se0 3.778070 1_444
Cs0 Se1 3.778070 1_555
Mn0 Se0 2.659545 1_455
Mn0 Se1 2.659545 1_565
Mn0 Se0 2.659545 1_556
Mn0 Se1 2.659545 1_554
Ag0 Se1 2.659545 1_655
Ag0 Se0 2.659545 1_545
Ag0 Se1 2.659545 1_554
Ag0 Se0 2.659545 1_556
