# generated using pymatgen
data_Ba2NaRe2H17
_symmetry_space_group_name_H-M   'P 1'
_cell_length_a   5.32267815
_cell_length_b   5.32267813
_cell_length_c   9.56839357
_cell_angle_alpha   89.75562126
_cell_angle_beta   90.24437914
_cell_angle_gamma   119.42693788
_symmetry_Int_Tables_number   1
_chemical_formula_structural   Ba2NaRe2H17
_chemical_formula_sum   'Ba2 Na1 Re2 H17'
_cell_volume   236.10423568
_cell_formula_units_Z   1
loop_
 _symmetry_equiv_pos_site_id
 _symmetry_equiv_pos_as_xyz
  1  'x, y, z'
loop_
 _atom_site_type_symbol
 _atom_site_label
 _atom_site_symmetry_multiplicity
 _atom_site_fract_x
 _atom_site_fract_y
 _atom_site_fract_z
 _atom_site_occupancy
  Ba  Ba0  1  0.99180523  0.00819477  0.98819380  1
  Ba  Ba1  1  0.98870443  0.01129557  0.49098794  1
  Na  Na0  1  0.65458085  0.34541915  0.23324545  1
  Re  Re0  1  0.31608589  0.68391411  0.25528799  1
  Re  Re1  1  0.65294745  0.34705255  0.74862364  1
  H  H0  1  0.52602376  0.47397624  0.87873281  1
  H  H1  1  0.43470602  0.56529398  0.39338202  1
  H  H2  1  0.52570507  0.47429493  0.62001724  1
  H  H3  1  0.47667211  0.96554852  0.37242548  1
  H  H4  1  0.91289356  0.47813890  0.62413985  1
  H  H5  1  0.46070307  0.91745700  0.11716457  1
  H  H6  1  0.92175361  0.47821252  0.87097306  1
  H  H7  1  0.52186110  0.08710644  0.62413985  1
  H  H8  1  0.03445148  0.52332789  0.37242548  1
  H  H9  1  0.52178748  0.07824639  0.87097306  1
  H  H10  1  0.08254300  0.53929693  0.11716457  1
  H  H11  1  0.66131007  0.76459190  0.22294453  1
  H  H12  1  0.82116530  0.70672956  0.74528218  1
  H  H13  1  0.29327044  0.17883470  0.74528218  1
  H  H14  1  0.23540810  0.33868993  0.22294453  1
  H  H15  1  0.13228570  0.86771430  0.24147094  1
  H  H16  1  0.83333429  0.16666571  0.74420181  1
loop_
_geom_bond_atom_site_label_1
_geom_bond_atom_site_label_2
_geom_bond_distance
_geom_bond_site_symmetry_2
Ba0 H12 2.717290 1_545
Ba0 H13 2.717290 1_655
Ba0 H15 2.740405 1_646
Ba0 H16 2.745702 1_555
Ba0 H14 2.754752 1_656
Ba0 H11 2.754752 1_546
Ba0 H6 2.888692 1_545
Ba0 H9 2.888692 1_655
Ba0 H0 2.899129 1_545
Ba0 H0 2.899129 1_655
Ba0 H10 2.903533 1_656
Ba0 H5 2.903533 1_546
Ba0 H6 2.923168 1_555
Ba0 H9 2.923168 1_555
Ba0 H10 3.022944 1_646
Ba0 H5 3.022944 1_646
Ba1 H15 2.733716 1_645
Ba1 H13 2.812110 1_655
Ba1 H12 2.812110 1_545
Ba1 H16 2.818549 1_555
Ba1 H8 2.845677 1_655
Ba1 H3 2.845677 1_545
Ba1 H1 2.884409 1_545
Ba1 H1 2.884409 1_655
Ba1 H4 2.947472 1_545
Ba1 H7 2.947472 1_655
Ba1 H8 2.956544 1_645
Ba1 H3 2.956544 1_645
Ba1 H2 2.973476 1_655
Ba1 H2 2.973476 1_545
Ba1 H4 2.996197 1_555
Ba1 H7 2.996197 1_555
Ba1 H11 3.013471 1_545
Ba1 H14 3.013471 1_655
H0 Re1 1.710405 1_555
H1 Re0 1.709001 1_555
H2 Re1 1.693566 1_555
H3 Re0 1.726582 1_555
H3 Na0 2.205629 1_565
H4 Re1 1.696555 1_555
H5 Re0 1.714309 1_555
H5 Na0 2.278026 1_565
H6 Re1 1.707679 1_555
H7 Re1 1.696555 1_555
H8 Re0 1.726582 1_555
H8 Na0 2.205629 1_455
H9 Re1 1.707679 1_555
H10 Re0 1.714309 1_555
H10 Na0 2.278026 1_455
H11 Re0 1.698530 1_555
H11 Na0 2.215520 1_555
H12 Re1 1.668285 1_555
H13 Re1 1.668285 1_555
H14 Re0 1.698530 1_555
H14 Na0 2.215520 1_555
H15 Re0 1.694081 1_555
H16 Re1 1.658939 1_555
