# generated using pymatgen
data_Rb3Ag2P2Au
_symmetry_space_group_name_H-M   'P 1'
_cell_length_a   7.71552538
_cell_length_b   7.71552470
_cell_length_c   7.97571637
_cell_angle_alpha   47.04075826
_cell_angle_beta   47.04075071
_cell_angle_gamma   46.42691609
_symmetry_Int_Tables_number   1
_chemical_formula_structural   Rb3Ag2P2Au
_chemical_formula_sum   'Rb3 Ag2 P2 Au1'
_cell_volume   230.79292448
_cell_formula_units_Z   1
loop_
 _symmetry_equiv_pos_site_id
 _symmetry_equiv_pos_as_xyz
  1  'x, y, z'
loop_
 _atom_site_type_symbol
 _atom_site_label
 _atom_site_symmetry_multiplicity
 _atom_site_fract_x
 _atom_site_fract_y
 _atom_site_fract_z
 _atom_site_occupancy
  Rb  Rb0  1  0.90799816  0.90799816  0.91059921  1
  Rb  Rb1  1  0.50000000  0.50000000  0.50000000  1
  Rb  Rb2  1  0.09200184  0.09200184  0.08940079  1
  Ag  Ag0  1  0.00000000  0.50000000  0.50000000  1
  Ag  Ag1  1  0.50000000  0.00000000  0.50000000  1
  P  P0  1  0.25421951  0.25421951  0.25413810  1
  P  P1  1  0.74578049  0.74578049  0.74586190  1
  Au  Au0  1  0.50000000  0.50000000  0.00000000  1
loop_
_geom_bond_atom_site_label_1
_geom_bond_atom_site_label_2
_geom_bond_distance
_geom_bond_site_symmetry_2
Rb0 Rb1 3.903812 1_556
Rb0 Rb1 3.916460 1_655
Rb0 Rb1 3.916461 1_565
Rb1 Rb2 3.903812 1_556
Rb1 Rb2 3.916460 1_655
Rb1 Rb2 3.916461 1_565
Ag0 P1 2.446816 1_455
Ag0 P0 2.446816 1_555
Ag0 Rb2 3.606309 1_565
Ag0 Rb0 3.606309 1_445
Ag0 Rb2 3.716210 1_556
Ag0 Rb0 3.716210 1_454
Ag0 Rb1 3.857763 1_555
Ag0 Rb1 3.857763 1_455
Ag1 P1 2.446817 1_545
Ag1 P0 2.446817 1_555
Ag1 Rb2 3.606309 1_655
Ag1 Rb0 3.606309 1_445
Ag1 Rb2 3.716210 1_556
Ag1 Rb0 3.716210 1_544
Ag1 Rb1 3.857762 1_555
Ag1 Rb1 3.857762 1_545
P0 Rb2 3.391383 1_555
P0 Rb0 3.556729 1_544
P0 Rb0 3.556730 1_454
P0 Rb0 3.660130 1_445
P0 Rb1 3.950614 1_545
P0 Rb1 3.950614 1_455
P1 Rb0 3.391383 1_555
P1 Rb2 3.556729 1_566
P1 Rb2 3.556730 1_656
P1 Rb2 3.660130 1_665
P1 Rb1 3.950614 1_565
P1 Rb1 3.950614 1_655
Au0 P1 2.404219 1_554
Au0 P0 2.404219 1_555
Au0 Rb2 3.583154 1_565
Au0 Rb0 3.583154 1_544
Au0 Rb2 3.583154 1_655
Au0 Rb0 3.583154 1_454
Au0 Rb1 3.987858 1_555
Au0 Rb1 3.987858 1_554
