# generated using pymatgen
data_ScCuH6Os
_symmetry_space_group_name_H-M   'P 1'
_cell_length_a   4.63973299
_cell_length_b   4.63973265
_cell_length_c   4.63973339
_cell_angle_alpha   60.00000178
_cell_angle_beta   60.00000418
_cell_angle_gamma   60.00001259
_symmetry_Int_Tables_number   1
_chemical_formula_structural   ScCuH6Os
_chemical_formula_sum   'Sc1 Cu1 H6 Os1'
_cell_volume   70.62590611
_cell_formula_units_Z   1
loop_
 _symmetry_equiv_pos_site_id
 _symmetry_equiv_pos_as_xyz
  1  'x, y, z'
loop_
 _atom_site_type_symbol
 _atom_site_label
 _atom_site_symmetry_multiplicity
 _atom_site_fract_x
 _atom_site_fract_y
 _atom_site_fract_z
 _atom_site_occupancy
  Sc  Sc0  1  0.25000000  0.25000000  0.25000000  1
  Cu  Cu0  1  0.75000000  0.75000000  0.75000000  1
  H  H0  1  0.74255024  0.25744976  0.25744976  1
  H  H1  1  0.25744976  0.74255024  0.74255024  1
  H  H2  1  0.25744976  0.74255024  0.25744976  1
  H  H3  1  0.74255024  0.25744976  0.74255024  1
  H  H4  1  0.25744976  0.25744976  0.74255024  1
  H  H5  1  0.74255024  0.74255024  0.25744976  1
  Os  Os0  1  0.00000000  0.00000000  0.00000000  1
loop_
_geom_bond_atom_site_label_1
_geom_bond_atom_site_label_2
_geom_bond_distance
_geom_bond_site_symmetry_2
Cu0 H3 2.320381 1_555
Cu0 H3 2.320381 1_565
Cu0 H1 2.320381 1_555
Cu0 H1 2.320381 1_655
Cu0 H0 2.320382 1_565
Cu0 H0 2.320382 1_556
Cu0 H5 2.320382 1_555
Cu0 H5 2.320382 1_556
Cu0 H2 2.320382 1_556
Cu0 H2 2.320382 1_655
Cu0 H4 2.320382 1_565
Cu0 H4 2.320382 1_655
H0 Os0 1.689276 1_655
H0 Sc0 2.320381 1_555
H0 Sc0 2.320381 1_655
H1 Os0 1.689276 1_566
H1 Sc0 2.320382 1_565
H1 Sc0 2.320382 1_556
H2 Os0 1.689276 1_565
H2 Sc0 2.320381 1_555
H2 Sc0 2.320381 1_565
H3 Os0 1.689276 1_656
H3 Sc0 2.320382 1_556
H3 Sc0 2.320382 1_655
H4 Os0 1.689275 1_556
H4 Sc0 2.320382 1_555
H4 Sc0 2.320382 1_556
H5 Os0 1.689275 1_665
H5 Sc0 2.320382 1_565
H5 Sc0 2.320382 1_655
