# generated using pymatgen
data_Lu5MnRuO12
_symmetry_space_group_name_H-M   'P 1'
_cell_length_a   6.62441683
_cell_length_b   6.62441770
_cell_length_c   7.01442925
_cell_angle_alpha   74.45596584
_cell_angle_beta   74.45596365
_cell_angle_gamma   50.45897545
_symmetry_Int_Tables_number   1
_chemical_formula_structural   Lu5MnRuO12
_chemical_formula_sum   'Lu5 Mn1 Ru1 O12'
_cell_volume   226.72142350
_cell_formula_units_Z   1
loop_
 _symmetry_equiv_pos_site_id
 _symmetry_equiv_pos_as_xyz
  1  'x, y, z'
loop_
 _atom_site_type_symbol
 _atom_site_label
 _atom_site_symmetry_multiplicity
 _atom_site_fract_x
 _atom_site_fract_y
 _atom_site_fract_z
 _atom_site_occupancy
  Lu  Lu0  1  0.69098463  0.69309330  0.66934293  1
  Lu  Lu1  1  0.69251452  0.70632036  0.13965468  1
  Lu  Lu2  1  0.00158506  0.99841494  0.00000000  1
  Lu  Lu3  1  0.29367964  0.30748548  0.86034532  1
  Lu  Lu4  1  0.30690670  0.30901537  0.33065707  1
  Mn  Mn0  1  0.24819901  0.75180099  0.50000000  1
  Ru  Ru0  1  0.76329834  0.23670166  0.50000000  1
  O  O0  1  0.40063680  0.90500514  0.92660474  1
  O  O1  1  0.57146945  0.09454340  0.58513639  1
  O  O2  1  0.90545660  0.42853055  0.41486361  1
  O  O3  1  0.09499486  0.59936320  0.07339526  1
  O  O4  1  0.00837462  0.99025445  0.31210236  1
  O  O5  1  0.49746699  0.50220465  0.68728470  1
  O  O6  1  0.89854375  0.40309904  0.92767412  1
  O  O7  1  0.09782561  0.57637843  0.58367032  1
  O  O8  1  0.42362157  0.90217439  0.41632968  1
  O  O9  1  0.59690096  0.10145625  0.07232588  1
  O  O10  1  0.49779535  0.50253301  0.31271530  1
  O  O11  1  0.00974555  0.99162538  0.68789764  1
loop_
_geom_bond_atom_site_label_1
_geom_bond_atom_site_label_2
_geom_bond_distance
_geom_bond_site_symmetry_2
Lu0 O1 2.185384 1_565
Lu0 O7 2.224911 1_655
Lu0 O6 2.229562 1_555
Lu0 O0 2.232946 1_555
Lu0 O5 2.269470 1_555
Lu0 O2 2.328829 1_555
Lu0 O8 2.334258 1_555
Lu1 O9 2.205125 1_565
Lu1 O3 2.221192 1_655
Lu1 O0 2.226729 1_554
Lu1 O6 2.265149 1_554
Lu1 O8 2.275246 1_555
Lu1 O2 2.313684 1_555
Lu1 O10 2.336560 1_555
Lu2 O11 2.187208 1_554
Lu2 O4 2.187208 1_555
Lu2 O0 2.234849 1_554
Lu2 O3 2.234850 1_555
Lu2 O9 2.244267 1_465
Lu2 O6 2.244268 1_464
Lu3 O6 2.205125 1_455
Lu3 O0 2.221192 1_545
Lu3 O3 2.226729 1_556
Lu3 O9 2.265149 1_556
Lu3 O7 2.275246 1_555
Lu3 O1 2.313684 1_555
Lu3 O5 2.336560 1_555
Lu4 O2 2.185384 1_455
Lu4 O8 2.224911 1_545
Lu4 O9 2.229562 1_555
Lu4 O3 2.232946 1_555
Lu4 O10 2.269470 1_555
Lu4 O1 2.328828 1_555
Lu4 O7 2.334258 1_555
Mn0 O8 1.866061 1_555
Mn0 O7 1.866061 1_555
Mn0 O11 1.888751 1_555
Mn0 O4 1.888751 1_555
Mn0 O10 1.925730 1_555
Mn0 O5 1.925730 1_555
O1 Ru0 1.916726 1_555
O2 Ru0 1.916726 1_555
O4 Ru0 1.915671 1_465
O5 Ru0 1.993774 1_555
O10 Ru0 1.993774 1_555
O11 Ru0 1.915671 1_465
