# generated using pymatgen
data_Sr6CaAu3
_symmetry_space_group_name_H-M   'P 1'
_cell_length_a   10.95403624
_cell_length_b   10.95403522
_cell_length_c   7.18834227
_cell_angle_alpha   90.00000000
_cell_angle_beta   90.00000000
_cell_angle_gamma   120.00000006
_symmetry_Int_Tables_number   1
_chemical_formula_structural   Sr6CaAu3
_chemical_formula_sum   'Sr12 Ca2 Au6'
_cell_volume   746.97778384
_cell_formula_units_Z   2
loop_
 _symmetry_equiv_pos_site_id
 _symmetry_equiv_pos_as_xyz
  1  'x, y, z'
loop_
 _atom_site_type_symbol
 _atom_site_label
 _atom_site_symmetry_multiplicity
 _atom_site_fract_x
 _atom_site_fract_y
 _atom_site_fract_z
 _atom_site_occupancy
  Sr  Sr0  1  0.12533492  0.87466508  0.24540114  1
  Sr  Sr1  1  0.25066884  0.12533492  0.74540114  1
  Sr  Sr2  1  0.87466508  0.74933116  0.74540114  1
  Sr  Sr3  1  0.12533492  0.25066884  0.24540114  1
  Sr  Sr4  1  0.74933116  0.87466508  0.24540114  1
  Sr  Sr5  1  0.87466508  0.12533492  0.74540114  1
  Sr  Sr6  1  0.54085498  0.45914502  0.06508407  1
  Sr  Sr7  1  0.08171097  0.54085498  0.56508407  1
  Sr  Sr8  1  0.45914502  0.91828903  0.56508407  1
  Sr  Sr9  1  0.54085498  0.08171097  0.06508407  1
  Sr  Sr10  1  0.91828903  0.45914502  0.06508407  1
  Sr  Sr11  1  0.45914502  0.54085498  0.56508407  1
  Ca  Ca0  1  0.33333300  0.66666700  0.03583310  1
  Ca  Ca1  1  0.66666700  0.33333300  0.53583310  1
  Au  Au0  1  0.80836787  0.19163213  0.33957042  1
  Au  Au1  1  0.61673774  0.80836787  0.83957042  1
  Au  Au2  1  0.19163213  0.38326226  0.83957042  1
  Au  Au3  1  0.80836787  0.61673774  0.33957042  1
  Au  Au4  1  0.38326226  0.19163213  0.33957042  1
  Au  Au5  1  0.19163213  0.80836787  0.83957042  1
loop_
_geom_bond_atom_site_label_1
_geom_bond_atom_site_label_2
_geom_bond_distance
_geom_bond_site_symmetry_2
Au0 Ca1 3.036166 1_555
Au0 Sr5 3.176876 1_555
Au0 Sr10 3.225135 1_555
Au0 Sr9 3.225135 1_555
Au0 Sr4 3.268996 1_545
Au0 Sr3 3.268996 1_655
Au0 Sr7 3.843539 1_655
Au0 Sr8 3.843539 1_545
Au1 Ca0 3.036192 1_556
Au1 Sr4 3.176873 1_556
Au1 Sr11 3.225136 1_555
Au1 Sr8 3.225143 1_555
Au1 Sr2 3.268965 1_555
Au1 Sr5 3.268985 1_565
Au1 Sr6 3.843530 1_556
Au1 Sr9 3.843559 1_566
Au2 Ca0 3.036192 1_556
Au2 Sr3 3.176873 1_556
Au2 Sr11 3.225136 1_555
Au2 Sr7 3.225143 1_555
Au2 Sr1 3.268965 1_555
Au2 Sr5 3.268985 1_455
Au2 Sr6 3.843530 1_556
Au2 Sr10 3.843559 1_456
Au3 Ca1 3.036192 1_555
Au3 Sr2 3.176873 1_555
Au3 Sr6 3.225136 1_555
Au3 Sr10 3.225143 1_555
Au3 Sr4 3.268965 1_555
Au3 Sr0 3.268985 1_655
Au3 Sr11 3.843530 1_555
Au3 Sr7 3.843559 1_655
Au4 Ca1 3.036192 1_555
Au4 Sr1 3.176873 1_555
Au4 Sr6 3.225136 1_555
Au4 Sr9 3.225143 1_555
Au4 Sr3 3.268965 1_555
Au4 Sr0 3.268985 1_545
Au4 Sr11 3.843530 1_555
Au4 Sr8 3.843559 1_545
Au5 Ca0 3.036166 1_556
Au5 Sr0 3.176876 1_556
Au5 Sr7 3.225135 1_555
Au5 Sr8 3.225135 1_555
Au5 Sr1 3.268996 1_565
Au5 Sr2 3.268996 1_455
Au5 Sr10 3.843539 1_456
Au5 Sr9 3.843539 1_566
