# generated using pymatgen
data_H7RuF12
_symmetry_space_group_name_H-M   'P 1'
_cell_length_a   7.78046074
_cell_length_b   7.78046161
_cell_length_c   5.10357149
_cell_angle_alpha   71.94758998
_cell_angle_beta   71.94758465
_cell_angle_gamma   44.17489685
_symmetry_Int_Tables_number   1
_chemical_formula_structural   H7RuF12
_chemical_formula_sum   'H7 Ru1 F12'
_cell_volume   202.89412724
_cell_formula_units_Z   1
loop_
 _symmetry_equiv_pos_site_id
 _symmetry_equiv_pos_as_xyz
  1  'x, y, z'
loop_
 _atom_site_type_symbol
 _atom_site_label
 _atom_site_symmetry_multiplicity
 _atom_site_fract_x
 _atom_site_fract_y
 _atom_site_fract_z
 _atom_site_occupancy
  H  H0  1  0.80768674  0.82268286  0.82306896  1
  H  H1  1  0.17731714  0.19231326  0.17693104  1
  H  H2  1  0.71825853  0.73759279  0.59148072  1
  H  H3  1  0.26240721  0.28174147  0.40851928  1
  H  H4  1  0.63318733  0.63935125  0.37536440  1
  H  H5  1  0.36064875  0.36681267  0.62463560  1
  H  H6  1  0.50051002  0.49948998  0.50000000  1
  Ru  Ru0  1  0.99950397  0.00049603  0.00000000  1
  F  F0  1  0.91930334  0.91882948  0.77224870  1
  F  F1  1  0.08117052  0.08069666  0.22775130  1
  F  F2  1  0.57385933  0.57248272  0.32052479  1
  F  F3  1  0.42751728  0.42614067  0.67947521  1
  F  F4  1  0.71523900  0.72894375  0.40185358  1
  F  F5  1  0.27105625  0.28476100  0.59814642  1
  F  F6  1  0.85505913  0.30364713  0.77493132  1
  F  F7  1  0.69635287  0.14494087  0.22506868  1
  F  F8  1  0.14419453  0.69745048  0.22551252  1
  F  F9  1  0.30254952  0.85580547  0.77448748  1
  F  F10  1  0.73260346  0.75842690  0.84065943  1
  F  F11  1  0.24157310  0.26739654  0.15934057  1
loop_
_geom_bond_atom_site_label_1
_geom_bond_atom_site_label_2
_geom_bond_distance
_geom_bond_site_symmetry_2
F0 H0 1.432850 1_555
F0 Ru0 1.902671 1_566
F1 H1 1.432850 1_555
F1 Ru0 1.902671 1_455
F2 H4 1.037731 1_555
F2 H6 1.142690 1_555
F3 H5 1.037731 1_555
F3 H6 1.142690 1_555
F4 H2 0.999196 1_555
F4 H4 1.289174 1_555
F5 H3 0.999196 1_555
F5 H5 1.289174 1_555
F6 Ru0 1.861258 1_556
F7 Ru0 1.861257 1_555
F8 Ru0 1.861449 1_465
F9 Ru0 1.861448 1_466
F10 H0 0.978716 1_555
F10 H2 1.377548 1_555
F11 H1 0.978716 1_555
F11 H3 1.377548 1_555
