# generated using pymatgen
data_Hf3GaPd2N
_symmetry_space_group_name_H-M   'P 1'
_cell_length_a   8.49575010
_cell_length_b   8.49575008
_cell_length_c   8.49574313
_cell_angle_alpha   60.00002705
_cell_angle_beta   60.00002713
_cell_angle_gamma   60.00005327
_symmetry_Int_Tables_number   1
_chemical_formula_structural   Hf3GaPd2N
_chemical_formula_sum   'Hf12 Ga4 Pd8 N4'
_cell_volume   433.60091062
_cell_formula_units_Z   4
loop_
 _symmetry_equiv_pos_site_id
 _symmetry_equiv_pos_as_xyz
  1  'x, y, z'
loop_
 _atom_site_type_symbol
 _atom_site_label
 _atom_site_symmetry_multiplicity
 _atom_site_fract_x
 _atom_site_fract_y
 _atom_site_fract_z
 _atom_site_occupancy
  Hf  Hf0  1  0.81131937  0.81131937  0.18868063  1
  Hf  Hf1  1  0.18868056  0.18868056  0.81131944  1
  Hf  Hf2  1  0.81131938  0.18868053  0.81131942  1
  Hf  Hf3  1  0.18868053  0.81131938  0.18868067  1
  Hf  Hf4  1  0.18868053  0.81131938  0.81131942  1
  Hf  Hf5  1  0.81131938  0.18868053  0.18868067  1
  Hf  Hf6  1  0.43868063  0.43868063  0.06131937  1
  Hf  Hf7  1  0.06131944  0.06131944  0.43868056  1
  Hf  Hf8  1  0.43868062  0.06131947  0.43868058  1
  Hf  Hf9  1  0.06131947  0.43868062  0.06131933  1
  Hf  Hf10  1  0.06131947  0.43868062  0.43868058  1
  Hf  Hf11  1  0.43868062  0.06131947  0.06131933  1
  Ga  Ga0  1  0.12500000  0.62500000  0.62500000  1
  Ga  Ga1  1  0.62500000  0.12500000  0.62500000  1
  Ga  Ga2  1  0.62500000  0.62500000  0.12500000  1
  Ga  Ga3  1  0.62500000  0.62500000  0.62500000  1
  Pd  Pd0  1  0.76590257  0.41136583  0.41136580  1
  Pd  Pd1  1  0.41136583  0.76590257  0.41136580  1
  Pd  Pd2  1  0.41136575  0.41136575  0.76590280  1
  Pd  Pd3  1  0.41136575  0.41136575  0.41136571  1
  Pd  Pd4  1  0.48409743  0.83863417  0.83863420  1
  Pd  Pd5  1  0.83863417  0.48409743  0.83863420  1
  Pd  Pd6  1  0.83863425  0.83863425  0.48409720  1
  Pd  Pd7  1  0.83863425  0.83863425  0.83863429  1
  N  N0  1  0.62500000  0.12500000  0.12500000  1
  N  N1  1  0.12500000  0.62500000  0.12500000  1
  N  N2  1  0.12500000  0.12500000  0.62500000  1
  N  N3  1  0.12500000  0.12500000  0.12500000  1
loop_
_geom_bond_atom_site_label_1
_geom_bond_atom_site_label_2
_geom_bond_distance
_geom_bond_site_symmetry_2
Hf0 N0 2.257546 1_565
Hf0 N1 2.257546 1_655
Hf0 Pd6 2.761415 1_555
Hf0 Pd7 2.761415 1_554
Hf0 Pd0 3.070265 1_555
Hf0 Pd1 3.070265 1_555
Hf1 N2 2.257542 1_555
Hf1 N3 2.257542 1_556
Hf1 Pd4 2.761420 1_545
Hf1 Pd5 2.761420 1_455
Hf1 Pd3 3.070264 1_555
Hf1 Pd2 3.070264 1_555
Hf2 N0 2.257543 1_556
Hf2 N2 2.257545 1_655
Hf2 Pd7 2.761417 1_545
Hf2 Pd5 2.761418 1_555
Hf2 Pd0 3.070263 1_555
Hf2 Pd2 3.070266 1_555
Hf3 N1 2.257543 1_555
Hf3 N3 2.257545 1_565
Hf3 Pd6 2.761417 1_455
Hf3 Pd4 2.761418 1_554
Hf3 Pd1 3.070263 1_555
Hf3 Pd3 3.070266 1_555
Hf4 N1 2.257543 1_556
Hf4 N2 2.257545 1_565
Hf4 Pd7 2.761417 1_455
Hf4 Pd4 2.761418 1_555
Hf4 Pd1 3.070263 1_555
Hf4 Pd2 3.070266 1_555
Hf5 N0 2.257543 1_555
Hf5 N3 2.257545 1_655
Hf5 Pd6 2.761417 1_545
Hf5 Pd5 2.761418 1_554
Hf5 Pd0 3.070263 1_555
Hf5 Pd3 3.070266 1_555
Hf6 N0 2.257546 1_555
Hf6 N1 2.257546 1_555
Hf6 Pd2 2.761415 1_554
Hf6 Pd3 2.761415 1_555
Hf6 Pd4 3.070265 1_554
Hf6 Pd5 3.070265 1_554
Hf7 N2 2.257542 1_555
Hf7 N3 2.257542 1_555
Hf7 Pd0 2.761420 1_455
Hf7 Pd1 2.761420 1_545
Hf7 Pd7 3.070264 1_445
Hf7 Pd6 3.070264 1_445
Hf8 N0 2.257543 1_555
Hf8 N2 2.257545 1_555
Hf8 Pd3 2.761417 1_555
Hf8 Pd1 2.761418 1_545
Hf8 Pd4 3.070263 1_545
Hf8 Pd6 3.070266 1_545
Hf9 N1 2.257543 1_555
Hf9 N3 2.257545 1_555
Hf9 Pd2 2.761417 1_554
Hf9 Pd0 2.761418 1_455
Hf9 Pd5 3.070263 1_454
Hf9 Pd7 3.070266 1_454
Hf10 N1 2.257543 1_555
Hf10 N2 2.257545 1_555
Hf10 Pd3 2.761417 1_555
Hf10 Pd0 2.761418 1_455
Hf10 Pd5 3.070263 1_455
Hf10 Pd6 3.070266 1_455
Hf11 N0 2.257543 1_555
Hf11 N3 2.257545 1_555
Hf11 Pd2 2.761417 1_554
Hf11 Pd1 2.761418 1_545
Hf11 Pd4 3.070263 1_544
Hf11 Pd7 3.070266 1_544
Ga0 Pd1 2.640102 1_555
Ga0 Pd5 2.640102 1_455
Ga0 Pd7 2.640103 1_455
Ga0 Pd3 2.640103 1_555
Ga0 Pd2 2.640103 1_555
Ga0 Pd6 2.640103 1_455
Ga0 Hf4 3.085837 1_555
Ga0 Hf10 3.085837 1_555
Ga0 Hf9 3.085837 1_556
Ga0 Hf3 3.085837 1_555
Ga0 Hf7 3.085840 1_565
Ga0 Hf1 3.085840 1_555
Ga1 Pd0 2.640102 1_555
Ga1 Pd4 2.640102 1_545
Ga1 Pd7 2.640103 1_545
Ga1 Pd3 2.640103 1_555
Ga1 Pd2 2.640103 1_555
Ga1 Pd6 2.640103 1_545
Ga1 Hf2 3.085837 1_555
Ga1 Hf11 3.085837 1_556
Ga1 Hf5 3.085837 1_555
Ga1 Hf8 3.085837 1_555
Ga1 Hf7 3.085840 1_655
Ga1 Hf1 3.085840 1_555
Ga2 Pd0 2.640101 1_555
Ga2 Pd4 2.640101 1_554
Ga2 Pd1 2.640101 1_555
Ga2 Pd5 2.640101 1_554
Ga2 Pd7 2.640102 1_554
Ga2 Pd3 2.640102 1_555
Ga2 Hf0 3.085837 1_555
Ga2 Hf6 3.085837 1_555
Ga2 Hf11 3.085841 1_565
Ga2 Hf5 3.085841 1_555
Ga2 Hf9 3.085841 1_655
Ga2 Hf3 3.085841 1_555
Ga3 Pd4 2.640101 1_555
Ga3 Pd0 2.640101 1_555
Ga3 Pd5 2.640101 1_555
Ga3 Pd1 2.640101 1_555
Ga3 Pd6 2.640102 1_555
Ga3 Pd2 2.640102 1_555
Ga3 Hf6 3.085837 1_556
Ga3 Hf0 3.085837 1_555
Ga3 Hf8 3.085841 1_565
Ga3 Hf2 3.085841 1_555
Ga3 Hf10 3.085841 1_655
Ga3 Hf4 3.085841 1_555
