# generated using pymatgen
data_Zr6Zn15Pd8Se
_symmetry_space_group_name_H-M   'P 1'
_cell_length_a   8.71425962
_cell_length_b   8.71425845
_cell_length_c   8.71425854
_cell_angle_alpha   59.99999965
_cell_angle_beta   60.00000411
_cell_angle_gamma   59.99999404
_symmetry_Int_Tables_number   1
_chemical_formula_structural   Zr6Zn15Pd8Se
_chemical_formula_sum   'Zr6 Zn15 Pd8 Se1'
_cell_volume   467.92512629
_cell_formula_units_Z   1
loop_
 _symmetry_equiv_pos_site_id
 _symmetry_equiv_pos_as_xyz
  1  'x, y, z'
loop_
 _atom_site_type_symbol
 _atom_site_label
 _atom_site_symmetry_multiplicity
 _atom_site_fract_x
 _atom_site_fract_y
 _atom_site_fract_z
 _atom_site_occupancy
  Zr  Zr0  1  0.71851960  0.28148040  0.28148040  1
  Zr  Zr1  1  0.28148040  0.71851960  0.71851960  1
  Zr  Zr2  1  0.28148040  0.71851960  0.28148040  1
  Zr  Zr3  1  0.71851960  0.28148040  0.71851960  1
  Zr  Zr4  1  0.28148040  0.28148040  0.71851960  1
  Zr  Zr5  1  0.71851960  0.71851960  0.28148040  1
  Zn  Zn0  1  0.50000000  0.00000000  0.00000000  1
  Zn  Zn1  1  0.00000000  0.50000000  0.50000000  1
  Zn  Zn2  1  0.00000000  0.50000000  0.00000000  1
  Zn  Zn3  1  0.50000000  0.00000000  0.50000000  1
  Zn  Zn4  1  0.00000000  0.00000000  0.50000000  1
  Zn  Zn5  1  0.50000000  0.50000000  0.00000000  1
  Zn  Zn6  1  0.33089916  0.33089916  0.33089916  1
  Zn  Zn7  1  0.66910084  0.66910084  0.66910084  1
  Zn  Zn8  1  0.33089916  0.33089916  0.00730152  1
  Zn  Zn9  1  0.33089916  0.00730152  0.33089916  1
  Zn  Zn10  1  0.66910084  0.66910084  0.99269848  1
  Zn  Zn11  1  0.66910084  0.99269848  0.66910084  1
  Zn  Zn12  1  0.00730152  0.33089916  0.33089916  1
  Zn  Zn13  1  0.99269848  0.66910084  0.66910084  1
  Zn  Zn14  1  0.00000000  0.00000000  0.00000000  1
  Pd  Pd0  1  0.12063558  0.12063558  0.12063558  1
  Pd  Pd1  1  0.87936442  0.87936442  0.87936442  1
  Pd  Pd2  1  0.12063558  0.12063558  0.63809327  1
  Pd  Pd3  1  0.12063558  0.63809327  0.12063558  1
  Pd  Pd4  1  0.87936442  0.87936442  0.36190673  1
  Pd  Pd5  1  0.87936442  0.36190673  0.87936442  1
  Pd  Pd6  1  0.63809327  0.12063558  0.12063558  1
  Pd  Pd7  1  0.36190673  0.87936442  0.87936442  1
  Se  Se0  1  0.50000000  0.50000000  0.50000000  1
loop_
_geom_bond_atom_site_label_1
_geom_bond_atom_site_label_2
_geom_bond_distance
_geom_bond_site_symmetry_2
Zn0 Zn10 2.516123 1_544
Zn0 Zn8 2.516123 1_555
Zn0 Zn11 2.516124 1_544
Zn0 Zn9 2.516124 1_555
Zn0 Zr5 3.105286 1_545
Zn0 Zr4 3.105286 1_554
Zn0 Zr3 3.105286 1_554
Zn0 Zr2 3.105286 1_545
Zn1 Zn6 2.516126 1_555
Zn1 Zn7 2.516126 1_455
Zn1 Zn13 2.516131 1_455
Zn1 Zn12 2.516131 1_555
Zn1 Zr4 3.105286 1_555
Zn1 Zr5 3.105286 1_455
Zn1 Zr2 3.105286 1_555
Zn1 Zr3 3.105286 1_455
Zn2 Zn8 2.516124 1_555
Zn2 Zr5 3.105286 1_455
Zn2 Zr4 3.105286 1_554
Zn2 Zr1 3.105286 1_554
Zn2 Zr0 3.105286 1_455
Zn3 Zn7 2.516126 1_545
Zn3 Zn6 2.516126 1_555
Zn3 Zn9 2.516131 1_555
Zn3 Zr4 3.105286 1_555
Zn3 Zr5 3.105286 1_545
Zn3 Zr0 3.105286 1_555
Zn3 Zr1 3.105286 1_545
Zn4 Zn9 2.516124 1_555
Zn4 Zr1 3.105286 1_545
Zn4 Zr3 3.105286 1_455
Zn4 Zr0 3.105286 1_455
Zn4 Zr2 3.105286 1_545
Zn5 Zn6 2.516127 1_555
Zn5 Zn7 2.516127 1_554
Zn5 Zn8 2.516131 1_555
Zn5 Zr2 3.105286 1_555
Zn5 Zr0 3.105286 1_555
Zn5 Zr3 3.105286 1_554
Zn5 Zr1 3.105286 1_554
Zn6 Zn9 2.819913 1_555
Zn6 Zn8 2.819913 1_555
Zn6 Zr2 3.009446 1_555
Zn6 Zr4 3.009446 1_555
Zn6 Zr0 3.009447 1_555
Zn7 Zr3 3.009446 1_555
Zn7 Zr5 3.009446 1_555
Zn7 Zr1 3.009447 1_555
Zn8 Zn9 2.819913 1_555
Zn8 Zr4 3.009438 1_554
Zn8 Zr1 3.009443 1_554
Zn8 Zr3 3.009444 1_554
Zn9 Zr2 3.009438 1_545
Zn9 Zr5 3.009443 1_545
Zn9 Zr1 3.009443 1_545
Zn10 Zn2 2.516124 1_656
Zn10 Zn5 2.516131 1_556
Zn10 Zn11 2.819913 1_555
Zn10 Zn7 2.819913 1_555
Zn10 Zn13 2.819914 1_555
Zn10 Zr5 3.009438 1_556
Zn10 Zr0 3.009443 1_556
Zn10 Zr2 3.009444 1_556
Zn11 Zn4 2.516124 1_665
Zn11 Zn3 2.516131 1_565
Zn11 Zn13 2.819913 1_555
Zn11 Zn7 2.819913 1_555
Zn11 Zr3 3.009438 1_565
Zn11 Zr4 3.009443 1_565
Zn11 Zr0 3.009443 1_565
Zn12 Zn4 2.516124 1_555
Zn12 Zn2 2.516124 1_555
Zn12 Zn9 2.819913 1_555
Zn12 Zn8 2.819914 1_555
Zn12 Zn6 2.819914 1_555
Zn12 Zr0 3.009438 1_455
Zn12 Zr5 3.009443 1_455
Zn12 Zr3 3.009444 1_455
Zn13 Zn4 2.516124 1_665
Zn13 Zn2 2.516124 1_656
Zn13 Zn7 2.819914 1_555
Zn13 Zr1 3.009438 1_655
Zn13 Zr4 3.009443 1_655
Zn13 Zr2 3.009444 1_655
Pd0 Zn14 2.575025 1_555
Pd0 Zn2 2.700668 1_555
Pd0 Zn4 2.700668 1_555
Pd0 Zn0 2.700668 1_555
Pd0 Zn12 2.725444 1_555
Pd0 Zn9 2.725445 1_555
Pd0 Zn8 2.725445 1_555
Pd0 Zr2 2.889587 1_545
Pd0 Zr4 2.889587 1_554
Pd0 Zr0 2.889587 1_455
Pd1 Zn14 2.575025 1_666
Pd1 Zn2 2.700668 1_656
Pd1 Zn4 2.700668 1_665
Pd1 Zn0 2.700668 1_566
Pd1 Zn13 2.725444 1_555
Pd1 Zn11 2.725445 1_555
Pd1 Zn10 2.725445 1_555
Pd1 Zr3 2.889587 1_565
Pd1 Zr5 2.889587 1_556
Pd1 Zr1 2.889587 1_655
Pd2 Zn14 2.575025 1_556
Pd2 Zn1 2.700668 1_555
Pd2 Zn4 2.700668 1_555
Pd2 Zn3 2.700668 1_555
Pd2 Zn6 2.725448 1_555
Pd2 Zn12 2.725452 1_555
Pd2 Zn9 2.725452 1_555
Pd2 Zr1 2.889587 1_545
Pd2 Zr4 2.889587 1_555
Pd2 Zr3 2.889587 1_455
Pd3 Zn14 2.575025 1_565
Pd3 Zn1 2.700668 1_555
Pd3 Zn2 2.700668 1_555
Pd3 Zn5 2.700668 1_555
Pd3 Zn6 2.725447 1_555
Pd3 Zn8 2.725452 1_555
Pd3 Zn12 2.725452 1_555
Pd3 Zr2 2.889587 1_555
Pd3 Zr1 2.889587 1_554
Pd3 Zr5 2.889587 1_455
Pd4 Zn14 2.575025 1_665
Pd4 Zn1 2.700668 1_655
Pd4 Zn4 2.700668 1_665
Pd4 Zn3 2.700668 1_565
Pd4 Zn7 2.725448 1_555
Pd4 Zn13 2.725452 1_555
Pd4 Zn11 2.725452 1_555
Pd4 Zr0 2.889587 1_565
Pd4 Zr5 2.889587 1_555
Pd4 Zr2 2.889587 1_655
Pd5 Zn14 2.575025 1_656
Pd5 Zn1 2.700668 1_655
Pd5 Zn2 2.700668 1_656
Pd5 Zn5 2.700668 1_556
Pd5 Zn7 2.725447 1_555
Pd5 Zn10 2.725452 1_555
Pd5 Zn13 2.725452 1_555
Pd5 Zr3 2.889587 1_555
Pd5 Zr0 2.889587 1_556
Pd5 Zr4 2.889587 1_655
Pd6 Zn14 2.575025 1_655
Pd6 Zn5 2.700668 1_555
Pd6 Zn3 2.700668 1_555
Pd6 Zn0 2.700668 1_555
Pd6 Zn6 2.725447 1_555
Pd6 Zn8 2.725452 1_555
Pd6 Zn9 2.725452 1_555
Pd6 Zr5 2.889587 1_545
Pd6 Zr0 2.889587 1_555
Pd6 Zr3 2.889587 1_554
Pd7 Zn14 2.575025 1_566
Pd7 Zn5 2.700668 1_556
Pd7 Zn3 2.700668 1_565
Pd7 Zn0 2.700668 1_566
Pd7 Zn7 2.725447 1_555
Pd7 Zn10 2.725452 1_555
Pd7 Zn11 2.725452 1_555
Pd7 Zr4 2.889587 1_565
Pd7 Zr2 2.889587 1_556
Pd7 Zr1 2.889587 1_555
Se0 Zr3 2.692997 1_555
Se0 Zr1 2.692997 1_555
Se0 Zr0 2.692997 1_555
Se0 Zr2 2.692997 1_555
Se0 Zr5 2.692997 1_555
Se0 Zr4 2.692997 1_555
