# generated using pymatgen
data_ZnPt4Pb3O14
_symmetry_space_group_name_H-M   'P 1'
_cell_length_a   7.29195742
_cell_length_b   7.15931487
_cell_length_c   7.29195623
_cell_angle_alpha   59.38520784
_cell_angle_beta   60.00000100
_cell_angle_gamma   59.38520749
_symmetry_Int_Tables_number   1
_chemical_formula_structural   ZnPt4Pb3O14
_chemical_formula_sum   'Zn1 Pt4 Pb3 O14'
_cell_volume   266.65258301
_cell_formula_units_Z   1
loop_
 _symmetry_equiv_pos_site_id
 _symmetry_equiv_pos_as_xyz
  1  'x, y, z'
loop_
 _atom_site_type_symbol
 _atom_site_label
 _atom_site_symmetry_multiplicity
 _atom_site_fract_x
 _atom_site_fract_y
 _atom_site_fract_z
 _atom_site_occupancy
  Zn  Zn0  1  0.62500000  0.12500000  0.62500000  1
  Pt  Pt0  1  0.12500000  0.12500000  0.62500000  1
  Pt  Pt1  1  0.12500000  0.62500000  0.12500000  1
  Pt  Pt2  1  0.62500000  0.12500000  0.12500000  1
  Pt  Pt3  1  0.12500000  0.12500000  0.12500000  1
  Pb  Pb0  1  0.62500000  0.62500000  0.12500000  1
  Pb  Pb1  1  0.12500000  0.62500000  0.62500000  1
  Pb  Pb2  1  0.62500000  0.62500000  0.62500000  1
  O  O0  1  0.50971320  0.47086141  0.50971320  1
  O  O1  1  0.74028680  0.77913859  0.74028680  1
  O  O2  1  0.45774437  0.04720407  0.45774437  1
  O  O3  1  0.20968477  0.78864009  0.20968477  1
  O  O4  1  0.45800964  0.46135991  0.04031523  1
  O  O5  1  0.04031523  0.46135991  0.45800964  1
  O  O6  1  0.45774437  0.04720407  0.03730820  1
  O  O7  1  0.03730820  0.04720407  0.45774437  1
  O  O8  1  0.04031523  0.46135991  0.04031523  1
  O  O9  1  0.79225563  0.20279593  0.21269180  1
  O  O10  1  0.20968477  0.78864009  0.79199036  1
  O  O11  1  0.79225563  0.20279593  0.79225563  1
  O  O12  1  0.21269180  0.20279593  0.79225563  1
  O  O13  1  0.79199036  0.78864009  0.20968477  1
loop_
_geom_bond_atom_site_label_1
_geom_bond_atom_site_label_2
_geom_bond_distance
_geom_bond_site_symmetry_2
O0 Zn0 2.002761 1_555
O0 Pb2 2.286417 1_555
O0 Pb0 2.286422 1_555
O0 Pb1 2.286423 1_555
O1 Zn0 2.002761 1_565
O1 Pb2 2.286417 1_555
O1 Pb0 2.286422 1_556
O1 Pb1 2.286423 1_655
O2 Pt2 2.010248 1_555
O2 Pt0 2.010248 1_555
O2 Pb2 2.467673 1_545
O2 Zn0 2.481205 1_555
O3 Pt3 1.978323 1_565
O3 Pt1 1.997556 1_555
O3 Pb1 2.485645 1_555
O3 Pb0 2.485645 1_555
O4 Pt2 1.978323 1_555
O4 Pt1 1.997556 1_555
O4 Pb2 2.485645 1_554
O4 Pb0 2.485645 1_555
O5 Pt0 1.978323 1_555
O5 Pt1 1.997556 1_555
O5 Pb1 2.485645 1_555
O5 Pb2 2.485645 1_455
O6 Pt2 2.010243 1_555
O6 Pt3 2.010249 1_555
O6 Pb0 2.467674 1_545
O6 Zn0 2.481211 1_554
O7 Pt0 2.010242 1_555
O7 Pt3 2.010249 1_555
O7 Pb1 2.467674 1_545
O7 Zn0 2.481212 1_455
O8 Pt3 1.978323 1_555
O8 Pt1 1.997556 1_555
O8 Pb1 2.485645 1_554
O8 Pb0 2.485645 1_455
O9 Pt2 2.010243 1_555
O9 Pt3 2.010249 1_655
O9 Pb0 2.467674 1_555
O9 Zn0 2.481211 1_555
O10 Pt0 1.978323 1_565
O10 Pt1 1.997556 1_556
O10 Pb1 2.485645 1_555
O10 Pb2 2.485645 1_555
O11 Pt2 2.010248 1_556
O11 Pt0 2.010248 1_655
O11 Pb2 2.467673 1_555
O11 Zn0 2.481205 1_555
O12 Pt0 2.010242 1_555
O12 Pt3 2.010249 1_556
O12 Pb1 2.467674 1_555
O12 Zn0 2.481212 1_555
O13 Pt2 1.978323 1_565
O13 Pt1 1.997556 1_655
O13 Pb2 2.485645 1_555
O13 Pb0 2.485645 1_555
