# generated using pymatgen
data_VTc5As14
_symmetry_space_group_name_H-M   'P 1'
_cell_length_a   7.55761507
_cell_length_b   7.55761552
_cell_length_c   7.55761426
_cell_angle_alpha   109.16219656
_cell_angle_beta   110.09105143
_cell_angle_gamma   109.16219940
_symmetry_Int_Tables_number   1
_chemical_formula_structural   VTc5As14
_chemical_formula_sum   'V1 Tc5 As14'
_cell_volume   332.27235934
_cell_formula_units_Z   1
loop_
 _symmetry_equiv_pos_site_id
 _symmetry_equiv_pos_as_xyz
  1  'x, y, z'
loop_
 _atom_site_type_symbol
 _atom_site_label
 _atom_site_symmetry_multiplicity
 _atom_site_fract_x
 _atom_site_fract_y
 _atom_site_fract_z
 _atom_site_occupancy
  V  V0  1  0.65923740  0.00000000  0.65923740  1
  Tc  Tc0  1  0.33802259  1.00000000  0.33802259  1
  Tc  Tc1  1  0.99908707  0.34054731  0.33963538  1
  Tc  Tc2  1  0.99908707  0.65945269  0.65853977  1
  Tc  Tc3  1  0.33963538  0.34054731  0.99908707  1
  Tc  Tc4  1  0.65853977  0.65945269  0.99908707  1
  As  As0  1  0.74912210  0.50000000  0.24912210  1
  As  As1  1  0.50402195  0.75084210  0.25486505  1
  As  As2  1  0.50402195  0.24915790  0.75317984  1
  As  As3  1  0.75317984  0.24915790  0.50402195  1
  As  As4  1  0.25486505  0.75084210  0.50402195  1
  As  As5  1  0.24912210  0.50000000  0.74912210  1
  As  As6  1  0.99999534  1.00000000  0.33105766  1
  As  As7  1  0.66961307  0.00000000  0.99536229  1
  As  As8  1  0.99999534  0.66893768  0.99999534  1
  As  As9  1  0.33105766  0.33106232  0.33105766  1
  As  As10  1  0.99536229  0.32574921  0.99536229  1
  As  As11  1  0.66961307  0.67425079  0.66961307  1
  As  As12  1  0.33105766  1.00000000  0.99999534  1
  As  As13  1  0.99536229  0.00000000  0.66961307  1
loop_
_geom_bond_atom_site_label_1
_geom_bond_atom_site_label_2
_geom_bond_distance
_geom_bond_site_symmetry_2
Tc0 V0 2.781688 1_565
As0 Tc2 2.576214 1_555
As0 Tc1 2.576216 1_555
As0 Tc3 2.576718 1_554
As0 Tc4 2.576724 1_554
As1 V0 2.563316 1_565
As1 Tc3 2.604116 1_554
As1 Tc4 2.604119 1_554
As1 Tc0 2.613501 1_555
As2 V0 2.563322 1_555
As2 Tc3 2.604107 1_555
As2 Tc4 2.604114 1_555
As2 Tc0 2.613502 1_545
As3 V0 2.563322 1_555
As3 Tc1 2.604107 1_555
As3 Tc2 2.604114 1_555
As3 Tc0 2.613502 1_545
As4 V0 2.563316 1_565
As4 Tc1 2.604116 1_455
As4 Tc2 2.604119 1_455
As4 Tc0 2.613501 1_555
As5 Tc4 2.576215 1_555
As5 Tc3 2.576216 1_555
As5 Tc1 2.576718 1_455
As5 Tc2 2.576725 1_455
As6 Tc0 2.537080 1_655
As6 Tc1 2.555520 1_565
As6 Tc4 2.555522 1_554
As6 As7 2.884270 1_564
As6 As8 2.900117 1_554
As6 As9 2.900117 1_665
As7 V0 2.514444 1_555
As7 Tc4 2.557272 1_545
As7 Tc1 2.557275 1_556
As8 Tc0 2.537079 1_656
As8 Tc2 2.555522 1_555
As8 Tc4 2.555522 1_555
As9 Tc0 2.537080 1_545
As9 Tc3 2.555525 1_554
As9 Tc1 2.555525 1_455
As10 V0 2.514444 1_555
As10 Tc1 2.557279 1_556
As10 Tc3 2.557280 1_655
As10 As8 2.570910 1_555
As10 As9 2.884270 1_656
As11 V0 2.514445 1_565
As11 Tc4 2.557272 1_555
As11 Tc2 2.557272 1_555
As11 As9 2.570910 1_555
As11 As8 2.884270 1_555
As12 Tc0 2.537079 1_556
As12 Tc3 2.555520 1_565
As12 Tc2 2.555522 1_455
As12 As7 2.570910 1_565
As12 As13 2.884270 1_465
As12 As9 2.900117 1_566
As12 As8 2.900117 1_455
As13 V0 2.514444 1_555
As13 Tc2 2.557272 1_545
As13 Tc3 2.557275 1_655
As13 As6 2.570910 1_545
