# generated using pymatgen
data_Mn9Nb12As3N4
_symmetry_space_group_name_H-M   'P 1'
_cell_length_a   8.20564753
_cell_length_b   8.16671845
_cell_length_c   8.16671803
_cell_angle_alpha   60.00000170
_cell_angle_beta   60.15681424
_cell_angle_gamma   60.15681701
_symmetry_Int_Tables_number   1
_chemical_formula_structural   Mn9Nb12As3N4
_chemical_formula_sum   'Mn9 Nb12 As3 N4'
_cell_volume   387.89872186
_cell_formula_units_Z   1
loop_
 _symmetry_equiv_pos_site_id
 _symmetry_equiv_pos_as_xyz
  1  'x, y, z'
loop_
 _atom_site_type_symbol
 _atom_site_label
 _atom_site_symmetry_multiplicity
 _atom_site_fract_x
 _atom_site_fract_y
 _atom_site_fract_z
 _atom_site_occupancy
  Mn  Mn0  1  0.12500000  0.62500000  0.62500000  1
  Mn  Mn1  1  0.74772770  0.41742410  0.41742410  1
  Mn  Mn2  1  0.41148188  0.74591039  0.42130437  1
  Mn  Mn3  1  0.41148188  0.42130437  0.74591039  1
  Mn  Mn4  1  0.41148188  0.42130437  0.42130437  1
  Mn  Mn5  1  0.50227230  0.83257590  0.83257590  1
  Mn  Mn6  1  0.83851812  0.50408961  0.82869563  1
  Mn  Mn7  1  0.83851812  0.82869563  0.50408961  1
  Mn  Mn8  1  0.83851812  0.82869563  0.82869563  1
  Nb  Nb0  1  0.80873042  0.80677675  0.19224641  1
  Nb  Nb1  1  0.19212863  0.19497445  0.80644846  1
  Nb  Nb2  1  0.80873042  0.19224641  0.80677675  1
  Nb  Nb3  1  0.19212863  0.80644846  0.19497445  1
  Nb  Nb4  1  0.19212863  0.80644846  0.80644846  1
  Nb  Nb5  1  0.80873042  0.19224641  0.19224641  1
  Nb  Nb6  1  0.44126958  0.44322325  0.05775359  1
  Nb  Nb7  1  0.05787137  0.05502555  0.44355154  1
  Nb  Nb8  1  0.44126958  0.05775359  0.44322325  1
  Nb  Nb9  1  0.05787137  0.44355154  0.05502555  1
  Nb  Nb10  1  0.05787137  0.44355154  0.44355154  1
  Nb  Nb11  1  0.44126958  0.05775359  0.05775359  1
  As  As0  1  0.62500000  0.12500000  0.62500000  1
  As  As1  1  0.62500000  0.62500000  0.12500000  1
  As  As2  1  0.62500000  0.62500000  0.62500000  1
  N  N0  1  0.62500000  0.12500000  0.12500000  1
  N  N1  1  0.12500000  0.62500000  0.12500000  1
  N  N2  1  0.12500000  0.12500000  0.62500000  1
  N  N3  1  0.12500000  0.12500000  0.12500000  1
loop_
_geom_bond_atom_site_label_1
_geom_bond_atom_site_label_2
_geom_bond_distance
_geom_bond_site_symmetry_2
Mn0 Mn8 2.458463 1_455
Mn0 Mn4 2.458463 1_555
Mn0 Mn2 2.458467 1_555
Mn0 Mn6 2.458467 1_455
Mn0 Mn3 2.458467 1_555
Mn0 Mn7 2.458467 1_455
Mn0 Nb4 2.918168 1_555
Mn0 Nb10 2.918168 1_555
Mn0 Nb9 2.918168 1_556
Mn0 Nb3 2.918168 1_555
Mn0 Nb7 2.918168 1_565
Mn0 Nb1 2.918168 1_555
As0 Mn1 2.497450 1_555
As0 Mn5 2.497450 1_545
As0 Mn8 2.519592 1_545
As0 Mn4 2.519592 1_555
As0 Mn3 2.519597 1_555
As0 Mn7 2.519597 1_545
As0 Nb2 2.940260 1_555
As0 Nb11 2.940260 1_556
As0 Nb5 2.940260 1_555
As0 Nb8 2.940260 1_555
As0 Nb7 2.954177 1_655
As0 Nb1 2.954177 1_555
As1 Mn1 2.497450 1_555
As1 Mn5 2.497450 1_554
As1 Mn8 2.519592 1_554
As1 Mn4 2.519592 1_555
As1 Mn2 2.519596 1_555
As1 Mn6 2.519596 1_554
As1 Nb0 2.940260 1_555
As1 Nb6 2.940260 1_555
As1 Nb11 2.940260 1_565
As1 Nb5 2.940260 1_555
As1 Nb9 2.954177 1_655
As1 Nb3 2.954177 1_555
As2 Mn5 2.497450 1_555
As2 Mn1 2.497450 1_555
As2 Mn6 2.519590 1_555
As2 Mn2 2.519590 1_555
As2 Mn7 2.519590 1_555
As2 Mn3 2.519590 1_555
As2 Nb6 2.940260 1_556
As2 Nb0 2.940260 1_555
As2 Nb8 2.940260 1_565
As2 Nb2 2.940260 1_555
As2 Nb10 2.954177 1_655
As2 Nb4 2.954177 1_555
N0 Nb5 2.196773 1_555
N0 Nb8 2.196773 1_555
N0 Nb2 2.196773 1_554
N0 Nb11 2.196773 1_555
N0 Nb6 2.196773 1_555
N0 Nb0 2.196773 1_545
N1 Nb3 2.190504 1_555
N1 Nb9 2.190504 1_555
N1 Nb10 2.190504 1_555
N1 Nb4 2.190504 1_554
N1 Nb6 2.191552 1_555
N1 Nb0 2.191552 1_455
N2 Nb1 2.190504 1_555
N2 Nb7 2.190504 1_555
N2 Nb4 2.190504 1_545
N2 Nb10 2.190504 1_555
N2 Nb8 2.191552 1_555
N2 Nb2 2.191552 1_455
N3 Nb7 2.190504 1_555
N3 Nb1 2.190504 1_554
N3 Nb9 2.190504 1_555
N3 Nb3 2.190504 1_545
N3 Nb11 2.191552 1_555
N3 Nb5 2.191552 1_455
