# generated using pymatgen
data_Sr8Ga2OsN8
_symmetry_space_group_name_H-M   'P 1'
_cell_length_a   9.84886751
_cell_length_b   5.38684726
_cell_length_c   7.50540324
_cell_angle_alpha   89.99999803
_cell_angle_beta   75.13997507
_cell_angle_gamma   74.12882445
_symmetry_Int_Tables_number   1
_chemical_formula_structural   Sr8Ga2OsN8
_chemical_formula_sum   'Sr8 Ga2 Os1 N8'
_cell_volume   369.14997105
_cell_formula_units_Z   1
loop_
 _symmetry_equiv_pos_site_id
 _symmetry_equiv_pos_as_xyz
  1  'x, y, z'
loop_
 _atom_site_type_symbol
 _atom_site_label
 _atom_site_symmetry_multiplicity
 _atom_site_fract_x
 _atom_site_fract_y
 _atom_site_fract_z
 _atom_site_occupancy
  Sr  Sr0  1  0.06852667  0.96573616  0.73794842  1
  Sr  Sr1  1  0.93147333  0.03426384  0.26205158  1
  Sr  Sr2  1  0.65191407  0.67404197  0.49285628  1
  Sr  Sr3  1  0.34808593  0.32595803  0.50714372  1
  Sr  Sr4  1  0.80486088  0.59757006  0.94284277  1
  Sr  Sr5  1  0.19513912  0.40242994  0.05715723  1
  Sr  Sr6  1  0.39231616  0.80384292  0.18847744  1
  Sr  Sr7  1  0.60768384  0.19615708  0.81152256  1
  Ga  Ga0  1  0.37409842  0.81295179  0.79813533  1
  Ga  Ga1  1  0.62590158  0.18704821  0.20186467  1
  Os  Os0  1  0.00000000  0.50000000  0.50000000  1
  N  N0  1  0.20125820  0.89937140  0.00189945  1
  N  N1  1  0.79874180  0.10062860  0.99810055  1
  N  N2  1  0.35635898  0.82182101  0.55433705  1
  N  N3  1  0.64364102  0.17817899  0.44566295  1
  N  N4  1  0.56478649  0.71760676  0.84155735  1
  N  N5  1  0.43521351  0.28239324  0.15844265  1
  N  N6  1  0.93881144  0.53059478  0.29008992  1
  N  N7  1  0.06118856  0.46940522  0.70991008  1
loop_
_geom_bond_atom_site_label_1
_geom_bond_atom_site_label_2
_geom_bond_distance
_geom_bond_site_symmetry_2
Ga0 N2 1.881595 1_555
Ga0 N4 1.919238 1_555
Ga0 N0 1.919529 1_556
Ga1 N3 1.881595 1_555
Ga1 N5 1.919238 1_555
Ga1 N1 1.919529 1_554
N0 Sr6 2.566810 1_555
N0 Sr0 2.614198 1_554
N0 Sr5 2.723425 1_565
N0 Sr5 2.723436 1_555
N0 Sr1 2.771900 1_465
N1 Sr7 2.566810 1_555
N1 Sr1 2.614198 1_556
N1 Sr4 2.723425 1_545
N1 Sr4 2.723436 1_555
N1 Sr0 2.771900 1_645
N2 Sr6 2.675323 1_555
N2 Sr0 2.707495 1_555
N2 Sr2 2.713580 1_555
N2 Sr3 2.720464 1_555
N2 Sr3 2.720469 1_565
N3 Sr7 2.675323 1_555
N3 Sr1 2.707495 1_555
N3 Sr3 2.713580 1_555
N3 Sr2 2.720464 1_555
N3 Sr2 2.720469 1_545
N4 Sr2 2.525630 1_555
N4 Sr4 2.583094 1_555
N4 Sr6 2.679675 1_556
N4 Sr7 2.724264 1_565
N4 Sr7 2.724275 1_555
N5 Sr3 2.525630 1_555
N5 Sr5 2.583094 1_555
N5 Sr7 2.679675 1_554
N5 Sr6 2.724264 1_545
N5 Sr6 2.724275 1_555
N6 Os0 1.817984 1_655
N6 Sr5 2.586359 1_655
N6 Sr1 2.703969 1_555
N6 Sr1 2.703969 1_565
N6 Sr2 2.738132 1_555
N6 Sr4 3.188460 1_554
N7 Os0 1.817984 1_555
N7 Sr4 2.586359 1_455
N7 Sr0 2.703969 1_555
N7 Sr0 2.703969 1_545
N7 Sr3 2.738132 1_555
N7 Sr5 3.188460 1_556
