# generated using pymatgen
data_Rb3Li2TaAs3
_symmetry_space_group_name_H-M   'P 1'
_cell_length_a   10.12941629
_cell_length_b   10.12941641
_cell_length_c   15.94799875
_cell_angle_alpha   90.00000000
_cell_angle_beta   90.00000000
_cell_angle_gamma   142.37977541
_symmetry_Int_Tables_number   1
_chemical_formula_structural   Rb3Li2TaAs3
_chemical_formula_sum   'Rb12 Li8 Ta4 As12'
_cell_volume   998.86593454
_cell_formula_units_Z   4
loop_
 _symmetry_equiv_pos_site_id
 _symmetry_equiv_pos_as_xyz
  1  'x, y, z'
loop_
 _atom_site_type_symbol
 _atom_site_label
 _atom_site_symmetry_multiplicity
 _atom_site_fract_x
 _atom_site_fract_y
 _atom_site_fract_z
 _atom_site_occupancy
  Rb  Rb0  1  0.60934282  0.94891389  0.82838657  1
  Rb  Rb1  1  0.28634428  0.28634428  0.31499488  1
  Rb  Rb2  1  0.21365572  0.21365572  0.81499488  1
  Rb  Rb3  1  0.71365572  0.71365572  0.68500512  1
  Rb  Rb4  1  0.44891389  0.10934282  0.67161343  1
  Rb  Rb5  1  0.89065718  0.55108611  0.32838657  1
  Rb  Rb6  1  0.05108611  0.39065718  0.17161343  1
  Rb  Rb7  1  0.39065718  0.05108611  0.17161343  1
  Rb  Rb8  1  0.55108611  0.89065718  0.32838657  1
  Rb  Rb9  1  0.10934282  0.44891389  0.67161343  1
  Rb  Rb10  1  0.94891389  0.60934282  0.82838657  1
  Rb  Rb11  1  0.78634428  0.78634428  0.18500512  1
  Li  Li0  1  0.08166647  0.91833353  0.00000000  1
  Li  Li1  1  0.58166647  0.41833353  0.50000000  1
  Li  Li2  1  0.91833353  0.08166647  0.00000000  1
  Li  Li3  1  0.74916739  0.25083261  0.00000000  1
  Li  Li4  1  0.75083261  0.24916739  0.50000000  1
  Li  Li5  1  0.25083261  0.74916739  0.00000000  1
  Li  Li6  1  0.24916739  0.75083261  0.50000000  1
  Li  Li7  1  0.41833353  0.58166647  0.50000000  1
  Ta  Ta0  1  0.08122580  0.91877420  0.50000000  1
  Ta  Ta1  1  0.41877420  0.58122580  0.00000000  1
  Ta  Ta2  1  0.91877420  0.08122580  0.50000000  1
  Ta  Ta3  1  0.58122580  0.41877420  0.00000000  1
  As  As0  1  0.06685899  0.38376394  0.41381117  1
  As  As1  1  0.88376394  0.56685899  0.08618883  1
  As  As2  1  0.43314101  0.11623606  0.91381117  1
  As  As3  1  0.61623606  0.93314101  0.58618883  1
  As  As4  1  0.93314101  0.61623606  0.58618883  1
  As  As5  1  0.11623606  0.43314101  0.91381117  1
  As  As6  1  0.56685899  0.88376394  0.08618883  1
  As  As7  1  0.38376394  0.06685899  0.41381117  1
  As  As8  1  0.22609791  0.22609791  0.58820146  1
  As  As9  1  0.72609791  0.72609791  0.91179854  1
  As  As10  1  0.27390209  0.27390209  0.08820146  1
  As  As11  1  0.77390209  0.77390209  0.41179854  1
loop_
_geom_bond_atom_site_label_1
_geom_bond_atom_site_label_2
_geom_bond_distance
_geom_bond_site_symmetry_2
As0 Ta2 2.499738 1_455
As0 Li4 2.661153 1_455
As0 Li7 2.697620 1_555
As0 Li6 2.871809 1_555
As0 Rb1 3.446111 1_555
As0 Rb8 3.518772 1_555
As0 Rb5 3.564593 1_455
As0 Rb8 3.572203 1_445
As0 Rb6 3.868787 1_555
As1 Ta3 2.499738 1_555
As1 Li3 2.661153 1_555
As1 Li0 2.697620 1_655
As1 Li5 2.871809 1_655
As1 Rb11 3.446111 1_555
As1 Rb7 3.518772 1_665
As1 Rb6 3.564593 1_655
As1 Rb7 3.572203 1_555
As1 Rb5 3.868787 1_555
As2 Ta3 2.499738 1_556
As2 Li3 2.661153 1_556
As2 Li0 2.697620 1_546
As2 Li5 2.871809 1_546
As2 Rb2 3.446111 1_555
As2 Rb10 3.518772 1_445
As2 Rb0 3.564593 1_545
As2 Rb10 3.572203 1_555
As2 Rb4 3.868787 1_555
As3 Ta2 2.499738 1_565
As3 Li4 2.661153 1_565
As3 Li7 2.697620 1_555
As3 Li6 2.871809 1_555
As3 Rb3 3.446111 1_555
As3 Rb9 3.518772 1_555
As3 Rb4 3.564593 1_565
As3 Rb9 3.572203 1_665
As3 Rb0 3.868787 1_555
As4 Ta0 2.499738 1_655
As4 Li6 2.661153 1_655
As4 Li1 2.697620 1_555
As4 Li4 2.871809 1_555
As4 Rb3 3.446111 1_555
As4 Rb4 3.518772 1_555
As4 Rb9 3.564593 1_655
As4 Rb4 3.572203 1_665
As4 Rb10 3.868787 1_555
As5 Ta1 2.499738 1_556
As5 Li5 2.661153 1_556
As5 Li2 2.697620 1_456
As5 Li3 2.871809 1_456
As5 Rb2 3.446111 1_555
As5 Rb0 3.518772 1_445
As5 Rb10 3.564593 1_455
As5 Rb0 3.572203 1_555
As5 Rb9 3.868787 1_555
As6 Ta1 2.499738 1_555
As6 Li5 2.661153 1_555
As6 Li2 2.697620 1_565
As6 Li3 2.871809 1_565
As6 Rb11 3.446111 1_555
As6 Rb6 3.518772 1_665
As6 Rb7 3.564593 1_565
As6 Rb6 3.572203 1_555
As6 Rb8 3.868787 1_555
As7 Ta0 2.499738 1_545
As7 Li6 2.661153 1_545
As7 Li1 2.697620 1_555
As7 Li4 2.871809 1_555
As7 Rb1 3.446111 1_555
As7 Rb5 3.518772 1_555
As7 Rb8 3.564593 1_545
As7 Rb5 3.572203 1_445
As7 Rb7 3.868787 1_555
As8 Ta2 2.566348 1_455
As8 Ta0 2.566348 1_545
As8 Li1 2.762681 1_555
As8 Li7 2.762681 1_555
As8 Rb4 3.534232 1_555
As8 Rb9 3.534232 1_555
As8 Rb3 3.539242 1_555
As8 Rb2 3.617814 1_555
As8 Rb3 3.686192 1_445
As9 Ta1 2.566348 1_556
As9 Ta3 2.566348 1_556
As9 Li0 2.762681 1_656
As9 Li2 2.762681 1_566
As9 Rb10 3.534232 1_555
As9 Rb0 3.534232 1_555
As9 Rb2 3.539242 1_665
As9 Rb3 3.617814 1_555
As9 Rb2 3.686192 1_555
As10 Ta3 2.566348 1_555
As10 Ta1 2.566348 1_555
As10 Li2 2.762681 1_455
As10 Li0 2.762681 1_545
As10 Rb6 3.534232 1_555
As10 Rb7 3.534232 1_555
As10 Rb11 3.539242 1_445
As10 Rb1 3.617814 1_555
As10 Rb11 3.686192 1_555
As11 Ta0 2.566348 1_655
As11 Ta2 2.566348 1_565
As11 Li7 2.762681 1_555
As11 Li1 2.762681 1_555
As11 Rb8 3.534232 1_555
As11 Rb5 3.534232 1_555
As11 Rb1 3.539242 1_555
As11 Rb11 3.617814 1_555
As11 Rb1 3.686192 1_665
