# generated using pymatgen
data_Hf3ScNbSn3
_symmetry_space_group_name_H-M   'P 1'
_cell_length_a   8.36870935
_cell_length_b   8.38686621
_cell_length_c   5.67630125
_cell_angle_alpha   90.05612930
_cell_angle_beta   89.97187053
_cell_angle_gamma   120.07179292
_symmetry_Int_Tables_number   1
_chemical_formula_structural   Hf3ScNbSn3
_chemical_formula_sum   'Hf6 Sc2 Nb2 Sn6'
_cell_volume   344.77790153
_cell_formula_units_Z   2
loop_
 _symmetry_equiv_pos_site_id
 _symmetry_equiv_pos_as_xyz
  1  'x, y, z'
loop_
 _atom_site_type_symbol
 _atom_site_label
 _atom_site_symmetry_multiplicity
 _atom_site_fract_x
 _atom_site_fract_y
 _atom_site_fract_z
 _atom_site_occupancy
  Hf  Hf0  1  1.00000000  0.24981281  0.75265475  1
  Hf  Hf1  1  0.24229209  0.24332656  0.24661670  1
  Hf  Hf2  1  0.75770791  0.00103448  0.24661670  1
  Hf  Hf3  1  0.00000000  0.75320444  0.24802386  1
  Hf  Hf4  1  0.33210223  0.66445594  0.50015072  1
  Hf  Hf5  1  0.66789777  0.33235271  0.50015072  1
  Sc  Sc0  1  0.75458121  0.75613921  0.75294598  1
  Sc  Sc1  1  0.24541879  0.00155900  0.75294598  1
  Nb  Nb0  1  0.66729237  0.33233233  0.00089066  1
  Nb  Nb1  1  0.33270763  0.66504096  0.00089066  1
  Sn  Sn0  1  0.39441843  0.39308609  0.75382447  1
  Sn  Sn1  1  0.60558157  0.99866766  0.75382447  1
  Sn  Sn2  1  0.00000000  0.60935069  0.75466874  1
  Sn  Sn3  1  0.60632966  0.60585855  0.24530429  1
  Sn  Sn4  1  0.39367034  0.99952889  0.24530429  1
  Sn  Sn5  1  0.00000000  0.39424968  0.24518799  1
loop_
_geom_bond_atom_site_label_1
_geom_bond_atom_site_label_2
_geom_bond_distance
_geom_bond_site_symmetry_2
Hf0 Sn0 2.892087 1_655
Hf0 Sn1 2.892087 1_545
Hf0 Sn2 3.015407 1_655
Hf0 Sn5 3.045833 1_656
Hf0 Sn5 3.125978 1_655
Hf0 Hf2 3.477436 1_556
Hf0 Hf1 3.477436 1_656
Hf0 Nb0 3.484586 1_556
Hf0 Nb1 3.484592 1_656
Hf0 Hf5 3.491681 1_555
Hf0 Hf4 3.491686 1_655
Hf0 Hf1 3.531254 1_655
Hf0 Hf2 3.531254 1_555
Hf0 Sc1 3.583128 1_655
Hf0 Sc0 3.583135 1_545
Hf1 Sn5 2.878519 1_555
Hf1 Sn4 2.895103 1_545
Hf1 Sn3 3.040230 1_555
Hf1 Sn0 3.069817 1_554
Hf1 Sn0 3.143466 1_555
Hf1 Sc1 3.465049 1_554
Hf1 Hf2 3.509488 1_455
Hf1 Nb1 3.514834 1_555
Hf1 Sc1 3.526631 1_555
Hf1 Hf4 3.527246 1_555
Hf1 Nb0 3.534018 1_555
Hf1 Hf5 3.557045 1_555
Hf1 Hf3 3.557457 1_545
Hf2 Sn5 2.878519 1_655
Hf2 Sn3 2.895103 1_545
Hf2 Sn4 3.040230 1_545
Hf2 Sn1 3.069817 1_544
Hf2 Sn1 3.143466 1_545
Hf2 Sc0 3.465054 1_544
Hf2 Nb0 3.514826 1_555
Hf2 Sc0 3.526636 1_545
Hf2 Hf5 3.527238 1_555
Hf2 Nb1 3.534016 1_545
Hf2 Hf4 3.557042 1_545
Hf2 Hf3 3.557456 1_645
Hf3 Sn3 2.881163 1_455
Hf3 Sn4 2.881163 1_555
Hf3 Sn5 3.010533 1_555
Hf3 Sn2 3.048180 1_554
Hf3 Sn2 3.119779 1_555
Hf4 Nb1 2.833957 1_555
Hf4 Nb1 2.842353 1_556
Hf4 Sn5 2.939381 1_555
Hf4 Sn0 2.953291 1_555
Hf4 Sn3 2.954059 1_555
Hf4 Sn1 2.955409 1_555
Hf4 Sn2 2.955545 1_555
Hf4 Sn4 2.968421 1_555
Hf5 Nb0 2.833957 1_555
Hf5 Nb0 2.842353 1_556
Hf5 Sn5 2.939379 1_655
Hf5 Sn1 2.953284 1_545
Hf5 Sn4 2.954055 1_545
Hf5 Sn0 2.955414 1_555
Hf5 Sn2 2.955548 1_655
Hf5 Sn3 2.968428 1_555
Sc0 Sn1 2.869504 1_555
Sc0 Sn2 2.875403 1_655
Sc0 Sn0 3.026324 1_555
Sc0 Sn3 3.061859 1_556
Sc0 Sn3 3.140114 1_555
Sc1 Sn0 2.869497 1_555
Sc1 Sn2 2.875410 1_545
Sc1 Sn1 3.026328 1_545
Sc1 Sn4 3.061861 1_546
Sc1 Sn4 3.140115 1_545
Nb0 Sn5 2.915217 1_655
Nb0 Sn4 2.925426 1_545
Nb0 Sn1 2.934148 1_544
Nb0 Sn0 2.934603 1_554
Nb0 Sn3 2.934894 1_555
Nb0 Sn2 2.936545 1_654
Nb1 Sn5 2.915219 1_555
Nb1 Sn3 2.925431 1_555
Nb1 Sn0 2.934155 1_554
Nb1 Sn1 2.934598 1_554
Nb1 Sn4 2.934887 1_555
Nb1 Sn2 2.936543 1_554
Sn0 Sn3 3.306953 1_556
Sn0 Sn3 3.390420 1_555
Sn1 Sn4 3.306953 1_556
Sn1 Sn4 3.390420 1_555
