# generated using pymatgen
data_Y6MnB14Ru
_symmetry_space_group_name_H-M   'P 1'
_cell_length_a   8.05777764
_cell_length_b   8.05777760
_cell_length_c   9.31642350
_cell_angle_alpha   90.00000000
_cell_angle_beta   90.00000000
_cell_angle_gamma   155.02190685
_symmetry_Int_Tables_number   1
_chemical_formula_structural   Y6MnB14Ru
_chemical_formula_sum   'Y6 Mn1 B14 Ru1'
_cell_volume   255.42991616
_cell_formula_units_Z   1
loop_
 _symmetry_equiv_pos_site_id
 _symmetry_equiv_pos_as_xyz
  1  'x, y, z'
loop_
 _atom_site_type_symbol
 _atom_site_label
 _atom_site_symmetry_multiplicity
 _atom_site_fract_x
 _atom_site_fract_y
 _atom_site_fract_z
 _atom_site_occupancy
  Y  Y0  1  0.89499945  0.10500055  0.44293190  1
  Y  Y1  1  0.10429200  0.89570800  0.56312024  1
  Y  Y2  1  0.89499945  0.10500055  0.05706810  1
  Y  Y3  1  0.10429200  0.89570800  0.93687976  1
  Y  Y4  1  0.24321030  0.75678970  0.25000000  1
  Y  Y5  1  0.76000855  0.23999145  0.75000000  1
  Mn  Mn0  1  0.94631333  0.05368667  0.75000000  1
  B  B0  1  0.72712387  0.27287613  0.46565722  1
  B  B1  1  0.27230598  0.72769402  0.53451889  1
  B  B2  1  0.72712387  0.27287613  0.03434278  1
  B  B3  1  0.27230598  0.72769402  0.96548111  1
  B  B4  1  0.63101111  0.36898889  0.15095007  1
  B  B5  1  0.37048563  0.62951437  0.84648834  1
  B  B6  1  0.63101111  0.36898889  0.34904993  1
  B  B7  1  0.37048563  0.62951437  0.65351166  1
  B  B8  1  0.52065192  0.47934808  0.09668479  1
  B  B9  1  0.47835907  0.52164093  0.90099216  1
  B  B10  1  0.52065192  0.47934808  0.40331521  1
  B  B11  1  0.47835907  0.52164093  0.59900784  1
  B  B12  1  0.45763220  0.54236780  0.25000000  1
  B  B13  1  0.54001360  0.45998640  0.75000000  1
  Ru  Ru0  1  0.05436396  0.94563604  0.25000000  1
loop_
_geom_bond_atom_site_label_1
_geom_bond_atom_site_label_2
_geom_bond_distance
_geom_bond_site_symmetry_2
B0 B6 1.862018 1_555
B0 B1 1.988300 1_545
B0 B1 1.988300 1_655
B0 Y0 2.649863 1_555
B0 Y4 2.671541 1_545
B0 Y4 2.671541 1_655
B0 Y5 2.699116 1_555
B0 Y1 2.756090 1_655
B0 Y1 2.756090 1_545
B1 B7 1.901397 1_555
B1 Y1 2.656964 1_555
B1 Y5 2.665318 1_565
B1 Y5 2.665318 1_455
B1 Y4 2.689941 1_555
B1 Y0 2.737006 1_455
B1 Y0 2.737006 1_565
B2 B4 1.862018 1_555
B2 B3 1.988300 1_544
B2 B3 1.988300 1_654
B2 Y2 2.649863 1_555
B2 Y4 2.671541 1_545
B2 Y4 2.671541 1_655
B2 Y5 2.699116 1_554
B2 Y3 2.756090 1_654
B2 Y3 2.756090 1_544
B3 B5 1.901397 1_555
B3 Y3 2.656964 1_555
B3 Y5 2.665318 1_565
B3 Y5 2.665318 1_455
B3 Y4 2.689941 1_556
B3 Y2 2.737006 1_456
B3 Y2 2.737006 1_566
B4 B8 1.808515 1_555
B4 B6 1.845582 1_555
B4 Ru0 2.311343 1_655
B4 Ru0 2.311343 1_545
B4 Y4 2.646589 1_545
B4 Y4 2.646589 1_655
B4 Y3 2.681533 1_654
B4 Y3 2.681533 1_544
B5 B9 1.771633 1_555
B5 B7 1.797852 1_555
B5 Mn0 2.295191 1_455
B5 Mn0 2.295191 1_565
B5 Y5 2.620310 1_565
B5 Y5 2.620310 1_455
B5 Y2 2.652168 1_456
B5 Y2 2.652168 1_566
B6 Ru0 2.311343 1_655
B6 Ru0 2.311343 1_545
B6 Y4 2.646589 1_545
B6 Y4 2.646589 1_655
B6 Y1 2.681533 1_655
B6 Y1 2.681533 1_545
B7 Mn0 2.295191 1_455
B7 Mn0 2.295191 1_565
B7 Y5 2.620310 1_565
B7 Y5 2.620310 1_455
B7 Y0 2.652168 1_455
B7 Y0 2.652168 1_565
B8 B9 1.940802 1_554
B8 Ru0 2.314716 1_545
B8 Ru0 2.314716 1_655
B8 Y3 2.642880 1_544
B8 Y3 2.642880 1_654
B8 Y2 2.661070 1_565
B8 Y2 2.661070 1_455
B9 Mn0 2.295523 1_565
B9 Mn0 2.295523 1_455
B9 Y2 2.621255 1_566
B9 Y2 2.621255 1_456
B9 Y3 2.659760 1_545
B9 Y3 2.659760 1_655
B10 B12 1.738788 1_555
B10 B6 1.808515 1_555
B10 B11 1.940802 1_555
B10 Ru0 2.314716 1_545
B10 Ru0 2.314716 1_655
B10 Y1 2.642880 1_545
B10 Y1 2.642880 1_655
B10 Y0 2.661070 1_565
B10 Y0 2.661070 1_455
B11 B13 1.708769 1_555
B11 B7 1.771633 1_555
B11 Mn0 2.295523 1_565
B11 Mn0 2.295523 1_455
B11 Y0 2.621255 1_565
B11 Y0 2.621255 1_455
B11 Y1 2.659760 1_545
B11 Y1 2.659760 1_655
B12 B8 1.738788 1_555
B12 Ru0 2.313623 1_545
B12 Ru0 2.313623 1_655
B12 Y0 2.690411 1_565
B12 Y2 2.690411 1_565
B12 Y0 2.690411 1_455
B12 Y2 2.690411 1_455
B12 Y4 3.373761 1_555
B13 B9 1.708769 1_555
B13 Mn0 2.282528 1_565
B13 Mn0 2.282528 1_455
B13 Y3 2.662799 1_545
B13 Y1 2.662799 1_545
B13 Y3 2.662799 1_655
B13 Y1 2.662799 1_655
