# generated using pymatgen
data_RbSb12OsRh3
_symmetry_space_group_name_H-M   'P 1'
_cell_length_a   8.11500368
_cell_length_b   8.12186554
_cell_length_c   8.12186550
_cell_angle_alpha   109.48833172
_cell_angle_beta   109.45411551
_cell_angle_gamma   109.45409703
_symmetry_Int_Tables_number   1
_chemical_formula_structural   RbSb12OsRh3
_chemical_formula_sum   'Rb1 Sb12 Os1 Rh3'
_cell_volume   412.16403500
_cell_formula_units_Z   1
loop_
 _symmetry_equiv_pos_site_id
 _symmetry_equiv_pos_as_xyz
  1  'x, y, z'
loop_
 _atom_site_type_symbol
 _atom_site_label
 _atom_site_symmetry_multiplicity
 _atom_site_fract_x
 _atom_site_fract_y
 _atom_site_fract_z
 _atom_site_occupancy
  Rb  Rb0  1  0.00000000  0.00000000  0.00000000  1
  Sb  Sb0  1  0.34269473  0.18503504  0.84430256  1
  Sb  Sb1  1  0.65730527  0.81496496  0.15569744  1
  Sb  Sb2  1  0.65608223  0.50017522  0.84379134  1
  Sb  Sb3  1  0.34391777  0.49982478  0.15620866  1
  Sb  Sb4  1  0.18770811  0.84379134  0.34361412  1
  Sb  Sb5  1  0.81229189  0.15620866  0.65638588  1
  Sb  Sb6  1  0.50160683  0.84430256  0.65926852  1
  Sb  Sb7  1  0.49839317  0.15569744  0.34073148  1
  Sb  Sb8  1  0.84234031  0.34073148  0.18503504  1
  Sb  Sb9  1  0.15765969  0.65926852  0.81496496  1
  Sb  Sb10  1  0.84409499  0.65638588  0.50017522  1
  Sb  Sb11  1  0.15590501  0.34361412  0.49982478  1
  Os  Os0  1  0.50000000  0.00000000  0.00000000  1
  Rh  Rh0  1  0.00000000  0.00000000  0.50000000  1
  Rh  Rh1  1  0.00000000  0.50000000  0.00000000  1
  Rh  Rh2  1  0.50000000  0.50000000  0.50000000  1
loop_
_geom_bond_atom_site_label_1
_geom_bond_atom_site_label_2
_geom_bond_distance
_geom_bond_site_symmetry_2
Rb0 Sb8 3.523913 1_455
Rb0 Sb9 3.523913 1_544
Rb0 Sb1 3.523919 1_445
Rb0 Sb0 3.523919 1_554
Rb0 Sb7 3.523923 1_555
Rb0 Sb6 3.523923 1_444
Rb0 Sb4 3.540690 1_545
Rb0 Sb5 3.540690 1_454
Rb0 Sb11 3.540705 1_555
Rb0 Sb10 3.540705 1_444
Rb0 Sb3 3.540706 1_555
Rb0 Sb2 3.540706 1_444
Sb0 Sb3 2.932404 1_556
Sb0 Sb2 2.949078 1_555
Sb1 Sb2 2.932404 1_554
Sb1 Sb3 2.949078 1_555
Sb4 Sb7 2.932409 1_565
Sb4 Sb6 2.949091 1_555
Sb5 Sb6 2.932409 1_545
Sb5 Sb7 2.949091 1_555
Sb10 Sb9 2.932399 1_655
Sb10 Sb8 2.949082 1_555
Sb11 Sb8 2.932399 1_455
Sb11 Sb9 2.949082 1_555
Os0 Sb7 2.637742 1_555
Os0 Sb6 2.637742 1_544
Os0 Sb8 2.637750 1_555
Os0 Sb9 2.637750 1_544
Os0 Sb0 2.637754 1_554
Os0 Sb1 2.637754 1_545
Rh0 Sb10 2.653509 1_445
Rh0 Sb11 2.653509 1_555
Rh0 Sb5 2.654055 1_455
Rh0 Sb4 2.654055 1_545
Rh0 Sb0 2.654070 1_555
Rh0 Sb1 2.654070 1_445
Rh1 Sb4 2.653518 1_555
Rh1 Sb5 2.653518 1_454
Rh1 Sb3 2.654054 1_555
Rh1 Sb2 2.654054 1_454
Rh1 Sb8 2.654075 1_455
Rh1 Sb9 2.654075 1_554
Rh2 Sb2 2.653525 1_555
Rh2 Sb3 2.653525 1_555
Rh2 Sb10 2.654071 1_555
Rh2 Sb11 2.654071 1_555
Rh2 Sb6 2.654076 1_555
Rh2 Sb7 2.654076 1_555
