# generated using pymatgen
data_Nb4CoCuN
_symmetry_space_group_name_H-M   'P 1'
_cell_length_a   8.26672142
_cell_length_b   8.26672127
_cell_length_c   8.26672014
_cell_angle_alpha   59.99999657
_cell_angle_beta   59.99999716
_cell_angle_gamma   59.99999751
_symmetry_Int_Tables_number   1
_chemical_formula_structural   Nb4CoCuN
_chemical_formula_sum   'Nb16 Co4 Cu4 N4'
_cell_volume   399.47058591
_cell_formula_units_Z   4
loop_
 _symmetry_equiv_pos_site_id
 _symmetry_equiv_pos_as_xyz
  1  'x, y, z'
loop_
 _atom_site_type_symbol
 _atom_site_label
 _atom_site_symmetry_multiplicity
 _atom_site_fract_x
 _atom_site_fract_y
 _atom_site_fract_z
 _atom_site_occupancy
  Nb  Nb0  1  0.80753473  0.44246527  0.44246527  1
  Nb  Nb1  1  0.44246627  0.80753473  0.80753473  1
  Nb  Nb2  1  0.44246527  0.80753473  0.44246527  1
  Nb  Nb3  1  0.44246527  0.44246527  0.80753473  1
  Nb  Nb4  1  0.80753473  0.44246627  0.80753473  1
  Nb  Nb5  1  0.80753473  0.80753473  0.44246627  1
  Nb  Nb6  1  0.56044196  0.18955804  0.56044196  1
  Nb  Nb7  1  0.18955804  0.56044196  0.18955804  1
  Nb  Nb8  1  0.18955804  0.56044196  0.56044196  1
  Nb  Nb9  1  0.56044196  0.56044196  0.18955804  1
  Nb  Nb10  1  0.56044196  0.18955804  0.18955804  1
  Nb  Nb11  1  0.18955804  0.18955804  0.56044196  1
  Nb  Nb12  1  0.99739644  0.99739644  0.99739644  1
  Nb  Nb13  1  0.99739644  0.99739644  0.50781167  1
  Nb  Nb14  1  0.50781167  0.99739644  0.99739644  1
  Nb  Nb15  1  0.99739644  0.50781167  0.99739644  1
  Co  Co0  1  0.79664640  0.79664640  0.79664640  1
  Co  Co1  1  0.79664640  0.79664640  0.11005980  1
  Co  Co2  1  0.79664640  0.11005980  0.79664640  1
  Co  Co3  1  0.11005980  0.79664640  0.79664640  1
  Cu  Cu0  1  0.20751449  0.20751449  0.20751449  1
  Cu  Cu1  1  0.20751449  0.20751449  0.87745352  1
  Cu  Cu2  1  0.87745352  0.20751449  0.20751449  1
  Cu  Cu3  1  0.20751449  0.87745352  0.20751449  1
  N  N0  1  0.49913419  0.49913419  0.49913419  1
  N  N1  1  0.49913419  0.49913419  0.00259942  1
  N  N2  1  0.00259942  0.49913419  0.49913419  1
  N  N3  1  0.49913419  0.00259942  0.49913419  1
loop_
_geom_bond_atom_site_label_1
_geom_bond_atom_site_label_2
_geom_bond_distance
_geom_bond_site_symmetry_2
Co0 Nb15 2.457318 1_555
Co0 Nb13 2.457318 1_555
Co0 Nb14 2.457318 1_555
Co0 Co1 2.590901 1_556
Co0 Co2 2.590901 1_565
Co0 Co3 2.590901 1_655
Co0 Nb5 2.840751 1_555
Co0 Nb4 2.840751 1_555
Co0 Nb1 2.840751 1_555
Co0 Nb9 3.050210 1_556
Co0 Nb6 3.050210 1_565
Co0 Nb8 3.050210 1_655
Co1 Nb15 2.457309 1_554
Co1 Nb14 2.457309 1_554
Co1 Nb12 2.457323 1_554
Co1 Co2 2.590901 1_564
Co1 Co3 2.590901 1_654
Co1 Nb0 2.840763 1_555
Co1 Nb2 2.840763 1_555
Co1 Nb5 2.840776 1_555
Co1 Nb9 3.050206 1_555
Co1 Nb10 3.050213 1_565
Co1 Nb7 3.050213 1_655
Co2 Nb13 2.457309 1_545
Co2 Nb14 2.457309 1_545
Co2 Nb12 2.457323 1_545
Co2 Co3 2.590901 1_645
Co2 Nb0 2.840763 1_555
Co2 Nb3 2.840763 1_555
Co2 Nb4 2.840776 1_555
Co2 Nb6 3.050206 1_555
Co2 Nb10 3.050213 1_556
Co2 Nb11 3.050213 1_655
Co3 Nb13 2.457309 1_455
Co3 Nb15 2.457309 1_455
Co3 Nb12 2.457323 1_455
Co3 Nb2 2.840763 1_555
Co3 Nb3 2.840763 1_555
Co3 Nb1 2.840776 1_555
Co3 Nb8 3.050206 1_555
Co3 Nb7 3.050213 1_556
Co3 Nb11 3.050213 1_565
Cu0 Nb15 2.567099 1_454
Cu0 Nb13 2.567099 1_445
Cu0 Nb14 2.567099 1_544
Cu0 Cu1 2.728522 1_554
Cu0 Cu3 2.728522 1_545
Cu0 Cu2 2.728522 1_455
Cu0 Nb11 2.777058 1_555
Cu0 Nb7 2.777058 1_555
Cu0 Nb10 2.777058 1_555
Cu0 Nb3 3.066923 1_554
Cu0 Nb2 3.066923 1_545
Cu0 Nb0 3.066923 1_455
Cu1 Nb12 2.567090 1_445
Cu1 Nb15 2.567117 1_455
Cu1 Nb14 2.567117 1_545
Cu1 Cu3 2.728522 1_546
Cu1 Cu2 2.728522 1_456
Cu1 Nb11 2.777033 1_555
Cu1 Nb8 2.777047 1_555
Cu1 Nb6 2.777047 1_555
Cu1 Nb1 3.066913 1_545
Cu1 Nb4 3.066913 1_455
Cu1 Nb3 3.066935 1_555
Cu2 Nb12 2.567090 1_544
Cu2 Nb13 2.567117 1_545
Cu2 Nb15 2.567117 1_554
Cu2 Cu3 2.728522 1_645
Cu2 Nb10 2.777033 1_555
Cu2 Nb6 2.777047 1_555
Cu2 Nb9 2.777047 1_555
Cu2 Nb4 3.066913 1_554
Cu2 Nb5 3.066913 1_545
Cu2 Nb0 3.066934 1_555
Cu3 Nb12 2.567090 1_454
Cu3 Nb13 2.567117 1_455
Cu3 Nb14 2.567117 1_554
Cu3 Nb7 2.777033 1_555
Cu3 Nb8 2.777047 1_555
Cu3 Nb9 2.777047 1_555
Cu3 Nb1 3.066913 1_554
Cu3 Nb5 3.066913 1_455
Cu3 Nb2 3.066934 1_555
N0 Nb9 2.173919 1_555
N0 Nb6 2.173919 1_555
N0 Nb8 2.173919 1_555
N0 Nb3 2.183909 1_555
N0 Nb2 2.183910 1_555
N0 Nb0 2.183910 1_555
N1 Nb9 2.173904 1_555
N1 Nb10 2.173915 1_555
N1 Nb7 2.173915 1_555
N1 Nb1 2.183914 1_554
N1 Nb4 2.183914 1_554
N1 Nb3 2.183925 1_554
N2 Nb8 2.173904 1_555
N2 Nb7 2.173915 1_555
N2 Nb11 2.173915 1_555
N2 Nb4 2.183914 1_455
N2 Nb5 2.183914 1_455
N2 Nb0 2.183926 1_455
N3 Nb6 2.173904 1_555
N3 Nb10 2.173915 1_555
N3 Nb11 2.173915 1_555
N3 Nb1 2.183914 1_545
N3 Nb5 2.183914 1_545
N3 Nb2 2.183925 1_545
