# generated using pymatgen
data_Zr6V2Co16Si5
_symmetry_space_group_name_H-M   'P 1'
_cell_length_a   8.08002930
_cell_length_b   8.08003004
_cell_length_c   8.08065106
_cell_angle_alpha   59.99744946
_cell_angle_beta   59.99744643
_cell_angle_gamma   60.11169076
_symmetry_Int_Tables_number   1
_chemical_formula_structural   Zr6V2Co16Si5
_chemical_formula_sum   'Zr6 V2 Co16 Si5'
_cell_volume   373.34103984
_cell_formula_units_Z   1
loop_
 _symmetry_equiv_pos_site_id
 _symmetry_equiv_pos_as_xyz
  1  'x, y, z'
loop_
 _atom_site_type_symbol
 _atom_site_label
 _atom_site_symmetry_multiplicity
 _atom_site_fract_x
 _atom_site_fract_y
 _atom_site_fract_z
 _atom_site_occupancy
  Zr  Zr0  1  0.70587846  0.29412154  0.28736794  1
  Zr  Zr1  1  0.29063434  0.29063434  0.70936566  1
  Zr  Zr2  1  0.29412154  0.70587846  0.71263206  1
  Zr  Zr3  1  0.70936566  0.70936566  0.29063434  1
  Zr  Zr4  1  0.29412154  0.70587846  0.28736794  1
  Zr  Zr5  1  0.70587846  0.29412154  0.71263206  1
  V  V0  1  0.00000000  0.00000000  0.50000000  1
  V  V1  1  0.00000000  0.00000000  0.00000000  1
  Co  Co0  1  0.11985788  0.11985788  0.63750536  1
  Co  Co1  1  0.67443766  0.98059053  0.67248541  1
  Co  Co2  1  0.36113338  0.88024919  0.87930821  1
  Co  Co3  1  0.01940947  0.32556234  0.32751459  1
  Co  Co4  1  0.98059053  0.67443766  0.67248541  1
  Co  Co5  1  0.32526773  0.32526773  0.02209757  1
  Co  Co6  1  0.67473227  0.67473227  0.97790243  1
  Co  Co7  1  0.63886662  0.11975081  0.12069179  1
  Co  Co8  1  0.67473227  0.67473227  0.67263103  1
  Co  Co9  1  0.88014212  0.88014212  0.36249464  1
  Co  Co10  1  0.11985788  0.11985788  0.12277889  1
  Co  Co11  1  0.88024919  0.36113338  0.87930821  1
  Co  Co12  1  0.88014212  0.88014212  0.87722111  1
  Co  Co13  1  0.32526773  0.32526773  0.32736897  1
  Co  Co14  1  0.11975081  0.63886662  0.12069179  1
  Co  Co15  1  0.32556234  0.01940947  0.32751459  1
  Si  Si0  1  0.00000000  0.50000000  0.00000000  1
  Si  Si1  1  0.50000000  0.50000000  0.00000000  1
  Si  Si2  1  0.50000000  0.00000000  0.50000000  1
  Si  Si3  1  0.50000000  0.00000000  0.00000000  1
  Si  Si4  1  0.00000000  0.50000000  0.50000000  1
loop_
_geom_bond_atom_site_label_1
_geom_bond_atom_site_label_2
_geom_bond_distance
_geom_bond_site_symmetry_2
V0 Zr2 2.935833 1_545
V0 Zr0 2.935833 1_455
V0 Zr5 2.935833 1_455
V0 Zr4 2.935833 1_545
Co0 V1 2.390961 1_556
Co0 V0 2.489477 1_555
Co0 Co13 2.493140 1_555
Co0 Co15 2.494191 1_555
Co0 Co3 2.494191 1_555
Co0 Si2 2.511050 1_555
Co0 Si4 2.511050 1_555
Co0 Co12 2.736785 1_445
Co0 Co2 2.762502 1_545
Co0 Co11 2.762502 1_455
Co0 Zr1 2.765069 1_555
Co0 Zr5 2.769482 1_455
Co0 Zr2 2.769482 1_545
Co1 V0 2.326561 1_665
Co1 Si2 2.340852 1_565
Co1 Si3 2.340859 1_566
Co1 Co6 2.469566 1_555
Co1 Co8 2.469571 1_555
Co1 Co4 2.477899 1_555
Co1 Co9 2.494191 1_555
Co1 Co12 2.494198 1_555
Co1 Co2 2.513614 1_555
Co1 Zr1 2.839277 1_565
Co1 Zr0 2.851893 1_565
Co1 Zr5 2.851898 1_565
Co2 V1 2.384485 1_566
Co2 Si2 2.503290 1_565
Co2 Si3 2.503296 1_566
Co2 Si1 2.512347 1_556
Co2 Co6 2.513000 1_555
Co2 Co8 2.513004 1_555
Co2 Zr2 2.734888 1_555
Co2 Zr4 2.734894 1_556
Co2 Zr1 2.748006 1_565
Co3 V0 2.326561 1_555
Co3 Si4 2.340852 1_555
Co3 Si0 2.340859 1_555
Co3 Co5 2.469566 1_555
Co3 Zr3 2.839277 1_455
Co3 Zr5 2.851892 1_455
Co3 Zr0 2.851898 1_455
Co4 V0 2.326561 1_665
Co4 Si4 2.340852 1_655
Co4 Si0 2.340859 1_656
Co4 Co6 2.469566 1_555
Co4 Co8 2.469570 1_555
Co4 Co9 2.494191 1_555
Co4 Zr1 2.839277 1_655
Co4 Zr4 2.851892 1_655
Co4 Zr2 2.851898 1_655
Co5 Si0 2.334878 1_555
Co5 Si3 2.334878 1_555
Co5 Si1 2.345378 1_555
Co5 Co7 2.513000 1_555
Co5 Zr5 2.818064 1_554
Co5 Zr2 2.818064 1_554
Co5 Zr1 2.834650 1_554
Co6 Si0 2.334878 1_656
Co6 Si3 2.334878 1_566
Co6 Si1 2.345378 1_556
Co6 Co8 2.466792 1_555
Co6 Zr4 2.818064 1_556
Co6 Zr0 2.818064 1_556
Co6 Zr3 2.834650 1_556
Co7 V1 2.384485 1_655
Co7 Si2 2.503290 1_555
Co7 Si3 2.503296 1_555
Co7 Si1 2.512347 1_555
Co7 Zr0 2.734888 1_555
Co7 Zr5 2.734894 1_554
Co7 Zr3 2.748006 1_545
Co7 Co9 2.762502 1_545
Co8 Si4 2.334872 1_655
Co8 Si2 2.334872 1_565
Co8 Si1 2.345387 1_556
Co8 Co9 2.493140 1_555
Co8 Zr2 2.818058 1_555
Co8 Zr5 2.818058 1_555
Co8 Zr3 2.834634 1_555
Co9 V1 2.390961 1_665
Co9 V0 2.489477 1_665
Co9 Si2 2.511050 1_565
Co9 Si4 2.511050 1_655
Co9 Zr3 2.765069 1_555
Co9 Zr4 2.769482 1_655
Co9 Zr0 2.769482 1_565
Co10 V1 2.390962 1_555
Co10 V0 2.489476 1_555
Co10 Co5 2.493146 1_555
Co10 Co15 2.494198 1_555
Co10 Co3 2.494198 1_555
Co10 Si3 2.511050 1_555
Co10 Si0 2.511050 1_555
Co10 Co9 2.736785 1_445
Co10 Co2 2.762508 1_544
Co10 Co11 2.762508 1_454
Co10 Zr1 2.765068 1_554
Co10 Zr0 2.769482 1_455
Co10 Zr4 2.769482 1_545
Co11 V1 2.384486 1_656
Co11 Si4 2.503290 1_655
Co11 Si0 2.503296 1_656
Co11 Si1 2.512346 1_556
Co11 Co6 2.513000 1_555
Co11 Co8 2.513004 1_555
Co11 Co4 2.513615 1_555
Co11 Zr5 2.734888 1_555
Co11 Zr0 2.734894 1_556
Co11 Zr1 2.748005 1_655
Co11 Co7 2.755815 1_556
Co12 V1 2.390962 1_666
Co12 V0 2.489476 1_665
Co12 Co6 2.493146 1_555
Co12 Co4 2.494198 1_555
Co12 Si3 2.511050 1_566
Co12 Si0 2.511050 1_656
Co12 Co7 2.762508 1_566
Co12 Co14 2.762508 1_656
Co12 Zr3 2.765068 1_556
Co12 Zr2 2.769482 1_655
Co12 Zr5 2.769482 1_565
Co13 Si4 2.334872 1_555
Co13 Si2 2.334872 1_555
Co13 Si1 2.345387 1_555
Co13 Co5 2.466792 1_555
Co13 Co3 2.469570 1_555
Co13 Co15 2.469571 1_555
Co13 Co7 2.513004 1_555
Co13 Co14 2.513004 1_555
Co13 Zr0 2.818058 1_555
Co13 Zr4 2.818058 1_555
Co13 Zr1 2.834634 1_555
Co14 V1 2.384486 1_565
Co14 Si4 2.503290 1_555
Co14 Si0 2.503296 1_555
Co14 Si1 2.512346 1_555
Co14 Co5 2.513000 1_555
Co14 Co3 2.513615 1_555
Co14 Zr4 2.734888 1_555
Co14 Zr2 2.734894 1_554
Co14 Zr3 2.748005 1_455
Co14 Co2 2.755815 1_554
Co14 Co9 2.762502 1_455
Co15 V0 2.326561 1_555
Co15 Si2 2.340852 1_555
Co15 Si3 2.340859 1_555
Co15 Co5 2.469566 1_555
Co15 Co3 2.477899 1_555
Co15 Co7 2.513614 1_555
Co15 Zr3 2.839277 1_545
Co15 Zr2 2.851893 1_545
Co15 Zr4 2.851898 1_545
Si0 Zr2 2.892256 1_554
Si0 Zr0 2.892256 1_455
Si0 Zr3 2.896634 1_455
Si0 Zr1 2.896634 1_554
Si1 Zr4 2.858118 1_555
Si1 Zr5 2.858118 1_554
Si1 Zr0 2.858118 1_555
Si1 Zr2 2.858118 1_554
Si2 Zr0 2.892257 1_555
Si2 Zr2 2.892257 1_545
Si2 Zr1 2.896634 1_555
Si2 Zr3 2.896634 1_545
Si3 Zr5 2.892256 1_554
Si3 Zr4 2.892256 1_545
Si3 Zr3 2.896634 1_545
Si3 Zr1 2.896634 1_554
Si4 Zr4 2.892256 1_555
Si4 Zr5 2.892256 1_455
Si4 Zr1 2.896634 1_555
Si4 Zr3 2.896634 1_455
