# generated using pymatgen
data_NiPd2PtO6
_symmetry_space_group_name_H-M   'P 1'
_cell_length_a   3.13142886
_cell_length_b   7.08679678
_cell_length_c   9.90326881
_cell_angle_alpha   89.86567767
_cell_angle_beta   90.00000000
_cell_angle_gamma   90.00000000
_symmetry_Int_Tables_number   1
_chemical_formula_structural   NiPd2PtO6
_chemical_formula_sum   'Ni2 Pd4 Pt2 O12'
_cell_volume   219.77075664
_cell_formula_units_Z   2
loop_
 _symmetry_equiv_pos_site_id
 _symmetry_equiv_pos_as_xyz
  1  'x, y, z'
loop_
 _atom_site_type_symbol
 _atom_site_label
 _atom_site_symmetry_multiplicity
 _atom_site_fract_x
 _atom_site_fract_y
 _atom_site_fract_z
 _atom_site_occupancy
  Ni  Ni0  1  0.00000000  0.00000000  0.00000000  1
  Ni  Ni1  1  0.00000000  0.50000000  0.50000000  1
  Pd  Pd0  1  0.00000000  0.00000000  0.50000000  1
  Pd  Pd1  1  0.00000000  0.50000000  0.00000000  1
  Pd  Pd2  1  0.50000000  0.22911465  0.23901665  1
  Pd  Pd3  1  0.50000000  0.77088535  0.76098335  1
  Pt  Pt0  1  0.50000000  0.26984577  0.73915336  1
  Pt  Pt1  1  0.50000000  0.73015423  0.26084664  1
  O  O0  1  0.50000000  0.97615086  0.14477369  1
  O  O1  1  0.50000000  0.02384914  0.85522631  1
  O  O2  1  0.50000000  0.52176007  0.64339575  1
  O  O3  1  0.50000000  0.47823993  0.35660425  1
  O  O4  1  0.00000000  0.18523546  0.35783484  1
  O  O5  1  0.00000000  0.81476454  0.64216516  1
  O  O6  1  0.00000000  0.31241902  0.85809236  1
  O  O7  1  0.00000000  0.68758098  0.14190764  1
  O  O8  1  0.00000000  0.26954273  0.11150972  1
  O  O9  1  0.00000000  0.73045727  0.88849028  1
  O  O10  1  0.00000000  0.23191441  0.61186188  1
  O  O11  1  0.00000000  0.76808559  0.38813812  1
loop_
_geom_bond_atom_site_label_1
_geom_bond_atom_site_label_2
_geom_bond_distance
_geom_bond_site_symmetry_2
Ni0 O1 2.129432 1_554
Ni0 O1 2.129432 1_454
Ni0 O0 2.129432 1_545
Ni0 O0 2.129432 1_445
Ni0 O8 2.208673 1_555
Ni0 O9 2.208673 1_544
Ni1 O2 2.119650 1_455
Ni1 O2 2.119650 1_555
Ni1 O3 2.119650 1_455
Ni1 O3 2.119650 1_555
Ni1 O11 2.197009 1_555
Ni1 O10 2.197009 1_555
O0 Pd2 2.023043 1_565
O0 Pt1 2.085941 1_555
O1 Pd3 2.023043 1_545
O1 Pt0 2.085941 1_555
O2 Pt0 2.019538 1_555
O2 Pd3 2.117238 1_555
O3 Pt1 2.019538 1_555
O3 Pd2 2.117238 1_555
O4 Pd0 1.922698 1_555
O4 Pd2 1.982685 1_555
O4 Pd2 1.982685 1_455
O5 Pd0 1.922698 1_565
O5 Pd3 1.982685 1_555
O5 Pd3 1.982685 1_455
O6 Pd1 1.936733 1_556
O6 Pt0 1.982818 1_455
O6 Pt0 1.982818 1_555
O7 Pd1 1.936733 1_555
O7 Pt1 1.982818 1_555
O7 Pt1 1.982818 1_455
O8 Pd1 1.969366 1_555
O8 Pd2 2.031342 1_555
O8 Pd2 2.031342 1_455
O9 Pd1 1.969366 1_556
O9 Pd3 2.031342 1_555
O9 Pd3 2.031342 1_455
O10 Pd0 1.984174 1_555
O10 Pt0 2.028405 1_555
O10 Pt0 2.028405 1_455
O11 Pd0 1.984174 1_565
O11 Pt1 2.028405 1_555
O11 Pt1 2.028405 1_455
