# generated using pymatgen
data_Ba2CaBi2
_symmetry_space_group_name_H-M   'P 1'
_cell_length_a   10.07221255
_cell_length_b   10.07221267
_cell_length_c   8.86119215
_cell_angle_alpha   90.00000000
_cell_angle_beta   90.00000000
_cell_angle_gamma   150.08900594
_symmetry_Int_Tables_number   1
_chemical_formula_structural   Ba2CaBi2
_chemical_formula_sum   'Ba4 Ca2 Bi4'
_cell_volume   448.27167069
_cell_formula_units_Z   2
loop_
 _symmetry_equiv_pos_site_id
 _symmetry_equiv_pos_as_xyz
  1  'x, y, z'
loop_
 _atom_site_type_symbol
 _atom_site_label
 _atom_site_symmetry_multiplicity
 _atom_site_fract_x
 _atom_site_fract_y
 _atom_site_fract_z
 _atom_site_occupancy
  Ba  Ba0  1  0.03729834  0.96270066  0.23194745  1
  Ba  Ba1  1  0.79779843  0.20220057  0.39300834  1
  Ba  Ba2  1  0.96270066  0.03729834  0.73194845  1
  Ba  Ba3  1  0.20220057  0.79779843  0.89300834  1
  Ca  Ca0  1  0.40431320  0.59568680  0.08048327  1
  Ca  Ca1  1  0.59568680  0.40431320  0.58048327  1
  Bi  Bi0  1  0.43859221  0.56140679  0.43927542  1
  Bi  Bi1  1  0.17586169  0.82413731  0.48963653  1
  Bi  Bi2  1  0.56140679  0.43859221  0.93927542  1
  Bi  Bi3  1  0.82413731  0.17586169  0.98963653  1
loop_
_geom_bond_atom_site_label_1
_geom_bond_atom_site_label_2
_geom_bond_distance
_geom_bond_site_symmetry_2
Ba0 Bi1 3.533611 1_555
Ba0 Bi2 3.701685 1_564
Ba0 Bi2 3.701685 1_454
Ba0 Bi0 3.717798 1_455
Ba0 Bi0 3.717798 1_565
Ba1 Bi3 3.610925 1_554
Ba1 Bi1 3.622351 1_545
Ba1 Bi1 3.622351 1_655
Ba1 Bi0 3.799068 1_655
Ba1 Bi0 3.799068 1_545
Ba2 Bi3 3.533606 1_555
Ba2 Bi0 3.701691 1_545
Ba2 Bi0 3.701691 1_655
Ba2 Bi2 3.717794 1_655
Ba2 Bi2 3.717794 1_545
Ba3 Bi1 3.610925 1_555
Ba3 Bi3 3.622351 1_565
Ba3 Bi3 3.622351 1_455
Ba3 Bi2 3.799068 1_455
Ba3 Bi2 3.799068 1_565
Bi0 Ca0 3.248570 1_555
Bi0 Ca1 3.303516 1_555
Bi1 Ca1 3.136764 1_455
Bi1 Ca1 3.136768 1_565
Bi2 Ca1 3.248570 1_555
Bi2 Ca0 3.303516 1_556
Bi3 Ca0 3.136764 1_546
Bi3 Ca0 3.136768 1_656
