# generated using pymatgen
data_Tc3Te4Br
_symmetry_space_group_name_H-M   'P 1'
_cell_length_a   12.51369090
_cell_length_b   7.02513572
_cell_length_c   11.94669326
_cell_angle_alpha   66.12304599
_cell_angle_beta   90.00000000
_cell_angle_gamma   90.00000000
_symmetry_Int_Tables_number   1
_chemical_formula_structural   Tc3Te4Br
_chemical_formula_sum   'Tc12 Te16 Br4'
_cell_volume   960.35559545
_cell_formula_units_Z   4
loop_
 _symmetry_equiv_pos_site_id
 _symmetry_equiv_pos_as_xyz
  1  'x, y, z'
loop_
 _atom_site_type_symbol
 _atom_site_label
 _atom_site_symmetry_multiplicity
 _atom_site_fract_x
 _atom_site_fract_y
 _atom_site_fract_z
 _atom_site_occupancy
  Tc  Tc0  1  0.57652926  0.02060581  0.35864138  1
  Tc  Tc1  1  0.92347074  0.02060581  0.85864138  1
  Tc  Tc2  1  0.42347074  0.97939419  0.64135862  1
  Tc  Tc3  1  0.07652926  0.97939419  0.14135862  1
  Tc  Tc4  1  0.36846146  0.97659186  0.42727340  1
  Tc  Tc5  1  0.13153854  0.97659186  0.92727340  1
  Tc  Tc6  1  0.63153854  0.02340814  0.57272660  1
  Tc  Tc7  1  0.86846146  0.02340814  0.07272660  1
  Tc  Tc8  1  0.51482261  0.71164216  0.56272337  1
  Tc  Tc9  1  0.98517739  0.71164216  0.06272337  1
  Tc  Tc10  1  0.48517739  0.28835784  0.43727663  1
  Tc  Tc11  1  0.01482261  0.28835784  0.93727663  1
  Te  Te0  1  0.45622977  0.72179138  0.33485965  1
  Te  Te1  1  0.04377023  0.72179138  0.83485965  1
  Te  Te2  1  0.54377023  0.27820862  0.66514035  1
  Te  Te3  1  0.95622977  0.27820862  0.16514035  1
  Te  Te4  1  0.31119519  0.66125579  0.63646583  1
  Te  Te5  1  0.18880481  0.66125579  0.13646583  1
  Te  Te6  1  0.68880481  0.33874421  0.36353417  1
  Te  Te7  1  0.81119519  0.33874421  0.86353417  1
  Te  Te8  1  0.43025385  0.29010298  0.21964152  1
  Te  Te9  1  0.06974615  0.29010298  0.71964152  1
  Te  Te10  1  0.56974615  0.70989702  0.78035848  1
  Te  Te11  1  0.93025385  0.70989702  0.28035848  1
  Te  Te12  1  0.72095387  0.74914088  0.49944414  1
  Te  Te13  1  0.77904613  0.74914088  0.99944414  1
  Te  Te14  1  0.27904613  0.25085912  0.50055586  1
  Te  Te15  1  0.22095387  0.25085912  0.00055586  1
  Br  Br0  1  0.17086747  0.92845128  0.35299620  1
  Br  Br1  1  0.32913253  0.92845128  0.85299620  1
  Br  Br2  1  0.82913253  0.07154872  0.64700380  1
  Br  Br3  1  0.67086747  0.07154872  0.14700380  1
loop_
_geom_bond_atom_site_label_1
_geom_bond_atom_site_label_2
_geom_bond_distance
_geom_bond_site_symmetry_2
Tc0 Tc8 2.639633 1_545
Tc0 Te6 2.660492 1_555
Tc0 Te12 2.671290 1_545
Tc0 Te8 2.673452 1_555
Tc0 Tc10 2.675441 1_555
Tc0 Te0 2.690063 1_545
Tc1 Tc9 2.639633 1_546
Tc1 Te7 2.660492 1_555
Tc1 Te13 2.671290 1_545
Tc1 Te9 2.673452 1_655
Tc1 Tc11 2.675441 1_655
Tc1 Te1 2.690063 1_645
Tc2 Te4 2.660492 1_555
Tc2 Te14 2.671290 1_565
Tc2 Te10 2.673452 1_555
Tc2 Tc8 2.675441 1_555
Tc2 Te2 2.690063 1_565
Tc3 Te5 2.660492 1_555
Tc3 Te15 2.671290 1_565
Tc3 Te11 2.673452 1_455
Tc3 Tc9 2.675441 1_455
Tc3 Te3 2.690063 1_465
Tc4 Tc8 2.645587 1_555
Tc4 Te14 2.663916 1_565
Tc4 Te8 2.679355 1_565
Tc4 Te4 2.680459 1_555
Tc4 Te0 2.688710 1_555
Tc5 Tc9 2.645587 1_456
Tc5 Te15 2.663916 1_566
Tc5 Te9 2.679355 1_565
Tc5 Te5 2.680459 1_556
Tc5 Te1 2.688710 1_555
Tc6 Te12 2.663916 1_545
Tc6 Tc8 2.675134 1_545
Tc6 Te10 2.679355 1_545
Tc6 Te6 2.680459 1_555
Tc6 Te2 2.688710 1_555
Tc7 Te13 2.663916 1_544
Tc7 Tc9 2.675134 1_545
Tc7 Te11 2.679355 1_545
Tc7 Te7 2.680459 1_554
Tc7 Te3 2.688710 1_555
Tc8 Te12 2.670825 1_555
Tc8 Te4 2.672441 1_555
Tc8 Te10 2.684553 1_555
Tc8 Te0 2.792137 1_555
Tc8 Te2 2.807814 1_555
Tc9 Te13 2.670825 1_554
Tc9 Te5 2.672441 1_655
Tc9 Te11 2.684553 1_555
Tc9 Te1 2.792137 1_654
Tc9 Te3 2.807814 1_555
Tc10 Tc2 2.639633 1_545
Tc10 Tc6 2.645587 1_555
Tc10 Te14 2.670825 1_555
Tc10 Te6 2.672441 1_555
Tc10 Tc4 2.675134 1_545
Tc10 Te8 2.684553 1_555
Tc10 Te2 2.792137 1_555
Tc10 Te0 2.807814 1_555
Tc11 Tc3 2.639633 1_546
Tc11 Tc7 2.645587 1_456
Tc11 Te15 2.670825 1_556
Tc11 Te7 2.672441 1_455
Tc11 Tc5 2.675134 1_545
Tc11 Te9 2.684553 1_555
Tc11 Te3 2.792137 1_456
Tc11 Te1 2.807814 1_555
Br0 Tc3 2.679894 1_555
Br0 Tc4 2.694187 1_555
Br1 Tc2 2.679894 1_555
Br1 Tc5 2.694187 1_555
Br2 Tc1 2.679894 1_555
Br2 Tc6 2.694187 1_555
Br3 Tc0 2.679894 1_555
Br3 Tc7 2.694187 1_555
