# generated using pymatgen
data_Al2V3NiC
_symmetry_space_group_name_H-M   'P 1'
_cell_length_a   7.77844850
_cell_length_b   7.77844849
_cell_length_c   7.77844896
_cell_angle_alpha   59.99999798
_cell_angle_beta   59.99999804
_cell_angle_gamma   59.99999863
_symmetry_Int_Tables_number   1
_chemical_formula_structural   Al2V3NiC
_chemical_formula_sum   'Al8 V12 Ni4 C4'
_cell_volume   332.78516060
_cell_formula_units_Z   4
loop_
 _symmetry_equiv_pos_site_id
 _symmetry_equiv_pos_as_xyz
  1  'x, y, z'
loop_
 _atom_site_type_symbol
 _atom_site_label
 _atom_site_symmetry_multiplicity
 _atom_site_fract_x
 _atom_site_fract_y
 _atom_site_fract_z
 _atom_site_occupancy
  Al  Al0  1  0.91479152  0.25562745  0.91479152  1
  Al  Al1  1  0.33520848  0.33520848  0.99437255  1
  Al  Al2  1  0.99437255  0.33520848  0.33520848  1
  Al  Al3  1  0.33520848  0.33520848  0.33520848  1
  Al  Al4  1  0.25562745  0.91479152  0.91479152  1
  Al  Al5  1  0.91479152  0.91479152  0.91479152  1
  Al  Al6  1  0.91479152  0.91479152  0.25562745  1
  Al  Al7  1  0.33520848  0.99437255  0.33520848  1
  V  V0  1  0.93151169  0.93151169  0.56848831  1
  V  V1  1  0.68151169  0.31848831  0.31848831  1
  V  V2  1  0.31848831  0.68151169  0.68151169  1
  V  V3  1  0.68151169  0.68151169  0.31848831  1
  V  V4  1  0.68151169  0.31848831  0.68151169  1
  V  V5  1  0.31848831  0.68151169  0.31848831  1
  V  V6  1  0.56848831  0.93151169  0.56848831  1
  V  V7  1  0.56848831  0.93151169  0.93151169  1
  V  V8  1  0.93151169  0.56848831  0.56848831  1
  V  V9  1  0.93151169  0.56848831  0.93151169  1
  V  V10  1  0.31848831  0.31848831  0.68151169  1
  V  V11  1  0.56848831  0.56848831  0.93151169  1
  Ni  Ni0  1  0.12500000  0.62500000  0.12500000  1
  Ni  Ni1  1  0.12500000  0.12500000  0.62500000  1
  Ni  Ni2  1  0.62500000  0.12500000  0.12500000  1
  Ni  Ni3  1  0.12500000  0.12500000  0.12500000  1
  C  C0  1  0.62500000  0.12500000  0.62500000  1
  C  C1  1  0.62500000  0.62500000  0.12500000  1
  C  C2  1  0.12500000  0.62500000  0.62500000  1
  C  C3  1  0.62500000  0.62500000  0.62500000  1
loop_
_geom_bond_atom_site_label_1
_geom_bond_atom_site_label_2
_geom_bond_distance
_geom_bond_site_symmetry_2
Al0 Ni3 2.393796 1_656
Al0 Ni2 2.393809 1_556
Al0 Ni1 2.393809 1_655
Al1 Ni3 2.393796 1_556
Al1 Ni0 2.393809 1_556
Al1 Ni2 2.393809 1_556
Al2 Ni3 2.393796 1_655
Al2 Ni0 2.393809 1_655
Al2 Ni1 2.393809 1_655
Al3 Ni1 2.393800 1_555
Al3 Ni0 2.393800 1_555
Al3 Ni2 2.393800 1_555
Al4 Ni3 2.393796 1_566
Al4 Ni0 2.393809 1_556
Al4 Ni1 2.393809 1_565
Al5 Ni1 2.393800 1_665
Al5 Ni0 2.393800 1_656
Al5 Ni2 2.393800 1_566
Al6 Ni3 2.393796 1_665
Al6 Ni0 2.393809 1_655
Al6 Ni2 2.393809 1_565
Al7 Ni3 2.393796 1_565
Al7 Ni2 2.393809 1_565
Al7 Ni1 2.393809 1_565
C0 V0 2.041560 1_545
C0 V10 2.041560 1_555
C0 V7 2.041560 1_545
C0 V1 2.041560 1_555
C0 V4 2.041560 1_555
C0 V6 2.041560 1_545
C1 V7 2.041560 1_554
C1 V1 2.041560 1_555
C1 V9 2.041560 1_554
C1 V5 2.041560 1_555
C1 V3 2.041560 1_555
C1 V11 2.041560 1_554
C2 V0 2.041560 1_455
C2 V10 2.041560 1_555
C2 V2 2.041560 1_555
C2 V8 2.041560 1_455
C2 V9 2.041560 1_455
C2 V5 2.041560 1_555
C3 V6 2.041560 1_555
C3 V4 2.041560 1_555
C3 V8 2.041560 1_555
C3 V2 2.041560 1_555
C3 V11 2.041560 1_555
C3 V3 2.041560 1_555
