# generated using pymatgen
data_Y3Al4Ni9B2
_symmetry_space_group_name_H-M   'P 1'
_cell_length_a   5.15280865
_cell_length_b   5.15280775
_cell_length_c   10.51644007
_cell_angle_alpha   90.00000000
_cell_angle_beta   90.00000000
_cell_angle_gamma   120.00001208
_symmetry_Int_Tables_number   1
_chemical_formula_structural   Y3Al4Ni9B2
_chemical_formula_sum   'Y3 Al4 Ni9 B2'
_cell_volume   241.81725381
_cell_formula_units_Z   1
loop_
 _symmetry_equiv_pos_site_id
 _symmetry_equiv_pos_as_xyz
  1  'x, y, z'
loop_
 _atom_site_type_symbol
 _atom_site_label
 _atom_site_symmetry_multiplicity
 _atom_site_fract_x
 _atom_site_fract_y
 _atom_site_fract_z
 _atom_site_occupancy
  Y  Y0  1  0.00000000  0.00000000  0.66390854  1
  Y  Y1  1  0.00000000  0.00000000  0.33609146  1
  Y  Y2  1  0.00000000  0.00000000  0.00000000  1
  Al  Al0  1  0.66666700  0.33333300  0.68411272  1
  Al  Al1  1  0.33333300  0.66666700  0.68411272  1
  Al  Al2  1  0.33333300  0.66666700  0.31588728  1
  Al  Al3  1  0.66666700  0.33333300  0.31588728  1
  Ni  Ni0  1  0.50000000  0.50000000  0.87097997  1
  Ni  Ni1  1  0.50000000  0.00000000  0.87097997  1
  Ni  Ni2  1  0.00000000  0.50000000  0.87097997  1
  Ni  Ni3  1  0.50000000  0.50000000  0.12902003  1
  Ni  Ni4  1  0.50000000  0.00000000  0.12902003  1
  Ni  Ni5  1  0.00000000  0.50000000  0.12902003  1
  Ni  Ni6  1  0.50000000  0.50000000  0.50000000  1
  Ni  Ni7  1  0.50000000  0.00000000  0.50000000  1
  Ni  Ni8  1  0.00000000  0.50000000  0.50000000  1
  B  B0  1  0.66666700  0.33333300  0.00000000  1
  B  B1  1  0.33333300  0.66666700  0.00000000  1
loop_
_geom_bond_atom_site_label_1
_geom_bond_atom_site_label_2
_geom_bond_distance
_geom_bond_site_symmetry_2
Al0 Ni7 2.441623 1_555
Al0 Ni8 2.441624 1_655
Al0 Ni6 2.441626 1_555
Al0 Ni1 2.464658 1_555
Al0 Ni2 2.464658 1_655
Al0 Ni0 2.464661 1_555
Al0 Y0 2.982550 1_655
Al0 Y0 2.982554 1_665
Al0 Y0 2.982555 1_555
Al1 Ni7 2.441623 1_565
Al1 Ni8 2.441624 1_555
Al1 Ni6 2.441626 1_555
Al1 Ni1 2.464658 1_565
Al1 Ni2 2.464658 1_555
Al1 Ni0 2.464661 1_555
Al1 Y0 2.982550 1_565
Al1 Y0 2.982554 1_555
Al1 Y0 2.982555 1_665
Al2 Ni7 2.441623 1_565
Al2 Ni8 2.441624 1_555
Al2 Ni6 2.441626 1_555
Al2 Ni4 2.464658 1_565
Al2 Ni5 2.464658 1_555
Al2 Ni3 2.464661 1_555
Al2 Y1 2.982550 1_565
Al2 Y1 2.982554 1_555
Al2 Y1 2.982555 1_665
Al3 Ni7 2.441623 1_555
Al3 Ni8 2.441624 1_655
Al3 Ni6 2.441626 1_555
Al3 Ni4 2.464658 1_555
Al3 Ni5 2.464658 1_655
Al3 Ni3 2.464661 1_555
Al3 Y1 2.982550 1_655
Al3 Y1 2.982554 1_665
Al3 Y1 2.982555 1_555
Ni0 Y2 2.911846 1_556
Ni0 Y2 2.911846 1_666
Ni1 Y2 2.911847 1_556
Ni1 Y2 2.911847 1_656
Ni2 Y2 2.911846 1_566
Ni2 Y2 2.911846 1_556
Ni3 Y2 2.911846 1_665
Ni3 Y2 2.911846 1_555
Ni4 Y2 2.911847 1_555
Ni4 Y2 2.911847 1_655
Ni5 Y2 2.911846 1_565
Ni5 Y2 2.911846 1_555
Ni6 Ni7 2.576404 1_555
Ni6 Ni7 2.576404 1_565
Ni6 Ni8 2.576404 1_555
Ni6 Ni8 2.576404 1_655
Ni6 Y0 3.099857 1_555
Ni6 Y0 3.099857 1_665
Ni6 Y1 3.099857 1_555
Ni6 Y1 3.099857 1_665
Ni7 Ni8 2.576404 1_655
Ni7 Ni8 2.576404 1_545
Ni7 Y0 3.099858 1_555
Ni7 Y0 3.099858 1_655
Ni7 Y1 3.099858 1_555
Ni7 Y1 3.099858 1_655
Ni8 Y0 3.099858 1_555
Ni8 Y0 3.099858 1_565
Ni8 Y1 3.099858 1_565
Ni8 Y1 3.099858 1_555
B0 Ni4 2.013357 1_555
B0 Ni1 2.013357 1_554
B0 Ni5 2.013357 1_655
B0 Ni2 2.013357 1_654
B0 Ni3 2.013360 1_555
B0 Ni0 2.013360 1_554
B0 Y2 2.974972 1_655
B0 Y2 2.974976 1_665
B0 Y2 2.974977 1_555
B1 Ni4 2.013357 1_565
B1 Ni1 2.013357 1_564
B1 Ni5 2.013357 1_555
B1 Ni2 2.013357 1_554
B1 Ni3 2.013360 1_555
B1 Ni0 2.013360 1_554
B1 Y2 2.974972 1_565
B1 Y2 2.974976 1_555
B1 Y2 2.974977 1_665
