# generated using pymatgen
data_Ta2Be3Ge
_symmetry_space_group_name_H-M   'P 1'
_cell_length_a   4.68569786
_cell_length_b   4.68569793
_cell_length_c   4.71860738
_cell_angle_alpha   60.23044736
_cell_angle_beta   60.23044534
_cell_angle_gamma   60.00000205
_symmetry_Int_Tables_number   1
_chemical_formula_structural   Ta2Be3Ge
_chemical_formula_sum   'Ta2 Be3 Ge1'
_cell_volume   73.51084312
_cell_formula_units_Z   1
loop_
 _symmetry_equiv_pos_site_id
 _symmetry_equiv_pos_as_xyz
  1  'x, y, z'
loop_
 _atom_site_type_symbol
 _atom_site_label
 _atom_site_symmetry_multiplicity
 _atom_site_fract_x
 _atom_site_fract_y
 _atom_site_fract_z
 _atom_site_occupancy
  Ta  Ta0  1  0.00076457  0.00076457  0.99770729  1
  Ta  Ta1  1  0.24923543  0.24923543  0.25229271  1
  Be  Be0  1  0.62500000  0.62500000  0.62500000  1
  Be  Be1  1  0.12500000  0.62500000  0.62500000  1
  Be  Be2  1  0.62500000  0.12500000  0.62500000  1
  Ge  Ge0  1  0.62500000  0.62500000  0.12500000  1
loop_
_geom_bond_atom_site_label_1
_geom_bond_atom_site_label_2
_geom_bond_distance
_geom_bond_site_symmetry_2
Ta0 Ta1 2.878769 1_556
Ta0 Ta1 2.878776 1_456
Ta0 Ta1 2.878776 1_546
Ta0 Ta1 2.881841 1_555
Be0 Be1 2.342849 1_655
Be0 Be1 2.342849 1_555
Be0 Be2 2.342849 1_555
Be0 Be2 2.342849 1_565
Be0 Ge0 2.359304 1_555
Be0 Ge0 2.359304 1_556
Be0 Ta0 2.750490 1_565
Be0 Ta1 2.750490 1_655
Be0 Ta0 2.750490 1_655
Be0 Ta1 2.750490 1_565
Be0 Ta0 2.776889 1_664
Be0 Ta1 2.776889 1_556
Be1 Be2 2.342849 1_555
Be1 Be2 2.342849 1_465
Be1 Ge0 2.359304 1_456
Be1 Ge0 2.359304 1_555
Be1 Ta1 2.750488 1_565
Be1 Ta0 2.750488 1_555
Be1 Ta0 2.750492 1_565
Be1 Ta1 2.750492 1_555
Be1 Ta1 2.776887 1_556
Be1 Ta0 2.776887 1_564
Be2 Ge0 2.359304 1_555
Be2 Ge0 2.359304 1_546
Be2 Ta1 2.750488 1_655
Be2 Ta0 2.750488 1_555
Be2 Ta0 2.750492 1_655
Be2 Ta1 2.750492 1_555
Be2 Ta1 2.776887 1_556
Be2 Ta0 2.776887 1_654
Ge0 Ta1 2.749685 1_655
Ge0 Ta0 2.749685 1_564
Ge0 Ta1 2.749685 1_565
Ge0 Ta0 2.749685 1_654
Ge0 Ta0 2.749689 1_664
Ge0 Ta1 2.749689 1_555
