# generated using pymatgen
data_Te3As4SeI4
_symmetry_space_group_name_H-M   'P 1'
_cell_length_a   4.06652249
_cell_length_b   9.95599697
_cell_length_c   14.12655367
_cell_angle_alpha   46.35097020
_cell_angle_beta   89.40494183
_cell_angle_gamma   88.48216404
_symmetry_Int_Tables_number   1
_chemical_formula_structural   Te3As4SeI4
_chemical_formula_sum   'Te3 As4 Se1 I4'
_cell_volume   413.66930503
_cell_formula_units_Z   1
loop_
 _symmetry_equiv_pos_site_id
 _symmetry_equiv_pos_as_xyz
  1  'x, y, z'
loop_
 _atom_site_type_symbol
 _atom_site_label
 _atom_site_symmetry_multiplicity
 _atom_site_fract_x
 _atom_site_fract_y
 _atom_site_fract_z
 _atom_site_occupancy
  Te  Te0  1  0.77593547  0.28574920  0.81534700  1
  Te  Te1  1  0.74999284  0.26839605  0.31961053  1
  Te  Te2  1  0.25012351  0.73007553  0.67965607  1
  As  As0  1  0.74993420  0.50477662  0.86381030  1
  As  As1  1  0.25059625  0.50089299  0.13930572  1
  As  As2  1  0.78306266  0.49279940  0.36262974  1
  As  As3  1  0.25388750  0.51194845  0.63143365  1
  Se  Se0  1  0.21531962  0.68923115  0.19587422  1
  I  I0  1  0.71101548  0.77079357  0.92054673  1
  I  I1  1  0.77268865  0.77137844  0.41215155  1
  I  I2  1  0.21250245  0.23481887  0.57939874  1
  I  I3  1  0.27494137  0.23913974  0.08023676  1
loop_
_geom_bond_atom_site_label_1
_geom_bond_atom_site_label_2
_geom_bond_distance
_geom_bond_site_symmetry_2
As0 Te0 2.698567 1_555
As0 Te2 2.782599 1_555
As0 Te2 2.830654 1_655
As0 I3 3.009737 1_556
As0 I3 3.094202 1_656
As0 I0 3.253816 1_555
As1 Se0 2.495406 1_555
As1 Te1 2.772936 1_555
As1 Te1 2.827128 1_455
As1 I0 2.993156 1_554
As1 I0 3.154391 1_454
As1 I3 3.237894 1_555
As2 Se0 2.489983 1_655
As2 Te1 2.696441 1_555
As2 I2 2.835403 1_655
As2 Se0 2.866733 1_555
As2 I2 3.266165 1_555
As2 I1 3.294749 1_555
As3 Te2 2.687141 1_555
As3 Te0 2.765701 1_455
As3 Te0 2.848261 1_555
As3 I1 2.984807 1_455
As3 I1 3.134592 1_555
As3 I2 3.317872 1_555
