# generated using pymatgen
data_Cs2MnCuS4
_symmetry_space_group_name_H-M   'P 1'
_cell_length_a   14.05509121
_cell_length_b   12.54950276
_cell_length_c   7.45396125
_cell_angle_alpha   85.24581442
_cell_angle_beta   62.84906006
_cell_angle_gamma   31.90512425
_symmetry_Int_Tables_number   1
_chemical_formula_structural   Cs2MnCuS4
_chemical_formula_sum   'Cs4 Mn2 Cu2 S8'
_cell_volume   471.17448105
_cell_formula_units_Z   2
loop_
 _symmetry_equiv_pos_site_id
 _symmetry_equiv_pos_as_xyz
  1  'x, y, z'
loop_
 _atom_site_type_symbol
 _atom_site_label
 _atom_site_symmetry_multiplicity
 _atom_site_fract_x
 _atom_site_fract_y
 _atom_site_fract_z
 _atom_site_occupancy
  Cs  Cs0  1  0.57204017  0.57204017  0.92795983  1
  Cs  Cs1  1  0.92795983  0.92795983  0.57204017  1
  Cs  Cs2  1  0.32204017  0.32204017  0.67795983  1
  Cs  Cs3  1  0.67795983  0.67795983  0.32204017  1
  Mn  Mn0  1  0.75000000  0.75000000  0.75000000  1
  Mn  Mn1  1  0.50000000  0.50000000  0.50000000  1
  Cu  Cu0  1  0.00000000  0.00000000  0.00000000  1
  Cu  Cu1  1  0.25000000  0.25000000  0.25000000  1
  S  S0  1  0.23193419  0.86684634  0.59334051  1
  S  S1  1  0.30787996  0.59334051  0.86684634  1
  S  S2  1  0.59334051  0.30787996  0.23193419  1
  S  S3  1  0.86684634  0.23193419  0.30787996  1
  S  S4  1  0.38315366  0.01806581  0.94212004  1
  S  S5  1  0.94212004  0.65665949  0.38315366  1
  S  S6  1  0.65665949  0.94212004  0.01806581  1
  S  S7  1  0.01806581  0.38315366  0.65665949  1
loop_
_geom_bond_atom_site_label_1
_geom_bond_atom_site_label_2
_geom_bond_distance
_geom_bond_site_symmetry_2
Cs0 S3 3.537438 1_555
Cs0 S0 3.537445 1_556
Cs0 S7 3.605842 1_655
Cs0 S4 3.605844 1_565
Cs0 S3 3.707855 1_466
Cs0 S0 3.707857 1_645
Cs0 S1 3.728566 1_555
Cs0 S2 3.728570 1_556
Cs1 S1 3.537443 1_565
Cs1 S2 3.537445 1_655
Cs1 S6 3.605852 1_556
Cs1 S5 3.605855 1_555
Cs1 S1 3.707854 1_654
Cs1 S2 3.707860 1_566
Cs1 S3 3.728576 1_565
Cs1 S0 3.728580 1_655
Cs2 S5 3.537443 1_545
Cs2 S6 3.537445 1_456
Cs2 S2 3.605852 1_555
Cs2 S1 3.605855 1_555
Cs2 S5 3.707854 1_456
Cs2 S6 3.707860 1_545
Cs2 S4 3.728576 1_555
Cs2 S7 3.728580 1_555
Cs3 S4 3.537438 1_565
Cs3 S7 3.537445 1_654
Cs3 S0 3.605842 1_555
Cs3 S3 3.605844 1_555
Cs3 S4 3.707855 1_654
Cs3 S7 3.707857 1_565
Cs3 S5 3.728566 1_555
Cs3 S6 3.728570 1_555
Mn0 S6 2.135988 1_556
Mn0 S5 2.135993 1_555
Mn0 S7 2.135997 1_655
Mn0 S4 2.135999 1_565
Mn1 S2 2.135988 1_555
Mn1 S1 2.135993 1_555
Mn1 S0 2.135997 1_555
Mn1 S3 2.135999 1_555
Cu0 S2 2.275918 1_455
Cu0 S1 2.275920 1_544
Cu0 S0 2.275922 1_544
Cu0 S3 2.275928 1_455
Cu1 S6 2.275918 1_545
Cu1 S5 2.275920 1_455
Cu1 S7 2.275922 1_555
Cu1 S4 2.275928 1_554
