# generated using pymatgen
data_HoInAu
_symmetry_space_group_name_H-M   'P 1'
_cell_length_a   7.64242156
_cell_length_b   7.64242326
_cell_length_c   4.00123455
_cell_angle_alpha   90.00000000
_cell_angle_beta   90.00000000
_cell_angle_gamma   120.00000912
_symmetry_Int_Tables_number   1
_chemical_formula_structural   HoInAu
_chemical_formula_sum   'Ho3 In3 Au3'
_cell_volume   202.38889458
_cell_formula_units_Z   3
loop_
 _symmetry_equiv_pos_site_id
 _symmetry_equiv_pos_as_xyz
  1  'x, y, z'
loop_
 _atom_site_type_symbol
 _atom_site_label
 _atom_site_symmetry_multiplicity
 _atom_site_fract_x
 _atom_site_fract_y
 _atom_site_fract_z
 _atom_site_occupancy
  Ho  Ho0  1  0.59449382  -0.00000000  0.50000000  1
  Ho  Ho1  1  0.40550618  0.40550618  0.50000000  1
  Ho  Ho2  1  -0.00000000  0.59449382  0.50000000  1
  In  In0  1  0.74057835  0.74057835  -0.00000000  1
  In  In1  1  0.00000000  0.25942165  -0.00000000  1
  In  In2  1  0.25942165  0.00000000  0.00000000  1
  Au  Au0  1  0.33333300  0.66666700  -0.00000000  1
  Au  Au1  1  0.66666700  0.33333300  -0.00000000  1
  Au  Au2  1  0.00000000  0.00000000  0.50000000  1
loop_
_geom_bond_atom_site_label_1
_geom_bond_atom_site_label_2
_geom_bond_distance
_geom_bond_site_symmetry_2
Ho0 In2 3.249612 1_556
Ho0 In2 3.249612 1_555
Ho0 In1 3.375368 1_656
Ho0 In1 3.375368 1_655
Ho0 In0 3.375369 1_545
Ho0 In0 3.375369 1_546
Ho1 In0 3.249612 1_555
Ho1 In0 3.249612 1_556
Ho1 In1 3.375368 1_555
Ho1 In1 3.375368 1_556
Ho1 In2 3.375369 1_556
Ho1 In2 3.375369 1_555
Ho2 In1 3.249612 1_555
Ho2 In1 3.249612 1_556
Ho2 In2 3.375369 1_565
Ho2 In2 3.375369 1_566
Ho2 In0 3.375369 1_455
Ho2 In0 3.375369 1_456
Au0 In2 2.871872 1_565
Au0 In1 2.871877 1_555
Au0 In0 2.871879 1_555
Au0 Ho2 3.064505 1_554
Au0 Ho2 3.064505 1_555
Au0 Ho0 3.064507 1_565
Au0 Ho0 3.064507 1_564
Au0 Ho1 3.064511 1_555
Au0 Ho1 3.064511 1_554
Au1 In1 2.871872 1_655
Au1 In2 2.871877 1_555
Au1 In0 2.871880 1_555
Au1 Ho0 3.064505 1_555
Au1 Ho0 3.064505 1_554
Au1 Ho2 3.064506 1_655
Au1 Ho2 3.064506 1_654
Au1 Ho1 3.064510 1_555
Au1 Ho1 3.064510 1_554
Au2 In0 2.816595 1_445
Au2 In0 2.816595 1_446
Au2 In2 2.816596 1_555
Au2 In2 2.816596 1_556
Au2 In1 2.816596 1_555
Au2 In1 2.816596 1_556
Au2 Ho1 3.099049 1_555
Au2 Ho0 3.099049 1_455
Au2 Ho2 3.099050 1_545
