# generated using pymatgen
data_K2NiWSe4
_symmetry_space_group_name_H-M   'P 1'
_cell_length_a   13.80946525
_cell_length_b   12.33308796
_cell_length_c   7.32011752
_cell_angle_alpha   85.23852768
_cell_angle_beta   62.87417202
_cell_angle_gamma   31.88731016
_symmetry_Int_Tables_number   1
_chemical_formula_structural   K2NiWSe4
_chemical_formula_sum   'K4 Ni2 W2 Se8'
_cell_volume   446.98159221
_cell_formula_units_Z   2
loop_
 _symmetry_equiv_pos_site_id
 _symmetry_equiv_pos_as_xyz
  1  'x, y, z'
loop_
 _atom_site_type_symbol
 _atom_site_label
 _atom_site_symmetry_multiplicity
 _atom_site_fract_x
 _atom_site_fract_y
 _atom_site_fract_z
 _atom_site_occupancy
  K  K0  1  0.67998884  0.67998884  0.32001116  1
  K  K1  1  0.32001116  0.32001116  0.67998884  1
  K  K2  1  0.57001116  0.57001116  0.92998884  1
  K  K3  1  0.92998884  0.92998884  0.57001116  1
  Ni  Ni0  1  0.00000000  0.00000000  0.00000000  1
  Ni  Ni1  1  0.25000000  0.25000000  0.25000000  1
  W  W0  1  0.50000000  0.50000000  0.50000000  1
  W  W1  1  0.75000000  0.75000000  0.75000000  1
  Se  Se0  1  0.34305529  0.04372980  0.95643143  1
  Se  Se1  1  0.65678347  0.95643143  0.04372980  1
  Se  Se2  1  0.95643143  0.65678347  0.34305529  1
  Se  Se3  1  0.04372980  0.34305529  0.65678347  1
  Se  Se4  1  0.90694471  0.20627020  0.29356857  1
  Se  Se5  1  0.59321653  0.29356857  0.20627020  1
  Se  Se6  1  0.29356857  0.59321653  0.90694471  1
  Se  Se7  1  0.20627020  0.90694471  0.59321653  1
loop_
_geom_bond_atom_site_label_1
_geom_bond_atom_site_label_2
_geom_bond_distance
_geom_bond_site_symmetry_2
K0 Se3 3.424815 1_565
K0 Se0 3.424815 1_654
K0 Se0 3.425521 1_565
K0 Se3 3.425521 1_654
K0 Se4 3.540256 1_555
K0 Se7 3.540256 1_555
K0 Se2 3.661655 1_555
K0 Se1 3.661655 1_555
K1 Se1 3.424816 1_545
K1 Se2 3.424816 1_456
K1 Se2 3.425521 1_545
K1 Se1 3.425521 1_456
K1 Se6 3.540256 1_555
K1 Se5 3.540257 1_555
K1 Se3 3.661655 1_555
K1 Se0 3.661655 1_555
K2 Se7 3.424815 1_645
K2 Se4 3.424815 1_466
K2 Se4 3.425521 1_555
K2 Se7 3.425521 1_556
K2 Se0 3.540256 1_565
K2 Se3 3.540256 1_655
K2 Se6 3.661655 1_555
K2 Se5 3.661655 1_556
K3 Se5 3.424816 1_566
K3 Se6 3.424816 1_654
K3 Se6 3.425521 1_565
K3 Se5 3.425521 1_655
K3 Se2 3.540256 1_555
K3 Se1 3.540257 1_556
K3 Se7 3.661655 1_655
K3 Se4 3.661655 1_565
Ni0 Se6 2.361974 1_544
Ni0 Se5 2.361975 1_455
Ni0 Se4 2.361975 1_455
Ni0 Se7 2.361975 1_544
Ni0 W0 2.737502 1_544
Ni0 W0 2.737502 1_455
Ni1 Se2 2.361974 1_455
Ni1 Se1 2.361975 1_545
Ni1 Se0 2.361975 1_554
Ni1 Se3 2.361975 1_555
Ni1 W1 2.737502 1_544
Ni1 W1 2.737502 1_455
Se0 W1 2.362486 1_545
Se1 W1 2.362486 1_554
Se2 W1 2.362486 1_555
Se3 W1 2.362486 1_455
Se4 W0 2.362486 1_555
Se5 W0 2.362486 1_555
Se6 W0 2.362486 1_555
Se7 W0 2.362486 1_555
