# generated using pymatgen
data_ScInPt
_symmetry_space_group_name_H-M   'P 1'
_cell_length_a   7.60057638
_cell_length_b   7.60057638
_cell_length_c   3.50037759
_cell_angle_alpha   90.00000000
_cell_angle_beta   90.00000000
_cell_angle_gamma   119.99999812
_symmetry_Int_Tables_number   1
_chemical_formula_structural   ScInPt
_chemical_formula_sum   'Sc3 In3 Pt3'
_cell_volume   175.12114598
_cell_formula_units_Z   3
loop_
 _symmetry_equiv_pos_site_id
 _symmetry_equiv_pos_as_xyz
  1  'x, y, z'
loop_
 _atom_site_type_symbol
 _atom_site_label
 _atom_site_symmetry_multiplicity
 _atom_site_fract_x
 _atom_site_fract_y
 _atom_site_fract_z
 _atom_site_occupancy
  Sc  Sc0  1  0.60193864  0.00000000  -0.00000000  1
  Sc  Sc1  1  0.39806136  0.39806136  -0.00000000  1
  Sc  Sc2  1  0.00000000  0.60193864  0.00000000  1
  In  In0  1  0.72583437  0.72583437  0.50000000  1
  In  In1  1  0.00000000  0.27416563  0.50000000  1
  In  In2  1  0.27416563  0.00000000  0.50000000  1
  Pt  Pt0  1  0.66666700  0.33333300  0.50000000  1
  Pt  Pt1  1  0.00000000  -0.00000000  0.00000000  1
  Pt  Pt2  1  0.33333300  0.66666700  0.50000000  1
loop_
_geom_bond_atom_site_label_1
_geom_bond_atom_site_label_2
_geom_bond_distance
_geom_bond_site_symmetry_2
In0 Pt1 2.721296 1_666
In0 Pt1 2.721296 1_665
In0 Pt2 2.785742 1_555
In0 Pt0 2.785742 1_555
In0 Sc1 3.044595 1_555
In0 Sc1 3.044595 1_556
In0 Sc0 3.202265 1_565
In0 Sc2 3.202265 1_655
In0 Sc0 3.202265 1_566
In0 Sc2 3.202265 1_656
In1 Pt1 2.721296 1_555
In1 Pt1 2.721296 1_556
In1 Pt0 2.785734 1_455
In1 Pt2 2.785739 1_555
In1 Sc2 3.044595 1_556
In1 Sc2 3.044595 1_555
In1 Sc1 3.202265 1_555
In1 Sc1 3.202265 1_556
In1 Sc0 3.202265 1_455
In1 Sc0 3.202265 1_456
In2 Pt1 2.721296 1_555
In2 Pt1 2.721296 1_556
In2 Pt2 2.785734 1_545
In2 Pt0 2.785739 1_555
In2 Sc0 3.044595 1_555
In2 Sc0 3.044595 1_556
In2 Sc1 3.202265 1_555
In2 Sc1 3.202265 1_556
In2 Sc2 3.202265 1_546
In2 Sc2 3.202265 1_545
Pt0 Sc0 2.911617 1_555
Pt0 Sc0 2.911617 1_556
Pt0 Sc2 2.911619 1_655
Pt0 Sc2 2.911619 1_656
Pt0 Sc1 2.911623 1_555
Pt0 Sc1 2.911623 1_556
Pt1 Sc2 3.025496 1_545
Pt1 Sc0 3.025496 1_455
Pt1 Sc1 3.025496 1_555
Pt2 Sc2 2.911617 1_556
Pt2 Sc2 2.911617 1_555
Pt2 Sc0 2.911619 1_565
Pt2 Sc0 2.911619 1_566
Pt2 Sc1 2.911623 1_555
Pt2 Sc1 2.911623 1_556
