# generated using pymatgen
data_SrGa2(SnIr)4
_symmetry_space_group_name_H-M   'P 1'
_cell_length_a   6.81615459
_cell_length_b   6.81615393
_cell_length_c   6.81679511
_cell_angle_alpha   119.14545982
_cell_angle_beta   119.14544441
_cell_angle_gamma   91.48135248
_symmetry_Int_Tables_number   1
_chemical_formula_structural   SrGa2(SnIr)4
_chemical_formula_sum   'Sr1 Ga2 Sn4 Ir4'
_cell_volume   226.76705272
_cell_formula_units_Z   1
loop_
 _symmetry_equiv_pos_site_id
 _symmetry_equiv_pos_as_xyz
  1  'x, y, z'
loop_
 _atom_site_type_symbol
 _atom_site_label
 _atom_site_symmetry_multiplicity
 _atom_site_fract_x
 _atom_site_fract_y
 _atom_site_fract_z
 _atom_site_occupancy
  Sr  Sr0  1  0.98095672  0.98095672  0.00000000  1
  Ga  Ga0  1  0.88331318  0.52386770  0.00000000  1
  Ga  Ga1  1  0.52386770  0.88331318  1.00000000  1
  Sn  Sn0  1  0.46607573  0.46607573  0.34423005  1
  Sn  Sn1  1  0.50604768  0.00604768  0.50000000  1
  Sn  Sn2  1  0.00604768  0.50604768  0.50000000  1
  Sn  Sn3  1  0.12184368  0.12184368  0.65576895  1
  Ir  Ir0  1  0.59569116  0.24010540  0.00000000  1
  Ir  Ir1  1  0.24010540  0.59569116  1.00000000  1
  Ir  Ir2  1  0.74646540  0.74646540  0.31688071  1
  Ir  Ir3  1  0.42958468  0.42958468  0.68311929  1
loop_
_geom_bond_atom_site_label_1
_geom_bond_atom_site_label_2
_geom_bond_distance
_geom_bond_site_symmetry_2
Ga0 Ir1 2.468298 1_654
Ga0 Ir2 2.584880 1_555
Ga0 Ir3 2.584880 1_554
Ga0 Ir0 2.718164 1_555
Ga0 Sn1 3.156404 1_554
Ga0 Sn2 3.156404 1_655
Ga0 Sr0 3.169013 1_555
Ga0 Sr0 3.776835 1_545
Ga1 Ir0 2.468298 1_566
Ga1 Ir3 2.584880 1_555
Ga1 Ir2 2.584880 1_556
Ga1 Ir1 2.718164 1_555
Ga1 Sn1 3.156404 1_566
Ga1 Sn2 3.156404 1_555
Ga1 Sr0 3.169014 1_556
Ga1 Sr0 3.776835 1_456
Sn0 Sn1 3.256937 1_565
Sn0 Sn2 3.256938 1_655
Sn0 Sr0 3.419500 1_445
Sn0 Sr0 3.662905 1_556
Sn1 Sn3 3.256945 1_555
Sn1 Sr0 3.460409 1_546
Sn1 Sr0 3.460409 1_445
Sn2 Sn3 3.256945 1_555
Sn2 Sr0 3.460408 1_445
Sn2 Sr0 3.460408 1_456
Sn3 Sr0 3.419490 1_446
Sn3 Sr0 3.662908 1_445
Ir0 Sn1 2.675848 1_554
Ir0 Sn2 2.675848 1_655
Ir0 Sn0 2.688564 1_555
Ir0 Sn3 2.688574 1_554
Ir0 Ir2 2.833162 1_555
Ir0 Ir3 2.833162 1_554
Ir0 Sr0 3.202502 1_545
Ir1 Sn1 2.675848 1_566
Ir1 Sn2 2.675848 1_555
Ir1 Sn0 2.688564 1_556
Ir1 Sn3 2.688573 1_555
Ir1 Ir3 2.833162 1_555
Ir1 Ir2 2.833162 1_556
Ir1 Sr0 3.202502 1_456
Ir2 Sn3 2.564485 1_665
Ir2 Sn1 2.713913 1_565
Ir2 Sn2 2.713914 1_655
Ir2 Sn0 2.800938 1_555
Ir2 Sr0 3.487448 1_556
Ir3 Sn0 2.564499 1_555
Ir3 Sn1 2.713913 1_555
Ir3 Sn2 2.713914 1_555
Ir3 Sn3 2.800952 1_555
Ir3 Sr0 3.487448 1_445
