# generated using pymatgen
data_As2Kr3F16
_symmetry_space_group_name_H-M   'P 1'
_cell_length_a   25.49037300
_cell_length_b   6.43383700
_cell_length_c   9.13013354
_cell_angle_alpha   88.98750239
_cell_angle_beta   90.00000000
_cell_angle_gamma   90.00000000
_symmetry_Int_Tables_number   1
_chemical_formula_structural   As2Kr3F16
_chemical_formula_sum   'As8 Kr12 F64'
_cell_volume   1497.11637304
_cell_formula_units_Z   4
loop_
 _symmetry_equiv_pos_site_id
 _symmetry_equiv_pos_as_xyz
  1  'x, y, z'
loop_
 _atom_site_type_symbol
 _atom_site_label
 _atom_site_symmetry_multiplicity
 _atom_site_fract_x
 _atom_site_fract_y
 _atom_site_fract_z
 _atom_site_occupancy
  As  As0  1  0.52864200  0.73582400  0.77802500  1
  As  As1  1  0.02864200  0.26417600  0.72197500  1
  As  As2  1  0.47135800  0.26417600  0.22197500  1
  As  As3  1  0.97135800  0.73582400  0.27802500  1
  As  As4  1  0.32052000  0.76702000  0.51317600  1
  As  As5  1  0.82052000  0.23298000  0.98682400  1
  As  As6  1  0.67948000  0.23298000  0.48682400  1
  As  As7  1  0.17948000  0.76702000  0.01317600  1
  Kr  Kr0  1  0.22125800  0.29695800  0.70322000  1
  Kr  Kr1  1  0.72125800  0.70304200  0.79678000  1
  Kr  Kr2  1  0.77874200  0.70304200  0.29678000  1
  Kr  Kr3  1  0.27874200  0.29695800  0.20322000  1
  Kr  Kr4  1  0.56890600  0.73991200  0.39959900  1
  Kr  Kr5  1  0.06890600  0.26008800  0.10040100  1
  Kr  Kr6  1  0.43109400  0.26008800  0.60040100  1
  Kr  Kr7  1  0.93109400  0.73991200  0.89959900  1
  Kr  Kr8  1  0.36421200  0.69159200  0.01769600  1
  Kr  Kr9  1  0.86421200  0.30840800  0.48230400  1
  Kr  Kr10  1  0.63578800  0.30840800  0.98230400  1
  Kr  Kr11  1  0.13578800  0.69159200  0.51769600  1
  F  F0  1  0.24925900  0.75103200  0.01618600  1
  F  F1  1  0.74925900  0.24896800  0.48381400  1
  F  F2  1  0.75074100  0.24896800  0.98381400  1
  F  F3  1  0.25074100  0.75103200  0.51618600  1
  F  F4  1  0.11110200  0.95681400  0.47746500  1
  F  F5  1  0.61110200  0.04318600  0.02253500  1
  F  F6  1  0.88889800  0.04318600  0.52253500  1
  F  F7  1  0.38889800  0.95681400  0.97746500  1
  F  F8  1  0.98823200  0.99786600  0.29383500  1
  F  F9  1  0.48823200  0.00213400  0.20616500  1
  F  F10  1  0.01176800  0.00213400  0.70616500  1
  F  F11  1  0.51176800  0.99786600  0.79383500  1
  F  F12  1  0.17874400  0.72888900  0.20601900  1
  F  F13  1  0.67874400  0.27111100  0.29398100  1
  F  F14  1  0.82125600  0.27111100  0.79398100  1
  F  F15  1  0.32125600  0.72888900  0.70601900  1
  F  F16  1  0.88502200  0.70987200  0.74432100  1
  F  F17  1  0.38502200  0.29012800  0.75567900  1
  F  F18  1  0.11497800  0.29012800  0.25567900  1
  F  F19  1  0.61497800  0.70987200  0.24432100  1
  F  F20  1  0.51291500  0.77663800  0.56410200  1
  F  F21  1  0.01291500  0.22336200  0.93589800  1
  F  F22  1  0.48708500  0.22336200  0.43589800  1
  F  F23  1  0.98708500  0.77663800  0.06410200  1
  F  F24  1  0.31857000  0.80169700  0.31913600  1
  F  F25  1  0.81857000  0.19830300  0.18086400  1
  F  F26  1  0.68143000  0.19830300  0.68086400  1
  F  F27  1  0.18143000  0.80169700  0.81913600  1
  F  F28  1  0.59292500  0.80826700  0.73094200  1
  F  F29  1  0.09292500  0.19173300  0.76905800  1
  F  F30  1  0.40707500  0.19173300  0.26905800  1
  F  F31  1  0.90707500  0.80826700  0.23094200  1
  F  F32  1  0.22732300  0.20350000  0.33099200  1
  F  F33  1  0.72732300  0.79650000  0.16900800  1
  F  F34  1  0.77267700  0.79650000  0.66900800  1
  F  F35  1  0.27267700  0.20350000  0.83099200  1
  F  F36  1  0.46193600  0.66953100  0.78871200  1
  F  F37  1  0.96193600  0.33046900  0.71128800  1
  F  F38  1  0.53806400  0.33046900  0.21128800  1
  F  F39  1  0.03806400  0.66953100  0.28871200  1
  F  F40  1  0.32336500  0.49292600  0.48976200  1
  F  F41  1  0.82336500  0.50707400  0.01023800  1
  F  F42  1  0.67663500  0.50707400  0.51023900  1
  F  F43  1  0.17663500  0.49292600  0.98976100  1
  F  F44  1  0.31661600  0.04006600  0.53392700  1
  F  F45  1  0.81661600  0.95993400  0.96607300  1
  F  F46  1  0.68338400  0.95993400  0.46607300  1
  F  F47  1  0.18338400  0.04006600  0.03392700  1
  F  F48  1  0.38980000  0.78027600  0.51084600  1
  F  F49  1  0.88980000  0.21972400  0.98915400  1
  F  F50  1  0.61020000  0.21972400  0.48915400  1
  F  F51  1  0.11020000  0.78027600  0.01084600  1
  F  F52  1  0.54332800  0.47835000  0.73182800  1
  F  F53  1  0.04332800  0.52165000  0.76817200  1
  F  F54  1  0.45667200  0.52165000  0.26817200  1
  F  F55  1  0.95667200  0.47835000  0.23182800  1
  F  F56  1  0.54148900  0.69594000  0.96308900  1
  F  F57  1  0.04148900  0.30406000  0.53691100  1
  F  F58  1  0.45851100  0.30406000  0.03691100  1
  F  F59  1  0.95851100  0.69594000  0.46308900  1
  F  F60  1  0.33751800  0.38740900  0.05528200  1
  F  F61  1  0.83751800  0.61259100  0.44471800  1
  F  F62  1  0.66248200  0.61259100  0.94471800  1
  F  F63  1  0.16248200  0.38740900  0.55528200  1
loop_
_geom_bond_atom_site_label_1
_geom_bond_atom_site_label_2
_geom_bond_distance
_geom_bond_site_symmetry_2
As0 F56 1.735716 1_555
As0 F11 1.748377 1_555
As0 F28 1.754979 1_555
As0 F36 1.755333 1_555
As0 F52 1.756951 1_555
As0 F20 2.006568 1_555
As1 F57 1.735716 1_555
As1 F10 1.748377 1_555
As1 F29 1.754979 1_555
As1 F37 1.755333 1_455
As1 F53 1.756951 1_555
As1 F21 2.006568 1_555
As2 F58 1.735716 1_555
As2 F9 1.748377 1_555
As2 F30 1.754979 1_555
As2 F38 1.755333 1_555
As2 F54 1.756951 1_555
As2 F22 2.006568 1_555
As3 F59 1.735716 1_555
As3 F8 1.748377 1_555
As3 F31 1.754979 1_555
As3 F39 1.755333 1_655
As3 F55 1.756951 1_555
As3 F23 2.006568 1_555
As4 F48 1.768141 1_555
As4 F44 1.773041 1_565
As4 F15 1.773492 1_555
As4 F40 1.781609 1_555
As4 F3 1.781849 1_555
As4 F24 1.782382 1_555
As5 F49 1.768141 1_555
As5 F45 1.773041 1_545
As5 F14 1.773492 1_555
As5 F41 1.781609 1_556
As5 F2 1.781849 1_555
As5 F25 1.782382 1_556
As6 F50 1.768141 1_555
As6 F46 1.773041 1_545
As6 F13 1.773492 1_555
As6 F42 1.781610 1_555
As6 F1 1.781849 1_555
As6 F26 1.782382 1_555
As7 F51 1.768141 1_555
As7 F47 1.773041 1_565
As7 F12 1.773492 1_555
As7 F43 1.781610 1_554
As7 F0 1.781849 1_555
As7 F27 1.782382 1_554
F4 Kr11 1.849464 1_555
F5 Kr10 1.849464 1_554
F6 Kr9 1.849464 1_555
F7 Kr8 1.849464 1_556
F16 Kr7 1.853681 1_555
F17 Kr6 1.853681 1_555
F18 Kr5 1.853681 1_555
F19 Kr4 1.853681 1_555
F20 Kr4 2.088342 1_555
F21 Kr5 2.088342 1_556
F22 Kr6 2.088342 1_555
F23 Kr7 2.088342 1_554
F32 Kr3 1.848126 1_555
F33 Kr2 1.848126 1_555
F34 Kr1 1.848126 1_555
F35 Kr0 1.848126 1_555
F60 Kr3 2.092827 1_555
F60 Kr8 2.094546 1_555
F61 Kr2 2.092827 1_555
F61 Kr9 2.094546 1_555
F62 Kr1 2.092827 1_555
F62 Kr10 2.094546 1_555
F63 Kr0 2.092827 1_555
F63 Kr11 2.094546 1_555
