# generated using pymatgen
data_CdSn4(PO4)6
_symmetry_space_group_name_H-M   'P 1'
_cell_length_a   8.46174214
_cell_length_b   8.46174872
_cell_length_c   8.93059495
_cell_angle_alpha   61.72286730
_cell_angle_beta   118.27670349
_cell_angle_gamma   120.00009715
_symmetry_Int_Tables_number   1
_chemical_formula_structural   CdSn4(PO4)6
_chemical_formula_sum   'Cd1 Sn4 P6 O24'
_cell_volume   463.57283723
_cell_formula_units_Z   1
loop_
 _symmetry_equiv_pos_site_id
 _symmetry_equiv_pos_as_xyz
  1  'x, y, z'
loop_
 _atom_site_type_symbol
 _atom_site_label
 _atom_site_symmetry_multiplicity
 _atom_site_fract_x
 _atom_site_fract_y
 _atom_site_fract_z
 _atom_site_occupancy
  Cd  Cd0  1  0.00000000  0.00000000  0.00000000  1
  Sn  Sn0  1  0.35421663  0.64577676  0.06266171  1
  Sn  Sn1  1  0.14672056  0.85328645  0.44014133  1
  Sn  Sn2  1  0.85327944  0.14671355  0.55985867  1
  Sn  Sn3  1  0.64578337  0.35422324  0.93733829  1
  P  P0  1  0.03377126  0.24685736  0.24407869  1
  P  P1  1  0.45717540  0.96623073  0.24407878  1
  P  P2  1  0.75313734  0.54283998  0.24407157  1
  P  P3  1  0.24686266  0.45715902  0.75592843  1
  P  P4  1  0.54282460  0.03376927  0.75592122  1
  P  P5  1  0.96622874  0.75314264  0.75592031  1
  O  O0  1  0.47329460  0.15665403  0.09334047  1
  O  O1  1  0.77668387  0.52674193  0.09330655  1
  O  O2  1  0.84336362  0.22331902  0.09331997  1
  O  O3  1  0.48228544  0.82045401  0.21256541  1
  O  O4  1  0.55074683  0.51773782  0.21257743  1
  O  O5  1  0.17956579  0.44925091  0.21259105  1
  O  O6  1  0.25063895  0.89194412  0.25152886  1
  O  O7  1  0.89285728  0.74937214  0.25152677  1
  O  O8  1  0.10804262  0.10714749  0.25152522  1
  O  O9  1  0.81208868  0.39749963  0.42313074  1
  O  O10  1  0.00854505  0.18789764  0.42314599  1
  O  O11  1  0.60250513  0.99144034  0.42314881  1
  O  O12  1  0.39749487  0.00855966  0.57685019  1
  O  O13  1  0.99145495  0.81210236  0.57685301  1
  O  O14  1  0.18791232  0.60250037  0.57687026  1
  O  O15  1  0.89195738  0.89285351  0.74847478  1
  O  O16  1  0.10714272  0.25062786  0.74847223  1
  O  O17  1  0.74936105  0.10805488  0.74847114  1
  O  O18  1  0.82043321  0.55074909  0.78740895  1
  O  O19  1  0.44925317  0.48226318  0.78742257  1
  O  O20  1  0.51771456  0.17954699  0.78743459  1
  O  O21  1  0.15663638  0.77668098  0.90668003  1
  O  O22  1  0.22331513  0.47325807  0.90669245  1
  O  O23  1  0.52670540  0.84334597  0.90665953  1
loop_
_geom_bond_atom_site_label_1
_geom_bond_atom_site_label_2
_geom_bond_distance
_geom_bond_site_symmetry_2
Cd0 O7 2.420444 1_445
Cd0 O15 2.420445 1_444
Cd0 O16 2.420450 1_554
Cd0 O8 2.420451 1_555
Cd0 O17 2.420594 1_454
Cd0 O6 2.420597 1_545
O0 P1 1.525171 1_545
O0 Sn3 2.036150 1_554
O1 P2 1.525185 1_555
O1 Sn3 2.036145 1_554
O2 P0 1.525180 1_655
O2 Sn3 2.036163 1_554
O3 P1 1.514466 1_555
O3 Sn0 2.012404 1_555
O4 P2 1.514466 1_555
O4 Sn0 2.012397 1_555
O5 P0 1.514474 1_555
O5 Sn0 2.012413 1_555
O6 P1 1.557510 1_555
O6 Sn1 2.076331 1_555
O7 P2 1.557524 1_555
O7 Sn1 2.076330 1_655
O8 P0 1.557512 1_555
O8 Sn1 2.076356 1_545
O9 P2 1.520801 1_555
O9 Sn2 1.999263 1_555
O10 P0 1.520802 1_555
O10 Sn2 1.999258 1_455
O11 P1 1.520799 1_555
O11 Sn2 1.999227 1_565
O12 P4 1.520805 1_555
O12 Sn1 1.999223 1_545
O13 P5 1.520802 1_555
O13 Sn1 1.999251 1_655
O14 P3 1.520798 1_555
O14 Sn1 1.999267 1_555
O15 P5 1.557525 1_555
O15 Sn2 2.076350 1_565
O16 P3 1.557519 1_555
O16 Sn2 2.076325 1_455
O17 P4 1.557512 1_555
O17 Sn2 2.076328 1_555
O18 P5 1.514477 1_555
O18 Sn3 2.012408 1_555
O19 P3 1.514460 1_555
O19 Sn3 2.012402 1_555
O20 P4 1.514474 1_555
O20 Sn3 2.012397 1_555
O21 P5 1.525184 1_455
O21 Sn0 2.036163 1_556
O22 P3 1.525186 1_555
O22 Sn0 2.036151 1_556
O23 P4 1.525171 1_565
O23 Sn0 2.036150 1_556
