# generated using pymatgen
data_In4PdPt3O14
_symmetry_space_group_name_H-M   'P 1'
_cell_length_a   7.06268928
_cell_length_b   7.06268918
_cell_length_c   7.07983545
_cell_angle_alpha   60.08008023
_cell_angle_beta   60.08007700
_cell_angle_gamma   60.00000511
_symmetry_Int_Tables_number   1
_chemical_formula_structural   In4PdPt3O14
_chemical_formula_sum   'In4 Pd1 Pt3 O14'
_cell_volume   250.01898189
_cell_formula_units_Z   1
loop_
 _symmetry_equiv_pos_site_id
 _symmetry_equiv_pos_as_xyz
  1  'x, y, z'
loop_
 _atom_site_type_symbol
 _atom_site_label
 _atom_site_symmetry_multiplicity
 _atom_site_fract_x
 _atom_site_fract_y
 _atom_site_fract_z
 _atom_site_occupancy
  In  In0  1  0.12500000  0.12500000  0.12500000  1
  In  In1  1  0.62500000  0.12500000  0.12500000  1
  In  In2  1  0.12500000  0.62500000  0.12500000  1
  In  In3  1  0.12500000  0.12500000  0.62500000  1
  Pd  Pd0  1  0.62500000  0.62500000  0.12500000  1
  Pt  Pt0  1  0.62500000  0.12500000  0.62500000  1
  Pt  Pt1  1  0.12500000  0.62500000  0.62500000  1
  Pt  Pt2  1  0.62500000  0.62500000  0.62500000  1
  O  O0  1  0.25017174  0.25017174  0.24948379  1
  O  O1  1  0.71658744  0.28312604  0.28369909  1
  O  O2  1  0.71831063  0.28156254  0.71856329  1
  O  O3  1  0.28312604  0.71658744  0.28369909  1
  O  O4  1  0.71658744  0.71658744  0.28369909  1
  O  O5  1  0.28156254  0.28156254  0.71856329  1
  O  O6  1  0.96843746  0.53168937  0.53143671  1
  O  O7  1  0.28156254  0.71831063  0.71856329  1
  O  O8  1  0.96843746  0.96843746  0.53143671  1
  O  O9  1  0.53168937  0.96843746  0.53143671  1
  O  O10  1  0.53341256  0.53341256  0.96630091  1
  O  O11  1  0.96687396  0.53341256  0.96630091  1
  O  O12  1  0.53341256  0.96687396  0.96630091  1
  O  O13  1  0.99982826  0.99982826  0.00051621  1
loop_
_geom_bond_atom_site_label_1
_geom_bond_atom_site_label_2
_geom_bond_distance
_geom_bond_site_symmetry_2
In0 O0 2.162373 1_555
In0 O13 2.162373 1_445
In0 O8 2.366410 1_445
In0 O5 2.366410 1_554
In0 O12 2.372176 1_544
In0 O1 2.372176 1_455
In0 O11 2.372176 1_454
In0 O3 2.372176 1_545
In1 O13 2.162379 1_545
In1 O0 2.162379 1_555
In1 O2 2.366410 1_554
In1 O9 2.366410 1_545
In1 O1 2.372176 1_555
In1 O12 2.372176 1_544
In1 O10 2.372176 1_554
In1 O4 2.372176 1_545
In2 O13 2.162379 1_455
In2 O0 2.162379 1_555
In2 O6 2.366410 1_455
In2 O7 2.366410 1_554
In2 O10 2.372176 1_554
In2 O4 2.372176 1_455
In2 O3 2.372176 1_555
In2 O11 2.372176 1_454
In3 O13 2.173356 1_446
In3 O0 2.173356 1_555
In3 O5 2.359711 1_555
In3 O8 2.359711 1_445
In3 O9 2.359717 1_545
In3 O2 2.359717 1_455
In3 O6 2.359717 1_455
In3 O7 2.359717 1_545
O1 Pd0 1.991908 1_555
O1 Pt0 1.993876 1_555
O2 Pt0 1.997671 1_555
O2 Pt2 1.997677 1_555
O3 Pd0 1.991907 1_555
O3 Pt1 1.993876 1_555
O4 Pd0 1.991907 1_555
O4 Pt2 1.993876 1_555
O5 Pt0 1.997676 1_555
O5 Pt1 1.997676 1_555
O6 Pt1 1.997671 1_655
O6 Pt2 1.997677 1_555
O7 Pt1 1.997671 1_555
O7 Pt2 1.997677 1_555
O8 Pt0 1.997676 1_565
O8 Pt1 1.997676 1_655
O9 Pt0 1.997671 1_565
O9 Pt2 1.997677 1_555
O10 Pd0 1.991907 1_556
O10 Pt2 1.993876 1_555
O11 Pd0 1.991907 1_556
O11 Pt1 1.993876 1_655
O12 Pd0 1.991908 1_556
O12 Pt0 1.993876 1_565
