# generated using pymatgen
data_Ba4Sr3CaPb4
_symmetry_space_group_name_H-M   'P 1'
_cell_length_a   5.49630269
_cell_length_b   9.02883872
_cell_length_c   10.11277795
_cell_angle_alpha   89.42978094
_cell_angle_beta   90.00000000
_cell_angle_gamma   90.00000000
_symmetry_Int_Tables_number   1
_chemical_formula_structural   Ba4Sr3CaPb4
_chemical_formula_sum   'Ba4 Sr3 Ca1 Pb4'
_cell_volume   501.82408447
_cell_formula_units_Z   1
loop_
 _symmetry_equiv_pos_site_id
 _symmetry_equiv_pos_as_xyz
  1  'x, y, z'
loop_
 _atom_site_type_symbol
 _atom_site_label
 _atom_site_symmetry_multiplicity
 _atom_site_fract_x
 _atom_site_fract_y
 _atom_site_fract_z
 _atom_site_occupancy
  Ba  Ba0  1  0.25000000  0.52794914  0.31836774  1
  Ba  Ba1  1  0.25000000  0.01936405  0.18559511  1
  Ba  Ba2  1  0.75000000  0.47643237  0.67360584  1
  Ba  Ba3  1  0.75000000  0.98005751  0.82033751  1
  Sr  Sr0  1  0.25000000  0.64886008  0.92340178  1
  Sr  Sr1  1  0.25000000  0.14474630  0.57421020  1
  Sr  Sr2  1  0.75000000  0.35099152  0.07622482  1
  Ca  Ca0  1  0.75000000  0.85713258  0.42840525  1
  Pb  Pb0  1  0.25000000  0.26622512  0.89315906  1
  Pb  Pb1  1  0.25000000  0.76666860  0.59822091  1
  Pb  Pb2  1  0.75000000  0.73551667  0.11382500  1
  Pb  Pb3  1  0.75000000  0.22605605  0.39464678  1
loop_
_geom_bond_atom_site_label_1
_geom_bond_atom_site_label_2
_geom_bond_distance
_geom_bond_site_symmetry_2
Ba0 Pb1 3.574411 1_555
Ba0 Pb2 3.907183 1_455
Ba0 Pb2 3.907183 1_555
Ba0 Pb3 3.941473 1_455
Ba0 Pb3 3.941473 1_555
Ba1 Pb0 3.685447 1_554
Ba1 Pb2 3.831990 1_545
Ba1 Pb2 3.831990 1_445
Ba1 Pb3 3.947520 1_455
Ba1 Pb3 3.947520 1_555
Ba2 Pb3 3.632576 1_555
Ba2 Pb1 3.867913 1_655
Ba2 Pb1 3.867913 1_555
Ba2 Pb0 4.000036 1_655
Ba2 Pb0 4.000036 1_555
Ba3 Pb2 3.681487 1_556
Ba3 Pb0 3.848163 1_565
Ba3 Pb0 3.848163 1_665
Ba3 Pb1 4.049192 1_655
Ba3 Pb1 4.049192 1_555
Ca0 Pb1 3.337769 1_555
Ca0 Pb1 3.337769 1_655
Ca0 Pb3 3.345018 1_565
Ca0 Pb2 3.375765 1_555
Pb0 Sr2 3.404939 1_556
Pb0 Sr2 3.404939 1_456
Pb0 Sr1 3.417162 1_555
Pb0 Sr0 3.471291 1_555
Pb1 Sr1 3.419816 1_565
Pb1 Sr0 3.446142 1_555
Pb2 Sr0 3.450049 1_654
Pb2 Sr0 3.450049 1_554
Pb2 Sr2 3.496336 1_555
Pb3 Sr1 3.370785 1_555
Pb3 Sr1 3.370785 1_655
Pb3 Sr2 3.401379 1_555
