# generated using pymatgen
data_Lu12InFe3Ag
_symmetry_space_group_name_H-M   'P 1'
_cell_length_a   8.09980809
_cell_length_b   8.09980918
_cell_length_c   8.09980805
_cell_angle_alpha   110.11740189
_cell_angle_beta   106.83621409
_cell_angle_gamma   111.49488870
_symmetry_Int_Tables_number   1
_chemical_formula_structural   Lu12InFe3Ag
_chemical_formula_sum   'Lu12 In1 Fe3 Ag1'
_cell_volume   408.36730159
_cell_formula_units_Z   1
loop_
 _symmetry_equiv_pos_site_id
 _symmetry_equiv_pos_as_xyz
  1  'x, y, z'
loop_
 _atom_site_type_symbol
 _atom_site_label
 _atom_site_symmetry_multiplicity
 _atom_site_fract_x
 _atom_site_fract_y
 _atom_site_fract_z
 _atom_site_occupancy
  Lu  Lu0  1  0.31053128  0.31001815  0.62054943  1
  Lu  Lu1  1  0.68946872  0.68998185  0.37945057  1
  Lu  Lu2  1  0.68946872  0.31001815  0.99948686  1
  Lu  Lu3  1  0.31053128  0.68998185  0.00051314  1
  Lu  Lu4  1  0.19040606  0.44362300  0.25321694  1
  Lu  Lu5  1  0.80959394  0.55637700  0.74678306  1
  Lu  Lu6  1  0.19040606  0.93718812  0.74678306  1
  Lu  Lu7  1  0.95825848  0.18745347  0.77080601  1
  Lu  Lu8  1  0.80959394  0.06281188  0.25321694  1
  Lu  Lu9  1  0.04174152  0.81254653  0.22919399  1
  Lu  Lu10  1  0.41664746  0.18745347  0.22919399  1
  Lu  Lu11  1  0.58335254  0.81254653  0.77080601  1
  In  In0  1  0.50000000  0.00000000  0.50000000  1
  Fe  Fe0  1  0.37669218  0.37669218  1.00000000  1
  Fe  Fe1  1  0.62330782  0.62330782  0.00000000  1
  Fe  Fe2  1  0.00000000  0.00000000  0.00000000  1
  Ag  Ag0  1  0.00000000  0.50000000  0.50000000  1
loop_
_geom_bond_atom_site_label_1
_geom_bond_atom_site_label_2
_geom_bond_distance
_geom_bond_site_symmetry_2
In0 Lu7 3.123589 1_555
In0 Lu9 3.123589 1_545
In0 Lu11 3.123596 1_545
In0 Lu10 3.123596 1_555
In0 Lu2 3.408762 1_555
In0 Lu3 3.408762 1_545
In0 Lu1 3.408762 1_545
In0 Lu0 3.408762 1_555
In0 Lu8 3.634690 1_555
In0 Lu6 3.634690 1_545
In0 Lu5 3.634690 1_555
In0 Lu4 3.634690 1_545
Fe0 Fe1 2.248597 1_556
Fe0 Lu0 2.777973 1_555
Fe0 Lu2 2.777973 1_555
Fe0 Lu1 2.777974 1_556
Fe0 Lu3 2.777974 1_556
Fe0 Lu10 2.805965 1_556
Fe0 Lu7 2.805972 1_455
Fe0 Lu4 2.899061 1_556
Fe0 Lu6 2.899068 1_545
Fe1 Lu1 2.777973 1_555
Fe1 Lu3 2.777973 1_555
Fe1 Lu0 2.777974 1_554
Fe1 Lu2 2.777974 1_554
Fe1 Lu11 2.805965 1_554
Fe1 Lu9 2.805972 1_655
Fe1 Lu5 2.899061 1_554
Fe1 Lu8 2.899068 1_565
Fe2 Lu10 2.795985 1_555
Fe2 Lu11 2.795985 1_444
Fe2 Lu9 2.795986 1_545
Fe2 Lu7 2.795986 1_454
Fe2 Lu4 2.921229 1_555
Fe2 Lu5 2.921229 1_444
Fe2 Lu8 2.921229 1_455
Fe2 Lu6 2.921229 1_544
Ag0 Lu6 2.873432 1_555
Ag0 Lu8 2.873432 1_455
Ag0 Lu5 2.873438 1_455
Ag0 Lu4 2.873438 1_555
