# generated using pymatgen
data_Hf11Zr5(Ir2O)4
_symmetry_space_group_name_H-M   'P 1'
_cell_length_a   8.72655356
_cell_length_b   8.72655347
_cell_length_c   8.71271384
_cell_angle_alpha   60.05244801
_cell_angle_beta   60.05244837
_cell_angle_gamma   60.00339498
_symmetry_Int_Tables_number   1
_chemical_formula_structural   Hf11Zr5(Ir2O)4
_chemical_formula_sum   'Hf11 Zr5 Ir8 O4'
_cell_volume   469.54687908
_cell_formula_units_Z   1
loop_
 _symmetry_equiv_pos_site_id
 _symmetry_equiv_pos_as_xyz
  1  'x, y, z'
loop_
 _atom_site_type_symbol
 _atom_site_label
 _atom_site_symmetry_multiplicity
 _atom_site_fract_x
 _atom_site_fract_y
 _atom_site_fract_z
 _atom_site_occupancy
  Hf  Hf0  1  0.10935375  0.62865558  0.63099533  1
  Hf  Hf1  1  0.62865558  0.10935375  0.63099533  1
  Hf  Hf2  1  0.63189507  0.63189507  0.10431046  1
  Hf  Hf3  1  0.63189507  0.63189507  0.63189940  1
  Hf  Hf4  1  0.81221098  0.81221098  0.18778902  1
  Hf  Hf5  1  0.18538844  0.18538844  0.81461156  1
  Hf  Hf6  1  0.81057032  0.18820875  0.81263194  1
  Hf  Hf7  1  0.18820875  0.81057032  0.18858900  1
  Hf  Hf8  1  0.18820875  0.81057032  0.81263194  1
  Hf  Hf9  1  0.81057032  0.18820875  0.18858900  1
  Hf  Hf10  1  0.43653257  0.43653257  0.06346743  1
  Zr  Zr0  1  0.06230752  0.06230752  0.43769248  1
  Zr  Zr1  1  0.43520345  0.06403694  0.43582246  1
  Zr  Zr2  1  0.06403694  0.43520345  0.06493714  1
  Zr  Zr3  1  0.06403694  0.43520345  0.43582246  1
  Zr  Zr4  1  0.43520345  0.06403694  0.06493714  1
  Ir  Ir0  1  0.75646313  0.41606765  0.41373461  1
  Ir  Ir1  1  0.41606765  0.75646313  0.41373461  1
  Ir  Ir2  1  0.41550235  0.41550235  0.76023082  1
  Ir  Ir3  1  0.41550235  0.41550235  0.40876349  1
  Ir  Ir4  1  0.44868090  0.85154821  0.84988545  1
  Ir  Ir5  1  0.85154821  0.44868090  0.84988545  1
  Ir  Ir6  1  0.85095152  0.85095152  0.45022429  1
  Ir  Ir7  1  0.85095152  0.85095152  0.84787366  1
  O  O0  1  0.62870280  0.12678200  0.12225760  1
  O  O1  1  0.12678200  0.62870280  0.12225760  1
  O  O2  1  0.12228234  0.12228234  0.63215761  1
  O  O3  1  0.12228234  0.12228234  0.12327671  1
loop_
_geom_bond_atom_site_label_1
_geom_bond_atom_site_label_2
_geom_bond_distance
_geom_bond_site_symmetry_2
Hf0 Ir5 2.724687 1_455
Hf0 Ir6 2.729504 1_455
Hf0 Ir7 2.729509 1_455
Hf0 Ir2 2.794412 1_555
Hf0 Ir3 2.794417 1_555
Hf0 Ir1 2.794567 1_555
Hf1 Ir4 2.724687 1_545
Hf1 Ir6 2.729504 1_545
Hf1 Ir7 2.729509 1_545
Hf1 Ir2 2.794412 1_555
Hf1 Ir3 2.794417 1_555
Hf1 Ir0 2.794567 1_555
Hf2 Ir4 2.715919 1_554
Hf2 Ir5 2.715919 1_554
Hf2 Ir7 2.725026 1_554
Hf2 Ir3 2.780544 1_555
Hf2 Ir0 2.793966 1_555
Hf2 Ir1 2.793966 1_555
Hf3 Ir4 2.715919 1_555
Hf3 Ir5 2.715919 1_555
Hf3 Ir6 2.725027 1_555
Hf3 Ir2 2.780547 1_555
Hf3 Ir0 2.793966 1_555
Hf3 Ir1 2.793966 1_555
Hf4 O0 2.319179 1_565
Hf4 O1 2.319179 1_655
Hf4 Ir7 2.667316 1_554
Hf4 Ir6 2.667324 1_555
Hf4 Ir0 3.161249 1_555
Hf4 Ir1 3.161249 1_555
Hf5 O3 2.277030 1_556
Hf5 O2 2.277039 1_555
Hf5 Ir4 2.641759 1_545
Hf5 Ir5 2.641759 1_455
Hf5 Ir2 3.228253 1_555
Hf5 Ir3 3.228257 1_555
Hf6 O0 2.283828 1_556
Hf6 O2 2.295815 1_655
Hf6 Ir7 2.655001 1_545
Hf6 Ir5 2.658025 1_555
Hf6 Ir2 3.139798 1_555
Hf6 Ir0 3.171056 1_555
Hf7 O1 2.283828 1_555
Hf7 O3 2.295813 1_565
Hf7 Ir6 2.655005 1_455
Hf7 Ir4 2.658025 1_554
Hf7 Ir3 3.139795 1_555
Hf7 Ir1 3.171056 1_555
Hf8 O1 2.283828 1_556
Hf8 O2 2.295815 1_565
Hf8 Ir7 2.655001 1_455
Hf8 Ir4 2.658025 1_555
Hf8 Ir2 3.139798 1_555
Hf8 Ir1 3.171056 1_555
Hf9 O0 2.283828 1_555
Hf9 O3 2.295813 1_655
Hf9 Ir6 2.655005 1_545
Hf9 Ir5 2.658025 1_554
Hf9 Ir3 3.139795 1_555
Hf9 Ir0 3.171056 1_555
Hf10 O0 2.307357 1_555
Hf10 O1 2.307357 1_555
Hf10 Ir3 2.837150 1_555
Hf10 Ir2 2.837158 1_554
Hf10 Ir4 3.169963 1_554
Hf10 Ir5 3.169963 1_554
Ir0 Zr2 2.874902 1_655
Ir0 Zr3 2.874902 1_655
Ir0 Zr0 2.893355 1_655
Ir1 Zr4 2.874902 1_565
Ir1 Zr1 2.874902 1_565
Ir1 Zr0 2.893355 1_565
Ir2 Zr4 2.878095 1_556
Ir2 Zr2 2.878095 1_556
Ir3 Zr1 2.878091 1_555
Ir3 Zr3 2.878091 1_555
Ir4 Zr1 3.161282 1_565
Ir4 Zr4 3.161282 1_566
Ir5 Zr3 3.161282 1_655
Ir5 Zr2 3.161282 1_656
Ir6 Zr0 3.132887 1_665
Ir6 Zr3 3.179955 1_655
Ir6 Zr1 3.179956 1_565
Ir7 Zr0 3.132892 1_665
Ir7 Zr2 3.179953 1_656
Ir7 Zr4 3.179953 1_566
O0 Zr1 2.332383 1_555
O0 Zr4 2.332383 1_555
O1 Zr2 2.332383 1_555
O1 Zr3 2.332383 1_555
O2 Zr3 2.336205 1_555
O2 Zr1 2.336205 1_555
O2 Zr0 2.337340 1_555
O3 Zr2 2.336207 1_555
O3 Zr4 2.336207 1_555
O3 Zr0 2.337348 1_555
