# generated using pymatgen
data_Cs5Na(ReH9)3
_symmetry_space_group_name_H-M   'P 1'
_cell_length_a   10.17610746
_cell_length_b   9.58682001
_cell_length_c   6.01834436
_cell_angle_alpha   90.00000000
_cell_angle_beta   90.00000000
_cell_angle_gamma   118.10220842
_symmetry_Int_Tables_number   1
_chemical_formula_structural   Cs5Na(ReH9)3
_chemical_formula_sum   'Cs5 Na1 Re3 H27'
_cell_volume   517.91131922
_cell_formula_units_Z   1
loop_
 _symmetry_equiv_pos_site_id
 _symmetry_equiv_pos_as_xyz
  1  'x, y, z'
loop_
 _atom_site_type_symbol
 _atom_site_label
 _atom_site_symmetry_multiplicity
 _atom_site_fract_x
 _atom_site_fract_y
 _atom_site_fract_z
 _atom_site_occupancy
  Cs  Cs0  1  0.73969247  0.75644883  0.50000000  1
  Cs  Cs1  1  0.26030753  0.01675636  0.50000000  1
  Cs  Cs2  1  0.00000000  0.57592987  0.00000000  1
  Cs  Cs3  1  0.41676949  0.40320199  0.00000000  1
  Cs  Cs4  1  0.58323051  0.98643350  0.00000000  1
  Na  Na0  1  1.00000000  0.28069093  0.50000000  1
  Re  Re0  1  0.68977437  0.32421780  0.50000000  1
  Re  Re1  1  0.31022563  0.63444442  0.50000000  1
  Re  Re2  1  1.00000000  0.03748731  0.00000000  1
  H  H0  1  0.79149858  0.28921918  0.69658194  1
  H  H1  1  0.71582914  0.45543426  0.70639650  1
  H  H2  1  0.56269335  0.22496133  0.70168848  1
  H  H3  1  0.20850142  0.49772060  0.30341806  1
  H  H4  1  0.56269335  0.22496133  0.29831152  1
  H  H5  1  0.79149858  0.28921918  0.30341806  1
  H  H6  1  0.71582914  0.45543426  0.29360350  1
  H  H7  1  0.28417086  0.73960711  0.70639650  1
  H  H8  1  0.43730665  0.66226799  0.70168848  1
  H  H9  1  0.16413451  0.03535354  0.00000000  1
  H  H10  1  0.83586549  0.87121903  0.00000000  1
  H  H11  1  1.00000000  0.21197293  0.00000000  1
  H  H12  1  0.88700645  0.04606227  0.20152566  1
  H  H13  1  0.11299355  0.15905582  0.79847434  1
  H  H14  1  1.00000000  0.90909388  0.80490701  1
  H  H15  1  1.00000000  0.90909388  0.19509299  1
  H  H16  1  0.11299355  0.15905582  0.20152566  1
  H  H17  1  0.88700645  0.04606227  0.79847434  1
  H  H18  1  0.13560814  0.60839797  0.50000000  1
  H  H19  1  0.44651536  0.82264430  0.50000000  1
  H  H20  1  0.35323201  0.48613128  0.50000000  1
  H  H21  1  0.55348464  0.37612893  0.50000000  1
  H  H22  1  0.86439186  0.47279083  0.50000000  1
  H  H23  1  0.64676799  0.13289927  0.50000000  1
  H  H24  1  0.20850142  0.49772060  0.69658194  1
  H  H25  1  0.28417086  0.73960711  0.29360350  1
  H  H26  1  0.43730665  0.66226799  0.29831152  1
loop_
_geom_bond_atom_site_label_1
_geom_bond_atom_site_label_2
_geom_bond_distance
_geom_bond_site_symmetry_2
Cs0 H14 2.978876 1_555
Cs0 H15 2.978876 1_555
Cs0 H8 3.023209 1_555
Cs0 H26 3.023209 1_555
Cs0 H17 3.043301 1_565
Cs0 H12 3.043301 1_565
Cs0 H1 3.044575 1_555
Cs0 H6 3.044575 1_555
Cs0 H10 3.195164 1_556
Cs0 H10 3.195164 1_555
Cs0 H21 3.221109 1_555
Cs0 H19 3.329722 1_555
Cs1 H14 2.978876 1_445
Cs1 H15 2.978876 1_445
Cs1 H2 3.023209 1_555
Cs1 H4 3.023209 1_555
Cs1 H13 3.043301 1_555
Cs1 H16 3.043301 1_555
Cs1 H7 3.044558 1_545
Cs1 H25 3.044558 1_545
Cs1 H9 3.195164 1_555
Cs1 H9 3.195164 1_556
Cs1 H19 3.221110 1_545
Cs1 H21 3.329721 1_555
Cs2 H6 3.109975 1_455
Cs2 H1 3.109975 1_454
Cs2 H25 3.109976 1_555
Cs2 H7 3.109976 1_554
Cs2 H5 3.145976 1_455
Cs2 H0 3.145976 1_454
Cs2 H3 3.145977 1_555
Cs2 H24 3.145977 1_554
Cs2 H22 3.263684 1_455
Cs2 H22 3.263684 1_454
Cs2 H18 3.263685 1_554
Cs2 H18 3.263685 1_555
Cs2 H15 3.402959 1_455
Cs2 H14 3.402959 1_454
Cs2 H11 3.489190 1_455
Cs3 H26 2.991037 1_555
Cs3 H8 2.991037 1_554
Cs3 H16 3.112692 1_555
Cs3 H13 3.112692 1_554
Cs3 H3 3.233654 1_555
Cs3 H24 3.233654 1_554
Cs3 H9 3.241040 1_555
Cs3 H20 3.254152 1_555
Cs3 H20 3.254152 1_554
Cs3 H4 3.276983 1_555
Cs3 H2 3.276983 1_554
Cs3 H6 3.346470 1_555
Cs3 H1 3.346470 1_554
Cs3 H21 3.376118 1_555
Cs3 H21 3.376118 1_554
Cs4 H4 2.991029 1_565
Cs4 H2 2.991029 1_564
Cs4 H12 3.112695 1_565
Cs4 H17 3.112695 1_564
Cs4 H5 3.233647 1_565
Cs4 H0 3.233647 1_564
Cs4 H10 3.241048 1_555
Cs4 H23 3.254148 1_564
Cs4 H23 3.254148 1_565
Cs4 H26 3.276989 1_555
Cs4 H8 3.276989 1_554
Cs4 H25 3.346467 1_555
Cs4 H7 3.346467 1_554
Cs4 H19 3.376120 1_554
Cs4 H19 3.376120 1_555
H0 Re0 1.706181 1_555
H0 Na0 2.464058 1_555
H1 Re0 1.697496 1_555
H2 Re0 1.700558 1_555
H3 Re1 1.706186 1_555
H3 Na0 2.464057 1_455
H4 Re0 1.700558 1_555
H5 Re0 1.706181 1_555
H5 Na0 2.464058 1_555
H6 Re0 1.697496 1_555
H7 Re1 1.697503 1_555
H8 Re1 1.700561 1_555
H9 Re2 1.679983 1_455
H10 Re2 1.679982 1_565
H11 Re2 1.672762 1_555
H12 Re2 1.699687 1_555
H13 Re2 1.699686 1_456
H14 Re2 1.701080 1_566
H15 Re2 1.701080 1_565
H16 Re2 1.699686 1_455
H17 Re2 1.699687 1_556
H18 Re1 1.673861 1_555
H19 Re1 1.679694 1_555
H20 Re1 1.673144 1_555
H21 Re0 1.679701 1_555
H22 Re0 1.673867 1_555
H23 Re0 1.673134 1_555
H24 Re1 1.706186 1_555
H24 Na0 2.464057 1_455
H25 Re1 1.697503 1_555
H26 Re1 1.700561 1_555
