# generated using pymatgen
data_TiIn7IrO8
_symmetry_space_group_name_H-M   'P 1'
_cell_length_a   7.22165980
_cell_length_b   7.22165939
_cell_length_c   7.22165954
_cell_angle_alpha   59.99999485
_cell_angle_beta   59.99999675
_cell_angle_gamma   59.99999338
_symmetry_Int_Tables_number   1
_chemical_formula_structural   TiIn7IrO8
_chemical_formula_sum   'Ti1 In7 Ir1 O8'
_cell_volume   266.31522147
_cell_formula_units_Z   1
loop_
 _symmetry_equiv_pos_site_id
 _symmetry_equiv_pos_as_xyz
  1  'x, y, z'
loop_
 _atom_site_type_symbol
 _atom_site_label
 _atom_site_symmetry_multiplicity
 _atom_site_fract_x
 _atom_site_fract_y
 _atom_site_fract_z
 _atom_site_occupancy
  Ti  Ti0  1  0.25000000  0.25000000  0.25000000  1
  In  In0  1  0.25096724  0.74903276  0.74903276  1
  In  In1  1  0.74903276  0.25096724  0.25096724  1
  In  In2  1  0.25096724  0.25096724  0.74903276  1
  In  In3  1  0.25096724  0.74903276  0.25096724  1
  In  In4  1  0.74903276  0.74903276  0.25096724  1
  In  In5  1  0.74903276  0.25096724  0.74903276  1
  In  In6  1  0.75000000  0.75000000  0.75000000  1
  Ir  Ir0  1  0.00000000  0.00000000  0.00000000  1
  O  O0  1  0.35401538  0.93795385  0.35401538  1
  O  O1  1  0.63043955  0.63043955  0.63043955  1
  O  O2  1  0.93795385  0.35401538  0.35401538  1
  O  O3  1  0.63043955  0.10868135  0.63043955  1
  O  O4  1  0.35401538  0.35401538  0.35401538  1
  O  O5  1  0.10868135  0.63043955  0.63043955  1
  O  O6  1  0.35401538  0.35401538  0.93795385  1
  O  O7  1  0.63043955  0.63043955  0.10868135  1
loop_
_geom_bond_atom_site_label_1
_geom_bond_atom_site_label_2
_geom_bond_distance
_geom_bond_site_symmetry_2
In0 O1 2.239723 1_555
In0 O5 2.239723 1_555
In0 O6 2.356562 1_555
In0 O0 2.356562 1_555
In0 Ir0 2.563120 1_566
In1 O7 2.239723 1_555
In1 O3 2.239723 1_555
In1 O4 2.356562 1_555
In1 O2 2.356562 1_555
In1 Ir0 2.563120 1_655
In2 O5 2.239723 1_555
In2 O3 2.239723 1_555
In2 O4 2.356562 1_555
In2 O6 2.356562 1_555
In2 Ir0 2.563121 1_556
In3 O5 2.239723 1_555
In3 O7 2.239723 1_555
In3 O4 2.356562 1_555
In3 O0 2.356562 1_555
In3 Ir0 2.563120 1_565
In4 O1 2.239723 1_555
In4 O7 2.239723 1_555
In4 O2 2.356562 1_555
In4 O0 2.356562 1_555
In4 Ir0 2.563121 1_665
In5 O1 2.239723 1_555
In5 O3 2.239723 1_555
In5 O2 2.356562 1_555
In5 O6 2.356562 1_555
In5 Ir0 2.563120 1_656
In6 O3 2.114950 1_565
In6 O7 2.114950 1_556
In6 O5 2.114950 1_655
In6 O1 2.114950 1_555
O0 Ti0 1.839968 1_565
O2 Ti0 1.839968 1_655
O4 Ti0 1.839968 1_555
O6 Ti0 1.839968 1_556
