# generated using pymatgen
data_NaSr4Bi2P
_symmetry_space_group_name_H-M   'P 1'
_cell_length_a   8.60962909
_cell_length_b   9.77456544
_cell_length_c   13.21851522
_cell_angle_alpha   90.00000000
_cell_angle_beta   90.00000000
_cell_angle_gamma   90.00000000
_symmetry_Int_Tables_number   1
_chemical_formula_structural   NaSr4Bi2P
_chemical_formula_sum   'Na4 Sr16 Bi8 P4'
_cell_volume   1112.40921034
_cell_formula_units_Z   4
loop_
 _symmetry_equiv_pos_site_id
 _symmetry_equiv_pos_as_xyz
  1  'x, y, z'
loop_
 _atom_site_type_symbol
 _atom_site_label
 _atom_site_symmetry_multiplicity
 _atom_site_fract_x
 _atom_site_fract_y
 _atom_site_fract_z
 _atom_site_occupancy
  Na  Na0  1  0.00130933  0.75000000  0.49949521  1
  Na  Na1  1  0.99869067  0.25000000  0.50050479  1
  Na  Na2  1  0.50130933  0.25000000  0.00050479  1
  Na  Na3  1  0.49869067  0.75000000  0.99949521  1
  Sr  Sr0  1  0.84936246  0.75000000  0.79746891  1
  Sr  Sr1  1  0.15063754  0.25000000  0.20253109  1
  Sr  Sr2  1  0.34936246  0.25000000  0.70253109  1
  Sr  Sr3  1  0.65063754  0.75000000  0.29746891  1
  Sr  Sr4  1  0.69636720  0.50087194  0.56311881  1
  Sr  Sr5  1  0.30363280  0.49912806  0.43688119  1
  Sr  Sr6  1  0.19636720  0.49912806  0.93688119  1
  Sr  Sr7  1  0.30363280  0.00087194  0.43688119  1
  Sr  Sr8  1  0.80363280  0.50087194  0.06311881  1
  Sr  Sr9  1  0.69636720  0.99912806  0.56311881  1
  Sr  Sr10  1  0.80363280  0.99912806  0.06311881  1
  Sr  Sr11  1  0.19636720  0.00087194  0.93688119  1
  Sr  Sr12  1  0.34803649  0.75000000  0.70286817  1
  Sr  Sr13  1  0.65196351  0.25000000  0.29713183  1
  Sr  Sr14  1  0.84803649  0.25000000  0.79713183  1
  Sr  Sr15  1  0.15196351  0.75000000  0.20286817  1
  Bi  Bi0  1  0.56557364  0.50036943  0.83032405  1
  Bi  Bi1  1  0.43442636  0.49963057  0.16967595  1
  Bi  Bi2  1  0.06557364  0.49963057  0.66967595  1
  Bi  Bi3  1  0.43442636  0.00036943  0.16967595  1
  Bi  Bi4  1  0.93442636  0.50036943  0.33032405  1
  Bi  Bi5  1  0.56557364  0.99963057  0.83032405  1
  Bi  Bi6  1  0.93442636  0.99963057  0.33032405  1
  Bi  Bi7  1  0.06557364  0.00036943  0.66967595  1
  P  P0  1  0.00154732  0.75000000  0.99973794  1
  P  P1  1  0.99845268  0.25000000  0.00026206  1
  P  P2  1  0.50154732  0.25000000  0.50026206  1
  P  P3  1  0.49845268  0.75000000  0.49973794  1
loop_
_geom_bond_atom_site_label_1
_geom_bond_atom_site_label_2
_geom_bond_distance
_geom_bond_site_symmetry_2
Bi0 Na3 3.359448 1_555
Bi0 Na2 3.369806 1_556
Bi0 Sr6 3.476841 1_555
Bi0 Sr14 3.477885 1_555
Bi0 Sr0 3.480252 1_555
Bi0 Sr12 3.507140 1_555
Bi0 Sr2 3.508237 1_555
Bi0 Sr8 3.697304 1_556
Bi0 Sr4 3.707224 1_555
Bi1 Na2 3.359448 1_555
Bi1 Na3 3.369806 1_554
Bi1 Sr8 3.476841 1_555
Bi1 Sr15 3.477885 1_555
Bi1 Sr1 3.480252 1_555
Bi1 Sr13 3.507140 1_555
Bi1 Sr3 3.508237 1_555
Bi1 Sr6 3.697304 1_554
Bi1 Sr5 3.707224 1_555
Bi2 Na1 3.359448 1_455
Bi2 Na0 3.369806 1_555
Bi2 Sr4 3.476841 1_455
Bi2 Sr12 3.477885 1_555
Bi2 Sr2 3.480252 1_555
Bi2 Sr14 3.507140 1_455
Bi2 Sr0 3.508237 1_455
Bi2 Sr5 3.697304 1_555
Bi2 Sr6 3.707224 1_555
Bi3 Na2 3.359448 1_555
Bi3 Na3 3.369806 1_544
Bi3 Sr10 3.476841 1_545
Bi3 Sr15 3.477885 1_545
Bi3 Sr1 3.480252 1_555
Bi3 Sr13 3.507140 1_555
Bi3 Sr3 3.508237 1_545
Bi3 Sr11 3.697304 1_554
Bi3 Sr7 3.707224 1_555
Bi4 Na0 3.359448 1_655
Bi4 Na1 3.369806 1_555
Bi4 Sr5 3.476841 1_655
Bi4 Sr13 3.477885 1_555
Bi4 Sr3 3.480252 1_555
Bi4 Sr15 3.507140 1_655
Bi4 Sr1 3.508237 1_655
Bi4 Sr4 3.697304 1_555
Bi4 Sr8 3.707224 1_555
Bi5 Na3 3.359448 1_555
Bi5 Na2 3.369806 1_566
Bi5 Sr11 3.476841 1_565
Bi5 Sr14 3.477885 1_565
Bi5 Sr0 3.480252 1_555
Bi5 Sr12 3.507140 1_555
Bi5 Sr2 3.508237 1_565
Bi5 Sr10 3.697304 1_556
Bi5 Sr9 3.707224 1_555
Bi6 Na0 3.359448 1_655
Bi6 Na1 3.369806 1_565
Bi6 Sr7 3.476841 1_665
Bi6 Sr13 3.477885 1_565
Bi6 Sr3 3.480252 1_555
Bi6 Sr15 3.507140 1_655
Bi6 Sr1 3.508237 1_665
Bi6 Sr9 3.697304 1_555
Bi6 Sr10 3.707224 1_555
Bi7 Na1 3.359448 1_455
Bi7 Na0 3.369806 1_545
Bi7 Sr9 3.476841 1_445
Bi7 Sr12 3.477885 1_545
Bi7 Sr2 3.480252 1_555
Bi7 Sr14 3.507140 1_455
Bi7 Sr0 3.508237 1_445
Bi7 Sr7 3.697304 1_555
Bi7 Sr11 3.707224 1_555
P0 Sr0 2.977486 1_455
P0 Sr15 2.981065 1_556
P0 Sr11 3.084945 1_565
P0 Sr6 3.084945 1_555
P0 Sr10 3.087917 1_456
P0 Sr8 3.087917 1_456
P1 Sr1 2.977486 1_655
P1 Sr14 2.981065 1_554
P1 Sr8 3.084945 1_555
P1 Sr10 3.084945 1_545
P1 Sr6 3.087917 1_654
P1 Sr11 3.087917 1_654
P2 Sr2 2.977486 1_555
P2 Sr13 2.981065 1_555
P2 Sr4 3.084945 1_555
P2 Sr9 3.084945 1_545
P2 Sr5 3.087917 1_555
P2 Sr7 3.087917 1_555
P3 Sr3 2.977486 1_555
P3 Sr12 2.981065 1_555
P3 Sr7 3.084945 1_565
P3 Sr5 3.084945 1_555
P3 Sr9 3.087917 1_555
P3 Sr4 3.087917 1_555
