# generated using pymatgen
data_Ca3Al12Ir3Ru
_symmetry_space_group_name_H-M   'P 1'
_cell_length_a   8.79942805
_cell_length_b   8.79942748
_cell_length_c   9.53286335
_cell_angle_alpha   90.00000000
_cell_angle_beta   90.00000000
_cell_angle_gamma   120.00000587
_symmetry_Int_Tables_number   1
_chemical_formula_structural   Ca3Al12Ir3Ru
_chemical_formula_sum   'Ca6 Al24 Ir6 Ru2'
_cell_volume   639.23836891
_cell_formula_units_Z   2
loop_
 _symmetry_equiv_pos_site_id
 _symmetry_equiv_pos_as_xyz
  1  'x, y, z'
loop_
 _atom_site_type_symbol
 _atom_site_label
 _atom_site_symmetry_multiplicity
 _atom_site_fract_x
 _atom_site_fract_y
 _atom_site_fract_z
 _atom_site_occupancy
  Ca  Ca0  1  0.19311434  0.80688566  0.25000000  1
  Ca  Ca1  1  0.19311434  0.38622769  0.25000000  1
  Ca  Ca2  1  0.61377231  0.80688566  0.25000000  1
  Ca  Ca3  1  0.80688566  0.19311434  0.75000000  1
  Ca  Ca4  1  0.80688566  0.61377231  0.75000000  1
  Ca  Ca5  1  0.38622769  0.19311434  0.75000000  1
  Al  Al0  1  0.56173511  0.43826489  0.25000000  1
  Al  Al1  1  0.56173511  0.12347122  0.25000000  1
  Al  Al2  1  0.87652878  0.43826489  0.25000000  1
  Al  Al3  1  0.43826489  0.56173511  0.75000000  1
  Al  Al4  1  0.43826489  0.87652878  0.75000000  1
  Al  Al5  1  0.12347122  0.56173511  0.75000000  1
  Al  Al6  1  0.32233559  0.16116780  0.42310715  1
  Al  Al7  1  0.83883220  0.16116780  0.42310715  1
  Al  Al8  1  0.83883220  0.67766441  0.42310715  1
  Al  Al9  1  0.67766441  0.83883220  0.57689285  1
  Al  Al10  1  0.16116780  0.83883220  0.57689285  1
  Al  Al11  1  0.16116780  0.32233559  0.57689285  1
  Al  Al12  1  0.67766441  0.83883220  0.92310715  1
  Al  Al13  1  0.16116780  0.83883220  0.92310715  1
  Al  Al14  1  0.16116780  0.32233559  0.92310715  1
  Al  Al15  1  0.32233559  0.16116780  0.07689285  1
  Al  Al16  1  0.83883220  0.16116780  0.07689285  1
  Al  Al17  1  0.83883220  0.67766441  0.07689285  1
  Al  Al18  1  0.66666700  0.33333300  0.49830857  1
  Al  Al19  1  0.33333300  0.66666700  0.50169143  1
  Al  Al20  1  0.33333300  0.66666700  0.99830857  1
  Al  Al21  1  0.66666700  0.33333300  0.00169143  1
  Al  Al22  1  0.00000000  0.00000000  0.25000000  1
  Al  Al23  1  0.00000000  0.00000000  0.75000000  1
  Ir  Ir0  1  0.50000000  0.50000000  0.50000000  1
  Ir  Ir1  1  0.50000000  0.00000000  0.50000000  1
  Ir  Ir2  1  0.00000000  0.50000000  0.50000000  1
  Ir  Ir3  1  0.50000000  0.50000000  0.00000000  1
  Ir  Ir4  1  0.50000000  0.00000000  0.00000000  1
  Ir  Ir5  1  0.00000000  0.50000000  0.00000000  1
  Ru  Ru0  1  0.00000000  0.00000000  0.50000000  1
  Ru  Ru1  1  0.00000000  0.00000000  0.00000000  1
loop_
_geom_bond_atom_site_label_1
_geom_bond_atom_site_label_2
_geom_bond_distance
_geom_bond_site_symmetry_2
Ca0 Ir5 3.357197 1_555
Ca0 Ir2 3.357197 1_555
Ca0 Ir1 3.357197 1_565
Ca0 Ir4 3.357197 1_565
Ca1 Ir0 3.357196 1_555
Ca1 Ir3 3.357196 1_555
Ca1 Ir2 3.357202 1_555
Ca1 Ir5 3.357202 1_555
Ca2 Ir0 3.357196 1_555
Ca2 Ir3 3.357196 1_555
Ca2 Ir1 3.357202 1_565
Ca2 Ir4 3.357202 1_565
Ca3 Ir2 3.357197 1_655
Ca3 Ir5 3.357197 1_656
Ca3 Ir1 3.357197 1_555
Ca3 Ir4 3.357197 1_556
Ca4 Ir0 3.357196 1_555
Ca4 Ir3 3.357196 1_556
Ca4 Ir2 3.357202 1_655
Ca4 Ir5 3.357202 1_656
Ca5 Ir0 3.357196 1_555
Ca5 Ir3 3.357196 1_556
Ca5 Ir1 3.357202 1_555
Ca5 Ir4 3.357202 1_556
Al0 Ir0 2.562231 1_555
Al0 Ir3 2.562231 1_555
Al0 Ca2 3.040672 1_555
Al0 Ca1 3.040672 1_555
Al1 Ir1 2.562233 1_555
Al1 Ir4 2.562233 1_555
Al1 Ca0 3.040679 1_545
Al1 Ca2 3.040690 1_545
Al2 Ir5 2.562233 1_655
Al2 Ir2 2.562233 1_655
Al2 Ca0 3.040679 1_655
Al2 Ca1 3.040690 1_655
Al3 Ir0 2.562231 1_555
Al3 Ir3 2.562231 1_556
Al3 Ca5 3.040672 1_555
Al3 Ca4 3.040672 1_555
Al4 Ir4 2.562233 1_566
Al4 Ir1 2.562233 1_565
Al4 Ca3 3.040679 1_565
Al4 Ca5 3.040690 1_565
Al5 Ir5 2.562233 1_556
Al5 Ir2 2.562233 1_555
Al5 Ca3 3.040679 1_455
Al5 Ca4 3.040690 1_455
Al6 Ru0 2.563405 1_555
Al6 Ir0 2.685090 1_555
Al6 Ir1 2.685090 1_555
Al6 Ca5 3.154032 1_555
Al6 Ca1 3.192171 1_555
Al6 Ca0 3.192177 1_545
Al7 Ru0 2.563405 1_655
Al7 Ir2 2.685090 1_655
Al7 Ir1 2.685090 1_555
Al7 Ca3 3.154034 1_555
Al7 Ca2 3.192176 1_545
Al7 Ca1 3.192176 1_655
Al8 Ru0 2.563404 1_665
Al8 Ir0 2.685090 1_555
Al8 Ir2 2.685090 1_655
Al8 Ca4 3.154032 1_555
Al8 Ca2 3.192171 1_555
Al8 Ca0 3.192177 1_655
Al9 Ru0 2.563405 1_665
Al9 Ir0 2.685090 1_555
Al9 Ir1 2.685090 1_565
Al9 Ca2 3.154032 1_555
Al9 Ca4 3.192171 1_555
Al9 Ca3 3.192177 1_565
Al10 Ru0 2.563405 1_565
Al10 Ir2 2.685090 1_555
Al10 Ir1 2.685090 1_565
Al10 Ca0 3.154034 1_555
Al10 Ca5 3.192176 1_565
Al10 Ca4 3.192176 1_455
Al11 Ru0 2.563404 1_555
Al11 Ir0 2.685090 1_555
Al11 Ir2 2.685090 1_555
Al11 Ca1 3.154032 1_555
Al11 Ca5 3.192171 1_555
Al11 Ca3 3.192177 1_455
Al12 Ru1 2.563405 1_666
Al12 Ir3 2.685090 1_556
Al12 Ir4 2.685090 1_566
Al12 Ca2 3.154032 1_556
Al12 Ca4 3.192171 1_555
Al12 Ca3 3.192177 1_565
Al13 Ru1 2.563405 1_566
Al13 Ir5 2.685090 1_556
Al13 Ir4 2.685090 1_566
Al13 Ca0 3.154034 1_556
Al13 Ca5 3.192176 1_565
Al13 Ca4 3.192176 1_455
Al14 Ru1 2.563404 1_556
Al14 Ir3 2.685090 1_556
Al14 Ir5 2.685090 1_556
Al14 Ca1 3.154032 1_556
Al14 Ca5 3.192171 1_555
Al14 Ca3 3.192177 1_455
Al15 Ru1 2.563405 1_555
Al15 Ir3 2.685090 1_555
Al15 Ir4 2.685090 1_555
Al15 Ca5 3.154032 1_554
Al15 Ca1 3.192171 1_555
Al15 Ca0 3.192177 1_545
Al16 Ru1 2.563405 1_655
Al16 Ir5 2.685090 1_655
Al16 Ir4 2.685090 1_555
Al16 Ca3 3.154034 1_554
Al16 Ca2 3.192176 1_545
Al16 Ca1 3.192176 1_655
Al17 Ru1 2.563404 1_665
Al17 Ir3 2.685090 1_555
Al17 Ir5 2.685090 1_655
Al17 Ca4 3.154032 1_554
Al17 Ca2 3.192171 1_555
Al17 Ca0 3.192177 1_655
Al18 Ir1 2.540224 1_555
Al18 Ir2 2.540225 1_655
Al18 Ir0 2.540232 1_555
Al18 Ca3 3.213090 1_555
Al18 Ca4 3.213100 1_555
Al18 Ca5 3.213100 1_555
Al19 Ir1 2.540224 1_565
Al19 Ir2 2.540225 1_555
Al19 Ir0 2.540232 1_555
Al19 Ca0 3.213090 1_555
Al19 Ca1 3.213100 1_555
Al19 Ca2 3.213100 1_555
Al20 Ir4 2.540224 1_566
Al20 Ir5 2.540225 1_556
Al20 Ir3 2.540232 1_556
Al20 Ca0 3.213090 1_556
Al20 Ca1 3.213100 1_556
Al20 Ca2 3.213100 1_556
Al21 Ir4 2.540224 1_555
Al21 Ir5 2.540225 1_655
Al21 Ir3 2.540232 1_555
Al21 Ca3 3.213090 1_554
Al21 Ca4 3.213100 1_554
Al21 Ca5 3.213100 1_554
Al22 Ru0 2.383216 1_555
Al22 Ru1 2.383216 1_555
Al22 Ca1 2.943259 1_555
Al22 Ca2 2.943259 1_445
Al22 Ca0 2.943267 1_545
Al23 Ru0 2.383216 1_555
Al23 Ru1 2.383216 1_556
Al23 Ca4 2.943259 1_445
Al23 Ca5 2.943259 1_555
Al23 Ca3 2.943267 1_455
