# generated using pymatgen
data_Y3Sc3Bi2W
_symmetry_space_group_name_H-M   'P 1'
_cell_length_a   7.95353502
_cell_length_b   7.95353510
_cell_length_c   4.33637046
_cell_angle_alpha   90.00000000
_cell_angle_beta   90.00000000
_cell_angle_gamma   119.99999144
_symmetry_Int_Tables_number   1
_chemical_formula_structural   Y3Sc3Bi2W
_chemical_formula_sum   'Y3 Sc3 Bi2 W1'
_cell_volume   237.56225902
_cell_formula_units_Z   1
loop_
 _symmetry_equiv_pos_site_id
 _symmetry_equiv_pos_as_xyz
  1  'x, y, z'
loop_
 _atom_site_type_symbol
 _atom_site_label
 _atom_site_symmetry_multiplicity
 _atom_site_fract_x
 _atom_site_fract_y
 _atom_site_fract_z
 _atom_site_occupancy
  Y  Y0  1  0.60505919  1.00000000  0.00000000  1
  Y  Y1  1  1.00000000  0.60505919  0.00000000  1
  Y  Y2  1  0.39494081  0.39494081  0.00000000  1
  Sc  Sc0  1  0.22649218  0.00000000  0.50000000  1
  Sc  Sc1  1  0.00000000  0.22649218  0.50000000  1
  Sc  Sc2  1  0.77350782  0.77350782  0.50000000  1
  Bi  Bi0  1  0.33333300  0.66666700  0.50000000  1
  Bi  Bi1  1  0.66666700  0.33333300  0.50000000  1
  W  W0  1  0.00000000  0.00000000  0.00000000  1
loop_
_geom_bond_atom_site_label_1
_geom_bond_atom_site_label_2
_geom_bond_distance
_geom_bond_site_symmetry_2
Sc0 W0 2.818886 1_556
Sc0 W0 2.818886 1_555
Sc0 Sc1 3.120140 1_555
Sc0 Sc2 3.120140 1_445
Sc0 Y2 3.486337 1_556
Sc0 Y2 3.486337 1_555
Sc0 Y1 3.486337 1_445
Sc0 Y1 3.486337 1_446
Sc0 Y0 3.710367 1_545
Sc0 Y0 3.710367 1_546
Sc1 W0 2.818886 1_556
Sc1 W0 2.818886 1_555
Sc1 Sc2 3.120140 1_445
Sc1 Y2 3.486337 1_556
Sc1 Y2 3.486337 1_555
Sc1 Y0 3.486337 1_445
Sc1 Y0 3.486337 1_446
Sc1 Y1 3.710367 1_456
Sc1 Y1 3.710367 1_455
Sc2 W0 2.818886 1_666
Sc2 W0 2.818886 1_665
Sc2 Y1 3.486337 1_556
Sc2 Y1 3.486337 1_555
Sc2 Y0 3.486337 1_556
Sc2 Y0 3.486337 1_555
Sc2 Y2 3.710367 1_556
Sc2 Y2 3.710367 1_555
Bi0 Sc0 3.162862 1_565
Bi0 Sc1 3.162868 1_555
Bi0 Sc2 3.162870 1_555
Bi0 Y1 3.266617 1_455
Bi0 Y1 3.266617 1_456
Bi0 Y0 3.266619 1_556
Bi0 Y0 3.266619 1_555
Bi0 Y2 3.266622 1_556
Bi0 Y2 3.266622 1_555
Bi1 Sc1 3.162862 1_655
Bi1 Sc0 3.162868 1_555
Bi1 Sc2 3.162870 1_555
Bi1 Y0 3.266617 1_545
Bi1 Y0 3.266617 1_546
Bi1 Y1 3.266619 1_555
Bi1 Y1 3.266619 1_556
Bi1 Y2 3.266622 1_556
Bi1 Y2 3.266622 1_555
W0 Y0 3.141176 1_445
W0 Y1 3.141176 1_445
W0 Y2 3.141176 1_555
