# generated using pymatgen
data_RbTaSe3
_symmetry_space_group_name_H-M   'P 1'
_cell_length_a   7.47779701
_cell_length_b   7.47779771
_cell_length_c   6.17053068
_cell_angle_alpha   90.00000000
_cell_angle_beta   90.00000000
_cell_angle_gamma   120.00000099
_symmetry_Int_Tables_number   1
_chemical_formula_structural   RbTaSe3
_chemical_formula_sum   'Rb2 Ta2 Se6'
_cell_volume   298.81371516
_cell_formula_units_Z   2
loop_
 _symmetry_equiv_pos_site_id
 _symmetry_equiv_pos_as_xyz
  1  'x, y, z'
loop_
 _atom_site_type_symbol
 _atom_site_label
 _atom_site_symmetry_multiplicity
 _atom_site_fract_x
 _atom_site_fract_y
 _atom_site_fract_z
 _atom_site_occupancy
  Rb  Rb0  1  0.33333300  0.66666700  0.25365729  1
  Rb  Rb1  1  0.66666700  0.33333300  0.75365729  1
  Ta  Ta0  1  0.00000000  0.00000000  0.95404498  1
  Ta  Ta1  1  0.00000000  0.00000000  0.45404498  1
  Se  Se0  1  0.16189579  0.83810421  0.74922891  1
  Se  Se1  1  0.16189579  0.32379157  0.74922891  1
  Se  Se2  1  0.67620843  0.83810421  0.74922891  1
  Se  Se3  1  0.83810421  0.16189579  0.24922891  1
  Se  Se4  1  0.83810421  0.67620843  0.24922891  1
  Se  Se5  1  0.32379157  0.16189579  0.24922891  1
loop_
_geom_bond_atom_site_label_1
_geom_bond_atom_site_label_2
_geom_bond_distance
_geom_bond_site_symmetry_2
Rb0 Se4 3.739505 1_455
Rb0 Se5 3.739505 1_565
Rb0 Se3 3.739509 1_565
Rb0 Se3 3.739509 1_455
Rb0 Se4 3.739513 1_555
Rb0 Se5 3.739513 1_555
Rb0 Se0 3.779069 1_555
Rb0 Se2 3.779072 1_555
Rb0 Se1 3.779072 1_555
Rb0 Se0 3.823426 1_554
Rb0 Se2 3.823429 1_554
Rb0 Se1 3.823429 1_554
Rb1 Se1 3.739505 1_655
Rb1 Se2 3.739505 1_545
Rb1 Se0 3.739509 1_545
Rb1 Se0 3.739509 1_655
Rb1 Se1 3.739513 1_555
Rb1 Se2 3.739513 1_555
Rb1 Se3 3.779069 1_556
Rb1 Se5 3.779072 1_556
Rb1 Se4 3.779072 1_556
Rb1 Se3 3.823426 1_555
Rb1 Se5 3.823429 1_555
Rb1 Se4 3.823429 1_555
Se0 Ta0 2.448281 1_565
Se0 Ta1 2.777495 1_565
Se1 Ta0 2.448281 1_555
Se1 Ta1 2.777495 1_555
Se2 Ta0 2.448281 1_665
Se2 Ta1 2.777495 1_665
Se3 Ta1 2.448281 1_655
Se3 Ta0 2.777495 1_654
Se4 Ta1 2.448281 1_665
Se4 Ta0 2.777495 1_664
Se5 Ta1 2.448281 1_555
Se5 Ta0 2.777495 1_554
