# generated using pymatgen
data_Ca6Cd32Ni
_symmetry_space_group_name_H-M   'P 1'
_cell_length_a   9.59076411
_cell_length_b   9.59076411
_cell_length_c   9.59076411
_cell_angle_alpha   90.00000000
_cell_angle_beta   90.00000000
_cell_angle_gamma   90.00000000
_symmetry_Int_Tables_number   1
_chemical_formula_structural   Ca6Cd32Ni
_chemical_formula_sum   'Ca6 Cd32 Ni1'
_cell_volume   882.18491753
_cell_formula_units_Z   1
loop_
 _symmetry_equiv_pos_site_id
 _symmetry_equiv_pos_as_xyz
  1  'x, y, z'
loop_
 _atom_site_type_symbol
 _atom_site_label
 _atom_site_symmetry_multiplicity
 _atom_site_fract_x
 _atom_site_fract_y
 _atom_site_fract_z
 _atom_site_occupancy
  Ca  Ca0  1  0.20533545  0.00000000  0.50000000  1
  Ca  Ca1  1  0.79466455  0.00000000  0.50000000  1
  Ca  Ca2  1  0.50000000  0.20533545  0.00000000  1
  Ca  Ca3  1  0.50000000  0.79466455  0.00000000  1
  Ca  Ca4  1  0.00000000  0.50000000  0.20533545  1
  Ca  Ca5  1  0.00000000  0.50000000  0.79466455  1
  Cd  Cd0  1  0.32230914  0.50000000  0.00000000  1
  Cd  Cd1  1  0.67769086  0.50000000  0.00000000  1
  Cd  Cd2  1  0.00000000  0.32230914  0.50000000  1
  Cd  Cd3  1  0.00000000  0.67769086  0.50000000  1
  Cd  Cd4  1  0.50000000  0.00000000  0.32230914  1
  Cd  Cd5  1  0.50000000  0.00000000  0.67769086  1
  Cd  Cd6  1  0.28144923  0.28144923  0.28144923  1
  Cd  Cd7  1  0.71855077  0.71855077  0.71855077  1
  Cd  Cd8  1  0.71855077  0.71855077  0.28144923  1
  Cd  Cd9  1  0.71855077  0.28144923  0.71855077  1
  Cd  Cd10  1  0.28144923  0.28144923  0.71855077  1
  Cd  Cd11  1  0.28144923  0.71855077  0.28144923  1
  Cd  Cd12  1  0.28144923  0.71855077  0.71855077  1
  Cd  Cd13  1  0.71855077  0.28144923  0.28144923  1
  Cd  Cd14  1  0.25911515  0.50000000  0.50000000  1
  Cd  Cd15  1  0.74088485  0.50000000  0.50000000  1
  Cd  Cd16  1  0.50000000  0.25911515  0.50000000  1
  Cd  Cd17  1  0.50000000  0.74088485  0.50000000  1
  Cd  Cd18  1  0.50000000  0.50000000  0.25911515  1
  Cd  Cd19  1  0.50000000  0.50000000  0.74088485  1
  Cd  Cd20  1  0.00000000  0.14987317  0.25638390  1
  Cd  Cd21  1  0.00000000  0.85012683  0.74361610  1
  Cd  Cd22  1  0.00000000  0.85012683  0.25638390  1
  Cd  Cd23  1  0.00000000  0.14987317  0.74361610  1
  Cd  Cd24  1  0.25638390  0.00000000  0.14987317  1
  Cd  Cd25  1  0.74361610  0.00000000  0.85012683  1
  Cd  Cd26  1  0.25638390  0.00000000  0.85012683  1
  Cd  Cd27  1  0.74361610  0.00000000  0.14987317  1
  Cd  Cd28  1  0.14987317  0.25638390  0.00000000  1
  Cd  Cd29  1  0.85012683  0.74361610  0.00000000  1
  Cd  Cd30  1  0.14987317  0.74361610  0.00000000  1
  Cd  Cd31  1  0.85012683  0.25638390  0.00000000  1
  Ni  Ni0  1  0.00000000  0.00000000  0.00000000  1
loop_
_geom_bond_atom_site_label_1
_geom_bond_atom_site_label_2
_geom_bond_distance
_geom_bond_site_symmetry_2
Ca0 Cd5 3.300132 1_555
Ca0 Cd4 3.300132 1_555
Ca0 Cd23 3.376894 1_555
Ca0 Cd21 3.376894 1_545
Ca0 Cd20 3.376894 1_555
Ca0 Cd22 3.376894 1_545
Ca0 Cd26 3.393488 1_555
Ca0 Cd24 3.393488 1_555
Ca0 Cd11 3.494665 1_545
Ca0 Cd6 3.494665 1_555
Ca0 Cd12 3.494665 1_545
Ca0 Cd10 3.494665 1_555
Ca0 Cd2 3.665201 1_555
Ca0 Cd3 3.665201 1_545
Ca0 Cd17 3.763295 1_545
Ca0 Cd16 3.763295 1_555
Ca0 Ca1 3.938648 1_455
Ca1 Cd5 3.300132 1_555
Ca1 Cd4 3.300132 1_555
Ca1 Cd23 3.376894 1_655
Ca1 Cd21 3.376894 1_645
Ca1 Cd20 3.376894 1_655
Ca1 Cd22 3.376894 1_645
Ca1 Cd25 3.393488 1_555
Ca1 Cd27 3.393488 1_555
Ca1 Cd8 3.494665 1_545
Ca1 Cd7 3.494665 1_545
Ca1 Cd13 3.494665 1_555
Ca1 Cd9 3.494665 1_555
Ca1 Cd2 3.665201 1_655
Ca1 Cd3 3.665201 1_645
Ca1 Cd17 3.763295 1_545
Ca1 Cd16 3.763295 1_555
Ca2 Cd1 3.300132 1_555
Ca2 Cd0 3.300132 1_555
Ca2 Cd27 3.376894 1_555
Ca2 Cd25 3.376894 1_554
Ca2 Cd24 3.376894 1_555
Ca2 Cd26 3.376894 1_554
Ca2 Cd31 3.393488 1_555
Ca2 Cd28 3.393488 1_555
Ca2 Cd10 3.494665 1_554
Ca2 Cd9 3.494665 1_554
Ca2 Cd6 3.494665 1_555
Ca2 Cd13 3.494665 1_555
Ca2 Cd4 3.665201 1_555
Ca2 Cd5 3.665201 1_554
Ca2 Cd19 3.763295 1_554
Ca2 Cd18 3.763295 1_555
Ca2 Ca3 3.938648 1_545
Ca3 Cd1 3.300132 1_555
Ca3 Cd0 3.300132 1_555
Ca3 Cd27 3.376894 1_565
Ca3 Cd25 3.376894 1_564
Ca3 Cd24 3.376894 1_565
Ca3 Cd26 3.376894 1_564
Ca3 Cd29 3.393488 1_555
Ca3 Cd30 3.393488 1_555
Ca3 Cd12 3.494665 1_554
Ca3 Cd7 3.494665 1_554
Ca3 Cd11 3.494665 1_555
Ca3 Cd8 3.494665 1_555
Ca3 Cd4 3.665201 1_565
Ca3 Cd5 3.665201 1_564
Ca3 Cd19 3.763295 1_554
Ca3 Cd18 3.763295 1_555
Ca4 Cd3 3.300132 1_555
Ca4 Cd2 3.300132 1_555
Ca4 Cd30 3.376894 1_555
Ca4 Cd29 3.376894 1_455
Ca4 Cd28 3.376894 1_555
Ca4 Cd31 3.376894 1_455
Ca4 Cd22 3.393488 1_555
Ca4 Cd20 3.393488 1_555
Ca4 Cd13 3.494665 1_455
Ca4 Cd8 3.494665 1_455
Ca4 Cd6 3.494665 1_555
Ca4 Cd11 3.494665 1_555
Ca4 Cd0 3.665201 1_555
Ca4 Cd1 3.665201 1_455
Ca4 Cd15 3.763295 1_455
Ca4 Cd14 3.763295 1_555
Ca4 Ca5 3.938648 1_554
Ca5 Cd3 3.300132 1_555
Ca5 Cd2 3.300132 1_555
Ca5 Cd30 3.376894 1_556
Ca5 Cd29 3.376894 1_456
Ca5 Cd28 3.376894 1_556
Ca5 Cd31 3.376894 1_456
Ca5 Cd21 3.393488 1_555
Ca5 Cd23 3.393488 1_555
Ca5 Cd9 3.494665 1_455
Ca5 Cd7 3.494665 1_455
Ca5 Cd10 3.494665 1_555
Ca5 Cd12 3.494665 1_555
Ca5 Cd0 3.665201 1_556
Ca5 Cd1 3.665201 1_456
Ca5 Cd15 3.763295 1_455
Ca5 Cd14 3.763295 1_555
Cd0 Cd30 2.862533 1_555
Cd0 Cd28 2.862533 1_555
Cd0 Cd19 3.013312 1_554
Cd0 Cd18 3.013312 1_555
Cd0 Cd1 3.408382 1_555
Cd0 Cd10 3.439966 1_554
Cd0 Cd12 3.439966 1_554
Cd0 Cd6 3.439966 1_555
Cd0 Cd11 3.439966 1_555
Cd1 Cd29 2.862533 1_555
Cd1 Cd31 2.862533 1_555
Cd1 Cd19 3.013312 1_554
Cd1 Cd18 3.013312 1_555
Cd1 Cd9 3.439966 1_554
Cd1 Cd13 3.439966 1_555
Cd1 Cd7 3.439966 1_554
Cd1 Cd8 3.439966 1_555
Cd2 Cd23 2.862533 1_555
Cd2 Cd20 2.862533 1_555
Cd2 Cd3 3.408382 1_555
Cd2 Cd9 3.439966 1_455
Cd2 Cd6 3.439966 1_555
Cd3 Cd8 3.439966 1_455
Cd3 Cd7 3.439966 1_455
Cd4 Cd5 3.408382 1_555
Cd4 Cd8 3.439966 1_545
Cd4 Cd6 3.439966 1_555
Cd5 Cd7 3.439966 1_545
Cd5 Cd9 3.439966 1_555
Cd10 Cd14 2.972018 1_555
Cd10 Cd16 2.972018 1_555
Cd10 Cd19 2.972018 1_555
Cd10 Cd26 2.989400 1_555
Cd10 Cd23 2.989400 1_555
Cd10 Cd28 2.989400 1_556
Cd10 Cd2 3.439966 1_555
Cd10 Cd5 3.439966 1_555
Cd11 Cd14 2.972018 1_555
Cd11 Cd18 2.972018 1_555
Cd11 Cd17 2.972018 1_555
Cd11 Cd22 2.989400 1_555
Cd11 Cd30 2.989400 1_555
Cd11 Cd24 2.989400 1_565
Cd11 Cd4 3.439966 1_565
Cd11 Cd3 3.439966 1_555
Cd12 Cd14 2.972018 1_555
Cd12 Cd17 2.972018 1_555
Cd12 Cd19 2.972018 1_555
Cd12 Cd21 2.989400 1_555
Cd12 Cd26 2.989400 1_565
Cd12 Cd30 2.989400 1_556
Cd12 Cd5 3.439966 1_565
Cd12 Cd3 3.439966 1_555
Cd13 Cd18 2.972018 1_555
Cd13 Cd16 2.972018 1_555
Cd13 Cd15 2.972018 1_555
Cd13 Cd31 2.989400 1_555
Cd13 Cd27 2.989400 1_555
Cd13 Cd20 2.989400 1_655
Cd13 Cd2 3.439966 1_655
Cd13 Cd4 3.439966 1_555
Cd14 Cd6 2.972018 1_555
Cd14 Cd3 3.013312 1_555
Cd14 Cd2 3.013312 1_555
Cd14 Cd18 3.267215 1_555
Cd14 Cd16 3.267215 1_555
Cd14 Cd17 3.267215 1_555
Cd14 Cd19 3.267215 1_555
Cd15 Cd8 2.972018 1_555
Cd15 Cd9 2.972018 1_555
Cd15 Cd7 2.972018 1_555
Cd15 Cd3 3.013312 1_655
Cd15 Cd2 3.013312 1_655
Cd15 Cd18 3.267215 1_555
Cd15 Cd16 3.267215 1_555
Cd15 Cd17 3.267215 1_555
Cd15 Cd19 3.267215 1_555
Cd16 Cd6 2.972018 1_555
Cd16 Cd9 2.972018 1_555
Cd16 Cd5 3.013312 1_555
Cd16 Cd4 3.013312 1_555
Cd16 Cd18 3.267215 1_555
Cd16 Cd19 3.267215 1_555
Cd17 Cd8 2.972018 1_555
Cd17 Cd7 2.972018 1_555
Cd17 Cd5 3.013312 1_565
Cd17 Cd4 3.013312 1_565
Cd17 Cd18 3.267215 1_555
Cd17 Cd19 3.267215 1_555
Cd18 Cd6 2.972018 1_555
Cd18 Cd8 2.972018 1_555
Cd19 Cd9 2.972018 1_555
Cd19 Cd7 2.972018 1_555
Cd20 Ni0 2.848226 1_555
Cd20 Cd22 2.874796 1_545
Cd20 Cd6 2.989400 1_555
Cd20 Cd24 3.025870 1_555
Cd20 Cd28 3.025870 1_555
Cd20 Cd31 3.025870 1_455
Cd20 Cd27 3.025870 1_455
Cd21 Ni0 2.848226 1_566
Cd21 Cd3 2.862533 1_555
Cd21 Cd23 2.874796 1_565
Cd21 Cd7 2.989400 1_455
Cd21 Cd26 3.025870 1_565
Cd21 Cd30 3.025870 1_556
Cd21 Cd29 3.025870 1_456
Cd21 Cd25 3.025870 1_465
Cd22 Ni0 2.848226 1_565
Cd22 Cd3 2.862533 1_555
Cd22 Cd8 2.989400 1_455
Cd22 Cd30 3.025870 1_555
Cd22 Cd24 3.025870 1_565
Cd22 Cd29 3.025870 1_455
Cd22 Cd27 3.025870 1_465
Cd23 Ni0 2.848226 1_556
Cd23 Cd9 2.989400 1_455
Cd23 Cd26 3.025870 1_555
Cd23 Cd25 3.025870 1_455
Cd23 Cd28 3.025870 1_556
Cd23 Cd31 3.025870 1_456
Cd24 Ni0 2.848226 1_555
Cd24 Cd4 2.862533 1_555
Cd24 Cd26 2.874796 1_554
Cd24 Cd6 2.989400 1_555
Cd24 Cd28 3.025870 1_555
Cd24 Cd30 3.025870 1_545
Cd25 Ni0 2.848226 1_656
Cd25 Cd5 2.862533 1_555
Cd25 Cd27 2.874796 1_556
Cd25 Cd7 2.989400 1_545
Cd25 Cd9 2.989400 1_555
Cd25 Cd31 3.025870 1_556
Cd25 Cd29 3.025870 1_546
Cd26 Ni0 2.848226 1_556
Cd26 Cd5 2.862533 1_555
Cd26 Cd28 3.025870 1_556
Cd26 Cd30 3.025870 1_546
Cd27 Ni0 2.848226 1_655
Cd27 Cd4 2.862533 1_555
Cd27 Cd8 2.989400 1_545
Cd27 Cd31 3.025870 1_555
Cd27 Cd29 3.025870 1_545
Cd28 Ni0 2.848226 1_555
Cd28 Cd31 2.874796 1_455
Cd28 Cd6 2.989400 1_555
Cd29 Ni0 2.848226 1_665
Cd29 Cd30 2.874796 1_655
Cd29 Cd7 2.989400 1_554
Cd29 Cd8 2.989400 1_555
Cd30 Ni0 2.848226 1_565
Cd31 Ni0 2.848226 1_655
Cd31 Cd9 2.989400 1_554
