# generated using pymatgen
data_V11CoSi3Ge
_symmetry_space_group_name_H-M   'P 1'
_cell_length_a   4.66478350
_cell_length_b   4.66471238
_cell_length_c   9.31668039
_cell_angle_alpha   90.00000000
_cell_angle_beta   90.00000000
_cell_angle_gamma   90.00000000
_symmetry_Int_Tables_number   1
_chemical_formula_structural   V11CoSi3Ge
_chemical_formula_sum   'V11 Co1 Si3 Ge1'
_cell_volume   202.72978539
_cell_formula_units_Z   1
loop_
 _symmetry_equiv_pos_site_id
 _symmetry_equiv_pos_as_xyz
  1  'x, y, z'
loop_
 _atom_site_type_symbol
 _atom_site_label
 _atom_site_symmetry_multiplicity
 _atom_site_fract_x
 _atom_site_fract_y
 _atom_site_fract_z
 _atom_site_occupancy
  V  V0  1  0.00541327  0.50000000  0.13184953  1
  V  V1  1  0.99828740  0.50000000  0.62251246  1
  V  V2  1  0.49813016  0.24894918  0.74528676  1
  V  V3  1  0.49813016  0.24894918  0.25471324  1
  V  V4  1  0.75684677  0.00000000  0.00000000  1
  V  V5  1  0.00541327  0.50000000  0.86815047  1
  V  V6  1  0.99828740  0.50000000  0.37748754  1
  V  V7  1  0.49813016  0.75105082  0.74528676  1
  V  V8  1  0.49813016  0.75105082  0.25471324  1
  V  V9  1  0.24953096  0.00000000  0.00000000  1
  V  V10  1  0.24555105  0.00000000  0.50000000  1
  Co  Co0  1  0.74615628  0.00000000  0.50000000  1
  Si  Si0  1  0.49651201  0.50000000  0.50000000  1
  Si  Si1  1  0.00160255  0.00000000  0.74958530  1
  Si  Si2  1  0.00160255  0.00000000  0.25041470  1
  Ge  Ge0  1  0.50227285  0.50000000  0.00000000  1
loop_
_geom_bond_atom_site_label_1
_geom_bond_atom_site_label_2
_geom_bond_distance
_geom_bond_site_symmetry_2
V0 V6 2.288772 1_455
V0 V5 2.456800 1_554
V0 V8 2.822135 1_555
V0 V3 2.822135 1_555
V0 V8 2.877744 1_455
V0 V3 2.877744 1_455
V1 V6 2.282819 1_555
V1 V5 2.288772 1_655
V1 V10 2.841321 1_655
V1 V10 2.841321 1_665
V1 V7 2.848938 1_655
V1 V2 2.848938 1_655
V1 V7 2.850139 1_555
V1 V2 2.850139 1_555
V2 V7 2.322553 1_545
V2 V7 2.342160 1_555
V2 V5 2.822135 1_555
V2 V5 2.877744 1_655
V2 V9 2.885289 1_556
V2 V4 2.904580 1_556
V3 V8 2.322553 1_545
V3 V8 2.342160 1_555
V3 V6 2.848938 1_455
V3 V6 2.850139 1_555
V3 V9 2.885289 1_555
V3 V4 2.904580 1_555
V4 V9 2.298265 1_655
V4 V9 2.366518 1_555
V4 V8 2.904580 1_545
V4 V7 2.904580 1_544
V5 V7 2.822135 1_555
V5 V7 2.877744 1_455
V6 V8 2.848938 1_655
V6 V8 2.850139 1_555
V7 V9 2.885289 1_566
V8 V9 2.885289 1_565
V10 V2 2.821203 1_555
V10 V7 2.821203 1_545
V10 V3 2.821203 1_555
V10 V8 2.821203 1_545
V10 V6 2.841321 1_455
V10 V6 2.841321 1_445
Co0 V10 2.329569 1_655
Co0 V10 2.335215 1_555
Co0 Si0 2.606920 1_545
Co0 Si0 2.606920 1_555
Co0 Si1 2.612846 1_655
Co0 Si2 2.612846 1_655
Co0 V2 2.812399 1_555
Co0 V7 2.812399 1_545
Co0 V3 2.812399 1_555
Co0 V8 2.812399 1_545
Co0 V1 2.850614 1_555
Co0 V1 2.850614 1_545
Co0 V6 2.850614 1_545
Co0 V6 2.850614 1_555
Si0 V7 2.567857 1_555
Si0 V2 2.567857 1_555
Si0 V8 2.567857 1_555
Si0 V3 2.567857 1_555
Si0 V1 2.589267 1_455
Si0 V6 2.589267 1_455
Si0 V1 2.604144 1_555
Si0 V6 2.604144 1_555
Si0 V10 2.609669 1_565
Si0 V10 2.609669 1_555
Si1 V5 2.580778 1_545
Si1 V5 2.580778 1_555
Si1 V10 2.588826 1_555
Si1 V2 2.591316 1_555
Si1 V7 2.591316 1_545
Si1 V4 2.597422 1_456
Si1 V9 2.603961 1_556
Si1 V1 2.615671 1_455
Si1 V1 2.615671 1_445
Si1 V2 2.620313 1_455
Si1 V7 2.620313 1_445
Si2 V0 2.580778 1_555
Si2 V0 2.580778 1_545
Si2 V10 2.588826 1_555
Si2 V3 2.591316 1_555
Si2 V8 2.591316 1_545
Si2 V4 2.597422 1_455
Si2 V9 2.603961 1_555
Si2 V6 2.615671 1_445
Si2 V6 2.615671 1_455
Si2 V3 2.620313 1_455
Si2 V8 2.620313 1_445
Ge0 V9 2.613407 1_565
Ge0 V9 2.613407 1_555
Ge0 V4 2.617273 1_565
Ge0 V4 2.617273 1_555
Ge0 V0 2.623146 1_555
Ge0 V5 2.623146 1_554
Ge0 V8 2.646378 1_555
Ge0 V3 2.646378 1_555
Ge0 V7 2.646378 1_554
Ge0 V2 2.646378 1_554
Ge0 V0 2.649069 1_655
Ge0 V5 2.649069 1_654
