# generated using pymatgen
data_Lu6InTcNi
_symmetry_space_group_name_H-M   'P 1'
_cell_length_a   8.24065813
_cell_length_b   8.24065851
_cell_length_c   8.24065860
_cell_angle_alpha   113.74143030
_cell_angle_beta   110.96016228
_cell_angle_gamma   103.86714507
_symmetry_Int_Tables_number   1
_chemical_formula_structural   Lu6InTcNi
_chemical_formula_sum   'Lu12 In2 Tc2 Ni2'
_cell_volume   427.45764088
_cell_formula_units_Z   2
loop_
 _symmetry_equiv_pos_site_id
 _symmetry_equiv_pos_as_xyz
  1  'x, y, z'
loop_
 _atom_site_type_symbol
 _atom_site_label
 _atom_site_symmetry_multiplicity
 _atom_site_fract_x
 _atom_site_fract_y
 _atom_site_fract_z
 _atom_site_occupancy
  Lu  Lu0  1  0.66715231  0.84861879  0.18146648  1
  Lu  Lu1  1  0.33284769  0.51431517  0.18146648  1
  Lu  Lu2  1  0.81654314  0.78925428  0.60579743  1
  Lu  Lu3  1  0.18345686  0.78925428  0.97271114  1
  Lu  Lu4  1  0.81654314  0.21074572  0.02728886  1
  Lu  Lu5  1  0.18345686  0.21074572  0.39420257  1
  Lu  Lu6  1  0.66715231  0.48568483  0.81853352  1
  Lu  Lu7  1  0.33284769  0.15138121  0.81853352  1
  Lu  Lu8  1  0.55579500  0.25642007  0.29937393  1
  Lu  Lu9  1  0.44420500  0.74357993  0.70062607  1
  Lu  Lu10  1  0.04295386  0.74357993  0.29937393  1
  Lu  Lu11  1  0.95704614  0.25642007  0.70062607  1
  In  In0  1  0.00000000  0.50000000  0.50000000  1
  In  In1  1  0.50000000  0.00000000  0.50000000  1
  Tc  Tc0  1  0.31971682  0.50000000  0.81971682  1
  Tc  Tc1  1  0.68028318  0.50000000  0.18028318  1
  Ni  Ni0  1  0.88143574  0.88143574  1.00000000  1
  Ni  Ni1  1  0.11856426  0.11856426  0.00000000  1
loop_
_geom_bond_atom_site_label_1
_geom_bond_atom_site_label_2
_geom_bond_distance
_geom_bond_site_symmetry_2
Lu0 Ni0 2.722772 1_554
Lu0 Tc1 2.896941 1_555
Lu0 Tc0 2.896942 1_554
Lu1 Ni1 2.722779 1_555
Lu1 Tc0 2.896938 1_554
Lu1 Tc1 2.896944 1_555
Lu2 Ni0 2.826859 1_555
Lu2 Ni1 2.826859 1_666
Lu2 Tc1 2.899671 1_555
Lu3 Ni0 2.826859 1_455
Lu3 Ni1 2.826859 1_566
Lu3 Tc0 2.899671 1_555
Lu4 Ni1 2.826859 1_655
Lu4 Ni0 2.826859 1_544
Lu4 Tc1 2.899671 1_555
Lu5 Ni1 2.826859 1_555
Lu5 Ni0 2.826859 1_444
Lu5 Tc0 2.899671 1_555
Lu6 Ni0 2.722779 1_555
Lu6 Tc1 2.896938 1_556
Lu6 Tc0 2.896944 1_555
Lu7 Ni1 2.722772 1_556
Lu7 Tc0 2.896941 1_555
Lu7 Tc1 2.896942 1_556
Lu8 Tc1 2.713675 1_555
Lu8 Ni1 3.127415 1_555
Lu9 Tc0 2.713675 1_555
Lu9 Ni0 3.127415 1_555
Lu10 Tc1 2.713678 1_455
Lu10 Ni0 3.127409 1_454
Lu11 Tc0 2.713678 1_655
Lu11 Ni1 3.127409 1_656
In0 Tc0 2.986105 1_555
In0 Tc1 2.986105 1_455
In0 Lu8 3.104514 1_455
In0 Lu9 3.104514 1_555
In0 Lu10 3.104521 1_555
In0 Lu11 3.104521 1_455
In0 Lu2 3.118397 1_455
In0 Lu5 3.118397 1_555
In0 Lu3 3.118398 1_555
In0 Lu4 3.118398 1_455
In1 Lu11 3.209520 1_555
In1 Lu10 3.209520 1_545
In1 Lu9 3.209522 1_545
In1 Lu8 3.209522 1_555
In1 Lu6 3.334292 1_555
In1 Lu1 3.334292 1_545
In1 Lu7 3.334298 1_555
In1 Lu0 3.334298 1_545
In1 Lu2 3.513433 1_545
In1 Lu5 3.513433 1_555
In1 Lu4 3.513434 1_556
In1 Lu3 3.513434 1_544
Ni0 Ni1 2.409691 1_666
