# generated using pymatgen
data_CsNaTiS3
_symmetry_space_group_name_H-M   'P 1'
_cell_length_a   7.51076030
_cell_length_b   7.51112411
_cell_length_c   6.77319217
_cell_angle_alpha   92.53050332
_cell_angle_beta   92.53615877
_cell_angle_gamma   122.88677432
_symmetry_Int_Tables_number   1
_chemical_formula_structural   CsNaTiS3
_chemical_formula_sum   'Cs2 Na2 Ti2 S6'
_cell_volume   319.49587367
_cell_formula_units_Z   2
loop_
 _symmetry_equiv_pos_site_id
 _symmetry_equiv_pos_as_xyz
  1  'x, y, z'
loop_
 _atom_site_type_symbol
 _atom_site_label
 _atom_site_symmetry_multiplicity
 _atom_site_fract_x
 _atom_site_fract_y
 _atom_site_fract_z
 _atom_site_occupancy
  Cs  Cs0  1  0.26038789  0.73961777  0.25000056  1
  Cs  Cs1  1  0.73961421  0.26038004  0.74999854  1
  Na  Na0  1  0.57325307  0.42675015  0.25000498  1
  Na  Na1  1  0.42675048  0.57324637  0.74999902  1
  Ti  Ti0  1  0.94940264  0.05064346  0.25000877  1
  Ti  Ti1  1  0.05059597  0.94935338  0.74999061  1
  S  S0  1  0.79847361  0.76016186  0.00198309  1
  S  S1  1  0.78270392  0.21729678  0.24999132  1
  S  S2  1  0.23982272  0.20150902  0.49800289  1
  S  S3  1  0.76017369  0.79848988  0.50199496  1
  S  S4  1  0.21728808  0.78270203  0.75000718  1
  S  S5  1  0.20152773  0.23984226  0.99802109  1
loop_
_geom_bond_atom_site_label_1
_geom_bond_atom_site_label_2
_geom_bond_distance
_geom_bond_site_symmetry_2
Cs0 S4 3.433913 1_554
Cs0 S4 3.434073 1_555
Cs0 S1 3.602459 1_565
Cs0 S1 3.602517 1_455
Cs0 S3 3.842301 1_555
Cs0 S5 3.842548 1_554
Cs0 S0 3.869171 1_455
Cs0 S2 3.869364 1_565
Cs1 S1 3.433900 1_556
Cs1 S1 3.434062 1_555
Cs1 S4 3.602491 1_655
Cs1 S4 3.602497 1_545
Cs1 S2 3.842346 1_555
Cs1 S0 3.842606 1_556
Cs1 S5 3.869154 1_655
Cs1 S3 3.869336 1_545
Na0 S1 2.763595 1_555
Na0 S5 2.790875 1_554
Na0 S3 2.791150 1_555
Na0 S2 2.824452 1_555
Na0 S0 2.824467 1_555
Na1 S4 2.763686 1_555
Na1 S0 2.790860 1_556
Na1 S2 2.791156 1_555
Na1 S5 2.824436 1_555
Na1 S3 2.824451 1_555
S0 Ti0 2.385267 1_565
S0 Ti1 2.469069 1_654
S1 Ti0 2.199190 1_555
S2 Ti0 2.384724 1_455
S2 Ti1 2.469215 1_545
S3 Ti1 2.384742 1_655
S3 Ti0 2.469203 1_565
S4 Ti1 2.199133 1_555
S5 Ti1 2.385321 1_545
S5 Ti0 2.469065 1_456
