# generated using pymatgen
data_Ca10MnTcN10
_symmetry_space_group_name_H-M   'P 1'
_cell_length_a   6.81901402
_cell_length_b   6.81901240
_cell_length_c   8.78159743
_cell_angle_alpha   80.83655033
_cell_angle_beta   80.83655049
_cell_angle_gamma   59.51238411
_symmetry_Int_Tables_number   1
_chemical_formula_structural   Ca10MnTcN10
_chemical_formula_sum   'Ca10 Mn1 Tc1 N10'
_cell_volume   345.90714682
_cell_formula_units_Z   1
loop_
 _symmetry_equiv_pos_site_id
 _symmetry_equiv_pos_as_xyz
  1  'x, y, z'
loop_
 _atom_site_type_symbol
 _atom_site_label
 _atom_site_symmetry_multiplicity
 _atom_site_fract_x
 _atom_site_fract_y
 _atom_site_fract_z
 _atom_site_occupancy
  Ca  Ca0  1  0.88535400  0.35158030  0.83614006  1
  Ca  Ca1  1  0.87869568  0.87869568  0.82083547  1
  Ca  Ca2  1  0.74036820  0.74036820  0.52758652  1
  Ca  Ca3  1  0.74745277  0.25196787  0.51171230  1
  Ca  Ca4  1  0.62722922  0.12873671  0.14374302  1
  Ca  Ca5  1  0.35158030  0.88535400  0.83614006  1
  Ca  Ca6  1  0.25196787  0.74745277  0.51171230  1
  Ca  Ca7  1  0.24495969  0.24495969  0.49647063  1
  Ca  Ca8  1  0.13777244  0.13777244  0.16496935  1
  Ca  Ca9  1  0.12873671  0.62722922  0.14374302  1
  Mn  Mn0  1  0.36787075  0.36787075  0.77055466  1
  Tc  Tc0  1  0.62991262  0.62991262  0.22321592  1
  N  N0  1  0.90791009  0.47427808  0.32257383  1
  N  N1  1  0.99623458  0.99623458  0.01896259  1
  N  N2  1  0.68833498  0.68833498  0.02056886  1
  N  N3  1  0.52525251  0.52525251  0.70503683  1
  N  N4  1  0.47427808  0.90791009  0.32257383  1
  N  N5  1  0.53157236  0.09732388  0.67906692  1
  N  N6  1  0.47261828  0.47261828  0.29027048  1
  N  N7  1  0.31355209  0.31355209  0.97243466  1
  N  N8  1  0.06331091  0.06331091  0.64842877  1
  N  N9  1  0.09732388  0.53157236  0.67906692  1
loop_
_geom_bond_atom_site_label_1
_geom_bond_atom_site_label_2
_geom_bond_distance
_geom_bond_site_symmetry_2
Ca0 N8 2.455261 1_655
Ca0 N9 2.474717 1_655
Ca0 N3 2.504600 1_555
Ca0 N1 2.511814 1_546
Ca0 N2 2.657481 1_556
Ca1 N1 2.419114 1_556
Ca1 N8 2.419885 1_665
Ca1 N9 2.478316 1_655
Ca1 N5 2.478316 1_565
Ca1 N2 2.589568 1_556
Ca2 N0 2.473993 1_555
Ca2 N4 2.473993 1_555
Ca2 N5 2.575451 1_565
Ca2 N9 2.575452 1_655
Ca2 N3 2.731122 1_555
Ca3 N8 2.292494 1_655
Ca3 N5 2.414832 1_555
Ca3 N3 2.444169 1_555
Ca3 N0 2.560519 1_555
Ca3 N6 2.631582 1_555
Ca4 N1 2.340687 1_545
Ca4 N7 2.472302 1_554
Ca4 N4 2.477957 1_545
Ca4 N6 2.507250 1_555
Ca5 N8 2.455262 1_565
Ca5 N5 2.474717 1_565
Ca5 N3 2.504600 1_555
Ca5 N1 2.511815 1_456
Ca5 N2 2.657482 1_556
Ca6 N8 2.292494 1_565
Ca6 N9 2.414832 1_555
Ca6 N3 2.444169 1_555
Ca6 N4 2.560519 1_555
Ca6 N6 2.631582 1_555
Ca7 N8 2.313706 1_555
Ca7 N9 2.427326 1_555
Ca7 N5 2.427327 1_555
Ca7 N4 2.601945 1_545
Ca7 N0 2.601945 1_455
Ca7 N6 2.958642 1_555
Ca8 N1 2.289211 1_445
Ca8 N7 2.428801 1_554
Ca8 N0 2.511712 1_455
Ca8 N4 2.511712 1_545
Ca9 N1 2.340687 1_455
Ca9 N7 2.472302 1_554
Ca9 N0 2.477957 1_455
Ca9 N6 2.507250 1_555
Mn0 N7 1.771506 1_555
Mn0 N5 1.841693 1_555
Mn0 N9 1.841694 1_555
Mn0 N3 1.846575 1_555
N0 Tc0 1.916149 1_555
N2 Tc0 1.787095 1_555
N4 Tc0 1.916149 1_555
N6 Tc0 1.847347 1_555
