# generated using pymatgen
data_K8TiAs4
_symmetry_space_group_name_H-M   'P 1'
_cell_length_a   10.83113854
_cell_length_b   10.83113864
_cell_length_c   10.83114001
_cell_angle_alpha   60.00000180
_cell_angle_beta   60.00000149
_cell_angle_gamma   60.00000130
_symmetry_Int_Tables_number   1
_chemical_formula_structural   K8TiAs4
_chemical_formula_sum   'K16 Ti2 As8'
_cell_volume   898.47792832
_cell_formula_units_Z   2
loop_
 _symmetry_equiv_pos_site_id
 _symmetry_equiv_pos_as_xyz
  1  'x, y, z'
loop_
 _atom_site_type_symbol
 _atom_site_label
 _atom_site_symmetry_multiplicity
 _atom_site_fract_x
 _atom_site_fract_y
 _atom_site_fract_z
 _atom_site_occupancy
  K  K0  1  0.62500000  0.62500000  0.12500000  1
  K  K1  1  0.62500000  0.12500000  0.62500000  1
  K  K2  1  0.12500000  0.62500000  0.62500000  1
  K  K3  1  0.62500000  0.62500000  0.62500000  1
  K  K4  1  0.02762848  0.47237152  0.47237152  1
  K  K5  1  0.77762848  0.22237152  0.22237152  1
  K  K6  1  0.47237152  0.02762848  0.47237152  1
  K  K7  1  0.47237152  0.47237152  0.02762848  1
  K  K8  1  0.02762848  0.02762848  0.47237152  1
  K  K9  1  0.02762848  0.47237152  0.02762848  1
  K  K10  1  0.47237152  0.02762848  0.02762848  1
  K  K11  1  0.77762848  0.22237152  0.77762848  1
  K  K12  1  0.22237152  0.77762848  0.22237152  1
  K  K13  1  0.22237152  0.22237152  0.77762848  1
  K  K14  1  0.77762848  0.77762848  0.22237152  1
  K  K15  1  0.22237152  0.77762848  0.77762848  1
  Ti  Ti0  1  0.75000000  0.75000000  0.75000000  1
  Ti  Ti1  1  0.50000000  0.50000000  0.50000000  1
  As  As0  1  0.84652270  0.84652270  0.46043191  1
  As  As1  1  0.84652270  0.46043191  0.84652270  1
  As  As2  1  0.40347730  0.40347730  0.78956809  1
  As  As3  1  0.40347730  0.78956809  0.40347730  1
  As  As4  1  0.78956809  0.40347730  0.40347730  1
  As  As5  1  0.84652270  0.84652270  0.84652270  1
  As  As6  1  0.46043191  0.84652270  0.84652270  1
  As  As7  1  0.40347730  0.40347730  0.40347730  1
loop_
_geom_bond_atom_site_label_1
_geom_bond_atom_site_label_2
_geom_bond_distance
_geom_bond_site_symmetry_2
K0 Ti1 3.316346 1_555
K0 Ti0 3.316346 1_554
K1 Ti1 3.316345 1_555
K1 Ti0 3.316345 1_545
K2 Ti1 3.316345 1_555
K2 Ti0 3.316345 1_455
K3 Ti0 3.316345 1_555
K3 Ti1 3.316345 1_555
As0 Ti0 2.560821 1_555
As0 K3 3.448803 1_555
As0 K2 3.448803 1_655
As0 K1 3.448803 1_565
As0 K8 3.473827 1_665
As0 K6 3.473827 1_565
As0 K4 3.473827 1_655
As0 K12 3.488131 1_655
As0 K5 3.488131 1_565
As0 K14 3.488131 1_555
As1 Ti0 2.560821 1_555
As1 K2 3.448803 1_655
As1 K3 3.448803 1_555
As1 K0 3.448803 1_556
As1 K7 3.473827 1_556
As1 K9 3.473827 1_656
As1 K4 3.473828 1_655
As1 K11 3.488130 1_555
As1 K13 3.488130 1_655
As1 K5 3.488131 1_556
As2 Ti1 2.560821 1_555
As2 K3 3.448803 1_555
As2 K2 3.448803 1_555
As2 K1 3.448803 1_555
As2 K13 3.473827 1_555
As2 K11 3.473827 1_555
As2 K15 3.473827 1_555
As2 K9 3.488131 1_556
As2 K10 3.488131 1_556
As2 K7 3.488131 1_556
As3 Ti1 2.560821 1_555
As3 K2 3.448803 1_555
As3 K3 3.448803 1_555
As3 K0 3.448803 1_555
As3 K14 3.473827 1_555
As3 K12 3.473827 1_555
As3 K15 3.473828 1_555
As3 K6 3.488130 1_565
As3 K8 3.488130 1_565
As3 K10 3.488131 1_565
As4 Ti1 2.560821 1_555
As4 K1 3.448803 1_555
As4 K3 3.448803 1_555
As4 K0 3.448803 1_555
As4 K14 3.473827 1_555
As4 K5 3.473827 1_555
As4 K11 3.473828 1_555
As4 K4 3.488130 1_655
As4 K8 3.488130 1_655
As4 K9 3.488131 1_655
As5 Ti0 2.560821 1_555
As5 K0 3.448803 1_556
As5 K2 3.448803 1_655
As5 K1 3.448803 1_565
As5 K10 3.473827 1_566
As5 K9 3.473827 1_656
As5 K8 3.473828 1_665
As5 K15 3.488130 1_655
As5 K11 3.488130 1_565
As5 K14 3.488131 1_556
As6 Ti0 2.560821 1_555
As6 K1 3.448803 1_565
As6 K3 3.448803 1_555
As6 K0 3.448803 1_556
As6 K7 3.473827 1_556
As6 K10 3.473827 1_566
As6 K6 3.473828 1_565
As6 K15 3.488130 1_555
As6 K13 3.488130 1_565
As6 K12 3.488131 1_556
As7 Ti1 2.560821 1_555
As7 K0 3.448803 1_555
As7 K2 3.448803 1_555
As7 K1 3.448803 1_555
As7 K5 3.473827 1_555
As7 K12 3.473827 1_555
As7 K13 3.473828 1_555
As7 K4 3.488130 1_555
As7 K6 3.488130 1_555
As7 K7 3.488131 1_555
