# generated using pymatgen
data_Ti4B2MoS
_symmetry_space_group_name_H-M   'P 1'
_cell_length_a   7.04475755
_cell_length_b   7.04483560
_cell_length_c   7.04347872
_cell_angle_alpha   129.72942304
_cell_angle_beta   129.72903083
_cell_angle_gamma   73.82859665
_symmetry_Int_Tables_number   1
_chemical_formula_structural   Ti4B2MoS
_chemical_formula_sum   'Ti8 B4 Mo2 S2'
_cell_volume   201.69999328
_cell_formula_units_Z   2
loop_
 _symmetry_equiv_pos_site_id
 _symmetry_equiv_pos_as_xyz
  1  'x, y, z'
loop_
 _atom_site_type_symbol
 _atom_site_label
 _atom_site_symmetry_multiplicity
 _atom_site_fract_x
 _atom_site_fract_y
 _atom_site_fract_z
 _atom_site_occupancy
  Ti  Ti0  1  0.80954585  0.96206656  0.50001576  1
  Ti  Ti1  1  0.30953154  0.80953054  0.84733777  1
  Ti  Ti2  1  0.19045415  0.03793344  0.49998424  1
  Ti  Ti3  1  0.53793144  0.69045515  0.49998224  1
  Ti  Ti4  1  0.03794374  0.53794274  0.84752961  1
  Ti  Ti5  1  0.69046846  0.19046946  0.15266223  1
  Ti  Ti6  1  0.96205626  0.46205726  0.15247039  1
  Ti  Ti7  1  0.46206856  0.30954485  0.50001776  1
  B  B0  1  0.38991037  0.88991037  0.27971894  1
  B  B1  1  0.88988419  0.61011681  0.50000000  1
  B  B2  1  0.61008963  0.11008963  0.72028106  1
  B  B3  1  0.11011581  0.38988319  0.50000000  1
  Mo  Mo0  1  0.00000000  0.00000000  0.00000000  1
  Mo  Mo1  1  0.50000000  0.50000000  0.00000000  1
  S  S0  1  0.74994515  0.75005785  0.00000200  1
  S  S1  1  0.25005485  0.24994215  0.99999800  1
loop_
_geom_bond_atom_site_label_1
_geom_bond_atom_site_label_2
_geom_bond_distance
_geom_bond_site_symmetry_2
B0 B2 1.864271 1_565
B0 Ti0 2.317415 1_555
B0 Ti7 2.317427 1_565
B0 Ti2 2.317565 1_565
B0 Ti3 2.317574 1_555
B0 Ti1 2.384493 1_554
B0 Ti4 2.385365 1_554
B0 Mo1 2.424228 1_555
B0 Mo0 2.424231 1_565
B1 B3 1.863716 1_655
B1 Ti6 2.317321 1_555
B1 Ti4 2.317348 1_655
B1 Ti1 2.317984 1_655
B1 Ti5 2.318000 1_555
B1 Ti3 2.384510 1_555
B1 Ti0 2.384524 1_555
B1 Mo0 2.424427 1_666
B1 Mo1 2.424430 1_555
B2 Ti2 2.317415 1_555
B2 Ti3 2.317427 1_545
B2 Ti0 2.317565 1_545
B2 Ti7 2.317574 1_555
B2 Ti5 2.384493 1_556
B2 Ti6 2.385365 1_556
B2 Mo1 2.424228 1_556
B2 Mo0 2.424231 1_656
B3 Ti4 2.317321 1_555
B3 Ti6 2.317348 1_455
B3 Ti5 2.317984 1_455
B3 Ti1 2.318000 1_555
B3 Ti7 2.384510 1_555
B3 Ti2 2.384524 1_555
B3 Mo0 2.424427 1_555
B3 Mo1 2.424430 1_556
Mo0 Ti2 2.688888 1_555
Mo0 Ti0 2.688888 1_444
Mo0 Ti6 2.689636 1_455
Mo0 Ti4 2.689636 1_544
Mo0 Ti1 2.689734 1_544
Mo0 Ti5 2.689734 1_455
Mo0 Ti7 2.690070 1_555
Mo0 Ti3 2.690070 1_444
Mo0 S0 2.816274 1_445
Mo0 S1 2.816274 1_554
Mo1 Ti7 2.688871 1_554
Mo1 Ti3 2.688871 1_555
Mo1 Ti6 2.689603 1_555
Mo1 Ti4 2.689603 1_554
Mo1 Ti1 2.689757 1_554
Mo1 Ti5 2.689757 1_555
Mo1 Ti0 2.690070 1_555
Mo1 Ti2 2.690070 1_554
Mo1 S0 2.816286 1_555
Mo1 S1 2.816286 1_554
S0 Ti1 2.558334 1_554
S0 Ti5 2.558354 1_565
S0 Ti0 2.558376 1_555
S0 Ti3 2.558407 1_554
S0 Ti4 2.558856 1_654
S0 Ti6 2.558877 1_555
S0 Ti2 2.559456 1_665
S0 Ti7 2.559480 1_554
S1 Ti5 2.558334 1_556
S1 Ti1 2.558354 1_545
S1 Ti2 2.558376 1_555
S1 Ti7 2.558407 1_556
S1 Ti6 2.558856 1_456
S1 Ti4 2.558877 1_555
S1 Ti0 2.559456 1_445
S1 Ti3 2.559480 1_556
