# generated using pymatgen
data_RuPtPb2O7
_symmetry_space_group_name_H-M   'P 1'
_cell_length_a   7.29200946
_cell_length_b   7.29200984
_cell_length_c   7.34036682
_cell_angle_alpha   59.78038814
_cell_angle_beta   59.78038640
_cell_angle_gamma   59.25666143
_symmetry_Int_Tables_number   1
_chemical_formula_structural   RuPtPb2O7
_chemical_formula_sum   'Ru2 Pt2 Pb4 O14'
_cell_volume   273.50445814
_cell_formula_units_Z   2
loop_
 _symmetry_equiv_pos_site_id
 _symmetry_equiv_pos_as_xyz
  1  'x, y, z'
loop_
 _atom_site_type_symbol
 _atom_site_label
 _atom_site_symmetry_multiplicity
 _atom_site_fract_x
 _atom_site_fract_y
 _atom_site_fract_z
 _atom_site_occupancy
  Ru  Ru0  1  0.62500000  0.62500000  0.12500000  1
  Ru  Ru1  1  0.62500000  0.62500000  0.62500000  1
  Pt  Pt0  1  0.62500000  0.12500000  0.62500000  1
  Pt  Pt1  1  0.12500000  0.62500000  0.62500000  1
  Pb  Pb0  1  0.12500000  0.12500000  0.12500000  1
  Pb  Pb1  1  0.62500000  0.12500000  0.12500000  1
  Pb  Pb2  1  0.12500000  0.62500000  0.12500000  1
  Pb  Pb3  1  0.12500000  0.12500000  0.62500000  1
  O  O0  1  0.70790459  0.29678371  0.29345106  1
  O  O1  1  0.70790459  0.29678371  0.70185964  1
  O  O2  1  0.01133917  0.01133917  0.98866083  1
  O  O3  1  0.29678371  0.70790459  0.29345106  1
  O  O4  1  0.69554602  0.69554602  0.30445398  1
  O  O5  1  0.95321629  0.54209541  0.54814036  1
  O  O6  1  0.29678371  0.70790459  0.70185964  1
  O  O7  1  0.23866083  0.23866083  0.26133917  1
  O  O8  1  0.95321629  0.54209541  0.95654894  1
  O  O9  1  0.54209541  0.95321629  0.54814036  1
  O  O10  1  0.55445398  0.55445398  0.94554602  1
  O  O11  1  0.95724626  0.95724626  0.54275374  1
  O  O12  1  0.54209541  0.95321629  0.95654894  1
  O  O13  1  0.29275374  0.29275374  0.70724626  1
loop_
_geom_bond_atom_site_label_1
_geom_bond_atom_site_label_2
_geom_bond_distance
_geom_bond_site_symmetry_2
O0 Ru0 1.979076 1_555
O0 Pt0 2.020367 1_555
O0 Pb0 2.495365 1_655
O0 Pb1 2.559174 1_555
O1 Ru1 1.979077 1_555
O1 Pt0 2.020361 1_555
O1 Pb3 2.495366 1_655
O1 Pb1 2.559180 1_556
O2 Pb0 2.178915 1_556
O2 Pb3 2.178915 1_555
O2 Pb1 2.287953 1_456
O2 Pb2 2.287953 1_546
O3 Ru0 1.979076 1_555
O3 Pt1 2.020367 1_555
O3 Pb0 2.495365 1_565
O3 Pb2 2.559174 1_555
O4 Ru1 1.974645 1_555
O4 Ru0 1.974645 1_555
O4 Pb2 2.586359 1_655
O4 Pb1 2.586359 1_565
O5 Ru1 1.979077 1_555
O5 Pt1 2.020361 1_655
O5 Pb3 2.495366 1_655
O5 Pb2 2.559180 1_655
O6 Ru1 1.979077 1_555
O6 Pt1 2.020361 1_555
O6 Pb3 2.495366 1_565
O6 Pb2 2.559180 1_556
O7 Pb0 2.178915 1_555
O7 Pb3 2.178915 1_555
O7 Pb1 2.287953 1_555
O7 Pb2 2.287953 1_555
O8 Ru0 1.979076 1_556
O8 Pt1 2.020367 1_655
O8 Pb0 2.495365 1_656
O8 Pb2 2.559174 1_656
O9 Ru1 1.979077 1_555
O9 Pt0 2.020361 1_565
O9 Pb3 2.495366 1_565
O9 Pb1 2.559180 1_565
O10 Ru1 1.974645 1_555
O10 Ru0 1.974645 1_556
O10 Pb2 2.586359 1_556
O10 Pb1 2.586359 1_556
O11 Pt0 1.992883 1_565
O11 Pt1 1.992883 1_655
O11 Pb0 2.524656 1_665
O11 Pb3 2.524656 1_665
O12 Ru0 1.979076 1_556
O12 Pt0 2.020367 1_565
O12 Pb0 2.495365 1_566
O12 Pb1 2.559174 1_566
O13 Pt0 1.992883 1_555
O13 Pt1 1.992883 1_555
O13 Pb3 2.524656 1_555
O13 Pb0 2.524656 1_556
