# generated using pymatgen
data_Cd5B3O9F
_symmetry_space_group_name_H-M   'P 1'
_cell_length_a   3.43892048
_cell_length_b   8.05878752
_cell_length_c   8.92705682
_cell_angle_alpha   63.16847041
_cell_angle_beta   94.31298838
_cell_angle_gamma   99.59105867
_symmetry_Int_Tables_number   1
_chemical_formula_structural   Cd5B3O9F
_chemical_formula_sum   'Cd5 B3 O9 F1'
_cell_volume   217.67870328
_cell_formula_units_Z   1
loop_
 _symmetry_equiv_pos_site_id
 _symmetry_equiv_pos_as_xyz
  1  'x, y, z'
loop_
 _atom_site_type_symbol
 _atom_site_label
 _atom_site_symmetry_multiplicity
 _atom_site_fract_x
 _atom_site_fract_y
 _atom_site_fract_z
 _atom_site_occupancy
  Cd  Cd0  1  0.02872384  0.27532280  1.00000000  1
  Cd  Cd1  1  0.74536049  0.54887638  0.23730239  1
  Cd  Cd2  1  0.40190438  0.86889761  0.35280985  1
  Cd  Cd3  1  0.40190438  0.22170746  0.64719015  1
  Cd  Cd4  1  0.74536049  0.78617977  0.76269661  1
  B  B0  1  0.35410913  0.92367082  0.00000000  1
  B  B1  1  0.98583973  0.16764352  0.39369352  1
  B  B2  1  0.98583973  0.56133504  0.60630748  1
  O  O0  1  0.44927870  0.09539018  1.00000000  1
  O  O1  1  0.30699254  0.76233567  0.15033246  1
  O  O2  1  0.96796194  0.08100175  0.28933426  1
  O  O3  1  0.19321051  0.34579357  0.34738785  1
  O  O4  1  0.79265549  0.62663168  0.45458128  1
  O  O5  1  0.79265549  0.08121296  0.54541872  1
  O  O6  1  0.19321051  0.69318242  0.65261215  1
  O  O7  1  0.96796194  0.37033701  0.71066574  1
  O  O8  1  0.30699254  0.91266712  0.84966854  1
  F  F0  1  0.63203418  0.48061425  0.00000000  1
loop_
_geom_bond_atom_site_label_1
_geom_bond_atom_site_label_2
_geom_bond_distance
_geom_bond_site_symmetry_2
Cd0 O0 2.212033 1_555
Cd0 O0 2.260637 1_455
Cd0 F0 2.313030 1_456
Cd0 O7 2.342673 1_455
Cd0 O2 2.342674 1_456
Cd0 F0 2.428534 1_556
Cd1 O3 2.245638 1_555
Cd1 O3 2.275207 1_655
Cd1 O4 2.279731 1_555
Cd1 O1 2.281452 1_655
Cd1 O1 2.305860 1_555
Cd1 F0 2.408022 1_555
Cd2 O2 2.283621 1_565
Cd2 O2 2.306119 1_465
Cd2 O1 2.308739 1_555
Cd2 O4 2.352066 1_555
Cd2 O6 2.492416 1_555
Cd2 O4 2.519686 1_455
Cd3 O7 2.283625 1_555
Cd3 O7 2.306125 1_455
Cd3 O8 2.308747 1_545
Cd3 O5 2.352066 1_555
Cd3 O3 2.492416 1_555
Cd3 O5 2.519686 1_455
Cd4 O6 2.245634 1_555
Cd4 O6 2.275202 1_655
Cd4 O5 2.279722 1_565
Cd4 O8 2.281453 1_655
Cd4 O8 2.305859 1_555
Cd4 F0 2.408030 1_556
B0 O0 1.367929 1_564
B0 O8 1.380241 1_554
B0 O1 1.380246 1_555
B1 O5 1.374974 1_555
B1 O3 1.381310 1_655
B1 O2 1.386909 1_555
B2 O4 1.374981 1_555
B2 O6 1.381324 1_655
B2 O7 1.386888 1_555
