# generated using pymatgen
data_Sr10Cd2Ag3Ir
_symmetry_space_group_name_H-M   'P 1'
_cell_length_a   9.89006773
_cell_length_b   9.89006612
_cell_length_c   9.93324621
_cell_angle_alpha   129.12388702
_cell_angle_beta   129.12387822
_cell_angle_gamma   74.48394117
_symmetry_Int_Tables_number   1
_chemical_formula_structural   Sr10Cd2Ag3Ir
_chemical_formula_sum   'Sr10 Cd2 Ag3 Ir1'
_cell_volume   570.80564617
_cell_formula_units_Z   1
loop_
 _symmetry_equiv_pos_site_id
 _symmetry_equiv_pos_as_xyz
  1  'x, y, z'
loop_
 _atom_site_type_symbol
 _atom_site_label
 _atom_site_symmetry_multiplicity
 _atom_site_fract_x
 _atom_site_fract_y
 _atom_site_fract_z
 _atom_site_occupancy
  Sr  Sr0  1  0.53136933  0.01866306  0.82430866  1
  Sr  Sr1  1  0.20706067  0.69435340  0.17569134  1
  Sr  Sr2  1  0.02906166  0.19128529  0.50000000  1
  Sr  Sr3  1  0.68245904  0.54828643  0.50000000  1
  Sr  Sr4  1  0.48133694  0.96863067  0.17569134  1
  Sr  Sr5  1  0.80564660  0.29293933  0.82430866  1
  Sr  Sr6  1  0.95171357  0.81754096  0.50000000  1
  Sr  Sr7  1  0.30871471  0.47093834  0.50000000  1
  Sr  Sr8  1  0.50462191  0.51080487  0.01542778  1
  Sr  Sr9  1  0.98919513  0.99537809  0.98457222  1
  Cd  Cd0  1  0.25289024  0.24710976  1.00000000  1
  Cd  Cd1  1  0.75289024  0.74710976  1.00000000  1
  Ag  Ag0  1  0.38215344  0.11784656  0.50000000  1
  Ag  Ag1  1  0.11946883  0.61967273  0.73914156  1
  Ag  Ag2  1  0.88032727  0.38053117  0.26085844  1
  Ir  Ir0  1  0.62109041  0.87890959  0.50000000  1
loop_
_geom_bond_atom_site_label_1
_geom_bond_atom_site_label_2
_geom_bond_distance
_geom_bond_site_symmetry_2
Sr0 Sr9 3.727935 1_545
Sr0 Sr8 3.955815 1_556
Sr1 Sr8 3.727925 1_555
Sr1 Sr9 3.955833 1_454
Sr2 Sr8 3.932523 1_556
Sr2 Sr9 3.932530 1_444
Sr3 Sr8 3.716529 1_555
Sr3 Sr9 3.716538 1_555
Sr4 Sr8 3.727934 1_555
Sr4 Sr9 3.955816 1_454
Sr5 Sr9 3.727925 1_545
Sr5 Sr8 3.955833 1_556
Sr6 Sr9 3.716528 1_555
Sr6 Sr8 3.716538 1_555
Sr7 Sr9 3.932522 1_444
Sr7 Sr8 3.932531 1_556
Cd0 Sr1 3.605571 1_556
Cd0 Sr5 3.605572 1_455
Cd0 Sr6 3.614003 1_445
Cd0 Sr3 3.614003 1_556
Cd0 Sr7 3.631919 1_556
Cd0 Sr2 3.631920 1_555
Cd0 Sr4 3.673748 1_546
Cd0 Sr0 3.673748 1_555
Cd0 Sr8 3.938428 1_556
Cd0 Sr9 3.938428 1_445
Cd1 Sr0 3.605580 1_565
Cd1 Sr4 3.605580 1_556
Cd1 Sr3 3.614002 1_555
Cd1 Sr6 3.614002 1_556
Cd1 Sr2 3.631920 1_666
Cd1 Sr7 3.631920 1_555
Cd1 Sr5 3.673749 1_555
Cd1 Sr1 3.673749 1_656
Cd1 Sr9 3.938443 1_555
Cd1 Sr8 3.938444 1_556
Ag0 Ir0 2.860216 1_545
Ag0 Sr4 3.275906 1_545
Ag0 Sr0 3.275906 1_555
Ag0 Sr1 3.275914 1_545
Ag0 Sr5 3.275915 1_555
Ag0 Sr7 3.371247 1_555
Ag0 Sr2 3.371247 1_555
Ag0 Sr8 3.516473 1_556
Ag0 Sr9 3.516474 1_444
Ag1 Ag2 2.896664 1_455
Ag1 Sr2 3.322317 1_555
Ag1 Sr7 3.322317 1_555
Ag1 Sr6 3.373534 1_455
Ag1 Sr3 3.373535 1_455
Ag1 Sr9 3.373553 1_455
Ag1 Sr8 3.397491 1_556
Ag1 Sr4 3.414610 1_556
Ag1 Sr1 3.414615 1_556
Ag2 Sr2 3.322317 1_655
Ag2 Sr7 3.322318 1_655
Ag2 Sr6 3.373534 1_555
Ag2 Sr3 3.373534 1_555
Ag2 Sr8 3.373553 1_555
Ag2 Sr9 3.397490 1_544
Ag2 Sr0 3.414610 1_554
Ag2 Sr5 3.414615 1_554
Ir0 Sr3 3.162075 1_555
Ir0 Sr6 3.162075 1_555
Ir0 Sr0 3.226079 1_565
Ir0 Sr4 3.226079 1_555
Ir0 Sr5 3.226081 1_565
Ir0 Sr1 3.226082 1_555
Ir0 Sr8 3.298661 1_555
Ir0 Sr9 3.298661 1_555
