# generated using pymatgen
data_NaCa21(Ga6Hg)2
_symmetry_space_group_name_H-M   'P 1'
_cell_length_a   11.34552824
_cell_length_b   11.34551148
_cell_length_c   11.34439899
_cell_angle_alpha   60.00546398
_cell_angle_beta   60.00479085
_cell_angle_gamma   59.99506226
_symmetry_Int_Tables_number   1
_chemical_formula_structural   NaCa21(Ga6Hg)2
_chemical_formula_sum   'Na1 Ca21 Ga12 Hg2'
_cell_volume   1032.60146694
_cell_formula_units_Z   1
loop_
 _symmetry_equiv_pos_site_id
 _symmetry_equiv_pos_as_xyz
  1  'x, y, z'
loop_
 _atom_site_type_symbol
 _atom_site_label
 _atom_site_symmetry_multiplicity
 _atom_site_fract_x
 _atom_site_fract_y
 _atom_site_fract_z
 _atom_site_occupancy
  Na  Na0  1  0.49929821  0.50070133  0.49999845  1
  Ca  Ca0  1  0.99619464  0.00380500  0.00000093  1
  Ca  Ca1  1  0.12632199  0.13591734  0.12710428  1
  Ca  Ca2  1  0.39091428  0.87558055  0.86675350  1
  Ca  Ca3  1  0.87033697  0.38843191  0.87061562  1
  Ca  Ca4  1  0.86408226  0.87367873  0.38934287  1
  Ca  Ca5  1  0.12441840  0.60908688  0.13324869  1
  Ca  Ca6  1  0.12632254  0.13591920  0.61065445  1
  Ca  Ca7  1  0.61156764  0.12966288  0.12938615  1
  Ca  Ca8  1  0.86408067  0.87367604  0.87289625  1
  Ca  Ca9  1  0.50617064  0.83231210  0.49354001  1
  Ca  Ca10  1  0.83259263  0.50023035  0.50017843  1
  Ca  Ca11  1  0.50616921  0.83231151  0.16797706  1
  Ca  Ca12  1  0.16768785  0.49383158  0.83202078  1
  Ca  Ca13  1  0.83259158  0.50022731  0.16699922  1
  Ca  Ca14  1  0.50615254  0.49384985  0.83399473  1
  Ca  Ca15  1  0.16687478  0.83312468  0.49999868  1
  Ca  Ca16  1  0.49977129  0.16740601  0.83300064  1
  Ca  Ca17  1  0.50615075  0.49384765  0.16600421  1
  Ca  Ca18  1  0.83462535  0.16537366  0.49999790  1
  Ca  Ca19  1  0.16768761  0.49383021  0.50645795  1
  Ca  Ca20  1  0.49977216  0.16740630  0.49981927  1
  Ga  Ga0  1  0.78303881  0.21695990  0.21942455  1
  Ga  Ga1  1  0.78650851  0.78110154  0.21619151  1
  Ga  Ga2  1  0.21889842  0.21349146  0.78380888  1
  Ga  Ga3  1  0.78304184  0.21695926  0.78057693  1
  Ga  Ga4  1  0.30760855  0.31031083  0.30784943  1
  Ga  Ga5  1  0.92642152  0.69368614  0.68996107  1
  Ga  Ga6  1  0.69155732  0.92586065  0.69129014  1
  Ga  Ga7  1  0.68968895  0.69239166  0.92577366  1
  Ga  Ga8  1  0.30631770  0.07357740  0.31004974  1
  Ga  Ga9  1  0.30760635  0.31031301  0.07422716  1
  Ga  Ga10  1  0.07414634  0.30843872  0.30870715  1
  Ga  Ga11  1  0.68969145  0.69238996  0.69215085  1
  Hg  Hg0  1  0.21784403  0.78215426  0.21501029  1
  Hg  Hg1  1  0.21784721  0.78215412  0.78498759  1
loop_
_geom_bond_atom_site_label_1
_geom_bond_atom_site_label_2
_geom_bond_distance
_geom_bond_site_symmetry_2
Ca0 Ga1 3.470027 1_545
Ca0 Ga2 3.470032 1_654
Ca0 Ga0 3.470402 1_555
Ca0 Ga3 3.470426 1_554
Ca0 Hg0 3.503214 1_645
Ca0 Hg1 3.503219 1_644
Ca0 Ca7 3.563051 1_555
Ca0 Ca3 3.563069 1_554
Ca0 Ca1 3.606661 1_655
Ca0 Ca8 3.606704 1_544
Ca0 Ca4 3.606787 1_545
Ca0 Ca6 3.606829 1_654
Ca0 Ca2 3.656618 1_644
Ca0 Ca5 3.656624 1_645
Ca1 Ga10 3.174827 1_555
Ca1 Ga9 3.186671 1_555
Ca1 Ga8 3.209884 1_555
Ca1 Ga0 3.227070 1_455
Ca1 Ga2 3.233017 1_554
Ca1 Hg0 3.323717 1_545
Ca1 Ca12 3.828810 1_554
Ca1 Ca13 3.870476 1_455
Ca1 Ca18 3.907524 1_455
Ca1 Ca16 3.924181 1_554
Ca1 Ca15 3.967820 1_545
Ca1 Ca11 4.025748 1_545
Ca2 Ga6 3.153470 1_555
Ca2 Ga7 3.176489 1_555
Ca2 Ga11 3.176500 1_555
Ca2 Ga2 3.184045 1_565
Ca2 Hg1 3.274930 1_555
Ca2 Hg0 3.275033 1_556
Ca2 Ca20 3.871003 1_565
Ca2 Ca9 3.972044 1_555
Ca3 Ga7 3.207968 1_555
Ca3 Ga11 3.207981 1_555
Ca3 Ga5 3.225347 1_555
Ca3 Ga3 3.276336 1_555
Ca3 Ga0 3.276490 1_556
Ca3 Ga2 3.279985 1_655
Ca4 Ga6 3.174905 1_555
Ca4 Ga11 3.186796 1_555
Ca4 Ga5 3.210114 1_555
Ca4 Ga0 3.227090 1_565
Ca4 Ga1 3.232989 1_555
Ca4 Hg0 3.323709 1_655
Ca4 Ca9 3.828695 1_555
Ca5 Ga10 3.153497 1_555
Ca5 Ga9 3.176472 1_555
Ca5 Ga4 3.176517 1_555
Ca5 Ga1 3.184021 1_455
Ca5 Hg0 3.274886 1_555
Ca5 Hg1 3.275075 1_554
Ca6 Ga10 3.174908 1_555
Ca6 Ga4 3.186771 1_555
Ca6 Ga8 3.209966 1_555
Ca6 Ga3 3.227068 1_455
Ca6 Ga2 3.232998 1_555
Ca6 Hg1 3.323764 1_545
Ca6 Ca9 4.025752 1_545
Ca7 Ga4 3.207956 1_555
Ca7 Ga9 3.208002 1_555
Ca7 Ga8 3.225296 1_555
Ca7 Ga0 3.276339 1_555
Ca7 Ga3 3.276484 1_554
Ca7 Ga1 3.279999 1_545
Ca7 Ca9 3.877913 1_545
Ca8 Ga6 3.174852 1_555
Ca8 Ga7 3.186632 1_555
Ca8 Ga5 3.209703 1_555
Ca8 Ga3 3.227089 1_565
Ca8 Ga1 3.233024 1_556
Ca8 Hg1 3.323738 1_655
Ca9 Ga11 3.120983 1_555
Ca9 Ga8 3.127567 1_565
Ca9 Ga1 3.213558 1_555
Ca9 Hg1 3.335078 1_555
Ca9 Na0 3.765419 1_555
Ca10 Ga10 3.126198 1_655
Ca10 Ga11 3.131474 1_555
Ca10 Ga1 3.249669 1_555
Ca10 Ga3 3.249764 1_555
Ca10 Ca9 3.735782 1_555
Ca10 Ca14 3.746162 1_555
Ca10 Ca13 3.779741 1_555
Ca10 Na0 3.779752 1_555
Ca10 Ca18 3.788661 1_555
Ca10 Ca19 3.801812 1_655
Ca10 Ca6 3.870511 1_655
Ca10 Ca5 3.870954 1_655
Ca10 Ca3 3.921595 1_555
Ca10 Ca4 3.924123 1_555
Ca11 Ga7 3.120902 1_554
Ca11 Ga8 3.127489 1_565
Ca11 Ga1 3.213472 1_555
Ca11 Hg0 3.335018 1_555
Ca11 Ca9 3.693327 1_555
Ca11 Ca13 3.735797 1_555
Ca11 Na0 3.765522 1_555
Ca11 Ca16 3.801943 1_564
Ca11 Ca15 3.808892 1_555
Ca11 Ca8 3.828748 1_554
Ca11 Ca17 3.851388 1_555
Ca11 Ca7 3.877813 1_565
Ca11 Ca2 3.971982 1_554
Ca12 Ga9 3.120955 1_556
Ca12 Ga5 3.127436 1_455
Ca12 Ga2 3.213451 1_555
Ca12 Hg1 3.335003 1_555
Ca12 Ca19 3.693324 1_555
Ca12 Ca16 3.735811 1_555
Ca12 Na0 3.765493 1_555
Ca12 Ca13 3.801927 1_456
Ca12 Ca15 3.808922 1_555
Ca12 Ca14 3.851409 1_555
Ca12 Ca3 3.877798 1_455
Ca12 Ca5 3.972013 1_556
Ca12 Ca8 4.025725 1_455
Ca13 Ga10 3.126212 1_655
Ca13 Ga7 3.131494 1_554
Ca13 Ga1 3.249548 1_555
Ca13 Ga0 3.249631 1_555
Ca13 Ca17 3.746074 1_555
Ca13 Na0 3.779808 1_555
Ca13 Ca18 3.788738 1_555
Ca13 Ca5 3.870887 1_655
Ca13 Ca3 3.921507 1_554
Ca13 Ca8 3.924205 1_554
Ca14 Ga11 3.117106 1_555
Ca14 Ga9 3.117172 1_556
Ca14 Ga3 3.199140 1_555
Ca14 Hg1 3.317645 1_555
Ca14 Ca16 3.746107 1_555
Ca14 Ca17 3.766425 1_556
Ca14 Na0 3.789802 1_555
Ca14 Ca9 3.851506 1_555
Ca14 Ca3 3.866825 1_555
Ca14 Ca7 3.866951 1_556
Ca14 Ca2 4.008068 1_555
Ca14 Ca5 4.008162 1_556
Ca15 Ga5 3.101416 1_455
Ca15 Ga8 3.101448 1_565
Ca15 Hg0 3.284325 1_555
Ca15 Hg1 3.284350 1_555
Ca15 Ca18 3.769259 1_465
Ca15 Na0 3.771235 1_555
Ca15 Ca19 3.808807 1_555
Ca15 Ca9 3.808832 1_555
Ca15 Ca4 3.967694 1_455
Ca15 Ca6 3.967708 1_565
Ca15 Ca8 3.967805 1_455
Ca16 Ga6 3.126116 1_545
Ca16 Ga9 3.131498 1_556
Ca16 Ga2 3.249529 1_555
Ca16 Ga3 3.249676 1_555
Ca16 Ca20 3.779736 1_555
Ca16 Na0 3.779872 1_555
Ca16 Ca18 3.788727 1_555
Ca16 Ca8 3.870483 1_545
Ca16 Ca2 3.870838 1_545
Ca16 Ca7 3.921564 1_556
Ca17 Ga4 3.117103 1_555
Ca17 Ga7 3.117163 1_554
Ca17 Ga0 3.199134 1_555
Ca17 Hg0 3.317651 1_555
Ca17 Ca20 3.746196 1_555
Ca17 Na0 3.789767 1_555
Ca17 Ca19 3.851469 1_555
Ca17 Ca7 3.866804 1_555
Ca17 Ca3 3.866889 1_554
Ca17 Ca5 4.008078 1_555
Ca17 Ca2 4.008182 1_554
Ca18 Ga6 3.117978 1_545
Ca18 Ga10 3.118022 1_655
Ca18 Ga0 3.236299 1_555
Ca18 Ga3 3.236356 1_555
Ca18 Ca20 3.788617 1_555
Ca18 Na0 3.804180 1_555
Ca18 Ca4 3.907410 1_545
Ca18 Ca6 3.907477 1_655
Ca18 Ca8 3.907601 1_545
Ca19 Ga4 3.120922 1_555
Ca19 Ga5 3.127641 1_455
Ca19 Ga2 3.213614 1_555
Ca19 Hg0 3.335104 1_555
Ca19 Ca20 3.735807 1_555
Ca19 Na0 3.765408 1_555
Ca19 Ca6 3.828687 1_555
Ca19 Ca3 3.877915 1_455
Ca19 Ca5 3.972021 1_555
Ca19 Ca4 4.025772 1_455
Ca20 Ga6 3.126170 1_545
Ca20 Ga4 3.131510 1_555
Ca20 Ga2 3.249665 1_555
Ca20 Ga0 3.249699 1_555
Ca20 Na0 3.779732 1_555
Ca20 Ca9 3.801804 1_545
Ca20 Ca4 3.870469 1_545
Ca20 Ca7 3.921535 1_555
Ca20 Ca6 3.924117 1_555
Ga4 Ga9 2.650304 1_555
Ga4 Ga8 2.680790 1_555
Ga5 Ga6 2.649288 1_555
Ga5 Ga7 2.680786 1_555
Ga6 Ga7 2.654730 1_555
Ga8 Ga9 2.680884 1_555
Ga10 Ga8 2.649255 1_555
Ga10 Ga4 2.654567 1_555
Ga10 Ga9 2.654634 1_555
Ga11 Ga7 2.650306 1_555
Ga11 Ga6 2.654607 1_555
Ga11 Ga5 2.680845 1_555
