# generated using pymatgen
data_RbNF5
_symmetry_space_group_name_H-M   'P 1'
_cell_length_a   5.52954680
_cell_length_b   5.30075571
_cell_length_c   8.56288781
_cell_angle_alpha   95.63092817
_cell_angle_beta   96.09054033
_cell_angle_gamma   91.31693629
_symmetry_Int_Tables_number   1
_chemical_formula_structural   RbNF5
_chemical_formula_sum   'Rb2 N2 F10'
_cell_volume   248.22247511
_cell_formula_units_Z   2
loop_
 _symmetry_equiv_pos_site_id
 _symmetry_equiv_pos_as_xyz
  1  'x, y, z'
loop_
 _atom_site_type_symbol
 _atom_site_label
 _atom_site_symmetry_multiplicity
 _atom_site_fract_x
 _atom_site_fract_y
 _atom_site_fract_z
 _atom_site_occupancy
  Rb  Rb0  1  0.20915408  0.24470677  0.40547406  1
  Rb  Rb1  1  0.79084592  0.75529323  0.59452594  1
  N  N0  1  0.50623286  0.19421998  0.83231477  1
  N  N1  1  0.49376714  0.80578002  0.16768523  1
  F  F0  1  0.30891656  0.15796109  0.91814430  1
  F  F1  1  0.57039455  0.60202605  0.25001429  1
  F  F2  1  0.32268225  0.68690131  0.05151370  1
  F  F3  1  0.42960545  0.39797395  0.74998571  1
  F  F4  1  0.71515070  0.22881136  0.45659367  1
  F  F5  1  0.28484930  0.77118864  0.54340633  1
  F  F6  1  0.69108344  0.84203891  0.08185570  1
  F  F7  1  0.67731775  0.31309869  0.94848630  1
  F  F8  1  0.91784537  0.26718144  0.66051002  1
  F  F9  1  0.08215463  0.73281856  0.33948998  1
loop_
_geom_bond_atom_site_label_1
_geom_bond_atom_site_label_2
_geom_bond_distance
_geom_bond_site_symmetry_2
N0 Rb1 3.457546 1_545
N1 Rb0 3.457546 1_565
F0 N0 1.398486 1_555
F1 N1 1.396460 1_555
F1 Rb1 3.093485 1_555
F1 Rb0 3.199163 1_555
F2 N1 1.389780 1_555
F3 N0 1.396460 1_555
F3 Rb0 3.093485 1_555
F3 Rb1 3.199163 1_555
F4 Rb0 2.790218 1_555
F4 Rb0 2.812617 1_655
F4 Rb1 2.897492 1_545
F4 Rb1 2.924560 1_555
F5 Rb1 2.790218 1_555
F5 Rb1 2.812617 1_455
F5 Rb0 2.897492 1_565
F5 Rb0 2.924560 1_555
F6 N1 1.398486 1_555
F7 N0 1.389780 1_555
F8 Rb1 2.775295 1_545
F8 Rb1 2.791601 1_555
F8 Rb0 2.842937 1_655
F9 Rb0 2.775295 1_565
F9 Rb0 2.791601 1_555
F9 Rb1 2.842937 1_455
