# generated using pymatgen
data_Li4TaW7N12
_symmetry_space_group_name_H-M   'P 1'
_cell_length_a   5.02224727
_cell_length_b   5.02224610
_cell_length_c   10.54809305
_cell_angle_alpha   90.00000000
_cell_angle_beta   90.00000000
_cell_angle_gamma   120.00000126
_symmetry_Int_Tables_number   1
_chemical_formula_structural   Li4TaW7N12
_chemical_formula_sum   'Li4 Ta1 W7 N12'
_cell_volume   230.40964797
_cell_formula_units_Z   1
loop_
 _symmetry_equiv_pos_site_id
 _symmetry_equiv_pos_as_xyz
  1  'x, y, z'
loop_
 _atom_site_type_symbol
 _atom_site_label
 _atom_site_symmetry_multiplicity
 _atom_site_fract_x
 _atom_site_fract_y
 _atom_site_fract_z
 _atom_site_occupancy
  Li  Li0  1  0.33333300  0.66666700  0.00000000  1
  Li  Li1  1  0.33333300  0.66666700  0.50000000  1
  Li  Li2  1  0.66666700  0.33333300  0.50000000  1
  Li  Li3  1  0.66666700  0.33333300  0.00000000  1
  Ta  Ta0  1  0.00000000  0.00000000  0.00000000  1
  W  W0  1  1.00000000  0.33809308  0.24636083  1
  W  W1  1  0.66190692  1.00000000  0.75363917  1
  W  W2  1  0.33809308  0.33809308  0.75363917  1
  W  W3  1  0.00000000  0.00000000  0.50000000  1
  W  W4  1  0.66190692  0.66190692  0.24636083  1
  W  W5  1  0.33809308  0.00000000  0.24636083  1
  W  W6  1  0.00000000  0.66190692  0.75363917  1
  N  N0  1  0.67208278  0.67208278  0.63191283  1
  N  N1  1  0.67051491  0.67051491  0.87787779  1
  N  N2  1  0.32948509  0.32948509  0.12212221  1
  N  N3  1  0.32791722  0.32791722  0.36808717  1
  N  N4  1  0.32948509  0.00000000  0.87787779  1
  N  N5  1  0.32791722  0.00000000  0.63191283  1
  N  N6  1  0.00000000  0.67208278  0.36808717  1
  N  N7  1  0.00000000  0.67051491  0.12212221  1
  N  N8  1  0.67051491  1.00000000  0.12212221  1
  N  N9  1  0.67208278  1.00000000  0.36808717  1
  N  N10  1  1.00000000  0.32948509  0.87787779  1
  N  N11  1  1.00000000  0.32791722  0.63191283  1
loop_
_geom_bond_atom_site_label_1
_geom_bond_atom_site_label_2
_geom_bond_distance
_geom_bond_site_symmetry_2
Li0 N4 2.120051 1_564
Li0 N7 2.120052 1_555
Li0 N10 2.120053 1_454
Li0 N8 2.120053 1_555
Li0 N2 2.120055 1_555
Li0 N1 2.120056 1_554
Li1 N5 2.187440 1_565
Li1 N6 2.187440 1_555
Li1 N11 2.187442 1_455
Li1 N9 2.187442 1_555
Li1 N3 2.187444 1_555
Li1 N0 2.187444 1_555
Li2 N9 2.187440 1_545
Li2 N11 2.187440 1_555
Li2 N6 2.187442 1_655
Li2 N5 2.187442 1_555
Li2 N0 2.187444 1_555
Li2 N3 2.187444 1_555
Li3 N8 2.120051 1_545
Li3 N10 2.120052 1_554
Li3 N7 2.120053 1_655
Li3 N4 2.120053 1_554
Li3 N1 2.120055 1_554
Li3 N2 2.120056 1_555
N0 W1 2.108933 1_555
N0 W6 2.108934 1_655
N0 W2 2.112393 1_555
N0 W3 2.155990 1_665
N1 Ta0 2.097037 1_666
N1 W2 2.122405 1_555
N1 W1 2.128140 1_555
N1 W6 2.128140 1_655
N2 Ta0 2.097037 1_555
N2 W4 2.122405 1_555
N2 W5 2.128140 1_555
N2 W0 2.128140 1_455
N3 W5 2.108933 1_555
N3 W0 2.108934 1_455
N3 W4 2.112393 1_555
N3 W3 2.155990 1_555
N4 Ta0 2.097037 1_556
N4 W1 2.122405 1_545
N4 W2 2.128140 1_555
N4 W6 2.128140 1_545
N5 W2 2.108933 1_555
N5 W6 2.108934 1_545
N5 W1 2.112394 1_545
N5 W3 2.155990 1_555
N6 W5 2.108934 1_565
N6 W4 2.108934 1_455
N6 W0 2.112393 1_455
N6 W3 2.155990 1_565
N7 Ta0 2.097036 1_565
N7 W0 2.122405 1_455
N7 W5 2.128140 1_565
N7 W4 2.128140 1_455
N8 Ta0 2.097037 1_665
N8 W5 2.122405 1_565
N8 W4 2.128140 1_555
N8 W0 2.128140 1_565
N9 W4 2.108933 1_555
N9 W0 2.108934 1_565
N9 W5 2.112394 1_565
N9 W3 2.155990 1_665
N10 Ta0 2.097036 1_656
N10 W6 2.122405 1_655
N10 W1 2.128140 1_545
N10 W2 2.128140 1_655
N11 W1 2.108934 1_545
N11 W2 2.108934 1_655
N11 W6 2.112393 1_655
N11 W3 2.155990 1_655
