# generated using pymatgen
data_Zr6ZnSn5Ir6
_symmetry_space_group_name_H-M   'P 1'
_cell_length_a   7.42493603
_cell_length_b   7.42493683
_cell_length_c   7.14752761
_cell_angle_alpha   90.14513012
_cell_angle_beta   89.85487193
_cell_angle_gamma   120.51595313
_symmetry_Int_Tables_number   1
_chemical_formula_structural   Zr6ZnSn5Ir6
_chemical_formula_sum   'Zr6 Zn1 Sn5 Ir6'
_cell_volume   339.46000203
_cell_formula_units_Z   1
loop_
 _symmetry_equiv_pos_site_id
 _symmetry_equiv_pos_as_xyz
  1  'x, y, z'
loop_
 _atom_site_type_symbol
 _atom_site_label
 _atom_site_symmetry_multiplicity
 _atom_site_fract_x
 _atom_site_fract_y
 _atom_site_fract_z
 _atom_site_occupancy
  Zr  Zr0  1  0.40318949  0.02520996  0.25543484  1
  Zr  Zr1  1  0.58925610  0.60276824  0.74293869  1
  Zr  Zr2  1  0.60276824  0.58925610  0.25706131  1
  Zr  Zr3  1  0.00204070  0.38987167  0.25529049  1
  Zr  Zr4  1  0.02520996  0.40318949  0.74456516  1
  Zr  Zr5  1  0.38987167  0.00204070  0.74470951  1
  Zn  Zn0  1  0.27640918  0.27640918  0.50000000  1
  Sn  Sn0  1  0.26597562  0.26597562  1.00000000  1
  Sn  Sn1  1  0.73048107  0.99853835  0.99993299  1
  Sn  Sn2  1  0.00107813  0.72698631  0.49982216  1
  Sn  Sn3  1  0.72698631  0.00107813  0.50017784  1
  Sn  Sn4  1  0.99853835  0.73048107  0.00006701  1
  Ir  Ir0  1  0.66099559  0.33127185  0.52216454  1
  Ir  Ir1  1  0.66143310  0.33019395  0.97444404  1
  Ir  Ir2  1  0.33019395  0.66143310  0.02555596  1
  Ir  Ir3  1  0.33127185  0.66099559  0.47783546  1
  Ir  Ir4  1  0.00185456  0.00244611  0.74042865  1
  Ir  Ir5  1  0.00244611  0.00185456  0.25957135  1
loop_
_geom_bond_atom_site_label_1
_geom_bond_atom_site_label_2
_geom_bond_distance
_geom_bond_site_symmetry_2
Zn0 Zr1 2.926689 1_555
Zn0 Zr2 2.926689 1_555
Zn0 Zr4 3.029631 1_555
Zn0 Zr0 3.029631 1_555
Zn0 Zr3 3.112467 1_555
Zn0 Zr5 3.112467 1_555
Sn0 Zr2 3.048922 1_556
Sn0 Zr1 3.048922 1_555
Sn0 Zr4 3.072878 1_555
Sn0 Zr0 3.072878 1_556
Sn0 Zr3 3.133749 1_556
Sn0 Zr5 3.133750 1_555
Sn1 Zr0 3.121562 1_566
Sn1 Zr5 3.132842 1_565
Sn1 Zr3 3.143474 1_666
Sn1 Zr1 3.156257 1_555
Sn1 Zr4 3.236946 1_665
Sn1 Zr2 3.256483 1_556
Sn2 Zr3 3.052224 1_555
Sn2 Zr4 3.054928 1_555
Sn2 Zr5 3.096479 1_565
Sn2 Zr2 3.122250 1_455
Sn2 Zr0 3.185532 1_565
Sn2 Zr1 3.215148 1_455
Sn3 Zr5 3.052224 1_555
Sn3 Zr0 3.054928 1_555
Sn3 Zr3 3.096480 1_655
Sn3 Zr1 3.122251 1_545
Sn3 Zr4 3.185532 1_655
Sn3 Zr2 3.215148 1_545
Sn4 Zr4 3.121562 1_654
Sn4 Zr3 3.132843 1_655
Sn4 Zr5 3.143473 1_664
Sn4 Zr2 3.156256 1_555
Sn4 Zr0 3.236946 1_665
Sn4 Zr1 3.256482 1_554
Ir0 Zn0 2.676891 1_555
Ir0 Sn3 2.737344 1_555
Ir0 Sn2 2.738640 1_655
Ir0 Zr5 2.750315 1_555
Ir0 Zr1 2.812027 1_555
Ir0 Zr0 2.835809 1_555
Ir0 Zr2 2.882720 1_555
Ir0 Zr4 2.945515 1_655
Ir0 Zr3 3.016766 1_655
Ir1 Sn0 2.730962 1_555
Ir1 Sn4 2.752561 1_556
Ir1 Sn1 2.764942 1_545
Ir1 Zr5 2.775919 1_555
Ir1 Zr1 2.871252 1_555
Ir1 Zr0 2.903804 1_556
Ir1 Zr4 2.963825 1_655
Ir1 Zr2 2.965951 1_556
Ir1 Zr3 3.082984 1_656
Ir2 Sn0 2.730963 1_554
Ir2 Sn1 2.752561 1_554
Ir2 Sn4 2.764942 1_455
Ir2 Zr3 2.775919 1_555
Ir2 Zr2 2.871252 1_555
Ir2 Zr4 2.903804 1_554
Ir2 Zr0 2.963826 1_565
Ir2 Zr1 2.965951 1_554
Ir2 Zr5 3.082984 1_564
Ir3 Zn0 2.676891 1_555
Ir3 Sn2 2.737344 1_555
Ir3 Sn3 2.738640 1_565
Ir3 Zr3 2.750315 1_555
Ir3 Zr2 2.812027 1_555
Ir3 Zr4 2.835809 1_555
Ir3 Zr1 2.882719 1_555
Ir3 Zr0 2.945515 1_565
Ir3 Zr5 3.016766 1_565
Ir4 Zn0 2.652423 1_555
Ir4 Sn3 2.666585 1_455
Ir4 Sn2 2.666634 1_545
Ir4 Sn0 2.686952 1_555
Ir4 Sn1 2.724535 1_445
Ir4 Sn4 2.736864 1_446
Ir4 Zr5 2.882772 1_555
Ir4 Zr4 2.891380 1_555
Ir4 Zr1 2.993214 1_445
Ir5 Zn0 2.652423 1_555
Ir5 Sn2 2.666586 1_545
Ir5 Sn3 2.666634 1_455
Ir5 Sn0 2.686952 1_554
Ir5 Sn4 2.724535 1_445
Ir5 Sn1 2.736863 1_444
Ir5 Zr3 2.882772 1_555
Ir5 Zr0 2.891380 1_555
Ir5 Zr2 2.993214 1_445
