# generated using pymatgen
data_ZrSn(As2O7)2
_symmetry_space_group_name_H-M   'P 1'
_cell_length_a   5.38775412
_cell_length_b   5.47620524
_cell_length_c   9.77466899
_cell_angle_alpha   80.45618493
_cell_angle_beta   82.16815759
_cell_angle_gamma   99.00669154
_symmetry_Int_Tables_number   1
_chemical_formula_structural   ZrSn(As2O7)2
_chemical_formula_sum   'Zr1 Sn1 As4 O14'
_cell_volume   276.97442270
_cell_formula_units_Z   1
loop_
 _symmetry_equiv_pos_site_id
 _symmetry_equiv_pos_as_xyz
  1  'x, y, z'
loop_
 _atom_site_type_symbol
 _atom_site_label
 _atom_site_symmetry_multiplicity
 _atom_site_fract_x
 _atom_site_fract_y
 _atom_site_fract_z
 _atom_site_occupancy
  Zr  Zr0  1  0.00000000  0.00000000  0.00000000  1
  Sn  Sn0  1  0.00000000  0.00000000  0.50000000  1
  As  As0  1  0.17118171  0.43829879  0.20630708  1
  As  As1  1  0.45129469  0.17338118  0.69490751  1
  As  As2  1  0.54870531  0.82661882  0.30509249  1
  As  As3  1  0.82881829  0.56170121  0.79369292  1
  O  O0  1  0.07970565  0.69978427  0.13280524  1
  O  O1  1  0.77066285  0.74450217  0.91039835  1
  O  O2  1  0.30245592  0.98693178  0.84668713  1
  O  O3  1  0.03763912  0.70261313  0.64649185  1
  O  O4  1  0.46173576  0.52947643  0.26184640  1
  O  O5  1  0.71636206  0.07183493  0.63960783  1
  O  O6  1  0.73279115  0.76639501  0.42718895  1
  O  O7  1  0.26720885  0.23360499  0.57281105  1
  O  O8  1  0.22933715  0.25549783  0.08960165  1
  O  O9  1  0.69754408  0.01306822  0.15331287  1
  O  O10  1  0.92029435  0.30021573  0.86719476  1
  O  O11  1  0.96236088  0.29738687  0.35350815  1
  O  O12  1  0.28363794  0.92816507  0.36039217  1
  O  O13  1  0.53826424  0.47052357  0.73815360  1
loop_
_geom_bond_atom_site_label_1
_geom_bond_atom_site_label_2
_geom_bond_distance
_geom_bond_site_symmetry_2
As0 O8 1.667659 1_555
As0 O0 1.669093 1_555
As0 O11 1.688295 1_455
As0 O4 1.752533 1_555
As1 O5 1.666997 1_555
As1 O2 1.674431 1_545
As1 O7 1.676683 1_555
As1 O13 1.757673 1_555
As2 O12 1.666997 1_555
As2 O9 1.674431 1_565
As2 O6 1.676683 1_555
As2 O4 1.757673 1_555
As3 O1 1.667659 1_555
As3 O10 1.669093 1_555
As3 O3 1.688295 1_655
As3 O13 1.752533 1_555
O0 Zr0 2.058568 1_565
O1 Zr0 2.100344 1_666
O2 Zr0 2.076746 1_566
O3 Sn0 2.037874 1_565
O5 Sn0 2.037191 1_655
O6 Sn0 2.054306 1_665
O7 Sn0 2.054306 1_555
O8 Zr0 2.100344 1_555
O9 Zr0 2.076746 1_655
O10 Zr0 2.058568 1_656
O11 Sn0 2.037874 1_655
O12 Sn0 2.037191 1_565
