# generated using pymatgen
data_NbGaOsRu
_symmetry_space_group_name_H-M   'P 1'
_cell_length_a   4.38556965
_cell_length_b   4.38556984
_cell_length_c   4.38557004
_cell_angle_alpha   59.99999844
_cell_angle_beta   59.99999705
_cell_angle_gamma   59.99999514
_symmetry_Int_Tables_number   1
_chemical_formula_structural   NbGaOsRu
_chemical_formula_sum   'Nb1 Ga1 Os1 Ru1'
_cell_volume   59.64349267
_cell_formula_units_Z   1
loop_
 _symmetry_equiv_pos_site_id
 _symmetry_equiv_pos_as_xyz
  1  'x, y, z'
loop_
 _atom_site_type_symbol
 _atom_site_label
 _atom_site_symmetry_multiplicity
 _atom_site_fract_x
 _atom_site_fract_y
 _atom_site_fract_z
 _atom_site_occupancy
  Nb  Nb0  1  0.00000000  0.00000000  0.00000000  1
  Ga  Ga0  1  0.50000000  0.50000000  0.50000000  1
  Os  Os0  1  0.75000000  0.75000000  0.75000000  1
  Ru  Ru0  1  0.25000000  0.25000000  0.25000000  1
loop_
_geom_bond_atom_site_label_1
_geom_bond_atom_site_label_2
_geom_bond_distance
_geom_bond_site_symmetry_2
Nb0 Os0 2.685602 1_544
Nb0 Ru0 2.685602 1_455
Nb0 Os0 2.685602 1_454
Nb0 Ru0 2.685602 1_545
Nb0 Os0 2.685602 1_445
Nb0 Ru0 2.685602 1_555
Nb0 Ru0 2.685602 1_554
Nb0 Os0 2.685602 1_444
Ga0 Os0 2.685602 1_455
Ga0 Ru0 2.685602 1_655
Ga0 Os0 2.685602 1_545
Ga0 Ru0 2.685602 1_565
Ga0 Os0 2.685602 1_555
Ga0 Ru0 2.685602 1_556
Ga0 Ru0 2.685602 1_555
Ga0 Os0 2.685602 1_554
