# generated using pymatgen
data_BaP12(IrRu)2
_symmetry_space_group_name_H-M   'P 1'
_cell_length_a   7.04410934
_cell_length_b   7.05336669
_cell_length_c   7.04411042
_cell_angle_alpha   109.47726918
_cell_angle_beta   109.41647711
_cell_angle_gamma   109.46668817
_symmetry_Int_Tables_number   1
_chemical_formula_structural   BaP12(IrRu)2
_chemical_formula_sum   'Ba1 P12 Ir2 Ru2'
_cell_volume   269.59489881
_cell_formula_units_Z   1
loop_
 _symmetry_equiv_pos_site_id
 _symmetry_equiv_pos_as_xyz
  1  'x, y, z'
loop_
 _atom_site_type_symbol
 _atom_site_label
 _atom_site_symmetry_multiplicity
 _atom_site_fract_x
 _atom_site_fract_y
 _atom_site_fract_z
 _atom_site_occupancy
  Ba  Ba0  1  0.00000000  0.00000000  0.00000000  1
  P  P0  1  0.35783769  0.21368669  0.85584800  1
  P  P1  1  0.64216231  0.78631331  0.14415200  1
  P  P2  1  0.64048916  0.49864440  0.85815523  1
  P  P3  1  0.35951084  0.50135560  0.14184477  1
  P  P4  1  0.21564347  0.85920057  0.36083836  1
  P  P5  1  0.78435653  0.14079943  0.63916164  1
  P  P6  1  0.49836220  0.85920057  0.64355710  1
  P  P7  1  0.50163780  0.14079943  0.35644290  1
  P  P8  1  0.85425329  0.35599877  0.21564852  1
  P  P9  1  0.14574671  0.64400123  0.78435148  1
  P  P10  1  0.85964976  0.64400123  0.49825452  1
  P  P11  1  0.14035024  0.35599877  0.50174548  1
  Ir  Ir0  1  0.00000000  0.50000000  0.00000000  1
  Ir  Ir1  1  0.50000000  0.50000000  0.50000000  1
  Ru  Ru0  1  0.00000000  0.00000000  0.50000000  1
  Ru  Ru1  1  0.50000000  0.00000000  0.00000000  1
loop_
_geom_bond_atom_site_label_1
_geom_bond_atom_site_label_2
_geom_bond_distance
_geom_bond_site_symmetry_2
Ba0 P0 3.137926 1_554
Ba0 P1 3.137926 1_445
Ba0 P7 3.142630 1_555
Ba0 P6 3.142630 1_444
Ba0 P4 3.142630 1_545
Ba0 P5 3.142630 1_454
Ba0 P8 3.142942 1_455
Ba0 P9 3.142942 1_544
Ba0 P11 3.142942 1_555
Ba0 P10 3.142942 1_444
Ba0 P3 3.147880 1_555
Ba0 P2 3.147880 1_444
P0 P2 2.300791 1_555
P0 P3 2.327670 1_556
P0 Ru0 2.378252 1_555
P0 Ru1 2.378259 1_556
P1 P3 2.300791 1_555
P1 P2 2.327670 1_554
P1 Ru0 2.378252 1_665
P1 Ru1 2.378259 1_565
P4 P6 2.301142 1_555
P4 P7 2.328095 1_565
P4 Ru0 2.366620 1_565
P5 P7 2.301142 1_555
P5 P6 2.328095 1_545
P5 Ru0 2.366620 1_655
P6 Ru1 2.366620 1_566
P7 Ru1 2.366620 1_555
P8 Ru1 2.366295 1_555
P9 Ru1 2.366295 1_566
P10 P8 2.300517 1_555
P10 P9 2.328638 1_655
P10 Ru0 2.366295 1_665
P11 P9 2.300517 1_555
P11 P8 2.328638 1_455
P11 Ru0 2.366295 1_555
Ir0 P3 2.388894 1_555
Ir0 P2 2.388894 1_454
Ir0 P4 2.400089 1_555
Ir0 P5 2.400089 1_454
Ir0 P9 2.400820 1_554
Ir0 P8 2.400820 1_455
Ir1 P2 2.388894 1_555
Ir1 P3 2.388894 1_555
Ir1 P6 2.400089 1_555
Ir1 P7 2.400089 1_555
Ir1 P10 2.400820 1_555
Ir1 P11 2.400820 1_555
