# generated using pymatgen
data_Li3B4PdRh4
_symmetry_space_group_name_H-M   'P 1'
_cell_length_a   6.70259020
_cell_length_b   5.93960764
_cell_length_c   5.38155732
_cell_angle_alpha   74.48697407
_cell_angle_beta   58.90138994
_cell_angle_gamma   51.63877494
_symmetry_Int_Tables_number   1
_chemical_formula_structural   Li3B4PdRh4
_chemical_formula_sum   'Li3 B4 Pd1 Rh4'
_cell_volume   143.39718182
_cell_formula_units_Z   1
loop_
 _symmetry_equiv_pos_site_id
 _symmetry_equiv_pos_as_xyz
  1  'x, y, z'
loop_
 _atom_site_type_symbol
 _atom_site_label
 _atom_site_symmetry_multiplicity
 _atom_site_fract_x
 _atom_site_fract_y
 _atom_site_fract_z
 _atom_site_occupancy
  Li  Li0  1  0.93661657  0.76589644  0.40908124  1
  Li  Li1  1  0.46074355  0.32050504  0.35938075  1
  Li  Li2  1  0.86242382  0.37381081  0.33661320  1
  B  B0  1  0.05568400  0.97115133  0.58762396  1
  B  B1  1  0.67491197  0.82634890  0.16610107  1
  B  B2  1  0.43758017  0.56816432  0.92476696  1
  B  B3  1  0.27664321  0.20251658  0.84397715  1
  Pd  Pd0  1  0.87982495  0.38278781  0.82018003  1
  Rh  Rh0  1  0.10405439  0.63713035  0.87758940  1
  Rh  Rh1  1  0.34682400  0.87938077  0.14846924  1
  Rh  Rh2  1  0.61685121  0.14238993  0.85773705  1
  Rh  Rh3  1  0.40304414  0.87471772  0.61327794  1
loop_
_geom_bond_atom_site_label_1
_geom_bond_atom_site_label_2
_geom_bond_distance
_geom_bond_site_symmetry_2
Li0 Rh0 2.610418 1_654
Li0 Rh2 2.649027 1_565
Li0 Li1 2.698818 1_655
Li0 Pd0 2.780226 1_555
Li0 Rh1 2.791424 1_655
Li0 Rh3 2.804699 1_555
Li0 Li2 2.818951 1_555
Li0 Li1 2.909431 1_565
Li0 Rh0 3.004586 1_655
Li1 Rh2 2.595722 1_554
Li1 Rh0 2.714214 1_555
Li2 Rh1 2.559406 1_645
Li2 Rh3 2.610018 1_555
Li2 Pd0 2.680320 1_555
Li2 Pd0 2.708151 1_554
B0 Rh1 2.072468 1_555
B0 Rh3 2.098144 1_555
B0 Rh2 2.111792 1_465
B0 Rh0 2.131770 1_555
B0 Li2 2.335954 1_465
B0 Pd0 2.338643 1_465
B0 Li0 2.381758 1_455
B1 Rh0 2.062697 1_654
B1 Rh1 2.069732 1_555
B1 Rh3 2.093877 1_555
B1 Rh2 2.126762 1_564
B1 Li2 2.307661 1_555
B1 Li0 2.500429 1_555
B1 Li1 2.572597 1_565
B2 Rh2 2.058611 1_555
B2 Rh1 2.067478 1_556
B2 Rh3 2.103308 1_555
B2 Rh0 2.150280 1_555
B2 Pd0 2.207369 1_555
B2 Li1 2.430977 1_556
B2 Li0 2.673762 1_456
B3 Rh3 2.051571 1_545
B3 Rh0 2.088483 1_555
B3 Rh2 2.117111 1_555
B3 Rh1 2.140897 1_546
B3 Pd0 2.231726 1_455
B3 Li1 2.363534 1_555
B3 Li2 2.470821 1_456
