# generated using pymatgen
data_ScTa(NbRe8)3
_symmetry_space_group_name_H-M   'P 1'
_cell_length_a   8.38674606
_cell_length_b   8.38674514
_cell_length_c   8.38674530
_cell_angle_alpha   109.48654433
_cell_angle_beta   109.48654951
_cell_angle_gamma   109.48653737
_symmetry_Int_Tables_number   1
_chemical_formula_structural   ScTa(NbRe8)3
_chemical_formula_sum   'Sc1 Ta1 Nb3 Re24'
_cell_volume   453.84951166
_cell_formula_units_Z   1
loop_
 _symmetry_equiv_pos_site_id
 _symmetry_equiv_pos_as_xyz
  1  'x, y, z'
loop_
 _atom_site_type_symbol
 _atom_site_label
 _atom_site_symmetry_multiplicity
 _atom_site_fract_x
 _atom_site_fract_y
 _atom_site_fract_z
 _atom_site_occupancy
  Sc  Sc0  1  0.99953567  0.99953567  0.99953567  1
  Ta  Ta0  1  0.36990290  0.36990290  0.36990290  1
  Nb  Nb0  1  0.99978369  0.63108025  0.99978369  1
  Nb  Nb1  1  0.63108025  0.99978369  0.99978369  1
  Nb  Nb2  1  0.99978369  0.99978369  0.63108025  1
  Re  Re0  1  0.00013291  0.39875697  0.68174058  1
  Re  Re1  1  0.28126328  0.60009897  0.60009897  1
  Re  Re2  1  0.71988590  0.31879919  0.31879919  1
  Re  Re3  1  0.31879919  0.71988590  0.31879919  1
  Re  Re4  1  0.68174058  0.00013291  0.39875697  1
  Re  Re5  1  0.00013291  0.68174058  0.39875697  1
  Re  Re6  1  0.60009897  0.60009897  0.28126328  1
  Re  Re7  1  0.80506183  0.80506183  0.18153832  1
  Re  Re8  1  0.37651561  0.19488317  0.00111543  1
  Re  Re9  1  0.19488317  0.37651561  0.00111543  1
  Re  Re10  1  0.62275194  0.81751307  0.62275194  1
  Re  Re11  1  0.37651561  0.00111543  0.19488317  1
  Re  Re12  1  0.00111543  0.37651561  0.19488317  1
  Re  Re13  1  0.81751307  0.62275194  0.62275194  1
  Re  Re14  1  0.18153832  0.80506183  0.80506183  1
  Re  Re15  1  0.80506183  0.18153832  0.80506183  1
  Re  Re16  1  0.19488317  0.00111543  0.37651561  1
  Re  Re17  1  0.00111543  0.19488317  0.37651561  1
  Re  Re18  1  0.62275194  0.62275194  0.81751307  1
  Re  Re19  1  0.39875697  0.00013291  0.68174058  1
  Re  Re20  1  0.60009897  0.28126328  0.60009897  1
  Re  Re21  1  0.68174058  0.39875697  0.00013291  1
  Re  Re22  1  0.39875697  0.68174058  0.00013291  1
  Re  Re23  1  0.31879919  0.31879919  0.71988590  1
loop_
_geom_bond_atom_site_label_1
_geom_bond_atom_site_label_2
_geom_bond_distance
_geom_bond_site_symmetry_2
Sc0 Ta0 3.103825 1_666
Nb0 Re3 2.727011 1_656
Nb0 Re0 2.729978 1_655
Nb0 Re21 2.729978 1_556
Nb0 Re7 2.980994 1_556
Nb0 Re14 2.980994 1_655
Nb0 Re13 2.982758 1_555
Nb0 Re18 2.982759 1_555
Nb0 Re16 2.985348 1_666
Nb0 Re11 2.985349 1_666
Nb0 Re15 3.090852 1_555
Nb0 Sc0 3.091530 1_555
Nb0 Re9 3.093526 1_656
Nb0 Re12 3.093526 1_656
Nb0 Re5 3.228152 1_656
Nb0 Re22 3.228152 1_656
Nb0 Re20 3.234344 1_555
Nb1 Re2 2.727011 1_566
Nb1 Re19 2.729978 1_565
Nb1 Re22 2.729978 1_556
Nb1 Re7 2.980994 1_556
Nb1 Re15 2.980994 1_565
Nb1 Re18 2.982758 1_555
Nb1 Re10 2.982758 1_555
Nb1 Re17 2.985348 1_666
Nb1 Re12 2.985349 1_666
Nb1 Re14 3.090852 1_555
Nb1 Sc0 3.091531 1_555
Nb1 Re8 3.093526 1_566
Nb1 Re11 3.093526 1_566
Nb1 Re4 3.228151 1_566
Nb1 Re21 3.228152 1_566
Nb1 Re1 3.234344 1_555
Nb2 Re23 2.727011 1_665
Nb2 Re5 2.729978 1_655
Nb2 Re4 2.729978 1_565
Nb2 Re14 2.980994 1_655
Nb2 Re15 2.980994 1_565
Nb2 Re13 2.982759 1_555
Nb2 Re10 2.982759 1_555
Nb2 Re9 2.985348 1_666
Nb2 Re8 2.985348 1_666
Nb2 Re7 3.090852 1_555
Nb2 Sc0 3.091530 1_555
Nb2 Re17 3.093526 1_665
Nb2 Re16 3.093526 1_665
Nb2 Re0 3.228151 1_665
Nb2 Re19 3.228152 1_665
Nb2 Re6 3.234344 1_555
Re0 Re17 2.565099 1_555
Re0 Re15 2.731768 1_455
Re0 Re9 2.737662 1_556
Re0 Re2 2.837730 1_455
Re0 Re1 2.841039 1_555
Re0 Re14 2.852364 1_555
Re0 Re13 2.855474 1_455
Re0 Re4 2.908961 1_455
Re0 Re22 2.908961 1_556
Re0 Re23 2.909136 1_555
Re0 Re20 2.916733 1_455
Re1 Re14 2.560510 1_555
Re1 Ta0 2.726795 1_555
Re1 Re18 2.735878 1_555
Re1 Re10 2.735878 1_555
Re1 Re12 2.840374 1_555
Re1 Re17 2.840374 1_555
Re1 Re5 2.841039 1_555
Re1 Re22 2.916732 1_556
Re1 Re19 2.916732 1_565
Re1 Re23 2.922311 1_555
Re1 Re3 2.922311 1_555
Re2 Re8 2.740205 1_555
Re2 Re5 2.837730 1_655
Re2 Re21 2.909136 1_555
Re2 Re4 2.909136 1_555
Re2 Re6 2.922311 1_555
Re2 Re20 2.922311 1_555
Re2 Ta0 3.246377 1_555
Re3 Re9 2.740205 1_555
Re3 Re4 2.837730 1_565
Re3 Re5 2.909136 1_555
Re3 Re6 2.922311 1_555
Re3 Ta0 3.246377 1_555
Re4 Re7 2.731768 1_545
Re4 Re6 2.916732 1_545
Re5 Re7 2.731768 1_455
Re5 Re6 2.916732 1_455
Re6 Re7 2.560510 1_555
Re6 Ta0 2.726795 1_555
Re6 Re8 2.840374 1_555
Re6 Re9 2.840374 1_555
Re7 Sc0 3.032726 1_554
Re8 Re9 2.487782 1_555
Re8 Ta0 2.977193 1_555
Re8 Sc0 3.030181 1_444
Re9 Ta0 2.977193 1_555
Re9 Sc0 3.030181 1_444
Re10 Re15 2.491574 1_565
Re10 Re3 2.558606 1_555
Re10 Re18 2.667603 1_555
Re10 Re13 2.667603 1_555
Re10 Re6 2.735878 1_555
Re10 Re19 2.855474 1_565
Re10 Re4 2.855474 1_565
Re10 Sc0 3.033583 1_555
Re10 Ta0 3.076327 1_555
Re11 Re16 2.487782 1_555
Re11 Re4 2.565099 1_555
Re11 Re8 2.653996 1_555
Re11 Re14 2.668148 1_544
Re11 Re22 2.737662 1_545
Re11 Re2 2.740205 1_555
Re11 Re20 2.840374 1_555
Re11 Re3 2.843699 1_545
Re11 Ta0 2.977193 1_555
Re11 Sc0 3.030180 1_444
Re12 Re17 2.487782 1_555
Re12 Re5 2.565099 1_555
Re12 Re9 2.653997 1_555
Re12 Re15 2.668148 1_454
Re12 Re21 2.737662 1_455
Re12 Re3 2.740205 1_555
Re12 Re2 2.843700 1_455
Re12 Ta0 2.977193 1_555
Re12 Sc0 3.030180 1_444
Re13 Re14 2.491574 1_655
Re13 Re2 2.558606 1_555
Re13 Re18 2.667603 1_555
Re13 Re6 2.735878 1_555
Re13 Re20 2.735878 1_555
Re13 Re5 2.855474 1_655
Re13 Sc0 3.033582 1_555
Re13 Ta0 3.076327 1_555
Re14 Re8 2.668148 1_566
Re14 Re22 2.731768 1_556
Re14 Re19 2.731768 1_565
Re14 Re5 2.852364 1_555
Re14 Sc0 3.032726 1_455
Re15 Re20 2.560510 1_555
Re15 Re9 2.668148 1_656
Re15 Re21 2.731768 1_556
Re15 Re4 2.852364 1_555
Re15 Re19 2.852364 1_555
Re15 Sc0 3.032726 1_545
Re16 Re19 2.565099 1_555
Re16 Re17 2.653996 1_555
Re16 Re7 2.668148 1_445
Re16 Re5 2.737662 1_545
Re16 Re23 2.740205 1_555
Re16 Re20 2.840374 1_555
Re16 Re3 2.843699 1_545
Re16 Ta0 2.977193 1_555
Re16 Sc0 3.030180 1_444
Re17 Re7 2.668148 1_445
Re17 Re4 2.737662 1_455
Re17 Re23 2.740205 1_555
Re17 Re2 2.843699 1_455
Re17 Ta0 2.977193 1_555
Re17 Sc0 3.030180 1_444
Re18 Re7 2.491574 1_556
Re18 Re23 2.558606 1_555
Re18 Re20 2.735878 1_555
Re18 Re21 2.855474 1_556
Re18 Re22 2.855474 1_556
Re18 Sc0 3.033583 1_555
Re18 Ta0 3.076327 1_555
Re19 Re8 2.737662 1_556
Re19 Re3 2.837730 1_545
Re19 Re20 2.841039 1_555
Re19 Re21 2.908961 1_556
Re19 Re5 2.908961 1_545
Re19 Re23 2.909136 1_555
Re20 Ta0 2.726795 1_555
Re20 Re4 2.841039 1_555
Re20 Re21 2.916732 1_556
Re20 Re23 2.922311 1_555
Re21 Re8 2.565100 1_555
Re21 Re23 2.837730 1_554
Re21 Re6 2.841039 1_555
Re21 Re7 2.852364 1_555
Re21 Re5 2.908960 1_655
Re22 Re9 2.565100 1_555
Re22 Re23 2.837730 1_554
Re22 Re6 2.841038 1_555
Re22 Re7 2.852364 1_555
Re22 Re4 2.908960 1_565
Re22 Re3 2.909136 1_555
Re23 Re8 2.843699 1_556
Re23 Re9 2.843700 1_556
Re23 Ta0 3.246377 1_555
