# generated using pymatgen
data_Sc20Zn3Cd3Ni2
_symmetry_space_group_name_H-M   'P 1'
_cell_length_a   8.93069499
_cell_length_b   8.93069513
_cell_length_c   8.81900305
_cell_angle_alpha   90.00000000
_cell_angle_beta   90.00000000
_cell_angle_gamma   119.99998838
_symmetry_Int_Tables_number   1
_chemical_formula_structural   Sc20Zn3Cd3Ni2
_chemical_formula_sum   'Sc20 Zn3 Cd3 Ni2'
_cell_volume   609.14501732
_cell_formula_units_Z   1
loop_
 _symmetry_equiv_pos_site_id
 _symmetry_equiv_pos_as_xyz
  1  'x, y, z'
loop_
 _atom_site_type_symbol
 _atom_site_label
 _atom_site_symmetry_multiplicity
 _atom_site_fract_x
 _atom_site_fract_y
 _atom_site_fract_z
 _atom_site_occupancy
  Sc  Sc0  1  0.00000000  0.00000000  0.47670787  1
  Sc  Sc1  1  0.00000000  0.00000000  0.02329213  1
  Sc  Sc2  1  0.54284559  0.45715441  0.25000000  1
  Sc  Sc3  1  0.54284559  0.08568919  0.25000000  1
  Sc  Sc4  1  0.91431081  0.45715441  0.25000000  1
  Sc  Sc5  1  0.45776257  0.54223743  0.75000000  1
  Sc  Sc6  1  0.45776257  0.91552513  0.75000000  1
  Sc  Sc7  1  0.08447487  0.54223743  0.75000000  1
  Sc  Sc8  1  0.20826522  0.79173478  0.43425460  1
  Sc  Sc9  1  0.20826522  0.41653144  0.43425460  1
  Sc  Sc10  1  0.58346856  0.79173478  0.43425460  1
  Sc  Sc11  1  0.79044240  0.20955760  0.56006660  1
  Sc  Sc12  1  0.79044240  0.58088480  0.56006660  1
  Sc  Sc13  1  0.41911520  0.20955760  0.56006660  1
  Sc  Sc14  1  0.79044240  0.20955760  0.93993340  1
  Sc  Sc15  1  0.79044240  0.58088480  0.93993340  1
  Sc  Sc16  1  0.41911520  0.20955760  0.93993340  1
  Sc  Sc17  1  0.20826522  0.79173478  0.06574540  1
  Sc  Sc18  1  0.20826522  0.41653144  0.06574540  1
  Sc  Sc19  1  0.58346856  0.79173478  0.06574540  1
  Zn  Zn0  1  0.87768265  0.12231735  0.25000000  1
  Zn  Zn1  1  0.87768265  0.75536629  0.25000000  1
  Zn  Zn2  1  0.24463371  0.12231735  0.25000000  1
  Cd  Cd0  1  0.11297067  0.88702933  0.75000000  1
  Cd  Cd1  1  0.11297067  0.22594034  0.75000000  1
  Cd  Cd2  1  0.77405966  0.88702933  0.75000000  1
  Ni  Ni0  1  0.33333300  0.66666700  0.25000000  1
  Ni  Ni1  1  0.66666700  0.33333300  0.75000000  1
loop_
_geom_bond_atom_site_label_1
_geom_bond_atom_site_label_2
_geom_bond_distance
_geom_bond_site_symmetry_2
Sc0 Zn2 2.752671 1_555
Sc0 Zn1 2.752671 1_445
Sc0 Zn0 2.752676 1_455
Sc0 Sc8 3.243216 1_545
Sc0 Sc10 3.243224 1_445
Sc0 Sc9 3.243224 1_555
Sc0 Sc11 3.323840 1_455
Sc0 Sc13 3.323840 1_555
Sc0 Sc12 3.323841 1_445
Sc1 Zn2 2.752671 1_555
Sc1 Zn1 2.752671 1_445
Sc1 Zn0 2.752676 1_455
Sc1 Sc17 3.243216 1_545
Sc1 Sc19 3.243224 1_445
Sc1 Sc18 3.243224 1_555
Sc1 Sc14 3.323840 1_454
Sc1 Sc16 3.323840 1_554
Sc1 Sc15 3.323841 1_444
Sc2 Zn1 2.840941 1_555
Sc2 Zn2 2.840941 1_555
Sc2 Sc9 3.258278 1_555
Sc2 Sc4 3.317443 1_555
Sc2 Sc3 3.317443 1_555
Sc3 Zn0 2.840930 1_555
Sc3 Zn2 2.840956 1_555
Sc3 Sc8 3.258269 1_545
Sc3 Sc4 3.317443 1_555
Sc4 Zn0 2.840930 1_555
Sc4 Zn1 2.840956 1_555
Sc4 Sc9 3.258255 1_655
Sc4 Sc8 3.258269 1_655
Sc5 Sc7 3.333719 1_555
Sc5 Sc6 3.333719 1_555
Sc5 Sc9 3.387839 1_555
Sc6 Sc7 3.333719 1_555
Sc6 Sc8 3.387839 1_555
Sc7 Sc9 3.387834 1_555
Sc7 Sc8 3.387839 1_555
Sc8 Zn1 3.240878 1_455
Sc8 Zn2 3.240878 1_565
Sc9 Zn2 3.240878 1_555
Sc9 Zn0 3.240878 1_455
Sc10 Zn1 3.240878 1_555
Sc10 Zn0 3.240878 1_565
Sc10 Sc3 3.258255 1_565
Sc10 Sc2 3.258278 1_555
Sc10 Sc6 3.387834 1_555
Sc10 Sc5 3.387839 1_555
Sc11 Zn0 3.049334 1_555
Sc11 Sc6 3.275147 1_545
Sc11 Sc7 3.275147 1_655
Sc11 Sc3 3.338333 1_555
Sc11 Sc4 3.338333 1_555
Sc12 Zn1 3.049337 1_555
Sc12 Sc7 3.275146 1_655
Sc12 Sc5 3.275147 1_555
Sc12 Sc2 3.338333 1_555
Sc12 Sc4 3.338341 1_555
Sc13 Zn2 3.049337 1_555
Sc13 Sc6 3.275146 1_545
Sc13 Sc5 3.275147 1_555
Sc13 Sc2 3.338333 1_555
Sc13 Sc3 3.338341 1_555
Sc14 Zn0 3.049334 1_556
Sc14 Sc6 3.275147 1_545
Sc14 Sc7 3.275147 1_655
Sc14 Sc3 3.338333 1_556
Sc14 Sc4 3.338333 1_556
Sc15 Zn1 3.049337 1_556
Sc15 Sc7 3.275146 1_655
Sc15 Sc5 3.275147 1_555
Sc15 Sc2 3.338333 1_556
Sc15 Sc4 3.338341 1_556
Sc16 Zn2 3.049337 1_556
Sc16 Sc6 3.275146 1_545
Sc16 Sc5 3.275147 1_555
Sc16 Sc2 3.338333 1_556
Sc16 Sc3 3.338341 1_556
Sc17 Zn1 3.240878 1_455
Sc17 Zn2 3.240878 1_565
Sc17 Sc3 3.258269 1_565
Sc17 Sc4 3.258269 1_455
Sc17 Sc6 3.387839 1_554
Sc17 Sc7 3.387839 1_554
Sc18 Zn2 3.240878 1_555
Sc18 Zn0 3.240878 1_455
Sc18 Sc4 3.258255 1_455
Sc18 Sc2 3.258278 1_555
Sc18 Sc7 3.387834 1_554
Sc18 Sc5 3.387839 1_554
Sc19 Zn1 3.240878 1_555
Sc19 Zn0 3.240878 1_565
Sc19 Sc3 3.258255 1_565
Sc19 Sc2 3.258278 1_555
Sc19 Sc6 3.387834 1_554
Sc19 Sc5 3.387839 1_554
Cd0 Sc6 2.960203 1_555
Cd0 Sc7 2.960203 1_555
Cd0 Sc1 2.977007 1_566
Cd0 Sc0 2.977007 1_565
Cd0 Cd2 3.026711 1_455
Cd0 Cd1 3.026711 1_565
Cd0 Sc17 3.150653 1_556
Cd0 Sc8 3.150653 1_555
Cd0 Sc15 3.271448 1_455
Cd0 Sc12 3.271448 1_455
Cd0 Sc16 3.271448 1_565
Cd0 Sc13 3.271448 1_565
Cd1 Sc5 2.960208 1_555
Cd1 Sc7 2.960212 1_555
Cd1 Sc1 2.977002 1_556
Cd1 Sc0 2.977002 1_555
Cd1 Cd2 3.026711 1_445
Cd1 Sc18 3.150660 1_556
Cd1 Sc9 3.150660 1_555
Cd1 Sc16 3.271444 1_555
Cd1 Sc13 3.271444 1_555
Cd1 Sc14 3.271451 1_455
Cd1 Sc11 3.271451 1_455
Cd2 Sc5 2.960208 1_555
Cd2 Sc6 2.960212 1_555
Cd2 Sc1 2.977002 1_666
Cd2 Sc0 2.977002 1_665
Cd2 Sc19 3.150660 1_556
Cd2 Sc10 3.150660 1_555
Cd2 Sc15 3.271444 1_555
Cd2 Sc12 3.271444 1_555
Cd2 Sc14 3.271451 1_565
Cd2 Sc11 3.271451 1_565
Ni0 Sc8 2.526483 1_555
Ni0 Sc17 2.526483 1_555
Ni0 Sc10 2.526483 1_555
Ni0 Sc19 2.526483 1_555
Ni0 Sc9 2.526483 1_555
Ni0 Sc18 2.526483 1_555
Ni0 Sc4 3.240805 1_455
Ni0 Sc3 3.240805 1_565
Ni0 Sc2 3.240828 1_555
Ni1 Sc14 2.543901 1_555
Ni1 Sc11 2.543901 1_555
Ni1 Sc16 2.543907 1_555
Ni1 Sc13 2.543907 1_555
Ni1 Sc15 2.543907 1_555
Ni1 Sc12 2.543907 1_555
Ni1 Sc7 3.231414 1_655
Ni1 Sc6 3.231414 1_545
Ni1 Sc5 3.231421 1_555
