# generated using pymatgen
data_HfZrTa3Tc
_symmetry_space_group_name_H-M   'P 1'
_cell_length_a   5.31940231
_cell_length_b   5.31940241
_cell_length_c   5.31940234
_cell_angle_alpha   63.82980037
_cell_angle_beta   63.82980341
_cell_angle_gamma   63.82979877
_symmetry_Int_Tables_number   1
_chemical_formula_structural   HfZrTa3Tc
_chemical_formula_sum   'Hf1 Zr1 Ta3 Tc1'
_cell_volume   115.42204935
_cell_formula_units_Z   1
loop_
 _symmetry_equiv_pos_site_id
 _symmetry_equiv_pos_as_xyz
  1  'x, y, z'
loop_
 _atom_site_type_symbol
 _atom_site_label
 _atom_site_symmetry_multiplicity
 _atom_site_fract_x
 _atom_site_fract_y
 _atom_site_fract_z
 _atom_site_occupancy
  Hf  Hf0  1  0.25002320  0.25002320  0.25002320  1
  Zr  Zr0  1  0.99963647  0.99963647  0.99963647  1
  Ta  Ta0  1  0.62511763  0.62511763  0.12518586  1
  Ta  Ta1  1  0.62511763  0.12518586  0.62511763  1
  Ta  Ta2  1  0.12518586  0.62511763  0.62511763  1
  Tc  Tc0  1  0.62491821  0.62491821  0.62491821  1
loop_
_geom_bond_atom_site_label_1
_geom_bond_atom_site_label_2
_geom_bond_distance
_geom_bond_site_symmetry_2
Hf0 Ta1 3.094744 1_555
Hf0 Ta2 3.094744 1_555
Hf0 Ta0 3.094744 1_555
Hf0 Zr0 3.164853 1_444
Hf0 Ta0 3.224881 1_455
Hf0 Ta2 3.224881 1_554
Hf0 Ta0 3.224881 1_545
Hf0 Ta2 3.224881 1_545
Hf0 Ta1 3.224881 1_554
Hf0 Ta1 3.224881 1_455
Hf0 Tc0 3.289412 1_545
Hf0 Tc0 3.289412 1_455
Hf0 Tc0 3.289412 1_554
Hf0 Zr0 3.412252 1_454
Hf0 Zr0 3.412252 1_544
Hf0 Zr0 3.412253 1_445
Ta0 Tc0 2.657342 1_555
Ta0 Tc0 2.662061 1_554
Ta0 Ta1 2.811767 1_555
Ta0 Ta2 2.811767 1_555
Ta0 Ta1 2.812534 1_564
Ta0 Ta2 2.812534 1_654
Ta0 Zr0 3.088296 1_554
Ta0 Zr0 3.228731 1_454
Ta0 Zr0 3.228731 1_544
Ta1 Tc0 2.657342 1_555
Ta1 Tc0 2.662061 1_545
Ta1 Ta2 2.811767 1_555
Ta1 Ta2 2.812534 1_645
Ta1 Zr0 3.088296 1_545
Ta1 Zr0 3.228731 1_544
Ta1 Zr0 3.228731 1_445
Ta2 Tc0 2.657342 1_555
Ta2 Tc0 2.662061 1_455
Ta2 Zr0 3.088296 1_455
Ta2 Zr0 3.228731 1_454
Ta2 Zr0 3.228731 1_445
Tc0 Zr0 3.289056 1_545
Tc0 Zr0 3.289056 1_455
Tc0 Zr0 3.289056 1_554
