# generated using pymatgen
data_Lu4MnSi4Os
_symmetry_space_group_name_H-M   'P 1'
_cell_length_a   5.63163428
_cell_length_b   5.63163470
_cell_length_c   9.77662827
_cell_angle_alpha   116.27095859
_cell_angle_beta   116.27096280
_cell_angle_gamma   42.84682539
_symmetry_Int_Tables_number   1
_chemical_formula_structural   Lu4MnSi4Os
_chemical_formula_sum   'Lu4 Mn1 Si4 Os1'
_cell_volume   185.49991123
_cell_formula_units_Z   1
loop_
 _symmetry_equiv_pos_site_id
 _symmetry_equiv_pos_as_xyz
  1  'x, y, z'
loop_
 _atom_site_type_symbol
 _atom_site_label
 _atom_site_symmetry_multiplicity
 _atom_site_fract_x
 _atom_site_fract_y
 _atom_site_fract_z
 _atom_site_occupancy
  Lu  Lu0  1  0.00625646  0.00625646  0.17654676  1
  Lu  Lu1  1  0.81380913  0.81380913  0.39172709  1
  Lu  Lu2  1  0.18614553  0.18614553  0.61036274  1
  Lu  Lu3  1  0.99482993  0.99482993  0.82267135  1
  Mn  Mn0  1  0.27318685  0.27318685  0.12888662  1
  Si  Si0  1  0.63199848  0.63199848  0.05822848  1
  Si  Si1  1  0.51021393  0.51021393  0.38023800  1
  Si  Si2  1  0.49456617  0.49456617  0.62369135  1
  Si  Si3  1  0.35983900  0.35983900  0.93584105  1
  Os  Os0  1  0.72915452  0.72915452  0.87180857  1
loop_
_geom_bond_atom_site_label_1
_geom_bond_atom_site_label_2
_geom_bond_distance
_geom_bond_site_symmetry_2
Lu0 Si1 2.849579 1_545
Lu0 Si1 2.849579 1_455
Lu0 Si3 2.947969 1_454
Lu0 Si3 2.947969 1_544
Lu0 Si0 2.959353 1_545
Lu0 Si0 2.959353 1_455
Lu0 Os0 3.014355 1_444
Lu0 Mn0 3.048016 1_555
Lu0 Mn0 3.055721 1_455
Lu0 Mn0 3.055721 1_545
Lu1 Si0 2.890373 1_555
Lu1 Si1 2.950353 1_655
Lu1 Si1 2.950353 1_565
Lu1 Si2 2.979768 1_655
Lu1 Si2 2.979768 1_565
Lu1 Si1 3.131364 1_555
Lu2 Si3 2.816296 1_555
Lu2 Si2 2.920971 1_455
Lu2 Si2 2.920972 1_545
Lu2 Si1 2.957906 1_455
Lu2 Si1 2.957906 1_545
Lu2 Os0 3.141960 1_545
Lu2 Os0 3.141961 1_455
Lu2 Si2 3.173920 1_555
Lu3 Si2 2.830286 1_565
Lu3 Si2 2.830286 1_655
Lu3 Si0 2.907517 1_656
Lu3 Si0 2.907517 1_566
Lu3 Si3 2.991302 1_565
Lu3 Si3 2.991302 1_655
Lu3 Mn0 3.028509 1_666
Lu3 Os0 3.043519 1_555
Lu3 Os0 3.062028 1_655
Lu3 Os0 3.062028 1_565
Mn0 Si0 2.434637 1_455
Mn0 Si0 2.434637 1_545
Mn0 Si3 2.453184 1_554
Mn0 Si1 2.531317 1_555
Si0 Si3 2.515521 1_554
Si1 Si2 2.462396 1_555
Os0 Si3 2.384316 1_655
Os0 Si3 2.384316 1_565
Os0 Si0 2.474866 1_556
Os0 Si2 2.502086 1_555
