# generated using pymatgen
data_NbSb3(Se4O13)2
_symmetry_space_group_name_H-M   'P 1'
_cell_length_a   6.72129465
_cell_length_b   7.36821847
_cell_length_c   11.35063031
_cell_angle_alpha   71.59175624
_cell_angle_beta   91.96616780
_cell_angle_gamma   90.33271649
_symmetry_Int_Tables_number   1
_chemical_formula_structural   NbSb3(Se4O13)2
_chemical_formula_sum   'Nb1 Sb3 Se8 O26'
_cell_volume   533.04296771
_cell_formula_units_Z   1
loop_
 _symmetry_equiv_pos_site_id
 _symmetry_equiv_pos_as_xyz
  1  'x, y, z'
loop_
 _atom_site_type_symbol
 _atom_site_label
 _atom_site_symmetry_multiplicity
 _atom_site_fract_x
 _atom_site_fract_y
 _atom_site_fract_z
 _atom_site_occupancy
  Nb  Nb0  1  0.99653939  0.34598072  0.05056047  1
  Sb  Sb0  1  0.50543348  0.91793698  0.39770615  1
  Sb  Sb1  1  0.50200740  0.41729668  0.39460636  1
  Sb  Sb2  1  0.99097283  0.84634138  0.04762480  1
  Se  Se0  1  0.52339728  0.89398757  0.71815391  1
  Se  Se1  1  0.49177572  0.40654901  0.69362925  1
  Se  Se2  1  0.07319347  0.05449406  0.73557176  1
  Se  Se3  1  0.93662983  0.56098563  0.71614760  1
  Se  Se4  1  0.05854667  0.67589300  0.38204018  1
  Se  Se5  1  0.94667027  0.17108941  0.39145044  1
  Se  Se6  1  0.54671513  0.59241032  0.05672061  1
  Se  Se7  1  0.44484202  0.08488108  0.06394415  1
  O  O0  1  0.11386325  0.51011477  0.63507097  1
  O  O1  1  0.91753081  0.01938853  0.63088188  1
  O  O2  1  0.58344040  0.68024998  0.81309428  1
  O  O3  1  0.43174431  0.22319191  0.81148931  1
  O  O4  1  0.25596322  0.86981487  0.73983447  1
  O  O5  1  0.76557161  0.37489698  0.70570038  1
  O  O6  1  0.58611637  0.65379399  0.42242459  1
  O  O7  1  0.41652933  0.17708181  0.37380676  1
  O  O8  1  0.51628834  0.83483128  0.58103976  1
  O  O9  1  0.46485420  0.29308785  0.57579084  1
  O  O10  1  0.21490624  0.85650487  0.39560747  1
  O  O11  1  0.79226912  0.34891773  0.40810469  1
  O  O12  1  0.97223172  0.24823043  0.23617752  1
  O  O13  1  0.97611322  0.77473933  0.23199504  1
  O  O14  1  0.28671040  0.26011532  0.07591700  1
  O  O15  1  0.69976218  0.78606750  0.04183867  1
  O  O16  1  0.28230740  0.91612235  0.03823757  1
  O  O17  1  0.70316671  0.41490895  0.04634750  1
  O  O18  1  0.01852447  0.44393907  0.86775820  1
  O  O19  1  0.95521816  0.90713632  0.86513235  1
  O  O20  1  0.91511451  0.10010515  0.03892950  1
  O  O21  1  0.07551673  0.59225996  0.06294959  1
  O  O22  1  0.51833262  0.97055361  0.21461359  1
  O  O23  1  0.51379682  0.53296179  0.21243858  1
  O  O24  1  0.21193085  0.49456179  0.37271018  1
  O  O25  1  0.79547454  0.97597703  0.40195063  1
loop_
_geom_bond_atom_site_label_1
_geom_bond_atom_site_label_2
_geom_bond_distance
_geom_bond_site_symmetry_2
Nb0 O20 1.932267 1_555
Nb0 O21 1.933734 1_655
Nb0 O18 1.980413 1_654
Nb0 O12 2.012018 1_555
Nb0 O17 2.034261 1_555
Nb0 O14 2.036588 1_655
O0 Se3 1.644600 1_455
O1 Se2 1.636850 1_655
O2 Se0 1.646221 1_555
O3 Se1 1.633078 1_555
O4 Se0 1.822705 1_555
O4 Se2 1.826702 1_565
O5 Se3 1.814112 1_555
O5 Se1 1.851279 1_555
O6 Sb1 1.944128 1_555
O6 Sb0 1.953889 1_555
O7 Sb0 1.936902 1_545
O7 Sb1 1.939421 1_555
O8 Se0 1.742852 1_555
O8 Sb0 1.973820 1_555
O9 Se1 1.791233 1_555
O9 Sb1 1.993300 1_555
O10 Se4 1.732417 1_555
O10 Sb0 2.002978 1_555
O11 Se5 1.736441 1_555
O11 Sb1 2.006394 1_555
O12 Se5 1.686939 1_555
O13 Se4 1.701334 1_655
O13 Sb2 1.996050 1_555
O14 Se7 1.718107 1_555
O15 Se6 1.722039 1_555
O15 Sb2 2.008015 1_555
O16 Se7 1.736733 1_565
O16 Sb2 2.019424 1_455
O17 Se6 1.718104 1_555
O18 Se3 1.735326 1_455
O19 Se2 1.741227 1_665
O19 Sb2 1.982472 1_556
O20 Sb2 1.912296 1_545
O21 Sb2 1.912569 1_455
O22 Se7 1.707444 1_565
O22 Sb0 1.994973 1_555
O23 Se6 1.703410 1_555
O23 Sb1 1.976250 1_555
O24 Se4 1.723959 1_555
O24 Sb1 2.019269 1_555
O25 Se5 1.731139 1_565
O25 Sb0 1.995609 1_555
