# generated using pymatgen
data_Li2CdGeSe4
_symmetry_space_group_name_H-M   'P 1'
_cell_length_a   6.74414569
_cell_length_b   7.18929308
_cell_length_c   8.15829458
_cell_angle_alpha   90.00000000
_cell_angle_beta   90.00000000
_cell_angle_gamma   90.00000000
_symmetry_Int_Tables_number   1
_chemical_formula_structural   Li2CdGeSe4
_chemical_formula_sum   'Li4 Cd2 Ge2 Se8'
_cell_volume   395.56013369
_cell_formula_units_Z   2
loop_
 _symmetry_equiv_pos_site_id
 _symmetry_equiv_pos_as_xyz
  1  'x, y, z'
loop_
 _atom_site_type_symbol
 _atom_site_label
 _atom_site_symmetry_multiplicity
 _atom_site_fract_x
 _atom_site_fract_y
 _atom_site_fract_z
 _atom_site_occupancy
  Li  Li0  1  0.62399204  0.67163300  0.25424952  1
  Li  Li1  1  0.62399204  0.67163300  0.74575048  1
  Li  Li2  1  0.12399204  0.32836700  0.24575048  1
  Li  Li3  1  0.12399204  0.32836700  0.75424952  1
  Cd  Cd0  1  0.12697704  0.85377652  0.50000000  1
  Cd  Cd1  1  0.62697704  0.14622348  0.00000000  1
  Ge  Ge0  1  0.12482971  0.82747813  0.00000000  1
  Ge  Ge1  1  0.62482971  0.17252187  0.50000000  1
  Se  Se0  1  0.73080422  0.86018417  0.50000000  1
  Se  Se1  1  0.23080422  0.13981583  0.00000000  1
  Se  Se2  1  0.24677055  0.66572090  0.23211289  1
  Se  Se3  1  0.24677055  0.66572090  0.76788711  1
  Se  Se4  1  0.74677055  0.33427910  0.26788711  1
  Se  Se5  1  0.74677055  0.33427910  0.73211289  1
  Se  Se6  1  0.77473384  0.80559099  0.00000000  1
  Se  Se7  1  0.27473384  0.19440901  0.50000000  1
loop_
_geom_bond_atom_site_label_1
_geom_bond_atom_site_label_2
_geom_bond_distance
_geom_bond_site_symmetry_2
Li0 Se6 2.502698 1_555
Li0 Se0 2.525089 1_555
Li0 Se2 2.550793 1_555
Li0 Se4 2.565205 1_555
Li1 Se6 2.502698 1_556
Li1 Se0 2.525089 1_555
Li1 Se3 2.550793 1_555
Li1 Se5 2.565205 1_555
Li2 Se7 2.502698 1_555
Li2 Se1 2.525089 1_555
Li2 Se4 2.550793 1_455
Li2 Se2 2.565205 1_555
Li3 Se7 2.502698 1_555
Li3 Se1 2.525089 1_556
Li3 Se5 2.550793 1_455
Li3 Se3 2.565205 1_555
Cd0 Se7 2.643888 1_565
Cd0 Se0 2.672244 1_455
Cd0 Se3 2.693882 1_555
Cd0 Se2 2.693882 1_555
Cd1 Se6 2.643888 1_545
Cd1 Se1 2.672244 1_555
Cd1 Se4 2.693882 1_555
Cd1 Se5 2.693882 1_554
Ge0 Se1 2.356485 1_565
Ge0 Se6 2.366335 1_455
Ge0 Se2 2.369514 1_555
Ge0 Se3 2.369514 1_554
Ge1 Se0 2.356485 1_545
Ge1 Se7 2.366335 1_555
Ge1 Se5 2.369514 1_555
Ge1 Se4 2.369514 1_555
