# generated using pymatgen
data_Zr10Ni2SnBi5
_symmetry_space_group_name_H-M   'P 1'
_cell_length_a   8.76773402
_cell_length_b   8.75075453
_cell_length_c   5.87472285
_cell_angle_alpha   90.00000000
_cell_angle_beta   90.00000000
_cell_angle_gamma   119.93596299
_symmetry_Int_Tables_number   1
_chemical_formula_structural   Zr10Ni2SnBi5
_chemical_formula_sum   'Zr10 Ni2 Sn1 Bi5'
_cell_volume   390.59867210
_cell_formula_units_Z   1
loop_
 _symmetry_equiv_pos_site_id
 _symmetry_equiv_pos_as_xyz
  1  'x, y, z'
loop_
 _atom_site_type_symbol
 _atom_site_label
 _atom_site_symmetry_multiplicity
 _atom_site_fract_x
 _atom_site_fract_y
 _atom_site_fract_z
 _atom_site_occupancy
  Zr  Zr0  1  0.66928441  0.33359501  0.50162751  1
  Zr  Zr1  1  0.33071559  0.66431160  0.50162751  1
  Zr  Zr2  1  0.33071559  0.66431160  0.99837249  1
  Zr  Zr3  1  0.66928441  0.33359501  0.99837249  1
  Zr  Zr4  1  0.75202401  0.75074385  0.25000000  1
  Zr  Zr5  1  0.24797599  0.99871984  0.25000000  1
  Zr  Zr6  1  1.00000000  0.24880038  0.25000000  1
  Zr  Zr7  1  0.24598653  0.25265984  0.75000000  1
  Zr  Zr8  1  0.75401347  0.00667432  0.75000000  1
  Zr  Zr9  1  0.00000000  0.74707935  0.75000000  1
  Ni  Ni0  1  1.00000000  0.99964561  0.50263625  1
  Ni  Ni1  1  1.00000000  0.99964561  0.99736375  1
  Sn  Sn0  1  0.00000000  0.39155903  0.75000000  1
  Bi  Bi0  1  0.39048813  0.38935186  0.25000000  1
  Bi  Bi1  1  0.60951187  0.99886272  0.25000000  1
  Bi  Bi2  1  1.00000000  0.60716584  0.25000000  1
  Bi  Bi3  1  0.61164445  0.61246249  0.75000000  1
  Bi  Bi4  1  0.38835555  0.00081804  0.75000000  1
loop_
_geom_bond_atom_site_label_1
_geom_bond_atom_site_label_2
_geom_bond_distance
_geom_bond_site_symmetry_2
Ni0 Zr7 2.626686 1_665
Ni0 Zr8 2.626690 1_565
Ni0 Zr4 2.635809 1_555
Ni0 Zr5 2.635809 1_655
Ni0 Zr6 2.637504 1_565
Ni0 Zr9 2.645092 1_655
Ni1 Zr7 2.626686 1_665
Ni1 Zr8 2.626690 1_565
Ni1 Zr4 2.635809 1_556
Ni1 Zr5 2.635809 1_656
Ni1 Zr6 2.637504 1_566
Ni1 Zr9 2.645092 1_655
Sn0 Zr8 2.957240 1_455
Sn0 Zr7 2.957247 1_555
Sn0 Zr3 3.053886 1_455
Sn0 Zr0 3.053886 1_455
Sn0 Zr2 3.053888 1_555
Sn0 Zr1 3.053888 1_555
Sn0 Zr9 3.111071 1_555
Sn0 Zr6 3.191975 1_455
Sn0 Zr6 3.191975 1_456
Bi0 Zr5 2.997209 1_545
Bi0 Zr6 3.005274 1_455
Bi0 Zr1 3.083458 1_555
Bi0 Zr2 3.083458 1_554
Bi0 Zr0 3.096573 1_555
Bi0 Zr3 3.096573 1_554
Bi0 Zr4 3.169222 1_555
Bi0 Zr7 3.186144 1_555
Bi0 Zr7 3.186144 1_554
Bi1 Zr4 2.997201 1_555
Bi1 Zr6 3.005275 1_565
Bi1 Zr0 3.083458 1_565
Bi1 Zr3 3.083458 1_564
Bi1 Zr1 3.096563 1_555
Bi1 Zr2 3.096563 1_554
Bi1 Zr5 3.169227 1_555
Bi1 Zr8 3.186141 1_564
Bi1 Zr8 3.186141 1_565
Bi2 Zr5 3.005339 1_655
Bi2 Zr4 3.005340 1_555
Bi2 Zr1 3.065273 1_655
Bi2 Zr2 3.065273 1_654
Bi2 Zr0 3.065275 1_555
Bi2 Zr3 3.065275 1_554
Bi2 Zr6 3.135968 1_555
Bi2 Zr9 3.182314 1_654
Bi2 Zr9 3.182314 1_655
Bi3 Zr9 2.996394 1_655
Bi3 Zr8 3.026636 1_565
Bi3 Zr2 3.084995 1_555
Bi3 Zr1 3.084995 1_555
Bi3 Zr3 3.093601 1_555
Bi3 Zr0 3.093601 1_555
Bi3 Zr7 3.180732 1_555
Bi3 Zr4 3.181316 1_555
Bi3 Zr4 3.181316 1_556
Bi4 Zr9 2.996394 1_545
Bi4 Zr7 3.026628 1_555
Bi4 Zr3 3.084990 1_555
Bi4 Zr0 3.084990 1_555
Bi4 Zr2 3.093594 1_545
Bi4 Zr1 3.093594 1_545
Bi4 Zr8 3.180728 1_555
Bi4 Zr5 3.181316 1_546
Bi4 Zr5 3.181316 1_545
