# generated using pymatgen
data_Cs3Fe4As3O16
_symmetry_space_group_name_H-M   'P 1'
_cell_length_a   7.75515521
_cell_length_b   7.87982424
_cell_length_c   7.88494833
_cell_angle_alpha   90.72987096
_cell_angle_beta   90.17186555
_cell_angle_gamma   89.84187802
_symmetry_Int_Tables_number   1
_chemical_formula_structural   Cs3Fe4As3O16
_chemical_formula_sum   'Cs3 Fe4 As3 O16'
_cell_volume   481.80031131
_cell_formula_units_Z   1
loop_
 _symmetry_equiv_pos_site_id
 _symmetry_equiv_pos_as_xyz
  1  'x, y, z'
loop_
 _atom_site_type_symbol
 _atom_site_label
 _atom_site_symmetry_multiplicity
 _atom_site_fract_x
 _atom_site_fract_y
 _atom_site_fract_z
 _atom_site_occupancy
  Cs  Cs0  1  0.99907552  0.50601448  0.00303565  1
  Cs  Cs1  1  0.99915719  0.99700987  0.49398409  1
  Cs  Cs2  1  0.51004374  0.00095463  0.99923761  1
  Fe  Fe0  1  0.36455536  0.36084352  0.35960043  1
  Fe  Fe1  1  0.62291048  0.62554354  0.37411639  1
  Fe  Fe2  1  0.62713749  0.36787053  0.63215857  1
  Fe  Fe3  1  0.36439459  0.64018123  0.63925077  1
  As  As0  1  0.50154442  0.99565024  0.49806167  1
  As  As1  1  0.50166443  0.50195175  0.00451287  1
  As  As2  1  0.98890760  0.49972771  0.50021101  1
  O  O0  1  0.36917700  0.36819740  0.11027844  1
  O  O1  1  0.87180191  0.62860788  0.37134486  1
  O  O2  1  0.62443285  0.61921728  0.60815747  1
  O  O3  1  0.62438528  0.39173683  0.37943396  1
  O  O4  1  0.11090044  0.37064039  0.37522115  1
  O  O5  1  0.37536449  0.63415823  0.88860263  1
  O  O6  1  0.62773873  0.62985047  0.12905074  1
  O  O7  1  0.39770207  0.37638293  0.62343199  1
  O  O8  1  0.62803024  0.87113762  0.37079152  1
  O  O9  1  0.87214452  0.37027413  0.62953753  1
  O  O10  1  0.37513488  0.11125193  0.36581953  1
  O  O11  1  0.63659711  0.38060649  0.88339222  1
  O  O12  1  0.39030488  0.62031744  0.38003559  1
  O  O13  1  0.36963905  0.88970908  0.63207915  1
  O  O14  1  0.11084502  0.62483616  0.62934852  1
  O  O15  1  0.63640971  0.11732924  0.61930464  1
loop_
_geom_bond_atom_site_label_1
_geom_bond_atom_site_label_2
_geom_bond_distance
_geom_bond_site_symmetry_2
Cs0 O11 3.121589 1_554
Cs0 O0 3.181829 1_655
Cs0 O6 3.195237 1_555
Cs0 O1 3.206503 1_555
Cs0 O14 3.224894 1_654
Cs0 O5 3.225644 1_654
Cs0 O4 3.249861 1_655
Cs0 O9 3.270217 1_554
Cs1 O15 3.125267 1_565
Cs1 O13 3.185399 1_655
Cs1 O8 3.191472 1_555
Cs1 O1 3.205655 1_555
Cs1 O4 3.222586 1_665
Cs1 O10 3.223144 1_665
Cs1 O14 3.248098 1_655
Cs1 O9 3.267087 1_565
Cs2 O5 3.186320 1_545
Cs2 O10 3.186532 1_556
Cs2 O13 3.202641 1_545
Cs2 O0 3.202794 1_556
Cs2 O6 3.238498 1_546
Cs2 O8 3.243729 1_546
Cs2 O11 3.292173 1_555
Cs2 O15 3.296722 1_555
Fe0 O0 1.967919 1_555
Fe0 O10 1.969451 1_555
Fe0 O4 1.972591 1_555
Fe0 O3 2.035651 1_555
Fe0 O12 2.059110 1_555
Fe0 O7 2.097424 1_555
Fe1 O12 1.805233 1_555
Fe1 O3 1.843370 1_555
Fe1 O2 1.846711 1_555
Fe1 O1 1.930602 1_555
Fe1 O6 1.933537 1_555
Fe1 O8 1.936268 1_555
Fe2 O7 1.781542 1_555
Fe2 O9 1.900391 1_555
Fe2 O15 1.976653 1_555
Fe2 O11 1.983375 1_555
Fe2 O2 1.992034 1_555
Fe2 O3 2.004003 1_555
Fe3 O13 1.968304 1_555
Fe3 O5 1.968882 1_555
Fe3 O14 1.971615 1_555
Fe3 O2 2.038214 1_555
Fe3 O12 2.058285 1_555
Fe3 O7 2.096147 1_555
As0 O10 1.700360 1_565
As0 O13 1.701070 1_555
As0 O15 1.703917 1_565
As0 O8 1.705107 1_555
As1 O5 1.700940 1_554
As1 O0 1.701617 1_555
As1 O11 1.702519 1_554
As1 O6 1.705986 1_555
As2 O4 1.695804 1_655
As2 O14 1.696090 1_655
As2 O1 1.704187 1_555
As2 O9 1.713913 1_555
