# generated using pymatgen
data_CaY6RhI12
_symmetry_space_group_name_H-M   'P 1'
_cell_length_a   9.73596534
_cell_length_b   9.73596618
_cell_length_c   9.73596615
_cell_angle_alpha   107.03319545
_cell_angle_beta   107.03319527
_cell_angle_gamma   107.03318873
_symmetry_Int_Tables_number   1
_chemical_formula_structural   CaY6RhI12
_chemical_formula_sum   'Ca1 Y6 Rh1 I12'
_cell_volume   767.87197607
_cell_formula_units_Z   1
loop_
 _symmetry_equiv_pos_site_id
 _symmetry_equiv_pos_as_xyz
  1  'x, y, z'
loop_
 _atom_site_type_symbol
 _atom_site_label
 _atom_site_symmetry_multiplicity
 _atom_site_fract_x
 _atom_site_fract_y
 _atom_site_fract_z
 _atom_site_occupancy
  Ca  Ca0  1  0.50000000  0.50000000  0.50000000  1
  Y  Y0  1  0.90488342  0.97718680  0.70014272  1
  Y  Y1  1  0.97718680  0.70014272  0.90488342  1
  Y  Y2  1  0.70014272  0.90488342  0.97718680  1
  Y  Y3  1  0.09511658  0.02281320  0.29985728  1
  Y  Y4  1  0.02281320  0.29985728  0.09511658  1
  Y  Y5  1  0.29985728  0.09511658  0.02281320  1
  Rh  Rh0  1  0.00000000  0.00000000  0.00000000  1
  I  I0  1  0.54117435  0.85000400  0.62045357  1
  I  I1  1  0.85000400  0.62045357  0.54117435  1
  I  I2  1  0.62045357  0.54117435  0.85000400  1
  I  I3  1  0.45882565  0.14999600  0.37954643  1
  I  I4  1  0.14999600  0.37954643  0.45882565  1
  I  I5  1  0.37954643  0.45882565  0.14999600  1
  I  I6  1  0.67665730  0.22750450  0.07332305  1
  I  I7  1  0.22750450  0.07332305  0.67665730  1
  I  I8  1  0.07332305  0.67665730  0.22750450  1
  I  I9  1  0.32334270  0.77249550  0.92667695  1
  I  I10  1  0.77249550  0.92667695  0.32334270  1
  I  I11  1  0.92667695  0.32334270  0.77249550  1
loop_
_geom_bond_atom_site_label_1
_geom_bond_atom_site_label_2
_geom_bond_distance
_geom_bond_site_symmetry_2
Ca0 I1 3.119458 1_555
Ca0 I4 3.119458 1_555
Ca0 I2 3.119458 1_555
Ca0 I5 3.119458 1_555
Ca0 I0 3.119458 1_555
Ca0 I3 3.119458 1_555
Rh0 Y5 2.710270 1_555
Rh0 Y2 2.710270 1_444
Rh0 Y3 2.710270 1_555
Rh0 Y0 2.710270 1_444
Rh0 Y4 2.710270 1_555
Rh0 Y1 2.710270 1_444
I0 Y0 3.151692 1_555
I0 Y2 3.165876 1_555
I1 Y1 3.151692 1_555
I1 Y0 3.165876 1_555
I2 Y2 3.151692 1_555
I2 Y1 3.165876 1_555
I3 Y3 3.151692 1_555
I3 Y5 3.165876 1_555
I4 Y4 3.151692 1_555
I4 Y3 3.165876 1_555
I5 Y5 3.151692 1_555
I5 Y4 3.165876 1_555
I6 Y2 3.101318 1_544
I6 Y4 3.162578 1_655
I6 Y5 3.341069 1_555
I7 Y0 3.101318 1_445
I7 Y5 3.162579 1_556
I7 Y3 3.341069 1_555
I8 Y1 3.101318 1_454
I8 Y3 3.162579 1_565
I8 Y4 3.341069 1_555
I9 Y5 3.101318 1_566
I9 Y1 3.162578 1_455
I9 Y2 3.341069 1_555
I10 Y3 3.101318 1_665
I10 Y2 3.162579 1_554
I10 Y0 3.341069 1_555
I11 Y4 3.101318 1_656
I11 Y0 3.162579 1_545
I11 Y1 3.341069 1_555
