# generated using pymatgen
data_In6PtBr10
_symmetry_space_group_name_H-M   'P 1'
_cell_length_a   7.57365759
_cell_length_b   9.12948309
_cell_length_c   8.47099596
_cell_angle_alpha   97.19066510
_cell_angle_beta   99.69854409
_cell_angle_gamma   106.97797013
_symmetry_Int_Tables_number   1
_chemical_formula_structural   In6PtBr10
_chemical_formula_sum   'In6 Pt1 Br10'
_cell_volume   542.65491159
_cell_formula_units_Z   1
loop_
 _symmetry_equiv_pos_site_id
 _symmetry_equiv_pos_as_xyz
  1  'x, y, z'
loop_
 _atom_site_type_symbol
 _atom_site_label
 _atom_site_symmetry_multiplicity
 _atom_site_fract_x
 _atom_site_fract_y
 _atom_site_fract_z
 _atom_site_occupancy
  In  In0  1  0.88554883  0.01214299  0.27460455  1
  In  In1  1  0.11445117  0.98785701  0.72539545  1
  In  In2  1  0.36435693  0.10911998  0.14523250  1
  In  In3  1  0.63564307  0.89088002  0.85476750  1
  In  In4  1  0.04606240  0.30165581  0.02837190  1
  In  In5  1  0.95393760  0.69834419  0.97162810  1
  Pt  Pt0  1  0.00000000  0.00000000  0.00000000  1
  Br  Br0  1  0.39614265  0.42621659  0.21904212  1
  Br  Br1  1  0.60385735  0.57378341  0.78095788  1
  Br  Br2  1  0.93843965  0.51944481  0.20046241  1
  Br  Br3  1  0.06156035  0.48055519  0.79953759  1
  Br  Br4  1  0.44580598  0.81223313  0.09530161  1
  Br  Br5  1  0.55419402  0.18776687  0.90469839  1
  Br  Br6  1  0.18703576  0.19294458  0.53014705  1
  Br  Br7  1  0.81296424  0.80705542  0.46985295  1
  Br  Br8  1  0.67328539  0.17870117  0.38788738  1
  Br  Br9  1  0.32671461  0.82129883  0.61211262  1
loop_
_geom_bond_atom_site_label_1
_geom_bond_atom_site_label_2
_geom_bond_distance
_geom_bond_site_symmetry_2
In0 Pt0 2.616424 1_655
In1 Pt0 2.616424 1_566
In2 Pt0 2.657962 1_555
In3 Pt0 2.657962 1_666
In4 Pt0 2.647402 1_555
In5 Pt0 2.647402 1_666
Br0 In4 2.695972 1_555
Br0 In2 2.814009 1_555
Br1 In5 2.695972 1_555
Br1 In3 2.814009 1_555
Br2 In5 2.682575 1_554
Br2 In4 2.713678 1_655
Br3 In4 2.682575 1_556
Br3 In5 2.713678 1_455
Br4 In3 2.735829 1_554
Br4 In2 2.946723 1_565
Br4 In0 3.283552 1_565
Br5 In2 2.735829 1_556
Br5 In3 2.946723 1_545
Br5 In1 3.283552 1_545
Br6 In1 2.650265 1_545
Br6 In0 2.804146 1_455
Br7 In0 2.650265 1_565
Br7 In1 2.804146 1_655
Br8 In2 2.699576 1_555
Br8 In0 2.720215 1_555
Br9 In3 2.699576 1_555
Br9 In1 2.720215 1_555
