# generated using pymatgen
data_K3RbI16
_symmetry_space_group_name_H-M   'P 1'
_cell_length_a   8.85857381
_cell_length_b   10.35494309
_cell_length_c   11.00127222
_cell_angle_alpha   63.99810055
_cell_angle_beta   90.56238693
_cell_angle_gamma   89.54584594
_symmetry_Int_Tables_number   1
_chemical_formula_structural   K3RbI16
_chemical_formula_sum   'K3 Rb1 I16'
_cell_volume   906.87299141
_cell_formula_units_Z   1
loop_
 _symmetry_equiv_pos_site_id
 _symmetry_equiv_pos_as_xyz
  1  'x, y, z'
loop_
 _atom_site_type_symbol
 _atom_site_label
 _atom_site_symmetry_multiplicity
 _atom_site_fract_x
 _atom_site_fract_y
 _atom_site_fract_z
 _atom_site_occupancy
  K  K0  1  0.60954878  0.74038956  0.71128973  1
  K  K1  1  0.11419427  0.25662988  0.78685974  1
  K  K2  1  0.38890515  0.26155254  0.28921172  1
  Rb  Rb0  1  0.88326157  0.73960981  0.20410484  1
  I  I0  1  0.35264246  0.54225862  0.52025500  1
  I  I1  1  0.85451986  0.45472777  0.98824098  1
  I  I2  1  0.64168947  0.45287266  0.48913652  1
  I  I3  1  0.14405004  0.54471919  0.01483949  1
  I  I4  1  0.01193033  0.65929853  0.56503037  1
  I  I5  1  0.51806272  0.33745019  0.94696098  1
  I  I6  1  0.98645259  0.33824006  0.43905012  1
  I  I7  1  0.49046130  0.66098124  0.06005650  1
  I  I8  1  0.20211250  0.87494724  0.60678541  1
  I  I9  1  0.70493473  0.12232504  0.89551028  1
  I  I10  1  0.79648700  0.12422148  0.39488031  1
  I  I11  1  0.30031075  0.87693739  0.10316260  1
  I  I12  1  0.39389032  0.07183432  0.65518710  1
  I  I13  1  0.89350391  0.93395138  0.83077813  1
  I  I14  1  0.60146210  0.92951412  0.34699531  1
  I  I15  1  0.11157516  0.07753596  0.15166388  1
loop_
_geom_bond_atom_site_label_1
_geom_bond_atom_site_label_2
_geom_bond_distance
_geom_bond_site_symmetry_2
I0 I2 2.790656 1_555
I0 I4 3.363889 1_555
I0 K1 3.798245 1_555
I0 K0 4.191193 1_555
I1 I3 2.791871 1_656
I1 I5 3.328504 1_555
I1 K0 3.822104 1_555
I2 I6 3.404299 1_555
I2 Rb0 3.911156 1_555
I2 K2 4.191767 1_555
I3 I7 3.415767 1_555
I3 K2 3.797884 1_555
I3 Rb0 4.177313 1_455
I4 I8 2.996603 1_555
I4 Rb0 3.841568 1_455
I4 K1 3.890591 1_555
I4 K0 4.153279 1_455
I5 I9 3.014716 1_555
I5 K2 3.688860 1_556
I5 K0 3.923988 1_555
I5 K1 4.221225 1_555
I6 K1 3.701392 1_655
I6 Rb0 3.906965 1_555
I6 K2 4.156489 1_655
I7 K0 3.719895 1_554
I7 K2 3.902933 1_555
I7 Rb0 4.043534 1_555
I8 K0 3.837253 1_555
I9 K1 3.900543 1_655
I9 Rb0 4.210143 1_546
I10 I14 2.880257 1_545
I10 I6 2.994432 1_555
I10 K2 3.846655 1_555
I11 I15 2.886001 1_565
I11 I7 2.991443 1_555
I11 Rb0 3.960253 1_455
I12 I8 2.883617 1_545
I12 K2 3.623751 1_555
I12 K0 3.718267 1_545
I12 K1 3.784805 1_555
I13 I9 2.879591 1_565
I13 Rb0 3.699917 1_556
I13 K1 3.731820 1_665
I13 K0 3.794451 1_555
I14 K0 3.607288 1_555
I14 K2 3.705209 1_565
I14 Rb0 3.908880 1_555
I15 K1 3.608755 1_554
I15 K2 3.805999 1_555
I15 Rb0 3.877237 1_445
