# generated using pymatgen
data_AlTcRuW
_symmetry_space_group_name_H-M   'P 1'
_cell_length_a   4.32800621
_cell_length_b   4.32800621
_cell_length_c   4.32800588
_cell_angle_alpha   59.99999502
_cell_angle_beta   59.99999499
_cell_angle_gamma   60.00000101
_symmetry_Int_Tables_number   1
_chemical_formula_structural   AlTcRuW
_chemical_formula_sum   'Al1 Tc1 Ru1 W1'
_cell_volume   57.32559420
_cell_formula_units_Z   1
loop_
 _symmetry_equiv_pos_site_id
 _symmetry_equiv_pos_as_xyz
  1  'x, y, z'
loop_
 _atom_site_type_symbol
 _atom_site_label
 _atom_site_symmetry_multiplicity
 _atom_site_fract_x
 _atom_site_fract_y
 _atom_site_fract_z
 _atom_site_occupancy
  Al  Al0  1  0.50000000  0.50000000  0.50000000  1
  Tc  Tc0  1  0.25000100  0.25000100  0.25000100  1
  Ru  Ru0  1  0.75000000  0.75000000  0.75000000  1
  W  W0  1  0.00000000  0.00000000  0.00000000  1
loop_
_geom_bond_atom_site_label_1
_geom_bond_atom_site_label_2
_geom_bond_distance
_geom_bond_site_symmetry_2
Al0 Tc0 2.650341 1_555
Al0 Ru0 2.650351 1_554
Al0 Ru0 2.650352 1_455
Al0 Ru0 2.650352 1_545
Al0 Ru0 2.650352 1_555
Al0 Tc0 2.650355 1_556
Al0 Tc0 2.650355 1_655
Al0 Tc0 2.650355 1_565
Tc0 W0 2.650348 1_556
Tc0 W0 2.650348 1_655
Tc0 W0 2.650348 1_565
Tc0 W0 2.650362 1_555
Ru0 W0 2.650351 1_665
Ru0 W0 2.650352 1_566
Ru0 W0 2.650352 1_656
Ru0 W0 2.650352 1_666
