# generated using pymatgen
data_K4MgW3N8
_symmetry_space_group_name_H-M   'P 1'
_cell_length_a   5.79046839
_cell_length_b   8.49763395
_cell_length_c   11.60340709
_cell_angle_alpha   90.00000000
_cell_angle_beta   90.00000000
_cell_angle_gamma   90.00000000
_symmetry_Int_Tables_number   1
_chemical_formula_structural   K4MgW3N8
_chemical_formula_sum   'K8 Mg2 W6 N16'
_cell_volume   570.94890333
_cell_formula_units_Z   2
loop_
 _symmetry_equiv_pos_site_id
 _symmetry_equiv_pos_as_xyz
  1  'x, y, z'
loop_
 _atom_site_type_symbol
 _atom_site_label
 _atom_site_symmetry_multiplicity
 _atom_site_fract_x
 _atom_site_fract_y
 _atom_site_fract_z
 _atom_site_occupancy
  K  K0  1  0.25000000  0.18628368  0.00000000  1
  K  K1  1  0.75000000  0.81371632  0.50000000  1
  K  K2  1  0.75000000  0.89528976  0.00000000  1
  K  K3  1  0.25000000  0.10471024  0.50000000  1
  K  K4  1  0.26198316  0.39076367  0.74019003  1
  K  K5  1  0.76198316  0.60923633  0.75980997  1
  K  K6  1  0.73801684  0.60923633  0.24019003  1
  K  K7  1  0.23801684  0.39076367  0.25980997  1
  Mg  Mg0  1  0.75000000  0.36938849  0.00000000  1
  Mg  Mg1  1  0.25000000  0.63061151  0.50000000  1
  W  W0  1  0.25000000  0.62231513  0.00000000  1
  W  W1  1  0.75000000  0.37768487  0.50000000  1
  W  W2  1  0.76966001  0.12122683  0.74645001  1
  W  W3  1  0.26966001  0.87877317  0.75354999  1
  W  W4  1  0.23033999  0.87877317  0.24645001  1
  W  W5  1  0.73033999  0.12122683  0.25354999  1
  N  N0  1  0.03743811  0.01910799  0.80861124  1
  N  N1  1  0.53743811  0.98089201  0.69138876  1
  N  N2  1  0.96256189  0.98089201  0.30861124  1
  N  N3  1  0.46256189  0.01910799  0.19138876  1
  N  N4  1  0.86998561  0.25112203  0.62546748  1
  N  N5  1  0.36998561  0.74887797  0.87453252  1
  N  N6  1  0.13001439  0.74887797  0.12546748  1
  N  N7  1  0.63001439  0.25112203  0.37453252  1
  N  N8  1  0.35179577  0.76431242  0.35994793  1
  N  N9  1  0.85179577  0.23568758  0.14005207  1
  N  N10  1  0.64820423  0.23568758  0.85994793  1
  N  N11  1  0.14820423  0.76431242  0.64005207  1
  N  N12  1  0.52201084  0.50076517  0.55496983  1
  N  N13  1  0.02201084  0.49923483  0.94503017  1
  N  N14  1  0.47798916  0.49923483  0.05496983  1
  N  N15  1  0.97798916  0.50076517  0.44503017  1
loop_
_geom_bond_atom_site_label_1
_geom_bond_atom_site_label_2
_geom_bond_distance
_geom_bond_site_symmetry_2
K0 N9 2.851981 1_455
K0 N10 2.851981 1_554
K0 N3 2.909438 1_555
K0 N0 2.909438 1_554
K0 N14 3.036739 1_555
K0 N13 3.036739 1_554
K1 N11 2.851981 1_655
K1 N8 2.851981 1_555
K1 N1 2.909438 1_555
K1 N2 2.909438 1_555
K1 N15 3.036739 1_555
K1 N12 3.036739 1_555
K2 N6 2.917096 1_655
K2 N5 2.917096 1_554
K2 N3 2.968006 1_565
K2 N0 2.968006 1_664
K3 N4 2.917096 1_455
K3 N7 2.917096 1_555
K3 N1 2.968006 1_545
K3 N2 2.968006 1_445
K4 N12 2.785649 1_555
K4 N4 2.886574 1_455
K4 N13 2.903422 1_555
K4 N10 2.944320 1_555
K5 N13 2.785649 1_655
K5 N5 2.886574 1_555
K5 N12 2.903422 1_555
K5 N11 2.944320 1_655
K6 N14 2.785649 1_555
K6 N6 2.886574 1_655
K6 N15 2.903422 1_555
K6 N8 2.944320 1_555
K7 N15 2.785649 1_455
K7 N7 2.886574 1_555
K7 N14 2.903422 1_555
K7 N9 2.944320 1_455
Mg0 N13 2.026116 1_654
Mg0 N14 2.026116 1_555
Mg0 N9 2.068611 1_555
Mg0 N10 2.068611 1_554
Mg1 N12 2.026116 1_555
Mg1 N15 2.026116 1_455
Mg1 N11 2.068611 1_555
Mg1 N8 2.068611 1_555
N0 W3 1.907466 1_545
N0 W2 1.917683 1_455
N1 W2 1.907466 1_565
N1 W3 1.917683 1_555
N2 W5 1.907466 1_565
N2 W4 1.917683 1_655
N3 W4 1.907466 1_545
N3 W5 1.917683 1_555
N4 W2 1.877909 1_555
N4 W1 1.938782 1_555
N5 W3 1.877909 1_555
N5 W0 1.938782 1_556
N6 W4 1.877909 1_555
N6 W0 1.938782 1_555
N7 W5 1.877909 1_555
N7 W1 1.938782 1_555
N8 W4 1.781864 1_555
N9 W5 1.781864 1_555
N10 W2 1.781864 1_555
N11 W3 1.781864 1_555
N12 W1 1.800988 1_555
N13 W0 1.800988 1_556
N14 W0 1.800988 1_555
N15 W1 1.800988 1_555
