# generated using pymatgen
data_Sr2Al(SiPd2)3
_symmetry_space_group_name_H-M   'P 1'
_cell_length_a   6.85875707
_cell_length_b   6.86042418
_cell_length_c   6.85875444
_cell_angle_alpha   129.54559268
_cell_angle_beta   116.66856042
_cell_angle_gamma   85.08632070
_symmetry_Int_Tables_number   1
_chemical_formula_structural   Sr2Al(SiPd2)3
_chemical_formula_sum   'Sr2 Al1 Si3 Pd6'
_cell_volume   212.80570344
_cell_formula_units_Z   1
loop_
 _symmetry_equiv_pos_site_id
 _symmetry_equiv_pos_as_xyz
  1  'x, y, z'
loop_
 _atom_site_type_symbol
 _atom_site_label
 _atom_site_symmetry_multiplicity
 _atom_site_fract_x
 _atom_site_fract_y
 _atom_site_fract_z
 _atom_site_occupancy
  Sr  Sr0  1  0.99976727  0.97254594  0.97277866  1
  Sr  Sr1  1  0.50146038  0.04715598  0.54569559  1
  Al  Al0  1  0.34359008  0.39797042  0.05438034  1
  Si  Si0  1  0.81516213  0.25319613  0.43803400  1
  Si  Si1  1  0.65180399  0.70677401  0.05497002  1
  Si  Si2  1  0.18976737  0.62531095  0.43554358  1
  Pd  Pd0  1  0.95222577  0.50291333  0.95567036  1
  Pd  Pd1  1  0.54724198  0.50291333  0.55068757  1
  Pd  Pd2  1  0.03580856  0.99635733  0.53504643  1
  Pd  Pd3  1  0.78628535  0.49175263  0.27617841  1
  Pd  Pd4  1  0.21557522  0.49175263  0.70546628  1
  Pd  Pd5  1  0.46131190  0.99635733  0.96054877  1
loop_
_geom_bond_atom_site_label_1
_geom_bond_atom_site_label_2
_geom_bond_distance
_geom_bond_site_symmetry_2
Sr0 Sr1 3.625787 1_666
Sr0 Sr1 3.625787 1_565
Al0 Pd2 2.546534 1_544
Al0 Pd5 2.546537 1_544
Al0 Pd1 2.615396 1_555
Al0 Pd0 2.615397 1_454
Al0 Pd3 2.624791 1_555
Al0 Pd4 2.624797 1_554
Al0 Si2 2.717003 1_555
Al0 Sr1 3.286806 1_565
Al0 Sr1 3.374868 1_554
Si0 Sr1 3.232500 1_555
Si0 Sr0 3.298298 1_544
Si1 Sr1 3.246437 1_565
Si1 Sr1 3.343714 1_554
Si2 Sr1 3.215956 1_565
Si2 Sr0 3.318764 1_444
Pd0 Si0 2.440971 1_555
Pd0 Si2 2.468581 1_656
Pd0 Si1 2.493738 1_556
Pd0 Sr1 3.146138 1_555
Pd0 Sr0 3.188230 1_555
Pd0 Sr1 3.740701 1_666
Pd1 Si0 2.440977 1_555
Pd1 Si2 2.468576 1_555
Pd1 Si1 2.493735 1_556
Pd1 Sr1 3.146136 1_555
Pd1 Sr0 3.188235 1_555
Pd1 Sr1 3.740701 1_565
Pd2 Si0 2.443347 1_465
Pd2 Si2 2.456588 1_555
Pd2 Si1 2.550964 1_455
Pd2 Sr1 3.205614 1_565
Pd2 Sr0 3.224784 1_455
Pd2 Sr1 3.680737 1_465
Pd3 Si0 2.451672 1_555
Pd3 Si2 2.477190 1_655
Pd3 Si1 2.586387 1_555
Pd3 Sr0 3.214190 1_555
Pd3 Sr1 3.316172 1_554
Pd3 Sr0 3.400727 1_544
Pd3 Sr1 3.840474 1_565
Pd4 Si0 2.451680 1_455
Pd4 Si2 2.477181 1_555
Pd4 Si1 2.586383 1_556
Pd4 Sr0 3.214196 1_455
Pd4 Sr1 3.316168 1_555
Pd4 Sr0 3.400721 1_444
Pd4 Sr1 3.840478 1_566
Pd5 Si0 2.443344 1_566
Pd5 Si2 2.456589 1_555
Pd5 Si1 2.550962 1_556
Pd5 Sr1 3.205609 1_565
Pd5 Sr0 3.224792 1_455
Pd5 Sr1 3.680739 1_566
