# generated using pymatgen
data_K5Hg7
_symmetry_space_group_name_H-M   'P 1'
_cell_length_a   8.24438869
_cell_length_b   10.13946352
_cell_length_c   19.45083483
_cell_angle_alpha   90.00000000
_cell_angle_beta   90.00000000
_cell_angle_gamma   90.00000000
_symmetry_Int_Tables_number   1
_chemical_formula_structural   K5Hg7
_chemical_formula_sum   'K20 Hg28'
_cell_volume   1625.96683075
_cell_formula_units_Z   4
loop_
 _symmetry_equiv_pos_site_id
 _symmetry_equiv_pos_as_xyz
  1  'x, y, z'
loop_
 _atom_site_type_symbol
 _atom_site_label
 _atom_site_symmetry_multiplicity
 _atom_site_fract_x
 _atom_site_fract_y
 _atom_site_fract_z
 _atom_site_occupancy
  K  K0  1  0.25000000  0.10267465  0.58811901  1
  K  K1  1  0.75000000  0.89732535  0.41188099  1
  K  K2  1  0.75000000  0.10267465  0.91188099  1
  K  K3  1  0.25000000  0.89732535  0.08811901  1
  K  K4  1  0.25000000  0.99104536  0.89002147  1
  K  K5  1  0.75000000  0.00895464  0.10997853  1
  K  K6  1  0.75000000  0.99104536  0.60997853  1
  K  K7  1  0.25000000  0.00895464  0.39002147  1
  K  K8  1  0.25000000  0.81481503  0.70953360  1
  K  K9  1  0.75000000  0.18518497  0.29046640  1
  K  K10  1  0.75000000  0.81481503  0.79046640  1
  K  K11  1  0.25000000  0.18518497  0.20953460  1
  K  K12  1  0.25000000  0.47725336  0.51813392  1
  K  K13  1  0.75000000  0.52274664  0.48186608  1
  K  K14  1  0.75000000  0.47725336  0.98186608  1
  K  K15  1  0.25000000  0.52274664  0.01813392  1
  K  K16  1  0.25000000  0.42928076  0.72729647  1
  K  K17  1  0.75000000  0.57071924  0.27270353  1
  K  K18  1  0.75000000  0.42928076  0.77270353  1
  K  K19  1  0.25000000  0.57071924  0.22729647  1
  Hg  Hg0  1  0.56807724  0.37182888  0.14188525  1
  Hg  Hg1  1  0.06807724  0.62817112  0.85811475  1
  Hg  Hg2  1  0.43192276  0.37182888  0.35811475  1
  Hg  Hg3  1  0.93192276  0.62817112  0.64188525  1
  Hg  Hg4  1  0.43192276  0.62817112  0.85811475  1
  Hg  Hg5  1  0.93192276  0.37182888  0.14188525  1
  Hg  Hg6  1  0.56807724  0.62817112  0.64188525  1
  Hg  Hg7  1  0.06807724  0.37182888  0.35811475  1
  Hg  Hg8  1  0.06847869  0.68080205  0.38070144  1
  Hg  Hg9  1  0.56847869  0.31919795  0.61929856  1
  Hg  Hg10  1  0.93152131  0.68080205  0.11929856  1
  Hg  Hg11  1  0.43152131  0.31919795  0.88070144  1
  Hg  Hg12  1  0.93152131  0.31919795  0.61929856  1
  Hg  Hg13  1  0.43152131  0.68080205  0.38070144  1
  Hg  Hg14  1  0.06847869  0.31919795  0.88070144  1
  Hg  Hg15  1  0.56847869  0.68080205  0.11929856  1
  Hg  Hg16  1  0.56623122  0.19894172  0.47192339  1
  Hg  Hg17  1  0.06623122  0.80105828  0.52807661  1
  Hg  Hg18  1  0.43376878  0.19894172  0.02807661  1
  Hg  Hg19  1  0.93376878  0.80105828  0.97192339  1
  Hg  Hg20  1  0.43376878  0.80105828  0.52807661  1
  Hg  Hg21  1  0.93376878  0.19894172  0.47192339  1
  Hg  Hg22  1  0.56623122  0.80105828  0.97192339  1
  Hg  Hg23  1  0.06623122  0.19894172  0.02807661  1
  Hg  Hg24  1  0.50000000  0.87165284  0.25000000  1
  Hg  Hg25  1  0.00000000  0.12834716  0.75000000  1
  Hg  Hg26  1  0.50000000  0.12834716  0.75000000  1
  Hg  Hg27  1  0.00000000  0.87165284  0.25000000  1
loop_
_geom_bond_atom_site_label_1
_geom_bond_atom_site_label_2
_geom_bond_distance
_geom_bond_site_symmetry_2
K0 K8 3.754502 1_545
K0 K7 3.968611 1_555
K0 K12 4.034608 1_555
K0 K16 4.277295 1_555
K0 K6 4.295856 1_545
K0 K6 4.295856 1_445
K1 K9 3.754502 1_565
K1 K6 3.968611 1_555
K1 K13 4.034608 1_555
K1 K17 4.277295 1_555
K1 K7 4.295856 1_665
K1 K7 4.295856 1_565
K2 K5 3.968611 1_556
K2 K4 4.295856 1_645
K2 K4 4.295856 1_545
K3 K4 3.968611 1_554
K3 K5 4.295856 1_465
K3 K5 4.295856 1_565
K4 K8 3.939230 1_555
K5 K9 3.939230 1_555
K10 K2 3.754502 1_565
K10 K18 3.924349 1_555
K10 K6 3.939230 1_555
K10 K8 4.412553 1_555
K10 K8 4.412553 1_655
K11 K3 3.754514 1_545
K11 K19 3.924348 1_555
K11 K7 3.939213 1_555
K11 K9 4.412546 1_455
K11 K9 4.412546 1_555
K12 K16 4.097361 1_555
K12 K13 4.207482 1_455
K12 K13 4.207482 1_555
K13 K17 4.097361 1_555
K14 K2 4.034608 1_555
K14 K18 4.097361 1_555
K14 K15 4.207482 1_556
K14 K15 4.207482 1_656
K15 K3 4.034608 1_555
K15 K19 4.097361 1_555
K16 K8 3.924349 1_555
K16 K18 4.215749 1_455
K16 K18 4.215749 1_555
K17 K9 3.924349 1_555
K17 K19 4.215749 1_555
K17 K19 4.215749 1_655
K18 K2 4.277295 1_555
K19 K3 4.277295 1_555
Hg0 Hg5 2.999684 1_555
Hg0 Hg18 3.033050 1_555
Hg0 Hg15 3.163479 1_555
Hg0 K11 3.491360 1_555
Hg0 K17 3.576447 1_555
Hg0 K14 3.616610 1_554
Hg0 K19 3.701832 1_555
Hg0 K9 3.766062 1_555
Hg0 K15 3.874570 1_555
Hg0 K5 4.021480 1_555
Hg1 Hg4 2.999684 1_555
Hg1 Hg19 3.033050 1_455
Hg1 Hg14 3.163479 1_555
Hg1 K10 3.491353 1_455
Hg1 K16 3.576447 1_555
Hg1 K15 3.616610 1_556
Hg1 K18 3.701832 1_455
Hg1 K8 3.766062 1_555
Hg1 K14 3.874570 1_455
Hg1 K4 4.021480 1_555
Hg2 Hg7 2.999684 1_555
Hg2 K9 3.491353 1_555
Hg2 K19 3.576447 1_555
Hg2 K12 3.616610 1_555
Hg2 K17 3.701832 1_555
Hg2 K11 3.766047 1_555
Hg2 K13 3.874570 1_555
Hg2 K7 4.021480 1_555
Hg3 Hg6 2.999684 1_555
Hg3 K8 3.491353 1_655
Hg3 K18 3.576447 1_555
Hg3 K13 3.616610 1_555
Hg3 K16 3.701832 1_655
Hg3 K10 3.766062 1_555
Hg3 K12 3.874570 1_655
Hg3 K6 4.021480 1_555
Hg4 K10 3.491353 1_555
Hg4 K16 3.576447 1_555
Hg4 K15 3.616610 1_556
Hg4 K18 3.701832 1_555
Hg4 K8 3.766062 1_555
Hg4 K14 3.874570 1_555
Hg4 K4 4.021480 1_555
Hg5 K11 3.491360 1_655
Hg5 K17 3.576447 1_555
Hg5 K14 3.616610 1_554
Hg5 K19 3.701832 1_655
Hg5 K9 3.766062 1_555
Hg5 K15 3.874570 1_655
Hg5 K5 4.021480 1_555
Hg6 Hg9 3.163479 1_555
Hg6 K8 3.491353 1_555
Hg6 K18 3.576447 1_555
Hg6 K13 3.616610 1_555
Hg6 K16 3.701832 1_555
Hg6 K10 3.766062 1_555
Hg6 K12 3.874570 1_555
Hg6 K6 4.021480 1_555
Hg7 Hg8 3.163479 1_555
Hg7 K9 3.491353 1_455
Hg7 K19 3.576447 1_555
Hg7 K12 3.616610 1_555
Hg7 K17 3.701832 1_455
Hg7 K11 3.766047 1_555
Hg7 K13 3.874570 1_455
Hg7 K7 4.021480 1_555
Hg8 K1 3.475891 1_455
Hg8 K19 3.519781 1_555
Hg8 K17 3.542977 1_455
Hg8 K13 3.651631 1_455
Hg8 K7 3.652854 1_565
Hg8 K12 3.693922 1_555
Hg9 K0 3.475891 1_555
Hg9 K18 3.519781 1_555
Hg9 K16 3.542977 1_555
Hg9 K12 3.651631 1_555
Hg9 K6 3.652854 1_545
Hg9 K13 3.693922 1_555
Hg10 Hg15 2.993064 1_555
Hg10 Hg19 3.115179 1_554
Hg10 Hg5 3.163479 1_555
Hg10 Hg27 3.244455 1_655
Hg10 K3 3.475891 1_655
Hg10 K17 3.519781 1_555
Hg10 K19 3.542977 1_655
Hg10 K15 3.651631 1_655
Hg10 K5 3.652854 1_565
Hg10 K14 3.693922 1_554
Hg11 Hg14 2.993064 1_555
Hg11 Hg18 3.115179 1_556
Hg11 Hg4 3.163479 1_555
Hg11 Hg26 3.244455 1_555
Hg11 K2 3.475891 1_555
Hg11 K16 3.519781 1_555
Hg11 K18 3.542977 1_555
Hg11 K14 3.651631 1_555
Hg11 K4 3.652854 1_545
Hg11 K15 3.693922 1_556
Hg12 Hg9 2.993064 1_555
Hg12 Hg21 3.115179 1_555
Hg12 Hg3 3.163479 1_555
Hg12 Hg25 3.244455 1_655
Hg12 K0 3.475891 1_655
Hg12 K18 3.519781 1_555
Hg12 K16 3.542977 1_655
Hg12 K12 3.651631 1_655
Hg12 K6 3.652854 1_545
Hg12 K13 3.693922 1_555
Hg13 Hg8 2.993064 1_555
Hg13 Hg20 3.115179 1_555
Hg13 Hg2 3.163479 1_555
Hg13 Hg24 3.244455 1_555
Hg13 K1 3.475891 1_555
Hg13 K19 3.519781 1_555
Hg13 K17 3.542977 1_555
Hg13 K13 3.651631 1_555
Hg13 K7 3.652854 1_565
Hg13 K12 3.693922 1_555
Hg14 Hg23 3.115179 1_556
Hg14 Hg25 3.244455 1_555
Hg14 K2 3.475891 1_455
Hg14 K16 3.519781 1_555
Hg14 K18 3.542977 1_455
Hg14 K14 3.651631 1_455
Hg14 K4 3.652854 1_545
Hg14 K15 3.693922 1_556
Hg15 Hg22 3.115179 1_554
Hg15 Hg24 3.244455 1_555
Hg15 K3 3.475891 1_555
Hg15 K17 3.519781 1_555
Hg15 K19 3.542977 1_555
Hg15 K15 3.651631 1_555
Hg15 K5 3.652854 1_565
Hg15 K14 3.693922 1_554
Hg16 Hg21 3.030123 1_555
Hg16 Hg2 3.033050 1_555
Hg16 Hg9 3.115179 1_555
Hg16 K0 3.585801 1_555
Hg16 K1 3.607229 1_545
Hg16 K7 3.611907 1_555
Hg16 K13 3.621087 1_555
Hg16 K6 3.734925 1_545
Hg16 K9 3.843458 1_555
Hg16 K12 3.945673 1_555
Hg17 Hg20 3.030123 1_555
Hg17 Hg3 3.033050 1_455
Hg17 Hg8 3.115179 1_555
Hg17 K1 3.585801 1_455
Hg17 K0 3.607229 1_565
Hg17 K6 3.611907 1_455
Hg17 K12 3.621087 1_555
Hg17 K7 3.734925 1_565
Hg17 K8 3.843458 1_555
Hg17 K13 3.945673 1_455
Hg18 Hg23 3.030123 1_555
Hg18 K2 3.585801 1_554
Hg18 K3 3.607229 1_545
Hg18 K5 3.611907 1_555
Hg18 K15 3.621087 1_555
Hg18 K4 3.734925 1_544
Hg18 K11 3.843475 1_555
Hg18 K14 3.945673 1_554
Hg19 Hg22 3.030123 1_555
Hg19 K3 3.585801 1_656
Hg19 K2 3.607229 1_565
Hg19 K4 3.611907 1_655
Hg19 K14 3.621087 1_555
Hg19 K5 3.734925 1_566
Hg19 K10 3.843458 1_555
Hg19 K15 3.945673 1_656
Hg20 Hg6 3.033050 1_555
Hg20 K1 3.585801 1_555
Hg20 K0 3.607229 1_565
Hg20 K6 3.611907 1_555
Hg20 K12 3.621087 1_555
Hg20 K7 3.734925 1_565
Hg20 K8 3.843458 1_555
Hg20 K13 3.945673 1_555
Hg21 Hg7 3.033050 1_655
Hg21 K0 3.585801 1_655
Hg21 K1 3.607229 1_545
Hg21 K7 3.611907 1_655
Hg21 K13 3.621087 1_555
Hg21 K6 3.734925 1_545
Hg21 K9 3.843458 1_555
Hg21 K12 3.945673 1_655
Hg22 Hg4 3.033050 1_555
Hg22 K3 3.585801 1_556
Hg22 K2 3.607229 1_565
Hg22 K4 3.611907 1_555
Hg22 K14 3.621087 1_555
Hg22 K5 3.734925 1_566
Hg22 K10 3.843458 1_555
Hg22 K15 3.945673 1_556
Hg23 Hg5 3.033050 1_455
Hg23 K2 3.585801 1_454
Hg23 K3 3.607229 1_545
Hg23 K5 3.611907 1_455
Hg23 K15 3.621087 1_555
Hg23 K4 3.734925 1_544
Hg23 K11 3.843475 1_555
Hg23 K14 3.945673 1_454
Hg24 K5 3.688345 1_565
Hg24 K7 3.688345 1_565
Hg24 K19 3.708584 1_555
Hg24 K17 3.708584 1_555
Hg24 K1 3.772310 1_555
Hg24 K3 3.772310 1_555
Hg24 K11 3.869621 1_565
Hg24 K9 3.869625 1_565
Hg25 K6 3.688345 1_445
Hg25 K4 3.688345 1_545
Hg25 K18 3.708584 1_455
Hg25 K16 3.708584 1_555
Hg25 K0 3.772310 1_555
Hg25 K2 3.772310 1_455
Hg25 K8 3.869625 1_545
Hg25 K10 3.869625 1_445
Hg26 Hg9 3.244455 1_555
Hg26 K4 3.688345 1_545
Hg26 K6 3.688345 1_545
Hg26 K18 3.708584 1_555
Hg26 K16 3.708584 1_555
Hg26 K0 3.772310 1_555
Hg26 K2 3.772310 1_555
Hg26 K8 3.869625 1_545
Hg26 K10 3.869625 1_545
Hg27 Hg8 3.244455 1_555
Hg27 K7 3.688345 1_565
Hg27 K5 3.688345 1_465
Hg27 K19 3.708584 1_555
Hg27 K17 3.708584 1_455
Hg27 K1 3.772310 1_455
Hg27 K3 3.772310 1_555
Hg27 K11 3.869621 1_565
Hg27 K9 3.869625 1_465
