# generated using pymatgen
data_Sr(AlCl4)2
_symmetry_space_group_name_H-M   'P 1'
_cell_length_a   11.62196200
_cell_length_b   11.74725100
_cell_length_c   20.61068100
_cell_angle_alpha   90.00000000
_cell_angle_beta   90.00000000
_cell_angle_gamma   90.00000000
_symmetry_Int_Tables_number   1
_chemical_formula_structural   Sr(AlCl4)2
_chemical_formula_sum   'Sr8 Al16 Cl64'
_cell_volume   2813.89599269
_cell_formula_units_Z   8
loop_
 _symmetry_equiv_pos_site_id
 _symmetry_equiv_pos_as_xyz
  1  'x, y, z'
loop_
 _atom_site_type_symbol
 _atom_site_label
 _atom_site_symmetry_multiplicity
 _atom_site_fract_x
 _atom_site_fract_y
 _atom_site_fract_z
 _atom_site_occupancy
  Sr  Sr0  1  0.76340500  0.00822000  0.12455300  1
  Sr  Sr1  1  0.26340500  0.99178000  0.37544700  1
  Sr  Sr2  1  0.73659500  0.50822000  0.87544700  1
  Sr  Sr3  1  0.23659500  0.49178000  0.62455300  1
  Sr  Sr4  1  0.23659500  0.99178000  0.87544700  1
  Sr  Sr5  1  0.73659500  0.00822000  0.62455300  1
  Sr  Sr6  1  0.26340500  0.49178000  0.12455300  1
  Sr  Sr7  1  0.76340500  0.50822000  0.37544700  1
  Al  Al0  1  0.52843300  0.54111400  0.23931700  1
  Al  Al1  1  0.78595400  0.25252900  0.49772700  1
  Al  Al2  1  0.28595400  0.74747100  0.00227300  1
  Al  Al3  1  0.71404600  0.75252900  0.50227300  1
  Al  Al4  1  0.21404600  0.24747100  0.99772700  1
  Al  Al5  1  0.21404600  0.74747100  0.50227300  1
  Al  Al6  1  0.71404600  0.25252900  0.99772700  1
  Al  Al7  1  0.28595400  0.24747100  0.49772700  1
  Al  Al8  1  0.78595400  0.75252900  0.00227300  1
  Al  Al9  1  0.02843300  0.45888600  0.26068300  1
  Al  Al10  1  0.97156700  0.04111400  0.76068300  1
  Al  Al11  1  0.47156700  0.95888600  0.73931700  1
  Al  Al12  1  0.47156700  0.45888600  0.76068300  1
  Al  Al13  1  0.97156700  0.54111400  0.73931700  1
  Al  Al14  1  0.02843300  0.95888600  0.23931700  1
  Al  Al15  1  0.52843300  0.04111400  0.26068300  1
  Cl  Cl0  1  0.59296300  0.38963800  0.98227800  1
  Cl  Cl1  1  0.79589600  0.76162900  0.40816000  1
  Cl  Cl2  1  0.29589600  0.23837100  0.09184000  1
  Cl  Cl3  1  0.70410400  0.26162900  0.59184000  1
  Cl  Cl4  1  0.20410400  0.73837100  0.90816000  1
  Cl  Cl5  1  0.20410400  0.23837100  0.59184000  1
  Cl  Cl6  1  0.70410400  0.76162900  0.90816000  1
  Cl  Cl7  1  0.29589600  0.73837100  0.40816000  1
  Cl  Cl8  1  0.66505400  0.77587200  0.08063200  1
  Cl  Cl9  1  0.16505400  0.22412800  0.41936800  1
  Cl  Cl10  1  0.83494600  0.27587200  0.91936800  1
  Cl  Cl11  1  0.33494600  0.72412800  0.58063200  1
  Cl  Cl12  1  0.33494600  0.22412800  0.91936800  1
  Cl  Cl13  1  0.83494600  0.77587200  0.58063200  1
  Cl  Cl14  1  0.16505400  0.72412800  0.08063200  1
  Cl  Cl15  1  0.66505400  0.27587200  0.41936800  1
  Cl  Cl16  1  0.50353500  0.90356100  0.32879100  1
  Cl  Cl17  1  0.00353500  0.09643900  0.17120900  1
  Cl  Cl18  1  0.99646500  0.40356100  0.67120900  1
  Cl  Cl19  1  0.49646500  0.59643900  0.82879100  1
  Cl  Cl20  1  0.49646500  0.09643900  0.67120900  1
  Cl  Cl21  1  0.99646500  0.90356100  0.82879100  1
  Cl  Cl22  1  0.00353500  0.59643900  0.32879100  1
  Cl  Cl23  1  0.50353500  0.40356100  0.17120900  1
  Cl  Cl24  1  0.89842800  0.83772500  0.21001400  1
  Cl  Cl25  1  0.39842800  0.16227500  0.28998600  1
  Cl  Cl26  1  0.60157200  0.33772500  0.78998600  1
  Cl  Cl27  1  0.10157200  0.66227500  0.71001400  1
  Cl  Cl28  1  0.10157200  0.16227500  0.78998600  1
  Cl  Cl29  1  0.60157200  0.83772500  0.71001400  1
  Cl  Cl30  1  0.39842800  0.66227500  0.21001400  1
  Cl  Cl31  1  0.89842800  0.33772500  0.28998600  1
  Cl  Cl32  1  0.86147900  0.58445000  0.00121700  1
  Cl  Cl33  1  0.36147900  0.41555000  0.49878300  1
  Cl  Cl34  1  0.63852100  0.08445000  0.99878300  1
  Cl  Cl35  1  0.13852100  0.91555000  0.50121700  1
  Cl  Cl36  1  0.13852100  0.41555000  0.99878300  1
  Cl  Cl37  1  0.63852100  0.58445000  0.50121700  1
  Cl  Cl38  1  0.36147900  0.91555000  0.00121700  1
  Cl  Cl39  1  0.86147900  0.08445000  0.49878300  1
  Cl  Cl40  1  0.90703700  0.88963800  0.01772200  1
  Cl  Cl41  1  0.40703700  0.11036200  0.48227800  1
  Cl  Cl42  1  0.79589600  0.26162900  0.09184000  1
  Cl  Cl43  1  0.09296300  0.61036200  0.51772200  1
  Cl  Cl44  1  0.09296300  0.11036200  0.98227800  1
  Cl  Cl45  1  0.59296300  0.88963800  0.51772200  1
  Cl  Cl46  1  0.40703700  0.61036200  0.01772200  1
  Cl  Cl47  1  0.90703700  0.38963800  0.48227800  1
  Cl  Cl48  1  0.50701700  0.98834200  0.16105800  1
  Cl  Cl49  1  0.00701700  0.01165800  0.33894200  1
  Cl  Cl50  1  0.70354300  0.10368400  0.26069600  1
  Cl  Cl51  1  0.49298300  0.51165800  0.66105800  1
  Cl  Cl52  1  0.49298300  0.01165800  0.83894200  1
  Cl  Cl53  1  0.99298300  0.98834200  0.66105800  1
  Cl  Cl54  1  0.00701700  0.51165800  0.16105800  1
  Cl  Cl55  1  0.50701700  0.48834200  0.33894200  1
  Cl  Cl56  1  0.70354300  0.60368400  0.23930400  1
  Cl  Cl57  1  0.20354300  0.39631600  0.26069600  1
  Cl  Cl58  1  0.79645700  0.10368400  0.76069600  1
  Cl  Cl59  1  0.29645700  0.89631600  0.73930400  1
  Cl  Cl60  1  0.29645700  0.39631600  0.76069600  1
  Cl  Cl61  1  0.79645700  0.60368400  0.73930400  1
  Cl  Cl62  1  0.20354300  0.89631600  0.23930400  1
  Cl  Cl63  1  0.99298300  0.48834200  0.83894200  1
loop_
_geom_bond_atom_site_label_1
_geom_bond_atom_site_label_2
_geom_bond_distance
_geom_bond_site_symmetry_2
Al0 Cl55 2.159273 1_555
Al0 Cl23 2.159927 1_555
Al0 Cl30 2.161811 1_555
Al0 Cl56 2.163789 1_555
Al1 Cl15 2.158198 1_555
Al1 Cl39 2.160887 1_555
Al1 Cl47 2.162375 1_555
Al1 Cl3 2.163073 1_555
Al2 Cl14 2.158198 1_555
Al2 Cl38 2.160887 1_555
Al2 Cl46 2.162375 1_555
Al2 Cl4 2.163073 1_554
Al3 Cl13 2.158198 1_555
Al3 Cl37 2.160887 1_555
Al3 Cl45 2.162375 1_555
Al3 Cl1 2.163073 1_555
Al4 Cl12 2.158198 1_555
Al4 Cl36 2.160887 1_555
Al4 Cl44 2.162375 1_555
Al4 Cl2 2.163073 1_556
Al5 Cl11 2.158198 1_555
Al5 Cl35 2.160887 1_555
Al5 Cl43 2.162375 1_555
Al5 Cl7 2.163073 1_555
Al6 Cl10 2.158198 1_555
Al6 Cl34 2.160887 1_555
Al6 Cl0 2.162375 1_555
Al6 Cl42 2.163073 1_556
Al7 Cl9 2.158198 1_555
Al7 Cl33 2.160887 1_555
Al7 Cl41 2.162375 1_555
Al7 Cl5 2.163073 1_555
Al8 Cl8 2.158198 1_555
Al8 Cl32 2.160887 1_555
Al8 Cl40 2.162375 1_555
Al8 Cl6 2.163073 1_554
Al9 Cl54 2.159273 1_555
Al9 Cl22 2.159927 1_555
Al9 Cl31 2.161811 1_455
Al9 Cl57 2.163789 1_555
Al10 Cl53 2.159273 1_545
Al10 Cl21 2.159927 1_545
Al10 Cl28 2.161811 1_655
Al10 Cl58 2.163789 1_555
Al11 Cl52 2.159273 1_565
Al11 Cl20 2.159927 1_565
Al11 Cl29 2.161811 1_555
Al11 Cl59 2.163789 1_555
Al12 Cl51 2.159273 1_555
Al12 Cl19 2.159927 1_555
Al12 Cl26 2.161811 1_555
Al12 Cl60 2.163789 1_555
Al13 Cl63 2.159273 1_555
Al13 Cl18 2.159927 1_555
Al13 Cl27 2.161811 1_655
Al13 Cl61 2.163789 1_555
Al14 Cl49 2.159273 1_565
Al14 Cl17 2.159927 1_565
Al14 Cl24 2.161811 1_455
Al14 Cl62 2.163789 1_555
Al15 Cl48 2.159273 1_545
Al15 Cl16 2.159927 1_545
Al15 Cl25 2.161811 1_555
Al15 Cl50 2.163789 1_555
Cl0 Sr2 3.094379 1_555
Cl1 Sr7 3.075528 1_555
Cl2 Sr6 3.075528 1_555
Cl3 Sr5 3.075528 1_555
Cl4 Sr4 3.075528 1_555
Cl5 Sr3 3.075528 1_555
Cl6 Sr2 3.075528 1_555
Cl7 Sr1 3.075528 1_555
Cl8 Sr0 3.094492 1_565
Cl9 Sr1 3.094492 1_545
Cl10 Sr2 3.094492 1_555
Cl11 Sr3 3.094492 1_555
Cl12 Sr4 3.094492 1_545
Cl13 Sr5 3.094492 1_565
Cl14 Sr6 3.094492 1_555
Cl15 Sr7 3.094492 1_555
Cl16 Sr1 3.128441 1_555
Cl17 Sr0 3.128441 1_455
Cl18 Sr3 3.128441 1_655
Cl19 Sr2 3.128441 1_555
Cl20 Sr5 3.128441 1_555
Cl21 Sr4 3.128441 1_655
Cl22 Sr7 3.128441 1_455
Cl23 Sr6 3.128441 1_555
Cl24 Sr0 3.094584 1_565
Cl25 Sr1 3.094584 1_545
Cl26 Sr2 3.094584 1_555
Cl27 Sr3 3.094584 1_555
Cl28 Sr4 3.094584 1_545
Cl29 Sr5 3.094584 1_565
Cl30 Sr6 3.094584 1_555
Cl31 Sr7 3.094584 1_555
Cl32 Sr2 3.102900 1_554
Cl33 Sr3 3.102900 1_555
Cl34 Sr0 3.102900 1_556
Cl35 Sr1 3.102900 1_555
Cl36 Sr6 3.102900 1_556
Cl37 Sr7 3.102900 1_555
Cl38 Sr4 3.102900 1_554
Cl39 Sr5 3.102900 1_555
Cl40 Sr0 3.094379 1_565
Cl41 Sr1 3.094379 1_545
Cl42 Sr0 3.075528 1_555
Cl43 Sr3 3.094379 1_555
Cl44 Sr4 3.094379 1_545
Cl45 Sr5 3.094379 1_565
Cl46 Sr6 3.094379 1_555
Cl47 Sr7 3.094379 1_555
Cl48 Sr0 3.082113 1_565
Cl49 Sr1 3.082113 1_545
Cl50 Sr0 3.100852 1_555
Cl51 Sr3 3.082113 1_555
Cl52 Sr4 3.082113 1_545
Cl53 Sr5 3.082113 1_565
Cl54 Sr6 3.082113 1_555
Cl55 Sr7 3.082113 1_555
Cl56 Sr7 3.100852 1_555
Cl57 Sr6 3.100852 1_555
Cl58 Sr5 3.100852 1_555
Cl59 Sr4 3.100852 1_555
Cl60 Sr3 3.100852 1_555
Cl61 Sr2 3.100852 1_555
Cl62 Sr1 3.100852 1_555
Cl63 Sr2 3.082113 1_555
