# generated using pymatgen
data_BaMnCd(PO4)2
_symmetry_space_group_name_H-M   'P 1'
_cell_length_a   5.68623981
_cell_length_b   6.93485331
_cell_length_c   9.70037939
_cell_angle_alpha   108.88261178
_cell_angle_beta   100.33496315
_cell_angle_gamma   97.85407369
_symmetry_Int_Tables_number   1
_chemical_formula_structural   BaMnCd(PO4)2
_chemical_formula_sum   'Ba2 Mn2 Cd2 P4 O16'
_cell_volume   348.18262669
_cell_formula_units_Z   2
loop_
 _symmetry_equiv_pos_site_id
 _symmetry_equiv_pos_as_xyz
  1  'x, y, z'
loop_
 _atom_site_type_symbol
 _atom_site_label
 _atom_site_symmetry_multiplicity
 _atom_site_fract_x
 _atom_site_fract_y
 _atom_site_fract_z
 _atom_site_occupancy
  Ba  Ba0  1  0.26296192  0.80313548  0.06235496  1
  Ba  Ba1  1  0.73703808  0.19686452  0.93764504  1
  Mn  Mn0  1  0.62757924  0.84014354  0.55581481  1
  Mn  Mn1  1  0.37242076  0.15985646  0.44418519  1
  Cd  Cd0  1  0.02188738  0.41822605  0.65565058  1
  Cd  Cd1  1  0.97811262  0.58177395  0.34434942  1
  P  P0  1  0.38752144  0.42896377  0.23418917  1
  P  P1  1  0.61247856  0.57103623  0.76581083  1
  P  P2  1  0.84585768  0.03695068  0.30641889  1
  P  P3  1  0.15414232  0.96304932  0.69358111  1
  O  O0  1  0.84301537  0.55107045  0.86741733  1
  O  O1  1  0.61671278  0.48636219  0.18017151  1
  O  O2  1  0.63764326  0.78955819  0.75962433  1
  O  O3  1  0.95224775  0.08885660  0.67091976  1
  O  O4  1  0.38328722  0.51363781  0.81982849  1
  O  O5  1  0.02847762  0.73022732  0.59756749  1
  O  O6  1  0.97152238  0.26977268  0.40243251  1
  O  O7  1  0.23703620  0.99805411  0.85875974  1
  O  O8  1  0.36235774  0.21044181  0.24037567  1
  O  O9  1  0.76296380  0.00194589  0.14124026  1
  O  O10  1  0.15698463  0.44892955  0.13258267  1
  O  O11  1  0.40054768  0.58645637  0.39247071  1
  O  O12  1  0.59945232  0.41354363  0.60752929  1
  O  O13  1  0.63052745  0.96853639  0.36985983  1
  O  O14  1  0.04775225  0.91114340  0.32908024  1
  O  O15  1  0.36947255  0.03146361  0.63014017  1
loop_
_geom_bond_atom_site_label_1
_geom_bond_atom_site_label_2
_geom_bond_distance
_geom_bond_site_symmetry_2
Ba0 O8 2.708554 1_565
Ba0 O7 2.725302 1_554
Ba0 O0 2.726362 1_454
Ba0 O10 2.772509 1_555
Ba0 O4 2.815895 1_554
Ba0 O9 2.834611 1_565
Ba0 O14 2.980781 1_555
Ba0 O13 3.078159 1_555
Ba1 O2 2.708555 1_545
Ba1 O9 2.725302 1_556
Ba1 O10 2.726362 1_656
Ba1 O0 2.772509 1_555
Ba1 O1 2.815895 1_556
Ba1 O7 2.834611 1_545
Ba1 O3 2.980781 1_555
Ba1 O15 3.078159 1_555
Mn0 O11 2.028137 1_555
Mn0 O2 2.109213 1_555
Mn0 O15 2.174136 1_565
Mn0 O3 2.184827 1_565
Mn0 O13 2.256817 1_555
Mn0 O5 2.507012 1_655
Mn1 O12 2.028137 1_555
Mn1 O8 2.109214 1_555
Mn1 O13 2.174136 1_545
Mn1 O14 2.184827 1_545
Mn1 O15 2.256817 1_555
Mn1 O6 2.507012 1_455
Cd0 O4 2.229176 1_555
Cd0 O6 2.281578 1_455
Cd0 O3 2.321383 1_455
Cd0 O12 2.356996 1_455
Cd0 O5 2.403093 1_555
Cd0 O0 2.425671 1_455
Cd1 O1 2.229176 1_555
Cd1 O5 2.281578 1_655
Cd1 O14 2.321383 1_655
Cd1 O11 2.356996 1_655
Cd1 O6 2.403093 1_555
Cd1 O10 2.425671 1_655
O0 P1 1.543824 1_555
O1 P0 1.539379 1_555
O2 P1 1.524221 1_555
O3 P3 1.560377 1_645
O4 P1 1.539379 1_555
O5 P3 1.567640 1_555
O6 P2 1.567640 1_555
O7 P3 1.514739 1_555
O8 P0 1.524221 1_555
O9 P2 1.514739 1_555
O10 P0 1.543824 1_555
O11 P0 1.551598 1_555
O12 P1 1.551598 1_555
O13 P2 1.550354 1_565
O14 P2 1.560377 1_465
O15 P3 1.550354 1_545
