# generated using pymatgen
data_Cs2Ru(WO4)3
_symmetry_space_group_name_H-M   'P 1'
_cell_length_a   7.27613654
_cell_length_b   7.28695822
_cell_length_c   7.28622953
_cell_angle_alpha   60.29683772
_cell_angle_beta   60.17573844
_cell_angle_gamma   60.17853138
_symmetry_Int_Tables_number   1
_chemical_formula_structural   Cs2Ru(WO4)3
_chemical_formula_sum   'Cs2 Ru1 W3 O12'
_cell_volume   274.51279793
_cell_formula_units_Z   1
loop_
 _symmetry_equiv_pos_site_id
 _symmetry_equiv_pos_as_xyz
  1  'x, y, z'
loop_
 _atom_site_type_symbol
 _atom_site_label
 _atom_site_symmetry_multiplicity
 _atom_site_fract_x
 _atom_site_fract_y
 _atom_site_fract_z
 _atom_site_occupancy
  Cs  Cs0  1  0.63072591  0.62842871  0.62853051  1
  Cs  Cs1  1  0.36927409  0.37157129  0.37146949  1
  Ru  Ru0  1  0.00000000  0.00000000  0.00000000  1
  W  W0  1  0.50000000  0.00000000  0.00000000  1
  W  W1  1  0.00000000  0.00000000  0.50000000  1
  W  W2  1  0.00000000  0.50000000  0.00000000  1
  O  O0  1  0.94341751  0.31152396  0.31161739  1
  O  O1  1  0.31276893  0.94158499  0.94164312  1
  O  O2  1  0.31293047  0.31090042  0.94253527  1
  O  O3  1  0.94207715  0.93952203  0.31581442  1
  O  O4  1  0.94199395  0.31597207  0.93952762  1
  O  O5  1  0.31287157  0.94249495  0.31094104  1
  O  O6  1  0.05658249  0.68847604  0.68838261  1
  O  O7  1  0.68723107  0.05841501  0.05835688  1
  O  O8  1  0.68706953  0.68909958  0.05746473  1
  O  O9  1  0.05792285  0.06047797  0.68418558  1
  O  O10  1  0.05800605  0.68402793  0.06047238  1
  O  O11  1  0.68712843  0.05750505  0.68905896  1
loop_
_geom_bond_atom_site_label_1
_geom_bond_atom_site_label_2
_geom_bond_distance
_geom_bond_site_symmetry_2
Cs0 O4 3.211114 1_555
Cs0 O3 3.212073 1_555
Cs0 O1 3.228462 1_555
Cs0 O0 3.267145 1_555
Cs0 O2 3.278417 1_555
Cs0 O5 3.279008 1_555
Cs1 O10 3.211114 1_555
Cs1 O9 3.212073 1_555
Cs1 O7 3.228462 1_555
Cs1 O6 3.267145 1_555
Cs1 O8 3.278417 1_555
Cs1 O11 3.279008 1_555
O0 W1 1.936848 1_655
O0 W2 1.937331 1_655
O1 W0 1.884201 1_566
O1 Ru0 1.947923 1_566
O2 W0 1.928831 1_556
O2 W2 1.939432 1_556
O3 W1 1.872509 1_665
O3 Ru0 1.970275 1_665
O4 W2 1.871905 1_656
O4 Ru0 1.971478 1_656
O5 W0 1.928894 1_565
O5 W1 1.938972 1_565
O6 W1 1.936848 1_565
O6 W2 1.937331 1_556
O7 W0 1.884201 1_555
O7 Ru0 1.947923 1_655
O8 W0 1.928831 1_565
O8 W2 1.939432 1_655
O9 W1 1.872509 1_555
O9 Ru0 1.970275 1_556
O10 W2 1.871905 1_555
O10 Ru0 1.971478 1_565
O11 W0 1.928894 1_556
O11 W1 1.938972 1_655
