# generated using pymatgen
data_Zr4CdPbC2
_symmetry_space_group_name_H-M   'P 1'
_cell_length_a   3.37013724
_cell_length_b   3.37013806
_cell_length_c   15.07358520
_cell_angle_alpha   90.00000000
_cell_angle_beta   90.00000000
_cell_angle_gamma   119.99998215
_symmetry_Int_Tables_number   1
_chemical_formula_structural   Zr4CdPbC2
_chemical_formula_sum   'Zr4 Cd1 Pb1 C2'
_cell_volume   148.26633361
_cell_formula_units_Z   1
loop_
 _symmetry_equiv_pos_site_id
 _symmetry_equiv_pos_as_xyz
  1  'x, y, z'
loop_
 _atom_site_type_symbol
 _atom_site_label
 _atom_site_symmetry_multiplicity
 _atom_site_fract_x
 _atom_site_fract_y
 _atom_site_fract_z
 _atom_site_occupancy
  Zr  Zr0  1  0.33333300  0.66666700  0.08314173  1
  Zr  Zr1  1  0.33333300  0.66666700  0.41685827  1
  Zr  Zr2  1  0.66666700  0.33333300  0.58084086  1
  Zr  Zr3  1  0.66666700  0.33333300  0.91915914  1
  Cd  Cd0  1  0.33333300  0.66666700  0.75000000  1
  Pb  Pb0  1  0.66666700  0.33333300  0.25000000  1
  C  C0  1  0.00000000  0.00000000  0.00100531  1
  C  C1  1  0.00000000  0.00000000  0.49899469  1
loop_
_geom_bond_atom_site_label_1
_geom_bond_atom_site_label_2
_geom_bond_distance
_geom_bond_site_symmetry_2
Cd0 Zr3 3.207428 1_455
Cd0 Zr2 3.207428 1_455
Cd0 Zr3 3.207428 1_565
Cd0 Zr2 3.207428 1_565
Cd0 Zr3 3.207431 1_555
Cd0 Zr2 3.207431 1_555
Pb0 Zr1 3.179926 1_655
Pb0 Zr0 3.179926 1_655
Pb0 Zr1 3.179926 1_545
Pb0 Zr0 3.179926 1_545
Pb0 Zr1 3.179929 1_555
Pb0 Zr0 3.179929 1_555
C0 Zr3 2.303907 1_454
C0 Zr3 2.303910 1_554
C0 Zr3 2.303910 1_444
C0 Zr0 2.306253 1_545
C0 Zr0 2.306256 1_445
C0 Zr0 2.306256 1_555
C1 Zr2 2.303907 1_455
C1 Zr2 2.303910 1_555
C1 Zr2 2.303910 1_445
C1 Zr1 2.306253 1_545
C1 Zr1 2.306256 1_445
C1 Zr1 2.306256 1_555
