# generated using pymatgen
data_Tl2S5
_symmetry_space_group_name_H-M   'P 1'
_cell_length_a   6.65934205
_cell_length_b   6.79710289
_cell_length_c   16.81492480
_cell_angle_alpha   90.00000000
_cell_angle_beta   90.00000000
_cell_angle_gamma   90.00000000
_symmetry_Int_Tables_number   1
_chemical_formula_structural   Tl2S5
_chemical_formula_sum   'Tl8 S20'
_cell_volume   761.11467560
_cell_formula_units_Z   4
loop_
 _symmetry_equiv_pos_site_id
 _symmetry_equiv_pos_as_xyz
  1  'x, y, z'
loop_
 _atom_site_type_symbol
 _atom_site_label
 _atom_site_symmetry_multiplicity
 _atom_site_fract_x
 _atom_site_fract_y
 _atom_site_fract_z
 _atom_site_occupancy
  Tl  Tl0  1  0.43089021  0.19648668  0.14700323  1
  Tl  Tl1  1  0.93089021  0.30351332  0.85299677  1
  Tl  Tl2  1  0.56910979  0.69648668  0.35299677  1
  Tl  Tl3  1  0.06910979  0.80351332  0.64700323  1
  Tl  Tl4  1  0.18067147  0.60336596  0.03349583  1
  Tl  Tl5  1  0.68067147  0.89663404  0.96650417  1
  Tl  Tl6  1  0.81932853  0.10336596  0.46650417  1
  Tl  Tl7  1  0.31932853  0.39663404  0.53349583  1
  S  S0  1  0.94385401  0.75198912  0.82707360  1
  S  S1  1  0.44385401  0.74801088  0.17292640  1
  S  S2  1  0.05614599  0.25198912  0.67292640  1
  S  S3  1  0.55614599  0.24801088  0.32707360  1
  S  S4  1  0.23554105  0.82660600  0.85166911  1
  S  S5  1  0.73554105  0.67339400  0.14833089  1
  S  S6  1  0.76445895  0.32660600  0.64833089  1
  S  S7  1  0.26445895  0.17339400  0.35166911  1
  S  S8  1  0.92234822  0.56373429  0.47737523  1
  S  S9  1  0.42234822  0.93626571  0.52262477  1
  S  S10  1  0.07765178  0.06373429  0.02262477  1
  S  S11  1  0.57765178  0.43626571  0.97737523  1
  S  S12  1  0.07645122  0.62512672  0.37526480  1
  S  S13  1  0.57645122  0.87487328  0.62473520  1
  S  S14  1  0.92354878  0.12512672  0.12473520  1
  S  S15  1  0.42354878  0.37487328  0.87526480  1
  S  S16  1  0.07318284  0.37737849  0.30247193  1
  S  S17  1  0.57318284  0.12262151  0.69752807  1
  S  S18  1  0.92681716  0.87737849  0.19752807  1
  S  S19  1  0.42681716  0.62262151  0.80247193  1
loop_
_geom_bond_atom_site_label_1
_geom_bond_atom_site_label_2
_geom_bond_distance
_geom_bond_site_symmetry_2
S0 S4 2.049722 1_655
S0 Tl1 3.080554 1_555
S0 Tl5 3.087888 1_555
S0 Tl3 3.160127 1_655
S1 S5 2.049722 1_555
S1 Tl0 3.080554 1_565
S1 Tl4 3.087888 1_555
S1 Tl2 3.160127 1_555
S2 S6 2.049722 1_455
S2 Tl3 3.080554 1_545
S2 Tl7 3.087888 1_555
S2 Tl1 3.160127 1_455
S3 S7 2.049722 1_555
S3 Tl2 3.080554 1_555
S3 Tl6 3.087888 1_555
S3 Tl0 3.160127 1_555
S8 Tl7 3.028086 1_655
S8 Tl6 3.208704 1_555
S8 Tl2 3.274401 1_555
S9 Tl6 3.028086 1_565
S9 Tl7 3.208704 1_565
S9 Tl3 3.274401 1_555
S10 S14 2.043352 1_455
S10 Tl5 3.028086 1_444
S10 Tl4 3.208704 1_545
S10 Tl0 3.274401 1_555
S11 S15 2.043352 1_555
S11 Tl4 3.028086 1_556
S11 Tl5 3.208704 1_555
S11 Tl1 3.274401 1_555
S12 S8 2.043352 1_455
S12 S16 2.081927 1_555
S13 S9 2.043352 1_555
S13 S17 2.081927 1_565
S14 S18 2.081927 1_545
S15 S19 2.081927 1_555
S16 S7 2.056509 1_555
S17 S6 2.056509 1_555
S18 S5 2.056509 1_555
S19 S4 2.056509 1_555
