# generated using pymatgen
data_Hf2Zr3BeSn3
_symmetry_space_group_name_H-M   'P 1'
_cell_length_a   8.55610803
_cell_length_b   8.55610713
_cell_length_c   5.81603828
_cell_angle_alpha   90.00000000
_cell_angle_beta   90.00000000
_cell_angle_gamma   119.99999970
_symmetry_Int_Tables_number   1
_chemical_formula_structural   Hf2Zr3BeSn3
_chemical_formula_sum   'Hf4 Zr6 Be2 Sn6'
_cell_volume   368.73160379
_cell_formula_units_Z   2
loop_
 _symmetry_equiv_pos_site_id
 _symmetry_equiv_pos_as_xyz
  1  'x, y, z'
loop_
 _atom_site_type_symbol
 _atom_site_label
 _atom_site_symmetry_multiplicity
 _atom_site_fract_x
 _atom_site_fract_y
 _atom_site_fract_z
 _atom_site_occupancy
  Hf  Hf0  1  0.66666700  0.33333300  0.00000000  1
  Hf  Hf1  1  0.33333300  0.66666700  0.00000000  1
  Hf  Hf2  1  0.33333300  0.66666700  0.50000000  1
  Hf  Hf3  1  0.66666700  0.33333300  0.50000000  1
  Zr  Zr0  1  0.74976781  0.74976781  0.75000000  1
  Zr  Zr1  1  0.25023219  1.00000000  0.75000000  1
  Zr  Zr2  1  0.00000000  0.25023219  0.75000000  1
  Zr  Zr3  1  0.25023219  0.25023219  0.25000000  1
  Zr  Zr4  1  0.74976781  0.00000000  0.25000000  1
  Zr  Zr5  1  1.00000000  0.74976781  0.25000000  1
  Be  Be0  1  0.00000000  0.00000000  0.00000000  1
  Be  Be1  1  0.00000000  0.00000000  0.50000000  1
  Sn  Sn0  1  0.39080210  0.39080210  0.75000000  1
  Sn  Sn1  1  0.60919790  0.00000000  0.75000000  1
  Sn  Sn2  1  1.00000000  0.60919790  0.75000000  1
  Sn  Sn3  1  0.60919790  0.60919790  0.25000000  1
  Sn  Sn4  1  0.39080210  1.00000000  0.25000000  1
  Sn  Sn5  1  0.00000000  0.39080210  0.25000000  1
loop_
_geom_bond_atom_site_label_1
_geom_bond_atom_site_label_2
_geom_bond_distance
_geom_bond_site_symmetry_2
Hf0 Sn1 3.014571 1_554
Hf0 Sn5 3.014571 1_655
Hf0 Sn4 3.014574 1_545
Hf0 Sn2 3.014574 1_554
Hf0 Sn3 3.014578 1_555
Hf0 Sn0 3.014578 1_554
Hf1 Sn4 3.014571 1_555
Hf1 Sn2 3.014571 1_454
Hf1 Sn1 3.014574 1_564
Hf1 Sn5 3.014574 1_555
Hf1 Sn0 3.014578 1_554
Hf1 Sn3 3.014578 1_555
Hf2 Sn4 3.014571 1_555
Hf2 Sn2 3.014571 1_455
Hf2 Sn1 3.014574 1_565
Hf2 Sn5 3.014574 1_555
Hf2 Sn0 3.014578 1_555
Hf2 Sn3 3.014578 1_555
Hf3 Sn1 3.014571 1_555
Hf3 Sn5 3.014571 1_655
Hf3 Sn4 3.014574 1_545
Hf3 Sn2 3.014574 1_555
Hf3 Sn3 3.014578 1_555
Hf3 Sn0 3.014578 1_555
Be0 Zr2 2.588065 1_554
Be0 Zr5 2.588065 1_445
Be0 Zr3 2.588065 1_555
Be0 Zr0 2.588065 1_444
Be0 Zr1 2.588066 1_544
Be0 Zr4 2.588066 1_455
Be1 Zr2 2.588065 1_555
Be1 Zr5 2.588065 1_445
Be1 Zr3 2.588065 1_555
Be1 Zr0 2.588065 1_445
Be1 Zr1 2.588066 1_545
Be1 Zr4 2.588066 1_455
Sn0 Zr1 2.933524 1_545
Sn0 Zr2 2.933525 1_555
Sn0 Zr0 3.071349 1_555
Sn0 Zr3 3.146925 1_555
Sn0 Zr3 3.146925 1_556
Sn1 Zr0 2.933524 1_545
Sn1 Zr2 2.933525 1_655
Sn1 Zr1 3.071349 1_545
Sn1 Zr4 3.146925 1_556
Sn1 Zr4 3.146925 1_555
Sn2 Zr1 2.933524 1_655
Sn2 Zr0 2.933524 1_555
Sn2 Zr2 3.071349 1_655
Sn2 Zr5 3.146925 1_556
Sn2 Zr5 3.146925 1_555
Sn3 Zr4 2.933524 1_565
Sn3 Zr5 2.933525 1_555
Sn3 Zr3 3.071349 1_555
Sn3 Zr0 3.146925 1_555
Sn3 Zr0 3.146925 1_554
Sn4 Zr3 2.933524 1_565
Sn4 Zr5 2.933525 1_455
Sn4 Zr4 3.071349 1_565
Sn4 Zr1 3.146925 1_555
Sn4 Zr1 3.146925 1_554
Sn5 Zr4 2.933524 1_455
Sn5 Zr3 2.933524 1_555
Sn5 Zr5 3.071349 1_455
Sn5 Zr2 3.146925 1_554
Sn5 Zr2 3.146925 1_555
