# generated using pymatgen
data_Cs2RbScAs2
_symmetry_space_group_name_H-M   'P 1'
_cell_length_a   9.74714583
_cell_length_b   9.74714493
_cell_length_c   9.74714550
_cell_angle_alpha   130.45175854
_cell_angle_beta   67.45006441
_cell_angle_gamma   137.28025534
_symmetry_Int_Tables_number   1
_chemical_formula_structural   Cs2RbScAs2
_chemical_formula_sum   'Cs4 Rb2 Sc2 As4'
_cell_volume   470.21012295
_cell_formula_units_Z   2
loop_
 _symmetry_equiv_pos_site_id
 _symmetry_equiv_pos_as_xyz
  1  'x, y, z'
loop_
 _atom_site_type_symbol
 _atom_site_label
 _atom_site_symmetry_multiplicity
 _atom_site_fract_x
 _atom_site_fract_y
 _atom_site_fract_z
 _atom_site_occupancy
  Cs  Cs0  1  0.81597658  0.23324817  0.04922475  1
  Cs  Cs1  1  0.68402342  0.73324817  0.41727159  1
  Cs  Cs2  1  0.31597658  0.26675183  0.58272941  1
  Cs  Cs3  1  0.18402342  0.76675183  0.95077525  1
  Rb  Rb0  1  0.74999900  0.24999900  0.50000000  1
  Rb  Rb1  1  0.24999900  0.74999900  0.50000000  1
  Sc  Sc0  1  0.24999900  0.24999900  0.00000000  1
  Sc  Sc1  1  0.75000000  0.75000000  0.00000000  1
  As  As0  1  0.41220647  0.67842077  0.09062624  1
  As  As1  1  0.08779353  0.17841977  0.26621331  1
  As  As2  1  0.91220647  0.82158023  0.73378669  1
  As  As3  1  0.58779353  0.32158023  0.90937376  1
loop_
_geom_bond_atom_site_label_1
_geom_bond_atom_site_label_2
_geom_bond_distance
_geom_bond_site_symmetry_2
As0 Sc1 2.702116 1_555
As0 Sc0 2.702125 1_555
As0 Rb0 3.475344 1_565
As0 Rb1 3.475355 1_555
As0 Cs2 3.707193 1_554
As0 Cs3 3.769377 1_554
As0 Cs0 3.903646 1_565
As0 Cs0 3.903653 1_455
As1 Sc0 2.702107 1_555
As1 Sc1 2.702112 1_445
As1 Rb1 3.475346 1_555
As1 Rb0 3.475353 1_455
As1 Cs3 3.707200 1_544
As1 Cs2 3.769395 1_555
As1 Cs1 3.903653 1_445
As1 Cs1 3.903653 1_555
As2 Sc0 2.702107 1_666
As2 Sc1 2.702112 1_556
As2 Rb1 3.475346 1_655
As2 Rb0 3.475353 1_555
As2 Cs0 3.707200 1_566
As2 Cs1 3.769386 1_555
As2 Cs2 3.903646 1_665
As2 Cs2 3.903653 1_555
As3 Sc1 2.702111 1_556
As3 Sc0 2.702116 1_556
As3 Rb0 3.475346 1_555
As3 Rb1 3.475353 1_545
As3 Cs1 3.707200 1_556
As3 Cs0 3.769386 1_556
As3 Cs3 3.903653 1_545
As3 Cs3 3.903653 1_655
