# generated using pymatgen
data_Sr2Os6Pb2O19
_symmetry_space_group_name_H-M   'P 1'
_cell_length_a   7.99538315
_cell_length_b   7.99538273
_cell_length_c   7.96223192
_cell_angle_alpha   109.47054829
_cell_angle_beta   109.47500159
_cell_angle_gamma   109.63618235
_symmetry_Int_Tables_number   1
_chemical_formula_structural   Sr2Os6Pb2O19
_chemical_formula_sum   'Sr2 Os6 Pb2 O19'
_cell_volume   391.00876031
_cell_formula_units_Z   1
loop_
 _symmetry_equiv_pos_site_id
 _symmetry_equiv_pos_as_xyz
  1  'x, y, z'
loop_
 _atom_site_type_symbol
 _atom_site_label
 _atom_site_symmetry_multiplicity
 _atom_site_fract_x
 _atom_site_fract_y
 _atom_site_fract_z
 _atom_site_occupancy
  Sr  Sr0  1  0.31182359  0.00061339  0.00119317  1
  Sr  Sr1  1  0.99942022  0.31063142  0.99880683  1
  Os  Os0  1  0.63711062  0.50014059  0.14010599  1
  Os  Os1  1  0.49876262  0.86107316  0.36059949  1
  Os  Os2  1  0.86131720  0.36131720  0.50000000  1
  Os  Os3  1  0.13801146  0.63801046  0.50000000  1
  Os  Os4  1  0.50047467  0.13816312  0.63940051  1
  Os  Os5  1  0.36003560  0.49700563  0.85989401  1
  Pb  Pb0  1  0.99906904  0.99993915  0.28834034  1
  Pb  Pb1  1  0.71159781  0.71072770  0.71165966  1
  O  O0  1  0.99245580  0.99245580  0.00000000  1
  O  O1  1  0.33212109  0.33212109  1.00000000  1
  O  O2  1  0.66529569  0.66529569  0.00000000  1
  O  O3  1  0.34733737  0.70528894  0.06239728  1
  O  O4  1  0.93334503  0.64033554  0.28543654  1
  O  O5  1  0.64295085  0.35765513  0.29404452  1
  O  O6  1  0.33486246  0.00221819  0.33427231  1
  O  O7  1  0.99596057  0.33248638  0.33011417  1
  O  O8  1  0.70175070  0.06447437  0.34572363  1
  O  O9  1  0.64664963  0.71447122  0.35367267  1
  O  O10  1  0.28918479  0.64405136  0.35485879  1
  O  O11  1  0.28919457  0.93432900  0.64514121  1
  O  O12  1  0.36079754  0.29297596  0.64632733  1
  O  O13  1  0.71874774  0.35602407  0.65427437  1
  O  O14  1  0.66794588  0.00059015  0.66572669  1
  O  O15  1  0.00237121  0.66584640  0.66988683  1
  O  O16  1  0.06360860  0.34890433  0.70595348  1
  O  O17  1  0.35489900  0.64790949  0.71456346  1
  O  O18  1  0.64289066  0.28493909  0.93760172  1
loop_
_geom_bond_atom_site_label_1
_geom_bond_atom_site_label_2
_geom_bond_distance
_geom_bond_site_symmetry_2
O0 Pb0 2.258889 1_555
O0 Pb1 2.258895 1_554
O0 Sr0 2.529035 1_665
O0 Sr1 2.529043 1_564
O1 Os0 1.995213 1_556
O1 Os5 1.995220 1_555
O1 Sr0 2.603931 1_556
O1 Sr1 2.603934 1_455
O2 Os5 1.997130 1_554
O2 Os0 1.997137 1_555
O2 Pb1 2.563618 1_554
O2 Pb0 2.563625 1_555
O3 Os1 1.937252 1_555
O3 Os5 1.953481 1_554
O3 Sr0 2.649333 1_565
O4 Os0 1.931002 1_555
O4 Os3 1.942751 1_655
O4 Pb0 2.734119 1_555
O5 Os0 1.931527 1_555
O5 Os2 1.939799 1_555
O5 Sr0 2.638603 1_555
O6 Os4 1.991094 1_555
O6 Os1 2.000799 1_545
O6 Pb0 2.578795 1_445
O6 Sr0 2.591808 1_555
O7 Os2 1.992899 1_555
O7 Os3 1.998753 1_655
O7 Pb0 2.577025 1_545
O7 Sr1 2.595124 1_554
O8 Os2 1.935434 1_555
O8 Os1 1.943061 1_545
O8 Pb0 2.741786 1_545
O9 Os1 1.925338 1_555
O9 Os0 1.927976 1_555
O9 Pb1 2.734146 1_555
O10 Os3 1.930840 1_555
O10 Os1 1.939754 1_555
O10 Sr1 2.634867 1_454
O11 Os3 1.930867 1_555
O11 Os4 1.939736 1_565
O11 Sr0 2.634880 1_566
O12 Os4 1.925345 1_555
O12 Os5 1.927975 1_555
O12 Pb0 2.734138 1_445
O13 Os2 1.935440 1_555
O13 Os4 1.943038 1_555
O13 Pb1 2.741792 1_555
O14 Os1 1.991087 1_545
O14 Os4 2.000792 1_555
O14 Pb1 2.578803 1_545
O14 Sr1 2.591813 1_555
O15 Os2 1.992901 1_455
O15 Os3 1.998773 1_555
O15 Pb1 2.577019 1_455
O15 Sr0 2.595122 1_566
O16 Os5 1.931547 1_555
O16 Os2 1.939790 1_455
O16 Sr1 2.638603 1_455
O17 Os5 1.931002 1_555
O17 Os3 1.942737 1_555
O17 Pb1 2.734114 1_555
O18 Os4 1.937246 1_555
O18 Os0 1.953486 1_556
O18 Sr1 2.649334 1_555
