# generated using pymatgen
data_Mg(ZrRe6)4
_symmetry_space_group_name_H-M   'P 1'
_cell_length_a   8.43422784
_cell_length_b   8.43418483
_cell_length_c   8.43418997
_cell_angle_alpha   109.47109792
_cell_angle_beta   109.47139979
_cell_angle_gamma   109.47127982
_symmetry_Int_Tables_number   1
_chemical_formula_structural   Mg(ZrRe6)4
_chemical_formula_sum   'Mg1 Zr4 Re24'
_cell_volume   461.85889381
_cell_formula_units_Z   1
loop_
 _symmetry_equiv_pos_site_id
 _symmetry_equiv_pos_as_xyz
  1  'x, y, z'
loop_
 _atom_site_type_symbol
 _atom_site_label
 _atom_site_symmetry_multiplicity
 _atom_site_fract_x
 _atom_site_fract_y
 _atom_site_fract_z
 _atom_site_occupancy
  Mg  Mg0  1  0.00000439  0.00000000  0.00000208  1
  Zr  Zr0  1  0.63312490  0.00000000  0.00001189  1
  Zr  Zr1  1  0.00000742  0.63312236  0.99999684  1
  Zr  Zr2  1  0.99998285  0.00000000  0.63311432  1
  Zr  Zr3  1  0.36688506  0.36687764  0.36687447  1
  Re  Re0  1  0.39570180  0.67586244  0.00002634  1
  Re  Re1  1  0.71983935  0.32413756  0.32416389  1
  Re  Re2  1  0.39570505  0.00000000  0.67584133  1
  Re  Re3  1  0.67585224  0.39569863  0.00000902  1
  Re  Re4  1  0.99998029  0.39568226  0.67583878  1
  Re  Re5  1  0.32417616  0.71985554  0.32413889  1
  Re  Re6  1  0.32414688  0.32416489  0.71985298  1
  Re  Re7  1  0.99998198  0.67583511  0.39568809  1
  Re  Re8  1  0.67584304  0.00000000  0.39569360  1
  Re  Re9  1  0.60429803  0.60431774  0.28015653  1
  Re  Re10  1  0.28015361  0.60430137  0.60431039  1
  Re  Re11  1  0.60432062  0.28014446  0.60428335  1
  Re  Re12  1  0.37614248  0.19307804  0.00001842  1
  Re  Re13  1  0.18306444  0.80692196  0.80694039  1
  Re  Re14  1  0.37616011  0.00000000  0.19308379  1
  Re  Re15  1  0.19307306  0.37615120  0.00000187  1
  Re  Re16  1  0.00000273  0.37613437  0.19306812  1
  Re  Re17  1  0.80693323  0.18306516  0.80691065  1
  Re  Re18  1  0.80691324  0.80693651  0.18307638  1
  Re  Re19  1  0.99997673  0.19306349  0.37613987  1
  Re  Re20  1  0.19307201  0.00000000  0.37612779  1
  Re  Re21  1  0.62386836  0.62386563  0.81693375  1
  Re  Re22  1  0.81692186  0.62384880  0.62385067  1
  Re  Re23  1  0.62386807  0.81693484  0.62384550  1
loop_
_geom_bond_atom_site_label_1
_geom_bond_atom_site_label_2
_geom_bond_distance
_geom_bond_site_symmetry_2
Mg0 Re20 3.044889 1_555
Mg0 Re12 3.044937 1_555
Mg0 Re13 3.044937 1_544
Mg0 Re16 3.044962 1_555
Mg0 Re21 3.044962 1_444
Mg0 Re23 3.045065 1_444
Mg0 Re17 3.045065 1_454
Mg0 Re22 3.045079 1_444
Mg0 Re15 3.045079 1_555
Mg0 Re19 3.045100 1_455
Mg0 Re18 3.045100 1_445
Mg0 Re14 3.045141 1_555
Mg0 Zr3 3.094308 1_555
Mg0 Zr1 3.094308 1_544
Mg0 Zr2 3.094341 1_454
Mg0 Zr0 3.094373 1_455
Re0 Re15 2.535737 1_555
Re0 Re14 2.768396 1_565
Re0 Re13 2.768563 1_554
Re0 Zr0 2.799022 1_565
Re0 Re9 2.815785 1_555
Re0 Re6 2.816000 1_554
Re0 Re18 2.893229 1_555
Re0 Re21 2.893558 1_554
Re0 Re5 2.923483 1_555
Re0 Re8 2.923695 1_565
Re0 Re10 2.923993 1_554
Re0 Re4 2.924114 1_454
Re0 Zr1 3.235024 1_554
Re1 Re22 2.535737 1_555
Re1 Re14 2.768396 1_555
Re1 Re12 2.768563 1_555
Re1 Zr0 2.799022 1_555
Re1 Re4 2.815785 1_555
Re1 Re7 2.816000 1_555
Re1 Re19 2.893229 1_555
Re1 Re16 2.893558 1_655
Re1 Re11 2.923483 1_555
Re1 Re8 2.923695 1_555
Re1 Re3 2.923993 1_555
Re1 Re9 2.924114 1_555
Re1 Zr3 3.235024 1_555
Re2 Re20 2.535877 1_555
Re2 Zr0 2.799146 1_556
Re2 Re5 2.816019 1_545
Re2 Re23 2.893365 1_545
Re2 Re3 2.923922 1_556
Re2 Re6 2.924041 1_555
Re2 Re7 2.924041 1_445
Re2 Zr2 3.235377 1_455
Re3 Zr1 2.799130 1_654
Re3 Re9 2.816033 1_555
Re3 Re6 2.816062 1_554
Re3 Re7 2.923728 1_555
Re3 Zr0 3.235171 1_555
Re4 Zr1 2.799011 1_655
Re4 Re8 2.923770 1_555
Re4 Re6 2.923869 1_655
Re4 Zr2 3.235040 1_555
Re5 Zr1 2.799061 1_554
Re5 Re8 2.815722 1_565
Re5 Re9 2.923575 1_555
Re5 Re7 2.924239 1_455
Re5 Zr3 3.235185 1_555
Re6 Zr2 2.799132 1_455
Re6 Zr3 3.235214 1_555
Re7 Zr2 2.799132 1_565
Re7 Re9 2.923869 1_555
Re7 Zr1 3.235214 1_654
Re8 Zr2 2.798963 1_555
Re8 Re9 2.923770 1_545
Re8 Zr0 3.235039 1_555
Re9 Zr3 2.799011 1_555
Re9 Zr2 3.235040 1_565
Re10 Re13 2.535870 1_555
Re10 Re21 2.768603 1_555
Re10 Re23 2.768752 1_555
Re10 Zr3 2.799130 1_555
Re10 Re4 2.816033 1_455
Re10 Re7 2.816062 1_455
Re10 Re16 2.893423 1_555
Re10 Re19 2.893440 1_455
Re10 Re6 2.923728 1_555
Re10 Re2 2.923922 1_565
Re10 Re5 2.924139 1_555
Re10 Zr0 3.235171 1_566
Re11 Re17 2.535749 1_555
Re11 Re22 2.768460 1_555
Re11 Re21 2.768777 1_555
Re11 Zr3 2.799061 1_555
Re11 Re8 2.815722 1_555
Re11 Re2 2.816019 1_555
Re11 Re14 2.893159 1_555
Re11 Re20 2.893458 1_555
Re11 Re4 2.923575 1_555
Re11 Re3 2.924139 1_556
Re11 Re6 2.924239 1_555
Re11 Zr1 3.235185 1_655
Re12 Re15 2.521442 1_555
Re12 Re3 2.535870 1_555
Re12 Re14 2.659169 1_555
Re12 Re13 2.659256 1_544
Re12 Re2 2.768820 1_554
Re12 Re9 2.893388 1_555
Re12 Re6 2.893506 1_554
Re12 Zr3 2.990346 1_555
Re12 Zr2 2.990725 1_454
Re12 Zr0 3.114930 1_555
Re13 Re22 2.521442 1_455
Re13 Re14 2.659169 1_566
Re13 Re2 2.768820 1_565
Re13 Re4 2.893388 1_455
Re13 Re7 2.893506 1_455
Re13 Zr1 2.990346 1_555
Re13 Zr2 2.990725 1_465
Re13 Zr0 3.114930 1_566
Re14 Re20 2.521372 1_555
Re14 Re8 2.535617 1_555
Re14 Re5 2.893159 1_545
Re14 Zr1 2.990573 1_544
Re14 Zr3 2.990573 1_555
Re14 Zr0 3.114762 1_555
Re15 Re16 2.659134 1_555
Re15 Re17 2.659153 1_454
Re15 Re5 2.768460 1_555
Re15 Re4 2.768596 1_454
Re15 Re6 2.893314 1_554
Re15 Re9 2.893333 1_555
Re15 Zr3 2.990551 1_555
Re15 Zr2 2.990600 1_454
Re15 Zr1 3.114764 1_554
Re16 Re19 2.521434 1_455
Re16 Re7 2.535858 1_455
Re16 Re17 2.659266 1_454
Re16 Re3 2.768603 1_455
Re16 Re5 2.768777 1_555
Re16 Zr0 2.990531 1_455
Re16 Zr3 2.990552 1_555
Re16 Zr1 3.114910 1_554
Re17 Re23 2.521349 1_545
Re17 Re4 2.768384 1_555
Re17 Re3 2.768752 1_556
Re17 Re8 2.893236 1_555
Re17 Re2 2.893365 1_555
Re17 Zr2 2.990326 1_555
Re17 Zr0 2.990752 1_556
Re17 Zr1 3.114889 1_655
Re18 Re21 2.521434 1_554
Re18 Re9 2.535730 1_555
Re18 Re19 2.659056 1_565
Re18 Re20 2.659284 1_665
Re18 Re8 2.768449 1_565
Re18 Re7 2.768649 1_555
Re18 Re3 2.893440 1_555
Re18 Zr0 2.990381 1_565
Re18 Zr1 2.990797 1_654
Re18 Zr2 3.114761 1_565
Re19 Re4 2.535730 1_555
Re19 Re20 2.659284 1_655
Re19 Re8 2.768449 1_555
Re19 Re6 2.768649 1_655
Re19 Zr0 2.990381 1_555
Re19 Zr3 2.990797 1_655
Re19 Zr2 3.114761 1_555
Re20 Re7 2.768748 1_445
Re20 Re6 2.768748 1_555
Re20 Re5 2.893458 1_545
Re20 Zr1 2.990500 1_544
Re20 Zr3 2.990500 1_555
Re20 Zr2 3.115028 1_455
Re21 Re6 2.535858 1_555
Re21 Re22 2.659134 1_555
Re21 Re23 2.659266 1_555
Re21 Re3 2.893423 1_556
Re21 Zr0 2.990531 1_566
Re21 Zr1 2.990552 1_655
Re21 Zr3 3.114910 1_555
Re22 Re23 2.659153 1_555
Re22 Re9 2.768596 1_555
Re22 Re7 2.893314 1_555
Re22 Re4 2.893333 1_555
Re22 Zr1 2.990551 1_655
Re22 Zr2 2.990600 1_565
Re22 Zr3 3.114764 1_555
Re23 Re5 2.535749 1_555
Re23 Re9 2.768384 1_555
Re23 Re8 2.893236 1_565
Re23 Zr2 2.990326 1_565
Re23 Zr0 2.990752 1_566
Re23 Zr3 3.114889 1_555
