# generated using pymatgen
data_Hf8Ni2Ir2N
_symmetry_space_group_name_H-M   'P 1'
_cell_length_a   8.56391875
_cell_length_b   8.56391931
_cell_length_c   8.56391879
_cell_angle_alpha   120.12101112
_cell_angle_beta   119.92686696
_cell_angle_gamma   89.95862574
_symmetry_Int_Tables_number   1
_chemical_formula_structural   Hf8Ni2Ir2N
_chemical_formula_sum   'Hf16 Ni4 Ir4 N2'
_cell_volume   443.95994049
_cell_formula_units_Z   2
loop_
 _symmetry_equiv_pos_site_id
 _symmetry_equiv_pos_as_xyz
  1  'x, y, z'
loop_
 _atom_site_type_symbol
 _atom_site_label
 _atom_site_symmetry_multiplicity
 _atom_site_fract_x
 _atom_site_fract_y
 _atom_site_fract_z
 _atom_site_occupancy
  Hf  Hf0  1  0.93775944  0.18775944  0.75000000  1
  Hf  Hf1  1  0.32007180  0.57007180  0.75000000  1
  Hf  Hf2  1  0.93353486  0.56742453  0.75680611  1
  Hf  Hf3  1  0.31061843  0.17672875  0.74319389  1
  Hf  Hf4  1  0.93353486  0.17672875  0.36611032  1
  Hf  Hf5  1  0.31061843  0.56742453  0.13388968  1
  Hf  Hf6  1  0.05851676  0.80851676  0.25000000  1
  Hf  Hf7  1  0.68889061  0.43889061  0.25000000  1
  Hf  Hf8  1  0.05962561  0.43841803  0.24539221  1
  Hf  Hf9  1  0.69302582  0.81423340  0.25460779  1
  Hf  Hf10  1  0.05962561  0.81423340  0.62120758  1
  Hf  Hf11  1  0.69302582  0.43841803  0.87879242  1
  Hf  Hf12  1  0.48544003  0.01468086  0.02924083  1
  Hf  Hf13  1  0.48544003  0.45619821  0.47075917  1
  Hf  Hf14  1  0.48459441  0.01476496  0.46983046  1
  Hf  Hf15  1  0.04493450  0.01476496  0.03016954  1
  Ni  Ni0  1  0.27320502  0.23221545  0.45901043  1
  Ni  Ni1  1  0.27320502  0.81419458  0.04098957  1
  Ni  Ni2  1  0.27592536  0.22908573  0.04683964  1
  Ni  Ni3  1  0.68224509  0.22908573  0.45316036  1
  Ir  Ir0  1  0.70845371  0.78566153  0.57720882  1
  Ir  Ir1  1  0.70845371  0.13124489  0.92279118  1
  Ir  Ir2  1  0.70656969  0.79022873  0.91634096  1
  Ir  Ir3  1  0.37388877  0.79022873  0.58365904  1
  N  N0  1  0.99939981  0.49974309  0.00034328  1
  N  N1  1  0.99939981  0.99905553  0.49965672  1
loop_
_geom_bond_atom_site_label_1
_geom_bond_atom_site_label_2
_geom_bond_distance
_geom_bond_site_symmetry_2
Hf0 N0 2.266564 1_556
Hf0 N1 2.266566 1_545
Hf0 Ni2 2.593706 1_656
Hf0 Ni3 2.593709 1_555
Hf0 Ir1 3.146419 1_555
Hf0 Ir0 3.146427 1_545
Hf1 Ni1 2.551437 1_556
Hf1 Ni0 2.551437 1_555
Hf1 Ir2 3.024636 1_555
Hf1 Ir3 3.024639 1_555
Hf2 N0 2.245658 1_556
Hf2 Ni1 2.575634 1_656
Hf2 Ni3 2.579122 1_555
Hf2 Ir2 3.051773 1_555
Hf2 Ir0 3.081543 1_555
Hf3 N1 2.245660 1_445
Hf3 Ni0 2.575634 1_555
Hf3 Ni2 2.579119 1_556
Hf3 Ir3 3.051776 1_545
Hf3 Ir1 3.081551 1_555
Hf4 N1 2.245666 1_545
Hf4 Ni0 2.575634 1_655
Hf4 Ni3 2.579127 1_555
Hf4 Ir2 3.051773 1_544
Hf4 Ir1 3.081551 1_554
Hf5 N0 2.245658 1_455
Hf5 Ni1 2.575634 1_555
Hf5 Ni2 2.579119 1_555
Hf5 Ir3 3.051769 1_555
Hf5 Ir0 3.081551 1_555
Hf6 N1 2.251108 1_455
Hf6 N0 2.251110 1_455
Hf6 Ir2 2.869155 1_454
Hf6 Ir3 2.869159 1_555
Hf7 Ir0 2.807082 1_555
Hf7 Ir1 2.807087 1_554
Hf7 Ni2 3.081407 1_555
Hf7 Ni3 3.081409 1_555
Hf8 N0 2.229721 1_455
Hf8 Ir1 2.832700 1_454
Hf8 Ir3 2.860984 1_555
Hf8 Ni2 3.100799 1_555
Hf9 N1 2.229719 1_555
Hf9 Ir0 2.832705 1_555
Hf9 Ir2 2.860981 1_554
Hf9 Ni3 3.100801 1_565
Hf10 N1 2.229713 1_455
Hf10 Ir0 2.832700 1_455
Hf10 Ir3 2.860989 1_555
Hf10 Ni2 3.100799 1_566
Hf11 N0 2.229721 1_556
Hf11 Ir1 2.832700 1_555
Hf11 Ir2 2.860981 1_555
Hf11 Ni3 3.100794 1_555
Hf12 Ni2 2.569214 1_555
Hf12 Ni3 2.569214 1_555
Hf12 Ni1 2.573311 1_545
Hf12 Ir1 2.851054 1_554
Hf12 Ir2 2.858718 1_544
Hf12 Ir3 2.858721 1_544
Hf13 Ni3 2.569202 1_555
Hf13 Ni2 2.569213 1_555
Hf13 Ni0 2.573305 1_555
Hf13 Ir0 2.851054 1_555
Hf13 Ir2 2.858721 1_555
Hf13 Ir3 2.858721 1_555
Hf14 Ni0 2.598978 1_555
Hf14 Ni1 2.598984 1_545
Hf14 Ni3 2.600551 1_555
Hf14 Ir3 2.890126 1_545
Hf14 Ir1 2.901168 1_555
Hf14 Ir0 2.901180 1_545
Hf15 Ni0 2.598984 1_555
Hf15 Ni1 2.598984 1_545
Hf15 Ni2 2.600551 1_555
Hf15 Ir2 2.890135 1_444
Hf15 Ir0 2.901168 1_444
Hf15 Ir1 2.901168 1_454
Ir0 Ir3 2.893003 1_555
Ir0 Ir2 2.893008 1_555
Ir0 Ir1 2.954129 1_565
Ir1 Ir3 2.893008 1_545
Ir1 Ir2 2.893012 1_545
Ir2 Ir3 2.852205 1_555
