# generated using pymatgen
data_Cs2Pb(WO4)3
_symmetry_space_group_name_H-M   'P 1'
_cell_length_a   7.45431838
_cell_length_b   7.45431876
_cell_length_c   7.42747781
_cell_angle_alpha   59.89825601
_cell_angle_beta   59.89825487
_cell_angle_gamma   60.10940484
_symmetry_Int_Tables_number   1
_chemical_formula_structural   Cs2Pb(WO4)3
_chemical_formula_sum   'Cs2 Pb1 W3 O12'
_cell_volume   291.62808684
_cell_formula_units_Z   1
loop_
 _symmetry_equiv_pos_site_id
 _symmetry_equiv_pos_as_xyz
  1  'x, y, z'
loop_
 _atom_site_type_symbol
 _atom_site_label
 _atom_site_symmetry_multiplicity
 _atom_site_fract_x
 _atom_site_fract_y
 _atom_site_fract_z
 _atom_site_occupancy
  Cs  Cs0  1  0.88691248  0.86285264  0.87205112  1
  Cs  Cs1  1  0.13714736  0.11308752  0.12794888  1
  Pb  Pb0  1  0.48820344  0.51179656  1.00000000  1
  W  W0  1  0.52104598  0.97307701  0.48776410  1
  W  W1  1  0.02692299  0.47895402  0.51223590  1
  W  W2  1  0.52942340  0.47057660  0.50000000  1
  O  O0  1  0.19715298  0.19290708  0.54765421  1
  O  O1  1  0.56299062  0.58256426  0.19854736  1
  O  O2  1  0.56500658  0.16779376  0.19670718  1
  O  O3  1  0.19955495  0.55448635  0.55113519  1
  O  O4  1  0.14513088  0.57982357  0.20017185  1
  O  O5  1  0.56996547  0.19188111  0.54248822  1
  O  O6  1  0.80709292  0.80284702  0.45234579  1
  O  O7  1  0.41743574  0.43700938  0.80145264  1
  O  O8  1  0.42017643  0.85486912  0.79982815  1
  O  O9  1  0.80811889  0.43003453  0.45751178  1
  O  O10  1  0.83220624  0.43499342  0.80329282  1
  O  O11  1  0.44551365  0.80044505  0.44886481  1
loop_
_geom_bond_atom_site_label_1
_geom_bond_atom_site_label_2
_geom_bond_distance
_geom_bond_site_symmetry_2
Cs0 O4 3.097747 1_656
Cs0 O1 3.185753 1_556
Cs0 O3 3.313785 1_655
Cs0 O2 3.316243 1_566
Cs0 O0 3.367846 1_665
Cs0 O5 3.404814 1_565
Cs1 O8 3.097747 1_544
Cs1 O7 3.185753 1_554
Cs1 O11 3.313785 1_545
Cs1 O10 3.316243 1_454
Cs1 O6 3.367846 1_445
Cs1 O9 3.404814 1_455
O0 W1 1.816990 1_555
O0 W0 2.103098 1_545
O1 W2 1.882578 1_555
O1 Pb0 2.159153 1_554
O2 W0 1.871799 1_545
O2 Pb0 2.157730 1_554
O3 W1 1.820649 1_555
O3 W2 2.085772 1_555
O4 W1 1.891494 1_555
O4 Pb0 2.158144 1_554
O5 W2 1.821850 1_555
O5 W0 2.089245 1_545
O6 W0 1.816990 1_555
O6 W1 2.103098 1_655
O7 W2 1.882578 1_555
O7 Pb0 2.159153 1_555
O8 W0 1.891494 1_555
O8 Pb0 2.158144 1_555
O9 W2 1.821850 1_555
O9 W1 2.089245 1_655
O10 W1 1.871799 1_655
O10 Pb0 2.157730 1_555
O11 W0 1.820649 1_555
O11 W2 2.085772 1_555
