# generated using pymatgen
data_Y7Sn23(Os2Pt)2
_symmetry_space_group_name_H-M   'P 1'
_cell_length_a   9.87981180
_cell_length_b   9.87418606
_cell_length_c   10.02882069
_cell_angle_alpha   89.74061797
_cell_angle_beta   89.99999998
_cell_angle_gamma   120.01885538
_symmetry_Int_Tables_number   1
_chemical_formula_structural   Y7Sn23(Os2Pt)2
_chemical_formula_sum   'Y7 Sn23 Os4 Pt2'
_cell_volume   847.11426195
_cell_formula_units_Z   1
loop_
 _symmetry_equiv_pos_site_id
 _symmetry_equiv_pos_as_xyz
  1  'x, y, z'
loop_
 _atom_site_type_symbol
 _atom_site_label
 _atom_site_symmetry_multiplicity
 _atom_site_fract_x
 _atom_site_fract_y
 _atom_site_fract_z
 _atom_site_occupancy
  Y  Y0  1  0.00514551  0.01029202  0.00910821  1
  Y  Y1  1  0.03467306  0.51703574  0.30437825  1
  Y  Y2  1  0.48346700  0.96693399  0.30517705  1
  Y  Y3  1  0.48236268  0.51703574  0.30437825  1
  Y  Y4  1  0.96054015  0.47850797  0.69314490  1
  Y  Y5  1  0.51996736  0.03993573  0.69181971  1
  Y  Y6  1  0.51796681  0.47850797  0.69314490  1
  Sn  Sn0  1  0.99898555  0.99797110  0.50339429  1
  Sn  Sn1  1  0.11544472  0.88425696  0.28162273  1
  Sn  Sn2  1  0.76881125  0.88425696  0.28162273  1
  Sn  Sn3  1  0.11641889  0.23283878  0.28445008  1
  Sn  Sn4  1  0.88627111  0.11938337  0.71439705  1
  Sn  Sn5  1  0.23311326  0.11938337  0.71439705  1
  Sn  Sn6  1  0.88167642  0.76335184  0.71283903  1
  Sn  Sn7  1  0.35473323  0.00442443  0.00166719  1
  Sn  Sn8  1  0.64934205  0.64441522  0.00127769  1
  Sn  Sn9  1  0.00173069  0.35110728  0.00102810  1
  Sn  Sn10  1  0.34937559  0.35110728  0.00102810  1
  Sn  Sn11  1  0.99507317  0.64441522  0.00127769  1
  Sn  Sn12  1  0.64969120  0.00442443  0.00166719  1
  Sn  Sn13  1  0.77687376  0.55374951  0.45624602  1
  Sn  Sn14  1  0.77819033  0.22169537  0.45711451  1
  Sn  Sn15  1  0.44350404  0.22169537  0.45711451  1
  Sn  Sn16  1  0.22207991  0.44415882  0.54239835  1
  Sn  Sn17  1  0.22368725  0.77573921  0.53978128  1
  Sn  Sn18  1  0.55205296  0.77573921  0.53978128  1
  Sn  Sn19  1  0.66687574  0.33375047  0.17222393  1
  Sn  Sn20  1  0.32935389  0.65870879  0.82983487  1
  Sn  Sn21  1  0.66692668  0.33385236  0.87709114  1
  Sn  Sn22  1  0.33506762  0.67013624  0.12190295  1
  Os  Os0  1  0.16910122  0.33820145  0.80159724  1
  Os  Os1  1  0.83252017  0.16870437  0.20001875  1
  Os  Os2  1  0.33618419  0.16870437  0.20001875  1
  Os  Os3  1  0.83189487  0.66378873  0.20035070  1
  Pt  Pt0  1  0.17179049  0.83089567  0.80135426  1
  Pt  Pt1  1  0.65910518  0.83089567  0.80135426  1
loop_
_geom_bond_atom_site_label_1
_geom_bond_atom_site_label_2
_geom_bond_distance
_geom_bond_site_symmetry_2
Sn0 Sn6 2.896839 1_555
Sn0 Sn4 2.917878 1_565
Sn0 Sn5 2.917884 1_665
Sn0 Sn3 2.967735 1_665
Sn0 Sn1 2.974316 1_655
Sn0 Sn2 2.974321 1_555
Sn1 Sn17 3.180615 1_555
Sn1 Y1 3.306678 1_555
Sn1 Y2 3.312768 1_555
Sn1 Y0 3.395839 1_565
Sn2 Y3 3.306675 1_555
Sn2 Y2 3.312759 1_555
Sn2 Y0 3.395838 1_665
Sn3 Y1 3.292387 1_555
Sn3 Y3 3.292393 1_555
Sn3 Y0 3.361591 1_555
Sn4 Y4 3.247784 1_555
Sn4 Y5 3.305279 1_555
Sn4 Sn5 3.426735 1_655
Sn4 Sn6 3.493139 1_545
Sn4 Sn9 3.499677 1_656
Sn4 Y0 3.537272 1_656
Sn5 Y6 3.247777 1_555
Sn5 Y5 3.305260 1_555
Sn5 Sn6 3.493138 1_445
Sn5 Sn7 3.516742 1_556
Sn5 Y0 3.537281 1_556
Sn6 Y4 3.279416 1_555
Sn6 Y6 3.279428 1_555
Sn6 Y0 3.653931 1_666
Sn7 Y2 3.388300 1_545
Sn7 Y5 3.444024 1_554
Sn7 Y0 3.484012 1_555
Sn8 Y3 3.381247 1_555
Sn8 Y6 3.440362 1_554
Sn8 Y0 3.565213 1_665
Sn9 Y0 3.382884 1_555
Sn9 Y1 3.399580 1_555
Sn9 Y4 3.429156 1_454
Sn10 Sn8 2.929654 1_555
Sn10 Y0 3.382883 1_555
Sn10 Y3 3.399581 1_555
Sn10 Y6 3.429156 1_554
Sn10 Sn22 3.448634 1_555
Sn10 Sn21 3.457401 1_554
Sn10 Sn5 3.499676 1_554
Sn11 Sn9 2.929649 1_655
Sn11 Y1 3.381247 1_655
Sn11 Sn21 3.398924 1_554
Sn11 Y4 3.440361 1_554
Sn11 Sn22 3.458403 1_655
Sn11 Y0 3.565218 1_665
Sn12 Sn7 2.914129 1_555
Sn12 Y2 3.388300 1_545
Sn12 Sn21 3.402908 1_554
Sn12 Sn22 3.421914 1_545
Sn12 Y5 3.444028 1_554
Sn12 Y0 3.484003 1_655
Sn12 Sn4 3.516747 1_554
Sn13 Y3 3.141198 1_555
Sn13 Y1 3.141215 1_655
Sn13 Sn6 3.143501 1_555
Sn13 Sn15 3.285258 1_555
Sn13 Sn14 3.285263 1_555
Sn13 Y6 3.289696 1_555
Sn13 Y4 3.289703 1_555
Sn13 Sn19 3.421593 1_555
Sn14 Y2 3.135954 1_545
Sn14 Y1 3.136483 1_655
Sn14 Sn4 3.142332 1_555
Sn14 Y5 3.263516 1_555
Sn14 Y4 3.280627 1_555
Sn14 Sn15 3.306638 1_555
Sn14 Sn19 3.433038 1_555
Sn15 Y2 3.135960 1_545
Sn15 Y3 3.136480 1_555
Sn15 Sn5 3.142322 1_555
Sn15 Y5 3.263516 1_555
Sn15 Y6 3.280627 1_555
Sn15 Sn19 3.433048 1_555
Sn16 Y6 3.155774 1_555
Sn16 Y4 3.155791 1_455
Sn16 Sn3 3.163106 1_555
Sn16 Sn18 3.266157 1_555
Sn16 Sn17 3.266157 1_555
Sn16 Y3 3.310836 1_555
Sn16 Y1 3.310843 1_555
Sn17 Y4 3.172223 1_455
Sn17 Y5 3.177143 1_565
Sn17 Sn18 3.244191 1_555
Sn17 Y2 3.286143 1_555
Sn17 Y1 3.296619 1_555
Sn18 Y6 3.172216 1_555
Sn18 Y5 3.177153 1_565
Sn18 Sn2 3.180605 1_555
Sn18 Y2 3.286148 1_555
Sn18 Y3 3.296617 1_555
Sn19 Sn21 2.959829 1_554
Sn19 Y2 3.401416 1_545
Sn19 Y1 3.417277 1_655
Sn19 Y3 3.417285 1_555
Sn20 Sn22 2.931238 1_556
Sn20 Y4 3.443460 1_455
Sn20 Y6 3.443460 1_555
Sn20 Y5 3.534416 1_565
Sn21 Y4 3.112652 1_555
Sn21 Y6 3.112666 1_555
Sn21 Y5 3.133019 1_555
Sn21 Sn8 3.398930 1_556
Sn21 Sn7 3.402912 1_556
Sn21 Sn9 3.457383 1_656
Sn22 Y2 3.141039 1_555
Sn22 Y1 3.150901 1_555
Sn22 Y3 3.150908 1_555
Sn22 Sn7 3.421910 1_565
Sn22 Sn9 3.448634 1_555
Sn22 Sn8 3.458412 1_555
Os0 Sn10 2.638922 1_556
Os0 Sn9 2.638935 1_556
Os0 Sn4 2.686539 1_455
Os0 Sn5 2.686539 1_555
Os0 Sn16 2.748312 1_555
Os0 Sn20 2.756299 1_555
Os0 Y6 3.192298 1_555
Os0 Y4 3.192316 1_455
Os0 Y0 3.482763 1_556
Os1 Sn12 2.636019 1_555
Os1 Sn9 2.641219 1_655
Os1 Sn2 2.676747 1_545
Os1 Sn3 2.685681 1_655
Os1 Sn14 2.739182 1_555
Os1 Sn19 2.841887 1_555
Os1 Y1 3.173896 1_655
Os1 Y2 3.175002 1_545
Os1 Y0 3.423090 1_655
Os2 Sn7 2.636019 1_555
Os2 Sn10 2.641222 1_555
Os2 Sn1 2.676749 1_545
Os2 Sn3 2.685690 1_555
Os2 Sn15 2.739179 1_555
Os2 Sn19 2.841895 1_555
Os2 Y3 3.173896 1_555
Os2 Y2 3.175002 1_545
Os2 Y0 3.423097 1_555
Os3 Sn11 2.633175 1_555
Os3 Sn8 2.633181 1_555
Os3 Sn1 2.676830 1_655
Os3 Sn2 2.676843 1_555
Os3 Sn13 2.728717 1_555
Os3 Sn19 2.837250 1_555
Os3 Y1 3.176934 1_655
Os3 Y3 3.176942 1_555
Os3 Y0 3.520711 1_665
Pt0 Sn7 2.677852 1_566
Pt0 Sn11 2.684905 1_456
Pt0 Sn5 2.737278 1_565
Pt0 Sn6 2.746085 1_455
Pt0 Sn17 2.780897 1_555
Pt0 Sn20 2.835384 1_555
Pt0 Y5 3.189884 1_565
Pt0 Y4 3.226266 1_455
Pt0 Y0 3.625073 1_566
Pt1 Sn12 2.677852 1_566
Pt1 Sn8 2.684905 1_556
Pt1 Sn4 2.737280 1_565
Pt1 Sn6 2.746094 1_555
Pt1 Sn18 2.780894 1_555
Pt1 Sn20 2.835392 1_555
Pt1 Y5 3.189892 1_565
Pt1 Y6 3.226265 1_555
Pt1 Y0 3.625066 1_666
