# generated using pymatgen
data_SrLiPrTeO6
_symmetry_space_group_name_H-M   'P 1'
_cell_length_a   5.65132603
_cell_length_b   5.65132603
_cell_length_c   5.70785016
_cell_angle_alpha   59.99687657
_cell_angle_beta   59.99687657
_cell_angle_gamma   59.59997938
_symmetry_Int_Tables_number   1
_chemical_formula_structural   SrLiPrTeO6
_chemical_formula_sum   'Sr1 Li1 Pr1 Te1 O6'
_cell_volume   128.50136728
_cell_formula_units_Z   1
loop_
 _symmetry_equiv_pos_site_id
 _symmetry_equiv_pos_as_xyz
  1  'x, y, z'
loop_
 _atom_site_type_symbol
 _atom_site_label
 _atom_site_symmetry_multiplicity
 _atom_site_fract_x
 _atom_site_fract_y
 _atom_site_fract_z
 _atom_site_occupancy
  Sr  Sr0  1  0.75063800  0.75063800  0.24477900  1
  Li  Li0  1  0.99920200  0.99920200  0.50466500  1
  Pr  Pr0  1  0.25131700  0.25131700  0.76370300  1
  Te  Te0  1  0.50101300  0.50101300  0.99820400  1
  O  O0  1  0.73664300  0.73664300  0.69144800  1
  O  O1  1  0.68762300  0.21860600  0.80321300  1
  O  O2  1  0.79458500  0.29441700  0.18207900  1
  O  O3  1  0.29441700  0.79458500  0.18207900  1
  O  O4  1  0.21860600  0.68762300  0.80321300  1
  O  O5  1  0.26595700  0.26595700  0.32661400  1
loop_
_geom_bond_atom_site_label_1
_geom_bond_atom_site_label_2
_geom_bond_distance
_geom_bond_site_symmetry_2
Li0 O4 2.108173 1_655
Li0 O1 2.108173 1_565
Li0 O0 2.145714 1_555
Li0 O2 2.148381 1_565
Li0 O3 2.148381 1_655
Li0 O5 2.194009 1_665
O0 Te0 1.934736 1_555
O0 Sr0 2.472968 1_555
O1 Te0 1.948643 1_555
O1 Pr0 2.493562 1_555
O1 Sr0 2.598390 1_546
O2 Te0 1.942344 1_554
O2 Pr0 2.491045 1_654
O2 Sr0 2.650094 1_555
O3 Te0 1.942344 1_554
O3 Pr0 2.491045 1_564
O3 Sr0 2.650094 1_555
O4 Te0 1.948643 1_555
O4 Pr0 2.493562 1_555
O4 Sr0 2.598390 1_456
O5 Te0 1.961700 1_554
O5 Pr0 2.414948 1_555
