# generated using pymatgen
data_Ba3Cr3(Ga2O5)4
_symmetry_space_group_name_H-M   'P 1'
_cell_length_a   9.90282369
_cell_length_b   9.90281589
_cell_length_c   5.12353256
_cell_angle_alpha   75.77640805
_cell_angle_beta   75.77675308
_cell_angle_gamma   72.58024981
_symmetry_Int_Tables_number   1
_chemical_formula_structural   Ba3Cr3(Ga2O5)4
_chemical_formula_sum   'Ba3 Cr3 Ga8 O20'
_cell_volume   456.58359156
_cell_formula_units_Z   1
loop_
 _symmetry_equiv_pos_site_id
 _symmetry_equiv_pos_as_xyz
  1  'x, y, z'
loop_
 _atom_site_type_symbol
 _atom_site_label
 _atom_site_symmetry_multiplicity
 _atom_site_fract_x
 _atom_site_fract_y
 _atom_site_fract_z
 _atom_site_occupancy
  Ba  Ba0  1  0.21970720  0.21970820  0.25145124  1
  Ba  Ba1  1  0.78029280  0.78029180  0.74854876  1
  Ba  Ba2  1  0.50000000  0.50000000  0.00000000  1
  Cr  Cr0  1  0.12838042  0.87161858  0.50000000  1
  Cr  Cr1  1  0.87161958  0.12838142  0.50000000  1
  Cr  Cr2  1  0.00000000  0.00000000  0.00000000  1
  Ga  Ga0  1  0.34853133  0.92480934  0.83605998  1
  Ga  Ga1  1  0.65146867  0.07519066  0.16394002  1
  Ga  Ga2  1  0.07518866  0.65146467  0.16394202  1
  Ga  Ga3  1  0.92481134  0.34853533  0.83605798  1
  Ga  Ga4  1  0.49323135  0.21546320  0.65786450  1
  Ga  Ga5  1  0.50676865  0.78453680  0.34213550  1
  Ga  Ga6  1  0.78453480  0.50676565  0.34213750  1
  Ga  Ga7  1  0.21546520  0.49323435  0.65786250  1
  O  O0  1  0.49371453  0.78759873  0.98723185  1
  O  O1  1  0.50628547  0.21240127  0.01276815  1
  O  O2  1  0.21240327  0.50628547  0.01276715  1
  O  O3  1  0.78759673  0.49371453  0.98723285  1
  O  O4  1  0.37257521  0.10357129  0.67546184  1
  O  O5  1  0.62742479  0.89642871  0.32453816  1
  O  O6  1  0.89642671  0.62742179  0.32453916  1
  O  O7  1  0.10357329  0.37257821  0.67546084  1
  O  O8  1  0.06255916  0.06255916  0.60919599  1
  O  O9  1  0.93744084  0.93744084  0.39080401  1
  O  O10  1  0.67285647  0.16024387  0.43431698  1
  O  O11  1  0.32714353  0.83975613  0.56568302  1
  O  O12  1  0.83975613  0.32714253  0.56568602  1
  O  O13  1  0.16024387  0.67285747  0.43431398  1
  O  O14  1  0.18508158  0.95298105  0.10939595  1
  O  O15  1  0.81491842  0.04701895  0.89060405  1
  O  O16  1  0.04701895  0.81491742  0.89060405  1
  O  O17  1  0.95298105  0.18508258  0.10939595  1
  O  O18  1  0.40122121  0.40122121  0.52355027  1
  O  O19  1  0.59877879  0.59877879  0.47644973  1
loop_
_geom_bond_atom_site_label_1
_geom_bond_atom_site_label_2
_geom_bond_distance
_geom_bond_site_symmetry_2
Ba0 O8 2.617217 1_555
Ba0 O4 2.771223 1_555
Ba0 O7 2.771241 1_555
Ba0 O2 2.787408 1_555
Ba0 O1 2.787420 1_555
Ba0 O17 3.038683 1_455
Ba0 O14 3.038693 1_545
Ba0 O7 3.279230 1_554
Ba0 O4 3.279250 1_554
Ba1 O9 2.617217 1_555
Ba1 O5 2.771223 1_555
Ba1 O6 2.771241 1_555
Ba1 O3 2.787408 1_555
Ba1 O0 2.787420 1_555
Ba1 O16 3.038683 1_655
Ba1 O15 3.038693 1_565
Ba1 O6 3.279230 1_556
Ba1 O5 3.279250 1_556
Ba2 O19 2.665183 1_554
Ba2 O18 2.665183 1_555
Ba2 O3 2.814904 1_554
Ba2 O2 2.814904 1_555
Ba2 O0 2.814920 1_554
Ba2 O1 2.814920 1_555
Cr0 O16 1.973791 1_555
Cr0 O14 1.973791 1_555
Cr0 O9 1.978850 1_455
Cr0 O8 1.978862 1_565
Cr0 O13 1.997120 1_555
Cr0 O11 1.997135 1_555
Cr1 O17 1.973791 1_555
Cr1 O15 1.973791 1_555
Cr1 O8 1.978850 1_655
Cr1 O9 1.978862 1_545
Cr1 O12 1.997120 1_555
Cr1 O10 1.997135 1_555
Cr2 O14 1.937994 1_545
Cr2 O15 1.937994 1_454
Cr2 O17 1.938006 1_455
Cr2 O16 1.938006 1_544
Cr2 O8 1.946137 1_554
Cr2 O9 1.946137 1_445
Ga0 O4 1.818739 1_565
Ga0 O0 1.836733 1_555
Ga0 O14 1.861912 1_556
Ga0 O11 1.870199 1_555
Ga1 O5 1.818739 1_545
Ga1 O1 1.836733 1_555
Ga1 O15 1.861912 1_554
Ga1 O10 1.870199 1_555
Ga2 O6 1.818740 1_455
Ga2 O2 1.836736 1_555
Ga2 O16 1.861926 1_554
Ga2 O13 1.870209 1_555
Ga3 O7 1.818740 1_655
Ga3 O3 1.836736 1_555
Ga3 O17 1.861926 1_556
Ga3 O12 1.870209 1_555
Ga4 O4 1.831444 1_555
Ga4 O18 1.835793 1_555
Ga4 O1 1.846655 1_556
Ga4 O10 1.870614 1_555
Ga5 O5 1.831444 1_555
Ga5 O19 1.835793 1_555
Ga5 O0 1.846655 1_554
Ga5 O11 1.870614 1_555
Ga6 O6 1.831443 1_555
Ga6 O19 1.835791 1_555
Ga6 O3 1.846652 1_554
Ga6 O12 1.870597 1_555
Ga7 O7 1.831443 1_555
Ga7 O18 1.835791 1_555
Ga7 O2 1.846652 1_556
Ga7 O13 1.870597 1_555
