# generated using pymatgen
data_K6B10Pt17Rh
_symmetry_space_group_name_H-M   'P 1'
_cell_length_a   6.48709094
_cell_length_b   6.48709030
_cell_length_c   15.26431381
_cell_angle_alpha   90.62771892
_cell_angle_beta   89.37228009
_cell_angle_gamma   127.80897644
_symmetry_Int_Tables_number   1
_chemical_formula_structural   K6B10Pt17Rh
_chemical_formula_sum   'K6 B10 Pt17 Rh1'
_cell_volume   507.46303298
_cell_formula_units_Z   1
loop_
 _symmetry_equiv_pos_site_id
 _symmetry_equiv_pos_as_xyz
  1  'x, y, z'
loop_
 _atom_site_type_symbol
 _atom_site_label
 _atom_site_symmetry_multiplicity
 _atom_site_fract_x
 _atom_site_fract_y
 _atom_site_fract_z
 _atom_site_occupancy
  K  K0  1  0.32933411  0.67066589  0.75161004  1
  K  K1  1  0.67066589  0.32933411  0.24838996  1
  K  K2  1  0.55650747  0.44349253  0.08443356  1
  K  K3  1  0.44349253  0.55650747  0.91556644  1
  K  K4  1  0.44247663  0.55752337  0.58590365  1
  K  K5  1  0.55752337  0.44247663  0.41409635  1
  B  B0  1  0.94084580  0.05915420  0.14336232  1
  B  B1  1  0.05915420  0.94084580  0.85663768  1
  B  B2  1  0.05594411  0.94405589  0.64889056  1
  B  B3  1  0.94405589  0.05594411  0.35110944  1
  B  B4  1  0.18592058  0.81407942  0.02803851  1
  B  B5  1  0.81407942  0.18592058  0.97196149  1
  B  B6  1  0.80979805  0.19020195  0.52870010  1
  B  B7  1  0.19020195  0.80979805  0.47129990  1
  B  B8  1  0.73162476  0.26837524  0.75264378  1
  B  B9  1  0.26837524  0.73162476  0.24735622  1
  Pt  Pt0  1  0.00000000  0.00000000  0.50000000  1
  Pt  Pt1  1  0.65184105  0.84638247  0.24860395  1
  Pt  Pt2  1  0.84638247  0.65184105  0.75139605  1
  Pt  Pt3  1  0.34815895  0.15361753  0.75139605  1
  Pt  Pt4  1  0.15361753  0.34815895  0.24860395  1
  Pt  Pt5  1  0.12232811  0.87767189  0.15650125  1
  Pt  Pt6  1  0.87767189  0.12232811  0.84349875  1
  Pt  Pt7  1  0.87435369  0.12564631  0.65652133  1
  Pt  Pt8  1  0.12564631  0.87435369  0.34347867  1
  Pt  Pt9  1  0.56680656  0.94175268  0.07805706  1
  Pt  Pt10  1  0.94175268  0.56680656  0.92194294  1
  Pt  Pt11  1  0.43001984  0.05773275  0.57846673  1
  Pt  Pt12  1  0.05773275  0.43001984  0.42153327  1
  Pt  Pt13  1  0.43319344  0.05824732  0.92194294  1
  Pt  Pt14  1  0.05824732  0.43319344  0.07805706  1
  Pt  Pt15  1  0.56998016  0.94226725  0.42153327  1
  Pt  Pt16  1  0.94226725  0.56998016  0.57846673  1
  Rh  Rh0  1  0.00000000  0.00000000  0.00000000  1
loop_
_geom_bond_atom_site_label_1
_geom_bond_atom_site_label_2
_geom_bond_distance
_geom_bond_site_symmetry_2
K0 K4 2.838024 1_555
K0 K3 2.848488 1_555
K0 Pt3 3.059647 1_565
K0 Pt2 3.059647 1_455
K0 Pt6 3.232044 1_455
K0 Pt6 3.232044 1_565
K0 Pt7 3.241236 1_455
K0 Pt7 3.241236 1_565
K0 Pt13 3.369542 1_565
K0 Pt10 3.369542 1_455
K0 Pt3 3.430324 1_555
K0 Pt2 3.430325 1_555
K0 Pt11 3.437035 1_565
K0 Pt16 3.437035 1_455
K1 K5 2.838024 1_555
K1 K2 2.848488 1_555
K1 Pt1 3.059647 1_545
K1 Pt4 3.059647 1_655
K1 Pt5 3.232044 1_655
K1 Pt5 3.232044 1_545
K1 Pt8 3.241236 1_655
K1 Pt8 3.241236 1_545
K1 Pt9 3.369542 1_545
K1 Pt14 3.369542 1_655
K1 Pt1 3.430324 1_555
K1 Pt4 3.430325 1_555
K1 Pt15 3.437035 1_545
K1 Pt12 3.437035 1_655
K2 K3 2.908784 1_554
K2 Pt5 3.156132 1_545
K2 Pt5 3.156132 1_655
K2 Pt9 3.194278 1_555
K2 Pt14 3.194279 1_555
K2 Rh0 3.202740 1_665
K2 Rh0 3.202740 1_555
K2 Pt13 3.239444 1_554
K2 Pt10 3.239445 1_554
K2 Pt9 3.296574 1_545
K2 Pt14 3.296574 1_655
K2 Pt1 3.376652 1_555
K2 Pt4 3.376652 1_555
K3 Pt6 3.156132 1_565
K3 Pt6 3.156132 1_455
K3 Pt13 3.194278 1_555
K3 Pt10 3.194279 1_555
K3 Rh0 3.202740 1_556
K3 Rh0 3.202740 1_666
K3 Pt9 3.239444 1_556
K3 Pt14 3.239445 1_556
K3 Pt13 3.296574 1_565
K3 Pt10 3.296574 1_455
K3 Pt3 3.376652 1_555
K3 Pt2 3.376652 1_555
K4 K5 2.930654 1_555
K4 Pt7 3.148551 1_565
K4 Pt7 3.148551 1_455
K4 Pt11 3.194074 1_555
K4 Pt16 3.194074 1_555
K4 Pt0 3.207720 1_555
K4 Pt0 3.207720 1_665
K4 Pt15 3.281652 1_555
K4 Pt12 3.281652 1_555
K4 Pt11 3.298269 1_565
K4 Pt16 3.298269 1_455
K4 Pt3 3.430247 1_555
K4 Pt2 3.430247 1_555
K5 Pt8 3.148551 1_545
K5 Pt8 3.148551 1_655
K5 Pt15 3.194074 1_555
K5 Pt12 3.194074 1_555
K5 Pt0 3.207720 1_665
K5 Pt0 3.207720 1_555
K5 Pt11 3.281652 1_555
K5 Pt16 3.281652 1_555
K5 Pt15 3.298269 1_545
K5 Pt12 3.298269 1_655
K5 Pt1 3.430247 1_555
K5 Pt4 3.430247 1_555
B0 Pt5 2.126487 1_645
B0 Pt4 2.193297 1_655
B0 Pt1 2.193297 1_545
B0 Rh0 2.286270 1_655
B0 Pt14 2.287339 1_655
B0 Pt9 2.287339 1_545
B0 K2 3.276884 1_545
B0 K2 3.276884 1_655
B1 Pt6 2.126487 1_465
B1 Pt2 2.193297 1_455
B1 Pt3 2.193297 1_565
B1 Rh0 2.286270 1_566
B1 Pt10 2.287339 1_455
B1 Pt13 2.287339 1_565
B1 K3 3.276884 1_565
B1 K3 3.276884 1_455
B2 Pt7 2.117607 1_465
B2 Pt2 2.179109 1_455
B2 Pt3 2.179109 1_565
B2 Pt16 2.313923 1_455
B2 Pt11 2.313923 1_565
B2 Pt0 2.371974 1_565
B2 K4 3.293263 1_565
B2 K4 3.293263 1_455
B3 Pt8 2.117607 1_645
B3 Pt4 2.179109 1_655
B3 Pt1 2.179109 1_545
B3 Pt12 2.313923 1_655
B3 Pt15 2.313923 1_545
B3 Pt0 2.371974 1_655
B3 K5 3.293263 1_545
B3 K5 3.293263 1_655
B4 Pt5 2.087744 1_555
B4 Pt13 2.142146 1_564
B4 Pt10 2.142147 1_454
B4 Pt14 2.211875 1_555
B4 Pt9 2.211876 1_555
B4 Rh0 2.213266 1_565
B4 K2 3.335465 1_565
B4 K2 3.335465 1_455
B4 K3 3.439260 1_554
B5 Pt6 2.087744 1_555
B5 Pt9 2.142146 1_546
B5 Pt14 2.142147 1_656
B5 Pt10 2.211875 1_555
B5 Pt13 2.211876 1_555
B5 Rh0 2.213266 1_656
B5 K3 3.335465 1_545
B5 K3 3.335465 1_655
B5 K2 3.439260 1_556
B6 Pt7 2.099615 1_555
B6 Pt12 2.147872 1_655
B6 Pt15 2.147872 1_545
B6 Pt16 2.182365 1_555
B6 Pt11 2.182365 1_555
B6 Pt0 2.253797 1_655
B6 K4 3.365638 1_545
B6 K4 3.365638 1_655
B6 K5 3.438866 1_555
B7 Pt8 2.099615 1_555
B7 Pt16 2.147872 1_455
B7 Pt11 2.147872 1_565
B7 Pt12 2.182365 1_555
B7 Pt15 2.182365 1_555
B7 Pt0 2.253797 1_565
B7 K5 3.365638 1_565
B7 K5 3.365638 1_455
B7 K4 3.438866 1_555
B8 Pt2 2.114907 1_555
B8 Pt3 2.114907 1_555
B8 Pt7 2.204295 1_555
B8 Pt6 2.208310 1_555
B8 K0 3.072168 1_545
B8 K0 3.072168 1_655
B9 Pt4 2.114907 1_555
B9 Pt1 2.114907 1_555
B9 Pt8 2.204295 1_555
B9 Pt5 2.208310 1_555
B9 K1 3.072168 1_565
B9 K1 3.072168 1_455
