# generated using pymatgen
data_K2Si2Hg3S8
_symmetry_space_group_name_H-M   'P 1'
_cell_length_a   6.35823624
_cell_length_b   9.75108309
_cell_length_c   12.89039271
_cell_angle_alpha   84.76404285
_cell_angle_beta   90.00000000
_cell_angle_gamma   90.00000000
_symmetry_Int_Tables_number   1
_chemical_formula_structural   K2Si2Hg3S8
_chemical_formula_sum   'K4 Si4 Hg6 S16'
_cell_volume   795.86554664
_cell_formula_units_Z   2
loop_
 _symmetry_equiv_pos_site_id
 _symmetry_equiv_pos_as_xyz
  1  'x, y, z'
loop_
 _atom_site_type_symbol
 _atom_site_label
 _atom_site_symmetry_multiplicity
 _atom_site_fract_x
 _atom_site_fract_y
 _atom_site_fract_z
 _atom_site_occupancy
  K  K0  1  0.15576540  0.22598539  0.67708138  1
  K  K1  1  0.84423460  0.77401461  0.32291862  1
  K  K2  1  0.65576540  0.77401461  0.82291862  1
  K  K3  1  0.34423460  0.22598539  0.17708138  1
  Si  Si0  1  0.19541328  0.72105854  0.58347733  1
  Si  Si1  1  0.80458672  0.27894146  0.41652267  1
  Si  Si2  1  0.69541328  0.27894146  0.91652267  1
  Si  Si3  1  0.30458672  0.72105854  0.08347733  1
  Hg  Hg0  1  0.21986125  0.49103488  0.89080987  1
  Hg  Hg1  1  0.78013875  0.50896512  0.10919013  1
  Hg  Hg2  1  0.71986125  0.50896512  0.60919013  1
  Hg  Hg3  1  0.28013875  0.49103488  0.39080987  1
  Hg  Hg4  1  0.50000000  0.00000000  0.50000000  1
  Hg  Hg5  1  0.00000000  0.00000000  0.00000000  1
  S  S0  1  0.86075322  0.74193951  0.59019459  1
  S  S1  1  0.13924678  0.25806049  0.40980541  1
  S  S2  1  0.36075322  0.25806049  0.90980541  1
  S  S3  1  0.63924678  0.74193951  0.09019459  1
  S  S4  1  0.30802654  0.54345052  0.66826609  1
  S  S5  1  0.69197346  0.45654948  0.33173391  1
  S  S6  1  0.80802654  0.45654948  0.83173391  1
  S  S7  1  0.19197346  0.54345052  0.16826609  1
  S  S8  1  0.30499319  0.90767074  0.64598796  1
  S  S9  1  0.69500681  0.09232926  0.35401204  1
  S  S10  1  0.80499319  0.09232926  0.85401204  1
  S  S11  1  0.19500681  0.90767074  0.14598796  1
  S  S12  1  0.19577232  0.73310813  0.92575674  1
  S  S13  1  0.80422768  0.26689187  0.07424326  1
  S  S14  1  0.69577232  0.26689187  0.57424326  1
  S  S15  1  0.30422768  0.73310813  0.42575674  1
loop_
_geom_bond_atom_site_label_1
_geom_bond_atom_site_label_2
_geom_bond_distance
_geom_bond_site_symmetry_2
K0 S14 3.220871 1_455
K0 S4 3.235563 1_555
K0 S8 3.304883 1_545
K0 S2 3.311683 1_555
K0 S10 3.366286 1_455
K0 S1 3.432524 1_555
K0 S14 3.689003 1_555
K1 S15 3.220871 1_655
K1 S5 3.235563 1_555
K1 S9 3.304883 1_565
K1 S3 3.311683 1_555
K1 S11 3.366286 1_655
K1 S0 3.432524 1_555
K1 S15 3.689003 1_555
K2 S12 3.220871 1_555
K2 S6 3.235563 1_555
K2 S10 3.304883 1_565
K2 S0 3.311683 1_555
K2 S8 3.366286 1_555
K2 S3 3.432524 1_556
K2 S12 3.689003 1_655
K3 S13 3.220871 1_555
K3 S7 3.235563 1_555
K3 S11 3.304883 1_545
K3 S1 3.311683 1_555
K3 S9 3.366286 1_555
K3 S2 3.432524 1_554
K3 S13 3.689003 1_455
Hg0 S2 2.433473 1_555
Hg0 S12 2.447921 1_555
Hg0 S6 2.756171 1_455
Hg0 S4 2.921845 1_555
Hg1 S3 2.433473 1_555
Hg1 S13 2.447921 1_555
Hg1 S7 2.756171 1_655
Hg1 S5 2.921845 1_555
Hg2 S0 2.433473 1_555
Hg2 S14 2.447921 1_555
Hg2 S4 2.756171 1_555
Hg2 S6 2.921845 1_555
Hg3 S1 2.433473 1_555
Hg3 S15 2.447921 1_555
Hg3 S5 2.756171 1_555
Hg3 S7 2.921845 1_555
Hg4 S8 2.362205 1_545
Hg4 S9 2.362205 1_555
Hg4 S14 3.113334 1_555
Hg4 S15 3.113334 1_545
Hg5 S11 2.362205 1_545
Hg5 S10 2.362205 1_454
Hg5 S13 3.113334 1_455
Hg5 S12 3.113334 1_544
S0 Si0 2.140072 1_655
S1 Si1 2.140072 1_455
S2 Si2 2.140072 1_555
S3 Si3 2.140072 1_555
S4 Si0 2.088336 1_555
S5 Si1 2.088336 1_555
S6 Si2 2.088336 1_555
S7 Si3 2.088336 1_555
S8 Si0 2.171071 1_555
S9 Si1 2.171071 1_555
S10 Si2 2.171071 1_555
S11 Si3 2.171071 1_555
S12 Si3 2.140631 1_556
S13 Si2 2.140631 1_554
S14 Si1 2.140631 1_555
S15 Si0 2.140631 1_555
