# generated using pymatgen
data_Ba8Ta3SbO18
_symmetry_space_group_name_H-M   'P 1'
_cell_length_a   6.12329778
_cell_length_b   6.12331079
_cell_length_c   16.59457645
_cell_angle_alpha   90.00015640
_cell_angle_beta   89.99970974
_cell_angle_gamma   119.99995635
_symmetry_Int_Tables_number   1
_chemical_formula_structural   Ba8Ta3SbO18
_chemical_formula_sum   'Ba8 Ta3 Sb1 O18'
_cell_volume   538.85098013
_cell_formula_units_Z   1
loop_
 _symmetry_equiv_pos_site_id
 _symmetry_equiv_pos_as_xyz
  1  'x, y, z'
loop_
 _atom_site_type_symbol
 _atom_site_label
 _atom_site_symmetry_multiplicity
 _atom_site_fract_x
 _atom_site_fract_y
 _atom_site_fract_z
 _atom_site_occupancy
  Ba  Ba0  1  0.00000269  0.00000150  0.74860188  1
  Ba  Ba1  1  0.99999734  0.99999935  0.25658503  1
  Ba  Ba2  1  0.66667310  0.33333586  0.63064541  1
  Ba  Ba3  1  0.33333096  0.66666532  0.13595077  1
  Ba  Ba4  1  0.33333178  0.66666694  0.37461775  1
  Ba  Ba5  1  0.66666689  0.33333437  0.86499783  1
  Ba  Ba6  1  0.00000329  0.00000291  0.49924391  1
  Ba  Ba7  1  0.99999768  0.99999887  0.99880169  1
  Ta  Ta0  1  0.33333442  0.66666696  0.83982405  1
  Ta  Ta1  1  0.33333769  0.66666817  0.65955998  1
  Ta  Ta2  1  0.66666303  0.33333202  0.15722776  1
  Sb  Sb0  1  0.66666506  0.33333335  0.33617745  1
  O  O0  1  0.52404775  0.95362898  0.74965722  1
  O  O1  1  0.04637433  0.57041763  0.74965721  1
  O  O2  1  0.42958666  0.47595615  0.74965730  1
  O  O3  1  0.47993471  0.04792406  0.25072545  1
  O  O4  1  0.95207306  0.43201137  0.25072552  1
  O  O5  1  0.56798364  0.52006204  0.25072631  1
  O  O6  1  0.11157518  0.35667369  0.60818794  1
  O  O7  1  0.64332856  0.75489314  0.60818720  1
  O  O8  1  0.24510618  0.88842939  0.60818733  1
  O  O9  1  0.89125561  0.64247138  0.10766181  1
  O  O10  1  0.35752633  0.24878515  0.10766155  1
  O  O11  1  0.75121311  0.10874234  0.10766153  1
  O  O12  1  0.88318799  0.64745255  0.39174189  1
  O  O13  1  0.35254274  0.23573622  0.39174178  1
  O  O14  1  0.76426028  0.11680900  0.39174184  1
  O  O15  1  0.11071146  0.35676262  0.89128252  1
  O  O16  1  0.64323748  0.75394794  0.89128256  1
  O  O17  1  0.24605198  0.88928974  0.89128251  1
loop_
_geom_bond_atom_site_label_1
_geom_bond_atom_site_label_2
_geom_bond_distance
_geom_bond_site_symmetry_2
Ba0 O0 2.783377 1_445
Ba0 O2 2.783385 1_555
Ba0 O1 2.783388 1_545
Ba0 O6 3.028860 1_555
Ba0 O8 3.028870 1_545
Ba0 O7 3.028884 1_445
Ba0 O15 3.058928 1_555
Ba0 O17 3.058932 1_545
Ba0 O16 3.058936 1_445
Ba1 O3 2.805298 1_665
Ba1 O4 2.805299 1_565
Ba1 O5 2.805307 1_555
Ba1 O14 2.942474 1_565
Ba1 O13 2.942482 1_665
Ba1 O12 2.942487 1_555
Ba1 O9 3.144181 1_555
Ba1 O10 3.144181 1_665
Ba1 O11 3.144187 1_565
Ba1 O3 3.342323 1_565
Ba1 O5 3.342323 1_665
Ba1 O4 3.342334 1_555
Ba2 O7 2.681710 1_555
Ba2 O6 2.681720 1_655
Ba2 O8 2.681751 1_545
Ba2 O1 2.835209 1_655
Ba2 O2 2.835219 1_555
Ba2 O0 2.835227 1_545
Ba3 O10 2.677487 1_555
Ba3 O9 2.677487 1_455
Ba3 O11 2.677497 1_565
Ba3 O4 2.790682 1_455
Ba3 O3 2.790692 1_565
Ba3 O5 2.790695 1_555
Ba4 O14 2.714373 1_565
Ba4 O12 2.714375 1_455
Ba4 O13 2.714379 1_555
Ba4 O5 2.896041 1_555
Ba4 O3 2.896064 1_565
Ba4 O4 2.896071 1_455
Ba5 O16 2.685848 1_555
Ba5 O17 2.685857 1_545
Ba5 O15 2.685859 1_655
Ba5 O2 2.793116 1_555
Ba5 O1 2.793126 1_655
Ba5 O0 2.793127 1_545
Ba6 O13 2.609607 1_555
Ba6 O12 2.609649 1_445
Ba6 O14 2.609658 1_455
Ba6 O6 2.648200 1_555
Ba6 O7 2.648210 1_445
Ba6 O8 2.648221 1_545
Ba7 O16 2.633328 1_555
Ba7 O17 2.633331 1_655
Ba7 O15 2.633339 1_665
Ba7 O11 2.653638 1_566
Ba7 O9 2.653652 1_556
Ba7 O10 2.653654 1_666
O0 Ta1 2.152841 1_555
O0 Ta0 2.153649 1_555
O1 Ta1 2.152844 1_555
O1 Ta0 2.153643 1_555
O2 Ta1 2.152847 1_555
O2 Ta0 2.153644 1_555
O3 Sb0 2.091465 1_555
O3 Ta2 2.184188 1_555
O4 Sb0 2.091451 1_555
O4 Ta2 2.184201 1_555
O5 Sb0 2.091459 1_555
O5 Ta2 2.184200 1_555
O6 Ta1 1.896377 1_555
O7 Ta1 1.896365 1_555
O8 Ta1 1.896373 1_555
O9 Ta2 1.883575 1_555
O10 Ta2 1.883564 1_555
O11 Ta2 1.883571 1_555
O12 Sb0 1.938436 1_555
O13 Sb0 1.938443 1_555
O14 Sb0 1.938440 1_555
O15 Ta0 1.897809 1_555
O16 Ta0 1.897804 1_555
O17 Ta0 1.897809 1_555
