# generated using pymatgen
data_Li6WN4
_symmetry_space_group_name_H-M   'P 1'
_cell_length_a   6.64356555
_cell_length_b   6.64356555
_cell_length_c   4.87500252
_cell_angle_alpha   90.00000000
_cell_angle_beta   90.00000000
_cell_angle_gamma   90.00000000
_symmetry_Int_Tables_number   1
_chemical_formula_structural   Li6WN4
_chemical_formula_sum   'Li12 W2 N8'
_cell_volume   215.16780691
_cell_formula_units_Z   2
loop_
 _symmetry_equiv_pos_site_id
 _symmetry_equiv_pos_as_xyz
  1  'x, y, z'
loop_
 _atom_site_type_symbol
 _atom_site_label
 _atom_site_symmetry_multiplicity
 _atom_site_fract_x
 _atom_site_fract_y
 _atom_site_fract_z
 _atom_site_occupancy
  Li  Li0  1  0.71368569  0.28631431  0.50000000  1
  Li  Li1  1  0.78631431  0.78631431  -0.00000000  1
  Li  Li2  1  0.21368569  0.21368569  -0.00000000  1
  Li  Li3  1  0.28631431  0.71368569  0.50000000  1
  Li  Li4  1  0.78631431  0.21368569  -0.00000000  1
  Li  Li5  1  0.71368569  0.71368569  0.50000000  1
  Li  Li6  1  0.28631431  0.28631431  0.50000000  1
  Li  Li7  1  0.21368569  0.78631431  -0.00000000  1
  Li  Li8  1  0.50000000  0.00000000  0.92110997  1
  Li  Li9  1  0.50000000  0.00000000  0.42110997  1
  Li  Li10  1  0.00000000  0.50000000  0.07889003  1
  Li  Li11  1  0.00000000  0.50000000  0.57889003  1
  W  W0  1  0.00000000  0.00000000  0.50000000  1
  W  W1  1  0.50000000  0.50000000  -0.00000000  1
  N  N0  1  0.50000000  0.25757712  0.20048841  1
  N  N1  1  0.50000000  0.74242288  0.20048841  1
  N  N2  1  0.24242288  0.00000000  0.70048841  1
  N  N3  1  0.75757712  0.00000000  0.70048841  1
  N  N4  1  0.25757712  0.50000000  0.79951159  1
  N  N5  1  0.00000000  0.24242288  0.29951159  1
  N  N6  1  0.00000000  0.75757712  0.29951159  1
  N  N7  1  0.74242288  0.50000000  0.79951159  1
loop_
_geom_bond_atom_site_label_1
_geom_bond_atom_site_label_2
_geom_bond_distance
_geom_bond_site_symmetry_2
Li0 N7 2.045425 1_555
Li0 N0 2.045425 1_555
Li0 N5 2.158349 1_655
Li0 N3 2.158349 1_555
Li1 N3 2.045425 1_564
Li1 N6 2.045425 1_655
Li1 N7 2.158349 1_554
Li1 N1 2.158349 1_555
Li2 N5 2.045425 1_555
Li2 N2 2.045425 1_554
Li2 N4 2.158349 1_554
Li2 N0 2.158349 1_555
Li3 N1 2.045425 1_555
Li3 N4 2.045425 1_555
Li3 N2 2.158349 1_565
Li3 N6 2.158349 1_555
Li4 N3 2.045425 1_554
Li4 N5 2.045425 1_655
Li4 N7 2.158349 1_554
Li4 N0 2.158349 1_555
Li5 N1 2.045425 1_555
Li5 N7 2.045425 1_555
Li5 N3 2.158349 1_565
Li5 N6 2.158349 1_655
Li6 N0 2.045425 1_555
Li6 N4 2.045425 1_555
Li6 N5 2.158349 1_555
Li6 N2 2.158349 1_555
Li7 N6 2.045425 1_555
Li7 N2 2.045425 1_564
Li7 N1 2.158349 1_555
Li7 N4 2.158349 1_554
Li8 N3 2.021157 1_555
Li8 N2 2.021157 1_555
Li8 N0 2.187070 1_556
Li8 N1 2.187070 1_546
Li9 N0 2.021157 1_555
Li9 N1 2.021157 1_545
Li9 N3 2.187070 1_555
Li9 N2 2.187070 1_555
Li10 N6 2.021157 1_555
Li10 N5 2.021157 1_555
Li10 N7 2.187070 1_454
Li10 N4 2.187070 1_554
Li11 N7 2.021157 1_455
Li11 N4 2.021157 1_555
Li11 N5 2.187070 1_555
Li11 N6 2.187070 1_555
N0 W1 1.883920 1_555
N1 W1 1.883920 1_555
N2 W0 1.883920 1_555
N3 W0 1.883920 1_655
N4 W1 1.883920 1_556
N5 W0 1.883920 1_555
N6 W0 1.883920 1_565
N7 W1 1.883920 1_556
