# generated using pymatgen
data_CsLuP2Se7
_symmetry_space_group_name_H-M   'P 1'
_cell_length_a   7.07037586
_cell_length_b   7.07037692
_cell_length_c   7.12804861
_cell_angle_alpha   83.56578073
_cell_angle_beta   83.56577869
_cell_angle_gamma   97.03078996
_symmetry_Int_Tables_number   1
_chemical_formula_structural   CsLuP2Se7
_chemical_formula_sum   'Cs1 Lu1 P2 Se7'
_cell_volume   348.55595440
_cell_formula_units_Z   1
loop_
 _symmetry_equiv_pos_site_id
 _symmetry_equiv_pos_as_xyz
  1  'x, y, z'
loop_
 _atom_site_type_symbol
 _atom_site_label
 _atom_site_symmetry_multiplicity
 _atom_site_fract_x
 _atom_site_fract_y
 _atom_site_fract_z
 _atom_site_occupancy
  Cs  Cs0  1  0.09035110  0.90964890  1.00000000  1
  Lu  Lu0  1  0.50616038  0.49383962  0.50000000  1
  P  P0  1  0.66254504  0.94495051  0.58712068  1
  P  P1  1  0.05504949  0.33745496  0.41287932  1
  Se  Se0  1  0.64116482  0.68436251  0.78958086  1
  Se  Se1  1  0.31563749  0.35883518  0.21041914  1
  Se  Se2  1  0.53540144  0.87780915  0.33392392  1
  Se  Se3  1  0.12219085  0.46459856  0.66607608  1
  Se  Se4  1  0.56191776  0.16920947  0.74336603  1
  Se  Se5  1  0.83079053  0.43808224  0.25663397  1
  Se  Se6  1  0.99097109  0.00902891  0.50000000  1
loop_
_geom_bond_atom_site_label_1
_geom_bond_atom_site_label_2
_geom_bond_distance
_geom_bond_site_symmetry_2
Cs0 Se6 3.716259 1_466
Cs0 Se6 3.716259 1_465
Cs0 Se4 3.770084 1_565
Cs0 Se5 3.770085 1_456
Cs0 Se0 3.903579 1_455
Cs0 Se1 3.903579 1_566
Cs0 Se2 4.165294 1_556
Cs0 Se3 4.165295 1_555
Cs0 Se2 4.322279 1_456
Cs0 Se3 4.322280 1_565
Lu0 Se1 2.781444 1_555
Lu0 Se0 2.781444 1_555
Lu0 Se3 2.811008 1_555
Lu0 Se2 2.811008 1_555
Lu0 Se5 2.813413 1_555
Lu0 Se4 2.813413 1_555
P0 Se2 2.177602 1_555
P0 Se4 2.180607 1_565
P0 Se0 2.187957 1_555
P0 Se6 2.310678 1_565
P1 Se3 2.177602 1_555
P1 Se5 2.180607 1_455
P1 Se1 2.187956 1_555
P1 Se6 2.310679 1_455
