# generated using pymatgen
data_Sr5Sn2SbH
_symmetry_space_group_name_H-M   'P 1'
_cell_length_a   9.95386853
_cell_length_b   9.95386894
_cell_length_c   9.95386666
_cell_angle_alpha   128.65782803
_cell_angle_beta   128.65782851
_cell_angle_gamma   75.56177916
_symmetry_Int_Tables_number   1
_chemical_formula_structural   Sr5Sn2SbH
_chemical_formula_sum   'Sr10 Sn4 Sb2 H2'
_cell_volume   585.12112059
_cell_formula_units_Z   2
loop_
 _symmetry_equiv_pos_site_id
 _symmetry_equiv_pos_as_xyz
  1  'x, y, z'
loop_
 _atom_site_type_symbol
 _atom_site_label
 _atom_site_symmetry_multiplicity
 _atom_site_fract_x
 _atom_site_fract_y
 _atom_site_fract_z
 _atom_site_occupancy
  Sr  Sr0  1  0.50000000  0.50000000  0.00000000  1
  Sr  Sr1  1  0.00000000  0.00000000  0.00000000  1
  Sr  Sr2  1  0.51625313  0.01625313  0.82636807  1
  Sr  Sr3  1  0.18988506  0.68988506  0.17363393  1
  Sr  Sr4  1  0.01625013  0.18988406  0.49999900  1
  Sr  Sr5  1  0.68988406  0.51625013  0.49999900  1
  Sr  Sr6  1  0.48374687  0.98374687  0.17363193  1
  Sr  Sr7  1  0.81011494  0.31011494  0.82636607  1
  Sr  Sr8  1  0.98374987  0.81011594  0.50000100  1
  Sr  Sr9  1  0.31011594  0.48374987  0.50000100  1
  Sn  Sn0  1  0.87646145  0.37646145  0.25292189  1
  Sn  Sn1  1  0.12353855  0.62353855  0.74707811  1
  Sn  Sn2  1  0.37645645  0.12354355  0.50000000  1
  Sn  Sn3  1  0.62354355  0.87645645  0.50000000  1
  Sb  Sb0  1  0.25000000  0.25000000  0.00000000  1
  Sb  Sb1  1  0.75000000  0.75000000  0.00000000  1
  H  H0  1  0.25000000  0.75000000  0.50000000  1
  H  H1  1  0.75000000  0.25000000  0.50000000  1
loop_
_geom_bond_atom_site_label_1
_geom_bond_atom_site_label_2
_geom_bond_distance
_geom_bond_site_symmetry_2
Sn0 Sn1 3.013449 1_655
Sn0 Sr9 3.402352 1_655
Sn0 Sr8 3.402353 1_555
Sn0 Sr5 3.402358 1_555
Sn0 Sr4 3.402358 1_655
Sn0 Sr0 3.416988 1_555
Sn0 Sr1 3.416988 1_655
Sn0 Sr2 3.480074 1_554
Sn0 Sr7 3.480083 1_554
Sn1 Sr5 3.402352 1_455
Sn1 Sr4 3.402353 1_555
Sn1 Sr9 3.402358 1_555
Sn1 Sr8 3.402358 1_455
Sn1 Sr0 3.416988 1_556
Sn1 Sr1 3.416988 1_566
Sn1 Sr6 3.480074 1_556
Sn1 Sr3 3.480083 1_556
Sn2 Sn3 3.013560 1_545
Sn2 Sr6 3.402370 1_545
Sn2 Sr2 3.402370 1_555
Sn2 Sr7 3.402374 1_555
Sn2 Sr3 3.402374 1_545
Sn2 Sr1 3.416962 1_555
Sn2 Sr0 3.416962 1_556
Sn2 Sr4 3.480054 1_555
Sn2 Sr9 3.480054 1_555
Sn3 Sr2 3.402370 1_565
Sn3 Sr6 3.402370 1_555
Sn3 Sr3 3.402374 1_555
Sn3 Sr7 3.402374 1_565
Sn3 Sr1 3.416962 1_666
Sn3 Sr0 3.416962 1_555
Sn3 Sr8 3.480054 1_555
Sn3 Sr5 3.480054 1_555
Sb0 Sr5 3.612192 1_555
Sb0 Sr8 3.612193 1_444
Sb0 Sr7 3.612202 1_454
Sb0 Sr3 3.612202 1_555
Sb0 Sr4 3.612202 1_554
Sb0 Sr9 3.612203 1_555
Sb0 Sr2 3.612205 1_554
Sb0 Sr6 3.612205 1_545
Sb0 Sr0 3.933567 1_555
Sb0 Sr1 3.933567 1_555
Sb1 Sr9 3.612192 1_554
Sb1 Sr4 3.612193 1_665
Sb1 Sr3 3.612202 1_655
Sb1 Sr7 3.612202 1_554
Sb1 Sr8 3.612202 1_555
Sb1 Sr5 3.612203 1_554
Sb1 Sr6 3.612205 1_555
Sb1 Sr2 3.612205 1_564
Sb1 Sr0 3.933567 1_555
Sb1 Sr1 3.933567 1_665
H0 Sr8 2.567281 1_455
H0 Sr9 2.567281 1_555
H0 Sr3 2.567285 1_555
H0 Sr2 2.567305 1_565
H1 Sr4 2.567281 1_655
H1 Sr5 2.567281 1_555
H1 Sr7 2.567285 1_555
H1 Sr6 2.567305 1_545
