# generated using pymatgen
data_Sr2Co2O5
_symmetry_space_group_name_H-M   'P 1'
_cell_length_a   5.80997509
_cell_length_b   5.80997509
_cell_length_c   5.80997509
_cell_angle_alpha   112.65006935
_cell_angle_beta   112.65006935
_cell_angle_gamma   103.28506805
_symmetry_Int_Tables_number   1
_chemical_formula_structural   Sr2Co2O5
_chemical_formula_sum   'Sr2 Co2 O5'
_cell_volume   149.67310984
_cell_formula_units_Z   1
loop_
 _symmetry_equiv_pos_site_id
 _symmetry_equiv_pos_as_xyz
  1  'x, y, z'
loop_
 _atom_site_type_symbol
 _atom_site_label
 _atom_site_symmetry_multiplicity
 _atom_site_fract_x
 _atom_site_fract_y
 _atom_site_fract_z
 _atom_site_occupancy
  Sr  Sr0  1  0.20216800  0.20216800  0.00000000  1
  Sr  Sr1  1  0.79783200  0.79783200  0.00000000  1
  Co  Co0  1  0.50000000  0.00000000  0.50000000  1
  Co  Co1  1  0.00000000  0.50000000  0.50000000  1
  O  O0  1  0.00000000  0.00000000  0.50000000  1
  O  O1  1  0.50000000  0.50000000  0.50000000  1
  O  O2  1  0.00000000  0.50000000  0.00000000  1
  O  O3  1  0.50000000  0.50000000  0.00000000  1
  O  O4  1  0.50000000  0.00000000  0.00000000  1
loop_
_geom_bond_atom_site_label_1
_geom_bond_atom_site_label_2
_geom_bond_distance
_geom_bond_site_symmetry_2
O0 Sr1 2.303923 1_445
O0 Sr0 2.303923 1_556
O1 Sr0 2.303923 1_555
O1 Sr1 2.303923 1_556
O2 Sr0 2.303923 1_555
O2 Sr1 2.303923 1_455
O3 Sr0 2.147650 1_555
O3 Sr1 2.147650 1_555
O4 Sr0 2.303923 1_555
O4 Sr1 2.303923 1_545
