# generated using pymatgen
data_Mn3Nb2P24Os
_symmetry_space_group_name_H-M   'P 1'
_cell_length_a   5.80090961
_cell_length_b   8.61036953
_cell_length_c   10.62246159
_cell_angle_alpha   102.13178029
_cell_angle_beta   105.90137821
_cell_angle_gamma   109.71944501
_symmetry_Int_Tables_number   1
_chemical_formula_structural   Mn3Nb2P24Os
_chemical_formula_sum   'Mn3 Nb2 P24 Os1'
_cell_volume   452.71696613
_cell_formula_units_Z   1
loop_
 _symmetry_equiv_pos_site_id
 _symmetry_equiv_pos_as_xyz
  1  'x, y, z'
loop_
 _atom_site_type_symbol
 _atom_site_label
 _atom_site_symmetry_multiplicity
 _atom_site_fract_x
 _atom_site_fract_y
 _atom_site_fract_z
 _atom_site_occupancy
  Mn  Mn0  1  0.44641679  0.81606506  0.45336139  1
  Mn  Mn1  1  0.55545095  0.18333523  0.54713955  1
  Mn  Mn2  1  0.32459669  0.31695066  0.95292286  1
  Nb  Nb0  1  0.94534855  0.25020867  0.25012148  1
  Nb  Nb1  1  0.05396981  0.75042813  0.74951428  1
  P  P0  1  0.32798956  0.77510710  0.00408728  1
  P  P1  1  0.15436468  0.13719186  0.07080137  1
  P  P2  1  0.03714578  0.61772220  0.07442034  1
  P  P3  1  0.50664092  0.50945586  0.16492725  1
  P  P4  1  0.45295947  0.04076106  0.16704885  1
  P  P5  1  0.92176921  0.93791805  0.25063487  1
  P  P6  1  0.24157970  0.57047865  0.25901653  1
  P  P7  1  0.75013284  0.46012119  0.33644792  1
  P  P8  1  0.33697998  0.98183041  0.33943942  1
  P  P9  1  0.83331070  0.87941548  0.42870129  1
  P  P10  1  0.44869135  0.36366171  0.43075223  1
  P  P11  1  0.06305795  0.73058509  0.49372183  1
  P  P12  1  0.93911146  0.26966418  0.50823467  1
  P  P13  1  0.55329566  0.63610336  0.57131841  1
  P  P14  1  0.16960092  0.12093305  0.57461261  1
  P  P15  1  0.66702769  0.02010372  0.66195424  1
  P  P16  1  0.24685028  0.53917059  0.66436515  1
  P  P17  1  0.76101910  0.42953380  0.74232462  1
  P  P18  1  0.08589606  0.06930669  0.75606285  1
  P  P19  1  0.54200652  0.96212002  0.83194053  1
  P  P20  1  0.47449391  0.46999660  0.82940857  1
  P  P21  1  0.97238635  0.37718732  0.92428269  1
  P  P22  1  0.84951863  0.87014008  0.92375036  1
  P  P23  1  0.66145823  0.22931078  0.99142567  1
  Os  Os0  1  0.67692724  0.68518942  0.04725688  1
loop_
_geom_bond_atom_site_label_1
_geom_bond_atom_site_label_2
_geom_bond_distance
_geom_bond_site_symmetry_2
Mn0 P8 2.195702 1_555
Mn0 P15 2.219601 1_565
Mn0 P9 2.226943 1_555
Mn0 P11 2.285054 1_555
Mn0 P6 2.295776 1_555
Mn0 P13 2.322532 1_555
Mn1 P15 2.187143 1_555
Mn1 P8 2.204351 1_545
Mn1 P14 2.235179 1_555
Mn1 P12 2.278870 1_555
Mn1 P17 2.303581 1_555
Mn1 P10 2.314958 1_555
Mn2 P20 2.189217 1_555
Mn2 P3 2.209257 1_556
Mn2 P21 2.230878 1_455
Mn2 P23 2.289566 1_555
Mn2 P18 2.320258 1_555
Mn2 P1 2.323673 1_556
Mn2 Os0 2.898918 1_556
Nb0 P7 2.577533 1_555
Nb0 P4 2.581341 1_555
Nb0 P5 2.647168 1_545
Nb0 P6 2.677706 1_655
Nb0 P1 2.707044 1_655
Nb0 P10 2.716386 1_655
Nb0 P23 2.721808 1_554
Nb0 P12 2.722539 1_555
Nb1 P19 2.567584 1_555
Nb1 P16 2.572011 1_555
Nb1 P0 2.656997 1_556
Nb1 P22 2.668430 1_455
Nb1 P18 2.673445 1_565
Nb1 P17 2.683203 1_455
Nb1 P13 2.694867 1_455
Nb1 P11 2.702645 1_555
P0 P2 2.194187 1_555
P0 P4 2.298529 1_565
P1 P22 2.255460 1_444
P1 P4 2.256518 1_555
P2 P21 2.175399 1_454
P2 P6 2.191669 1_555
P3 P6 2.192203 1_555
P3 P7 2.194343 1_555
P4 P8 2.213308 1_545
P5 P8 2.196513 1_655
P5 P9 2.202896 1_555
P10 P7 2.254002 1_555
P10 P13 2.274048 1_555
P11 P9 2.217116 1_455
P11 P7 2.315090 1_455
P12 P14 2.223354 1_655
P12 P16 2.299310 1_655
P13 P16 2.267570 1_555
P14 P9 2.187054 1_445
P14 P18 2.208108 1_555
P15 P18 2.208876 1_655
P15 P19 2.210847 1_545
P16 P20 2.207544 1_555
P17 P20 2.199435 1_555
P17 P21 2.209728 1_555
P19 P22 2.255039 1_555
P19 P23 2.299078 1_565
P21 P23 2.218097 1_555
Os0 P3 2.300132 1_555
Os0 P2 2.312220 1_655
Os0 P20 2.325415 1_554
Os0 P0 2.367504 1_555
Os0 P5 2.382597 1_555
Os0 P22 2.404492 1_554
