# generated using pymatgen
data_Li4Cu3PbF12
_symmetry_space_group_name_H-M   'P 1'
_cell_length_a   6.43329015
_cell_length_b   6.43329023
_cell_length_c   6.43328979
_cell_angle_alpha   109.47121926
_cell_angle_beta   109.47121950
_cell_angle_gamma   109.47122152
_symmetry_Int_Tables_number   1
_chemical_formula_structural   Li4Cu3PbF12
_chemical_formula_sum   'Li4 Cu3 Pb1 F12'
_cell_volume   204.96396613
_cell_formula_units_Z   1
loop_
 _symmetry_equiv_pos_site_id
 _symmetry_equiv_pos_as_xyz
  1  'x, y, z'
loop_
 _atom_site_type_symbol
 _atom_site_label
 _atom_site_symmetry_multiplicity
 _atom_site_fract_x
 _atom_site_fract_y
 _atom_site_fract_z
 _atom_site_occupancy
  Li  Li0  1  0.50000000  0.50000000  0.50000000  1
  Li  Li1  1  0.50000000  0.00000000  0.00000000  1
  Li  Li2  1  0.00000000  0.00000000  0.50000000  1
  Li  Li3  1  0.00000000  0.50000000  0.00000000  1
  Cu  Cu0  1  0.00000000  0.50000000  0.50000000  1
  Cu  Cu1  1  0.50000000  0.50000000  0.00000000  1
  Cu  Cu2  1  0.50000000  0.00000000  0.50000000  1
  Pb  Pb0  1  0.00000000  0.00000000  0.00000000  1
  F  F0  1  0.68707109  0.17526772  0.86233981  1
  F  F1  1  0.31292891  0.17526772  0.48819563  1
  F  F2  1  0.86233981  0.68707109  0.17526772  1
  F  F3  1  0.51180437  0.68707109  0.82473228  1
  F  F4  1  0.17526772  0.86233981  0.68707109  1
  F  F5  1  0.13766019  0.31292891  0.82473228  1
  F  F6  1  0.68707109  0.82473228  0.51180437  1
  F  F7  1  0.17526772  0.48819563  0.31292891  1
  F  F8  1  0.82473228  0.51180437  0.68707109  1
  F  F9  1  0.31292891  0.82473228  0.13766019  1
  F  F10  1  0.48819563  0.31292891  0.17526772  1
  F  F11  1  0.82473228  0.13766019  0.31292891  1
loop_
_geom_bond_atom_site_label_1
_geom_bond_atom_site_label_2
_geom_bond_distance
_geom_bond_site_symmetry_2
Cu0 F8 1.904288 1_455
Cu0 F7 1.904288 1_555
Cu0 F4 1.904293 1_555
Cu0 F11 1.904293 1_455
Cu1 F3 1.904288 1_554
Cu1 F10 1.904288 1_555
Cu1 F2 1.904293 1_555
Cu1 F5 1.904293 1_554
Cu2 F6 1.904288 1_545
Cu2 F1 1.904288 1_555
Cu2 F0 1.904293 1_555
Cu2 F9 1.904293 1_545
F0 Li1 1.993899 1_556
F0 Li3 1.993906 1_656
F0 Pb0 2.664378 1_656
F1 Li0 1.993901 1_555
F1 Li2 1.993908 1_555
F1 Pb0 2.664374 1_555
F2 Li3 1.993899 1_655
F2 Li2 1.993906 1_665
F2 Pb0 2.664378 1_665
F3 Li0 1.993901 1_555
F3 Li1 1.993908 1_566
F3 Pb0 2.664374 1_666
F4 Li2 1.993899 1_565
F4 Li1 1.993906 1_566
F4 Pb0 2.664378 1_566
F5 Li3 1.993899 1_556
F5 Li2 1.993906 1_555
F5 Pb0 2.664378 1_556
F6 Li0 1.993901 1_555
F6 Li2 1.993908 1_665
F6 Pb0 2.664374 1_666
F7 Li0 1.993901 1_555
F7 Li3 1.993908 1_555
F7 Pb0 2.664374 1_555
F8 Li0 1.993901 1_555
F8 Li3 1.993908 1_656
F8 Pb0 2.664374 1_666
F9 Li1 1.993899 1_565
F9 Li3 1.993906 1_555
F9 Pb0 2.664378 1_565
F10 Li0 1.993901 1_555
F10 Li1 1.993908 1_555
F10 Pb0 2.664374 1_555
F11 Li2 1.993899 1_655
F11 Li1 1.993906 1_555
F11 Pb0 2.664378 1_655
