# generated using pymatgen
data_HgBi6(AsO5)4
_symmetry_space_group_name_H-M   'P 1'
_cell_length_a   7.04679822
_cell_length_b   7.71475653
_cell_length_c   9.36760856
_cell_angle_alpha   105.30079952
_cell_angle_beta   95.65347657
_cell_angle_gamma   111.50150889
_symmetry_Int_Tables_number   1
_chemical_formula_structural   HgBi6(AsO5)4
_chemical_formula_sum   'Hg1 Bi6 As4 O20'
_cell_volume   446.08190690
_cell_formula_units_Z   1
loop_
 _symmetry_equiv_pos_site_id
 _symmetry_equiv_pos_as_xyz
  1  'x, y, z'
loop_
 _atom_site_type_symbol
 _atom_site_label
 _atom_site_symmetry_multiplicity
 _atom_site_fract_x
 _atom_site_fract_y
 _atom_site_fract_z
 _atom_site_occupancy
  Hg  Hg0  1  0.00000000  0.00000000  0.00000000  1
  Bi  Bi0  1  0.34602717  0.13526482  0.51251244  1
  Bi  Bi1  1  0.65397283  0.86473518  0.48748756  1
  Bi  Bi2  1  0.43515001  0.79032522  0.07721617  1
  Bi  Bi3  1  0.56484999  0.20967478  0.92278383  1
  Bi  Bi4  1  0.80843733  0.28694242  0.32878294  1
  Bi  Bi5  1  0.19156267  0.71305758  0.67121706  1
  As  As0  1  0.05583744  0.26704228  0.76472201  1
  As  As1  1  0.94416256  0.73295772  0.23527799  1
  As  As2  1  0.34610505  0.39644657  0.25424123  1
  As  As3  1  0.65389495  0.60355343  0.74575877  1
  O  O0  1  0.11943105  0.23252238  0.27501239  1
  O  O1  1  0.88056895  0.76747762  0.72498761  1
  O  O2  1  0.15192317  0.51613411  0.83470665  1
  O  O3  1  0.84807683  0.48386589  0.16529335  1
  O  O4  1  0.66590058  0.09209601  0.10503314  1
  O  O5  1  0.33409942  0.90790399  0.89496686  1
  O  O6  1  0.54796822  0.03146747  0.36695877  1
  O  O7  1  0.45203178  0.96853253  0.63304123  1
  O  O8  1  0.35174498  0.62650652  0.30766166  1
  O  O9  1  0.64825502  0.37349348  0.69233834  1
  O  O10  1  0.24569802  0.17961960  0.75690989  1
  O  O11  1  0.75430198  0.82038040  0.24309011  1
  O  O12  1  0.55145269  0.39814860  0.36815427  1
  O  O13  1  0.44854731  0.60185140  0.63184573  1
  O  O14  1  0.07021196  0.81345522  0.42048384  1
  O  O15  1  0.92978804  0.18654478  0.57951616  1
  O  O16  1  0.10864623  0.83566092  0.12853288  1
  O  O17  1  0.89135377  0.16433908  0.87146712  1
  O  O18  1  0.35301709  0.31976130  0.06811179  1
  O  O19  1  0.64698291  0.68023870  0.93188821  1
loop_
_geom_bond_atom_site_label_1
_geom_bond_atom_site_label_2
_geom_bond_distance
_geom_bond_site_symmetry_2
Hg0 O16 2.231340 1_545
Hg0 O17 2.231340 1_454
Hg0 O0 2.567132 1_555
Hg0 O1 2.567132 1_444
Hg0 O18 2.653112 1_555
Hg0 O19 2.653112 1_444
Bi0 O7 2.189072 1_545
Bi0 O6 2.273048 1_555
Bi0 O9 2.353959 1_555
Bi0 O14 2.384865 1_545
Bi0 O10 2.437452 1_555
Bi0 O12 2.778193 1_555
Bi1 O6 2.189072 1_565
Bi1 O7 2.273048 1_555
Bi1 O8 2.353959 1_555
Bi1 O15 2.384865 1_565
Bi1 O11 2.437452 1_555
Bi1 O13 2.778193 1_555
Bi2 O4 2.225590 1_565
Bi2 O5 2.301270 1_554
Bi2 O19 2.349987 1_554
Bi2 O11 2.503049 1_555
Bi2 O16 2.523133 1_555
Bi2 O2 2.663534 1_554
Bi2 O6 2.699180 1_565
Bi2 O8 2.783546 1_555
Bi3 O5 2.225590 1_545
Bi3 O4 2.301270 1_556
Bi3 O18 2.349987 1_556
Bi3 O10 2.503049 1_555
Bi3 O17 2.523133 1_555
Bi3 O3 2.663534 1_556
Bi3 O7 2.699180 1_545
Bi3 O9 2.783546 1_555
Bi4 O4 2.115950 1_555
Bi4 O6 2.287105 1_555
Bi4 O12 2.292375 1_555
Bi4 O3 2.394311 1_555
Bi4 O0 2.452150 1_655
Bi4 O15 2.810309 1_555
Bi5 O5 2.115950 1_555
Bi5 O7 2.287105 1_555
Bi5 O13 2.292375 1_555
Bi5 O2 2.394311 1_555
Bi5 O1 2.452150 1_455
Bi5 O14 2.810309 1_555
As0 O2 1.695564 1_555
As0 O10 1.704388 1_555
As0 O15 1.705292 1_455
As0 O17 1.715937 1_455
As1 O3 1.695564 1_555
As1 O11 1.704388 1_555
As1 O14 1.705292 1_655
As1 O16 1.715937 1_655
As2 O8 1.696389 1_555
As2 O18 1.698799 1_555
As2 O0 1.702623 1_555
As2 O12 1.705063 1_555
As3 O9 1.696389 1_555
As3 O19 1.698799 1_555
As3 O1 1.702623 1_555
As3 O13 1.705063 1_555
