# generated using pymatgen
data_InAg(NO3)4
_symmetry_space_group_name_H-M   'P 1'
_cell_length_a   7.72601754
_cell_length_b   7.92092599
_cell_length_c   7.67367933
_cell_angle_alpha   90.00000000
_cell_angle_beta   87.94529906
_cell_angle_gamma   90.00000000
_symmetry_Int_Tables_number   1
_chemical_formula_structural   InAg(NO3)4
_chemical_formula_sum   'In2 Ag2 N8 O24'
_cell_volume   469.30585601
_cell_formula_units_Z   2
loop_
 _symmetry_equiv_pos_site_id
 _symmetry_equiv_pos_as_xyz
  1  'x, y, z'
loop_
 _atom_site_type_symbol
 _atom_site_label
 _atom_site_symmetry_multiplicity
 _atom_site_fract_x
 _atom_site_fract_y
 _atom_site_fract_z
 _atom_site_occupancy
  In  In0  1  0.00000000  0.50000000  0.00000000  1
  In  In1  1  0.00000000  0.00000000  0.50000000  1
  Ag  Ag0  1  0.50000000  0.50000000  0.50000000  1
  Ag  Ag1  1  0.50000000  0.00000000  0.00000000  1
  N  N0  1  0.68518599  0.14398551  0.32458574  1
  N  N1  1  0.68518599  0.35601449  0.82458574  1
  N  N2  1  0.84367008  0.80789774  0.83274154  1
  N  N3  1  0.84367008  0.69210226  0.33274154  1
  N  N4  1  0.15632992  0.19210226  0.16725846  1
  N  N5  1  0.15632992  0.30789774  0.66725846  1
  N  N6  1  0.31481401  0.64398551  0.17541426  1
  N  N7  1  0.31481401  0.85601449  0.67541426  1
  O  O0  1  0.56411812  0.25663322  0.80859143  1
  O  O1  1  0.56411812  0.24336678  0.30859143  1
  O  O2  1  0.72114925  0.47061871  0.71814988  1
  O  O3  1  0.72114925  0.02938129  0.21814988  1
  O  O4  1  0.73562822  0.72015445  0.45065022  1
  O  O5  1  0.73562822  0.77984555  0.95065022  1
  O  O6  1  0.78017414  0.34001982  0.96097933  1
  O  O7  1  0.78017414  0.15998018  0.46097933  1
  O  O8  1  0.82766969  0.93311418  0.73156749  1
  O  O9  1  0.82766969  0.56688582  0.23156749  1
  O  O10  1  0.97518043  0.71203162  0.80912651  1
  O  O11  1  0.97518043  0.78796838  0.30912651  1
  O  O12  1  0.02481957  0.21203162  0.69087349  1
  O  O13  1  0.02481957  0.28796838  0.19087349  1
  O  O14  1  0.17233031  0.43311418  0.76843251  1
  O  O15  1  0.17233031  0.06688582  0.26843251  1
  O  O16  1  0.21982586  0.65998018  0.03902067  1
  O  O17  1  0.21982586  0.84001982  0.53902067  1
  O  O18  1  0.26437178  0.22015445  0.04934978  1
  O  O19  1  0.26437178  0.27984555  0.54934978  1
  O  O20  1  0.27885075  0.52938129  0.28185012  1
  O  O21  1  0.27885075  0.97061871  0.78185012  1
  O  O22  1  0.43588188  0.75663322  0.69140857  1
  O  O23  1  0.43588188  0.74336678  0.19140857  1
loop_
_geom_bond_atom_site_label_1
_geom_bond_atom_site_label_2
_geom_bond_distance
_geom_bond_site_symmetry_2
In0 O16 2.148578 1_555
In0 O6 2.148578 1_454
In0 O13 2.241191 1_555
In0 O10 2.241191 1_454
In0 O9 2.245299 1_455
In0 O14 2.245299 1_554
In1 O17 2.148578 1_545
In1 O7 2.148578 1_455
In1 O12 2.241191 1_555
In1 O11 2.241191 1_445
In1 O8 2.245299 1_445
In1 O15 2.245299 1_555
Ag0 O2 2.445588 1_555
Ag0 O20 2.445588 1_555
Ag0 O4 2.539490 1_555
Ag0 O19 2.539490 1_555
Ag0 O22 2.546132 1_555
Ag0 O1 2.546132 1_555
Ag1 O3 2.445588 1_555
Ag1 O21 2.445588 1_544
Ag1 O18 2.539490 1_555
Ag1 O5 2.539490 1_544
Ag1 O0 2.546132 1_554
Ag1 O23 2.546132 1_545
N0 O1 1.232026 1_555
N0 O3 1.245820 1_555
N0 O7 1.305820 1_555
N1 O0 1.232026 1_555
N1 O2 1.245820 1_555
N1 O6 1.305820 1_555
N2 O5 1.229083 1_555
N2 O8 1.268327 1_555
N2 O10 1.276168 1_555
N3 O4 1.229083 1_555
N3 O9 1.268327 1_555
N3 O11 1.276168 1_555
N4 O18 1.229083 1_555
N4 O15 1.268327 1_555
N4 O13 1.276168 1_555
N5 O19 1.229083 1_555
N5 O14 1.268327 1_555
N5 O12 1.276168 1_555
N6 O23 1.232026 1_555
N6 O20 1.245820 1_555
N6 O16 1.305820 1_555
N7 O22 1.232026 1_555
N7 O21 1.245820 1_555
N7 O17 1.305820 1_555
