# generated using pymatgen
data_Y2SiPtBr2
_symmetry_space_group_name_H-M   'P 1'
_cell_length_a   4.13551779
_cell_length_b   4.13551813
_cell_length_c   11.04511048
_cell_angle_alpha   90.00000000
_cell_angle_beta   90.00000000
_cell_angle_gamma   120.00002915
_symmetry_Int_Tables_number   1
_chemical_formula_structural   Y2SiPtBr2
_chemical_formula_sum   'Y2 Si1 Pt1 Br2'
_cell_volume   163.59137045
_cell_formula_units_Z   1
loop_
 _symmetry_equiv_pos_site_id
 _symmetry_equiv_pos_as_xyz
  1  'x, y, z'
loop_
 _atom_site_type_symbol
 _atom_site_label
 _atom_site_symmetry_multiplicity
 _atom_site_fract_x
 _atom_site_fract_y
 _atom_site_fract_z
 _atom_site_occupancy
  Y  Y0  1  0.00000000  0.00000000  0.17103639  1
  Y  Y1  1  0.00000000  0.00000000  0.82741632  1
  Si  Si0  1  0.66666700  0.33333300  0.98941912  1
  Pt  Pt0  1  0.33333300  0.66666700  0.01187997  1
  Br  Br0  1  0.33333300  0.66666700  0.66550454  1
  Br  Br1  1  0.66666700  0.33333300  0.33474366  1
loop_
_geom_bond_atom_site_label_1
_geom_bond_atom_site_label_2
_geom_bond_distance
_geom_bond_site_symmetry_2
Si0 Y1 2.983716 1_655
Si0 Y1 2.983718 1_555
Si0 Y1 2.983718 1_665
Si0 Y0 3.118460 1_656
Si0 Y0 3.118462 1_556
Si0 Y0 3.118462 1_666
Pt0 Si0 2.400493 1_454
Pt0 Si0 2.400493 1_564
Pt0 Si0 2.400501 1_554
Pt0 Y0 2.964969 1_565
Pt0 Y0 2.964971 1_665
Pt0 Y0 2.964971 1_555
Pt0 Y1 3.138776 1_564
Pt0 Y1 3.138777 1_664
Pt0 Y1 3.138778 1_554
Br0 Y1 2.983113 1_565
Br0 Y1 2.983115 1_665
Br0 Y1 2.983115 1_555
Br1 Y0 2.995044 1_655
Br1 Y0 2.995046 1_555
Br1 Y0 2.995046 1_665
