# generated using pymatgen
data_VPt7Rh
_symmetry_space_group_name_H-M   'P 1'
_cell_length_a   6.19496217
_cell_length_b   6.19496146
_cell_length_c   6.17634028
_cell_angle_alpha   95.60412544
_cell_angle_beta   95.60411764
_cell_angle_gamma   143.63710843
_symmetry_Int_Tables_number   1
_chemical_formula_structural   VPt7Rh
_chemical_formula_sum   'V1 Pt7 Rh1'
_cell_volume   133.47614531
_cell_formula_units_Z   1
loop_
 _symmetry_equiv_pos_site_id
 _symmetry_equiv_pos_as_xyz
  1  'x, y, z'
loop_
 _atom_site_type_symbol
 _atom_site_label
 _atom_site_symmetry_multiplicity
 _atom_site_fract_x
 _atom_site_fract_y
 _atom_site_fract_z
 _atom_site_occupancy
  V  V0  1  0.99421508  0.99421508  0.98843016  1
  Pt  Pt0  1  0.66258212  0.66258212  0.32516424  1
  Pt  Pt1  1  0.65951385  0.33975958  0.99927343  1
  Pt  Pt2  1  0.33975958  0.65951385  0.99927343  1
  Pt  Pt3  1  0.00170259  0.32855413  0.33025673  1
  Pt  Pt4  1  0.99816453  0.67386451  0.67202904  1
  Pt  Pt5  1  0.67386451  0.99816453  0.67202904  1
  Pt  Pt6  1  0.32855413  0.00170259  0.33025673  1
  Rh  Rh0  1  0.34164260  0.34164260  0.68328619  1
loop_
_geom_bond_atom_site_label_1
_geom_bond_atom_site_label_2
_geom_bond_distance
_geom_bond_site_symmetry_2
Pt0 Pt1 2.682607 1_554
Pt0 Pt2 2.682608 1_554
Pt0 Pt6 2.727296 1_555
Pt0 Pt3 2.727296 1_665
Pt0 Pt3 2.727296 1_555
Pt0 Pt6 2.727296 1_665
Pt0 V0 2.763748 1_554
Pt0 V0 2.763748 1_444
Pt0 Pt5 2.789865 1_555
Pt0 Pt4 2.789866 1_555
Pt0 Rh0 2.854766 1_665
Pt0 Rh0 2.854768 1_555
Pt1 Rh0 2.641522 1_555
Pt1 V0 2.698578 1_555
Pt1 V0 2.698578 1_445
Pt1 Pt4 2.724371 1_555
Pt1 Pt4 2.724371 1_445
Pt1 Pt6 2.740057 1_556
Pt1 Pt6 2.740058 1_666
Pt1 Pt5 2.841467 1_545
Pt1 Pt3 2.845334 1_656
Pt1 Pt2 2.870231 1_545
Pt1 Pt2 2.870231 1_655
Pt2 Rh0 2.641522 1_555
Pt2 V0 2.698578 1_445
Pt2 V0 2.698578 1_555
Pt2 Pt5 2.724371 1_555
Pt2 Pt5 2.724371 1_445
Pt2 Pt3 2.740057 1_556
Pt2 Pt3 2.740057 1_666
Pt2 Pt4 2.841468 1_455
Pt2 Pt6 2.845334 1_566
Pt3 V0 2.778760 1_444
Pt3 Pt5 2.784988 1_445
Pt3 Pt5 2.784989 1_555
Pt3 Pt6 2.809037 1_565
Pt3 Pt6 2.809037 1_455
Pt3 Rh0 2.826548 1_555
Pt3 Pt4 2.869688 1_455
Pt4 V0 2.662342 1_555
Pt4 Rh0 2.717361 1_665
Pt4 Rh0 2.717364 1_555
Pt4 Pt6 2.784988 1_665
Pt4 Pt6 2.784989 1_555
Pt4 Pt5 2.830905 1_545
Pt4 Pt5 2.830905 1_655
Pt5 V0 2.662342 1_555
Pt5 Rh0 2.717361 1_665
Pt5 Rh0 2.717363 1_555
Pt5 Pt6 2.869688 1_565
Pt6 V0 2.778760 1_444
Pt6 Rh0 2.826548 1_555
Rh0 V0 2.634492 1_445
Rh0 V0 2.634495 1_555
