# generated using pymatgen
data_Nb10SiB4P
_symmetry_space_group_name_H-M   'P 1'
_cell_length_a   7.30315309
_cell_length_b   7.30315375
_cell_length_c   7.30315424
_cell_angle_alpha   129.32234677
_cell_angle_beta   129.32235523
_cell_angle_gamma   74.49244746
_symmetry_Int_Tables_number   1
_chemical_formula_structural   Nb10SiB4P
_chemical_formula_sum   'Nb10 Si1 B4 P1'
_cell_volume   227.17193245
_cell_formula_units_Z   1
loop_
 _symmetry_equiv_pos_site_id
 _symmetry_equiv_pos_as_xyz
  1  'x, y, z'
loop_
 _atom_site_type_symbol
 _atom_site_label
 _atom_site_symmetry_multiplicity
 _atom_site_fract_x
 _atom_site_fract_y
 _atom_site_fract_z
 _atom_site_occupancy
  Nb  Nb0  1  0.99912036  0.99912036  1.00000000  1
  Nb  Nb1  1  0.50087964  0.50087964  0.00000000  1
  Nb  Nb2  1  0.80881070  0.30638176  0.83706523  1
  Nb  Nb3  1  0.19361824  0.69118930  0.16293477  1
  Nb  Nb4  1  0.46931753  0.97174646  0.16293477  1
  Nb  Nb5  1  0.30638176  0.46931753  0.49757106  1
  Nb  Nb6  1  0.03068247  0.19361824  0.50242894  1
  Nb  Nb7  1  0.52825354  0.03068247  0.83706523  1
  Nb  Nb8  1  0.69118930  0.52825354  0.49757106  1
  Nb  Nb9  1  0.97174646  0.80881070  0.50242894  1
  Si  Si0  1  0.75000000  0.75000000  0.00000000  1
  B  B0  1  0.11269982  0.61269982  0.72539963  1
  B  B1  1  0.88730018  0.38730018  0.27460037  1
  B  B2  1  0.61269982  0.88730018  0.50000000  1
  B  B3  1  0.38730018  0.11269982  0.50000000  1
  P  P0  1  0.25000000  0.25000000  0.00000000  1
loop_
_geom_bond_atom_site_label_1
_geom_bond_atom_site_label_2
_geom_bond_distance
_geom_bond_site_symmetry_2
Nb0 Nb2 2.829037 1_565
Nb0 Nb5 2.829042 1_666
Nb0 Nb9 2.829042 1_555
Nb0 Nb4 2.829044 1_656
Nb0 Nb3 2.834116 1_656
Nb0 Nb8 2.834121 1_555
Nb0 Nb6 2.834121 1_666
Nb0 Nb7 2.834122 1_565
Nb0 Si0 2.896580 1_556
Nb0 P0 2.917036 1_666
Nb1 Nb3 2.829037 1_555
Nb1 Nb6 2.829042 1_554
Nb1 Nb8 2.829042 1_555
Nb1 Nb7 2.829044 1_554
Nb1 Nb2 2.834116 1_554
Nb1 Nb9 2.834120 1_555
Nb1 Nb5 2.834121 1_554
Nb1 Nb4 2.834123 1_555
Nb1 Si0 2.896580 1_555
Nb1 P0 2.917036 1_555
Nb2 P0 2.649457 1_656
Nb2 Si0 2.667309 1_556
Nb3 P0 2.649458 1_555
Nb3 Si0 2.667309 1_455
Nb4 P0 2.649452 1_565
Nb4 Si0 2.667303 1_555
Nb5 P0 2.649456 1_555
Nb5 Si0 2.667307 1_556
Nb6 P0 2.649456 1_556
Nb6 Si0 2.667308 1_445
Nb7 P0 2.649452 1_556
Nb7 Si0 2.667303 1_546
Nb8 P0 2.649456 1_555
Nb8 Si0 2.667308 1_556
Nb9 P0 2.649456 1_666
Nb9 Si0 2.667308 1_555
B0 B1 1.992610 1_455
B0 Nb9 2.409473 1_455
B0 Nb6 2.409473 1_555
B0 Nb8 2.418335 1_455
B0 Nb5 2.418335 1_555
B0 Nb3 2.520881 1_556
B0 Nb4 2.520889 1_556
B0 Nb1 2.521477 1_556
B0 Nb0 2.521478 1_455
B1 Nb5 2.409472 1_655
B1 Nb8 2.409473 1_555
B1 Nb6 2.418335 1_655
B1 Nb9 2.418335 1_555
B1 Nb2 2.520881 1_554
B1 Nb7 2.520889 1_554
B1 Nb1 2.521477 1_555
B1 Nb0 2.521478 1_544
B2 B3 1.992610 1_565
B2 Nb3 2.409471 1_555
B2 Nb2 2.409472 1_565
B2 Nb4 2.418342 1_555
B2 Nb7 2.418342 1_565
B2 Nb9 2.520888 1_555
B2 Nb8 2.520888 1_555
B2 Nb0 2.521477 1_555
B2 Nb1 2.521478 1_555
B3 Nb7 2.409479 1_555
B3 Nb4 2.409480 1_545
B3 Nb2 2.418334 1_555
B3 Nb3 2.418334 1_545
B3 Nb6 2.520888 1_555
B3 Nb5 2.520888 1_555
B3 Nb0 2.521477 1_444
B3 Nb1 2.521478 1_556
