# generated using pymatgen
data_BaMg(Al2Pt)2
_symmetry_space_group_name_H-M   'P 1'
_cell_length_a   13.83523821
_cell_length_b   13.83523949
_cell_length_c   13.83524086
_cell_angle_alpha   144.57057365
_cell_angle_beta   115.58078162
_cell_angle_gamma   75.72279608
_symmetry_Int_Tables_number   1
_chemical_formula_structural   BaMg(Al2Pt)2
_chemical_formula_sum   'Ba8 Mg8 Al32 Pt16'
_cell_volume   1356.38531373
_cell_formula_units_Z   8
loop_
 _symmetry_equiv_pos_site_id
 _symmetry_equiv_pos_as_xyz
  1  'x, y, z'
loop_
 _atom_site_type_symbol
 _atom_site_label
 _atom_site_symmetry_multiplicity
 _atom_site_fract_x
 _atom_site_fract_y
 _atom_site_fract_z
 _atom_site_occupancy
  Ba  Ba0_0  1  0.00000000  0.00000000  0.00000000  1
  Ba  Ba0_1  1  0.00000000  0.00000000  0.50000000  1
  Ba  Ba0_2  1  0.00000000  0.50000000  0.00000000  1
  Ba  Ba0_3  1  0.00000000  0.50000000  0.50000000  1
  Ba  Ba0_4  1  0.50000000  0.00000000  0.00000000  1
  Ba  Ba0_5  1  0.50000000  0.00000000  0.50000000  1
  Ba  Ba0_6  1  0.50000000  0.50000000  0.00000000  1
  Ba  Ba0_7  1  0.50000000  0.50000000  0.50000000  1
  Mg  Mg0_0  1  0.25000000  0.00000000  0.25000000  1
  Mg  Mg0_1  1  0.25000000  0.00000000  0.75000000  1
  Mg  Mg0_2  1  0.25000000  0.50000000  0.25000000  1
  Mg  Mg0_3  1  0.25000000  0.50000000  0.75000000  1
  Mg  Mg0_4  1  0.75000000  0.00000000  0.25000000  1
  Mg  Mg0_5  1  0.75000000  0.00000000  0.75000000  1
  Mg  Mg0_6  1  0.75000000  0.50000000  0.25000000  1
  Mg  Mg0_7  1  0.75000000  0.50000000  0.75000000  1
  Al  Al0_0  1  0.25366557  0.16088639  0.09277918  1
  Al  Al0_1  1  0.25366557  0.16088639  0.59277918  1
  Al  Al0_2  1  0.25366557  0.66088639  0.09277918  1
  Al  Al0_3  1  0.25366557  0.66088639  0.59277918  1
  Al  Al0_4  1  0.75366557  0.16088639  0.09277918  1
  Al  Al0_5  1  0.75366557  0.16088639  0.59277918  1
  Al  Al0_6  1  0.75366557  0.66088639  0.09277918  1
  Al  Al0_7  1  0.75366557  0.66088639  0.59277918  1
  Al  Al1_0  1  0.43189279  0.33911361  0.09277918  1
  Al  Al1_1  1  0.43189279  0.33911361  0.59277918  1
  Al  Al1_2  1  0.43189279  0.83911361  0.09277918  1
  Al  Al1_3  1  0.43189279  0.83911361  0.59277918  1
  Al  Al1_4  1  0.93189279  0.33911361  0.09277918  1
  Al  Al1_5  1  0.93189279  0.33911361  0.59277918  1
  Al  Al1_6  1  0.93189279  0.83911361  0.09277918  1
  Al  Al1_7  1  0.93189279  0.83911361  0.59277918  1
  Al  Al2_0  1  0.06810771  0.16088689  0.40722132  1
  Al  Al2_1  1  0.06810771  0.16088689  0.90722132  1
  Al  Al2_2  1  0.06810771  0.66088689  0.40722132  1
  Al  Al2_3  1  0.06810771  0.66088689  0.90722132  1
  Al  Al2_4  1  0.56810771  0.16088689  0.40722132  1
  Al  Al2_5  1  0.56810771  0.16088689  0.90722132  1
  Al  Al2_6  1  0.56810771  0.66088689  0.40722132  1
  Al  Al2_7  1  0.56810771  0.66088689  0.90722132  1
  Al  Al3_0  1  0.24633443  0.33911361  0.40722132  1
  Al  Al3_1  1  0.24633443  0.33911361  0.90722132  1
  Al  Al3_2  1  0.24633443  0.83911361  0.40722132  1
  Al  Al3_3  1  0.24633443  0.83911361  0.90722132  1
  Al  Al3_4  1  0.74633443  0.33911361  0.40722132  1
  Al  Al3_5  1  0.74633443  0.33911361  0.90722132  1
  Al  Al3_6  1  0.74633443  0.83911361  0.40722132  1
  Al  Al3_7  1  0.74633443  0.83911361  0.90722132  1
  Pt  Pt0_0  1  0.36565870  0.11565870  0.25000000  1
  Pt  Pt0_1  1  0.36565870  0.11565870  0.75000000  1
  Pt  Pt0_2  1  0.36565870  0.61565870  0.25000000  1
  Pt  Pt0_3  1  0.36565870  0.61565870  0.75000000  1
  Pt  Pt0_4  1  0.86565870  0.11565870  0.25000000  1
  Pt  Pt0_5  1  0.86565870  0.11565870  0.75000000  1
  Pt  Pt0_6  1  0.86565870  0.61565870  0.25000000  1
  Pt  Pt0_7  1  0.86565870  0.61565870  0.75000000  1
  Pt  Pt1_0  1  0.13434130  0.38434130  0.25000000  1
  Pt  Pt1_1  1  0.13434130  0.38434130  0.75000000  1
  Pt  Pt1_2  1  0.13434130  0.88434130  0.25000000  1
  Pt  Pt1_3  1  0.13434130  0.88434130  0.75000000  1
  Pt  Pt1_4  1  0.63434130  0.38434130  0.25000000  1
  Pt  Pt1_5  1  0.63434130  0.38434130  0.75000000  1
  Pt  Pt1_6  1  0.63434130  0.88434130  0.25000000  1
  Pt  Pt1_7  1  0.63434130  0.88434130  0.75000000  1
loop_
_geom_bond_atom_site_label_1
_geom_bond_atom_site_label_2
_geom_bond_distance
_geom_bond_site_symmetry_2
Ba0_0 Pt1_0 3.611579 1_555
Ba0_0 Pt0_7 3.611579 1_444
Ba0_0 Pt1_3 3.611579 1_544
Ba0_0 Pt0_4 3.611579 1_455
Ba0_0 Mg0_0 3.687217 1_555
Ba0_0 Mg0_5 3.687217 1_454
Ba0_0 Ba0_3 4.209755 1_544
Ba0_0 Ba0_3 4.209755 1_555
Ba0_1 Pt1_1 3.611579 1_555
Ba0_1 Pt0_6 3.611579 1_445
Ba0_1 Pt1_2 3.611579 1_545
Ba0_1 Pt0_5 3.611579 1_455
Ba0_1 Mg0_1 3.687217 1_555
Ba0_1 Mg0_4 3.687217 1_455
Ba0_1 Ba0_2 4.209755 1_556
Ba0_1 Ba0_2 4.209755 1_545
Ba0_2 Pt1_2 3.611579 1_555
Ba0_2 Pt0_5 3.611579 1_454
Ba0_2 Pt1_1 3.611579 1_554
Ba0_2 Pt0_6 3.611579 1_455
Ba0_2 Mg0_2 3.687217 1_555
Ba0_2 Mg0_7 3.687217 1_454
Ba0_3 Pt1_3 3.611579 1_555
Ba0_3 Pt0_4 3.611579 1_455
Ba0_3 Pt1_0 3.611579 1_555
Ba0_3 Pt0_7 3.611579 1_455
Ba0_3 Mg0_3 3.687217 1_555
Ba0_3 Mg0_6 3.687217 1_455
Ba0_4 Pt1_4 3.611579 1_555
Ba0_4 Pt0_3 3.611579 1_544
Ba0_4 Pt1_7 3.611579 1_544
Ba0_4 Pt0_0 3.611579 1_555
Ba0_4 Mg0_4 3.687217 1_555
Ba0_4 Mg0_1 3.687217 1_554
Ba0_4 Ba0_7 4.209755 1_555
Ba0_4 Ba0_7 4.209755 1_544
Ba0_5 Pt1_5 3.611579 1_555
Ba0_5 Pt0_2 3.611579 1_545
Ba0_5 Pt1_6 3.611579 1_545
Ba0_5 Pt0_1 3.611579 1_555
Ba0_5 Mg0_0 3.687217 1_555
Ba0_5 Mg0_5 3.687217 1_555
Ba0_5 Ba0_6 4.209755 1_545
Ba0_5 Ba0_6 4.209755 1_556
Ba0_6 Pt1_6 3.611579 1_555
Ba0_6 Pt0_1 3.611579 1_554
Ba0_6 Pt1_5 3.611579 1_554
Ba0_6 Pt0_2 3.611579 1_555
Ba0_6 Mg0_3 3.687217 1_554
Ba0_6 Mg0_6 3.687217 1_555
Ba0_7 Pt1_7 3.611579 1_555
Ba0_7 Pt0_0 3.611579 1_555
Ba0_7 Pt1_4 3.611579 1_555
Ba0_7 Pt0_3 3.611579 1_555
Ba0_7 Mg0_7 3.687217 1_555
Ba0_7 Mg0_2 3.687217 1_555
Mg0_0 Pt0_0 2.526654 1_555
Mg0_0 Pt1_2 2.526654 1_545
Mg0_1 Pt0_1 2.526654 1_555
Mg0_1 Pt1_3 2.526654 1_545
Mg0_2 Pt0_2 2.526654 1_555
Mg0_2 Pt1_0 2.526654 1_555
Mg0_3 Pt0_3 2.526654 1_555
Mg0_3 Pt1_1 2.526654 1_555
Mg0_4 Pt0_4 2.526654 1_555
Mg0_4 Pt1_6 2.526654 1_545
Mg0_5 Pt0_5 2.526654 1_555
Mg0_5 Pt1_7 2.526654 1_545
Mg0_6 Pt0_6 2.526654 1_555
Mg0_6 Pt1_4 2.526654 1_555
Mg0_7 Pt0_7 2.526654 1_555
Mg0_7 Pt1_5 2.526654 1_555
Al0_0 Pt0_0 2.520552 1_555
Al0_0 Pt1_0 2.576679 1_555
Al0_0 Pt1_3 2.576680 1_544
Al0_0 Al2_1 2.736772 1_554
Al0_0 Al3_3 2.791465 1_544
Al0_0 Al3_0 2.791468 1_555
Al0_0 Ba0_4 3.687456 1_555
Al0_0 Ba0_7 3.687457 1_555
Al0_0 Ba0_0 3.771674 1_555
Al0_1 Pt0_1 2.520552 1_555
Al0_1 Pt1_1 2.576679 1_555
Al0_1 Pt1_2 2.576680 1_545
Al0_1 Al2_0 2.736772 1_555
Al0_1 Al3_2 2.791465 1_545
Al0_1 Al3_1 2.791468 1_555
Al0_1 Ba0_5 3.687456 1_555
Al0_1 Ba0_6 3.687457 1_556
Al0_1 Ba0_1 3.771674 1_555
Al0_2 Pt0_2 2.520552 1_555
Al0_2 Pt1_2 2.576679 1_555
Al0_2 Pt1_1 2.576680 1_554
Al0_2 Al2_3 2.736772 1_554
Al0_2 Al3_1 2.791465 1_554
Al0_2 Al3_2 2.791468 1_555
Al0_2 Ba0_6 3.687456 1_555
Al0_2 Ba0_5 3.687457 1_565
Al0_2 Ba0_2 3.771674 1_555
Al0_3 Pt0_3 2.520552 1_555
Al0_3 Pt1_3 2.576679 1_555
Al0_3 Pt1_0 2.576680 1_555
Al0_3 Al2_2 2.736772 1_555
Al0_3 Al3_0 2.791465 1_555
Al0_3 Al3_3 2.791468 1_555
Al0_3 Ba0_7 3.687456 1_555
Al0_3 Ba0_4 3.687457 1_566
Al0_3 Ba0_3 3.771674 1_555
Al0_4 Pt0_4 2.520552 1_555
Al0_4 Pt1_4 2.576679 1_555
Al0_4 Pt1_7 2.576680 1_544
Al0_4 Al2_5 2.736772 1_554
Al0_4 Al3_7 2.791465 1_544
Al0_4 Al3_4 2.791468 1_555
Al0_4 Ba0_0 3.687456 1_655
Al0_4 Ba0_3 3.687457 1_655
Al0_4 Ba0_4 3.771674 1_555
Al0_5 Pt0_5 2.520552 1_555
Al0_5 Pt1_5 2.576679 1_555
Al0_5 Pt1_6 2.576680 1_545
Al0_5 Al2_4 2.736772 1_555
Al0_5 Al3_6 2.791465 1_545
Al0_5 Al3_5 2.791468 1_555
Al0_5 Ba0_1 3.687456 1_655
Al0_5 Ba0_2 3.687457 1_656
Al0_5 Ba0_5 3.771674 1_555
Al0_6 Pt0_6 2.520552 1_555
Al0_6 Pt1_6 2.576679 1_555
Al0_6 Pt1_5 2.576680 1_554
Al0_6 Al2_7 2.736772 1_554
Al0_6 Al3_5 2.791465 1_554
Al0_6 Al3_6 2.791468 1_555
Al0_6 Ba0_2 3.687456 1_655
Al0_6 Ba0_1 3.687457 1_665
Al0_6 Ba0_6 3.771674 1_555
Al0_7 Pt0_7 2.520552 1_555
Al0_7 Pt1_7 2.576679 1_555
Al0_7 Pt1_4 2.576680 1_555
Al0_7 Al2_6 2.736772 1_555
Al0_7 Al3_4 2.791465 1_555
Al0_7 Al3_7 2.791468 1_555
Al0_7 Ba0_3 3.687456 1_655
Al0_7 Ba0_0 3.687457 1_666
Al0_7 Ba0_7 3.771674 1_555
Al1_0 Pt1_4 2.520552 1_555
Al1_0 Pt0_2 2.576679 1_555
Al1_0 Pt0_1 2.576680 1_554
Al1_0 Al3_1 2.736772 1_554
Al1_0 Al2_5 2.791465 1_554
Al1_0 Al2_6 2.791468 1_555
Al1_0 Ba0_4 3.687457 1_555
Al1_0 Ba0_7 3.687457 1_555
Al1_0 Ba0_6 3.771674 1_555
Al1_1 Pt1_5 2.520552 1_555
Al1_1 Pt0_3 2.576679 1_555
Al1_1 Pt0_0 2.576680 1_555
Al1_1 Al3_0 2.736772 1_555
Al1_1 Al2_4 2.791465 1_555
Al1_1 Al2_7 2.791468 1_555
Al1_1 Ba0_5 3.687457 1_555
Al1_1 Ba0_6 3.687457 1_556
Al1_1 Ba0_7 3.771674 1_555
Al1_2 Pt1_6 2.520552 1_555
Al1_2 Pt0_0 2.576679 1_565
Al1_2 Pt0_3 2.576680 1_554
Al1_2 Al3_3 2.736772 1_554
Al1_2 Al2_7 2.791465 1_554
Al1_2 Al2_4 2.791468 1_565
Al1_2 Ba0_6 3.687457 1_555
Al1_2 Ba0_5 3.687457 1_565
Al1_2 Ba0_4 3.771674 1_565
Al1_3 Pt1_7 2.520552 1_555
Al1_3 Pt0_1 2.576679 1_565
Al1_3 Pt0_2 2.576680 1_555
Al1_3 Al3_2 2.736772 1_555
Al1_3 Al2_6 2.791465 1_555
Al1_3 Al2_5 2.791468 1_565
Al1_3 Ba0_7 3.687457 1_555
Al1_3 Ba0_4 3.687457 1_566
Al1_3 Ba0_5 3.771674 1_565
Al1_4 Pt1_0 2.520552 1_655
Al1_4 Pt0_6 2.576679 1_555
Al1_4 Pt0_5 2.576680 1_554
Al1_4 Al3_5 2.736772 1_554
Al1_4 Al2_1 2.791465 1_654
Al1_4 Al2_2 2.791468 1_655
Al1_4 Ba0_0 3.687457 1_655
Al1_4 Ba0_3 3.687457 1_655
Al1_4 Ba0_2 3.771674 1_655
Al1_5 Pt1_1 2.520552 1_655
Al1_5 Pt0_7 2.576679 1_555
Al1_5 Pt0_4 2.576680 1_555
Al1_5 Al3_4 2.736772 1_555
Al1_5 Al2_0 2.791465 1_655
Al1_5 Al2_3 2.791468 1_655
Al1_5 Ba0_1 3.687457 1_655
Al1_5 Ba0_2 3.687457 1_656
Al1_5 Ba0_3 3.771674 1_655
Al1_6 Pt1_2 2.520552 1_655
Al1_6 Pt0_4 2.576679 1_565
Al1_6 Pt0_7 2.576680 1_554
Al1_6 Al3_7 2.736772 1_554
Al1_6 Al2_3 2.791465 1_654
Al1_6 Al2_0 2.791468 1_665
Al1_6 Ba0_2 3.687457 1_655
Al1_6 Ba0_1 3.687457 1_665
Al1_6 Ba0_0 3.771674 1_665
Al1_7 Pt1_3 2.520552 1_655
Al1_7 Pt0_5 2.576679 1_565
Al1_7 Pt0_6 2.576680 1_555
Al1_7 Al3_6 2.736772 1_555
Al1_7 Al2_2 2.791465 1_655
Al1_7 Al2_1 2.791468 1_665
Al1_7 Ba0_3 3.687457 1_655
Al1_7 Ba0_0 3.687457 1_666
Al1_7 Ba0_1 3.771674 1_665
Al2_0 Pt0_4 2.520557 1_455
Al2_0 Pt1_1 2.576677 1_555
Al2_0 Pt1_2 2.576680 1_545
Al2_0 Ba0_3 3.687455 1_555
Al2_0 Ba0_0 3.687458 1_555
Al2_0 Ba0_1 3.771678 1_555
Al2_1 Pt0_5 2.520557 1_455
Al2_1 Pt1_0 2.576677 1_556
Al2_1 Pt1_3 2.576680 1_545
Al2_1 Ba0_2 3.687455 1_556
Al2_1 Ba0_1 3.687458 1_555
Al2_1 Ba0_0 3.771678 1_556
Al2_2 Pt0_6 2.520557 1_455
Al2_2 Pt1_3 2.576677 1_555
Al2_2 Pt1_0 2.576680 1_555
Al2_2 Ba0_1 3.687455 1_565
Al2_2 Ba0_2 3.687458 1_555
Al2_2 Ba0_3 3.771678 1_555
Al2_3 Pt0_7 2.520557 1_455
Al2_3 Pt1_2 2.576677 1_556
Al2_3 Pt1_1 2.576680 1_555
Al2_3 Ba0_0 3.687455 1_566
Al2_3 Ba0_3 3.687458 1_555
Al2_3 Ba0_2 3.771678 1_556
Al2_4 Pt0_0 2.520557 1_555
Al2_4 Pt1_5 2.576677 1_555
Al2_4 Pt1_6 2.576680 1_545
Al2_4 Ba0_7 3.687455 1_555
Al2_4 Ba0_4 3.687458 1_555
Al2_4 Ba0_5 3.771678 1_555
Al2_5 Pt0_1 2.520557 1_555
Al2_5 Pt1_4 2.576677 1_556
Al2_5 Pt1_7 2.576680 1_545
Al2_5 Ba0_6 3.687455 1_556
Al2_5 Ba0_5 3.687458 1_555
Al2_5 Ba0_4 3.771678 1_556
Al2_6 Pt0_2 2.520557 1_555
Al2_6 Pt1_7 2.576677 1_555
Al2_6 Pt1_4 2.576680 1_555
Al2_6 Ba0_5 3.687455 1_565
Al2_6 Ba0_6 3.687458 1_555
Al2_6 Ba0_7 3.771678 1_555
Al2_7 Pt0_3 2.520557 1_555
Al2_7 Pt1_6 2.576677 1_556
Al2_7 Pt1_5 2.576680 1_555
Al2_7 Ba0_4 3.687455 1_566
Al2_7 Ba0_7 3.687458 1_555
Al2_7 Ba0_6 3.771678 1_556
Al3_0 Pt1_0 2.520557 1_555
Al3_0 Pt0_3 2.576677 1_555
Al3_0 Pt0_0 2.576680 1_555
Al3_0 Ba0_3 3.687455 1_555
Al3_0 Ba0_0 3.687458 1_555
Al3_0 Ba0_7 3.771677 1_555
Al3_1 Pt1_1 2.520557 1_555
Al3_1 Pt0_2 2.576677 1_556
Al3_1 Pt0_1 2.576680 1_555
Al3_1 Ba0_2 3.687455 1_556
Al3_1 Ba0_1 3.687458 1_555
Al3_1 Ba0_6 3.771677 1_556
Al3_2 Pt1_2 2.520557 1_555
Al3_2 Pt0_1 2.576677 1_565
Al3_2 Pt0_2 2.576680 1_555
Al3_2 Ba0_1 3.687455 1_565
Al3_2 Ba0_2 3.687458 1_555
Al3_2 Ba0_5 3.771677 1_565
Al3_3 Pt1_3 2.520557 1_555
Al3_3 Pt0_0 2.576677 1_566
Al3_3 Pt0_3 2.576680 1_555
Al3_3 Ba0_0 3.687455 1_566
Al3_3 Ba0_3 3.687458 1_555
Al3_3 Ba0_4 3.771677 1_566
Al3_4 Pt1_4 2.520557 1_555
Al3_4 Pt0_7 2.576677 1_555
Al3_4 Pt0_4 2.576680 1_555
Al3_4 Ba0_7 3.687455 1_555
Al3_4 Ba0_4 3.687458 1_555
Al3_4 Ba0_3 3.771677 1_655
Al3_5 Pt1_5 2.520557 1_555
Al3_5 Pt0_6 2.576677 1_556
Al3_5 Pt0_5 2.576680 1_555
Al3_5 Ba0_6 3.687455 1_556
Al3_5 Ba0_5 3.687458 1_555
Al3_5 Ba0_2 3.771677 1_656
Al3_6 Pt1_6 2.520557 1_555
Al3_6 Pt0_5 2.576677 1_565
Al3_6 Pt0_6 2.576680 1_555
Al3_6 Ba0_5 3.687455 1_565
Al3_6 Ba0_6 3.687458 1_555
Al3_6 Ba0_1 3.771677 1_665
Al3_7 Pt1_7 2.520557 1_555
Al3_7 Pt0_4 2.576677 1_566
Al3_7 Pt0_7 2.576680 1_555
Al3_7 Ba0_4 3.687455 1_566
Al3_7 Ba0_7 3.687458 1_555
Al3_7 Ba0_0 3.771677 1_666
