# generated using pymatgen
data_In11TcAgIr3
_symmetry_space_group_name_H-M   'P 1'
_cell_length_a   7.10582121
_cell_length_b   7.06116979
_cell_length_c   7.20808584
_cell_angle_alpha   90.00000000
_cell_angle_beta   90.00000000
_cell_angle_gamma   88.84751474
_symmetry_Int_Tables_number   1
_chemical_formula_structural   In11TcAgIr3
_chemical_formula_sum   'In11 Tc1 Ag1 Ir3'
_cell_volume   361.59549993
_cell_formula_units_Z   1
loop_
 _symmetry_equiv_pos_site_id
 _symmetry_equiv_pos_as_xyz
  1  'x, y, z'
loop_
 _atom_site_type_symbol
 _atom_site_label
 _atom_site_symmetry_multiplicity
 _atom_site_fract_x
 _atom_site_fract_y
 _atom_site_fract_z
 _atom_site_occupancy
  In  In0  1  0.32696452  0.35165963  0.26885615  1
  In  In1  1  0.15559987  0.84007585  0.76111606  1
  In  In2  1  0.15559987  0.84007585  0.23888394  1
  In  In3  1  0.00282170  0.49865361  0.00000000  1
  In  In4  1  0.85129587  0.16476229  0.24042131  1
  In  In5  1  0.85129587  0.16476229  0.75957869  1
  In  In6  1  0.49931867  0.00254434  0.00000000  1
  In  In7  1  0.67060624  0.64497563  0.27097324  1
  In  In8  1  0.67060624  0.64497563  0.72902676  1
  In  In9  1  0.32696452  0.35165963  0.73114385  1
  In  In10  1  0.50090286  0.99925603  0.50000000  1
  Tc  Tc0  1  0.15151513  0.15020914  0.00000000  1
  Ag  Ag0  1  0.99692398  0.51037191  0.50000000  1
  Ir  Ir0  1  0.64308811  0.33558989  0.50000000  1
  Ir  Ir1  1  0.35694648  0.66099447  0.50000000  1
  Ir  Ir2  1  0.83955107  0.83943281  0.00000000  1
loop_
_geom_bond_atom_site_label_1
_geom_bond_atom_site_label_2
_geom_bond_distance
_geom_bond_site_symmetry_2
In0 Tc0 2.721153 1_555
In0 Ir1 2.758810 1_555
In0 Ir0 2.797225 1_555
In0 In3 3.168907 1_555
In0 In10 3.220537 1_545
In0 In7 3.233577 1_555
In0 In9 3.332209 1_555
In0 In6 3.348300 1_555
In1 Ir1 2.667530 1_555
In1 Tc0 2.785478 1_566
In1 Ir2 2.830002 1_456
In1 In5 3.119726 1_465
In1 In3 3.171895 1_556
In2 Ir1 2.667530 1_555
In2 Tc0 2.785478 1_565
In2 Ir2 2.830002 1_455
In2 In4 3.119726 1_465
In2 In3 3.171895 1_555
In3 Ir2 2.650278 1_455
In3 Tc0 2.658101 1_555
In3 In4 3.134202 1_455
In3 In5 3.134202 1_454
In3 In9 3.168907 1_554
In3 In7 3.218247 1_455
In3 In8 3.218247 1_454
In4 Ir0 2.659511 1_555
In4 Tc0 2.748807 1_655
In4 Ir2 2.880112 1_545
In4 In6 3.268936 1_555
In5 Ir0 2.659511 1_555
In5 Tc0 2.748807 1_656
In5 Ir2 2.880112 1_546
In5 In6 3.268936 1_556
In6 Ir2 2.656967 1_545
In6 Tc0 2.662987 1_555
In6 In9 3.348300 1_554
In6 In7 3.398187 1_545
In6 In8 3.398187 1_544
In7 Ir2 2.684747 1_555
In7 Ir0 2.748326 1_555
In7 Ir1 2.774083 1_555
In7 In8 3.301689 1_555
In8 Ir2 2.684747 1_556
In8 Ir0 2.748326 1_555
In8 Ir1 2.774083 1_555
In8 In9 3.233577 1_555
In9 Tc0 2.721153 1_556
In9 Ir1 2.758810 1_555
In9 Ir0 2.797225 1_555
In10 Ir0 2.599522 1_565
In10 Ir1 2.617194 1_555
In10 In8 3.211894 1_555
In10 In7 3.211894 1_555
In10 In9 3.220537 1_565
In10 In5 3.344096 1_565
In10 In4 3.344096 1_565
Ag0 Ir1 2.790216 1_655
Ag0 Ir0 2.823060 1_555
Ag0 In8 2.986073 1_555
Ag0 In7 2.986073 1_555
Ag0 In9 3.070202 1_655
Ag0 In0 3.070202 1_655
Ag0 In1 3.215495 1_655
Ag0 In2 3.215495 1_655
Ag0 In5 3.260198 1_555
Ag0 In4 3.260198 1_555
Ir0 Ir1 3.037409 1_555
