# generated using pymatgen
data_Sr2TaCrO6
_symmetry_space_group_name_H-M   'P 1'
_cell_length_a   7.99349279
_cell_length_b   7.99349223
_cell_length_c   9.78998871
_cell_angle_alpha   114.09484180
_cell_angle_beta   114.09484501
_cell_angle_gamma   89.99999842
_symmetry_Int_Tables_number   1
_chemical_formula_structural   Sr2TaCrO6
_chemical_formula_sum   'Sr8 Ta4 Cr4 O24'
_cell_volume   510.75156060
_cell_formula_units_Z   4
loop_
 _symmetry_equiv_pos_site_id
 _symmetry_equiv_pos_as_xyz
  1  'x, y, z'
loop_
 _atom_site_type_symbol
 _atom_site_label
 _atom_site_symmetry_multiplicity
 _atom_site_fract_x
 _atom_site_fract_y
 _atom_site_fract_z
 _atom_site_occupancy
  Sr  Sr0  1  0.87500000  0.37500000  0.25000100  1
  Sr  Sr1  1  0.62500000  0.62500000  0.75000100  1
  Sr  Sr2  1  0.37500000  0.87500000  0.25000100  1
  Sr  Sr3  1  0.12500000  0.12500000  0.75000100  1
  Sr  Sr4  1  0.62500000  0.12500000  0.74999900  1
  Sr  Sr5  1  0.37500000  0.37500000  0.24999900  1
  Sr  Sr6  1  0.12500000  0.62500000  0.74999900  1
  Sr  Sr7  1  0.87500000  0.87500000  0.24999900  1
  Ta  Ta0  1  0.25000100  0.24999900  0.50000000  1
  Ta  Ta1  1  0.00000100  0.49999900  0.00000000  1
  Ta  Ta2  1  0.75000100  0.74999900  0.50000000  1
  Ta  Ta3  1  0.50000100  0.99999900  0.00000000  1
  Cr  Cr0  1  0.50000000  0.50000000  0.00000000  1
  Cr  Cr1  1  0.25000000  0.75000000  0.50000000  1
  Cr  Cr2  1  0.00000000  0.00000000  0.00000000  1
  Cr  Cr3  1  0.75000000  0.25000000  0.50000000  1
  O  O0  1  0.49906300  0.25000000  0.50000000  1
  O  O1  1  0.24906300  0.50000000  0.00000000  1
  O  O2  1  0.99906300  0.75000000  0.50000000  1
  O  O3  1  0.74906300  0.00000000  0.00000000  1
  O  O4  1  0.12546800  0.12546800  0.25093600  1
  O  O5  1  0.87546800  0.37546800  0.75093600  1
  O  O6  1  0.62546800  0.62546800  0.25093600  1
  O  O7  1  0.37546800  0.87546800  0.75093600  1
  O  O8  1  0.37453100  0.37453200  0.74906300  1
  O  O9  1  0.12453100  0.62453200  0.24906300  1
  O  O10  1  0.87453100  0.87453200  0.74906300  1
  O  O11  1  0.62453100  0.12453200  0.24906300  1
  O  O12  1  0.25000000  0.49906400  0.50000100  1
  O  O13  1  0.00000000  0.74906400  0.00000100  1
  O  O14  1  0.75000000  0.99906400  0.50000100  1
  O  O15  1  0.50000000  0.24906400  0.00000100  1
  O  O16  1  0.00093700  0.25000000  0.50000000  1
  O  O17  1  0.75093700  0.50000000  0.00000000  1
  O  O18  1  0.50093700  0.75000000  0.50000000  1
  O  O19  1  0.25093700  0.00000000  0.00000000  1
  O  O20  1  0.25000100  0.00093700  0.50000000  1
  O  O21  1  0.00000100  0.25093700  0.00000000  1
  O  O22  1  0.75000100  0.50093700  0.50000000  1
  O  O23  1  0.50000100  0.75093700  0.00000000  1
loop_
_geom_bond_atom_site_label_1
_geom_bond_atom_site_label_2
_geom_bond_distance
_geom_bond_site_symmetry_2
Cr0 O6 2.005855 1_555
Cr0 O15 2.005859 1_555
Cr0 O23 2.005863 1_555
Cr0 O8 2.005863 1_554
Cr0 O17 2.005863 1_555
Cr0 O1 2.005863 1_555
Cr1 O7 2.005855 1_555
Cr1 O12 2.005859 1_555
Cr1 O20 2.005863 1_565
Cr1 O9 2.005863 1_555
Cr1 O2 2.005863 1_455
Cr1 O18 2.005863 1_555
Cr2 O4 2.005855 1_555
Cr2 O13 2.005859 1_545
Cr2 O21 2.005863 1_555
Cr2 O10 2.005863 1_444
Cr2 O19 2.005863 1_555
Cr2 O3 2.005863 1_455
Cr3 O5 2.005855 1_555
Cr3 O14 2.005859 1_545
Cr3 O22 2.005863 1_555
Cr3 O11 2.005863 1_555
Cr3 O0 2.005863 1_555
Cr3 O16 2.005863 1_655
O0 Ta0 1.990875 1_555
O0 Sr4 2.826128 1_555
O0 Sr2 2.826133 1_545
O0 Sr1 2.826139 1_555
O0 Sr5 2.826145 1_555
O1 Ta1 1.990875 1_555
O1 Sr5 2.826128 1_555
O1 Sr3 2.826133 1_554
O1 Sr2 2.826139 1_555
O1 Sr6 2.826145 1_554
O2 Ta2 1.990875 1_555
O2 Sr6 2.826128 1_655
O2 Sr0 2.826133 1_555
O2 Sr3 2.826139 1_665
O2 Sr7 2.826145 1_555
O3 Ta3 1.990875 1_545
O3 Sr7 2.826128 1_545
O3 Sr1 2.826133 1_544
O3 Sr0 2.826139 1_555
O3 Sr4 2.826145 1_554
O4 Ta0 1.990891 1_555
O4 Sr7 2.826131 1_445
O4 Sr0 2.826136 1_455
O4 Sr2 2.826136 1_545
O4 Sr5 2.826142 1_555
O5 Ta1 1.990891 1_656
O5 Sr4 2.826131 1_555
O5 Sr1 2.826136 1_555
O5 Sr3 2.826136 1_655
O5 Sr6 2.826142 1_655
O6 Ta2 1.990891 1_555
O6 Sr5 2.826131 1_555
O6 Sr2 2.826136 1_555
O6 Sr0 2.826136 1_555
O6 Sr7 2.826142 1_555
O7 Ta3 1.990891 1_556
O7 Sr6 2.826131 1_555
O7 Sr3 2.826136 1_565
O7 Sr1 2.826136 1_555
O7 Sr4 2.826142 1_565
O8 Ta0 1.990883 1_555
O8 Sr6 2.826131 1_555
O8 Sr1 2.826131 1_555
O8 Sr4 2.826142 1_555
O8 Sr3 2.826142 1_555
O9 Ta1 1.990883 1_555
O9 Sr7 2.826131 1_455
O9 Sr2 2.826131 1_555
O9 Sr5 2.826142 1_555
O9 Sr0 2.826142 1_455
O10 Ta2 1.990883 1_555
O10 Sr4 2.826131 1_565
O10 Sr3 2.826131 1_665
O10 Sr6 2.826142 1_655
O10 Sr1 2.826142 1_555
O11 Ta3 1.990883 1_545
O11 Sr5 2.826131 1_555
O11 Sr0 2.826131 1_555
O11 Sr7 2.826142 1_545
O11 Sr2 2.826142 1_545
O12 Ta0 1.990895 1_555
O12 Sr6 2.826119 1_555
O12 Sr0 2.826136 1_455
O12 Sr1 2.826136 1_555
O12 Sr5 2.826153 1_555
O13 Ta1 1.990895 1_555
O13 Sr7 2.826119 1_455
O13 Sr1 2.826136 1_454
O13 Sr2 2.826136 1_555
O13 Sr6 2.826153 1_554
O14 Ta2 1.990895 1_555
O14 Sr4 2.826119 1_565
O14 Sr2 2.826136 1_555
O14 Sr3 2.826136 1_665
O14 Sr7 2.826153 1_555
O15 Ta3 1.990895 1_545
O15 Sr5 2.826119 1_555
O15 Sr3 2.826136 1_554
O15 Sr0 2.826136 1_555
O15 Sr4 2.826153 1_554
O16 Ta0 1.990891 1_555
O16 Sr0 2.826128 1_455
O16 Sr6 2.826133 1_555
O16 Sr7 2.826139 1_445
O16 Sr3 2.826145 1_555
O17 Ta1 1.990891 1_655
O17 Sr1 2.826128 1_554
O17 Sr7 2.826133 1_555
O17 Sr4 2.826139 1_554
O17 Sr0 2.826145 1_555
O18 Ta2 1.990891 1_555
O18 Sr2 2.826128 1_555
O18 Sr4 2.826133 1_565
O18 Sr5 2.826139 1_555
O18 Sr1 2.826145 1_555
O19 Ta3 1.990891 1_545
O19 Sr3 2.826128 1_554
O19 Sr5 2.826133 1_555
O19 Sr6 2.826139 1_544
O19 Sr2 2.826145 1_545
O20 Ta0 1.990875 1_555
O20 Sr2 2.826122 1_545
O20 Sr4 2.826128 1_555
O20 Sr7 2.826145 1_445
O20 Sr3 2.826150 1_555
O21 Ta1 1.990875 1_555
O21 Sr3 2.826122 1_554
O21 Sr5 2.826128 1_555
O21 Sr4 2.826145 1_454
O21 Sr0 2.826150 1_455
O22 Ta2 1.990875 1_555
O22 Sr0 2.826122 1_555
O22 Sr6 2.826128 1_655
O22 Sr5 2.826145 1_555
O22 Sr1 2.826150 1_555
O23 Ta3 1.990875 1_555
O23 Sr1 2.826122 1_554
O23 Sr7 2.826128 1_555
O23 Sr6 2.826145 1_554
O23 Sr2 2.826150 1_555
