# generated using pymatgen
data_Ta6Be14Co8As
_symmetry_space_group_name_H-M   'P 1'
_cell_length_a   7.56056265
_cell_length_b   7.56056244
_cell_length_c   7.56056236
_cell_angle_alpha   60.00000035
_cell_angle_beta   60.00000124
_cell_angle_gamma   59.99999994
_symmetry_Int_Tables_number   1
_chemical_formula_structural   Ta6Be14Co8As
_chemical_formula_sum   'Ta6 Be14 Co8 As1'
_cell_volume   305.59576278
_cell_formula_units_Z   1
loop_
 _symmetry_equiv_pos_site_id
 _symmetry_equiv_pos_as_xyz
  1  'x, y, z'
loop_
 _atom_site_type_symbol
 _atom_site_label
 _atom_site_symmetry_multiplicity
 _atom_site_fract_x
 _atom_site_fract_y
 _atom_site_fract_z
 _atom_site_occupancy
  Ta  Ta0  1  0.70814792  0.29185208  0.29185208  1
  Ta  Ta1  1  0.29185208  0.70814792  0.70814792  1
  Ta  Ta2  1  0.29185208  0.70814792  0.29185208  1
  Ta  Ta3  1  0.70814792  0.29185208  0.70814792  1
  Ta  Ta4  1  0.29185208  0.29185208  0.70814792  1
  Ta  Ta5  1  0.70814792  0.70814792  0.29185208  1
  Be  Be0  1  0.32632812  0.32632812  0.32632812  1
  Be  Be1  1  0.67367188  0.67367188  0.67367188  1
  Be  Be2  1  0.32632812  0.32632812  0.02101263  1
  Be  Be3  1  0.32632812  0.02101263  0.32632812  1
  Be  Be4  1  0.67367188  0.67367188  0.97898737  1
  Be  Be5  1  0.67367188  0.97898737  0.67367188  1
  Be  Be6  1  0.02101263  0.32632812  0.32632812  1
  Be  Be7  1  0.97898737  0.67367188  0.67367188  1
  Be  Be8  1  0.50000000  0.00000000  0.00000000  1
  Be  Be9  1  0.00000000  0.50000000  0.50000000  1
  Be  Be10  1  0.00000000  0.50000000  0.00000000  1
  Be  Be11  1  0.50000000  0.00000000  0.50000000  1
  Be  Be12  1  0.00000000  0.00000000  0.50000000  1
  Be  Be13  1  0.50000000  0.50000000  0.00000000  1
  Co  Co0  1  0.12485585  0.12485585  0.12485585  1
  Co  Co1  1  0.87514415  0.87514515  0.87514415  1
  Co  Co2  1  0.12485585  0.12485585  0.62543244  1
  Co  Co3  1  0.12485585  0.62543244  0.12485485  1
  Co  Co4  1  0.87514415  0.87514515  0.37456756  1
  Co  Co5  1  0.87514415  0.37456756  0.87514415  1
  Co  Co6  1  0.62543244  0.12485585  0.12485585  1
  Co  Co7  1  0.37456756  0.87514415  0.87514415  1
  As  As0  1  0.00000000  0.00000000  0.00000000  1
loop_
_geom_bond_atom_site_label_1
_geom_bond_atom_site_label_2
_geom_bond_distance
_geom_bond_site_symmetry_2
Be0 Be11 2.186399 1_555
Be0 Be13 2.186399 1_555
Be0 Be9 2.186399 1_555
Be0 Co6 2.277150 1_555
Be0 Co2 2.277150 1_555
Be0 Co3 2.277154 1_555
Be0 Be2 2.308357 1_555
Be0 Be3 2.308357 1_555
Be0 Be6 2.308357 1_555
Be0 Ta4 2.651860 1_555
Be0 Ta2 2.651860 1_555
Be0 Ta0 2.651860 1_555
Be1 Be11 2.186399 1_565
Be1 Be13 2.186399 1_556
Be1 Be9 2.186399 1_655
Be1 Co5 2.277150 1_555
Be1 Co7 2.277150 1_555
Be1 Co4 2.277154 1_555
Be1 Be4 2.308357 1_555
Be1 Be5 2.308357 1_555
Be1 Be7 2.308357 1_555
Be1 Ta5 2.651860 1_555
Be1 Ta3 2.651860 1_555
Be1 Ta1 2.651860 1_555
Be2 Be8 2.186391 1_555
Be2 Co0 2.277143 1_555
Be2 Co3 2.277158 1_555
Be2 Co6 2.277162 1_555
Be2 Be3 2.308357 1_555
Be2 Be6 2.308357 1_555
Be2 Ta4 2.651837 1_554
Be2 Ta1 2.651851 1_554
Be2 Ta3 2.651851 1_554
Be3 Be8 2.186391 1_555
Be3 Co0 2.277143 1_555
Be3 Co2 2.277162 1_555
Be3 Co6 2.277162 1_555
Be3 Be6 2.308357 1_555
Be3 Ta2 2.651837 1_545
Be3 Ta1 2.651851 1_545
Be3 Ta5 2.651851 1_545
Be4 Be8 2.186391 1_566
Be4 Co1 2.277149 1_555
Be4 Co5 2.277162 1_555
Be4 Co7 2.277162 1_555
Be4 Be5 2.308357 1_555
Be4 Be7 2.308357 1_555
Be4 Ta5 2.651837 1_556
Be4 Ta0 2.651851 1_556
Be4 Ta2 2.651851 1_556
Be5 Be8 2.186391 1_566
Be5 Co1 2.277145 1_555
Be5 Co4 2.277158 1_555
Be5 Co7 2.277162 1_555
Be5 Be7 2.308357 1_555
Be5 Ta3 2.651837 1_565
Be5 Ta0 2.651851 1_565
Be5 Ta4 2.651851 1_565
Be6 Be9 2.186411 1_555
Be6 Co0 2.277143 1_555
Be6 Co2 2.277162 1_555
Be6 Co3 2.277162 1_555
Be6 Ta0 2.651837 1_455
Be6 Ta5 2.651851 1_455
Be6 Ta3 2.651851 1_455
Be7 Be9 2.186411 1_655
Be7 Co1 2.277149 1_555
Be7 Co4 2.277162 1_555
Be7 Co5 2.277162 1_555
Be7 Ta1 2.651837 1_655
Be7 Ta4 2.651851 1_655
Be7 Ta2 2.651851 1_655
Be8 Co7 2.315831 1_544
Be8 Co6 2.315831 1_555
Be8 Co0 2.315831 1_555
Be8 Co1 2.315831 1_544
Be8 Ta5 2.710261 1_545
Be8 Ta4 2.710261 1_554
Be8 Ta3 2.710261 1_554
Be8 Ta2 2.710261 1_545
Be9 Co2 2.315831 1_555
Be9 Co5 2.315831 1_455
Be9 Co4 2.315837 1_455
Be9 Co3 2.315837 1_555
Be9 Ta4 2.710261 1_555
Be9 Ta5 2.710261 1_455
Be9 Ta2 2.710261 1_555
Be9 Ta3 2.710261 1_455
Be10 Be6 2.186391 1_555
Be10 Be7 2.186391 1_454
Be10 Be2 2.186391 1_555
Be10 Be4 2.186391 1_454
Be10 Co3 2.315825 1_555
Be10 Co0 2.315831 1_555
Be10 Co5 2.315831 1_454
Be10 Co1 2.315837 1_454
Be10 Ta5 2.710261 1_455
Be10 Ta4 2.710261 1_554
Be10 Ta1 2.710261 1_554
Be10 Ta0 2.710261 1_455
Be11 Be5 2.186411 1_545
Be11 Be3 2.186411 1_555
Be11 Co7 2.315831 1_545
Be11 Co6 2.315831 1_555
Be11 Co2 2.315831 1_555
Be11 Co4 2.315831 1_545
Be11 Ta4 2.710261 1_555
Be11 Ta5 2.710261 1_545
Be11 Ta0 2.710261 1_555
Be11 Ta1 2.710261 1_545
Be12 Be6 2.186391 1_555
Be12 Be7 2.186391 1_445
Be12 Be3 2.186391 1_555
Be12 Be5 2.186391 1_445
Be12 Co4 2.315825 1_445
Be12 Co2 2.315831 1_555
Be12 Co0 2.315831 1_555
Be12 Co1 2.315831 1_445
Be12 Ta3 2.710261 1_455
Be12 Ta2 2.710261 1_545
Be12 Ta1 2.710261 1_545
Be12 Ta0 2.710261 1_455
Be13 Be4 2.186411 1_554
Be13 Be2 2.186411 1_555
Be13 Co6 2.315831 1_555
Be13 Co7 2.315831 1_554
Be13 Co5 2.315831 1_554
Be13 Co3 2.315831 1_555
Be13 Ta0 2.710261 1_555
Be13 Ta1 2.710261 1_554
Be13 Ta2 2.710261 1_555
Be13 Ta3 2.710261 1_554
Co0 Ta2 2.598584 1_545
Co0 Ta4 2.598584 1_554
Co0 Ta0 2.598584 1_455
Co1 Ta3 2.598579 1_565
Co1 Ta5 2.598585 1_556
Co1 Ta1 2.598585 1_655
Co2 Ta1 2.598584 1_545
Co2 Ta4 2.598584 1_555
Co2 Ta3 2.598584 1_455
Co3 Ta1 2.598578 1_554
Co3 Ta5 2.598584 1_455
Co3 Ta2 2.598591 1_555
Co4 Ta0 2.598578 1_565
Co4 Ta2 2.598584 1_655
Co4 Ta5 2.598591 1_555
Co5 Ta0 2.598584 1_556
Co5 Ta3 2.598584 1_555
Co5 Ta4 2.598584 1_655
Co6 Ta0 2.598584 1_555
Co6 Ta3 2.598584 1_554
Co6 Ta5 2.598584 1_545
Co7 Ta1 2.598584 1_555
Co7 Ta2 2.598584 1_556
Co7 Ta4 2.598584 1_565
As0 Co1 2.312264 1_444
As0 Co5 2.312270 1_454
As0 Co3 2.312270 1_545
As0 Co0 2.312271 1_555
As0 Co2 2.312271 1_554
As0 Co4 2.312271 1_445
As0 Co6 2.312271 1_455
As0 Co7 2.312271 1_544
