# generated using pymatgen
data_Y6InGaCo
_symmetry_space_group_name_H-M   'P 1'
_cell_length_a   8.55536241
_cell_length_b   8.55535464
_cell_length_c   8.55536398
_cell_angle_alpha   112.99376375
_cell_angle_beta   110.43369979
_cell_angle_gamma   105.08468304
_symmetry_Int_Tables_number   1
_chemical_formula_structural   Y6InGaCo
_chemical_formula_sum   'Y12 In2 Ga2 Co2'
_cell_volume   479.69261740
_cell_formula_units_Z   2
loop_
 _symmetry_equiv_pos_site_id
 _symmetry_equiv_pos_as_xyz
  1  'x, y, z'
loop_
 _atom_site_type_symbol
 _atom_site_label
 _atom_site_symmetry_multiplicity
 _atom_site_fract_x
 _atom_site_fract_y
 _atom_site_fract_z
 _atom_site_occupancy
  Y  Y0  1  0.43905686  0.24114436  0.19791251  1
  Y  Y1  1  0.56094314  0.75885564  0.80208749  1
  Y  Y2  1  0.04323185  0.24114436  0.80208749  1
  Y  Y3  1  0.95676815  0.75885564  0.19791251  1
  Y  Y4  1  0.18511065  0.28858754  0.47369819  1
  Y  Y5  1  0.81488935  0.71141246  0.52630181  1
  Y  Y6  1  0.18511065  0.71141246  0.89652411  1
  Y  Y7  1  0.81488935  0.28858754  0.10347589  1
  Y  Y8  1  0.30429822  0.61834264  0.31404642  1
  Y  Y9  1  0.69570178  0.38165736  0.68595358  1
  Y  Y10  1  0.30429622  0.99025080  0.68595458  1
  Y  Y11  1  0.69570378  0.00974920  0.31404542  1
  In  In0  1  0.50000000  0.50000000  0.00000000  1
  In  In1  1  0.00000000  0.00000000  0.00000000  1
  Ga  Ga0  1  0.35197575  1.00000000  0.35197575  1
  Ga  Ga1  1  0.64802425  0.00000000  0.64802425  1
  Co  Co0  1  0.10399087  0.60399087  0.50000000  1
  Co  Co1  1  0.89600913  0.39600913  0.50000000  1
loop_
_geom_bond_atom_site_label_1
_geom_bond_atom_site_label_2
_geom_bond_distance
_geom_bond_site_symmetry_2
In0 Y3 3.314858 1_555
In0 Y2 3.314858 1_554
In0 Y1 3.314858 1_554
In0 Y0 3.314858 1_555
In0 Y8 3.597955 1_555
In0 Y9 3.597955 1_554
In0 Y11 3.597956 1_565
In0 Y10 3.597956 1_544
In0 Y6 3.665325 1_554
In0 Y7 3.665325 1_555
In0 Y4 3.665327 1_554
In0 Y5 3.665327 1_555
In1 Y1 3.166906 1_444
In1 Y0 3.166906 1_555
In1 Y2 3.166906 1_554
In1 Y3 3.166906 1_445
In1 Y7 3.270180 1_455
In1 Y6 3.270180 1_544
In1 Y5 3.270182 1_444
In1 Y4 3.270182 1_555
Ga0 Ga1 2.889786 1_565
Ga0 Y3 2.925532 1_455
Ga0 Y0 2.925533 1_565
Ga0 Y9 3.052835 1_565
Ga0 Y8 3.052844 1_555
Ga0 Y11 3.052850 1_565
Ga0 Y10 3.052850 1_555
Ga0 Y6 3.175241 1_554
Ga0 Y4 3.175247 1_565
Ga1 Y2 2.925532 1_655
Ga1 Y1 2.925533 1_545
Ga1 Y8 3.052835 1_545
Ga1 Y9 3.052844 1_555
Ga1 Y10 3.052850 1_545
Ga1 Y11 3.052850 1_555
Ga1 Y7 3.175241 1_556
Ga1 Y5 3.175247 1_545
Co0 Co1 2.164322 1_455
Co0 Y10 2.725709 1_555
Co0 Y8 2.725721 1_555
Co0 Y4 2.902236 1_555
Co0 Y5 2.902238 1_455
Co0 Y7 2.902240 1_455
Co0 Y6 2.902246 1_555
Co0 Y1 3.360385 1_555
Co0 Y3 3.360386 1_455
Co1 Y11 2.725709 1_555
Co1 Y9 2.725721 1_555
Co1 Y5 2.902236 1_555
Co1 Y4 2.902238 1_655
Co1 Y6 2.902240 1_655
Co1 Y7 2.902246 1_555
Co1 Y0 3.360385 1_555
Co1 Y2 3.360386 1_655
