# generated using pymatgen
data_Mn2CuO4
_symmetry_space_group_name_H-M   'P 1'
_cell_length_a   6.11319617
_cell_length_b   6.11319617
_cell_length_c   14.74257279
_cell_angle_alpha   87.05947953
_cell_angle_beta   87.05947953
_cell_angle_gamma   58.12699615
_symmetry_Int_Tables_number   1
_chemical_formula_structural   Mn2CuO4
_chemical_formula_sum   'Mn12 Cu6 O24'
_cell_volume   467.06918480
_cell_formula_units_Z   6
loop_
 _symmetry_equiv_pos_site_id
 _symmetry_equiv_pos_as_xyz
  1  'x, y, z'
loop_
 _atom_site_type_symbol
 _atom_site_label
 _atom_site_symmetry_multiplicity
 _atom_site_fract_x
 _atom_site_fract_y
 _atom_site_fract_z
 _atom_site_occupancy
  Mn  Mn0  1  0.00514800  0.00514800  0.00435800  1
  Mn  Mn1  1  0.33510800  0.83139400  0.79139500  1
  Mn  Mn2  1  0.83139400  0.33510800  0.79139500  1
  Mn  Mn3  1  0.33910400  0.33910400  0.67034300  1
  Mn  Mn4  1  0.83239200  0.83239200  0.79252800  1
  Mn  Mn5  1  0.67024700  0.16751100  0.45804800  1
  Mn  Mn6  1  0.16751100  0.67024700  0.45804800  1
  Mn  Mn7  1  0.16708800  0.16708800  0.45904500  1
  Mn  Mn8  1  0.99843400  0.49838200  0.12538100  1
  Mn  Mn9  1  0.49838200  0.99843400  0.12538100  1
  Mn  Mn10  1  0.33269100  0.33269100  0.29222800  1
  Mn  Mn11  1  0.49911800  0.49911800  0.12579100  1
  Cu  Cu0  1  0.32996700  0.32996700  0.91303300  1
  Cu  Cu1  1  0.66514400  0.66514400  0.57772500  1
  Cu  Cu2  1  0.66641800  0.66641800  0.95778300  1
  Cu  Cu3  1  0.99625900  0.99625900  0.24893700  1
  Cu  Cu4  1  0.00161800  0.00161800  0.62437900  1
  Cu  Cu5  1  0.66953700  0.66953700  0.33571300  1
  O  O0  1  0.50760100  0.50760100  0.86627300  1
  O  O1  1  0.50774900  0.96486300  0.86527200  1
  O  O2  1  0.65590100  0.65590100  0.71570500  1
  O  O3  1  0.84426900  0.84426900  0.53477400  1
  O  O4  1  0.70407200  0.15460900  0.71824100  1
  O  O5  1  0.96486300  0.50774900  0.86527200  1
  O  O6  1  0.00944100  0.00944100  0.86592700  1
  O  O7  1  0.84610300  0.30303000  0.53354000  1
  O  O8  1  0.15460900  0.70407200  0.71824100  1
  O  O9  1  0.99284100  0.99284100  0.38359300  1
  O  O10  1  0.17534500  0.17534500  0.20034000  1
  O  O11  1  0.03641000  0.48622800  0.38032000  1
  O  O12  1  0.15567700  0.15567700  0.71604800  1
  O  O13  1  0.30303000  0.84610300  0.53354000  1
  O  O14  1  0.34267400  0.34267400  0.53130900  1
  O  O15  1  0.17863800  0.62849800  0.20217900  1
  O  O16  1  0.48622800  0.03641000  0.38032000  1
  O  O17  1  0.32506500  0.32506500  0.04914300  1
  O  O18  1  0.62849800  0.17863800  0.20217900  1
  O  O19  1  0.49038500  0.49038500  0.38086000  1
  O  O20  1  0.36978200  0.81887000  0.05111200  1
  O  O21  1  0.67355400  0.67355400  0.20123300  1
  O  O22  1  0.81887000  0.36978200  0.05111200  1
  O  O23  1  0.82292200  0.82292200  0.05195000  1
loop_
_geom_bond_atom_site_label_1
_geom_bond_atom_site_label_2
_geom_bond_distance
_geom_bond_site_symmetry_2
Mn0 O23 2.030853 1_445
Mn0 O22 2.033972 1_455
Mn0 O20 2.033972 1_545
Mn0 O6 2.038651 1_554
Mn1 O2 1.979482 1_555
Mn1 O0 1.984824 1_555
Mn1 O6 1.991333 1_565
Mn1 O12 1.992400 1_565
Mn1 O1 2.020966 1_555
Mn1 O8 2.025267 1_555
Mn2 O2 1.979482 1_555
Mn2 O0 1.984824 1_555
Mn2 O6 1.991333 1_655
Mn2 O12 1.992400 1_655
Mn2 O5 2.020966 1_555
Mn2 O4 2.025267 1_555
Mn3 O12 2.035092 1_555
Mn3 O8 2.042310 1_555
Mn3 O4 2.042310 1_555
Mn3 O14 2.047834 1_555
Mn4 O1 1.979400 1_555
Mn4 O5 1.979400 1_555
Mn4 O4 1.982366 1_565
Mn4 O8 1.982366 1_655
Mn4 O6 2.234118 1_665
Mn4 O2 2.256316 1_555
Mn5 O9 1.976977 1_545
Mn5 O14 1.988825 1_555
Mn5 O3 1.997506 1_545
Mn5 O19 2.001434 1_555
Mn5 O7 2.058791 1_555
Mn5 O16 2.097510 1_555
Mn6 O9 1.976977 1_455
Mn6 O14 1.988825 1_555
Mn6 O3 1.997506 1_455
Mn6 O19 2.001434 1_555
Mn6 O13 2.058791 1_555
Mn6 O11 2.097510 1_555
Mn7 O7 1.974226 1_455
Mn7 O13 1.974226 1_545
Mn7 O16 2.002079 1_555
Mn7 O11 2.002079 1_555
Mn7 O14 2.211506 1_555
Mn7 O9 2.224431 1_445
Mn8 O23 1.977387 1_555
Mn8 O10 1.983399 1_655
Mn8 O21 1.997648 1_555
Mn8 O17 2.007626 1_655
Mn8 O22 2.035889 1_555
Mn8 O15 2.067344 1_655
Mn9 O23 1.977387 1_555
Mn9 O10 1.983399 1_565
Mn9 O21 1.997648 1_555
Mn9 O17 2.007626 1_565
Mn9 O20 2.035889 1_555
Mn9 O18 2.067344 1_565
Mn10 O11 1.984065 1_555
Mn10 O16 1.984065 1_555
Mn10 O18 2.000704 1_555
Mn10 O15 2.000704 1_555
Mn10 O19 2.192243 1_555
Mn10 O10 2.220374 1_555
Mn11 O20 1.973442 1_555
Mn11 O22 1.973442 1_555
Mn11 O18 1.990142 1_555
Mn11 O15 1.990142 1_555
Mn11 O21 2.226100 1_555
Mn11 O17 2.232374 1_555
Cu0 O0 1.981250 1_555
Cu0 O17 2.004219 1_556
Cu0 O5 2.044393 1_455
Cu0 O1 2.044393 1_545
Cu1 O3 1.980697 1_555
Cu1 O7 2.009049 1_555
Cu1 O13 2.009049 1_555
Cu1 O2 2.030778 1_555
Cu2 O20 2.034912 1_556
Cu2 O22 2.034912 1_556
Cu2 O5 2.034967 1_555
Cu2 O1 2.034967 1_555
Cu2 O0 2.229237 1_555
Cu2 O23 2.235442 1_556
Cu3 O9 1.983367 1_555
Cu3 O10 2.003806 1_665
Cu3 O18 2.050766 1_565
Cu3 O15 2.050766 1_655
Cu4 O13 2.029754 1_545
Cu4 O7 2.029754 1_455
Cu4 O4 2.043544 1_455
Cu4 O8 2.043544 1_545
Cu4 O12 2.190482 1_555
Cu4 O3 2.198516 1_445
Cu5 O21 1.980525 1_555
Cu5 O19 1.989728 1_555
Cu5 O16 2.034637 1_565
Cu5 O11 2.034637 1_655
