# generated using pymatgen
data_Na4MnTcBr12
_symmetry_space_group_name_H-M   'P 1'
_cell_length_a   7.25684685
_cell_length_b   6.87246502
_cell_length_c   12.02476836
_cell_angle_alpha   56.23710241
_cell_angle_beta   89.97083779
_cell_angle_gamma   89.65990794
_symmetry_Int_Tables_number   1
_chemical_formula_structural   Na4MnTcBr12
_chemical_formula_sum   'Na4 Mn1 Tc1 Br12'
_cell_volume   498.54935882
_cell_formula_units_Z   1
loop_
 _symmetry_equiv_pos_site_id
 _symmetry_equiv_pos_as_xyz
  1  'x, y, z'
loop_
 _atom_site_type_symbol
 _atom_site_label
 _atom_site_symmetry_multiplicity
 _atom_site_fract_x
 _atom_site_fract_y
 _atom_site_fract_z
 _atom_site_occupancy
  Na  Na0  1  0.40510774  0.71294907  0.25811975  1
  Na  Na1  1  0.90609473  0.29851384  0.23879069  1
  Na  Na2  1  0.09390527  0.70148616  0.76120931  1
  Na  Na3  1  0.59489226  0.28705093  0.74188025  1
  Mn  Mn0  1  0.00000000  0.00000000  0.00000000  1
  Tc  Tc0  1  0.50000000  0.00000000  0.50000000  1
  Br  Br0  1  0.81476812  0.34707599  0.94133926  1
  Br  Br1  1  0.52259821  0.12860984  0.25875685  1
  Br  Br2  1  0.47740179  0.87139016  0.74124315  1
  Br  Br3  1  0.28585558  0.22681633  0.94557731  1
  Br  Br4  1  0.31609213  0.64551828  0.55524983  1
  Br  Br5  1  0.20352771  0.22897608  0.44808635  1
  Br  Br6  1  0.18523188  0.65292401  0.05866074  1
  Br  Br7  1  0.79647229  0.77102392  0.55191365  1
  Br  Br8  1  0.71414442  0.77318367  0.05442269  1
  Br  Br9  1  0.02223644  0.88697756  0.23313409  1
  Br  Br10  1  0.97776356  0.11302244  0.76686591  1
  Br  Br11  1  0.68390787  0.35448172  0.44475017  1
loop_
_geom_bond_atom_site_label_1
_geom_bond_atom_site_label_2
_geom_bond_distance
_geom_bond_site_symmetry_2
Br0 Mn0 2.467122 1_656
Br0 Na2 2.986217 1_655
Br0 Na3 3.095180 1_555
Br0 Na1 3.466547 1_556
Br1 Tc0 2.524798 1_555
Br1 Na1 2.981999 1_555
Br1 Na0 2.990066 1_545
Br2 Tc0 2.524798 1_565
Br2 Na2 2.981999 1_555
Br2 Na3 2.990066 1_565
Br3 Mn0 2.462602 1_556
Br3 Na2 3.067172 1_555
Br3 Na3 3.174708 1_555
Br3 Na0 3.543961 1_546
Br4 Tc0 2.529053 1_565
Br4 Na3 2.999850 1_555
Br4 Na2 3.150988 1_555
Br4 Na0 3.399796 1_555
Br5 Tc0 2.522706 1_555
Br5 Na1 3.142857 1_455
Br5 Na0 3.167031 1_555
Br5 Na2 3.579256 1_545
Br6 Mn0 2.467122 1_565
Br6 Na1 2.986217 1_455
Br6 Na0 3.095180 1_555
Br6 Na2 3.466547 1_554
Br7 Tc0 2.522706 1_565
Br7 Na2 3.142857 1_655
Br7 Na3 3.167031 1_555
Br7 Na1 3.579256 1_565
Br8 Mn0 2.462602 1_665
Br8 Na1 3.067172 1_555
Br8 Na0 3.174708 1_555
Br8 Na3 3.543961 1_564
Br9 Mn0 2.463121 1_565
Br9 Na0 2.966885 1_555
Br9 Na1 2.983212 1_465
Br10 Mn0 2.463121 1_656
Br10 Na3 2.966885 1_555
Br10 Na2 2.983212 1_645
Br11 Tc0 2.529053 1_555
Br11 Na0 2.999850 1_555
Br11 Na1 3.150988 1_555
Br11 Na3 3.399796 1_555
