# generated using pymatgen
data_Sc15Al(Pt2O)4
_symmetry_space_group_name_H-M   'P 1'
_cell_length_a   8.61385850
_cell_length_b   8.69944257
_cell_length_c   8.61385946
_cell_angle_alpha   60.32490441
_cell_angle_beta   60.00000009
_cell_angle_gamma   60.32490005
_symmetry_Int_Tables_number   1
_chemical_formula_structural   Sc15Al(Pt2O)4
_chemical_formula_sum   'Sc15 Al1 Pt8 O4'
_cell_volume   458.65628785
_cell_formula_units_Z   1
loop_
 _symmetry_equiv_pos_site_id
 _symmetry_equiv_pos_as_xyz
  1  'x, y, z'
loop_
 _atom_site_type_symbol
 _atom_site_label
 _atom_site_symmetry_multiplicity
 _atom_site_fract_x
 _atom_site_fract_y
 _atom_site_fract_z
 _atom_site_occupancy
  Sc  Sc0  1  0.12500000  0.62500000  0.62500000  1
  Sc  Sc1  1  0.62500000  0.62500000  0.12500000  1
  Sc  Sc2  1  0.62500000  0.62500000  0.62500000  1
  Sc  Sc3  1  0.81768353  0.81762973  0.18234387  1
  Sc  Sc4  1  0.18752879  0.18137686  0.81554767  1
  Sc  Sc5  1  0.81554767  0.18137686  0.81554767  1
  Sc  Sc6  1  0.18234387  0.81762973  0.18234387  1
  Sc  Sc7  1  0.18234387  0.81762973  0.81768353  1
  Sc  Sc8  1  0.81554767  0.18137686  0.18752879  1
  Sc  Sc9  1  0.43231647  0.43237027  0.06765613  1
  Sc  Sc10  1  0.06247121  0.06862314  0.43445233  1
  Sc  Sc11  1  0.43445233  0.06862314  0.43445233  1
  Sc  Sc12  1  0.06765613  0.43237027  0.06765613  1
  Sc  Sc13  1  0.06765613  0.43237027  0.43231647  1
  Sc  Sc14  1  0.43445233  0.06862314  0.06247121  1
  Al  Al0  1  0.62500000  0.12500000  0.62500000  1
  Pt  Pt0  1  0.76257753  0.40256116  0.41742966  1
  Pt  Pt1  1  0.40906943  0.77278972  0.40906943  1
  Pt  Pt2  1  0.41742966  0.40256116  0.76257753  1
  Pt  Pt3  1  0.41742966  0.40256116  0.41742966  1
  Pt  Pt4  1  0.48742247  0.84743884  0.83257034  1
  Pt  Pt5  1  0.84093057  0.47721028  0.84093057  1
  Pt  Pt6  1  0.83257034  0.84743884  0.48742247  1
  Pt  Pt7  1  0.83257034  0.84743884  0.83257034  1
  O  O0  1  0.62500000  0.12500000  0.12500000  1
  O  O1  1  0.12500000  0.62500000  0.12500000  1
  O  O2  1  0.12500000  0.12500000  0.62500000  1
  O  O3  1  0.12500000  0.12500000  0.12500000  1
loop_
_geom_bond_atom_site_label_1
_geom_bond_atom_site_label_2
_geom_bond_distance
_geom_bond_site_symmetry_2
Al0 Pt2 2.621323 1_555
Al0 Pt6 2.621323 1_545
Al0 Pt0 2.621323 1_555
Al0 Pt4 2.621323 1_545
Al0 Pt7 2.621333 1_545
Al0 Pt3 2.621333 1_555
Pt0 Sc1 2.717004 1_555
Pt0 Sc2 2.717017 1_555
Pt0 Sc10 2.767745 1_655
Pt0 Sc12 2.834471 1_655
Pt0 Sc13 2.834476 1_655
Pt1 Sc0 2.701106 1_555
Pt1 Sc1 2.701106 1_555
Pt1 Sc2 2.701120 1_555
Pt1 Sc10 2.807323 1_565
Pt1 Sc14 2.807323 1_565
Pt1 Sc11 2.807328 1_565
Pt1 Sc6 3.175834 1_555
Pt1 Sc3 3.175856 1_555
Pt1 Sc7 3.175856 1_555
Pt2 Sc0 2.717004 1_555
Pt2 Sc2 2.717017 1_555
Pt2 Sc14 2.767746 1_556
Pt2 Sc12 2.834471 1_556
Pt2 Sc9 2.834476 1_556
Pt3 Sc0 2.717013 1_555
Pt3 Sc1 2.717013 1_555
Pt3 Sc11 2.767742 1_555
Pt3 Sc13 2.834467 1_555
Pt3 Sc9 2.834467 1_555
Pt4 Sc1 2.717004 1_556
Pt4 Sc2 2.717017 1_555
Pt4 Sc4 2.767745 1_565
Pt4 Sc6 2.834471 1_556
Pt4 Sc7 2.834476 1_555
Pt5 Sc0 2.701106 1_655
Pt5 Sc1 2.701106 1_556
Pt5 Sc2 2.701120 1_555
Pt5 Sc4 2.807323 1_655
Pt5 Sc8 2.807323 1_556
Pt5 Sc5 2.807328 1_555
Pt5 Sc12 3.175834 1_656
Pt5 Sc9 3.175856 1_556
Pt5 Sc13 3.175856 1_655
Pt6 Sc0 2.717004 1_655
Pt6 Sc2 2.717017 1_555
Pt6 Sc8 2.767746 1_565
Pt6 Sc6 2.834471 1_655
Pt6 Sc3 2.834476 1_555
Pt7 Sc0 2.717013 1_655
Pt7 Sc1 2.717013 1_556
Pt7 Sc5 2.767742 1_565
Pt7 Sc7 2.834467 1_655
Pt7 Sc3 2.834467 1_556
O0 Sc11 2.273179 1_555
O0 Sc5 2.273179 1_554
O0 Sc8 2.273185 1_555
O0 Sc14 2.273185 1_555
O0 Sc9 2.294856 1_555
O0 Sc3 2.294856 1_545
O1 Sc9 2.275821 1_555
O1 Sc3 2.275821 1_455
O1 Sc13 2.275821 1_555
O1 Sc7 2.275821 1_554
O1 Sc6 2.275827 1_555
O1 Sc12 2.275827 1_555
O2 Sc11 2.273179 1_555
O2 Sc5 2.273179 1_455
O2 Sc4 2.273185 1_555
O2 Sc10 2.273185 1_555
O2 Sc13 2.294857 1_555
O2 Sc7 2.294857 1_545
O3 Sc14 2.273177 1_555
O3 Sc8 2.273177 1_455
O3 Sc10 2.273177 1_555
O3 Sc4 2.273177 1_554
O3 Sc12 2.294854 1_555
O3 Sc6 2.294854 1_545
