# generated using pymatgen
data_Ca11Al14O32
_symmetry_space_group_name_H-M   'P 1'
_cell_length_a   10.39730071
_cell_length_b   10.39725787
_cell_length_c   11.95378566
_cell_angle_alpha   54.89487226
_cell_angle_beta   54.89474178
_cell_angle_gamma   70.46165328
_symmetry_Int_Tables_number   1
_chemical_formula_structural   Ca11Al14O32
_chemical_formula_sum   'Ca11 Al14 O32'
_cell_volume   864.86516940
_cell_formula_units_Z   1
loop_
 _symmetry_equiv_pos_site_id
 _symmetry_equiv_pos_as_xyz
  1  'x, y, z'
loop_
 _atom_site_type_symbol
 _atom_site_label
 _atom_site_symmetry_multiplicity
 _atom_site_fract_x
 _atom_site_fract_y
 _atom_site_fract_z
 _atom_site_occupancy
  Ca  Ca0  1  0.63452234  0.14168975  0.36347367  1
  Ca  Ca1  1  0.74697998  0.74842987  0.13721420  1
  Ca  Ca2  1  0.25157163  0.25301863  0.86278710  1
  Ca  Ca3  1  0.12013538  0.61159888  0.87985287  1
  Ca  Ca4  1  0.88316565  0.11683473  0.49999956  1
  Ca  Ca5  1  0.85831027  0.36547940  0.63652501  1
  Ca  Ca6  1  0.75051289  0.74979743  0.61198807  1
  Ca  Ca7  1  0.13647854  0.86352086  0.00000087  1
  Ca  Ca8  1  0.25020210  0.24948899  0.38801155  1
  Ca  Ca9  1  0.60976742  0.39023336  -0.00000140  1
  Ca  Ca10  1  0.38840195  0.87986576  0.12014711  1
  Al  Al0  1  0.87436021  0.12564082  -0.00000206  1
  Al  Al1  1  0.53434105  0.00072728  0.71533423  1
  Al  Al2  1  0.37651981  0.87462325  0.62241124  1
  Al  Al3  1  0.62161104  0.37838286  0.50000792  1
  Al  Al4  1  0.03359728  0.00033814  0.21573647  1
  Al  Al5  1  0.99966028  0.96640378  0.78426354  1
  Al  Al6  1  0.99927227  0.46565949  0.28466594  1
  Al  Al7  1  0.24954962  0.24864445  0.12685233  1
  Al  Al8  1  0.46549152  0.49911218  0.74860520  1
  Al  Al9  1  0.12535491  0.62347540  0.37759986  1
  Al  Al10  1  0.50654229  0.04069083  0.24047084  1
  Al  Al11  1  0.50088638  0.53450854  0.25139630  1
  Al  Al12  1  0.75135923  0.75044902  0.87314234  1
  Al  Al13  1  0.95930925  0.49345708  0.75952839  1
  O  O0  1  0.41240121  0.01703326  0.43107849  1
  O  O1  1  0.68795833  0.12196337  0.15549147  1
  O  O2  1  0.61367139  0.50965193  0.32852109  1
  O  O3  1  0.61220834  0.18594626  0.54655252  1
  O  O4  1  0.38300984  0.68262361  0.67319887  1
  O  O5  1  0.49035009  0.38632623  0.67147727  1
  O  O6  1  0.02046655  0.09003061  0.04412388  1
  O  O7  1  0.90924952  0.79643407  0.85835479  1
  O  O8  1  0.09569940  0.46666488  0.80723697  1
  O  O9  1  0.90996791  0.97953288  0.95587631  1
  O  O10  1  0.81405339  0.38778858  0.45344767  1
  O  O11  1  0.52169627  0.91263876  0.63160208  1
  O  O12  1  0.00594147  0.63265429  0.11564370  1
  O  O13  1  0.20356927  0.09075224  0.14164282  1
  O  O14  1  0.18847043  0.89869501  0.76190504  1
  O  O15  1  0.09217784  0.29351277  0.27148464  1
  O  O16  1  0.29775982  0.40301714  0.93826497  1
  O  O17  1  0.86711313  0.00384099  0.38079241  1
  O  O18  1  0.99616064  0.13288628  0.61920626  1
  O  O19  1  0.70648700  0.90782100  0.72851738  1
  O  O20  1  0.08736361  0.47830554  0.36839787  1
  O  O21  1  0.10130642  0.81153128  0.23809470  1
  O  O22  1  0.98297333  0.58760056  0.56891421  1
  O  O23  1  0.40350262  0.21183879  0.16082035  1
  O  O24  1  0.36734626  0.99405853  0.88435518  1
  O  O25  1  0.63249219  0.50381002  0.74789385  1
  O  O26  1  0.31740293  0.61698368  0.32679230  1
  O  O27  1  0.49619322  0.36750723  0.25210376  1
  O  O28  1  0.59697999  0.70223749  0.06174115  1
  O  O29  1  0.87803576  0.31203970  0.84450941  1
  O  O30  1  0.78815853  0.59649902  0.83918296  1
  O  O31  1  0.53333496  0.90430222  0.19276348  1
loop_
_geom_bond_atom_site_label_1
_geom_bond_atom_site_label_2
_geom_bond_distance
_geom_bond_site_symmetry_2
Ca0 O1 2.335244 1_555
Ca0 O3 2.357514 1_555
Ca0 O27 2.387875 1_555
Ca0 O17 2.421057 1_555
Ca0 O11 2.466895 1_545
Ca0 O0 2.513434 1_555
Ca1 O31 2.266058 1_555
Ca1 O2 2.332459 1_555
Ca1 O9 2.419122 1_554
Ca1 O28 2.468734 1_555
Ca1 O12 2.481058 1_655
Ca1 O7 2.527546 1_554
Ca2 O8 2.266067 1_555
Ca2 O5 2.332463 1_555
Ca2 O6 2.419141 1_556
Ca2 O16 2.468736 1_555
Ca2 O24 2.481043 1_545
Ca2 O13 2.527519 1_556
Ca3 O8 2.258992 1_555
Ca3 O4 2.367330 1_555
Ca3 O16 2.379918 1_555
Ca3 O7 2.414235 1_455
Ca3 O12 2.467564 1_556
Ca3 O14 2.613199 1_555
Ca4 O15 2.372759 1_655
Ca4 O19 2.372775 1_545
Ca4 O17 2.401834 1_555
Ca4 O18 2.401839 1_555
Ca4 O10 2.462782 1_555
Ca4 O3 2.462820 1_555
Ca5 O29 2.335251 1_555
Ca5 O10 2.357528 1_555
Ca5 O25 2.387880 1_555
Ca5 O18 2.421073 1_555
Ca5 O20 2.466898 1_655
Ca5 O22 2.513437 1_555
Ca6 O11 2.387957 1_555
Ca6 O25 2.390341 1_555
Ca6 O22 2.406617 1_555
Ca6 O30 2.428184 1_555
Ca6 O17 2.444727 1_565
Ca6 O19 2.499053 1_555
Ca7 O21 2.385787 1_555
Ca7 O14 2.385790 1_554
Ca7 O12 2.391562 1_555
Ca7 O24 2.391569 1_554
Ca7 O6 2.465034 1_565
Ca7 O9 2.465061 1_454
Ca8 O20 2.387941 1_555
Ca8 O27 2.390361 1_555
Ca8 O0 2.406592 1_555
Ca8 O23 2.428169 1_555
Ca8 O18 2.444719 1_455
Ca8 O15 2.499052 1_555
Ca9 O30 2.356463 1_554
Ca9 O23 2.356469 1_555
Ca9 O25 2.409712 1_554
Ca9 O27 2.409712 1_555
Ca9 O29 2.480736 1_554
Ca9 O1 2.480748 1_555
Ca10 O31 2.258996 1_555
Ca10 O26 2.367332 1_555
Ca10 O28 2.379907 1_555
Ca10 O13 2.414220 1_565
Ca10 O24 2.467585 1_554
Ca10 O21 2.613200 1_555
Al0 O29 1.742668 1_554
Al0 O1 1.742705 1_555
Al0 O9 1.744627 1_544
Al0 O6 1.744647 1_655
Al1 O24 1.728077 1_545
Al1 O3 1.769180 1_555
Al1 O11 1.773193 1_545
Al1 O19 1.776060 1_545
Al2 O4 1.709185 1_555
Al2 O0 1.748053 1_565
Al2 O14 1.751804 1_555
Al2 O11 1.756833 1_555
Al3 O5 1.724120 1_555
Al3 O2 1.724272 1_555
Al3 O3 1.763595 1_555
Al3 O10 1.763599 1_555
Al4 O17 1.732877 1_455
Al4 O21 1.763315 1_545
Al4 O6 1.770103 1_555
Al4 O13 1.773313 1_555
Al5 O18 1.732871 1_565
Al5 O14 1.763350 1_655
Al5 O9 1.770092 1_555
Al5 O7 1.773279 1_555
Al6 O12 1.728085 1_655
Al6 O10 1.769187 1_555
Al6 O20 1.773228 1_655
Al6 O15 1.776052 1_655
Al7 O16 1.728088 1_554
Al7 O23 1.741453 1_555
Al7 O15 1.745686 1_555
Al7 O13 1.746058 1_555
Al8 O4 1.733491 1_555
Al8 O25 1.748331 1_555
Al8 O5 1.748907 1_555
Al8 O16 1.786690 1_555
Al9 O26 1.709597 1_555
Al9 O22 1.747866 1_455
Al9 O21 1.751816 1_555
Al9 O20 1.756715 1_555
Al10 O31 1.702036 1_545
Al10 O0 1.778033 1_555
Al10 O23 1.780503 1_555
Al10 O1 1.782938 1_555
Al11 O26 1.733257 1_555
Al11 O27 1.748340 1_555
Al11 O2 1.748881 1_555
Al11 O28 1.786654 1_555
Al12 O28 1.728187 1_556
Al12 O30 1.741364 1_555
Al12 O19 1.745658 1_555
Al12 O7 1.746090 1_555
Al13 O8 1.702070 1_655
Al13 O22 1.778073 1_555
Al13 O30 1.780544 1_555
Al13 O29 1.782945 1_555
