# generated using pymatgen
data_Cs3GaSeS2
_symmetry_space_group_name_H-M   'P 1'
_cell_length_a   13.62517024
_cell_length_b   8.54307735
_cell_length_c   10.96699291
_cell_angle_alpha   52.42392319
_cell_angle_beta   90.00000000
_cell_angle_gamma   90.00000000
_symmetry_Int_Tables_number   1
_chemical_formula_structural   Cs3GaSeS2
_chemical_formula_sum   'Cs12 Ga4 Se4 S8'
_cell_volume   1011.73646677
_cell_formula_units_Z   4
loop_
 _symmetry_equiv_pos_site_id
 _symmetry_equiv_pos_as_xyz
  1  'x, y, z'
loop_
 _atom_site_type_symbol
 _atom_site_label
 _atom_site_symmetry_multiplicity
 _atom_site_fract_x
 _atom_site_fract_y
 _atom_site_fract_z
 _atom_site_occupancy
  Cs  Cs0  1  0.92616191  0.37112486  0.37704098  1
  Cs  Cs1  1  0.42616191  0.62887514  0.12295902  1
  Cs  Cs2  1  0.07383809  0.62887514  0.62295902  1
  Cs  Cs3  1  0.57383809  0.37112486  0.87704098  1
  Cs  Cs4  1  0.19408153  0.13546090  0.57538624  1
  Cs  Cs5  1  0.69408153  0.86453910  0.92461376  1
  Cs  Cs6  1  0.80591847  0.86453910  0.42461376  1
  Cs  Cs7  1  0.30591847  0.13546090  0.07538624  1
  Cs  Cs8  1  0.64065451  0.37122864  0.49096290  1
  Cs  Cs9  1  0.14065451  0.62877136  0.00903710  1
  Cs  Cs10  1  0.35934549  0.62877136  0.50903710  1
  Cs  Cs11  1  0.85934549  0.37122864  0.99096290  1
  Ga  Ga0  1  0.94390773  0.07037497  0.84392831  1
  Ga  Ga1  1  0.44390773  0.92962503  0.65607169  1
  Ga  Ga2  1  0.05609227  0.92962503  0.15607169  1
  Ga  Ga3  1  0.55609227  0.07037497  0.34392831  1
  Se  Se0  1  0.55828532  0.88493202  0.24566224  1
  Se  Se1  1  0.05828532  0.11506798  0.25433776  1
  Se  Se2  1  0.44171468  0.11506798  0.75433776  1
  Se  Se3  1  0.94171468  0.88493202  0.74566224  1
  S  S0  1  0.39723393  0.12126620  0.39369134  1
  S  S1  1  0.89723393  0.87873380  0.10630866  1
  S  S2  1  0.60276607  0.87873380  0.60630866  1
  S  S3  1  0.10276607  0.12126620  0.89369134  1
  S  S4  1  0.65036092  0.34509714  0.19600774  1
  S  S5  1  0.15036092  0.65490286  0.30399226  1
  S  S6  1  0.34963908  0.65490286  0.80399226  1
  S  S7  1  0.84963908  0.34509714  0.69600774  1
loop_
_geom_bond_atom_site_label_1
_geom_bond_atom_site_label_2
_geom_bond_distance
_geom_bond_site_symmetry_2
Cs0 S1 3.474628 1_555
Cs0 S7 3.524857 1_555
Cs0 Se3 3.627789 1_545
Cs0 Se1 3.664293 1_655
Cs0 S5 3.671778 1_655
Cs1 S0 3.474628 1_555
Cs1 S6 3.524857 1_554
Cs1 Se2 3.627789 1_564
Cs1 Se0 3.664293 1_555
Cs1 S4 3.671778 1_555
Cs2 S3 3.474628 1_555
Cs2 S5 3.524857 1_555
Cs2 Se1 3.627789 1_565
Cs2 Se3 3.664293 1_455
Cs2 S7 3.671778 1_455
Cs3 S2 3.474628 1_555
Cs3 S4 3.524857 1_556
Cs3 Se0 3.627789 1_546
Cs3 Se2 3.664293 1_555
Cs3 S6 3.671778 1_555
Cs4 S0 3.455692 1_555
Cs4 S5 3.577335 1_555
Cs4 S3 3.637643 1_555
Cs4 Ga1 3.682954 1_545
Cs4 Se2 3.853460 1_555
Cs4 Se3 3.875180 1_445
Cs4 S6 3.883189 1_545
Cs4 Se1 4.074174 1_555
Cs5 S1 3.455692 1_556
Cs5 S4 3.577335 1_556
Cs5 S2 3.637643 1_555
Cs5 Ga0 3.682954 1_565
Cs5 Se3 3.853460 1_555
Cs5 Se2 3.875180 1_565
Cs5 S7 3.883189 1_565
Cs5 Se0 4.074174 1_556
Cs6 S2 3.455692 1_555
Cs6 S7 3.577335 1_555
Cs6 S1 3.637643 1_555
Cs6 Ga3 3.682954 1_565
Cs6 Se0 3.853460 1_555
Cs6 Se1 3.875180 1_665
Cs6 S4 3.883189 1_565
Cs6 Se3 4.074174 1_555
Cs7 S3 3.455692 1_554
Cs7 S6 3.577335 1_554
Cs7 S0 3.637643 1_555
Cs7 Ga2 3.682954 1_545
Cs7 Se1 3.853460 1_555
Cs7 Se0 3.875180 1_545
Cs7 S5 3.883189 1_545
Cs7 Se2 4.074174 1_554
Cs8 S4 3.378138 1_555
Cs8 S7 3.549973 1_555
Cs8 Se2 3.573527 1_555
Cs8 S2 3.616323 1_545
Cs8 Se0 3.654775 1_555
Cs9 S5 3.378138 1_555
Cs9 S6 3.549973 1_554
Cs9 Se3 3.573527 1_454
Cs9 S3 3.616323 1_564
Cs9 Se1 3.654775 1_555
Cs10 S6 3.378138 1_555
Cs10 S5 3.549973 1_555
Cs10 Se0 3.573527 1_555
Cs10 S0 3.616323 1_565
Cs10 Se2 3.654775 1_555
Cs11 S7 3.378138 1_555
Cs11 S4 3.549973 1_556
Cs11 Se1 3.573527 1_656
Cs11 S1 3.616323 1_546
Cs11 Se3 3.654775 1_555
Ga0 S7 2.268510 1_555
Ga0 S3 2.336920 1_655
Ga0 S1 2.370488 1_546
Ga0 Se3 2.398844 1_545
Ga1 S6 2.268510 1_555
Ga1 S2 2.336920 1_555
Ga1 S0 2.370488 1_565
Ga1 Se2 2.398844 1_565
Ga2 S5 2.268510 1_555
Ga2 S1 2.336920 1_455
Ga2 S3 2.370488 1_564
Ga2 Se1 2.398844 1_565
Ga3 S4 2.268510 1_555
Ga3 S0 2.336920 1_555
Ga3 S2 2.370488 1_545
Ga3 Se0 2.398844 1_545
