# generated using pymatgen
data_Rb2AsP3Ru4
_symmetry_space_group_name_H-M   'P 1'
_cell_length_a   7.26200992
_cell_length_b   7.26200915
_cell_length_c   5.73053609
_cell_angle_alpha   90.00000000
_cell_angle_beta   90.00000000
_cell_angle_gamma   133.53056033
_symmetry_Int_Tables_number   1
_chemical_formula_structural   Rb2AsP3Ru4
_chemical_formula_sum   'Rb2 As1 P3 Ru4'
_cell_volume   219.10442590
_cell_formula_units_Z   1
loop_
 _symmetry_equiv_pos_site_id
 _symmetry_equiv_pos_as_xyz
  1  'x, y, z'
loop_
 _atom_site_type_symbol
 _atom_site_label
 _atom_site_symmetry_multiplicity
 _atom_site_fract_x
 _atom_site_fract_y
 _atom_site_fract_z
 _atom_site_occupancy
  Rb  Rb0  1  0.49676071  0.50323929  0.50000000  1
  Rb  Rb1  1  0.99717561  0.00282439  0.00000000  1
  As  As0  1  0.15325986  0.84674014  0.50000000  1
  P  P0  1  0.66984089  0.33015911  0.00000000  1
  P  P1  1  0.33259291  0.66740709  0.00000000  1
  P  P2  1  0.83195797  0.16804203  0.50000000  1
  Ru  Ru0  1  0.50304894  0.00089091  0.24795847  1
  Ru  Ru1  1  0.99910909  0.49695106  0.75204153  1
  Ru  Ru2  1  0.99910909  0.49695106  0.24795847  1
  Ru  Ru3  1  0.50304894  0.00089091  0.75204153  1
loop_
_geom_bond_atom_site_label_1
_geom_bond_atom_site_label_2
_geom_bond_distance
_geom_bond_site_symmetry_2
As0 Ru1 2.423787 1_455
As0 Ru2 2.423787 1_455
As0 Ru3 2.423787 1_565
As0 Ru0 2.423787 1_565
As0 Rb1 3.542473 1_465
As0 Rb1 3.542473 1_466
As0 Rb0 3.545397 1_565
As0 Rb0 3.545398 1_455
P0 Ru0 2.283463 1_555
P0 Ru3 2.283463 1_554
P0 Ru2 2.283464 1_555
P0 Ru1 2.283464 1_554
P0 Rb1 3.676637 1_565
P0 Rb1 3.676638 1_455
P0 Rb0 3.680433 1_555
P0 Rb0 3.680433 1_554
P1 Ru0 2.299320 1_565
P1 Ru3 2.299320 1_564
P1 Ru2 2.299320 1_455
P1 Ru1 2.299320 1_454
P1 Rb0 3.606968 1_554
P1 Rb0 3.606968 1_555
P1 Rb1 3.610006 1_455
P1 Rb1 3.610006 1_565
P2 Ru1 2.295839 1_555
P2 Ru2 2.295839 1_555
P2 Ru3 2.295839 1_555
P2 Ru0 2.295839 1_555
P2 Rb0 3.611793 1_545
P2 Rb0 3.611794 1_655
P2 Rb1 3.615496 1_556
P2 Rb1 3.615496 1_555
