# generated using pymatgen
data_CsZrScSe4
_symmetry_space_group_name_H-M   'P 1'
_cell_length_a   3.93487089
_cell_length_b   6.65827452
_cell_length_c   8.96327495
_cell_angle_alpha   75.77353979
_cell_angle_beta   90.00000000
_cell_angle_gamma   90.00000000
_symmetry_Int_Tables_number   1
_chemical_formula_structural   CsZrScSe4
_chemical_formula_sum   'Cs1 Zr1 Sc1 Se4'
_cell_volume   227.63101485
_cell_formula_units_Z   1
loop_
 _symmetry_equiv_pos_site_id
 _symmetry_equiv_pos_as_xyz
  1  'x, y, z'
loop_
 _atom_site_type_symbol
 _atom_site_label
 _atom_site_symmetry_multiplicity
 _atom_site_fract_x
 _atom_site_fract_y
 _atom_site_fract_z
 _atom_site_occupancy
  Cs  Cs0  1  0.00000000  0.50000000  0.50000000  1
  Zr  Zr0  1  0.00000000  0.00000000  0.00000000  1
  Sc  Sc0  1  0.50000000  0.50000000  0.00000000  1
  Se  Se0  1  0.50000000  0.78012745  0.17688043  1
  Se  Se1  1  0.00000000  0.27273065  0.17383891  1
  Se  Se2  1  0.50000000  0.21987255  0.82311957  1
  Se  Se3  1  0.00000000  0.72726935  0.82616109  1
loop_
_geom_bond_atom_site_label_1
_geom_bond_atom_site_label_2
_geom_bond_distance
_geom_bond_site_symmetry_2
Cs0 Se3 3.607062 1_555
Cs0 Se1 3.607062 1_555
Cs0 Se2 3.616985 1_455
Cs0 Se2 3.616985 1_555
Cs0 Se0 3.616985 1_455
Cs0 Se0 3.616985 1_555
Sc0 Se1 2.725732 1_555
Sc0 Se1 2.725732 1_655
Sc0 Se3 2.725732 1_554
Sc0 Se3 2.725732 1_654
Sc0 Se0 2.728711 1_555
Sc0 Se2 2.728711 1_554
Se0 Zr0 2.717865 1_565
Se0 Zr0 2.717865 1_665
Se1 Zr0 2.667613 1_555
Se2 Zr0 2.717865 1_556
Se2 Zr0 2.717865 1_656
Se3 Zr0 2.667613 1_566
