# generated using pymatgen
data_LiZrNi4
_symmetry_space_group_name_H-M   'P 1'
_cell_length_a   4.74638573
_cell_length_b   4.74638626
_cell_length_c   4.74638554
_cell_angle_alpha   59.99999818
_cell_angle_beta   59.99999453
_cell_angle_gamma   60.00000000
_symmetry_Int_Tables_number   1
_chemical_formula_structural   LiZrNi4
_chemical_formula_sum   'Li1 Zr1 Ni4'
_cell_volume   75.60910520
_cell_formula_units_Z   1
loop_
 _symmetry_equiv_pos_site_id
 _symmetry_equiv_pos_as_xyz
  1  'x, y, z'
loop_
 _atom_site_type_symbol
 _atom_site_label
 _atom_site_symmetry_multiplicity
 _atom_site_fract_x
 _atom_site_fract_y
 _atom_site_fract_z
 _atom_site_occupancy
  Li  Li0  1  0.25000000  0.25000000  0.25000000  1
  Zr  Zr0  1  0.00000000  0.00000000  0.00000000  1
  Ni  Ni0  1  0.62414281  0.62414281  0.62414281  1
  Ni  Ni1  1  0.12757158  0.62414281  0.62414281  1
  Ni  Ni2  1  0.62414281  0.12757158  0.62414281  1
  Ni  Ni3  1  0.62414281  0.62414281  0.12757158  1
loop_
_geom_bond_atom_site_label_1
_geom_bond_atom_site_label_2
_geom_bond_distance
_geom_bond_site_symmetry_2
Li0 Ni2 2.781098 1_554
Li0 Ni0 2.781098 1_554
Li0 Ni2 2.781098 1_455
Li0 Ni1 2.781098 1_554
Li0 Ni0 2.781098 1_455
Li0 Ni2 2.781098 1_555
Li0 Ni3 2.781098 1_455
Li0 Ni1 2.781098 1_555
Li0 Ni3 2.781098 1_555
Li0 Ni0 2.781098 1_545
Li0 Ni1 2.781098 1_545
Li0 Ni3 2.781098 1_545
Li0 Zr0 2.906556 1_556
Li0 Zr0 2.906556 1_655
Li0 Zr0 2.906556 1_555
Li0 Zr0 2.906556 1_565
Ni0 Ni3 2.356918 1_555
Ni0 Ni1 2.356919 1_555
Ni0 Ni2 2.356919 1_555
Ni0 Ni3 2.389467 1_556
Ni0 Ni1 2.389467 1_655
Ni0 Ni2 2.389467 1_565
Ni0 Zr0 2.784567 1_665
Ni0 Zr0 2.784567 1_566
Ni0 Zr0 2.784568 1_656
Ni1 Ni3 2.356918 1_555
Ni1 Ni2 2.356919 1_555
Ni1 Ni3 2.389467 1_456
Ni1 Ni2 2.389467 1_465
Ni1 Zr0 2.784567 1_565
Ni1 Zr0 2.784568 1_566
Ni1 Zr0 2.784568 1_556
Ni2 Ni3 2.356919 1_555
Ni2 Ni3 2.389467 1_546
Ni2 Zr0 2.784567 1_655
Ni2 Zr0 2.784567 1_556
Ni2 Zr0 2.784567 1_656
Ni3 Zr0 2.784567 1_565
Ni3 Zr0 2.784568 1_665
Ni3 Zr0 2.784568 1_655
