# generated using pymatgen
data_NaCaH6Rh
_symmetry_space_group_name_H-M   'P 1'
_cell_length_a   5.07328563
_cell_length_b   5.07328642
_cell_length_c   5.07328662
_cell_angle_alpha   60.00000519
_cell_angle_beta   60.00000002
_cell_angle_gamma   59.99999774
_symmetry_Int_Tables_number   1
_chemical_formula_structural   NaCaH6Rh
_chemical_formula_sum   'Na1 Ca1 H6 Rh1'
_cell_volume   92.33218359
_cell_formula_units_Z   1
loop_
 _symmetry_equiv_pos_site_id
 _symmetry_equiv_pos_as_xyz
  1  'x, y, z'
loop_
 _atom_site_type_symbol
 _atom_site_label
 _atom_site_symmetry_multiplicity
 _atom_site_fract_x
 _atom_site_fract_y
 _atom_site_fract_z
 _atom_site_occupancy
  Na  Na0  1  0.25000000  0.25000000  0.25000000  1
  Ca  Ca0  1  0.75000000  0.75000000  0.75000000  1
  H  H0  1  0.76975730  0.23024270  0.23024270  1
  H  H1  1  0.23024270  0.76975730  0.23024270  1
  H  H2  1  0.76975730  0.76975730  0.23024270  1
  H  H3  1  0.23024270  0.76975730  0.76975730  1
  H  H4  1  0.76975730  0.23024270  0.76975730  1
  H  H5  1  0.23024270  0.23024270  0.76975730  1
  Rh  Rh0  1  0.00000000  0.00000000  0.00000000  1
loop_
_geom_bond_atom_site_label_1
_geom_bond_atom_site_label_2
_geom_bond_distance
_geom_bond_site_symmetry_2
Ca0 H3 2.540600 1_555
Ca0 H3 2.540600 1_655
Ca0 H5 2.540601 1_565
Ca0 H5 2.540601 1_655
Ca0 H1 2.540601 1_556
Ca0 H1 2.540601 1_655
Ca0 H4 2.540601 1_565
Ca0 H4 2.540601 1_555
Ca0 H2 2.540601 1_556
Ca0 H2 2.540601 1_555
Ca0 H0 2.540601 1_556
Ca0 H0 2.540601 1_565
H0 Rh0 1.651925 1_655
H0 Na0 2.540600 1_555
H0 Na0 2.540600 1_655
H1 Rh0 1.651925 1_565
H1 Na0 2.540601 1_565
H1 Na0 2.540601 1_555
H2 Rh0 1.651925 1_665
H2 Na0 2.540601 1_565
H2 Na0 2.540601 1_655
H3 Rh0 1.651925 1_566
H3 Na0 2.540601 1_556
H3 Na0 2.540601 1_565
H4 Rh0 1.651925 1_656
H4 Na0 2.540601 1_556
H4 Na0 2.540601 1_655
H5 Rh0 1.651925 1_556
H5 Na0 2.540601 1_556
H5 Na0 2.540601 1_555
