# generated using pymatgen
data_BaSc2(H6Ru)2
_symmetry_space_group_name_H-M   'P 1'
_cell_length_a   4.75864937
_cell_length_b   4.75865109
_cell_length_c   8.35774094
_cell_angle_alpha   90.00000000
_cell_angle_beta   90.00000000
_cell_angle_gamma   119.99999493
_symmetry_Int_Tables_number   1
_chemical_formula_structural   BaSc2(H6Ru)2
_chemical_formula_sum   'Ba1 Sc2 H12 Ru2'
_cell_volume   163.90308517
_cell_formula_units_Z   1
loop_
 _symmetry_equiv_pos_site_id
 _symmetry_equiv_pos_as_xyz
  1  'x, y, z'
loop_
 _atom_site_type_symbol
 _atom_site_label
 _atom_site_symmetry_multiplicity
 _atom_site_fract_x
 _atom_site_fract_y
 _atom_site_fract_z
 _atom_site_occupancy
  Ba  Ba0  1  0.00000000  0.00000000  0.00000000  1
  Sc  Sc0  1  0.66666700  0.33333300  0.37360425  1
  Sc  Sc1  1  0.33333300  0.66666700  0.62639575  1
  H  H0  1  0.16189708  0.83810292  0.39740769  1
  H  H1  1  0.67620683  0.83810292  0.39740769  1
  H  H2  1  0.16189708  0.32379317  0.39740769  1
  H  H3  1  0.83810292  0.16189708  0.60259231  1
  H  H4  1  0.32379317  0.16189708  0.60259231  1
  H  H5  1  0.83810292  0.67620683  0.60259231  1
  H  H6  1  0.49882763  0.99765525  0.82892990  1
  H  H7  1  0.49882763  0.50117237  0.82892990  1
  H  H8  1  0.00234475  0.50117237  0.82892990  1
  H  H9  1  0.50117237  0.00234475  0.17107010  1
  H  H10  1  0.50117237  0.49882763  0.17107010  1
  H  H11  1  0.99765525  0.49882763  0.17107010  1
  Ru  Ru0  1  0.66666700  0.33333300  0.71004455  1
  Ru  Ru1  1  0.33333300  0.66666700  0.28995545  1
loop_
_geom_bond_atom_site_label_1
_geom_bond_atom_site_label_2
_geom_bond_distance
_geom_bond_site_symmetry_2
Ba0 H9 2.775877 1_555
Ba0 H6 2.775877 1_444
Ba0 H9 2.775877 1_455
Ba0 H6 2.775877 1_544
Ba0 H10 2.775877 1_555
Ba0 H7 2.775877 1_444
Ba0 H10 2.775877 1_445
Ba0 H7 2.775877 1_554
Ba0 H11 2.775877 1_455
Ba0 H8 2.775877 1_544
Ba0 H11 2.775877 1_445
Ba0 H8 2.775877 1_554
H0 Ru1 1.674250 1_555
H0 Sc1 2.378933 1_555
H0 Sc0 2.387952 1_565
H0 Sc0 2.387952 1_455
H1 Ru1 1.674257 1_555
H1 Sc1 2.378938 1_555
H1 Sc0 2.387952 1_565
H1 Sc0 2.387952 1_555
H2 Ru1 1.674258 1_555
H2 Sc1 2.378939 1_555
H2 Sc0 2.387951 1_555
H2 Sc0 2.387951 1_455
H3 Ru0 1.674250 1_555
H3 Sc0 2.378933 1_555
H3 Sc1 2.387952 1_545
H3 Sc1 2.387952 1_655
H4 Ru0 1.674257 1_555
H4 Sc0 2.378938 1_555
H4 Sc1 2.387952 1_545
H4 Sc1 2.387952 1_555
H5 Ru0 1.674258 1_555
H5 Sc0 2.378939 1_555
H5 Sc1 2.387951 1_555
H5 Sc1 2.387951 1_655
H6 Ru0 1.703223 1_565
H6 Sc1 2.173921 1_555
H7 Ru0 1.703226 1_555
H7 Sc1 2.173923 1_555
H8 Ru0 1.703222 1_455
H8 Sc1 2.173921 1_555
H9 Ru1 1.703223 1_545
H9 Sc0 2.173921 1_555
H10 Ru1 1.703226 1_555
H10 Sc0 2.173923 1_555
H11 Ru1 1.703222 1_655
H11 Sc0 2.173921 1_555
