# generated using pymatgen
data_CsBa4As3O
_symmetry_space_group_name_H-M   'P 1'
_cell_length_a   10.09452602
_cell_length_b   10.09452605
_cell_length_c   10.09452697
_cell_angle_alpha   128.85730089
_cell_angle_beta   128.85729914
_cell_angle_gamma   75.24029110
_symmetry_Int_Tables_number   1
_chemical_formula_structural   CsBa4As3O
_chemical_formula_sum   'Cs2 Ba8 As6 O2'
_cell_volume   607.17930841
_cell_formula_units_Z   2
loop_
 _symmetry_equiv_pos_site_id
 _symmetry_equiv_pos_as_xyz
  1  'x, y, z'
loop_
 _atom_site_type_symbol
 _atom_site_label
 _atom_site_symmetry_multiplicity
 _atom_site_fract_x
 _atom_site_fract_y
 _atom_site_fract_z
 _atom_site_occupancy
  Cs  Cs0  1  0.50000000  0.50000000  0.00000000  1
  Cs  Cs1  1  0.00000000  0.00000000  0.00000000  1
  Ba  Ba0  1  0.18773190  0.01100509  0.50000000  1
  Ba  Ba1  1  0.51100509  0.68773190  0.50000000  1
  Ba  Ba2  1  0.48899491  0.31226810  0.50000000  1
  Ba  Ba3  1  0.01100509  0.51100509  0.82327419  1
  Ba  Ba4  1  0.81226810  0.98899491  0.50000000  1
  Ba  Ba5  1  0.68773190  0.18773190  0.17672581  1
  Ba  Ba6  1  0.98899491  0.48899491  0.17672581  1
  Ba  Ba7  1  0.31226810  0.81226810  0.82327419  1
  As  As0  1  0.10195459  0.39804541  0.50000000  1
  As  As1  1  0.60195459  0.10195459  0.70390918  1
  As  As2  1  0.89804541  0.60195459  0.50000000  1
  As  As3  1  0.39804541  0.89804541  0.29609082  1
  As  As4  1  0.75000000  0.75000000  0.00000000  1
  As  As5  1  0.25000000  0.25000000  0.00000000  1
  O  O0  1  0.75000000  0.25000000  0.50000000  1
  O  O1  1  0.25000000  0.75000000  0.50000000  1
loop_
_geom_bond_atom_site_label_1
_geom_bond_atom_site_label_2
_geom_bond_distance
_geom_bond_site_symmetry_2
Ba0 O1 2.548141 1_545
Ba1 O1 2.548141 1_555
Ba2 O0 2.548141 1_555
Ba3 O0 2.548141 1_455
Ba4 O0 2.548141 1_565
Ba5 O0 2.548152 1_555
Ba6 O1 2.548141 1_655
Ba7 O1 2.548152 1_555
As0 As2 2.512951 1_455
As0 Ba7 3.368826 1_555
As0 Ba5 3.368826 1_455
As0 Ba3 3.368837 1_555
As0 Ba6 3.368837 1_455
As0 Cs1 3.580663 1_555
As0 Cs0 3.580663 1_556
As0 Ba2 3.780287 1_555
As0 Ba0 3.780287 1_555
As1 As3 2.512952 1_545
As1 Ba1 3.368828 1_545
As1 Ba0 3.368828 1_555
As1 Ba4 3.368828 1_545
As1 Ba2 3.368828 1_555
As1 Cs0 3.580663 1_556
As1 Cs1 3.580663 1_656
As1 Ba5 3.780278 1_556
As1 Ba6 3.780288 1_556
As2 Ba5 3.368826 1_555
As2 Ba7 3.368826 1_655
As2 Ba6 3.368837 1_555
As2 Ba3 3.368837 1_655
As2 Cs1 3.580663 1_666
As2 Cs0 3.580663 1_555
As2 Ba1 3.780287 1_555
As2 Ba4 3.780287 1_555
As3 Ba2 3.368828 1_565
As3 Ba4 3.368828 1_555
As3 Ba0 3.368828 1_565
As3 Ba1 3.368828 1_555
As3 Cs0 3.580663 1_555
As3 Cs1 3.580663 1_565
As3 Ba7 3.780278 1_554
As3 Ba3 3.780288 1_554
As4 Ba3 3.633622 1_654
As4 Ba6 3.633622 1_555
As4 Ba2 3.633628 1_554
As4 Ba0 3.633628 1_665
As4 Ba4 3.633628 1_555
As4 Ba1 3.633628 1_554
As4 Ba5 3.633629 1_565
As4 Ba7 3.633629 1_554
As4 Cs0 3.997811 1_555
As4 Cs1 3.997811 1_665
As5 Ba6 3.633622 1_455
As5 Ba3 3.633622 1_554
As5 Ba1 3.633628 1_555
As5 Ba4 3.633628 1_444
As5 Ba0 3.633628 1_554
As5 Ba2 3.633628 1_555
As5 Ba7 3.633629 1_544
As5 Ba5 3.633629 1_555
As5 Cs0 3.997811 1_555
As5 Cs1 3.997811 1_555
