# generated using pymatgen
data_Rb3Li2TiSb3
_symmetry_space_group_name_H-M   'P 1'
_cell_length_a   11.04880005
_cell_length_b   11.04880113
_cell_length_c   16.34018265
_cell_angle_alpha   90.00000000
_cell_angle_beta   90.00000000
_cell_angle_gamma   143.13144667
_symmetry_Int_Tables_number   1
_chemical_formula_structural   Rb3Li2TiSb3
_chemical_formula_sum   'Rb12 Li8 Ti4 Sb12'
_cell_volume   1196.80898637
_cell_formula_units_Z   4
loop_
 _symmetry_equiv_pos_site_id
 _symmetry_equiv_pos_as_xyz
  1  'x, y, z'
loop_
 _atom_site_type_symbol
 _atom_site_label
 _atom_site_symmetry_multiplicity
 _atom_site_fract_x
 _atom_site_fract_y
 _atom_site_fract_z
 _atom_site_occupancy
  Rb  Rb0  1  0.60202625  0.94238943  0.82977553  1
  Rb  Rb1  1  0.28031513  0.28031513  0.32283346  1
  Rb  Rb2  1  0.21968487  0.21968487  0.82283346  1
  Rb  Rb3  1  0.71968487  0.71968487  0.67716654  1
  Rb  Rb4  1  0.44238943  0.10202625  0.67022447  1
  Rb  Rb5  1  0.89797375  0.55761057  0.32977553  1
  Rb  Rb6  1  0.05761057  0.39797375  0.17022447  1
  Rb  Rb7  1  0.39797375  0.05761057  0.17022447  1
  Rb  Rb8  1  0.55761057  0.89797375  0.32977553  1
  Rb  Rb9  1  0.10202625  0.44238943  0.67022447  1
  Rb  Rb10  1  0.94238943  0.60202625  0.82977553  1
  Rb  Rb11  1  0.78031513  0.78031513  0.17716654  1
  Li  Li0  1  0.08186141  0.91813859  0.00000000  1
  Li  Li1  1  0.58186141  0.41813859  0.50000000  1
  Li  Li2  1  0.91813859  0.08186141  0.00000000  1
  Li  Li3  1  0.74938322  0.25061678  0.00000000  1
  Li  Li4  1  0.75061678  0.24938322  0.50000000  1
  Li  Li5  1  0.25061678  0.74938322  0.00000000  1
  Li  Li6  1  0.24938322  0.75061678  0.50000000  1
  Li  Li7  1  0.41813859  0.58186141  0.50000000  1
  Ti  Ti0  1  0.08632442  0.91367558  0.50000000  1
  Ti  Ti1  1  0.41367558  0.58632442  0.00000000  1
  Ti  Ti2  1  0.91367558  0.08632442  0.50000000  1
  Ti  Ti3  1  0.58632442  0.41367558  0.00000000  1
  Sb  Sb0  1  0.06967886  0.39101886  0.41122027  1
  Sb  Sb1  1  0.89101886  0.56967886  0.08877973  1
  Sb  Sb2  1  0.43032114  0.10898114  0.91122027  1
  Sb  Sb3  1  0.60898114  0.93032114  0.58877973  1
  Sb  Sb4  1  0.93032114  0.60898114  0.58877973  1
  Sb  Sb5  1  0.10898114  0.43032114  0.91122027  1
  Sb  Sb6  1  0.56967886  0.89101886  0.08877973  1
  Sb  Sb7  1  0.39101886  0.06967886  0.41122027  1
  Sb  Sb8  1  0.22009879  0.22009879  0.58501579  1
  Sb  Sb9  1  0.72009879  0.72009879  0.91498421  1
  Sb  Sb10  1  0.27990121  0.27990121  0.08501579  1
  Sb  Sb11  1  0.77990121  0.77990121  0.41498421  1
loop_
_geom_bond_atom_site_label_1
_geom_bond_atom_site_label_2
_geom_bond_distance
_geom_bond_site_symmetry_2
Rb0 Sb5 3.727341 1_665
Rb0 Sb5 3.760684 1_555
Rb0 Sb2 3.787528 1_565
Rb0 Ti1 3.800669 1_556
Rb0 Sb9 3.846971 1_555
Rb0 Sb3 3.943001 1_555
Rb1 Sb0 3.681414 1_555
Rb1 Sb7 3.681414 1_555
Rb1 Sb11 3.801822 1_555
Rb1 Sb11 3.807134 1_445
Rb1 Sb10 3.885985 1_555
Rb2 Sb2 3.681414 1_555
Rb2 Sb5 3.681414 1_555
Rb2 Sb9 3.801822 1_445
Rb2 Sb9 3.807134 1_555
Rb2 Sb8 3.885985 1_555
Rb3 Sb4 3.681414 1_555
Rb3 Sb3 3.681414 1_555
Rb3 Sb8 3.801822 1_555
Rb3 Sb8 3.807134 1_665
Rb3 Sb9 3.885985 1_555
Rb4 Sb4 3.727341 1_555
Rb4 Sb4 3.760684 1_445
Rb4 Sb3 3.787528 1_545
Rb4 Ti0 3.800669 1_545
Rb4 Sb8 3.846971 1_555
Rb4 Sb2 3.943001 1_555
Rb5 Sb7 3.727341 1_555
Rb5 Sb7 3.760684 1_665
Rb5 Sb0 3.787528 1_655
Rb5 Ti0 3.800669 1_655
Rb5 Sb11 3.846971 1_555
Rb5 Sb1 3.943001 1_555
Rb6 Sb6 3.727341 1_445
Rb6 Sb6 3.760684 1_555
Rb6 Sb1 3.787528 1_455
Rb6 Ti1 3.800669 1_555
Rb6 Sb10 3.846971 1_555
Rb6 Sb0 3.943001 1_555
Rb7 Sb1 3.727341 1_445
Rb7 Sb1 3.760684 1_555
Rb7 Sb6 3.787528 1_545
Rb7 Ti3 3.800669 1_555
Rb7 Sb10 3.846971 1_555
Rb7 Sb7 3.943001 1_555
Rb8 Sb0 3.727341 1_555
Rb8 Sb0 3.760684 1_665
Rb8 Sb7 3.787528 1_565
Rb8 Ti2 3.800669 1_565
Rb8 Sb11 3.846971 1_555
Rb8 Sb6 3.943001 1_555
Rb9 Sb3 3.727341 1_555
Rb9 Sb3 3.760684 1_445
Rb9 Sb4 3.787528 1_455
Rb9 Ti2 3.800669 1_455
Rb9 Sb8 3.846971 1_555
Rb9 Sb5 3.943001 1_555
Rb10 Sb2 3.727341 1_665
Rb10 Sb2 3.760684 1_555
Rb10 Sb5 3.787528 1_655
Rb10 Ti3 3.800669 1_556
Rb10 Sb9 3.846971 1_555
Rb10 Sb4 3.943001 1_555
Rb11 Sb6 3.681414 1_555
Rb11 Sb1 3.681414 1_555
Rb11 Sb10 3.801822 1_665
Rb11 Sb10 3.807134 1_555
Rb11 Sb11 3.885985 1_555
Li0 Sb2 2.895558 1_564
Li0 Sb1 2.895558 1_455
Li0 Sb9 2.949610 1_454
Li0 Sb10 2.949610 1_565
Li0 Rb7 3.701142 1_565
Li0 Rb10 3.701142 1_454
Li1 Sb4 2.895558 1_555
Li1 Sb7 2.895558 1_555
Li1 Sb8 2.949610 1_555
Li1 Sb11 2.949610 1_555
Li1 Rb5 3.701142 1_555
Li1 Rb4 3.701142 1_555
Li2 Sb6 2.895558 1_545
Li2 Sb5 2.895558 1_654
Li2 Sb10 2.949610 1_655
Li2 Sb9 2.949610 1_544
Li2 Rb0 3.701142 1_544
Li2 Rb6 3.701142 1_655
Li3 Sb2 2.855512 1_554
Li3 Sb1 2.855513 1_555
Li3 Sb5 3.034849 1_654
Li3 Sb6 3.034850 1_545
Li3 Rb6 3.621280 1_655
Li3 Rb0 3.621280 1_544
Li3 Rb7 3.756523 1_555
Li3 Rb10 3.756523 1_554
Li4 Sb0 2.855512 1_655
Li4 Sb3 2.855513 1_545
Li4 Sb7 3.034849 1_555
Li4 Sb4 3.034850 1_555
Li4 Rb4 3.621280 1_555
Li4 Rb5 3.621280 1_555
Li4 Rb9 3.756523 1_655
Li4 Rb8 3.756523 1_545
Li5 Sb6 2.855512 1_555
Li5 Sb5 2.855513 1_554
Li5 Sb1 3.034849 1_455
Li5 Sb2 3.034850 1_564
Li5 Rb10 3.621280 1_454
Li5 Rb7 3.621280 1_565
Li5 Rb0 3.756523 1_554
Li5 Rb6 3.756523 1_555
Li6 Sb4 2.855512 1_455
Li6 Sb7 2.855513 1_565
Li6 Sb3 3.034849 1_555
Li6 Sb0 3.034850 1_555
Li6 Rb8 3.621280 1_555
Li6 Rb9 3.621280 1_555
Li6 Rb5 3.756523 1_455
Li6 Rb4 3.756523 1_565
Li7 Sb0 2.895558 1_555
Li7 Sb3 2.895558 1_555
Li7 Sb11 2.949610 1_555
Li7 Sb8 2.949610 1_555
Li7 Rb9 3.701142 1_555
Li7 Rb8 3.701142 1_555
Sb0 Ti2 2.669149 1_455
Sb1 Ti3 2.669149 1_555
Sb2 Ti3 2.669149 1_556
Sb3 Ti2 2.669149 1_565
Sb4 Ti0 2.669149 1_655
Sb5 Ti1 2.669149 1_556
Sb6 Ti1 2.669149 1_555
Sb7 Ti0 2.669149 1_545
Sb8 Ti2 2.751380 1_455
Sb8 Ti0 2.751380 1_545
Sb9 Ti1 2.751380 1_556
Sb9 Ti3 2.751380 1_556
Sb10 Ti3 2.751380 1_555
Sb10 Ti1 2.751380 1_555
Sb11 Ti0 2.751380 1_655
Sb11 Ti2 2.751380 1_565
