# generated using pymatgen
data_PbAu2(SO4)4
_symmetry_space_group_name_H-M   'P 1'
_cell_length_a   6.50610369
_cell_length_b   6.50610352
_cell_length_c   8.80890697
_cell_angle_alpha   75.18216310
_cell_angle_beta   75.18216367
_cell_angle_gamma   88.25023519
_symmetry_Int_Tables_number   1
_chemical_formula_structural   PbAu2(SO4)4
_chemical_formula_sum   'Pb1 Au2 S4 O16'
_cell_volume   348.24449057
_cell_formula_units_Z   1
loop_
 _symmetry_equiv_pos_site_id
 _symmetry_equiv_pos_as_xyz
  1  'x, y, z'
loop_
 _atom_site_type_symbol
 _atom_site_label
 _atom_site_symmetry_multiplicity
 _atom_site_fract_x
 _atom_site_fract_y
 _atom_site_fract_z
 _atom_site_occupancy
  Pb  Pb0  1  0.00000000  0.00000000  0.00000000  1
  Au  Au0  1  0.00000000  0.00000000  0.50000000  1
  Au  Au1  1  0.50000000  0.50000000  0.50000000  1
  S  S0  1  0.08412007  0.58477746  0.73274187  1
  S  S1  1  0.58477746  0.08412007  0.73274187  1
  S  S2  1  0.91587993  0.41522254  0.26725813  1
  S  S3  1  0.41522254  0.91587993  0.26725813  1
  O  O0  1  0.32454413  0.62881595  0.67206358  1
  O  O1  1  0.62881595  0.32454413  0.67206358  1
  O  O2  1  0.67545587  0.37118405  0.32793642  1
  O  O3  1  0.37118405  0.67545587  0.32793642  1
  O  O4  1  0.01516027  0.69120437  0.85993417  1
  O  O5  1  0.69120437  0.01516027  0.85993417  1
  O  O6  1  0.98483973  0.30879563  0.14006583  1
  O  O7  1  0.30879563  0.98483973  0.14006583  1
  O  O8  1  0.98743458  0.68277877  0.59026825  1
  O  O9  1  0.68277877  0.98743458  0.59026825  1
  O  O10  1  0.01256542  0.31722123  0.40973175  1
  O  O11  1  0.31722123  0.01256542  0.40973175  1
  O  O12  1  0.03311296  0.36089403  0.77281576  1
  O  O13  1  0.36089403  0.03311296  0.77281576  1
  O  O14  1  0.96688704  0.63910597  0.22718424  1
  O  O15  1  0.63910597  0.96688704  0.22718424  1
loop_
_geom_bond_atom_site_label_1
_geom_bond_atom_site_label_2
_geom_bond_distance
_geom_bond_site_symmetry_2
Au0 O10 2.009024 1_555
Au0 O8 2.009024 1_445
Au0 O9 2.009024 1_445
Au0 O11 2.009024 1_555
Au1 O1 2.002284 1_555
Au1 O3 2.002284 1_555
Au1 O0 2.002284 1_555
Au1 O2 2.002284 1_555
O0 S0 1.528388 1_555
O1 S1 1.528388 1_555
O2 S2 1.528388 1_555
O3 S3 1.528388 1_555
O4 S0 1.434164 1_555
O4 Pb0 2.600369 1_566
O5 S1 1.434164 1_555
O5 Pb0 2.600369 1_656
O6 S2 1.434164 1_555
O6 Pb0 2.600369 1_655
O7 S3 1.434164 1_555
O7 Pb0 2.600369 1_565
O8 S0 1.532113 1_655
O9 S1 1.532113 1_565
O10 S2 1.532113 1_455
O11 S3 1.532113 1_545
O12 S0 1.436330 1_555
O12 Pb0 2.640350 1_556
O13 S1 1.436331 1_555
O13 Pb0 2.640350 1_556
O14 S2 1.436330 1_555
O14 Pb0 2.640350 1_665
O15 S3 1.436331 1_555
O15 Pb0 2.640350 1_665
