# generated using pymatgen
data_Ce2Si3Rh
_symmetry_space_group_name_H-M   'P 1'
_cell_length_a   8.21357854
_cell_length_b   8.21351927
_cell_length_c   4.21032690
_cell_angle_alpha   90.00000000
_cell_angle_beta   90.00000000
_cell_angle_gamma   120.00024988
_symmetry_Int_Tables_number   1
_chemical_formula_structural   Ce2Si3Rh
_chemical_formula_sum   'Ce4 Si6 Rh2'
_cell_volume   245.98410762
_cell_formula_units_Z   2
loop_
 _symmetry_equiv_pos_site_id
 _symmetry_equiv_pos_as_xyz
  1  'x, y, z'
loop_
 _atom_site_type_symbol
 _atom_site_label
 _atom_site_symmetry_multiplicity
 _atom_site_fract_x
 _atom_site_fract_y
 _atom_site_fract_z
 _atom_site_occupancy
  Ce  Ce0  1  0.00000000  0.00000000  0.50000000  1
  Ce  Ce1  1  0.00000000  0.50000000  0.50000000  1
  Ce  Ce2  1  0.50000000  0.50000000  0.50000000  1
  Ce  Ce3  1  0.50000000  0.00000000  0.50000000  1
  Si  Si0  1  0.33228222  0.16614260  0.00000000  1
  Si  Si1  1  0.83385290  0.16613936  -0.00000000  1
  Si  Si2  1  0.83385188  0.66771115  0.00000000  1
  Si  Si3  1  0.16614812  0.33228885  0.00000000  1
  Si  Si4  1  0.16614710  0.83386064  -0.00000000  1
  Si  Si5  1  0.66771778  0.83385740  0.00000000  1
  Rh  Rh0  1  0.66663521  0.33332253  -0.00000000  1
  Rh  Rh1  1  0.33336479  0.66667747  -0.00000000  1
loop_
_geom_bond_atom_site_label_1
_geom_bond_atom_site_label_2
_geom_bond_distance
_geom_bond_site_symmetry_2
Ce0 Si5 3.165153 1_445
Ce0 Si5 3.165153 1_446
Ce0 Si0 3.165153 1_556
Ce0 Si0 3.165153 1_555
Ce0 Si3 3.165175 1_555
Ce0 Si3 3.165175 1_556
Ce0 Si2 3.165175 1_445
Ce0 Si2 3.165175 1_446
Ce0 Si4 3.165175 1_546
Ce0 Si4 3.165175 1_545
Ce0 Si1 3.165175 1_455
Ce0 Si1 3.165175 1_456
Ce1 Rh0 3.170907 1_456
Ce1 Rh0 3.170907 1_455
Ce1 Rh1 3.170907 1_555
Ce1 Rh1 3.170907 1_556
Ce1 Si1 3.173539 1_455
Ce1 Si1 3.173539 1_456
Ce1 Si4 3.173539 1_555
Ce1 Si4 3.173539 1_556
Ce1 Si3 3.173545 1_556
Ce1 Si2 3.173545 1_455
Ce1 Si2 3.173545 1_456
Ce1 Si3 3.173545 1_555
Ce2 Rh0 3.170630 1_555
Ce2 Rh0 3.170630 1_556
Ce2 Rh1 3.170630 1_556
Ce2 Rh1 3.170630 1_555
Ce2 Si3 3.173505 1_556
Ce2 Si3 3.173505 1_555
Ce2 Si2 3.173505 1_556
Ce2 Si2 3.173505 1_555
Ce2 Si0 3.173522 1_556
Ce2 Si0 3.173522 1_555
Ce2 Si5 3.173522 1_556
Ce2 Si5 3.173522 1_555
Ce3 Rh1 3.170670 1_546
Ce3 Rh1 3.170670 1_545
Ce3 Rh0 3.170670 1_556
Ce3 Rh0 3.170670 1_555
Ce3 Si4 3.173511 1_545
Ce3 Si1 3.173511 1_556
Ce3 Si1 3.173511 1_555
Ce3 Si4 3.173511 1_546
Ce3 Si5 3.173551 1_546
Ce3 Si0 3.173551 1_556
Ce3 Si0 3.173551 1_555
Ce3 Si5 3.173551 1_545
Si0 Si4 2.363554 1_545
Si0 Si3 2.363560 1_555
Si1 Si5 2.363554 1_545
Si1 Si3 2.363666 1_655
Si2 Si5 2.363560 1_555
Si2 Si4 2.363666 1_655
Rh0 Si0 2.378303 1_555
Rh0 Si2 2.378539 1_555
Rh0 Si1 2.378644 1_555
Rh1 Si5 2.378303 1_555
Rh1 Si3 2.378539 1_555
Rh1 Si4 2.378644 1_555
