# generated using pymatgen
data_Y16Al4PdPt3
_symmetry_space_group_name_H-M   'P 1'
_cell_length_a   9.62083323
_cell_length_b   9.63967360
_cell_length_c   9.63967308
_cell_angle_alpha   60.00000520
_cell_angle_beta   59.93520438
_cell_angle_gamma   59.93520737
_symmetry_Int_Tables_number   1
_chemical_formula_structural   Y16Al4PdPt3
_chemical_formula_sum   'Y16 Al4 Pd1 Pt3'
_cell_volume   631.53338425
_cell_formula_units_Z   1
loop_
 _symmetry_equiv_pos_site_id
 _symmetry_equiv_pos_as_xyz
  1  'x, y, z'
loop_
 _atom_site_type_symbol
 _atom_site_label
 _atom_site_symmetry_multiplicity
 _atom_site_fract_x
 _atom_site_fract_y
 _atom_site_fract_z
 _atom_site_occupancy
  Y  Y0  1  0.35297621  0.35516712  0.35516712  1
  Y  Y1  1  0.35297621  0.35516712  0.93668854  1
  Y  Y2  1  0.35297621  0.93668854  0.35516712  1
  Y  Y3  1  0.93933368  0.35355511  0.35355511  1
  Y  Y4  1  0.80890726  0.19255628  0.19255628  1
  Y  Y5  1  0.19167055  0.80777460  0.80777460  1
  Y  Y6  1  0.19167055  0.80777460  0.19278025  1
  Y  Y7  1  0.80890726  0.19255628  0.80598018  1
  Y  Y8  1  0.19167055  0.19278025  0.80777460  1
  Y  Y9  1  0.80890726  0.80598018  0.19255628  1
  Y  Y10  1  0.93679386  0.56325836  0.56325836  1
  Y  Y11  1  0.56206711  0.93658969  0.93658969  1
  Y  Y12  1  0.56206711  0.93658969  0.56475351  1
  Y  Y13  1  0.93679386  0.56325836  0.93668841  1
  Y  Y14  1  0.56206711  0.56475351  0.93658969  1
  Y  Y15  1  0.93679386  0.93668841  0.56325836  1
  Al  Al0  1  0.57860127  0.57776541  0.57776541  1
  Al  Al1  1  0.57860127  0.57776541  0.26586992  1
  Al  Al2  1  0.57860127  0.26586992  0.57776541  1
  Al  Al3  1  0.26555813  0.57814762  0.57814762  1
  Pd  Pd0  1  0.56830291  0.14389903  0.14389903  1
  Pt  Pt0  1  0.14458551  0.14286365  0.14286365  1
  Pt  Pt1  1  0.14458551  0.14286365  0.56968719  1
  Pt  Pt2  1  0.14458551  0.56968719  0.14286365  1
loop_
_geom_bond_atom_site_label_1
_geom_bond_atom_site_label_2
_geom_bond_distance
_geom_bond_site_symmetry_2
Al0 Al1 3.006570 1_555
Al0 Al2 3.006571 1_555
Al0 Al3 3.008049 1_555
Al0 Y10 3.311893 1_555
Al0 Y1 3.317360 1_555
Al0 Y2 3.317361 1_555
Al0 Y3 3.320733 1_555
Al0 Y14 3.322679 1_555
Al0 Y12 3.322679 1_555
Al0 Y9 3.465387 1_555
Al0 Y7 3.465387 1_555
Al0 Y5 3.473604 1_555
Al1 Al2 3.006571 1_555
Al1 Al3 3.008044 1_555
Al1 Y13 3.311906 1_554
Al1 Y2 3.317347 1_555
Al1 Y0 3.317372 1_555
Al1 Y3 3.320720 1_555
Al1 Y11 3.322688 1_554
Al1 Y14 3.322698 1_554
Al1 Y9 3.465379 1_555
Al1 Y4 3.465396 1_555
Al1 Y6 3.473612 1_555
Al2 Al3 3.008044 1_555
Al2 Y15 3.311906 1_545
Al2 Y1 3.317347 1_555
Al2 Y0 3.317372 1_555
Al2 Y3 3.320720 1_555
Al2 Y11 3.322688 1_545
Al2 Y12 3.322699 1_545
Al2 Y7 3.465379 1_555
Al2 Y4 3.465395 1_555
Al2 Y8 3.473612 1_555
Al3 Y1 3.308343 1_555
Al3 Y2 3.308344 1_555
Al3 Y0 3.308360 1_555
Al3 Y13 3.312996 1_455
Al3 Y15 3.312996 1_455
Al3 Y10 3.313006 1_455
Al3 Y5 3.471494 1_555
Al3 Y6 3.471503 1_555
Al3 Y8 3.471503 1_555
Pd0 Y4 2.862533 1_555
Pd0 Y7 2.862533 1_554
Pd0 Y9 2.862533 1_545
Pd0 Y0 2.877468 1_555
Pd0 Y2 2.877475 1_545
Pd0 Y1 2.877475 1_554
Pd0 Y11 3.496368 1_544
Pd0 Y12 3.496368 1_545
Pd0 Y14 3.496368 1_554
Pt0 Y4 2.831612 1_455
Pt0 Y8 2.840529 1_554
Pt0 Y6 2.840529 1_545
Pt0 Y1 2.865164 1_554
Pt0 Y2 2.865164 1_545
Pt0 Y3 2.870080 1_455
Pt0 Y11 3.462589 1_544
Pt0 Y15 3.489784 1_445
Pt0 Y13 3.489785 1_454
Pt1 Y7 2.831612 1_455
Pt1 Y8 2.840529 1_555
Pt1 Y5 2.840530 1_545
Pt1 Y0 2.865164 1_555
Pt1 Y2 2.865171 1_545
Pt1 Y3 2.870087 1_455
Pt1 Y12 3.462588 1_545
Pt1 Y10 3.489782 1_455
Pt1 Y15 3.489790 1_445
Pt2 Y9 2.831612 1_455
Pt2 Y6 2.840529 1_555
Pt2 Y5 2.840529 1_554
Pt2 Y0 2.865164 1_555
Pt2 Y1 2.865171 1_554
Pt2 Y3 2.870087 1_455
Pt2 Y14 3.462588 1_554
Pt2 Y10 3.489782 1_455
Pt2 Y13 3.489790 1_454
