# generated using pymatgen
data_Hf10Zn2(BiPb)3
_symmetry_space_group_name_H-M   'P 1'
_cell_length_a   8.71328856
_cell_length_b   8.71152279
_cell_length_c   5.83516063
_cell_angle_alpha   90.00000000
_cell_angle_beta   90.00000000
_cell_angle_gamma   120.00670529
_symmetry_Int_Tables_number   1
_chemical_formula_structural   Hf10Zn2(BiPb)3
_chemical_formula_sum   'Hf10 Zn2 Bi3 Pb3'
_cell_volume   383.55731809
_cell_formula_units_Z   1
loop_
 _symmetry_equiv_pos_site_id
 _symmetry_equiv_pos_as_xyz
  1  'x, y, z'
loop_
 _atom_site_type_symbol
 _atom_site_label
 _atom_site_symmetry_multiplicity
 _atom_site_fract_x
 _atom_site_fract_y
 _atom_site_fract_z
 _atom_site_occupancy
  Hf  Hf0  1  0.33307460  0.66659955  0.00075280  1
  Hf  Hf1  1  0.66647506  0.33340045  0.49924720  1
  Hf  Hf2  1  0.66647506  0.33340045  0.00075280  1
  Hf  Hf3  1  0.33307460  0.66659955  0.49924720  1
  Hf  Hf4  1  0.26215395  0.00000000  0.25000000  1
  Hf  Hf5  1  0.26285550  0.26024740  0.75000000  1
  Hf  Hf6  1  0.00260810  0.73975260  0.75000000  1
  Hf  Hf7  1  0.00257002  0.26575770  0.25000000  1
  Hf  Hf8  1  0.73681133  0.73424230  0.25000000  1
  Hf  Hf9  1  0.73607730  0.00000000  0.75000000  1
  Zn  Zn0  1  0.99939961  0.00000000  0.00147284  1
  Zn  Zn1  1  0.99939961  0.00000000  0.49852716  1
  Bi  Bi0  1  0.61251500  0.00000000  0.25000000  1
  Bi  Bi1  1  0.61192354  0.61139722  0.75000000  1
  Bi  Bi2  1  0.00052732  0.38860278  0.75000000  1
  Pb  Pb0  1  0.00047277  0.61398227  0.25000000  1
  Pb  Pb1  1  0.38648950  0.38601773  0.25000000  1
  Pb  Pb2  1  0.38709815  0.00000000  0.75000000  1
loop_
_geom_bond_atom_site_label_1
_geom_bond_atom_site_label_2
_geom_bond_distance
_geom_bond_site_symmetry_2
Hf0 Pb0 3.065198 1_555
Hf0 Pb2 3.070947 1_564
Hf0 Pb1 3.073161 1_555
Hf1 Pb1 3.065205 1_555
Hf1 Pb2 3.070947 1_555
Hf1 Pb0 3.073166 1_655
Hf2 Pb1 3.065205 1_555
Hf2 Pb2 3.070947 1_554
Hf2 Pb0 3.073166 1_655
Hf3 Pb0 3.065198 1_555
Hf3 Pb2 3.070947 1_565
Hf3 Pb1 3.073161 1_555
Hf4 Zn1 2.710105 1_455
Hf4 Zn0 2.710105 1_455
Hf4 Pb0 2.972914 1_545
Hf4 Pb1 2.972916 1_555
Hf4 Pb2 3.114079 1_555
Hf4 Pb2 3.114079 1_554
Hf5 Zn0 2.712447 1_456
Hf5 Zn1 2.712447 1_455
Hf5 Pb2 2.960869 1_555
Hf5 Pb1 3.113306 1_556
Hf5 Pb1 3.113306 1_555
Hf6 Zn0 2.712447 1_466
Hf6 Zn1 2.712447 1_465
Hf6 Pb2 2.960869 1_565
Hf6 Pb0 3.113307 1_555
Hf6 Pb0 3.113307 1_556
Hf7 Zn1 2.720258 1_455
Hf7 Zn0 2.720258 1_455
Hf7 Pb1 2.963551 1_555
Hf7 Pb0 3.042746 1_555
Hf8 Zn1 2.720261 1_565
Hf8 Zn0 2.720261 1_565
Hf8 Pb0 2.963567 1_655
Hf8 Pb1 3.042746 1_555
Hf9 Zn0 2.723509 1_556
Hf9 Zn1 2.723509 1_555
Hf9 Pb2 3.040756 1_555
Bi0 Hf8 3.006789 1_545
Bi0 Hf7 3.006796 1_655
Bi0 Hf4 3.052797 1_555
Bi0 Hf3 3.066948 1_545
Bi0 Hf0 3.066948 1_545
Bi0 Hf1 3.066948 1_555
Bi0 Hf2 3.066948 1_555
Bi0 Hf9 3.109890 1_554
Bi0 Hf9 3.109890 1_555
Bi1 Hf9 2.994616 1_565
Bi1 Hf6 3.005218 1_655
Bi1 Hf5 3.050019 1_555
Bi1 Hf2 3.063199 1_556
Bi1 Hf1 3.063199 1_555
Bi1 Hf0 3.073147 1_556
Bi1 Hf3 3.073147 1_555
Bi1 Hf8 3.110772 1_556
Bi1 Hf8 3.110772 1_555
Bi2 Hf9 2.994618 1_455
Bi2 Hf5 3.005210 1_555
Bi2 Hf6 3.050023 1_555
Bi2 Hf0 3.063195 1_556
Bi2 Hf3 3.063195 1_555
Bi2 Hf2 3.073154 1_456
Bi2 Hf1 3.073154 1_455
Bi2 Hf7 3.110772 1_555
Bi2 Hf7 3.110772 1_556
