# generated using pymatgen
data_MgNi21B6W
_symmetry_space_group_name_H-M   'P 1'
_cell_length_a   7.35915316
_cell_length_b   7.35915315
_cell_length_c   7.35915342
_cell_angle_alpha   60.00000318
_cell_angle_beta   60.00000322
_cell_angle_gamma   60.00000210
_symmetry_Int_Tables_number   1
_chemical_formula_structural   MgNi21B6W
_chemical_formula_sum   'Mg1 Ni21 B6 W1'
_cell_volume   281.81789651
_cell_formula_units_Z   1
loop_
 _symmetry_equiv_pos_site_id
 _symmetry_equiv_pos_as_xyz
  1  'x, y, z'
loop_
 _atom_site_type_symbol
 _atom_site_label
 _atom_site_symmetry_multiplicity
 _atom_site_fract_x
 _atom_site_fract_y
 _atom_site_fract_z
 _atom_site_occupancy
  Mg  Mg0  1  0.25000000  0.25000000  0.25000000  1
  Ni  Ni0  1  0.00000000  0.00000000  0.00000000  1
  Ni  Ni1  1  0.61819638  0.61819638  0.14540987  1
  Ni  Ni2  1  0.61819638  0.14540987  0.61819638  1
  Ni  Ni3  1  0.14540987  0.61819638  0.61819638  1
  Ni  Ni4  1  0.61819638  0.61819638  0.61819638  1
  Ni  Ni5  1  0.38614243  0.38614243  0.84157470  1
  Ni  Ni6  1  0.38614243  0.84157470  0.38614243  1
  Ni  Ni7  1  0.84157470  0.38614243  0.38614243  1
  Ni  Ni8  1  0.38614243  0.38614243  0.38614243  1
  Ni  Ni9  1  0.99768807  0.99768807  0.34172038  1
  Ni  Ni10  1  0.66290349  0.99768807  0.34172038  1
  Ni  Ni11  1  0.99768807  0.66290349  0.34172038  1
  Ni  Ni12  1  0.66290349  0.34172038  0.99768807  1
  Ni  Ni13  1  0.99768807  0.34172038  0.99768807  1
  Ni  Ni14  1  0.99768807  0.34172038  0.66290349  1
  Ni  Ni15  1  0.34172038  0.66290349  0.99768807  1
  Ni  Ni16  1  0.34172038  0.99768807  0.66290349  1
  Ni  Ni17  1  0.34172038  0.99768807  0.99768807  1
  Ni  Ni18  1  0.99768807  0.99768807  0.66290349  1
  Ni  Ni19  1  0.99768807  0.66290349  0.99768807  1
  Ni  Ni20  1  0.66290349  0.99768807  0.99768807  1
  B  B0  1  0.72950487  0.72950487  0.27049513  1
  B  B1  1  0.27049513  0.72950487  0.27049513  1
  B  B2  1  0.72950487  0.27049513  0.27049513  1
  B  B3  1  0.27049513  0.27049513  0.72950487  1
  B  B4  1  0.72950487  0.27049513  0.72950487  1
  B  B5  1  0.27049513  0.72950487  0.72950487  1
  W  W0  1  0.75000000  0.75000000  0.75000000  1
loop_
_geom_bond_atom_site_label_1
_geom_bond_atom_site_label_2
_geom_bond_distance
_geom_bond_site_symmetry_2
Mg0 Ni6 2.454115 1_545
Mg0 Ni7 2.454115 1_455
Mg0 Ni5 2.454115 1_554
Mg0 Ni8 2.454127 1_555
Ni0 Ni19 2.497875 1_444
Ni0 Ni13 2.497875 1_454
Ni0 Ni20 2.497875 1_444
Ni0 Ni17 2.497875 1_544
Ni0 Ni12 2.497875 1_454
Ni0 Ni15 2.497875 1_544
Ni0 Ni18 2.497875 1_444
Ni0 Ni9 2.497875 1_445
Ni0 Ni14 2.497875 1_454
Ni0 Ni11 2.497875 1_445
Ni0 Ni16 2.497875 1_544
Ni0 Ni10 2.497875 1_445
Ni1 W0 2.375909 1_554
Ni2 W0 2.375909 1_545
Ni3 W0 2.375909 1_455
Ni4 W0 2.375915 1_555
B0 Ni10 2.054342 1_555
B0 Ni11 2.054342 1_555
B0 Ni20 2.054342 1_554
B0 Ni19 2.054342 1_554
B0 Ni7 2.063226 1_555
B0 Ni6 2.063226 1_555
B0 Ni4 2.090060 1_555
B0 Ni1 2.090066 1_555
B1 Ni11 2.054342 1_455
B1 Ni9 2.054342 1_455
B1 Ni15 2.054342 1_554
B1 Ni17 2.054342 1_554
B1 Ni8 2.063226 1_555
B1 Ni6 2.063238 1_555
B1 Ni1 2.090061 1_555
B1 Ni3 2.090061 1_555
B2 Ni10 2.054342 1_545
B2 Ni9 2.054342 1_545
B2 Ni12 2.054342 1_554
B2 Ni13 2.054342 1_554
B2 Ni8 2.063226 1_555
B2 Ni7 2.063238 1_555
B2 Ni1 2.090061 1_555
B2 Ni2 2.090061 1_555
B3 Ni16 2.054342 1_545
B3 Ni14 2.054342 1_455
B3 Ni17 2.054342 1_545
B3 Ni13 2.054342 1_455
B3 Ni8 2.063226 1_555
B3 Ni5 2.063238 1_555
B3 Ni3 2.090061 1_555
B3 Ni2 2.090061 1_555
B4 Ni14 2.054342 1_555
B4 Ni18 2.054342 1_545
B4 Ni12 2.054342 1_555
B4 Ni20 2.054342 1_545
B4 Ni5 2.063226 1_555
B4 Ni7 2.063226 1_555
B4 Ni4 2.090060 1_555
B4 Ni2 2.090066 1_555
B5 Ni16 2.054342 1_555
B5 Ni18 2.054342 1_455
B5 Ni15 2.054342 1_555
B5 Ni19 2.054342 1_455
B5 Ni5 2.063226 1_555
B5 Ni6 2.063226 1_555
B5 Ni4 2.090060 1_555
B5 Ni3 2.090066 1_555
