# generated using pymatgen
data_AlBi3(PS3)6
_symmetry_space_group_name_H-M   'P 1'
_cell_length_a   10.85405318
_cell_length_b   10.85405271
_cell_length_c   7.06569806
_cell_angle_alpha   75.51177475
_cell_angle_beta   75.51177741
_cell_angle_gamma   60.10718426
_symmetry_Int_Tables_number   1
_chemical_formula_structural   AlBi3(PS3)6
_chemical_formula_sum   'Al1 Bi3 P6 S18'
_cell_volume   690.86526675
_cell_formula_units_Z   1
loop_
 _symmetry_equiv_pos_site_id
 _symmetry_equiv_pos_as_xyz
  1  'x, y, z'
loop_
 _atom_site_type_symbol
 _atom_site_label
 _atom_site_symmetry_multiplicity
 _atom_site_fract_x
 _atom_site_fract_y
 _atom_site_fract_z
 _atom_site_occupancy
  Al  Al0  1  0.16445328  0.83554672  0.50000000  1
  Bi  Bi0  1  0.16349697  0.47570536  0.50091351  1
  Bi  Bi1  1  0.52429464  0.83650303  0.49908649  1
  Bi  Bi2  1  0.80397681  0.19602319  0.50000000  1
  P  P0  1  0.85894695  0.85668051  0.33713529  1
  P  P1  1  0.14331949  0.14105305  0.66286471  1
  P  P2  1  0.50129848  0.53029191  0.33575987  1
  P  P3  1  0.46970809  0.49870152  0.66424013  1
  P  P4  1  0.18600045  0.17321239  0.33404615  1
  P  P5  1  0.82678761  0.81399955  0.66595385  1
  S  S0  1  0.71334186  0.46003243  0.24840612  1
  S  S1  1  0.53996757  0.28665814  0.75159388  1
  S  S2  1  0.08200277  0.76285340  0.27266536  1
  S  S3  1  0.23714660  0.91799723  0.72733464  1
  S  S4  1  0.39621854  0.09629698  0.24012664  1
  S  S5  1  0.90370302  0.60378146  0.75987336  1
  S  S6  1  0.78992111  0.74187140  0.25056305  1
  S  S7  1  0.25812860  0.21007889  0.74943695  1
  S  S8  1  0.42375369  0.42643090  0.24467888  1
  S  S9  1  0.57356910  0.57624631  0.75532112  1
  S  S10  1  0.09182031  0.06443652  0.27135662  1
  S  S11  1  0.93556348  0.90817969  0.72864338  1
  S  S12  1  0.39365633  0.75320043  0.27091177  1
  S  S13  1  0.24679957  0.60634367  0.72908823  1
  S  S14  1  0.07265886  0.38513918  0.24692843  1
  S  S15  1  0.61486082  0.92734114  0.75307157  1
  S  S16  1  0.75639847  0.06668948  0.24170603  1
  S  S17  1  0.93331052  0.24360153  0.75829397  1
loop_
_geom_bond_atom_site_label_1
_geom_bond_atom_site_label_2
_geom_bond_distance
_geom_bond_site_symmetry_2
Al0 S3 2.461869 1_555
Al0 S2 2.461869 1_555
Al0 S10 2.465841 1_565
Al0 S11 2.465842 1_455
Al0 S13 2.469950 1_555
Al0 S12 2.469950 1_555
Bi0 S7 2.805072 1_555
Bi0 S14 2.809456 1_555
Bi0 S8 2.821910 1_555
Bi0 S5 2.831191 1_455
Bi0 S2 2.923709 1_555
Bi0 S13 2.928909 1_555
Bi1 S6 2.805072 1_555
Bi1 S15 2.809456 1_555
Bi1 S9 2.821910 1_555
Bi1 S4 2.831190 1_565
Bi1 S3 2.923709 1_555
Bi1 S12 2.928909 1_555
Bi2 S0 2.802803 1_555
Bi2 S1 2.802803 1_555
Bi2 S16 2.836218 1_555
Bi2 S17 2.836219 1_555
Bi2 S11 2.931233 1_545
Bi2 S10 2.931234 1_655
P0 S16 1.991728 1_565
P0 S6 2.007404 1_555
P0 S2 2.080590 1_655
P0 P5 2.225125 1_555
P1 S17 1.991728 1_455
P1 S7 2.007404 1_555
P1 S3 2.080589 1_545
P1 P4 2.225125 1_555
P2 S8 1.993287 1_555
P2 S0 2.008688 1_555
P2 S12 2.079502 1_555
P2 P3 2.223221 1_555
P3 S9 1.993287 1_555
P3 S1 2.008688 1_555
P3 S13 2.079502 1_555
P4 S4 1.991092 1_555
P4 S14 2.008315 1_555
P4 S10 2.079990 1_555
P5 S5 1.991092 1_555
P5 S15 2.008315 1_555
P5 S11 2.079990 1_555
