# generated using pymatgen
data_Sb12OsPd3
_symmetry_space_group_name_H-M   'P 1'
_cell_length_a   8.16215837
_cell_length_b   8.20614879
_cell_length_c   8.16215849
_cell_angle_alpha   109.58042252
_cell_angle_beta   109.36179186
_cell_angle_gamma   109.58043895
_symmetry_Int_Tables_number   1
_chemical_formula_structural   Sb12OsPd3
_chemical_formula_sum   'Sb12 Os1 Pd3'
_cell_volume   420.28163198
_cell_formula_units_Z   1
loop_
 _symmetry_equiv_pos_site_id
 _symmetry_equiv_pos_as_xyz
  1  'x, y, z'
loop_
 _atom_site_type_symbol
 _atom_site_label
 _atom_site_symmetry_multiplicity
 _atom_site_fract_x
 _atom_site_fract_y
 _atom_site_fract_z
 _atom_site_occupancy
  Sb  Sb0  1  0.84410334  0.65297674  0.49759721  1
  Sb  Sb1  1  0.85238596  0.34350648  0.18710509  1
  Sb  Sb2  1  0.14761404  0.65649352  0.81289491  1
  Sb  Sb3  1  0.33471713  0.49111952  0.14761404  1
  Sb  Sb4  1  0.15589666  0.34702326  0.50240279  1
  Sb  Sb5  1  0.65349187  0.80887240  0.15589666  1
  Sb  Sb6  1  0.18710509  0.84359661  0.33471713  1
  Sb  Sb7  1  0.66528287  0.50888048  0.85238596  1
  Sb  Sb8  1  0.81289491  0.15640339  0.66528287  1
  Sb  Sb9  1  0.34650813  0.19112760  0.84410334  1
  Sb  Sb10  1  0.49759721  0.84461947  0.65349187  1
  Sb  Sb11  1  0.50240279  0.15538053  0.34650813  1
  Os  Os0  1  0.00000000  0.50000000  0.00000000  1
  Pd  Pd0  1  0.00000000  0.00000000  0.50000000  1
  Pd  Pd1  1  0.50000000  0.00000000  0.00000000  1
  Pd  Pd2  1  0.50000000  0.50000000  0.50000000  1
loop_
_geom_bond_atom_site_label_1
_geom_bond_atom_site_label_2
_geom_bond_distance
_geom_bond_site_symmetry_2
Sb0 Sb2 2.904452 1_655
Sb0 Sb1 2.965037 1_555
Sb1 Sb4 2.904452 1_655
Sb2 Sb4 2.965037 1_555
Sb3 Sb9 2.904463 1_554
Sb3 Sb5 2.965036 1_555
Sb5 Sb7 2.904463 1_554
Sb7 Sb9 2.965036 1_555
Sb10 Sb8 2.904448 1_565
Sb10 Sb6 2.965031 1_555
Sb11 Sb6 2.904448 1_545
Sb11 Sb8 2.965031 1_555
Os0 Sb6 2.632594 1_555
Os0 Sb8 2.632594 1_454
Os0 Sb7 2.632600 1_454
Os0 Sb3 2.632600 1_555
Os0 Sb2 2.632611 1_554
Os0 Sb1 2.632611 1_455
Pd0 Sb5 2.674794 1_445
Pd0 Sb9 2.674794 1_555
Pd0 Sb4 2.691900 1_555
Pd0 Sb0 2.691900 1_445
Pd0 Sb8 2.705341 1_455
Pd0 Sb6 2.705341 1_545
Pd1 Sb11 2.674803 1_555
Pd1 Sb10 2.674803 1_544
Pd1 Sb9 2.691899 1_554
Pd1 Sb5 2.691899 1_545
Pd1 Sb1 2.705324 1_555
Pd1 Sb2 2.705324 1_544
Pd2 Sb0 2.674787 1_555
Pd2 Sb4 2.674787 1_555
Pd2 Sb10 2.691891 1_555
Pd2 Sb11 2.691891 1_555
Pd2 Sb7 2.705322 1_555
Pd2 Sb3 2.705322 1_555
