# generated using pymatgen
data_SrZnP3N5O2
_symmetry_space_group_name_H-M   'P 1'
_cell_length_a   6.25384650
_cell_length_b   7.24093543
_cell_length_c   15.07365411
_cell_angle_alpha   58.22455788
_cell_angle_beta   90.00000000
_cell_angle_gamma   90.00000000
_symmetry_Int_Tables_number   1
_chemical_formula_structural   SrZnP3N5O2
_chemical_formula_sum   'Sr4 Zn4 P12 N20 O8'
_cell_volume   580.28305958
_cell_formula_units_Z   4
loop_
 _symmetry_equiv_pos_site_id
 _symmetry_equiv_pos_as_xyz
  1  'x, y, z'
loop_
 _atom_site_type_symbol
 _atom_site_label
 _atom_site_symmetry_multiplicity
 _atom_site_fract_x
 _atom_site_fract_y
 _atom_site_fract_z
 _atom_site_occupancy
  Sr  Sr0  1  0.73834436  0.49890393  0.64016666  1
  Sr  Sr1  1  0.23834436  0.50109607  0.85983334  1
  Sr  Sr2  1  0.26165564  0.50109607  0.35983334  1
  Sr  Sr3  1  0.76165564  0.49890393  0.14016666  1
  Zn  Zn0  1  0.49871635  0.95888255  0.88808556  1
  Zn  Zn1  1  0.99871635  0.04111745  0.61191444  1
  Zn  Zn2  1  0.50128365  0.04111745  0.11191444  1
  Zn  Zn3  1  0.00128365  0.95888255  0.38808556  1
  P  P0  1  0.00043751  0.94566958  0.88436464  1
  P  P1  1  0.50043751  0.05433042  0.61563536  1
  P  P2  1  0.99956249  0.05433042  0.11563536  1
  P  P3  1  0.49956249  0.94566958  0.38436464  1
  P  P4  1  0.27229012  0.73800157  0.58802599  1
  P  P5  1  0.77229012  0.26199843  0.91197401  1
  P  P6  1  0.72770988  0.26199843  0.41197401  1
  P  P7  1  0.22770988  0.73800157  0.08802599  1
  P  P8  1  0.75001593  0.73466163  0.79520270  1
  P  P9  1  0.25001593  0.26533837  0.70479730  1
  P  P10  1  0.24998407  0.26533837  0.20479730  1
  P  P11  1  0.74998407  0.73466163  0.29520270  1
  N  N0  1  0.28636325  0.90578113  0.63119837  1
  N  N1  1  0.78636325  0.09421887  0.86880163  1
  N  N2  1  0.71363675  0.09421887  0.36880163  1
  N  N3  1  0.21363675  0.90578113  0.13119837  1
  N  N4  1  0.71408313  0.90063535  0.66780723  1
  N  N5  1  0.21408313  0.09936465  0.83219277  1
  N  N6  1  0.28591687  0.09936465  0.33219277  1
  N  N7  1  0.78591687  0.90063535  0.16780723  1
  N  N8  1  0.95816423  0.80859810  0.83006689  1
  N  N9  1  0.45816423  0.19140190  0.66993311  1
  N  N10  1  0.04183577  0.19140190  0.16993311  1
  N  N11  1  0.54183577  0.80859810  0.33006689  1
  N  N12  1  0.80104457  0.50172832  0.80861497  1
  N  N13  1  0.30104457  0.49827168  0.69138503  1
  N  N14  1  0.19895543  0.49827168  0.19138503  1
  N  N15  1  0.69895543  0.50172832  0.30861497  1
  N  N16  1  0.54467504  0.22454797  0.49356526  1
  N  N17  1  0.04467504  0.77545203  0.00643474  1
  N  N18  1  0.45532496  0.77545203  0.50643474  1
  N  N19  1  0.95532496  0.22454797  0.99356526  1
  O  O0  1  0.04453274  0.76369565  0.54308617  1
  O  O1  1  0.54453274  0.23630435  0.95691383  1
  O  O2  1  0.95546726  0.23630435  0.45691383  1
  O  O3  1  0.45546726  0.76369565  0.04308617  1
  O  O4  1  0.54703892  0.72616359  0.85540384  1
  O  O5  1  0.04703892  0.27383641  0.64459616  1
  O  O6  1  0.45296108  0.27383641  0.14459616  1
  O  O7  1  0.95296108  0.72616359  0.35540384  1
loop_
_geom_bond_atom_site_label_1
_geom_bond_atom_site_label_2
_geom_bond_distance
_geom_bond_site_symmetry_2
N0 P1 1.654878 1_565
N0 P4 1.655242 1_555
N0 Zn1 1.995208 1_465
N0 Sr1 3.149332 1_555
N1 P0 1.654878 1_645
N1 P5 1.655242 1_555
N1 Zn0 1.995208 1_545
N1 Sr0 3.149332 1_555
N2 P3 1.654878 1_545
N2 P6 1.655242 1_555
N2 Zn3 1.995208 1_645
N2 Sr3 3.149332 1_555
N3 P2 1.654878 1_465
N3 P7 1.655242 1_555
N3 Zn2 1.995208 1_565
N3 Sr2 3.149332 1_555
N4 P1 1.649372 1_565
N4 P8 1.658874 1_555
N4 Zn1 2.002636 1_565
N4 Sr0 3.151954 1_555
N5 P0 1.649372 1_545
N5 P9 1.658874 1_555
N5 Zn0 2.002636 1_545
N5 Sr1 3.151954 1_555
N6 P3 1.649372 1_545
N6 P10 1.658874 1_555
N6 Zn3 2.002636 1_545
N6 Sr2 3.151954 1_555
N7 P2 1.649372 1_565
N7 P11 1.658874 1_555
N7 Zn2 2.002636 1_565
N7 Sr3 3.151954 1_555
N8 P8 1.598003 1_555
N8 P0 1.606374 1_655
N8 Sr1 2.679013 1_655
N9 P9 1.598003 1_555
N9 P1 1.606374 1_555
N9 Sr0 2.679013 1_555
N10 P10 1.598003 1_555
N10 P2 1.606374 1_455
N10 Sr3 2.679013 1_455
N11 P11 1.598003 1_555
N11 P3 1.606374 1_555
N11 Sr2 2.679013 1_555
N12 P5 1.620069 1_555
N12 P8 1.621231 1_555
N12 Sr0 2.579933 1_555
N12 Sr1 2.841042 1_655
N13 P4 1.620069 1_555
N13 P9 1.621231 1_555
N13 Sr1 2.579933 1_555
N13 Sr0 2.841042 1_555
N14 P7 1.620069 1_555
N14 P10 1.621231 1_555
N14 Sr2 2.579933 1_555
N14 Sr3 2.841042 1_455
N15 P6 1.620069 1_555
N15 P11 1.621231 1_555
N15 Sr3 2.579933 1_555
N15 Sr2 2.841042 1_555
N16 P6 1.595356 1_555
N16 P1 1.610250 1_555
N16 Sr2 2.637212 1_555
N17 P7 1.595356 1_555
N17 P0 1.610250 1_554
N17 Sr3 2.637212 1_455
N18 P4 1.595356 1_555
N18 P3 1.610250 1_555
N18 Sr0 2.637212 1_555
N19 P5 1.595356 1_555
N19 P2 1.610250 1_556
N19 Sr1 2.637212 1_655
O0 P4 1.545821 1_555
O0 Zn3 2.012905 1_555
O0 Sr0 2.555251 1_455
O1 P5 1.545821 1_555
O1 Zn2 2.012905 1_556
O1 Sr1 2.555251 1_555
O2 P6 1.545821 1_555
O2 Zn1 2.012905 1_555
O2 Sr2 2.555251 1_655
O3 P7 1.545821 1_555
O3 Zn0 2.012905 1_554
O3 Sr3 2.555251 1_555
O4 P8 1.542656 1_555
O4 Zn0 2.011932 1_555
O4 Sr1 2.504539 1_555
O5 P9 1.542656 1_555
O5 Zn1 2.011932 1_455
O5 Sr0 2.504539 1_455
O6 P10 1.542656 1_555
O6 Zn2 2.011932 1_555
O6 Sr3 2.504539 1_555
O7 P11 1.542656 1_555
O7 Zn3 2.011932 1_655
O7 Sr2 2.504539 1_655
