# generated using pymatgen
data_Mo(PdPt)4
_symmetry_space_group_name_H-M   'P 1'
_cell_length_a   6.23291860
_cell_length_b   6.23291861
_cell_length_c   6.18707387
_cell_angle_alpha   95.68229465
_cell_angle_beta   95.68229751
_cell_angle_gamma   143.45912815
_symmetry_Int_Tables_number   1
_chemical_formula_structural   Mo(PdPt)4
_chemical_formula_sum   'Mo1 Pd4 Pt4'
_cell_volume   135.78652380
_cell_formula_units_Z   1
loop_
 _symmetry_equiv_pos_site_id
 _symmetry_equiv_pos_as_xyz
  1  'x, y, z'
loop_
 _atom_site_type_symbol
 _atom_site_label
 _atom_site_symmetry_multiplicity
 _atom_site_fract_x
 _atom_site_fract_y
 _atom_site_fract_z
 _atom_site_occupancy
  Mo  Mo0  1  0.00289716  0.00289716  0.00579332  1
  Pd  Pd0  1  0.66452662  0.66452662  0.32905225  1
  Pd  Pd1  1  0.33651758  0.33651758  0.67303516  1
  Pd  Pd2  1  0.66995448  0.00088534  0.67083882  1
  Pd  Pd3  1  0.00088434  0.66995348  0.67083882  1
  Pt  Pt0  1  0.65870480  0.33986497  0.99856877  1
  Pt  Pt1  1  0.33986497  0.65870480  0.99856877  1
  Pt  Pt2  1  0.32805277  0.99859928  0.32665205  1
  Pt  Pt3  1  0.99859928  0.32805277  0.32665205  1
loop_
_geom_bond_atom_site_label_1
_geom_bond_atom_site_label_2
_geom_bond_distance
_geom_bond_site_symmetry_2
Mo0 Pt2 2.711104 1_545
Mo0 Pt3 2.711104 1_455
Mo0 Pt1 2.716849 1_444
Mo0 Pt0 2.716849 1_444
Mo0 Pt0 2.716849 1_554
Mo0 Pt1 2.716849 1_554
Mo0 Pd0 2.723851 1_555
Mo0 Pd0 2.723853 1_445
Mo0 Pd1 2.762991 1_554
Mo0 Pd1 2.762992 1_444
Mo0 Pd2 2.775398 1_454
Mo0 Pd3 2.775398 1_544
Pd0 Pt1 2.706490 1_554
Pd0 Pt0 2.706490 1_554
Pd0 Pt2 2.760561 1_655
Pd0 Pt3 2.760561 1_565
Pd0 Pt3 2.760564 1_455
Pd0 Pt2 2.760564 1_545
Pd0 Pd3 2.803956 1_655
Pd0 Pd2 2.803956 1_565
Pd0 Pd1 2.809962 1_665
Pd0 Pd1 2.809967 1_555
Pd1 Pt0 2.685737 1_555
Pd1 Pt1 2.685737 1_555
Pd1 Pd2 2.766739 1_455
Pd1 Pd3 2.766739 1_655
Pd1 Pd3 2.766742 1_545
Pd1 Pd2 2.766742 1_565
Pd1 Pt3 2.817268 1_455
Pd1 Pt2 2.817268 1_545
Pd2 Pt1 2.743135 1_655
Pd2 Pt1 2.743136 1_545
Pd2 Pd3 2.797070 1_655
Pd2 Pd3 2.797075 1_545
Pd2 Pt3 2.810838 1_555
Pd2 Pt3 2.810839 1_445
Pd2 Pt0 2.828134 1_555
Pd2 Pt2 2.850073 1_545
Pd3 Pt0 2.743134 1_455
Pd3 Pt0 2.743137 1_565
Pd3 Pt2 2.810836 1_445
Pd3 Pt2 2.810840 1_555
Pd3 Pt1 2.828134 1_555
Pd3 Pt3 2.850073 1_455
Pt0 Pt2 2.744374 1_656
Pt0 Pt2 2.744379 1_546
Pt0 Pt3 2.835957 1_556
Pt0 Pt1 2.901205 1_655
Pt0 Pt1 2.901205 1_545
Pt1 Pt3 2.744374 1_566
Pt1 Pt3 2.744379 1_456
Pt1 Pt2 2.835957 1_556
Pt2 Pt3 2.809612 1_565
Pt2 Pt3 2.809612 1_455
