# generated using pymatgen
data_Sr7Ca(NbN3)4
_symmetry_space_group_name_H-M   'P 1'
_cell_length_a   6.41480433
_cell_length_b   6.33194889
_cell_length_c   12.50570361
_cell_angle_alpha   88.78882946
_cell_angle_beta   88.87612429
_cell_angle_gamma   123.48491762
_symmetry_Int_Tables_number   1
_chemical_formula_structural   Sr7Ca(NbN3)4
_chemical_formula_sum   'Sr7 Ca1 Nb4 N12'
_cell_volume   423.26117416
_cell_formula_units_Z   1
loop_
 _symmetry_equiv_pos_site_id
 _symmetry_equiv_pos_as_xyz
  1  'x, y, z'
loop_
 _atom_site_type_symbol
 _atom_site_label
 _atom_site_symmetry_multiplicity
 _atom_site_fract_x
 _atom_site_fract_y
 _atom_site_fract_z
 _atom_site_occupancy
  Sr  Sr0  1  0.06581648  0.47106074  0.36003686  1
  Sr  Sr1  1  0.45506004  0.05165552  0.85350683  1
  Sr  Sr2  1  0.94062328  0.52941999  0.64159180  1
  Sr  Sr3  1  0.40057836  0.16388718  0.42307891  1
  Sr  Sr4  1  0.85085737  0.62364513  0.07720119  1
  Sr  Sr5  1  0.14171910  0.37209554  0.92196124  1
  Sr  Sr6  1  0.54194814  0.94650425  0.14113757  1
  Ca  Ca0  1  0.59182341  0.82522277  0.57587207  1
  Nb  Nb0  1  0.23863307  0.24323338  0.16478627  1
  Nb  Nb1  1  0.77498587  0.78071988  0.34131905  1
  Nb  Nb2  1  0.75618613  0.75538172  0.83353144  1
  Nb  Nb3  1  0.22612551  0.21917637  0.65994748  1
  N  N0  1  0.50859174  0.51982818  0.24919228  1
  N  N1  1  0.47496406  0.47324970  0.75724793  1
  N  N2  1  0.09990864  0.92158963  0.25497463  1
  N  N3  1  0.88773054  0.06605468  0.73619488  1
  N  N4  1  0.68336522  0.00871882  0.38619166  1
  N  N5  1  0.00601403  0.33405691  0.12708346  1
  N  N6  1  0.33577278  0.99838279  0.62296109  1
  N  N7  1  0.98824840  0.66319766  0.87086510  1
  N  N8  1  0.38066878  0.19668626  0.03943273  1
  N  N9  1  0.22195001  0.40256228  0.53845842  1
  N  N10  1  0.62502607  0.81451671  0.95912261  1
  N  N11  1  0.80340299  0.61915290  0.46430045  1
loop_
_geom_bond_atom_site_label_1
_geom_bond_atom_site_label_2
_geom_bond_distance
_geom_bond_site_symmetry_2
Ca0 N9 2.469950 1_555
Ca0 N6 2.494668 1_555
Ca0 N4 2.529347 1_565
Ca0 N3 2.651960 1_565
Ca0 N11 2.729157 1_555
Ca0 N1 2.924025 1_555
N0 Nb0 1.995911 1_555
N0 Nb1 2.004809 1_555
N0 Sr4 2.835716 1_555
N0 Sr3 2.880804 1_555
N0 Sr6 2.892640 1_555
N0 Sr0 2.990642 1_555
N1 Nb2 1.984772 1_555
N1 Nb3 1.985479 1_555
N1 Sr5 2.735631 1_555
N1 Sr1 2.841429 1_555
N1 Sr2 3.126942 1_555
N2 Nb0 2.018797 1_565
N2 Nb1 2.031130 1_455
N2 Sr3 2.742916 1_565
N2 Sr4 2.836358 1_455
N2 Sr0 3.008989 1_555
N2 Sr6 3.070946 1_555
N3 Nb2 2.022459 1_545
N3 Nb3 2.029465 1_655
N3 Sr5 2.943075 1_655
N3 Sr2 2.976949 1_555
N3 Sr1 3.069099 1_555
N4 Nb1 1.924084 1_545
N4 Sr3 2.534130 1_555
N4 Sr0 2.588285 1_655
N4 Sr6 3.183631 1_545
N5 Nb0 1.934624 1_555
N5 Sr4 2.594586 1_455
N5 Sr6 2.610586 1_445
N5 Sr5 2.655368 1_554
N5 Sr0 3.028232 1_555
N6 Nb3 1.939807 1_565
N6 Sr3 2.624341 1_565
N6 Sr2 2.634238 1_455
N6 Sr1 2.975675 1_565
N7 Nb2 1.936302 1_555
N7 Sr5 2.598518 1_655
N7 Sr1 2.624650 1_665
N7 Sr4 2.671655 1_556
N7 Sr2 2.980490 1_555
N8 Nb0 1.906391 1_555
N8 Sr6 2.640535 1_545
N8 Sr1 2.647187 1_554
N8 Sr5 2.763912 1_554
N8 Sr4 2.782347 1_555
N9 Nb3 1.902290 1_555
N9 Sr0 2.587662 1_555
N9 Sr2 2.667865 1_455
N9 Sr3 2.759911 1_555
N10 Nb2 1.906713 1_555
N10 Sr6 2.586110 1_556
N10 Sr1 2.639516 1_565
N10 Sr4 2.771323 1_556
N10 Sr5 2.864217 1_555
N10 Sr5 3.259520 1_665
N11 Nb1 1.896164 1_555
N11 Sr2 2.566827 1_555
N11 Sr0 2.668403 1_655
N11 Sr3 2.673687 1_555
