# generated using pymatgen
data_Yb(GePd)2
_symmetry_space_group_name_H-M   'P 1'
_cell_length_a   4.34190000
_cell_length_b   4.34190000
_cell_length_c   5.90470427
_cell_angle_alpha   111.57165139
_cell_angle_beta   111.57165139
_cell_angle_gamma   90.00000000
_symmetry_Int_Tables_number   1
_chemical_formula_structural   Yb(GePd)2
_chemical_formula_sum   'Yb1 Ge2 Pd2'
_cell_volume   95.08538920
_cell_formula_units_Z   1
loop_
 _symmetry_equiv_pos_site_id
 _symmetry_equiv_pos_as_xyz
  1  'x, y, z'
loop_
 _atom_site_type_symbol
 _atom_site_label
 _atom_site_symmetry_multiplicity
 _atom_site_fract_x
 _atom_site_fract_y
 _atom_site_fract_z
 _atom_site_occupancy
  Yb  Yb0  1  0.00000000  0.00000000  0.00000000  1
  Ge  Ge0  1  0.62353800  0.62353800  0.24707600  1
  Ge  Ge1  1  0.37646200  0.37646200  0.75292400  1
  Pd  Pd0  1  0.75000000  0.25000000  0.50000000  1
  Pd  Pd1  1  0.25000000  0.75000000  0.50000000  1
loop_
_geom_bond_atom_site_label_1
_geom_bond_atom_site_label_2
_geom_bond_distance
_geom_bond_site_symmetry_2
Ge0 Ge1 2.492383 1_554
Ge0 Pd0 2.518015 1_565
Ge0 Pd1 2.518015 1_655
Ge0 Pd1 2.518015 1_555
Ge0 Pd0 2.518015 1_555
Ge0 Yb0 3.313464 1_555
Ge0 Yb0 3.313464 1_655
Ge0 Yb0 3.313464 1_565
Ge0 Yb0 3.313464 1_665
Ge1 Pd1 2.518015 1_555
Ge1 Pd0 2.518015 1_455
Ge1 Pd1 2.518015 1_545
Ge1 Pd0 2.518015 1_555
Ge1 Yb0 3.313464 1_666
Ge1 Yb0 3.313464 1_566
Ge1 Yb0 3.313464 1_656
Ge1 Yb0 3.313464 1_556
Pd0 Yb0 3.327596 1_655
Pd0 Yb0 3.327596 1_656
Pd0 Yb0 3.327596 1_555
Pd0 Yb0 3.327596 1_666
Pd1 Yb0 3.327596 1_565
Pd1 Yb0 3.327596 1_566
Pd1 Yb0 3.327596 1_555
Pd1 Yb0 3.327596 1_666
