# generated using pymatgen
data_Ta2Br8O
_symmetry_space_group_name_H-M   'P 1'
_cell_length_a   7.08008924
_cell_length_b   7.11501116
_cell_length_c   7.05602772
_cell_angle_alpha   93.29899860
_cell_angle_beta   94.82274114
_cell_angle_gamma   96.20320542
_symmetry_Int_Tables_number   1
_chemical_formula_structural   Ta2Br8O
_chemical_formula_sum   'Ta2 Br8 O1'
_cell_volume   351.31714339
_cell_formula_units_Z   1
loop_
 _symmetry_equiv_pos_site_id
 _symmetry_equiv_pos_as_xyz
  1  'x, y, z'
loop_
 _atom_site_type_symbol
 _atom_site_label
 _atom_site_symmetry_multiplicity
 _atom_site_fract_x
 _atom_site_fract_y
 _atom_site_fract_z
 _atom_site_occupancy
  Ta  Ta0  1  0.06050632  0.39574263  0.76423438  1
  Ta  Ta1  1  0.93949368  0.60425737  0.23576562  1
  Br  Br0  1  0.63835531  0.39015147  0.21785183  1
  Br  Br1  1  0.89165086  0.68501074  0.60581976  1
  Br  Br2  1  0.25886765  0.78927510  0.29362987  1
  Br  Br3  1  0.78377987  0.87281517  0.13556570  1
  Br  Br4  1  0.21622013  0.12718483  0.86443430  1
  Br  Br5  1  0.36164469  0.60984853  0.78214817  1
  Br  Br6  1  0.10834914  0.31498926  0.39418024  1
  Br  Br7  1  0.74113235  0.21072490  0.70637013  1
  O  O0  1  0.00000000  0.50000000  0.00000000  1
loop_
_geom_bond_atom_site_label_1
_geom_bond_atom_site_label_2
_geom_bond_distance
_geom_bond_site_symmetry_2
Br0 Ta1 2.472453 1_555
Br1 Ta1 2.698310 1_555
Br1 Ta0 2.736141 1_655
Br2 Ta1 2.480372 1_455
Br3 Ta1 2.417872 1_555
Br4 Ta0 2.417872 1_555
Br5 Ta0 2.472453 1_555
Br6 Ta0 2.698310 1_555
Br6 Ta1 2.736141 1_455
Br7 Ta0 2.480372 1_655
O0 Ta1 1.883537 1_455
O0 Ta0 1.883537 1_554
