# generated using pymatgen
data_NdO3
_symmetry_space_group_name_H-M   'P 1'
_cell_length_a   4.20921487
_cell_length_b   4.20921487
_cell_length_c   7.45943043
_cell_angle_alpha   69.16811166
_cell_angle_beta   69.16811166
_cell_angle_gamma   51.75610405
_symmetry_Int_Tables_number   1
_chemical_formula_structural   NdO3
_chemical_formula_sum   'Nd2 O6'
_cell_volume   95.34562877
_cell_formula_units_Z   2
loop_
 _symmetry_equiv_pos_site_id
 _symmetry_equiv_pos_as_xyz
  1  'x, y, z'
loop_
 _atom_site_type_symbol
 _atom_site_label
 _atom_site_symmetry_multiplicity
 _atom_site_fract_x
 _atom_site_fract_y
 _atom_site_fract_z
 _atom_site_occupancy
  Nd  Nd0  1  0.56387400  0.56387400  0.72120600  1
  Nd  Nd1  1  0.43612600  0.43612600  0.27879400  1
  O  O0  1  0.70853700  0.70853700  0.36851700  1
  O  O1  1  0.00000000  0.00000000  0.50000000  1
  O  O2  1  0.22950900  0.22950900  0.03261900  1
  O  O3  1  0.77049100  0.77049100  0.96738100  1
  O  O4  1  0.00000000  0.00000000  0.00000000  1
  O  O5  1  0.29146300  0.29146300  0.63148300  1
loop_
_geom_bond_atom_site_label_1
_geom_bond_atom_site_label_2
_geom_bond_distance
_geom_bond_site_symmetry_2
Nd0 O5 2.407670 1_555
Nd0 O0 2.417269 1_555
Nd0 O5 2.425395 1_565
Nd0 O5 2.425395 1_655
Nd0 O1 2.638743 1_655
Nd0 O1 2.638743 1_565
Nd0 O4 2.671835 1_566
Nd0 O4 2.671835 1_656
Nd0 O2 2.675700 1_556
Nd0 O3 2.844827 1_555
Nd0 O3 2.908499 1_545
Nd0 O3 2.908499 1_455
Nd1 O0 2.407670 1_555
Nd1 O5 2.417269 1_555
Nd1 O0 2.425395 1_545
Nd1 O0 2.425395 1_455
Nd1 O1 2.638743 1_655
Nd1 O1 2.638743 1_565
Nd1 O4 2.671835 1_655
Nd1 O4 2.671835 1_565
Nd1 O3 2.675700 1_554
Nd1 O2 2.844827 1_555
Nd1 O2 2.908499 1_655
Nd1 O2 2.908499 1_565
O2 O4 1.848103 1_555
O2 O3 1.894425 1_544
O2 O3 1.894425 1_454
O3 O4 1.848103 1_666
