# generated using pymatgen
data_Ba2Sr(GaAs2)2
_symmetry_space_group_name_H-M   'P 1'
_cell_length_a   8.77089908
_cell_length_b   8.77089850
_cell_length_c   7.03802286
_cell_angle_alpha   91.93539836
_cell_angle_beta   91.93540043
_cell_angle_gamma   76.45604156
_symmetry_Int_Tables_number   1
_chemical_formula_structural   Ba2Sr(GaAs2)2
_chemical_formula_sum   'Ba4 Sr2 Ga4 As8'
_cell_volume   525.88226970
_cell_formula_units_Z   2
loop_
 _symmetry_equiv_pos_site_id
 _symmetry_equiv_pos_as_xyz
  1  'x, y, z'
loop_
 _atom_site_type_symbol
 _atom_site_label
 _atom_site_symmetry_multiplicity
 _atom_site_fract_x
 _atom_site_fract_y
 _atom_site_fract_z
 _atom_site_occupancy
  Ba  Ba0  1  0.74290989  0.99900943  0.94070788  1
  Ba  Ba1  1  0.00099057  0.25709011  0.55929212  1
  Ba  Ba2  1  0.25709011  0.00099057  0.05929212  1
  Ba  Ba3  1  0.99900943  0.74290989  0.44070788  1
  Sr  Sr0  1  0.60170261  0.39829739  0.25000000  1
  Sr  Sr1  1  0.39829739  0.60170261  0.75000000  1
  Ga  Ga0  1  0.57936085  0.82278711  0.42670365  1
  Ga  Ga1  1  0.17721289  0.42063915  0.07329635  1
  Ga  Ga2  1  0.42063915  0.17721289  0.57329635  1
  Ga  Ga3  1  0.82278711  0.57936085  0.92670365  1
  As  As0  1  0.69712299  0.06168698  0.46295136  1
  As  As1  1  0.93831302  0.30287701  0.03704864  1
  As  As2  1  0.30287701  0.93831302  0.53704864  1
  As  As3  1  0.06168698  0.69712299  0.96295136  1
  As  As4  1  0.57866592  0.72869098  0.08722852  1
  As  As5  1  0.27130902  0.42133408  0.41277148  1
  As  As6  1  0.42133408  0.27130902  0.91277148  1
  As  As7  1  0.72869098  0.57866592  0.58722852  1
loop_
_geom_bond_atom_site_label_1
_geom_bond_atom_site_label_2
_geom_bond_distance
_geom_bond_site_symmetry_2
As0 Ga2 2.536468 1_555
As0 Ga0 2.546033 1_545
As0 Sr0 3.274150 1_555
As0 Ba3 3.373980 1_545
As0 Ba0 3.420508 1_545
As0 Ba1 3.526928 1_655
As0 Ba0 3.719282 1_544
As1 Ga3 2.536468 1_554
As1 Ga1 2.546033 1_655
As1 Sr0 3.274150 1_555
As1 Ba2 3.373980 1_655
As1 Ba1 3.420508 1_654
As1 Ba0 3.526928 1_544
As1 Ba1 3.719282 1_655
As2 Ga0 2.536468 1_555
As2 Ga2 2.546033 1_565
As2 Sr1 3.274150 1_555
As2 Ba1 3.373980 1_565
As2 Ba2 3.420508 1_565
As2 Ba3 3.526928 1_455
As2 Ba2 3.719282 1_566
As3 Ga1 2.536468 1_556
As3 Ga3 2.546033 1_455
As3 Sr1 3.274150 1_555
As3 Ba0 3.373980 1_455
As3 Ba3 3.420508 1_456
As3 Ba2 3.526928 1_566
As3 Ba3 3.719282 1_455
As4 Ga0 2.501558 1_555
As4 Ga3 2.515224 1_554
As4 Sr0 3.112086 1_555
As4 Sr1 3.125624 1_554
As4 Ba2 3.246087 1_565
As4 Ba0 3.259635 1_554
As5 Ga1 2.501558 1_555
As5 Ga2 2.515224 1_555
As5 Sr0 3.112086 1_555
As5 Sr1 3.125624 1_555
As5 Ba3 3.246087 1_455
As5 Ba1 3.259635 1_555
As6 Ga2 2.501558 1_555
As6 Ga1 2.515224 1_556
As6 Sr1 3.112086 1_555
As6 Sr0 3.125624 1_556
As6 Ba0 3.246087 1_545
As6 Ba2 3.259635 1_556
As7 Ga3 2.501558 1_555
As7 Ga0 2.515224 1_555
As7 Sr1 3.112086 1_555
As7 Sr0 3.125624 1_555
As7 Ba1 3.246087 1_655
As7 Ba3 3.259635 1_555
