# generated using pymatgen
data_Hf6Al16Co3Cu4
_symmetry_space_group_name_H-M   'P 1'
_cell_length_a   8.47888485
_cell_length_b   8.46574238
_cell_length_c   8.47888520
_cell_angle_alpha   60.05125615
_cell_angle_beta   59.89748836
_cell_angle_gamma   60.05125365
_symmetry_Int_Tables_number   1
_chemical_formula_structural   Hf6Al16Co3Cu4
_chemical_formula_sum   'Hf6 Al16 Co3 Cu4'
_cell_volume   430.35361375
_cell_formula_units_Z   1
loop_
 _symmetry_equiv_pos_site_id
 _symmetry_equiv_pos_as_xyz
  1  'x, y, z'
loop_
 _atom_site_type_symbol
 _atom_site_label
 _atom_site_symmetry_multiplicity
 _atom_site_fract_x
 _atom_site_fract_y
 _atom_site_fract_z
 _atom_site_occupancy
  Hf  Hf0  1  0.68731795  0.68731795  0.31268205  1
  Hf  Hf1  1  0.30621330  0.69378670  0.30621330  1
  Hf  Hf2  1  0.68731795  0.31268205  0.31268205  1
  Hf  Hf3  1  0.31268205  0.31268205  0.68731795  1
  Hf  Hf4  1  0.69378670  0.30621330  0.69378670  1
  Hf  Hf5  1  0.31268205  0.68731795  0.68731795  1
  Al  Al0  1  0.87494202  0.88649734  0.35206330  1
  Al  Al1  1  0.88649734  0.35206330  0.88649734  1
  Al  Al2  1  0.35206330  0.88649734  0.87494202  1
  Al  Al3  1  0.88649734  0.87494202  0.88649734  1
  Al  Al4  1  0.12505798  0.11350266  0.64793670  1
  Al  Al5  1  0.11350266  0.64793670  0.11350266  1
  Al  Al6  1  0.64793670  0.11350266  0.12505798  1
  Al  Al7  1  0.11350266  0.12505798  0.11350266  1
  Al  Al8  1  0.67176378  0.66433589  0.99956544  1
  Al  Al9  1  0.66433589  0.99956544  0.66433589  1
  Al  Al10  1  0.99956544  0.66433589  0.67176378  1
  Al  Al11  1  0.66433589  0.67176378  0.66433589  1
  Al  Al12  1  0.32823622  0.33566411  0.00043456  1
  Al  Al13  1  0.33566411  0.00043456  0.33566411  1
  Al  Al14  1  0.00043456  0.33566411  0.32823622  1
  Al  Al15  1  0.33566411  0.32823622  0.33566411  1
  Co  Co0  1  0.00000000  0.00000000  0.00000000  1
  Co  Co1  1  0.50000000  0.00000000  0.50000000  1
  Co  Co2  1  0.00000000  0.50000000  0.00000000  1
  Cu  Cu0  1  0.00000000  0.00000000  0.50000000  1
  Cu  Cu1  1  0.00000000  0.50000000  0.50000000  1
  Cu  Cu2  1  0.50000000  0.50000000  0.00000000  1
  Cu  Cu3  1  0.50000000  0.00000000  0.00000000  1
loop_
_geom_bond_atom_site_label_1
_geom_bond_atom_site_label_2
_geom_bond_distance
_geom_bond_site_symmetry_2
Hf0 Hf2 3.171571 1_555
Hf0 Hf5 3.171572 1_555
Hf0 Hf4 3.231978 1_555
Hf0 Hf1 3.231978 1_555
Hf1 Hf2 3.231977 1_555
Hf1 Hf3 3.231978 1_555
Hf1 Hf5 3.231978 1_555
Hf2 Hf3 3.171572 1_555
Hf2 Hf4 3.231978 1_555
Hf3 Hf5 3.171571 1_555
Hf3 Hf4 3.231978 1_555
Hf4 Hf5 3.231977 1_555
Al0 Co0 2.436561 1_665
Al0 Co1 2.599360 1_565
Al0 Cu1 2.678782 1_655
Al0 Cu0 2.678782 1_665
Al0 Al11 2.682639 1_555
Al0 Al9 2.682644 1_555
Al0 Al6 2.726223 1_565
Al0 Al10 2.792913 1_555
Al0 Al5 2.856136 1_655
Al0 Al7 2.856136 1_665
Al0 Hf2 3.042841 1_565
Al0 Hf0 3.042841 1_555
Al0 Hf1 3.071648 1_655
Al1 Co0 2.436561 1_656
Al1 Co2 2.599360 1_656
Al1 Cu2 2.678782 1_556
Al1 Cu1 2.678782 1_655
Al1 Al8 2.682643 1_555
Al1 Al10 2.682643 1_555
Al1 Al7 2.726223 1_656
Al1 Al11 2.792908 1_555
Al1 Al4 2.856136 1_655
Al1 Al6 2.856136 1_556
Al1 Hf3 3.042842 1_655
Al1 Hf2 3.042842 1_556
Al1 Hf4 3.071648 1_555
Al2 Co0 2.436561 1_566
Al2 Co1 2.599361 1_565
Al2 Cu2 2.678782 1_556
Al2 Cu3 2.678782 1_566
Al2 Al9 2.682644 1_555
Al2 Al4 2.726223 1_565
Al2 Al8 2.792913 1_555
Al2 Al7 2.856136 1_566
Al2 Al5 2.856136 1_556
Al2 Hf3 3.042841 1_565
Al2 Hf5 3.042841 1_555
Al2 Hf1 3.071648 1_556
Al3 Co0 2.436561 1_666
Al3 Co2 2.599360 1_656
Al3 Cu3 2.678782 1_566
Al3 Cu0 2.678782 1_665
Al3 Al8 2.682636 1_555
Al3 Al5 2.726223 1_656
Al3 Al9 2.792906 1_555
Al3 Al6 2.856136 1_566
Al3 Al4 2.856136 1_665
Al3 Hf5 3.042841 1_655
Al3 Hf0 3.042842 1_556
Al3 Hf4 3.071647 1_565
Al4 Co0 2.436561 1_556
Al4 Co1 2.599360 1_555
Al4 Cu1 2.678782 1_555
Al4 Cu0 2.678782 1_555
Al4 Hf5 3.042841 1_545
Al4 Hf3 3.042841 1_555
Al4 Hf4 3.071648 1_455
Al5 Co0 2.436561 1_565
Al5 Co2 2.599360 1_555
Al5 Cu2 2.678782 1_555
Al5 Cu1 2.678782 1_555
Al5 Hf0 3.042842 1_455
Al5 Hf5 3.042842 1_554
Al5 Hf1 3.071648 1_555
Al6 Co0 2.436561 1_655
Al6 Co1 2.599361 1_555
Al6 Cu2 2.678782 1_555
Al6 Cu3 2.678782 1_555
Al6 Hf0 3.042841 1_545
Al6 Hf2 3.042841 1_555
Al6 Hf4 3.071648 1_554
Al7 Co0 2.436561 1_555
Al7 Co2 2.599360 1_555
Al7 Cu3 2.678782 1_555
Al7 Cu0 2.678782 1_555
Al7 Hf2 3.042841 1_455
Al7 Hf3 3.042842 1_554
Al7 Hf1 3.071647 1_545
Al8 Co2 2.412534 1_656
Al8 Cu3 2.463529 1_566
Al8 Cu2 2.463537 1_556
Al8 Hf0 2.827756 1_556
Al8 Hf2 2.827760 1_556
Al8 Al9 2.843265 1_555
Al8 Hf1 2.867229 1_556
Al9 Co1 2.412542 1_565
Al9 Cu0 2.463529 1_665
Al9 Cu3 2.463529 1_566
Al9 Hf3 2.827760 1_565
Al9 Hf2 2.827760 1_565
Al9 Hf4 2.867223 1_565
Al10 Co2 2.412534 1_656
Al10 Cu0 2.463529 1_665
Al10 Cu1 2.463537 1_655
Al10 Al3 2.682636 1_555
Al10 Al8 2.775085 1_555
Al10 Hf5 2.827755 1_655
Al10 Hf3 2.827760 1_655
Al10 Al9 2.843265 1_555
Al10 Al11 2.843265 1_555
Al10 Hf1 2.867229 1_655
Al11 Co1 2.412536 1_565
Al11 Cu1 2.463532 1_655
Al11 Cu2 2.463532 1_556
Al11 Al2 2.682639 1_555
Al11 Al9 2.775084 1_555
Al11 Hf5 2.827764 1_555
Al11 Hf0 2.827764 1_555
Al11 Al8 2.843265 1_555
Al11 Hf4 2.867232 1_555
Al12 Co2 2.412534 1_555
Al12 Cu3 2.463529 1_555
Al12 Cu2 2.463537 1_555
Al12 Al7 2.682636 1_555
Al12 Al5 2.682643 1_555
Al12 Al14 2.775085 1_555
Al12 Al6 2.792913 1_555
Al12 Hf3 2.827756 1_554
Al12 Hf5 2.827760 1_554
Al12 Al13 2.843265 1_555
Al12 Al15 2.843265 1_555
Al12 Hf4 2.867229 1_554
Al13 Co1 2.412542 1_555
Al13 Cu0 2.463529 1_555
Al13 Cu3 2.463529 1_555
Al13 Al6 2.682644 1_555
Al13 Al4 2.682644 1_555
Al13 Al15 2.775084 1_555
Al13 Al7 2.792906 1_555
Al13 Hf0 2.827760 1_545
Al13 Hf5 2.827760 1_545
Al13 Al14 2.843265 1_555
Al13 Hf1 2.867223 1_545
Al14 Co2 2.412534 1_555
Al14 Cu0 2.463529 1_555
Al14 Cu1 2.463537 1_555
Al14 Al7 2.682636 1_555
Al14 Al5 2.682643 1_555
Al14 Al4 2.792913 1_555
Al14 Hf2 2.827755 1_455
Al14 Hf0 2.827760 1_455
Al14 Al15 2.843265 1_555
Al14 Hf4 2.867229 1_455
Al15 Co1 2.412536 1_555
Al15 Cu1 2.463532 1_555
Al15 Cu2 2.463532 1_555
Al15 Al6 2.682639 1_555
Al15 Al4 2.682639 1_555
Al15 Al5 2.792908 1_555
Al15 Hf2 2.827764 1_555
Al15 Hf3 2.827764 1_555
Al15 Hf1 2.867232 1_555
Co1 Hf3 3.085738 1_555
Co1 Hf0 3.085738 1_545
Co1 Hf2 3.085738 1_555
Co1 Hf5 3.085738 1_545
Co2 Hf0 3.085738 1_455
Co2 Hf3 3.085738 1_554
Co2 Hf5 3.085738 1_554
Co2 Hf2 3.085738 1_455
Cu0 Hf4 3.068282 1_455
Cu0 Hf1 3.068282 1_545
Cu0 Hf5 3.094745 1_545
Cu0 Hf2 3.094745 1_455
Cu1 Hf1 3.068282 1_555
Cu1 Hf4 3.068282 1_455
Cu1 Hf3 3.094745 1_555
Cu1 Hf0 3.094745 1_455
Cu2 Hf1 3.068282 1_555
Cu2 Hf4 3.068282 1_554
Cu2 Hf2 3.094746 1_555
Cu2 Hf5 3.094746 1_554
Cu3 Hf4 3.068282 1_554
Cu3 Hf1 3.068282 1_545
Cu3 Hf0 3.094745 1_545
Cu3 Hf3 3.094745 1_554
