# generated using pymatgen
data_Cs2ZrZn3Sb4
_symmetry_space_group_name_H-M   'P 1'
_cell_length_a   8.72152923
_cell_length_b   8.72152975
_cell_length_c   6.34581649
_cell_angle_alpha   90.00000000
_cell_angle_beta   90.00000000
_cell_angle_gamma   137.33268907
_symmetry_Int_Tables_number   1
_chemical_formula_structural   Cs2ZrZn3Sb4
_chemical_formula_sum   'Cs2 Zr1 Zn3 Sb4'
_cell_volume   327.14185013
_cell_formula_units_Z   1
loop_
 _symmetry_equiv_pos_site_id
 _symmetry_equiv_pos_as_xyz
  1  'x, y, z'
loop_
 _atom_site_type_symbol
 _atom_site_label
 _atom_site_symmetry_multiplicity
 _atom_site_fract_x
 _atom_site_fract_y
 _atom_site_fract_z
 _atom_site_occupancy
  Cs  Cs0  1  0.50000000  0.00000000  0.25347468  1
  Cs  Cs1  1  0.00000000  0.50000000  0.74652532  1
  Zr  Zr0  1  0.00000000  0.00000000  0.00000000  1
  Zn  Zn0  1  0.50000000  0.50000000  0.50000000  1
  Zn  Zn1  1  0.50000000  0.50000000  0.00000000  1
  Zn  Zn2  1  0.00000000  0.00000000  0.50000000  1
  Sb  Sb0  1  0.64555668  0.84611366  0.74622330  1
  Sb  Sb1  1  0.15388634  0.35444332  0.25377670  1
  Sb  Sb2  1  0.84611366  0.64555668  0.25377670  1
  Sb  Sb3  1  0.35444332  0.15388634  0.74622330  1
loop_
_geom_bond_atom_site_label_1
_geom_bond_atom_site_label_2
_geom_bond_distance
_geom_bond_site_symmetry_2
Cs0 Sb0 3.961809 1_545
Cs0 Sb3 3.961809 1_555
Cs0 Sb2 3.977176 1_555
Cs0 Sb1 3.977176 1_545
Cs0 Sb1 4.019123 1_655
Cs0 Sb2 4.019123 1_445
Cs0 Sb0 4.034842 1_544
Cs0 Sb3 4.034842 1_554
Cs1 Sb1 3.961809 1_555
Cs1 Sb2 3.961809 1_455
Cs1 Sb0 3.977176 1_555
Cs1 Sb3 3.977176 1_455
Cs1 Sb0 4.019123 1_445
Cs1 Sb3 4.019123 1_565
Cs1 Sb2 4.034842 1_456
Cs1 Sb1 4.034842 1_556
Zn1 Zr0 3.172879 1_665
Zn1 Zr0 3.172879 1_555
Zn2 Zr0 3.172908 1_556
Zn2 Zr0 3.172908 1_555
Sb0 Zn0 2.744019 1_555
Sb0 Zn1 2.771593 1_556
Sb0 Zn2 2.774410 1_665
Sb0 Zr0 2.801685 1_666
Sb1 Zn0 2.744019 1_555
Sb1 Zn1 2.771593 1_555
Sb1 Zn2 2.774411 1_555
Sb1 Zr0 2.801685 1_555
Sb2 Zn0 2.744019 1_555
Sb2 Zn1 2.771593 1_555
Sb2 Zn2 2.774411 1_665
Sb2 Zr0 2.801685 1_665
Sb3 Zn0 2.744019 1_555
Sb3 Zn1 2.771593 1_556
Sb3 Zn2 2.774410 1_555
Sb3 Zr0 2.801685 1_556
