# generated using pymatgen
data_K8ZnCd3H16
_symmetry_space_group_name_H-M   'P 1'
_cell_length_a   5.97411920
_cell_length_b   7.90238049
_cell_length_c   10.52257856
_cell_angle_alpha   90.02081505
_cell_angle_beta   90.00033677
_cell_angle_gamma   89.99973694
_symmetry_Int_Tables_number   1
_chemical_formula_structural   K8ZnCd3H16
_chemical_formula_sum   'K8 Zn1 Cd3 H16'
_cell_volume   496.76840747
_cell_formula_units_Z   1
loop_
 _symmetry_equiv_pos_site_id
 _symmetry_equiv_pos_as_xyz
  1  'x, y, z'
loop_
 _atom_site_type_symbol
 _atom_site_label
 _atom_site_symmetry_multiplicity
 _atom_site_fract_x
 _atom_site_fract_y
 _atom_site_fract_z
 _atom_site_occupancy
  K  K0  1  0.25000820  0.16505465  0.58179682  1
  K  K1  1  0.25001234  0.65905824  0.91314821  1
  K  K2  1  0.75000012  0.84822703  0.41255878  1
  K  K3  1  0.75000722  0.33790574  0.09826775  1
  K  K4  1  0.24999749  0.48341539  0.31161753  1
  K  K5  1  0.25001323  0.98805127  0.19331835  1
  K  K6  1  0.75000943  0.50964550  0.68555868  1
  K  K7  1  0.74999645  0.01456850  0.80789981  1
  Zn  Zn0  1  0.74999759  0.26537954  0.41904593  1
  Cd  Cd0  1  0.24999784  0.23009860  0.91882162  1
  Cd  Cd1  1  0.24999772  0.73462620  0.58060474  1
  Cd  Cd2  1  0.74999891  0.76832327  0.08158491  1
  H  H0  1  0.00075308  0.31403963  0.84224603  1
  H  H1  1  0.50085140  0.81707243  0.65543521  1
  H  H2  1  0.50063728  0.68496372  0.15884814  1
  H  H3  1  0.97549252  0.18951372  0.34811076  1
  H  H4  1  0.99935920  0.68496353  0.15884833  1
  H  H5  1  0.52450225  0.18951344  0.34811081  1
  H  H6  1  0.49924309  0.31404043  0.84224531  1
  H  H7  1  0.99914508  0.81707347  0.65543474  1
  H  H8  1  0.24999792  0.00104397  0.91651859  1
  H  H9  1  0.24999671  0.50567447  0.58468173  1
  H  H10  1  0.74999812  0.99737819  0.08750622  1
  H  H11  1  0.74999609  0.47301531  0.41314283  1
  H  H12  1  0.24999821  0.81417819  0.41682328  1
  H  H13  1  0.24999745  0.30953232  0.08339730  1
  H  H14  1  0.74999762  0.19357227  0.56690929  1
  H  H15  1  0.74999840  0.69006899  0.91752030  1
loop_
_geom_bond_atom_site_label_1
_geom_bond_atom_site_label_2
_geom_bond_distance
_geom_bond_site_symmetry_2
Cd0 H8 1.810230 1_555
Cd0 H0 1.818467 1_555
Cd0 H6 1.818487 1_555
Cd0 H13 1.841801 1_556
Cd1 H9 1.809788 1_555
Cd1 H7 1.813836 1_455
Cd1 H1 1.813838 1_555
Cd1 H12 1.834695 1_555
Cd2 H10 1.811129 1_555
Cd2 H4 1.820583 1_555
Cd2 H2 1.820600 1_555
Cd2 H15 1.833585 1_554
H0 K6 2.711727 1_455
H0 K7 2.823945 1_455
H1 K7 2.687596 1_565
H1 K6 2.866816 1_555
H1 K2 2.967847 1_555
H2 K4 2.713826 1_555
H2 K5 2.847675 1_555
H2 K1 2.994588 1_554
H3 Zn0 1.652579 1_555
H3 K5 2.806313 1_645
H3 K4 2.869079 1_655
H3 K0 2.962060 1_655
H4 K4 2.713800 1_655
H4 K5 2.847780 1_655
H4 K1 2.994688 1_654
H5 Zn0 1.652579 1_555
H5 K5 2.806199 1_545
H5 K4 2.869066 1_555
H5 K0 2.962005 1_555
H6 K6 2.711812 1_555
H6 K7 2.823929 1_555
H7 K7 2.687608 1_565
H7 K6 2.866768 1_555
H7 K2 2.967815 1_555
H8 K1 2.702721 1_545
H8 K5 2.914494 1_546
H9 K0 2.691868 1_555
H9 K4 2.878655 1_555
H10 K3 2.693319 1_565
H10 K7 2.945364 1_564
H11 Zn0 1.642015 1_555
H11 K6 2.880991 1_555
H11 K2 2.965074 1_555
H12 K5 2.724233 1_555
H12 K4 2.838212 1_555
H12 K2 2.999478 1_455
H12 K2 2.999504 1_555
H13 K4 2.766363 1_555
H13 K5 2.791764 1_545
H13 K3 2.999485 1_455
H13 K3 2.999601 1_555
H14 Zn0 1.656344 1_555
H14 K6 2.791978 1_555
H14 K7 2.904147 1_555
H14 K0 2.999585 1_555
H14 K0 2.999707 1_655
H15 K7 2.812191 1_565
H15 K6 2.826301 1_555
H15 K1 2.997365 1_555
H15 K1 2.997529 1_655
