# generated using pymatgen
data_Rb2Hf7BBr18
_symmetry_space_group_name_H-M   'P 1'
_cell_length_a   10.80368401
_cell_length_b   10.80368487
_cell_length_c   10.80368568
_cell_angle_alpha   55.56100360
_cell_angle_beta   55.56100266
_cell_angle_gamma   55.56100146
_symmetry_Int_Tables_number   1
_chemical_formula_structural   Rb2Hf7BBr18
_chemical_formula_sum   'Rb2 Hf7 B1 Br18'
_cell_volume   799.78742178
_cell_formula_units_Z   1
loop_
 _symmetry_equiv_pos_site_id
 _symmetry_equiv_pos_as_xyz
  1  'x, y, z'
loop_
 _atom_site_type_symbol
 _atom_site_label
 _atom_site_symmetry_multiplicity
 _atom_site_fract_x
 _atom_site_fract_y
 _atom_site_fract_z
 _atom_site_occupancy
  Rb  Rb0  1  0.77511530  0.77511530  0.77511530  1
  Rb  Rb1  1  0.22488470  0.22488470  0.22488470  1
  Hf  Hf0  1  0.15522444  0.90414273  0.79874226  1
  Hf  Hf1  1  0.84477556  0.09585727  0.20125774  1
  Hf  Hf2  1  0.09585727  0.20125774  0.84477556  1
  Hf  Hf3  1  0.20125774  0.84477556  0.09585727  1
  Hf  Hf4  1  0.90414273  0.79874226  0.15522444  1
  Hf  Hf5  1  0.79874226  0.15522444  0.90414273  1
  Hf  Hf6  1  0.50000000  0.50000000  0.50000000  1
  B  B0  1  0.00000000  0.00000000  0.00000000  1
  Br  Br0  1  0.21724256  0.47681209  0.64019060  1
  Br  Br1  1  0.78275744  0.52318791  0.35980940  1
  Br  Br2  1  0.34917619  0.05559100  0.93150143  1
  Br  Br3  1  0.65082381  0.94440900  0.06849857  1
  Br  Br4  1  0.93150143  0.34917619  0.05559100  1
  Br  Br5  1  0.71044383  0.87268134  0.42006551  1
  Br  Br6  1  0.35980940  0.78275744  0.52318791  1
  Br  Br7  1  0.57993449  0.28955617  0.12731866  1
  Br  Br8  1  0.28955617  0.12731866  0.57993449  1
  Br  Br9  1  0.12731866  0.57993449  0.28955617  1
  Br  Br10  1  0.94440900  0.06849857  0.65082381  1
  Br  Br11  1  0.42006551  0.71044383  0.87268134  1
  Br  Br12  1  0.87268134  0.42006551  0.71044383  1
  Br  Br13  1  0.06849857  0.65082381  0.94440900  1
  Br  Br14  1  0.47681209  0.64019060  0.21724256  1
  Br  Br15  1  0.64019060  0.21724256  0.47681209  1
  Br  Br16  1  0.52318791  0.35980940  0.78275744  1
  Br  Br17  1  0.05559100  0.93150143  0.34917619  1
loop_
_geom_bond_atom_site_label_1
_geom_bond_atom_site_label_2
_geom_bond_distance
_geom_bond_site_symmetry_2
B0 Hf3 2.251849 1_545
B0 Hf5 2.251849 1_454
B0 Hf2 2.251849 1_554
B0 Hf4 2.251849 1_445
B0 Hf1 2.251849 1_455
B0 Hf0 2.251849 1_544
Br0 Hf6 2.625249 1_555
Br0 Hf2 3.026974 1_555
Br0 Rb0 3.918396 1_455
Br1 Hf6 2.625249 1_555
Br1 Hf4 3.026974 1_555
Br1 Rb1 3.918396 1_655
Br2 Hf2 2.684325 1_555
Br2 Hf3 2.688339 1_546
Br2 Rb1 3.762976 1_556
Br2 Rb0 3.799691 1_545
Br3 Hf4 2.684325 1_555
Br3 Hf5 2.688339 1_564
Br3 Rb0 3.762976 1_554
Br3 Rb1 3.799691 1_565
Br4 Hf1 2.684325 1_555
Br4 Hf2 2.688339 1_654
Br4 Rb1 3.762976 1_655
Br4 Rb0 3.799692 1_554
Br5 Hf4 2.669495 1_555
Br5 Hf1 2.671823 1_565
Br5 Rb0 3.733379 1_555
Br6 Hf6 2.625249 1_555
Br6 Hf0 3.026975 1_555
Br6 Rb1 3.918396 1_565
Br7 Hf1 2.669495 1_555
Br7 Hf5 2.671823 1_554
Br7 Rb1 3.733378 1_555
Br8 Hf2 2.669495 1_555
Br8 Hf0 2.671823 1_545
Br8 Rb1 3.733379 1_555
Br9 Hf3 2.669495 1_555
Br9 Hf4 2.671822 1_455
Br9 Rb1 3.733378 1_555
Br10 Hf5 2.684326 1_555
Br10 Hf0 2.688339 1_645
Br10 Rb0 3.762976 1_545
Br10 Rb1 3.799692 1_655
Br11 Hf0 2.669495 1_555
Br11 Hf3 2.671823 1_556
Br11 Rb0 3.733378 1_555
Br12 Hf5 2.669495 1_555
Br12 Hf2 2.671822 1_655
Br12 Rb0 3.733378 1_555
Br13 Hf0 2.684325 1_555
Br13 Hf4 2.688339 1_456
Br13 Rb0 3.762976 1_455
Br13 Rb1 3.799692 1_556
Br14 Hf6 2.625249 1_555
Br14 Hf3 3.026974 1_555
Br14 Rb0 3.918396 1_554
Br15 Hf6 2.625249 1_555
Br15 Hf1 3.026975 1_555
Br15 Rb0 3.918396 1_545
Br16 Hf6 2.625249 1_555
Br16 Hf5 3.026974 1_555
Br16 Rb1 3.918396 1_556
Br17 Hf3 2.684326 1_555
Br17 Hf1 2.688339 1_465
Br17 Rb1 3.762976 1_565
Br17 Rb0 3.799692 1_455
