# generated using pymatgen
data_Dy2Zn17
_symmetry_space_group_name_H-M   'P 1'
_cell_length_a   6.69039542
_cell_length_b   6.69039670
_cell_length_c   6.69039588
_cell_angle_alpha   82.88865103
_cell_angle_beta   82.88865214
_cell_angle_gamma   82.88864636
_symmetry_Int_Tables_number   1
_chemical_formula_structural   Dy2Zn17
_chemical_formula_sum   'Dy2 Zn17'
_cell_volume   293.08709153
_cell_formula_units_Z   1
loop_
 _symmetry_equiv_pos_site_id
 _symmetry_equiv_pos_as_xyz
  1  'x, y, z'
loop_
 _atom_site_type_symbol
 _atom_site_label
 _atom_site_symmetry_multiplicity
 _atom_site_fract_x
 _atom_site_fract_y
 _atom_site_fract_z
 _atom_site_occupancy
  Dy  Dy0  1  0.66416293  0.66416293  0.66416293  1
  Dy  Dy1  1  0.33583707  0.33583707  0.33583707  1
  Zn  Zn0  1  0.35095649  0.35095649  0.83880022  1
  Zn  Zn1  1  0.35095649  0.83880022  0.35095649  1
  Zn  Zn2  1  0.09982608  0.09982608  0.09982608  1
  Zn  Zn3  1  0.90017392  0.90017392  0.90017392  1
  Zn  Zn4  1  -0.00000000  -0.00000000  0.50000000  1
  Zn  Zn5  1  0.50000000  -0.00000000  0.00000000  1
  Zn  Zn6  1  -0.00000000  0.50000000  0.00000000  1
  Zn  Zn7  1  0.70400846  0.29599154  0.00000000  1
  Zn  Zn8  1  1.00000000  0.70400846  0.29599154  1
  Zn  Zn9  1  0.29599154  0.00000000  0.70400846  1
  Zn  Zn10  1  0.29599154  0.70400846  0.00000000  1
  Zn  Zn11  1  0.00000000  0.29599154  0.70400846  1
  Zn  Zn12  1  0.70400846  1.00000000  0.29599154  1
  Zn  Zn13  1  0.64904351  0.16119978  0.64904351  1
  Zn  Zn14  1  0.64904351  0.64904351  0.16119978  1
  Zn  Zn15  1  0.16119978  0.64904351  0.64904351  1
  Zn  Zn16  1  0.83880022  0.35095649  0.35095649  1
loop_
_geom_bond_atom_site_label_1
_geom_bond_atom_site_label_2
_geom_bond_distance
_geom_bond_site_symmetry_2
Dy0 Zn3 3.054792 1_555
Dy0 Zn10 3.130871 1_556
Dy0 Zn9 3.130871 1_565
Dy0 Zn8 3.130871 1_555
Dy0 Zn11 3.130871 1_655
Dy0 Zn7 3.130871 1_556
Dy0 Zn12 3.130871 1_555
Dy0 Zn1 3.165750 1_555
Dy0 Zn16 3.165750 1_555
Dy0 Zn0 3.165750 1_555
Dy0 Zn15 3.303715 1_655
Dy0 Zn14 3.303715 1_556
Dy0 Zn13 3.303716 1_565
Dy0 Zn6 3.366187 1_656
Dy0 Zn5 3.366188 1_566
Dy0 Zn4 3.366188 1_665
Dy0 Zn15 3.393366 1_555
Dy0 Zn14 3.393366 1_555
Dy0 Zn13 3.393366 1_555
Dy1 Zn2 3.054792 1_555
Dy1 Zn7 3.130871 1_555
Dy1 Zn12 3.130871 1_545
Dy1 Zn11 3.130871 1_555
Dy1 Zn8 3.130871 1_455
Dy1 Zn10 3.130871 1_555
Dy1 Zn9 3.130871 1_555
Dy1 Zn13 3.165750 1_555
Dy1 Zn15 3.165750 1_555
Dy1 Zn14 3.165750 1_555
Dy1 Zn16 3.303715 1_455
Dy1 Zn0 3.303715 1_554
Dy1 Zn1 3.303716 1_545
Dy1 Zn6 3.366187 1_555
Dy1 Zn5 3.366188 1_555
Dy1 Zn4 3.366188 1_555
Dy1 Zn16 3.393366 1_555
Dy1 Zn0 3.393366 1_555
Dy1 Zn1 3.393366 1_555
Zn0 Zn13 2.519148 1_555
Zn0 Zn15 2.519148 1_555
Zn0 Zn6 2.594284 1_556
Zn0 Zn5 2.594285 1_556
Zn0 Zn7 2.682380 1_556
Zn0 Zn10 2.682381 1_556
Zn0 Zn11 2.698510 1_555
Zn0 Zn9 2.698510 1_555
Zn0 Zn2 2.818094 1_556
Zn1 Zn14 2.519148 1_555
Zn1 Zn15 2.519149 1_555
Zn1 Zn4 2.594284 1_565
Zn1 Zn5 2.594285 1_565
Zn1 Zn12 2.682380 1_555
Zn1 Zn9 2.682380 1_565
Zn1 Zn8 2.698510 1_455
Zn1 Zn10 2.698510 1_555
Zn1 Zn2 2.818093 1_565
Zn2 Zn3 2.584184 1_444
Zn2 Zn5 2.699101 1_555
Zn2 Zn4 2.699102 1_555
Zn2 Zn6 2.699102 1_555
Zn2 Zn7 2.922621 1_455
Zn2 Zn9 2.922621 1_554
Zn2 Zn8 2.922621 1_445
Zn3 Zn5 2.699101 1_566
Zn3 Zn4 2.699102 1_665
Zn3 Zn6 2.699102 1_656
Zn3 Zn9 2.922621 1_665
Zn3 Zn8 2.922621 1_556
Zn3 Zn7 2.922621 1_566
Zn4 Zn9 2.540426 1_555
Zn4 Zn8 2.540426 1_445
Zn5 Zn9 2.540426 1_554
Zn5 Zn7 2.540426 1_555
Zn6 Zn7 2.540426 1_455
Zn6 Zn8 2.540426 1_455
Zn10 Zn6 2.540426 1_555
Zn10 Zn5 2.540426 1_565
Zn10 Zn8 2.621490 1_455
Zn10 Zn9 2.621490 1_564
Zn10 Zn14 2.682380 1_555
Zn10 Zn15 2.698510 1_554
Zn10 Zn3 2.922621 1_454
Zn10 Zn2 2.922621 1_565
Zn11 Zn6 2.540426 1_556
Zn11 Zn4 2.540426 1_555
Zn11 Zn7 2.621490 1_456
Zn11 Zn9 2.621490 1_555
Zn11 Zn16 2.682380 1_455
Zn11 Zn15 2.682381 1_555
Zn11 Zn13 2.698510 1_455
Zn11 Zn2 2.922621 1_556
Zn11 Zn3 2.922621 1_445
Zn12 Zn4 2.540426 1_665
Zn12 Zn5 2.540426 1_565
Zn12 Zn8 2.621490 1_555
Zn12 Zn7 2.621490 1_565
Zn12 Zn13 2.682380 1_565
Zn12 Zn14 2.698510 1_555
Zn12 Zn16 2.698510 1_565
Zn12 Zn2 2.922621 1_665
Zn12 Zn3 2.922621 1_554
Zn13 Zn16 2.519149 1_555
Zn13 Zn4 2.594284 1_655
Zn13 Zn5 2.594285 1_556
Zn13 Zn9 2.682380 1_555
Zn13 Zn7 2.698510 1_556
Zn13 Zn3 2.818093 1_545
Zn14 Zn16 2.519148 1_555
Zn14 Zn6 2.594284 1_655
Zn14 Zn5 2.594285 1_565
Zn14 Zn7 2.682381 1_555
Zn14 Zn8 2.698510 1_555
Zn14 Zn3 2.818094 1_554
Zn15 Zn6 2.594285 1_556
Zn15 Zn4 2.594285 1_565
Zn15 Zn8 2.682380 1_455
Zn15 Zn9 2.698510 1_565
Zn15 Zn3 2.818094 1_455
Zn16 Zn6 2.594285 1_655
Zn16 Zn4 2.594285 1_655
Zn16 Zn8 2.682381 1_555
Zn16 Zn7 2.698510 1_555
Zn16 Zn2 2.818094 1_655
