# generated using pymatgen
data_Cs3Ta(SO)2
_symmetry_space_group_name_H-M   'P 1'
_cell_length_a   8.01390151
_cell_length_b   11.87377290
_cell_length_c   13.01719817
_cell_angle_alpha   57.59352764
_cell_angle_beta   90.00000000
_cell_angle_gamma   90.00000000
_symmetry_Int_Tables_number   1
_chemical_formula_structural   Cs3Ta(SO)2
_chemical_formula_sum   'Cs12 Ta4 S8 O8'
_cell_volume   1045.75577413
_cell_formula_units_Z   4
loop_
 _symmetry_equiv_pos_site_id
 _symmetry_equiv_pos_as_xyz
  1  'x, y, z'
loop_
 _atom_site_type_symbol
 _atom_site_label
 _atom_site_symmetry_multiplicity
 _atom_site_fract_x
 _atom_site_fract_y
 _atom_site_fract_z
 _atom_site_occupancy
  Cs  Cs0  1  0.73711245  0.05504435  0.88186584  1
  Cs  Cs1  1  0.85205242  0.51418500  0.15412296  1
  Cs  Cs2  1  0.26288755  0.94495565  0.11813416  1
  Cs  Cs3  1  0.76288755  0.05504435  0.38186584  1
  Cs  Cs4  1  0.14794758  0.48581500  0.84587704  1
  Cs  Cs5  1  0.72091978  0.76171751  0.78865060  1
  Cs  Cs6  1  0.35205242  0.48581500  0.34587704  1
  Cs  Cs7  1  0.22091978  0.23828249  0.71134940  1
  Cs  Cs8  1  0.27908022  0.23828249  0.21134940  1
  Cs  Cs9  1  0.77908022  0.76171751  0.28865060  1
  Cs  Cs10  1  0.23711245  0.94495565  0.61813416  1
  Cs  Cs11  1  0.64794758  0.51418500  0.65412296  1
  Ta  Ta0  1  0.70559782  0.30299954  0.02319205  1
  Ta  Ta1  1  0.79440218  0.30299954  0.52319205  1
  Ta  Ta2  1  0.29440218  0.69700046  0.97680795  1
  Ta  Ta3  1  0.20559782  0.69700046  0.47680795  1
  S  S0  1  0.47768693  0.25238752  0.94288798  1
  S  S1  1  0.57640303  0.15009938  0.57925621  1
  S  S2  1  0.97768693  0.74761248  0.55711202  1
  S  S3  1  0.52231307  0.74761248  0.05711202  1
  S  S4  1  0.02231307  0.25238752  0.44288798  1
  S  S5  1  0.07640303  0.84990062  0.92074379  1
  S  S6  1  0.42359697  0.84990062  0.42074379  1
  S  S7  1  0.92359697  0.15009938  0.07925621  1
  O  O0  1  0.28470906  0.53040914  0.58438127  1
  O  O1  1  0.63902526  0.29814379  0.15867653  1
  O  O2  1  0.78470906  0.46959086  0.91561873  1
  O  O3  1  0.21529094  0.53040914  0.08438127  1
  O  O4  1  0.86097474  0.29814379  0.65867653  1
  O  O5  1  0.71529094  0.46959086  0.41561873  1
  O  O6  1  0.13902526  0.70185621  0.34132347  1
  O  O7  1  0.36097474  0.70185621  0.84132347  1
loop_
_geom_bond_atom_site_label_1
_geom_bond_atom_site_label_2
_geom_bond_distance
_geom_bond_site_symmetry_2
Cs0 O4 2.961303 1_555
Cs0 S5 3.501611 1_645
Cs0 S0 3.526883 1_555
Cs0 S3 3.544965 1_546
Cs0 S7 3.635643 1_556
Cs0 S1 3.699185 1_555
Cs1 O3 3.024485 1_655
Cs1 O1 3.055384 1_555
Cs1 O5 3.337141 1_555
Cs1 O2 3.460137 1_554
Cs1 S3 3.536675 1_555
Cs1 S4 3.623523 1_655
Cs1 S5 3.920663 1_654
Cs2 O6 2.961303 1_555
Cs2 S7 3.501611 1_465
Cs2 S3 3.526883 1_555
Cs2 S0 3.544965 1_564
Cs2 S5 3.635643 1_554
Cs2 S6 3.699185 1_555
Cs3 O1 2.961303 1_555
Cs3 S6 3.501611 1_545
Cs3 S4 3.526883 1_655
Cs3 S2 3.544965 1_545
Cs3 S1 3.635643 1_555
Cs3 S7 3.699185 1_555
Cs4 O2 3.024485 1_455
Cs4 O7 3.055384 1_555
Cs4 O0 3.337141 1_555
Cs4 O3 3.460137 1_556
Cs4 S0 3.536675 1_555
Cs4 S2 3.623523 1_455
Cs4 S7 3.920663 1_456
Cs5 O7 2.962039 1_555
Cs5 O2 2.979887 1_555
Cs5 S2 3.726574 1_555
Cs5 S5 3.754789 1_655
Cs5 S3 3.761156 1_556
Cs5 S1 4.069942 1_565
Cs6 O5 3.024485 1_555
Cs6 O6 3.055384 1_555
Cs6 O3 3.337141 1_555
Cs6 O0 3.460137 1_555
Cs6 S4 3.536675 1_555
Cs6 S3 3.623523 1_555
Cs6 S1 3.920663 1_555
Cs7 O4 2.962039 1_455
Cs7 O0 2.979887 1_555
Cs7 S0 3.726574 1_555
Cs7 S1 3.754789 1_555
Cs7 S4 3.761156 1_555
Cs7 S5 4.069942 1_545
Cs8 O1 2.962039 1_555
Cs8 O3 2.979887 1_555
Cs8 S4 3.726574 1_555
Cs8 S7 3.754789 1_455
Cs8 S0 3.761156 1_554
Cs8 S6 4.069942 1_545
Cs9 O6 2.962039 1_655
Cs9 O5 2.979887 1_555
Cs9 S3 3.726574 1_555
Cs9 S6 3.754789 1_555
Cs9 S2 3.761156 1_555
Cs9 S7 4.069942 1_565
Cs10 O7 2.961303 1_555
Cs10 S1 3.501611 1_565
Cs10 S2 3.526883 1_455
Cs10 S4 3.544965 1_565
Cs10 S6 3.635643 1_555
Cs10 S5 3.699185 1_555
Cs11 O0 3.024485 1_555
Cs11 O4 3.055384 1_555
Cs11 O2 3.337141 1_555
Cs11 O5 3.460137 1_555
Cs11 S2 3.536675 1_555
Cs11 S0 3.623523 1_555
Cs11 S6 3.920663 1_555
S0 Ta0 2.337336 1_556
S1 Ta1 2.336794 1_555
S2 Ta3 2.337336 1_655
S3 Ta2 2.337336 1_554
S4 Ta1 2.337336 1_455
S5 Ta2 2.336794 1_555
S6 Ta3 2.336794 1_555
S7 Ta0 2.336794 1_555
O0 Ta3 1.818419 1_555
O1 Ta0 1.813656 1_555
O2 Ta0 1.818419 1_556
O3 Ta2 1.818419 1_554
O4 Ta1 1.813656 1_555
O5 Ta1 1.818419 1_555
O6 Ta3 1.813656 1_555
O7 Ta2 1.813656 1_555
