# generated using pymatgen
data_AgAu(NO3)4
_symmetry_space_group_name_H-M   'P 1'
_cell_length_a   7.90491359
_cell_length_b   7.04500089
_cell_length_c   8.75203829
_cell_angle_alpha   90.00000000
_cell_angle_beta   97.72574437
_cell_angle_gamma   90.00000000
_symmetry_Int_Tables_number   1
_chemical_formula_structural   AgAu(NO3)4
_chemical_formula_sum   'Ag2 Au2 N8 O24'
_cell_volume   482.97789172
_cell_formula_units_Z   2
loop_
 _symmetry_equiv_pos_site_id
 _symmetry_equiv_pos_as_xyz
  1  'x, y, z'
loop_
 _atom_site_type_symbol
 _atom_site_label
 _atom_site_symmetry_multiplicity
 _atom_site_fract_x
 _atom_site_fract_y
 _atom_site_fract_z
 _atom_site_occupancy
  Ag  Ag0  1  0.50000000  0.50000000  0.50000000  1
  Ag  Ag1  1  0.50000000  0.00000000  0.00000000  1
  Au  Au0  1  0.00000000  0.50000000  0.00000000  1
  Au  Au1  1  0.00000000  0.00000000  0.50000000  1
  N  N0  1  0.67410981  0.13326341  0.33258699  1
  N  N1  1  0.67410981  0.36673659  0.83258699  1
  N  N2  1  0.82634421  0.83337050  0.87471179  1
  N  N3  1  0.82634421  0.66662950  0.37471179  1
  N  N4  1  0.17365579  0.16662950  0.12528821  1
  N  N5  1  0.17365579  0.33337050  0.62528821  1
  N  N6  1  0.32589019  0.63326341  0.16741301  1
  N  N7  1  0.32589019  0.86673659  0.66741301  1
  O  O0  1  0.53766896  0.28160608  0.82783131  1
  O  O1  1  0.53766896  0.21839392  0.32783131  1
  O  O2  1  0.72479439  0.45030594  0.72405253  1
  O  O3  1  0.72479439  0.04969406  0.22405253  1
  O  O4  1  0.73546538  0.71422213  0.47284517  1
  O  O5  1  0.73546538  0.78577787  0.97284517  1
  O  O6  1  0.77071737  0.36442484  0.96957517  1
  O  O7  1  0.77071737  0.13557516  0.46957517  1
  O  O8  1  0.80822805  0.97431672  0.79291961  1
  O  O9  1  0.80822805  0.52568328  0.29291961  1
  O  O10  1  0.95794663  0.72233397  0.85389027  1
  O  O11  1  0.95794663  0.77766603  0.35389027  1
  O  O12  1  0.04205337  0.22233397  0.64610973  1
  O  O13  1  0.04205337  0.27766603  0.14610973  1
  O  O14  1  0.19177195  0.47431672  0.70708039  1
  O  O15  1  0.19177195  0.02568328  0.20708039  1
  O  O16  1  0.22928263  0.63557516  0.03042483  1
  O  O17  1  0.22928263  0.86442484  0.53042483  1
  O  O18  1  0.26453462  0.21422213  0.02715483  1
  O  O19  1  0.26453462  0.28577787  0.52715483  1
  O  O20  1  0.27520561  0.54969406  0.27594747  1
  O  O21  1  0.27520561  0.95030594  0.77594747  1
  O  O22  1  0.46233104  0.78160608  0.67216869  1
  O  O23  1  0.46233104  0.71839392  0.17216869  1
loop_
_geom_bond_atom_site_label_1
_geom_bond_atom_site_label_2
_geom_bond_distance
_geom_bond_site_symmetry_2
Ag0 O4 2.432622 1_555
Ag0 O19 2.432622 1_555
Ag0 O2 2.487682 1_555
Ag0 O20 2.487682 1_555
Ag0 O22 2.532933 1_555
Ag0 O1 2.532933 1_555
Ag1 O5 2.432622 1_544
Ag1 O18 2.432622 1_555
Ag1 O3 2.487682 1_555
Ag1 O21 2.487682 1_544
Ag1 O0 2.532933 1_554
Ag1 O23 2.532933 1_545
Au0 O13 2.021106 1_555
Au0 O10 2.021106 1_454
Au0 O16 2.034311 1_555
Au0 O6 2.034311 1_454
Au1 O12 2.021106 1_555
Au1 O11 2.021106 1_445
Au1 O17 2.034311 1_545
Au1 O7 2.034311 1_455
N0 O3 1.229544 1_555
N0 O1 1.229892 1_555
N0 O7 1.332186 1_555
N1 O2 1.229544 1_555
N1 O0 1.229892 1_555
N1 O6 1.332186 1_555
N2 O8 1.221215 1_555
N2 O5 1.237758 1_555
N2 O10 1.333541 1_555
N3 O9 1.221215 1_555
N3 O4 1.237758 1_555
N3 O11 1.333541 1_555
N4 O15 1.221215 1_555
N4 O18 1.237758 1_555
N4 O13 1.333541 1_555
N5 O14 1.221215 1_555
N5 O19 1.237758 1_555
N5 O12 1.333541 1_555
N6 O20 1.229544 1_555
N6 O23 1.229892 1_555
N6 O16 1.332186 1_555
N7 O21 1.229544 1_555
N7 O22 1.229892 1_555
N7 O17 1.332186 1_555
