# generated using pymatgen
data_Mg3Cu(Ni3B)2
_symmetry_space_group_name_H-M   'P 1'
_cell_length_a   4.91560529
_cell_length_b   4.91560671
_cell_length_c   7.30068717
_cell_angle_alpha   109.66021950
_cell_angle_beta   109.66022137
_cell_angle_gamma   60.07574976
_symmetry_Int_Tables_number   1
_chemical_formula_structural   Mg3Cu(Ni3B)2
_chemical_formula_sum   'Mg3 Cu1 Ni6 B2'
_cell_volume   140.87155677
_cell_formula_units_Z   1
loop_
 _symmetry_equiv_pos_site_id
 _symmetry_equiv_pos_as_xyz
  1  'x, y, z'
loop_
 _atom_site_type_symbol
 _atom_site_label
 _atom_site_symmetry_multiplicity
 _atom_site_fract_x
 _atom_site_fract_y
 _atom_site_fract_z
 _atom_site_occupancy
  Mg  Mg0  1  0.35710894  0.35710894  0.07019151  1
  Mg  Mg1  1  0.50000000  0.50000000  0.50000100  1
  Mg  Mg2  1  0.64289106  0.64289106  0.92980849  1
  Cu  Cu0  1  0.00000000  0.00000000  0.00000000  1
  Ni  Ni0  1  0.93157418  0.93157418  0.29612941  1
  Ni  Ni1  1  0.93151089  0.43214060  0.29602707  1
  Ni  Ni2  1  0.43214060  0.93151089  0.29602707  1
  Ni  Ni3  1  0.56785840  0.06848811  0.70397293  1
  Ni  Ni4  1  0.06848811  0.56785840  0.70397293  1
  Ni  Ni5  1  0.06842482  0.06842482  0.70387059  1
  B  B0  1  0.83319425  0.83319425  0.50018636  1
  B  B1  1  0.16680475  0.16680475  0.49981364  1
loop_
_geom_bond_atom_site_label_1
_geom_bond_atom_site_label_2
_geom_bond_distance
_geom_bond_site_symmetry_2
Mg0 Ni3 2.842428 1_554
Mg0 Ni4 2.842428 1_554
Mg0 Ni5 2.842816 1_554
Mg0 Ni1 2.885153 1_555
Mg0 Ni2 2.885154 1_555
Mg0 Mg1 2.891238 1_555
Mg0 Ni0 2.892160 1_545
Mg0 Ni0 2.892160 1_455
Mg0 Ni1 2.893640 1_455
Mg0 Ni2 2.893640 1_545
Mg0 Mg2 2.983922 1_554
Mg0 Mg2 2.996099 1_454
Mg0 Mg2 2.996100 1_544
Mg1 Ni4 2.813057 1_555
Mg1 Ni3 2.813058 1_555
Mg1 Ni1 2.813062 1_555
Mg1 Ni2 2.813062 1_555
Mg1 Ni4 2.816645 1_655
Mg1 Ni3 2.816645 1_565
Mg1 Ni1 2.816653 1_455
Mg1 Ni2 2.816654 1_545
Mg1 Ni5 2.816975 1_655
Mg1 Ni5 2.816976 1_565
Mg1 Ni0 2.816982 1_455
Mg1 Ni0 2.816982 1_545
Mg1 Mg2 2.891225 1_555
Mg2 Ni2 2.842430 1_556
Mg2 Ni1 2.842430 1_556
Mg2 Ni0 2.842812 1_556
Mg2 Ni4 2.885159 1_555
Mg2 Ni3 2.885160 1_555
Mg2 Ni5 2.892160 1_565
Mg2 Ni5 2.892160 1_655
Mg2 Ni4 2.893633 1_655
Mg2 Ni3 2.893634 1_565
Cu0 Ni2 2.446106 1_545
Cu0 Ni1 2.446107 1_455
Cu0 Ni3 2.446109 1_454
Cu0 Ni4 2.446109 1_544
Cu0 Ni5 2.447806 1_554
Cu0 Ni0 2.447811 1_445
Cu0 Mg0 2.877600 1_455
Cu0 Mg2 2.877600 1_544
Cu0 Mg2 2.877600 1_454
Cu0 Mg0 2.877600 1_545
Cu0 Mg0 2.879117 1_555
Cu0 Mg2 2.879117 1_444
B0 Ni0 1.972303 1_555
B0 Ni3 1.973613 1_565
B0 Ni4 1.973613 1_655
B0 Ni2 1.974484 1_555
B0 Ni1 1.974484 1_555
B0 Ni5 1.976187 1_665
B0 Mg1 2.835233 1_555
B0 Mg1 2.841047 1_655
B0 Mg1 2.841048 1_565
B1 Ni5 1.972303 1_555
B1 Ni2 1.973613 1_545
B1 Ni1 1.973613 1_455
B1 Ni3 1.974484 1_555
B1 Ni4 1.974484 1_555
B1 Ni0 1.976187 1_445
B1 Mg1 2.835236 1_555
B1 Mg1 2.841045 1_455
B1 Mg1 2.841046 1_545
