# generated using pymatgen
data_YPS4
_symmetry_space_group_name_H-M   'P 1'
_cell_length_a   12.19167946
_cell_length_b   12.19167649
_cell_length_c   12.19172033
_cell_angle_alpha   127.78521163
_cell_angle_beta   127.78503651
_cell_angle_gamma   76.97302697
_symmetry_Int_Tables_number   1
_chemical_formula_structural   YPS4
_chemical_formula_sum   'Y8 P8 S32'
_cell_volume   1098.73511456
_cell_formula_units_Z   8
loop_
 _symmetry_equiv_pos_site_id
 _symmetry_equiv_pos_as_xyz
  1  'x, y, z'
loop_
 _atom_site_type_symbol
 _atom_site_label
 _atom_site_symmetry_multiplicity
 _atom_site_fract_x
 _atom_site_fract_y
 _atom_site_fract_z
 _atom_site_occupancy
  Y  Y0  1  0.49999778  0.50000608  0.00000190  1
  Y  Y1  1  0.25000153  0.74999328  0.49999740  1
  Y  Y2  1  0.75000661  0.24999916  0.50000321  1
  Y  Y3  1  -0.00000617  0.00000073  -0.00000296  1
  Y  Y4  1  0.24999919  0.25000324  0.00000032  1
  Y  Y5  1  -0.00000175  0.50000313  0.49999938  1
  Y  Y6  1  0.50000005  -0.00000307  0.49999892  1
  Y  Y7  1  0.75000038  0.74999610  -0.00000143  1
  P  P0  1  0.62499763  0.91314944  0.78814672  1
  P  P1  1  0.62500652  0.41316692  0.28815904  1
  P  P2  1  0.16314900  0.37500145  0.28815408  1
  P  P3  1  0.08683761  0.87499192  0.71183651  1
  P  P4  1  0.12500905  0.33685561  0.71185258  1
  P  P5  1  0.12499995  0.83683975  0.21184318  1
  P  P6  1  0.58684571  0.87499467  0.21184690  1
  P  P7  1  0.66315687  0.37500317  0.78816385  1
  S  S0  1  0.98484024  0.71001357  0.45146269  1
  S  S1  1  0.25855433  0.53338887  0.54853340  1
  S  S2  1  0.28339156  0.23485521  0.77483881  1
  S  S3  1  0.46001454  0.50855953  0.22516617  1
  S  S4  1  0.99144287  0.03998013  0.77483310  1
  S  S5  1  0.26514248  0.21661312  0.22516292  1
  S  S6  1  0.78998471  0.51515913  0.54853149  1
  S  S7  1  0.96661560  0.24144977  0.45147579  1
  S  S8  1  0.77960803  0.96792344  0.31996432  1
  S  S9  1  0.71792502  0.89795514  0.68830724  1
  S  S10  1  0.20964460  0.02959729  0.31166145  1
  S  S11  1  0.47040110  0.29035412  0.68834608  1
  S  S12  1  0.60203690  0.78207140  0.31168927  1
  S  S13  1  0.04035291  0.85202710  0.31995903  1
  S  S14  1  0.53206978  0.72038676  0.68003286  1
  S  S15  1  0.64796792  0.45964294  0.68004022  1
  S  S16  1  0.97038402  0.28207234  0.18003114  1
  S  S17  1  0.03207947  0.35204177  0.81168472  1
  S  S18  1  0.54035943  0.22041174  0.18834430  1
  S  S19  1  0.27959023  0.95964505  0.81165369  1
  S  S20  1  0.14796087  0.46792333  0.18831264  1
  S  S21  1  0.70965135  0.39797436  0.18003841  1
  S  S22  1  0.21793101  0.52962163  0.81996692  1
  S  S23  1  0.10203448  0.79035112  0.81996313  1
  S  S24  1  0.49144718  0.71660622  0.95147019  1
  S  S25  1  0.46661019  0.01514662  0.72516301  1
  S  S26  1  0.28998500  0.74143858  0.27483099  1
  S  S27  1  0.75855617  0.21001816  0.72516716  1
  S  S28  1  0.48485467  0.03338682  0.27483586  1
  S  S29  1  0.96001943  0.73484608  0.95147118  1
  S  S30  1  0.78338561  0.00855030  0.04852419  1
  S  S31  1  0.76515832  0.53998677  0.04853800  1
loop_
_geom_bond_atom_site_label_1
_geom_bond_atom_site_label_2
_geom_bond_distance
_geom_bond_site_symmetry_2
P0 S14 2.029390 1_555
P0 S9 2.029392 1_555
P0 S30 2.033526 1_566
P0 S25 2.033554 1_565
P1 S21 2.029386 1_555
P1 S18 2.029401 1_555
P1 S6 2.033490 1_555
P1 S3 2.033574 1_555
P2 S16 2.029379 1_455
P2 S20 2.029384 1_555
P2 S1 2.033527 1_555
P2 S5 2.033545 1_555
P3 S23 2.029388 1_555
P3 S19 2.029392 1_555
P3 S0 2.033490 1_455
P3 S4 2.033563 1_465
P4 S17 2.029377 1_555
P4 S22 2.029393 1_555
P4 S7 2.033519 1_455
P4 S2 2.033549 1_555
P5 S13 2.029384 1_555
P5 S10 2.029397 1_565
P5 S29 2.033490 1_454
P5 S26 2.033574 1_555
P6 S8 2.029376 1_555
P6 S12 2.029394 1_555
P6 S24 2.033523 1_554
P6 S28 2.033548 1_565
P7 S15 2.029384 1_555
P7 S11 2.029404 1_555
P7 S31 2.033497 1_556
P7 S27 2.033571 1_555
S0 Y5 2.906742 1_655
S0 Y1 3.008543 1_655
S1 Y5 2.906892 1_555
S1 Y1 3.008292 1_555
S2 Y4 2.906850 1_556
S2 Y0 3.008387 1_556
S3 Y4 2.906874 1_555
S3 Y0 3.008381 1_555
S4 Y4 2.906923 1_656
S4 Y3 3.008362 1_656
S5 Y4 2.906876 1_555
S5 Y3 3.008402 1_555
S6 Y5 2.906745 1_655
S6 Y2 3.008563 1_555
S7 Y5 2.906916 1_655
S7 Y2 3.008284 1_555
S8 Y2 2.817085 1_565
S8 Y7 2.900512 1_555
S9 Y3 2.817106 1_666
S9 Y6 2.900456 1_565
S10 Y3 2.817038 1_555
S10 Y6 2.900480 1_555
S11 Y0 2.816957 1_556
S11 Y6 2.900495 1_555
S12 Y0 2.817076 1_555
S12 Y6 2.900416 1_565
S13 Y1 2.817096 1_555
S13 Y7 2.900477 1_455
S14 Y1 2.817044 1_555
S14 Y7 2.900514 1_556
S15 Y2 2.817103 1_555
S15 Y7 2.900463 1_556
S16 Y3 2.817077 1_655
S16 Y5 2.900499 1_655
S17 Y2 2.817101 1_455
S17 Y4 2.900450 1_556
S18 Y2 2.817041 1_555
S18 Y4 2.900495 1_555
S19 Y1 2.817009 1_555
S19 Y4 2.900471 1_566
S20 Y1 2.817091 1_555
S20 Y4 2.900423 1_555
S21 Y0 2.817086 1_555
S21 Y5 2.900449 1_655
S22 Y0 2.817067 1_556
S22 Y5 2.900478 1_555
S23 Y3 2.817125 1_566
S23 Y5 2.900448 1_555
S24 Y7 2.906908 1_556
S24 Y0 3.008211 1_556
S25 Y6 2.906848 1_555
S25 Y1 3.008417 1_545
S26 Y6 2.906883 1_565
S26 Y1 3.008400 1_555
S27 Y6 2.906905 1_555
S27 Y2 3.008385 1_555
S28 Y6 2.906866 1_555
S28 Y2 3.008425 1_555
S29 Y7 2.906790 1_556
S29 Y3 3.008503 1_666
S30 Y7 2.906921 1_545
S30 Y3 3.008272 1_655
S31 Y7 2.906752 1_555
S31 Y0 3.008527 1_555
