# generated using pymatgen
data_Sr5TaReN7
_symmetry_space_group_name_H-M   'P 1'
_cell_length_a   6.47283584
_cell_length_b   9.34743642
_cell_length_c   9.43127298
_cell_angle_alpha   115.01521442
_cell_angle_beta   96.71576688
_cell_angle_gamma   89.41932602
_symmetry_Int_Tables_number   1
_chemical_formula_structural   Sr5TaReN7
_chemical_formula_sum   'Sr10 Ta2 Re2 N14'
_cell_volume   513.06732009
_cell_formula_units_Z   2
loop_
 _symmetry_equiv_pos_site_id
 _symmetry_equiv_pos_as_xyz
  1  'x, y, z'
loop_
 _atom_site_type_symbol
 _atom_site_label
 _atom_site_symmetry_multiplicity
 _atom_site_fract_x
 _atom_site_fract_y
 _atom_site_fract_z
 _atom_site_occupancy
  Sr  Sr0  1  0.84386680  0.59578678  0.33240021  1
  Sr  Sr1  1  0.26097215  0.98598306  0.55314104  1
  Sr  Sr2  1  0.70491499  0.41424230  0.84803192  1
  Sr  Sr3  1  0.29508501  0.58575770  0.15196808  1
  Sr  Sr4  1  0.40004876  0.78895077  0.91526230  1
  Sr  Sr5  1  0.59995124  0.21104923  0.08473770  1
  Sr  Sr6  1  0.15613320  0.40421322  0.66759979  1
  Sr  Sr7  1  0.88918285  0.84513405  0.75404008  1
  Sr  Sr8  1  0.11081715  0.15486595  0.24595992  1
  Sr  Sr9  1  0.73902785  0.01401694  0.44685896  1
  Ta  Ta0  1  0.58590155  0.34966930  0.47339056  1
  Ta  Ta1  1  0.41409845  0.65033070  0.52660944  1
  Re  Re0  1  0.12471894  0.21809066  0.91842180  1
  Re  Re1  1  0.87528106  0.78190934  0.08157820  1
  N  N0  1  0.52717559  0.54883347  0.67444943  1
  N  N1  1  0.47282441  0.45116653  0.32555057  1
  N  N2  1  0.13445149  0.71606119  0.55210711  1
  N  N3  1  0.86554851  0.28393881  0.44789289  1
  N  N4  1  0.41085673  0.17977457  0.46305048  1
  N  N5  1  0.58914327  0.82022543  0.53694952  1
  N  N6  1  0.96024860  0.14280698  0.72838206  1
  N  N7  1  0.03975140  0.85719302  0.27161794  1
  N  N8  1  0.22809252  0.05681778  0.96253169  1
  N  N9  1  0.77190748  0.94318222  0.03746831  1
  N  N10  1  0.35133281  0.32831269  0.90766971  1
  N  N11  1  0.97264847  0.34689747  0.07490005  1
  N  N12  1  0.02735153  0.65310253  0.92509995  1
  N  N13  1  0.64866719  0.67168731  0.09233029  1
loop_
_geom_bond_atom_site_label_1
_geom_bond_atom_site_label_2
_geom_bond_distance
_geom_bond_site_symmetry_2
N0 Ta1 2.060567 1_555
N0 Ta0 2.091593 1_555
N0 Sr2 2.618869 1_555
N0 Sr4 2.638480 1_555
N0 Sr6 2.748713 1_555
N1 Ta0 2.060567 1_555
N1 Ta1 2.091593 1_555
N1 Sr3 2.618869 1_555
N1 Sr5 2.638480 1_555
N1 Sr0 2.748713 1_555
N2 Ta1 1.914715 1_555
N2 Sr0 2.501309 1_455
N2 Sr7 2.515594 1_455
N2 Sr1 2.656294 1_555
N3 Ta0 1.914715 1_555
N3 Sr6 2.501309 1_655
N3 Sr8 2.515594 1_655
N3 Sr9 2.656294 1_555
N4 Ta0 1.922221 1_555
N4 Sr1 2.544532 1_545
N4 Sr8 2.587274 1_555
N4 Sr9 2.597164 1_555
N4 Sr6 2.844724 1_555
N5 Ta1 1.922221 1_555
N5 Sr9 2.544532 1_565
N5 Sr7 2.587274 1_555
N5 Sr1 2.597164 1_555
N5 Sr0 2.844724 1_555
N6 Re0 1.828438 1_655
N6 Sr9 2.644206 1_555
N6 Sr1 2.704639 1_645
N6 Sr2 2.893483 1_555
N6 Sr7 2.938327 1_545
N6 Sr6 3.053567 1_655
N7 Re1 1.828438 1_455
N7 Sr1 2.644206 1_555
N7 Sr9 2.704639 1_465
N7 Sr3 2.893483 1_555
N7 Sr8 2.938327 1_565
N7 Sr0 3.053567 1_455
N8 Re0 1.827057 1_555
N8 Sr4 2.611994 1_545
N8 Sr8 2.636323 1_556
N8 Sr5 2.686371 1_556
N8 Sr7 2.895284 1_445
N9 Re1 1.827057 1_555
N9 Sr5 2.611994 1_565
N9 Sr7 2.636323 1_554
N9 Sr4 2.686371 1_554
N9 Sr8 2.895284 1_665
N10 Re0 1.837708 1_555
N10 Sr3 2.592582 1_556
N10 Sr2 2.630590 1_555
N10 Sr5 2.731992 1_556
N10 Sr6 2.810247 1_555
N11 Re0 1.846486 1_654
N11 Sr5 2.766745 1_555
N11 Sr0 2.767873 1_555
N11 Sr2 2.868346 1_554
N11 Sr3 2.869923 1_655
N11 Sr8 2.950215 1_655
N12 Re1 1.846486 1_456
N12 Sr4 2.766745 1_555
N12 Sr6 2.767873 1_555
N12 Sr3 2.868346 1_556
N12 Sr2 2.869923 1_455
N12 Sr7 2.950215 1_455
N13 Re1 1.837708 1_555
N13 Sr2 2.592582 1_554
N13 Sr3 2.630590 1_555
N13 Sr4 2.731992 1_554
N13 Sr0 2.810247 1_555
