# generated using pymatgen
data_Sc12Fe2IrPb2
_symmetry_space_group_name_H-M   'P 1'
_cell_length_a   7.85450078
_cell_length_b   7.85449947
_cell_length_c   7.85449992
_cell_angle_alpha   108.38913332
_cell_angle_beta   108.38912909
_cell_angle_gamma   111.65777440
_symmetry_Int_Tables_number   1
_chemical_formula_structural   Sc12Fe2IrPb2
_chemical_formula_sum   'Sc12 Fe2 Ir1 Pb2'
_cell_volume   372.61223631
_cell_formula_units_Z   1
loop_
 _symmetry_equiv_pos_site_id
 _symmetry_equiv_pos_as_xyz
  1  'x, y, z'
loop_
 _atom_site_type_symbol
 _atom_site_label
 _atom_site_symmetry_multiplicity
 _atom_site_fract_x
 _atom_site_fract_y
 _atom_site_fract_z
 _atom_site_occupancy
  Sc  Sc0  1  0.30617264  0.30617264  0.61234528  1
  Sc  Sc1  1  0.69382736  0.69382736  0.38765472  1
  Sc  Sc2  1  0.30617264  0.69382736  0.00000000  1
  Sc  Sc3  1  0.69382736  0.30617264  1.00000000  1
  Sc  Sc4  1  0.43396090  0.19743019  0.23653170  1
  Sc  Sc5  1  0.56603910  0.80256981  0.76346830  1
  Sc  Sc6  1  0.96089849  0.19743019  0.76346830  1
  Sc  Sc7  1  0.19743019  0.96089849  0.76346830  1
  Sc  Sc8  1  0.03910151  0.80256981  0.23653170  1
  Sc  Sc9  1  0.80256981  0.03910151  0.23653170  1
  Sc  Sc10  1  0.19743019  0.43396090  0.23653170  1
  Sc  Sc11  1  0.80256981  0.56603910  0.76346830  1
  Fe  Fe0  1  0.37666119  0.37666119  0.00000000  1
  Fe  Fe1  1  0.62333881  0.62333881  1.00000000  1
  Ir  Ir0  1  0.00000000  0.00000000  0.00000000  1
  Pb  Pb0  1  0.50000000  0.00000000  0.50000000  1
  Pb  Pb1  1  0.00000000  0.50000000  0.50000000  1
loop_
_geom_bond_atom_site_label_1
_geom_bond_atom_site_label_2
_geom_bond_distance
_geom_bond_site_symmetry_2
Sc0 Sc7 3.233287 1_545
Sc0 Sc6 3.233288 1_455
Sc0 Sc5 3.233288 1_555
Sc0 Sc11 3.233289 1_555
Sc0 Sc4 3.370703 1_555
Sc0 Sc10 3.370703 1_555
Sc0 Sc8 3.370708 1_545
Sc0 Sc9 3.370709 1_455
Sc1 Sc9 3.233287 1_565
Sc1 Sc8 3.233288 1_655
Sc1 Sc4 3.233288 1_555
Sc1 Sc10 3.233289 1_555
Sc1 Sc5 3.370703 1_555
Sc1 Sc11 3.370703 1_555
Sc1 Sc6 3.370708 1_565
Sc1 Sc7 3.370709 1_655
Sc2 Sc6 3.233288 1_454
Sc2 Sc9 3.233288 1_565
Sc2 Sc5 3.233293 1_554
Sc2 Sc7 3.370708 1_554
Sc2 Sc8 3.370708 1_555
Sc2 Sc4 3.370710 1_565
Sc3 Sc8 3.233288 1_656
Sc3 Sc7 3.233288 1_545
Sc3 Sc4 3.233293 1_556
Sc3 Sc9 3.370708 1_556
Sc3 Sc6 3.370708 1_555
Sc3 Sc5 3.370710 1_545
Sc4 Sc7 3.074217 1_544
Sc4 Sc8 3.483934 1_545
Sc4 Sc9 3.547752 1_555
Sc5 Sc9 3.074217 1_566
Sc5 Sc6 3.483934 1_565
Sc5 Sc7 3.547752 1_555
Sc6 Sc7 3.074217 1_645
Sc6 Sc9 3.547744 1_555
Sc7 Sc8 3.547744 1_555
Sc8 Sc9 3.074217 1_465
Sc10 Sc4 3.074204 1_555
Sc10 Sc6 3.074217 1_454
Sc10 Sc2 3.233293 1_555
Sc10 Sc3 3.370711 1_454
Sc10 Sc9 3.483934 1_455
Sc10 Sc5 3.547747 1_555
Sc10 Sc8 3.547752 1_555
Sc11 Sc5 3.074204 1_555
Sc11 Sc8 3.074217 1_656
Sc11 Sc3 3.233293 1_555
Sc11 Sc2 3.370711 1_656
Sc11 Sc7 3.483934 1_655
Sc11 Sc4 3.547747 1_555
Sc11 Sc6 3.547752 1_555
Fe0 Fe1 2.176490 1_554
Fe0 Sc4 2.688160 1_555
Fe0 Sc10 2.688160 1_555
Fe0 Sc7 2.688161 1_544
Fe0 Sc6 2.688161 1_454
Fe0 Sc2 2.744189 1_555
Fe0 Sc0 2.744189 1_554
Fe0 Sc1 2.744189 1_555
Fe0 Sc3 2.744189 1_554
Fe1 Sc5 2.688160 1_555
Fe1 Sc11 2.688160 1_555
Fe1 Sc9 2.688161 1_566
Fe1 Sc8 2.688161 1_656
Fe1 Sc3 2.744189 1_555
Fe1 Sc1 2.744189 1_556
Fe1 Sc0 2.744189 1_555
Fe1 Sc2 2.744189 1_556
Ir0 Sc10 2.785646 1_555
Ir0 Sc11 2.785646 1_444
Ir0 Sc4 2.785647 1_555
Ir0 Sc5 2.785647 1_444
Ir0 Sc8 2.785653 1_545
Ir0 Sc6 2.785653 1_454
Ir0 Sc9 2.785653 1_455
Ir0 Sc7 2.785653 1_544
Pb0 Sc6 2.982854 1_555
Pb0 Sc8 2.982854 1_545
Pb0 Sc5 2.982855 1_545
Pb0 Sc4 2.982855 1_555
Pb0 Sc3 3.330276 1_555
Pb0 Sc2 3.330276 1_545
Pb0 Sc0 3.330276 1_555
Pb0 Sc1 3.330276 1_545
Pb0 Sc9 3.604155 1_555
Pb0 Sc7 3.604155 1_545
Pb0 Sc11 3.604161 1_555
Pb0 Sc10 3.604161 1_545
Pb1 Sc7 2.982854 1_555
Pb1 Sc9 2.982854 1_455
Pb1 Sc11 2.982855 1_455
Pb1 Sc10 2.982855 1_555
Pb1 Sc2 3.330276 1_556
Pb1 Sc3 3.330276 1_454
Pb1 Sc0 3.330276 1_555
Pb1 Sc1 3.330276 1_455
Pb1 Sc8 3.604155 1_555
Pb1 Sc6 3.604155 1_455
Pb1 Sc5 3.604161 1_555
Pb1 Sc4 3.604161 1_455
