# generated using pymatgen
data_Ba12Sc3InAs12
_symmetry_space_group_name_H-M   'P 1'
_cell_length_a   4.68910160
_cell_length_b   13.89383345
_cell_length_c   14.86673869
_cell_angle_alpha   90.24860229
_cell_angle_beta   90.00000000
_cell_angle_gamma   90.00000000
_symmetry_Int_Tables_number   1
_chemical_formula_structural   Ba12Sc3InAs12
_chemical_formula_sum   'Ba12 Sc3 In1 As12'
_cell_volume   968.55291138
_cell_formula_units_Z   1
loop_
 _symmetry_equiv_pos_site_id
 _symmetry_equiv_pos_as_xyz
  1  'x, y, z'
loop_
 _atom_site_type_symbol
 _atom_site_label
 _atom_site_symmetry_multiplicity
 _atom_site_fract_x
 _atom_site_fract_y
 _atom_site_fract_z
 _atom_site_occupancy
  Ba  Ba0  1  0.25000000  0.41685098  0.10181375  1
  Ba  Ba1  1  0.25000000  0.13942394  0.99848352  1
  Ba  Ba2  1  0.25000000  0.22666550  0.29723520  1
  Ba  Ba3  1  0.75000000  0.27825616  0.79590835  1
  Ba  Ba4  1  0.75000000  0.35878132  0.49918954  1
  Ba  Ba5  1  0.25000000  0.91875209  0.39797007  1
  Ba  Ba6  1  0.75000000  0.77253290  0.70455264  1
  Ba  Ba7  1  0.75000000  0.86615819  0.99540616  1
  Ba  Ba8  1  0.25000000  0.72647447  0.20047393  1
  Ba  Ba9  1  0.75000000  0.07953081  0.60577196  1
  Ba  Ba10  1  0.75000000  0.58230657  0.90106141  1
  Ba  Ba11  1  0.25000000  0.64129051  0.49975333  1
  Sc  Sc0  1  0.75000000  0.54920690  0.29541202  1
  Sc  Sc1  1  0.75000000  0.04908802  0.20570262  1
  Sc  Sc2  1  0.25000000  0.45264010  0.70478548  1
  In  In0  1  0.25000000  0.94511650  0.79468513  1
  As  As0  1  0.75000000  0.22379558  0.13148873  1
  As  As1  1  0.75000000  0.72577567  0.36754155  1
  As  As2  1  0.75000000  0.58504408  0.12190577  1
  As  As3  1  0.25000000  0.27625234  0.63184143  1
  As  As4  1  0.25000000  0.76745886  0.87224112  1
  As  As5  1  0.75000000  0.08786205  0.38007034  1
  As  As6  1  0.25000000  0.90856277  0.61680890  1
  As  As7  1  0.25000000  0.41493917  0.87928030  1
  As  As8  1  0.75000000  0.04246054  0.84731563  1
  As  As9  1  0.25000000  0.46411641  0.34651441  1
  As  As10  1  0.25000000  0.96451998  0.15325124  1
  As  As11  1  0.75000000  0.53613758  0.65353648  1
loop_
_geom_bond_atom_site_label_1
_geom_bond_atom_site_label_2
_geom_bond_distance
_geom_bond_site_symmetry_2
As0 Sc1 2.670696 1_555
As0 Ba1 3.280380 1_554
As0 Ba1 3.280380 1_654
As0 Ba2 3.401395 1_555
As0 Ba2 3.401395 1_655
As0 Ba0 3.591162 1_655
As0 Ba0 3.591162 1_555
As1 Sc0 2.673077 1_555
As1 Ba11 3.279972 1_555
As1 Ba11 3.279972 1_655
As1 Ba8 3.415588 1_555
As1 Ba8 3.415588 1_655
As1 Ba5 3.588840 1_555
As1 Ba5 3.588840 1_655
As2 Sc0 2.629209 1_555
As2 Ba8 3.271485 1_655
As2 Ba8 3.271485 1_555
As2 Ba10 3.283291 1_554
As2 Ba0 3.322791 1_555
As2 Ba0 3.322791 1_655
As3 Sc2 2.675610 1_555
As3 Ba4 3.274220 1_455
As3 Ba4 3.274220 1_555
As3 Ba3 3.383269 1_455
As3 Ba3 3.383269 1_555
As3 Ba9 3.620553 1_455
As3 Ba9 3.620553 1_555
As4 In0 2.728891 1_555
As4 Ba7 3.272371 1_455
As4 Ba7 3.272371 1_555
As4 Ba6 3.423210 1_555
As4 Ba6 3.423210 1_455
As4 Ba10 3.508232 1_555
As4 Ba10 3.508232 1_455
As5 Sc1 2.645376 1_555
As5 Ba2 3.279215 1_655
As5 Ba2 3.279215 1_555
As5 Ba5 3.330722 1_645
As5 Ba5 3.330722 1_545
As5 Ba9 3.357945 1_555
As6 In0 2.690602 1_555
As6 Ba5 3.257112 1_555
As6 Ba6 3.285110 1_455
As6 Ba6 3.285110 1_555
As6 Ba9 3.342118 1_465
As6 Ba9 3.342118 1_565
As7 Sc2 2.648751 1_555
As7 Ba3 3.258707 1_555
As7 Ba3 3.258707 1_455
As7 Ba0 3.308338 1_556
As7 Ba10 3.317018 1_555
As7 Ba10 3.317018 1_455
As8 In0 2.815877 1_645
As8 In0 2.815877 1_545
As8 Ba7 3.300617 1_545
As8 Ba3 3.367296 1_555
As8 Ba1 3.512302 1_555
As8 Ba1 3.512302 1_655
As8 Ba9 3.629926 1_555
As9 Sc0 2.734880 1_555
As9 Sc0 2.734880 1_455
As9 Ba11 3.346785 1_555
As9 Ba2 3.376365 1_555
As9 Ba4 3.580434 1_455
As9 Ba4 3.580434 1_555
As9 Ba0 3.693893 1_555
As10 Sc1 2.734518 1_565
As10 Sc1 2.734518 1_465
As10 Ba1 3.353795 1_564
As10 Ba8 3.384033 1_555
As10 Ba7 3.583779 1_554
As10 Ba7 3.583779 1_454
As10 Ba5 3.696041 1_555
As11 Sc2 2.725972 1_555
As11 Sc2 2.725972 1_655
As11 Ba4 3.359816 1_555
As11 Ba6 3.367662 1_555
As11 Ba11 3.589891 1_655
As11 Ba11 3.589891 1_555
As11 Ba10 3.732636 1_555
