# generated using pymatgen
data_Cs5AgSb2
_symmetry_space_group_name_H-M   'P 1'
_cell_length_a   10.82067478
_cell_length_b   10.82067502
_cell_length_c   10.82067474
_cell_angle_alpha   35.01920008
_cell_angle_beta   35.01919808
_cell_angle_gamma   35.01919213
_symmetry_Int_Tables_number   1
_chemical_formula_structural   Cs5AgSb2
_chemical_formula_sum   'Cs5 Ag1 Sb2'
_cell_volume   372.53646298
_cell_formula_units_Z   1
loop_
 _symmetry_equiv_pos_site_id
 _symmetry_equiv_pos_as_xyz
  1  'x, y, z'
loop_
 _atom_site_type_symbol
 _atom_site_label
 _atom_site_symmetry_multiplicity
 _atom_site_fract_x
 _atom_site_fract_y
 _atom_site_fract_z
 _atom_site_occupancy
  Cs  Cs0  1  0.50000000  0.50000000  0.50000000  1
  Cs  Cs1  1  0.36283868  0.36283868  0.36283868  1
  Cs  Cs2  1  0.63716132  0.63716132  0.63716132  1
  Cs  Cs3  1  0.21612672  0.21612672  0.21612672  1
  Cs  Cs4  1  0.78387328  0.78387328  0.78387328  1
  Ag  Ag0  1  0.00000000  0.00000000  0.00000000  1
  Sb  Sb0  1  0.08796352  0.08796352  0.08796352  1
  Sb  Sb1  1  0.91203648  0.91203648  0.91203648  1
loop_
_geom_bond_atom_site_label_1
_geom_bond_atom_site_label_2
_geom_bond_distance
_geom_bond_site_symmetry_2
Cs0 Cs3 4.049490 1_655
Cs0 Cs4 4.049490 1_455
Cs0 Cs3 4.049490 1_565
Cs0 Cs4 4.049490 1_545
Cs0 Cs3 4.049490 1_556
Cs0 Cs4 4.049490 1_554
Cs0 Cs2 4.175201 1_555
Cs0 Cs1 4.175201 1_555
Cs0 Sb1 4.457707 1_455
Cs0 Sb0 4.457707 1_655
Cs0 Sb1 4.457707 1_545
Cs0 Sb0 4.457707 1_565
Cs0 Sb1 4.457708 1_554
Cs0 Sb0 4.457708 1_556
Cs1 Sb0 4.159105 1_655
Cs1 Sb0 4.159105 1_565
Cs1 Sb0 4.159105 1_556
Cs2 Sb1 4.159105 1_455
Cs2 Sb1 4.159105 1_545
Cs2 Sb1 4.159105 1_554
Cs3 Sb1 3.863162 1_544
Cs3 Sb1 3.863162 1_454
Cs3 Sb1 3.863163 1_445
Cs3 Sb0 3.901298 1_555
Cs4 Sb0 3.863162 1_566
Cs4 Sb0 3.863162 1_656
Cs4 Sb0 3.863163 1_665
Cs4 Sb1 3.901298 1_555
Ag0 Sb0 2.677616 1_555
Ag0 Sb1 2.677616 1_444
Ag0 Cs1 3.865009 1_455
Ag0 Cs2 3.865009 1_544
Ag0 Cs1 3.865009 1_545
Ag0 Cs2 3.865009 1_454
Ag0 Cs1 3.865010 1_554
Ag0 Cs2 3.865010 1_445
