# generated using pymatgen
data_Rb2NaYSb2
_symmetry_space_group_name_H-M   'P 1'
_cell_length_a   11.29089395
_cell_length_b   11.29089411
_cell_length_c   7.45310006
_cell_angle_alpha   90.00000000
_cell_angle_beta   90.00000000
_cell_angle_gamma   98.09405086
_symmetry_Int_Tables_number   1
_chemical_formula_structural   Rb2NaYSb2
_chemical_formula_sum   'Rb8 Na4 Y4 Sb8'
_cell_volume   940.68799668
_cell_formula_units_Z   4
loop_
 _symmetry_equiv_pos_site_id
 _symmetry_equiv_pos_as_xyz
  1  'x, y, z'
loop_
 _atom_site_type_symbol
 _atom_site_label
 _atom_site_symmetry_multiplicity
 _atom_site_fract_x
 _atom_site_fract_y
 _atom_site_fract_z
 _atom_site_occupancy
  Rb  Rb0  1  0.06929194  0.43070806  0.25000000  1
  Rb  Rb1  1  0.43070806  0.06929194  0.75000000  1
  Rb  Rb2  1  0.93070806  0.56929194  0.75000000  1
  Rb  Rb3  1  0.56929194  0.93070806  0.25000000  1
  Rb  Rb4  1  0.67758908  0.32241092  0.21371834  1
  Rb  Rb5  1  0.82241092  0.17758908  0.71371834  1
  Rb  Rb6  1  0.32241092  0.67758908  0.78628166  1
  Rb  Rb7  1  0.17758908  0.82241092  0.28628166  1
  Na  Na0  1  0.38268675  0.38268675  0.00000000  1
  Na  Na1  1  0.11731325  0.11731325  0.50000000  1
  Na  Na2  1  0.61731325  0.61731325  0.00000000  1
  Na  Na3  1  0.88268675  0.88268675  0.50000000  1
  Y  Y0  1  0.13122344  0.13122344  0.00000000  1
  Y  Y1  1  0.36877656  0.36877656  0.50000000  1
  Y  Y2  1  0.86877656  0.86877656  0.00000000  1
  Y  Y3  1  0.63122344  0.63122344  0.50000000  1
  Sb  Sb0  1  0.84684750  0.65315150  0.25000000  1
  Sb  Sb1  1  0.65315150  0.84684750  0.75000000  1
  Sb  Sb2  1  0.15315150  0.34684750  0.75000000  1
  Sb  Sb3  1  0.34684750  0.15315150  0.25000000  1
  Sb  Sb4  1  0.89997262  0.10002738  0.21359304  1
  Sb  Sb5  1  0.60002738  0.39997262  0.71359304  1
  Sb  Sb6  1  0.10002738  0.89997262  0.78640696  1
  Sb  Sb7  1  0.39997262  0.60002738  0.28640696  1
loop_
_geom_bond_atom_site_label_1
_geom_bond_atom_site_label_2
_geom_bond_distance
_geom_bond_site_symmetry_2
Rb0 Sb0 3.793747 1_455
Rb0 Sb7 3.957124 1_555
Rb0 Sb4 3.957124 1_455
Rb0 Sb2 3.991579 1_554
Rb0 Sb2 3.991579 1_555
Rb1 Sb1 3.793747 1_545
Rb1 Sb6 3.957124 1_545
Rb1 Sb5 3.957124 1_555
Rb1 Sb3 3.991579 1_555
Rb1 Sb3 3.991579 1_556
Rb2 Sb2 3.793747 1_655
Rb2 Sb5 3.957124 1_555
Rb2 Sb6 3.957124 1_655
Rb2 Sb0 3.991579 1_555
Rb2 Sb0 3.991579 1_556
Rb3 Sb3 3.793747 1_565
Rb3 Sb4 3.957124 1_565
Rb3 Sb7 3.957124 1_555
Rb3 Sb1 3.991579 1_555
Rb3 Sb1 3.991579 1_554
Rb4 Sb4 3.792717 1_555
Rb4 Sb5 3.953482 1_555
Rb4 Sb5 3.955243 1_554
Rb4 Sb0 3.957412 1_555
Rb4 Sb3 3.957426 1_555
Rb5 Sb5 3.792717 1_555
Rb5 Sb4 3.953482 1_556
Rb5 Sb4 3.955243 1_555
Rb5 Sb2 3.957412 1_655
Rb5 Sb1 3.957426 1_545
Rb6 Sb6 3.792717 1_555
Rb6 Sb7 3.953482 1_555
Rb6 Sb7 3.955243 1_556
Rb6 Sb1 3.957412 1_555
Rb6 Sb2 3.957426 1_555
Rb7 Sb7 3.792717 1_555
Rb7 Sb6 3.953482 1_554
Rb7 Sb6 3.955243 1_555
Rb7 Sb3 3.957412 1_565
Rb7 Sb0 3.957426 1_455
Na0 Sb2 3.171264 1_554
Na0 Sb3 3.171264 1_555
Na0 Sb5 3.237560 1_554
Na0 Sb7 3.237560 1_555
Na1 Sb3 3.171254 1_555
Na1 Sb2 3.171254 1_555
Na1 Sb4 3.237560 1_455
Na1 Sb6 3.237560 1_545
Na2 Sb0 3.171254 1_555
Na2 Sb1 3.171254 1_554
Na2 Sb7 3.237560 1_555
Na2 Sb5 3.237560 1_554
Na3 Sb1 3.171264 1_555
Na3 Sb0 3.171264 1_555
Na3 Sb6 3.237560 1_655
Na3 Sb4 3.237560 1_565
Sb0 Y3 3.048044 1_555
Sb0 Y2 3.048053 1_555
Sb1 Y3 3.048044 1_555
Sb1 Y2 3.048053 1_556
Sb2 Y0 3.048044 1_556
Sb2 Y1 3.048053 1_555
Sb3 Y0 3.048044 1_555
Sb3 Y1 3.048053 1_555
Sb4 Y0 3.035918 1_655
Sb4 Y2 3.035918 1_545
Sb5 Y1 3.035918 1_555
Sb5 Y3 3.035918 1_555
Sb6 Y2 3.035918 1_456
Sb6 Y0 3.035918 1_566
Sb7 Y3 3.035918 1_555
Sb7 Y1 3.035918 1_555
