# generated using pymatgen
data_Ca19In7HgN7
_symmetry_space_group_name_H-M   'P 1'
_cell_length_a   10.36707558
_cell_length_b   10.36707598
_cell_length_c   10.40690588
_cell_angle_alpha   60.12652324
_cell_angle_beta   60.12652107
_cell_angle_gamma   59.99999950
_symmetry_Int_Tables_number   1
_chemical_formula_structural   Ca19In7HgN7
_chemical_formula_sum   'Ca19 In7 Hg1 N7'
_cell_volume   792.40474698
_cell_formula_units_Z   1
loop_
 _symmetry_equiv_pos_site_id
 _symmetry_equiv_pos_as_xyz
  1  'x, y, z'
loop_
 _atom_site_type_symbol
 _atom_site_label
 _atom_site_symmetry_multiplicity
 _atom_site_fract_x
 _atom_site_fract_y
 _atom_site_fract_z
 _atom_site_occupancy
  Ca  Ca0  1  0.17338041  0.49987774  0.82686311  1
  Ca  Ca1  1  0.49906527  0.82874048  0.17312898  1
  Ca  Ca2  1  0.82949093  0.17333816  0.49847465  1
  Ca  Ca3  1  0.16670578  0.83424532  0.16480357  1
  Ca  Ca4  1  0.82874048  0.49906527  0.17312898  1
  Ca  Ca5  1  0.17333816  0.82949093  0.49847465  1
  Ca  Ca6  1  0.16655467  0.16655467  0.83157948  1
  Ca  Ca7  1  0.17333816  0.49869526  0.49847465  1
  Ca  Ca8  1  0.83424532  0.83424532  0.16480357  1
  Ca  Ca9  1  0.83531019  0.16655467  0.83157948  1
  Ca  Ca10  1  0.49869526  0.82949093  0.49847465  1
  Ca  Ca11  1  0.50026700  0.50026700  0.49919799  1
  Ca  Ca12  1  0.49906527  0.49906527  0.17312898  1
  Ca  Ca13  1  0.16655467  0.83531019  0.83157948  1
  Ca  Ca14  1  0.49987774  0.17338041  0.82686311  1
  Ca  Ca15  1  0.49869526  0.17333816  0.49847465  1
  Ca  Ca16  1  0.82949093  0.49869526  0.49847465  1
  Ca  Ca17  1  0.83424532  0.16670578  0.16480357  1
  Ca  Ca18  1  0.49987774  0.49987774  0.82686311  1
  In  In0  1  0.82379136  0.52742486  0.82499442  1
  In  In1  1  0.47117664  0.17507661  0.17867013  1
  In  In2  1  0.17507661  0.47117664  0.17867013  1
  In  In3  1  0.52742486  0.82379136  0.82499442  1
  In  In4  1  0.17507661  0.17507661  0.17867013  1
  In  In5  1  0.82379136  0.82379136  0.82499442  1
  In  In6  1  0.82261210  0.82261210  0.53216369  1
  Hg  Hg0  1  0.17162846  0.17162846  0.48511461  1
  N  N0  1  0.67532380  0.32619375  0.67228770  1
  N  N1  1  0.67466286  0.32543446  0.32524082  1
  N  N2  1  0.32619375  0.67532380  0.67228770  1
  N  N3  1  0.32543446  0.67466286  0.32524082  1
  N  N4  1  0.32619375  0.32619375  0.67228770  1
  N  N5  1  0.67466286  0.67466286  0.32524082  1
  N  N6  1  0.00000994  0.00000994  0.99997118  1
loop_
_geom_bond_atom_site_label_1
_geom_bond_atom_site_label_2
_geom_bond_distance
_geom_bond_site_symmetry_2
Ca0 N2 2.415337 1_555
Ca0 N4 2.415338 1_555
Ca0 In0 3.499506 1_455
Ca0 In5 3.499520 1_455
Ca0 In4 3.530871 1_556
Ca0 In2 3.530876 1_556
Ca1 N3 2.411499 1_555
Ca1 N5 2.411506 1_555
Ca1 In4 3.482831 1_565
Ca1 In1 3.482831 1_565
Ca1 In3 3.510586 1_554
Ca1 In5 3.510594 1_554
Ca2 N0 2.404237 1_555
Ca2 N1 2.415116 1_555
Ca2 In4 3.469793 1_655
Ca2 Hg0 3.471156 1_655
Ca2 In6 3.508991 1_545
Ca2 In5 3.525548 1_545
Ca3 N3 2.344251 1_555
Ca3 N6 2.434951 1_564
Ca3 In3 3.647569 1_554
Ca3 In2 3.652465 1_555
Ca3 In4 3.652465 1_565
Ca3 In6 3.706882 1_455
Ca4 N1 2.411499 1_555
Ca4 N5 2.411506 1_555
Ca4 In2 3.482831 1_655
Ca4 In4 3.482831 1_655
Ca4 In0 3.510586 1_554
Ca4 In5 3.510595 1_554
Ca5 N2 2.404237 1_555
Ca5 N3 2.415116 1_555
Ca5 In4 3.469793 1_565
Ca5 Hg0 3.471156 1_565
Ca5 In6 3.508991 1_455
Ca5 In5 3.525548 1_455
Ca6 N4 2.344994 1_555
Ca6 N6 2.446630 1_555
Ca6 Hg0 3.554010 1_555
Ca6 In3 3.649820 1_545
Ca6 In0 3.649820 1_455
Ca6 In4 3.702266 1_556
Ca7 N4 2.404237 1_555
Ca7 N3 2.415131 1_555
Ca7 In2 3.469787 1_555
Ca7 Hg0 3.471146 1_555
Ca7 In6 3.508996 1_455
Ca7 In0 3.525550 1_455
Ca8 N5 2.344244 1_555
Ca8 N6 2.434958 1_664
Ca8 In5 3.647558 1_554
Ca8 In1 3.652465 1_565
Ca8 In2 3.652465 1_655
Ca8 In6 3.706882 1_555
Ca9 N0 2.344994 1_555
Ca9 N6 2.446645 1_655
Ca9 Hg0 3.554015 1_655
Ca9 In5 3.649804 1_545
Ca9 In0 3.649835 1_555
Ca9 In1 3.702261 1_556
Ca10 N2 2.404237 1_555
Ca10 N5 2.415117 1_555
Ca10 In1 3.469793 1_565
Ca10 Hg0 3.471151 1_565
Ca10 In6 3.509001 1_555
Ca10 In3 3.525566 1_555
Ca11 N4 2.557005 1_555
Ca11 N2 2.557005 1_555
Ca11 N0 2.557006 1_555
Ca11 N1 2.561744 1_555
Ca11 N3 2.561744 1_555
Ca11 N5 2.561759 1_555
Ca12 N3 2.411506 1_555
Ca12 N1 2.411506 1_555
Ca12 In2 3.482831 1_555
Ca12 In1 3.482831 1_555
Ca12 In0 3.510596 1_554
Ca12 In3 3.510596 1_554
Ca13 N2 2.344994 1_555
Ca13 N6 2.446645 1_565
Ca13 Hg0 3.554015 1_565
Ca13 In5 3.649804 1_455
Ca13 In3 3.649835 1_555
Ca13 In2 3.702261 1_556
Ca14 N0 2.415337 1_555
Ca14 N4 2.415338 1_555
Ca14 In3 3.499506 1_545
Ca14 In5 3.499520 1_545
Ca14 In4 3.530871 1_556
Ca14 In1 3.530876 1_556
Ca15 N4 2.404237 1_555
Ca15 N1 2.415131 1_555
Ca15 In1 3.469787 1_555
Ca15 Hg0 3.471146 1_555
Ca15 In6 3.508996 1_545
Ca15 In3 3.525550 1_545
Ca16 N0 2.404237 1_555
Ca16 N5 2.415118 1_555
Ca16 In2 3.469793 1_655
Ca16 Hg0 3.471151 1_655
Ca16 In6 3.509001 1_555
Ca16 In0 3.525566 1_555
Ca17 N1 2.344251 1_555
Ca17 N6 2.434951 1_654
Ca17 In0 3.647569 1_554
Ca17 In1 3.652465 1_555
Ca17 In4 3.652465 1_655
Ca17 In6 3.706882 1_545
Ca18 N0 2.415337 1_555
Ca18 N2 2.415338 1_555
Ca18 In0 3.499537 1_555
Ca18 In3 3.499537 1_555
Ca18 In2 3.530870 1_556
Ca18 In1 3.530871 1_556
In0 In6 3.059679 1_555
In0 In3 3.072454 1_555
In0 In5 3.072454 1_555
In1 In4 3.069691 1_555
In1 In2 3.069691 1_555
In2 In4 3.069691 1_555
In3 In6 3.059679 1_555
In3 In5 3.072454 1_555
In5 In6 3.059690 1_555
Hg0 In1 3.153935 1_555
Hg0 In2 3.153935 1_555
Hg0 In4 3.153935 1_555
