# generated using pymatgen
data_Sc4SBr6
_symmetry_space_group_name_H-M   'P 1'
_cell_length_a   3.84576201
_cell_length_b   12.36189543
_cell_length_c   12.92666964
_cell_angle_alpha   90.00000000
_cell_angle_beta   90.00000000
_cell_angle_gamma   90.00000000
_symmetry_Int_Tables_number   1
_chemical_formula_structural   Sc4SBr6
_chemical_formula_sum   'Sc8 S2 Br12'
_cell_volume   614.54560997
_cell_formula_units_Z   2
loop_
 _symmetry_equiv_pos_site_id
 _symmetry_equiv_pos_as_xyz
  1  'x, y, z'
loop_
 _atom_site_type_symbol
 _atom_site_label
 _atom_site_symmetry_multiplicity
 _atom_site_fract_x
 _atom_site_fract_y
 _atom_site_fract_z
 _atom_site_occupancy
  Sc  Sc0  1  0.00000000  0.10369327  0.07991674  1
  Sc  Sc1  1  0.00000000  0.89630673  0.92008326  1
  Sc  Sc2  1  0.00000000  0.60369327  0.42008326  1
  Sc  Sc3  1  0.00000000  0.39630673  0.57991674  1
  Sc  Sc4  1  0.50000000  0.12477084  0.85203559  1
  Sc  Sc5  1  0.50000000  0.87522916  0.14796441  1
  Sc  Sc6  1  0.50000000  0.62477084  0.64796441  1
  Sc  Sc7  1  0.50000000  0.37522916  0.35203559  1
  S  S0  1  0.50000000  0.00000000  0.00000000  1
  S  S1  1  0.50000000  0.50000000  0.50000000  1
  Br  Br0  1  0.50000000  0.26605910  0.67548110  1
  Br  Br1  1  0.50000000  0.73394090  0.32451890  1
  Br  Br2  1  0.50000000  0.76605910  0.82451890  1
  Br  Br3  1  0.50000000  0.23394090  0.17548110  1
  Br  Br4  1  0.00000000  0.25917736  0.92732442  1
  Br  Br5  1  0.00000000  0.74082264  0.07267558  1
  Br  Br6  1  0.00000000  0.48153117  0.24230597  1
  Br  Br7  1  0.00000000  0.51846883  0.75769403  1
  Br  Br8  1  0.00000000  0.98153117  0.25769403  1
  Br  Br9  1  0.00000000  0.01846883  0.74230597  1
  Br  Br10  1  0.00000000  0.24082264  0.42732442  1
  Br  Br11  1  0.00000000  0.75917736  0.57267558  1
loop_
_geom_bond_atom_site_label_1
_geom_bond_atom_site_label_2
_geom_bond_distance
_geom_bond_site_symmetry_2
S0 Sc5 2.457108 1_545
S0 Sc4 2.457108 1_554
S0 Sc0 2.531364 1_655
S0 Sc0 2.531364 1_555
S0 Sc1 2.531364 1_544
S0 Sc1 2.531364 1_644
S1 Sc7 2.457108 1_555
S1 Sc6 2.457108 1_555
S1 Sc3 2.531364 1_555
S1 Sc3 2.531364 1_655
S1 Sc2 2.531364 1_555
S1 Sc2 2.531364 1_655
Br0 Sc3 2.795703 1_655
Br0 Sc3 2.795703 1_555
Br0 Sc4 2.873899 1_555
Br1 Sc2 2.795703 1_555
Br1 Sc2 2.795703 1_655
Br1 Sc5 2.873899 1_555
Br2 Sc1 2.795703 1_555
Br2 Sc1 2.795703 1_655
Br2 Sc6 2.873899 1_555
Br3 Sc0 2.795703 1_655
Br3 Sc0 2.795703 1_555
Br3 Sc7 2.873899 1_555
Br4 Sc4 2.721268 1_455
Br4 Sc4 2.721268 1_555
Br4 Sc0 2.754121 1_556
Br5 Sc5 2.721268 1_555
Br5 Sc5 2.721268 1_455
Br5 Sc1 2.754121 1_554
Br6 Sc7 2.726955 1_455
Br6 Sc7 2.726955 1_555
Br6 Sc2 2.749852 1_555
Br7 Sc6 2.726955 1_555
Br7 Sc6 2.726955 1_455
Br7 Sc3 2.749852 1_555
Br8 Sc5 2.726955 1_555
Br8 Sc5 2.726955 1_455
Br8 Sc0 2.749852 1_565
Br9 Sc4 2.726955 1_555
Br9 Sc4 2.726955 1_455
Br9 Sc1 2.749852 1_545
Br10 Sc7 2.721268 1_455
Br10 Sc7 2.721268 1_555
Br10 Sc3 2.754121 1_555
Br11 Sc6 2.721268 1_555
Br11 Sc6 2.721268 1_455
Br11 Sc2 2.754121 1_555
