# generated using pymatgen
data_Zr8Hg4PtAu7
_symmetry_space_group_name_H-M   'P 1'
_cell_length_a   7.56002698
_cell_length_b   7.56002699
_cell_length_c   7.03724731
_cell_angle_alpha   90.09660358
_cell_angle_beta   90.09660530
_cell_angle_gamma   90.10400304
_symmetry_Int_Tables_number   1
_chemical_formula_structural   Zr8Hg4PtAu7
_chemical_formula_sum   'Zr8 Hg4 Pt1 Au7'
_cell_volume   402.20508098
_cell_formula_units_Z   1
loop_
 _symmetry_equiv_pos_site_id
 _symmetry_equiv_pos_as_xyz
  1  'x, y, z'
loop_
 _atom_site_type_symbol
 _atom_site_label
 _atom_site_symmetry_multiplicity
 _atom_site_fract_x
 _atom_site_fract_y
 _atom_site_fract_z
 _atom_site_occupancy
  Zr  Zr0  1  0.15164797  0.15164797  0.00594379  1
  Zr  Zr1  1  0.85517755  0.85517755  0.99827587  1
  Zr  Zr2  1  0.64048254  0.34940385  0.49480812  1
  Zr  Zr3  1  0.34940385  0.64048254  0.49480812  1
  Zr  Zr4  1  0.68625463  0.30779039  0.00372113  1
  Zr  Zr5  1  0.30779039  0.68625463  0.00372113  1
  Zr  Zr6  1  0.80772258  0.80772258  0.50024594  1
  Zr  Zr7  1  0.19620280  0.19620280  0.49509384  1
  Hg  Hg0  1  0.49936762  0.00117704  0.24907196  1
  Hg  Hg1  1  0.49960839  0.99909852  0.74716014  1
  Hg  Hg2  1  0.00117704  0.49936762  0.24907196  1
  Hg  Hg3  1  0.99909852  0.49960839  0.74716014  1
  Pt  Pt0  1  0.37144923  0.37144923  0.21404223  1
  Au  Au0  1  0.63034628  0.63034628  0.79013508  1
  Au  Au1  1  0.63257517  0.63257517  0.20642855  1
  Au  Au2  1  0.87033684  0.13163532  0.70977699  1
  Au  Au3  1  0.87002426  0.13011743  0.29291666  1
  Au  Au4  1  0.36957859  0.36957859  0.79492273  1
  Au  Au5  1  0.13011743  0.87002426  0.29291666  1
  Au  Au6  1  0.13163532  0.87033684  0.70977699  1
loop_
_geom_bond_atom_site_label_1
_geom_bond_atom_site_label_2
_geom_bond_distance
_geom_bond_site_symmetry_2
Hg0 Pt0 2.973758 1_555
Hg0 Zr4 3.218744 1_555
Hg0 Zr7 3.231303 1_555
Hg0 Zr6 3.271826 1_545
Hg0 Zr5 3.272963 1_545
Hg0 Zr2 3.320763 1_555
Hg0 Zr0 3.336779 1_555
Hg0 Zr1 3.404286 1_544
Hg0 Zr3 3.423872 1_545
Hg1 Zr6 3.248966 1_555
Hg1 Zr7 3.261273 1_565
Hg1 Zr4 3.265321 1_566
Hg1 Zr5 3.311679 1_556
Hg1 Zr2 3.363559 1_565
Hg1 Zr1 3.396137 1_555
Hg1 Zr0 3.403915 1_566
Hg1 Zr3 3.429179 1_555
Hg2 Pt0 2.973758 1_555
Hg2 Zr5 3.218744 1_555
Hg2 Zr7 3.231303 1_555
Hg2 Zr6 3.271826 1_455
Hg2 Zr4 3.272963 1_455
Hg2 Zr3 3.320763 1_555
Hg2 Zr0 3.336779 1_555
Hg2 Zr1 3.404286 1_454
Hg2 Zr2 3.423872 1_455
Hg3 Zr6 3.248965 1_555
Hg3 Zr7 3.261273 1_655
Hg3 Zr5 3.265321 1_656
Hg3 Zr4 3.311679 1_556
Hg3 Zr3 3.363559 1_655
Hg3 Zr1 3.396137 1_555
Hg3 Zr0 3.403915 1_656
Hg3 Zr2 3.429179 1_555
Pt0 Zr7 2.726474 1_555
Pt0 Zr0 2.764175 1_555
Pt0 Zr2 2.838516 1_555
Pt0 Zr3 2.838516 1_555
Pt0 Zr5 2.846048 1_555
Pt0 Zr4 2.846048 1_555
Au0 Au4 2.785749 1_555
Au0 Zr6 2.787474 1_555
Au0 Zr1 2.810044 1_555
Au0 Zr4 2.897969 1_556
Au0 Zr5 2.897969 1_556
Au0 Zr3 2.970267 1_555
Au0 Zr2 2.970267 1_555
Au0 Hg1 2.975214 1_555
Au0 Hg3 2.975214 1_555
Au1 Zr6 2.785138 1_555
Au1 Pt0 2.789933 1_555
Au1 Zr1 2.795750 1_554
Au1 Zr5 2.867447 1_555
Au1 Zr4 2.867447 1_555
Au1 Zr2 2.952912 1_555
Au1 Zr3 2.952912 1_555
Au1 Hg2 2.979591 1_655
Au1 Hg0 2.979591 1_565
Au2 Zr4 2.827779 1_556
Au2 Zr2 2.833459 1_555
Au2 Zr6 2.894153 1_545
Au2 Zr1 2.918466 1_545
Au2 Zr7 2.932661 1_655
Au2 Au3 2.933549 1_555
Au2 Hg3 2.956776 1_555
Au2 Zr0 2.978680 1_656
Au2 Hg1 2.986901 1_545
Au3 Au5 2.783307 1_645
Au3 Zr2 2.790900 1_555
Au3 Zr4 2.807604 1_555
Au3 Zr6 2.881188 1_545
Au3 Zr7 2.887202 1_655
Au3 Zr1 2.935311 1_544
Au3 Zr0 2.941465 1_655
Au3 Hg2 2.977398 1_655
Au3 Hg0 2.980563 1_555
Au4 Zr0 2.764202 1_556
Au4 Zr7 2.804120 1_555
Au4 Zr4 2.846641 1_556
Au4 Zr5 2.846641 1_556
Au4 Zr3 2.948361 1_555
Au4 Zr2 2.948361 1_555
Au4 Pt0 2.949468 1_556
Au4 Hg3 2.988638 1_455
Au4 Hg1 2.988638 1_545
Au5 Zr3 2.790900 1_555
Au5 Zr5 2.807604 1_555
Au5 Zr6 2.881188 1_455
Au5 Zr7 2.887202 1_565
Au5 Au6 2.933549 1_555
Au5 Zr1 2.935311 1_454
Au5 Zr0 2.941465 1_565
Au5 Hg0 2.977398 1_565
Au5 Hg2 2.980563 1_555
Au6 Zr5 2.827779 1_556
Au6 Zr3 2.833459 1_555
Au6 Zr6 2.894153 1_455
Au6 Zr1 2.918466 1_455
Au6 Zr7 2.932661 1_565
Au6 Hg1 2.956776 1_555
Au6 Zr0 2.978680 1_566
Au6 Hg3 2.986901 1_455
