# generated using pymatgen
data_RbTaSiS5
_symmetry_space_group_name_H-M   'P 1'
_cell_length_a   6.99491883
_cell_length_b   7.21205517
_cell_length_c   9.06137572
_cell_angle_alpha   68.38215752
_cell_angle_beta   78.53661729
_cell_angle_gamma   74.25999652
_symmetry_Int_Tables_number   1
_chemical_formula_structural   RbTaSiS5
_chemical_formula_sum   'Rb2 Ta2 Si2 S10'
_cell_volume   406.53604126
_cell_formula_units_Z   2
loop_
 _symmetry_equiv_pos_site_id
 _symmetry_equiv_pos_as_xyz
  1  'x, y, z'
loop_
 _atom_site_type_symbol
 _atom_site_label
 _atom_site_symmetry_multiplicity
 _atom_site_fract_x
 _atom_site_fract_y
 _atom_site_fract_z
 _atom_site_occupancy
  Rb  Rb0  1  0.58400945  0.35886420  0.31666859  1
  Rb  Rb1  1  0.41599055  0.64113580  0.68333141  1
  Ta  Ta0  1  0.23853460  0.02912215  0.00557571  1
  Ta  Ta1  1  0.76146540  0.97087785  0.99442429  1
  Si  Si0  1  0.98315496  0.69481100  0.37856860  1
  Si  Si1  1  0.01684504  0.30518900  0.62143140  1
  S  S0  1  0.07236850  0.75651761  0.99563161  1
  S  S1  1  0.43136345  0.22757093  0.03187616  1
  S  S2  1  0.70707812  0.86591435  0.29563974  1
  S  S3  1  0.22259467  0.84439914  0.29976667  1
  S  S4  1  0.05982982  0.39089687  0.36379280  1
  S  S5  1  0.94017018  0.60910313  0.63620720  1
  S  S6  1  0.77740533  0.15560086  0.70023333  1
  S  S7  1  0.29292188  0.13408565  0.70436026  1
  S  S8  1  0.56863655  0.77242907  0.96812384  1
  S  S9  1  0.92763150  0.24348239  0.00436839  1
loop_
_geom_bond_atom_site_label_1
_geom_bond_atom_site_label_2
_geom_bond_distance
_geom_bond_site_symmetry_2
Rb0 S8 3.450014 1_554
Rb0 S1 3.484324 1_555
Rb0 S2 3.491446 1_545
Rb0 S4 3.516849 1_655
Rb0 S9 3.524807 1_555
Rb0 S4 3.559552 1_555
Rb0 S6 3.619082 1_555
Rb0 S3 3.692201 1_555
Rb0 S7 3.723784 1_555
Rb0 S2 3.908890 1_555
Rb1 S1 3.450014 1_556
Rb1 S8 3.484324 1_555
Rb1 S7 3.491446 1_565
Rb1 S5 3.516849 1_455
Rb1 S0 3.524807 1_555
Rb1 S5 3.559552 1_555
Rb1 S3 3.619082 1_555
Rb1 S6 3.692201 1_555
Rb1 S2 3.723784 1_555
Rb1 S7 3.908890 1_555
S0 Ta1 2.300559 1_455
S0 Ta0 2.576117 1_566
S1 Ta0 2.313218 1_555
S1 Ta1 2.589655 1_544
S2 Si0 2.101757 1_555
S2 Ta1 2.527577 1_554
S3 Si0 2.101492 1_455
S3 Ta0 2.497856 1_565
S4 Si0 2.158625 1_455
S4 Si1 2.163607 1_555
S5 Si1 2.158625 1_655
S5 Si0 2.163607 1_555
S6 Si1 2.101492 1_655
S6 Ta1 2.497856 1_545
S7 Si1 2.101757 1_555
S7 Ta0 2.527577 1_556
S8 Ta1 2.313218 1_555
S8 Ta0 2.589655 1_566
S9 Ta0 2.300559 1_655
S9 Ta1 2.576117 1_544
