# generated using pymatgen
data_Rb2Na2RhO4
_symmetry_space_group_name_H-M   'P 1'
_cell_length_a   10.87432789
_cell_length_b   6.25053505
_cell_length_c   9.78710075
_cell_angle_alpha   64.51798839
_cell_angle_beta   90.00000000
_cell_angle_gamma   90.00000000
_symmetry_Int_Tables_number   1
_chemical_formula_structural   Rb2Na2RhO4
_chemical_formula_sum   'Rb8 Na8 Rh4 O16'
_cell_volume   600.51925333
_cell_formula_units_Z   4
loop_
 _symmetry_equiv_pos_site_id
 _symmetry_equiv_pos_as_xyz
  1  'x, y, z'
loop_
 _atom_site_type_symbol
 _atom_site_label
 _atom_site_symmetry_multiplicity
 _atom_site_fract_x
 _atom_site_fract_y
 _atom_site_fract_z
 _atom_site_occupancy
  Rb  Rb0  1  0.86723346  0.35057217  0.77114198  1
  Rb  Rb1  1  0.13410348  0.32514541  0.00564641  1
  Rb  Rb2  1  0.63410348  0.67485459  0.49435359  1
  Rb  Rb3  1  0.36589652  0.32514541  0.50564641  1
  Rb  Rb4  1  0.36723346  0.64942783  0.72885802  1
  Rb  Rb5  1  0.13276654  0.64942783  0.22885802  1
  Rb  Rb6  1  0.63276654  0.35057217  0.27114198  1
  Rb  Rb7  1  0.86589652  0.67485459  0.99435359  1
  Na  Na0  1  0.61029070  0.94096654  0.09176739  1
  Na  Na1  1  0.60900959  0.43653661  0.91072280  1
  Na  Na2  1  0.89099041  0.43653661  0.41072280  1
  Na  Na3  1  0.88970930  0.94096654  0.59176739  1
  Na  Na4  1  0.10900959  0.56346339  0.58927720  1
  Na  Na5  1  0.11029070  0.05903346  0.40823261  1
  Na  Na6  1  0.39099041  0.56346339  0.08927720  1
  Na  Na7  1  0.38970930  0.05903346  0.90823261  1
  Rh  Rh0  1  0.86658973  0.00870074  0.23687461  1
  Rh  Rh1  1  0.63341027  0.00870074  0.73687461  1
  Rh  Rh2  1  0.36658973  0.99129926  0.26312539  1
  Rh  Rh3  1  0.13341027  0.99129926  0.76312539  1
  O  O0  1  0.95392414  0.79165896  0.41451896  1
  O  O1  1  0.45174142  0.73053959  0.25503894  1
  O  O2  1  0.27821583  0.25474615  0.26296950  1
  O  O3  1  0.72846538  0.21505648  0.56712701  1
  O  O4  1  0.27153462  0.78494352  0.43287299  1
  O  O5  1  0.54607586  0.79165896  0.91451896  1
  O  O6  1  0.77821583  0.74525385  0.23703050  1
  O  O7  1  0.77153462  0.21505648  0.06712701  1
  O  O8  1  0.95174142  0.26946041  0.24496106  1
  O  O9  1  0.22846538  0.78494352  0.93287299  1
  O  O10  1  0.04607586  0.20834104  0.58548104  1
  O  O11  1  0.22178417  0.25474615  0.76296950  1
  O  O12  1  0.54825858  0.26946041  0.74496106  1
  O  O13  1  0.04825858  0.73053959  0.75503894  1
  O  O14  1  0.72178417  0.74525385  0.73703050  1
  O  O15  1  0.45392414  0.20834104  0.08548104  1
loop_
_geom_bond_atom_site_label_1
_geom_bond_atom_site_label_2
_geom_bond_distance
_geom_bond_site_symmetry_2
Na0 O6 2.314256 1_555
Na0 O1 2.333995 1_555
Na0 O15 2.366354 1_565
Na0 O7 2.390025 1_565
Na0 O5 2.400201 1_554
Na1 O14 2.301029 1_555
Na1 O5 2.338329 1_555
Na1 O7 2.357918 1_556
Na1 O12 2.369972 1_555
Na1 O15 2.388473 1_556
Na2 O6 2.301029 1_555
Na2 O0 2.338329 1_555
Na2 O3 2.357918 1_555
Na2 O8 2.369972 1_555
Na2 O10 2.388473 1_655
Na3 O14 2.314256 1_555
Na3 O13 2.333995 1_655
Na3 O10 2.366354 1_665
Na3 O3 2.390025 1_565
Na3 O0 2.400201 1_555
Na4 O11 2.301029 1_555
Na4 O10 2.338329 1_555
Na4 O4 2.357918 1_555
Na4 O13 2.369972 1_555
Na4 O0 2.388473 1_455
Na5 O2 2.314256 1_555
Na5 O8 2.333995 1_455
Na5 O0 2.366354 1_445
Na5 O4 2.390025 1_545
Na5 O10 2.400201 1_555
Na6 O2 2.301029 1_555
Na6 O15 2.338329 1_555
Na6 O9 2.357918 1_554
Na6 O1 2.369972 1_555
Na6 O5 2.388473 1_554
Na7 O11 2.314256 1_555
Na7 O12 2.333995 1_555
Na7 O5 2.366354 1_545
Na7 O9 2.390025 1_545
Na7 O15 2.400201 1_556
O0 Rh0 1.932785 1_565
O0 Rb5 3.043741 1_655
O1 Rh2 1.905572 1_555
O1 Rb3 2.821405 1_555
O1 Rb2 2.972896 1_555
O1 Rb6 3.036196 1_555
O2 Rh2 1.906028 1_545
O2 Rb3 2.764621 1_555
O2 Rb5 2.826728 1_555
O2 Rb1 2.835230 1_555
O3 Rh1 1.910063 1_555
O3 Rb2 2.838780 1_555
O3 Rb6 2.842670 1_555
O3 Rb0 2.904611 1_555
O4 Rh2 1.910063 1_555
O4 Rb3 2.838780 1_555
O4 Rb4 2.842670 1_555
O4 Rb5 2.904611 1_555
O5 Rh1 1.932785 1_565
O5 Rb4 3.043741 1_555
O6 Rh0 1.906028 1_565
O6 Rb7 2.764621 1_554
O6 Rb6 2.826728 1_555
O6 Rb2 2.835230 1_555
O7 Rh0 1.910063 1_555
O7 Rb7 2.838780 1_554
O7 Rb0 2.842670 1_554
O7 Rb6 2.904611 1_555
O8 Rh0 1.905572 1_555
O8 Rb7 2.821405 1_554
O8 Rb1 2.972896 1_655
O8 Rb5 3.036196 1_655
O9 Rh3 1.910063 1_555
O9 Rb1 2.838780 1_556
O9 Rb5 2.842670 1_556
O9 Rb4 2.904611 1_555
O10 Rh3 1.932785 1_545
O10 Rb0 3.043741 1_455
O11 Rh3 1.906028 1_545
O11 Rb1 2.764621 1_556
O11 Rb4 2.826728 1_555
O11 Rb3 2.835230 1_555
O12 Rh1 1.905572 1_555
O12 Rb2 2.821405 1_555
O12 Rb3 2.972896 1_555
O12 Rb4 3.036196 1_555
O13 Rh3 1.905572 1_555
O13 Rb1 2.821405 1_556
O13 Rb7 2.972896 1_455
O13 Rb0 3.036196 1_455
O14 Rh1 1.906028 1_565
O14 Rb2 2.764621 1_555
O14 Rb0 2.826728 1_555
O14 Rb7 2.835230 1_555
O15 Rh2 1.932785 1_545
O15 Rb6 3.043741 1_555
