# generated using pymatgen
data_K3Sr3AlAs4
_symmetry_space_group_name_H-M   'P 1'
_cell_length_a   10.18262885
_cell_length_b   10.18262913
_cell_length_c   7.61529540
_cell_angle_alpha   90.00000000
_cell_angle_beta   90.00000000
_cell_angle_gamma   119.99999909
_symmetry_Int_Tables_number   1
_chemical_formula_structural   K3Sr3AlAs4
_chemical_formula_sum   'K6 Sr6 Al2 As8'
_cell_volume   683.81280769
_cell_formula_units_Z   2
loop_
 _symmetry_equiv_pos_site_id
 _symmetry_equiv_pos_as_xyz
  1  'x, y, z'
loop_
 _atom_site_type_symbol
 _atom_site_label
 _atom_site_symmetry_multiplicity
 _atom_site_fract_x
 _atom_site_fract_y
 _atom_site_fract_z
 _atom_site_occupancy
  K  K0  1  0.72891723  0.86445862  0.17631981  1
  K  K1  1  0.86445862  0.13554138  0.67631981  1
  K  K2  1  0.86445862  0.72891723  0.67631981  1
  K  K3  1  0.13554138  0.27108277  0.17631981  1
  K  K4  1  0.13554138  0.86445862  0.17631981  1
  K  K5  1  0.27108277  0.13554138  0.67631981  1
  Sr  Sr0  1  0.05209601  0.52604901  0.49719801  1
  Sr  Sr1  1  0.47395099  0.94790399  0.49719801  1
  Sr  Sr2  1  0.47395099  0.52604901  0.49719801  1
  Sr  Sr3  1  0.52604901  0.47395099  0.99719801  1
  Sr  Sr4  1  0.52604901  0.05209601  0.99719801  1
  Sr  Sr5  1  0.94790399  0.47395099  0.99719801  1
  Al  Al0  1  0.33333300  0.66666700  0.87866624  1
  Al  Al1  1  0.66666700  0.33333300  0.37866624  1
  As  As0  1  0.66666700  0.33333300  0.71544782  1
  As  As1  1  0.59988576  0.79994338  0.77151049  1
  As  As2  1  0.79994338  0.20005662  0.27151049  1
  As  As3  1  0.79994338  0.59988576  0.27151049  1
  As  As4  1  0.33333300  0.66666700  0.21544782  1
  As  As5  1  0.20005662  0.40011424  0.77151049  1
  As  As6  1  0.20005662  0.79994338  0.77151049  1
  As  As7  1  0.40011424  0.20005662  0.27151049  1
loop_
_geom_bond_atom_site_label_1
_geom_bond_atom_site_label_2
_geom_bond_distance
_geom_bond_site_symmetry_2
Al0 As1 2.488189 1_555
Al0 As6 2.488189 1_555
Al0 As5 2.488189 1_555
Al0 As4 2.564691 1_556
Al1 As7 2.488189 1_555
Al1 As2 2.488189 1_555
Al1 As3 2.488189 1_555
Al1 As0 2.564691 1_555
As0 Sr3 3.279378 1_555
As0 Sr5 3.279385 1_555
As0 Sr4 3.279385 1_555
As0 K1 3.501120 1_555
As0 K5 3.501129 1_555
As0 K2 3.501129 1_555
As1 Sr2 3.195327 1_555
As1 Sr1 3.195334 1_555
As1 K1 3.202316 1_565
As1 K2 3.202322 1_555
As1 K0 3.286033 1_556
As1 Sr4 3.470162 1_565
As1 Sr3 3.470188 1_555
As2 Sr4 3.195328 1_554
As2 Sr5 3.195328 1_554
As2 K3 3.202312 1_655
As2 K0 3.202313 1_545
As2 K1 3.286030 1_555
As2 Sr1 3.470180 1_545
As2 Sr0 3.470180 1_655
As3 Sr3 3.195327 1_554
As3 Sr5 3.195334 1_554
As3 K4 3.202316 1_655
As3 K0 3.202322 1_555
As3 K2 3.286033 1_555
As3 Sr0 3.470162 1_655
As3 Sr2 3.470187 1_555
As4 Sr2 3.279378 1_555
As4 Sr0 3.279385 1_555
As4 Sr1 3.279385 1_555
As4 K4 3.501120 1_555
As4 K0 3.501129 1_555
As4 K3 3.501129 1_555
As5 Sr2 3.195327 1_555
As5 Sr0 3.195334 1_555
As5 K1 3.202316 1_455
As5 K5 3.202322 1_555
As5 K3 3.286033 1_556
As5 Sr5 3.470162 1_455
As5 Sr3 3.470187 1_555
As6 Sr1 3.195328 1_555
As6 Sr0 3.195328 1_555
As6 K2 3.202312 1_455
As6 K5 3.202313 1_565
As6 K4 3.286030 1_556
As6 Sr4 3.470180 1_565
As6 Sr5 3.470180 1_455
As7 Sr3 3.195327 1_554
As7 Sr4 3.195334 1_554
As7 K4 3.202316 1_545
As7 K3 3.202322 1_555
As7 K5 3.286033 1_555
As7 Sr1 3.470162 1_545
As7 Sr2 3.470188 1_555
