# generated using pymatgen
data_Hf2Zr(TiTc)2
_symmetry_space_group_name_H-M   'P 1'
_cell_length_a   7.24176835
_cell_length_b   7.24176826
_cell_length_c   7.24176768
_cell_angle_alpha   37.48649227
_cell_angle_beta   37.48649336
_cell_angle_gamma   37.48648784
_symmetry_Int_Tables_number   1
_chemical_formula_structural   Hf2Zr(TiTc)2
_chemical_formula_sum   'Hf2 Zr1 Ti2 Tc2'
_cell_volume   126.14156344
_cell_formula_units_Z   1
loop_
 _symmetry_equiv_pos_site_id
 _symmetry_equiv_pos_as_xyz
  1  'x, y, z'
loop_
 _atom_site_type_symbol
 _atom_site_label
 _atom_site_symmetry_multiplicity
 _atom_site_fract_x
 _atom_site_fract_y
 _atom_site_fract_z
 _atom_site_occupancy
  Hf  Hf0  1  0.19143227  0.19143227  0.19143227  1
  Hf  Hf1  1  0.76849419  0.76849419  0.76849419  1
  Zr  Zr0  1  0.34396314  0.34396314  0.34396314  1
  Ti  Ti0  1  0.60833499  0.60833499  0.60833499  1
  Ti  Ti1  1  0.92631929  0.92631929  0.92631929  1
  Tc  Tc0  1  0.05223235  0.05223235  0.05223235  1
  Tc  Tc1  1  0.48422176  0.48422176  0.48422176  1
loop_
_geom_bond_atom_site_label_1
_geom_bond_atom_site_label_2
_geom_bond_distance
_geom_bond_site_symmetry_2
Hf0 Tc0 2.808290 1_555
Hf0 Tc1 2.808707 1_545
Hf0 Tc1 2.808707 1_554
Hf0 Tc1 2.808707 1_455
Hf1 Tc1 2.863469 1_565
Hf1 Tc1 2.863469 1_556
Hf1 Tc1 2.863469 1_655
Hf1 Tc0 2.867213 1_656
Hf1 Tc0 2.867213 1_665
Hf1 Tc0 2.867213 1_566
Tc0 Ti1 2.540234 1_444
Tc0 Zr0 2.815002 1_545
Tc0 Zr0 2.815002 1_554
Tc0 Zr0 2.815002 1_455
Tc1 Ti0 2.503923 1_555
Tc1 Zr0 2.829648 1_555
