# generated using pymatgen
data_TiGaNi
_symmetry_space_group_name_H-M   'P 1'
_cell_length_a   13.52233408
_cell_length_b   13.52233024
_cell_length_c   6.19077214
_cell_angle_alpha   90.00000000
_cell_angle_beta   90.00000000
_cell_angle_gamma   119.99999943
_symmetry_Int_Tables_number   1
_chemical_formula_structural   TiGaNi
_chemical_formula_sum   'Ti24 Ga24 Ni24'
_cell_volume   980.34435599
_cell_formula_units_Z   24
loop_
 _symmetry_equiv_pos_site_id
 _symmetry_equiv_pos_as_xyz
  1  'x, y, z'
loop_
 _atom_site_type_symbol
 _atom_site_label
 _atom_site_symmetry_multiplicity
 _atom_site_fract_x
 _atom_site_fract_y
 _atom_site_fract_z
 _atom_site_occupancy
  Ti  Ti0_0  1  0.00000000  0.30397419  0.25000000  1
  Ti  Ti0_1  1  0.00000000  0.30397419  0.75000000  1
  Ti  Ti0_2  1  0.00000000  0.80397419  0.25000000  1
  Ti  Ti0_3  1  0.00000000  0.80397419  0.75000000  1
  Ti  Ti0_4  1  0.50000000  0.30397419  0.25000000  1
  Ti  Ti0_5  1  0.50000000  0.30397419  0.75000000  1
  Ti  Ti0_6  1  0.50000000  0.80397419  0.25000000  1
  Ti  Ti0_7  1  0.50000000  0.80397419  0.75000000  1
  Ti  Ti1_0  1  0.19602581  0.19602581  0.25000000  1
  Ti  Ti1_1  1  0.19602581  0.19602581  0.75000000  1
  Ti  Ti1_2  1  0.19602581  0.69602581  0.25000000  1
  Ti  Ti1_3  1  0.19602581  0.69602581  0.75000000  1
  Ti  Ti1_4  1  0.69602581  0.19602581  0.25000000  1
  Ti  Ti1_5  1  0.69602581  0.19602581  0.75000000  1
  Ti  Ti1_6  1  0.69602581  0.69602581  0.25000000  1
  Ti  Ti1_7  1  0.69602581  0.69602581  0.75000000  1
  Ti  Ti2_0  1  0.30397419  0.00000000  0.25000000  1
  Ti  Ti2_1  1  0.30397419  0.00000000  0.75000000  1
  Ti  Ti2_2  1  0.30397419  0.50000000  0.25000000  1
  Ti  Ti2_3  1  0.30397419  0.50000000  0.75000000  1
  Ti  Ti2_4  1  0.80397419  0.00000000  0.25000000  1
  Ti  Ti2_5  1  0.80397419  0.00000000  0.75000000  1
  Ti  Ti2_6  1  0.80397419  0.50000000  0.25000000  1
  Ti  Ti2_7  1  0.80397419  0.50000000  0.75000000  1
  Ga  Ga0_0  1  0.00000000  0.13686931  0.00000000  1
  Ga  Ga0_1  1  0.00000000  0.13686931  0.50000000  1
  Ga  Ga0_2  1  0.00000000  0.63686931  0.00000000  1
  Ga  Ga0_3  1  0.00000000  0.63686931  0.50000000  1
  Ga  Ga0_4  1  0.50000000  0.13686931  0.00000000  1
  Ga  Ga0_5  1  0.50000000  0.13686931  0.50000000  1
  Ga  Ga0_6  1  0.50000000  0.63686931  0.00000000  1
  Ga  Ga0_7  1  0.50000000  0.63686931  0.50000000  1
  Ga  Ga1_0  1  0.36313069  0.36313069  0.00000000  1
  Ga  Ga1_1  1  0.36313069  0.36313069  0.50000000  1
  Ga  Ga1_2  1  0.36313069  0.86313069  0.00000000  1
  Ga  Ga1_3  1  0.36313069  0.86313069  0.50000000  1
  Ga  Ga1_4  1  0.86313069  0.36313069  0.00000000  1
  Ga  Ga1_5  1  0.86313069  0.36313069  0.50000000  1
  Ga  Ga1_6  1  0.86313069  0.86313069  0.00000000  1
  Ga  Ga1_7  1  0.86313069  0.86313069  0.50000000  1
  Ga  Ga2_0  1  0.13686931  0.00000000  0.00000000  1
  Ga  Ga2_1  1  0.13686931  0.00000000  0.50000000  1
  Ga  Ga2_2  1  0.13686931  0.50000000  0.00000000  1
  Ga  Ga2_3  1  0.13686931  0.50000000  0.50000000  1
  Ga  Ga2_4  1  0.63686931  0.00000000  0.00000000  1
  Ga  Ga2_5  1  0.63686931  0.00000000  0.50000000  1
  Ga  Ga2_6  1  0.63686931  0.50000000  0.00000000  1
  Ga  Ga2_7  1  0.63686931  0.50000000  0.50000000  1
  Ni  Ni0_0  1  0.00000000  0.00000000  0.25000000  1
  Ni  Ni0_1  1  0.00000000  0.00000000  0.75000000  1
  Ni  Ni0_2  1  0.00000000  0.50000000  0.25000000  1
  Ni  Ni0_3  1  0.00000000  0.50000000  0.75000000  1
  Ni  Ni0_4  1  0.50000000  0.00000000  0.25000000  1
  Ni  Ni0_5  1  0.50000000  0.00000000  0.75000000  1
  Ni  Ni0_6  1  0.50000000  0.50000000  0.25000000  1
  Ni  Ni0_7  1  0.50000000  0.50000000  0.75000000  1
  Ni  Ni1_0  1  0.16666650  0.33333350  0.00000000  1
  Ni  Ni1_1  1  0.16666650  0.33333350  0.50000000  1
  Ni  Ni1_2  1  0.16666650  0.83333350  0.00000000  1
  Ni  Ni1_3  1  0.16666650  0.83333350  0.50000000  1
  Ni  Ni1_4  1  0.66666650  0.33333350  0.00000000  1
  Ni  Ni1_5  1  0.66666650  0.33333350  0.50000000  1
  Ni  Ni1_6  1  0.66666650  0.83333350  0.00000000  1
  Ni  Ni1_7  1  0.66666650  0.83333350  0.50000000  1
  Ni  Ni2_0  1  0.33333350  0.16666650  0.00000000  1
  Ni  Ni2_1  1  0.33333350  0.16666650  0.50000000  1
  Ni  Ni2_2  1  0.33333350  0.66666650  0.00000000  1
  Ni  Ni2_3  1  0.33333350  0.66666650  0.50000000  1
  Ni  Ni2_4  1  0.83333350  0.16666650  0.00000000  1
  Ni  Ni2_5  1  0.83333350  0.16666650  0.50000000  1
  Ni  Ni2_6  1  0.83333350  0.66666650  0.00000000  1
  Ni  Ni2_7  1  0.83333350  0.66666650  0.50000000  1
loop_
_geom_bond_atom_site_label_1
_geom_bond_atom_site_label_2
_geom_bond_distance
_geom_bond_site_symmetry_2
Ti0_0 Ti0_1 3.095386 1_554
Ti0_0 Ti0_1 3.095386 1_555
Ti0_2 Ti0_3 3.095386 1_555
Ti0_2 Ti0_3 3.095386 1_554
Ti0_4 Ti0_5 3.095386 1_555
Ti0_4 Ti0_5 3.095386 1_554
Ti0_6 Ti0_7 3.095386 1_554
Ti0_6 Ti0_7 3.095386 1_555
Ti1_0 Ti1_1 3.095386 1_554
Ti1_0 Ti1_1 3.095386 1_555
Ti1_2 Ti1_3 3.095386 1_554
Ti1_2 Ti1_3 3.095386 1_555
Ti1_4 Ti1_5 3.095386 1_554
Ti1_4 Ti1_5 3.095386 1_555
Ti1_6 Ti1_7 3.095386 1_555
Ti1_6 Ti1_7 3.095386 1_554
Ti2_0 Ti2_1 3.095386 1_555
Ti2_0 Ti2_1 3.095386 1_554
Ti2_2 Ti2_3 3.095386 1_554
Ti2_2 Ti2_3 3.095386 1_555
Ti2_4 Ti2_5 3.095386 1_555
Ti2_4 Ti2_5 3.095386 1_554
Ti2_6 Ti2_7 3.095386 1_555
Ti2_6 Ti2_7 3.095386 1_554
Ga0_0 Ni0_0 2.412630 1_555
Ga0_0 Ni0_1 2.412630 1_554
Ga0_0 Ni2_4 2.479857 1_455
Ga0_0 Ni1_0 2.479861 1_555
Ga0_0 Ti0_1 2.738861 1_554
Ga0_0 Ti0_0 2.738861 1_555
Ga0_0 Ti2_4 2.818012 1_455
Ga0_0 Ti2_5 2.818012 1_454
Ga0_0 Ti1_0 2.818012 1_555
Ga0_0 Ti1_1 2.818012 1_554
Ga0_1 Ni0_0 2.412630 1_555
Ga0_1 Ni0_1 2.412630 1_555
Ga0_1 Ni2_5 2.479857 1_455
Ga0_1 Ni1_1 2.479861 1_555
Ga0_1 Ti0_0 2.738861 1_555
Ga0_1 Ti0_1 2.738861 1_555
Ga0_1 Ti2_4 2.818012 1_455
Ga0_1 Ti2_5 2.818012 1_455
Ga0_1 Ti1_0 2.818012 1_555
Ga0_1 Ti1_1 2.818012 1_555
Ga0_2 Ni0_2 2.412630 1_555
Ga0_2 Ni0_3 2.412630 1_554
Ga0_2 Ni2_6 2.479857 1_455
Ga0_2 Ni1_2 2.479861 1_555
Ga0_2 Ti0_3 2.738861 1_554
Ga0_2 Ti0_2 2.738861 1_555
Ga0_2 Ti2_7 2.818012 1_454
Ga0_2 Ti2_6 2.818012 1_455
Ga0_2 Ti1_2 2.818012 1_555
Ga0_2 Ti1_3 2.818012 1_554
Ga0_3 Ni0_3 2.412630 1_555
Ga0_3 Ni0_2 2.412630 1_555
Ga0_3 Ni2_7 2.479857 1_455
Ga0_3 Ni1_3 2.479861 1_555
Ga0_3 Ti0_3 2.738861 1_555
Ga0_3 Ti0_2 2.738861 1_555
Ga0_3 Ti2_7 2.818012 1_455
Ga0_3 Ti2_6 2.818012 1_455
Ga0_3 Ti1_2 2.818012 1_555
Ga0_3 Ti1_3 2.818012 1_555
Ga0_4 Ni0_5 2.412630 1_554
Ga0_4 Ni0_4 2.412630 1_555
Ga0_4 Ni2_0 2.479857 1_555
Ga0_4 Ni1_4 2.479861 1_555
Ga0_4 Ti0_4 2.738861 1_555
Ga0_4 Ti0_5 2.738861 1_554
Ga0_4 Ti2_0 2.818012 1_555
Ga0_4 Ti2_1 2.818012 1_554
Ga0_4 Ti1_5 2.818012 1_554
Ga0_4 Ti1_4 2.818012 1_555
Ga0_5 Ni0_4 2.412630 1_555
Ga0_5 Ni0_5 2.412630 1_555
Ga0_5 Ni2_1 2.479857 1_555
Ga0_5 Ni1_5 2.479861 1_555
Ga0_5 Ti0_4 2.738861 1_555
Ga0_5 Ti0_5 2.738861 1_555
Ga0_5 Ti2_0 2.818012 1_555
Ga0_5 Ti2_1 2.818012 1_555
Ga0_5 Ti1_5 2.818012 1_555
Ga0_5 Ti1_4 2.818012 1_555
Ga0_6 Ni0_6 2.412630 1_555
Ga0_6 Ni0_7 2.412630 1_554
Ga0_6 Ni2_2 2.479857 1_555
Ga0_6 Ni1_6 2.479861 1_555
Ga0_6 Ti0_6 2.738861 1_555
Ga0_6 Ti0_7 2.738861 1_554
Ga0_6 Ti2_3 2.818012 1_554
Ga0_6 Ti2_2 2.818012 1_555
Ga0_6 Ti1_7 2.818012 1_554
Ga0_6 Ti1_6 2.818012 1_555
Ga0_7 Ni0_6 2.412630 1_555
Ga0_7 Ni0_7 2.412630 1_555
Ga0_7 Ni2_3 2.479857 1_555
Ga0_7 Ni1_7 2.479861 1_555
Ga0_7 Ti0_6 2.738861 1_555
Ga0_7 Ti0_7 2.738861 1_555
Ga0_7 Ti2_2 2.818012 1_555
Ga0_7 Ti2_3 2.818012 1_555
Ga0_7 Ti1_6 2.818012 1_555
Ga0_7 Ti1_7 2.818012 1_555
Ga1_0 Ni0_7 2.412630 1_554
Ga1_0 Ni0_6 2.412630 1_555
Ga1_0 Ni2_0 2.479863 1_555
Ga1_0 Ni1_0 2.479864 1_555
Ga1_0 Ti1_0 2.738861 1_555
Ga1_0 Ti1_1 2.738861 1_554
Ga1_0 Ti2_3 2.818012 1_554
Ga1_0 Ti2_2 2.818012 1_555
Ga1_0 Ti0_4 2.818012 1_555
Ga1_0 Ti0_5 2.818012 1_554
Ga1_1 Ni0_7 2.412630 1_555
Ga1_1 Ni0_6 2.412630 1_555
Ga1_1 Ni2_1 2.479863 1_555
Ga1_1 Ni1_1 2.479864 1_555
Ga1_1 Ti1_0 2.738861 1_555
Ga1_1 Ti1_1 2.738861 1_555
Ga1_1 Ti2_2 2.818012 1_555
Ga1_1 Ti2_3 2.818012 1_555
Ga1_1 Ti0_4 2.818012 1_555
Ga1_1 Ti0_5 2.818012 1_555
Ga1_2 Ni0_4 2.412630 1_565
Ga1_2 Ni0_5 2.412630 1_564
Ga1_2 Ni2_2 2.479863 1_555
Ga1_2 Ni1_2 2.479864 1_555
Ga1_2 Ti1_3 2.738861 1_554
Ga1_2 Ti1_2 2.738861 1_555
Ga1_2 Ti2_0 2.818012 1_565
Ga1_2 Ti2_1 2.818012 1_564
Ga1_2 Ti0_7 2.818012 1_554
Ga1_2 Ti0_6 2.818012 1_555
Ga1_3 Ni0_4 2.412630 1_565
Ga1_3 Ni0_5 2.412630 1_565
Ga1_3 Ni2_3 2.479863 1_555
Ga1_3 Ni1_3 2.479864 1_555
Ga1_3 Ti1_2 2.738861 1_555
Ga1_3 Ti1_3 2.738861 1_555
Ga1_3 Ti2_0 2.818012 1_565
Ga1_3 Ti2_1 2.818012 1_565
Ga1_3 Ti0_7 2.818012 1_555
Ga1_3 Ti0_6 2.818012 1_555
Ga1_4 Ni0_3 2.412630 1_654
Ga1_4 Ni0_2 2.412630 1_655
Ga1_4 Ni2_4 2.479863 1_555
Ga1_4 Ni1_4 2.479864 1_555
Ga1_4 Ti1_4 2.738861 1_555
Ga1_4 Ti1_5 2.738861 1_554
Ga1_4 Ti2_7 2.818012 1_554
Ga1_4 Ti2_6 2.818012 1_555
Ga1_4 Ti0_0 2.818012 1_655
Ga1_4 Ti0_1 2.818012 1_654
Ga1_5 Ni0_3 2.412630 1_655
Ga1_5 Ni0_2 2.412630 1_655
Ga1_5 Ni2_5 2.479863 1_555
Ga1_5 Ni1_5 2.479864 1_555
Ga1_5 Ti1_5 2.738861 1_555
Ga1_5 Ti1_4 2.738861 1_555
Ga1_5 Ti2_7 2.818012 1_555
Ga1_5 Ti2_6 2.818012 1_555
Ga1_5 Ti0_0 2.818012 1_655
Ga1_5 Ti0_1 2.818012 1_655
Ga1_6 Ni0_0 2.412630 1_665
Ga1_6 Ni0_1 2.412630 1_664
Ga1_6 Ni2_6 2.479863 1_555
Ga1_6 Ni1_6 2.479864 1_555
Ga1_6 Ti1_6 2.738861 1_555
Ga1_6 Ti1_7 2.738861 1_554
Ga1_6 Ti2_5 2.818012 1_564
Ga1_6 Ti2_4 2.818012 1_565
Ga1_6 Ti0_3 2.818012 1_654
Ga1_6 Ti0_2 2.818012 1_655
Ga1_7 Ni0_0 2.412630 1_665
Ga1_7 Ni0_1 2.412630 1_665
Ga1_7 Ni2_7 2.479863 1_555
Ga1_7 Ni1_7 2.479864 1_555
Ga1_7 Ti1_6 2.738861 1_555
Ga1_7 Ti1_7 2.738861 1_555
Ga1_7 Ti2_5 2.818012 1_565
Ga1_7 Ti2_4 2.818012 1_565
Ga1_7 Ti0_2 2.818012 1_655
Ga1_7 Ti0_3 2.818012 1_655
Ga2_0 Ni0_1 2.412631 1_554
Ga2_0 Ni0_0 2.412631 1_555
Ga2_0 Ni1_2 2.479856 1_545
Ga2_0 Ni2_0 2.479861 1_555
Ga2_0 Ti2_0 2.738862 1_555
Ga2_0 Ti2_1 2.738862 1_554
Ga2_0 Ti1_0 2.818012 1_555
Ga2_0 Ti1_1 2.818012 1_554
Ga2_0 Ti0_2 2.818012 1_545
Ga2_0 Ti0_3 2.818012 1_544
Ga2_1 Ni0_1 2.412631 1_555
Ga2_1 Ni0_0 2.412631 1_555
Ga2_1 Ni1_3 2.479856 1_545
Ga2_1 Ni2_1 2.479861 1_555
Ga2_1 Ti2_0 2.738862 1_555
Ga2_1 Ti2_1 2.738862 1_555
Ga2_1 Ti1_0 2.818012 1_555
Ga2_1 Ti1_1 2.818012 1_555
Ga2_1 Ti0_2 2.818012 1_545
Ga2_1 Ti0_3 2.818012 1_545
Ga2_2 Ni0_3 2.412631 1_554
Ga2_2 Ni0_2 2.412631 1_555
Ga2_2 Ni1_0 2.479856 1_555
Ga2_2 Ni2_2 2.479861 1_555
Ga2_2 Ti2_2 2.738862 1_555
Ga2_2 Ti2_3 2.738862 1_554
Ga2_2 Ti1_3 2.818012 1_554
Ga2_2 Ti1_2 2.818012 1_555
Ga2_2 Ti0_0 2.818012 1_555
Ga2_2 Ti0_1 2.818012 1_554
Ga2_3 Ni0_3 2.412631 1_555
Ga2_3 Ni0_2 2.412631 1_555
Ga2_3 Ni1_1 2.479856 1_555
Ga2_3 Ni2_3 2.479861 1_555
Ga2_3 Ti2_2 2.738862 1_555
Ga2_3 Ti2_3 2.738862 1_555
Ga2_3 Ti1_2 2.818012 1_555
Ga2_3 Ti1_3 2.818012 1_555
Ga2_3 Ti0_0 2.818012 1_555
Ga2_3 Ti0_1 2.818012 1_555
Ga2_4 Ni0_4 2.412631 1_555
Ga2_4 Ni0_5 2.412631 1_554
Ga2_4 Ni1_6 2.479856 1_545
Ga2_4 Ni2_4 2.479861 1_555
Ga2_4 Ti2_4 2.738862 1_555
Ga2_4 Ti2_5 2.738862 1_554
Ga2_4 Ti1_5 2.818012 1_554
Ga2_4 Ti1_4 2.818012 1_555
Ga2_4 Ti0_7 2.818012 1_544
Ga2_4 Ti0_6 2.818012 1_545
Ga2_5 Ni0_4 2.412631 1_555
Ga2_5 Ni0_5 2.412631 1_555
Ga2_5 Ni1_7 2.479856 1_545
Ga2_5 Ni2_5 2.479861 1_555
Ga2_5 Ti2_4 2.738862 1_555
Ga2_5 Ti2_5 2.738862 1_555
Ga2_5 Ti1_5 2.818012 1_555
Ga2_5 Ti1_4 2.818012 1_555
Ga2_5 Ti0_6 2.818012 1_545
Ga2_5 Ti0_7 2.818012 1_545
Ga2_6 Ni0_7 2.412631 1_554
Ga2_6 Ni0_6 2.412631 1_555
Ga2_6 Ni1_4 2.479856 1_555
Ga2_6 Ni2_6 2.479861 1_555
Ga2_6 Ti2_6 2.738862 1_555
Ga2_6 Ti2_7 2.738862 1_554
Ga2_6 Ti1_7 2.818012 1_554
Ga2_6 Ti1_6 2.818012 1_555
Ga2_6 Ti0_4 2.818012 1_555
Ga2_6 Ti0_5 2.818012 1_554
Ga2_7 Ni0_7 2.412631 1_555
Ga2_7 Ni0_6 2.412631 1_555
Ga2_7 Ni1_5 2.479856 1_555
Ga2_7 Ni2_7 2.479861 1_555
Ga2_7 Ti2_6 2.738862 1_555
Ga2_7 Ti2_7 2.738862 1_555
Ga2_7 Ti1_7 2.818012 1_555
Ga2_7 Ti1_6 2.818012 1_555
Ga2_7 Ti0_5 2.818012 1_555
Ga2_7 Ti0_4 2.818012 1_555
Ni0_0 Ti0_2 2.650726 1_545
Ni0_0 Ti1_0 2.650726 1_555
Ni0_0 Ti2_4 2.650726 1_455
Ni0_1 Ti0_3 2.650726 1_545
Ni0_1 Ti1_1 2.650726 1_555
Ni0_1 Ti2_5 2.650726 1_455
Ni0_2 Ti0_0 2.650726 1_555
Ni0_2 Ti1_2 2.650726 1_555
Ni0_2 Ti2_6 2.650726 1_455
Ni0_3 Ti0_1 2.650726 1_555
Ni0_3 Ti1_3 2.650726 1_555
Ni0_3 Ti2_7 2.650726 1_455
Ni0_4 Ti0_6 2.650726 1_545
Ni0_4 Ti1_4 2.650726 1_555
Ni0_4 Ti2_0 2.650726 1_555
Ni0_5 Ti0_7 2.650726 1_545
Ni0_5 Ti1_5 2.650726 1_555
Ni0_5 Ti2_1 2.650726 1_555
Ni0_6 Ti0_4 2.650726 1_555
Ni0_6 Ti1_6 2.650726 1_555
Ni0_6 Ti2_2 2.650726 1_555
Ni0_7 Ti0_5 2.650726 1_555
Ni0_7 Ti1_7 2.650726 1_555
Ni0_7 Ti2_3 2.650726 1_555
Ni1_0 Ti0_0 2.595666 1_555
Ni1_0 Ti0_1 2.595666 1_554
Ni1_0 Ti2_3 2.595667 1_554
Ni1_0 Ti2_2 2.595667 1_555
Ni1_0 Ti1_0 2.595671 1_555
Ni1_0 Ti1_1 2.595671 1_554
Ni1_1 Ti0_0 2.595666 1_555
Ni1_1 Ti0_1 2.595666 1_555
Ni1_1 Ti2_2 2.595667 1_555
Ni1_1 Ti2_3 2.595667 1_555
Ni1_1 Ti1_0 2.595671 1_555
Ni1_1 Ti1_1 2.595671 1_555
Ni1_2 Ti0_3 2.595666 1_554
Ni1_2 Ti0_2 2.595666 1_555
Ni1_2 Ti2_0 2.595667 1_565
Ni1_2 Ti2_1 2.595667 1_564
Ni1_2 Ti1_3 2.595671 1_554
Ni1_2 Ti1_2 2.595671 1_555
Ni1_3 Ti0_3 2.595666 1_555
Ni1_3 Ti0_2 2.595666 1_555
Ni1_3 Ti2_1 2.595667 1_565
Ni1_3 Ti2_0 2.595667 1_565
Ni1_3 Ti1_2 2.595671 1_555
Ni1_3 Ti1_3 2.595671 1_555
Ni1_4 Ti0_4 2.595666 1_555
Ni1_4 Ti0_5 2.595666 1_554
Ni1_4 Ti2_7 2.595667 1_554
Ni1_4 Ti2_6 2.595667 1_555
Ni1_4 Ti1_5 2.595671 1_554
Ni1_4 Ti1_4 2.595671 1_555
Ni1_5 Ti0_4 2.595666 1_555
Ni1_5 Ti0_5 2.595666 1_555
Ni1_5 Ti2_6 2.595667 1_555
Ni1_5 Ti2_7 2.595667 1_555
Ni1_5 Ti1_5 2.595671 1_555
Ni1_5 Ti1_4 2.595671 1_555
Ni1_6 Ti0_7 2.595666 1_554
Ni1_6 Ti0_6 2.595666 1_555
Ni1_6 Ti2_5 2.595667 1_564
Ni1_6 Ti2_4 2.595667 1_565
Ni1_6 Ti1_6 2.595671 1_555
Ni1_6 Ti1_7 2.595671 1_554
Ni1_7 Ti0_7 2.595666 1_555
Ni1_7 Ti0_6 2.595666 1_555
Ni1_7 Ti2_4 2.595667 1_565
Ni1_7 Ti2_5 2.595667 1_565
Ni1_7 Ti1_7 2.595671 1_555
Ni1_7 Ti1_6 2.595671 1_555
Ni2_0 Ti2_0 2.595665 1_555
Ni2_0 Ti2_1 2.595665 1_554
Ni2_0 Ti0_4 2.595668 1_555
Ni2_0 Ti0_5 2.595668 1_554
Ni2_0 Ti1_0 2.595671 1_555
Ni2_0 Ti1_1 2.595671 1_554
Ni2_1 Ti2_0 2.595665 1_555
Ni2_1 Ti2_1 2.595665 1_555
Ni2_1 Ti0_4 2.595668 1_555
Ni2_1 Ti0_5 2.595668 1_555
Ni2_1 Ti1_0 2.595671 1_555
Ni2_1 Ti1_1 2.595671 1_555
Ni2_2 Ti2_2 2.595665 1_555
Ni2_2 Ti2_3 2.595665 1_554
Ni2_2 Ti0_7 2.595668 1_554
Ni2_2 Ti0_6 2.595668 1_555
Ni2_2 Ti1_3 2.595671 1_554
Ni2_2 Ti1_2 2.595671 1_555
Ni2_3 Ti2_3 2.595665 1_555
Ni2_3 Ti2_2 2.595665 1_555
Ni2_3 Ti0_6 2.595668 1_555
Ni2_3 Ti0_7 2.595668 1_555
Ni2_3 Ti1_2 2.595671 1_555
Ni2_3 Ti1_3 2.595671 1_555
Ni2_4 Ti2_5 2.595665 1_554
Ni2_4 Ti2_4 2.595665 1_555
Ni2_4 Ti0_0 2.595668 1_655
Ni2_4 Ti0_1 2.595668 1_654
Ni2_4 Ti1_5 2.595671 1_554
Ni2_4 Ti1_4 2.595671 1_555
Ni2_5 Ti2_5 2.595665 1_555
Ni2_5 Ti2_4 2.595665 1_555
Ni2_5 Ti0_0 2.595668 1_655
Ni2_5 Ti0_1 2.595668 1_655
Ni2_5 Ti1_5 2.595671 1_555
Ni2_5 Ti1_4 2.595671 1_555
Ni2_6 Ti2_6 2.595665 1_555
Ni2_6 Ti2_7 2.595665 1_554
Ni2_6 Ti0_3 2.595668 1_654
Ni2_6 Ti0_2 2.595668 1_655
Ni2_6 Ti1_7 2.595671 1_554
Ni2_6 Ti1_6 2.595671 1_555
Ni2_7 Ti2_7 2.595665 1_555
Ni2_7 Ti2_6 2.595665 1_555
Ni2_7 Ti0_2 2.595668 1_655
Ni2_7 Ti0_3 2.595668 1_655
Ni2_7 Ti1_6 2.595671 1_555
Ni2_7 Ti1_7 2.595671 1_555
