# generated using pymatgen
data_BaSn2BrF5
_symmetry_space_group_name_H-M   'P 1'
_cell_length_a   5.86177032
_cell_length_b   5.86177032
_cell_length_c   9.57899129
_cell_angle_alpha   90.00000000
_cell_angle_beta   90.00000000
_cell_angle_gamma   90.00000000
_symmetry_Int_Tables_number   1
_chemical_formula_structural   BaSn2BrF5
_chemical_formula_sum   'Ba2 Sn4 Br2 F10'
_cell_volume   329.13750536
_cell_formula_units_Z   2
loop_
 _symmetry_equiv_pos_site_id
 _symmetry_equiv_pos_as_xyz
  1  'x, y, z'
loop_
 _atom_site_type_symbol
 _atom_site_label
 _atom_site_symmetry_multiplicity
 _atom_site_fract_x
 _atom_site_fract_y
 _atom_site_fract_z
 _atom_site_occupancy
  Ba  Ba0  1  0.50000000  0.50000000  0.00000000  1
  Ba  Ba1  1  0.00000000  0.00000000  0.00000000  1
  Sn  Sn0  1  0.50000000  0.00000000  0.67345254  1
  Sn  Sn1  1  0.00000000  0.50000000  0.72430796  1
  Sn  Sn2  1  0.50000000  0.00000000  0.27569204  1
  Sn  Sn3  1  0.00000000  0.50000000  0.32654746  1
  Br  Br0  1  0.50000000  0.50000000  0.50000000  1
  Br  Br1  1  0.00000000  0.00000000  0.50000000  1
  F  F0  1  0.50000000  0.00000000  0.04572540  1
  F  F1  1  0.76649032  0.26649032  0.19132466  1
  F  F2  1  0.26649032  0.23350968  0.80867534  1
  F  F3  1  0.76649032  0.73350968  0.19132466  1
  F  F4  1  0.73350968  0.76649032  0.80867534  1
  F  F5  1  0.23350968  0.26649032  0.19132466  1
  F  F6  1  0.00000000  0.50000000  0.95427460  1
  F  F7  1  0.73350968  0.23350968  0.80867534  1
  F  F8  1  0.26649032  0.76649032  0.80867534  1
  F  F9  1  0.23350968  0.73350968  0.19132466  1
loop_
_geom_bond_atom_site_label_1
_geom_bond_atom_site_label_2
_geom_bond_distance
_geom_bond_site_symmetry_2
Ba0 F3 2.769930 1_555
Ba0 F9 2.769930 1_555
Ba0 F1 2.769930 1_555
Ba0 F5 2.769930 1_555
Ba0 F4 2.769930 1_554
Ba0 F7 2.769930 1_554
Ba0 F8 2.769930 1_554
Ba0 F2 2.769930 1_554
Ba0 F0 2.963433 1_565
Ba0 F0 2.963433 1_555
Ba0 F6 2.963433 1_654
Ba0 F6 2.963433 1_554
Ba1 F5 2.769930 1_555
Ba1 F1 2.769930 1_455
Ba1 F9 2.769930 1_545
Ba1 F3 2.769930 1_445
Ba1 F2 2.769930 1_554
Ba1 F8 2.769930 1_544
Ba1 F7 2.769930 1_454
Ba1 F4 2.769930 1_444
Ba1 F0 2.963433 1_455
Ba1 F0 2.963433 1_555
Ba1 F6 2.963433 1_544
Ba1 F6 2.963433 1_554
Br0 Sn3 3.369076 1_555
Br0 Sn3 3.369076 1_655
Br0 Sn0 3.369076 1_565
Br0 Sn0 3.369076 1_555
Br1 Sn3 3.369076 1_555
Br1 Sn3 3.369076 1_545
Br1 Sn0 3.369076 1_455
Br1 Sn0 3.369076 1_555
F0 Sn2 2.202848 1_555
F1 Sn3 2.329145 1_655
F1 Sn2 2.352330 1_555
F2 Sn0 2.329145 1_555
F2 Sn1 2.352330 1_555
F3 Sn3 2.329145 1_655
F3 Sn2 2.352330 1_565
F4 Sn0 2.329145 1_565
F4 Sn1 2.352330 1_655
F5 Sn3 2.329145 1_555
F5 Sn2 2.352330 1_555
F6 Sn1 2.202848 1_555
F7 Sn0 2.329145 1_555
F7 Sn1 2.352330 1_655
F8 Sn0 2.329145 1_565
F8 Sn1 2.352330 1_555
F9 Sn3 2.329145 1_555
F9 Sn2 2.352330 1_565
