# generated using pymatgen
data_Y5AsRhO12
_symmetry_space_group_name_H-M   'P 1'
_cell_length_a   6.78378218
_cell_length_b   6.78378168
_cell_length_c   7.16309555
_cell_angle_alpha   74.57342674
_cell_angle_beta   74.57342698
_cell_angle_gamma   50.72660958
_symmetry_Int_Tables_number   1
_chemical_formula_structural   Y5AsRhO12
_chemical_formula_sum   'Y5 As1 Rh1 O12'
_cell_volume   243.88066098
_cell_formula_units_Z   1
loop_
 _symmetry_equiv_pos_site_id
 _symmetry_equiv_pos_as_xyz
  1  'x, y, z'
loop_
 _atom_site_type_symbol
 _atom_site_label
 _atom_site_symmetry_multiplicity
 _atom_site_fract_x
 _atom_site_fract_y
 _atom_site_fract_z
 _atom_site_occupancy
  Y  Y0  1  0.49206640  0.50793360  0.50000000  1
  Y  Y1  1  0.19236318  0.19556816  0.16696278  1
  Y  Y2  1  0.80443184  0.80763682  0.83303722  1
  Y  Y3  1  0.79919812  0.80559172  0.35955428  1
  Y  Y4  1  0.19440828  0.20080188  0.64044572  1
  As  As0  1  0.25846331  0.74153669  0.00000000  1
  Rh  Rh0  1  0.74872232  0.25127768  1.00000000  1
  O  O0  1  0.02038289  0.97987814  0.17826136  1
  O  O1  1  0.02012186  0.97961711  0.82173864  1
  O  O2  1  0.48541919  0.51478999  0.82390990  1
  O  O3  1  0.48521001  0.51458081  0.17609010  1
  O  O4  1  0.59417433  0.10172980  0.57647997  1
  O  O5  1  0.89827020  0.40582567  0.42352003  1
  O  O6  1  0.39942644  0.90493554  0.42728957  1
  O  O7  1  0.39733810  0.91331059  0.92077423  1
  O  O8  1  0.08668941  0.60266190  0.07922577  1
  O  O9  1  0.59760335  0.06935268  0.08133806  1
  O  O10  1  0.93064732  0.40239665  0.91866194  1
  O  O11  1  0.09506446  0.60057356  0.57271043  1
loop_
_geom_bond_atom_site_label_1
_geom_bond_atom_site_label_2
_geom_bond_distance
_geom_bond_site_symmetry_2
As0 O7 1.822386 1_554
As0 O8 1.822386 1_555
As0 O2 1.824347 1_554
As0 O3 1.824347 1_555
As0 O0 1.883697 1_555
As0 O1 1.883697 1_554
O0 Rh0 2.030266 1_464
O0 Y1 2.357248 1_565
O0 Y3 2.393374 1_455
O1 Rh0 2.030266 1_465
O1 Y2 2.357248 1_455
O1 Y4 2.393374 1_565
O2 Rh0 1.983328 1_555
O2 Y0 2.320907 1_555
O3 Rh0 1.983328 1_554
O3 Y0 2.320907 1_555
O4 Y4 2.282850 1_555
O4 Y2 2.287639 1_545
O4 Y0 2.314186 1_555
O4 Y3 2.314787 1_545
O5 Y3 2.282849 1_555
O5 Y1 2.287639 1_655
O5 Y0 2.314186 1_555
O5 Y4 2.314787 1_655
O6 Y3 2.281308 1_555
O6 Y0 2.281335 1_555
O6 Y4 2.293587 1_565
O6 Y1 2.295409 1_565
O7 Y2 2.312015 1_555
O7 Y4 2.391430 1_565
O7 Y1 2.414687 1_566
O8 Y1 2.312015 1_555
O8 Y3 2.391430 1_455
O8 Y2 2.414687 1_454
O9 Rh0 1.953200 1_554
O9 Y1 2.251442 1_555
O9 Y2 2.341521 1_544
O9 Y3 2.344851 1_545
O10 Rh0 1.953200 1_555
O10 Y2 2.251441 1_555
O10 Y1 2.341521 1_656
O10 Y4 2.344851 1_655
O11 Y4 2.281308 1_555
O11 Y0 2.281335 1_555
O11 Y3 2.293587 1_455
O11 Y2 2.295409 1_455
