# generated using pymatgen
data_Sc3TiRh2O
_symmetry_space_group_name_H-M   'P 1'
_cell_length_a   8.51505915
_cell_length_b   8.51505794
_cell_length_c   8.51505866
_cell_angle_alpha   59.99999721
_cell_angle_beta   60.00000191
_cell_angle_gamma   59.99999657
_symmetry_Int_Tables_number   1
_chemical_formula_structural   Sc3TiRh2O
_chemical_formula_sum   'Sc12 Ti4 Rh8 O4'
_cell_volume   436.56398840
_cell_formula_units_Z   4
loop_
 _symmetry_equiv_pos_site_id
 _symmetry_equiv_pos_as_xyz
  1  'x, y, z'
loop_
 _atom_site_type_symbol
 _atom_site_label
 _atom_site_symmetry_multiplicity
 _atom_site_fract_x
 _atom_site_fract_y
 _atom_site_fract_z
 _atom_site_occupancy
  Sc  Sc0  1  0.81465627  0.81465627  0.18534373  1
  Sc  Sc1  1  0.18534373  0.18534373  0.81465627  1
  Sc  Sc2  1  0.81465627  0.18534373  0.81465627  1
  Sc  Sc3  1  0.18534373  0.81465627  0.18534373  1
  Sc  Sc4  1  0.18534373  0.81465627  0.81465627  1
  Sc  Sc5  1  0.81465627  0.18534373  0.18534373  1
  Sc  Sc6  1  0.43534373  0.43534373  0.06465627  1
  Sc  Sc7  1  0.06465627  0.06465627  0.43534373  1
  Sc  Sc8  1  0.43534373  0.06465627  0.43534373  1
  Sc  Sc9  1  0.06465627  0.43534373  0.06465627  1
  Sc  Sc10  1  0.06465627  0.43534373  0.43534373  1
  Sc  Sc11  1  0.43534373  0.06465627  0.06465627  1
  Ti  Ti0  1  0.12500000  0.62500000  0.62500000  1
  Ti  Ti1  1  0.62500000  0.12500000  0.62500000  1
  Ti  Ti2  1  0.62500000  0.62500000  0.12500000  1
  Ti  Ti3  1  0.62500000  0.62500000  0.62500000  1
  Rh  Rh0  1  0.75211476  0.41596141  0.41596141  1
  Rh  Rh1  1  0.41596141  0.75211476  0.41596141  1
  Rh  Rh2  1  0.41596141  0.41596141  0.75211476  1
  Rh  Rh3  1  0.41596141  0.41596141  0.41596141  1
  Rh  Rh4  1  0.49788524  0.83403859  0.83403859  1
  Rh  Rh5  1  0.83403859  0.49788524  0.83403859  1
  Rh  Rh6  1  0.83403859  0.83403859  0.49788524  1
  Rh  Rh7  1  0.83403859  0.83403859  0.83403859  1
  O  O0  1  0.62500000  0.12500000  0.12500000  1
  O  O1  1  0.12500000  0.62500000  0.12500000  1
  O  O2  1  0.12500000  0.12500000  0.62500000  1
  O  O3  1  0.12500000  0.12500000  0.12500000  1
loop_
_geom_bond_atom_site_label_1
_geom_bond_atom_site_label_2
_geom_bond_distance
_geom_bond_site_symmetry_2
Rh0 Ti1 2.612129 1_555
Rh0 Ti2 2.612129 1_555
Rh0 Ti3 2.612136 1_555
Rh0 Sc7 2.835967 1_655
Rh0 Sc9 2.835967 1_655
Rh0 Sc10 2.835972 1_655
Rh1 Ti2 2.612129 1_555
Rh1 Ti0 2.612129 1_555
Rh1 Ti3 2.612136 1_555
Rh1 Sc11 2.835967 1_565
Rh1 Sc7 2.835967 1_565
Rh1 Sc8 2.835972 1_565
Rh2 Ti1 2.612129 1_555
Rh2 Ti0 2.612129 1_555
Rh2 Ti3 2.612136 1_555
Rh2 Sc11 2.835967 1_556
Rh2 Sc9 2.835967 1_556
Rh2 Sc6 2.835972 1_556
Rh3 Ti1 2.612134 1_555
Rh3 Ti0 2.612134 1_555
Rh3 Ti2 2.612134 1_555
Rh3 Sc8 2.835963 1_555
Rh3 Sc6 2.835963 1_555
Rh3 Sc10 2.835964 1_555
Rh4 Ti1 2.612129 1_565
Rh4 Ti2 2.612129 1_556
Rh4 Ti3 2.612136 1_555
Rh4 Sc1 2.835967 1_565
Rh4 Sc3 2.835967 1_556
Rh4 Sc4 2.835972 1_555
Rh5 Ti2 2.612129 1_556
Rh5 Ti0 2.612129 1_655
Rh5 Ti3 2.612136 1_555
Rh5 Sc5 2.835967 1_556
Rh5 Sc1 2.835967 1_655
Rh5 Sc2 2.835972 1_555
Rh6 Ti1 2.612129 1_565
Rh6 Ti0 2.612129 1_655
Rh6 Ti3 2.612136 1_555
Rh6 Sc5 2.835967 1_565
Rh6 Sc3 2.835967 1_655
Rh6 Sc0 2.835972 1_555
Rh7 Ti1 2.612134 1_565
Rh7 Ti0 2.612134 1_655
Rh7 Ti2 2.612134 1_556
Rh7 Sc2 2.835963 1_565
Rh7 Sc0 2.835963 1_556
Rh7 Sc4 2.835964 1_655
O0 Sc0 2.249374 1_545
O0 Sc6 2.249374 1_555
O0 Sc5 2.249374 1_555
O0 Sc11 2.249374 1_555
O0 Sc8 2.249374 1_555
O0 Sc2 2.249374 1_554
O1 Sc10 2.249374 1_555
O1 Sc4 2.249374 1_554
O1 Sc3 2.249374 1_555
O1 Sc9 2.249374 1_555
O1 Sc6 2.249374 1_555
O1 Sc0 2.249374 1_455
O2 Sc4 2.249373 1_545
O2 Sc10 2.249373 1_555
O2 Sc1 2.249374 1_555
O2 Sc7 2.249374 1_555
O2 Sc8 2.249374 1_555
O2 Sc2 2.249374 1_455
O3 Sc9 2.249373 1_555
O3 Sc3 2.249373 1_545
O3 Sc7 2.249374 1_555
O3 Sc1 2.249374 1_554
O3 Sc11 2.249374 1_555
O3 Sc5 2.249374 1_455
