# generated using pymatgen
data_Ti8Al15Os3Pt4
_symmetry_space_group_name_H-M   'P 1'
_cell_length_a   8.64106253
_cell_length_b   8.63947564
_cell_length_c   8.64859316
_cell_angle_alpha   120.04449748
_cell_angle_beta   119.92911070
_cell_angle_gamma   90.11455103
_symmetry_Int_Tables_number   1
_chemical_formula_structural   Ti8Al15Os3Pt4
_chemical_formula_sum   'Ti8 Al15 Os3 Pt4'
_cell_volume   456.27019124
_cell_formula_units_Z   1
loop_
 _symmetry_equiv_pos_site_id
 _symmetry_equiv_pos_as_xyz
  1  'x, y, z'
loop_
 _atom_site_type_symbol
 _atom_site_label
 _atom_site_symmetry_multiplicity
 _atom_site_fract_x
 _atom_site_fract_y
 _atom_site_fract_z
 _atom_site_occupancy
  Ti  Ti0  1  0.79862091  0.28883579  0.07355707  1
  Ti  Ti1  1  0.21185621  0.28453271  0.49166066  1
  Ti  Ti2  1  0.20637362  0.70688031  0.49474337  1
  Ti  Ti3  1  0.20643501  0.71564158  0.92241229  1
  Ti  Ti4  1  0.79552609  0.72074221  0.51016581  1
  Ti  Ti5  1  0.78709610  0.28628166  0.50703881  1
  Ti  Ti6  1  0.38122918  0.12078339  0.73868984  1
  Ti  Ti7  1  0.37255708  0.63934947  0.25497315  1
  Al  Al0  1  0.99603901  0.49539566  0.49834222  1
  Al  Al1  1  0.15611444  0.34084755  0.18437249  1
  Al  Al2  1  0.15564674  0.96959621  0.81402944  1
  Al  Al3  1  0.15117212  0.34588263  0.80652186  1
  Al  Al4  1  0.54629587  0.34820556  0.19824736  1
  Al  Al5  1  0.84482819  0.65559673  0.81379923  1
  Al  Al6  1  0.84563438  0.03761558  0.19117299  1
  Al  Al7  1  0.84400656  0.65386230  0.18787664  1
  Al  Al8  1  0.46065756  0.65278176  0.80760374  1
  Al  Al9  1  0.37512150  0.11741447  0.25705132  1
  Al  Al10  1  0.86274017  0.12299033  0.74601460  1
  Al  Al11  1  0.61967968  0.88028519  0.26104741  1
  Al  Al12  1  0.62577172  0.36196073  0.74394086  1
  Al  Al13  1  0.62698465  0.88181744  0.74377154  1
  Al  Al14  1  0.13456719  0.87654379  0.25169575  1
  Os  Os0  1  0.00137453  0.49957486  0.00215926  1
  Os  Os1  1  0.99990404  0.99991326  0.00025960  1
  Os  Os2  1  0.49795755  0.99929850  0.50048029  1
  Pt  Pt0  1  0.99971955  0.99886046  0.49949682  1
  Pt  Pt1  1  0.49914074  0.99907603  0.99903934  1
  Pt  Pt2  1  0.49822210  0.49917290  0.00023319  1
  Pt  Pt3  1  0.49872451  0.50025692  0.49960406  1
loop_
_geom_bond_atom_site_label_1
_geom_bond_atom_site_label_2
_geom_bond_distance
_geom_bond_site_symmetry_2
Ti0 Ti6 2.974784 1_554
Ti1 Ti6 2.936414 1_555
Ti2 Ti7 2.909625 1_555
Ti2 Ti6 2.960432 1_565
Ti3 Ti7 2.923990 1_556
Ti4 Ti7 3.018320 1_555
Al0 Ti3 2.592637 1_655
Al0 Ti2 2.596690 1_655
Al0 Ti0 2.600139 1_555
Al0 Ti5 2.605361 1_555
Al0 Ti4 2.606487 1_555
Al0 Ti1 2.610673 1_655
Al1 Os1 2.485221 1_445
Al1 Os0 2.494090 1_555
Al1 Pt3 2.502816 1_555
Al1 Ti0 2.696679 1_455
Al1 Ti1 2.747718 1_555
Al1 Al10 2.754552 1_454
Al1 Ti2 2.779485 1_555
Al1 Al9 2.783041 1_555
Al1 Ti7 2.790329 1_555
Al2 Os1 2.493141 1_456
Al2 Pt1 2.506962 1_555
Al2 Pt0 2.512343 1_455
Al2 Ti4 2.714294 1_455
Al2 Ti3 2.745497 1_555
Al2 Al9 2.783498 1_566
Al2 Ti2 2.811545 1_555
Al2 Ti6 2.835446 1_565
Al3 Os0 2.498811 1_556
Al3 Pt0 2.509407 1_445
Al3 Pt2 2.510574 1_556
Al3 Ti5 2.719954 1_455
Al3 Ti3 2.783480 1_555
Al3 Ti7 2.803687 1_556
Al3 Ti1 2.819915 1_555
Al3 Ti6 2.848655 1_555
Al4 Pt1 2.514608 1_544
Al4 Pt3 2.516020 1_555
Al4 Pt2 2.517030 1_555
Al4 Ti5 2.763710 1_555
Al4 Ti4 2.784810 1_555
Al4 Ti0 2.824327 1_555
Al4 Al9 2.859442 1_555
Al4 Ti6 2.864262 1_554
Al4 Ti7 2.887181 1_555
Al5 Os1 2.503865 1_556
Al5 Os0 2.511536 1_656
Al5 Pt3 2.520368 1_555
Al5 Ti3 2.737104 1_655
Al5 Ti5 2.768491 1_555
Al5 Ti4 2.785450 1_555
Al6 Os1 2.503775 1_545
Al6 Pt1 2.512765 1_544
Al6 Pt0 2.519617 1_545
Al6 Ti1 2.744834 1_655
Al6 Ti0 2.777112 1_555
Al6 Ti5 2.800079 1_555
Al7 Os0 2.499722 1_655
Al7 Pt0 2.505905 1_555
Al7 Pt2 2.514201 1_555
Al7 Ti2 2.746378 1_655
Al7 Ti0 2.750036 1_555
Al7 Ti4 2.798589 1_555
Al8 Pt1 2.507834 1_555
Al8 Pt3 2.510275 1_555
Al8 Pt2 2.513568 1_556
Al8 Ti1 2.759710 1_555
Al8 Ti2 2.775905 1_555
Al8 Ti3 2.783510 1_555
Al9 Os2 2.554622 1_545
Al9 Os1 2.649379 1_445
Al9 Pt1 2.697997 1_544
Al9 Pt3 2.698822 1_555
Al9 Ti1 2.850083 1_555
Al9 Ti3 2.874052 1_544
Al9 Ti5 2.935362 1_555
Al10 Os2 2.573345 1_545
Al10 Os0 2.654616 1_656
Al10 Os1 2.667607 1_546
Al10 Pt0 2.707471 1_545
Al10 Al2 2.795845 1_645
Al10 Al3 2.804317 1_655
Al10 Ti0 2.808846 1_556
Al10 Ti5 2.874795 1_555
Al10 Ti4 2.878662 1_545
Al10 Al13 2.897414 1_545
Al10 Al12 2.910851 1_555
Al10 Al11 2.964029 1_545
Al11 Os2 2.548963 1_555
Al11 Pt0 2.683267 1_555
Al11 Pt2 2.686574 1_555
Al11 Pt1 2.692719 1_554
Al11 Al7 2.825633 1_555
Al11 Al6 2.830949 1_565
Al11 Al8 2.832719 1_554
Al11 Ti5 2.891093 1_565
Al11 Ti4 2.926784 1_555
Al11 Ti7 2.942171 1_555
Al11 Al9 2.946079 1_565
Al11 Ti3 2.953703 1_554
Al12 Os2 2.555353 1_545
Al12 Os0 2.651043 1_656
Al12 Pt3 2.704962 1_555
Al12 Pt2 2.710180 1_556
Al12 Al5 2.772821 1_555
Al12 Al7 2.778095 1_556
Al12 Al8 2.839830 1_555
Al12 Ti5 2.842692 1_555
Al12 Ti0 2.883576 1_556
Al12 Ti6 2.932703 1_555
Al12 Ti1 2.956761 1_555
Al12 Al9 2.976386 1_555
Al13 Os2 2.550039 1_555
Al13 Os1 2.633127 1_556
Al13 Pt3 2.689586 1_555
Al13 Pt1 2.705404 1_555
Al13 Al5 2.791485 1_555
Al13 Al6 2.798786 1_566
Al13 Al8 2.856590 1_555
Al13 Ti4 2.875471 1_555
Al13 Ti0 2.900853 1_566
Al13 Ti6 2.964649 1_565
Al13 Ti7 2.988760 1_555
Al13 Ti2 3.006680 1_555
Al14 Os2 2.564035 1_555
Al14 Os1 2.649468 1_455
Al14 Os0 2.656577 1_555
Al14 Pt0 2.701201 1_455
Al14 Al5 2.745050 1_454
Al14 Al7 2.800767 1_455
Al14 Al6 2.807691 1_465
Al14 Ti3 2.869203 1_554
Al14 Al9 2.905782 1_565
Al14 Ti7 2.906226 1_555
Al14 Ti1 2.908585 1_565
Al14 Ti2 2.956269 1_555
Al14 Ti6 2.976519 1_565
Os0 Ti7 2.620904 1_555
Os0 Ti0 2.993028 1_455
Os0 Ti2 3.051446 1_555
Os0 Ti3 3.097659 1_554
Os1 Ti4 3.029625 1_554
Os1 Ti0 3.031637 1_565
Os1 Ti1 3.035333 1_665
Os1 Ti3 3.038213 1_654
Os2 Ti6 2.505175 1_565
Os2 Ti7 2.536151 1_555
Pt0 Ti6 2.693682 1_665
Pt0 Ti4 3.043474 1_555
Pt0 Ti2 3.088877 1_655
Pt0 Ti1 3.119211 1_665
Pt1 Ti6 2.701760 1_565
Pt1 Ti3 3.083891 1_555
Pt1 Ti2 3.120004 1_555
Pt1 Ti0 3.173866 1_566
Pt2 Ti6 2.669436 1_554
Pt2 Ti7 2.687077 1_555
Pt2 Ti1 3.140356 1_554
Pt2 Ti3 3.145420 1_554
Pt2 Ti4 3.152021 1_555
Pt2 Ti0 3.157939 1_555
Pt3 Ti7 2.712620 1_555
Pt3 Ti1 3.050628 1_555
Pt3 Ti2 3.091507 1_555
Pt3 Ti4 3.128411 1_555
