# generated using pymatgen
data_LiCo6P7O24
_symmetry_space_group_name_H-M   'P 1'
_cell_length_a   26.54368700
_cell_length_b   5.27323800
_cell_length_c   6.51752790
_cell_angle_alpha   72.86688579
_cell_angle_beta   90.00000000
_cell_angle_gamma   90.00000000
_symmetry_Int_Tables_number   1
_chemical_formula_structural   LiCo6P7O24
_chemical_formula_sum   'Li2 Co12 P14 O48'
_cell_volume   871.78235387
_cell_formula_units_Z   2
loop_
 _symmetry_equiv_pos_site_id
 _symmetry_equiv_pos_as_xyz
  1  'x, y, z'
loop_
 _atom_site_type_symbol
 _atom_site_label
 _atom_site_symmetry_multiplicity
 _atom_site_fract_x
 _atom_site_fract_y
 _atom_site_fract_z
 _atom_site_occupancy
  Li  Li0  1  0.75000000  0.86797900  0.45886800  1
  Li  Li1  1  0.25000000  0.13202100  0.54113200  1
  Co  Co0  1  0.18231500  0.87747500  0.27994900  1
  Co  Co1  1  0.31768500  0.87747500  0.27994900  1
  Co  Co2  1  0.04535900  0.81558400  0.69151500  1
  Co  Co3  1  0.81768500  0.12252500  0.72005100  1
  Co  Co4  1  0.40241300  0.20140700  0.90901000  1
  Co  Co5  1  0.90241300  0.79859300  0.09099000  1
  Co  Co6  1  0.59758700  0.79859300  0.09099000  1
  Co  Co7  1  0.68231500  0.12252500  0.72005100  1
  Co  Co8  1  0.95464100  0.18441600  0.30848500  1
  Co  Co9  1  0.54535900  0.18441600  0.30848500  1
  Co  Co10  1  0.09758700  0.20140700  0.90901000  1
  Co  Co11  1  0.45464100  0.81558400  0.69151500  1
  P  P0  1  0.88970500  0.68305500  0.61740200  1
  P  P1  1  0.38970500  0.31694500  0.38259800  1
  P  P2  1  0.75000000  0.53103700  0.90446600  1
  P  P3  1  0.25000000  0.46896300  0.09553400  1
  P  P4  1  0.11029500  0.31694500  0.38259800  1
  P  P5  1  0.02347000  0.71210300  0.20658800  1
  P  P6  1  0.66679500  0.24517200  0.19154700  1
  P  P7  1  0.16679500  0.75482800  0.80845300  1
  P  P8  1  0.47653000  0.71210300  0.20658800  1
  P  P9  1  0.33320500  0.75482800  0.80845300  1
  P  P10  1  0.83320500  0.24517200  0.19154700  1
  P  P11  1  0.52347000  0.28789700  0.79341200  1
  P  P12  1  0.97653000  0.28789700  0.79341200  1
  P  P13  1  0.61029500  0.68305500  0.61740200  1
  O  O0  1  0.65018400  0.48318300  0.61211100  1
  O  O1  1  0.87705400  0.85186800  0.76872500  1
  O  O2  1  0.02033000  0.86704100  0.37142000  1
  O  O3  1  0.45234600  0.87724700  0.99433900  1
  O  O4  1  0.75000000  0.33067900  0.77639400  1
  O  O5  1  0.25000000  0.66932100  0.22360600  1
  O  O6  1  0.47302300  0.41707700  0.82606000  1
  O  O7  1  0.33660800  0.94253400  0.94983300  1
  O  O8  1  0.52033000  0.13295900  0.62858000  1
  O  O9  1  0.70312100  0.49303200  0.05965000  1
  O  O10  1  0.75000000  0.82195900  0.77006900  1
  O  O11  1  0.38173900  0.60623100  0.79138000  1
  O  O12  1  0.88173900  0.39376900  0.20862000  1
  O  O13  1  0.69380500  0.11261400  0.40291500  1
  O  O14  1  0.47967000  0.86704100  0.37142000  1
  O  O15  1  0.55795000  0.54420300  0.70660500  1
  O  O16  1  0.20312100  0.50696800  0.94035000  1
  O  O17  1  0.97302300  0.58292300  0.17394000  1
  O  O18  1  0.44205000  0.45579700  0.29339500  1
  O  O19  1  0.30619500  0.88738600  0.59708500  1
  O  O20  1  0.90446100  0.86279300  0.39246000  1
  O  O21  1  0.34981600  0.51681700  0.38788900  1
  O  O22  1  0.37705400  0.14813200  0.23127500  1
  O  O23  1  0.66339200  0.05746600  0.05016700  1
  O  O24  1  0.84981600  0.48318300  0.61211100  1
  O  O25  1  0.04765400  0.87724700  0.99433900  1
  O  O26  1  0.52697700  0.58292300  0.17394000  1
  O  O27  1  0.62294600  0.85186800  0.76872500  1
  O  O28  1  0.05795000  0.45579700  0.29339500  1
  O  O29  1  0.97967000  0.13295900  0.62858000  1
  O  O30  1  0.11826100  0.60623100  0.79138000  1
  O  O31  1  0.15018400  0.51681700  0.38788900  1
  O  O32  1  0.25000000  0.17804100  0.22993100  1
  O  O33  1  0.94205000  0.54420300  0.70660500  1
  O  O34  1  0.54765400  0.12275300  0.00566100  1
  O  O35  1  0.19380500  0.88738600  0.59708500  1
  O  O36  1  0.83660800  0.05746600  0.05016700  1
  O  O37  1  0.40446100  0.13720700  0.60754000  1
  O  O38  1  0.79687900  0.49303200  0.05965000  1
  O  O39  1  0.61826100  0.39376900  0.20862000  1
  O  O40  1  0.12294600  0.14813200  0.23127500  1
  O  O41  1  0.95234600  0.12275300  0.00566100  1
  O  O42  1  0.02697700  0.41707700  0.82606000  1
  O  O43  1  0.80619500  0.11261400  0.40291500  1
  O  O44  1  0.09553900  0.13720700  0.60754000  1
  O  O45  1  0.59553900  0.86279300  0.39246000  1
  O  O46  1  0.29687900  0.50696800  0.94035000  1
  O  O47  1  0.16339200  0.94253400  0.94983300  1
loop_
_geom_bond_atom_site_label_1
_geom_bond_atom_site_label_2
_geom_bond_distance
_geom_bond_site_symmetry_2
Li0 O13 1.935174 1_565
Li0 O43 1.935174 1_565
Li0 O10 1.970465 1_555
Li1 O19 1.935174 1_545
Li1 O35 1.935174 1_545
Li1 O32 1.970465 1_555
Co0 O31 2.012708 1_555
Co0 O40 2.086685 1_565
Co0 O35 2.105148 1_555
Co0 O47 2.136403 1_554
Co0 O5 2.192023 1_555
Co0 O32 2.354090 1_565
Co1 O21 2.012708 1_555
Co1 O22 2.086685 1_565
Co1 O19 2.105148 1_555
Co1 O7 2.136403 1_554
Co1 O5 2.192023 1_555
Co1 O32 2.354090 1_565
Co2 O42 2.082616 1_555
Co2 O25 2.093540 1_555
Co2 O44 2.098372 1_565
Co2 O2 2.129277 1_555
Co2 O30 2.227912 1_555
Co2 O29 2.367476 1_465
Co3 O24 2.012708 1_555
Co3 O1 2.086685 1_545
Co3 O43 2.105148 1_555
Co3 O36 2.136403 1_556
Co3 O4 2.192023 1_555
Co3 O10 2.354090 1_545
Co4 O37 2.090472 1_555
Co4 O3 2.104243 1_545
Co4 O11 2.117009 1_555
Co4 O22 2.143809 1_556
Co4 O6 2.176290 1_555
Co4 O7 2.184325 1_545
Co5 O20 2.090472 1_555
Co5 O41 2.104243 1_565
Co5 O12 2.117009 1_555
Co5 O1 2.143809 1_554
Co5 O17 2.176290 1_555
Co5 O36 2.184325 1_565
Co6 O45 2.090472 1_555
Co6 O34 2.104243 1_565
Co6 O39 2.117009 1_555
Co6 O27 2.143809 1_554
Co6 O26 2.176290 1_555
Co6 O23 2.184325 1_565
Co7 O0 2.012708 1_555
Co7 O27 2.086685 1_545
Co7 O13 2.105148 1_555
Co7 O23 2.136403 1_556
Co7 O4 2.192023 1_555
Co7 O10 2.354090 1_545
Co8 O17 2.082616 1_555
Co8 O41 2.093540 1_555
Co8 O20 2.098372 1_545
Co8 O29 2.129277 1_555
Co8 O12 2.227912 1_555
Co8 O2 2.367476 1_645
Co9 O26 2.082616 1_555
Co9 O34 2.093540 1_555
Co9 O45 2.098372 1_545
Co9 O8 2.129277 1_555
Co9 O39 2.227912 1_555
Co9 O14 2.367476 1_545
Co10 O44 2.090472 1_555
Co10 O25 2.104243 1_545
Co10 O30 2.117009 1_555
Co10 O40 2.143809 1_556
Co10 O42 2.176290 1_555
Co10 O47 2.184325 1_545
Co11 O6 2.082616 1_555
Co11 O3 2.093540 1_555
Co11 O37 2.098372 1_565
Co11 O14 2.129277 1_555
Co11 O11 2.227912 1_555
Co11 O8 2.367476 1_565
O0 P13 1.501506 1_555
O1 P0 1.547635 1_555
O2 P5 1.531579 1_555
O3 P8 1.540875 1_556
O4 P2 1.527291 1_555
O5 P3 1.527291 1_555
O6 P11 1.545238 1_555
O7 P9 1.540890 1_555
O8 P11 1.531579 1_555
O9 P2 1.578634 1_554
O9 P6 1.647737 1_555
O10 P2 1.526105 1_555
O11 P9 1.528858 1_555
O12 P10 1.528858 1_555
O13 P6 1.527429 1_555
O14 P8 1.531579 1_555
O15 P11 1.591829 1_555
O15 P13 1.598070 1_555
O16 P3 1.578634 1_556
O16 P7 1.647737 1_555
O17 P5 1.545238 1_655
O18 P8 1.591829 1_555
O18 P1 1.598070 1_555
O19 P9 1.527429 1_555
O20 P0 1.543500 1_555
O21 P1 1.501506 1_555
O22 P1 1.547635 1_555
O23 P6 1.540890 1_555
O24 P0 1.501506 1_555
O25 P5 1.540875 1_556
O26 P8 1.545238 1_555
O27 P13 1.547635 1_555
O28 P5 1.591829 1_555
O28 P4 1.598070 1_555
O29 P12 1.531579 1_555
O30 P7 1.528858 1_555
O31 P4 1.501506 1_555
O32 P3 1.526105 1_555
O33 P12 1.591829 1_555
O33 P0 1.598070 1_555
O34 P11 1.540875 1_554
O35 P7 1.527429 1_555
O36 P10 1.540890 1_555
O37 P1 1.543500 1_555
O38 P2 1.578634 1_554
O38 P10 1.647737 1_555
O39 P6 1.528858 1_555
O40 P4 1.547635 1_555
O41 P12 1.540875 1_554
O42 P12 1.545238 1_455
O43 P10 1.527429 1_555
O44 P4 1.543500 1_555
O45 P13 1.543500 1_555
O46 P3 1.578634 1_556
O46 P9 1.647737 1_555
O47 P7 1.540890 1_555
