# generated using pymatgen
data_Ba2NaLi3S5
_symmetry_space_group_name_H-M   'P 1'
_cell_length_a   8.88039382
_cell_length_b   8.88039389
_cell_length_c   10.55271707
_cell_angle_alpha   81.84128101
_cell_angle_beta   81.84128105
_cell_angle_gamma   36.72884238
_symmetry_Int_Tables_number   1
_chemical_formula_structural   Ba2NaLi3S5
_chemical_formula_sum   'Ba4 Na2 Li6 S10'
_cell_volume   492.08524389
_cell_formula_units_Z   2
loop_
 _symmetry_equiv_pos_site_id
 _symmetry_equiv_pos_as_xyz
  1  'x, y, z'
loop_
 _atom_site_type_symbol
 _atom_site_label
 _atom_site_symmetry_multiplicity
 _atom_site_fract_x
 _atom_site_fract_y
 _atom_site_fract_z
 _atom_site_occupancy
  Ba  Ba0  1  0.76169806  0.76169806  0.69485225  1
  Ba  Ba1  1  0.23830194  0.23830194  0.30514775  1
  Ba  Ba2  1  0.45879865  0.45879865  0.70767724  1
  Ba  Ba3  1  0.54120135  0.54120135  0.29232276  1
  Na  Na0  1  0.10581776  0.10581776  0.76433381  1
  Na  Na1  1  0.89418224  0.89418224  0.23566619  1
  Li  Li0  1  0.75408183  0.24591817  0.00000000  1
  Li  Li1  1  0.24591817  0.75408183  0.00000000  1
  Li  Li2  1  0.91977515  0.41553689  0.00833086  1
  Li  Li3  1  0.41553689  0.91977515  0.00833086  1
  Li  Li4  1  0.08022485  0.58446311  0.99166914  1
  Li  Li5  1  0.58446311  0.08022485  0.99166914  1
  S  S0  1  0.43536258  0.81230853  0.52962372  1
  S  S1  1  0.81230853  0.43536258  0.52962372  1
  S  S2  1  0.56463742  0.18769147  0.47037628  1
  S  S3  1  0.18769147  0.56463742  0.47037628  1
  S  S4  1  0.59703807  0.59703807  0.88131089  1
  S  S5  1  0.40296193  0.40296193  0.11868911  1
  S  S6  1  0.06928238  0.06928238  0.14553137  1
  S  S7  1  0.93071762  0.93071762  0.85446863  1
  S  S8  1  0.26055432  0.26055432  0.85579682  1
  S  S9  1  0.73944568  0.73944568  0.14420318  1
loop_
_geom_bond_atom_site_label_1
_geom_bond_atom_site_label_2
_geom_bond_distance
_geom_bond_site_symmetry_2
Ba0 S4 3.153101 1_555
Ba0 S8 3.271566 1_655
Ba0 S8 3.271566 1_565
Ba0 S0 3.280925 1_555
Ba0 S1 3.280925 1_555
Ba0 S3 3.317550 1_655
Ba0 S2 3.317550 1_565
Ba0 S7 3.519850 1_555
Ba1 S5 3.153101 1_555
Ba1 S9 3.271566 1_455
Ba1 S9 3.271566 1_545
Ba1 S2 3.280925 1_555
Ba1 S3 3.280925 1_555
Ba1 S1 3.317550 1_455
Ba1 S0 3.317550 1_545
Ba1 S6 3.519850 1_555
Ba2 S4 3.172392 1_555
Ba2 S7 3.198799 1_455
Ba2 S7 3.198799 1_545
Ba2 S3 3.219699 1_555
Ba2 S2 3.219699 1_555
Ba2 S1 3.289148 1_555
Ba2 S0 3.289148 1_555
Ba2 S8 3.470991 1_555
Ba3 S5 3.172392 1_555
Ba3 S6 3.198799 1_655
Ba3 S6 3.198799 1_565
Ba3 S1 3.219699 1_555
Ba3 S0 3.219699 1_555
Ba3 S3 3.289148 1_555
Ba3 S2 3.289148 1_555
Ba3 S9 3.470991 1_555
Na0 S8 2.913346 1_555
Na0 S7 2.962547 1_445
Na0 S1 3.006785 1_455
Na0 S0 3.006785 1_545
Na0 S4 3.052714 1_545
Na0 S4 3.052714 1_455
Na1 S9 2.913346 1_555
Na1 S6 2.962547 1_665
Na1 S3 3.006785 1_655
Na1 S2 3.006785 1_565
Na1 S5 3.052714 1_565
Na1 S5 3.052714 1_655
Li0 S5 2.377601 1_555
Li0 S4 2.377601 1_554
Li0 S6 2.480398 1_655
Li0 S7 2.480398 1_544
Li1 S4 2.377601 1_554
Li1 S5 2.377601 1_555
Li1 S7 2.480398 1_454
Li1 S6 2.480398 1_565
Li2 S4 2.383510 1_554
Li2 S9 2.455486 1_555
Li2 S6 2.460055 1_655
Li2 S8 2.492633 1_654
Li3 S4 2.383510 1_554
Li3 S9 2.455486 1_555
Li3 S6 2.460054 1_565
Li3 S8 2.492633 1_564
Li4 S5 2.383510 1_556
Li4 S8 2.455486 1_555
Li4 S7 2.460055 1_455
Li4 S9 2.492633 1_456
Li5 S5 2.383510 1_556
Li5 S8 2.455486 1_555
Li5 S7 2.460054 1_545
Li5 S9 2.492633 1_546
S0 S1 2.109280 1_555
S2 S3 2.109280 1_555
