# generated using pymatgen
data_KP2OsRh
_symmetry_space_group_name_H-M   'P 1'
_cell_length_a   7.08878827
_cell_length_b   7.08878859
_cell_length_c   7.08878877
_cell_angle_alpha   147.56413022
_cell_angle_beta   147.56413890
_cell_angle_gamma   46.52921340
_symmetry_Int_Tables_number   1
_chemical_formula_structural   KP2OsRh
_chemical_formula_sum   'K1 P2 Os1 Rh1'
_cell_volume   102.10833786
_cell_formula_units_Z   1
loop_
 _symmetry_equiv_pos_site_id
 _symmetry_equiv_pos_as_xyz
  1  'x, y, z'
loop_
 _atom_site_type_symbol
 _atom_site_label
 _atom_site_symmetry_multiplicity
 _atom_site_fract_x
 _atom_site_fract_y
 _atom_site_fract_z
 _atom_site_occupancy
  K  K0  1  0.00000000  0.00000000  0.00000000  1
  P  P0  1  0.65679665  0.65679665  0.00000000  1
  P  P1  1  0.34320335  0.34320335  1.00000000  1
  Os  Os0  1  0.25000000  0.75000000  0.50000000  1
  Rh  Rh0  1  0.75000000  0.25000000  0.50000000  1
loop_
_geom_bond_atom_site_label_1
_geom_bond_atom_site_label_2
_geom_bond_distance
_geom_bond_site_symmetry_2
K0 P0 3.465587 1_556
K0 P1 3.465587 1_443
K0 P0 3.465588 1_545
K0 P1 3.465588 1_454
K0 P0 3.465588 1_444
K0 P1 3.465588 1_555
K0 P0 3.465588 1_455
K0 P1 3.465588 1_544
P0 Rh0 2.322381 1_565
P0 Rh0 2.322381 1_554
P1 Rh0 2.322380 1_455
P1 Rh0 2.322381 1_556
Os0 P0 2.322380 1_455
Os0 P0 2.322381 1_556
Os0 P1 2.322381 1_565
Os0 P1 2.322381 1_554
