# generated using pymatgen
data_Cs2LiTaO4
_symmetry_space_group_name_H-M   'P 1'
_cell_length_a   7.02891763
_cell_length_b   7.02891647
_cell_length_c   8.34501098
_cell_angle_alpha   90.00000000
_cell_angle_beta   90.00000000
_cell_angle_gamma   127.55343116
_symmetry_Int_Tables_number   1
_chemical_formula_structural   Cs2LiTaO4
_chemical_formula_sum   'Cs4 Li2 Ta2 O8'
_cell_volume   326.85816265
_cell_formula_units_Z   2
loop_
 _symmetry_equiv_pos_site_id
 _symmetry_equiv_pos_as_xyz
  1  'x, y, z'
loop_
 _atom_site_type_symbol
 _atom_site_label
 _atom_site_symmetry_multiplicity
 _atom_site_fract_x
 _atom_site_fract_y
 _atom_site_fract_z
 _atom_site_occupancy
  Cs  Cs0  1  0.39428170  0.60571830  0.55554633  1
  Cs  Cs1  1  0.60571830  0.39428170  0.05554633  1
  Cs  Cs2  1  0.05907280  0.94092720  0.40841910  1
  Cs  Cs3  1  0.94092720  0.05907280  0.90841910  1
  Li  Li0  1  0.19472136  0.80527864  0.82541639  1
  Li  Li1  1  0.80527864  0.19472136  0.32541639  1
  Ta  Ta0  1  0.69498652  0.30501348  0.61169295  1
  Ta  Ta1  1  0.30501348  0.69498652  0.11169295  1
  O  O0  1  0.10068305  0.40671230  0.22187340  1
  O  O1  1  0.89931695  0.59328770  0.72187340  1
  O  O2  1  0.36439008  0.63560992  0.90896493  1
  O  O3  1  0.63560992  0.36439008  0.40896493  1
  O  O4  1  0.59328770  0.89931695  0.22187340  1
  O  O5  1  0.40671230  0.10068305  0.72187340  1
  O  O6  1  0.83973423  0.16026577  0.56751150  1
  O  O7  1  0.16026577  0.83973423  0.06751150  1
loop_
_geom_bond_atom_site_label_1
_geom_bond_atom_site_label_2
_geom_bond_distance
_geom_bond_site_symmetry_2
Cs0 O2 2.973275 1_555
Cs0 O6 3.182704 1_565
Cs0 O6 3.182704 1_455
Cs0 O4 3.232649 1_555
Cs0 O0 3.232649 1_555
Cs0 O3 3.280012 1_555
Cs1 O3 2.973275 1_555
Cs1 O7 3.182704 1_545
Cs1 O7 3.182704 1_655
Cs1 O5 3.232649 1_554
Cs1 O1 3.232649 1_554
Cs1 O2 3.280012 1_554
Cs2 O6 3.068187 1_465
Cs2 O7 3.117991 1_555
Cs2 O3 3.252396 1_455
Cs2 O3 3.252396 1_565
Cs2 O1 3.275559 1_455
Cs2 O5 3.275560 1_565
Cs2 O0 3.472826 1_565
Cs2 O4 3.472827 1_455
Cs3 O7 3.068187 1_646
Cs3 O6 3.117991 1_555
Cs3 O2 3.252396 1_655
Cs3 O2 3.252396 1_545
Cs3 O0 3.275559 1_656
Cs3 O4 3.275560 1_546
Cs3 O1 3.472826 1_545
Cs3 O5 3.472827 1_655
Li0 O5 1.872625 1_565
Li0 O1 1.872625 1_455
Li0 O7 2.066486 1_556
Li0 O2 2.250418 1_555
Li1 O4 1.872625 1_545
Li1 O0 1.872625 1_655
Li1 O6 2.066486 1_555
Li1 O3 2.250418 1_555
O0 Ta1 1.861817 1_555
O1 Ta0 1.861817 1_555
O2 Ta1 1.850074 1_556
O3 Ta0 1.850074 1_555
O4 Ta1 1.861818 1_555
O5 Ta0 1.861818 1_555
O6 Ta0 1.862273 1_555
O7 Ta1 1.862273 1_555
