# generated using pymatgen
data_CsGaGeO4
_symmetry_space_group_name_H-M   'P 1'
_cell_length_a   5.45652126
_cell_length_b   9.77732711
_cell_length_c   9.41760701
_cell_angle_alpha   90.00000000
_cell_angle_beta   90.00000000
_cell_angle_gamma   90.00000000
_symmetry_Int_Tables_number   1
_chemical_formula_structural   CsGaGeO4
_chemical_formula_sum   'Cs4 Ga4 Ge4 O16'
_cell_volume   502.43115446
_cell_formula_units_Z   4
loop_
 _symmetry_equiv_pos_site_id
 _symmetry_equiv_pos_as_xyz
  1  'x, y, z'
loop_
 _atom_site_type_symbol
 _atom_site_label
 _atom_site_symmetry_multiplicity
 _atom_site_fract_x
 _atom_site_fract_y
 _atom_site_fract_z
 _atom_site_occupancy
  Cs  Cs0  1  0.49115540  0.00172803  0.30315120  1
  Cs  Cs1  1  0.99115540  0.99827197  0.69684880  1
  Cs  Cs2  1  0.99115540  0.49827197  0.80315120  1
  Cs  Cs3  1  0.49115540  0.50172803  0.19684880  1
  Ga  Ga0  1  0.99682005  0.82410767  0.09187691  1
  Ga  Ga1  1  0.49682005  0.17589233  0.90812309  1
  Ga  Ga2  1  0.49682005  0.67589233  0.59187691  1
  Ga  Ga3  1  0.99682005  0.32410767  0.40812309  1
  Ge  Ge0  1  0.99796352  0.68358340  0.41439054  1
  Ge  Ge1  1  0.49796352  0.31641660  0.58560946  1
  Ge  Ge2  1  0.49796352  0.81641660  0.91439054  1
  Ge  Ge3  1  0.99796352  0.18358340  0.08560946  1
  O  O0  1  0.01361998  0.50881763  0.38211804  1
  O  O1  1  0.51361998  0.49118237  0.61788196  1
  O  O2  1  0.51361998  0.99118237  0.88211804  1
  O  O3  1  0.01361998  0.00881763  0.11788196  1
  O  O4  1  0.69676227  0.73825238  0.44766759  1
  O  O5  1  0.19676227  0.26174762  0.55233241  1
  O  O6  1  0.19676227  0.76174762  0.94766759  1
  O  O7  1  0.69676227  0.23825238  0.05233241  1
  O  O8  1  0.18164905  0.73357139  0.55902927  1
  O  O9  1  0.68164905  0.26642861  0.44097073  1
  O  O10  1  0.68164905  0.76642861  0.05902927  1
  O  O11  1  0.18164905  0.23357139  0.94097073  1
  O  O12  1  0.11503072  0.76083507  0.26176020  1
  O  O13  1  0.61503072  0.23916493  0.73823980  1
  O  O14  1  0.61503072  0.73916493  0.76176020  1
  O  O15  1  0.11503072  0.26083507  0.23823980  1
loop_
_geom_bond_atom_site_label_1
_geom_bond_atom_site_label_2
_geom_bond_distance
_geom_bond_site_symmetry_2
Cs0 O9 3.076218 1_555
Cs0 O4 3.122051 1_545
Cs0 O3 3.136668 1_555
Cs0 O12 3.148238 1_545
Cs0 O15 3.317191 1_555
Cs0 O3 3.343111 1_655
Cs0 O10 3.414496 1_545
Cs0 O7 3.490880 1_555
Cs1 O8 3.076218 1_655
Cs1 O5 3.122051 1_665
Cs1 O2 3.136668 1_555
Cs1 O13 3.148238 1_565
Cs1 O14 3.317191 1_555
Cs1 O2 3.343111 1_655
Cs1 O11 3.414496 1_665
Cs1 O6 3.490880 1_655
Cs2 O11 3.076218 1_655
Cs2 O6 3.122051 1_655
Cs2 O1 3.136668 1_555
Cs2 O14 3.148238 1_555
Cs2 O13 3.317191 1_555
Cs2 O1 3.343111 1_655
Cs2 O8 3.414496 1_655
Cs2 O5 3.490880 1_655
Cs3 O10 3.076218 1_555
Cs3 O7 3.122051 1_555
Cs3 O0 3.136668 1_555
Cs3 O15 3.148238 1_555
Cs3 O12 3.317191 1_555
Cs3 O0 3.343111 1_655
Cs3 O9 3.414496 1_555
Cs3 O4 3.490880 1_555
Ga0 O3 1.824804 1_665
Ga0 O12 1.832600 1_655
Ga0 O10 1.836090 1_555
Ga0 O6 1.845661 1_654
Ga1 O2 1.824804 1_545
Ga1 O13 1.832600 1_555
Ga1 O11 1.836090 1_555
Ga1 O7 1.845661 1_556
Ga2 O1 1.824804 1_555
Ga2 O14 1.832600 1_555
Ga2 O8 1.836090 1_555
Ga2 O4 1.845661 1_555
Ga3 O0 1.824804 1_655
Ga3 O15 1.832600 1_655
Ga3 O9 1.836090 1_555
Ga3 O5 1.845661 1_655
Ge0 O0 1.737662 1_655
Ge0 O12 1.744905 1_655
Ge0 O4 1.756431 1_555
Ge0 O8 1.760370 1_655
Ge1 O1 1.737662 1_555
Ge1 O13 1.744905 1_555
Ge1 O5 1.756431 1_555
Ge1 O9 1.760370 1_555
Ge2 O2 1.737662 1_555
Ge2 O14 1.744905 1_555
Ge2 O6 1.756431 1_555
Ge2 O10 1.760370 1_556
Ge3 O3 1.737662 1_655
Ge3 O15 1.744905 1_655
Ge3 O7 1.756431 1_555
Ge3 O11 1.760370 1_654
