# generated using pymatgen
data_K6MgSe4
_symmetry_space_group_name_H-M   'P 1'
_cell_length_a   10.30643017
_cell_length_b   10.30642978
_cell_length_c   7.95744930
_cell_angle_alpha   90.00000000
_cell_angle_beta   90.00000000
_cell_angle_gamma   120.00000124
_symmetry_Int_Tables_number   1
_chemical_formula_structural   K6MgSe4
_chemical_formula_sum   'K12 Mg2 Se8'
_cell_volume   732.01675337
_cell_formula_units_Z   2
loop_
 _symmetry_equiv_pos_site_id
 _symmetry_equiv_pos_as_xyz
  1  'x, y, z'
loop_
 _atom_site_type_symbol
 _atom_site_label
 _atom_site_symmetry_multiplicity
 _atom_site_fract_x
 _atom_site_fract_y
 _atom_site_fract_z
 _atom_site_occupancy
  K  K0  1  0.85266323  0.70532646  0.54486270  1
  K  K1  1  0.29467354  0.14733677  0.54486270  1
  K  K2  1  0.85266323  0.14733677  0.54486270  1
  K  K3  1  0.14733677  0.29467354  0.04486270  1
  K  K4  1  0.70532646  0.85266323  0.04486270  1
  K  K5  1  0.14733677  0.85266323  0.04486270  1
  K  K6  1  0.47135359  0.94270818  0.36606953  1
  K  K7  1  0.05729182  0.52864641  0.36606953  1
  K  K8  1  0.47135359  0.52864641  0.36606953  1
  K  K9  1  0.52864641  0.05729182  0.86606953  1
  K  K10  1  0.94270818  0.47135359  0.86606953  1
  K  K11  1  0.52864641  0.47135359  0.86606953  1
  Mg  Mg0  1  0.66666700  0.33333300  0.25074452  1
  Mg  Mg1  1  0.33333300  0.66666700  0.75074452  1
  Se  Se0  1  0.66666700  0.33333300  0.57979922  1
  Se  Se1  1  0.33333300  0.66666700  0.07979922  1
  Se  Se2  1  0.80595663  0.61191527  0.14878386  1
  Se  Se3  1  0.38808473  0.19404337  0.14878386  1
  Se  Se4  1  0.80595663  0.19404337  0.14878386  1
  Se  Se5  1  0.19404337  0.38808473  0.64878386  1
  Se  Se6  1  0.61191527  0.80595663  0.64878386  1
  Se  Se7  1  0.19404337  0.80595663  0.64878386  1
loop_
_geom_bond_atom_site_label_1
_geom_bond_atom_site_label_2
_geom_bond_distance
_geom_bond_site_symmetry_2
K0 Se6 3.238751 1_555
K0 Se7 3.238770 1_655
K0 Se2 3.260191 1_555
K0 Se0 3.331894 1_555
K1 Se5 3.238751 1_555
K1 Se7 3.238770 1_545
K1 Se3 3.260191 1_555
K1 Se0 3.331894 1_555
K2 Se6 3.238766 1_545
K2 Se5 3.238766 1_655
K2 Se4 3.260196 1_555
K2 Se0 3.331886 1_555
K3 Se3 3.238751 1_555
K3 Se4 3.238770 1_455
K3 Se5 3.260191 1_554
K3 Se1 3.331894 1_555
K4 Se2 3.238751 1_555
K4 Se4 3.238770 1_565
K4 Se6 3.260191 1_554
K4 Se1 3.331894 1_555
K5 Se3 3.238766 1_565
K5 Se2 3.238766 1_455
K5 Se7 3.260196 1_554
K5 Se1 3.331886 1_555
K6 Se7 3.344836 1_555
K6 Se6 3.344856 1_555
K6 Se1 3.355550 1_555
K6 Se4 3.557966 1_565
K6 Se3 3.557973 1_565
K7 Se7 3.344836 1_555
K7 Se5 3.344856 1_555
K7 Se1 3.355550 1_555
K7 Se4 3.557966 1_455
K7 Se2 3.557973 1_455
K8 Se6 3.344836 1_555
K8 Se5 3.344836 1_555
K8 Se1 3.355550 1_555
K8 Se3 3.557964 1_555
K8 Se2 3.557964 1_555
K9 Se4 3.344836 1_556
K9 Se3 3.344856 1_556
K9 Se0 3.355550 1_555
K9 Se7 3.557966 1_545
K9 Se6 3.557973 1_545
K10 Se4 3.344836 1_556
K10 Se2 3.344856 1_556
K10 Se0 3.355550 1_555
K10 Se7 3.557966 1_655
K10 Se5 3.557973 1_655
K11 Se3 3.344836 1_556
K11 Se2 3.344836 1_556
K11 Se0 3.355550 1_555
K11 Se6 3.557964 1_555
K11 Se5 3.557964 1_555
Mg0 Se4 2.615520 1_555
Mg0 Se2 2.615545 1_555
Mg0 Se3 2.615545 1_555
Mg0 Se0 2.618436 1_555
Mg1 Se7 2.615520 1_555
Mg1 Se5 2.615545 1_555
Mg1 Se6 2.615545 1_555
Mg1 Se1 2.618436 1_556
