# generated using pymatgen
data_CaHoMn2O6
_symmetry_space_group_name_H-M   'P 1'
_cell_length_a   5.32133400
_cell_length_b   5.52242300
_cell_length_c   7.60354000
_cell_angle_alpha   90.00000000
_cell_angle_beta   90.00000000
_cell_angle_gamma   90.00000000
_symmetry_Int_Tables_number   1
_chemical_formula_structural   CaHoMn2O6
_chemical_formula_sum   'Ca2 Ho2 Mn4 O12'
_cell_volume   223.44262404
_cell_formula_units_Z   2
loop_
 _symmetry_equiv_pos_site_id
 _symmetry_equiv_pos_as_xyz
  1  'x, y, z'
loop_
 _atom_site_type_symbol
 _atom_site_label
 _atom_site_symmetry_multiplicity
 _atom_site_fract_x
 _atom_site_fract_y
 _atom_site_fract_z
 _atom_site_occupancy
  Ca  Ca0  1  0.48803700  0.19737100  0.00000000  1
  Ca  Ca1  1  0.98803700  0.80262900  0.50000000  1
  Ho  Ho0  1  0.01791300  0.68513900  0.00000000  1
  Ho  Ho1  1  0.51791300  0.31486100  0.50000000  1
  Mn  Mn0  1  0.00050900  0.24605900  0.74995100  1
  Mn  Mn1  1  0.00050900  0.24605900  0.25004900  1
  Mn  Mn2  1  0.50050900  0.75394100  0.24995100  1
  Mn  Mn3  1  0.50050900  0.75394100  0.75004900  1
  O  O0  1  0.10347800  0.22543500  0.50000000  1
  O  O1  1  0.19642100  0.94731500  0.80120300  1
  O  O2  1  0.19642100  0.94731500  0.19879700  1
  O  O3  1  0.29028600  0.46146200  0.79738100  1
  O  O4  1  0.29028600  0.46146200  0.20261900  1
  O  O5  1  0.41614900  0.71869300  0.50000000  1
  O  O6  1  0.60347800  0.77456500  0.00000000  1
  O  O7  1  0.69642100  0.05268500  0.30120300  1
  O  O8  1  0.69642100  0.05268500  0.69879700  1
  O  O9  1  0.79028600  0.53853800  0.70261900  1
  O  O10  1  0.79028600  0.53853800  0.29738100  1
  O  O11  1  0.91614900  0.28130700  0.00000000  1
loop_
_geom_bond_atom_site_label_1
_geom_bond_atom_site_label_2
_geom_bond_distance
_geom_bond_site_symmetry_2
Ca0 O11 2.324806 1_555
Ca0 O4 2.368089 1_555
Ca0 O3 2.368089 1_554
Ca0 O6 2.414371 1_545
Ca0 O2 2.569004 1_545
Ca0 O1 2.569004 1_544
Ca0 O7 2.667040 1_555
Ca0 O8 2.667040 1_554
Ca1 O5 2.324806 1_655
Ca1 O9 2.368089 1_555
Ca1 O10 2.368089 1_555
Ca1 O0 2.414371 1_665
Ca1 O7 2.569004 1_565
Ca1 O8 2.569004 1_565
Ca1 O2 2.667040 1_655
Ca1 O1 2.667040 1_655
Ho0 O6 2.259965 1_455
Ho0 O11 2.294936 1_455
Ho0 O1 2.298562 1_554
Ho0 O2 2.298562 1_555
Ho0 O3 2.449501 1_554
Ho0 O4 2.449501 1_555
Ho0 O10 2.689875 1_455
Ho0 O9 2.689875 1_454
Ho1 O0 2.259965 1_555
Ho1 O5 2.294936 1_555
Ho1 O7 2.298562 1_555
Ho1 O8 2.298562 1_555
Ho1 O9 2.449501 1_555
Ho1 O10 2.449501 1_555
Ho1 O3 2.689875 1_555
Ho1 O4 2.689875 1_555
Mn0 O11 1.963209 1_456
Mn0 O8 1.977397 1_455
Mn0 O3 1.980617 1_555
Mn0 O0 1.981199 1_555
Mn0 O1 1.990102 1_545
Mn0 O9 1.997444 1_455
Mn1 O11 1.963209 1_455
Mn1 O7 1.977397 1_455
Mn1 O4 1.980617 1_555
Mn1 O0 1.981199 1_555
Mn1 O2 1.990102 1_545
Mn1 O10 1.997444 1_455
Mn2 O5 1.963209 1_555
Mn2 O2 1.977397 1_555
Mn2 O10 1.980617 1_555
Mn2 O6 1.981199 1_555
Mn2 O7 1.990102 1_565
Mn2 O4 1.997444 1_555
Mn3 O5 1.963209 1_555
Mn3 O1 1.977397 1_555
Mn3 O9 1.980617 1_555
Mn3 O6 1.981199 1_556
Mn3 O8 1.990102 1_565
Mn3 O3 1.997444 1_555
