# generated using pymatgen
data_Sr2Si4GeN8
_symmetry_space_group_name_H-M   'P 1'
_cell_length_a   5.77920105
_cell_length_b   6.88556335
_cell_length_c   9.42881023
_cell_angle_alpha   90.00000000
_cell_angle_beta   90.00000000
_cell_angle_gamma   88.86839185
_symmetry_Int_Tables_number   1
_chemical_formula_structural   Sr2Si4GeN8
_chemical_formula_sum   'Sr4 Si8 Ge2 N16'
_cell_volume   375.12798805
_cell_formula_units_Z   2
loop_
 _symmetry_equiv_pos_site_id
 _symmetry_equiv_pos_as_xyz
  1  'x, y, z'
loop_
 _atom_site_type_symbol
 _atom_site_label
 _atom_site_symmetry_multiplicity
 _atom_site_fract_x
 _atom_site_fract_y
 _atom_site_fract_z
 _atom_site_occupancy
  Sr  Sr0  1  0.48577603  0.11988398  0.12958395  1
  Sr  Sr1  1  0.01422397  0.88011602  0.62958395  1
  Sr  Sr2  1  0.49729061  0.12748721  0.50324912  1
  Sr  Sr3  1  0.00270939  0.87251279  0.00324912  1
  Si  Si0  1  0.49362647  0.59768108  0.60069193  1
  Si  Si1  1  0.00637353  0.40231892  0.10069193  1
  Si  Si2  1  0.49841870  0.57854399  0.04125714  1
  Si  Si3  1  0.00158130  0.42145601  0.54125714  1
  Si  Si4  1  0.49818422  0.93858915  0.82464824  1
  Si  Si5  1  0.00181578  0.06141085  0.32464824  1
  Si  Si6  1  0.25365574  0.33746971  0.82044544  1
  Si  Si7  1  0.24634426  0.66253029  0.32044544  1
  Ge  Ge0  1  0.75795836  0.32063359  0.81774217  1
  Ge  Ge1  1  0.74204164  0.67936641  0.31774217  1
  N  N0  1  0.48785697  0.57267216  0.22805538  1
  N  N1  1  0.01214303  0.42732784  0.72805538  1
  N  N2  1  0.46465482  0.82184043  0.66585401  1
  N  N3  1  0.03534518  0.17815957  0.16585401  1
  N  N4  1  0.49442265  0.41171500  0.72486228  1
  N  N5  1  0.00557735  0.58828500  0.22486228  1
  N  N6  1  0.75272361  0.56772061  0.50100653  1
  N  N7  1  0.74727639  0.43227939  0.00100653  1
  N  N8  1  0.25306067  0.54636888  0.48858551  1
  N  N9  1  0.24693933  0.45363112  0.98858551  1
  N  N10  1  0.75644192  0.06004822  0.81761077  1
  N  N11  1  0.74355808  0.93995178  0.31761077  1
  N  N12  1  0.26581658  0.09565769  0.84413191  1
  N  N13  1  0.23418342  0.90434231  0.34413191  1
  N  N14  1  0.99161840  0.19507484  0.47931661  1
  N  N15  1  0.50838160  0.80492516  0.97931661  1
loop_
_geom_bond_atom_site_label_1
_geom_bond_atom_site_label_2
_geom_bond_distance
_geom_bond_site_symmetry_2
Ge0 N10 1.794472 1_555
Ge0 N4 1.855297 1_555
Ge0 N1 1.858859 1_655
Ge0 N7 1.891763 1_556
Ge1 N11 1.794472 1_555
Ge1 N5 1.855297 1_655
Ge1 N0 1.858859 1_555
Ge1 N6 1.891763 1_555
N0 Si7 1.748054 1_555
N0 Si2 1.762834 1_555
N0 Sr0 3.253267 1_555
N1 Si6 1.748054 1_555
N1 Si3 1.762834 1_555
N1 Sr1 3.253267 1_555
N2 Si0 1.666612 1_555
N2 Si4 1.712207 1_555
N2 Sr2 2.613617 1_565
N2 Sr1 2.648206 1_555
N2 Sr1 3.227340 1_655
N3 Si1 1.666612 1_555
N3 Si5 1.712207 1_555
N3 Sr3 2.613617 1_545
N3 Sr0 2.648206 1_555
N3 Sr0 3.227340 1_455
N4 Si0 1.734976 1_555
N4 Si6 1.742921 1_555
N4 Sr2 2.862748 1_555
N5 Si1 1.734976 1_555
N5 Si7 1.742921 1_555
N5 Sr3 2.862748 1_555
N6 Si0 1.776493 1_555
N6 Si3 1.780313 1_655
N6 Sr1 2.917009 1_655
N7 Si1 1.776493 1_655
N7 Si2 1.780313 1_555
N7 Sr0 2.917009 1_555
N8 Si3 1.774262 1_555
N8 Si7 1.775778 1_555
N8 Si0 1.787294 1_555
N8 Sr1 2.971247 1_555
N8 Sr2 3.188941 1_555
N9 Si2 1.774262 1_556
N9 Si6 1.775778 1_555
N9 Si1 1.787294 1_556
N9 Sr0 2.971247 1_556
N9 Sr3 3.188941 1_556
N10 Si4 1.726485 1_545
N10 Sr3 2.585369 1_646
N10 Sr1 2.612384 1_645
N11 Si5 1.726485 1_665
N11 Sr2 2.585369 1_565
N11 Sr0 2.612384 1_565
N12 Si6 1.680018 1_555
N12 Si4 1.717386 1_545
N12 Sr3 2.648768 1_546
N12 Sr1 2.914489 1_545
N12 Sr0 2.982642 1_556
N13 Si7 1.680018 1_555
N13 Si5 1.717386 1_565
N13 Sr2 2.648768 1_565
N13 Sr0 2.914489 1_565
N13 Sr1 2.982642 1_555
N14 Si3 1.666639 1_655
N14 Si5 1.724857 1_655
N14 Sr1 2.591610 1_645
N14 Sr2 2.912289 1_555
N14 Sr2 2.958732 1_655
N15 Si2 1.666639 1_556
N15 Si4 1.724857 1_555
N15 Sr0 2.591610 1_566
N15 Sr3 2.912289 1_656
N15 Sr3 2.958732 1_556
