# generated using pymatgen
data_Ba3HfPbS6
_symmetry_space_group_name_H-M   'P 1'
_cell_length_a   8.51707561
_cell_length_b   8.51707462
_cell_length_c   8.51707575
_cell_angle_alpha   90.71512152
_cell_angle_beta   90.71512695
_cell_angle_gamma   90.71514484
_symmetry_Int_Tables_number   1
_chemical_formula_structural   Ba3HfPbS6
_chemical_formula_sum   'Ba6 Hf2 Pb2 S12'
_cell_volume   617.68793204
_cell_formula_units_Z   2
loop_
 _symmetry_equiv_pos_site_id
 _symmetry_equiv_pos_as_xyz
  1  'x, y, z'
loop_
 _atom_site_type_symbol
 _atom_site_label
 _atom_site_symmetry_multiplicity
 _atom_site_fract_x
 _atom_site_fract_y
 _atom_site_fract_z
 _atom_site_occupancy
  Ba  Ba0  1  0.87914043  0.62085957  0.25000000  1
  Ba  Ba1  1  0.25000000  0.87914043  0.62085957  1
  Ba  Ba2  1  0.62085957  0.25000000  0.87914043  1
  Ba  Ba3  1  0.75000000  0.12085957  0.37914043  1
  Ba  Ba4  1  0.37914043  0.75000000  0.12085957  1
  Ba  Ba5  1  0.12085957  0.37914043  0.75000000  1
  Hf  Hf0  1  0.50000000  0.50000000  0.50000000  1
  Hf  Hf1  1  0.00000000  0.00000000  0.00000000  1
  Pb  Pb0  1  0.25000000  0.25000000  0.25000000  1
  Pb  Pb1  1  0.75000000  0.75000000  0.75000000  1
  S  S0  1  0.21394314  0.55325068  0.42143403  1
  S  S1  1  0.42143403  0.21394314  0.55325068  1
  S  S2  1  0.55325068  0.42143403  0.21394314  1
  S  S3  1  0.92143403  0.05325068  0.71394314  1
  S  S4  1  0.71394314  0.92143403  0.05325068  1
  S  S5  1  0.05325068  0.71394314  0.92143403  1
  S  S6  1  0.78605686  0.44674932  0.57856597  1
  S  S7  1  0.57856597  0.78605686  0.44674932  1
  S  S8  1  0.44674932  0.57856597  0.78605686  1
  S  S9  1  0.07856597  0.94674932  0.28605686  1
  S  S10  1  0.28605686  0.07856597  0.94674932  1
  S  S11  1  0.94674932  0.28605686  0.07856597  1
loop_
_geom_bond_atom_site_label_1
_geom_bond_atom_site_label_2
_geom_bond_distance
_geom_bond_site_symmetry_2
Ba0 S9 3.245214 1_655
Ba0 S2 3.245214 1_555
Ba0 S11 3.248514 1_555
Ba0 S0 3.248514 1_655
Ba0 S6 3.284560 1_555
Ba0 S5 3.284560 1_654
Ba0 S4 3.388146 1_555
Ba0 S7 3.388146 1_555
Ba1 S0 3.245214 1_555
Ba1 S10 3.245214 1_565
Ba1 S1 3.248514 1_565
Ba1 S9 3.248514 1_555
Ba1 S7 3.284561 1_555
Ba1 S3 3.284561 1_465
Ba1 S5 3.388145 1_555
Ba1 S8 3.388146 1_555
Ba2 S11 3.245214 1_556
Ba2 S1 3.245214 1_555
Ba2 S10 3.248514 1_555
Ba2 S2 3.248514 1_556
Ba2 S4 3.284560 1_546
Ba2 S8 3.284560 1_555
Ba2 S6 3.388145 1_555
Ba2 S3 3.388146 1_555
Ba3 S6 3.245214 1_555
Ba3 S4 3.245214 1_545
Ba3 S7 3.248514 1_545
Ba3 S3 3.248514 1_555
Ba3 S1 3.284561 1_555
Ba3 S9 3.284561 1_645
Ba3 S11 3.388145 1_555
Ba3 S2 3.388146 1_555
Ba4 S5 3.245214 1_554
Ba4 S7 3.245214 1_555
Ba4 S4 3.248514 1_555
Ba4 S8 3.248514 1_554
Ba4 S10 3.284560 1_564
Ba4 S2 3.284560 1_555
Ba4 S0 3.388145 1_555
Ba4 S9 3.388146 1_555
Ba5 S3 3.245214 1_455
Ba5 S8 3.245214 1_555
Ba5 S5 3.248514 1_555
Ba5 S6 3.248514 1_455
Ba5 S0 3.284560 1_555
Ba5 S11 3.284560 1_456
Ba5 S10 3.388146 1_555
Ba5 S1 3.388146 1_555
Hf0 S7 2.565894 1_555
Hf0 S1 2.565894 1_555
Hf0 S8 2.565895 1_555
Hf0 S2 2.565895 1_555
Hf0 S6 2.565895 1_555
Hf0 S0 2.565895 1_555
Hf1 S4 2.565894 1_445
Hf1 S10 2.565894 1_554
Hf1 S11 2.565894 1_455
Hf1 S5 2.565894 1_544
Hf1 S9 2.565895 1_545
Hf1 S3 2.565895 1_454
Pb0 S9 2.972205 1_545
Pb0 S2 2.972205 1_555
Pb0 S0 2.972206 1_555
Pb0 S1 2.972206 1_555
Pb0 S11 2.972206 1_455
Pb0 S10 2.972206 1_554
Pb1 S3 2.972205 1_565
Pb1 S8 2.972205 1_555
Pb1 S6 2.972206 1_555
Pb1 S7 2.972206 1_555
Pb1 S5 2.972206 1_655
Pb1 S4 2.972206 1_556
