# generated using pymatgen
data_Nb3Si3MoOs2
_symmetry_space_group_name_H-M   'P 1'
_cell_length_a   7.51464628
_cell_length_b   7.51464543
_cell_length_c   7.51464634
_cell_angle_alpha   126.84315802
_cell_angle_beta   124.15454112
_cell_angle_gamma   80.73194254
_symmetry_Int_Tables_number   1
_chemical_formula_structural   Nb3Si3MoOs2
_chemical_formula_sum   'Nb6 Si6 Mo2 Os4'
_cell_volume   270.96942534
_cell_formula_units_Z   2
loop_
 _symmetry_equiv_pos_site_id
 _symmetry_equiv_pos_as_xyz
  1  'x, y, z'
loop_
 _atom_site_type_symbol
 _atom_site_label
 _atom_site_symmetry_multiplicity
 _atom_site_fract_x
 _atom_site_fract_y
 _atom_site_fract_z
 _atom_site_occupancy
  Nb  Nb0  1  0.55957214  0.09463421  0.03506407  1
  Nb  Nb1  1  0.44042786  0.47549192  0.53506407  1
  Nb  Nb2  1  0.96198755  0.49085396  0.02886641  1
  Nb  Nb3  1  0.03801245  0.06687886  0.52886641  1
  Nb  Nb4  1  0.75315852  0.91869884  0.66554032  1
  Nb  Nb5  1  0.24684148  0.91238181  0.16554032  1
  Si  Si0  1  0.78047254  0.54957997  0.26910743  1
  Si  Si1  1  0.21952746  0.48863489  0.76910743  1
  Si  Si2  1  0.33486563  0.81904066  0.49404214  1
  Si  Si3  1  0.66513437  0.15917550  0.48417403  1
  Si  Si4  1  0.82499852  0.81904066  0.98417403  1
  Si  Si5  1  0.17500148  0.15917550  0.99404214  1
  Mo  Mo0  1  0.50000000  0.25003826  0.75003826  1
  Mo  Mo1  1  0.00000000  0.25003826  0.25003826  1
  Os  Os0  1  0.16241690  0.74878709  0.65789815  1
  Os  Os1  1  0.83758310  0.49548125  0.58637019  1
  Os  Os2  1  0.59088794  0.74878709  0.08637019  1
  Os  Os3  1  0.40911206  0.49548125  0.15789815  1
loop_
_geom_bond_atom_site_label_1
_geom_bond_atom_site_label_2
_geom_bond_distance
_geom_bond_site_symmetry_2
Nb0 Si4 2.643812 1_544
Nb0 Si2 2.643821 1_544
Nb0 Si3 2.722005 1_555
Nb0 Si5 2.722017 1_554
Nb0 Os2 2.803781 1_545
Nb0 Os0 2.803787 1_544
Nb0 Os1 2.818557 1_555
Nb0 Os3 2.818561 1_555
Nb1 Si5 2.643821 1_554
Nb1 Si3 2.643825 1_555
Nb1 Si4 2.722016 1_555
Nb1 Si2 2.722016 1_555
Nb1 Os1 2.803795 1_555
Nb1 Os3 2.803799 1_555
Nb1 Os0 2.818552 1_555
Nb1 Os2 2.818554 1_556
Nb2 Si0 2.632528 1_555
Nb2 Si2 2.653679 1_655
Nb2 Si4 2.653682 1_554
Nb2 Si3 2.691860 1_554
Nb2 Si5 2.691861 1_654
Nb2 Os1 2.927430 1_554
Nb2 Os3 2.927437 1_655
Nb3 Si1 2.632527 1_555
Nb3 Si3 2.653675 1_455
Nb3 Si5 2.653682 1_555
Nb3 Si2 2.691855 1_545
Nb3 Si4 2.691861 1_444
Nb3 Os0 2.927429 1_545
Nb3 Os2 2.927434 1_445
Nb4 Si5 2.667767 1_665
Nb4 Si3 2.667768 1_565
Nb4 Si4 2.674759 1_555
Nb4 Si2 2.674766 1_555
Nb4 Si0 2.684076 1_555
Nb4 Os3 2.894086 1_555
Nb4 Os1 2.894088 1_555
Nb5 Si4 2.667767 1_454
Nb5 Si2 2.667769 1_555
Nb5 Si5 2.674758 1_564
Nb5 Si3 2.674765 1_565
Nb5 Si1 2.684076 1_554
Nb5 Os2 2.894081 1_555
Nb5 Os0 2.894088 1_554
Mo0 Si1 2.547792 1_555
Mo0 Si0 2.547792 1_556
Mo0 Si2 2.621547 1_545
Mo0 Si3 2.621552 1_555
Mo0 Nb1 2.811824 1_555
Mo0 Nb0 2.811836 1_556
Mo0 Nb4 2.855955 1_545
Mo0 Nb5 2.855956 1_545
Mo0 Os3 2.903007 1_556
Mo0 Os2 2.903013 1_556
Mo0 Nb2 3.004352 1_556
Mo0 Nb3 3.004352 1_555
Mo1 Si0 2.547792 1_455
Mo1 Si1 2.547792 1_555
Mo1 Si4 2.621545 1_444
Mo1 Si5 2.621545 1_554
Mo1 Nb1 2.811824 1_555
Mo1 Nb0 2.811828 1_455
Mo1 Nb5 2.855955 1_545
Mo1 Nb4 2.855956 1_444
Mo1 Os0 2.903012 1_555
Mo1 Os1 2.903013 1_455
Mo1 Nb2 3.004351 1_455
Mo1 Nb3 3.004352 1_555
Os0 Si0 2.395384 1_455
Os0 Si1 2.447596 1_555
Os0 Si2 2.503163 1_555
Os0 Si5 2.526608 1_565
Os1 Si1 2.395384 1_655
Os1 Si0 2.447597 1_555
Os1 Si3 2.503165 1_555
Os1 Si4 2.526608 1_555
Os2 Si0 2.395385 1_555
Os2 Si1 2.447591 1_554
Os2 Si4 2.503176 1_554
Os2 Si3 2.526604 1_565
Os3 Si1 2.395383 1_554
Os3 Si0 2.447589 1_555
Os3 Si5 2.503174 1_554
Os3 Si2 2.526618 1_555
