# generated using pymatgen
data_Zr10SiSb6Au
_symmetry_space_group_name_H-M   'P 1'
_cell_length_a   8.68118285
_cell_length_b   8.68118309
_cell_length_c   5.86750071
_cell_angle_alpha   90.00000000
_cell_angle_beta   90.00000000
_cell_angle_gamma   119.99999905
_symmetry_Int_Tables_number   1
_chemical_formula_structural   Zr10SiSb6Au
_chemical_formula_sum   'Zr10 Si1 Sb6 Au1'
_cell_volume   382.94958755
_cell_formula_units_Z   1
loop_
 _symmetry_equiv_pos_site_id
 _symmetry_equiv_pos_as_xyz
  1  'x, y, z'
loop_
 _atom_site_type_symbol
 _atom_site_label
 _atom_site_symmetry_multiplicity
 _atom_site_fract_x
 _atom_site_fract_y
 _atom_site_fract_z
 _atom_site_occupancy
  Zr  Zr0  1  0.26875962  0.00000000  0.26347674  1
  Zr  Zr1  1  0.26875962  0.26875962  0.73652326  1
  Zr  Zr2  1  1.00000000  0.73124038  0.73652326  1
  Zr  Zr3  1  0.00000000  0.26875962  0.26347674  1
  Zr  Zr4  1  0.73124038  0.73124038  0.26347674  1
  Zr  Zr5  1  0.73124038  0.00000000  0.73652326  1
  Zr  Zr6  1  0.33333300  0.66666700  0.00000000  1
  Zr  Zr7  1  0.66666700  0.33333300  0.50000000  1
  Zr  Zr8  1  0.66666700  0.33333300  0.00000000  1
  Zr  Zr9  1  0.33333300  0.66666700  0.50000000  1
  Si  Si0  1  0.00000000  0.00000000  0.50000000  1
  Sb  Sb0  1  0.61185042  0.00000000  0.24375024  1
  Sb  Sb1  1  0.61185042  0.61185042  0.75624976  1
  Sb  Sb2  1  0.00000000  0.38814958  0.75624976  1
  Sb  Sb3  1  1.00000000  0.61185042  0.24375024  1
  Sb  Sb4  1  0.38814958  0.38814958  0.24375024  1
  Sb  Sb5  1  0.38814958  0.00000000  0.75624976  1
  Au  Au0  1  0.00000000  0.00000000  0.00000000  1
loop_
_geom_bond_atom_site_label_1
_geom_bond_atom_site_label_2
_geom_bond_distance
_geom_bond_site_symmetry_2
Si0 Zr0 2.714698 1_555
Si0 Zr5 2.714698 1_455
Si0 Zr2 2.714698 1_445
Si0 Zr1 2.714698 1_555
Si0 Zr3 2.714698 1_555
Si0 Zr4 2.714698 1_445
Sb0 Zr0 2.980682 1_555
Sb0 Zr4 2.991555 1_545
Sb0 Zr3 2.991555 1_655
Sb0 Zr8 3.044428 1_555
Sb0 Zr6 3.044430 1_545
Sb0 Zr5 3.071498 1_555
Sb0 Zr7 3.079562 1_555
Sb0 Zr9 3.079565 1_545
Sb0 Zr5 3.151463 1_554
Sb1 Zr1 2.980682 1_555
Sb1 Zr2 2.991555 1_555
Sb1 Zr5 2.991555 1_565
Sb1 Zr6 3.044435 1_556
Sb1 Zr8 3.044435 1_556
Sb1 Zr4 3.071498 1_555
Sb1 Zr9 3.079570 1_555
Sb1 Zr7 3.079570 1_555
Sb1 Zr4 3.151463 1_556
Sb2 Zr2 2.980682 1_455
Sb2 Zr1 2.991555 1_555
Sb2 Zr5 2.991555 1_455
Sb2 Zr8 3.044427 1_456
Sb2 Zr6 3.044430 1_556
Sb2 Zr3 3.071498 1_555
Sb2 Zr7 3.079562 1_455
Sb2 Zr9 3.079565 1_555
Sb2 Zr3 3.151463 1_556
Sb3 Zr3 2.980682 1_655
Sb3 Zr4 2.991555 1_555
Sb3 Zr0 2.991555 1_665
Sb3 Zr6 3.044427 1_655
Sb3 Zr8 3.044430 1_555
Sb3 Zr2 3.071498 1_555
Sb3 Zr9 3.079562 1_655
Sb3 Zr7 3.079565 1_555
Sb3 Zr2 3.151463 1_554
Sb4 Zr4 2.980682 1_555
Sb4 Zr3 2.991555 1_555
Sb4 Zr0 2.991555 1_555
Sb4 Zr8 3.044435 1_555
Sb4 Zr6 3.044435 1_555
Sb4 Zr1 3.071498 1_555
Sb4 Zr7 3.079570 1_555
Sb4 Zr9 3.079570 1_555
Sb4 Zr1 3.151463 1_554
Sb5 Zr5 2.980682 1_555
Sb5 Zr2 2.991555 1_445
Sb5 Zr1 2.991555 1_555
Sb5 Zr6 3.044428 1_546
Sb5 Zr8 3.044430 1_556
Sb5 Zr0 3.071498 1_555
Sb5 Zr9 3.079562 1_545
Sb5 Zr7 3.079565 1_555
Sb5 Zr0 3.151463 1_556
Au0 Zr0 2.798849 1_555
Au0 Zr5 2.798849 1_454
Au0 Zr3 2.798849 1_555
Au0 Zr1 2.798849 1_554
Au0 Zr2 2.798849 1_444
Au0 Zr4 2.798849 1_445
Au0 Si0 2.933750 1_555
Au0 Si0 2.933750 1_554
