# generated using pymatgen
data_Ba2Ca(GaAs2)2
_symmetry_space_group_name_H-M   'P 1'
_cell_length_a   8.66462372
_cell_length_b   8.66462348
_cell_length_c   6.92553917
_cell_angle_alpha   91.69149702
_cell_angle_beta   91.69149369
_cell_angle_gamma   77.25416131
_symmetry_Int_Tables_number   1
_chemical_formula_structural   Ba2Ca(GaAs2)2
_chemical_formula_sum   'Ba4 Ca2 Ga4 As8'
_cell_volume   506.76541601
_cell_formula_units_Z   2
loop_
 _symmetry_equiv_pos_site_id
 _symmetry_equiv_pos_as_xyz
  1  'x, y, z'
loop_
 _atom_site_type_symbol
 _atom_site_label
 _atom_site_symmetry_multiplicity
 _atom_site_fract_x
 _atom_site_fract_y
 _atom_site_fract_z
 _atom_site_occupancy
  Ba  Ba0  1  0.74175796  0.00060515  0.94709171  1
  Ba  Ba1  1  0.99939485  0.25824204  0.55290829  1
  Ba  Ba2  1  0.25824204  0.99939485  0.05290829  1
  Ba  Ba3  1  0.00060515  0.74175796  0.44709171  1
  Ca  Ca0  1  0.60024653  0.39975347  0.25000000  1
  Ca  Ca1  1  0.39975347  0.60024653  0.75000000  1
  Ga  Ga0  1  0.57648644  0.82071492  0.42291151  1
  Ga  Ga1  1  0.17928508  0.42351356  0.07708849  1
  Ga  Ga2  1  0.42351356  0.17928508  0.57708849  1
  Ga  Ga3  1  0.82071492  0.57648644  0.92291151  1
  As  As0  1  0.69789767  0.06305418  0.45853665  1
  As  As1  1  0.93694582  0.30210233  0.04146335  1
  As  As2  1  0.30210233  0.93694582  0.54146335  1
  As  As3  1  0.06305418  0.69789767  0.95853665  1
  As  As4  1  0.57296879  0.71892157  0.08181736  1
  As  As5  1  0.28107843  0.42703121  0.41818264  1
  As  As6  1  0.42703121  0.28107843  0.91818264  1
  As  As7  1  0.71892157  0.57296879  0.58181736  1
loop_
_geom_bond_atom_site_label_1
_geom_bond_atom_site_label_2
_geom_bond_distance
_geom_bond_site_symmetry_2
As0 Ga2 2.520013 1_555
As0 Ga0 2.550569 1_545
As0 Ca0 3.224928 1_555
As0 Ba3 3.378325 1_645
As0 Ba0 3.439007 1_555
As0 Ba1 3.448955 1_555
As0 Ba0 3.585915 1_554
As1 Ga3 2.520013 1_554
As1 Ga1 2.550569 1_655
As1 Ca0 3.224928 1_555
As1 Ba2 3.378325 1_645
As1 Ba1 3.439007 1_554
As1 Ba0 3.448955 1_554
As1 Ba1 3.585915 1_555
As2 Ga0 2.520013 1_555
As2 Ga2 2.550569 1_565
As2 Ca1 3.224928 1_555
As2 Ba1 3.378325 1_465
As2 Ba2 3.439007 1_555
As2 Ba3 3.448955 1_555
As2 Ba2 3.585915 1_556
As3 Ga1 2.520013 1_556
As3 Ga3 2.550569 1_455
As3 Ca1 3.224928 1_555
As3 Ba0 3.378325 1_465
As3 Ba3 3.439007 1_556
As3 Ba2 3.448955 1_556
As3 Ba3 3.585915 1_555
As4 Ga3 2.496505 1_554
As4 Ga0 2.498748 1_555
As4 Ca1 2.988080 1_554
As4 Ca0 2.990960 1_555
As4 Ba2 3.233366 1_555
As4 Ba0 3.279702 1_564
As5 Ga2 2.496505 1_555
As5 Ga1 2.498748 1_555
As5 Ca1 2.988080 1_555
As5 Ca0 2.990960 1_555
As5 Ba3 3.233366 1_555
As5 Ba1 3.279702 1_455
As6 Ga1 2.496505 1_556
As6 Ga2 2.498748 1_555
As6 Ca0 2.988080 1_556
As6 Ca1 2.990960 1_555
As6 Ba0 3.233366 1_555
As6 Ba2 3.279702 1_546
As7 Ga0 2.496505 1_555
As7 Ga3 2.498748 1_555
As7 Ca0 2.988080 1_555
As7 Ca1 2.990960 1_555
As7 Ba1 3.233366 1_555
As7 Ba3 3.279702 1_655
