# generated using pymatgen
data_Ba3Si23
_symmetry_space_group_name_H-M   'P 1'
_cell_length_a   10.31063900
_cell_length_b   10.31063900
_cell_length_c   10.31063900
_cell_angle_alpha   90.00000000
_cell_angle_beta   90.00000000
_cell_angle_gamma   90.00000000
_symmetry_Int_Tables_number   1
_chemical_formula_structural   Ba3Si23
_chemical_formula_sum   'Ba6 Si46'
_cell_volume   1096.11657325
_cell_formula_units_Z   2
loop_
 _symmetry_equiv_pos_site_id
 _symmetry_equiv_pos_as_xyz
  1  'x, y, z'
loop_
 _atom_site_type_symbol
 _atom_site_label
 _atom_site_symmetry_multiplicity
 _atom_site_fract_x
 _atom_site_fract_y
 _atom_site_fract_z
 _atom_site_occupancy
  Ba  Ba0  1  0.25000000  0.50000000  0.00000000  1
  Ba  Ba1  1  0.75000000  0.50000000  0.00000000  1
  Ba  Ba2  1  0.50000000  0.00000000  0.25000000  1
  Ba  Ba3  1  0.50000000  0.00000000  0.75000000  1
  Ba  Ba4  1  0.00000000  0.75000000  0.50000000  1
  Ba  Ba5  1  0.00000000  0.25000000  0.50000000  1
  Si  Si0  1  0.25000000  0.00000000  0.50000000  1
  Si  Si1  1  0.75000000  0.00000000  0.50000000  1
  Si  Si2  1  0.00000000  0.50000000  0.25000000  1
  Si  Si3  1  0.00000000  0.50000000  0.75000000  1
  Si  Si4  1  0.50000000  0.75000000  0.00000000  1
  Si  Si5  1  0.50000000  0.25000000  0.00000000  1
  Si  Si6  1  0.18425000  0.18425000  0.18425000  1
  Si  Si7  1  0.68425000  0.31575000  0.68425000  1
  Si  Si8  1  0.68425000  0.68425000  0.31575000  1
  Si  Si9  1  0.31575000  0.68425000  0.68425000  1
  Si  Si10  1  0.81575000  0.81575000  0.18425000  1
  Si  Si11  1  0.18425000  0.81575000  0.81575000  1
  Si  Si12  1  0.81575000  0.18425000  0.81575000  1
  Si  Si13  1  0.31575000  0.31575000  0.31575000  1
  Si  Si14  1  0.81575000  0.81575000  0.81575000  1
  Si  Si15  1  0.31575000  0.68425000  0.31575000  1
  Si  Si16  1  0.31575000  0.31575000  0.68425000  1
  Si  Si17  1  0.68425000  0.31575000  0.31575000  1
  Si  Si18  1  0.18425000  0.18425000  0.81575000  1
  Si  Si19  1  0.81575000  0.18425000  0.18425000  1
  Si  Si20  1  0.18425000  0.81575000  0.18425000  1
  Si  Si21  1  0.68425000  0.68425000  0.68425000  1
  Si  Si22  1  0.00000000  0.30443000  0.12055200  1
  Si  Si23  1  0.50000000  0.37944800  0.80443000  1
  Si  Si24  1  0.50000000  0.62055200  0.19557000  1
  Si  Si25  1  0.62055200  0.80443000  0.50000000  1
  Si  Si26  1  0.37944800  0.80443000  0.50000000  1
  Si  Si27  1  0.19557000  0.50000000  0.62055200  1
  Si  Si28  1  0.80443000  0.50000000  0.62055200  1
  Si  Si29  1  0.12055200  0.00000000  0.30443000  1
  Si  Si30  1  0.30443000  0.12055200  0.00000000  1
  Si  Si31  1  0.69557000  0.87944800  0.00000000  1
  Si  Si32  1  0.12055200  0.00000000  0.69557000  1
  Si  Si33  1  0.69557000  0.12055200  0.00000000  1
  Si  Si34  1  0.87944800  0.00000000  0.30443000  1
  Si  Si35  1  0.87944800  0.00000000  0.69557000  1
  Si  Si36  1  0.30443000  0.87944800  0.00000000  1
  Si  Si37  1  0.00000000  0.69557000  0.87944800  1
  Si  Si38  1  0.00000000  0.30443000  0.87944800  1
  Si  Si39  1  0.00000000  0.69557000  0.12055200  1
  Si  Si40  1  0.80443000  0.50000000  0.37944800  1
  Si  Si41  1  0.19557000  0.50000000  0.37944800  1
  Si  Si42  1  0.62055200  0.19557000  0.50000000  1
  Si  Si43  1  0.37944800  0.19557000  0.50000000  1
  Si  Si44  1  0.50000000  0.62055200  0.80443000  1
  Si  Si45  1  0.50000000  0.37944800  0.19557000  1
loop_
_geom_bond_atom_site_label_1
_geom_bond_atom_site_label_2
_geom_bond_distance
_geom_bond_site_symmetry_2
Ba0 Si37 3.500768 1_554
Ba0 Si38 3.500768 1_554
Ba0 Si24 3.500768 1_555
Ba0 Si23 3.500768 1_554
Ba0 Si45 3.500768 1_555
Ba0 Si44 3.500768 1_554
Ba0 Si22 3.500768 1_555
Ba0 Si39 3.500768 1_555
Ba0 Si4 3.645361 1_555
Ba0 Si3 3.645361 1_554
Ba0 Si5 3.645361 1_555
Ba0 Si2 3.645361 1_555
Ba0 Si6 3.829805 1_555
Ba0 Si20 3.829805 1_555
Ba0 Si16 3.829805 1_554
Ba0 Si18 3.829805 1_554
Ba0 Si11 3.829805 1_554
Ba0 Si15 3.829805 1_555
Ba0 Si9 3.829805 1_554
Ba0 Si13 3.829805 1_555
Ba0 Si27 3.952398 1_554
Ba0 Si41 3.952398 1_555
Ba0 Si30 3.952398 1_555
Ba0 Si36 3.952398 1_555
Ba1 Si37 3.500768 1_654
Ba1 Si24 3.500768 1_555
Ba1 Si23 3.500768 1_554
Ba1 Si45 3.500768 1_555
Ba1 Si44 3.500768 1_554
Ba1 Si38 3.500768 1_654
Ba1 Si39 3.500768 1_655
Ba1 Si22 3.500768 1_655
Ba1 Si2 3.645361 1_655
Ba1 Si4 3.645361 1_555
Ba1 Si3 3.645361 1_654
Ba1 Si5 3.645361 1_555
Ba1 Si10 3.829805 1_555
Ba1 Si19 3.829805 1_555
Ba1 Si8 3.829805 1_555
Ba1 Si14 3.829805 1_554
Ba1 Si17 3.829805 1_555
Ba1 Si21 3.829805 1_554
Ba1 Si12 3.829805 1_554
Ba1 Si7 3.829805 1_554
Ba1 Si33 3.952398 1_555
Ba1 Si28 3.952398 1_554
Ba1 Si31 3.952398 1_555
Ba1 Si40 3.952398 1_555
Ba2 Si43 3.500768 1_555
Ba2 Si26 3.500768 1_545
Ba2 Si42 3.500768 1_555
Ba2 Si25 3.500768 1_545
Ba2 Si33 3.500768 1_555
Ba2 Si31 3.500768 1_545
Ba2 Si30 3.500768 1_555
Ba2 Si36 3.500768 1_545
Ba2 Si0 3.645361 1_555
Ba2 Si1 3.645361 1_555
Ba2 Si5 3.645361 1_555
Ba2 Si4 3.645361 1_545
Ba2 Si6 3.829805 1_555
Ba2 Si19 3.829805 1_555
Ba2 Si8 3.829805 1_545
Ba2 Si20 3.829805 1_545
Ba2 Si17 3.829805 1_555
Ba2 Si15 3.829805 1_545
Ba2 Si10 3.829805 1_545
Ba2 Si13 3.829805 1_555
Ba2 Si45 3.952398 1_555
Ba2 Si29 3.952398 1_555
Ba2 Si34 3.952398 1_555
Ba2 Si24 3.952398 1_545
Ba3 Si43 3.500768 1_555
Ba3 Si26 3.500768 1_545
Ba3 Si42 3.500768 1_555
Ba3 Si25 3.500768 1_545
Ba3 Si31 3.500768 1_546
Ba3 Si30 3.500768 1_556
Ba3 Si33 3.500768 1_556
Ba3 Si36 3.500768 1_546
Ba3 Si0 3.645361 1_555
Ba3 Si1 3.645361 1_555
Ba3 Si4 3.645361 1_546
Ba3 Si5 3.645361 1_556
Ba3 Si18 3.829805 1_555
Ba3 Si12 3.829805 1_555
Ba3 Si9 3.829805 1_545
Ba3 Si21 3.829805 1_545
Ba3 Si11 3.829805 1_545
Ba3 Si7 3.829805 1_555
Ba3 Si16 3.829805 1_555
Ba3 Si14 3.829805 1_545
Ba3 Si35 3.952398 1_555
Ba3 Si23 3.952398 1_555
Ba3 Si32 3.952398 1_555
Ba3 Si44 3.952398 1_545
Ba4 Si41 3.500768 1_555
Ba4 Si32 3.500768 1_565
Ba4 Si34 3.500768 1_465
Ba4 Si35 3.500768 1_465
Ba4 Si40 3.500768 1_455
Ba4 Si27 3.500768 1_555
Ba4 Si29 3.500768 1_565
Ba4 Si28 3.500768 1_455
Ba4 Si0 3.645361 1_565
Ba4 Si2 3.645361 1_555
Ba4 Si3 3.645361 1_555
Ba4 Si1 3.645361 1_465
Ba4 Si11 3.829805 1_555
Ba4 Si20 3.829805 1_555
Ba4 Si10 3.829805 1_455
Ba4 Si9 3.829805 1_555
Ba4 Si21 3.829805 1_455
Ba4 Si8 3.829805 1_455
Ba4 Si15 3.829805 1_555
Ba4 Si14 3.829805 1_455
Ba4 Si25 3.952398 1_455
Ba4 Si26 3.952398 1_555
Ba4 Si39 3.952398 1_555
Ba4 Si37 3.952398 1_555
Ba5 Si35 3.500768 1_455
Ba5 Si34 3.500768 1_455
Ba5 Si41 3.500768 1_555
Ba5 Si40 3.500768 1_455
Ba5 Si27 3.500768 1_555
Ba5 Si29 3.500768 1_555
Ba5 Si32 3.500768 1_555
Ba5 Si28 3.500768 1_455
Ba5 Si0 3.645361 1_555
Ba5 Si1 3.645361 1_455
Ba5 Si2 3.645361 1_555
Ba5 Si3 3.645361 1_555
Ba5 Si6 3.829805 1_555
Ba5 Si18 3.829805 1_555
Ba5 Si12 3.829805 1_455
Ba5 Si19 3.829805 1_455
Ba5 Si16 3.829805 1_555
Ba5 Si17 3.829805 1_455
Ba5 Si7 3.829805 1_455
Ba5 Si13 3.829805 1_555
Ba5 Si43 3.952398 1_555
Ba5 Si22 3.952398 1_555
Ba5 Si38 3.952398 1_555
Ba5 Si42 3.952398 1_455
Si0 Si43 2.418156 1_555
Si0 Si29 2.418156 1_555
Si0 Si32 2.418156 1_555
Si0 Si26 2.418156 1_545
Si1 Si42 2.418156 1_555
Si1 Si34 2.418156 1_555
Si1 Si25 2.418156 1_545
Si1 Si35 2.418156 1_555
Si2 Si41 2.418156 1_555
Si2 Si22 2.418156 1_555
Si2 Si40 2.418156 1_455
Si2 Si39 2.418156 1_555
Si3 Si38 2.418156 1_555
Si3 Si37 2.418156 1_555
Si4 Si44 2.418156 1_554
Si10 Si8 2.348399 1_555
Si10 Si31 2.361310 1_555
Si10 Si39 2.361310 1_655
Si10 Si34 2.361310 1_565
Si11 Si9 2.348399 1_555
Si11 Si37 2.361310 1_555
Si11 Si32 2.361310 1_565
Si11 Si36 2.361310 1_556
Si12 Si7 2.348399 1_555
Si12 Si35 2.361310 1_555
Si12 Si38 2.361310 1_655
Si12 Si33 2.361310 1_556
Si13 Si6 2.348399 1_555
Si13 Si41 2.361310 1_555
Si13 Si45 2.361310 1_555
Si13 Si43 2.361310 1_555
Si14 Si21 2.348399 1_555
Si14 Si31 2.361310 1_556
Si14 Si37 2.361310 1_655
Si14 Si35 2.361310 1_565
Si15 Si20 2.348399 1_555
Si15 Si41 2.361310 1_555
Si15 Si26 2.361310 1_555
Si15 Si24 2.361310 1_555
Si16 Si18 2.348399 1_555
Si16 Si23 2.361310 1_555
Si16 Si43 2.361310 1_555
Si16 Si27 2.361310 1_555
Si17 Si19 2.348399 1_555
Si17 Si42 2.361310 1_555
Si17 Si45 2.361310 1_555
Si17 Si40 2.361310 1_555
Si18 Si32 2.361310 1_555
Si18 Si38 2.361310 1_555
Si18 Si30 2.361310 1_556
Si19 Si34 2.361310 1_555
Si19 Si33 2.361310 1_555
Si19 Si22 2.361310 1_655
Si20 Si39 2.361310 1_555
Si20 Si36 2.361310 1_555
Si20 Si29 2.361310 1_565
Si21 Si44 2.361310 1_555
Si21 Si25 2.361310 1_555
Si21 Si28 2.361310 1_555
Si22 Si6 2.361310 1_555
Si22 Si38 2.485936 1_554
Si23 Si7 2.361310 1_555
Si23 Si5 2.418156 1_556
Si23 Si44 2.485936 1_555
Si24 Si8 2.361310 1_555
Si24 Si4 2.418156 1_555
Si24 Si45 2.485936 1_555
Si25 Si8 2.361310 1_555
Si25 Si26 2.485936 1_555
Si26 Si9 2.361310 1_555
Si27 Si9 2.361310 1_555
Si27 Si3 2.418156 1_555
Si27 Si41 2.485936 1_555
Si28 Si7 2.361310 1_555
Si28 Si3 2.418156 1_655
Si28 Si40 2.485936 1_555
Si29 Si6 2.361310 1_555
Si29 Si34 2.485936 1_455
Si30 Si6 2.361310 1_555
Si30 Si5 2.418156 1_555
Si30 Si36 2.485936 1_545
Si31 Si4 2.418156 1_555
Si31 Si33 2.485936 1_565
Si32 Si35 2.485936 1_455
Si33 Si5 2.418156 1_555
Si36 Si4 2.418156 1_555
Si37 Si39 2.485936 1_556
Si40 Si8 2.361310 1_555
Si42 Si7 2.361310 1_555
Si42 Si43 2.485936 1_555
Si44 Si9 2.361310 1_555
Si45 Si5 2.418156 1_555
