# generated using pymatgen
data_MnVIr3S8
_symmetry_space_group_name_H-M   'P 1'
_cell_length_a   6.75165846
_cell_length_b   6.75165838
_cell_length_c   6.75165870
_cell_angle_alpha   64.00713339
_cell_angle_beta   64.00713116
_cell_angle_gamma   64.00713140
_symmetry_Int_Tables_number   1
_chemical_formula_structural   MnVIr3S8
_chemical_formula_sum   'Mn1 V1 Ir3 S8'
_cell_volume   236.83383723
_cell_formula_units_Z   1
loop_
 _symmetry_equiv_pos_site_id
 _symmetry_equiv_pos_as_xyz
  1  'x, y, z'
loop_
 _atom_site_type_symbol
 _atom_site_label
 _atom_site_symmetry_multiplicity
 _atom_site_fract_x
 _atom_site_fract_y
 _atom_site_fract_z
 _atom_site_occupancy
  Mn  Mn0  1  0.98260693  0.98260693  0.98260693  1
  V  V0  1  0.40783134  0.40783134  0.40783134  1
  Ir  Ir0  1  0.86240032  0.37357639  0.37357639  1
  Ir  Ir1  1  0.37357639  0.86240032  0.37357639  1
  Ir  Ir2  1  0.37357639  0.37357639  0.86240032  1
  S  S0  1  0.12983120  0.12983120  0.12983120  1
  S  S1  1  0.57660873  0.14582906  0.14582906  1
  S  S2  1  0.14582906  0.57660873  0.14582906  1
  S  S3  1  0.14582906  0.14582906  0.57660873  1
  S  S4  1  0.61472414  0.61472414  0.61472414  1
  S  S5  1  0.13132849  0.62792997  0.62792997  1
  S  S6  1  0.62792997  0.13132849  0.62792997  1
  S  S7  1  0.62792997  0.62792997  0.13132849  1
loop_
_geom_bond_atom_site_label_1
_geom_bond_atom_site_label_2
_geom_bond_distance
_geom_bond_site_symmetry_2
Mn0 S0 2.358451 1_666
Mn0 S1 2.389926 1_566
Mn0 S2 2.389926 1_656
Mn0 S3 2.389926 1_665
Ir0 S6 2.356900 1_555
Ir0 S7 2.356900 1_555
Ir0 S4 2.376705 1_555
Ir0 S2 2.403748 1_655
Ir0 S3 2.403748 1_655
Ir0 S0 2.416928 1_655
Ir1 S7 2.356900 1_555
Ir1 S5 2.356900 1_555
Ir1 S4 2.376705 1_555
Ir1 S3 2.403748 1_565
Ir1 S1 2.403748 1_565
Ir1 S0 2.416929 1_565
Ir2 S6 2.356900 1_555
Ir2 S5 2.356900 1_555
Ir2 S4 2.376705 1_555
Ir2 S2 2.403748 1_556
Ir2 S1 2.403748 1_556
Ir2 S0 2.416929 1_556
S1 V0 2.601147 1_555
S2 V0 2.601147 1_555
S3 V0 2.601147 1_555
S5 V0 2.230256 1_555
S6 V0 2.230256 1_555
S7 V0 2.230256 1_555
