# generated using pymatgen
data_Ga2NiO4
_symmetry_space_group_name_H-M   'P 1'
_cell_length_a   5.79027870
_cell_length_b   5.91440374
_cell_length_c   8.26409598
_cell_angle_alpha   90.00028131
_cell_angle_beta   89.99999845
_cell_angle_gamma   90.00001011
_symmetry_Int_Tables_number   1
_chemical_formula_structural   Ga2NiO4
_chemical_formula_sum   'Ga8 Ni4 O16'
_cell_volume   283.01261117
_cell_formula_units_Z   4
loop_
 _symmetry_equiv_pos_site_id
 _symmetry_equiv_pos_as_xyz
  1  'x, y, z'
loop_
 _atom_site_type_symbol
 _atom_site_label
 _atom_site_symmetry_multiplicity
 _atom_site_fract_x
 _atom_site_fract_y
 _atom_site_fract_z
 _atom_site_occupancy
  Ga  Ga0  1  -0.00000017  -0.00000075  0.99268490  1
  Ga  Ga1  1  0.49999985  0.49999942  0.49268420  1
  Ga  Ga2  1  -0.00000025  0.50000038  0.25732250  1
  Ga  Ga3  1  0.49999981  0.00000090  0.75732149  1
  Ga  Ga4  1  0.00000051  0.75000213  0.62500244  1
  Ga  Ga5  1  0.50000034  0.25000152  0.12500329  1
  Ga  Ga6  1  0.00000031  0.24999779  0.62500251  1
  Ga  Ga7  1  0.50000009  0.74999866  0.12500326  1
  Ni  Ni0  1  0.74999824  0.50000102  0.87499027  1
  Ni  Ni1  1  0.25000140  0.49999935  0.87499115  1
  Ni  Ni2  1  0.24999811  0.00000087  0.37499037  1
  Ni  Ni3  1  0.75000130  -0.00000151  0.37499132  1
  O  O0  1  -0.00000031  0.75772374  0.38750098  1
  O  O1  1  0.49999954  0.25772341  0.88750104  1
  O  O2  1  0.00000037  0.24227839  0.38750124  1
  O  O3  1  0.50000050  0.74228020  0.88750143  1
  O  O4  1  0.00000050  0.25775301  0.86252642  1
  O  O5  1  0.50000039  0.75775395  0.36252674  1
  O  O6  1  -0.00000032  0.74224399  0.86252672  1
  O  O7  1  0.49999972  0.24224313  0.36252705  1
  O  O8  1  0.23495022  -0.00000080  0.62373923  1
  O  O9  1  0.73495007  0.49999924  0.12374052  1
  O  O10  1  0.76504994  -0.00000066  0.62373899  1
  O  O11  1  0.26504978  0.49999936  0.12374029  1
  O  O12  1  0.23492754  0.50000104  0.62623495  1
  O  O13  1  0.73492750  0.00000094  0.12623612  1
  O  O14  1  0.76507265  0.50000058  0.62623519  1
  O  O15  1  0.26507238  0.00000070  0.12623639  1
loop_
_geom_bond_atom_site_label_1
_geom_bond_atom_site_label_2
_geom_bond_distance
_geom_bond_site_symmetry_2
Ga0 O6 1.865741 1_545
Ga0 O4 1.865744 1_555
Ga0 O13 1.890463 1_456
Ga0 O15 1.890466 1_556
Ga1 O7 1.865741 1_555
Ga1 O5 1.865743 1_555
Ga1 O12 1.890461 1_555
Ga1 O14 1.890465 1_555
Ga2 O0 1.865684 1_555
Ga2 O2 1.865687 1_555
Ga2 O9 1.890505 1_455
Ga2 O11 1.890508 1_555
Ga3 O1 1.865685 1_555
Ga3 O3 1.865686 1_545
Ga3 O8 1.890506 1_555
Ga3 O10 1.890510 1_555
Ga4 O0 1.963266 1_555
Ga4 O6 1.963460 1_555
Ga4 O12 2.009174 1_555
Ga4 O14 2.009179 1_455
Ga4 O8 2.009247 1_565
Ga4 O10 2.009251 1_465
Ga5 O1 1.963273 1_554
Ga5 O7 1.963456 1_555
Ga5 O13 2.009173 1_555
Ga5 O15 2.009176 1_555
Ga5 O9 2.009250 1_555
Ga5 O11 2.009254 1_555
Ga6 O2 1.963264 1_555
Ga6 O4 1.963456 1_555
Ga6 O12 2.009184 1_555
Ga6 O14 2.009184 1_455
Ga6 O8 2.009254 1_555
Ga6 O10 2.009255 1_455
Ga7 O3 1.963268 1_554
Ga7 O5 1.963452 1_555
Ga7 O13 2.009181 1_565
Ga7 O15 2.009181 1_565
Ga7 O9 2.009258 1_555
Ga7 O11 2.009259 1_555
Ni0 O6 2.039310 1_655
Ni0 O4 2.039334 1_655
Ni0 O1 2.039463 1_555
Ni0 O3 2.039465 1_555
Ni0 O9 2.057542 1_556
Ni0 O14 2.057588 1_555
Ni1 O6 2.039319 1_555
Ni1 O4 2.039322 1_555
Ni1 O1 2.039453 1_555
Ni1 O3 2.039477 1_555
Ni1 O11 2.057533 1_556
Ni1 O12 2.057597 1_555
Ni2 O7 2.039308 1_555
Ni2 O5 2.039330 1_545
Ni2 O2 2.039458 1_555
Ni2 O0 2.039459 1_545
Ni2 O8 2.057530 1_555
Ni2 O15 2.057579 1_555
Ni3 O5 2.039314 1_545
Ni3 O7 2.039318 1_555
Ni3 O0 2.039449 1_645
Ni3 O2 2.039473 1_655
Ni3 O10 2.057521 1_555
Ni3 O13 2.057589 1_555
