# generated using pymatgen
data_Ca11Ga7
_symmetry_space_group_name_H-M   'P 1'
_cell_length_a   11.34206976
_cell_length_b   11.34206963
_cell_length_c   11.34206934
_cell_angle_alpha   60.00000084
_cell_angle_beta   60.00000124
_cell_angle_gamma   60.00000041
_symmetry_Int_Tables_number   1
_chemical_formula_structural   Ca11Ga7
_chemical_formula_sum   'Ca22 Ga14'
_cell_volume   1031.72019528
_cell_formula_units_Z   2
loop_
 _symmetry_equiv_pos_site_id
 _symmetry_equiv_pos_as_xyz
  1  'x, y, z'
loop_
 _atom_site_type_symbol
 _atom_site_label
 _atom_site_symmetry_multiplicity
 _atom_site_fract_x
 _atom_site_fract_y
 _atom_site_fract_z
 _atom_site_occupancy
  Ca  Ca0  1  0.00000000  -0.00000000  0.00000000  1
  Ca  Ca1  1  0.50000000  0.50000000  0.50000000  1
  Ca  Ca2  1  0.12973859  0.12973859  0.12973859  1
  Ca  Ca3  1  0.87026141  0.87026141  0.38921476  1
  Ca  Ca4  1  0.38921476  0.87026141  0.87026141  1
  Ca  Ca5  1  0.87026141  0.38921476  0.87026141  1
  Ca  Ca6  1  0.61078524  0.12973859  0.12973859  1
  Ca  Ca7  1  0.12973859  0.61078524  0.12973859  1
  Ca  Ca8  1  0.12973859  0.12973859  0.61078524  1
  Ca  Ca9  1  0.87026141  0.87026141  0.87026141  1
  Ca  Ca10  1  0.83584304  0.50000000  0.50000000  1
  Ca  Ca11  1  0.50000000  0.50000000  0.83584304  1
  Ca  Ca12  1  0.83584304  0.16415696  0.50000000  1
  Ca  Ca13  1  0.50000000  0.83584304  0.16415696  1
  Ca  Ca14  1  0.50000000  0.16415696  0.83584304  1
  Ca  Ca15  1  0.50000000  0.83584304  0.50000000  1
  Ca  Ca16  1  0.83584304  0.50000000  0.16415696  1
  Ca  Ca17  1  0.16415696  0.83584304  0.50000000  1
  Ca  Ca18  1  0.50000000  0.16415696  0.50000000  1
  Ca  Ca19  1  0.16415696  0.50000000  0.83584304  1
  Ca  Ca20  1  0.50000000  0.50000000  0.16415696  1
  Ca  Ca21  1  0.16415696  0.50000000  0.50000000  1
  Ga  Ga0  1  0.78004758  0.21995242  0.21995242  1
  Ga  Ga1  1  0.78004758  0.78004758  0.21995242  1
  Ga  Ga2  1  0.21995242  0.21995242  0.78004758  1
  Ga  Ga3  1  0.78004758  0.21995242  0.78004758  1
  Ga  Ga4  1  0.21995242  0.78004758  0.21995242  1
  Ga  Ga5  1  0.21995242  0.78004758  0.78004758  1
  Ga  Ga6  1  0.30871715  0.30871715  0.30871715  1
  Ga  Ga7  1  0.69128185  0.69128185  0.92615245  1
  Ga  Ga8  1  0.92615245  0.69128185  0.69128185  1
  Ga  Ga9  1  0.69128185  0.92615245  0.69128185  1
  Ga  Ga10  1  0.07384755  0.30871715  0.30871715  1
  Ga  Ga11  1  0.30871715  0.07384755  0.30871715  1
  Ga  Ga12  1  0.30871715  0.30871715  0.07384755  1
  Ga  Ga13  1  0.69128185  0.69128185  0.69128185  1
loop_
_geom_bond_atom_site_label_1
_geom_bond_atom_site_label_2
_geom_bond_distance
_geom_bond_site_symmetry_2
Ca0 Ga0 3.528061 1_455
Ca0 Ga4 3.528061 1_545
Ca0 Ga5 3.528061 1_544
Ca0 Ga3 3.528061 1_454
Ca0 Ga2 3.528061 1_554
Ca0 Ga1 3.528061 1_445
Ca1 Ca20 3.809155 1_555
Ca1 Ca11 3.809155 1_555
Ca1 Ca18 3.809155 1_555
Ca1 Ca15 3.809155 1_555
Ca1 Ca13 3.809155 1_555
Ca1 Ca14 3.809155 1_555
Ca1 Ca16 3.809155 1_555
Ca1 Ca10 3.809155 1_555
Ca1 Ca21 3.809155 1_555
Ca1 Ca19 3.809155 1_555
Ca1 Ca12 3.809155 1_555
Ca1 Ca17 3.809155 1_555
Ca2 Ga10 3.192288 1_555
Ca2 Ga11 3.192288 1_555
Ca2 Ga12 3.192288 1_555
Ca2 Ga2 3.279515 1_554
Ca2 Ga4 3.279515 1_545
Ca2 Ga0 3.279515 1_455
Ca3 Ga8 3.192297 1_555
Ca3 Ga9 3.192297 1_555
Ca3 Ga13 3.192302 1_555
Ca3 Ga1 3.279505 1_555
Ca3 Ga0 3.279514 1_565
Ca3 Ga4 3.279514 1_655
Ca4 Ga7 3.192297 1_555
Ca4 Ga9 3.192298 1_555
Ca4 Ga13 3.192302 1_555
Ca4 Ga5 3.279505 1_555
Ca4 Ga4 3.279514 1_556
Ca4 Ga2 3.279514 1_565
Ca5 Ga7 3.192297 1_555
Ca5 Ga8 3.192297 1_555
Ca5 Ga13 3.192302 1_555
Ca5 Ga3 3.279505 1_555
Ca5 Ga0 3.279514 1_556
Ca5 Ga2 3.279514 1_655
Ca6 Ga6 3.192298 1_555
Ca6 Ga12 3.192307 1_555
Ca6 Ga11 3.192307 1_555
Ca6 Ga0 3.279505 1_555
Ca6 Ga3 3.279514 1_554
Ca6 Ga1 3.279514 1_545
Ca7 Ga6 3.192298 1_555
Ca7 Ga12 3.192307 1_555
Ca7 Ga10 3.192307 1_555
Ca7 Ga4 3.279505 1_555
Ca7 Ga5 3.279514 1_554
Ca7 Ga1 3.279514 1_455
Ca8 Ga6 3.192298 1_555
Ca8 Ga10 3.192307 1_555
Ca8 Ga11 3.192307 1_555
Ca8 Ga2 3.279505 1_555
Ca8 Ga5 3.279514 1_545
Ca8 Ga3 3.279514 1_455
Ca9 Ga8 3.192307 1_555
Ca9 Ga9 3.192307 1_555
Ca9 Ga7 3.192307 1_555
Ca9 Ga1 3.279515 1_556
Ca9 Ga3 3.279515 1_565
Ca9 Ga5 3.279515 1_655
Ca10 Ga13 3.113606 1_555
Ca10 Ga10 3.113624 1_655
Ca10 Ga1 3.238747 1_555
Ca10 Ga3 3.238747 1_555
Ca11 Ga13 3.113606 1_555
Ca11 Ga12 3.113624 1_556
Ca11 Ga5 3.238747 1_555
Ca11 Ga3 3.238747 1_555
Ca12 Ga10 3.113617 1_655
Ca12 Ga9 3.113624 1_545
Ca12 Ga3 3.238747 1_555
Ca12 Ga0 3.238747 1_555
Ca13 Ga11 3.113617 1_565
Ca13 Ga7 3.113624 1_554
Ca13 Ga1 3.238747 1_555
Ca13 Ga4 3.238747 1_555
Ca14 Ga12 3.113617 1_556
Ca14 Ga9 3.113624 1_545
Ca14 Ga2 3.238747 1_555
Ca14 Ga3 3.238747 1_555
Ca15 Ga13 3.113606 1_555
Ca15 Ga11 3.113624 1_565
Ca15 Ga1 3.238747 1_555
Ca15 Ga5 3.238747 1_555
Ca16 Ga10 3.113617 1_655
Ca16 Ga7 3.113624 1_554
Ca16 Ga1 3.238747 1_555
Ca16 Ga0 3.238747 1_555
Ca17 Ga11 3.113617 1_565
Ca17 Ga8 3.113624 1_455
Ca17 Ga4 3.238747 1_555
Ca17 Ga5 3.238747 1_555
Ca18 Ga9 3.113610 1_545
Ca18 Ga6 3.113626 1_555
Ca18 Ga2 3.238747 1_555
Ca18 Ga0 3.238747 1_555
Ca19 Ga12 3.113617 1_556
Ca19 Ga8 3.113624 1_455
Ca19 Ga2 3.238747 1_555
Ca19 Ga5 3.238747 1_555
Ca20 Ga7 3.113610 1_554
Ca20 Ga6 3.113626 1_555
Ca20 Ga0 3.238747 1_555
Ca20 Ga4 3.238747 1_555
Ca21 Ga8 3.113610 1_455
Ca21 Ga6 3.113626 1_555
Ca21 Ga2 3.238747 1_555
Ca21 Ga4 3.238747 1_555
Ga7 Ga9 2.663919 1_555
Ga7 Ga8 2.663919 1_555
Ga8 Ga9 2.663919 1_555
Ga10 Ga12 2.663907 1_555
Ga10 Ga6 2.663907 1_555
Ga10 Ga11 2.663907 1_555
Ga11 Ga12 2.663907 1_555
Ga11 Ga6 2.663907 1_555
Ga12 Ga6 2.663907 1_555
Ga13 Ga7 2.663919 1_555
Ga13 Ga9 2.663919 1_555
Ga13 Ga8 2.663919 1_555
