# generated using pymatgen
data_HfZn3NiPd
_symmetry_space_group_name_H-M   'P 1'
_cell_length_a   4.93495181
_cell_length_b   4.93495194
_cell_length_c   4.89046405
_cell_angle_alpha   59.69861199
_cell_angle_beta   59.69861501
_cell_angle_gamma   60.00000203
_symmetry_Int_Tables_number   1
_chemical_formula_structural   HfZn3NiPd
_chemical_formula_sum   'Hf1 Zn3 Ni1 Pd1'
_cell_volume   83.83153525
_cell_formula_units_Z   1
loop_
 _symmetry_equiv_pos_site_id
 _symmetry_equiv_pos_as_xyz
  1  'x, y, z'
loop_
 _atom_site_type_symbol
 _atom_site_label
 _atom_site_symmetry_multiplicity
 _atom_site_fract_x
 _atom_site_fract_y
 _atom_site_fract_z
 _atom_site_occupancy
  Hf  Hf0  1  0.25218218  0.25218218  0.24345345  1
  Zn  Zn0  1  0.62592729  0.62592729  0.62752151  1
  Zn  Zn1  1  0.12062190  0.62592729  0.62752151  1
  Zn  Zn2  1  0.62592729  0.12062190  0.62752151  1
  Ni  Ni0  1  0.62243917  0.62243917  0.13268248  1
  Pd  Pd0  1  0.00290116  0.00290116  0.99129653  1
loop_
_geom_bond_atom_site_label_1
_geom_bond_atom_site_label_2
_geom_bond_distance
_geom_bond_site_symmetry_2
Hf0 Zn0 2.840133 1_554
Hf0 Zn1 2.840137 1_554
Hf0 Zn2 2.840137 1_554
Hf0 Ni0 2.883014 1_555
Hf0 Ni0 2.883014 1_455
Hf0 Ni0 2.883014 1_545
Hf0 Zn2 2.901566 1_555
Hf0 Zn1 2.901566 1_555
Hf0 Zn0 2.901570 1_545
Hf0 Zn0 2.901570 1_455
Hf0 Zn1 2.901574 1_545
Hf0 Zn2 2.901574 1_455
Hf0 Pd0 2.972497 1_555
Hf0 Pd0 3.020339 1_564
Hf0 Pd0 3.020339 1_654
Hf0 Pd0 3.020339 1_554
Zn0 Zn1 2.441294 1_655
Zn0 Zn2 2.441294 1_565
Zn0 Zn1 2.493658 1_555
Zn0 Zn2 2.493658 1_555
Zn1 Zn2 2.441294 1_465
Zn1 Zn2 2.493658 1_555
Ni0 Zn0 2.437483 1_555
Ni0 Zn2 2.437488 1_555
Ni0 Zn1 2.437488 1_555
Ni0 Zn2 2.453216 1_564
Ni0 Zn1 2.453216 1_654
Ni0 Zn0 2.453221 1_554
Ni0 Pd0 2.904089 1_664
Ni0 Pd0 2.904089 1_564
Ni0 Pd0 2.904089 1_654
Pd0 Zn1 2.859951 1_555
Pd0 Zn2 2.859951 1_555
Pd0 Zn0 2.859956 1_455
Pd0 Zn0 2.859956 1_545
Pd0 Zn2 2.859960 1_455
Pd0 Zn1 2.859960 1_545
Pd0 Zn1 2.895112 1_546
Pd0 Zn2 2.895112 1_456
Pd0 Zn0 2.895116 1_446
