# generated using pymatgen
data_V(Zn2Ga)2
_symmetry_space_group_name_H-M   'P 1'
_cell_length_a   5.39693443
_cell_length_b   5.39693473
_cell_length_c   5.24328718
_cell_angle_alpha   60.93736966
_cell_angle_beta   60.93736787
_cell_angle_gamma   58.12525970
_symmetry_Int_Tables_number   1
_chemical_formula_structural   V(Zn2Ga)2
_chemical_formula_sum   'V1 Zn4 Ga2'
_cell_volume   107.81961472
_cell_formula_units_Z   1
loop_
 _symmetry_equiv_pos_site_id
 _symmetry_equiv_pos_as_xyz
  1  'x, y, z'
loop_
 _atom_site_type_symbol
 _atom_site_label
 _atom_site_symmetry_multiplicity
 _atom_site_fract_x
 _atom_site_fract_y
 _atom_site_fract_z
 _atom_site_occupancy
  V  V0  1  0.00000000  0.00000000  0.00000000  1
  Zn  Zn0  1  0.49999900  0.00000000  0.00000000  1
  Zn  Zn1  1  0.00000000  0.49999900  0.00000000  1
  Zn  Zn2  1  0.49999900  0.00000000  0.49999900  1
  Zn  Zn3  1  0.00000000  0.49999900  0.49999900  1
  Ga  Ga0  1  0.49999900  0.49999900  0.00000000  1
  Ga  Ga1  1  0.00000000  0.00000000  0.49999900  1
loop_
_geom_bond_atom_site_label_1
_geom_bond_atom_site_label_2
_geom_bond_distance
_geom_bond_site_symmetry_2
V0 Zn0 2.698462 1_555
V0 Zn1 2.698462 1_555
V0 Zn2 2.698467 1_554
V0 Zn3 2.698467 1_554
V0 Zn2 2.698467 1_455
V0 Zn3 2.698467 1_545
V0 Zn0 2.698473 1_455
V0 Zn1 2.698473 1_545
Zn0 Zn2 2.621638 1_555
Zn0 Zn1 2.621639 1_555
Zn0 Zn2 2.621649 1_554
Zn0 Zn1 2.621649 1_645
Zn1 Zn3 2.621638 1_555
Zn1 Zn3 2.621649 1_554
Zn2 Zn3 2.621639 1_555
Zn2 Zn3 2.621649 1_645
Ga0 V0 2.621644 1_655
Ga0 V0 2.621644 1_565
Ga0 Zn3 2.698462 1_555
Ga0 Zn2 2.698462 1_555
Ga0 Zn1 2.698462 1_555
Ga0 Zn0 2.698462 1_555
Ga0 Zn3 2.698472 1_654
Ga0 Zn2 2.698473 1_564
Ga0 Zn1 2.698473 1_655
Ga0 Zn0 2.698473 1_565
Ga1 V0 2.621638 1_555
Ga1 V0 2.621649 1_556
Ga1 Zn0 2.698462 1_555
Ga1 Zn1 2.698462 1_555
Ga1 Zn2 2.698462 1_555
Ga1 Zn3 2.698462 1_555
Ga1 Zn0 2.698472 1_456
Ga1 Zn1 2.698473 1_546
Ga1 Zn2 2.698473 1_455
Ga1 Zn3 2.698473 1_545
