# generated using pymatgen
data_Cd6AuIO12
_symmetry_space_group_name_H-M   'P 1'
_cell_length_a   5.70245995
_cell_length_b   5.54056867
_cell_length_c   9.77527586
_cell_angle_alpha   55.08333459
_cell_angle_beta   90.72702940
_cell_angle_gamma   90.30133254
_symmetry_Int_Tables_number   1
_chemical_formula_structural   Cd6AuIO12
_chemical_formula_sum   'Cd6 Au1 I1 O12'
_cell_volume   253.23018852
_cell_formula_units_Z   1
loop_
 _symmetry_equiv_pos_site_id
 _symmetry_equiv_pos_as_xyz
  1  'x, y, z'
loop_
 _atom_site_type_symbol
 _atom_site_label
 _atom_site_symmetry_multiplicity
 _atom_site_fract_x
 _atom_site_fract_y
 _atom_site_fract_z
 _atom_site_occupancy
  Cd  Cd0  1  0.95246798  0.26517923  0.22662185  1
  Cd  Cd1  1  0.44755605  0.77603922  0.24184936  1
  Cd  Cd2  1  0.04753202  0.73482077  0.77337815  1
  Cd  Cd3  1  0.55244395  0.22396078  0.75815064  1
  Cd  Cd4  1  0.00000000  0.50000000  0.50000000  1
  Cd  Cd5  1  0.50000000  0.50000000  0.00000000  1
  Au  Au0  1  0.00000000  0.00000000  0.00000000  1
  I  I0  1  0.50000000  0.00000000  0.50000000  1
  O  O0  1  0.27850553  0.90057766  0.91698811  1
  O  O1  1  0.77611928  0.07514784  0.57873307  1
  O  O2  1  0.72149447  0.09942234  0.08301189  1
  O  O3  1  0.22388072  0.92485216  0.42126693  1
  O  O4  1  0.18681773  0.24065005  0.05290977  1
  O  O5  1  0.66661070  0.76975742  0.44815450  1
  O  O6  1  0.81318227  0.75934995  0.94709023  1
  O  O7  1  0.33338930  0.23024258  0.55184550  1
  O  O8  1  0.43161903  0.66150790  0.71559775  1
  O  O9  1  0.92469560  0.35371892  0.76637368  1
  O  O10  1  0.56838097  0.33849210  0.28440225  1
  O  O11  1  0.07530440  0.64628108  0.23362632  1
loop_
_geom_bond_atom_site_label_1
_geom_bond_atom_site_label_2
_geom_bond_distance
_geom_bond_site_symmetry_2
Cd0 O4 2.238645 1_655
Cd0 O11 2.258893 1_655
Cd0 O3 2.328102 1_645
Cd0 O10 2.363168 1_555
Cd0 O2 2.442380 1_555
Cd0 O6 2.645212 1_554
Cd1 O2 2.215563 1_565
Cd1 O11 2.252814 1_555
Cd1 O10 2.319630 1_555
Cd1 O5 2.341965 1_555
Cd1 O4 2.603138 1_565
Cd1 O3 2.665703 1_555
Cd2 O6 2.238645 1_455
Cd2 O9 2.258893 1_455
Cd2 O1 2.328102 1_465
Cd2 O8 2.363168 1_555
Cd2 O0 2.442380 1_555
Cd2 O4 2.645212 1_556
Cd3 O0 2.215563 1_545
Cd3 O9 2.252814 1_555
Cd3 O8 2.319630 1_555
Cd3 O7 2.341965 1_555
Cd3 O6 2.603138 1_545
Cd3 O1 2.665703 1_555
Cd4 O9 2.286976 1_455
Cd4 O11 2.286976 1_555
Cd4 O7 2.289834 1_555
Cd4 O5 2.289834 1_455
Cd4 O3 2.383814 1_555
Cd4 O1 2.383814 1_455
Cd5 O6 2.160427 1_554
Cd5 O4 2.160427 1_555
Cd5 O0 2.263057 1_554
Cd5 O2 2.263057 1_555
Cd5 O10 2.410405 1_555
Cd5 O8 2.410405 1_554
Au0 O4 1.985126 1_555
Au0 O6 1.985126 1_444
Au0 O0 2.009430 1_544
Au0 O2 2.009430 1_455
Au0 O11 2.025116 1_545
Au0 O9 2.025116 1_454
I0 O7 1.884662 1_555
I0 O5 1.884662 1_545
I0 O1 1.890536 1_555
I0 O3 1.890536 1_545
I0 O8 1.897213 1_545
I0 O10 1.897213 1_555
