# generated using pymatgen
data_Sc12Co4SnPt
_symmetry_space_group_name_H-M   'P 1'
_cell_length_a   7.71653320
_cell_length_b   7.71653379
_cell_length_c   7.71653305
_cell_angle_alpha   111.35199526
_cell_angle_beta   110.51862481
_cell_angle_gamma   106.58224672
_symmetry_Int_Tables_number   1
_chemical_formula_structural   Sc12Co4SnPt
_chemical_formula_sum   'Sc12 Co4 Sn1 Pt1'
_cell_volume   353.01814104
_cell_formula_units_Z   1
loop_
 _symmetry_equiv_pos_site_id
 _symmetry_equiv_pos_as_xyz
  1  'x, y, z'
loop_
 _atom_site_type_symbol
 _atom_site_label
 _atom_site_symmetry_multiplicity
 _atom_site_fract_x
 _atom_site_fract_y
 _atom_site_fract_z
 _atom_site_occupancy
  Sc  Sc0  1  0.42750357  0.22720909  0.20029448  1
  Sc  Sc1  1  0.57249643  0.77279091  0.79970552  1
  Sc  Sc2  1  0.02691562  0.22720909  0.79970552  1
  Sc  Sc3  1  0.97308438  0.77279091  0.20029448  1
  Sc  Sc4  1  0.18370922  0.28066276  0.46437198  1
  Sc  Sc5  1  0.81629078  0.71933724  0.53562802  1
  Sc  Sc6  1  0.18370922  0.71933724  0.90304646  1
  Sc  Sc7  1  0.81629078  0.28066276  0.09695354  1
  Sc  Sc8  1  0.32368346  0.63341052  0.30972606  1
  Sc  Sc9  1  0.67631654  0.36658948  0.69027394  1
  Sc  Sc10  1  0.32368346  0.01395641  0.69027394  1
  Sc  Sc11  1  0.67631654  0.98604359  0.30972606  1
  Co  Co0  1  0.34561378  0.00000000  0.34561378  1
  Co  Co1  1  0.65438622  1.00000000  0.65438622  1
  Co  Co2  1  0.11777157  0.61777157  0.50000000  1
  Co  Co3  1  0.88222843  0.38222843  0.50000000  1
  Sn  Sn0  1  0.50000000  0.50000000  0.00000000  1
  Pt  Pt0  1  0.00000000  0.00000000  0.00000000  1
loop_
_geom_bond_atom_site_label_1
_geom_bond_atom_site_label_2
_geom_bond_distance
_geom_bond_site_symmetry_2
Sc0 Sn0 3.071793 1_555
Sc0 Sc11 3.147969 1_545
Sc0 Sc9 3.147978 1_555
Sc0 Sc4 3.221793 1_555
Sc0 Sc6 3.221793 1_544
Sc0 Sc7 3.319168 1_555
Sc0 Sc5 3.319169 1_555
Sc0 Sc10 3.340635 1_554
Sc0 Sc8 3.340643 1_555
Sc0 Sc2 3.523070 1_554
Sc1 Sn0 3.071793 1_556
Sc1 Sc10 3.147969 1_565
Sc1 Sc8 3.147978 1_555
Sc1 Sc5 3.221793 1_555
Sc1 Sc7 3.221793 1_566
Sc1 Sc6 3.319168 1_555
Sc1 Sc4 3.319169 1_555
Sc1 Sc11 3.340635 1_556
Sc1 Sc9 3.340643 1_555
Sc1 Sc3 3.523070 1_556
Sc2 Sn0 3.071787 1_556
Sc2 Sc9 3.147977 1_455
Sc2 Sc5 3.221793 1_445
Sc2 Sc7 3.221799 1_456
Sc2 Sc4 3.319164 1_555
Sc2 Sc6 3.319169 1_555
Sc2 Sc8 3.340638 1_556
Sc3 Sn0 3.071787 1_555
Sc3 Sc8 3.147977 1_655
Sc3 Sc4 3.221793 1_665
Sc3 Sc6 3.221799 1_654
Sc3 Sc5 3.319164 1_555
Sc3 Sc7 3.319169 1_555
Sc3 Sc9 3.340638 1_554
Sc4 Sc7 3.231348 1_455
Sc4 Sc9 3.316955 1_555
Sc4 Sn0 3.373586 1_556
Sc4 Sc8 3.404511 1_555
Sc5 Sc6 3.231348 1_655
Sc5 Sc8 3.316955 1_555
Sc5 Sn0 3.373586 1_555
Sc5 Sc9 3.404511 1_555
Sc6 Sc8 3.316947 1_556
Sc6 Sn0 3.373586 1_556
Sc6 Sc9 3.404507 1_455
Sc7 Sc9 3.316947 1_554
Sc7 Sn0 3.373586 1_555
Sc7 Sc8 3.404507 1_655
Sc8 Sn0 3.148078 1_555
Sc9 Sn0 3.148078 1_556
Sc10 Sc3 3.147979 1_445
Sc10 Sn0 3.148083 1_556
Sc10 Sc7 3.316952 1_556
Sc10 Sc4 3.316959 1_555
Sc10 Sc2 3.340633 1_555
Sc10 Sc6 3.404499 1_545
Sc10 Sc5 3.404503 1_445
Sc11 Sc2 3.147979 1_665
Sc11 Sn0 3.148083 1_555
Sc11 Sc6 3.316952 1_554
Sc11 Sc5 3.316959 1_555
Sc11 Sc3 3.340633 1_555
Sc11 Sc7 3.404499 1_565
Sc11 Sc4 3.404503 1_665
Co0 Sc0 2.454940 1_555
Co0 Sc3 2.454947 1_445
Co0 Sc8 2.689033 1_545
Co0 Sc9 2.689038 1_555
Co0 Sc11 2.689038 1_545
Co0 Sc10 2.689043 1_555
Co0 Co1 2.715572 1_545
Co0 Sc4 2.827164 1_555
Co0 Sc6 2.827164 1_544
Co0 Pt0 3.039582 1_555
Co1 Sc1 2.454940 1_555
Co1 Sc2 2.454947 1_665
Co1 Sc9 2.689033 1_565
Co1 Sc8 2.689038 1_555
Co1 Sc10 2.689038 1_565
Co1 Sc11 2.689043 1_555
Co1 Sc5 2.827164 1_555
Co1 Sc7 2.827164 1_566
Co1 Pt0 3.039582 1_666
Co2 Co3 2.172910 1_455
Co2 Sc10 2.519925 1_565
Co2 Sc8 2.519931 1_555
Co2 Sc5 2.726545 1_455
Co2 Sc6 2.726545 1_555
Co2 Sc4 2.726545 1_555
Co2 Sc7 2.726546 1_455
Co2 Sc1 2.998784 1_555
Co2 Sc3 2.998786 1_455
Co3 Sc11 2.519925 1_545
Co3 Sc9 2.519931 1_555
Co3 Sc4 2.726545 1_655
Co3 Sc7 2.726545 1_555
Co3 Sc5 2.726545 1_555
Co3 Sc6 2.726546 1_655
Co3 Sc0 2.998784 1_555
Co3 Sc2 2.998786 1_655
Pt0 Sc0 2.737946 1_555
Pt0 Sc1 2.737946 1_444
Pt0 Sc2 2.737946 1_554
Pt0 Sc3 2.737946 1_445
Pt0 Sc6 2.928437 1_544
Pt0 Sc7 2.928437 1_455
Pt0 Sc5 2.928437 1_444
Pt0 Sc4 2.928437 1_555
