# generated using pymatgen
data_Y3Cd3NiAg2
_symmetry_space_group_name_H-M   'P 1'
_cell_length_a   7.74028479
_cell_length_b   7.74028377
_cell_length_c   3.81700530
_cell_angle_alpha   90.00000000
_cell_angle_beta   90.00000000
_cell_angle_gamma   120.00000436
_symmetry_Int_Tables_number   1
_chemical_formula_structural   Y3Cd3NiAg2
_chemical_formula_sum   'Y3 Cd3 Ni1 Ag2'
_cell_volume   198.04651215
_cell_formula_units_Z   1
loop_
 _symmetry_equiv_pos_site_id
 _symmetry_equiv_pos_as_xyz
  1  'x, y, z'
loop_
 _atom_site_type_symbol
 _atom_site_label
 _atom_site_symmetry_multiplicity
 _atom_site_fract_x
 _atom_site_fract_y
 _atom_site_fract_z
 _atom_site_occupancy
  Y  Y0  1  0.60514451  0.02840905  0.00000000  1
  Y  Y1  1  0.97159095  0.57673546  0.00000000  1
  Y  Y2  1  0.42326454  0.39485549  0.00000000  1
  Cd  Cd0  1  0.26592004  0.99953005  0.50000000  1
  Cd  Cd1  1  0.00046995  0.26638999  0.50000000  1
  Cd  Cd2  1  0.73361001  0.73407996  0.50000000  1
  Ni  Ni0  1  0.66666700  0.33333300  0.50000000  1
  Ag  Ag0  1  0.33333300  0.66666700  0.50000000  1
  Ag  Ag1  1  0.00000000  0.00000000  0.00000000  1
loop_
_geom_bond_atom_site_label_1
_geom_bond_atom_site_label_2
_geom_bond_distance
_geom_bond_site_symmetry_2
Cd0 Ni0 2.878012 1_565
Cd0 Y0 3.162229 1_566
Cd0 Y0 3.162229 1_565
Cd0 Y2 3.280572 1_565
Cd0 Y2 3.280572 1_566
Cd0 Y1 3.476582 1_456
Cd0 Y1 3.476582 1_455
Cd1 Ni0 2.878008 1_455
Cd1 Y1 3.162229 1_456
Cd1 Y1 3.162229 1_455
Cd1 Y0 3.280573 1_456
Cd1 Y0 3.280573 1_455
Cd1 Y2 3.476583 1_556
Cd1 Y2 3.476583 1_555
Cd2 Ni0 2.878015 1_555
Cd2 Y2 3.162229 1_555
Cd2 Y2 3.162229 1_556
Cd2 Y1 3.280573 1_556
Cd2 Y1 3.280573 1_555
Cd2 Y0 3.476583 1_565
Cd2 Y0 3.476583 1_566
Ni0 Y0 2.883705 1_555
Ni0 Y0 2.883705 1_556
Ni0 Y1 2.883707 1_556
Ni0 Y1 2.883707 1_555
Ni0 Y2 2.883711 1_556
Ni0 Y2 2.883711 1_555
Ag0 Cd0 2.873112 1_555
Ag0 Cd1 2.873116 1_555
Ag0 Cd2 2.873120 1_555
Ag0 Y1 3.165090 1_456
Ag0 Y1 3.165090 1_455
Ag0 Y0 3.165092 1_565
Ag0 Y0 3.165092 1_566
Ag0 Y2 3.165096 1_555
Ag0 Y2 3.165096 1_556
Ag1 Cd1 2.808286 1_554
Ag1 Cd1 2.808286 1_555
Ag1 Cd2 2.808286 1_445
Ag1 Cd2 2.808286 1_444
Ag1 Cd0 2.808286 1_544
Ag1 Cd0 2.808286 1_545
Ag1 Y1 3.171962 1_445
Ag1 Y2 3.171962 1_555
Ag1 Y0 3.171963 1_455
