# generated using pymatgen
data_Cd2GaBiO6
_symmetry_space_group_name_H-M   'P 1'
_cell_length_a   5.92187130
_cell_length_b   5.92187184
_cell_length_c   5.92187206
_cell_angle_alpha   54.71298321
_cell_angle_beta   54.71298336
_cell_angle_gamma   54.71297948
_symmetry_Int_Tables_number   1
_chemical_formula_structural   Cd2GaBiO6
_chemical_formula_sum   'Cd2 Ga1 Bi1 O6'
_cell_volume   128.76107461
_cell_formula_units_Z   1
loop_
 _symmetry_equiv_pos_site_id
 _symmetry_equiv_pos_as_xyz
  1  'x, y, z'
loop_
 _atom_site_type_symbol
 _atom_site_label
 _atom_site_symmetry_multiplicity
 _atom_site_fract_x
 _atom_site_fract_y
 _atom_site_fract_z
 _atom_site_occupancy
  Cd  Cd0  1  0.36637497  0.36637497  0.36637497  1
  Cd  Cd1  1  0.63499169  0.63499169  0.63499169  1
  Ga  Ga0  1  0.15372656  0.15372656  0.15372656  1
  Bi  Bi0  1  0.84581372  0.84581372  0.84581372  1
  O  O0  1  0.80134503  0.04041161  0.42799335  1
  O  O1  1  0.04041161  0.42799335  0.80134503  1
  O  O2  1  0.42799335  0.80134503  0.04041161  1
  O  O3  1  0.54063485  0.22165736  0.96661985  1
  O  O4  1  0.96661985  0.54063485  0.22165736  1
  O  O5  1  0.22165736  0.96661985  0.54063485  1
loop_
_geom_bond_atom_site_label_1
_geom_bond_atom_site_label_2
_geom_bond_distance
_geom_bond_site_symmetry_2
Cd0 O0 2.240928 1_555
Cd0 O2 2.240928 1_555
Cd0 O1 2.240928 1_555
Cd0 O4 2.429653 1_455
Cd0 O5 2.429653 1_545
Cd0 O3 2.429654 1_554
Cd1 O5 2.217864 1_555
Cd1 O3 2.217865 1_555
Cd1 O4 2.217865 1_555
Cd1 O1 2.484822 1_655
Cd1 O0 2.484822 1_565
Cd1 O2 2.484822 1_556
Ga0 O0 1.971207 1_455
Ga0 O2 1.971207 1_545
Ga0 O1 1.971208 1_554
Ga0 O3 2.063019 1_554
Ga0 O4 2.063019 1_455
Ga0 O5 2.063019 1_545
Bi0 O5 2.104823 1_655
Bi0 O3 2.104823 1_565
Bi0 O4 2.104824 1_556
Bi0 O2 2.151119 1_556
Bi0 O1 2.151119 1_655
Bi0 O0 2.151119 1_565
