# generated using pymatgen
data_NaGeBiO4
_symmetry_space_group_name_H-M   'P 1'
_cell_length_a   5.24559255
_cell_length_b   6.89859763
_cell_length_c   11.28154779
_cell_angle_alpha   90.00000000
_cell_angle_beta   89.99997325
_cell_angle_gamma   90.00000000
_symmetry_Int_Tables_number   1
_chemical_formula_structural   NaGeBiO4
_chemical_formula_sum   'Na4 Ge4 Bi4 O16'
_cell_volume   408.24799102
_cell_formula_units_Z   4
loop_
 _symmetry_equiv_pos_site_id
 _symmetry_equiv_pos_as_xyz
  1  'x, y, z'
loop_
 _atom_site_type_symbol
 _atom_site_label
 _atom_site_symmetry_multiplicity
 _atom_site_fract_x
 _atom_site_fract_y
 _atom_site_fract_z
 _atom_site_occupancy
  Na  Na0  1  0.49999957  0.00000027  0.99999969  1
  Na  Na1  1  0.49999957  0.49999973  0.99999969  1
  Na  Na2  1  0.00000007  0.00000003  0.49999994  1
  Na  Na3  1  0.00000007  0.49999997  0.49999994  1
  Ge  Ge0  1  0.93028436  0.25000000  0.09230600  1
  Ge  Ge1  1  0.43028519  0.75000000  0.40769406  1
  Ge  Ge2  1  0.56971501  0.25000000  0.59230552  1
  Ge  Ge3  1  0.06971505  0.75000000  0.90769396  1
  Bi  Bi0  1  0.98424096  0.75000000  0.22307440  1
  Bi  Bi1  1  0.48424158  0.25000000  0.27692594  1
  Bi  Bi2  1  0.51575970  0.75000000  0.72307479  1
  Bi  Bi3  1  0.01575950  0.25000000  0.77692501  1
  O  O0  1  0.20885359  0.75000000  0.04943292  1
  O  O1  1  0.26015096  0.25000000  0.09145915  1
  O  O2  1  0.77974489  0.05753734  0.17346999  1
  O  O3  1  0.77974489  0.44246266  0.17346999  1
  O  O4  1  0.27974575  0.55753813  0.32653047  1
  O  O5  1  0.27974575  0.94246187  0.32653047  1
  O  O6  1  0.76015013  0.75000000  0.40854104  1
  O  O7  1  0.70885440  0.25000000  0.45056636  1
  O  O8  1  0.29114587  0.75000000  0.54943314  1
  O  O9  1  0.23985003  0.25000000  0.59145852  1
  O  O10  1  0.72025381  0.05753797  0.67346941  1
  O  O11  1  0.72025381  0.44246203  0.67346941  1
  O  O12  1  0.22025374  0.55753846  0.82652989  1
  O  O13  1  0.22025374  0.94246154  0.82652989  1
  O  O14  1  0.73985058  0.75000000  0.90854107  1
  O  O15  1  0.79114543  0.25000000  0.95056635  1
loop_
_geom_bond_atom_site_label_1
_geom_bond_atom_site_label_2
_geom_bond_distance
_geom_bond_site_symmetry_2
Na0 O15 2.370202 1_555
Na0 O0 2.370205 1_546
Na0 O1 2.371068 1_556
Na0 O14 2.371074 1_545
Na0 O13 2.478064 1_545
Na0 O2 2.478065 1_556
Na1 O15 2.370202 1_555
Na1 O0 2.370205 1_556
Na1 O1 2.371068 1_556
Na1 O14 2.371074 1_555
Na1 O12 2.478064 1_555
Na1 O3 2.478065 1_556
Na2 O8 2.370204 1_545
Na2 O7 2.370204 1_455
Na2 O9 2.371069 1_555
Na2 O6 2.371071 1_445
Na2 O5 2.478059 1_545
Na2 O10 2.478060 1_455
Na3 O8 2.370204 1_555
Na3 O7 2.370204 1_455
Na3 O9 2.371069 1_555
Na3 O6 2.371071 1_455
Na3 O4 2.478059 1_555
Na3 O11 2.478060 1_455
Ge0 O1 1.730372 1_655
Ge0 O15 1.757738 1_554
Ge0 O3 1.795786 1_555
Ge0 O2 1.795786 1_555
Ge1 O6 1.730363 1_555
Ge1 O8 1.757732 1_555
Ge1 O5 1.795780 1_555
Ge1 O4 1.795780 1_555
Ge2 O9 1.730364 1_555
Ge2 O7 1.757733 1_555
Ge2 O11 1.795781 1_555
Ge2 O10 1.795781 1_555
Ge3 O14 1.730361 1_455
Ge3 O0 1.757730 1_556
Ge3 O13 1.795779 1_555
Ge3 O12 1.795779 1_555
Bi0 O0 2.285974 1_655
Bi0 O5 2.351141 1_655
Bi0 O4 2.351141 1_655
Bi0 O6 2.399938 1_555
Bi0 O2 2.442324 1_565
Bi0 O3 2.442324 1_555
Bi1 O7 2.285966 1_555
Bi1 O3 2.351137 1_555
Bi1 O2 2.351137 1_555
Bi1 O1 2.399940 1_555
Bi1 O4 2.442328 1_555
Bi1 O5 2.442328 1_545
Bi2 O8 2.285980 1_555
Bi2 O13 2.351138 1_555
Bi2 O12 2.351138 1_555
Bi2 O14 2.399936 1_555
Bi2 O10 2.442326 1_565
Bi2 O11 2.442326 1_555
Bi3 O15 2.285977 1_455
Bi3 O11 2.351142 1_455
Bi3 O10 2.351142 1_455
Bi3 O9 2.399936 1_555
Bi3 O12 2.442328 1_555
Bi3 O13 2.442328 1_545
