# generated using pymatgen
data_Sc4Bi2Ir
_symmetry_space_group_name_H-M   'P 1'
_cell_length_a   8.33581229
_cell_length_b   8.33484954
_cell_length_c   8.33581229
_cell_angle_alpha   96.45419247
_cell_angle_beta   96.46205326
_cell_angle_gamma   140.81852098
_symmetry_Int_Tables_number   1
_chemical_formula_structural   Sc4Bi2Ir
_chemical_formula_sum   'Sc8 Bi4 Ir2'
_cell_volume   344.69571118
_cell_formula_units_Z   2
loop_
 _symmetry_equiv_pos_site_id
 _symmetry_equiv_pos_as_xyz
  1  'x, y, z'
loop_
 _atom_site_type_symbol
 _atom_site_label
 _atom_site_symmetry_multiplicity
 _atom_site_fract_x
 _atom_site_fract_y
 _atom_site_fract_z
 _atom_site_occupancy
  Sc  Sc0  1  0.69707725  0.58023404  0.27731771  1
  Sc  Sc1  1  0.30292275  0.41976596  0.72268229  1
  Sc  Sc2  1  0.58018413  0.30287661  0.88316310  1
  Sc  Sc3  1  0.08028649  0.19712339  0.27730952  1
  Sc  Sc4  1  0.80291633  0.08023404  0.88315579  1
  Sc  Sc5  1  0.41981587  0.69712339  0.11683690  1
  Sc  Sc6  1  0.91971351  0.80287661  0.72269048  1
  Sc  Sc7  1  0.19708367  0.91976596  0.11684421  1
  Bi  Bi0  1  0.14325275  0.64325376  0.78643004  1
  Bi  Bi1  1  0.35682472  0.14325376  0.50000201  1
  Bi  Bi2  1  0.85674725  0.35674624  0.21356996  1
  Bi  Bi3  1  0.64317528  0.85674624  0.49999799  1
  Ir  Ir0  1  0.25001993  0.25000000  0.00001993  1
  Ir  Ir1  1  0.74998007  0.75000000  0.99998007  1
loop_
_geom_bond_atom_site_label_1
_geom_bond_atom_site_label_2
_geom_bond_distance
_geom_bond_site_symmetry_2
Bi0 Sc1 3.050235 1_555
Bi0 Sc6 3.050239 1_455
Bi0 Sc5 3.128912 1_556
Bi0 Sc7 3.128962 1_556
Bi0 Sc2 3.382447 1_565
Bi0 Sc4 3.383138 1_565
Bi0 Sc4 3.383217 1_455
Bi0 Sc2 3.384031 1_455
Bi1 Sc2 3.050227 1_555
Bi1 Sc7 3.050233 1_545
Bi1 Sc3 3.128914 1_555
Bi1 Sc1 3.128957 1_555
Bi1 Sc6 3.382441 1_555
Bi1 Sc0 3.383144 1_555
Bi1 Sc0 3.383227 1_445
Bi1 Sc6 3.384016 1_445
Bi2 Sc0 3.050235 1_555
Bi2 Sc3 3.050239 1_655
Bi2 Sc2 3.128912 1_554
Bi2 Sc4 3.128962 1_554
Bi2 Sc5 3.382447 1_545
Bi2 Sc7 3.383138 1_545
Bi2 Sc7 3.383217 1_655
Bi2 Sc5 3.384031 1_655
Bi3 Sc5 3.050227 1_555
Bi3 Sc4 3.050233 1_565
Bi3 Sc6 3.128914 1_555
Bi3 Sc0 3.128957 1_555
Bi3 Sc3 3.382441 1_555
Bi3 Sc1 3.383144 1_555
Bi3 Sc1 3.383227 1_665
Bi3 Sc3 3.384016 1_665
Ir0 Sc0 2.745069 1_555
Ir0 Sc7 2.745074 1_545
Ir0 Sc5 2.745249 1_555
Ir0 Sc6 2.745258 1_444
Ir0 Sc2 2.745391 1_554
Ir0 Sc3 2.745406 1_555
Ir0 Sc1 2.745675 1_554
Ir0 Sc4 2.745676 1_454
Ir1 Sc1 2.745069 1_555
Ir1 Sc4 2.745074 1_565
Ir1 Sc2 2.745249 1_555
Ir1 Sc3 2.745258 1_666
Ir1 Sc5 2.745391 1_556
Ir1 Sc6 2.745406 1_555
Ir1 Sc0 2.745675 1_556
Ir1 Sc7 2.745676 1_656
