# generated using pymatgen
data_Ag3SBr
_symmetry_space_group_name_H-M   'P 1'
_cell_length_a   6.97888937
_cell_length_b   6.90592324
_cell_length_c   6.86416067
_cell_angle_alpha   60.90296584
_cell_angle_beta   59.84408842
_cell_angle_gamma   59.25294575
_symmetry_Int_Tables_number   1
_chemical_formula_structural   Ag3SBr
_chemical_formula_sum   'Ag6 S2 Br2'
_cell_volume   233.82701371
_cell_formula_units_Z   2
loop_
 _symmetry_equiv_pos_site_id
 _symmetry_equiv_pos_as_xyz
  1  'x, y, z'
loop_
 _atom_site_type_symbol
 _atom_site_label
 _atom_site_symmetry_multiplicity
 _atom_site_fract_x
 _atom_site_fract_y
 _atom_site_fract_z
 _atom_site_occupancy
  Ag  Ag0  1  0.43585300  0.43585300  0.06414700  1
  Ag  Ag1  1  0.56387200  0.93933000  0.06067000  1
  Ag  Ag2  1  0.93585300  0.93585300  0.56414700  1
  Ag  Ag3  1  0.93933000  0.56387200  0.43612800  1
  Ag  Ag4  1  0.44533000  0.44533000  0.55467000  1
  Ag  Ag5  1  0.06379100  0.06379100  0.93620900  1
  S  S0  1  0.25448100  0.75415400  0.24584600  1
  S  S1  1  0.75415400  0.25448100  0.74551900  1
  Br  Br0  1  0.99618900  0.49614900  0.00381100  1
  Br  Br1  1  0.49614900  0.99618900  0.50385100  1
loop_
_geom_bond_atom_site_label_1
_geom_bond_atom_site_label_2
_geom_bond_distance
_geom_bond_site_symmetry_2
Ag0 S0 2.494983 1_555
Ag0 S1 2.494983 1_554
Ag0 Br1 3.092316 1_545
Ag0 Br0 3.092316 1_455
Ag1 S0 2.529459 1_555
Ag1 S1 2.582599 1_564
Ag1 Br1 3.026413 1_555
Ag1 Br0 3.026413 1_555
Ag2 S0 2.494983 1_655
Ag2 S1 2.494983 1_565
Ag2 Br0 3.092316 1_556
Ag2 Br1 3.092316 1_555
Ag3 S1 2.529459 1_555
Ag3 S0 2.582599 1_655
Ag3 Br0 3.026413 1_555
Ag3 Br1 3.026413 1_555
Ag4 S1 2.520179 1_555
Ag4 S0 2.520179 1_555
Ag4 Br0 3.109890 1_456
Ag4 Br1 3.109890 1_545
Ag5 S0 2.524424 1_546
Ag5 S1 2.524424 1_455
Ag5 Br0 3.006709 1_456
Ag5 Br1 3.006709 1_545
