# generated using pymatgen
data_TmSnPd2
_symmetry_space_group_name_H-M   'P 1'
_cell_length_a   4.73293709
_cell_length_b   4.73293630
_cell_length_c   4.73293713
_cell_angle_alpha   60.00000126
_cell_angle_beta   60.00000681
_cell_angle_gamma   59.99999495
_symmetry_Int_Tables_number   1
_chemical_formula_structural   TmSnPd2
_chemical_formula_sum   'Tm1 Sn1 Pd2'
_cell_volume   74.96820965
_cell_formula_units_Z   1
loop_
 _symmetry_equiv_pos_site_id
 _symmetry_equiv_pos_as_xyz
  1  'x, y, z'
loop_
 _atom_site_type_symbol
 _atom_site_label
 _atom_site_symmetry_multiplicity
 _atom_site_fract_x
 _atom_site_fract_y
 _atom_site_fract_z
 _atom_site_occupancy
  Tm  Tm0  1  0.50000000  0.50000000  0.50000000  1
  Sn  Sn0  1  0.00000000  0.00000000  -0.00000000  1
  Pd  Pd0  1  0.25000000  0.25000000  0.25000000  1
  Pd  Pd1  1  0.75000000  0.75000000  0.75000000  1
loop_
_geom_bond_atom_site_label_1
_geom_bond_atom_site_label_2
_geom_bond_distance
_geom_bond_site_symmetry_2
Sn0 Tm0 3.346692 1_455
Sn0 Tm0 3.346692 1_544
Sn0 Tm0 3.346692 1_454
Sn0 Tm0 3.346692 1_545
Sn0 Tm0 3.346692 1_445
Sn0 Tm0 3.346692 1_554
Pd0 Sn0 2.898320 1_565
Pd0 Tm0 2.898320 1_545
Pd0 Sn0 2.898320 1_555
Pd0 Tm0 2.898320 1_555
Pd0 Sn0 2.898320 1_655
Pd0 Tm0 2.898320 1_455
Pd0 Sn0 2.898320 1_556
Pd0 Tm0 2.898320 1_554
Pd1 Tm0 2.898320 1_565
Pd1 Sn0 2.898320 1_656
Pd1 Tm0 2.898320 1_555
Pd1 Sn0 2.898320 1_666
Pd1 Tm0 2.898320 1_655
Pd1 Sn0 2.898320 1_566
Pd1 Tm0 2.898320 1_556
Pd1 Sn0 2.898320 1_665
