# generated using pymatgen
data_K4Si12AsP11
_symmetry_space_group_name_H-M   'P 1'
_cell_length_a   7.08390378
_cell_length_b   19.88837036
_cell_length_c   37.97901384
_cell_angle_alpha   90.03658752
_cell_angle_beta   90.00000000
_cell_angle_gamma   90.00000000
_symmetry_Int_Tables_number   1
_chemical_formula_structural   K4Si12AsP11
_chemical_formula_sum   'K32 Si96 As8 P88'
_cell_volume   5350.75970126
_cell_formula_units_Z   8
loop_
 _symmetry_equiv_pos_site_id
 _symmetry_equiv_pos_as_xyz
  1  'x, y, z'
loop_
 _atom_site_type_symbol
 _atom_site_label
 _atom_site_symmetry_multiplicity
 _atom_site_fract_x
 _atom_site_fract_y
 _atom_site_fract_z
 _atom_site_occupancy
  K  K0_0  1  0.00000000  0.15972145  0.15217445  1
  K  K0_1  1  0.00000000  0.15972145  0.65217445  1
  K  K0_2  1  0.00000000  0.65972145  0.15217445  1
  K  K0_3  1  0.00000000  0.65972145  0.65217445  1
  K  K0_4  1  0.50000000  0.15972145  0.15217445  1
  K  K0_5  1  0.50000000  0.15972145  0.65217445  1
  K  K0_6  1  0.50000000  0.65972145  0.15217445  1
  K  K0_7  1  0.50000000  0.65972145  0.65217445  1
  K  K1_0  1  0.00000000  0.34013610  0.34769895  1
  K  K1_1  1  0.00000000  0.34013610  0.84769895  1
  K  K1_2  1  0.00000000  0.84013610  0.34769895  1
  K  K1_3  1  0.00000000  0.84013610  0.84769895  1
  K  K1_4  1  0.50000000  0.34013610  0.34769895  1
  K  K1_5  1  0.50000000  0.34013610  0.84769895  1
  K  K1_6  1  0.50000000  0.84013610  0.34769895  1
  K  K1_7  1  0.50000000  0.84013610  0.84769895  1
  K  K2_0  1  0.00000000  0.09022420  0.40237472  1
  K  K2_1  1  0.00000000  0.09022420  0.90237472  1
  K  K2_2  1  0.00000000  0.59022420  0.40237472  1
  K  K2_3  1  0.00000000  0.59022420  0.90237472  1
  K  K2_4  1  0.50000000  0.09022420  0.40237472  1
  K  K2_5  1  0.50000000  0.09022420  0.90237472  1
  K  K2_6  1  0.50000000  0.59022420  0.40237472  1
  K  K2_7  1  0.50000000  0.59022420  0.90237472  1
  K  K3_0  1  0.00000000  0.41376037  0.10082905  1
  K  K3_1  1  0.00000000  0.41376037  0.60082905  1
  K  K3_2  1  0.00000000  0.91376037  0.10082905  1
  K  K3_3  1  0.00000000  0.91376037  0.60082905  1
  K  K3_4  1  0.50000000  0.41376037  0.10082905  1
  K  K3_5  1  0.50000000  0.41376037  0.60082905  1
  K  K3_6  1  0.50000000  0.91376037  0.10082905  1
  K  K3_7  1  0.50000000  0.91376037  0.60082905  1
  Si  Si0_0  1  0.25000000  0.20124860  0.01675788  1
  Si  Si0_1  1  0.25000000  0.20124860  0.51675788  1
  Si  Si0_2  1  0.25000000  0.70124860  0.01675788  1
  Si  Si0_3  1  0.25000000  0.70124860  0.51675788  1
  Si  Si0_4  1  0.75000000  0.20124860  0.01675788  1
  Si  Si0_5  1  0.75000000  0.20124860  0.51675788  1
  Si  Si0_6  1  0.75000000  0.70124860  0.01675788  1
  Si  Si0_7  1  0.75000000  0.70124860  0.51675788  1
  Si  Si1_0  1  0.25000000  0.29598069  0.48086609  1
  Si  Si1_1  1  0.25000000  0.29598069  0.98086609  1
  Si  Si1_2  1  0.25000000  0.79598069  0.48086609  1
  Si  Si1_3  1  0.25000000  0.79598069  0.98086609  1
  Si  Si1_4  1  0.75000000  0.29598069  0.48086609  1
  Si  Si1_5  1  0.75000000  0.29598069  0.98086609  1
  Si  Si1_6  1  0.75000000  0.79598069  0.48086609  1
  Si  Si1_7  1  0.75000000  0.79598069  0.98086609  1
  Si  Si2_0  1  0.25000000  0.04801718  0.26789027  1
  Si  Si2_1  1  0.25000000  0.04801718  0.76789027  1
  Si  Si2_2  1  0.25000000  0.54801718  0.26789027  1
  Si  Si2_3  1  0.25000000  0.54801718  0.76789027  1
  Si  Si2_4  1  0.75000000  0.04801718  0.26789027  1
  Si  Si2_5  1  0.75000000  0.04801718  0.76789027  1
  Si  Si2_6  1  0.75000000  0.54801718  0.26789027  1
  Si  Si2_7  1  0.75000000  0.54801718  0.76789027  1
  Si  Si3_0  1  0.25000000  0.45191222  0.23246062  1
  Si  Si3_1  1  0.25000000  0.45191222  0.73246062  1
  Si  Si3_2  1  0.25000000  0.95191222  0.23246062  1
  Si  Si3_3  1  0.25000000  0.95191222  0.73246062  1
  Si  Si3_4  1  0.75000000  0.45191222  0.23246062  1
  Si  Si3_5  1  0.75000000  0.45191222  0.73246062  1
  Si  Si3_6  1  0.75000000  0.95191222  0.23246062  1
  Si  Si3_7  1  0.75000000  0.95191222  0.73246062  1
  Si  Si4_0  1  0.00000000  0.05710654  0.00668076  1
  Si  Si4_1  1  0.00000000  0.05710654  0.50668076  1
  Si  Si4_2  1  0.00000000  0.55710654  0.00668076  1
  Si  Si4_3  1  0.00000000  0.55710654  0.50668076  1
  Si  Si4_4  1  0.50000000  0.05710654  0.00668076  1
  Si  Si4_5  1  0.50000000  0.05710654  0.50668076  1
  Si  Si4_6  1  0.50000000  0.55710654  0.00668076  1
  Si  Si4_7  1  0.50000000  0.55710654  0.50668076  1
  Si  Si5_0  1  0.00000000  0.44392938  0.49199343  1
  Si  Si5_1  1  0.00000000  0.44392938  0.99199343  1
  Si  Si5_2  1  0.00000000  0.94392938  0.49199343  1
  Si  Si5_3  1  0.00000000  0.94392938  0.99199343  1
  Si  Si5_4  1  0.50000000  0.44392938  0.49199343  1
  Si  Si5_5  1  0.50000000  0.44392938  0.99199343  1
  Si  Si5_6  1  0.50000000  0.94392938  0.49199343  1
  Si  Si5_7  1  0.50000000  0.94392938  0.99199343  1
  Si  Si6_0  1  0.00000000  0.19276318  0.25763997  1
  Si  Si6_1  1  0.00000000  0.19276318  0.75763997  1
  Si  Si6_2  1  0.00000000  0.69276318  0.25763997  1
  Si  Si6_3  1  0.00000000  0.69276318  0.75763997  1
  Si  Si6_4  1  0.50000000  0.19276318  0.25763997  1
  Si  Si6_5  1  0.50000000  0.19276318  0.75763997  1
  Si  Si6_6  1  0.50000000  0.69276318  0.25763997  1
  Si  Si6_7  1  0.50000000  0.69276318  0.75763997  1
  Si  Si7_0  1  0.00000000  0.30682451  0.24308650  1
  Si  Si7_1  1  0.00000000  0.30682451  0.74308650  1
  Si  Si7_2  1  0.00000000  0.80682451  0.24308650  1
  Si  Si7_3  1  0.00000000  0.80682451  0.74308650  1
  Si  Si7_4  1  0.50000000  0.30682451  0.24308650  1
  Si  Si7_5  1  0.50000000  0.30682451  0.74308650  1
  Si  Si7_6  1  0.50000000  0.80682451  0.24308650  1
  Si  Si7_7  1  0.50000000  0.80682451  0.74308650  1
  Si  Si8_0  1  0.00000000  0.09067239  0.06582116  1
  Si  Si8_1  1  0.00000000  0.09067239  0.56582116  1
  Si  Si8_2  1  0.00000000  0.59067239  0.06582116  1
  Si  Si8_3  1  0.00000000  0.59067239  0.56582116  1
  Si  Si8_4  1  0.50000000  0.09067239  0.06582116  1
  Si  Si8_5  1  0.50000000  0.09067239  0.56582116  1
  Si  Si8_6  1  0.50000000  0.59067239  0.06582116  1
  Si  Si8_7  1  0.50000000  0.59067239  0.56582116  1
  Si  Si9_0  1  0.00000000  0.40997483  0.43300225  1
  Si  Si9_1  1  0.00000000  0.40997483  0.93300225  1
  Si  Si9_2  1  0.00000000  0.90997483  0.43300225  1
  Si  Si9_3  1  0.00000000  0.90997483  0.93300225  1
  Si  Si9_4  1  0.50000000  0.40997483  0.43300225  1
  Si  Si9_5  1  0.50000000  0.40997483  0.93300225  1
  Si  Si9_6  1  0.50000000  0.90997483  0.43300225  1
  Si  Si9_7  1  0.50000000  0.90997483  0.93300225  1
  Si  Si10_0  1  0.00000000  0.15974867  0.31675030  1
  Si  Si10_1  1  0.00000000  0.15974867  0.81675030  1
  Si  Si10_2  1  0.00000000  0.65974867  0.31675030  1
  Si  Si10_3  1  0.00000000  0.65974867  0.81675030  1
  Si  Si10_4  1  0.50000000  0.15974867  0.31675030  1
  Si  Si10_5  1  0.50000000  0.15974867  0.81675030  1
  Si  Si10_6  1  0.50000000  0.65974867  0.31675030  1
  Si  Si10_7  1  0.50000000  0.65974867  0.81675030  1
  Si  Si11_0  1  0.00000000  0.33927682  0.18395440  1
  Si  Si11_1  1  0.00000000  0.33927682  0.68395440  1
  Si  Si11_2  1  0.00000000  0.83927682  0.18395440  1
  Si  Si11_3  1  0.00000000  0.83927682  0.68395440  1
  Si  Si11_4  1  0.50000000  0.33927682  0.18395440  1
  Si  Si11_5  1  0.50000000  0.33927682  0.68395440  1
  Si  Si11_6  1  0.50000000  0.83927682  0.18395440  1
  Si  Si11_7  1  0.50000000  0.83927682  0.68395440  1
  As  As0_0  1  0.25000000  0.38968678  0.02132350  1
  As  As0_1  1  0.25000000  0.38968678  0.52132350  1
  As  As0_2  1  0.25000000  0.88968678  0.02132350  1
  As  As0_3  1  0.25000000  0.88968678  0.52132350  1
  As  As0_4  1  0.75000000  0.38968678  0.02132350  1
  As  As0_5  1  0.75000000  0.38968678  0.52132350  1
  As  As0_6  1  0.75000000  0.88968678  0.02132350  1
  As  As0_7  1  0.75000000  0.88968678  0.52132350  1
  P  P0_0  1  0.25000000  0.05924407  0.09723994  1
  P  P0_1  1  0.25000000  0.05924407  0.59723994  1
  P  P0_2  1  0.25000000  0.55924407  0.09723994  1
  P  P0_3  1  0.25000000  0.55924407  0.59723994  1
  P  P0_4  1  0.75000000  0.05924407  0.09723994  1
  P  P0_5  1  0.75000000  0.05924407  0.59723994  1
  P  P0_6  1  0.75000000  0.55924407  0.09723994  1
  P  P0_7  1  0.75000000  0.55924407  0.59723994  1
  P  P1_0  1  0.25000000  0.44232638  0.40181294  1
  P  P1_1  1  0.25000000  0.44232638  0.90181294  1
  P  P1_2  1  0.25000000  0.94232638  0.40181294  1
  P  P1_3  1  0.25000000  0.94232638  0.90181294  1
  P  P1_4  1  0.75000000  0.44232638  0.40181294  1
  P  P1_5  1  0.75000000  0.44232638  0.90181294  1
  P  P1_6  1  0.75000000  0.94232638  0.40181294  1
  P  P1_7  1  0.75000000  0.94232638  0.90181294  1
  P  P2_0  1  0.25000000  0.19211203  0.34784808  1
  P  P2_1  1  0.25000000  0.19211203  0.84784808  1
  P  P2_2  1  0.25000000  0.69211203  0.34784808  1
  P  P2_3  1  0.25000000  0.69211203  0.84784808  1
  P  P2_4  1  0.75000000  0.19211203  0.34784808  1
  P  P2_5  1  0.75000000  0.19211203  0.84784808  1
  P  P2_6  1  0.75000000  0.69211203  0.34784808  1
  P  P2_7  1  0.75000000  0.69211203  0.84784808  1
  P  P3_0  1  0.25000000  0.30743878  0.15269140  1
  P  P3_1  1  0.25000000  0.30743878  0.65269140  1
  P  P3_2  1  0.25000000  0.80743878  0.15269140  1
  P  P3_3  1  0.25000000  0.80743878  0.65269140  1
  P  P3_4  1  0.75000000  0.30743878  0.15269140  1
  P  P3_5  1  0.75000000  0.30743878  0.65269140  1
  P  P3_6  1  0.75000000  0.80743878  0.15269140  1
  P  P3_7  1  0.75000000  0.80743878  0.65269140  1
  P  P4_0  1  0.25000000  0.14097051  0.23146029  1
  P  P4_1  1  0.25000000  0.14097051  0.73146029  1
  P  P4_2  1  0.25000000  0.64097051  0.23146029  1
  P  P4_3  1  0.25000000  0.64097051  0.73146029  1
  P  P4_4  1  0.75000000  0.14097051  0.23146029  1
  P  P4_5  1  0.75000000  0.14097051  0.73146029  1
  P  P4_6  1  0.75000000  0.64097051  0.23146029  1
  P  P4_7  1  0.75000000  0.64097051  0.73146029  1
  P  P5_0  1  0.25000000  0.35908904  0.26897173  1
  P  P5_1  1  0.25000000  0.35908904  0.76897173  1
  P  P5_2  1  0.25000000  0.85908904  0.26897173  1
  P  P5_3  1  0.25000000  0.85908904  0.76897173  1
  P  P5_4  1  0.75000000  0.35908904  0.26897173  1
  P  P5_5  1  0.75000000  0.35908904  0.76897173  1
  P  P5_6  1  0.75000000  0.85908904  0.26897173  1
  P  P5_7  1  0.75000000  0.85908904  0.76897173  1
  P  P6_0  1  0.25000000  0.10864963  0.48058521  1
  P  P6_1  1  0.25000000  0.10864963  0.98058521  1
  P  P6_2  1  0.25000000  0.60864963  0.48058521  1
  P  P6_3  1  0.25000000  0.60864963  0.98058521  1
  P  P6_4  1  0.75000000  0.10864963  0.48058521  1
  P  P6_5  1  0.75000000  0.10864963  0.98058521  1
  P  P6_6  1  0.75000000  0.60864963  0.48058521  1
  P  P6_7  1  0.75000000  0.60864963  0.98058521  1
  P  P7_0  1  0.00000000  0.20433487  0.05387434  1
  P  P7_1  1  0.00000000  0.20433487  0.55387434  1
  P  P7_2  1  0.00000000  0.70433487  0.05387434  1
  P  P7_3  1  0.00000000  0.70433487  0.55387434  1
  P  P7_4  1  0.50000000  0.20433487  0.05387434  1
  P  P7_5  1  0.50000000  0.20433487  0.55387434  1
  P  P7_6  1  0.50000000  0.70433487  0.05387434  1
  P  P7_7  1  0.50000000  0.70433487  0.55387434  1
  P  P8_0  1  0.00000000  0.29567468  0.44385336  1
  P  P8_1  1  0.00000000  0.29567468  0.94385336  1
  P  P8_2  1  0.00000000  0.79567468  0.44385336  1
  P  P8_3  1  0.00000000  0.79567468  0.94385336  1
  P  P8_4  1  0.50000000  0.29567468  0.44385336  1
  P  P8_5  1  0.50000000  0.29567468  0.94385336  1
  P  P8_6  1  0.50000000  0.79567468  0.44385336  1
  P  P8_7  1  0.50000000  0.79567468  0.94385336  1
  P  P9_0  1  0.00000000  0.04575462  0.30497302  1
  P  P9_1  1  0.00000000  0.04575462  0.80497302  1
  P  P9_2  1  0.00000000  0.54575462  0.30497302  1
  P  P9_3  1  0.00000000  0.54575462  0.80497302  1
  P  P9_4  1  0.50000000  0.04575462  0.30497302  1
  P  P9_5  1  0.50000000  0.04575462  0.80497302  1
  P  P9_6  1  0.50000000  0.54575462  0.30497302  1
  P  P9_7  1  0.50000000  0.54575462  0.80497302  1
  P  P10_0  1  0.00000000  0.45342150  0.19538589  1
  P  P10_1  1  0.00000000  0.45342150  0.69538589  1
  P  P10_2  1  0.00000000  0.95342150  0.19538589  1
  P  P10_3  1  0.00000000  0.95342150  0.69538589  1
  P  P10_4  1  0.50000000  0.45342150  0.19538589  1
  P  P10_5  1  0.50000000  0.45342150  0.69538589  1
  P  P10_6  1  0.50000000  0.95342150  0.19538589  1
  P  P10_7  1  0.50000000  0.95342150  0.69538589  1
loop_
_geom_bond_atom_site_label_1
_geom_bond_atom_site_label_2
_geom_bond_distance
_geom_bond_site_symmetry_2
K0_0 P0_4 3.387809 1_455
K0_0 P0_0 3.387809 1_555
K0_0 P3_4 3.430404 1_455
K0_0 P3_0 3.430404 1_555
K0_0 P4_4 3.513428 1_455
K0_0 P4_0 3.513428 1_555
K0_1 P0_5 3.387809 1_455
K0_1 P0_1 3.387809 1_555
K0_1 P3_5 3.430404 1_455
K0_1 P3_1 3.430404 1_555
K0_1 P4_1 3.513428 1_555
K0_1 P4_5 3.513428 1_455
K0_2 P0_6 3.387809 1_455
K0_2 P0_2 3.387809 1_555
K0_2 P3_6 3.430404 1_455
K0_2 P3_2 3.430404 1_555
K0_2 P4_6 3.513428 1_455
K0_2 P4_2 3.513428 1_555
K0_3 P0_7 3.387809 1_455
K0_3 P0_3 3.387809 1_555
K0_3 P3_7 3.430404 1_455
K0_3 P3_3 3.430404 1_555
K0_3 P4_3 3.513428 1_555
K0_3 P4_7 3.513428 1_455
K0_4 P0_0 3.387809 1_555
K0_4 P0_4 3.387809 1_555
K0_4 P3_0 3.430404 1_555
K0_4 P3_4 3.430404 1_555
K0_4 P4_0 3.513428 1_555
K0_4 P4_4 3.513428 1_555
K0_5 P0_5 3.387809 1_555
K0_5 P0_1 3.387809 1_555
K0_5 P3_1 3.430404 1_555
K0_5 P3_5 3.430404 1_555
K0_5 P4_1 3.513428 1_555
K0_5 P4_5 3.513428 1_555
K0_6 P0_2 3.387809 1_555
K0_6 P0_6 3.387809 1_555
K0_6 P3_2 3.430404 1_555
K0_6 P3_6 3.430404 1_555
K0_6 P4_2 3.513428 1_555
K0_6 P4_6 3.513428 1_555
K0_7 P0_3 3.387809 1_555
K0_7 P0_7 3.387809 1_555
K0_7 P3_3 3.430404 1_555
K0_7 P3_7 3.430404 1_555
K0_7 P4_3 3.513428 1_555
K0_7 P4_7 3.513428 1_555
K1_0 P1_4 3.389026 1_455
K1_0 P1_0 3.389026 1_555
K1_0 P2_0 3.435592 1_555
K1_0 P2_4 3.435592 1_455
K1_0 P5_4 3.495694 1_455
K1_0 P5_0 3.495694 1_555
K1_1 P1_5 3.389026 1_455
K1_1 P1_1 3.389026 1_555
K1_1 P2_5 3.435592 1_455
K1_1 P2_1 3.435592 1_555
K1_1 P5_5 3.495694 1_455
K1_1 P5_1 3.495694 1_555
K1_2 P1_6 3.389026 1_455
K1_2 P1_2 3.389026 1_555
K1_2 P2_6 3.435592 1_455
K1_2 P2_2 3.435592 1_555
K1_2 P5_6 3.495694 1_455
K1_2 P5_2 3.495694 1_555
K1_3 P1_7 3.389026 1_455
K1_3 P1_3 3.389026 1_555
K1_3 P2_3 3.435592 1_555
K1_3 P2_7 3.435592 1_455
K1_3 P5_7 3.495694 1_455
K1_3 P5_3 3.495694 1_555
K1_4 P1_0 3.389026 1_555
K1_4 P1_4 3.389026 1_555
K1_4 P2_0 3.435592 1_555
K1_4 P2_4 3.435592 1_555
K1_4 P5_0 3.495694 1_555
K1_4 P5_4 3.495694 1_555
K1_5 P1_1 3.389026 1_555
K1_5 P1_5 3.389026 1_555
K1_5 P2_1 3.435592 1_555
K1_5 P2_5 3.435592 1_555
K1_5 P5_1 3.495694 1_555
K1_5 P5_5 3.495694 1_555
K1_6 P1_2 3.389026 1_555
K1_6 P1_6 3.389026 1_555
K1_6 P2_2 3.435592 1_555
K1_6 P2_6 3.435592 1_555
K1_6 P5_2 3.495694 1_555
K1_6 P5_6 3.495694 1_555
K1_7 P1_3 3.389026 1_555
K1_7 P1_7 3.389026 1_555
K1_7 P2_3 3.435592 1_555
K1_7 P2_7 3.435592 1_555
K1_7 P5_3 3.495694 1_555
K1_7 P5_7 3.495694 1_555
K2_0 P2_4 3.396533 1_455
K2_0 P2_0 3.396533 1_555
K2_0 P1_6 3.433488 1_445
K2_0 P1_2 3.433488 1_545
K2_0 P6_4 3.477395 1_455
K2_0 P6_0 3.477395 1_555
K2_1 P2_5 3.396533 1_455
K2_1 P2_1 3.396533 1_555
K2_1 P1_7 3.433488 1_445
K2_1 P1_3 3.433488 1_545
K2_1 P6_5 3.477395 1_455
K2_1 P6_1 3.477395 1_555
K2_2 P2_6 3.396533 1_455
K2_2 P2_2 3.396533 1_555
K2_2 P1_4 3.433488 1_455
K2_2 P1_0 3.433488 1_555
K2_2 P6_6 3.477395 1_455
K2_2 P6_2 3.477395 1_555
K2_3 P2_7 3.396533 1_455
K2_3 P2_3 3.396533 1_555
K2_3 P1_5 3.433488 1_455
K2_3 P1_1 3.433488 1_555
K2_3 P6_7 3.477395 1_455
K2_3 P6_3 3.477395 1_555
K2_4 P2_0 3.396533 1_555
K2_4 P2_4 3.396533 1_555
K2_4 P1_6 3.433488 1_545
K2_4 P1_2 3.433488 1_545
K2_4 P6_0 3.477395 1_555
K2_4 P6_4 3.477395 1_555
K2_5 P2_1 3.396533 1_555
K2_5 P2_5 3.396533 1_555
K2_5 P1_3 3.433488 1_545
K2_5 P1_7 3.433488 1_545
K2_5 P6_1 3.477395 1_555
K2_5 P6_5 3.477395 1_555
K2_6 P2_2 3.396533 1_555
K2_6 P2_6 3.396533 1_555
K2_6 P1_0 3.433488 1_555
K2_6 P1_4 3.433488 1_555
K2_6 P6_2 3.477395 1_555
K2_6 P6_6 3.477395 1_555
K2_7 P2_3 3.396533 1_555
K2_7 P2_7 3.396533 1_555
K2_7 P1_1 3.433488 1_555
K2_7 P1_5 3.433488 1_555
K2_7 P6_3 3.477395 1_555
K2_7 P6_7 3.477395 1_555
K3_0 P3_4 3.390088 1_455
K3_0 P3_0 3.390088 1_555
K3_0 P0_6 3.395202 1_455
K3_0 P0_2 3.395202 1_555
K3_0 Si11_0 3.488145 1_555
K3_0 K3_4 3.541952 1_555
K3_0 K3_4 3.541952 1_455
K3_0 P10_0 3.676292 1_555
K3_0 Si8_2 3.762114 1_555
K3_1 P3_5 3.390088 1_455
K3_1 P3_1 3.390088 1_555
K3_1 P0_7 3.395202 1_455
K3_1 P0_3 3.395202 1_555
K3_1 Si11_1 3.488145 1_555
K3_1 K3_5 3.541952 1_455
K3_1 K3_5 3.541952 1_555
K3_1 P10_1 3.676292 1_555
K3_1 Si8_3 3.762114 1_555
K3_2 P3_6 3.390088 1_455
K3_2 P3_2 3.390088 1_555
K3_2 P0_4 3.395202 1_465
K3_2 P0_0 3.395202 1_565
K3_2 Si11_2 3.488145 1_555
K3_2 K3_6 3.541952 1_455
K3_2 K3_6 3.541952 1_555
K3_2 P10_2 3.676292 1_555
K3_2 Si8_0 3.762114 1_565
K3_3 P3_7 3.390088 1_455
K3_3 P3_3 3.390088 1_555
K3_3 P0_5 3.395202 1_465
K3_3 P0_1 3.395202 1_565
K3_3 Si11_3 3.488145 1_555
K3_3 K3_7 3.541952 1_455
K3_3 K3_7 3.541952 1_555
K3_3 P10_3 3.676292 1_555
K3_3 Si8_1 3.762114 1_565
K3_4 P3_0 3.390088 1_555
K3_4 P3_4 3.390088 1_555
K3_4 P0_2 3.395202 1_555
K3_4 P0_6 3.395202 1_555
K3_4 Si11_4 3.488145 1_555
K3_4 P10_4 3.676292 1_555
K3_4 Si8_6 3.762114 1_555
K3_5 P3_1 3.390088 1_555
K3_5 P3_5 3.390088 1_555
K3_5 P0_3 3.395202 1_555
K3_5 P0_7 3.395202 1_555
K3_5 Si11_5 3.488145 1_555
K3_5 P10_5 3.676292 1_555
K3_5 Si8_7 3.762114 1_555
K3_6 P3_2 3.390088 1_555
K3_6 P3_6 3.390088 1_555
K3_6 P0_0 3.395202 1_565
K3_6 P0_4 3.395202 1_565
K3_6 Si11_6 3.488145 1_555
K3_6 P10_6 3.676292 1_555
K3_6 Si8_4 3.762114 1_565
K3_7 P3_3 3.390088 1_555
K3_7 P3_7 3.390088 1_555
K3_7 P0_1 3.395202 1_565
K3_7 P0_5 3.395202 1_565
K3_7 Si11_7 3.488145 1_555
K3_7 P10_7 3.676292 1_555
K3_7 Si8_5 3.762114 1_565
Si0_0 Si1_1 2.326182 1_554
Si0_1 Si1_0 2.326182 1_555
Si0_2 Si1_3 2.326182 1_554
Si0_3 Si1_2 2.326182 1_555
Si0_4 Si1_5 2.326182 1_554
Si0_5 Si1_4 2.326182 1_555
Si0_6 Si1_7 2.326182 1_554
Si0_7 Si1_6 2.326182 1_555
Si2_0 Si3_2 2.336803 1_545
Si2_1 Si3_3 2.336803 1_545
Si2_2 Si3_0 2.336803 1_555
Si2_3 Si3_1 2.336803 1_555
Si2_4 Si3_6 2.336803 1_545
Si2_5 Si3_7 2.336803 1_545
Si2_6 Si3_4 2.336803 1_555
Si2_7 Si3_5 2.336803 1_555
Si4_0 Si5_3 2.318651 1_544
Si4_0 Si8_0 2.342792 1_555
Si4_1 Si5_2 2.318651 1_545
Si4_1 Si8_1 2.342792 1_555
Si4_2 Si5_1 2.318651 1_554
Si4_2 Si8_2 2.342792 1_555
Si4_3 Si5_0 2.318651 1_555
Si4_3 Si8_3 2.342792 1_555
Si4_4 Si5_7 2.318651 1_544
Si4_4 Si8_4 2.342792 1_555
Si4_5 Si5_6 2.318651 1_545
Si4_5 Si8_5 2.342792 1_555
Si4_6 Si5_5 2.318651 1_554
Si4_6 Si8_6 2.342792 1_555
Si4_7 Si5_4 2.318651 1_555
Si4_7 Si8_7 2.342792 1_555
Si5_0 Si9_0 2.339575 1_555
Si5_1 Si9_1 2.339575 1_555
Si5_2 Si9_2 2.339575 1_555
Si5_3 Si9_3 2.339575 1_555
Si5_4 Si9_4 2.339575 1_555
Si5_5 Si9_5 2.339575 1_555
Si5_6 Si9_6 2.339575 1_555
Si5_7 Si9_7 2.339575 1_555
Si6_0 Si7_0 2.335203 1_555
Si6_1 Si7_1 2.335203 1_555
Si6_2 Si7_2 2.335203 1_555
Si6_3 Si7_3 2.335203 1_555
Si6_4 Si7_4 2.335203 1_555
Si6_5 Si7_5 2.335203 1_555
Si6_6 Si7_6 2.335203 1_555
Si6_7 Si7_7 2.335203 1_555
Si10_0 Si6_0 2.339406 1_555
Si10_1 Si6_1 2.339406 1_555
Si10_2 Si6_2 2.339406 1_555
Si10_3 Si6_3 2.339406 1_555
Si10_4 Si6_4 2.339406 1_555
Si10_5 Si6_5 2.339406 1_555
Si10_6 Si6_6 2.339406 1_555
Si10_7 Si6_7 2.339406 1_555
Si11_0 Si7_0 2.337081 1_555
Si11_1 Si7_1 2.337081 1_555
Si11_2 Si7_2 2.337081 1_555
Si11_3 Si7_3 2.337081 1_555
Si11_4 Si7_4 2.337081 1_555
Si11_5 Si7_5 2.337081 1_555
Si11_6 Si7_6 2.337081 1_555
Si11_7 Si7_7 2.337081 1_555
As0_0 Si5_1 2.354257 1_554
As0_0 Si5_5 2.354257 1_554
As0_0 Si1_1 2.414645 1_554
As0_0 K3_0 3.532900 1_555
As0_0 K3_4 3.532900 1_555
As0_1 Si5_4 2.354257 1_555
As0_1 Si5_0 2.354257 1_555
As0_1 Si1_0 2.414645 1_555
As0_1 K3_1 3.532900 1_555
As0_1 K3_5 3.532900 1_555
As0_2 Si5_3 2.354257 1_554
As0_2 Si5_7 2.354257 1_554
As0_2 Si1_3 2.414645 1_554
As0_2 K3_2 3.532900 1_555
As0_2 K3_6 3.532900 1_555
As0_3 Si5_6 2.354257 1_555
As0_3 Si5_2 2.354257 1_555
As0_3 Si1_2 2.414645 1_555
As0_3 K3_3 3.532900 1_555
As0_3 K3_7 3.532900 1_555
As0_4 Si5_1 2.354257 1_654
As0_4 Si5_5 2.354257 1_554
As0_4 Si1_5 2.414645 1_554
As0_4 K3_0 3.532900 1_655
As0_4 K3_4 3.532900 1_555
As0_5 Si5_0 2.354257 1_655
As0_5 Si5_4 2.354257 1_555
As0_5 Si1_4 2.414645 1_555
As0_5 K3_1 3.532900 1_655
As0_5 K3_5 3.532900 1_555
As0_6 Si5_3 2.354257 1_654
As0_6 Si5_7 2.354257 1_554
As0_6 Si1_7 2.414645 1_554
As0_6 K3_2 3.532900 1_655
As0_6 K3_6 3.532900 1_555
As0_7 Si5_2 2.354257 1_655
As0_7 Si5_6 2.354257 1_555
As0_7 Si1_6 2.414645 1_555
As0_7 K3_3 3.532900 1_655
As0_7 K3_7 3.532900 1_555
P0_0 Si8_0 2.225278 1_555
P0_0 Si8_4 2.225278 1_555
P0_1 Si8_1 2.225278 1_555
P0_1 Si8_5 2.225278 1_555
P0_2 Si8_6 2.225278 1_555
P0_2 Si8_2 2.225278 1_555
P0_3 Si8_3 2.225278 1_555
P0_3 Si8_7 2.225278 1_555
P0_4 Si8_0 2.225278 1_655
P0_4 Si8_4 2.225278 1_555
P0_5 Si8_1 2.225278 1_655
P0_5 Si8_5 2.225278 1_555
P0_6 Si8_2 2.225278 1_655
P0_6 Si8_6 2.225278 1_555
P0_7 Si8_3 2.225278 1_655
P0_7 Si8_7 2.225278 1_555
P1_0 Si9_4 2.225860 1_555
P1_0 Si9_0 2.225860 1_555
P1_1 Si9_1 2.225860 1_555
P1_1 Si9_5 2.225860 1_555
P1_2 Si9_2 2.225860 1_555
P1_2 Si9_6 2.225860 1_555
P1_3 Si9_3 2.225860 1_555
P1_3 Si9_7 2.225860 1_555
P1_4 Si9_0 2.225860 1_655
P1_4 Si9_4 2.225860 1_555
P1_5 Si9_1 2.225860 1_655
P1_5 Si9_5 2.225860 1_555
P1_6 Si9_2 2.225860 1_655
P1_6 Si9_6 2.225860 1_555
P1_7 Si9_3 2.225860 1_655
P1_7 Si9_7 2.225860 1_555
P2_0 Si10_0 2.223643 1_555
P2_0 Si10_4 2.223643 1_555
P2_1 Si10_5 2.223643 1_555
P2_1 Si10_1 2.223643 1_555
P2_2 Si10_2 2.223643 1_555
P2_2 Si10_6 2.223643 1_555
P2_3 Si10_3 2.223643 1_555
P2_3 Si10_7 2.223643 1_555
P2_4 Si10_0 2.223643 1_655
P2_4 Si10_4 2.223643 1_555
P2_5 Si10_1 2.223643 1_655
P2_5 Si10_5 2.223643 1_555
P2_6 Si10_2 2.223643 1_655
P2_6 Si10_6 2.223643 1_555
P2_7 Si10_3 2.223643 1_655
P2_7 Si10_7 2.223643 1_555
P3_0 Si11_0 2.223987 1_555
P3_0 Si11_4 2.223987 1_555
P3_1 Si11_1 2.223987 1_555
P3_1 Si11_5 2.223987 1_555
P3_2 Si11_6 2.223987 1_555
P3_2 Si11_2 2.223987 1_555
P3_3 Si11_3 2.223987 1_555
P3_3 Si11_7 2.223987 1_555
P3_4 Si11_0 2.223987 1_655
P3_4 Si11_4 2.223987 1_555
P3_5 Si11_1 2.223987 1_655
P3_5 Si11_5 2.223987 1_555
P3_6 Si11_2 2.223987 1_655
P3_6 Si11_6 2.223987 1_555
P3_7 Si11_3 2.223987 1_655
P3_7 Si11_7 2.223987 1_555
P4_0 Si6_4 2.276991 1_555
P4_0 Si6_0 2.276991 1_555
P4_0 Si2_0 2.309805 1_555
P4_1 Si6_5 2.276991 1_555
P4_1 Si6_1 2.276991 1_555
P4_1 Si2_1 2.309805 1_555
P4_2 Si6_2 2.276991 1_555
P4_2 Si6_6 2.276991 1_555
P4_2 Si2_2 2.309805 1_555
P4_3 Si6_7 2.276991 1_555
P4_3 Si6_3 2.276991 1_555
P4_3 Si2_3 2.309805 1_555
P4_4 Si6_0 2.276991 1_655
P4_4 Si6_4 2.276991 1_555
P4_4 Si2_4 2.309805 1_555
P4_5 Si6_1 2.276991 1_655
P4_5 Si6_5 2.276991 1_555
P4_5 Si2_5 2.309805 1_555
P4_6 Si6_2 2.276991 1_655
P4_6 Si6_6 2.276991 1_555
P4_6 Si2_6 2.309805 1_555
P4_7 Si6_3 2.276991 1_655
P4_7 Si6_7 2.276991 1_555
P4_7 Si2_7 2.309805 1_555
P5_0 Si7_0 2.276400 1_555
P5_0 Si7_4 2.276400 1_555
P5_0 Si3_0 2.309583 1_555
P5_1 Si7_1 2.276400 1_555
P5_1 Si7_5 2.276400 1_555
P5_1 Si3_1 2.309583 1_555
P5_2 Si7_2 2.276400 1_555
P5_2 Si7_6 2.276400 1_555
P5_2 Si3_2 2.309583 1_555
P5_3 Si7_7 2.276400 1_555
P5_3 Si7_3 2.276400 1_555
P5_3 Si3_3 2.309583 1_555
P5_4 Si7_0 2.276400 1_655
P5_4 Si7_4 2.276400 1_555
P5_4 Si3_4 2.309583 1_555
P5_5 Si7_1 2.276400 1_655
P5_5 Si7_5 2.276400 1_555
P5_5 Si3_5 2.309583 1_555
P5_6 Si7_2 2.276400 1_655
P5_6 Si7_6 2.276400 1_555
P5_6 Si3_6 2.309583 1_555
P5_7 Si7_3 2.276400 1_655
P5_7 Si7_7 2.276400 1_555
P5_7 Si3_7 2.309583 1_555
P6_0 Si4_1 2.273927 1_555
P6_0 Si4_5 2.273927 1_555
P6_0 Si0_1 2.296900 1_555
P6_1 Si4_0 2.273927 1_556
P6_1 Si4_4 2.273927 1_556
P6_1 Si0_0 2.296900 1_556
P6_2 Si4_7 2.273927 1_555
P6_2 Si4_3 2.273927 1_555
P6_2 Si0_3 2.296900 1_555
P6_3 Si4_2 2.273927 1_556
P6_3 Si4_6 2.273927 1_556
P6_3 Si0_2 2.296900 1_556
P6_4 Si4_1 2.273927 1_655
P6_4 Si4_5 2.273927 1_555
P6_4 Si0_5 2.296900 1_555
P6_5 Si4_0 2.273927 1_656
P6_5 Si4_4 2.273927 1_556
P6_5 Si0_4 2.296900 1_556
P6_6 Si4_3 2.273927 1_655
P6_6 Si4_7 2.273927 1_555
P6_6 Si0_7 2.296900 1_555
P6_7 Si4_2 2.273927 1_656
P6_7 Si4_6 2.273927 1_556
P6_7 Si0_6 2.296900 1_556
P7_0 Si0_4 2.264314 1_455
P7_0 Si0_0 2.264314 1_555
P7_0 Si8_0 2.305931 1_555
P7_1 Si0_5 2.264314 1_455
P7_1 Si0_1 2.264314 1_555
P7_1 Si8_1 2.305931 1_555
P7_2 Si0_6 2.264314 1_455
P7_2 Si0_2 2.264314 1_555
P7_2 Si8_2 2.305931 1_555
P7_3 Si0_7 2.264314 1_455
P7_3 Si0_3 2.264314 1_555
P7_3 Si8_3 2.305931 1_555
P7_4 Si0_0 2.264314 1_555
P7_4 Si0_4 2.264314 1_555
P7_4 Si8_4 2.305931 1_555
P7_5 Si0_1 2.264314 1_555
P7_5 Si0_5 2.264314 1_555
P7_5 Si8_5 2.305931 1_555
P7_6 Si0_2 2.264314 1_555
P7_6 Si0_6 2.264314 1_555
P7_6 Si8_6 2.305931 1_555
P7_7 Si0_3 2.264314 1_555
P7_7 Si0_7 2.264314 1_555
P7_7 Si8_7 2.305931 1_555
P8_0 Si1_4 2.261060 1_455
P8_0 Si1_0 2.261060 1_555
P8_0 Si9_0 2.310557 1_555
P8_1 Si1_5 2.261060 1_455
P8_1 Si1_1 2.261060 1_555
P8_1 Si9_1 2.310557 1_555
P8_2 Si1_6 2.261060 1_455
P8_2 Si1_2 2.261060 1_555
P8_2 Si9_2 2.310557 1_555
P8_3 Si1_7 2.261060 1_455
P8_3 Si1_3 2.261060 1_555
P8_3 Si9_3 2.310557 1_555
P8_4 Si1_0 2.261060 1_555
P8_4 Si1_4 2.261060 1_555
P8_4 Si9_4 2.310557 1_555
P8_5 Si1_1 2.261060 1_555
P8_5 Si1_5 2.261060 1_555
P8_5 Si9_5 2.310557 1_555
P8_6 Si1_2 2.261060 1_555
P8_6 Si1_6 2.261060 1_555
P8_6 Si9_6 2.310557 1_555
P8_7 Si1_3 2.261060 1_555
P8_7 Si1_7 2.261060 1_555
P8_7 Si9_7 2.310557 1_555
P9_0 Si2_4 2.263174 1_455
P9_0 Si2_0 2.263174 1_555
P9_0 Si10_0 2.310578 1_555
P9_1 Si2_5 2.263174 1_455
P9_1 Si2_1 2.263174 1_555
P9_1 Si10_1 2.310578 1_555
P9_2 Si2_6 2.263174 1_455
P9_2 Si2_2 2.263174 1_555
P9_2 Si10_2 2.310578 1_555
P9_3 Si2_7 2.263174 1_455
P9_3 Si2_3 2.263174 1_555
P9_3 Si10_3 2.310578 1_555
P9_4 Si2_0 2.263174 1_555
P9_4 Si2_4 2.263174 1_555
P9_4 Si10_4 2.310578 1_555
P9_5 Si2_1 2.263174 1_555
P9_5 Si2_5 2.263174 1_555
P9_5 Si10_5 2.310578 1_555
P9_6 Si2_2 2.263174 1_555
P9_6 Si2_6 2.263174 1_555
P9_6 Si10_6 2.310578 1_555
P9_7 Si2_3 2.263174 1_555
P9_7 Si2_7 2.263174 1_555
P9_7 Si10_7 2.310578 1_555
P10_0 Si3_4 2.262730 1_455
P10_0 Si3_0 2.262730 1_555
P10_0 Si11_0 2.311022 1_555
P10_1 Si3_5 2.262730 1_455
P10_1 Si3_1 2.262730 1_555
P10_1 Si11_1 2.311022 1_555
P10_2 Si3_6 2.262730 1_455
P10_2 Si3_2 2.262730 1_555
P10_2 Si11_2 2.311022 1_555
P10_3 Si3_7 2.262730 1_455
P10_3 Si3_3 2.262730 1_555
P10_3 Si11_3 2.311022 1_555
P10_4 Si3_0 2.262730 1_555
P10_4 Si3_4 2.262730 1_555
P10_4 Si11_4 2.311022 1_555
P10_5 Si3_1 2.262730 1_555
P10_5 Si3_5 2.262730 1_555
P10_5 Si11_5 2.311022 1_555
P10_6 Si3_2 2.262730 1_555
P10_6 Si3_6 2.262730 1_555
P10_6 Si11_6 2.311022 1_555
P10_7 Si3_3 2.262730 1_555
P10_7 Si3_7 2.262730 1_555
P10_7 Si11_7 2.311022 1_555
