# generated using pymatgen
data_ZrGaCu3Rh
_symmetry_space_group_name_H-M   'P 1'
_cell_length_a   4.87673420
_cell_length_b   4.87673445
_cell_length_c   4.87583764
_cell_angle_alpha   59.99392727
_cell_angle_beta   59.99392397
_cell_angle_gamma   60.00000540
_symmetry_Int_Tables_number   1
_chemical_formula_structural   ZrGaCu3Rh
_chemical_formula_sum   'Zr1 Ga1 Cu3 Rh1'
_cell_volume   81.98842973
_cell_formula_units_Z   1
loop_
 _symmetry_equiv_pos_site_id
 _symmetry_equiv_pos_as_xyz
  1  'x, y, z'
loop_
 _atom_site_type_symbol
 _atom_site_label
 _atom_site_symmetry_multiplicity
 _atom_site_fract_x
 _atom_site_fract_y
 _atom_site_fract_z
 _atom_site_occupancy
  Zr  Zr0  1  0.00177843  0.00177843  0.99466472  1
  Ga  Ga0  1  0.62193792  0.62193792  0.13418424  1
  Cu  Cu0  1  0.62433890  0.12513916  0.62618203  1
  Cu  Cu1  1  0.12513916  0.62433890  0.62618203  1
  Cu  Cu2  1  0.62433890  0.62433890  0.62618203  1
  Rh  Rh0  1  0.25246569  0.25246569  0.24260294  1
loop_
_geom_bond_atom_site_label_1
_geom_bond_atom_site_label_2
_geom_bond_distance
_geom_bond_site_symmetry_2
Ga0 Rh0 2.848464 1_555
Ga0 Rh0 2.848473 1_655
Ga0 Rh0 2.848473 1_565
Ga0 Zr0 2.869836 1_564
Ga0 Zr0 2.869836 1_654
Ga0 Zr0 2.869844 1_664
Cu0 Ga0 2.410667 1_555
Cu0 Cu2 2.434465 1_555
Cu0 Cu1 2.434465 1_555
Cu0 Cu2 2.442270 1_545
Cu0 Cu1 2.442270 1_645
Cu0 Ga0 2.465284 1_546
Cu0 Rh0 2.827849 1_556
Cu0 Zr0 2.845563 1_555
Cu0 Zr0 2.845567 1_655
Cu0 Rh0 2.877001 1_555
Cu0 Rh0 2.877006 1_655
Cu0 Zr0 2.882351 1_654
Cu1 Ga0 2.410667 1_555
Cu1 Cu2 2.434464 1_555
Cu1 Cu2 2.442270 1_455
Cu1 Ga0 2.465283 1_456
Cu1 Rh0 2.827849 1_556
Cu1 Zr0 2.845563 1_555
Cu1 Zr0 2.845567 1_565
Cu1 Rh0 2.877001 1_555
Cu1 Rh0 2.877006 1_565
Cu1 Zr0 2.882351 1_564
Cu2 Ga0 2.410669 1_555
Cu2 Ga0 2.465281 1_556
Cu2 Rh0 2.827847 1_556
Cu2 Zr0 2.845565 1_565
Cu2 Zr0 2.845565 1_655
Cu2 Rh0 2.877004 1_655
Cu2 Rh0 2.877004 1_565
Cu2 Zr0 2.882353 1_664
Rh0 Zr0 2.983561 1_554
Rh0 Zr0 2.983561 1_654
Rh0 Zr0 2.983561 1_564
Rh0 Zr0 2.993762 1_555
