# generated using pymatgen
data_Ca4Al51Cr7
_symmetry_space_group_name_H-M   'P 1'
_cell_length_a   10.17558636
_cell_length_b   10.17560225
_cell_length_c   11.36668768
_cell_angle_alpha   90.00004952
_cell_angle_beta   90.00000481
_cell_angle_gamma   119.99988551
_symmetry_Int_Tables_number   1
_chemical_formula_structural   Ca4Al51Cr7
_chemical_formula_sum   'Ca4 Al51 Cr7'
_cell_volume   1019.25916842
_cell_formula_units_Z   1
loop_
 _symmetry_equiv_pos_site_id
 _symmetry_equiv_pos_as_xyz
  1  'x, y, z'
loop_
 _atom_site_type_symbol
 _atom_site_label
 _atom_site_symmetry_multiplicity
 _atom_site_fract_x
 _atom_site_fract_y
 _atom_site_fract_z
 _atom_site_occupancy
  Ca  Ca0  1  0.33333102  0.66666419  0.58487762  1
  Ca  Ca1  1  0.33333260  0.66666573  0.90246421  1
  Ca  Ca2  1  0.66666460  0.33333349  0.41510299  1
  Ca  Ca3  1  0.66666594  0.33333389  0.09755094  1
  Al  Al0  1  0.57783652  0.42216070  0.65240087  1
  Al  Al1  1  0.57783803  0.15567758  0.65240184  1
  Al  Al2  1  0.84432294  0.42216070  0.65240133  1
  Al  Al3  1  0.09049677  0.90950342  0.17261867  1
  Al  Al4  1  0.09049601  0.18099171  0.17261901  1
  Al  Al5  1  0.81900891  0.90950479  0.17261819  1
  Al  Al6  1  0.84647760  0.15352438  0.04422158  1
  Al  Al7  1  0.84647632  0.69295408  0.04422054  1
  Al  Al8  1  0.30704538  0.15352393  0.04422102  1
  Al  Al9  1  0.24220913  0.75778959  0.14432912  1
  Al  Al10  1  0.24221002  0.48441727  0.14433000  1
  Al  Al11  1  0.51558050  0.75778847  0.14432875  1
  Al  Al12  1  0.09160960  0.90839444  0.60276663  1
  Al  Al13  1  0.09160502  0.18321628  0.60276690  1
  Al  Al14  1  0.81678623  0.90839363  0.60276499  1
  Al  Al15  1  0.15351668  0.84648334  0.95578295  1
  Al  Al16  1  0.15351680  0.30703247  0.95578356  1
  Al  Al17  1  0.69296325  0.84648219  0.95578649  1
  Al  Al18  1  0.75778980  0.24221087  0.85567507  1
  Al  Al19  1  0.75778840  0.51558116  0.85567451  1
  Al  Al20  1  0.48441871  0.24221130  0.85567424  1
  Al  Al21  1  0.42215786  0.57783992  0.34758133  1
  Al  Al22  1  0.42215688  0.84431705  0.34758088  1
  Al  Al23  1  0.15568190  0.57784155  0.34758036  1
  Al  Al24  1  0.49999901  0.49999921  0.00000563  1
  Al  Al25  1  0.49999957  0.00000033  0.00000532  1
  Al  Al26  1  -0.00000036  0.49999955  0.00000613  1
  Al  Al27  1  0.90949941  0.09050035  0.82738580  1
  Al  Al28  1  0.90950111  0.81900105  0.82738681  1
  Al  Al29  1  0.18100062  0.09050028  0.82738582  1
  Al  Al30  1  0.90839876  0.09160926  0.39723174  1
  Al  Al31  1  0.90839827  0.81678922  0.39722787  1
  Al  Al32  1  0.18321190  0.09160338  0.39722811  1
  Al  Al33  1  0.63994876  0.99999802  0.50000438  1
  Al  Al34  1  0.00000421  0.63995094  0.50000223  1
  Al  Al35  1  0.36004922  0.36005007  0.50000426  1
  Al  Al36  1  0.36004829  0.99999747  0.50000463  1
  Al  Al37  1  0.63994735  0.63994958  0.50000319  1
  Al  Al38  1  0.00000416  0.36005359  0.50000445  1
  Al  Al39  1  0.33008385  0.39581668  0.75512637  1
  Al  Al40  1  0.60418693  0.93426932  0.75512733  1
  Al  Al41  1  0.06573379  0.66991753  0.75512743  1
  Al  Al42  1  0.06573041  0.39581213  0.75512655  1
  Al  Al43  1  0.33008274  0.93426725  0.75512718  1
  Al  Al44  1  0.60418252  0.66991656  0.75512694  1
  Al  Al45  1  0.93424885  0.33008778  0.24487385  1
  Al  Al46  1  0.66991406  0.60416468  0.24487275  1
  Al  Al47  1  0.39583343  0.06574887  0.24487254  1
  Al  Al48  1  0.39584113  0.33008372  0.24487299  1
  Al  Al49  1  0.93425143  0.60416506  0.24487190  1
  Al  Al50  1  0.66991516  0.06574973  0.24487285  1
  Cr  Cr0  1  0.00000163  0.00000110  -0.00000362  1
  Cr  Cr1  1  0.16929407  0.83070638  0.34578377  1
  Cr  Cr2  1  0.16929319  0.33858599  0.34578621  1
  Cr  Cr3  1  0.66141335  0.83070740  0.34578478  1
  Cr  Cr4  1  0.83070906  0.16929135  0.65421375  1
  Cr  Cr5  1  0.83071013  0.66141929  0.65421309  1
  Cr  Cr6  1  0.33858156  0.16929077  0.65421237  1
loop_
_geom_bond_atom_site_label_1
_geom_bond_atom_site_label_2
_geom_bond_distance
_geom_bond_site_symmetry_2
Ca0 Ca1 3.609908 1_555
Ca2 Ca3 3.609515 1_555
Al0 Cr6 2.506794 1_555
Al0 Cr5 2.506830 1_555
Al0 Al35 2.628814 1_555
Al0 Al37 2.628837 1_555
Al0 Al39 2.667405 1_555
Al0 Al44 2.667432 1_555
Al0 Al1 2.711634 1_555
Al0 Al2 2.711656 1_555
Al0 Al20 2.802595 1_555
Al0 Al19 2.802606 1_555
Al0 Ca2 3.118708 1_555
Al1 Cr6 2.506793 1_555
Al1 Cr4 2.506804 1_555
Al1 Al36 2.628839 1_545
Al1 Al33 2.628842 1_545
Al1 Al43 2.667430 1_545
Al1 Al40 2.667430 1_545
Al1 Al2 2.711638 1_555
Al1 Al20 2.802599 1_555
Al1 Al18 2.802601 1_555
Al1 Ca2 3.118724 1_555
Al2 Cr4 2.506791 1_555
Al2 Cr5 2.506816 1_555
Al2 Al38 2.628829 1_655
Al2 Al34 2.628862 1_655
Al2 Al42 2.667416 1_655
Al2 Al41 2.667443 1_655
Al2 Ca2 3.118726 1_555
Al3 Cr1 2.408931 1_555
Al3 Cr0 2.528622 1_565
Al3 Al9 2.693154 1_555
Al3 Al5 2.762555 1_455
Al3 Al4 2.762561 1_565
Al3 Al8 2.771213 1_565
Al3 Al7 2.771215 1_455
Al3 Al47 2.813511 1_565
Al3 Al49 2.813528 1_455
Al3 Al31 3.015546 1_455
Al3 Al32 3.015555 1_565
Al4 Cr2 2.408950 1_555
Al4 Cr0 2.528613 1_555
Al4 Al5 2.762546 1_445
Al4 Al8 2.771194 1_555
Al4 Al6 2.771203 1_455
Al4 Al45 2.813567 1_455
Al4 Al48 2.813583 1_555
Al5 Cr3 2.408952 1_555
Al5 Cr0 2.528618 1_665
Al5 Al7 2.771203 1_555
Al5 Al6 2.771208 1_565
Al5 Al50 2.813528 1_565
Al6 Cr0 2.752098 1_655
Al6 Ca3 3.226549 1_555
Al7 Cr0 2.752101 1_665
Al7 Ca3 3.226552 1_555
Al8 Cr0 2.752069 1_555
Al8 Ca3 3.226548 1_555
Al9 Cr1 2.625840 1_555
Al9 Ca1 3.183931 1_554
Al10 Cr2 2.625856 1_555
Al10 Al16 2.652658 1_554
Al10 Al4 2.693155 1_555
Al10 Al11 2.781716 1_555
Al10 Al9 2.781733 1_555
Al10 Al21 2.802377 1_555
Al10 Al23 2.802390 1_555
Al10 Al45 2.944678 1_455
Al10 Al48 2.944700 1_555
Al10 Al24 3.030078 1_555
Al10 Al26 3.030104 1_555
Al10 Ca1 3.183949 1_554
Al11 Cr3 2.625859 1_555
Al11 Al17 2.652610 1_554
Al11 Al5 2.693175 1_555
Al11 Al9 2.781720 1_555
Al11 Al21 2.802396 1_555
Al11 Al22 2.802406 1_555
Al11 Al46 2.944645 1_555
Al11 Al50 2.944682 1_565
Al11 Al24 3.030076 1_555
Al11 Al25 3.030112 1_565
Al11 Ca1 3.183931 1_554
Al12 Cr6 2.652118 1_565
Al12 Cr5 2.652152 1_455
Al12 Al36 2.673637 1_555
Al12 Al34 2.673689 1_555
Al12 Al14 2.796485 1_455
Al12 Al13 2.796501 1_565
Al12 Al32 2.839873 1_565
Al12 Al31 2.839883 1_455
Al12 Al43 2.884114 1_555
Al12 Al41 2.884141 1_555
Al12 Al29 3.015676 1_565
Al12 Al28 3.015699 1_455
Al13 Cr4 2.652109 1_455
Al13 Cr6 2.652163 1_555
Al13 Al38 2.673639 1_555
Al13 Al35 2.673678 1_555
Al13 Al14 2.796469 1_445
Al13 Al30 2.839824 1_455
Al13 Al32 2.839925 1_555
Al13 Al42 2.884082 1_555
Al13 Al39 2.884137 1_555
Al13 Al27 3.015673 1_455
Al13 Al29 3.015700 1_555
Al14 Cr5 2.652143 1_555
Al14 Cr4 2.652144 1_565
Al14 Al33 2.673654 1_555
Al14 Al37 2.673682 1_555
Al14 Al30 2.839857 1_565
Al14 Al31 2.839893 1_555
Al14 Al40 2.884132 1_555
Al14 Al44 2.884160 1_555
Al14 Al27 3.015695 1_565
Al14 Al28 3.015709 1_555
Al15 Al9 2.652663 1_556
Al15 Al3 2.703410 1_556
Al15 Cr0 2.751948 1_566
Al15 Al41 2.760982 1_555
Al15 Al43 2.760986 1_555
Al15 Al28 2.771118 1_455
Al15 Al29 2.771135 1_565
Al15 Al7 2.886441 1_456
Al15 Al8 2.886448 1_566
Al15 Al25 3.100921 1_566
Al15 Al26 3.100937 1_556
Al15 Ca1 3.226634 1_555
Al16 Al4 2.703413 1_556
Al16 Cr0 2.751942 1_556
Al16 Al42 2.760997 1_555
Al16 Al39 2.761004 1_555
Al16 Al29 2.771127 1_555
Al16 Al27 2.771136 1_455
Al16 Al8 2.886412 1_556
Al16 Al6 2.886434 1_456
Al16 Al24 3.100917 1_556
Al16 Al26 3.100932 1_556
Al16 Ca1 3.226641 1_555
Al17 Al5 2.703389 1_556
Al17 Cr0 2.751992 1_666
Al17 Al40 2.761004 1_555
Al17 Al44 2.761019 1_555
Al17 Al28 2.771172 1_555
Al17 Al27 2.771175 1_565
Al17 Al7 2.886432 1_556
Al17 Al6 2.886449 1_566
Al17 Al25 3.100902 1_566
Al17 Al24 3.100921 1_556
Al17 Ca1 3.226619 1_555
Al18 Cr4 2.625936 1_555
Al18 Al6 2.652604 1_556
Al18 Al27 2.693100 1_555
Al18 Al20 2.781713 1_555
Al18 Al19 2.781714 1_555
Al18 Al2 2.802600 1_555
Al18 Al42 2.944532 1_655
Al18 Al40 2.944538 1_545
Al18 Al26 3.030132 1_656
Al18 Al25 3.030139 1_556
Al18 Ca3 3.184037 1_556
Al19 Cr5 2.625938 1_555
Al19 Al7 2.652593 1_556
Al19 Al28 2.693103 1_555
Al19 Al20 2.781705 1_555
Al19 Al2 2.802616 1_555
Al19 Al44 2.944531 1_555
Al19 Al41 2.944564 1_655
Al19 Al24 3.030123 1_556
Al19 Al26 3.030156 1_656
Al19 Ca3 3.184048 1_556
Al20 Cr6 2.625935 1_555
Al20 Al8 2.652602 1_556
Al20 Al29 2.693084 1_555
Al20 Al39 2.944524 1_555
Al20 Al43 2.944556 1_545
Al20 Al24 3.030120 1_556
Al20 Al25 3.030151 1_556
Al20 Ca3 3.184047 1_556
Al21 Cr2 2.506758 1_555
Al21 Cr3 2.506781 1_555
Al21 Al37 2.629021 1_555
Al21 Al35 2.629038 1_555
Al21 Al46 2.667426 1_555
Al21 Al48 2.667458 1_555
Al21 Al23 2.711557 1_555
Al21 Al22 2.711570 1_555
Al21 Ca0 3.118673 1_555
Al22 Cr1 2.506734 1_555
Al22 Cr3 2.506772 1_555
Al22 Al36 2.629033 1_555
Al22 Al33 2.629050 1_555
Al22 Al47 2.667424 1_565
Al22 Al50 2.667444 1_565
Al22 Al23 2.711549 1_555
Al22 Al9 2.802381 1_555
Al22 Ca0 3.118690 1_555
Al23 Cr1 2.506751 1_555
Al23 Cr2 2.506775 1_555
Al23 Al34 2.629003 1_555
Al23 Al38 2.629030 1_555
Al23 Al49 2.667409 1_455
Al23 Al45 2.667413 1_455
Al23 Al9 2.802381 1_555
Al23 Ca0 3.118675 1_555
Al24 Al8 3.100843 1_555
Al24 Al7 3.100855 1_555
Al24 Ca1 3.139713 1_554
Al24 Ca3 3.139723 1_555
Al24 Al46 3.166569 1_555
Al24 Al48 3.166572 1_555
Al24 Al39 3.166702 1_554
Al24 Al44 3.166708 1_554
Al25 Al9 3.030102 1_545
Al25 Al8 3.100856 1_555
Al25 Al6 3.100862 1_555
Al25 Ca1 3.139731 1_544
Al25 Ca3 3.139741 1_555
Al25 Al47 3.166569 1_555
Al25 Al50 3.166576 1_555
Al25 Al43 3.166697 1_544
Al25 Al40 3.166704 1_544
Al26 Al9 3.030088 1_555
Al26 Al6 3.100841 1_455
Al26 Al7 3.100855 1_455
Al26 Ca1 3.139718 1_554
Al26 Ca3 3.139736 1_455
Al26 Al49 3.166550 1_455
Al26 Al45 3.166563 1_455
Al26 Al41 3.166711 1_554
Al26 Al42 3.166719 1_554
Al27 Cr4 2.408929 1_555
Al27 Cr0 2.528567 1_656
Al27 Al6 2.703432 1_556
Al27 Al28 2.762678 1_545
Al27 Al29 2.762684 1_655
Al27 Al40 2.813322 1_545
Al27 Al42 2.813324 1_655
Al28 Cr5 2.408947 1_555
Al28 Cr0 2.528550 1_666
Al28 Al7 2.703418 1_556
Al28 Al29 2.762672 1_665
Al28 Al41 2.813354 1_655
Al28 Al44 2.813378 1_555
Al29 Cr6 2.408941 1_555
Al29 Cr0 2.528554 1_556
Al29 Al8 2.703422 1_556
Al29 Al43 2.813343 1_545
Al29 Al39 2.813364 1_555
Al30 Cr2 2.652130 1_655
Al30 Cr3 2.652212 1_545
Al30 Al38 2.673738 1_655
Al30 Al33 2.673774 1_545
Al30 Al32 2.796415 1_655
Al30 Al31 2.796457 1_545
Al30 Al45 2.884221 1_555
Al30 Al50 2.884232 1_555
Al30 Al4 3.015574 1_655
Al30 Al5 3.015615 1_545
Al31 Cr1 2.652136 1_655
Al31 Cr3 2.652201 1_555
Al31 Al34 2.673742 1_655
Al31 Al37 2.673798 1_555
Al31 Al32 2.796400 1_665
Al31 Al49 2.884184 1_555
Al31 Al46 2.884214 1_555
Al31 Al5 3.015580 1_555
Al32 Cr1 2.652149 1_545
Al32 Cr2 2.652182 1_555
Al32 Al36 2.673734 1_545
Al32 Al35 2.673769 1_555
Al32 Al47 2.884165 1_555
Al32 Al48 2.884215 1_555
Al32 Al4 3.015571 1_555
Al33 Cr4 2.542451 1_565
Al33 Cr3 2.542500 1_555
Al33 Al36 2.848149 1_555
Al33 Al40 2.957332 1_555
Al33 Al50 2.957468 1_565
Al33 Ca0 3.404019 1_555
Al33 Ca2 3.404124 1_565
Al34 Cr5 2.542472 1_455
Al34 Cr1 2.542494 1_555
Al34 Al38 2.848124 1_555
Al34 Al41 2.957357 1_555
Al34 Al49 2.957455 1_455
Al34 Ca0 3.403960 1_555
Al34 Ca2 3.404130 1_455
Al35 Cr6 2.542433 1_555
Al35 Cr2 2.542494 1_555
Al35 Al37 2.848142 1_555
Al35 Al39 2.957327 1_555
Al35 Al48 2.957476 1_555
Al35 Ca0 3.403990 1_555
Al35 Ca2 3.404079 1_555
Al36 Cr6 2.542436 1_565
Al36 Cr1 2.542508 1_555
Al36 Al43 2.957330 1_555
Al36 Al47 2.957474 1_565
Al36 Ca0 3.404005 1_555
Al36 Ca2 3.404116 1_565
Al37 Cr5 2.542463 1_555
Al37 Cr3 2.542508 1_555
Al37 Al44 2.957345 1_555
Al37 Al46 2.957455 1_555
Al37 Ca0 3.403991 1_555
Al37 Ca2 3.404090 1_555
Al38 Cr4 2.542467 1_455
Al38 Cr2 2.542490 1_555
Al38 Al42 2.957316 1_555
Al38 Al45 2.957463 1_455
Al38 Ca0 3.403947 1_555
Al38 Ca2 3.404139 1_455
Al39 Cr6 2.614522 1_555
Al39 Al42 2.689928 1_555
Al39 Al44 2.789128 1_555
Al39 Ca1 3.211007 1_555
Al39 Ca0 3.354197 1_555
Al40 Cr4 2.614500 1_565
Al40 Al44 2.689926 1_555
Al40 Al43 2.789160 1_555
Al40 Ca1 3.211043 1_555
Al40 Ca0 3.354257 1_555
Al41 Cr5 2.614520 1_455
Al41 Al43 2.689916 1_555
Al41 Al42 2.789170 1_555
Al41 Ca1 3.210998 1_555
Al41 Ca0 3.354199 1_555
Al42 Cr4 2.614485 1_455
Al42 Ca1 3.211036 1_555
Al42 Ca0 3.354220 1_555
Al43 Cr6 2.614523 1_565
Al43 Ca1 3.211020 1_555
Al43 Ca0 3.354226 1_555
Al44 Cr5 2.614533 1_555
Al44 Ca1 3.211000 1_555
Al44 Ca0 3.354207 1_555
Al45 Cr2 2.614699 1_655
Al45 Al50 2.689779 1_555
Al45 Al6 2.760940 1_555
Al45 Al49 2.788888 1_555
Al45 Ca3 3.210753 1_555
Al45 Ca2 3.353923 1_555
Al46 Cr3 2.614680 1_555
Al46 Al49 2.689786 1_555
Al46 Al7 2.760934 1_555
Al46 Al48 2.788901 1_555
Al46 Al5 2.813547 1_555
Al46 Ca3 3.210756 1_555
Al46 Ca2 3.353930 1_555
Al47 Cr1 2.614662 1_545
Al47 Al48 2.689727 1_555
Al47 Al8 2.760931 1_555
Al47 Al50 2.788938 1_555
Al47 Al9 2.944663 1_545
Al47 Ca3 3.210777 1_555
Al47 Ca2 3.353943 1_555
Al48 Cr2 2.614739 1_555
Al48 Al8 2.760919 1_555
Al48 Ca3 3.210694 1_555
Al48 Ca2 3.353858 1_555
Al49 Cr1 2.614672 1_655
Al49 Al7 2.760934 1_555
Al49 Al9 2.944645 1_655
Al49 Ca3 3.210767 1_555
Al49 Ca2 3.353961 1_555
Al50 Cr3 2.614667 1_545
Al50 Al6 2.760926 1_555
Al50 Ca3 3.210777 1_555
Al50 Ca2 3.353948 1_555
