# generated using pymatgen
data_Sr4TcNiO8
_symmetry_space_group_name_H-M   'P 1'
_cell_length_a   6.95729941
_cell_length_b   6.95729875
_cell_length_c   5.46474098
_cell_angle_alpha   90.00000000
_cell_angle_beta   90.00000000
_cell_angle_gamma   134.06567013
_symmetry_Int_Tables_number   1
_chemical_formula_structural   Sr4TcNiO8
_chemical_formula_sum   'Sr4 Tc1 Ni1 O8'
_cell_volume   190.06571138
_cell_formula_units_Z   1
loop_
 _symmetry_equiv_pos_site_id
 _symmetry_equiv_pos_as_xyz
  1  'x, y, z'
loop_
 _atom_site_type_symbol
 _atom_site_label
 _atom_site_symmetry_multiplicity
 _atom_site_fract_x
 _atom_site_fract_y
 _atom_site_fract_z
 _atom_site_occupancy
  Sr  Sr0  1  0.64780777  0.35219223  0.00000000  1
  Sr  Sr1  1  0.14597752  0.85402248  0.50000000  1
  Sr  Sr2  1  0.85402248  0.14597752  0.50000000  1
  Sr  Sr3  1  0.35219223  0.64780777  0.00000000  1
  Tc  Tc0  1  0.50000000  0.50000000  0.50000000  1
  Ni  Ni0  1  0.00000000  0.00000000  0.00000000  1
  O  O0  1  0.74151770  0.74151770  0.25621483  1
  O  O1  1  0.25848230  0.25848230  0.74378517  1
  O  O2  1  0.25848230  0.25848230  0.25621483  1
  O  O3  1  0.74151770  0.74151770  0.74378517  1
  O  O4  1  0.83552484  0.16447516  0.00000000  1
  O  O5  1  0.34272284  0.65727716  0.50000000  1
  O  O6  1  0.65727716  0.34272284  0.50000000  1
  O  O7  1  0.16447516  0.83552484  0.00000000  1
loop_
_geom_bond_atom_site_label_1
_geom_bond_atom_site_label_2
_geom_bond_distance
_geom_bond_site_symmetry_2
Ni0 O2 1.982435 1_555
Ni0 O1 1.982435 1_554
Ni0 O0 1.982435 1_445
Ni0 O3 1.982435 1_444
Ni0 O7 2.107185 1_545
Ni0 O4 2.107185 1_455
O0 Tc0 1.869330 1_555
O0 Sr2 2.691115 1_565
O0 Sr1 2.691116 1_655
O0 Sr0 2.695533 1_555
O0 Sr3 2.695533 1_555
O1 Tc0 1.869330 1_555
O1 Sr1 2.691115 1_545
O1 Sr2 2.691116 1_455
O1 Sr3 2.695533 1_556
O1 Sr0 2.695533 1_556
O2 Tc0 1.869330 1_555
O2 Sr1 2.691115 1_545
O2 Sr2 2.691116 1_455
O2 Sr3 2.695533 1_555
O2 Sr0 2.695533 1_555
O3 Tc0 1.869330 1_555
O3 Sr2 2.691115 1_565
O3 Sr1 2.691116 1_655
O3 Sr0 2.695533 1_556
O3 Sr3 2.695533 1_556
O4 Sr0 2.404950 1_555
O4 Sr3 2.723148 1_545
O4 Sr3 2.723148 1_655
O4 Sr2 2.742628 1_554
O4 Sr2 2.742628 1_555
O5 Tc0 2.014967 1_555
O5 Sr1 2.520616 1_555
O5 Sr2 2.718620 1_455
O5 Sr2 2.718620 1_565
O5 Sr3 2.735062 1_555
O5 Sr3 2.735062 1_556
O6 Tc0 2.014967 1_555
O6 Sr2 2.520616 1_555
O6 Sr1 2.718620 1_655
O6 Sr1 2.718620 1_545
O6 Sr0 2.735062 1_555
O6 Sr0 2.735062 1_556
O7 Sr3 2.404950 1_555
O7 Sr0 2.723148 1_565
O7 Sr0 2.723148 1_455
O7 Sr1 2.742628 1_554
O7 Sr1 2.742628 1_555
