# generated using pymatgen
data_Er6Ni2Sn
_symmetry_space_group_name_H-M   'P 1'
_cell_length_a   8.34028054
_cell_length_b   8.34028054
_cell_length_c   8.34028054
_cell_angle_alpha   113.05537361
_cell_angle_beta   109.76607566
_cell_angle_gamma   105.67608845
_symmetry_Int_Tables_number   1
_chemical_formula_structural   Er6Ni2Sn
_chemical_formula_sum   'Er12 Ni4 Sn2'
_cell_volume   444.75030536
_cell_formula_units_Z   2
loop_
 _symmetry_equiv_pos_site_id
 _symmetry_equiv_pos_as_xyz
  1  'x, y, z'
loop_
 _atom_site_type_symbol
 _atom_site_label
 _atom_site_symmetry_multiplicity
 _atom_site_fract_x
 _atom_site_fract_y
 _atom_site_fract_z
 _atom_site_occupancy
  Er  Er0  1  0.32546900  0.13483100  0.80936200  1
  Er  Er1  1  0.67453100  0.48389400  0.80936200  1
  Er  Er2  1  0.43779400  0.73334500  0.70444900  1
  Er  Er3  1  0.56220600  0.26665500  0.29555100  1
  Er  Er4  1  0.97110400  0.26665500  0.70444900  1
  Er  Er5  1  0.02889600  0.73334500  0.29555100  1
  Er  Er6  1  0.32546900  0.51610600  0.19063800  1
  Er  Er7  1  0.67453100  0.86516900  0.19063800  1
  Er  Er8  1  0.18254600  0.79198900  0.97453500  1
  Er  Er9  1  0.81745400  0.79198900  0.60944300  1
  Er  Er10  1  0.18254600  0.20801100  0.39055700  1
  Er  Er11  1  0.81745400  0.20801100  0.02546500  1
  Ni  Ni0  1  0.87644600  0.87644600  0.00000000  1
  Ni  Ni1  1  0.12355400  0.12355400  0.00000000  1
  Ni  Ni2  1  0.65055000  0.50000000  0.15055000  1
  Ni  Ni3  1  0.34945000  0.50000000  0.84945000  1
  Sn  Sn0  1  0.50000000  0.00000000  0.50000000  1
  Sn  Sn1  1  0.00000000  0.50000000  0.50000000  1
loop_
_geom_bond_atom_site_label_1
_geom_bond_atom_site_label_2
_geom_bond_distance
_geom_bond_site_symmetry_2
Er0 Ni1 2.686140 1_556
Er0 Ni3 2.873250 1_555
Er0 Ni2 2.873250 1_556
Er0 Sn0 3.345594 1_555
Er1 Ni0 2.686133 1_556
Er1 Ni3 2.873248 1_555
Er1 Ni2 2.873253 1_556
Er1 Sn0 3.345601 1_555
Er2 Ni3 2.732064 1_555
Er2 Sn1 3.062172 1_555
Er2 Ni0 3.181464 1_556
Er2 Sn0 3.326843 1_565
Er3 Ni2 2.732064 1_555
Er3 Sn1 3.062172 1_655
Er3 Ni1 3.181464 1_555
Er3 Sn0 3.326843 1_555
Er4 Ni3 2.732064 1_655
Er4 Sn1 3.062172 1_655
Er4 Ni1 3.181464 1_656
Er4 Sn0 3.326843 1_555
Er5 Ni2 2.732064 1_455
Er5 Sn1 3.062172 1_555
Er5 Ni0 3.181464 1_455
Er5 Sn0 3.326843 1_565
Er6 Ni1 2.686133 1_555
Er6 Ni2 2.873248 1_555
Er6 Ni3 2.873253 1_554
Er6 Sn0 3.345601 1_565
Er7 Ni0 2.686140 1_555
Er7 Ni2 2.873250 1_555
Er7 Ni3 2.873250 1_554
Er7 Sn0 3.345594 1_565
Er8 Ni1 2.877539 1_566
Er8 Ni0 2.877539 1_456
Er8 Ni3 3.127443 1_555
Er8 Sn1 3.206896 1_555
Er8 Sn0 3.597357 1_566
Er9 Ni1 2.877539 1_666
Er9 Ni0 2.877539 1_556
Er9 Ni2 3.127443 1_555
Er9 Sn1 3.206896 1_655
Er9 Sn0 3.597357 1_565
Er10 Ni1 2.877539 1_555
Er10 Ni0 2.877539 1_445
Er10 Ni3 3.127443 1_555
Er10 Sn1 3.206896 1_555
Er10 Sn0 3.597357 1_555
Er11 Ni1 2.877539 1_655
Er11 Ni0 2.877539 1_545
Er11 Ni2 3.127443 1_555
Er11 Sn1 3.206896 1_655
Er11 Sn0 3.597357 1_554
Ni0 Ni1 2.489917 1_665
