# generated using pymatgen
data_Ba4Sr(BeAs)10
_symmetry_space_group_name_H-M   'P 1'
_cell_length_a   9.00416416
_cell_length_b   9.00464521
_cell_length_c   9.00448649
_cell_angle_alpha   122.62540173
_cell_angle_beta   122.62150378
_cell_angle_gamma   85.51472307
_symmetry_Int_Tables_number   1
_chemical_formula_structural   Ba4Sr(BeAs)10
_chemical_formula_sum   'Ba4 Sr1 Be10 As10'
_cell_volume   494.11295184
_cell_formula_units_Z   1
loop_
 _symmetry_equiv_pos_site_id
 _symmetry_equiv_pos_as_xyz
  1  'x, y, z'
loop_
 _atom_site_type_symbol
 _atom_site_label
 _atom_site_symmetry_multiplicity
 _atom_site_fract_x
 _atom_site_fract_y
 _atom_site_fract_z
 _atom_site_occupancy
  Ba  Ba0  1  0.39781192  0.80095132  0.19877436  1
  Ba  Ba1  1  0.80108162  0.60203763  0.40313968  1
  Ba  Ba2  1  0.19892456  0.39796935  0.59686022  1
  Ba  Ba3  1  0.60218788  0.19905549  0.80122948  1
  Sr  Sr0  1  0.99999993  0.00000118  0.00000140  1
  Be  Be0  1  0.94817911  0.64816014  0.09955187  1
  Be  Be1  1  0.35194310  0.45143823  0.29999193  1
  Be  Be2  1  0.74871461  0.24871531  0.50001672  1
  Be  Be3  1  0.15143807  0.05197113  0.70002046  1
  Be  Be4  1  0.54858226  0.84856873  0.90050688  1
  Be  Be5  1  0.64805420  0.54855879  0.70000431  1
  Be  Be6  1  0.05181835  0.35183875  0.90044380  1
  Be  Be7  1  0.45141946  0.15143045  0.09948796  1
  Be  Be8  1  0.84855676  0.94802621  0.29998000  1
  Be  Be9  1  0.25128823  0.75128419  0.49997356  1
  As  As0  1  0.94714804  0.55183150  0.80092471  1
  As  As1  1  0.35038444  0.35056154  0.99994631  1
  As  As2  1  0.75090998  0.14624235  0.19910618  1
  As  As3  1  0.14633742  0.94771142  0.39531824  1
  As  As4  1  0.55241232  0.75102851  0.60477927  1
  As  As5  1  0.64960889  0.64943483  0.00005191  1
  As  As6  1  0.05283281  0.44814874  0.19905320  1
  As  As7  1  0.44760949  0.24898731  0.39525128  1
  As  As8  1  0.85365394  0.05229043  0.60469251  1
  As  As9  1  0.24910162  0.85375445  0.80089175  1
loop_
_geom_bond_atom_site_label_1
_geom_bond_atom_site_label_2
_geom_bond_distance
_geom_bond_site_symmetry_2
As0 Be5 2.329016 1_555
As0 Be0 2.332899 1_556
As0 Be6 2.344881 1_655
As0 Be2 2.356364 1_555
As0 Sr0 3.362450 1_566
As0 Ba1 3.367158 1_555
As0 Ba0 3.378910 1_656
As0 Ba2 3.419113 1_655
As1 Be3 2.332203 1_555
As1 Be6 2.332245 1_555
As1 Be1 2.332299 1_556
As1 Be7 2.333444 1_556
As1 Ba0 3.384196 1_556
As1 Ba2 3.385083 1_555
As1 Ba3 3.385494 1_555
As1 Ba1 3.385942 1_556
As2 Be8 2.329266 1_545
As2 Be4 2.333303 1_544
As2 Be7 2.344407 1_555
As2 Be2 2.356360 1_555
As2 Sr0 3.362506 1_555
As2 Ba2 3.367114 1_655
As2 Ba3 3.379328 1_554
As2 Ba1 3.418902 1_555
As3 Be0 2.331391 1_455
As3 Be8 2.333639 1_455
As3 Be9 2.342074 1_555
As3 Be3 2.346211 1_565
As3 Sr0 3.358879 1_465
As3 Ba0 3.366950 1_555
As3 Ba2 3.375763 1_565
As3 Ba3 3.418618 1_565
As4 Be4 2.331493 1_555
As4 Be5 2.333398 1_555
As4 Be9 2.341945 1_555
As4 Be1 2.346268 1_555
As4 Sr0 3.358519 1_566
As4 Ba3 3.367288 1_565
As4 Ba1 3.375894 1_555
As4 Ba0 3.419429 1_555
As5 Be8 2.332214 1_555
As5 Be0 2.332283 1_555
As5 Be5 2.332338 1_554
As5 Be4 2.333477 1_554
As5 Ba3 3.384122 1_554
As5 Ba1 3.385012 1_555
As5 Ba0 3.385480 1_555
As5 Ba2 3.385846 1_554
As6 Be1 2.329101 1_555
As6 Be6 2.332877 1_554
As6 Be0 2.344926 1_455
As6 Be9 2.356526 1_555
As6 Sr0 3.362317 1_455
As6 Ba2 3.367134 1_555
As6 Ba3 3.378736 1_454
As6 Ba1 3.419053 1_455
As7 Be7 2.331653 1_555
As7 Be1 2.333444 1_555
As7 Be2 2.341883 1_555
As7 Be5 2.346078 1_555
As7 Sr0 3.358690 1_455
As7 Ba0 3.367305 1_545
As7 Ba2 3.375831 1_555
As7 Ba3 3.419298 1_555
As8 Be6 2.331374 1_655
As8 Be3 2.333697 1_655
As8 Be2 2.342150 1_555
As8 Be8 2.346307 1_545
As8 Sr0 3.358795 1_556
As8 Ba3 3.366840 1_555
As8 Ba1 3.375710 1_545
As8 Ba0 3.418562 1_545
As9 Be3 2.329273 1_565
As9 Be7 2.333290 1_566
As9 Be4 2.344327 1_555
As9 Be9 2.356384 1_555
As9 Sr0 3.362636 1_466
As9 Ba1 3.367128 1_455
As9 Ba0 3.379336 1_556
As9 Ba2 3.418818 1_555
