# generated using pymatgen
data_BaSr(GaSi)2
_symmetry_space_group_name_H-M   'P 1'
_cell_length_a   4.20365042
_cell_length_b   4.20365013
_cell_length_c   9.92888517
_cell_angle_alpha   90.00000000
_cell_angle_beta   90.00000000
_cell_angle_gamma   120.00000997
_symmetry_Int_Tables_number   1
_chemical_formula_structural   BaSr(GaSi)2
_chemical_formula_sum   'Ba1 Sr1 Ga2 Si2'
_cell_volume   151.94423633
_cell_formula_units_Z   1
loop_
 _symmetry_equiv_pos_site_id
 _symmetry_equiv_pos_as_xyz
  1  'x, y, z'
loop_
 _atom_site_type_symbol
 _atom_site_label
 _atom_site_symmetry_multiplicity
 _atom_site_fract_x
 _atom_site_fract_y
 _atom_site_fract_z
 _atom_site_occupancy
  Ba  Ba0  1  0.00000000  0.00000000  0.50000000  1
  Sr  Sr0  1  0.00000000  0.00000000  0.00000000  1
  Ga  Ga0  1  0.33333300  0.66666700  0.75989228  1
  Ga  Ga1  1  0.33333300  0.66666700  0.24010772  1
  Si  Si0  1  0.66666700  0.33333300  0.76168347  1
  Si  Si1  1  0.66666700  0.33333300  0.23831653  1
loop_
_geom_bond_atom_site_label_1
_geom_bond_atom_site_label_2
_geom_bond_distance
_geom_bond_site_symmetry_2
Ba0 Ga0 3.542441 1_545
Ba0 Ga1 3.542441 1_545
Ba0 Ga0 3.542443 1_555
Ba0 Ga1 3.542443 1_555
Ba0 Ga0 3.542443 1_445
Ba0 Ga1 3.542443 1_445
Ba0 Si1 3.555417 1_455
Ba0 Si0 3.555417 1_455
Ba0 Si1 3.555419 1_445
Ba0 Si0 3.555419 1_445
Ba0 Si1 3.555419 1_555
Ba0 Si0 3.555419 1_555
Ga0 Si0 2.427041 1_565
Ga0 Si0 2.427041 1_455
Ga0 Si0 2.427049 1_555
Ga0 Sr0 3.402011 1_566
Ga0 Sr0 3.402013 1_556
Ga0 Sr0 3.402013 1_666
Ga1 Si1 2.427041 1_565
Ga1 Si1 2.427041 1_455
Ga1 Si1 2.427049 1_555
Ga1 Sr0 3.402011 1_565
Ga1 Sr0 3.402013 1_555
Ga1 Sr0 3.402013 1_665
Si0 Sr0 3.389572 1_656
Si0 Sr0 3.389574 1_666
Si0 Sr0 3.389575 1_556
Si1 Sr0 3.389572 1_655
Si1 Sr0 3.389574 1_665
Si1 Sr0 3.389575 1_555
