# generated using pymatgen
data_Sr2ScBrO3
_symmetry_space_group_name_H-M   'P 1'
_cell_length_a   4.10083642
_cell_length_b   4.10083642
_cell_length_c   15.04457937
_cell_angle_alpha   90.00000000
_cell_angle_beta   90.00000000
_cell_angle_gamma   90.00000000
_symmetry_Int_Tables_number   1
_chemical_formula_structural   Sr2ScBrO3
_chemical_formula_sum   'Sr4 Sc2 Br2 O6'
_cell_volume   253.00257544
_cell_formula_units_Z   2
loop_
 _symmetry_equiv_pos_site_id
 _symmetry_equiv_pos_as_xyz
  1  'x, y, z'
loop_
 _atom_site_type_symbol
 _atom_site_label
 _atom_site_symmetry_multiplicity
 _atom_site_fract_x
 _atom_site_fract_y
 _atom_site_fract_z
 _atom_site_occupancy
  Sr  Sr0  1  0.24999900  0.24999900  0.09004188  1
  Sr  Sr1  1  0.24999900  0.24999900  0.32601304  1
  Sr  Sr2  1  0.74999900  0.74999900  0.67398596  1
  Sr  Sr3  1  0.74999900  0.74999900  0.90995812  1
  Sc  Sc0  1  0.74999900  0.74999900  0.20096618  1
  Sc  Sc1  1  0.24999900  0.24999900  0.79903382  1
  Br  Br0  1  0.74999900  0.74999900  0.41313702  1
  Br  Br1  1  0.24999900  0.24999900  0.58686398  1
  O  O0  1  0.74999900  0.74999900  0.06953737  1
  O  O1  1  0.74999900  0.24999900  0.22218320  1
  O  O2  1  0.24999900  0.74999900  0.22218320  1
  O  O3  1  0.74999900  0.24999900  0.77781680  1
  O  O4  1  0.24999900  0.74999900  0.77781680  1
  O  O5  1  0.24999900  0.24999900  0.93046263  1
loop_
_geom_bond_atom_site_label_1
_geom_bond_atom_site_label_2
_geom_bond_distance
_geom_bond_site_symmetry_2
Br0 Sr1 3.182213 1_655
Br0 Sr1 3.182213 1_565
Br0 Sr1 3.182213 1_555
Br0 Sr1 3.182213 1_665
Br0 Sc0 3.192021 1_555
Br1 Sr2 3.182200 1_445
Br1 Sr2 3.182200 1_455
Br1 Sr2 3.182200 1_545
Br1 Sr2 3.182200 1_555
Br1 Sc1 3.192006 1_555
O0 Sc0 1.977291 1_555
O0 Sr3 2.400803 1_554
O0 Sr0 2.916092 1_565
O0 Sr0 2.916092 1_665
O0 Sr0 2.916092 1_655
O0 Sr0 2.916092 1_555
O1 Sc0 2.075115 1_545
O1 Sc0 2.075115 1_555
O1 Sr1 2.577653 1_655
O1 Sr1 2.577653 1_555
O1 Sr0 2.855941 1_555
O1 Sr0 2.855941 1_655
O2 Sc0 2.075115 1_455
O2 Sc0 2.075115 1_555
O2 Sr1 2.577653 1_555
O2 Sr1 2.577653 1_565
O2 Sr0 2.855941 1_555
O2 Sr0 2.855941 1_565
O3 Sc1 2.075115 1_555
O3 Sc1 2.075115 1_655
O3 Sr2 2.577663 1_545
O3 Sr2 2.577663 1_555
O3 Sr3 2.855941 1_545
O3 Sr3 2.855941 1_555
O4 Sc1 2.075115 1_565
O4 Sc1 2.075115 1_555
O4 Sr2 2.577663 1_455
O4 Sr2 2.577663 1_555
O4 Sr3 2.855941 1_455
O4 Sr3 2.855941 1_555
O5 Sc1 1.977291 1_555
O5 Sr0 2.400803 1_556
O5 Sr3 2.916092 1_445
O5 Sr3 2.916092 1_545
O5 Sr3 2.916092 1_455
O5 Sr3 2.916092 1_555
