# generated using pymatgen
data_RbGa5(HgTe3)4
_symmetry_space_group_name_H-M   'P 1'
_cell_length_a   9.65546607
_cell_length_b   9.68793793
_cell_length_c   9.71633728
_cell_angle_alpha   107.28444817
_cell_angle_beta   107.82650004
_cell_angle_gamma   107.30148763
_symmetry_Int_Tables_number   1
_chemical_formula_structural   RbGa5(HgTe3)4
_chemical_formula_sum   'Rb1 Ga5 Hg4 Te12'
_cell_volume   746.97386451
_cell_formula_units_Z   1
loop_
 _symmetry_equiv_pos_site_id
 _symmetry_equiv_pos_as_xyz
  1  'x, y, z'
loop_
 _atom_site_type_symbol
 _atom_site_label
 _atom_site_symmetry_multiplicity
 _atom_site_fract_x
 _atom_site_fract_y
 _atom_site_fract_z
 _atom_site_occupancy
  Rb  Rb0  1  0.99987640  0.00109530  0.99872688  1
  Ga  Ga0  1  0.48426590  0.33541112  0.94177555  1
  Ga  Ga1  1  0.93947037  0.49051768  0.34322692  1
  Ga  Ga2  1  0.33135318  0.93264291  0.48123903  1
  Ga  Ga3  1  0.01812836  0.18409247  0.55301049  1
  Ga  Ga4  1  0.56001097  0.02547288  0.18639233  1
  Hg  Hg0  1  0.63302283  0.70689262  0.39510195  1
  Hg  Hg1  1  0.39933451  0.63750197  0.71597405  1
  Hg  Hg2  1  0.70696936  0.38934510  0.63076284  1
  Hg  Hg3  1  0.19114925  0.56333066  0.01620810  1
  Te  Te0  1  0.78557981  0.93143304  0.28686709  1
  Te  Te1  1  0.29927750  0.80911966  0.92969377  1
  Te  Te2  1  0.92373504  0.27418611  0.77247035  1
  Te  Te3  1  0.06529892  0.69829083  0.23905528  1
  Te  Te4  1  0.23055166  0.07780964  0.68978067  1
  Te  Te5  1  0.69915882  0.23359270  0.08026973  1
  Te  Te6  1  0.37467312  0.42090394  0.15095166  1
  Te  Te7  1  0.14602339  0.37070492  0.43377543  1
  Te  Te8  1  0.42488087  0.13907236  0.36370220  1
  Te  Te9  1  0.87947196  0.63917837  0.57121922  1
  Te  Te10  1  0.56254648  0.87592386  0.63654762  1
  Te  Te11  1  0.63986331  0.55812389  0.87788986  1
loop_
_geom_bond_atom_site_label_1
_geom_bond_atom_site_label_2
_geom_bond_distance
_geom_bond_site_symmetry_2
Rb0 Te1 3.988720 1_645
Rb0 Te2 3.999574 1_555
Rb0 Te8 4.026497 1_656
Rb0 Te6 4.027241 1_656
Rb0 Te0 4.051409 1_546
Rb0 Te9 4.106530 1_545
Rb0 Te10 4.123732 1_545
Rb0 Te7 4.126658 1_656
Rb0 Te11 4.184808 1_545
Rb0 Te5 4.286016 1_556
Rb0 Te3 4.327488 1_646
Rb0 Te4 4.354168 1_655
Ga0 Te11 2.595487 1_555
Ga0 Te6 2.602739 1_556
Ga0 Te4 2.698975 1_555
Ga0 Te5 2.717644 1_556
Ga1 Te9 2.589074 1_555
Ga1 Te7 2.647320 1_655
Ga1 Te3 2.657307 1_655
Ga1 Te5 2.695043 1_555
Ga2 Te10 2.592687 1_555
Ga2 Te3 2.635553 1_555
Ga2 Te8 2.652102 1_565
Ga2 Te4 2.712778 1_565
Ga3 Te2 2.587761 1_455
Ga3 Te7 2.632156 1_555
Ga3 Te0 2.671095 1_445
Ga3 Te4 2.726425 1_555
Ga4 Te1 2.619611 1_544
Ga4 Te0 2.633163 1_545
Ga4 Te8 2.642970 1_555
Ga4 Te5 2.721386 1_555
Hg0 Te6 2.808346 1_555
Hg0 Te10 2.829421 1_555
Hg0 Te9 2.850164 1_555
Hg0 Te0 2.899958 1_555
Hg1 Te11 2.829170 1_555
Hg1 Te10 2.837790 1_555
Hg1 Te7 2.846647 1_555
Hg1 Te1 2.853404 1_555
Hg2 Te9 2.826899 1_555
Hg2 Te8 2.834899 1_555
Hg2 Te2 2.838710 1_555
Hg2 Te11 2.847583 1_555
Hg3 Te1 2.777544 1_554
Hg3 Te6 2.804517 1_555
Hg3 Te2 2.852028 1_454
Hg3 Te3 2.957718 1_555
