# generated using pymatgen
data_SrCaCdBi2
_symmetry_space_group_name_H-M   'P 1'
_cell_length_a   4.80846055
_cell_length_b   7.49043947
_cell_length_c   9.56927923
_cell_angle_alpha   90.00000000
_cell_angle_beta   75.43530408
_cell_angle_gamma   90.00000000
_symmetry_Int_Tables_number   1
_chemical_formula_structural   SrCaCdBi2
_chemical_formula_sum   'Sr2 Ca2 Cd2 Bi4'
_cell_volume   333.58541712
_cell_formula_units_Z   2
loop_
 _symmetry_equiv_pos_site_id
 _symmetry_equiv_pos_as_xyz
  1  'x, y, z'
loop_
 _atom_site_type_symbol
 _atom_site_label
 _atom_site_symmetry_multiplicity
 _atom_site_fract_x
 _atom_site_fract_y
 _atom_site_fract_z
 _atom_site_occupancy
  Sr  Sr0  1  0.30216559  0.52971468  0.39576057  1
  Sr  Sr1  1  0.69783341  0.02971568  0.60424043  1
  Ca  Ca0  1  0.48071006  0.21993688  0.03846288  1
  Ca  Ca1  1  0.51928994  0.71993688  0.96153712  1
  Cd  Cd0  1  0.90364953  0.89199150  0.19287152  1
  Cd  Cd1  1  0.09635047  0.39199150  0.80712848  1
  Bi  Bi0  1  0.93572719  0.49819092  0.12887779  1
  Bi  Bi1  1  0.32754575  0.01462704  0.34511007  1
  Bi  Bi2  1  0.67245325  0.51462704  0.65488993  1
  Bi  Bi3  1  0.06427281  0.99818992  0.87112221  1
loop_
_geom_bond_atom_site_label_1
_geom_bond_atom_site_label_2
_geom_bond_distance
_geom_bond_site_symmetry_2
Ca0 Cd1 3.468252 1_654
Ca0 Cd1 3.469131 1_554
Ca1 Cd0 3.468252 1_456
Ca1 Cd0 3.469131 1_556
Bi0 Cd0 3.008696 1_555
Bi0 Cd1 3.084314 1_654
Bi0 Ca0 3.289301 1_655
Bi0 Ca0 3.291168 1_555
Bi0 Ca1 3.307115 1_654
Bi0 Ca1 3.308399 1_554
Bi0 Sr0 3.456281 1_555
Bi0 Sr0 3.456288 1_655
Bi1 Cd0 2.934327 1_545
Bi1 Cd0 2.934994 1_445
Bi1 Ca0 3.229729 1_555
Bi1 Sr1 3.398888 1_555
Bi1 Sr1 3.399088 1_455
Bi1 Sr0 3.662375 1_545
Bi1 Sr0 3.886647 1_555
Bi2 Cd1 2.934323 1_555
Bi2 Cd1 2.934998 1_655
Bi2 Ca1 3.229729 1_555
Bi2 Sr0 3.398879 1_555
Bi2 Sr0 3.399083 1_655
Bi2 Sr1 3.662367 1_555
Bi2 Sr1 3.886654 1_565
Bi3 Cd1 3.008703 1_565
Bi3 Cd0 3.084312 1_456
Bi3 Ca1 3.289296 1_455
Bi3 Ca1 3.291163 1_555
Bi3 Ca0 3.307119 1_466
Bi3 Ca0 3.308403 1_566
Bi3 Sr1 3.456273 1_565
Bi3 Sr1 3.456284 1_465
