# generated using pymatgen
data_Cs3K2AgAs2
_symmetry_space_group_name_H-M   'P 1'
_cell_length_a   5.98676760
_cell_length_b   5.98676677
_cell_length_c   20.79188557
_cell_angle_alpha   90.00000000
_cell_angle_beta   90.00000000
_cell_angle_gamma   119.99998853
_symmetry_Int_Tables_number   1
_chemical_formula_structural   Cs3K2AgAs2
_chemical_formula_sum   'Cs6 K4 Ag2 As4'
_cell_volume   645.37077750
_cell_formula_units_Z   2
loop_
 _symmetry_equiv_pos_site_id
 _symmetry_equiv_pos_as_xyz
  1  'x, y, z'
loop_
 _atom_site_type_symbol
 _atom_site_label
 _atom_site_symmetry_multiplicity
 _atom_site_fract_x
 _atom_site_fract_y
 _atom_site_fract_z
 _atom_site_occupancy
  Cs  Cs0  1  0.33333300  0.66666700  0.55020204  1
  Cs  Cs1  1  0.66666700  0.33333300  0.05020204  1
  Cs  Cs2  1  0.66666700  0.33333300  0.44979796  1
  Cs  Cs3  1  0.33333300  0.66666700  0.94979796  1
  Cs  Cs4  1  0.33333300  0.66666700  0.75000000  1
  Cs  Cs5  1  0.66666700  0.33333300  0.25000000  1
  K  K0  1  0.00000000  0.00000000  0.14808711  1
  K  K1  1  0.00000000  0.00000000  0.64808711  1
  K  K2  1  0.00000000  0.00000000  0.85191289  1
  K  K3  1  0.00000000  0.00000000  0.35191289  1
  Ag  Ag0  1  0.33333300  0.66666700  0.25000000  1
  Ag  Ag1  1  0.66666700  0.33333300  0.75000000  1
  As  As0  1  0.33333300  0.66666700  0.37117511  1
  As  As1  1  0.66666700  0.33333300  0.87117511  1
  As  As2  1  0.66666700  0.33333300  0.62882489  1
  As  As3  1  0.33333300  0.66666700  0.12882489  1
loop_
_geom_bond_atom_site_label_1
_geom_bond_atom_site_label_2
_geom_bond_distance
_geom_bond_site_symmetry_2
Ag0 As0 2.519459 1_555
Ag0 As3 2.519459 1_555
Ag0 Cs5 3.456458 1_565
Ag0 Cs5 3.456459 1_455
Ag0 Cs5 3.456468 1_555
Ag1 As1 2.519459 1_555
Ag1 As2 2.519459 1_555
Ag1 Cs4 3.456458 1_545
Ag1 Cs4 3.456459 1_655
Ag1 Cs4 3.456468 1_555
As0 K3 3.479583 1_565
As0 K3 3.479589 1_555
As0 K3 3.479589 1_665
As0 Cs0 3.722307 1_555
As0 Cs2 3.823533 1_565
As0 Cs2 3.823534 1_455
As0 Cs2 3.823542 1_555
As1 K2 3.479583 1_655
As1 K2 3.479589 1_665
As1 K2 3.479589 1_555
As1 Cs1 3.722307 1_556
As1 Cs3 3.823533 1_545
As1 Cs3 3.823534 1_655
As1 Cs3 3.823542 1_555
As2 K1 3.479583 1_655
As2 K1 3.479589 1_665
As2 K1 3.479589 1_555
As2 Cs2 3.722307 1_555
As2 Cs0 3.823533 1_545
As2 Cs0 3.823534 1_655
As2 Cs0 3.823542 1_555
As3 K0 3.479583 1_565
As3 K0 3.479589 1_555
As3 K0 3.479589 1_665
As3 Cs3 3.722307 1_554
As3 Cs1 3.823533 1_565
As3 Cs1 3.823534 1_455
As3 Cs1 3.823542 1_555
