# generated using pymatgen
data_Cs2HfZnTe4
_symmetry_space_group_name_H-M   'P 1'
_cell_length_a   15.87946506
_cell_length_b   14.18814646
_cell_length_c   8.46080305
_cell_angle_alpha   85.04639148
_cell_angle_beta   62.89245796
_cell_angle_gamma   32.06114656
_symmetry_Int_Tables_number   1
_chemical_formula_structural   Cs2HfZnTe4
_chemical_formula_sum   'Cs4 Hf2 Zn2 Te8'
_cell_volume   696.17536276
_cell_formula_units_Z   2
loop_
 _symmetry_equiv_pos_site_id
 _symmetry_equiv_pos_as_xyz
  1  'x, y, z'
loop_
 _atom_site_type_symbol
 _atom_site_label
 _atom_site_symmetry_multiplicity
 _atom_site_fract_x
 _atom_site_fract_y
 _atom_site_fract_z
 _atom_site_occupancy
  Cs  Cs0  1  0.81947370  0.81947370  0.18052630  1
  Cs  Cs1  1  0.18052630  0.18052630  0.81947370  1
  Cs  Cs2  1  0.43052630  0.43052630  0.06947370  1
  Cs  Cs3  1  0.06947370  0.06947370  0.43052630  1
  Hf  Hf0  1  0.25000000  0.25000000  0.25000000  1
  Hf  Hf1  1  0.00000000  0.00000000  0.00000000  1
  Zn  Zn0  1  0.75000000  0.75000000  0.75000000  1
  Zn  Zn1  1  0.50000000  0.50000000  0.50000000  1
  Te  Te0  1  0.40741091  0.70306123  0.78915573  1
  Te  Te1  1  0.10037213  0.78915573  0.70306123  1
  Te  Te2  1  0.78915573  0.10037213  0.40741091  1
  Te  Te3  1  0.70306123  0.40741091  0.10037213  1
  Te  Te4  1  0.84258909  0.54693877  0.46084427  1
  Te  Te5  1  0.14962787  0.46084427  0.54693877  1
  Te  Te6  1  0.46084427  0.14962787  0.84258909  1
  Te  Te7  1  0.54693877  0.84258909  0.14962787  1
loop_
_geom_bond_atom_site_label_1
_geom_bond_atom_site_label_2
_geom_bond_distance
_geom_bond_site_symmetry_2
Cs0 Te6 3.999538 1_565
Cs0 Te5 3.999538 1_654
Cs0 Te5 4.039679 1_565
Cs0 Te6 4.039679 1_654
Cs0 Te1 4.126407 1_654
Cs0 Te2 4.126407 1_565
Cs0 Te7 4.185151 1_555
Cs0 Te4 4.185151 1_555
Cs1 Te4 3.999538 1_545
Cs1 Te7 3.999538 1_456
Cs1 Te7 4.039679 1_545
Cs1 Te4 4.039679 1_456
Cs1 Te3 4.126406 1_456
Cs1 Te0 4.126407 1_545
Cs1 Te6 4.185151 1_555
Cs1 Te5 4.185151 1_555
Cs2 Te2 3.999538 1_554
Cs2 Te1 3.999538 1_555
Cs2 Te1 4.039679 1_644
Cs2 Te2 4.039679 1_465
Cs2 Te5 4.126407 1_555
Cs2 Te6 4.126407 1_554
Cs2 Te3 4.185151 1_555
Cs2 Te0 4.185151 1_554
Cs3 Te0 3.999538 1_455
Cs3 Te3 3.999538 1_545
Cs3 Te3 4.039679 1_456
Cs3 Te0 4.039679 1_544
Cs3 Te7 4.126406 1_545
Cs3 Te4 4.126407 1_455
Cs3 Te2 4.185151 1_455
Cs3 Te1 4.185151 1_545
Hf0 Te4 2.714472 1_455
Hf0 Te6 2.714472 1_554
Hf0 Te5 2.714472 1_555
Hf0 Te7 2.714473 1_545
Hf1 Te0 2.714472 1_544
Hf1 Te2 2.714472 1_455
Hf1 Te1 2.714472 1_544
Hf1 Te3 2.714473 1_455
Te0 Zn1 2.684587 1_555
Te1 Zn1 2.684587 1_555
Te2 Zn1 2.684587 1_555
Te3 Zn1 2.684587 1_555
Te4 Zn0 2.684587 1_555
Te5 Zn0 2.684587 1_455
Te6 Zn0 2.684587 1_545
Te7 Zn0 2.684587 1_554
