# generated using pymatgen
data_Ca2AlIrI
_symmetry_space_group_name_H-M   'P 1'
_cell_length_a   4.23410459
_cell_length_b   4.23410338
_cell_length_c   17.48163446
_cell_angle_alpha   90.00000000
_cell_angle_beta   90.00000000
_cell_angle_gamma   120.00000941
_symmetry_Int_Tables_number   1
_chemical_formula_structural   Ca2AlIrI
_chemical_formula_sum   'Ca4 Al2 Ir2 I2'
_cell_volume   271.41613683
_cell_formula_units_Z   2
loop_
 _symmetry_equiv_pos_site_id
 _symmetry_equiv_pos_as_xyz
  1  'x, y, z'
loop_
 _atom_site_type_symbol
 _atom_site_label
 _atom_site_symmetry_multiplicity
 _atom_site_fract_x
 _atom_site_fract_y
 _atom_site_fract_z
 _atom_site_occupancy
  Ca  Ca0  1  0.00000000  0.00000000  0.38798830  1
  Ca  Ca1  1  0.00000000  0.00000000  0.88798830  1
  Ca  Ca2  1  0.00000000  0.00000000  0.61152027  1
  Ca  Ca3  1  0.00000000  0.00000000  0.11152027  1
  Al  Al0  1  0.33333300  0.66666700  0.50043635  1
  Al  Al1  1  0.66666700  0.33333300  0.00043635  1
  Ir  Ir0  1  0.66666700  0.33333300  0.49954723  1
  Ir  Ir1  1  0.33333300  0.66666700  0.99954723  1
  I  I0  1  0.33333300  0.66666700  0.25050684  1
  I  I1  1  0.66666700  0.33333300  0.75050684  1
loop_
_geom_bond_atom_site_label_1
_geom_bond_atom_site_label_2
_geom_bond_distance
_geom_bond_site_symmetry_2
Ca0 Ir0 3.127183 1_455
Ca0 Ir0 3.127185 1_445
Ca0 Ir0 3.127186 1_555
Ca0 I0 3.428149 1_545
Ca0 I0 3.428151 1_555
Ca0 I0 3.428151 1_445
Ca1 Ir1 3.127183 1_545
Ca1 Ir1 3.127185 1_555
Ca1 Ir1 3.127186 1_445
Ca1 I1 3.428149 1_455
Ca1 I1 3.428151 1_445
Ca1 I1 3.428151 1_555
Ca2 Ir0 3.131703 1_455
Ca2 Ir0 3.131705 1_445
Ca2 Ir0 3.131706 1_555
Ca2 I1 3.446646 1_455
Ca2 I1 3.446648 1_445
Ca2 I1 3.446649 1_555
Ca3 Ir1 3.131703 1_544
Ca3 Ir1 3.131705 1_554
Ca3 Ir1 3.131706 1_444
Ca3 I0 3.446646 1_545
Ca3 I0 3.446648 1_555
Ca3 I0 3.446649 1_445
Al0 Ir0 2.444607 1_565
Al0 Ir0 2.444608 1_455
Al0 Ir0 2.444615 1_555
Al0 Ca2 3.122011 1_565
Al0 Ca2 3.122014 1_555
Al0 Ca2 3.122014 1_665
Al0 Ca0 3.136900 1_565
Al0 Ca0 3.136902 1_555
Al0 Ca0 3.136903 1_665
Al1 Ir1 2.444607 1_544
Al1 Ir1 2.444608 1_654
Al1 Ir1 2.444615 1_554
Al1 Ca3 3.122011 1_655
Al1 Ca3 3.122014 1_665
Al1 Ca3 3.122014 1_555
Al1 Ca1 3.136900 1_654
Al1 Ca1 3.136902 1_664
Al1 Ca1 3.136903 1_554
