# generated using pymatgen
data_ZnCd2B2Rh5
_symmetry_space_group_name_H-M   'P 1'
_cell_length_a   19.11537559
_cell_length_b   19.11537559
_cell_length_c   5.79422382
_cell_angle_alpha   90.00000000
_cell_angle_beta   90.00000000
_cell_angle_gamma   90.00000000
_symmetry_Int_Tables_number   1
_chemical_formula_structural   ZnCd2B2Rh5
_chemical_formula_sum   'Zn16 Cd32 B32 Rh80'
_cell_volume   2117.19538500
_cell_formula_units_Z   16
loop_
 _symmetry_equiv_pos_site_id
 _symmetry_equiv_pos_as_xyz
  1  'x, y, z'
loop_
 _atom_site_type_symbol
 _atom_site_label
 _atom_site_symmetry_multiplicity
 _atom_site_fract_x
 _atom_site_fract_y
 _atom_site_fract_z
 _atom_site_occupancy
  Zn  Zn0_0  1  0.00000000  0.00000000  0.00000000  1
  Zn  Zn0_1  1  0.00000000  0.00000000  0.50000000  1
  Zn  Zn0_2  1  0.00000000  0.50000000  0.00000000  1
  Zn  Zn0_3  1  0.00000000  0.50000000  0.50000000  1
  Zn  Zn0_4  1  0.50000000  0.00000000  0.00000000  1
  Zn  Zn0_5  1  0.50000000  0.00000000  0.50000000  1
  Zn  Zn0_6  1  0.50000000  0.50000000  0.00000000  1
  Zn  Zn0_7  1  0.50000000  0.50000000  0.50000000  1
  Zn  Zn1_0  1  0.25000000  0.25000000  0.00000000  1
  Zn  Zn1_1  1  0.25000000  0.25000000  0.50000000  1
  Zn  Zn1_2  1  0.25000000  0.75000000  0.00000000  1
  Zn  Zn1_3  1  0.25000000  0.75000000  0.50000000  1
  Zn  Zn1_4  1  0.75000000  0.25000000  0.00000000  1
  Zn  Zn1_5  1  0.75000000  0.25000000  0.50000000  1
  Zn  Zn1_6  1  0.75000000  0.75000000  0.00000000  1
  Zn  Zn1_7  1  0.75000000  0.75000000  0.50000000  1
  Cd  Cd0_0  1  0.41099599  0.16099599  0.00000000  1
  Cd  Cd0_1  1  0.41099599  0.16099599  0.50000000  1
  Cd  Cd0_2  1  0.41099599  0.66099599  0.00000000  1
  Cd  Cd0_3  1  0.41099599  0.66099599  0.50000000  1
  Cd  Cd0_4  1  0.91099599  0.16099599  0.00000000  1
  Cd  Cd0_5  1  0.91099599  0.16099599  0.50000000  1
  Cd  Cd0_6  1  0.91099599  0.66099599  0.00000000  1
  Cd  Cd0_7  1  0.91099599  0.66099599  0.50000000  1
  Cd  Cd1_0  1  0.16099599  0.08900401  0.00000000  1
  Cd  Cd1_1  1  0.16099599  0.08900401  0.50000000  1
  Cd  Cd1_2  1  0.16099599  0.58900401  0.00000000  1
  Cd  Cd1_3  1  0.16099599  0.58900401  0.50000000  1
  Cd  Cd1_4  1  0.66099599  0.08900401  0.00000000  1
  Cd  Cd1_5  1  0.66099599  0.08900401  0.50000000  1
  Cd  Cd1_6  1  0.66099599  0.58900401  0.00000000  1
  Cd  Cd1_7  1  0.66099599  0.58900401  0.50000000  1
  Cd  Cd2_0  1  0.33900401  0.41099599  0.00000000  1
  Cd  Cd2_1  1  0.33900401  0.41099599  0.50000000  1
  Cd  Cd2_2  1  0.33900401  0.91099599  0.00000000  1
  Cd  Cd2_3  1  0.33900401  0.91099599  0.50000000  1
  Cd  Cd2_4  1  0.83900401  0.41099599  0.00000000  1
  Cd  Cd2_5  1  0.83900401  0.41099599  0.50000000  1
  Cd  Cd2_6  1  0.83900401  0.91099599  0.00000000  1
  Cd  Cd2_7  1  0.83900401  0.91099599  0.50000000  1
  Cd  Cd3_0  1  0.08900401  0.33900401  0.00000000  1
  Cd  Cd3_1  1  0.08900401  0.33900401  0.50000000  1
  Cd  Cd3_2  1  0.08900401  0.83900401  0.00000000  1
  Cd  Cd3_3  1  0.08900401  0.83900401  0.50000000  1
  Cd  Cd3_4  1  0.58900401  0.33900401  0.00000000  1
  Cd  Cd3_5  1  0.58900401  0.33900401  0.50000000  1
  Cd  Cd3_6  1  0.58900401  0.83900401  0.00000000  1
  Cd  Cd3_7  1  0.58900401  0.83900401  0.50000000  1
  B  B0_0  1  0.31303812  0.06303812  0.00000000  1
  B  B0_1  1  0.31303812  0.06303812  0.50000000  1
  B  B0_2  1  0.31303812  0.56303812  0.00000000  1
  B  B0_3  1  0.31303812  0.56303812  0.50000000  1
  B  B0_4  1  0.81303812  0.06303812  0.00000000  1
  B  B0_5  1  0.81303812  0.06303812  0.50000000  1
  B  B0_6  1  0.81303812  0.56303812  0.00000000  1
  B  B0_7  1  0.81303812  0.56303812  0.50000000  1
  B  B1_0  1  0.06303812  0.18696188  0.00000000  1
  B  B1_1  1  0.06303812  0.18696188  0.50000000  1
  B  B1_2  1  0.06303812  0.68696188  0.00000000  1
  B  B1_3  1  0.06303812  0.68696188  0.50000000  1
  B  B1_4  1  0.56303812  0.18696188  0.00000000  1
  B  B1_5  1  0.56303812  0.18696188  0.50000000  1
  B  B1_6  1  0.56303812  0.68696188  0.00000000  1
  B  B1_7  1  0.56303812  0.68696188  0.50000000  1
  B  B2_0  1  0.43696188  0.31303812  0.00000000  1
  B  B2_1  1  0.43696188  0.31303812  0.50000000  1
  B  B2_2  1  0.43696188  0.81303812  0.00000000  1
  B  B2_3  1  0.43696188  0.81303812  0.50000000  1
  B  B2_4  1  0.93696188  0.31303812  0.00000000  1
  B  B2_5  1  0.93696188  0.31303812  0.50000000  1
  B  B2_6  1  0.93696188  0.81303812  0.00000000  1
  B  B2_7  1  0.93696188  0.81303812  0.50000000  1
  B  B3_0  1  0.18696188  0.43696188  0.00000000  1
  B  B3_1  1  0.18696188  0.43696188  0.50000000  1
  B  B3_2  1  0.18696188  0.93696188  0.00000000  1
  B  B3_3  1  0.18696188  0.93696188  0.50000000  1
  B  B3_4  1  0.68696188  0.43696188  0.00000000  1
  B  B3_5  1  0.68696188  0.43696188  0.50000000  1
  B  B3_6  1  0.68696188  0.93696188  0.00000000  1
  B  B3_7  1  0.68696188  0.93696188  0.50000000  1
  Rh  Rh0_0  1  0.03418685  0.10955570  0.25000000  1
  Rh  Rh0_1  1  0.03418685  0.10955570  0.75000000  1
  Rh  Rh0_2  1  0.03418685  0.60955570  0.25000000  1
  Rh  Rh0_3  1  0.03418685  0.60955570  0.75000000  1
  Rh  Rh0_4  1  0.53418685  0.10955570  0.25000000  1
  Rh  Rh0_5  1  0.53418685  0.10955570  0.75000000  1
  Rh  Rh0_6  1  0.53418685  0.60955570  0.25000000  1
  Rh  Rh0_7  1  0.53418685  0.60955570  0.75000000  1
  Rh  Rh1_0  1  0.10955570  0.46581315  0.25000000  1
  Rh  Rh1_1  1  0.10955570  0.46581315  0.75000000  1
  Rh  Rh1_2  1  0.10955570  0.96581315  0.25000000  1
  Rh  Rh1_3  1  0.10955570  0.96581315  0.75000000  1
  Rh  Rh1_4  1  0.60955570  0.46581315  0.25000000  1
  Rh  Rh1_5  1  0.60955570  0.46581315  0.75000000  1
  Rh  Rh1_6  1  0.60955570  0.96581315  0.25000000  1
  Rh  Rh1_7  1  0.60955570  0.96581315  0.75000000  1
  Rh  Rh2_0  1  0.39044430  0.03418685  0.25000000  1
  Rh  Rh2_1  1  0.39044430  0.03418685  0.75000000  1
  Rh  Rh2_2  1  0.39044430  0.53418685  0.25000000  1
  Rh  Rh2_3  1  0.39044430  0.53418685  0.75000000  1
  Rh  Rh2_4  1  0.89044430  0.03418685  0.25000000  1
  Rh  Rh2_5  1  0.89044430  0.03418685  0.75000000  1
  Rh  Rh2_6  1  0.89044430  0.53418685  0.25000000  1
  Rh  Rh2_7  1  0.89044430  0.53418685  0.75000000  1
  Rh  Rh3_0  1  0.46581315  0.39044430  0.25000000  1
  Rh  Rh3_1  1  0.46581315  0.39044430  0.75000000  1
  Rh  Rh3_2  1  0.46581315  0.89044430  0.25000000  1
  Rh  Rh3_3  1  0.46581315  0.89044430  0.75000000  1
  Rh  Rh3_4  1  0.96581315  0.39044430  0.25000000  1
  Rh  Rh3_5  1  0.96581315  0.39044430  0.75000000  1
  Rh  Rh3_6  1  0.96581315  0.89044430  0.25000000  1
  Rh  Rh3_7  1  0.96581315  0.89044430  0.75000000  1
  Rh  Rh4_0  1  0.21581315  0.35955570  0.25000000  1
  Rh  Rh4_1  1  0.21581315  0.35955570  0.75000000  1
  Rh  Rh4_2  1  0.21581315  0.85955570  0.25000000  1
  Rh  Rh4_3  1  0.21581315  0.85955570  0.75000000  1
  Rh  Rh4_4  1  0.71581315  0.35955570  0.25000000  1
  Rh  Rh4_5  1  0.71581315  0.35955570  0.75000000  1
  Rh  Rh4_6  1  0.71581315  0.85955570  0.25000000  1
  Rh  Rh4_7  1  0.71581315  0.85955570  0.75000000  1
  Rh  Rh5_0  1  0.28418685  0.14044430  0.25000000  1
  Rh  Rh5_1  1  0.28418685  0.14044430  0.75000000  1
  Rh  Rh5_2  1  0.28418685  0.64044430  0.25000000  1
  Rh  Rh5_3  1  0.28418685  0.64044430  0.75000000  1
  Rh  Rh5_4  1  0.78418685  0.14044430  0.25000000  1
  Rh  Rh5_5  1  0.78418685  0.14044430  0.75000000  1
  Rh  Rh5_6  1  0.78418685  0.64044430  0.25000000  1
  Rh  Rh5_7  1  0.78418685  0.64044430  0.75000000  1
  Rh  Rh6_0  1  0.35955570  0.28418685  0.25000000  1
  Rh  Rh6_1  1  0.35955570  0.28418685  0.75000000  1
  Rh  Rh6_2  1  0.35955570  0.78418685  0.25000000  1
  Rh  Rh6_3  1  0.35955570  0.78418685  0.75000000  1
  Rh  Rh6_4  1  0.85955570  0.28418685  0.25000000  1
  Rh  Rh6_5  1  0.85955570  0.28418685  0.75000000  1
  Rh  Rh6_6  1  0.85955570  0.78418685  0.25000000  1
  Rh  Rh6_7  1  0.85955570  0.78418685  0.75000000  1
  Rh  Rh7_0  1  0.14044430  0.21581315  0.25000000  1
  Rh  Rh7_1  1  0.14044430  0.21581315  0.75000000  1
  Rh  Rh7_2  1  0.14044430  0.71581315  0.25000000  1
  Rh  Rh7_3  1  0.14044430  0.71581315  0.75000000  1
  Rh  Rh7_4  1  0.64044430  0.21581315  0.25000000  1
  Rh  Rh7_5  1  0.64044430  0.21581315  0.75000000  1
  Rh  Rh7_6  1  0.64044430  0.71581315  0.25000000  1
  Rh  Rh7_7  1  0.64044430  0.71581315  0.75000000  1
  Rh  Rh8_0  1  0.25000000  0.00000000  0.25000000  1
  Rh  Rh8_1  1  0.25000000  0.00000000  0.75000000  1
  Rh  Rh8_2  1  0.25000000  0.50000000  0.25000000  1
  Rh  Rh8_3  1  0.25000000  0.50000000  0.75000000  1
  Rh  Rh8_4  1  0.75000000  0.00000000  0.25000000  1
  Rh  Rh8_5  1  0.75000000  0.00000000  0.75000000  1
  Rh  Rh8_6  1  0.75000000  0.50000000  0.25000000  1
  Rh  Rh8_7  1  0.75000000  0.50000000  0.75000000  1
  Rh  Rh9_0  1  0.00000000  0.25000000  0.25000000  1
  Rh  Rh9_1  1  0.00000000  0.25000000  0.75000000  1
  Rh  Rh9_2  1  0.00000000  0.75000000  0.25000000  1
  Rh  Rh9_3  1  0.00000000  0.75000000  0.75000000  1
  Rh  Rh9_4  1  0.50000000  0.25000000  0.25000000  1
  Rh  Rh9_5  1  0.50000000  0.25000000  0.75000000  1
  Rh  Rh9_6  1  0.50000000  0.75000000  0.25000000  1
  Rh  Rh9_7  1  0.50000000  0.75000000  0.75000000  1
loop_
_geom_bond_atom_site_label_1
_geom_bond_atom_site_label_2
_geom_bond_distance
_geom_bond_site_symmetry_2
Cd0_0 Rh9_4 2.808463 1_555
Cd0_0 Rh9_5 2.808463 1_554
Cd0_0 Rh2_0 2.851043 1_555
Cd0_0 Rh5_0 2.851043 1_555
Cd0_0 Rh5_1 2.851043 1_554
Cd0_0 Rh2_1 2.851043 1_554
Cd0_0 Cd0_1 2.897112 1_555
Cd0_0 Cd0_1 2.897112 1_554
Cd0_0 Rh0_4 2.934359 1_555
Cd0_0 Rh0_5 2.934359 1_554
Cd0_0 Rh6_0 2.934359 1_555
Cd0_0 Rh6_1 2.934359 1_554
Cd0_1 Rh9_5 2.808463 1_555
Cd0_1 Rh9_4 2.808463 1_555
Cd0_1 Rh2_0 2.851043 1_555
Cd0_1 Rh5_1 2.851043 1_555
Cd0_1 Rh2_1 2.851043 1_555
Cd0_1 Rh5_0 2.851043 1_555
Cd0_1 Rh0_4 2.934359 1_555
Cd0_1 Rh0_5 2.934359 1_555
Cd0_1 Rh6_0 2.934359 1_555
Cd0_1 Rh6_1 2.934359 1_555
Cd0_2 Rh9_6 2.808463 1_555
Cd0_2 Rh9_7 2.808463 1_554
Cd0_2 Rh5_2 2.851043 1_555
Cd0_2 Rh2_2 2.851043 1_555
Cd0_2 Rh2_3 2.851043 1_554
Cd0_2 Rh5_3 2.851043 1_554
Cd0_2 Cd0_3 2.897112 1_555
Cd0_2 Cd0_3 2.897112 1_554
Cd0_2 Rh0_6 2.934359 1_555
Cd0_2 Rh6_2 2.934359 1_555
Cd0_2 Rh0_7 2.934359 1_554
Cd0_2 Rh6_3 2.934359 1_554
Cd0_3 Rh9_7 2.808463 1_555
Cd0_3 Rh9_6 2.808463 1_555
Cd0_3 Rh2_3 2.851043 1_555
Cd0_3 Rh5_2 2.851043 1_555
Cd0_3 Rh5_3 2.851043 1_555
Cd0_3 Rh2_2 2.851043 1_555
Cd0_3 Rh0_6 2.934359 1_555
Cd0_3 Rh6_2 2.934359 1_555
Cd0_3 Rh6_3 2.934359 1_555
Cd0_3 Rh0_7 2.934359 1_555
Cd0_4 Rh9_0 2.808463 1_655
Cd0_4 Rh9_1 2.808463 1_654
Cd0_4 Rh5_4 2.851043 1_555
Cd0_4 Rh2_4 2.851043 1_555
Cd0_4 Rh5_5 2.851043 1_554
Cd0_4 Rh2_5 2.851043 1_554
Cd0_4 Cd0_5 2.897112 1_555
Cd0_4 Cd0_5 2.897112 1_554
Cd0_4 Rh0_1 2.934359 1_654
Cd0_4 Rh0_0 2.934359 1_655
Cd0_4 Rh6_4 2.934359 1_555
Cd0_4 Rh6_5 2.934359 1_554
Cd0_5 Rh9_1 2.808463 1_655
Cd0_5 Rh9_0 2.808463 1_655
Cd0_5 Rh5_4 2.851043 1_555
Cd0_5 Rh5_5 2.851043 1_555
Cd0_5 Rh2_4 2.851043 1_555
Cd0_5 Rh2_5 2.851043 1_555
Cd0_5 Rh0_1 2.934359 1_655
Cd0_5 Rh0_0 2.934359 1_655
Cd0_5 Rh6_5 2.934359 1_555
Cd0_5 Rh6_4 2.934359 1_555
Cd0_6 Rh9_2 2.808463 1_655
Cd0_6 Rh9_3 2.808463 1_654
Cd0_6 Rh2_6 2.851043 1_555
Cd0_6 Rh5_6 2.851043 1_555
Cd0_6 Rh5_7 2.851043 1_554
Cd0_6 Rh2_7 2.851043 1_554
Cd0_6 Cd0_7 2.897112 1_555
Cd0_6 Cd0_7 2.897112 1_554
Cd0_6 Rh0_2 2.934359 1_655
Cd0_6 Rh0_3 2.934359 1_654
Cd0_6 Rh6_7 2.934359 1_554
Cd0_6 Rh6_6 2.934359 1_555
Cd0_7 Rh9_3 2.808463 1_655
Cd0_7 Rh9_2 2.808463 1_655
Cd0_7 Rh2_6 2.851043 1_555
Cd0_7 Rh2_7 2.851043 1_555
Cd0_7 Rh5_6 2.851043 1_555
Cd0_7 Rh5_7 2.851043 1_555
Cd0_7 Rh0_2 2.934359 1_655
Cd0_7 Rh0_3 2.934359 1_655
Cd0_7 Rh6_6 2.934359 1_555
Cd0_7 Rh6_7 2.934359 1_555
Cd1_0 Rh8_0 2.808463 1_555
Cd1_0 Rh8_1 2.808463 1_554
Cd1_0 Rh0_0 2.851043 1_555
Cd1_0 Rh7_0 2.851043 1_555
Cd1_0 Rh0_1 2.851043 1_554
Cd1_0 Rh7_1 2.851043 1_554
Cd1_0 Cd1_1 2.897112 1_555
Cd1_0 Cd1_1 2.897112 1_554
Cd1_0 Rh1_2 2.934359 1_545
Cd1_0 Rh5_0 2.934359 1_555
Cd1_0 Rh1_3 2.934359 1_544
Cd1_0 Rh5_1 2.934359 1_554
Cd1_1 Rh8_1 2.808463 1_555
Cd1_1 Rh8_0 2.808463 1_555
Cd1_1 Rh7_1 2.851043 1_555
Cd1_1 Rh0_1 2.851043 1_555
Cd1_1 Rh0_0 2.851043 1_555
Cd1_1 Rh7_0 2.851043 1_555
Cd1_1 Rh1_2 2.934359 1_545
Cd1_1 Rh5_0 2.934359 1_555
Cd1_1 Rh1_3 2.934359 1_545
Cd1_1 Rh5_1 2.934359 1_555
Cd1_2 Rh8_2 2.808463 1_555
Cd1_2 Rh8_3 2.808463 1_554
Cd1_2 Rh7_2 2.851043 1_555
Cd1_2 Rh0_2 2.851043 1_555
Cd1_2 Rh7_3 2.851043 1_554
Cd1_2 Rh0_3 2.851043 1_554
Cd1_2 Cd1_3 2.897112 1_555
Cd1_2 Cd1_3 2.897112 1_554
Cd1_2 Rh1_0 2.934359 1_555
Cd1_2 Rh5_2 2.934359 1_555
Cd1_2 Rh1_1 2.934359 1_554
Cd1_2 Rh5_3 2.934359 1_554
Cd1_3 Rh8_2 2.808463 1_555
Cd1_3 Rh8_3 2.808463 1_555
Cd1_3 Rh7_2 2.851043 1_555
Cd1_3 Rh7_3 2.851043 1_555
Cd1_3 Rh0_3 2.851043 1_555
Cd1_3 Rh0_2 2.851043 1_555
Cd1_3 Rh1_0 2.934359 1_555
Cd1_3 Rh1_1 2.934359 1_555
Cd1_3 Rh5_2 2.934359 1_555
Cd1_3 Rh5_3 2.934359 1_555
Cd1_4 Rh8_4 2.808463 1_555
Cd1_4 Rh8_5 2.808463 1_554
Cd1_4 Rh0_4 2.851043 1_555
Cd1_4 Rh7_4 2.851043 1_555
Cd1_4 Rh0_5 2.851043 1_554
Cd1_4 Rh7_5 2.851043 1_554
Cd1_4 Cd1_5 2.897112 1_555
Cd1_4 Cd1_5 2.897112 1_554
Cd1_4 Rh1_6 2.934359 1_545
Cd1_4 Rh5_4 2.934359 1_555
Cd1_4 Rh5_5 2.934359 1_554
Cd1_4 Rh1_7 2.934359 1_544
Cd1_5 Rh8_4 2.808463 1_555
Cd1_5 Rh8_5 2.808463 1_555
Cd1_5 Rh0_4 2.851043 1_555
Cd1_5 Rh0_5 2.851043 1_555
Cd1_5 Rh7_5 2.851043 1_555
Cd1_5 Rh7_4 2.851043 1_555
Cd1_5 Rh1_6 2.934359 1_545
Cd1_5 Rh5_4 2.934359 1_555
Cd1_5 Rh1_7 2.934359 1_545
Cd1_5 Rh5_5 2.934359 1_555
Cd1_6 Rh8_6 2.808463 1_555
Cd1_6 Rh8_7 2.808463 1_554
Cd1_6 Rh7_6 2.851043 1_555
Cd1_6 Rh0_6 2.851043 1_555
Cd1_6 Rh7_7 2.851043 1_554
Cd1_6 Rh0_7 2.851043 1_554
Cd1_6 Cd1_7 2.897112 1_555
Cd1_6 Cd1_7 2.897112 1_554
Cd1_6 Rh5_6 2.934359 1_555
Cd1_6 Rh1_4 2.934359 1_555
Cd1_6 Rh5_7 2.934359 1_554
Cd1_6 Rh1_5 2.934359 1_554
Cd1_7 Rh8_6 2.808463 1_555
Cd1_7 Rh8_7 2.808463 1_555
Cd1_7 Rh7_7 2.851043 1_555
Cd1_7 Rh0_7 2.851043 1_555
Cd1_7 Rh7_6 2.851043 1_555
Cd1_7 Rh0_6 2.851043 1_555
Cd1_7 Rh5_6 2.934359 1_555
Cd1_7 Rh1_4 2.934359 1_555
Cd1_7 Rh5_7 2.934359 1_555
Cd1_7 Rh1_5 2.934359 1_555
Cd2_0 Rh8_2 2.808463 1_555
Cd2_0 Rh8_3 2.808463 1_554
Cd2_0 Rh6_0 2.851043 1_555
Cd2_0 Rh3_0 2.851043 1_555
Cd2_0 Rh3_1 2.851043 1_554
Cd2_0 Rh6_1 2.851043 1_554
Cd2_0 Cd2_1 2.897112 1_555
Cd2_0 Cd2_1 2.897112 1_554
Cd2_0 Rh2_2 2.934359 1_555
Cd2_0 Rh4_0 2.934359 1_555
Cd2_0 Rh2_3 2.934359 1_554
Cd2_0 Rh4_1 2.934359 1_554
Cd2_1 Rh8_3 2.808463 1_555
Cd2_1 Rh8_2 2.808463 1_555
Cd2_1 Rh6_0 2.851043 1_555
Cd2_1 Rh6_1 2.851043 1_555
Cd2_1 Rh3_1 2.851043 1_555
Cd2_1 Rh3_0 2.851043 1_555
Cd2_1 Rh2_2 2.934359 1_555
Cd2_1 Rh2_3 2.934359 1_555
Cd2_1 Rh4_0 2.934359 1_555
Cd2_1 Rh4_1 2.934359 1_555
Cd2_2 Rh8_0 2.808463 1_565
Cd2_2 Rh8_1 2.808463 1_564
Cd2_2 Rh3_2 2.851043 1_555
Cd2_2 Rh6_2 2.851043 1_555
Cd2_2 Rh3_3 2.851043 1_554
Cd2_2 Rh6_3 2.851043 1_554
Cd2_2 Cd2_3 2.897112 1_555
Cd2_2 Cd2_3 2.897112 1_554
Cd2_2 Rh2_0 2.934359 1_565
Cd2_2 Rh2_1 2.934359 1_564
Cd2_2 Rh4_2 2.934359 1_555
Cd2_2 Rh4_3 2.934359 1_554
Cd2_3 Rh8_1 2.808463 1_565
Cd2_3 Rh8_0 2.808463 1_565
Cd2_3 Rh6_3 2.851043 1_555
Cd2_3 Rh3_3 2.851043 1_555
Cd2_3 Rh3_2 2.851043 1_555
Cd2_3 Rh6_2 2.851043 1_555
Cd2_3 Rh2_0 2.934359 1_565
Cd2_3 Rh2_1 2.934359 1_565
Cd2_3 Rh4_2 2.934359 1_555
Cd2_3 Rh4_3 2.934359 1_555
Cd2_4 Rh8_6 2.808463 1_555
Cd2_4 Rh8_7 2.808463 1_554
Cd2_4 Rh6_4 2.851043 1_555
Cd2_4 Rh3_4 2.851043 1_555
Cd2_4 Rh3_5 2.851043 1_554
Cd2_4 Rh6_5 2.851043 1_554
Cd2_4 Cd2_5 2.897112 1_555
Cd2_4 Cd2_5 2.897112 1_554
Cd2_4 Rh4_4 2.934359 1_555
Cd2_4 Rh2_6 2.934359 1_555
Cd2_4 Rh4_5 2.934359 1_554
Cd2_4 Rh2_7 2.934359 1_554
Cd2_5 Rh8_6 2.808463 1_555
Cd2_5 Rh8_7 2.808463 1_555
Cd2_5 Rh6_4 2.851043 1_555
Cd2_5 Rh6_5 2.851043 1_555
Cd2_5 Rh3_4 2.851043 1_555
Cd2_5 Rh3_5 2.851043 1_555
Cd2_5 Rh4_4 2.934359 1_555
Cd2_5 Rh4_5 2.934359 1_555
Cd2_5 Rh2_6 2.934359 1_555
Cd2_5 Rh2_7 2.934359 1_555
Cd2_6 Rh8_4 2.808463 1_565
Cd2_6 Rh8_5 2.808463 1_564
Cd2_6 Rh6_6 2.851043 1_555
Cd2_6 Rh3_6 2.851043 1_555
Cd2_6 Rh6_7 2.851043 1_554
Cd2_6 Rh3_7 2.851043 1_554
Cd2_6 Cd2_7 2.897112 1_555
Cd2_6 Cd2_7 2.897112 1_554
Cd2_6 Rh2_4 2.934359 1_565
Cd2_6 Rh2_5 2.934359 1_564
Cd2_6 Rh4_6 2.934359 1_555
Cd2_6 Rh4_7 2.934359 1_554
Cd2_7 Rh8_5 2.808463 1_565
Cd2_7 Rh8_4 2.808463 1_565
Cd2_7 Rh6_6 2.851043 1_555
Cd2_7 Rh6_7 2.851043 1_555
Cd2_7 Rh3_7 2.851043 1_555
Cd2_7 Rh3_6 2.851043 1_555
Cd2_7 Rh2_4 2.934359 1_565
Cd2_7 Rh2_5 2.934359 1_565
Cd2_7 Rh4_6 2.934359 1_555
Cd2_7 Rh4_7 2.934359 1_555
Cd3_0 Rh9_0 2.808463 1_555
Cd3_0 Rh9_1 2.808463 1_554
Cd3_0 Rh4_0 2.851043 1_555
Cd3_0 Rh1_0 2.851043 1_555
Cd3_0 Rh1_1 2.851043 1_554
Cd3_0 Rh4_1 2.851043 1_554
Cd3_0 Cd3_1 2.897112 1_555
Cd3_0 Cd3_1 2.897112 1_554
Cd3_0 Rh3_4 2.934359 1_455
Cd3_0 Rh7_0 2.934359 1_555
Cd3_0 Rh7_1 2.934359 1_554
Cd3_0 Rh3_5 2.934359 1_454
Cd3_1 Rh9_0 2.808463 1_555
Cd3_1 Rh9_1 2.808463 1_555
Cd3_1 Rh4_0 2.851043 1_555
Cd3_1 Rh1_0 2.851043 1_555
Cd3_1 Rh4_1 2.851043 1_555
Cd3_1 Rh1_1 2.851043 1_555
Cd3_1 Rh3_4 2.934359 1_455
Cd3_1 Rh7_0 2.934359 1_555
Cd3_1 Rh3_5 2.934359 1_455
Cd3_1 Rh7_1 2.934359 1_555
Cd3_2 Rh9_2 2.808463 1_555
Cd3_2 Rh9_3 2.808463 1_554
Cd3_2 Rh4_2 2.851043 1_555
Cd3_2 Rh1_2 2.851043 1_555
Cd3_2 Rh4_3 2.851043 1_554
Cd3_2 Rh1_3 2.851043 1_554
Cd3_2 Cd3_3 2.897112 1_555
Cd3_2 Cd3_3 2.897112 1_554
Cd3_2 Rh7_3 2.934359 1_554
Cd3_2 Rh7_2 2.934359 1_555
Cd3_2 Rh3_6 2.934359 1_455
Cd3_2 Rh3_7 2.934359 1_454
Cd3_3 Rh9_3 2.808463 1_555
Cd3_3 Rh9_2 2.808463 1_555
Cd3_3 Rh4_2 2.851043 1_555
Cd3_3 Rh4_3 2.851043 1_555
Cd3_3 Rh1_2 2.851043 1_555
Cd3_3 Rh1_3 2.851043 1_555
Cd3_3 Rh3_7 2.934359 1_455
Cd3_3 Rh7_3 2.934359 1_555
Cd3_3 Rh7_2 2.934359 1_555
Cd3_3 Rh3_6 2.934359 1_455
Cd3_4 Rh9_4 2.808463 1_555
Cd3_4 Rh9_5 2.808463 1_554
Cd3_4 Rh4_4 2.851043 1_555
Cd3_4 Rh1_4 2.851043 1_555
Cd3_4 Rh4_5 2.851043 1_554
Cd3_4 Rh1_5 2.851043 1_554
Cd3_4 Cd3_5 2.897112 1_555
Cd3_4 Cd3_5 2.897112 1_554
Cd3_4 Rh7_4 2.934359 1_555
Cd3_4 Rh3_0 2.934359 1_555
Cd3_4 Rh3_1 2.934359 1_554
Cd3_4 Rh7_5 2.934359 1_554
Cd3_5 Rh9_4 2.808463 1_555
Cd3_5 Rh9_5 2.808463 1_555
Cd3_5 Rh1_4 2.851043 1_555
Cd3_5 Rh1_5 2.851043 1_555
Cd3_5 Rh4_4 2.851043 1_555
Cd3_5 Rh4_5 2.851043 1_555
Cd3_5 Rh7_5 2.934359 1_555
Cd3_5 Rh3_1 2.934359 1_555
Cd3_5 Rh7_4 2.934359 1_555
Cd3_5 Rh3_0 2.934359 1_555
Cd3_6 Rh9_6 2.808463 1_555
Cd3_6 Rh9_7 2.808463 1_554
Cd3_6 Rh4_6 2.851043 1_555
Cd3_6 Rh1_6 2.851043 1_555
Cd3_6 Rh1_7 2.851043 1_554
Cd3_6 Rh4_7 2.851043 1_554
Cd3_6 Cd3_7 2.897112 1_555
Cd3_6 Cd3_7 2.897112 1_554
Cd3_6 Rh7_6 2.934359 1_555
Cd3_6 Rh3_2 2.934359 1_555
Cd3_6 Rh3_3 2.934359 1_554
Cd3_6 Rh7_7 2.934359 1_554
Cd3_7 Rh9_6 2.808463 1_555
Cd3_7 Rh9_7 2.808463 1_555
Cd3_7 Rh4_6 2.851043 1_555
Cd3_7 Rh4_7 2.851043 1_555
Cd3_7 Rh1_6 2.851043 1_555
Cd3_7 Rh1_7 2.851043 1_555
Cd3_7 Rh7_6 2.934359 1_555
Cd3_7 Rh7_7 2.934359 1_555
Cd3_7 Rh3_3 2.934359 1_555
Cd3_7 Rh3_2 2.934359 1_555
B0_0 Rh2_0 2.142855 1_555
B0_0 Rh5_0 2.142855 1_555
B0_0 Rh2_1 2.142855 1_554
B0_0 Rh5_1 2.142855 1_554
B0_0 Rh8_0 2.236594 1_555
B0_0 Rh8_1 2.236594 1_554
B0_0 Cd0_0 2.648117 1_555
B0_0 Cd2_2 2.948421 1_545
B0_0 Cd1_0 2.948421 1_555
B0_1 Rh2_0 2.142855 1_555
B0_1 Rh2_1 2.142855 1_555
B0_1 Rh5_0 2.142855 1_555
B0_1 Rh5_1 2.142855 1_555
B0_1 Rh8_0 2.236594 1_555
B0_1 Rh8_1 2.236594 1_555
B0_1 Cd0_1 2.648117 1_555
B0_1 Cd2_3 2.948421 1_545
B0_1 Cd1_1 2.948421 1_555
B0_2 Rh5_2 2.142855 1_555
B0_2 Rh2_2 2.142855 1_555
B0_2 Rh2_3 2.142855 1_554
B0_2 Rh5_3 2.142855 1_554
B0_2 Rh8_2 2.236594 1_555
B0_2 Rh8_3 2.236594 1_554
B0_2 Cd0_2 2.648117 1_555
B0_2 Cd2_0 2.948421 1_555
B0_2 Cd1_2 2.948421 1_555
B0_3 Rh2_3 2.142855 1_555
B0_3 Rh5_2 2.142855 1_555
B0_3 Rh5_3 2.142855 1_555
B0_3 Rh2_2 2.142855 1_555
B0_3 Rh8_2 2.236594 1_555
B0_3 Rh8_3 2.236594 1_555
B0_3 Cd0_3 2.648117 1_555
B0_3 Cd2_1 2.948421 1_555
B0_3 Cd1_3 2.948421 1_555
B0_4 Rh2_4 2.142855 1_555
B0_4 Rh5_4 2.142855 1_555
B0_4 Rh2_5 2.142855 1_554
B0_4 Rh5_5 2.142855 1_554
B0_4 Rh8_4 2.236594 1_555
B0_4 Rh8_5 2.236594 1_554
B0_4 Cd0_4 2.648117 1_555
B0_4 Cd2_6 2.948421 1_545
B0_4 Cd1_4 2.948421 1_555
B0_5 Rh2_4 2.142855 1_555
B0_5 Rh2_5 2.142855 1_555
B0_5 Rh5_4 2.142855 1_555
B0_5 Rh5_5 2.142855 1_555
B0_5 Rh8_5 2.236594 1_555
B0_5 Rh8_4 2.236594 1_555
B0_5 Cd0_5 2.648117 1_555
B0_5 Cd2_7 2.948421 1_545
B0_5 Cd1_5 2.948421 1_555
B0_6 Rh2_6 2.142855 1_555
B0_6 Rh5_6 2.142855 1_555
B0_6 Rh2_7 2.142855 1_554
B0_6 Rh5_7 2.142855 1_554
B0_6 Rh8_6 2.236594 1_555
B0_6 Rh8_7 2.236594 1_554
B0_6 Cd0_6 2.648117 1_555
B0_6 Cd1_6 2.948421 1_555
B0_6 Cd2_4 2.948421 1_555
B0_7 Rh2_6 2.142855 1_555
B0_7 Rh2_7 2.142855 1_555
B0_7 Rh5_6 2.142855 1_555
B0_7 Rh5_7 2.142855 1_555
B0_7 Rh8_7 2.236594 1_555
B0_7 Rh8_6 2.236594 1_555
B0_7 Cd0_7 2.648117 1_555
B0_7 Cd1_7 2.948421 1_555
B0_7 Cd2_5 2.948421 1_555
B1_0 Rh7_0 2.142855 1_555
B1_0 Rh0_0 2.142855 1_555
B1_0 Rh7_1 2.142855 1_554
B1_0 Rh0_1 2.142855 1_554
B1_0 Rh9_0 2.236594 1_555
B1_0 Rh9_1 2.236594 1_554
B1_0 Cd1_0 2.648117 1_555
B1_0 Cd0_4 2.948421 1_455
B1_0 Cd3_0 2.948421 1_555
B1_1 Rh7_1 2.142855 1_555
B1_1 Rh7_0 2.142855 1_555
B1_1 Rh0_0 2.142855 1_555
B1_1 Rh0_1 2.142855 1_555
B1_1 Rh9_1 2.236594 1_555
B1_1 Rh9_0 2.236594 1_555
B1_1 Cd1_1 2.648117 1_555
B1_1 Cd0_5 2.948421 1_455
B1_1 Cd3_1 2.948421 1_555
B1_2 Rh0_2 2.142855 1_555
B1_2 Rh0_3 2.142855 1_554
B1_2 Rh7_2 2.142855 1_555
B1_2 Rh7_3 2.142855 1_554
B1_2 Rh9_2 2.236594 1_555
B1_2 Rh9_3 2.236594 1_554
B1_2 Cd1_2 2.648117 1_555
B1_2 Cd0_6 2.948421 1_455
B1_2 Cd3_2 2.948421 1_555
B1_3 Rh0_3 2.142855 1_555
B1_3 Rh0_2 2.142855 1_555
B1_3 Rh7_3 2.142855 1_555
B1_3 Rh7_2 2.142855 1_555
B1_3 Rh9_2 2.236594 1_555
B1_3 Rh9_3 2.236594 1_555
B1_3 Cd1_3 2.648117 1_555
B1_3 Cd0_7 2.948421 1_455
B1_3 Cd3_3 2.948421 1_555
B1_4 Rh7_4 2.142855 1_555
B1_4 Rh7_5 2.142855 1_554
B1_4 Rh0_4 2.142855 1_555
B1_4 Rh0_5 2.142855 1_554
B1_4 Rh9_4 2.236594 1_555
B1_4 Rh9_5 2.236594 1_554
B1_4 Cd1_4 2.648117 1_555
B1_4 Cd3_4 2.948421 1_555
B1_4 Cd0_0 2.948421 1_555
B1_5 Rh7_5 2.142855 1_555
B1_5 Rh7_4 2.142855 1_555
B1_5 Rh0_5 2.142855 1_555
B1_5 Rh0_4 2.142855 1_555
B1_5 Rh9_4 2.236594 1_555
B1_5 Rh9_5 2.236594 1_555
B1_5 Cd1_5 2.648117 1_555
B1_5 Cd3_5 2.948421 1_555
B1_5 Cd0_1 2.948421 1_555
B1_6 Rh7_6 2.142855 1_555
B1_6 Rh0_6 2.142855 1_555
B1_6 Rh7_7 2.142855 1_554
B1_6 Rh0_7 2.142855 1_554
B1_6 Rh9_6 2.236594 1_555
B1_6 Rh9_7 2.236594 1_554
B1_6 Cd1_6 2.648117 1_555
B1_6 Cd3_6 2.948421 1_555
B1_6 Cd0_2 2.948421 1_555
B1_7 Rh7_7 2.142855 1_555
B1_7 Rh0_7 2.142855 1_555
B1_7 Rh7_6 2.142855 1_555
B1_7 Rh0_6 2.142855 1_555
B1_7 Rh9_7 2.236594 1_555
B1_7 Rh9_6 2.236594 1_555
B1_7 Cd1_7 2.648117 1_555
B1_7 Cd3_7 2.948421 1_555
B1_7 Cd0_3 2.948421 1_555
B2_0 Rh3_0 2.142855 1_555
B2_0 Rh3_1 2.142855 1_554
B2_0 Rh6_0 2.142855 1_555
B2_0 Rh6_1 2.142855 1_554
B2_0 Rh9_4 2.236594 1_555
B2_0 Rh9_5 2.236594 1_554
B2_0 Cd2_0 2.648117 1_555
B2_0 Cd3_4 2.948421 1_555
B2_0 Cd0_0 2.948421 1_555
B2_1 Rh3_0 2.142855 1_555
B2_1 Rh3_1 2.142855 1_555
B2_1 Rh6_0 2.142855 1_555
B2_1 Rh6_1 2.142855 1_555
B2_1 Rh9_4 2.236594 1_555
B2_1 Rh9_5 2.236594 1_555
B2_1 Cd2_1 2.648117 1_555
B2_1 Cd3_5 2.948421 1_555
B2_1 Cd0_1 2.948421 1_555
B2_2 Rh3_2 2.142855 1_555
B2_2 Rh3_3 2.142855 1_554
B2_2 Rh6_2 2.142855 1_555
B2_2 Rh6_3 2.142855 1_554
B2_2 Rh9_6 2.236594 1_555
B2_2 Rh9_7 2.236594 1_554
B2_2 Cd2_2 2.648117 1_555
B2_2 Cd3_6 2.948421 1_555
B2_2 Cd0_2 2.948421 1_555
B2_3 Rh3_3 2.142855 1_555
B2_3 Rh3_2 2.142855 1_555
B2_3 Rh6_3 2.142855 1_555
B2_3 Rh6_2 2.142855 1_555
B2_3 Rh9_6 2.236594 1_555
B2_3 Rh9_7 2.236594 1_555
B2_3 Cd2_3 2.648117 1_555
B2_3 Cd3_7 2.948421 1_555
B2_3 Cd0_3 2.948421 1_555
B2_4 Rh3_4 2.142855 1_555
B2_4 Rh3_5 2.142855 1_554
B2_4 Rh6_4 2.142855 1_555
B2_4 Rh6_5 2.142855 1_554
B2_4 Rh9_0 2.236594 1_655
B2_4 Rh9_1 2.236594 1_654
B2_4 Cd2_4 2.648117 1_555
B2_4 Cd3_0 2.948421 1_655
B2_4 Cd0_4 2.948421 1_555
B2_5 Rh3_5 2.142855 1_555
B2_5 Rh3_4 2.142855 1_555
B2_5 Rh6_5 2.142855 1_555
B2_5 Rh6_4 2.142855 1_555
B2_5 Rh9_1 2.236594 1_655
B2_5 Rh9_0 2.236594 1_655
B2_5 Cd2_5 2.648117 1_555
B2_5 Cd3_1 2.948421 1_655
B2_5 Cd0_5 2.948421 1_555
B2_6 Rh3_6 2.142855 1_555
B2_6 Rh3_7 2.142855 1_554
B2_6 Rh6_6 2.142855 1_555
B2_6 Rh6_7 2.142855 1_554
B2_6 Rh9_2 2.236594 1_655
B2_6 Rh9_3 2.236594 1_654
B2_6 Cd2_6 2.648117 1_555
B2_6 Cd3_2 2.948421 1_655
B2_6 Cd0_6 2.948421 1_555
B2_7 Rh3_7 2.142855 1_555
B2_7 Rh3_6 2.142855 1_555
B2_7 Rh6_6 2.142855 1_555
B2_7 Rh6_7 2.142855 1_555
B2_7 Rh9_2 2.236594 1_655
B2_7 Rh9_3 2.236594 1_655
B2_7 Cd2_7 2.648117 1_555
B2_7 Cd3_3 2.948421 1_655
B2_7 Cd0_7 2.948421 1_555
B3_0 Rh4_0 2.142855 1_555
B3_0 Rh1_0 2.142855 1_555
B3_0 Rh1_1 2.142855 1_554
B3_0 Rh4_1 2.142855 1_554
B3_0 Rh8_2 2.236594 1_555
B3_0 Rh8_3 2.236594 1_554
B3_0 Cd3_0 2.648117 1_555
B3_0 Cd1_2 2.948421 1_555
B3_0 Cd2_0 2.948421 1_555
B3_1 Rh1_1 2.142855 1_555
B3_1 Rh4_0 2.142855 1_555
B3_1 Rh4_1 2.142855 1_555
B3_1 Rh1_0 2.142855 1_555
B3_1 Rh8_2 2.236594 1_555
B3_1 Rh8_3 2.236594 1_555
B3_1 Cd3_1 2.648117 1_555
B3_1 Cd1_3 2.948421 1_555
B3_1 Cd2_1 2.948421 1_555
B3_2 Rh1_2 2.142855 1_555
B3_2 Rh4_2 2.142855 1_555
B3_2 Rh1_3 2.142855 1_554
B3_2 Rh4_3 2.142855 1_554
B3_2 Rh8_0 2.236594 1_565
B3_2 Rh8_1 2.236594 1_564
B3_2 Cd3_2 2.648117 1_555
B3_2 Cd1_0 2.948421 1_565
B3_2 Cd2_2 2.948421 1_555
B3_3 Rh1_2 2.142855 1_555
B3_3 Rh1_3 2.142855 1_555
B3_3 Rh4_2 2.142855 1_555
B3_3 Rh4_3 2.142855 1_555
B3_3 Rh8_1 2.236594 1_565
B3_3 Rh8_0 2.236594 1_565
B3_3 Cd3_3 2.648117 1_555
B3_3 Cd1_1 2.948421 1_565
B3_3 Cd2_3 2.948421 1_555
B3_4 Rh1_4 2.142855 1_555
B3_4 Rh1_5 2.142855 1_554
B3_4 Rh4_4 2.142855 1_555
B3_4 Rh4_5 2.142855 1_554
B3_4 Rh8_6 2.236594 1_555
B3_4 Rh8_7 2.236594 1_554
B3_4 Cd3_4 2.648117 1_555
B3_4 Cd1_6 2.948421 1_555
B3_4 Cd2_4 2.948421 1_555
B3_5 Rh1_4 2.142855 1_555
B3_5 Rh1_5 2.142855 1_555
B3_5 Rh4_4 2.142855 1_555
B3_5 Rh4_5 2.142855 1_555
B3_5 Rh8_6 2.236594 1_555
B3_5 Rh8_7 2.236594 1_555
B3_5 Cd3_5 2.648117 1_555
B3_5 Cd1_7 2.948421 1_555
B3_5 Cd2_5 2.948421 1_555
B3_6 Rh1_6 2.142855 1_555
B3_6 Rh1_7 2.142855 1_554
B3_6 Rh4_6 2.142855 1_555
B3_6 Rh4_7 2.142855 1_554
B3_6 Rh8_4 2.236594 1_565
B3_6 Rh8_5 2.236594 1_564
B3_6 Cd3_6 2.648117 1_555
B3_6 Cd1_4 2.948421 1_565
B3_6 Cd2_6 2.948421 1_555
B3_7 Rh1_6 2.142855 1_555
B3_7 Rh1_7 2.142855 1_555
B3_7 Rh4_7 2.142855 1_555
B3_7 Rh4_6 2.142855 1_555
B3_7 Rh8_4 2.236594 1_565
B3_7 Rh8_5 2.236594 1_565
B3_7 Cd3_7 2.648117 1_555
B3_7 Cd1_5 2.948421 1_565
B3_7 Cd2_7 2.948421 1_555
Rh0_0 Zn0_0 2.628885 1_555
Rh0_0 Zn0_1 2.628885 1_555
Rh0_1 Zn0_1 2.628885 1_555
Rh0_1 Zn0_0 2.628885 1_556
Rh0_2 Zn0_2 2.628885 1_555
Rh0_2 Zn0_3 2.628885 1_555
Rh0_3 Zn0_3 2.628885 1_555
Rh0_3 Zn0_2 2.628885 1_556
Rh0_4 Zn0_4 2.628885 1_555
Rh0_4 Zn0_5 2.628885 1_555
Rh0_5 Zn0_5 2.628885 1_555
Rh0_5 Zn0_4 2.628885 1_556
Rh0_6 Zn0_6 2.628885 1_555
Rh0_6 Zn0_7 2.628885 1_555
Rh0_7 Zn0_7 2.628885 1_555
Rh0_7 Zn0_6 2.628885 1_556
Rh1_0 Zn0_3 2.628885 1_555
Rh1_0 Zn0_2 2.628885 1_555
Rh1_1 Zn0_3 2.628885 1_555
Rh1_1 Zn0_2 2.628885 1_556
Rh1_2 Zn0_1 2.628885 1_565
Rh1_2 Zn0_0 2.628885 1_565
Rh1_3 Zn0_1 2.628885 1_565
Rh1_3 Zn0_0 2.628885 1_566
Rh1_4 Zn0_6 2.628885 1_555
Rh1_4 Zn0_7 2.628885 1_555
Rh1_5 Zn0_7 2.628885 1_555
Rh1_5 Zn0_6 2.628885 1_556
Rh1_6 Zn0_4 2.628885 1_565
Rh1_6 Zn0_5 2.628885 1_565
Rh1_7 Zn0_5 2.628885 1_565
Rh1_7 Zn0_4 2.628885 1_566
Rh2_0 Zn0_4 2.628885 1_555
Rh2_0 Zn0_5 2.628885 1_555
Rh2_1 Zn0_5 2.628885 1_555
Rh2_1 Zn0_4 2.628885 1_556
Rh2_2 Zn0_7 2.628885 1_555
Rh2_2 Zn0_6 2.628885 1_555
Rh2_3 Zn0_7 2.628885 1_555
Rh2_3 Zn0_6 2.628885 1_556
Rh2_4 Zn0_0 2.628885 1_655
Rh2_4 Zn0_1 2.628885 1_655
Rh2_5 Zn0_1 2.628885 1_655
Rh2_5 Zn0_0 2.628885 1_656
Rh2_6 Zn0_2 2.628885 1_655
Rh2_6 Zn0_3 2.628885 1_655
Rh2_7 Zn0_3 2.628885 1_655
Rh2_7 Zn0_2 2.628885 1_656
Rh3_0 Zn0_7 2.628885 1_555
Rh3_0 Zn0_6 2.628885 1_555
Rh3_1 Zn0_7 2.628885 1_555
Rh3_1 Zn0_6 2.628885 1_556
Rh3_2 Zn0_5 2.628885 1_565
Rh3_2 Zn0_4 2.628885 1_565
Rh3_3 Zn0_5 2.628885 1_565
Rh3_3 Zn0_4 2.628885 1_566
Rh3_4 Zn0_2 2.628885 1_655
Rh3_4 Zn0_3 2.628885 1_655
Rh3_5 Zn0_3 2.628885 1_655
Rh3_5 Zn0_2 2.628885 1_656
Rh3_6 Zn0_1 2.628885 1_665
Rh3_6 Zn0_0 2.628885 1_665
Rh3_7 Zn0_1 2.628885 1_665
Rh3_7 Zn0_0 2.628885 1_666
Rh4_0 Zn1_0 2.628885 1_555
Rh4_0 Zn1_1 2.628885 1_555
Rh4_1 Zn1_1 2.628885 1_555
Rh4_1 Zn1_0 2.628885 1_556
Rh4_2 Zn1_3 2.628885 1_555
Rh4_2 Zn1_2 2.628885 1_555
Rh4_3 Zn1_3 2.628885 1_555
Rh4_3 Zn1_2 2.628885 1_556
Rh4_4 Zn1_4 2.628885 1_555
Rh4_4 Zn1_5 2.628885 1_555
Rh4_5 Zn1_5 2.628885 1_555
Rh4_5 Zn1_4 2.628885 1_556
Rh4_6 Zn1_7 2.628885 1_555
Rh4_6 Zn1_6 2.628885 1_555
Rh4_7 Zn1_7 2.628885 1_555
Rh4_7 Zn1_6 2.628885 1_556
Rh5_0 Zn1_0 2.628885 1_555
Rh5_0 Zn1_1 2.628885 1_555
Rh5_1 Zn1_1 2.628885 1_555
Rh5_1 Zn1_0 2.628885 1_556
Rh5_2 Zn1_3 2.628885 1_555
Rh5_2 Zn1_2 2.628885 1_555
Rh5_3 Zn1_3 2.628885 1_555
Rh5_3 Zn1_2 2.628885 1_556
Rh5_4 Zn1_5 2.628885 1_555
Rh5_4 Zn1_4 2.628885 1_555
Rh5_5 Zn1_5 2.628885 1_555
Rh5_5 Zn1_4 2.628885 1_556
Rh5_6 Zn1_7 2.628885 1_555
Rh5_6 Zn1_6 2.628885 1_555
Rh5_7 Zn1_7 2.628885 1_555
Rh5_7 Zn1_6 2.628885 1_556
Rh6_0 Zn1_1 2.628885 1_555
Rh6_0 Zn1_0 2.628885 1_555
Rh6_1 Zn1_1 2.628885 1_555
Rh6_1 Zn1_0 2.628885 1_556
Rh6_2 Zn1_3 2.628885 1_555
Rh6_2 Zn1_2 2.628885 1_555
Rh6_3 Zn1_3 2.628885 1_555
Rh6_3 Zn1_2 2.628885 1_556
Rh6_4 Zn1_4 2.628885 1_555
Rh6_4 Zn1_5 2.628885 1_555
Rh6_5 Zn1_5 2.628885 1_555
Rh6_5 Zn1_4 2.628885 1_556
Rh6_6 Zn1_6 2.628885 1_555
Rh6_6 Zn1_7 2.628885 1_555
Rh6_7 Zn1_7 2.628885 1_555
Rh6_7 Zn1_6 2.628885 1_556
Rh7_0 Zn1_0 2.628885 1_555
Rh7_0 Zn1_1 2.628885 1_555
Rh7_1 Zn1_1 2.628885 1_555
Rh7_1 Zn1_0 2.628885 1_556
Rh7_2 Zn1_3 2.628885 1_555
Rh7_2 Zn1_2 2.628885 1_555
Rh7_3 Zn1_3 2.628885 1_555
Rh7_3 Zn1_2 2.628885 1_556
Rh7_4 Zn1_4 2.628885 1_555
Rh7_4 Zn1_5 2.628885 1_555
Rh7_5 Zn1_5 2.628885 1_555
Rh7_5 Zn1_4 2.628885 1_556
Rh7_6 Zn1_6 2.628885 1_555
Rh7_6 Zn1_7 2.628885 1_555
Rh7_7 Zn1_7 2.628885 1_555
Rh7_7 Zn1_6 2.628885 1_556
