# generated using pymatgen
data_LiV2AgO6
_symmetry_space_group_name_H-M   'P 1'
_cell_length_a   7.09795766
_cell_length_b   7.09795810
_cell_length_c   5.77774918
_cell_angle_alpha   74.58385706
_cell_angle_beta   74.58386026
_cell_angle_gamma   89.35303100
_symmetry_Int_Tables_number   1
_chemical_formula_structural   LiV2AgO6
_chemical_formula_sum   'Li2 V4 Ag2 O12'
_cell_volume   269.96656719
_cell_formula_units_Z   2
loop_
 _symmetry_equiv_pos_site_id
 _symmetry_equiv_pos_as_xyz
  1  'x, y, z'
loop_
 _atom_site_type_symbol
 _atom_site_label
 _atom_site_symmetry_multiplicity
 _atom_site_fract_x
 _atom_site_fract_y
 _atom_site_fract_z
 _atom_site_occupancy
  Li  Li0  1  0.70851127  0.29148873  0.75000000  1
  Li  Li1  1  0.29148873  0.70851127  0.25000000  1
  V  V0  1  0.26885193  0.09945033  0.79510007  1
  V  V1  1  0.73114807  0.90054967  0.20489993  1
  V  V2  1  0.90054967  0.73114807  0.70489993  1
  V  V3  1  0.09945033  0.26885193  0.29510007  1
  Ag  Ag0  1  0.39599813  0.60400187  0.75000000  1
  Ag  Ag1  1  0.60400187  0.39599813  0.25000000  1
  O  O0  1  0.82898201  0.90292027  0.46049344  1
  O  O1  1  0.17101799  0.09707973  0.53950656  1
  O  O2  1  0.09707973  0.17101799  0.03950656  1
  O  O3  1  0.90292027  0.82898201  0.96049344  1
  O  O4  1  0.45490723  0.27272098  0.68086981  1
  O  O5  1  0.54509277  0.72727902  0.31913019  1
  O  O6  1  0.72727902  0.54509277  0.81913019  1
  O  O7  1  0.27272098  0.45490723  0.18086981  1
  O  O8  1  0.34969602  0.88279730  0.90800696  1
  O  O9  1  0.65030398  0.11720270  0.09199304  1
  O  O10  1  0.11720270  0.65030398  0.59199304  1
  O  O11  1  0.88279730  0.34969602  0.40800696  1
loop_
_geom_bond_atom_site_label_1
_geom_bond_atom_site_label_2
_geom_bond_distance
_geom_bond_site_symmetry_2
Li0 O4 1.957929 1_555
Li0 O6 1.957929 1_555
Li0 O9 1.970626 1_556
Li0 O11 1.970626 1_555
Li1 O5 1.957929 1_555
Li1 O7 1.957929 1_555
Li1 O8 1.970626 1_554
Li1 O10 1.970626 1_555
Ag0 O7 2.354810 1_556
Ag0 O5 2.354810 1_555
Ag0 O10 2.375641 1_555
Ag0 O8 2.375641 1_555
Ag0 O6 2.500374 1_555
Ag0 O4 2.500374 1_555
Ag1 O6 2.354810 1_554
Ag1 O4 2.354810 1_555
Ag1 O11 2.375641 1_555
Ag1 O9 2.375641 1_555
Ag1 O7 2.500374 1_555
Ag1 O5 2.500374 1_555
O0 V2 1.786251 1_555
O0 V1 1.794991 1_555
O1 V3 1.786251 1_555
O1 V0 1.794991 1_555
O2 V0 1.786251 1_554
O2 V3 1.794991 1_555
O3 V1 1.786251 1_556
O3 V2 1.794991 1_555
O4 V0 1.683427 1_555
O5 V1 1.683427 1_555
O6 V2 1.683427 1_555
O7 V3 1.683427 1_555
O8 V0 1.662947 1_565
O9 V1 1.662947 1_545
O10 V2 1.662947 1_455
O11 V3 1.662947 1_655
