# generated using pymatgen
data_Na2Cr2SnSe6
_symmetry_space_group_name_H-M   'P 1'
_cell_length_a   6.55784771
_cell_length_b   6.55784829
_cell_length_c   7.28551108
_cell_angle_alpha   81.75826861
_cell_angle_beta   81.75826951
_cell_angle_gamma   120.58340181
_symmetry_Int_Tables_number   1
_chemical_formula_structural   Na2Cr2SnSe6
_chemical_formula_sum   'Na2 Cr2 Sn1 Se6'
_cell_volume   258.20019163
_cell_formula_units_Z   1
loop_
 _symmetry_equiv_pos_site_id
 _symmetry_equiv_pos_as_xyz
  1  'x, y, z'
loop_
 _atom_site_type_symbol
 _atom_site_label
 _atom_site_symmetry_multiplicity
 _atom_site_fract_x
 _atom_site_fract_y
 _atom_site_fract_z
 _atom_site_occupancy
  Na  Na0  1  0.16168313  0.83831687  0.50000000  1
  Na  Na1  1  0.83831687  0.16168313  0.50000000  1
  Cr  Cr0  1  0.33188045  0.66811955  0.00000000  1
  Cr  Cr1  1  0.66811955  0.33188045  1.00000000  1
  Sn  Sn0  1  0.00000000  0.00000000  0.00000000  1
  Se  Se0  1  0.93448783  0.58433361  0.20575294  1
  Se  Se1  1  0.28010620  0.28010620  0.20647561  1
  Se  Se2  1  0.58433361  0.93448783  0.20575294  1
  Se  Se3  1  0.71989380  0.71989380  0.79352439  1
  Se  Se4  1  0.06551217  0.41566639  0.79424706  1
  Se  Se5  1  0.41566639  0.06551217  0.79424706  1
loop_
_geom_bond_atom_site_label_1
_geom_bond_atom_site_label_2
_geom_bond_distance
_geom_bond_site_symmetry_2
Na0 Se2 2.967438 1_555
Na0 Se4 2.967438 1_555
Na0 Se5 3.000636 1_565
Na0 Se0 3.000636 1_455
Na0 Se3 3.004656 1_455
Na0 Se1 3.004656 1_565
Na1 Se5 2.967438 1_555
Na1 Se0 2.967438 1_555
Na1 Se2 3.000636 1_545
Na1 Se4 3.000636 1_655
Na1 Se1 3.004656 1_655
Na1 Se3 3.004656 1_545
Cr0 Se0 2.554835 1_455
Cr0 Se5 2.554836 1_564
Cr0 Se4 2.560988 1_554
Cr0 Se2 2.560988 1_555
Cr0 Se3 2.594191 1_554
Cr0 Se1 2.594191 1_555
Cr1 Se4 2.554835 1_655
Cr1 Se2 2.554836 1_546
Cr1 Se0 2.560988 1_556
Cr1 Se5 2.560988 1_555
Cr1 Se1 2.594191 1_556
Cr1 Se3 2.594191 1_555
Se0 Sn0 2.704481 1_665
Se1 Sn0 2.676215 1_555
Se2 Sn0 2.704481 1_665
Se3 Sn0 2.676215 1_666
Se4 Sn0 2.704481 1_556
Se5 Sn0 2.704481 1_556
