# generated using pymatgen
data_Lu2Ni3BIr3
_symmetry_space_group_name_H-M   'P 1'
_cell_length_a   5.65939255
_cell_length_b   5.65939187
_cell_length_c   5.54037131
_cell_angle_alpha   59.28678877
_cell_angle_beta   59.28679339
_cell_angle_gamma   59.99999471
_symmetry_Int_Tables_number   1
_chemical_formula_structural   Lu2Ni3BIr3
_chemical_formula_sum   'Lu2 Ni3 B1 Ir3'
_cell_volume   124.10708669
_cell_formula_units_Z   1
loop_
 _symmetry_equiv_pos_site_id
 _symmetry_equiv_pos_as_xyz
  1  'x, y, z'
loop_
 _atom_site_type_symbol
 _atom_site_label
 _atom_site_symmetry_multiplicity
 _atom_site_fract_x
 _atom_site_fract_y
 _atom_site_fract_z
 _atom_site_occupancy
  Lu  Lu0  1  0.75470638  0.75470638  0.73587985  1
  Lu  Lu1  1  0.24991329  0.24991329  0.25026014  1
  Ni  Ni0  1  0.73827159  0.73827159  0.25281872  1
  Ni  Ni1  1  0.27063709  0.73827159  0.25281872  1
  Ni  Ni2  1  0.73827159  0.27063709  0.25281872  1
  B  B0  1  0.98990648  0.98990648  0.03027955  1
  Ir  Ir0  1  0.25745552  0.25745552  0.74170943  1
  Ir  Ir1  1  0.74337953  0.25745552  0.74170943  1
  Ir  Ir2  1  0.25745552  0.74337953  0.74170943  1
loop_
_geom_bond_atom_site_label_1
_geom_bond_atom_site_label_2
_geom_bond_distance
_geom_bond_site_symmetry_2
Lu0 Ni0 2.772079 1_556
Lu0 Ni2 2.772079 1_556
Lu0 Ni1 2.772079 1_556
Lu0 Ni0 2.774399 1_555
Lu0 Ni2 2.774399 1_565
Lu0 Ni1 2.774400 1_655
Lu1 Ni1 2.831692 1_555
Lu1 Ni2 2.831692 1_555
Lu1 Ni0 2.831695 1_545
Lu1 Ni0 2.831695 1_455
Lu1 Ni1 2.831697 1_545
Lu1 Ni2 2.831698 1_455
B0 Ni2 2.004301 1_565
B0 Ni1 2.004301 1_655
B0 Ni0 2.004302 1_555
B0 Ir1 2.118614 1_564
B0 Ir2 2.118614 1_654
B0 Ir0 2.118618 1_664
Ir0 Ni1 2.685985 1_555
Ir0 Ni2 2.685986 1_555
Ir0 Lu1 2.767057 1_555
Ir0 Lu1 2.774601 1_556
Ir0 Lu0 2.830190 1_545
Ir0 Lu0 2.830190 1_455
Ir1 Ni0 2.685985 1_555
Ir1 Ni2 2.685988 1_555
Ir1 Lu1 2.767058 1_655
Ir1 Lu1 2.774601 1_556
Ir1 Lu0 2.830187 1_555
Ir1 Lu0 2.830193 1_545
Ir2 Ni0 2.685986 1_555
Ir2 Ni1 2.685988 1_555
Ir2 Lu1 2.767057 1_565
Ir2 Lu1 2.774601 1_556
Ir2 Lu0 2.830187 1_555
Ir2 Lu0 2.830193 1_455
