# generated using pymatgen
data_MnB2Mo4P
_symmetry_space_group_name_H-M   'P 1'
_cell_length_a   5.83849723
_cell_length_b   5.83849683
_cell_length_c   6.96038266
_cell_angle_alpha   114.79729182
_cell_angle_beta   114.79728606
_cell_angle_gamma   90.00000126
_symmetry_Int_Tables_number   1
_chemical_formula_structural   MnB2Mo4P
_chemical_formula_sum   'Mn2 B4 Mo8 P2'
_cell_volume   191.02361657
_cell_formula_units_Z   2
loop_
 _symmetry_equiv_pos_site_id
 _symmetry_equiv_pos_as_xyz
  1  'x, y, z'
loop_
 _atom_site_type_symbol
 _atom_site_label
 _atom_site_symmetry_multiplicity
 _atom_site_fract_x
 _atom_site_fract_y
 _atom_site_fract_z
 _atom_site_occupancy
  Mn  Mn0  1  0.50000000  0.50000000  0.00000000  1
  Mn  Mn1  1  0.00000000  0.00000000  0.00000000  1
  B  B0  1  0.38334414  0.88334414  0.00000000  1
  B  B1  1  0.61665586  0.11665586  1.00000000  1
  B  B2  1  0.11665586  0.38334414  1.00000000  1
  B  B3  1  0.88334414  0.61665586  0.00000000  1
  Mo  Mo0  1  0.03355202  0.53355202  0.72454924  1
  Mo  Mo1  1  0.69099622  0.19099622  0.72454924  1
  Mo  Mo2  1  0.19099622  0.03355202  0.72454924  1
  Mo  Mo3  1  0.53355202  0.69099622  0.72454924  1
  Mo  Mo4  1  0.96644798  0.46644798  0.27545076  1
  Mo  Mo5  1  0.30900378  0.80900378  0.27545076  1
  Mo  Mo6  1  0.80900378  0.96644798  0.27545076  1
  Mo  Mo7  1  0.46644798  0.30900378  0.27545076  1
  P  P0  1  0.25000000  0.25000000  0.50000000  1
  P  P1  1  0.75000000  0.75000000  0.50000000  1
loop_
_geom_bond_atom_site_label_1
_geom_bond_atom_site_label_2
_geom_bond_distance
_geom_bond_site_symmetry_2
Mn0 Mo7 2.658218 1_555
Mn0 Mo3 2.658218 1_554
Mn0 Mo5 2.658220 1_555
Mn0 Mo1 2.658220 1_554
Mn0 Mo4 2.658223 1_555
Mn0 Mo0 2.658223 1_554
Mn0 Mo6 2.658225 1_555
Mn0 Mo2 2.658225 1_554
Mn0 P1 2.801915 1_555
Mn0 P0 2.801915 1_554
Mn1 Mo6 2.658218 1_445
Mn1 Mo2 2.658218 1_554
Mn1 Mo5 2.658221 1_545
Mn1 Mo1 2.658221 1_454
Mn1 Mo4 2.658222 1_455
Mn1 Mo0 2.658222 1_544
Mn1 Mo7 2.658225 1_555
Mn1 Mo3 2.658225 1_444
Mn1 P1 2.801915 1_444
Mn1 P0 2.801915 1_555
B0 B1 1.926427 1_564
B0 Mo3 2.304437 1_554
B0 Mo2 2.304437 1_564
B0 Mo7 2.304441 1_565
B0 Mo6 2.304441 1_555
B0 Mo5 2.334233 1_555
B0 Mo0 2.334239 1_554
B0 Mn0 2.339492 1_555
B0 Mn1 2.339492 1_565
B1 Mo7 2.304437 1_556
B1 Mo6 2.304437 1_546
B1 Mo3 2.304441 1_545
B1 Mo2 2.304441 1_555
B1 Mo1 2.334233 1_555
B1 Mo4 2.334239 1_556
B1 Mn0 2.339492 1_556
B1 Mn1 2.339492 1_656
B2 B3 1.926427 1_456
B2 Mo4 2.304436 1_456
B2 Mo0 2.304436 1_555
B2 Mo5 2.304442 1_556
B2 Mo1 2.304442 1_455
B2 Mo2 2.334236 1_555
B2 Mo7 2.334236 1_556
B2 Mn1 2.339492 1_556
B2 Mn0 2.339492 1_556
B3 Mo0 2.304436 1_654
B3 Mo4 2.304436 1_555
B3 Mo1 2.304442 1_554
B3 Mo5 2.304442 1_655
B3 Mo6 2.334236 1_555
B3 Mo3 2.334236 1_554
B3 Mn1 2.339492 1_665
B3 Mn0 2.339492 1_555
Mo0 P0 2.503381 1_555
Mo0 P1 2.503382 1_455
Mo1 P1 2.503379 1_545
Mo1 P0 2.503380 1_555
Mo2 P1 2.503377 1_445
Mo2 P0 2.503384 1_555
Mo3 P0 2.503377 1_555
Mo3 P1 2.503384 1_555
Mo4 P1 2.503381 1_555
Mo4 P0 2.503382 1_655
Mo5 P0 2.503379 1_565
Mo5 P1 2.503380 1_555
Mo6 P0 2.503377 1_665
Mo6 P1 2.503384 1_555
Mo7 P1 2.503377 1_555
Mo7 P0 2.503384 1_555
