# generated using pymatgen
data_BaTcMo5Se7
_symmetry_space_group_name_H-M   'P 1'
_cell_length_a   9.90521856
_cell_length_b   9.90504434
_cell_length_c   9.88912042
_cell_angle_alpha   58.17569813
_cell_angle_beta   58.13964875
_cell_angle_gamma   58.21991214
_symmetry_Int_Tables_number   1
_chemical_formula_structural   BaTcMo5Se7
_chemical_formula_sum   'Ba2 Tc2 Mo10 Se14'
_cell_volume   657.42166787
_cell_formula_units_Z   2
loop_
 _symmetry_equiv_pos_site_id
 _symmetry_equiv_pos_as_xyz
  1  'x, y, z'
loop_
 _atom_site_type_symbol
 _atom_site_label
 _atom_site_symmetry_multiplicity
 _atom_site_fract_x
 _atom_site_fract_y
 _atom_site_fract_z
 _atom_site_occupancy
  Ba  Ba0  1  0.36067968  0.35291323  0.35694474  1
  Ba  Ba1  1  0.64253803  0.63420889  0.64159866  1
  Tc  Tc0  1  0.29771006  0.12270285  0.98527578  1
  Tc  Tc1  1  0.19976105  0.88294487  0.05612590  1
  Mo  Mo0  1  0.88074011  0.05674506  0.20023585  1
  Mo  Mo1  1  0.94290361  0.79982966  0.11951812  1
  Mo  Mo2  1  0.79798433  0.11816070  0.94409379  1
  Mo  Mo3  1  0.11686262  0.94280704  0.80113016  1
  Mo  Mo4  1  0.98462858  0.29988978  0.12079647  1
  Mo  Mo5  1  0.87770288  0.01248312  0.70189935  1
  Mo  Mo6  1  0.11973900  0.98928168  0.29707198  1
  Mo  Mo7  1  0.01264514  0.70146227  0.88008933  1
  Mo  Mo8  1  0.70163396  0.87872011  0.01230672  1
  Mo  Mo9  1  0.05746196  0.19947543  0.88203243  1
  Se  Se0  1  0.97813785  0.26171467  0.62716771  1
  Se  Se1  1  0.26355662  0.63080164  0.98009602  1
  Se  Se2  1  0.62737535  0.97364854  0.26469032  1
  Se  Se3  1  0.03323263  0.73965554  0.36669259  1
  Se  Se4  1  0.73923712  0.37266595  0.02427646  1
  Se  Se5  1  0.37305958  0.02142633  0.74785615  1
  Se  Se6  1  0.17549479  0.41990466  0.79866235  1
  Se  Se7  1  0.41913168  0.80657897  0.16679972  1
  Se  Se8  1  0.79716441  0.17285834  0.42240427  1
  Se  Se9  1  0.82447634  0.57775186  0.20399032  1
  Se  Se10  1  0.57404166  0.20321450  0.82801884  1
  Se  Se11  1  0.20033520  0.82935573  0.57657926  1
  Se  Se12  1  0.78390201  0.77950003  0.78073825  1
  Se  Se13  1  0.21786276  0.21930055  0.21290544  1
loop_
_geom_bond_atom_site_label_1
_geom_bond_atom_site_label_2
_geom_bond_distance
_geom_bond_site_symmetry_2
Ba0 Se13 3.445151 1_555
Ba0 Se4 3.462995 1_555
Ba0 Se3 3.489366 1_555
Ba0 Se5 3.525614 1_555
Ba0 Se2 3.541229 1_545
Ba0 Se1 3.545084 1_554
Ba0 Se0 3.561549 1_455
Ba0 Se8 3.988410 1_555
Ba1 Se0 3.437909 1_555
Ba1 Se1 3.470827 1_555
Ba1 Se2 3.473053 1_555
Ba1 Se12 3.488544 1_555
Ba1 Se4 3.581003 1_556
Ba1 Se5 3.666769 1_565
Ba1 Se3 3.689719 1_655
Ba1 Se10 3.938758 1_555
Ba1 Se9 3.942797 1_555
Ba1 Se11 4.009942 1_555
Tc0 Tc1 2.650739 1_546
Mo0 Se8 2.564568 1_555
Mo0 Se4 2.645143 1_555
Mo0 Mo6 2.649530 1_645
Mo0 Se3 2.651618 1_645
Mo0 Mo9 2.657947 1_654
Mo0 Tc1 2.661427 1_645
Mo0 Mo4 2.690341 1_555
Mo0 Se2 2.704758 1_545
Mo0 Mo1 2.732220 1_545
Mo0 Mo2 2.738588 1_554
Mo1 Se9 2.580314 1_555
Mo1 Se2 2.644863 1_555
Mo1 Se1 2.646162 1_654
Mo1 Mo3 2.651126 1_654
Mo1 Mo7 2.651418 1_654
Mo1 Mo2 2.665459 1_564
Mo1 Mo8 2.698167 1_555
Mo1 Se3 2.709467 1_655
Mo1 Tc1 2.742627 1_655
Mo2 Se10 2.578288 1_555
Mo2 Se2 2.657435 1_546
Mo2 Mo3 2.662509 1_645
Mo2 Se0 2.664081 1_555
Mo2 Se4 2.719942 1_556
Mo2 Mo9 2.761358 1_655
Mo3 Se11 2.567543 1_555
Mo3 Se1 2.647813 1_555
Mo3 Se0 2.649201 1_465
Mo3 Mo5 2.658740 1_465
Mo3 Mo7 2.677639 1_555
Mo3 Tc1 2.735132 1_556
Mo3 Mo9 2.742658 1_565
Mo3 Se5 2.749779 1_565
Mo4 Se13 2.513236 1_655
Mo4 Se8 2.565829 1_555
Mo4 Mo6 2.600965 1_645
Mo4 Tc0 2.617915 1_654
Mo4 Mo9 2.647159 1_654
Mo4 Se6 2.674120 1_654
Mo4 Se9 2.679471 1_555
Mo4 Se4 2.686421 1_555
Mo5 Se12 2.528410 1_545
Mo5 Se10 2.590536 1_555
Mo5 Se11 2.668838 1_645
Mo5 Se8 2.676146 1_555
Mo5 Se0 2.741657 1_555
Mo6 Se13 2.511336 1_565
Mo6 Se7 2.549846 1_555
Mo6 Tc0 2.603752 1_564
Mo6 Se8 2.669834 1_465
Mo6 Se3 2.671191 1_555
Mo6 Se11 2.677041 1_555
Mo6 Tc1 2.681172 1_555
Mo7 Se12 2.529985 1_455
Mo7 Se11 2.578692 1_555
Mo7 Se9 2.683082 1_456
Mo7 Se6 2.699388 1_555
Mo7 Se1 2.770819 1_555
Mo8 Se12 2.536527 1_554
Mo8 Se9 2.572030 1_555
Mo8 Se7 2.667667 1_555
Mo8 Se10 2.687837 1_564
Mo8 Se2 2.731819 1_555
Mo9 Se6 2.566403 1_555
Mo9 Se5 2.631546 1_555
Mo9 Tc1 2.644788 1_546
Mo9 Se4 2.650579 1_456
Mo9 Tc0 2.669038 1_555
Mo9 Se0 2.700282 1_455
Se1 Tc1 2.649251 1_556
Se3 Tc1 2.586185 1_555
Se5 Tc1 2.582083 1_546
Se5 Tc0 2.630820 1_555
Se6 Tc0 2.532283 1_555
Se7 Tc1 2.529403 1_555
Se7 Tc0 2.618780 1_564
Se10 Tc0 2.654016 1_555
Se13 Tc0 2.490607 1_554
