# generated using pymatgen
data_RbY3CBr6
_symmetry_space_group_name_H-M   'P 1'
_cell_length_a   8.67835603
_cell_length_b   8.72589948
_cell_length_c   9.34305821
_cell_angle_alpha   70.61575660
_cell_angle_beta   85.51181339
_cell_angle_gamma   89.40509005
_symmetry_Int_Tables_number   1
_chemical_formula_structural   RbY3CBr6
_chemical_formula_sum   'Rb2 Y6 C2 Br12'
_cell_volume   665.27237980
_cell_formula_units_Z   2
loop_
 _symmetry_equiv_pos_site_id
 _symmetry_equiv_pos_as_xyz
  1  'x, y, z'
loop_
 _atom_site_type_symbol
 _atom_site_label
 _atom_site_symmetry_multiplicity
 _atom_site_fract_x
 _atom_site_fract_y
 _atom_site_fract_z
 _atom_site_occupancy
  Rb  Rb0  1  0.47601145  0.34824911  0.33969063  1
  Rb  Rb1  1  0.52398955  0.65175089  0.66030937  1
  Y  Y0  1  0.91513712  0.74189225  0.00408074  1
  Y  Y1  1  0.08486288  0.25810775  0.99591826  1
  Y  Y2  1  0.74064182  0.08634903  0.00077741  1
  Y  Y3  1  0.25935718  0.91365097  0.99922359  1
  Y  Y4  1  0.97594133  0.87987832  0.32808984  1
  Y  Y5  1  0.02405767  0.12012168  0.67191116  1
  C  C0  1  0.00567055  0.02819517  0.91928711  1
  C  C1  1  0.99432845  0.97180483  0.08071289  1
  Br  Br0  1  0.08339858  0.19595194  0.33035858  1
  Br  Br1  1  0.91660142  0.80404806  0.66964142  1
  Br  Br2  1  0.20724352  0.58989177  0.99906445  1
  Br  Br3  1  0.79275748  0.41010823  0.00093555  1
  Br  Br4  1  0.40684024  0.20222512  0.00773828  1
  Br  Br5  1  0.59315876  0.79777588  0.99226072  1
  Br  Br6  1  0.66582979  0.99808179  0.32914613  1
  Br  Br7  1  0.33417021  0.00191821  0.67085387  1
  Br  Br8  1  0.28659428  0.76557509  0.32566584  1
  Br  Br9  1  0.71340572  0.23442491  0.67433416  1
  Br  Br10  1  0.84720784  0.58227093  0.32777413  1
  Br  Br11  1  0.15279116  0.41772907  0.67222587  1
loop_
_geom_bond_atom_site_label_1
_geom_bond_atom_site_label_2
_geom_bond_distance
_geom_bond_site_symmetry_2
C0 C1 1.418328 1_446
C0 Y5 2.173716 1_555
C0 Y1 2.463506 1_555
C0 Y2 2.466861 1_456
C0 Y0 2.473000 1_446
C0 Y3 2.473840 1_545
C1 Y4 2.173725 1_555
C1 Y0 2.463509 1_555
C1 Y3 2.466858 1_654
C1 Y1 2.473002 1_664
C1 Y2 2.473838 1_565
Br0 Y4 2.927819 1_445
Br0 Y1 2.987810 1_554
Br0 Y5 3.038861 1_555
Br0 Rb0 3.687864 1_555
Br1 Y5 2.927819 1_665
Br1 Y0 2.987800 1_556
Br1 Y4 3.038851 1_555
Br1 Rb1 3.687856 1_555
Br2 Y0 2.853150 1_456
Br2 Y3 2.866200 1_555
Br2 Y1 3.104151 1_555
Br2 Rb1 3.924268 1_555
Br2 Rb0 4.076743 1_556
Br3 Y1 2.853144 1_654
Br3 Y2 2.866200 1_555
Br3 Y0 3.104145 1_555
Br3 Rb0 3.924268 1_555
Br3 Rb1 4.076743 1_554
Br4 Y1 2.835837 1_554
Br4 Y3 2.863740 1_544
Br4 Y2 3.061319 1_555
Br4 Rb0 3.812272 1_555
Br5 Y0 2.835847 1_556
Br5 Y2 2.863739 1_566
Br5 Y3 3.061317 1_555
Br5 Rb1 3.812264 1_555
Br6 Y4 2.872591 1_555
Br6 Y2 2.925279 1_565
Br6 Rb0 3.482739 1_565
Br6 Rb1 3.673638 1_555
Br7 Y5 2.872599 1_555
Br7 Y3 2.925289 1_545
Br7 Rb1 3.482743 1_545
Br7 Rb0 3.673640 1_555
Br8 Y4 2.865851 1_455
Br8 Y3 2.918601 1_554
Br8 Rb1 3.729714 1_555
Br8 Rb0 3.946245 1_555
Br9 Y5 2.865842 1_655
Br9 Y2 2.918608 1_556
Br9 Rb0 3.729708 1_555
Br9 Rb1 3.946242 1_555
Br10 Y4 2.838632 1_555
Br10 Y0 2.894078 1_555
Br10 Rb0 3.806464 1_555
Br11 Y5 2.838628 1_555
Br11 Y1 2.894069 1_555
Br11 Rb1 3.806479 1_555
