# generated using pymatgen
data_NaCa(BIr)4
_symmetry_space_group_name_H-M   'P 1'
_cell_length_a   6.98762651
_cell_length_b   6.07049035
_cell_length_c   5.47900513
_cell_angle_alpha   74.26158732
_cell_angle_beta   56.73880293
_cell_angle_gamma   48.99961566
_symmetry_Int_Tables_number   1
_chemical_formula_structural   NaCa(BIr)4
_chemical_formula_sum   'Na1 Ca1 B4 Ir4'
_cell_volume   145.21484931
_cell_formula_units_Z   1
loop_
 _symmetry_equiv_pos_site_id
 _symmetry_equiv_pos_as_xyz
  1  'x, y, z'
loop_
 _atom_site_type_symbol
 _atom_site_label
 _atom_site_symmetry_multiplicity
 _atom_site_fract_x
 _atom_site_fract_y
 _atom_site_fract_z
 _atom_site_occupancy
  Na  Na0  1  0.00000000  0.00000000  0.00000000  1
  Ca  Ca0  1  0.25000000  0.25000000  0.25000000  1
  B  B0  1  0.31946877  0.68053123  0.31946877  1
  B  B1  1  0.57098396  0.92901604  0.57098396  1
  B  B2  1  0.68053123  0.31946877  0.68053123  1
  B  B3  1  0.92901604  0.57098396  0.92901604  1
  Ir  Ir0  1  0.63040211  0.63040211  0.36959789  1
  Ir  Ir1  1  0.88153693  0.88153693  0.61846307  1
  Ir  Ir2  1  0.61846307  0.61846307  0.88153693  1
  Ir  Ir3  1  0.36959789  0.36959789  0.63040211  1
loop_
_geom_bond_atom_site_label_1
_geom_bond_atom_site_label_2
_geom_bond_distance
_geom_bond_site_symmetry_2
Ca0 Ir0 3.016141 1_455
Ca0 Ir3 3.016141 1_554
Ca0 Ir3 3.016141 1_555
Ca0 Ir0 3.016142 1_545
Ca0 Ir2 3.308730 1_455
Ca0 Ir1 3.308730 1_544
Ca0 Ir1 3.308731 1_455
Ca0 Ir2 3.308731 1_544
B0 Ir1 2.054974 1_455
B0 Ir2 2.054974 1_554
B0 Ir0 2.151815 1_555
B0 Ir3 2.151815 1_555
B0 Na0 2.927826 1_565
B0 Ca0 3.101297 1_555
B0 Ca0 3.101298 1_565
B1 Ir0 2.066608 1_555
B1 Ir3 2.066608 1_565
B1 Ir1 2.148869 1_555
B1 Ir2 2.148869 1_555
B1 Ca0 2.941712 1_565
B1 Na0 3.104177 1_566
B1 Na0 3.104177 1_665
B2 Ir2 2.054975 1_555
B2 Ir1 2.054975 1_545
B2 Ir3 2.151815 1_555
B2 Ir0 2.151815 1_555
B2 Na0 2.927826 1_656
B2 Ca0 3.101297 1_655
B2 Ca0 3.101297 1_556
B3 Ir3 2.066607 1_655
B3 Ir0 2.066608 1_556
B3 Ir2 2.148869 1_555
B3 Ir1 2.148869 1_555
B3 Ca0 2.941712 1_656
B3 Na0 3.104178 1_666
B3 Na0 3.104178 1_656
Ir0 Na0 3.303726 1_566
Ir0 Na0 3.303727 1_655
Ir1 Na0 3.011152 1_665
Ir1 Na0 3.011152 1_666
Ir2 Na0 3.011152 1_566
Ir2 Na0 3.011153 1_656
Ir3 Na0 3.303726 1_655
Ir3 Na0 3.303727 1_566
