# generated using pymatgen
data_Ta5Bi4MoS12
_symmetry_space_group_name_H-M   'P 1'
_cell_length_a   5.72694027
_cell_length_b   5.72694047
_cell_length_c   17.42115252
_cell_angle_alpha   90.00000000
_cell_angle_beta   90.00000000
_cell_angle_gamma   120.09764158
_symmetry_Int_Tables_number   1
_chemical_formula_structural   Ta5Bi4MoS12
_chemical_formula_sum   'Ta5 Bi4 Mo1 S12'
_cell_volume   494.33879230
_cell_formula_units_Z   1
loop_
 _symmetry_equiv_pos_site_id
 _symmetry_equiv_pos_as_xyz
  1  'x, y, z'
loop_
 _atom_site_type_symbol
 _atom_site_label
 _atom_site_symmetry_multiplicity
 _atom_site_fract_x
 _atom_site_fract_y
 _atom_site_fract_z
 _atom_site_occupancy
  Ta  Ta0  1  0.32404154  0.99938281  0.75000000  1
  Ta  Ta1  1  0.99938281  0.32404154  0.75000000  1
  Ta  Ta2  1  0.32746875  0.32746875  0.25000000  1
  Ta  Ta3  1  0.67366018  0.99980172  0.25000000  1
  Ta  Ta4  1  0.99980172  0.67366018  0.25000000  1
  Bi  Bi0  1  0.66779142  0.33512004  0.00040180  1
  Bi  Bi1  1  0.33512004  0.66779142  0.00040180  1
  Bi  Bi2  1  0.33512004  0.66779142  0.49959820  1
  Bi  Bi3  1  0.66779142  0.33512004  0.49959820  1
  Mo  Mo0  1  0.67260619  0.67260619  0.75000000  1
  S  S0  1  0.99609379  0.99609379  0.84087399  1
  S  S1  1  0.00044685  0.00044685  0.15842206  1
  S  S2  1  0.00044685  0.00044685  0.34157794  1
  S  S3  1  0.99609379  0.99609379  0.65912601  1
  S  S4  1  0.66597606  0.33593250  0.83686236  1
  S  S5  1  0.33593250  0.66597606  0.83686236  1
  S  S6  1  0.33323017  0.66692858  0.16152148  1
  S  S7  1  0.66692858  0.33323017  0.16152148  1
  S  S8  1  0.33323017  0.66692858  0.33847852  1
  S  S9  1  0.66692858  0.33323017  0.33847852  1
  S  S10  1  0.66597606  0.33593250  0.66313764  1
  S  S11  1  0.33593250  0.66597606  0.66313764  1
loop_
_geom_bond_atom_site_label_1
_geom_bond_atom_site_label_2
_geom_bond_distance
_geom_bond_site_symmetry_2
Bi0 S7 2.806906 1_555
Bi0 S4 2.849077 1_554
Bi1 S6 2.806906 1_555
Bi1 S5 2.849077 1_554
Bi2 S8 2.806906 1_555
Bi2 S11 2.849077 1_555
Bi3 S9 2.806906 1_555
Bi3 S10 2.849077 1_555
Mo0 S0 2.434806 1_555
Mo0 S3 2.434806 1_555
Mo0 S11 2.436293 1_555
Mo0 S5 2.436293 1_555
Mo0 S10 2.436294 1_555
Mo0 S4 2.436294 1_555
S0 Ta0 2.449198 1_655
S0 Ta1 2.449198 1_565
S1 Ta3 2.457809 1_445
S1 Ta4 2.457809 1_445
S1 Ta2 2.458138 1_555
S2 Ta3 2.457809 1_445
S2 Ta4 2.457809 1_445
S2 Ta2 2.458138 1_555
S3 Ta0 2.449198 1_655
S3 Ta1 2.449198 1_565
S4 Ta0 2.460493 1_545
S4 Ta1 2.463892 1_555
S5 Ta1 2.460493 1_455
S5 Ta0 2.463892 1_555
S6 Ta3 2.466469 1_555
S6 Ta2 2.468209 1_555
S6 Ta4 2.469314 1_455
S7 Ta4 2.466469 1_555
S7 Ta2 2.468209 1_555
S7 Ta3 2.469314 1_545
S8 Ta3 2.466469 1_555
S8 Ta2 2.468209 1_555
S8 Ta4 2.469314 1_455
S9 Ta4 2.466469 1_555
S9 Ta2 2.468209 1_555
S9 Ta3 2.469314 1_545
S10 Ta0 2.460493 1_545
S10 Ta1 2.463892 1_555
S11 Ta1 2.460493 1_455
S11 Ta0 2.463892 1_555
