# generated using pymatgen
data_Y9MgCd3Ru
_symmetry_space_group_name_H-M   'P 1'
_cell_length_a   9.54479506
_cell_length_b   9.54479510
_cell_length_c   9.73967916
_cell_angle_alpha   90.00000000
_cell_angle_beta   90.00000000
_cell_angle_gamma   119.99999987
_symmetry_Int_Tables_number   1
_chemical_formula_structural   Y9MgCd3Ru
_chemical_formula_sum   'Y18 Mg2 Cd6 Ru2'
_cell_volume   768.43741266
_cell_formula_units_Z   2
loop_
 _symmetry_equiv_pos_site_id
 _symmetry_equiv_pos_as_xyz
  1  'x, y, z'
loop_
 _atom_site_type_symbol
 _atom_site_label
 _atom_site_symmetry_multiplicity
 _atom_site_fract_x
 _atom_site_fract_y
 _atom_site_fract_z
 _atom_site_occupancy
  Y  Y0  1  0.20791276  0.79208724  0.43976902  1
  Y  Y1  1  0.20791276  0.41582653  0.43976902  1
  Y  Y2  1  0.58417347  0.79208724  0.43976902  1
  Y  Y3  1  0.79208724  0.20791276  0.56023098  1
  Y  Y4  1  0.79208724  0.58417347  0.56023098  1
  Y  Y5  1  0.41582653  0.20791276  0.56023098  1
  Y  Y6  1  0.79208724  0.20791276  0.93976902  1
  Y  Y7  1  0.79208724  0.58417347  0.93976902  1
  Y  Y8  1  0.41582653  0.20791276  0.93976902  1
  Y  Y9  1  0.20791276  0.79208724  0.06023098  1
  Y  Y10  1  0.20791276  0.41582653  0.06023098  1
  Y  Y11  1  0.58417347  0.79208724  0.06023098  1
  Y  Y12  1  0.54194128  0.45805872  0.25000000  1
  Y  Y13  1  0.54194128  0.08388256  0.25000000  1
  Y  Y14  1  0.91611744  0.45805872  0.25000000  1
  Y  Y15  1  0.45805872  0.54194128  0.75000000  1
  Y  Y16  1  0.45805872  0.91611744  0.75000000  1
  Y  Y17  1  0.08388256  0.54194128  0.75000000  1
  Mg  Mg0  1  0.00000000  0.00000000  0.50000000  1
  Mg  Mg1  1  0.00000000  0.00000000  0.00000000  1
  Cd  Cd0  1  0.89004154  0.10995846  0.25000000  1
  Cd  Cd1  1  0.89004154  0.78008608  0.25000000  1
  Cd  Cd2  1  0.21991392  0.10995846  0.25000000  1
  Cd  Cd3  1  0.10995846  0.89004154  0.75000000  1
  Cd  Cd4  1  0.10995846  0.21991392  0.75000000  1
  Cd  Cd5  1  0.78008608  0.89004154  0.75000000  1
  Ru  Ru0  1  0.33333300  0.66666700  0.25000000  1
  Ru  Ru1  1  0.66666700  0.33333300  0.75000000  1
loop_
_geom_bond_atom_site_label_1
_geom_bond_atom_site_label_2
_geom_bond_distance
_geom_bond_site_symmetry_2
Mg0 Y3 3.486929 1_455
Mg0 Y0 3.486929 1_545
Mg0 Y5 3.486937 1_555
Mg0 Y2 3.486937 1_445
Mg0 Y1 3.486937 1_555
Mg0 Y4 3.486937 1_445
Mg1 Y9 3.486929 1_545
Mg1 Y6 3.486929 1_454
Mg1 Y11 3.486937 1_445
Mg1 Y8 3.486937 1_554
Mg1 Y10 3.486937 1_555
Mg1 Y7 3.486937 1_444
Cd0 Mg1 3.038648 1_655
Cd0 Mg0 3.038648 1_655
Cd0 Cd2 3.148564 1_655
Cd0 Cd1 3.148564 1_545
Cd0 Y13 3.205356 1_555
Cd0 Y14 3.205356 1_555
Cd0 Y3 3.428145 1_555
Cd0 Y6 3.428145 1_554
Cd0 Y1 3.505275 1_655
Cd0 Y10 3.505275 1_655
Cd0 Y2 3.505275 1_545
Cd0 Y11 3.505275 1_545
Cd1 Mg0 3.038633 1_665
Cd1 Mg1 3.038633 1_665
Cd1 Cd2 3.148564 1_665
Cd1 Y12 3.205369 1_555
Cd1 Y14 3.205385 1_555
Cd1 Y4 3.428161 1_555
Cd1 Y7 3.428161 1_554
Cd1 Y2 3.505266 1_555
Cd1 Y11 3.505266 1_555
Cd1 Y0 3.505282 1_655
Cd1 Y9 3.505282 1_655
Cd2 Mg1 3.038633 1_555
Cd2 Mg0 3.038633 1_555
Cd2 Y12 3.205369 1_555
Cd2 Y13 3.205385 1_555
Cd2 Y5 3.428161 1_555
Cd2 Y8 3.428161 1_554
Cd2 Y1 3.505266 1_555
Cd2 Y10 3.505266 1_555
Cd2 Y0 3.505282 1_545
Cd2 Y9 3.505282 1_545
Cd3 Mg1 3.038648 1_566
Cd3 Mg0 3.038648 1_565
Cd3 Cd5 3.148564 1_455
Cd3 Cd4 3.148564 1_565
Cd3 Y16 3.205356 1_555
Cd3 Y17 3.205356 1_555
Cd3 Y9 3.428145 1_556
Cd3 Y0 3.428145 1_555
Cd3 Y7 3.505275 1_455
Cd3 Y4 3.505275 1_455
Cd3 Y8 3.505275 1_565
Cd3 Y5 3.505275 1_565
Cd4 Mg0 3.038633 1_555
Cd4 Mg1 3.038633 1_556
Cd4 Cd5 3.148564 1_445
Cd4 Y15 3.205369 1_555
Cd4 Y17 3.205385 1_555
Cd4 Y10 3.428161 1_556
Cd4 Y1 3.428161 1_555
Cd4 Y8 3.505266 1_555
Cd4 Y5 3.505266 1_555
Cd4 Y6 3.505282 1_455
Cd4 Y3 3.505282 1_455
Cd5 Mg0 3.038633 1_665
Cd5 Mg1 3.038633 1_666
Cd5 Y15 3.205369 1_555
Cd5 Y16 3.205385 1_555
Cd5 Y11 3.428161 1_556
Cd5 Y2 3.428161 1_555
Cd5 Y7 3.505266 1_555
Cd5 Y4 3.505266 1_555
Cd5 Y6 3.505282 1_565
Cd5 Y3 3.505282 1_565
Ru0 Y2 2.777660 1_555
Ru0 Y11 2.777660 1_555
Ru0 Y0 2.777660 1_555
Ru0 Y9 2.777660 1_555
Ru0 Y1 2.777660 1_555
Ru0 Y10 2.777660 1_555
Ru0 Y14 3.448718 1_455
Ru0 Y13 3.448718 1_565
Ru0 Y12 3.448727 1_555
Ru1 Y8 2.777660 1_555
Ru1 Y5 2.777660 1_555
Ru1 Y6 2.777660 1_555
Ru1 Y3 2.777660 1_555
Ru1 Y7 2.777660 1_555
Ru1 Y4 2.777660 1_555
Ru1 Y17 3.448718 1_655
Ru1 Y16 3.448718 1_545
Ru1 Y15 3.448727 1_555
