# generated using pymatgen
data_K2HfGe2O7
_symmetry_space_group_name_H-M   'P 1'
_cell_length_a   5.68745423
_cell_length_b   5.68745470
_cell_length_c   12.90864481
_cell_angle_alpha   76.80683981
_cell_angle_beta   76.80683838
_cell_angle_gamma   58.20057712
_symmetry_Int_Tables_number   1
_chemical_formula_structural   K2HfGe2O7
_chemical_formula_sum   'K4 Hf2 Ge4 O14'
_cell_volume   342.56099618
_cell_formula_units_Z   2
loop_
 _symmetry_equiv_pos_site_id
 _symmetry_equiv_pos_as_xyz
  1  'x, y, z'
loop_
 _atom_site_type_symbol
 _atom_site_label
 _atom_site_symmetry_multiplicity
 _atom_site_fract_x
 _atom_site_fract_y
 _atom_site_fract_z
 _atom_site_occupancy
  K  K0  1  0.64239264  0.05709753  0.17977129  1
  K  K1  1  0.94290247  0.35760736  0.32022871  1
  K  K2  1  0.35760736  0.94290247  0.82022871  1
  K  K3  1  0.05709753  0.64239264  0.67977129  1
  Hf  Hf0  1  0.50000000  0.00000000  0.50000000  1
  Hf  Hf1  1  0.00000000  0.50000000  0.00000000  1
  Ge  Ge0  1  0.75496355  0.31925088  0.62073781  1
  Ge  Ge1  1  0.31925088  0.75496355  0.12073781  1
  Ge  Ge2  1  0.24503645  0.68074912  0.37926219  1
  Ge  Ge3  1  0.68074912  0.24503645  0.87926219  1
  O  O0  1  0.80878504  0.92495605  0.95934859  1
  O  O1  1  0.32238457  0.43106561  0.87228384  1
  O  O2  1  0.43106561  0.32238457  0.37228384  1
  O  O3  1  0.67761543  0.56893439  0.12771616  1
  O  O4  1  0.85858839  0.14141161  0.75000000  1
  O  O5  1  0.14141161  0.85858839  0.25000000  1
  O  O6  1  0.21538314  0.53122022  0.10035167  1
  O  O7  1  0.46877978  0.78461686  0.39964833  1
  O  O8  1  0.07504395  0.19121496  0.54065141  1
  O  O9  1  0.53122022  0.21538314  0.60035167  1
  O  O10  1  0.19121496  0.07504395  0.04065141  1
  O  O11  1  0.92495605  0.80878504  0.45934859  1
  O  O12  1  0.78461686  0.46877978  0.89964833  1
  O  O13  1  0.56893439  0.67761543  0.62771616  1
loop_
_geom_bond_atom_site_label_1
_geom_bond_atom_site_label_2
_geom_bond_distance
_geom_bond_site_symmetry_2
K0 O6 2.682038 1_555
K0 O5 2.735300 1_645
K0 O2 2.886804 1_555
K0 O3 2.898980 1_545
K0 O0 2.924705 1_544
K0 O3 2.937024 1_555
K0 O7 3.123815 1_545
K1 O7 2.682038 1_555
K1 O5 2.735300 1_645
K1 O3 2.886804 1_555
K1 O2 2.898980 1_655
K1 O8 2.924705 1_655
K1 O2 2.937024 1_555
K1 O6 3.123815 1_655
K2 O12 2.682038 1_555
K2 O4 2.735300 1_465
K2 O13 2.886804 1_555
K2 O1 2.898980 1_565
K2 O10 2.924705 1_566
K2 O1 2.937024 1_555
K2 O9 3.123815 1_565
K3 O9 2.682038 1_555
K3 O4 2.735300 1_465
K3 O1 2.886804 1_555
K3 O13 2.898980 1_455
K3 O11 2.924705 1_455
K3 O13 2.937024 1_555
K3 O12 3.123815 1_455
Hf0 O11 2.052076 1_545
Hf0 O8 2.052076 1_555
Hf0 O9 2.066097 1_555
Hf0 O7 2.066097 1_545
Hf0 O13 2.095526 1_545
Hf0 O2 2.095526 1_555
Hf1 O0 2.052077 1_454
Hf1 O10 2.052077 1_555
Hf1 O6 2.066097 1_555
Hf1 O12 2.066097 1_454
Hf1 O3 2.095526 1_455
Hf1 O1 2.095526 1_554
Ge0 O8 1.732201 1_655
Ge0 O13 1.746240 1_555
Ge0 O9 1.747466 1_555
Ge0 O4 1.790217 1_555
Ge1 O10 1.732201 1_565
Ge1 O3 1.746239 1_555
Ge1 O6 1.747466 1_555
Ge1 O5 1.790217 1_555
Ge2 O11 1.732201 1_455
Ge2 O2 1.746240 1_555
Ge2 O7 1.747466 1_555
Ge2 O5 1.790217 1_555
Ge3 O0 1.732201 1_545
Ge3 O1 1.746239 1_555
Ge3 O12 1.747466 1_555
Ge3 O4 1.790217 1_555
