# generated using pymatgen
data_YMg3Ge6Ir7
_symmetry_space_group_name_H-M   'P 1'
_cell_length_a   6.94167235
_cell_length_b   7.11101582
_cell_length_c   7.11101636
_cell_angle_alpha   109.94859542
_cell_angle_beta   108.98952293
_cell_angle_gamma   108.98951823
_symmetry_Int_Tables_number   1
_chemical_formula_structural   YMg3Ge6Ir7
_chemical_formula_sum   'Y1 Mg3 Ge6 Ir7'
_cell_volume   271.80214567
_cell_formula_units_Z   1
loop_
 _symmetry_equiv_pos_site_id
 _symmetry_equiv_pos_as_xyz
  1  'x, y, z'
loop_
 _atom_site_type_symbol
 _atom_site_label
 _atom_site_symmetry_multiplicity
 _atom_site_fract_x
 _atom_site_fract_y
 _atom_site_fract_z
 _atom_site_occupancy
  Y  Y0  1  0.50000000  0.00000000  0.00000000  1
  Mg  Mg0  1  0.50000000  0.50000000  0.50000000  1
  Mg  Mg1  1  0.00000000  0.00000000  0.50000000  1
  Mg  Mg2  1  0.00000000  0.50000000  0.00000000  1
  Ge  Ge0  1  0.00875144  0.31514443  0.31514443  1
  Ge  Ge1  1  0.99124856  0.68485557  0.68485557  1
  Ge  Ge2  1  0.30639299  1.00000000  0.31514443  1
  Ge  Ge3  1  0.69360701  0.00000000  0.68485557  1
  Ge  Ge4  1  0.30639299  0.31514443  0.00000000  1
  Ge  Ge5  1  0.69360701  0.68485557  1.00000000  1
  Ir  Ir0  1  0.50000000  0.74618239  0.25381761  1
  Ir  Ir1  1  0.50000000  0.25381761  0.74618239  1
  Ir  Ir2  1  0.24618239  0.49236478  0.74618239  1
  Ir  Ir3  1  0.75381761  0.50763522  0.25381761  1
  Ir  Ir4  1  0.75381761  0.25381761  0.50763522  1
  Ir  Ir5  1  0.24618239  0.74618239  0.49236478  1
  Ir  Ir6  1  0.00000000  0.00000000  0.00000000  1
loop_
_geom_bond_atom_site_label_1
_geom_bond_atom_site_label_2
_geom_bond_distance
_geom_bond_site_symmetry_2
Ge0 Ir5 2.534642 1_555
Ge0 Ir2 2.534642 1_555
Ge0 Ir6 2.538465 1_555
Ge0 Ir3 2.583995 1_455
Ge0 Ir4 2.583995 1_455
Ge0 Mg0 2.840958 1_555
Ge0 Mg1 2.954176 1_555
Ge0 Mg2 2.954176 1_555
Ge0 Y0 2.964513 1_455
Ge1 Ir4 2.534642 1_555
Ge1 Ir3 2.534642 1_555
Ge1 Ir6 2.538465 1_666
Ge1 Ir2 2.583995 1_655
Ge1 Ir5 2.583995 1_655
Ge1 Mg0 2.840958 1_555
Ge1 Mg1 2.954176 1_665
Ge1 Mg2 2.954176 1_656
Ge1 Y0 2.964513 1_666
Ge2 Ir5 2.534642 1_555
Ge2 Ir1 2.534642 1_565
Ge2 Ir6 2.538465 1_565
Ge2 Ir0 2.583995 1_555
Ge2 Ir4 2.583995 1_565
Ge2 Mg1 2.840958 1_565
Ge2 Mg0 2.954176 1_565
Ge2 Mg2 2.954176 1_555
Ge2 Y0 2.964513 1_565
Ge3 Ir4 2.534642 1_555
Ge3 Ir0 2.534642 1_545
Ge3 Ir6 2.538465 1_656
Ge3 Ir1 2.583995 1_555
Ge3 Ir5 2.583995 1_545
Ge3 Mg1 2.840958 1_655
Ge3 Mg0 2.954176 1_545
Ge3 Mg2 2.954176 1_656
Ge3 Y0 2.964513 1_556
Ge4 Ir0 2.534642 1_555
Ge4 Ir2 2.534642 1_554
Ge4 Ir6 2.538465 1_555
Ge4 Ir1 2.583995 1_554
Ge4 Ir3 2.583995 1_555
Ge4 Mg2 2.840958 1_555
Ge4 Mg1 2.954176 1_554
Ge4 Mg0 2.954176 1_555
Ge4 Y0 2.964513 1_555
Ge5 Ir1 2.534642 1_555
Ge5 Ir3 2.534642 1_556
Ge5 Ir6 2.538465 1_666
Ge5 Ir0 2.583995 1_556
Ge5 Ir2 2.583995 1_555
Ge5 Mg2 2.840958 1_656
Ge5 Mg1 2.954176 1_666
Ge5 Mg0 2.954176 1_555
Ge5 Y0 2.964513 1_566
Ir0 Mg2 2.860393 1_555
Ir0 Mg1 2.860393 1_665
Ir0 Mg0 2.867125 1_555
Ir0 Y0 2.956048 1_565
Ir1 Mg2 2.860393 1_656
Ir1 Mg1 2.860393 1_555
Ir1 Mg0 2.867125 1_555
Ir1 Y0 2.956048 1_556
Ir2 Mg2 2.860393 1_556
Ir2 Mg0 2.860393 1_555
Ir2 Mg1 2.867125 1_555
Ir2 Y0 2.956048 1_566
Ir3 Mg2 2.860393 1_655
Ir3 Mg0 2.860393 1_555
Ir3 Mg1 2.867125 1_665
Ir3 Y0 2.956048 1_555
Ir4 Mg1 2.860393 1_655
Ir4 Mg0 2.860393 1_555
Ir4 Mg2 2.867125 1_656
Ir4 Y0 2.956048 1_555
Ir5 Mg1 2.860393 1_565
Ir5 Mg0 2.860393 1_555
Ir5 Mg2 2.867125 1_555
Ir5 Y0 2.956048 1_566
