# generated using pymatgen
data_TaRh(SeO3)4
_symmetry_space_group_name_H-M   'P 1'
_cell_length_a   8.08031318
_cell_length_b   8.13509863
_cell_length_c   8.26909885
_cell_angle_alpha   89.13362297
_cell_angle_beta   90.00000000
_cell_angle_gamma   90.00000000
_symmetry_Int_Tables_number   1
_chemical_formula_structural   TaRh(SeO3)4
_chemical_formula_sum   'Ta2 Rh2 Se8 O24'
_cell_volume   543.49999858
_cell_formula_units_Z   2
loop_
 _symmetry_equiv_pos_site_id
 _symmetry_equiv_pos_as_xyz
  1  'x, y, z'
loop_
 _atom_site_type_symbol
 _atom_site_label
 _atom_site_symmetry_multiplicity
 _atom_site_fract_x
 _atom_site_fract_y
 _atom_site_fract_z
 _atom_site_occupancy
  Ta  Ta0  1  0.00000000  0.00000000  0.50000000  1
  Ta  Ta1  1  0.50000000  0.00000000  0.00000000  1
  Rh  Rh0  1  0.00000000  0.50000000  0.00000000  1
  Rh  Rh1  1  0.50000000  0.50000000  0.50000000  1
  Se  Se0  1  0.31625649  0.64602355  0.18423058  1
  Se  Se1  1  0.81625649  0.35397645  0.31576942  1
  Se  Se2  1  0.66982931  0.79995458  0.66429884  1
  Se  Se3  1  0.16982931  0.20004542  0.83570116  1
  Se  Se4  1  0.68374351  0.35397645  0.81576942  1
  Se  Se5  1  0.18374351  0.64602355  0.68423058  1
  Se  Se6  1  0.33017069  0.20004542  0.33570116  1
  Se  Se7  1  0.83017069  0.79995458  0.16429884  1
  O  O0  1  0.24709716  0.52582000  0.03182765  1
  O  O1  1  0.74709716  0.47418000  0.46817235  1
  O  O2  1  0.76560305  0.95941072  0.55927075  1
  O  O3  1  0.26560305  0.04058928  0.94072925  1
  O  O4  1  0.54172965  0.92157964  0.77784422  1
  O  O5  1  0.46639152  0.51727546  0.25775595  1
  O  O6  1  0.96639152  0.48272454  0.24224405  1
  O  O7  1  0.04172965  0.07842036  0.72215578  1
  O  O8  1  0.94515028  0.22431814  0.43058994  1
  O  O9  1  0.53391563  0.74520124  0.51929740  1
  O  O10  1  0.44515028  0.77568186  0.06941006  1
  O  O11  1  0.03391563  0.25479876  0.98070260  1
  O  O12  1  0.75290284  0.47418000  0.96817235  1
  O  O13  1  0.25290284  0.52582000  0.53182765  1
  O  O14  1  0.23439695  0.04058928  0.44072925  1
  O  O15  1  0.73439695  0.95941072  0.05927075  1
  O  O16  1  0.45827035  0.07842036  0.22215578  1
  O  O17  1  0.53360848  0.48272454  0.74224405  1
  O  O18  1  0.03360848  0.51727546  0.75775595  1
  O  O19  1  0.95827035  0.92157964  0.27784422  1
  O  O20  1  0.05484972  0.77568186  0.56941006  1
  O  O21  1  0.46608437  0.25479876  0.48070260  1
  O  O22  1  0.55484972  0.22431814  0.93058994  1
  O  O23  1  0.96608437  0.74520124  0.01929740  1
loop_
_geom_bond_atom_site_label_1
_geom_bond_atom_site_label_2
_geom_bond_distance
_geom_bond_site_symmetry_2
O0 Se0 1.701169 1_555
O0 Rh0 2.025231 1_555
O1 Se1 1.701169 1_555
O1 Rh1 2.025231 1_555
O2 Se2 1.732570 1_555
O2 Ta0 1.982823 1_665
O3 Se3 1.732570 1_555
O3 Ta1 1.982823 1_556
O4 Se2 1.720476 1_555
O4 Ta1 1.982624 1_566
O5 Se0 1.708537 1_555
O5 Rh1 2.024242 1_555
O6 Se1 1.708537 1_555
O6 Rh0 2.024242 1_655
O7 Se3 1.720476 1_555
O7 Ta0 1.982624 1_555
O8 Se1 1.751710 1_555
O8 Ta0 1.955572 1_655
O9 Se2 1.690659 1_555
O9 Rh1 2.022168 1_555
O10 Se0 1.751710 1_555
O10 Ta1 1.955572 1_565
O11 Se3 1.690659 1_555
O11 Rh0 2.022168 1_556
O12 Se4 1.701169 1_555
O12 Rh0 2.025231 1_656
O13 Se5 1.701169 1_555
O13 Rh1 2.025231 1_555
O14 Se6 1.732570 1_555
O14 Ta0 1.982823 1_555
O15 Se7 1.732570 1_555
O15 Ta1 1.982823 1_565
O16 Se6 1.720476 1_555
O16 Ta1 1.982624 1_555
O17 Se4 1.708537 1_555
O17 Rh1 2.024242 1_555
O18 Se5 1.708537 1_555
O18 Rh0 2.024242 1_556
O19 Se7 1.720476 1_555
O19 Ta0 1.982624 1_665
O20 Se5 1.751710 1_555
O20 Ta0 1.955572 1_565
O21 Se6 1.690659 1_555
O21 Rh1 2.022168 1_555
O22 Se4 1.751710 1_555
O22 Ta1 1.955572 1_556
O23 Se7 1.690659 1_555
O23 Rh0 2.022168 1_655
