# generated using pymatgen
data_Zr6Zn18AsIr5
_symmetry_space_group_name_H-M   'P 1'
_cell_length_a   8.68802262
_cell_length_b   8.68802133
_cell_length_c   8.68802239
_cell_angle_alpha   59.94702443
_cell_angle_beta   59.94702126
_cell_angle_gamma   59.94702516
_symmetry_Int_Tables_number   1
_chemical_formula_structural   Zr6Zn18AsIr5
_chemical_formula_sum   'Zr6 Zn18 As1 Ir5'
_cell_volume   463.15422881
_cell_formula_units_Z   1
loop_
 _symmetry_equiv_pos_site_id
 _symmetry_equiv_pos_as_xyz
  1  'x, y, z'
loop_
 _atom_site_type_symbol
 _atom_site_label
 _atom_site_symmetry_multiplicity
 _atom_site_fract_x
 _atom_site_fract_y
 _atom_site_fract_z
 _atom_site_occupancy
  Zr  Zr0  1  0.71424975  0.28221314  0.28221314  1
  Zr  Zr1  1  0.28575025  0.71778686  0.71778686  1
  Zr  Zr2  1  0.28221314  0.71424975  0.28221314  1
  Zr  Zr3  1  0.71778686  0.28575025  0.71778686  1
  Zr  Zr4  1  0.28221314  0.28221314  0.71424975  1
  Zr  Zr5  1  0.71778686  0.71778686  0.28575025  1
  Zn  Zn0  1  0.12268441  0.12268441  0.62766913  1
  Zn  Zn1  1  0.12268441  0.62766913  0.12268441  1
  Zn  Zn2  1  0.87731559  0.87731559  0.37233087  1
  Zn  Zn3  1  0.87731559  0.37233087  0.87731559  1
  Zn  Zn4  1  0.62766913  0.12268441  0.12268441  1
  Zn  Zn5  1  0.37233087  0.87731559  0.87731559  1
  Zn  Zn6  1  0.50000000  0.00000000  0.00000000  1
  Zn  Zn7  1  0.00000000  0.50000000  0.00000000  1
  Zn  Zn8  1  0.00000000  0.00000000  0.50000000  1
  Zn  Zn9  1  0.33645848  0.33645848  0.33645848  1
  Zn  Zn10  1  0.66354152  0.66354152  0.66354152  1
  Zn  Zn11  1  0.33158587  0.33158587  0.99499568  1
  Zn  Zn12  1  0.33158587  0.99499568  0.33158587  1
  Zn  Zn13  1  0.66841413  0.66841413  0.00500432  1
  Zn  Zn14  1  0.66841413  0.00500432  0.66841413  1
  Zn  Zn15  1  0.99499568  0.33158587  0.33158587  1
  Zn  Zn16  1  0.00500432  0.66841413  0.66841413  1
  Zn  Zn17  1  0.00000000  0.00000000  0.00000000  1
  As  As0  1  0.50000000  0.50000000  0.50000000  1
  Ir  Ir0  1  0.11802219  0.11802219  0.11802219  1
  Ir  Ir1  1  0.88197781  0.88197781  0.88197781  1
  Ir  Ir2  1  0.00000000  0.50000000  0.50000000  1
  Ir  Ir3  1  0.50000000  0.00000000  0.50000000  1
  Ir  Ir4  1  0.50000000  0.50000000  0.00000000  1
loop_
_geom_bond_atom_site_label_1
_geom_bond_atom_site_label_2
_geom_bond_distance
_geom_bond_site_symmetry_2
Zn0 Zn17 2.639559 1_556
Zn0 Zn8 2.647411 1_555
Zn0 Zn12 2.703193 1_545
Zn0 Zn15 2.703193 1_455
Zn0 Zn9 2.709618 1_555
Zn0 Zr1 2.890577 1_545
Zn0 Zr3 2.890577 1_455
Zn0 Zr4 2.901768 1_555
Zn1 Zn17 2.639559 1_565
Zn1 Zn7 2.647411 1_555
Zn1 Zn15 2.703193 1_455
Zn1 Zn11 2.703193 1_554
Zn1 Zn9 2.709618 1_555
Zn1 Zr1 2.890577 1_554
Zn1 Zr5 2.890577 1_455
Zn1 Zr2 2.901768 1_555
Zn2 Zn8 2.647411 1_665
Zn2 Zr0 2.890577 1_565
Zn2 Zr2 2.890577 1_655
Zn2 Zr5 2.901768 1_555
Zn3 Zn7 2.647411 1_656
Zn3 Zr0 2.890577 1_556
Zn3 Zr4 2.890577 1_655
Zn3 Zr3 2.901768 1_555
Zn4 Zn6 2.647411 1_555
Zn4 Zn9 2.709618 1_555
Zn4 Zr5 2.890577 1_545
Zn4 Zr3 2.890577 1_554
Zn4 Zr0 2.901768 1_555
Zn5 Zn6 2.647411 1_566
Zn5 Zr4 2.890577 1_565
Zn5 Zr2 2.890577 1_556
Zn5 Zr1 2.901768 1_555
Zn6 Zr3 3.117155 1_554
Zn6 Zr2 3.117155 1_545
Zn6 Zr5 3.117155 1_545
Zn6 Zr4 3.117155 1_554
Zn7 Zr5 3.117155 1_455
Zn7 Zr4 3.117155 1_554
Zn7 Zr1 3.117155 1_554
Zn7 Zr0 3.117155 1_455
Zn8 Zr3 3.117155 1_455
Zn8 Zr2 3.117155 1_545
Zn8 Zr1 3.117155 1_545
Zn8 Zr0 3.117155 1_455
Zn10 Zn2 2.709618 1_555
Zn10 Zn5 2.709618 1_555
Zn10 Zn3 2.709618 1_555
Zn10 Zn14 3.009632 1_565
Zn10 Zn13 3.009633 1_556
Zn10 Zn16 3.009633 1_655
Zn11 Zn6 2.481590 1_556
Zn11 Zn7 2.481591 1_556
Zn11 Zn4 2.703193 1_556
Zn11 Zn12 2.921961 1_546
Zn11 Zn15 2.921961 1_456
Zn11 Zr4 2.932152 1_555
Zn11 Zr1 2.957291 1_555
Zn11 Zr3 2.957291 1_555
Zn11 Zn9 3.009633 1_556
Zn12 Zn6 2.481591 1_565
Zn12 Zn8 2.481591 1_565
Zn12 Zn4 2.703193 1_565
Zn12 Zn15 2.921961 1_465
Zn12 Zr2 2.932152 1_555
Zn12 Zr1 2.957291 1_555
Zn12 Zr5 2.957291 1_555
Zn12 Zn9 3.009632 1_565
Zn13 Zn6 2.481590 1_565
Zn13 Zn7 2.481591 1_655
Zn13 Zn3 2.703193 1_554
Zn13 Zn5 2.703193 1_554
Zn13 Zn14 2.921961 1_564
Zn13 Zn16 2.921961 1_654
Zn13 Zr5 2.932152 1_555
Zn13 Zr0 2.957291 1_555
Zn13 Zr2 2.957291 1_555
Zn14 Zn6 2.481591 1_556
Zn14 Zn8 2.481591 1_655
Zn14 Zn2 2.703193 1_545
Zn14 Zn5 2.703193 1_545
Zn14 Zn16 2.921961 1_645
Zn14 Zr3 2.932152 1_555
Zn14 Zr0 2.957291 1_555
Zn14 Zr4 2.957291 1_555
Zn15 Zn8 2.481590 1_655
Zn15 Zn7 2.481591 1_655
Zn15 Zr0 2.932152 1_555
Zn15 Zr5 2.957291 1_555
Zn15 Zr3 2.957291 1_555
Zn15 Zn9 3.009633 1_655
Zn16 Zn8 2.481590 1_565
Zn16 Zn7 2.481591 1_556
Zn16 Zn3 2.703193 1_455
Zn16 Zn2 2.703193 1_455
Zn16 Zr1 2.932152 1_555
Zn16 Zr4 2.957291 1_555
Zn16 Zr2 2.957291 1_555
Zn17 Zn3 2.639559 1_454
Zn17 Zn2 2.639559 1_445
Zn17 Zn5 2.639560 1_544
Zn17 Zn4 2.639560 1_455
As0 Zr1 2.675026 1_555
As0 Zr0 2.675026 1_555
As0 Zr5 2.675026 1_555
As0 Zr4 2.675026 1_555
As0 Zr3 2.675026 1_555
As0 Zr2 2.675026 1_555
Ir0 Zn17 2.512661 1_555
Ir0 Zn7 2.711567 1_555
Ir0 Zn8 2.711568 1_555
Ir0 Zn6 2.711568 1_555
Ir0 Zn15 2.739205 1_455
Ir0 Zn11 2.739205 1_554
Ir0 Zn12 2.739205 1_545
Ir0 Zr2 2.896481 1_545
Ir0 Zr4 2.896482 1_554
Ir0 Zr0 2.896482 1_455
Ir0 Zn5 2.958537 1_544
Ir0 Zn2 2.958537 1_445
Ir0 Zn3 2.958538 1_454
Ir1 Zn17 2.512661 1_666
Ir1 Zn7 2.711567 1_656
Ir1 Zn8 2.711568 1_665
Ir1 Zn6 2.711568 1_566
Ir1 Zn16 2.739205 1_655
Ir1 Zn13 2.739205 1_556
Ir1 Zn14 2.739205 1_565
Ir1 Zr3 2.896481 1_565
Ir1 Zr5 2.896482 1_556
Ir1 Zr1 2.896482 1_655
Ir1 Zn4 2.958537 1_566
Ir1 Zn0 2.958537 1_665
Ir1 Zn1 2.958538 1_656
Ir2 Zn9 2.506891 1_555
Ir2 Zn10 2.506891 1_455
Ir2 Zn16 2.560369 1_555
Ir2 Zn15 2.560369 1_455
Ir2 Zn2 2.674902 1_455
Ir2 Zn0 2.674902 1_555
Ir2 Zn3 2.674902 1_455
Ir2 Zn1 2.674902 1_555
Ir2 Zr2 3.074664 1_555
Ir2 Zr3 3.074664 1_455
Ir2 Zr4 3.074664 1_555
Ir2 Zr5 3.074664 1_455
Ir3 Zn10 2.506890 1_545
Ir3 Zn9 2.506890 1_555
Ir3 Zn14 2.560369 1_555
Ir3 Zn12 2.560369 1_545
Ir3 Zn5 2.674902 1_545
Ir3 Zn4 2.674902 1_555
Ir3 Zn2 2.674902 1_545
Ir3 Zn0 2.674902 1_555
Ir3 Zr4 3.074664 1_555
Ir3 Zr5 3.074664 1_545
Ir3 Zr0 3.074664 1_555
Ir3 Zr1 3.074664 1_545
Ir4 Zn10 2.506890 1_554
Ir4 Zn9 2.506890 1_555
Ir4 Zn13 2.560369 1_555
Ir4 Zn11 2.560369 1_554
Ir4 Zn5 2.674902 1_554
Ir4 Zn4 2.674902 1_555
Ir4 Zn3 2.674902 1_554
Ir4 Zn1 2.674902 1_555
Ir4 Zr2 3.074664 1_555
Ir4 Zr3 3.074664 1_554
Ir4 Zr0 3.074664 1_555
Ir4 Zr1 3.074664 1_554
