# generated using pymatgen
data_K3P5OsSe10
_symmetry_space_group_name_H-M   'P 1'
_cell_length_a   7.34038241
_cell_length_b   11.28814663
_cell_length_c   12.58923128
_cell_angle_alpha   86.27970340
_cell_angle_beta   90.00000000
_cell_angle_gamma   90.00000000
_symmetry_Int_Tables_number   1
_chemical_formula_structural   K3P5OsSe10
_chemical_formula_sum   'K6 P10 Os2 Se20'
_cell_volume   1040.93685213
_cell_formula_units_Z   2
loop_
 _symmetry_equiv_pos_site_id
 _symmetry_equiv_pos_as_xyz
  1  'x, y, z'
loop_
 _atom_site_type_symbol
 _atom_site_label
 _atom_site_symmetry_multiplicity
 _atom_site_fract_x
 _atom_site_fract_y
 _atom_site_fract_z
 _atom_site_occupancy
  K  K0  1  0.25000000  0.98401284  0.60785868  1
  K  K1  1  0.75000000  0.01598716  0.39214132  1
  K  K2  1  0.25000000  0.09787918  0.06919934  1
  K  K3  1  0.25000000  0.47405259  0.61305694  1
  K  K4  1  0.75000000  0.90212082  0.93080066  1
  K  K5  1  0.75000000  0.52594741  0.38694306  1
  P  P0  1  0.75000000  0.27606591  0.59185322  1
  P  P1  1  0.52016138  0.47698984  0.91639957  1
  P  P2  1  0.47983862  0.52301016  0.08360043  1
  P  P3  1  0.25000000  0.86509758  0.27349204  1
  P  P4  1  0.25000000  0.72393409  0.40814678  1
  P  P5  1  0.75000000  0.13490242  0.72650796  1
  P  P6  1  0.25000000  0.72299871  0.94184165  1
  P  P7  1  0.97983862  0.47698984  0.91639957  1
  P  P8  1  0.02016138  0.52301016  0.08360043  1
  P  P9  1  0.75000000  0.27700129  0.05815835  1
  Os  Os0  1  0.25000000  0.64919172  0.11437676  1
  Os  Os1  1  0.75000000  0.35080828  0.88562324  1
  Se  Se0  1  0.25000000  0.90685621  0.88222927  1
  Se  Se1  1  0.75000000  0.96287118  0.66648434  1
  Se  Se2  1  0.25000000  0.38096970  0.88139377  1
  Se  Se3  1  0.99651747  0.25834774  0.50211120  1
  Se  Se4  1  0.47671778  0.81449756  0.16978771  1
  Se  Se5  1  0.49071587  0.65970354  0.83723772  1
  Se  Se6  1  0.00928413  0.65970354  0.83723772  1
  Se  Se7  1  0.50348253  0.25834774  0.50211120  1
  Se  Se8  1  0.25000000  0.03712882  0.33351566  1
  Se  Se9  1  0.50928413  0.34029646  0.16276228  1
  Se  Se10  1  0.75000000  0.61903030  0.11860623  1
  Se  Se11  1  0.52328222  0.18550244  0.83021229  1
  Se  Se12  1  0.25000000  0.56163610  0.31361912  1
  Se  Se13  1  0.97671778  0.18550244  0.83021229  1
  Se  Se14  1  0.49651747  0.74165226  0.49788880  1
  Se  Se15  1  0.99071587  0.34029646  0.16276228  1
  Se  Se16  1  0.75000000  0.09314379  0.11777073  1
  Se  Se17  1  0.02328222  0.81449756  0.16978771  1
  Se  Se18  1  0.00348253  0.74165226  0.49788880  1
  Se  Se19  1  0.75000000  0.43836390  0.68638088  1
loop_
_geom_bond_atom_site_label_1
_geom_bond_atom_site_label_2
_geom_bond_distance
_geom_bond_site_symmetry_2
K0 Se8 3.466883 1_565
K0 Se0 3.507003 1_555
K0 Se14 3.628663 1_555
K0 Se18 3.628663 1_555
K0 Se1 3.748216 1_555
K0 Se1 3.748216 1_455
K0 Se7 3.780094 1_565
K0 Se3 3.780094 1_465
K1 Se1 3.466883 1_545
K1 Se16 3.507003 1_555
K1 Se3 3.628663 1_555
K1 Se7 3.628663 1_555
K1 Se8 3.748216 1_655
K1 Se8 3.748216 1_555
K1 Se18 3.780094 1_645
K1 Se14 3.780094 1_545
K2 Se0 3.293734 1_544
K2 Se8 3.353604 1_555
K2 P3 3.555596 1_545
K2 Se9 3.593905 1_555
K2 Se15 3.593905 1_455
K2 Se11 3.697055 1_554
K2 Se13 3.697055 1_454
K2 Se16 3.720594 1_555
K2 Se16 3.720594 1_455
K2 Se4 3.752349 1_545
K2 Se17 3.752349 1_545
K2 Se2 3.849834 1_554
K3 Se7 3.432637 1_555
K3 Se3 3.432637 1_455
K3 Se2 3.472080 1_555
K3 Se14 3.732674 1_555
K3 Se18 3.732674 1_555
K3 Se19 3.799531 1_455
K3 Se19 3.799531 1_555
K3 Se12 3.834627 1_555
K4 Se16 3.293734 1_566
K4 Se1 3.353604 1_555
K4 P5 3.555596 1_565
K4 Se6 3.593905 1_655
K4 Se5 3.593905 1_555
K4 Se17 3.697055 1_656
K4 Se4 3.697055 1_556
K4 Se0 3.720594 1_655
K4 Se0 3.720594 1_555
K4 Se13 3.752349 1_565
K4 Se11 3.752349 1_565
K4 Se10 3.849834 1_556
K5 Se18 3.432637 1_655
K5 Se14 3.432637 1_555
K5 Se10 3.472080 1_555
K5 Se3 3.732674 1_555
K5 Se7 3.732674 1_555
K5 Se12 3.799531 1_555
K5 Se12 3.799531 1_655
K5 Se19 3.834627 1_555
P0 Se3 2.149452 1_555
P0 Se7 2.149452 1_555
P0 Se19 2.248440 1_555
P1 P2 2.220384 1_556
P1 Se5 2.242112 1_555
P1 Se2 2.315956 1_555
P2 Se9 2.242112 1_555
P2 Se10 2.315956 1_555
P3 Se8 2.128959 1_565
P3 Se4 2.212927 1_555
P3 Se17 2.212927 1_555
P4 Se14 2.149452 1_555
P4 Se18 2.149452 1_555
P4 Se12 2.248440 1_555
P5 Se1 2.128959 1_545
P5 Se13 2.212927 1_555
P5 Se11 2.212927 1_555
P6 Se0 2.160651 1_555
P6 Se5 2.342834 1_555
P6 Se6 2.342834 1_555
P7 P8 2.220384 1_656
P7 Se6 2.242112 1_655
P7 Se2 2.315956 1_655
P8 Se15 2.242112 1_455
P8 Se10 2.315956 1_455
P9 Se16 2.160651 1_555
P9 Se15 2.342834 1_555
P9 Se9 2.342834 1_555
Os0 P2 2.257619 1_555
Os0 P8 2.257619 1_555
Os0 P6 2.275354 1_554
Os0 Se4 2.628123 1_555
Os0 Se17 2.628123 1_555
Os0 Se12 2.635662 1_555
Os1 P7 2.257619 1_555
Os1 P1 2.257619 1_555
Os1 P9 2.275354 1_556
Os1 Se13 2.628123 1_555
Os1 Se11 2.628123 1_555
Os1 Se19 2.635662 1_555
