# generated using pymatgen
data_Na2InPt3
_symmetry_space_group_name_H-M   'P 1'
_cell_length_a   5.40866666
_cell_length_b   5.47355342
_cell_length_c   5.47355422
_cell_angle_alpha   59.99999516
_cell_angle_beta   59.60234382
_cell_angle_gamma   59.60234775
_symmetry_Int_Tables_number   1
_chemical_formula_structural   Na2InPt3
_chemical_formula_sum   'Na2 In1 Pt3'
_cell_volume   113.88783165
_cell_formula_units_Z   1
loop_
 _symmetry_equiv_pos_site_id
 _symmetry_equiv_pos_as_xyz
  1  'x, y, z'
loop_
 _atom_site_type_symbol
 _atom_site_label
 _atom_site_symmetry_multiplicity
 _atom_site_fract_x
 _atom_site_fract_y
 _atom_site_fract_z
 _atom_site_occupancy
  Na  Na0  1  0.47882339  0.50705854  0.50705854  1
  Na  Na1  1  0.77117661  0.74294146  0.74294146  1
  In  In0  1  0.62500000  0.12500000  0.12500000  1
  Pt  Pt0  1  0.12500000  0.12500000  0.12500000  1
  Pt  Pt1  1  0.12500000  0.62500000  0.12500000  1
  Pt  Pt2  1  0.12500000  0.12500000  0.62500000  1
loop_
_geom_bond_atom_site_label_1
_geom_bond_atom_site_label_2
_geom_bond_distance
_geom_bond_site_symmetry_2
Na0 Na1 3.106165 1_455
Na0 Pt2 3.146744 1_555
Na0 Pt1 3.146744 1_555
Na0 Pt0 3.146746 1_556
Na0 Pt0 3.146746 1_565
Na0 Pt2 3.146749 1_565
Na0 Pt1 3.146749 1_556
Na0 Pt0 3.246767 1_655
Na0 Pt1 3.246769 1_655
Na0 Pt2 3.246769 1_655
Na0 Na1 3.410768 1_545
Na0 Na1 3.410769 1_554
Na0 Na1 3.410777 1_555
Na1 Pt2 3.146744 1_665
Na1 Pt1 3.146744 1_656
Na1 Pt0 3.146746 1_665
Na1 Pt0 3.146746 1_656
Na1 Pt2 3.146749 1_655
Na1 Pt1 3.146749 1_655
Na1 Pt0 3.246767 1_566
Na1 Pt1 3.246769 1_556
Na1 Pt2 3.246769 1_565
In0 Pt1 2.704333 1_555
In0 Pt1 2.704333 1_645
In0 Pt0 2.704333 1_555
In0 Pt2 2.704333 1_555
In0 Pt2 2.704333 1_654
In0 Pt0 2.704333 1_655
In0 Na0 3.224635 1_555
In0 Na1 3.224635 1_544
In0 Na1 3.224639 1_554
In0 Na0 3.224639 1_545
In0 Na1 3.224639 1_545
In0 Na0 3.224639 1_554
Pt0 Pt1 2.736777 1_555
Pt0 Pt1 2.736777 1_545
Pt0 Pt2 2.736777 1_554
Pt0 Pt2 2.736777 1_555
Pt1 Pt2 2.736777 1_555
Pt1 Pt2 2.736777 1_564
