# generated using pymatgen
data_Rb6MgSe4
_symmetry_space_group_name_H-M   'P 1'
_cell_length_a   10.66893156
_cell_length_b   10.66893079
_cell_length_c   8.34317544
_cell_angle_alpha   90.00000000
_cell_angle_beta   90.00000000
_cell_angle_gamma   119.99999935
_symmetry_Int_Tables_number   1
_chemical_formula_structural   Rb6MgSe4
_chemical_formula_sum   'Rb12 Mg2 Se8'
_cell_volume   822.43926795
_cell_formula_units_Z   2
loop_
 _symmetry_equiv_pos_site_id
 _symmetry_equiv_pos_as_xyz
  1  'x, y, z'
loop_
 _atom_site_type_symbol
 _atom_site_label
 _atom_site_symmetry_multiplicity
 _atom_site_fract_x
 _atom_site_fract_y
 _atom_site_fract_z
 _atom_site_occupancy
  Rb  Rb0  1  0.14686618  0.85313382  0.54411770  1
  Rb  Rb1  1  0.29373335  0.14686618  0.04411770  1
  Rb  Rb2  1  0.85313382  0.70626665  0.04411770  1
  Rb  Rb3  1  0.14686618  0.29373335  0.54411770  1
  Rb  Rb4  1  0.70626665  0.85313382  0.54411770  1
  Rb  Rb5  1  0.85313382  0.14686618  0.04411770  1
  Rb  Rb6  1  0.52902224  0.47097776  0.36548055  1
  Rb  Rb7  1  0.05804548  0.52902224  0.86548055  1
  Rb  Rb8  1  0.47097776  0.94195452  0.86548055  1
  Rb  Rb9  1  0.52902224  0.05804548  0.36548055  1
  Rb  Rb10  1  0.94195452  0.47097776  0.36548055  1
  Rb  Rb11  1  0.47097776  0.52902224  0.86548055  1
  Mg  Mg0  1  0.33333300  0.66666700  0.25149280  1
  Mg  Mg1  1  0.66666700  0.33333300  0.75149280  1
  Se  Se0  1  0.33333300  0.66666700  0.56849325  1
  Se  Se1  1  0.66666700  0.33333300  0.06849325  1
  Se  Se2  1  0.19750138  0.80249862  0.15363940  1
  Se  Se3  1  0.39500077  0.19750138  0.65363940  1
  Se  Se4  1  0.80249862  0.60499923  0.65363940  1
  Se  Se5  1  0.19750138  0.39500077  0.15363940  1
  Se  Se6  1  0.60499923  0.80249862  0.15363940  1
  Se  Se7  1  0.80249862  0.19750138  0.65363940  1
loop_
_geom_bond_atom_site_label_1
_geom_bond_atom_site_label_2
_geom_bond_distance
_geom_bond_site_symmetry_2
Rb0 Se2 3.389539 1_555
Rb0 Se3 3.408146 1_565
Rb0 Se4 3.408146 1_455
Rb0 Se0 3.451741 1_555
Rb1 Se3 3.389531 1_554
Rb1 Se5 3.408138 1_555
Rb1 Se2 3.408148 1_545
Rb1 Se1 3.451741 1_555
Rb2 Se4 3.389531 1_554
Rb2 Se6 3.408138 1_555
Rb2 Se2 3.408148 1_655
Rb2 Se1 3.451741 1_555
Rb3 Se5 3.389531 1_555
Rb3 Se3 3.408138 1_555
Rb3 Se7 3.408148 1_455
Rb3 Se0 3.451741 1_555
Rb4 Se6 3.389531 1_555
Rb4 Se4 3.408138 1_555
Rb4 Se7 3.408148 1_565
Rb4 Se0 3.451741 1_555
Rb5 Se7 3.389539 1_554
Rb5 Se6 3.408146 1_545
Rb5 Se5 3.408146 1_655
Rb5 Se1 3.451741 1_555
Rb6 Se3 3.487916 1_555
Rb6 Se4 3.487916 1_555
Rb6 Se1 3.550951 1_555
Rb6 Se6 3.663877 1_555
Rb6 Se5 3.663877 1_555
Rb7 Se2 3.487916 1_556
Rb7 Se5 3.487923 1_556
Rb7 Se0 3.550938 1_555
Rb7 Se7 3.663885 1_455
Rb7 Se4 3.663905 1_455
Rb8 Se2 3.487916 1_556
Rb8 Se6 3.487923 1_556
Rb8 Se0 3.550938 1_555
Rb8 Se7 3.663886 1_565
Rb8 Se3 3.663904 1_565
Rb9 Se7 3.487916 1_555
Rb9 Se3 3.487923 1_555
Rb9 Se1 3.550938 1_555
Rb9 Se2 3.663886 1_545
Rb9 Se6 3.663904 1_545
Rb10 Se7 3.487916 1_555
Rb10 Se4 3.487923 1_555
Rb10 Se1 3.550938 1_555
Rb10 Se2 3.663885 1_655
Rb10 Se5 3.663905 1_655
Rb11 Se6 3.487916 1_556
Rb11 Se5 3.487916 1_556
Rb11 Se0 3.550951 1_555
Rb11 Se3 3.663877 1_555
Rb11 Se4 3.663877 1_555
Mg0 Se2 2.639484 1_555
Mg0 Se5 2.639510 1_555
Mg0 Se6 2.639510 1_555
Mg0 Se0 2.644790 1_555
Mg1 Se7 2.639484 1_555
Mg1 Se4 2.639510 1_555
Mg1 Se3 2.639510 1_555
Mg1 Se1 2.644790 1_556
