# generated using pymatgen
data_SmAu3
_symmetry_space_group_name_H-M   'P 1'
_cell_length_a   5.09472288
_cell_length_b   5.07546484
_cell_length_c   6.41407295
_cell_angle_alpha   90.00000000
_cell_angle_beta   90.00000000
_cell_angle_gamma   90.00000000
_symmetry_Int_Tables_number   1
_chemical_formula_structural   SmAu3
_chemical_formula_sum   'Sm2 Au6'
_cell_volume   165.85565538
_cell_formula_units_Z   2
loop_
 _symmetry_equiv_pos_site_id
 _symmetry_equiv_pos_as_xyz
  1  'x, y, z'
loop_
 _atom_site_type_symbol
 _atom_site_label
 _atom_site_symmetry_multiplicity
 _atom_site_fract_x
 _atom_site_fract_y
 _atom_site_fract_z
 _atom_site_occupancy
  Sm  Sm0  1  0.75000000  0.34272197  0.75000000  1
  Sm  Sm1  1  0.25000000  0.65727803  0.25000000  1
  Au  Au0  1  0.25000000  0.16048357  0.51472057  1
  Au  Au1  1  0.75000000  0.83951643  0.48527943  1
  Au  Au2  1  0.25000000  0.16048357  0.98527943  1
  Au  Au3  1  0.75000000  0.83951643  0.01472057  1
  Au  Au4  1  0.25000000  0.67194711  0.75000000  1
  Au  Au5  1  0.75000000  0.32805289  0.25000000  1
loop_
_geom_bond_atom_site_label_1
_geom_bond_atom_site_label_2
_geom_bond_distance
_geom_bond_site_symmetry_2
Au0 Au4 2.902679 1_545
Au0 Au4 3.002692 1_555
Au0 Sm1 3.039863 1_555
Au0 Sm1 3.066907 1_545
Au0 Sm0 3.101927 1_455
Au0 Sm0 3.101927 1_555
Au0 Au5 3.177322 1_455
Au0 Au5 3.177322 1_555
Au1 Au5 2.902679 1_565
Au1 Au5 3.002692 1_555
Au1 Sm0 3.039863 1_555
Au1 Sm0 3.066907 1_565
Au1 Sm1 3.101927 1_655
Au1 Sm1 3.101927 1_555
Au1 Au4 3.177322 1_555
Au1 Au4 3.177322 1_655
Au2 Au4 2.902679 1_545
Au2 Au4 3.002692 1_555
Au2 Sm1 3.039863 1_556
Au2 Sm1 3.066907 1_546
Au2 Sm0 3.101927 1_455
Au2 Sm0 3.101927 1_555
Au2 Au5 3.177322 1_456
Au2 Au5 3.177322 1_556
Au3 Au5 2.902679 1_565
Au3 Au5 3.002692 1_555
Au3 Sm0 3.039863 1_554
Au3 Sm0 3.066907 1_564
Au3 Sm1 3.101927 1_655
Au3 Sm1 3.101927 1_555
Au3 Au4 3.177322 1_654
Au3 Au4 3.177322 1_554
Au4 Sm0 3.046505 1_455
Au4 Sm0 3.046505 1_555
Au4 Sm1 3.207901 1_556
Au4 Sm1 3.207901 1_555
Au5 Sm1 3.046505 1_655
Au5 Sm1 3.046505 1_555
Au5 Sm0 3.207901 1_554
Au5 Sm0 3.207901 1_555
