# generated using pymatgen
data_Ba5In4Bi5
_symmetry_space_group_name_H-M   'P 1'
_cell_length_a   10.78858300
_cell_length_b   10.78858300
_cell_length_c   9.15539300
_cell_angle_alpha   90.00000000
_cell_angle_beta   90.00000000
_cell_angle_gamma   90.00000000
_symmetry_Int_Tables_number   1
_chemical_formula_structural   Ba5In4Bi5
_chemical_formula_sum   'Ba10 In8 Bi10'
_cell_volume   1065.62844707
_cell_formula_units_Z   2
loop_
 _symmetry_equiv_pos_site_id
 _symmetry_equiv_pos_as_xyz
  1  'x, y, z'
loop_
 _atom_site_type_symbol
 _atom_site_label
 _atom_site_symmetry_multiplicity
 _atom_site_fract_x
 _atom_site_fract_y
 _atom_site_fract_z
 _atom_site_occupancy
  Ba  Ba0  1  0.00000000  0.00000000  0.19846800  1
  Ba  Ba1  1  0.50000000  0.50000000  0.69846800  1
  Ba  Ba2  1  0.18999000  0.60529400  0.37417200  1
  Ba  Ba3  1  0.60529400  0.81001000  0.37417200  1
  Ba  Ba4  1  0.39470600  0.18999000  0.37417200  1
  Ba  Ba5  1  0.81001000  0.39470600  0.37417200  1
  Ba  Ba6  1  0.68999000  0.89470600  0.87417200  1
  Ba  Ba7  1  0.31001000  0.10529400  0.87417200  1
  Ba  Ba8  1  0.89470600  0.31001000  0.87417200  1
  Ba  Ba9  1  0.10529400  0.68999000  0.87417200  1
  In  In0  1  0.68443500  0.57214200  0.03102700  1
  In  In1  1  0.31556500  0.42785800  0.03102700  1
  In  In2  1  0.42785800  0.68443500  0.03102700  1
  In  In3  1  0.57214200  0.31556500  0.03102700  1
  In  In4  1  0.92785800  0.81556500  0.53102700  1
  In  In5  1  0.81556500  0.07214200  0.53102700  1
  In  In6  1  0.18443500  0.92785800  0.53102700  1
  In  In7  1  0.07214200  0.18443500  0.53102700  1
  Bi  Bi0  1  0.00000000  0.00000000  0.81215200  1
  Bi  Bi1  1  0.50000000  0.50000000  0.31215200  1
  Bi  Bi2  1  0.89026600  0.69038600  0.19259100  1
  Bi  Bi3  1  0.10973400  0.30961400  0.19259100  1
  Bi  Bi4  1  0.30961400  0.89026600  0.19259100  1
  Bi  Bi5  1  0.69038600  0.10973400  0.19259100  1
  Bi  Bi6  1  0.80961400  0.60973400  0.69259100  1
  Bi  Bi7  1  0.60973400  0.19038600  0.69259100  1
  Bi  Bi8  1  0.39026600  0.80961400  0.69259100  1
  Bi  Bi9  1  0.19038600  0.39026600  0.69259100  1
loop_
_geom_bond_atom_site_label_1
_geom_bond_atom_site_label_2
_geom_bond_distance
_geom_bond_site_symmetry_2
Ba0 Bi0 3.536875 1_554
Ba0 Bi4 3.544296 1_545
Ba0 Bi3 3.544296 1_555
Ba0 Bi2 3.544296 1_445
Ba0 Bi5 3.544296 1_455
Ba0 In4 3.719582 1_445
Ba0 In6 3.719582 1_545
Ba0 In7 3.719582 1_555
Ba0 In5 3.719582 1_455
Ba1 Bi1 3.536875 1_555
Ba1 Bi8 3.544296 1_555
Ba1 Bi6 3.544296 1_555
Ba1 Bi7 3.544296 1_555
Ba1 Bi9 3.544296 1_555
Ba1 In0 3.719582 1_556
Ba1 In3 3.719582 1_556
Ba1 In2 3.719582 1_556
Ba1 In1 3.719582 1_556
Ba2 Bi1 3.577568 1_555
Ba2 Bi3 3.699908 1_555
Ba2 Bi9 3.725641 1_555
Ba2 Bi4 3.725790 1_555
Ba2 Bi2 3.750019 1_455
Ba2 In6 3.765149 1_555
Ba2 In4 3.899522 1_455
Ba2 In1 3.920424 1_555
Ba2 In2 4.145421 1_555
Ba2 Bi8 4.245743 1_555
Ba3 Bi1 3.577568 1_555
Ba3 Bi4 3.699908 1_555
Ba3 Bi8 3.725641 1_555
Ba3 Bi2 3.725790 1_555
Ba3 Bi5 3.750019 1_565
Ba3 In4 3.765149 1_555
Ba3 In5 3.899522 1_565
Ba3 In2 3.920424 1_555
Ba3 In0 4.145421 1_555
Ba3 Bi6 4.245743 1_555
Ba4 Bi1 3.577568 1_555
Ba4 Bi5 3.699908 1_555
Ba4 Bi7 3.725641 1_555
Ba4 Bi3 3.725790 1_555
Ba4 Bi4 3.750019 1_545
Ba4 In7 3.765149 1_555
Ba4 In6 3.899522 1_545
Ba4 In3 3.920424 1_555
Ba4 In1 4.145421 1_555
Ba4 Bi9 4.245743 1_555
Ba5 Bi1 3.577568 1_555
Ba5 Bi2 3.699908 1_555
Ba5 Bi6 3.725641 1_555
Ba5 Bi5 3.725790 1_555
Ba5 Bi3 3.750019 1_655
Ba5 In5 3.765149 1_555
Ba5 In7 3.899522 1_655
Ba5 In0 3.920424 1_555
Ba5 In3 4.145421 1_555
Ba5 Bi7 4.245743 1_555
Ba6 Bi0 3.577568 1_665
Ba6 Bi7 3.699908 1_565
Ba6 Bi5 3.725641 1_566
Ba6 Bi6 3.725790 1_555
Ba6 Bi8 3.750019 1_555
Ba6 In0 3.765149 1_556
Ba6 In2 3.899522 1_556
Ba6 In5 3.920424 1_565
Ba6 In4 4.145421 1_555
Ba6 Bi2 4.245743 1_556
Ba7 Bi0 3.577568 1_555
Ba7 Bi8 3.699908 1_545
Ba7 Bi4 3.725641 1_546
Ba7 Bi9 3.725790 1_555
Ba7 Bi7 3.750019 1_555
Ba7 In1 3.765149 1_556
Ba7 In3 3.899522 1_556
Ba7 In6 3.920424 1_545
Ba7 In7 4.145421 1_555
Ba7 Bi3 4.245743 1_556
Ba8 Bi0 3.577568 1_655
Ba8 Bi9 3.699908 1_655
Ba8 Bi3 3.725641 1_656
Ba8 Bi7 3.725790 1_555
Ba8 Bi6 3.750019 1_555
Ba8 In3 3.765149 1_556
Ba8 In0 3.899522 1_556
Ba8 In7 3.920424 1_655
Ba8 In5 4.145421 1_555
Ba8 Bi5 4.245743 1_556
Ba9 Bi0 3.577568 1_565
Ba9 Bi6 3.699908 1_455
Ba9 Bi2 3.725641 1_456
Ba9 Bi8 3.725790 1_555
Ba9 Bi9 3.750019 1_555
Ba9 In2 3.765149 1_556
Ba9 In1 3.899522 1_556
Ba9 In4 3.920424 1_455
Ba9 In6 4.145421 1_555
Ba9 Bi4 4.245743 1_556
In0 In3 3.021602 1_555
In0 In2 3.021602 1_555
In1 In3 3.021602 1_555
In1 In2 3.021602 1_555
In4 In6 3.021602 1_655
In4 In5 3.021602 1_565
In5 In7 3.021602 1_655
In6 In7 3.021602 1_565
Bi0 In4 3.345077 1_445
Bi0 In6 3.345077 1_545
Bi0 In7 3.345077 1_555
Bi0 In5 3.345077 1_455
Bi1 In0 3.345077 1_555
Bi1 In3 3.345077 1_555
Bi1 In2 3.345077 1_555
Bi1 In1 3.345077 1_555
Bi2 In0 2.957453 1_555
Bi2 In4 3.404282 1_555
Bi3 In1 2.957453 1_555
Bi3 In7 3.404282 1_555
Bi4 In2 2.957453 1_555
Bi4 In6 3.404282 1_555
Bi5 In3 2.957453 1_555
Bi5 In5 3.404282 1_555
Bi6 In4 2.957453 1_555
Bi6 In0 3.404282 1_556
Bi7 In5 2.957453 1_555
Bi7 In3 3.404282 1_556
Bi8 In6 2.957453 1_555
Bi8 In2 3.404282 1_556
Bi9 In7 2.957453 1_555
Bi9 In1 3.404282 1_556
