# generated using pymatgen
data_Sc4Si3Sn3Ir7
_symmetry_space_group_name_H-M   'P 1'
_cell_length_a   7.14913743
_cell_length_b   7.14913804
_cell_length_c   7.26786072
_cell_angle_alpha   109.80797653
_cell_angle_beta   109.80797828
_cell_angle_gamma   109.13237210
_symmetry_Int_Tables_number   1
_chemical_formula_structural   Sc4Si3Sn3Ir7
_chemical_formula_sum   'Sc4 Si3 Sn3 Ir7'
_cell_volume   284.75424359
_cell_formula_units_Z   1
loop_
 _symmetry_equiv_pos_site_id
 _symmetry_equiv_pos_as_xyz
  1  'x, y, z'
loop_
 _atom_site_type_symbol
 _atom_site_label
 _atom_site_symmetry_multiplicity
 _atom_site_fract_x
 _atom_site_fract_y
 _atom_site_fract_z
 _atom_site_occupancy
  Sc  Sc0  1  1.00000000  1.00000000  0.56020350  1
  Sc  Sc1  1  1.00000000  0.46541807  0.98564723  1
  Sc  Sc2  1  0.46541807  1.00000000  0.98564723  1
  Sc  Sc3  1  0.53458193  0.53458193  0.52022916  1
  Si  Si0  1  0.33703655  0.33703655  0.00501615  1
  Si  Si1  1  0.66296345  1.00000000  0.66797960  1
  Si  Si2  1  0.00000000  0.66296345  0.66797960  1
  Sn  Sn0  1  0.71228701  0.71228701  0.01451918  1
  Sn  Sn1  1  0.28771299  0.00000000  0.30223217  1
  Sn  Sn2  1  1.00000000  0.28771299  0.30223217  1
  Ir  Ir0  1  0.74973758  0.25255826  0.50873590  1
  Ir  Ir1  1  0.74744174  0.49717932  0.25617663  1
  Ir  Ir2  1  0.50282068  0.25026242  0.75899731  1
  Ir  Ir3  1  0.25026242  0.50282068  0.75899731  1
  Ir  Ir4  1  0.25255826  0.74973758  0.50873590  1
  Ir  Ir5  1  0.49717932  0.74744174  0.25617663  1
  Ir  Ir6  1  0.00000000  0.00000000  0.94049530  1
loop_
_geom_bond_atom_site_label_1
_geom_bond_atom_site_label_2
_geom_bond_distance
_geom_bond_site_symmetry_2
Sc0 Si0 2.774617 1_666
Sc0 Si1 2.774617 1_555
Sc0 Si2 2.774618 1_655
Sc0 Sn0 3.218659 1_555
Sc0 Sn1 3.218659 1_665
Sc0 Sn2 3.218659 1_565
Sc1 Si0 2.824061 1_656
Sc1 Si1 2.824062 1_545
Sc1 Sn2 2.981486 1_556
Sc1 Si2 3.087842 1_655
Sc1 Sn0 3.132234 1_556
Sc1 Sn1 3.132234 1_666
Sc2 Si2 2.824062 1_555
Sc2 Si0 2.824062 1_566
Sc2 Sn1 2.981486 1_566
Sc2 Si1 3.087842 1_555
Sc2 Sn2 3.132234 1_566
Sc2 Sn0 3.132234 1_556
Sc3 Si2 2.824061 1_655
Sc3 Si1 2.824062 1_555
Sc3 Sn0 2.981486 1_556
Sc3 Si0 3.087842 1_555
Sc3 Sn2 3.132234 1_455
Sc3 Sn1 3.132234 1_555
Ir0 Si2 2.450167 1_655
Ir0 Si1 2.480538 1_545
Ir0 Sn2 2.701400 1_555
Ir0 Sn1 2.705023 1_555
Ir0 Sc1 2.822833 1_555
Ir0 Sc3 2.905855 1_555
Ir0 Sc0 2.953447 1_545
Ir0 Sc2 3.090259 1_544
Ir1 Si0 2.450166 1_555
Ir1 Si2 2.480543 1_655
Ir1 Sn0 2.701394 1_555
Ir1 Sn2 2.705024 1_555
Ir1 Sc3 2.822839 1_555
Ir1 Sc2 2.905855 1_544
Ir1 Sc0 2.953449 1_555
Ir1 Sc1 3.090253 1_554
Ir2 Si1 2.450166 1_545
Ir2 Si0 2.480543 1_556
Ir2 Sn1 2.701394 1_555
Ir2 Sn0 2.705024 1_556
Ir2 Sc2 2.822839 1_545
Ir2 Sc1 2.905855 1_555
Ir2 Sc0 2.953448 1_445
Ir2 Sc3 3.090253 1_555
Ir3 Si2 2.450166 1_555
Ir3 Si0 2.480543 1_556
Ir3 Sn2 2.701394 1_455
Ir3 Sn0 2.705024 1_556
Ir3 Sc1 2.822839 1_455
Ir3 Sc2 2.905855 1_555
Ir3 Sc0 2.953449 1_445
Ir3 Sc3 3.090253 1_555
Ir4 Si1 2.450167 1_555
Ir4 Si2 2.480538 1_555
Ir4 Sn1 2.701400 1_565
Ir4 Sn2 2.705023 1_455
Ir4 Sc2 2.822833 1_555
Ir4 Sc3 2.905855 1_555
Ir4 Sc0 2.953447 1_455
Ir4 Sc1 3.090259 1_454
Ir5 Si0 2.450166 1_555
Ir5 Si1 2.480543 1_555
Ir5 Sn0 2.701394 1_555
Ir5 Sn1 2.705024 1_565
Ir5 Sc3 2.822839 1_555
Ir5 Sc1 2.905855 1_454
Ir5 Sc0 2.953448 1_555
Ir5 Sc2 3.090253 1_554
Ir6 Si1 2.548375 1_445
Ir6 Si2 2.548375 1_545
Ir6 Si0 2.548375 1_556
Ir6 Sn1 2.734548 1_556
Ir6 Sn2 2.734548 1_456
Ir6 Sn0 2.734549 1_446
Ir6 Sc0 2.763908 1_445
Ir6 Sc2 3.230921 1_545
Ir6 Sc3 3.230921 1_445
Ir6 Sc1 3.230921 1_455
