# generated using pymatgen
data_ZrSnBr6
_symmetry_space_group_name_H-M   'P 1'
_cell_length_a   7.63579466
_cell_length_b   7.63579438
_cell_length_c   7.63579617
_cell_angle_alpha   56.17121680
_cell_angle_beta   56.17120928
_cell_angle_gamma   56.17121320
_symmetry_Int_Tables_number   1
_chemical_formula_structural   ZrSnBr6
_chemical_formula_sum   'Zr1 Sn1 Br6'
_cell_volume   286.90708286
_cell_formula_units_Z   1
loop_
 _symmetry_equiv_pos_site_id
 _symmetry_equiv_pos_as_xyz
  1  'x, y, z'
loop_
 _atom_site_type_symbol
 _atom_site_label
 _atom_site_symmetry_multiplicity
 _atom_site_fract_x
 _atom_site_fract_y
 _atom_site_fract_z
 _atom_site_occupancy
  Zr  Zr0  1  0.66669655  0.66669655  0.66669655  1
  Sn  Sn0  1  0.33392551  0.33392551  0.33392551  1
  Br  Br0  1  0.04525939  0.44618404  0.74746372  1
  Br  Br1  1  0.28894063  0.88817277  0.58335539  1
  Br  Br2  1  0.44618404  0.74746372  0.04525939  1
  Br  Br3  1  0.58335539  0.28894063  0.88817277  1
  Br  Br4  1  0.74746372  0.04525939  0.44618404  1
  Br  Br5  1  0.88817277  0.58335539  0.28894063  1
loop_
_geom_bond_atom_site_label_1
_geom_bond_atom_site_label_2
_geom_bond_distance
_geom_bond_site_symmetry_2
Br0 Zr0 2.642092 1_455
Br0 Sn0 2.953753 1_555
Br1 Zr0 2.645615 1_555
Br1 Sn0 2.947184 1_565
Br2 Zr0 2.642092 1_554
Br2 Sn0 2.953753 1_555
Br3 Zr0 2.645615 1_555
Br3 Sn0 2.947184 1_556
Br4 Zr0 2.642092 1_545
Br4 Sn0 2.953753 1_555
Br5 Zr0 2.645616 1_555
Br5 Sn0 2.947184 1_655
