# generated using pymatgen
data_Tc5MoP2
_symmetry_space_group_name_H-M   'P 1'
_cell_length_a   7.13502810
_cell_length_b   7.15230691
_cell_length_c   7.15230660
_cell_angle_alpha   96.75833010
_cell_angle_beta   96.56017928
_cell_angle_gamma   140.37259714
_symmetry_Int_Tables_number   1
_chemical_formula_structural   Tc5MoP2
_chemical_formula_sum   'Tc10 Mo2 P4'
_cell_volume   218.74411258
_cell_formula_units_Z   2
loop_
 _symmetry_equiv_pos_site_id
 _symmetry_equiv_pos_as_xyz
  1  'x, y, z'
loop_
 _atom_site_type_symbol
 _atom_site_label
 _atom_site_symmetry_multiplicity
 _atom_site_fract_x
 _atom_site_fract_y
 _atom_site_fract_z
 _atom_site_occupancy
  Tc  Tc0  1  0.90812670  0.90738001  0.41213192  1
  Tc  Tc1  1  0.09187330  0.50400521  0.99925330  1
  Tc  Tc2  1  0.49663924  0.08815869  0.99967336  1
  Tc  Tc3  1  0.50336076  0.50303412  0.59151945  1
  Tc  Tc4  1  1.00000000  0.34912070  0.34912070  1
  Tc  Tc5  1  0.64720701  0.99868656  0.65233462  1
  Tc  Tc6  1  0.35279299  0.00512761  0.35147955  1
  Tc  Tc7  1  0.00000000  0.65038710  0.65038710  1
  Tc  Tc8  1  0.10629542  0.10461057  0.80594512  1
  Tc  Tc9  1  0.89370458  0.69965070  0.99831515  1
  Mo  Mo0  1  0.69729575  0.88939634  0.99785605  1
  Mo  Mo1  1  0.30270425  0.30056031  0.19210059  1
  P  P0  1  0.50000000  0.20954161  0.70954161  1
  P  P1  1  0.79998209  0.50514396  0.29032333  1
  P  P2  1  0.20001791  0.49034124  0.70516187  1
  P  P3  1  0.50000000  0.79485527  0.29485527  1
loop_
_geom_bond_atom_site_label_1
_geom_bond_atom_site_label_2
_geom_bond_distance
_geom_bond_site_symmetry_2
Mo0 P2 2.532718 1_555
Mo0 P3 2.550741 1_556
Mo0 Tc9 2.595243 1_555
Mo0 Tc2 2.684399 1_565
Mo0 Tc8 2.694902 1_665
Mo0 Mo1 2.708610 1_666
Mo0 Tc5 2.743926 1_555
Mo0 Tc4 2.768499 1_566
Mo0 Tc1 2.816473 1_555
Mo0 Tc1 2.858177 1_665
Mo0 Tc3 3.049252 1_555
Mo0 Tc0 3.106887 1_556
Mo1 P1 2.532718 1_555
Mo1 P3 2.550741 1_555
Mo1 Tc8 2.595249 1_554
Mo1 Tc3 2.684398 1_555
Mo1 Tc9 2.694897 1_444
Mo1 Tc6 2.743926 1_555
Mo1 Tc4 2.768499 1_455
Mo1 Tc0 2.816472 1_555
Mo1 Tc0 2.858177 1_445
Mo1 Tc2 3.049252 1_554
Mo1 Tc1 3.106887 1_554
P0 Tc2 2.337455 1_555
P0 Tc3 2.337455 1_555
P0 Tc6 2.436789 1_555
P0 Tc5 2.436789 1_545
P0 Tc7 2.485822 1_545
P0 Tc7 2.485822 1_655
P0 Tc8 2.499299 1_555
P0 Tc9 2.499302 1_555
P1 Tc0 2.338375 1_555
P1 Tc2 2.338805 1_554
P1 Tc4 2.425985 1_555
P1 Tc7 2.448428 1_655
P1 Tc6 2.459072 1_665
P1 Tc6 2.504253 1_555
P1 Tc9 2.512853 1_554
P2 Tc1 2.338375 1_555
P2 Tc3 2.338805 1_555
P2 Tc4 2.425985 1_455
P2 Tc7 2.448428 1_555
P2 Tc5 2.459072 1_445
P2 Tc5 2.504253 1_555
P2 Tc8 2.512850 1_555
P3 Tc1 2.346037 1_554
P3 Tc0 2.346037 1_555
P3 Tc5 2.432309 1_555
P3 Tc6 2.432309 1_565
P3 Tc4 2.475733 1_565
P3 Tc4 2.475733 1_455
