# generated using pymatgen
data_Sc10GaSi2As3
_symmetry_space_group_name_H-M   'P 1'
_cell_length_a   7.92150140
_cell_length_b   7.93426083
_cell_length_c   5.82048943
_cell_angle_alpha   90.00000000
_cell_angle_beta   90.00000000
_cell_angle_gamma   120.03559002
_symmetry_Int_Tables_number   1
_chemical_formula_structural   Sc10GaSi2As3
_chemical_formula_sum   'Sc10 Ga1 Si2 As3'
_cell_volume   316.70013701
_cell_formula_units_Z   1
loop_
 _symmetry_equiv_pos_site_id
 _symmetry_equiv_pos_as_xyz
  1  'x, y, z'
loop_
 _atom_site_type_symbol
 _atom_site_label
 _atom_site_symmetry_multiplicity
 _atom_site_fract_x
 _atom_site_fract_y
 _atom_site_fract_z
 _atom_site_occupancy
  Sc  Sc0  1  0.33692710  0.66874513  0.00047837  1
  Sc  Sc1  1  0.66515377  0.33254284  0.49945604  1
  Sc  Sc2  1  0.66515377  0.33254284  0.00054396  1
  Sc  Sc3  1  0.33692710  0.66874513  0.49952163  1
  Sc  Sc4  1  0.24377048  0.00129489  0.25000000  1
  Sc  Sc5  1  0.24804063  0.24254059  0.75000000  1
  Sc  Sc6  1  0.00102997  0.75673181  0.75000000  1
  Sc  Sc7  1  0.99388666  0.24190719  0.25000000  1
  Sc  Sc8  1  0.75341361  0.76031506  0.25000000  1
  Sc  Sc9  1  0.75718149  0.99586286  0.75000000  1
  Ga  Ga0  1  0.39576943  0.99920592  0.75000000  1
  Si  Si0  1  0.60454508  0.00153212  0.25000000  1
  Si  Si1  1  0.61020380  0.60817308  0.75000000  1
  As  As0  1  0.00130765  0.38673848  0.75000000  1
  As  As1  1  0.99924554  0.61342968  0.25000000  1
  As  As2  1  0.38744391  0.38969435  0.25000000  1
loop_
_geom_bond_atom_site_label_1
_geom_bond_atom_site_label_2
_geom_bond_distance
_geom_bond_site_symmetry_2
Sc0 Si0 2.823417 1_565
Sc0 Si1 2.843264 1_554
Sc1 Si0 2.823824 1_555
Sc1 Si1 2.837546 1_555
Sc2 Si0 2.823824 1_555
Sc2 Si1 2.837546 1_554
Sc3 Si0 2.823417 1_565
Sc3 Si1 2.843264 1_555
Sc4 Si0 2.856935 1_555
Sc5 Si1 2.883532 1_555
Sc6 Si1 2.705738 1_455
Sc7 Si0 2.694635 1_555
Sc8 Si0 2.704253 1_565
Sc8 Si1 3.137316 1_555
Sc8 Si1 3.137316 1_554
Sc9 Si1 2.689294 1_555
Sc9 Si0 3.160370 1_566
Sc9 Si0 3.160370 1_565
Ga0 Sc5 2.712702 1_565
Ga0 Sc6 2.730691 1_555
Ga0 Sc0 2.827363 1_556
Ga0 Sc3 2.827363 1_555
Ga0 Sc2 2.832893 1_566
Ga0 Sc1 2.832893 1_565
Ga0 Sc9 2.876294 1_555
Ga0 Sc4 3.152703 1_565
Ga0 Sc4 3.152703 1_566
As0 Sc9 2.711821 1_445
As0 Sc5 2.714328 1_555
As0 Sc0 2.871427 1_556
As0 Sc3 2.871427 1_555
As0 Sc2 2.873322 1_456
As0 Sc1 2.873322 1_455
As0 Sc6 2.936725 1_555
As0 Sc7 3.118630 1_455
As0 Sc7 3.118630 1_456
As1 Sc4 2.693534 1_665
As1 Sc8 2.724402 1_555
As1 Sc1 2.859116 1_555
As1 Sc2 2.859116 1_555
As1 Sc3 2.877842 1_655
As1 Sc0 2.877842 1_655
As1 Sc7 2.926739 1_555
As1 Sc6 3.121922 1_654
As1 Sc6 3.121922 1_655
As2 Sc4 2.698313 1_555
As2 Sc7 2.726651 1_455
As2 Sc3 2.838740 1_555
As2 Sc0 2.838740 1_555
As2 Sc1 2.855151 1_555
As2 Sc2 2.855151 1_555
As2 Sc8 2.918467 1_555
As2 Sc5 3.124333 1_555
As2 Sc5 3.124333 1_554
