# generated using pymatgen
data_Sr3Bi(Pt2O7)2
_symmetry_space_group_name_H-M   'P 1'
_cell_length_a   7.28666532
_cell_length_b   7.42253343
_cell_length_c   7.28666522
_cell_angle_alpha   60.60369386
_cell_angle_beta   60.00000046
_cell_angle_gamma   60.60369124
_symmetry_Int_Tables_number   1
_chemical_formula_structural   Sr3Bi(Pt2O7)2
_chemical_formula_sum   'Sr3 Bi1 Pt4 O14'
_cell_volume   281.18876888
_cell_formula_units_Z   1
loop_
 _symmetry_equiv_pos_site_id
 _symmetry_equiv_pos_as_xyz
  1  'x, y, z'
loop_
 _atom_site_type_symbol
 _atom_site_label
 _atom_site_symmetry_multiplicity
 _atom_site_fract_x
 _atom_site_fract_y
 _atom_site_fract_z
 _atom_site_occupancy
  Sr  Sr0  1  0.12500000  0.12500000  0.62500000  1
  Sr  Sr1  1  0.62500000  0.12500000  0.12500000  1
  Sr  Sr2  1  0.12500000  0.12500000  0.12500000  1
  Bi  Bi0  1  0.12500000  0.62500000  0.12500000  1
  Pt  Pt0  1  0.62500000  0.62500000  0.12500000  1
  Pt  Pt1  1  0.62500000  0.12500000  0.62500000  1
  Pt  Pt2  1  0.12500000  0.62500000  0.62500000  1
  Pt  Pt3  1  0.62500000  0.62500000  0.62500000  1
  O  O0  1  0.23482812  0.29551663  0.23482812  1
  O  O1  1  0.01517188  0.95448337  0.01517188  1
  O  O2  1  0.54802416  0.94944731  0.54802416  1
  O  O3  1  0.29265541  0.69440351  0.29265541  1
  O  O4  1  0.52971332  0.55559649  0.95734459  1
  O  O5  1  0.95734459  0.55559649  0.52971332  1
  O  O6  1  0.54802416  0.94944731  0.95450536  1
  O  O7  1  0.95450536  0.94944731  0.54802416  1
  O  O8  1  0.95734459  0.55559649  0.95734459  1
  O  O9  1  0.70197584  0.30055269  0.29549464  1
  O  O10  1  0.29265541  0.69440351  0.72028668  1
  O  O11  1  0.70197584  0.30055269  0.70197584  1
  O  O12  1  0.29549464  0.30055269  0.70197584  1
  O  O13  1  0.72028668  0.69440351  0.29265541  1
loop_
_geom_bond_atom_site_label_1
_geom_bond_atom_site_label_2
_geom_bond_distance
_geom_bond_site_symmetry_2
Bi0 O1 2.014852 1_555
Bi0 O0 2.014852 1_555
Bi0 O4 2.445046 1_554
Bi0 O13 2.445046 1_455
Bi0 O5 2.445046 1_455
Bi0 O10 2.445046 1_554
Bi0 O3 2.445053 1_555
Bi0 O8 2.445053 1_454
O0 Sr1 2.347749 1_555
O0 Sr0 2.347749 1_555
O0 Sr2 2.347754 1_555
O1 Sr1 2.347749 1_465
O1 Sr0 2.347749 1_564
O1 Sr2 2.347754 1_565
O2 Pt1 2.019093 1_565
O2 Pt3 2.022688 1_555
O2 Sr0 2.561148 1_565
O2 Sr1 2.561148 1_565
O3 Pt0 2.014207 1_555
O3 Pt2 2.014207 1_555
O3 Sr2 2.650720 1_565
O4 Pt3 2.014206 1_555
O4 Pt0 2.014212 1_556
O4 Sr1 2.650720 1_556
O5 Pt3 2.014206 1_555
O5 Pt2 2.014212 1_655
O5 Sr0 2.650720 1_655
O6 Pt1 2.019099 1_565
O6 Pt0 2.022687 1_556
O6 Sr1 2.561141 1_566
O6 Sr2 2.561147 1_566
O7 Pt1 2.019098 1_565
O7 Pt2 2.022687 1_655
O7 Sr0 2.561141 1_665
O7 Sr2 2.561147 1_665
O8 Pt0 2.014207 1_556
O8 Pt2 2.014207 1_655
O8 Sr2 2.650720 1_656
O9 Pt1 2.019099 1_555
O9 Pt0 2.022687 1_555
O9 Sr1 2.561141 1_555
O9 Sr2 2.561147 1_655
O10 Pt3 2.014206 1_555
O10 Pt2 2.014212 1_555
O10 Sr0 2.650720 1_565
O11 Pt1 2.019093 1_555
O11 Pt3 2.022688 1_555
O11 Sr0 2.561148 1_655
O11 Sr1 2.561148 1_556
O12 Pt1 2.019098 1_555
O12 Pt2 2.022687 1_555
O12 Sr0 2.561141 1_555
O12 Sr2 2.561147 1_556
O13 Pt3 2.014206 1_555
O13 Pt0 2.014212 1_555
O13 Sr1 2.650720 1_565
