# generated using pymatgen
data_Ta2Ti4P4Rh
_symmetry_space_group_name_H-M   'P 1'
_cell_length_a   7.29446386
_cell_length_b   7.29446507
_cell_length_c   13.73293580
_cell_angle_alpha   76.14933473
_cell_angle_beta   76.14933205
_cell_angle_gamma   27.38241763
_symmetry_Int_Tables_number   1
_chemical_formula_structural   Ta2Ti4P4Rh
_chemical_formula_sum   'Ta4 Ti8 P8 Rh2'
_cell_volume   325.71619450
_cell_formula_units_Z   2
loop_
 _symmetry_equiv_pos_site_id
 _symmetry_equiv_pos_as_xyz
  1  'x, y, z'
loop_
 _atom_site_type_symbol
 _atom_site_label
 _atom_site_symmetry_multiplicity
 _atom_site_fract_x
 _atom_site_fract_y
 _atom_site_fract_z
 _atom_site_occupancy
  Ta  Ta0  1  0.00000000  0.00000000  0.00000000  1
  Ta  Ta1  1  0.50000000  0.50000000  0.50000000  1
  Ta  Ta2  1  0.42561939  0.42561939  0.17347599  1
  Ta  Ta3  1  0.57438061  0.57438061  0.82652401  1
  Ti  Ti0  1  0.21190473  0.21190473  0.20990766  1
  Ti  Ti1  1  0.78809527  0.78809527  0.79009234  1
  Ti  Ti2  1  0.34012530  0.34012530  0.96662889  1
  Ti  Ti3  1  0.65987470  0.65987470  0.03337111  1
  Ti  Ti4  1  0.00318794  0.00318794  0.33600022  1
  Ti  Ti5  1  0.99681206  0.99681206  0.66399978  1
  Ti  Ti6  1  0.17489680  0.17489680  0.46596149  1
  Ti  Ti7  1  0.82510320  0.82510320  0.53403851  1
  P  P0  1  0.18329049  0.18329049  0.89665299  1
  P  P1  1  0.81670951  0.81670951  0.10334701  1
  P  P2  1  0.37071811  0.37071811  0.39456123  1
  P  P3  1  0.62928189  0.62928189  0.60543877  1
  P  P4  1  0.36390753  0.36390753  0.65830850  1
  P  P5  1  0.63609247  0.63609247  0.34169150  1
  P  P6  1  0.06300818  0.06300818  0.15516308  1
  P  P7  1  0.93699182  0.93699182  0.84483692  1
  Rh  Rh0  1  0.19394033  0.19394033  0.67735099  1
  Rh  Rh1  1  0.80605967  0.80605967  0.32264901  1
loop_
_geom_bond_atom_site_label_1
_geom_bond_atom_site_label_2
_geom_bond_distance
_geom_bond_site_symmetry_2
P0 Ti1 2.501587 1_545
P0 Ti1 2.501588 1_455
P0 Ti3 2.511793 1_456
P0 Ti3 2.511793 1_546
P0 Ti2 2.630228 1_555
P0 Ta0 2.635720 1_556
P0 Ta3 2.650308 1_455
P0 Ta3 2.650309 1_545
P0 Rh0 2.978062 1_555
P1 Ti0 2.501587 1_565
P1 Ti0 2.501588 1_655
P1 Ti2 2.511793 1_654
P1 Ti2 2.511793 1_564
P1 Ti3 2.630228 1_555
P1 Ta0 2.635720 1_665
P1 Ta2 2.650308 1_655
P1 Ta2 2.650309 1_565
P1 Rh1 2.978062 1_555
P2 Rh1 2.289572 1_455
P2 Rh1 2.289572 1_545
P2 Ti4 2.531634 1_655
P2 Ti4 2.531635 1_565
P2 Ti7 2.541162 1_455
P2 Ti7 2.541163 1_545
P2 Ta1 2.600433 1_555
P2 Ti6 2.706380 1_555
P2 Ta2 2.942699 1_555
P3 Rh0 2.289572 1_655
P3 Rh0 2.289572 1_565
P3 Ti5 2.531634 1_455
P3 Ti5 2.531635 1_545
P3 Ti6 2.541162 1_655
P3 Ti6 2.541163 1_565
P3 Ta1 2.600433 1_555
P3 Ti7 2.706380 1_555
P3 Ta3 2.942699 1_555
P4 Rh0 2.358405 1_555
P4 Ta1 2.526056 1_555
P4 Ti1 2.540189 1_455
P4 Ti1 2.540190 1_545
P4 Ti5 2.570679 1_545
P4 Ti5 2.570680 1_455
P4 Ti7 2.580392 1_455
P4 Ti7 2.580392 1_545
P5 Rh1 2.358405 1_555
P5 Ta1 2.526056 1_555
P5 Ti0 2.540189 1_655
P5 Ti0 2.540190 1_565
P5 Ti4 2.570679 1_565
P5 Ti4 2.570680 1_655
P5 Ti6 2.580392 1_655
P5 Ti6 2.580392 1_565
P6 Ti0 2.408609 1_555
P6 Ti4 2.418405 1_555
P6 Ta0 2.505182 1_555
P6 Ti3 2.555750 1_545
P6 Ti3 2.555751 1_455
P6 Ta2 2.568102 1_455
P6 Ta2 2.568103 1_545
P7 Ti1 2.408609 1_555
P7 Ti5 2.418405 1_555
P7 Ta0 2.505182 1_666
P7 Ti2 2.555750 1_565
P7 Ti2 2.555751 1_655
P7 Ta3 2.568102 1_655
P7 Ta3 2.568103 1_565
Rh0 Ti5 2.844905 1_445
Rh0 Ti1 2.859612 1_545
Rh0 Ti1 2.859613 1_455
Rh0 Ta3 2.887683 1_455
Rh0 Ta3 2.887684 1_545
Rh0 Ti7 2.916785 1_545
Rh0 Ti7 2.916786 1_455
Rh0 Ti6 2.981009 1_555
Rh1 Ti4 2.844905 1_665
Rh1 Ti0 2.859612 1_565
Rh1 Ti0 2.859613 1_655
Rh1 Ta2 2.887683 1_655
Rh1 Ta2 2.887684 1_565
Rh1 Ti6 2.916785 1_565
Rh1 Ti6 2.916786 1_655
Rh1 Ti7 2.981009 1_555
