# generated using pymatgen
data_RbY3Se5
_symmetry_space_group_name_H-M   'P 1'
_cell_length_a   4.14070275
_cell_length_b   12.30091918
_cell_length_c   21.98133559
_cell_angle_alpha   90.00000000
_cell_angle_beta   90.00000000
_cell_angle_gamma   90.00000000
_symmetry_Int_Tables_number   1
_chemical_formula_structural   RbY3Se5
_chemical_formula_sum   'Rb4 Y12 Se20'
_cell_volume   1119.60723449
_cell_formula_units_Z   4
loop_
 _symmetry_equiv_pos_site_id
 _symmetry_equiv_pos_as_xyz
  1  'x, y, z'
loop_
 _atom_site_type_symbol
 _atom_site_label
 _atom_site_symmetry_multiplicity
 _atom_site_fract_x
 _atom_site_fract_y
 _atom_site_fract_z
 _atom_site_occupancy
  Rb  Rb0  1  0.25000000  0.83646270  0.09932030  1
  Rb  Rb1  1  0.75000000  0.16353730  0.90067970  1
  Rb  Rb2  1  0.75000000  0.33646270  0.40067970  1
  Rb  Rb3  1  0.25000000  0.66353730  0.59932030  1
  Y  Y0  1  0.75000000  0.81225101  0.83102361  1
  Y  Y1  1  0.25000000  0.18774899  0.16897639  1
  Y  Y2  1  0.25000000  0.31225101  0.66897639  1
  Y  Y3  1  0.75000000  0.68774899  0.33102361  1
  Y  Y4  1  0.25000000  0.96997964  0.70060494  1
  Y  Y5  1  0.75000000  0.03002036  0.29939506  1
  Y  Y6  1  0.75000000  0.46997964  0.79939506  1
  Y  Y7  1  0.25000000  0.53002036  0.20060494  1
  Y  Y8  1  0.75000000  0.38648796  0.05128545  1
  Y  Y9  1  0.25000000  0.61351204  0.94871455  1
  Y  Y10  1  0.25000000  0.88648796  0.44871455  1
  Y  Y11  1  0.75000000  0.11351204  0.55128545  1
  Se  Se0  1  0.25000000  0.95272188  0.57086449  1
  Se  Se1  1  0.75000000  0.04727812  0.42913551  1
  Se  Se2  1  0.75000000  0.45272188  0.92913551  1
  Se  Se3  1  0.25000000  0.54727812  0.07086449  1
  Se  Se4  1  0.75000000  0.77066583  0.95867384  1
  Se  Se5  1  0.25000000  0.22933417  0.04132616  1
  Se  Se6  1  0.25000000  0.27066583  0.54132616  1
  Se  Se7  1  0.75000000  0.72933417  0.45867384  1
  Se  Se8  1  0.25000000  0.96751219  0.83007696  1
  Se  Se9  1  0.75000000  0.03248781  0.16992304  1
  Se  Se10  1  0.75000000  0.46751219  0.66992304  1
  Se  Se11  1  0.25000000  0.53248781  0.33007696  1
  Se  Se12  1  0.75000000  0.13936420  0.68229408  1
  Se  Se13  1  0.25000000  0.86063580  0.31770592  1
  Se  Se14  1  0.25000000  0.63936420  0.81770592  1
  Se  Se15  1  0.75000000  0.36063580  0.18229408  1
  Se  Se16  1  0.75000000  0.68315549  0.20209059  1
  Se  Se17  1  0.25000000  0.31684451  0.79790941  1
  Se  Se18  1  0.25000000  0.18315549  0.29790941  1
  Se  Se19  1  0.75000000  0.81684451  0.70209059  1
loop_
_geom_bond_atom_site_label_1
_geom_bond_atom_site_label_2
_geom_bond_distance
_geom_bond_site_symmetry_2
Rb0 Se9 3.536834 1_565
Rb0 Se9 3.536834 1_465
Rb0 Se16 3.598038 1_555
Rb0 Se16 3.598038 1_455
Rb0 Se3 3.611810 1_555
Rb0 Se4 3.807807 1_554
Rb0 Se4 3.807807 1_454
Rb1 Se8 3.536834 1_545
Rb1 Se8 3.536834 1_645
Rb1 Se17 3.598038 1_555
Rb1 Se17 3.598038 1_655
Rb1 Se2 3.611810 1_555
Rb1 Se5 3.807807 1_556
Rb1 Se5 3.807807 1_656
Rb2 Se11 3.536834 1_655
Rb2 Se11 3.536834 1_555
Rb2 Se18 3.598038 1_655
Rb2 Se18 3.598038 1_555
Rb2 Se1 3.611810 1_555
Rb2 Se6 3.807807 1_655
Rb2 Se6 3.807807 1_555
Rb3 Se10 3.536834 1_455
Rb3 Se10 3.536834 1_555
Rb3 Se19 3.598038 1_555
Rb3 Se19 3.598038 1_455
Rb3 Se0 3.611810 1_555
Rb3 Se7 3.807807 1_455
Rb3 Se7 3.807807 1_555
Se0 Y10 2.805909 1_555
Se0 Y4 2.859759 1_555
Se0 Y11 2.895433 1_465
Se0 Y11 2.895433 1_565
Se1 Y11 2.805909 1_555
Se1 Y5 2.859759 1_555
Se1 Y10 2.895433 1_645
Se1 Y10 2.895433 1_545
Se2 Y8 2.805909 1_556
Se2 Y6 2.859759 1_555
Se2 Y9 2.895433 1_555
Se2 Y9 2.895433 1_655
Se3 Y9 2.805909 1_554
Se3 Y7 2.859759 1_555
Se3 Y8 2.895433 1_455
Se3 Y8 2.895433 1_555
Se4 Y9 2.841003 1_655
Se4 Y9 2.841003 1_555
Se4 Y0 2.852169 1_555
Se5 Y8 2.841003 1_455
Se5 Y8 2.841003 1_555
Se5 Y1 2.852169 1_555
Se6 Y11 2.841003 1_455
Se6 Y11 2.841003 1_555
Se6 Y2 2.852169 1_555
Se7 Y10 2.841003 1_655
Se7 Y10 2.841003 1_555
Se7 Y3 2.852169 1_555
Se8 Y0 2.816795 1_455
Se8 Y0 2.816795 1_555
Se8 Y4 2.846130 1_555
Se9 Y1 2.816795 1_655
Se9 Y1 2.816795 1_555
Se9 Y5 2.846130 1_555
Se10 Y2 2.816795 1_555
Se10 Y2 2.816795 1_655
Se10 Y6 2.846130 1_555
Se11 Y3 2.816795 1_555
Se11 Y3 2.816795 1_455
Se11 Y7 2.846130 1_555
Se12 Y11 2.897250 1_555
Se12 Y4 2.964741 1_645
Se12 Y4 2.964741 1_545
Se12 Y2 2.982409 1_655
Se12 Y2 2.982409 1_555
Se13 Y10 2.897250 1_555
Se13 Y5 2.964741 1_565
Se13 Y5 2.964741 1_465
Se13 Y3 2.982409 1_555
Se13 Y3 2.982409 1_455
Se14 Y9 2.897250 1_555
Se14 Y6 2.964741 1_455
Se14 Y6 2.964741 1_555
Se14 Y0 2.982409 1_555
Se14 Y0 2.982409 1_455
Se15 Y8 2.897250 1_555
Se15 Y7 2.964741 1_555
Se15 Y7 2.964741 1_655
Se15 Y1 2.982409 1_655
Se15 Y1 2.982409 1_555
Se16 Y7 2.799242 1_555
Se16 Y7 2.799242 1_655
Se16 Y3 2.834683 1_555
Se17 Y6 2.799242 1_455
Se17 Y6 2.799242 1_555
Se17 Y2 2.834683 1_555
Se18 Y5 2.799242 1_455
Se18 Y5 2.799242 1_555
Se18 Y1 2.834683 1_555
Se19 Y4 2.799242 1_555
Se19 Y4 2.799242 1_655
Se19 Y0 2.834683 1_555
