# generated using pymatgen
data_CsH9Os
_symmetry_space_group_name_H-M   'P 1'
_cell_length_a   5.20938924
_cell_length_b   5.20938930
_cell_length_c   5.20938996
_cell_angle_alpha   93.66976483
_cell_angle_beta   93.66977049
_cell_angle_gamma   93.66975760
_symmetry_Int_Tables_number   1
_chemical_formula_structural   CsH9Os
_chemical_formula_sum   'Cs1 H9 Os1'
_cell_volume   140.46232398
_cell_formula_units_Z   1
loop_
 _symmetry_equiv_pos_site_id
 _symmetry_equiv_pos_as_xyz
  1  'x, y, z'
loop_
 _atom_site_type_symbol
 _atom_site_label
 _atom_site_symmetry_multiplicity
 _atom_site_fract_x
 _atom_site_fract_y
 _atom_site_fract_z
 _atom_site_occupancy
  Cs  Cs0  1  0.00000000  0.00000000  0.00000000  1
  H  H0  1  0.50000000  0.71401270  0.28598730  1
  H  H1  1  0.71401270  0.28598730  0.50000000  1
  H  H2  1  0.28598730  0.50000000  0.71401270  1
  H  H3  1  0.48229051  0.79055450  0.63991507  1
  H  H4  1  0.36008493  0.20944550  0.51770949  1
  H  H5  1  0.79055450  0.63991507  0.48229051  1
  H  H6  1  0.20944550  0.51770949  0.36008493  1
  H  H7  1  0.63991507  0.48229051  0.79055450  1
  H  H8  1  0.51770949  0.36008493  0.20944550  1
  Os  Os0  1  0.50000000  0.50000000  0.50000000  1
loop_
_geom_bond_atom_site_label_1
_geom_bond_atom_site_label_2
_geom_bond_distance
_geom_bond_site_symmetry_2
Cs0 H3 3.270538 1_444
Cs0 H8 3.270538 1_555
Cs0 H7 3.270538 1_444
Cs0 H6 3.270538 1_555
Cs0 H4 3.270538 1_555
Cs0 H5 3.270538 1_444
Cs0 H0 3.392298 1_545
Cs0 H2 3.392298 1_544
Cs0 H1 3.392298 1_454
Cs0 H1 3.392298 1_455
Cs0 H2 3.392298 1_554
Cs0 H0 3.392298 1_445
Cs0 H7 3.422534 1_454
Cs0 H8 3.422534 1_455
Cs0 H6 3.422535 1_545
Cs0 H3 3.422535 1_544
Cs0 H5 3.422535 1_445
Cs0 H4 3.422535 1_554
H0 Os0 1.626348 1_555
H1 Os0 1.626347 1_555
H2 Os0 1.626348 1_555
H3 Os0 1.648042 1_555
H4 Os0 1.648042 1_555
H5 Os0 1.648042 1_555
H6 Os0 1.648042 1_555
H7 Os0 1.648042 1_555
H8 Os0 1.648042 1_555
