# generated using pymatgen
data_NbSi2B4W9
_symmetry_space_group_name_H-M   'P 1'
_cell_length_a   7.00229482
_cell_length_b   7.03098728
_cell_length_c   7.02014433
_cell_angle_alpha   128.81788945
_cell_angle_beta   128.70568652
_cell_angle_gamma   75.35718104
_symmetry_Int_Tables_number   1
_chemical_formula_structural   NbSi2B4W9
_chemical_formula_sum   'Nb1 Si2 B4 W9'
_cell_volume   204.56468737
_cell_formula_units_Z   1
loop_
 _symmetry_equiv_pos_site_id
 _symmetry_equiv_pos_as_xyz
  1  'x, y, z'
loop_
 _atom_site_type_symbol
 _atom_site_label
 _atom_site_symmetry_multiplicity
 _atom_site_fract_x
 _atom_site_fract_y
 _atom_site_fract_z
 _atom_site_occupancy
  Nb  Nb0  1  0.97934170  0.80639831  0.50000000  1
  Si  Si0  1  0.25185477  0.25495917  0.00457790  1
  Si  Si1  1  0.74727687  0.75038126  0.99542210  1
  B  B0  1  0.12760690  0.62462440  0.75352842  1
  B  B1  1  0.87407747  0.37109398  0.24647158  1
  B  B2  1  0.61983751  0.87698332  0.50000000  1
  B  B3  1  0.37714316  0.12224721  0.50000000  1
  W  W0  1  0.99802621  0.99828269  0.00002554  1
  W  W1  1  0.49800066  0.49825715  0.99997446  1
  W  W2  1  0.80390034  0.30471942  0.82758087  1
  W  W3  1  0.19642145  0.69834119  0.17511757  1
  W  W4  1  0.47631947  0.97713854  0.17241913  1
  W  W5  1  0.30675996  0.47130629  0.50000000  1
  W  W6  1  0.02338389  0.20002723  0.50000000  1
  W  W7  1  0.52130388  0.02322362  0.82488243  1
  W  W8  1  0.69874376  0.52201623  0.50000000  1
loop_
_geom_bond_atom_site_label_1
_geom_bond_atom_site_label_2
_geom_bond_distance
_geom_bond_site_symmetry_2
Nb0 Si1 2.592054 1_554
Nb0 Si0 2.592054 1_666
Nb0 W0 2.781505 1_556
Nb0 W1 2.781505 1_554
Nb0 W5 2.841878 1_655
Nb0 W6 2.861161 1_665
Nb0 W3 3.109499 1_655
Nb0 W7 3.109499 1_665
Si0 W5 2.559012 1_555
Si0 W8 2.566374 1_555
Si0 W3 2.567607 1_555
Si0 W2 2.573142 1_454
Si0 W7 2.579061 1_554
Si0 W4 2.586781 1_545
Si0 W6 2.601119 1_554
Si0 W1 2.743660 1_554
Si0 W0 2.809874 1_445
Si1 W5 2.559012 1_555
Si1 W8 2.566374 1_555
Si1 W7 2.567607 1_565
Si1 W4 2.573142 1_556
Si1 W3 2.579061 1_656
Si1 W2 2.586781 1_555
Si1 W6 2.601119 1_666
Si1 W0 2.743660 1_556
Si1 W1 2.809874 1_555
B0 B1 2.177562 1_455
B0 W6 2.329879 1_555
B0 W8 2.346807 1_455
B0 W5 2.367866 1_555
B0 W1 2.379000 1_555
B0 W3 2.383218 1_556
B0 W4 2.386414 1_556
B0 Nb0 2.397700 1_455
B0 W0 2.403908 1_456
B1 W6 2.329865 1_655
B1 W8 2.346798 1_555
B1 W5 2.367875 1_655
B1 W0 2.378996 1_545
B1 W7 2.383207 1_554
B1 W2 2.386425 1_554
B1 Nb0 2.397714 1_555
B1 W1 2.403911 1_554
B2 B3 2.092867 1_565
B2 W7 2.324716 1_565
B2 W3 2.324716 1_555
B2 W4 2.361443 1_555
B2 W2 2.361443 1_565
B2 W1 2.413517 1_554
B2 W0 2.413517 1_556
B2 W8 2.415980 1_555
B2 Nb0 2.439617 1_555
B3 W7 2.336991 1_555
B3 W3 2.336991 1_545
B3 W4 2.347183 1_545
B3 W2 2.347183 1_555
B3 W5 2.377942 1_555
B3 W6 2.397983 1_555
B3 W1 2.409951 1_555
B3 W0 2.409951 1_445
