# generated using pymatgen
data_Mg2Zn11
_symmetry_space_group_name_H-M   'P 1'
_cell_length_a   8.41170576
_cell_length_b   8.41170576
_cell_length_c   8.41170576
_cell_angle_alpha   90.00000000
_cell_angle_beta   90.00000000
_cell_angle_gamma   90.00000000
_symmetry_Int_Tables_number   1
_chemical_formula_structural   Mg2Zn11
_chemical_formula_sum   'Mg6 Zn33'
_cell_volume   595.18532991
_cell_formula_units_Z   3
loop_
 _symmetry_equiv_pos_site_id
 _symmetry_equiv_pos_as_xyz
  1  'x, y, z'
loop_
 _atom_site_type_symbol
 _atom_site_label
 _atom_site_symmetry_multiplicity
 _atom_site_fract_x
 _atom_site_fract_y
 _atom_site_fract_z
 _atom_site_occupancy
  Mg  Mg0  1  0.30220505  0.00000000  0.50000000  1
  Mg  Mg1  1  0.50000000  0.30220505  -0.00000000  1
  Mg  Mg2  1  0.00000000  0.50000000  0.30220505  1
  Mg  Mg3  1  0.50000000  0.69779495  -0.00000000  1
  Mg  Mg4  1  0.00000000  0.50000000  0.69779495  1
  Mg  Mg5  1  0.69779495  0.00000000  0.50000000  1
  Zn  Zn0  1  0.50000000  0.50000000  0.50000000  1
  Zn  Zn1  1  0.22974277  0.00000000  -0.00000000  1
  Zn  Zn2  1  0.00000000  0.22974277  -0.00000000  1
  Zn  Zn3  1  0.00000000  0.00000000  0.22974277  1
  Zn  Zn4  1  0.00000000  0.77025723  -0.00000000  1
  Zn  Zn5  1  0.00000000  0.00000000  0.77025723  1
  Zn  Zn6  1  0.77025723  0.00000000  -0.00000000  1
  Zn  Zn7  1  0.16089799  0.50000000  -0.00000000  1
  Zn  Zn8  1  0.00000000  0.16089799  0.50000000  1
  Zn  Zn9  1  0.50000000  0.00000000  0.16089799  1
  Zn  Zn10  1  0.00000000  0.83910201  0.50000000  1
  Zn  Zn11  1  0.50000000  0.00000000  0.83910201  1
  Zn  Zn12  1  0.83910201  0.50000000  -0.00000000  1
  Zn  Zn13  1  0.21834956  0.21834956  0.21834956  1
  Zn  Zn14  1  0.78165044  0.78165044  0.21834956  1
  Zn  Zn15  1  0.21834956  0.78165044  0.78165044  1
  Zn  Zn16  1  0.78165044  0.21834956  0.78165044  1
  Zn  Zn17  1  0.78165044  0.78165044  0.78165044  1
  Zn  Zn18  1  0.21834956  0.21834956  0.78165044  1
  Zn  Zn19  1  0.78165044  0.21834956  0.21834956  1
  Zn  Zn20  1  0.21834956  0.78165044  0.21834956  1
  Zn  Zn21  1  0.50000000  0.23619669  0.34237780  1
  Zn  Zn22  1  0.34237780  0.50000000  0.23619669  1
  Zn  Zn23  1  0.23619669  0.34237780  0.50000000  1
  Zn  Zn24  1  0.76380331  0.65762220  0.50000000  1
  Zn  Zn25  1  0.34237780  0.50000000  0.76380331  1
  Zn  Zn26  1  0.76380331  0.34237780  0.50000000  1
  Zn  Zn27  1  0.65762220  0.50000000  0.23619669  1
  Zn  Zn28  1  0.65762220  0.50000000  0.76380331  1
  Zn  Zn29  1  0.23619669  0.65762220  0.50000000  1
  Zn  Zn30  1  0.50000000  0.76380331  0.65762220  1
  Zn  Zn31  1  0.50000000  0.23619669  0.65762220  1
  Zn  Zn32  1  0.50000000  0.76380331  0.34237780  1
loop_
_geom_bond_atom_site_label_1
_geom_bond_atom_site_label_2
_geom_bond_distance
_geom_bond_site_symmetry_2
Mg0 Zn10 2.879901 1_545
Mg0 Zn8 2.879901 1_555
Mg0 Zn30 2.910942 1_545
Mg0 Zn31 2.910942 1_555
Mg0 Zn21 2.910942 1_555
Mg0 Zn32 2.910942 1_545
Mg0 Zn23 2.933017 1_555
Mg0 Zn29 2.933017 1_545
Mg0 Zn13 3.079595 1_555
Mg0 Zn20 3.079595 1_545
Mg0 Zn15 3.079595 1_545
Mg0 Zn18 3.079595 1_555
Mg1 Zn11 2.879901 1_554
Mg1 Zn9 2.879901 1_555
Mg1 Zn28 2.910942 1_554
Mg1 Zn27 2.910942 1_555
Mg1 Zn25 2.910942 1_554
Mg1 Zn22 2.910942 1_555
Mg1 Zn21 2.933017 1_555
Mg1 Zn31 2.933017 1_554
Mg1 Zn13 3.079595 1_555
Mg1 Zn18 3.079595 1_554
Mg1 Zn16 3.079595 1_554
Mg1 Zn19 3.079595 1_555
Mg2 Zn12 2.879901 1_455
Mg2 Zn7 2.879901 1_555
Mg2 Zn24 2.910942 1_455
Mg2 Zn29 2.910942 1_555
Mg2 Zn26 2.910942 1_455
Mg2 Zn23 2.910942 1_555
Mg2 Zn22 2.933017 1_555
Mg2 Zn27 2.933017 1_455
Mg2 Zn13 3.079595 1_555
Mg2 Zn14 3.079595 1_455
Mg2 Zn19 3.079595 1_455
Mg2 Zn20 3.079595 1_555
Mg3 Zn9 2.879901 1_565
Mg3 Zn11 2.879901 1_564
Mg3 Zn28 2.910942 1_554
Mg3 Zn27 2.910942 1_555
Mg3 Zn25 2.910942 1_554
Mg3 Zn22 2.910942 1_555
Mg3 Zn32 2.933017 1_555
Mg3 Zn30 2.933017 1_554
Mg3 Zn15 3.079595 1_554
Mg3 Zn20 3.079595 1_555
Mg3 Zn17 3.079595 1_554
Mg3 Zn14 3.079595 1_555
Mg4 Zn12 2.879901 1_456
Mg4 Zn7 2.879901 1_556
Mg4 Zn29 2.910942 1_555
Mg4 Zn24 2.910942 1_455
Mg4 Zn26 2.910942 1_455
Mg4 Zn23 2.910942 1_555
Mg4 Zn25 2.933017 1_555
Mg4 Zn28 2.933017 1_455
Mg4 Zn17 3.079595 1_455
Mg4 Zn18 3.079595 1_555
Mg4 Zn16 3.079595 1_455
Mg4 Zn15 3.079595 1_555
Mg5 Zn8 2.879901 1_655
Mg5 Zn10 2.879901 1_645
Mg5 Zn30 2.910942 1_545
Mg5 Zn31 2.910942 1_555
Mg5 Zn32 2.910942 1_545
Mg5 Zn21 2.910942 1_555
Mg5 Zn26 2.933017 1_555
Mg5 Zn24 2.933017 1_545
Mg5 Zn19 3.079595 1_555
Mg5 Zn17 3.079595 1_545
Mg5 Zn14 3.079595 1_545
Mg5 Zn16 3.079595 1_555
Zn0 Zn31 2.584967 1_555
Zn0 Zn28 2.584967 1_555
Zn0 Zn29 2.584967 1_555
Zn0 Zn30 2.584967 1_555
Zn0 Zn27 2.584967 1_555
Zn0 Zn24 2.584967 1_555
Zn0 Zn22 2.584967 1_555
Zn0 Zn32 2.584967 1_555
Zn0 Zn26 2.584967 1_555
Zn0 Zn23 2.584967 1_555
Zn0 Zn21 2.584967 1_555
Zn0 Zn25 2.584967 1_555
Zn1 Zn15 2.599242 1_544
Zn1 Zn18 2.599242 1_554
Zn1 Zn20 2.599242 1_545
Zn1 Zn13 2.599242 1_555
Zn1 Zn9 2.645707 1_555
Zn1 Zn11 2.645707 1_554
Zn1 Zn2 2.733008 1_555
Zn1 Zn5 2.733008 1_554
Zn1 Zn3 2.733008 1_555
Zn1 Zn4 2.733008 1_545
Zn2 Zn7 2.645707 1_555
Zn2 Zn6 2.733008 1_455
Zn2 Zn5 2.733008 1_554
Zn2 Zn3 2.733008 1_555
Zn3 Zn8 2.645707 1_555
Zn3 Zn6 2.733008 1_455
Zn3 Zn4 2.733008 1_545
Zn4 Zn7 2.645707 1_555
Zn4 Zn5 2.733008 1_564
Zn4 Zn6 2.733008 1_465
Zn5 Zn8 2.645707 1_555
Zn5 Zn6 2.733008 1_456
Zn6 Zn9 2.645707 1_555
Zn10 Zn24 2.505556 1_455
Zn10 Zn29 2.505556 1_555
Zn10 Zn5 2.645707 1_565
Zn10 Zn3 2.645707 1_565
Zn10 Zn8 2.706853 1_565
Zn10 Zn15 3.036430 1_555
Zn10 Zn17 3.036430 1_455
Zn10 Zn14 3.036430 1_455
Zn10 Zn20 3.036430 1_555
Zn11 Zn30 2.505556 1_545
Zn11 Zn31 2.505556 1_555
Zn11 Zn6 2.645707 1_556
Zn11 Zn9 2.706853 1_556
Zn11 Zn15 3.036430 1_545
Zn11 Zn18 3.036430 1_555
Zn11 Zn17 3.036430 1_545
Zn11 Zn16 3.036430 1_555
Zn12 Zn28 2.505556 1_554
Zn12 Zn27 2.505556 1_555
Zn12 Zn4 2.645707 1_655
Zn12 Zn2 2.645707 1_655
Zn12 Zn7 2.706853 1_655
Zn12 Zn16 3.036430 1_554
Zn12 Zn17 3.036430 1_554
Zn12 Zn19 3.036430 1_555
Zn12 Zn14 3.036430 1_555
Zn13 Zn21 2.593051 1_555
Zn13 Zn22 2.593051 1_555
Zn13 Zn23 2.593051 1_555
Zn13 Zn3 2.599242 1_555
Zn13 Zn2 2.599242 1_555
Zn13 Zn9 3.036430 1_555
Zn13 Zn7 3.036430 1_555
Zn13 Zn8 3.036430 1_555
Zn14 Zn32 2.593051 1_555
Zn14 Zn24 2.593051 1_555
Zn14 Zn27 2.593051 1_555
Zn14 Zn3 2.599242 1_665
Zn14 Zn6 2.599242 1_565
Zn14 Zn4 2.599242 1_655
Zn14 Zn9 3.036430 1_565
Zn15 Zn25 2.593051 1_555
Zn15 Zn30 2.593051 1_555
Zn15 Zn29 2.593051 1_555
Zn15 Zn4 2.599242 1_556
Zn15 Zn5 2.599242 1_565
Zn15 Zn7 3.036430 1_556
Zn16 Zn26 2.593051 1_555
Zn16 Zn28 2.593051 1_555
Zn16 Zn31 2.593051 1_555
Zn16 Zn2 2.599242 1_656
Zn16 Zn6 2.599242 1_556
Zn16 Zn5 2.599242 1_655
Zn16 Zn8 3.036430 1_655
Zn17 Zn30 2.593051 1_555
Zn17 Zn24 2.593051 1_555
Zn17 Zn28 2.593051 1_555
Zn17 Zn6 2.599242 1_566
Zn17 Zn4 2.599242 1_656
Zn17 Zn5 2.599242 1_665
Zn18 Zn25 2.593051 1_555
Zn18 Zn23 2.593051 1_555
Zn18 Zn31 2.593051 1_555
Zn18 Zn2 2.599242 1_556
Zn18 Zn5 2.599242 1_555
Zn18 Zn7 3.036430 1_556
Zn18 Zn8 3.036430 1_555
Zn19 Zn21 2.593051 1_555
Zn19 Zn26 2.593051 1_555
Zn19 Zn27 2.593051 1_555
Zn19 Zn2 2.599242 1_655
Zn19 Zn3 2.599242 1_655
Zn19 Zn6 2.599242 1_555
Zn19 Zn8 3.036430 1_655
Zn19 Zn9 3.036430 1_555
Zn20 Zn22 2.593051 1_555
Zn20 Zn32 2.593051 1_555
Zn20 Zn29 2.593051 1_555
Zn20 Zn3 2.599242 1_565
Zn20 Zn4 2.599242 1_555
Zn20 Zn9 3.036430 1_565
Zn20 Zn7 3.036430 1_555
Zn21 Zn9 2.505556 1_555
Zn21 Zn31 2.651743 1_555
Zn21 Zn27 2.734922 1_555
Zn21 Zn26 2.734922 1_555
Zn21 Zn23 2.734922 1_555
Zn21 Zn22 2.734922 1_555
Zn22 Zn7 2.505556 1_555
Zn22 Zn27 2.651743 1_555
Zn22 Zn29 2.734922 1_555
Zn22 Zn23 2.734922 1_555
Zn22 Zn32 2.734922 1_555
Zn23 Zn8 2.505556 1_555
Zn23 Zn29 2.651743 1_555
Zn23 Zn31 2.734922 1_555
Zn23 Zn25 2.734922 1_555
Zn24 Zn26 2.651743 1_555
Zn24 Zn30 2.734922 1_555
Zn24 Zn27 2.734922 1_555
Zn24 Zn28 2.734922 1_555
Zn24 Zn32 2.734922 1_555
Zn25 Zn7 2.505556 1_556
Zn25 Zn28 2.651743 1_555
Zn25 Zn29 2.734922 1_555
Zn25 Zn30 2.734922 1_555
Zn25 Zn31 2.734922 1_555
Zn26 Zn8 2.505556 1_655
Zn26 Zn31 2.734922 1_555
Zn26 Zn27 2.734922 1_555
Zn26 Zn28 2.734922 1_555
Zn27 Zn32 2.734922 1_555
Zn28 Zn30 2.734922 1_555
Zn28 Zn31 2.734922 1_555
Zn29 Zn30 2.734922 1_555
Zn29 Zn32 2.734922 1_555
Zn30 Zn32 2.651743 1_555
Zn32 Zn9 2.505556 1_565
