# generated using pymatgen
data_BaSc2PbO5
_symmetry_space_group_name_H-M   'P 1'
_cell_length_a   4.13425056
_cell_length_b   5.95218338
_cell_length_c   22.18302022
_cell_angle_alpha   90.00000000
_cell_angle_beta   90.00000000
_cell_angle_gamma   90.00000000
_symmetry_Int_Tables_number   1
_chemical_formula_structural   BaSc2PbO5
_chemical_formula_sum   'Ba4 Sc8 Pb4 O20'
_cell_volume   545.87571248
_cell_formula_units_Z   4
loop_
 _symmetry_equiv_pos_site_id
 _symmetry_equiv_pos_as_xyz
  1  'x, y, z'
loop_
 _atom_site_type_symbol
 _atom_site_label
 _atom_site_symmetry_multiplicity
 _atom_site_fract_x
 _atom_site_fract_y
 _atom_site_fract_z
 _atom_site_occupancy
  Ba  Ba0  1  0.25000000  0.51313338  0.18734949  1
  Ba  Ba1  1  0.75000000  0.48686662  0.81265051  1
  Ba  Ba2  1  0.75000000  0.98686662  0.68734949  1
  Ba  Ba3  1  0.25000000  0.01313338  0.31265051  1
  Sc  Sc0  1  0.25000000  0.97618304  0.81449042  1
  Sc  Sc1  1  0.75000000  0.02381696  0.18550958  1
  Sc  Sc2  1  0.75000000  0.52381696  0.31449042  1
  Sc  Sc3  1  0.25000000  0.47618304  0.68550958  1
  Sc  Sc4  1  0.25000000  0.97905695  0.55432294  1
  Sc  Sc5  1  0.75000000  0.02094305  0.44567706  1
  Sc  Sc6  1  0.75000000  0.52094305  0.05432294  1
  Sc  Sc7  1  0.25000000  0.47905695  0.94567706  1
  Pb  Pb0  1  0.25000000  0.99468973  0.07328963  1
  Pb  Pb1  1  0.75000000  0.00531027  0.92671037  1
  Pb  Pb2  1  0.75000000  0.50531027  0.57328963  1
  Pb  Pb3  1  0.25000000  0.49468973  0.42671037  1
  O  O0  1  0.25000000  0.57460828  0.03780320  1
  O  O1  1  0.75000000  0.42539172  0.96219680  1
  O  O2  1  0.75000000  0.92539172  0.53780320  1
  O  O3  1  0.25000000  0.07460828  0.46219680  1
  O  O4  1  0.25000000  0.69509247  0.60533515  1
  O  O5  1  0.75000000  0.30490753  0.39466485  1
  O  O6  1  0.75000000  0.80490753  0.10533515  1
  O  O7  1  0.25000000  0.19509247  0.89466485  1
  O  O8  1  0.25000000  0.71058954  0.88331497  1
  O  O9  1  0.75000000  0.28941046  0.11668503  1
  O  O10  1  0.75000000  0.78941046  0.38331497  1
  O  O11  1  0.25000000  0.21058954  0.61668503  1
  O  O12  1  0.25000000  0.73660717  0.74774196  1
  O  O13  1  0.75000000  0.26339283  0.25225804  1
  O  O14  1  0.75000000  0.76339283  0.24774196  1
  O  O15  1  0.25000000  0.23660717  0.75225804  1
  O  O16  1  0.25000000  0.50872576  0.32446981  1
  O  O17  1  0.75000000  0.49127424  0.67553019  1
  O  O18  1  0.75000000  0.99127424  0.82446981  1
  O  O19  1  0.25000000  0.00872576  0.17553019  1
loop_
_geom_bond_atom_site_label_1
_geom_bond_atom_site_label_2
_geom_bond_distance
_geom_bond_site_symmetry_2
Ba0 O14 2.878654 1_555
Ba0 O14 2.878654 1_455
Ba0 O9 2.916074 1_555
Ba0 O9 2.916074 1_455
Ba0 O13 2.925049 1_555
Ba0 O13 2.925049 1_455
Ba0 O19 2.961486 1_565
Ba0 O19 3.013753 1_555
Ba0 O16 3.041856 1_555
Ba0 O6 3.255619 1_455
Ba0 O6 3.255619 1_555
Ba0 O0 3.337507 1_555
Ba1 O15 2.878654 1_555
Ba1 O15 2.878654 1_655
Ba1 O8 2.916074 1_555
Ba1 O8 2.916074 1_655
Ba1 O12 2.925049 1_555
Ba1 O12 2.925049 1_655
Ba1 O18 2.961486 1_545
Ba1 O18 3.013753 1_555
Ba1 O17 3.041856 1_555
Ba1 O7 3.255619 1_655
Ba1 O7 3.255619 1_555
Ba1 O1 3.337507 1_555
Ba2 O12 2.878654 1_655
Ba2 O12 2.878654 1_555
Ba2 O11 2.916074 1_565
Ba2 O11 2.916074 1_665
Ba2 O15 2.925049 1_665
Ba2 O15 2.925049 1_565
Ba2 O17 2.961486 1_555
Ba2 O17 3.013753 1_565
Ba2 O18 3.041856 1_555
Ba2 O4 3.255619 1_555
Ba2 O4 3.255619 1_655
Ba2 O2 3.337507 1_555
Ba3 O13 2.878654 1_455
Ba3 O13 2.878654 1_555
Ba3 O10 2.916074 1_445
Ba3 O10 2.916074 1_545
Ba3 O14 2.925049 1_445
Ba3 O14 2.925049 1_545
Ba3 O16 2.961486 1_555
Ba3 O16 3.013753 1_545
Ba3 O19 3.041856 1_555
Ba3 O5 3.255619 1_455
Ba3 O5 3.255619 1_555
Ba3 O3 3.337507 1_555
O0 Sc7 2.121300 1_554
O0 Sc6 2.123518 1_555
O0 Sc6 2.123518 1_455
O0 Pb0 2.621390 1_555
O1 Sc6 2.121300 1_556
O1 Sc7 2.123518 1_555
O1 Sc7 2.123518 1_655
O1 Pb1 2.621390 1_555
O2 Sc5 2.121300 1_565
O2 Sc4 2.123518 1_555
O2 Sc4 2.123518 1_655
O2 Pb2 2.621390 1_555
O3 Sc4 2.121300 1_545
O3 Sc5 2.123518 1_555
O3 Sc5 2.123518 1_455
O3 Pb3 2.621390 1_555
O4 Sc4 2.034044 1_555
O4 Sc3 2.204741 1_555
O4 Pb2 2.460564 1_555
O4 Pb2 2.460564 1_455
O5 Sc5 2.034044 1_555
O5 Sc2 2.204741 1_555
O5 Pb3 2.460564 1_555
O5 Pb3 2.460564 1_655
O6 Sc6 2.034044 1_555
O6 Sc1 2.204741 1_565
O6 Pb0 2.460564 1_655
O6 Pb0 2.460564 1_555
O7 Sc7 2.034044 1_555
O7 Sc0 2.204741 1_545
O7 Pb1 2.460564 1_555
O7 Pb1 2.460564 1_455
O8 Sc7 1.952682 1_555
O8 Sc0 2.197737 1_555
O9 Sc6 1.952682 1_555
O9 Sc1 2.197737 1_555
O10 Sc5 1.952682 1_565
O10 Sc2 2.197737 1_555
O11 Sc4 1.952682 1_545
O11 Sc3 2.197737 1_555
O12 Sc0 2.055698 1_555
O12 Sc3 2.075710 1_555
O13 Sc1 2.055698 1_555
O13 Sc2 2.075710 1_555
O14 Sc2 2.055698 1_555
O14 Sc1 2.075710 1_565
O15 Sc3 2.055698 1_555
O15 Sc0 2.075710 1_545
O16 Sc2 2.080885 1_455
O16 Sc2 2.080885 1_555
O16 Pb3 2.269543 1_555
O17 Sc3 2.080885 1_555
O17 Sc3 2.080885 1_655
O17 Pb2 2.269543 1_555
O18 Sc0 2.080885 1_655
O18 Sc0 2.080885 1_555
O18 Pb1 2.269543 1_565
O19 Sc1 2.080885 1_455
O19 Sc1 2.080885 1_555
O19 Pb0 2.269543 1_545
