# generated using pymatgen
data_Hf6Ti2Al15Ru7
_symmetry_space_group_name_H-M   'P 1'
_cell_length_a   8.74172926
_cell_length_b   8.74162658
_cell_length_c   8.74171459
_cell_angle_alpha   120.12843450
_cell_angle_beta   119.85759916
_cell_angle_gamma   90.01249203
_symmetry_Int_Tables_number   1
_chemical_formula_structural   Hf6Ti2Al15Ru7
_chemical_formula_sum   'Hf6 Ti2 Al15 Ru7'
_cell_volume   472.40352214
_cell_formula_units_Z   1
loop_
 _symmetry_equiv_pos_site_id
 _symmetry_equiv_pos_as_xyz
  1  'x, y, z'
loop_
 _atom_site_type_symbol
 _atom_site_label
 _atom_site_symmetry_multiplicity
 _atom_site_fract_x
 _atom_site_fract_y
 _atom_site_fract_z
 _atom_site_occupancy
  Hf  Hf0  1  0.79194061  0.28309033  0.06811883  1
  Hf  Hf1  1  0.21498069  0.28309996  0.49115475  1
  Hf  Hf2  1  0.21156923  0.71159529  0.50002401  1
  Hf  Hf3  1  0.21498472  0.72384152  0.93186222  1
  Hf  Hf4  1  0.79198333  0.72384927  0.50886158  1
  Hf  Hf5  1  0.77885793  0.27884080  0.49997406  1
  Ti  Ti0  1  0.38011059  0.12175470  0.74164137  1
  Ti  Ti1  1  0.38013322  0.63849884  0.25836365  1
  Al  Al0  1  0.99407495  0.49407756  0.49999932  1
  Al  Al1  1  0.16446259  0.33737737  0.17291301  1
  Al  Al2  1  0.16446253  0.99151109  0.82705320  1
  Al  Al3  1  0.15929503  0.34076680  0.81850954  1
  Al  Al4  1  0.52225288  0.34076432  0.18146446  1
  Al  Al5  1  0.83821154  0.65986034  0.82164865  1
  Al  Al6  1  0.83822059  0.01657756  0.17836569  1
  Al  Al7  1  0.83648783  0.66026110  0.17624488  1
  Al  Al8  1  0.48402316  0.66025922  0.82377250  1
  Al  Al9  1  0.38054339  0.12229772  0.25822645  1
  Al  Al10  1  0.86406667  0.12229390  0.74175574  1
  Al  Al11  1  0.61934959  0.87485570  0.25549471  1
  Al  Al12  1  0.61934677  0.36384938  0.74451327  1
  Al  Al13  1  0.61816145  0.87705887  0.74113019  1
  Al  Al14  1  0.13593159  0.87706715  0.25890068  1
  Ru  Ru0  1  0.00048291  0.99948713  0.50090982  1
  Ru  Ru1  1  0.49858251  0.99948974  0.99900623  1
  Ru  Ru2  1  0.49854353  0.49851066  0.99996774  1
  Ru  Ru3  1  0.49856642  0.49954370  0.49909752  1
  Ru  Ru4  1  0.00044398  0.49954766  0.00097637  1
  Ru  Ru5  1  0.00089394  0.00090498  0.00001016  1
  Ru  Ru6  1  0.49902685  0.99906333  0.50003940  1
loop_
_geom_bond_atom_site_label_1
_geom_bond_atom_site_label_2
_geom_bond_distance
_geom_bond_site_symmetry_2
Hf0 Ti0 2.970141 1_554
Hf0 Ru5 3.063715 1_655
Hf0 Ru4 3.070121 1_655
Hf0 Ru1 3.168357 1_544
Hf0 Ru2 3.175878 1_554
Hf1 Ti0 2.970144 1_555
Hf1 Ru5 3.063752 1_555
Hf1 Ru3 3.070020 1_555
Hf1 Ru0 3.168477 1_545
Hf1 Ru2 3.175853 1_555
Hf2 Ti0 2.963817 1_565
Hf2 Ti1 2.964317 1_555
Hf2 Ru0 3.120132 1_555
Hf2 Ru1 3.120164 1_555
Hf2 Ru4 3.120524 1_555
Hf2 Ru3 3.120530 1_555
Hf3 Ti1 2.970254 1_556
Hf3 Ru5 3.063847 1_566
Hf3 Ru1 3.070109 1_555
Hf3 Ru4 3.168992 1_556
Hf3 Ru2 3.176287 1_555
Hf4 Ti1 2.970297 1_555
Hf4 Ru5 3.063810 1_666
Hf4 Ru0 3.070025 1_655
Hf4 Ru3 3.169051 1_555
Hf4 Ru2 3.176310 1_554
Hf5 Ru1 3.118144 1_544
Hf5 Ru0 3.118214 1_645
Hf5 Ru3 3.118351 1_555
Hf5 Ru4 3.118397 1_656
Al0 Hf5 2.660318 1_555
Al0 Hf3 2.672631 1_655
Al0 Hf4 2.672636 1_555
Al0 Hf0 2.672728 1_555
Al0 Hf1 2.672748 1_655
Al0 Hf2 2.688494 1_655
Al1 Ru3 2.513677 1_555
Al1 Ru4 2.513699 1_555
Al1 Ru5 2.522643 1_555
Al1 Ti1 2.768231 1_555
Al1 Al10 2.768690 1_454
Al1 Al9 2.768696 1_555
Al1 Hf1 2.874277 1_555
Al1 Hf0 2.874311 1_455
Al1 Hf2 2.912735 1_555
Al1 Al2 3.017549 1_544
Al1 Al3 3.090940 1_554
Al1 Al4 3.090946 1_555
Al2 Ru0 2.513664 1_555
Al2 Ru1 2.513666 1_555
Al2 Ru5 2.522939 1_566
Al2 Ti0 2.767926 1_565
Al2 Al9 2.768750 1_566
Al2 Hf4 2.873862 1_455
Al2 Hf3 2.873875 1_555
Al2 Hf2 2.912030 1_555
Al2 Al4 3.090977 1_566
Al2 Al3 3.091022 1_565
Al3 Ru2 2.516145 1_555
Al3 Ru0 2.526121 1_545
Al3 Ru4 2.526425 1_556
Al3 Ti0 2.800832 1_555
Al3 Ti1 2.801054 1_556
Al3 Hf5 2.893486 1_455
Al3 Hf1 2.935821 1_555
Al3 Hf3 2.936074 1_555
Al4 Ru2 2.516108 1_554
Al4 Ru1 2.526101 1_544
Al4 Ru3 2.526435 1_555
Al4 Al9 2.783013 1_555
Al4 Ti0 2.800802 1_554
Al4 Ti1 2.801058 1_555
Al4 Hf5 2.893448 1_555
Al4 Hf0 2.935783 1_555
Al4 Hf4 2.936159 1_555
Al5 Ru4 2.534813 1_656
Al5 Ru3 2.534856 1_555
Al5 Ru5 2.542734 1_666
Al5 Hf3 2.896173 1_655
Al5 Hf4 2.896182 1_555
Al5 Hf5 2.900769 1_555
Al6 Ru0 2.534788 1_645
Al6 Ru1 2.534826 1_544
Al6 Ru5 2.542664 1_655
Al6 Hf0 2.895935 1_555
Al6 Hf1 2.895972 1_655
Al6 Hf5 2.900355 1_555
Al7 Ru2 2.525745 1_554
Al7 Ru0 2.530184 1_655
Al7 Ru4 2.530211 1_655
Al7 Hf4 2.901485 1_555
Al7 Hf0 2.901769 1_555
Al7 Hf2 2.906411 1_655
Al8 Ru2 2.525749 1_555
Al8 Ru3 2.530188 1_555
Al8 Ru1 2.530220 1_555
Al8 Hf3 2.901555 1_555
Al8 Hf1 2.901701 1_555
Al8 Hf2 2.906452 1_555
Al9 Ru6 2.609255 1_545
Al9 Ru3 2.690338 1_555
Al9 Ru1 2.690476 1_544
Al9 Ru5 2.714851 1_555
Al9 Hf5 2.868930 1_555
Al9 Hf3 2.876992 1_544
Al9 Hf1 2.877246 1_555
Al10 Ru6 2.609207 1_545
Al10 Ru4 2.690394 1_656
Al10 Ru0 2.690497 1_645
Al10 Ru5 2.714803 1_656
Al10 Al2 2.768799 1_645
Al10 Al3 2.783062 1_655
Al10 Hf5 2.869023 1_555
Al10 Hf4 2.876915 1_545
Al10 Hf0 2.877231 1_556
Al10 Al11 3.006252 1_545
Al10 Al12 3.006343 1_555
Al10 Al13 3.031693 1_545
Al11 Ru6 2.600850 1_555
Al11 Ru2 2.683384 1_554
Al11 Ru1 2.724835 1_554
Al11 Ru0 2.724917 1_655
Al11 Al8 2.758270 1_554
Al11 Al7 2.758307 1_555
Al11 Al6 2.787860 1_565
Al11 Hf5 2.904683 1_565
Al11 Hf3 2.921137 1_554
Al11 Hf4 2.921197 1_555
Al11 Ti1 2.957178 1_555
Al11 Al9 3.006173 1_565
Al12 Ru6 2.600234 1_545
Al12 Ru2 2.682791 1_555
Al12 Ru4 2.724657 1_656
Al12 Ru3 2.724741 1_555
Al12 Al7 2.758342 1_556
Al12 Al8 2.758346 1_555
Al12 Al5 2.787956 1_555
Al12 Hf5 2.905169 1_555
Al12 Hf0 2.921102 1_556
Al12 Hf1 2.921132 1_555
Al12 Ti0 2.957281 1_555
Al12 Al9 3.006415 1_555
Al13 Ru6 2.595250 1_555
Al13 Ru1 2.691599 1_555
Al13 Ru3 2.691996 1_555
Al13 Ru5 2.736309 1_666
Al13 Al8 2.775894 1_555
Al13 Al6 2.792028 1_566
Al13 Al5 2.792084 1_555
Al13 Hf0 2.926683 1_566
Al13 Hf4 2.927146 1_555
Al13 Hf2 2.940387 1_555
Al13 Ti0 2.984556 1_565
Al13 Ti1 2.984683 1_555
Al14 Ru6 2.595256 1_555
Al14 Ru0 2.691620 1_555
Al14 Ru4 2.692027 1_555
Al14 Ru5 2.736274 1_565
Al14 Al7 2.775968 1_455
Al14 Al6 2.791947 1_465
Al14 Al5 2.792109 1_454
Al14 Hf1 2.926685 1_565
Al14 Hf3 2.927156 1_554
Al14 Hf2 2.940407 1_555
Al14 Ti0 2.984519 1_565
Al14 Ti1 2.984703 1_555
Al14 Al9 3.031705 1_565
Ru0 Ti0 2.714943 1_565
Ru1 Ti0 2.714951 1_565
Ru2 Ti0 2.687511 1_555
Ru2 Ti1 2.687926 1_556
Ru3 Ti1 2.715385 1_555
Ru4 Ti1 2.715391 1_555
Ru6 Ti0 2.569846 1_565
Ru6 Ti1 2.570145 1_555
