# generated using pymatgen
data_Zn3AsI2Cl
_symmetry_space_group_name_H-M   'P 1'
_cell_length_a   4.20867100
_cell_length_b   6.83508403
_cell_length_c   7.32187790
_cell_angle_alpha   87.74151695
_cell_angle_beta   90.00000000
_cell_angle_gamma   90.00000000
_symmetry_Int_Tables_number   1
_chemical_formula_structural   Zn3AsI2Cl
_chemical_formula_sum   'Zn3 As1 I2 Cl1'
_cell_volume   210.46206702
_cell_formula_units_Z   1
loop_
 _symmetry_equiv_pos_site_id
 _symmetry_equiv_pos_as_xyz
  1  'x, y, z'
loop_
 _atom_site_type_symbol
 _atom_site_label
 _atom_site_symmetry_multiplicity
 _atom_site_fract_x
 _atom_site_fract_y
 _atom_site_fract_z
 _atom_site_occupancy
  Zn  Zn0  1  0.00000000  0.47055533  0.70576318  1
  Zn  Zn1  1  0.50000000  0.51427527  0.11778899  1
  Zn  Zn2  1  0.50000000  0.02353591  0.86748850  1
  As  As0  1  0.50000000  0.36969378  0.82927204  1
  I  I0  1  0.00000000  0.87569195  0.67261959  1
  I  I1  1  0.00000000  0.39034892  0.32966186  1
  Cl  Cl0  1  0.50000000  0.85189783  0.14405685  1
loop_
_geom_bond_atom_site_label_1
_geom_bond_atom_site_label_2
_geom_bond_distance
_geom_bond_site_symmetry_2
As0 Zn1 2.367219 1_556
As0 Zn2 2.371531 1_555
As0 Zn0 2.381627 1_555
As0 Zn0 2.381627 1_655
I0 Zn2 2.756593 1_465
I0 Zn2 2.756593 1_565
I0 Zn0 2.770213 1_555
I1 Zn1 2.729232 1_555
I1 Zn1 2.729232 1_455
I1 Zn0 2.828916 1_555
Cl0 Zn2 2.299933 1_564
Cl0 Zn1 2.323220 1_555
