# generated using pymatgen
data_Sr2Cu2P4Pd
_symmetry_space_group_name_H-M   'P 1'
_cell_length_a   8.17592748
_cell_length_b   8.17592769
_cell_length_c   8.17567720
_cell_angle_alpha   137.11333449
_cell_angle_beta   110.14998651
_cell_angle_gamma   85.57539689
_symmetry_Int_Tables_number   1
_chemical_formula_structural   Sr2Cu2P4Pd
_chemical_formula_sum   'Sr4 Cu4 P8 Pd2'
_cell_volume   335.77016044
_cell_formula_units_Z   2
loop_
 _symmetry_equiv_pos_site_id
 _symmetry_equiv_pos_as_xyz
  1  'x, y, z'
loop_
 _atom_site_type_symbol
 _atom_site_label
 _atom_site_symmetry_multiplicity
 _atom_site_fract_x
 _atom_site_fract_y
 _atom_site_fract_z
 _atom_site_occupancy
  Sr  Sr0  1  0.10025128  0.88950182  0.21081688  1
  Sr  Sr1  1  0.89974872  0.11049818  0.78918312  1
  Sr  Sr2  1  0.32131506  0.61056460  0.71081688  1
  Sr  Sr3  1  0.67868494  0.38943540  0.28918312  1
  Cu  Cu0  1  0.27072488  0.02072488  0.75000000  1
  Cu  Cu1  1  0.72920675  0.47920675  0.75000000  1
  Cu  Cu2  1  0.27079325  0.52079325  0.25000000  1
  Cu  Cu3  1  0.72927512  0.97927512  0.25000000  1
  P  P0  1  0.48995308  0.12721484  0.36277628  1
  P  P1  1  0.51004692  0.87278516  0.63722372  1
  P  P2  1  0.23556144  0.37282520  0.86277628  1
  P  P3  1  0.76443856  0.62717480  0.13722372  1
  P  P4  1  0.97864059  0.34829068  0.63022586  1
  P  P5  1  0.02135941  0.65170932  0.36977414  1
  P  P6  1  0.71806482  0.84841473  0.86977414  1
  P  P7  1  0.28193518  0.15158527  0.13022586  1
  Pd  Pd0  1  0.49991831  0.74991831  0.25000000  1
  Pd  Pd1  1  0.50008169  0.25008169  0.75000000  1
loop_
_geom_bond_atom_site_label_1
_geom_bond_atom_site_label_2
_geom_bond_distance
_geom_bond_site_symmetry_2
Cu0 P1 2.320613 1_545
Cu0 P2 2.320628 1_555
Cu0 P5 2.400323 1_545
Cu0 P7 2.400323 1_556
Cu0 Pd1 2.752334 1_555
Cu0 Sr1 3.134048 1_455
Cu0 Sr2 3.134056 1_545
Cu0 Sr0 3.404854 1_545
Cu0 Sr3 3.404854 1_556
Cu1 P0 2.319912 1_555
Cu1 P3 2.319920 1_556
Cu1 P4 2.401384 1_555
Cu1 P6 2.401384 1_555
Cu1 Pd1 2.749553 1_555
Cu1 Sr0 3.134606 1_656
Cu1 Sr3 3.134611 1_555
Cu1 Sr2 3.404859 1_555
Cu1 Sr1 3.404862 1_555
Cu2 P1 2.319912 1_555
Cu2 P2 2.319920 1_554
Cu2 P5 2.401384 1_555
Cu2 P7 2.401384 1_555
Cu2 Pd0 2.749553 1_555
Cu2 Sr1 3.134606 1_454
Cu2 Sr2 3.134611 1_555
Cu2 Sr3 3.404859 1_555
Cu2 Sr0 3.404862 1_555
Cu3 P0 2.320613 1_565
Cu3 P3 2.320628 1_555
Cu3 P4 2.400323 1_565
Cu3 P6 2.400323 1_554
Cu3 Pd0 2.752334 1_555
Cu3 Sr0 3.134048 1_655
Cu3 Sr3 3.134056 1_565
Cu3 Sr1 3.404854 1_565
Cu3 Sr2 3.404854 1_554
P0 P7 2.195921 1_555
P0 Pd1 2.492043 1_555
P0 Pd0 2.493493 1_545
P0 Sr0 3.187855 1_545
P0 Sr3 3.221748 1_555
P0 Sr2 3.316097 1_544
P0 Sr2 3.316438 1_555
P1 P6 2.195921 1_555
P1 Pd0 2.492043 1_555
P1 Pd1 2.493493 1_565
P1 Sr1 3.187855 1_565
P1 Sr2 3.221748 1_555
P1 Sr3 3.316097 1_566
P1 Sr3 3.316438 1_555
P2 P4 2.195913 1_455
P2 Pd0 2.492037 1_556
P2 Pd1 2.493494 1_555
P2 Sr2 3.187833 1_555
P2 Sr1 3.221751 1_455
P2 Sr0 3.316097 1_545
P2 Sr0 3.316432 1_556
P3 P5 2.195913 1_655
P3 Pd1 2.492037 1_554
P3 Pd0 2.493494 1_555
P3 Sr3 3.187833 1_555
P3 Sr0 3.221751 1_655
P3 Sr1 3.316097 1_565
P3 Sr1 3.316432 1_554
P4 Sr0 3.121186 1_645
P4 Sr0 3.122176 1_656
P4 Sr1 3.218430 1_555
P4 Sr3 3.230790 1_555
P4 Sr2 3.235188 1_655
P5 Sr1 3.121186 1_465
P5 Sr1 3.122176 1_454
P5 Sr0 3.218430 1_555
P5 Sr2 3.230790 1_555
P5 Sr3 3.235188 1_455
P6 Sr3 3.121191 1_566
P6 Sr3 3.122175 1_555
P6 Sr2 3.218433 1_555
P6 Sr0 3.230784 1_656
P6 Sr1 3.235192 1_565
P7 Sr2 3.121191 1_544
P7 Sr2 3.122175 1_555
P7 Sr3 3.218433 1_555
P7 Sr1 3.230784 1_454
P7 Sr0 3.235192 1_545
Pd0 Sr3 3.364767 1_555
Pd0 Sr0 3.364774 1_555
Pd0 Sr2 3.365188 1_554
Pd0 Sr1 3.365192 1_565
Pd1 Sr2 3.364767 1_555
Pd1 Sr1 3.364774 1_555
Pd1 Sr3 3.365188 1_556
Pd1 Sr0 3.365192 1_545
