# generated using pymatgen
data_ZnHg2SeO6
_symmetry_space_group_name_H-M   'P 1'
_cell_length_a   6.72816597
_cell_length_b   7.01380042
_cell_length_c   7.34229661
_cell_angle_alpha   74.76553328
_cell_angle_beta   67.17624669
_cell_angle_gamma   64.39266749
_symmetry_Int_Tables_number   1
_chemical_formula_structural   ZnHg2SeO6
_chemical_formula_sum   'Zn2 Hg4 Se2 O12'
_cell_volume   286.09437176
_cell_formula_units_Z   2
loop_
 _symmetry_equiv_pos_site_id
 _symmetry_equiv_pos_as_xyz
  1  'x, y, z'
loop_
 _atom_site_type_symbol
 _atom_site_label
 _atom_site_symmetry_multiplicity
 _atom_site_fract_x
 _atom_site_fract_y
 _atom_site_fract_z
 _atom_site_occupancy
  Zn  Zn0  1  0.33897407  0.13055198  0.20018534  1
  Zn  Zn1  1  0.66102593  0.86944802  0.79981466  1
  Hg  Hg0  1  0.84486943  0.63895258  0.19896043  1
  Hg  Hg1  1  0.15513057  0.36104742  0.80103957  1
  Hg  Hg2  1  0.65579111  0.36571530  0.80008961  1
  Hg  Hg3  1  0.34420889  0.63428470  0.19991039  1
  Se  Se0  1  0.79233856  0.12165460  0.32756175  1
  Se  Se1  1  0.20766144  0.87834540  0.67243825  1
  O  O0  1  0.63803290  0.16981064  0.17938515  1
  O  O1  1  0.45671266  0.18163067  0.87040424  1
  O  O2  1  0.93430481  0.92693526  0.81940030  1
  O  O3  1  0.77947926  0.90555406  0.48495435  1
  O  O4  1  0.30464056  0.66658519  0.56078436  1
  O  O5  1  0.16639949  0.45125248  0.22110420  1
  O  O6  1  0.22052074  0.09444594  0.51504565  1
  O  O7  1  0.54328734  0.81836933  0.12959576  1
  O  O8  1  0.36196710  0.83018936  0.82061485  1
  O  O9  1  0.83360051  0.54874752  0.77889580  1
  O  O10  1  0.69535944  0.33341481  0.43921564  1
  O  O11  1  0.06569519  0.07306474  0.18059970  1
loop_
_geom_bond_atom_site_label_1
_geom_bond_atom_site_label_2
_geom_bond_distance
_geom_bond_site_symmetry_2
Hg0 O5 2.034223 1_655
Hg0 O7 2.053752 1_555
Hg1 O9 2.034223 1_455
Hg1 O1 2.053752 1_555
Hg2 O9 2.044890 1_555
Hg2 O1 2.082245 1_555
Hg3 O5 2.044890 1_555
Hg3 O7 2.082245 1_555
O0 Se0 1.660006 1_555
O0 Zn0 2.089540 1_555
O1 Zn1 2.096300 1_545
O1 Zn0 2.218148 1_556
O2 Se1 1.665813 1_655
O2 Zn1 2.107219 1_555
O3 Se0 1.659978 1_565
O3 Zn1 2.116869 1_555
O4 Se1 1.640419 1_555
O5 Zn0 2.053505 1_555
O6 Se1 1.659978 1_545
O6 Zn0 2.116869 1_555
O7 Zn0 2.096300 1_565
O7 Zn1 2.218148 1_554
O8 Se1 1.660006 1_555
O8 Zn1 2.089540 1_555
O9 Zn1 2.053505 1_555
O10 Se0 1.640419 1_555
O11 Se0 1.665813 1_455
O11 Zn0 2.107219 1_555
