# generated using pymatgen
data_CsSn2Cl5
_symmetry_space_group_name_H-M   'P 1'
_cell_length_a   8.18612555
_cell_length_b   8.18633201
_cell_length_c   9.57036601
_cell_angle_alpha   115.31716283
_cell_angle_beta   115.32046685
_cell_angle_gamma   90.00000547
_symmetry_Int_Tables_number   1
_chemical_formula_structural   CsSn2Cl5
_chemical_formula_sum   'Cs2 Sn4 Cl10'
_cell_volume   510.76042701
_cell_formula_units_Z   2
loop_
 _symmetry_equiv_pos_site_id
 _symmetry_equiv_pos_as_xyz
  1  'x, y, z'
loop_
 _atom_site_type_symbol
 _atom_site_label
 _atom_site_symmetry_multiplicity
 _atom_site_fract_x
 _atom_site_fract_y
 _atom_site_fract_z
 _atom_site_occupancy
  Cs  Cs0  1  0.25000411  0.25000000  0.50000000  1
  Cs  Cs1  1  0.74999589  0.75000000  0.50000000  1
  Sn  Sn0  1  0.68286439  0.18285632  0.00001942  1
  Sn  Sn1  1  0.81715603  0.68285632  0.00001942  1
  Sn  Sn2  1  0.18284397  0.31714368  -0.00001942  1
  Sn  Sn3  1  0.31713561  0.81714368  -0.00001942  1
  Cl  Cl0  1  0.95702585  0.45705299  0.24588864  1
  Cl  Cl1  1  0.71116113  0.21111770  0.75406950  1
  Cl  Cl2  1  0.04297415  0.54294701  0.75411136  1
  Cl  Cl3  1  0.21113821  0.04294701  0.75411136  1
  Cl  Cl4  1  0.54290837  0.71111770  0.75406950  1
  Cl  Cl5  1  0.78886179  0.95705299  0.24588864  1
  Cl  Cl6  1  0.50000000  0.50000000  0.00000000  1
  Cl  Cl7  1  0.00000000  0.00000000  0.00000000  1
  Cl  Cl8  1  0.28883887  0.78888230  0.24593050  1
  Cl  Cl9  1  0.45709163  0.28888230  0.24593050  1
loop_
_geom_bond_atom_site_label_1
_geom_bond_atom_site_label_2
_geom_bond_distance
_geom_bond_site_symmetry_2
Cl0 Sn0 2.564737 1_555
Cl0 Cs1 3.615963 1_555
Cl0 Cs0 3.616068 1_655
Cl1 Sn0 2.565119 1_556
Cl1 Cs1 3.615806 1_545
Cl1 Cs0 3.615984 1_555
Cl2 Sn3 2.564737 1_556
Cl2 Cs0 3.615963 1_555
Cl2 Cs1 3.616068 1_455
Cl3 Sn2 2.564745 1_556
Cl3 Cs1 3.615970 1_445
Cl3 Cs0 3.616065 1_555
Cl4 Sn1 2.565123 1_556
Cl4 Cs0 3.615806 1_555
Cl4 Cs1 3.615983 1_555
Cl5 Sn1 2.564745 1_555
Cl5 Cs0 3.615970 1_665
Cl5 Cs1 3.616065 1_555
Cl6 Sn1 2.996797 1_555
Cl6 Sn2 2.996797 1_555
Cl6 Sn0 2.996918 1_555
Cl6 Sn3 2.996918 1_555
Cl6 Cs1 3.810829 1_555
Cl6 Cs0 3.810829 1_554
Cl7 Sn0 2.996790 1_455
Cl7 Sn3 2.996790 1_545
Cl7 Sn2 2.996914 1_555
Cl7 Sn1 2.996914 1_445
Cl7 Cs0 3.810829 1_555
Cl7 Cs1 3.810829 1_444
Cl8 Sn3 2.565119 1_555
Cl8 Cs0 3.615806 1_565
Cl8 Cs1 3.615984 1_555
Cl9 Sn2 2.565123 1_555
Cl9 Cs1 3.615806 1_555
Cl9 Cs0 3.615983 1_555
