# generated using pymatgen
data_NaNb2WS6
_symmetry_space_group_name_H-M   'P 1'
_cell_length_a   5.73779942
_cell_length_b   5.73779904
_cell_length_c   14.67699779
_cell_angle_alpha   90.00000000
_cell_angle_beta   90.00000000
_cell_angle_gamma   120.00000220
_symmetry_Int_Tables_number   1
_chemical_formula_structural   NaNb2WS6
_chemical_formula_sum   'Na2 Nb4 W2 S12'
_cell_volume   418.46442786
_cell_formula_units_Z   2
loop_
 _symmetry_equiv_pos_site_id
 _symmetry_equiv_pos_as_xyz
  1  'x, y, z'
loop_
 _atom_site_type_symbol
 _atom_site_label
 _atom_site_symmetry_multiplicity
 _atom_site_fract_x
 _atom_site_fract_y
 _atom_site_fract_z
 _atom_site_occupancy
  Na  Na0  1  0.33333300  0.66666700  0.25128564  1
  Na  Na1  1  0.66666700  0.33333300  0.75023347  1
  Nb  Nb0  1  0.66666700  0.33333300  0.99959397  1
  Nb  Nb1  1  0.33333300  0.66666700  0.50068944  1
  Nb  Nb2  1  0.00000000  0.00000000  0.50049310  1
  Nb  Nb3  1  0.66666700  0.33333300  0.50019763  1
  W  W0  1  0.33333300  0.66666700  0.99922206  1
  W  W1  1  0.00000000  0.00000000  0.99942963  1
  S  S0  1  0.66849693  0.66693318  0.39316725  1
  S  S1  1  0.66685300  0.66835563  0.60768592  1
  S  S2  1  0.01018394  0.67698004  0.89479407  1
  S  S3  1  0.66679610  0.98981606  0.89479407  1
  S  S4  1  0.66776286  0.99248248  0.10397211  1
  S  S5  1  0.33306682  0.00156375  0.39316725  1
  S  S6  1  0.00150364  0.33314700  0.60768592  1
  S  S7  1  0.33164437  0.99849636  0.60768592  1
  S  S8  1  0.00751752  0.67528038  0.10397211  1
  S  S9  1  0.32301996  0.33320390  0.89479407  1
  S  S10  1  0.99843625  0.33150307  0.39316725  1
  S  S11  1  0.32471962  0.33223714  0.10397211  1
loop_
_geom_bond_atom_site_label_1
_geom_bond_atom_site_label_2
_geom_bond_distance
_geom_bond_site_symmetry_2
Na0 S5 2.834033 1_565
Na0 S10 2.834035 1_455
Na0 S0 2.834037 1_555
Na0 S8 2.874803 1_555
Na0 S4 2.874805 1_555
Na0 S11 2.874807 1_555
Na1 S1 2.840833 1_555
Na1 S7 2.840833 1_545
Na1 S6 2.840833 1_655
Na1 S3 2.896222 1_545
Na1 S2 2.896224 1_655
Na1 S9 2.896226 1_555
Nb0 S4 2.486789 1_546
Nb0 S8 2.486791 1_656
Nb0 S11 2.486793 1_556
Nb0 S3 2.500465 1_545
Nb0 S2 2.500467 1_655
Nb0 S9 2.500469 1_555
Nb1 S7 2.471793 1_555
Nb1 S6 2.471797 1_555
Nb1 S1 2.471802 1_555
Nb1 S5 2.487123 1_565
Nb1 S10 2.487125 1_455
Nb1 S0 2.487127 1_555
Nb2 S6 2.472389 1_555
Nb2 S1 2.472391 1_445
Nb2 S7 2.472393 1_545
Nb2 S0 2.473145 1_445
Nb2 S10 2.473145 1_455
Nb2 S5 2.473145 1_555
Nb3 S10 2.472158 1_555
Nb3 S5 2.472160 1_555
Nb3 S0 2.472163 1_555
Nb3 S1 2.486362 1_555
Nb3 S7 2.486362 1_545
Nb3 S6 2.486362 1_655
S2 W0 2.429050 1_555
S2 W1 2.430099 1_565
S3 W0 2.429052 1_555
S3 W1 2.430099 1_665
S4 W1 2.430626 1_664
S4 W0 2.439957 1_554
S8 W1 2.430626 1_564
S8 W0 2.439955 1_554
S9 W0 2.429054 1_555
S9 W1 2.430099 1_555
S11 W1 2.430626 1_554
S11 W0 2.439959 1_554
