# generated using pymatgen
data_Hf10ZnGaSn6
_symmetry_space_group_name_H-M   'P 1'
_cell_length_a   8.57023170
_cell_length_b   8.57023280
_cell_length_c   5.80957448
_cell_angle_alpha   90.00000000
_cell_angle_beta   90.00000000
_cell_angle_gamma   120.00000701
_symmetry_Int_Tables_number   1
_chemical_formula_structural   Hf10ZnGaSn6
_chemical_formula_sum   'Hf10 Zn1 Ga1 Sn6'
_cell_volume   369.53885369
_cell_formula_units_Z   1
loop_
 _symmetry_equiv_pos_site_id
 _symmetry_equiv_pos_as_xyz
  1  'x, y, z'
loop_
 _atom_site_type_symbol
 _atom_site_label
 _atom_site_symmetry_multiplicity
 _atom_site_fract_x
 _atom_site_fract_y
 _atom_site_fract_z
 _atom_site_occupancy
  Hf  Hf0  1  0.73492206  0.73492206  0.74886407  1
  Hf  Hf1  1  0.26507794  1.00000000  0.74886407  1
  Hf  Hf2  1  1.00000000  0.26507794  0.74886407  1
  Hf  Hf3  1  0.26507794  0.26507794  0.25113593  1
  Hf  Hf4  1  0.73492206  0.00000000  0.25113593  1
  Hf  Hf5  1  0.00000000  0.73492206  0.25113593  1
  Hf  Hf6  1  0.66666700  0.33333300  0.00000000  1
  Hf  Hf7  1  0.33333300  0.66666700  0.00000000  1
  Hf  Hf8  1  0.33333300  0.66666700  0.50000000  1
  Hf  Hf9  1  0.66666700  0.33333300  0.50000000  1
  Zn  Zn0  1  0.00000000  0.00000000  0.00000000  1
  Ga  Ga0  1  0.00000000  0.00000000  0.50000000  1
  Sn  Sn0  1  0.38802328  0.38802328  0.75032971  1
  Sn  Sn1  1  0.61197672  1.00000000  0.75032971  1
  Sn  Sn2  1  1.00000000  0.61197672  0.75032971  1
  Sn  Sn3  1  0.61197672  0.61197672  0.24967029  1
  Sn  Sn4  1  0.38802328  0.00000000  0.24967029  1
  Sn  Sn5  1  0.00000000  0.38802328  0.24967029  1
loop_
_geom_bond_atom_site_label_1
_geom_bond_atom_site_label_2
_geom_bond_distance
_geom_bond_site_symmetry_2
Hf0 Zn0 2.699934 1_666
Hf0 Sn2 2.943634 1_555
Hf0 Sn1 2.943634 1_555
Hf0 Sn0 2.973015 1_555
Hf0 Sn3 3.085583 1_555
Hf0 Sn3 3.094389 1_556
Hf1 Zn0 2.699934 1_566
Hf1 Sn2 2.943634 1_455
Hf1 Sn0 2.943634 1_565
Hf1 Sn1 2.973015 1_555
Hf1 Sn4 3.085583 1_565
Hf1 Sn4 3.094389 1_566
Hf2 Zn0 2.699934 1_656
Hf2 Sn1 2.943634 1_545
Hf2 Sn0 2.943634 1_655
Hf2 Sn2 2.973016 1_555
Hf2 Sn5 3.085583 1_655
Hf2 Sn5 3.094389 1_656
Hf3 Zn0 2.699934 1_555
Hf3 Sn5 2.943634 1_555
Hf3 Sn4 2.943634 1_555
Hf3 Sn3 2.973015 1_555
Hf3 Sn0 3.085583 1_555
Hf3 Sn0 3.094389 1_554
Hf4 Zn0 2.699934 1_655
Hf4 Sn5 2.943634 1_655
Hf4 Sn3 2.943634 1_545
Hf4 Sn4 2.973015 1_555
Hf4 Sn1 3.085583 1_545
Hf4 Sn1 3.094389 1_544
Hf5 Zn0 2.699934 1_565
Hf5 Sn4 2.943634 1_565
Hf5 Sn3 2.943634 1_455
Hf5 Sn5 2.973016 1_555
Hf5 Sn2 3.085583 1_455
Hf5 Sn2 3.094389 1_454
Hf6 Sn5 3.024164 1_655
Hf6 Sn1 3.024164 1_544
Hf6 Sn2 3.024166 1_554
Hf6 Sn4 3.024166 1_555
Hf6 Sn0 3.024171 1_554
Hf6 Sn3 3.024171 1_555
Hf7 Sn2 3.024164 1_454
Hf7 Sn4 3.024164 1_565
Hf7 Sn5 3.024166 1_555
Hf7 Sn1 3.024166 1_554
Hf7 Sn3 3.024171 1_555
Hf7 Sn0 3.024171 1_554
Hf8 Sn2 3.026003 1_455
Hf8 Sn4 3.026003 1_565
Hf8 Sn5 3.026005 1_555
Hf8 Sn1 3.026006 1_555
Hf8 Sn3 3.026010 1_555
Hf8 Sn0 3.026011 1_555
Hf9 Sn5 3.026003 1_655
Hf9 Sn1 3.026003 1_545
Hf9 Sn2 3.026005 1_555
Hf9 Sn4 3.026006 1_555
Hf9 Sn0 3.026010 1_555
Hf9 Sn3 3.026011 1_555
Ga0 Hf3 2.692824 1_555
Ga0 Hf0 2.692824 1_445
Ga0 Hf1 2.692824 1_545
Ga0 Hf4 2.692824 1_455
Ga0 Hf2 2.692825 1_455
Ga0 Hf5 2.692825 1_545
Ga0 Zn0 2.904787 1_555
Ga0 Zn0 2.904787 1_556
