# generated using pymatgen
data_CsSr2Cd2Bi3
_symmetry_space_group_name_H-M   'P 1'
_cell_length_a   5.07079136
_cell_length_b   13.21861038
_cell_length_c   17.01189534
_cell_angle_alpha   90.00000000
_cell_angle_beta   90.00000000
_cell_angle_gamma   90.00000000
_symmetry_Int_Tables_number   1
_chemical_formula_structural   CsSr2Cd2Bi3
_chemical_formula_sum   'Cs4 Sr8 Cd8 Bi12'
_cell_volume   1140.28719108
_cell_formula_units_Z   4
loop_
 _symmetry_equiv_pos_site_id
 _symmetry_equiv_pos_as_xyz
  1  'x, y, z'
loop_
 _atom_site_type_symbol
 _atom_site_label
 _atom_site_symmetry_multiplicity
 _atom_site_fract_x
 _atom_site_fract_y
 _atom_site_fract_z
 _atom_site_occupancy
  Cs  Cs0  1  0.25000000  0.41191297  0.54491313  1
  Cs  Cs1  1  0.75000000  0.08808703  0.04491313  1
  Cs  Cs2  1  0.25000000  0.91191297  0.95508687  1
  Cs  Cs3  1  0.75000000  0.58808703  0.45508687  1
  Sr  Sr0  1  0.25000000  0.35545399  0.27769681  1
  Sr  Sr1  1  0.75000000  0.14454601  0.77769681  1
  Sr  Sr2  1  0.25000000  0.85545399  0.22230319  1
  Sr  Sr3  1  0.75000000  0.64454601  0.72230319  1
  Sr  Sr4  1  0.25000000  0.09747241  0.42349261  1
  Sr  Sr5  1  0.75000000  0.40252759  0.92349261  1
  Sr  Sr6  1  0.25000000  0.59747241  0.07650739  1
  Sr  Sr7  1  0.75000000  0.90252759  0.57650739  1
  Cd  Cd0  1  0.25000000  0.30007882  0.07560113  1
  Cd  Cd1  1  0.75000000  0.19992118  0.57560113  1
  Cd  Cd2  1  0.25000000  0.80007882  0.42439887  1
  Cd  Cd3  1  0.75000000  0.69992118  0.92439887  1
  Cd  Cd4  1  0.25000000  0.37701289  0.78424399  1
  Cd  Cd5  1  0.75000000  0.12298711  0.28424399  1
  Cd  Cd6  1  0.25000000  0.87701289  0.71575601  1
  Cd  Cd7  1  0.75000000  0.62298711  0.21575601  1
  Bi  Bi0  1  0.25000000  0.11652971  0.19620625  1
  Bi  Bi1  1  0.75000000  0.38347029  0.69620625  1
  Bi  Bi2  1  0.25000000  0.61652971  0.30379375  1
  Bi  Bi3  1  0.75000000  0.88347029  0.80379375  1
  Bi  Bi4  1  0.25000000  0.71827028  0.58940575  1
  Bi  Bi5  1  0.75000000  0.78172972  0.08940575  1
  Bi  Bi6  1  0.25000000  0.21827028  0.91059425  1
  Bi  Bi7  1  0.75000000  0.28172972  0.41059425  1
  Bi  Bi8  1  0.25000000  0.08597000  0.62844271  1
  Bi  Bi9  1  0.75000000  0.41403000  0.12844271  1
  Bi  Bi10  1  0.25000000  0.58597000  0.87155729  1
  Bi  Bi11  1  0.75000000  0.91403000  0.37155729  1
loop_
_geom_bond_atom_site_label_1
_geom_bond_atom_site_label_2
_geom_bond_distance
_geom_bond_site_symmetry_2
Cd0 Sr0 3.515089 1_555
Cd0 Cs1 3.814880 1_455
Cd0 Cs1 3.814880 1_555
Cd0 Sr5 3.867574 1_554
Cd0 Sr5 3.867574 1_454
Cd0 Sr6 3.931160 1_555
Cd1 Sr1 3.515089 1_555
Cd1 Cs0 3.814880 1_655
Cd1 Cs0 3.814880 1_555
Cd1 Sr4 3.867574 1_555
Cd1 Sr4 3.867574 1_655
Cd1 Sr7 3.931160 1_545
Cd2 Sr2 3.515089 1_555
Cd2 Cs3 3.814880 1_555
Cd2 Cs3 3.814880 1_455
Cd2 Sr7 3.867574 1_555
Cd2 Sr7 3.867574 1_455
Cd2 Sr4 3.931160 1_565
Cd3 Sr3 3.515089 1_555
Cd3 Cs2 3.814880 1_655
Cd3 Cs2 3.814880 1_555
Cd3 Sr6 3.867574 1_556
Cd3 Sr6 3.867574 1_656
Cd3 Sr5 3.931160 1_555
Cd4 Sr5 3.486200 1_555
Cd4 Sr5 3.486200 1_455
Cd5 Sr4 3.486200 1_555
Cd5 Sr4 3.486200 1_655
Cd6 Sr7 3.486200 1_555
Cd6 Sr7 3.486200 1_455
Cd7 Sr6 3.486200 1_555
Cd7 Sr6 3.486200 1_655
Bi0 Cd5 2.945944 1_455
Bi0 Cd5 2.945944 1_555
Bi0 Cd0 3.177471 1_555
Bi0 Sr0 3.449112 1_555
Bi0 Sr2 3.479497 1_545
Bi0 Cs1 3.632347 1_555
Bi0 Cs1 3.632347 1_455
Bi0 Sr4 3.874769 1_555
Bi1 Cd4 2.945944 1_655
Bi1 Cd4 2.945944 1_555
Bi1 Cd1 3.177471 1_555
Bi1 Sr1 3.449112 1_555
Bi1 Sr3 3.479497 1_555
Bi1 Cs0 3.632347 1_555
Bi1 Cs0 3.632347 1_655
Bi1 Sr5 3.874769 1_555
Bi2 Cd7 2.945944 1_555
Bi2 Cd7 2.945944 1_455
Bi2 Cd2 3.177471 1_555
Bi2 Sr2 3.449112 1_555
Bi2 Sr0 3.479497 1_555
Bi2 Cs3 3.632347 1_455
Bi2 Cs3 3.632347 1_555
Bi2 Sr6 3.874769 1_555
Bi3 Cd6 2.945944 1_555
Bi3 Cd6 2.945944 1_655
Bi3 Cd3 3.177471 1_555
Bi3 Sr3 3.449112 1_555
Bi3 Sr1 3.479497 1_565
Bi3 Cs2 3.632347 1_655
Bi3 Cs2 3.632347 1_555
Bi3 Sr7 3.874769 1_555
Bi4 Cd6 3.003876 1_555
Bi4 Cd2 3.008174 1_555
Bi4 Sr7 3.522591 1_555
Bi4 Sr7 3.522591 1_455
Bi4 Sr3 3.534025 1_455
Bi4 Sr3 3.534025 1_555
Bi4 Cs3 3.822413 1_555
Bi4 Cs3 3.822413 1_455
Bi4 Cs0 4.119746 1_555
Bi5 Cd7 3.003876 1_555
Bi5 Cd3 3.008174 1_554
Bi5 Sr6 3.522591 1_655
Bi5 Sr6 3.522591 1_555
Bi5 Sr2 3.534025 1_655
Bi5 Sr2 3.534025 1_555
Bi5 Cs2 3.822413 1_654
Bi5 Cs2 3.822413 1_554
Bi5 Cs1 4.119746 1_565
Bi6 Cd4 3.003876 1_555
Bi6 Cd0 3.008174 1_556
Bi6 Sr5 3.522591 1_555
Bi6 Sr5 3.522591 1_455
Bi6 Sr1 3.534025 1_555
Bi6 Sr1 3.534025 1_455
Bi6 Cs1 3.822413 1_456
Bi6 Cs1 3.822413 1_556
Bi6 Cs2 4.119746 1_545
Bi7 Cd5 3.003876 1_555
Bi7 Cd1 3.008174 1_555
Bi7 Sr4 3.522591 1_655
Bi7 Sr4 3.522591 1_555
Bi7 Sr0 3.534025 1_555
Bi7 Sr0 3.534025 1_655
Bi7 Cs0 3.822413 1_555
Bi7 Cs0 3.822413 1_655
Bi7 Cs3 4.119746 1_555
Bi8 Cd1 3.083048 1_455
Bi8 Cd1 3.083048 1_555
Bi8 Cd6 3.136181 1_545
Bi8 Sr4 3.489903 1_555
Bi8 Sr7 3.617838 1_545
Bi8 Sr7 3.617838 1_445
Bi8 Sr1 3.670799 1_455
Bi8 Sr1 3.670799 1_555
Bi9 Cd0 3.083048 1_555
Bi9 Cd0 3.083048 1_655
Bi9 Cd7 3.136181 1_555
Bi9 Sr5 3.489903 1_554
Bi9 Sr6 3.617838 1_555
Bi9 Sr6 3.617838 1_655
Bi9 Sr0 3.670799 1_555
Bi9 Sr0 3.670799 1_655
Bi10 Cd3 3.083048 1_555
Bi10 Cd3 3.083048 1_455
Bi10 Cd4 3.136181 1_555
Bi10 Sr6 3.489903 1_556
Bi10 Sr5 3.617838 1_555
Bi10 Sr5 3.617838 1_455
Bi10 Sr3 3.670799 1_555
Bi10 Sr3 3.670799 1_455
Bi11 Cd2 3.083048 1_655
Bi11 Cd2 3.083048 1_555
Bi11 Cd5 3.136181 1_565
Bi11 Sr7 3.489903 1_555
Bi11 Sr4 3.617838 1_665
Bi11 Sr4 3.617838 1_565
Bi11 Sr2 3.670799 1_555
Bi11 Sr2 3.670799 1_655
