# generated using pymatgen
data_Hf6Al16Cu4Os3
_symmetry_space_group_name_H-M   'P 1'
_cell_length_a   8.62126499
_cell_length_b   8.62126529
_cell_length_c   8.53886720
_cell_angle_alpha   60.31566423
_cell_angle_beta   60.31566306
_cell_angle_gamma   59.36868302
_symmetry_Int_Tables_number   1
_chemical_formula_structural   Hf6Al16Cu4Os3
_chemical_formula_sum   'Hf6 Al16 Cu4 Os3'
_cell_volume   448.69238431
_cell_formula_units_Z   1
loop_
 _symmetry_equiv_pos_site_id
 _symmetry_equiv_pos_as_xyz
  1  'x, y, z'
loop_
 _atom_site_type_symbol
 _atom_site_label
 _atom_site_symmetry_multiplicity
 _atom_site_fract_x
 _atom_site_fract_y
 _atom_site_fract_z
 _atom_site_occupancy
  Hf  Hf0  1  0.18794091  0.81205909  0.81205909  1
  Hf  Hf1  1  0.81205909  0.18794091  0.18794091  1
  Hf  Hf2  1  0.81205909  0.18794091  0.81205909  1
  Hf  Hf3  1  0.80126474  0.80126474  0.19873526  1
  Hf  Hf4  1  0.18794091  0.81205909  0.18794091  1
  Hf  Hf5  1  0.19873526  0.19873526  0.80126474  1
  Al  Al0  1  0.83305933  0.83305933  0.83750671  1
  Al  Al1  1  0.83305933  0.83305933  0.49637562  1
  Al  Al2  1  0.49637562  0.83750671  0.83305933  1
  Al  Al3  1  0.83750671  0.49637562  0.83305933  1
  Al  Al4  1  0.16694067  0.16694067  0.16249329  1
  Al  Al5  1  0.16694067  0.16694067  0.50362438  1
  Al  Al6  1  0.16249329  0.50362438  0.16694067  1
  Al  Al7  1  0.50362438  0.16249329  0.16694067  1
  Al  Al8  1  0.61516270  0.61516270  0.62668540  1
  Al  Al9  1  0.61516270  0.61516270  0.14298920  1
  Al  Al10  1  0.14298920  0.62668540  0.61516270  1
  Al  Al11  1  0.62668540  0.14298920  0.61516270  1
  Al  Al12  1  0.38483730  0.38483730  0.37331460  1
  Al  Al13  1  0.38483730  0.38483730  0.85701080  1
  Al  Al14  1  0.37331460  0.85701080  0.38483730  1
  Al  Al15  1  0.85701080  0.37331460  0.38483730  1
  Cu  Cu0  1  0.00000000  0.50000000  0.50000000  1
  Cu  Cu1  1  0.50000000  0.00000000  0.00000000  1
  Cu  Cu2  1  0.50000000  0.00000000  0.50000000  1
  Cu  Cu3  1  0.00000000  0.50000000  0.00000000  1
  Os  Os0  1  0.50000000  0.50000000  0.50000000  1
  Os  Os1  1  0.50000000  0.50000000  0.00000000  1
  Os  Os2  1  0.00000000  0.00000000  0.50000000  1
loop_
_geom_bond_atom_site_label_1
_geom_bond_atom_site_label_2
_geom_bond_distance
_geom_bond_site_symmetry_2
Hf0 Os2 3.110571 1_565
Hf0 Os1 3.110571 1_556
Hf0 Hf4 3.209605 1_556
Hf0 Hf2 3.209605 1_465
Hf0 Hf5 3.336706 1_565
Hf0 Hf3 3.336706 1_456
Hf1 Os2 3.110571 1_655
Hf1 Os1 3.110571 1_555
Hf1 Hf2 3.209605 1_554
Hf1 Hf4 3.209605 1_645
Hf1 Hf3 3.336706 1_545
Hf1 Hf5 3.336706 1_654
Hf2 Os2 3.110571 1_655
Hf2 Os1 3.110571 1_556
Hf2 Hf5 3.336706 1_655
Hf2 Hf3 3.336706 1_546
Hf3 Hf4 3.336706 1_655
Hf4 Os2 3.110571 1_565
Hf4 Os1 3.110571 1_555
Hf4 Hf5 3.336706 1_564
Al0 Cu1 2.462136 1_566
Al0 Cu3 2.462136 1_656
Al0 Os2 2.518502 1_665
Al0 Al10 2.717790 1_655
Al0 Al11 2.717790 1_565
Al0 Al9 2.784144 1_556
Al0 Hf3 2.840081 1_556
Al0 Hf0 2.873456 1_655
Al0 Hf2 2.873456 1_565
Al1 Cu2 2.462139 1_565
Al1 Cu0 2.462139 1_655
Al1 Os2 2.518497 1_665
Al1 Al10 2.717785 1_655
Al1 Al11 2.717785 1_565
Al1 Al8 2.784146 1_555
Al1 Hf3 2.840089 1_555
Al1 Hf4 2.873460 1_655
Al1 Hf1 2.873460 1_565
Al2 Cu1 2.462131 1_566
Al2 Cu2 2.462139 1_565
Al2 Os1 2.518505 1_556
Al2 Al9 2.717785 1_556
Al2 Al8 2.717792 1_555
Al2 Hf5 2.840084 1_565
Al2 Hf4 2.873460 1_556
Al2 Hf0 2.873464 1_555
Al3 Cu3 2.462131 1_656
Al3 Cu0 2.462139 1_655
Al3 Os1 2.518505 1_556
Al3 Al9 2.717785 1_556
Al3 Al8 2.717792 1_555
Al3 Hf5 2.840084 1_655
Al3 Hf1 2.873460 1_556
Al3 Hf2 2.873465 1_555
Al4 Cu1 2.462136 1_555
Al4 Cu3 2.462136 1_555
Al4 Os2 2.518502 1_555
Al4 Hf5 2.840081 1_554
Al4 Hf1 2.873456 1_455
Al4 Hf4 2.873456 1_545
Al5 Cu2 2.462139 1_555
Al5 Cu0 2.462139 1_555
Al5 Os2 2.518497 1_555
Al5 Hf5 2.840089 1_555
Al5 Hf2 2.873460 1_455
Al5 Hf0 2.873460 1_545
Al6 Cu3 2.462131 1_555
Al6 Cu0 2.462139 1_555
Al6 Os1 2.518505 1_555
Al6 Hf3 2.840084 1_455
Al6 Hf0 2.873460 1_554
Al6 Hf4 2.873465 1_555
Al7 Cu1 2.462131 1_555
Al7 Cu2 2.462139 1_555
Al7 Os1 2.518505 1_555
Al7 Hf3 2.840084 1_545
Al7 Hf2 2.873460 1_554
Al7 Hf1 2.873464 1_555
Al8 Os0 2.504730 1_555
Al8 Os1 2.620696 1_556
Al8 Cu0 2.704799 1_655
Al8 Cu2 2.704800 1_565
Al8 Hf0 3.077123 1_555
Al8 Hf2 3.077123 1_555
Al8 Hf3 3.083998 1_555
Al9 Os0 2.504731 1_555
Al9 Os1 2.620696 1_555
Al9 Cu3 2.704799 1_655
Al9 Cu1 2.704800 1_565
Al9 Hf4 3.077123 1_555
Al9 Hf1 3.077123 1_555
Al9 Hf3 3.083997 1_555
Al10 Os0 2.504730 1_555
Al10 Os2 2.620696 1_565
Al10 Cu0 2.704799 1_555
Al10 Cu3 2.704800 1_556
Al10 Al3 2.784139 1_455
Al10 Al14 2.834784 1_555
Al10 Al12 2.920505 1_555
Al10 Al13 2.920505 1_555
Al10 Hf0 3.077123 1_555
Al10 Hf4 3.077123 1_555
Al10 Hf5 3.083998 1_555
Al11 Os0 2.504731 1_555
Al11 Os2 2.620696 1_655
Al11 Cu2 2.704799 1_555
Al11 Cu1 2.704800 1_556
Al11 Al2 2.784139 1_545
Al11 Al15 2.834784 1_555
Al11 Al13 2.920505 1_555
Al11 Al12 2.920505 1_555
Al11 Hf2 3.077123 1_555
Al11 Hf1 3.077123 1_555
Al11 Hf5 3.083997 1_555
Al12 Os0 2.504730 1_555
Al12 Os1 2.620696 1_555
Al12 Cu0 2.704799 1_555
Al12 Cu2 2.704800 1_555
Al12 Al6 2.717792 1_555
Al12 Al7 2.717792 1_555
Al12 Al5 2.784146 1_555
Al12 Al9 2.834784 1_555
Al12 Hf1 3.077123 1_555
Al12 Hf4 3.077123 1_555
Al12 Hf5 3.083998 1_555
Al13 Os0 2.504731 1_555
Al13 Os1 2.620696 1_556
Al13 Cu3 2.704799 1_556
Al13 Cu1 2.704800 1_556
Al13 Al6 2.717785 1_556
Al13 Al7 2.717785 1_556
Al13 Al4 2.784144 1_556
Al13 Al8 2.834784 1_555
Al13 Hf2 3.077123 1_555
Al13 Hf0 3.077123 1_555
Al13 Hf5 3.083997 1_555
Al14 Os0 2.504731 1_555
Al14 Os2 2.620696 1_565
Al14 Cu2 2.704799 1_565
Al14 Cu1 2.704800 1_565
Al14 Al5 2.717785 1_565
Al14 Al4 2.717790 1_565
Al14 Al7 2.784139 1_565
Al14 Al9 2.920505 1_555
Al14 Al8 2.920505 1_555
Al14 Hf4 3.077123 1_555
Al14 Hf0 3.077123 1_555
Al14 Hf3 3.083997 1_555
Al15 Os0 2.504730 1_555
Al15 Os2 2.620696 1_655
Al15 Cu0 2.704799 1_655
Al15 Cu3 2.704800 1_655
Al15 Al5 2.717785 1_655
Al15 Al4 2.717790 1_655
Al15 Al6 2.784139 1_655
Al15 Al9 2.920505 1_555
Al15 Al8 2.920505 1_555
Al15 Hf1 3.077123 1_555
Al15 Hf2 3.077123 1_555
Al15 Hf3 3.083998 1_555
Cu0 Hf3 3.084175 1_455
Cu0 Hf5 3.084175 1_555
Cu0 Hf4 3.166882 1_555
Cu0 Hf2 3.166882 1_455
Cu1 Hf5 3.084175 1_554
Cu1 Hf3 3.084175 1_545
Cu1 Hf2 3.166882 1_554
Cu1 Hf4 3.166882 1_545
Cu2 Hf3 3.084175 1_545
Cu2 Hf5 3.084175 1_555
Cu2 Hf1 3.166882 1_555
Cu2 Hf0 3.166882 1_545
Cu3 Hf5 3.084175 1_554
Cu3 Hf3 3.084175 1_455
Cu3 Hf0 3.166882 1_554
Cu3 Hf1 3.166882 1_455
