# generated using pymatgen
data_CaSb12IrRu3
_symmetry_space_group_name_H-M   'P 1'
_cell_length_a   8.08755521
_cell_length_b   8.09376867
_cell_length_c   8.08755548
_cell_angle_alpha   109.48678614
_cell_angle_beta   109.45565188
_cell_angle_gamma   109.48679135
_symmetry_Int_Tables_number   1
_chemical_formula_structural   CaSb12IrRu3
_chemical_formula_sum   'Ca1 Sb12 Ir1 Ru3'
_cell_volume   407.45526067
_cell_formula_units_Z   1
loop_
 _symmetry_equiv_pos_site_id
 _symmetry_equiv_pos_as_xyz
  1  'x, y, z'
loop_
 _atom_site_type_symbol
 _atom_site_label
 _atom_site_symmetry_multiplicity
 _atom_site_fract_x
 _atom_site_fract_y
 _atom_site_fract_z
 _atom_site_occupancy
  Ca  Ca0  1  0.00000000  0.00000000  0.00000000  1
  Sb  Sb0  1  0.34088325  0.18355784  0.84202195  1
  Sb  Sb1  1  0.15797805  0.34153590  0.49886130  1
  Sb  Sb2  1  0.65911675  0.81644216  0.15797805  1
  Sb  Sb3  1  0.34380676  0.49826720  0.15811006  1
  Sb  Sb4  1  0.65619324  0.50173280  0.84188994  1
  Sb  Sb5  1  0.50113870  0.84267560  0.65911675  1
  Sb  Sb6  1  0.84202195  0.65846410  0.50113870  1
  Sb  Sb7  1  0.84188994  0.34015715  0.18569670  1
  Sb  Sb8  1  0.18569670  0.84553956  0.34380676  1
  Sb  Sb9  1  0.49886130  0.15732440  0.34088325  1
  Sb  Sb10  1  0.81430330  0.15446044  0.65619324  1
  Sb  Sb11  1  0.15811006  0.65984285  0.81430330  1
  Ir  Ir0  1  0.00000000  0.50000000  0.00000000  1
  Ru  Ru0  1  0.00000000  0.00000000  0.50000000  1
  Ru  Ru1  1  0.50000000  0.50000000  0.50000000  1
  Ru  Ru2  1  0.50000000  0.00000000  0.00000000  1
loop_
_geom_bond_atom_site_label_1
_geom_bond_atom_site_label_2
_geom_bond_distance
_geom_bond_site_symmetry_2
Ca0 Sb0 3.510042 1_554
Ca0 Sb2 3.510042 1_445
Ca0 Sb1 3.510042 1_555
Ca0 Sb6 3.510042 1_444
Ca0 Sb9 3.510044 1_555
Ca0 Sb5 3.510044 1_444
Ca0 Sb3 3.512829 1_555
Ca0 Sb4 3.512829 1_444
Ca0 Sb7 3.512830 1_455
Ca0 Sb11 3.512830 1_544
Ca0 Sb10 3.512830 1_454
Ca0 Sb8 3.512830 1_545
Sb0 Sb3 2.932398 1_556
Sb0 Sb4 2.959225 1_555
Sb1 Sb7 2.932398 1_455
Sb1 Sb11 2.959225 1_555
Sb2 Sb4 2.932398 1_554
Sb2 Sb3 2.959225 1_555
Sb5 Sb8 2.959221 1_555
Sb6 Sb7 2.959225 1_555
Sb8 Sb9 2.932393 1_565
Sb10 Sb5 2.932393 1_545
Sb10 Sb9 2.959221 1_555
Sb11 Sb6 2.932398 1_455
Ir0 Sb8 2.652593 1_555
Ir0 Sb10 2.652593 1_454
Ir0 Sb11 2.652594 1_554
Ir0 Sb7 2.652594 1_455
Ir0 Sb3 2.652594 1_555
Ir0 Sb4 2.652594 1_454
Ru0 Sb8 2.622396 1_545
Ru0 Sb10 2.622396 1_455
Ru0 Sb0 2.627674 1_555
Ru0 Sb2 2.627674 1_445
Ru0 Sb1 2.634837 1_555
Ru0 Sb6 2.634837 1_445
Ru1 Sb4 2.622396 1_555
Ru1 Sb3 2.622396 1_555
Ru1 Sb6 2.627674 1_555
Ru1 Sb1 2.627674 1_555
Ru1 Sb5 2.634844 1_555
Ru1 Sb9 2.634844 1_555
Ru2 Sb7 2.622396 1_555
Ru2 Sb11 2.622396 1_544
Ru2 Sb9 2.627673 1_555
Ru2 Sb5 2.627673 1_544
Ru2 Sb2 2.634837 1_545
Ru2 Sb0 2.634837 1_554
