# generated using pymatgen
data_Li4Fe(PO4)2
_symmetry_space_group_name_H-M   'P 1'
_cell_length_a   10.47948100
_cell_length_b   8.22064700
_cell_length_c   8.27894788
_cell_angle_alpha   75.71621130
_cell_angle_beta   90.00000000
_cell_angle_gamma   90.00000000
_symmetry_Int_Tables_number   1
_chemical_formula_structural   Li4Fe(PO4)2
_chemical_formula_sum   'Li16 Fe4 P8 O32'
_cell_volume   691.16709431
_cell_formula_units_Z   4
loop_
 _symmetry_equiv_pos_site_id
 _symmetry_equiv_pos_as_xyz
  1  'x, y, z'
loop_
 _atom_site_type_symbol
 _atom_site_label
 _atom_site_symmetry_multiplicity
 _atom_site_fract_x
 _atom_site_fract_y
 _atom_site_fract_z
 _atom_site_occupancy
  Li  Li0  1  0.07304500  0.72584600  0.52412700  1
  Li  Li1  1  0.33769200  0.89821600  0.60211600  1
  Li  Li2  1  0.34736900  0.15013400  0.84919700  1
  Li  Li3  1  0.83746700  0.84643500  0.65074300  1
  Li  Li4  1  0.92695500  0.27415400  0.47587300  1
  Li  Li5  1  0.66230800  0.10178400  0.39788400  1
  Li  Li6  1  0.83769200  0.60178400  0.39788400  1
  Li  Li7  1  0.42695500  0.22584600  0.52412700  1
  Li  Li8  1  0.66253300  0.34643500  0.65074300  1
  Li  Li9  1  0.16230800  0.39821600  0.60211600  1
  Li  Li10  1  0.16253300  0.15356500  0.34925700  1
  Li  Li11  1  0.84736900  0.34986600  0.15080300  1
  Li  Li12  1  0.57304500  0.77415400  0.47587300  1
  Li  Li13  1  0.33746700  0.65356500  0.34925700  1
  Li  Li14  1  0.15263100  0.65013400  0.84919700  1
  Li  Li15  1  0.65263100  0.84986600  0.15080300  1
  Fe  Fe0  1  0.34318700  0.40933000  0.09284700  1
  Fe  Fe1  1  0.84318700  0.09067000  0.90715300  1
  Fe  Fe2  1  0.15681300  0.90933000  0.09284700  1
  Fe  Fe3  1  0.65681300  0.59067000  0.90715300  1
  P  P0  1  0.90795700  0.97483700  0.29083000  1
  P  P1  1  0.09204300  0.02516300  0.70917000  1
  P  P2  1  0.40632200  0.03001500  0.23431500  1
  P  P3  1  0.09367800  0.53001500  0.23431500  1
  P  P4  1  0.59367800  0.96998500  0.76568500  1
  P  P5  1  0.90632200  0.46998500  0.76568500  1
  P  P6  1  0.59204300  0.47483700  0.29083000  1
  P  P7  1  0.40795700  0.52516300  0.70917000  1
  O  O0  1  0.33139500  0.87713700  0.20267700  1
  O  O1  1  0.90215700  0.81566900  0.43813100  1
  O  O2  1  0.83139500  0.62286300  0.79732300  1
  O  O3  1  0.39085000  0.17615300  0.07366800  1
  O  O4  1  0.54722100  0.97916700  0.27366800  1
  O  O5  1  0.44937500  0.51509600  0.24301400  1
  O  O6  1  0.40215700  0.68433100  0.56186900  1
  O  O7  1  0.34689700  0.37158100  0.66071300  1
  O  O8  1  0.59784300  0.31566900  0.43813100  1
  O  O9  1  0.65409300  0.91382900  0.61587400  1
  O  O10  1  0.66606300  0.43750800  0.14024600  1
  O  O11  1  0.84689700  0.12841900  0.33928700  1
  O  O12  1  0.45277900  0.02083300  0.72633200  1
  O  O13  1  0.33393700  0.56249200  0.85975400  1
  O  O14  1  0.10915000  0.67615300  0.07366800  1
  O  O15  1  0.65310300  0.62841900  0.33928700  1
  O  O16  1  0.09784300  0.18433100  0.56186900  1
  O  O17  1  0.94937500  0.98490400  0.75698600  1
  O  O18  1  0.16860500  0.37713700  0.20267700  1
  O  O19  1  0.60915000  0.82384700  0.92633200  1
  O  O20  1  0.84590700  0.41382900  0.61587400  1
  O  O21  1  0.55062500  0.48490400  0.75698600  1
  O  O22  1  0.16606300  0.06249200  0.85975400  1
  O  O23  1  0.15310300  0.87158100  0.66071300  1
  O  O24  1  0.15409300  0.58617100  0.38412600  1
  O  O25  1  0.34590700  0.08617100  0.38412600  1
  O  O26  1  0.83393700  0.93750800  0.14024600  1
  O  O27  1  0.66860500  0.12286300  0.79732300  1
  O  O28  1  0.04722100  0.52083300  0.72633200  1
  O  O29  1  0.95277900  0.47916700  0.27366800  1
  O  O30  1  0.05062500  0.01509600  0.24301400  1
  O  O31  1  0.89085000  0.32384700  0.92633200  1
loop_
_geom_bond_atom_site_label_1
_geom_bond_atom_site_label_2
_geom_bond_distance
_geom_bond_site_symmetry_2
Li0 O1 1.999934 1_455
Li0 O24 2.009955 1_555
Li0 O23 2.021466 1_555
Li0 O28 2.079386 1_555
Li1 O6 1.986963 1_555
Li1 O23 1.993179 1_555
Li1 O12 2.009895 1_565
Li1 O25 2.067810 1_565
Li2 O3 1.975629 1_556
Li2 O12 1.979464 1_555
Li2 O22 2.026233 1_555
Li2 O7 2.085012 1_555
Li3 O2 1.937533 1_555
Li3 O1 1.959983 1_555
Li3 O17 1.984633 1_555
Li3 O9 2.001037 1_555
Li4 O16 1.999934 1_655
Li4 O20 2.009955 1_555
Li4 O11 2.021466 1_555
Li4 O29 2.079386 1_555
Li5 O8 1.986963 1_555
Li5 O11 1.993179 1_555
Li5 O4 2.009895 1_545
Li5 O9 2.067810 1_545
Li6 O1 1.986963 1_555
Li6 O15 1.993179 1_555
Li6 O29 2.009895 1_555
Li6 O20 2.067810 1_555
Li7 O8 1.999934 1_555
Li7 O25 2.009955 1_555
Li7 O7 2.021466 1_555
Li7 O12 2.079386 1_555
Li8 O27 1.937533 1_555
Li8 O8 1.959983 1_555
Li8 O21 1.984633 1_555
Li8 O20 2.001037 1_555
Li9 O16 1.986963 1_555
Li9 O7 1.993179 1_555
Li9 O28 2.009895 1_555
Li9 O24 2.067810 1_555
Li10 O18 1.937533 1_555
Li10 O16 1.959983 1_555
Li10 O30 1.984633 1_555
Li10 O25 2.001037 1_555
Li11 O31 1.975629 1_554
Li11 O29 1.979464 1_555
Li11 O10 2.026233 1_555
Li11 O11 2.085012 1_555
Li12 O6 1.999934 1_555
Li12 O9 2.009955 1_555
Li12 O15 2.021466 1_555
Li12 O4 2.079386 1_555
Li13 O0 1.937533 1_555
Li13 O6 1.959983 1_555
Li13 O5 1.984633 1_555
Li13 O24 2.001037 1_555
Li14 O14 1.975629 1_556
Li14 O28 1.979464 1_555
Li14 O13 2.026233 1_555
Li14 O23 2.085012 1_555
Li15 O19 1.975629 1_554
Li15 O4 1.979464 1_555
Li15 O26 2.026233 1_555
Li15 O15 2.085012 1_555
Fe0 O5 2.018237 1_555
Fe0 O3 2.024662 1_555
Fe0 O13 2.029714 1_554
Fe0 O18 2.031072 1_555
Fe1 O17 2.018237 1_545
Fe1 O31 2.024662 1_555
Fe1 O26 2.029714 1_546
Fe1 O27 2.031072 1_555
Fe2 O30 2.018237 1_565
Fe2 O14 2.024662 1_555
Fe2 O22 2.029714 1_564
Fe2 O0 2.031072 1_555
Fe3 O21 2.018237 1_555
Fe3 O19 2.024662 1_555
Fe3 O10 2.029714 1_556
Fe3 O2 2.031072 1_555
O0 P2 1.557886 1_565
O1 P0 1.554208 1_555
O2 P5 1.557886 1_555
O3 P2 1.565239 1_555
O4 P2 1.547213 1_565
O5 P6 1.561050 1_555
O6 P7 1.554208 1_555
O7 P7 1.553811 1_555
O8 P6 1.554208 1_555
O9 P4 1.560374 1_555
O10 P6 1.561680 1_555
O11 P0 1.553811 1_545
O12 P4 1.547213 1_545
O13 P7 1.561680 1_555
O14 P3 1.565239 1_555
O15 P6 1.553811 1_555
O16 P1 1.554208 1_555
O17 P1 1.561050 1_665
O18 P3 1.557886 1_555
O19 P4 1.565239 1_555
O20 P5 1.560374 1_555
O21 P7 1.561050 1_555
O22 P1 1.561680 1_555
O23 P1 1.553811 1_565
O24 P3 1.560374 1_555
O25 P2 1.560374 1_555
O26 P0 1.561680 1_555
O27 P4 1.557886 1_545
O28 P5 1.547213 1_455
O29 P3 1.547213 1_655
O30 P0 1.561050 1_445
O31 P5 1.565239 1_555
