# generated using pymatgen
data_K4GaAu8
_symmetry_space_group_name_H-M   'P 1'
_cell_length_a   10.89041045
_cell_length_b   10.89041045
_cell_length_c   11.05007790
_cell_angle_alpha   83.08443906
_cell_angle_beta   83.08443906
_cell_angle_gamma   30.23472840
_symmetry_Int_Tables_number   1
_chemical_formula_structural   K4GaAu8
_chemical_formula_sum   'K8 Ga2 Au16'
_cell_volume   654.76669246
_cell_formula_units_Z   2
loop_
 _symmetry_equiv_pos_site_id
 _symmetry_equiv_pos_as_xyz
  1  'x, y, z'
loop_
 _atom_site_type_symbol
 _atom_site_label
 _atom_site_symmetry_multiplicity
 _atom_site_fract_x
 _atom_site_fract_y
 _atom_site_fract_z
 _atom_site_occupancy
  K  K0  1  0.48550344  0.48550344  0.83366909  1
  K  K1  1  0.51449656  0.51449656  0.16633091  1
  K  K2  1  0.28452657  0.28452657  0.89761876  1
  K  K3  1  0.71547343  0.71547343  0.10238124  1
  K  K4  1  0.22427766  0.22427766  0.59277426  1
  K  K5  1  0.77572234  0.77572234  0.40722574  1
  K  K6  1  0.04613795  0.04613795  0.65681132  1
  K  K7  1  0.95386205  0.95386205  0.34318868  1
  Ga  Ga0  1  0.67393460  0.67393460  0.76250921  1
  Ga  Ga1  1  0.32606540  0.32606540  0.23749079  1
  Au  Au0  1  0.79082237  0.79082237  0.73251871  1
  Au  Au1  1  0.20917763  0.20917763  0.26748129  1
  Au  Au2  1  0.62412619  0.62412619  0.57328968  1
  Au  Au3  1  0.37587381  0.37587381  0.42671032  1
  Au  Au4  1  0.50000000  0.50000000  0.50000000  1
  Au  Au5  1  0.00000000  -0.00000000  -0.00000000  1
  Au  Au6  1  0.09949146  0.09949146  0.14765604  1
  Au  Au7  1  0.90050854  0.90050854  0.85234396  1
  Au  Au8  1  0.85226872  0.35216536  0.36746805  1
  Au  Au9  1  0.64783464  0.14773128  0.63253195  1
  Au  Au10  1  0.14773128  0.64783464  0.63253195  1
  Au  Au11  1  0.35216536  0.85226872  0.36746805  1
  Au  Au12  1  0.12080136  0.64384432  0.07897667  1
  Au  Au13  1  0.35615568  0.87919864  0.92102333  1
  Au  Au14  1  0.87919864  0.35615568  0.92102333  1
  Au  Au15  1  0.64384432  0.12080136  0.07897667  1
loop_
_geom_bond_atom_site_label_1
_geom_bond_atom_site_label_2
_geom_bond_distance
_geom_bond_site_symmetry_2
K0 K6 3.590255 1_565
K0 K6 3.590255 1_655
K0 K1 3.800421 1_556
K1 K7 3.590255 1_455
K1 K7 3.590255 1_545
K2 K4 3.743875 1_555
K2 K3 3.804598 1_546
K2 K3 3.804598 1_456
K3 K5 3.743875 1_555
K4 K5 3.589902 1_545
K4 K5 3.589902 1_455
K4 K6 3.724276 1_555
K5 K7 3.724276 1_555
K6 K7 4.177573 1_445
Ga0 K4 3.494251 1_655
Ga0 K4 3.494251 1_565
Ga1 K5 3.494251 1_545
Ga1 K5 3.494251 1_455
Au0 Ga0 2.438742 1_555
Au0 Au9 2.770380 1_565
Au0 Au10 2.770380 1_655
Au0 Au7 2.798987 1_555
Au0 K2 3.369312 1_565
Au0 K2 3.369312 1_655
Au0 K4 3.598336 1_655
Au0 K4 3.598336 1_565
Au0 K5 3.647742 1_555
Au1 Ga1 2.438742 1_555
Au1 Au8 2.770380 1_455
Au1 Au11 2.770380 1_545
Au1 Au6 2.798987 1_555
Au1 K3 3.369312 1_455
Au1 K3 3.369312 1_545
Au1 K5 3.598336 1_545
Au1 K5 3.598336 1_455
Au1 K4 3.647742 1_555
Au2 Ga0 2.452541 1_555
Au2 Au8 2.768345 1_555
Au2 Au4 2.827592 1_555
Au2 K6 3.351130 1_565
Au2 K6 3.351130 1_655
Au2 K5 3.474067 1_555
Au2 K4 3.558216 1_655
Au2 K4 3.558216 1_565
Au2 K0 3.831787 1_555
Au3 Ga1 2.452541 1_555
Au3 Au9 2.768345 1_555
Au3 Au4 2.827592 1_555
Au3 K7 3.351130 1_545
Au3 K7 3.351130 1_455
Au3 K4 3.474067 1_555
Au3 K5 3.558216 1_545
Au3 K5 3.558216 1_455
Au3 K1 3.831787 1_555
Au4 Au8 2.827835 1_555
Au4 Au9 2.827835 1_555
Au4 K7 3.525577 1_455
Au4 K7 3.525577 1_545
Au4 K6 3.525577 1_655
Au4 K6 3.525577 1_565
Au4 K0 3.661563 1_555
Au4 K1 3.661563 1_555
Au5 Au7 2.808935 1_444
Au5 Au6 2.808935 1_555
Au5 K1 3.417230 1_455
Au5 K0 3.417230 1_454
Au5 K1 3.417230 1_545
Au5 K0 3.417230 1_544
Au5 K7 3.795354 1_445
Au5 K6 3.795354 1_554
Au6 Au8 2.820211 1_455
Au6 K1 3.348330 1_545
Au6 K1 3.348330 1_455
Au6 K7 3.520630 1_445
Au6 K3 3.736330 1_545
Au6 K3 3.736330 1_455
Au7 Au9 2.820211 1_565
Au7 K0 3.348330 1_655
Au7 K0 3.348330 1_565
Au7 K6 3.520630 1_665
Au7 K2 3.736330 1_655
Au7 K2 3.736330 1_565
Au8 K1 3.373748 1_555
Au8 K7 3.468093 1_545
Au8 K6 3.562072 1_655
Au8 K3 3.811706 1_555
Au9 K0 3.373748 1_555
Au9 K6 3.468093 1_655
Au9 K7 3.562072 1_545
Au9 K2 3.811706 1_555
Au10 Au3 2.768345 1_555
Au10 Au7 2.820211 1_455
Au10 Au4 2.827835 1_555
Au10 Au9 2.839600 1_465
Au10 Au9 2.840775 1_555
Au10 K0 3.373748 1_555
Au10 K6 3.468093 1_565
Au10 K7 3.562072 1_455
Au10 K2 3.811706 1_555
Au11 Au2 2.768345 1_555
Au11 Au6 2.820211 1_565
Au11 Au4 2.827835 1_555
Au11 Au8 2.839600 1_465
Au11 Au8 2.840775 1_555
Au11 K1 3.373748 1_555
Au11 K7 3.468093 1_455
Au11 K6 3.562072 1_565
Au11 K3 3.811706 1_555
Au12 Ga1 2.481406 1_555
Au12 Au15 2.709295 1_465
Au12 Au7 2.830898 1_454
Au12 Au5 2.860192 1_565
Au12 Au15 2.971080 1_555
Au12 K2 3.388147 1_554
Au12 K1 3.395859 1_555
Au12 K0 3.576962 1_554
Au12 K7 3.703677 1_455
Au12 K3 3.739541 1_455
Au13 Ga0 2.481406 1_555
Au13 Au14 2.709295 1_465
Au13 Au6 2.830898 1_566
Au13 Au5 2.860192 1_566
Au13 Au14 2.971080 1_555
Au13 K3 3.388147 1_556
Au13 K0 3.395859 1_555
Au13 K1 3.576962 1_556
Au13 K6 3.703677 1_565
Au13 K2 3.739541 1_565
Au14 Ga0 2.481406 1_555
Au14 Au6 2.830898 1_656
Au14 Au5 2.860192 1_656
Au14 K3 3.388147 1_556
Au14 K0 3.395859 1_555
Au14 K1 3.576962 1_556
Au14 K6 3.703677 1_655
Au14 K2 3.739541 1_655
Au15 Ga1 2.481406 1_555
Au15 Au7 2.830898 1_544
Au15 Au5 2.860192 1_655
Au15 K2 3.388147 1_554
Au15 K1 3.395859 1_555
Au15 K0 3.576962 1_554
Au15 K7 3.703677 1_545
Au15 K3 3.739541 1_545
