# generated using pymatgen
data_B4IrPd4Pt3
_symmetry_space_group_name_H-M   'P 1'
_cell_length_a   6.82742140
_cell_length_b   6.21825985
_cell_length_c   5.51532454
_cell_angle_alpha   69.76263196
_cell_angle_beta   58.13219535
_cell_angle_gamma   49.85349166
_symmetry_Int_Tables_number   1
_chemical_formula_structural   B4IrPd4Pt3
_chemical_formula_sum   'B4 Ir1 Pd4 Pt3'
_cell_volume   152.00074850
_cell_formula_units_Z   1
loop_
 _symmetry_equiv_pos_site_id
 _symmetry_equiv_pos_as_xyz
  1  'x, y, z'
loop_
 _atom_site_type_symbol
 _atom_site_label
 _atom_site_symmetry_multiplicity
 _atom_site_fract_x
 _atom_site_fract_y
 _atom_site_fract_z
 _atom_site_occupancy
  B  B0  1  0.04869463  0.00616572  0.57132063  1
  B  B1  1  0.68802437  0.84422557  0.22231553  1
  B  B2  1  0.39962064  0.56451132  0.99071608  1
  B  B3  1  0.24998397  0.20503948  0.84631233  1
  Ir  Ir0  1  0.38966013  0.86879489  0.64928294  1
  Pd  Pd0  1  0.96443138  0.77685521  0.37575772  1
  Pd  Pd1  1  0.47651799  0.28626830  0.36223216  1
  Pd  Pd2  1  0.86865010  0.36472758  0.28888664  1
  Pd  Pd3  1  0.87603085  0.38572981  0.77404476  1
  Pt  Pt0  1  0.09469365  0.63712246  0.86311025  1
  Pt  Pt1  1  0.38906009  0.85024771  0.15586987  1
  Pt  Pt2  1  0.60983220  0.15511095  0.84495010  1
loop_
_geom_bond_atom_site_label_1
_geom_bond_atom_site_label_2
_geom_bond_distance
_geom_bond_site_symmetry_2
B0 Ir0 2.138321 1_545
B0 Pt1 2.144672 1_545
B0 Pt2 2.174150 1_455
B0 Pd2 2.234658 1_455
B0 Pt0 2.236978 1_545
B0 Pd3 2.248685 1_455
B0 Pd0 2.510893 1_445
B1 Ir0 2.121476 1_555
B1 Pt0 2.153703 1_654
B1 Pd0 2.207868 1_555
B1 Pt1 2.232445 1_555
B1 Pd1 2.325672 1_565
B1 Pt2 2.326550 1_564
B1 Pd2 2.350556 1_555
B2 Ir0 2.152937 1_555
B2 Pt2 2.161761 1_555
B2 Pt1 2.208387 1_556
B2 Pd1 2.231516 1_556
B2 Pt0 2.269035 1_555
B2 Pd0 2.302120 1_456
B2 Pd3 2.322857 1_555
B3 Ir0 2.090094 1_545
B3 Pt0 2.178715 1_555
B3 Pd3 2.237279 1_455
B3 Pt1 2.255762 1_546
B3 Pt2 2.265177 1_555
B3 Pd2 2.314152 1_456
B3 Pd1 2.342979 1_555
