# generated using pymatgen
data_Al5GaTe6
_symmetry_space_group_name_H-M   'P 1'
_cell_length_a   4.11761113
_cell_length_b   9.53106217
_cell_length_c   11.04721779
_cell_angle_alpha   109.32033438
_cell_angle_beta   89.99999975
_cell_angle_gamma   102.47478767
_symmetry_Int_Tables_number   1
_chemical_formula_structural   Al5GaTe6
_chemical_formula_sum   'Al5 Ga1 Te6'
_cell_volume   398.27173400
_cell_formula_units_Z   1
loop_
 _symmetry_equiv_pos_site_id
 _symmetry_equiv_pos_as_xyz
  1  'x, y, z'
loop_
 _atom_site_type_symbol
 _atom_site_label
 _atom_site_symmetry_multiplicity
 _atom_site_fract_x
 _atom_site_fract_y
 _atom_site_fract_z
 _atom_site_occupancy
  Al  Al0  1  0.56478679  0.12957459  0.08799152  1
  Al  Al1  1  0.24139147  0.48278293  0.30696939  1
  Al  Al2  1  0.14183763  0.28367426  0.41740383  1
  Al  Al3  1  0.85883215  0.71766630  0.58323812  1
  Al  Al4  1  0.75877942  0.51756183  0.69266190  1
  Ga  Ga0  1  0.43741468  0.87483035  0.91712429  1
  Te  Te0  1  0.14987494  0.29974988  0.05900489  1
  Te  Te1  1  0.83712739  0.67425577  0.33136987  1
  Te  Te2  1  0.54671474  0.09342948  0.31867847  1
  Te  Te3  1  0.45258124  0.90516247  0.68061854  1
  Te  Te4  1  0.16229033  0.32458066  0.66719762  1
  Te  Te5  1  0.84836424  0.69672948  0.93774057  1
loop_
_geom_bond_atom_site_label_1
_geom_bond_atom_site_label_2
_geom_bond_distance
_geom_bond_site_symmetry_2
Al0 Ga0 2.480016 1_544
Al0 Te2 2.681169 1_555
Al0 Te0 2.681952 1_555
Al0 Te0 2.681955 1_655
Al1 Al2 2.540402 1_555
Al1 Te1 2.675973 1_555
Al1 Te1 2.675976 1_455
Al1 Te0 2.691293 1_555
Al2 Te4 2.654804 1_555
Al2 Te2 2.693327 1_555
Al2 Te2 2.693331 1_455
Al3 Al4 2.540575 1_555
Al3 Te1 2.672718 1_555
Al3 Te3 2.677382 1_555
Al3 Te3 2.677388 1_655
Al4 Te5 2.655365 1_555
Al4 Te4 2.683401 1_555
Al4 Te4 2.683411 1_655
Ga0 Te5 2.700628 1_555
Ga0 Te5 2.700628 1_455
Ga0 Te3 2.721368 1_555
