# generated using pymatgen
data_K4Cd(AsO4)2
_symmetry_space_group_name_H-M   'P 1'
_cell_length_a   5.40326067
_cell_length_b   5.92587815
_cell_length_c   8.08948197
_cell_angle_alpha   106.96652786
_cell_angle_beta   92.12550550
_cell_angle_gamma   96.63877903
_symmetry_Int_Tables_number   1
_chemical_formula_structural   K4Cd(AsO4)2
_chemical_formula_sum   'K4 Cd1 As2 O8'
_cell_volume   245.39807962
_cell_formula_units_Z   1
loop_
 _symmetry_equiv_pos_site_id
 _symmetry_equiv_pos_as_xyz
  1  'x, y, z'
loop_
 _atom_site_type_symbol
 _atom_site_label
 _atom_site_symmetry_multiplicity
 _atom_site_fract_x
 _atom_site_fract_y
 _atom_site_fract_z
 _atom_site_occupancy
  K  K0  1  0.28345698  0.58072561  0.16160175  1
  K  K1  1  0.80561129  0.72751524  0.46092104  1
  K  K2  1  0.19439071  0.27248576  0.53907896  1
  K  K3  1  0.71654502  0.41927439  0.83839825  1
  Cd  Cd0  1  0.00000000  0.00000000  0.00000000  1
  As  As0  1  0.63275550  0.14419435  0.25788669  1
  As  As1  1  0.36724350  0.85580365  0.74211331  1
  O  O0  1  0.79564804  0.32297262  0.15380193  1
  O  O1  1  0.73464730  0.87112507  0.18025219  1
  O  O2  1  0.31879498  0.12452296  0.21625877  1
  O  O3  1  0.30128585  0.74359642  0.52478311  1
  O  O4  1  0.69871415  0.25640458  0.47521689  1
  O  O5  1  0.68120602  0.87547604  0.78374123  1
  O  O6  1  0.26535170  0.12887393  0.81974781  1
  O  O7  1  0.20435096  0.67702638  0.84619807  1
loop_
_geom_bond_atom_site_label_1
_geom_bond_atom_site_label_2
_geom_bond_distance
_geom_bond_site_symmetry_2
K0 O1 2.789026 1_555
K0 O7 2.800633 1_554
K0 O3 2.806232 1_555
K0 O0 2.878324 1_455
K0 O2 2.889815 1_555
K0 O2 3.104227 1_565
K0 O6 3.228704 1_554
K0 O0 3.306075 1_555
K1 O5 2.640157 1_555
K1 O1 2.676718 1_555
K1 O3 2.694190 1_655
K1 O3 2.799525 1_555
K1 O4 2.821589 1_555
K1 O0 2.899390 1_555
K1 O4 3.222075 1_565
K2 O2 2.640156 1_555
K2 O6 2.676722 1_555
K2 O4 2.694201 1_455
K2 O4 2.799514 1_555
K2 O3 2.821588 1_555
K2 O7 2.899385 1_555
K2 O3 3.222072 1_545
K3 O6 2.789042 1_555
K3 O0 2.800634 1_556
K3 O4 2.806232 1_555
K3 O7 2.878308 1_655
K3 O5 2.889810 1_555
K3 O5 3.104232 1_545
K3 O1 3.228702 1_556
K3 O7 3.306086 1_555
Cd0 O5 2.302445 1_444
Cd0 O2 2.302448 1_555
Cd0 O6 2.305843 1_554
Cd0 O1 2.305849 1_445
Cd0 O0 2.372961 1_455
Cd0 O7 2.372962 1_544
As0 O4 1.696023 1_555
As0 O2 1.701114 1_555
As0 O1 1.718875 1_545
As0 O0 1.722197 1_555
As1 O3 1.696021 1_555
As1 O5 1.701124 1_555
As1 O6 1.718881 1_565
As1 O7 1.722192 1_555
