# generated using pymatgen
data_Zr5NbRh10
_symmetry_space_group_name_H-M   'P 1'
_cell_length_a   5.58584446
_cell_length_b   5.58584428
_cell_length_c   8.60996149
_cell_angle_alpha   90.00000000
_cell_angle_beta   90.00000000
_cell_angle_gamma   102.92532551
_symmetry_Int_Tables_number   1
_chemical_formula_structural   Zr5NbRh10
_chemical_formula_sum   'Zr5 Nb1 Rh10'
_cell_volume   261.83825192
_cell_formula_units_Z   1
loop_
 _symmetry_equiv_pos_site_id
 _symmetry_equiv_pos_as_xyz
  1  'x, y, z'
loop_
 _atom_site_type_symbol
 _atom_site_label
 _atom_site_symmetry_multiplicity
 _atom_site_fract_x
 _atom_site_fract_y
 _atom_site_fract_z
 _atom_site_occupancy
  Zr  Zr0  1  0.42314918  0.42314918  0.25000000  1
  Zr  Zr1  1  0.79304643  0.21035963  0.49977920  1
  Zr  Zr2  1  0.21035963  0.79304643  0.00022080  1
  Zr  Zr3  1  0.21035963  0.79304643  0.49977920  1
  Zr  Zr4  1  0.79304643  0.21035963  0.00022080  1
  Nb  Nb0  1  0.57456208  0.57456208  0.75000000  1
  Rh  Rh0  1  0.71115848  0.71115848  0.02393968  1
  Rh  Rh1  1  0.71115848  0.71115848  0.47606032  1
  Rh  Rh2  1  0.29783024  0.29783024  0.96281388  1
  Rh  Rh3  1  0.29783024  0.29783024  0.53718612  1
  Rh  Rh4  1  0.48977736  0.00962795  0.75000000  1
  Rh  Rh5  1  0.50908309  0.97076378  0.25000000  1
  Rh  Rh6  1  0.01334070  0.01334070  0.25000000  1
  Rh  Rh7  1  0.98490431  0.98490431  0.75000000  1
  Rh  Rh8  1  0.00962795  0.48977736  0.75000000  1
  Rh  Rh9  1  0.97076378  0.50908309  0.25000000  1
loop_
_geom_bond_atom_site_label_1
_geom_bond_atom_site_label_2
_geom_bond_distance
_geom_bond_site_symmetry_2
Nb0 Rh0 2.543021 1_556
Nb0 Rh1 2.543021 1_555
Nb0 Rh4 2.577809 1_565
Nb0 Rh8 2.577809 1_655
Nb0 Rh2 2.658445 1_555
Nb0 Rh3 2.658445 1_555
Nb0 Rh7 2.856079 1_555
Nb0 Rh4 3.084435 1_555
Nb0 Rh8 3.084435 1_555
Rh0 Zr4 2.730538 1_565
Rh0 Zr2 2.730539 1_655
Rh0 Zr0 2.794071 1_555
Rh0 Rh5 2.810258 1_555
Rh0 Rh9 2.810258 1_555
Rh0 Rh6 2.865669 1_665
Rh0 Rh2 2.924605 1_554
Rh0 Zr4 2.940870 1_555
Rh0 Zr2 2.940870 1_555
Rh0 Rh7 3.032053 1_554
Rh1 Zr1 2.730538 1_565
Rh1 Zr3 2.730539 1_655
Rh1 Zr0 2.794071 1_555
Rh1 Rh5 2.810258 1_555
Rh1 Rh9 2.810258 1_555
Rh1 Rh6 2.865669 1_665
Rh1 Rh3 2.924605 1_555
Rh1 Zr1 2.940870 1_555
Rh1 Zr3 2.940870 1_555
Rh1 Rh7 3.032053 1_555
Rh2 Zr0 2.621998 1_556
Rh2 Zr2 2.770655 1_546
Rh2 Zr4 2.770656 1_456
Rh2 Rh4 2.805491 1_555
Rh2 Rh8 2.805491 1_555
Rh2 Rh7 2.846269 1_445
Rh2 Zr2 2.932398 1_556
Rh2 Zr4 2.932398 1_556
Rh2 Rh6 3.167792 1_556
Rh3 Zr0 2.621998 1_555
Rh3 Zr3 2.770655 1_545
Rh3 Zr1 2.770656 1_455
Rh3 Rh4 2.805491 1_555
Rh3 Rh8 2.805491 1_555
Rh3 Rh7 2.846269 1_445
Rh3 Zr3 2.932398 1_555
Rh3 Zr1 2.932398 1_555
Rh3 Rh6 3.167792 1_555
Rh4 Zr2 2.774225 1_546
Rh4 Zr3 2.774225 1_545
Rh4 Rh7 2.792497 1_445
Rh4 Rh7 2.799830 1_545
Rh4 Zr4 2.813996 1_556
Rh4 Zr1 2.813996 1_555
Rh5 Zr0 2.675547 1_565
Rh5 Zr3 2.766543 1_555
Rh5 Zr2 2.766543 1_555
Rh5 Rh6 2.773212 1_665
Rh5 Zr1 2.825327 1_565
Rh5 Zr4 2.825327 1_565
Rh5 Rh6 2.831841 1_565
Rh5 Zr0 2.988370 1_555
Rh6 Rh9 2.773212 1_445
Rh6 Zr3 2.820674 1_545
Rh6 Zr2 2.820674 1_545
Rh6 Zr1 2.820674 1_455
Rh6 Zr4 2.820674 1_455
Rh6 Rh9 2.831841 1_455
Rh6 Zr0 2.852364 1_555
Rh7 Rh8 2.792497 1_665
Rh7 Rh8 2.799830 1_655
Rh7 Zr4 2.824833 1_566
Rh7 Zr1 2.824833 1_565
Rh7 Zr2 2.824833 1_656
Rh7 Zr3 2.824833 1_655
Rh8 Zr4 2.774225 1_456
Rh8 Zr1 2.774225 1_455
Rh8 Zr2 2.813995 1_556
Rh8 Zr3 2.813995 1_555
Rh9 Zr0 2.675547 1_655
Rh9 Zr1 2.766543 1_555
Rh9 Zr4 2.766543 1_555
Rh9 Zr3 2.825327 1_655
Rh9 Zr2 2.825327 1_655
Rh9 Zr0 2.988370 1_555
