# generated using pymatgen
data_NaTc3Mo3S8
_symmetry_space_group_name_H-M   'P 1'
_cell_length_a   6.53587986
_cell_length_b   6.53587962
_cell_length_c   6.53587807
_cell_angle_alpha   91.07845537
_cell_angle_beta   91.07844375
_cell_angle_gamma   91.07844700
_symmetry_Int_Tables_number   1
_chemical_formula_structural   NaTc3Mo3S8
_chemical_formula_sum   'Na1 Tc3 Mo3 S8'
_cell_volume   279.04757727
_cell_formula_units_Z   1
loop_
 _symmetry_equiv_pos_site_id
 _symmetry_equiv_pos_as_xyz
  1  'x, y, z'
loop_
 _atom_site_type_symbol
 _atom_site_label
 _atom_site_symmetry_multiplicity
 _atom_site_fract_x
 _atom_site_fract_y
 _atom_site_fract_z
 _atom_site_occupancy
  Na  Na0  1  0.99970896  0.99970896  0.99970896  1
  Tc  Tc0  1  0.76496725  0.44237240  0.58621273  1
  Tc  Tc1  1  0.58621273  0.76496725  0.44237240  1
  Tc  Tc2  1  0.44237240  0.58621273  0.76496725  1
  Mo  Mo0  1  0.23471711  0.55776554  0.41364070  1
  Mo  Mo1  1  0.41364070  0.23471711  0.55776554  1
  Mo  Mo2  1  0.55776554  0.41364070  0.23471711  1
  S  S0  1  0.87264813  0.61755205  0.27648183  1
  S  S1  1  0.27648183  0.87264813  0.61755205  1
  S  S2  1  0.61755205  0.27648183  0.87264813  1
  S  S3  1  0.12524395  0.38085266  0.73337908  1
  S  S4  1  0.73337908  0.12524395  0.38085266  1
  S  S5  1  0.38085266  0.73337908  0.12524395  1
  S  S6  1  0.75923813  0.75923813  0.75923813  1
  S  S7  1  0.23521747  0.23521747  0.23521747  1
loop_
_geom_bond_atom_site_label_1
_geom_bond_atom_site_label_2
_geom_bond_distance
_geom_bond_site_symmetry_2
Na0 S7 2.615408 1_666
Na0 S6 2.670516 1_555
Na0 S4 3.170000 1_566
Na0 S3 3.170001 1_665
Na0 S5 3.170001 1_656
Na0 S1 3.217014 1_655
Na0 S0 3.217014 1_556
Na0 S2 3.217014 1_565
Mo0 S7 2.389983 1_555
Mo0 S5 2.427050 1_555
Mo0 S1 2.438878 1_555
Mo0 S3 2.516381 1_555
Mo0 S0 2.554309 1_455
Mo1 S7 2.389983 1_555
Mo1 S3 2.427050 1_555
Mo1 S2 2.438878 1_555
Mo1 S4 2.516382 1_555
Mo1 S1 2.554309 1_545
Mo2 S7 2.389983 1_555
Mo2 S4 2.427050 1_555
Mo2 S0 2.438878 1_555
Mo2 S5 2.516382 1_555
Mo2 S2 2.554308 1_554
S0 Tc1 2.390325 1_555
S0 Tc0 2.452515 1_555
S1 Tc2 2.390325 1_555
S1 Tc1 2.452515 1_555
S2 Tc0 2.390325 1_555
S2 Tc2 2.452516 1_555
S3 Tc2 2.451332 1_555
S3 Tc0 2.568370 1_455
S4 Tc0 2.451331 1_555
S4 Tc1 2.568370 1_545
S5 Tc1 2.451331 1_555
S5 Tc2 2.568369 1_554
S6 Tc1 2.342147 1_555
S6 Tc0 2.342147 1_555
S6 Tc2 2.342147 1_555
