# generated using pymatgen
data_KNi6(BIr)6
_symmetry_space_group_name_H-M   'P 1'
_cell_length_a   6.28636772
_cell_length_b   6.28636706
_cell_length_c   6.28636788
_cell_angle_alpha   103.31772449
_cell_angle_beta   103.31772107
_cell_angle_gamma   103.31770039
_symmetry_Int_Tables_number   1
_chemical_formula_structural   KNi6(BIr)6
_chemical_formula_sum   'K1 Ni6 B6 Ir6'
_cell_volume   224.46204261
_cell_formula_units_Z   1
loop_
 _symmetry_equiv_pos_site_id
 _symmetry_equiv_pos_as_xyz
  1  'x, y, z'
loop_
 _atom_site_type_symbol
 _atom_site_label
 _atom_site_symmetry_multiplicity
 _atom_site_fract_x
 _atom_site_fract_y
 _atom_site_fract_z
 _atom_site_occupancy
  K  K0  1  0.00000000  0.00000000  0.00000000  1
  Ni  Ni0  1  0.53981413  0.79887658  0.53981413  1
  Ni  Ni1  1  0.53981413  0.53981413  0.79887658  1
  Ni  Ni2  1  0.79887658  0.53981413  0.53981413  1
  Ni  Ni3  1  0.46018587  0.20112342  0.46018587  1
  Ni  Ni4  1  0.46018587  0.46018587  0.20112342  1
  Ni  Ni5  1  0.20112342  0.46018587  0.46018587  1
  B  B0  1  0.76976443  0.34542739  0.76976443  1
  B  B1  1  0.76976443  0.76976443  0.34542739  1
  B  B2  1  0.34542739  0.76976443  0.76976443  1
  B  B3  1  0.23023557  0.65457261  0.23023557  1
  B  B4  1  0.23023557  0.23023557  0.65457261  1
  B  B5  1  0.65457261  0.23023557  0.23023557  1
  Ir  Ir0  1  0.13902418  0.86097582  0.50000000  1
  Ir  Ir1  1  0.50000000  0.13902418  0.86097582  1
  Ir  Ir2  1  0.86097582  0.50000000  0.13902418  1
  Ir  Ir3  1  0.50000000  0.86097582  0.13902418  1
  Ir  Ir4  1  0.13902418  0.50000000  0.86097582  1
  Ir  Ir5  1  0.86097582  0.13902418  0.50000000  1
loop_
_geom_bond_atom_site_label_1
_geom_bond_atom_site_label_2
_geom_bond_distance
_geom_bond_site_symmetry_2
K0 Ni5 3.333256 1_555
K0 Ni2 3.333256 1_444
K0 Ni3 3.333256 1_555
K0 Ni0 3.333256 1_444
K0 Ni4 3.333257 1_555
K0 Ni1 3.333257 1_444
B0 Ni1 2.109269 1_555
B0 Ni2 2.109270 1_555
B0 Ir5 2.159912 1_555
B0 Ir1 2.159913 1_555
B0 Ir2 2.179995 1_556
B0 Ir4 2.179995 1_655
B0 Ni3 2.241917 1_555
B0 K0 3.291768 1_656
B1 Ni2 2.109269 1_555
B1 Ni0 2.109270 1_555
B1 Ir2 2.159912 1_555
B1 Ir3 2.159912 1_555
B1 Ir5 2.179994 1_565
B1 Ir0 2.179995 1_655
B1 Ni4 2.241918 1_555
B1 K0 3.291769 1_665
B2 Ni1 2.109269 1_555
B2 Ni0 2.109270 1_555
B2 Ir0 2.159912 1_555
B2 Ir4 2.159913 1_555
B2 Ir1 2.179995 1_565
B2 Ir3 2.179995 1_556
B2 Ni5 2.241917 1_555
B2 K0 3.291768 1_566
B3 Ni4 2.109269 1_555
B3 Ni5 2.109270 1_555
B3 Ir0 2.159912 1_555
B3 Ir3 2.159913 1_555
B3 Ir4 2.179995 1_554
B3 Ir2 2.179995 1_455
B3 Ni0 2.241917 1_555
B3 K0 3.291768 1_565
B4 Ni5 2.109269 1_555
B4 Ni3 2.109270 1_555
B4 Ir4 2.159912 1_555
B4 Ir1 2.159912 1_555
B4 Ir0 2.179994 1_545
B4 Ir5 2.179995 1_455
B4 Ni1 2.241918 1_555
B4 K0 3.291769 1_556
B5 Ni4 2.109269 1_555
B5 Ni3 2.109270 1_555
B5 Ir5 2.159912 1_555
B5 Ir2 2.159913 1_555
B5 Ir3 2.179995 1_545
B5 Ir1 2.179995 1_554
B5 Ni2 2.241917 1_555
B5 K0 3.291768 1_655
Ir0 K0 3.429153 1_566
Ir0 K0 3.429153 1_565
Ir1 K0 3.429153 1_656
Ir1 K0 3.429153 1_556
Ir2 K0 3.429152 1_655
Ir2 K0 3.429153 1_665
Ir3 K0 3.429153 1_565
Ir3 K0 3.429153 1_665
Ir4 K0 3.429152 1_566
Ir4 K0 3.429153 1_556
Ir5 K0 3.429153 1_655
Ir5 K0 3.429153 1_656
