# generated using pymatgen
data_Ca2In3SnRh2
_symmetry_space_group_name_H-M   'P 1'
_cell_length_a   5.71339929
_cell_length_b   5.71340023
_cell_length_c   7.67095430
_cell_angle_alpha   89.56637253
_cell_angle_beta   90.43362640
_cell_angle_gamma   134.45519610
_symmetry_Int_Tables_number   1
_chemical_formula_structural   Ca2In3SnRh2
_chemical_formula_sum   'Ca2 In3 Sn1 Rh2'
_cell_volume   178.73084752
_cell_formula_units_Z   1
loop_
 _symmetry_equiv_pos_site_id
 _symmetry_equiv_pos_as_xyz
  1  'x, y, z'
loop_
 _atom_site_type_symbol
 _atom_site_label
 _atom_site_symmetry_multiplicity
 _atom_site_fract_x
 _atom_site_fract_y
 _atom_site_fract_z
 _atom_site_occupancy
  Ca  Ca0  1  0.93530475  0.06469525  0.75109792  1
  Ca  Ca1  1  0.06498433  0.93501567  0.25293847  1
  In  In0  1  0.64909529  0.35090471  0.94882010  1
  In  In1  1  0.35084508  0.64915492  0.05041081  1
  In  In2  1  0.35513452  0.64486548  0.44457501  1
  Sn  Sn0  1  0.64863618  0.35136382  0.55408726  1
  Rh  Rh0  1  0.21207386  0.78792614  0.74235419  1
  Rh  Rh1  1  0.78392700  0.21607300  0.25571624  1
loop_
_geom_bond_atom_site_label_1
_geom_bond_atom_site_label_2
_geom_bond_distance
_geom_bond_site_symmetry_2
Ca0 Rh0 2.917382 1_645
Ca0 Rh0 3.228686 1_545
Ca0 Rh0 3.228687 1_655
Ca0 In1 3.314786 1_546
Ca0 In1 3.314787 1_656
Ca0 In2 3.331712 1_545
Ca0 In2 3.331712 1_655
Ca0 Sn0 3.366239 1_555
Ca0 In0 3.386577 1_555
Ca0 In0 3.494119 1_655
Ca0 In0 3.494120 1_545
Ca0 Sn0 3.504629 1_655
Ca0 Sn0 3.504629 1_545
Ca1 Rh1 2.961493 1_465
Ca1 Rh1 3.195569 1_565
Ca1 Rh1 3.195570 1_455
Ca1 Sn0 3.312195 1_565
Ca1 Sn0 3.312196 1_455
Ca1 In0 3.339508 1_564
Ca1 In0 3.339508 1_454
Ca1 In2 3.381236 1_555
Ca1 In1 3.400246 1_555
Ca1 In2 3.463171 1_455
Ca1 In2 3.463172 1_565
Ca1 In1 3.512429 1_455
Ca1 In1 3.512430 1_565
In0 Rh1 2.739596 1_556
In0 Rh0 2.802971 1_655
In0 Rh0 2.802971 1_545
In0 Sn0 3.027942 1_555
In0 In1 3.160571 1_656
In0 In1 3.160572 1_546
In0 In1 3.243779 1_556
In1 Rh0 2.768613 1_554
In1 Rh1 2.808257 1_455
In1 Rh1 2.808258 1_565
In1 In2 3.023582 1_555
In2 Rh1 2.744913 1_455
In2 Rh1 2.744913 1_565
In2 Rh0 2.747047 1_555
In2 Sn0 3.197769 1_555
In2 Sn0 3.218697 1_455
In2 Sn0 3.218697 1_565
Rh0 Sn0 2.721631 1_455
Rh0 Sn0 2.721631 1_565
Rh1 Sn0 2.706286 1_555
