# generated using pymatgen
data_Rb6Te2O9
_symmetry_space_group_name_H-M   'P 1'
_cell_length_a   8.74646058
_cell_length_b   8.74646058
_cell_length_c   11.02718899
_cell_angle_alpha   67.85999528
_cell_angle_beta   67.85999528
_cell_angle_gamma   92.85068128
_symmetry_Int_Tables_number   1
_chemical_formula_structural   Rb6Te2O9
_chemical_formula_sum   'Rb12 Te4 O18'
_cell_volume   705.45986636
_cell_formula_units_Z   2
loop_
 _symmetry_equiv_pos_site_id
 _symmetry_equiv_pos_as_xyz
  1  'x, y, z'
loop_
 _atom_site_type_symbol
 _atom_site_label
 _atom_site_symmetry_multiplicity
 _atom_site_fract_x
 _atom_site_fract_y
 _atom_site_fract_z
 _atom_site_occupancy
  Rb  Rb0  1  0.49811417  0.69801721  0.02481689  1
  Rb  Rb1  1  0.30198279  0.50188583  0.47518311  1
  Rb  Rb2  1  0.50188583  0.30198279  0.97518311  1
  Rb  Rb3  1  0.69801721  0.49811417  0.52481689  1
  Rb  Rb4  1  0.99994297  0.70528499  0.02940072  1
  Rb  Rb5  1  0.29471501  0.00005703  0.47059928  1
  Rb  Rb6  1  0.00005703  0.29471501  0.97059928  1
  Rb  Rb7  1  0.70528499  0.99994297  0.52940072  1
  Rb  Rb8  1  0.09611525  0.31983301  0.26260358  1
  Rb  Rb9  1  0.68016699  0.90388475  0.23739642  1
  Rb  Rb10  1  0.90388475  0.68016699  0.73739642  1
  Rb  Rb11  1  0.31983301  0.09611525  0.76260358  1
  Te  Te0  1  0.37401169  0.62598831  0.75000000  1
  Te  Te1  1  0.62598831  0.37401169  0.25000000  1
  Te  Te2  1  0.14582428  0.85417572  0.25000000  1
  Te  Te3  1  0.85417572  0.14582428  0.75000000  1
  O  O0  1  0.09291123  0.63222444  0.28555236  1
  O  O1  1  0.36777556  0.90708877  0.21444764  1
  O  O2  1  0.90708877  0.36777556  0.71444764  1
  O  O3  1  0.63222444  0.09291123  0.78555236  1
  O  O4  1  0.88499718  0.01186928  0.90814528  1
  O  O5  1  0.98813072  0.11500282  0.59185472  1
  O  O6  1  0.11500282  0.98813072  0.09185472  1
  O  O7  1  0.01186928  0.88499718  0.40814528  1
  O  O8  1  0.66812579  0.58344522  0.25590639  1
  O  O9  1  0.41655478  0.33187421  0.24409361  1
  O  O10  1  0.33187421  0.41655478  0.74409361  1
  O  O11  1  0.58344522  0.66812579  0.75590639  1
  O  O12  1  0.52037839  0.26266478  0.45843634  1
  O  O13  1  0.73733522  0.47962161  0.04156366  1
  O  O14  1  0.47962161  0.73733522  0.54156366  1
  O  O15  1  0.26266478  0.52037839  0.95843634  1
  O  O16  1  0.22492645  0.77507355  0.75000000  1
  O  O17  1  0.77507355  0.22492645  0.25000000  1
loop_
_geom_bond_atom_site_label_1
_geom_bond_atom_site_label_2
_geom_bond_distance
_geom_bond_site_symmetry_2
O0 Te2 1.826667 1_555
O0 Rb8 2.837928 1_555
O0 Rb4 3.077417 1_455
O0 Rb1 3.210752 1_555
O0 Rb3 3.265315 1_455
O0 Rb0 3.468124 1_555
O1 Te2 1.826667 1_555
O1 Rb9 2.837928 1_555
O1 Rb5 3.077417 1_565
O1 Rb0 3.210752 1_555
O1 Rb2 3.265315 1_564
O1 Rb1 3.468124 1_555
O2 Te3 1.826667 1_555
O2 Rb10 2.837928 1_555
O2 Rb6 3.077417 1_655
O2 Rb3 3.210752 1_555
O2 Rb1 3.265315 1_655
O2 Rb2 3.468124 1_555
O3 Te3 1.826667 1_555
O3 Rb11 2.837928 1_555
O3 Rb7 3.077417 1_545
O3 Rb2 3.210752 1_555
O3 Rb0 3.265315 1_546
O3 Rb3 3.468124 1_555
O4 Te3 1.825455 1_555
O4 Rb4 2.927127 1_546
O4 Rb6 3.027574 1_655
O4 Rb9 3.102899 1_546
O4 Rb11 3.436960 1_655
O5 Te3 1.825455 1_555
O5 Rb5 2.927127 1_655
O5 Rb7 3.027574 1_545
O5 Rb8 3.102899 1_655
O5 Rb10 3.436960 1_545
O6 Te2 1.825455 1_555
O6 Rb6 2.927127 1_564
O6 Rb4 3.027574 1_455
O6 Rb11 3.102899 1_564
O6 Rb9 3.436960 1_455
O7 Te2 1.825455 1_555
O7 Rb7 2.927127 1_455
O7 Rb5 3.027574 1_565
O7 Rb10 3.102899 1_455
O7 Rb8 3.436960 1_565
O8 Te1 1.880543 1_555
O8 Rb9 2.726021 1_555
O8 Rb4 2.831861 1_555
O8 Rb3 2.890356 1_555
O8 Rb1 3.040945 1_555
O8 Rb0 3.284604 1_555
O9 Te1 1.880543 1_555
O9 Rb8 2.726021 1_555
O9 Rb5 2.831861 1_555
O9 Rb2 2.890356 1_554
O9 Rb0 3.040945 1_555
O9 Rb1 3.284604 1_555
O10 Te0 1.880543 1_555
O10 Rb11 2.726021 1_555
O10 Rb6 2.831861 1_555
O10 Rb1 2.890356 1_555
O10 Rb3 3.040945 1_555
O10 Rb2 3.284604 1_555
O11 Te0 1.880543 1_555
O11 Rb10 2.726021 1_555
O11 Rb7 2.831861 1_555
O11 Rb0 2.890356 1_556
O11 Rb2 3.040945 1_555
O11 Rb3 3.284604 1_555
O12 Te1 1.925532 1_555
O12 Rb11 2.842073 1_555
O12 Rb5 2.882140 1_555
O12 Rb7 2.911433 1_545
O12 Rb1 2.912679 1_555
O12 Rb3 2.977571 1_555
O13 Te1 1.925532 1_555
O13 Rb10 2.842073 1_554
O13 Rb4 2.882140 1_555
O13 Rb6 2.911433 1_654
O13 Rb0 2.912679 1_555
O13 Rb2 2.977571 1_554
O14 Te0 1.925532 1_555
O14 Rb9 2.842073 1_555
O14 Rb7 2.882140 1_555
O14 Rb5 2.911433 1_565
O14 Rb3 2.912679 1_555
O14 Rb1 2.977571 1_555
O15 Te0 1.925532 1_555
O15 Rb8 2.842073 1_556
O15 Rb6 2.882140 1_555
O15 Rb4 2.911433 1_456
O15 Rb2 2.912679 1_555
O15 Rb0 2.977571 1_556
O16 Te0 1.889389 1_555
O16 Rb4 2.762361 1_456
O16 Rb5 2.762361 1_565
O16 Rb11 2.956753 1_565
O16 Rb10 2.956753 1_455
O17 Te1 1.889389 1_555
O17 Rb7 2.762361 1_545
O17 Rb6 2.762361 1_654
O17 Rb8 2.956753 1_655
O17 Rb9 2.956753 1_545
