# generated using pymatgen
data_Th2MnN3
_symmetry_space_group_name_H-M   'P 1'
_cell_length_a   3.53891548
_cell_length_b   3.87618614
_cell_length_c   6.88857021
_cell_angle_alpha   106.34073226
_cell_angle_beta   104.88435048
_cell_angle_gamma   89.99998123
_symmetry_Int_Tables_number   1
_chemical_formula_structural   Th2MnN3
_chemical_formula_sum   'Th2 Mn1 N3'
_cell_volume   87.36786189
_cell_formula_units_Z   1
loop_
 _symmetry_equiv_pos_site_id
 _symmetry_equiv_pos_as_xyz
  1  'x, y, z'
loop_
 _atom_site_type_symbol
 _atom_site_label
 _atom_site_symmetry_multiplicity
 _atom_site_fract_x
 _atom_site_fract_y
 _atom_site_fract_z
 _atom_site_occupancy
  Th  Th0  1  0.64493937  0.64493937  0.28987774  1
  Th  Th1  1  0.35506063  0.35506063  0.71012226  1
  Mn  Mn0  1  0.00000000  0.00000000  -0.00000000  1
  N  N0  1  0.83686969  0.83686969  0.67373838  1
  N  N1  1  0.16313031  0.16313031  0.32626162  1
  N  N2  1  0.00000000  0.50000000  -0.00000000  1
loop_
_geom_bond_atom_site_label_1
_geom_bond_atom_site_label_2
_geom_bond_distance
_geom_bond_site_symmetry_2
Mn0 N2 1.938093 1_555
Mn0 N2 1.938093 1_545
Mn0 N1 2.077987 1_555
Mn0 N0 2.077987 1_444
N0 Th0 2.444840 1_555
N0 Th1 2.634551 1_665
N0 Th1 2.634555 1_565
N0 Th1 2.634556 1_655
N0 Th1 2.634562 1_555
N1 Th1 2.444840 1_555
N1 Th0 2.634551 1_445
N1 Th0 2.634555 1_545
N1 Th0 2.634556 1_455
N1 Th0 2.634562 1_555
N2 Th0 2.557271 1_455
N2 Th1 2.557271 1_554
N2 Th0 2.557273 1_555
N2 Th1 2.557273 1_454
