# generated using pymatgen
data_Cs2Sc(TeO4)3
_symmetry_space_group_name_H-M   'P 1'
_cell_length_a   7.35584285
_cell_length_b   7.35584292
_cell_length_c   7.35477684
_cell_angle_alpha   59.26553553
_cell_angle_beta   59.26553558
_cell_angle_gamma   59.27294505
_symmetry_Int_Tables_number   1
_chemical_formula_structural   Cs2Sc(TeO4)3
_chemical_formula_sum   'Cs2 Sc1 Te3 O12'
_cell_volume   276.70584778
_cell_formula_units_Z   1
loop_
 _symmetry_equiv_pos_site_id
 _symmetry_equiv_pos_as_xyz
  1  'x, y, z'
loop_
 _atom_site_type_symbol
 _atom_site_label
 _atom_site_symmetry_multiplicity
 _atom_site_fract_x
 _atom_site_fract_y
 _atom_site_fract_z
 _atom_site_occupancy
  Cs  Cs0  1  0.12353162  0.12940797  0.62639343  1
  Cs  Cs1  1  0.87059203  0.87646838  0.37360657  1
  Sc  Sc0  1  0.49749979  0.50250021  0.00000000  1
  Te  Te0  1  0.49721455  0.00287263  0.99990563  1
  Te  Te1  1  0.99712737  0.50278545  0.00009437  1
  Te  Te2  1  0.49722186  0.50277814  0.50000000  1
  O  O0  1  0.81476679  0.82015130  0.92551457  1
  O  O1  1  0.42818512  0.43314460  0.33754101  1
  O  O2  1  0.42818347  0.84013812  0.93058629  1
  O  O3  1  0.81472952  0.42808649  0.31745784  1
  O  O4  1  0.83492168  0.43315531  0.93070095  1
  O  O5  1  0.42284917  0.82014813  0.31743772  1
  O  O6  1  0.17984870  0.18523321  0.07448543  1
  O  O7  1  0.56685540  0.57181488  0.66245899  1
  O  O8  1  0.56684469  0.16507832  0.06929905  1
  O  O9  1  0.17985187  0.57715083  0.68256228  1
  O  O10  1  0.15986188  0.57181653  0.06941371  1
  O  O11  1  0.57191351  0.18527048  0.68254216  1
loop_
_geom_bond_atom_site_label_1
_geom_bond_atom_site_label_2
_geom_bond_distance
_geom_bond_site_symmetry_2
Cs0 O4 3.148935 1_455
Cs0 O1 3.150549 1_555
Cs0 O2 3.152919 1_545
Cs0 O3 3.197255 1_455
Cs0 O0 3.198535 1_445
Cs0 O5 3.199613 1_545
Cs1 O8 3.148935 1_565
Cs1 O7 3.150549 1_555
Cs1 O10 3.152919 1_655
Cs1 O11 3.197255 1_565
Cs1 O6 3.198535 1_665
Cs1 O9 3.199613 1_655
O0 Te1 1.947629 1_556
O0 Te0 1.949148 1_565
O1 Te2 1.859966 1_555
O1 Sc0 2.088242 1_555
O2 Te0 1.860173 1_565
O2 Sc0 2.089244 1_556
O3 Te1 1.947239 1_555
O3 Te2 1.948527 1_555
O4 Te1 1.860260 1_556
O4 Sc0 2.087902 1_556
O5 Te2 1.947798 1_555
O5 Te0 1.948588 1_564
O6 Te0 1.947629 1_554
O6 Te1 1.949148 1_455
O7 Te2 1.859966 1_555
O7 Sc0 2.088242 1_556
O8 Te0 1.860260 1_554
O8 Sc0 2.087902 1_555
O9 Te2 1.947798 1_555
O9 Te1 1.948588 1_456
O10 Te1 1.860173 1_455
O10 Sc0 2.089244 1_555
O11 Te0 1.947239 1_555
O11 Te2 1.948527 1_555
