# generated using pymatgen
data_Nb10GeB4Se
_symmetry_space_group_name_H-M   'P 1'
_cell_length_a   7.35892433
_cell_length_b   7.35892597
_cell_length_c   7.35892551
_cell_angle_alpha   129.41130726
_cell_angle_beta   129.41131698
_cell_angle_gamma   74.34964225
_symmetry_Int_Tables_number   1
_chemical_formula_structural   Nb10GeB4Se
_chemical_formula_sum   'Nb10 Ge1 B4 Se1'
_cell_volume   231.87399442
_cell_formula_units_Z   1
loop_
 _symmetry_equiv_pos_site_id
 _symmetry_equiv_pos_as_xyz
  1  'x, y, z'
loop_
 _atom_site_type_symbol
 _atom_site_label
 _atom_site_symmetry_multiplicity
 _atom_site_fract_x
 _atom_site_fract_y
 _atom_site_fract_z
 _atom_site_occupancy
  Nb  Nb0  1  0.99840592  0.99840592  0.00000000  1
  Nb  Nb1  1  0.50159408  0.50159408  1.00000000  1
  Nb  Nb2  1  0.80424191  0.30426065  0.83358279  1
  Nb  Nb3  1  0.19573935  0.69575809  0.16641721  1
  Nb  Nb4  1  0.47067785  0.97065911  0.16641721  1
  Nb  Nb5  1  0.30426065  0.47067785  0.50001874  1
  Nb  Nb6  1  0.02932215  0.19573935  0.49998126  1
  Nb  Nb7  1  0.52934089  0.02932215  0.83358279  1
  Nb  Nb8  1  0.69575809  0.52934089  0.50001874  1
  Nb  Nb9  1  0.97065911  0.80424191  0.49998126  1
  Ge  Ge0  1  0.75000000  0.75000000  0.00000000  1
  B  B0  1  0.11400427  0.61400427  0.72800855  1
  B  B1  1  0.88599573  0.38599573  0.27199145  1
  B  B2  1  0.61400427  0.88599573  0.50000000  1
  B  B3  1  0.38599573  0.11400427  0.50000000  1
  Se  Se0  1  0.25000000  0.25000000  0.00000000  1
loop_
_geom_bond_atom_site_label_1
_geom_bond_atom_site_label_2
_geom_bond_distance
_geom_bond_site_symmetry_2
Nb0 Se0 2.950473 1_665
Nb1 Se0 2.950473 1_556
Nb2 Se0 2.689400 1_656
Nb3 Se0 2.689401 1_555
Nb4 Se0 2.689400 1_565
Nb5 Se0 2.689401 1_555
Nb6 Se0 2.689400 1_556
Nb7 Se0 2.689400 1_556
Nb8 Se0 2.689400 1_555
Nb9 Se0 2.689401 1_666
Ge0 Nb3 2.689262 1_655
Ge0 Nb4 2.689262 1_555
Ge0 Nb7 2.689262 1_564
Ge0 Nb5 2.689263 1_554
Ge0 Nb9 2.689263 1_555
Ge0 Nb8 2.689263 1_554
Ge0 Nb2 2.689263 1_554
Ge0 Nb6 2.689263 1_665
Ge0 Nb0 2.913085 1_555
Ge0 Nb1 2.913085 1_554
B0 B1 2.027737 1_455
B0 Nb8 2.413826 1_455
B0 Nb5 2.413827 1_555
B0 Nb9 2.413897 1_455
B0 Nb6 2.413897 1_555
B0 Nb3 2.529601 1_556
B0 Nb4 2.529601 1_556
B0 Nb1 2.531051 1_555
B0 Nb0 2.531051 1_456
B1 Nb6 2.413827 1_655
B1 Nb9 2.413827 1_555
B1 Nb5 2.413896 1_655
B1 Nb8 2.413897 1_555
B1 Nb2 2.529601 1_554
B1 Nb7 2.529601 1_554
B1 Nb1 2.531051 1_554
B1 Nb0 2.531051 1_545
B2 B3 2.027736 1_565
B2 Nb4 2.413827 1_555
B2 Nb7 2.413827 1_565
B2 Nb3 2.413897 1_555
B2 Nb2 2.413897 1_565
B2 Nb9 2.529600 1_555
B2 Nb8 2.529601 1_555
B2 Nb0 2.531051 1_556
B2 Nb1 2.531051 1_554
B3 Nb2 2.413827 1_555
B3 Nb3 2.413827 1_545
B3 Nb7 2.413897 1_555
B3 Nb4 2.413897 1_545
B3 Nb6 2.529600 1_555
B3 Nb5 2.529601 1_555
B3 Nb0 2.531051 1_445
B3 Nb1 2.531051 1_555
