# generated using pymatgen
data_Y16Cd3InNi4
_symmetry_space_group_name_H-M   'P 1'
_cell_length_a   9.58194402
_cell_length_b   9.58194335
_cell_length_c   9.58194445
_cell_angle_alpha   60.06594319
_cell_angle_beta   60.06594029
_cell_angle_gamma   60.06594752
_symmetry_Int_Tables_number   1
_chemical_formula_structural   Y16Cd3InNi4
_chemical_formula_sum   'Y16 Cd3 In1 Ni4'
_cell_volume   623.00917349
_cell_formula_units_Z   1
loop_
 _symmetry_equiv_pos_site_id
 _symmetry_equiv_pos_as_xyz
  1  'x, y, z'
loop_
 _atom_site_type_symbol
 _atom_site_label
 _atom_site_symmetry_multiplicity
 _atom_site_fract_x
 _atom_site_fract_y
 _atom_site_fract_z
 _atom_site_occupancy
  Y  Y0  1  0.34832885  0.34832885  0.34832885  1
  Y  Y1  1  0.34932798  0.34932798  0.95235505  1
  Y  Y2  1  0.34932798  0.95235505  0.34932798  1
  Y  Y3  1  0.95235505  0.34932798  0.34932798  1
  Y  Y4  1  0.81120927  0.18852646  0.18852646  1
  Y  Y5  1  0.19016266  0.81033388  0.81033388  1
  Y  Y6  1  0.18852646  0.81120927  0.18852646  1
  Y  Y7  1  0.81033388  0.19016266  0.81033388  1
  Y  Y8  1  0.18852646  0.18852646  0.81120927  1
  Y  Y9  1  0.81033388  0.81033388  0.19016266  1
  Y  Y10  1  0.93863703  0.56353062  0.56353062  1
  Y  Y11  1  0.56322372  0.93772747  0.93772747  1
  Y  Y12  1  0.56353062  0.93863703  0.56353062  1
  Y  Y13  1  0.93772747  0.56322372  0.93772747  1
  Y  Y14  1  0.56353062  0.56353062  0.93863703  1
  Y  Y15  1  0.93772747  0.93772747  0.56322372  1
  Cd  Cd0  1  0.57996884  0.57996884  0.25741579  1
  Cd  Cd1  1  0.57996884  0.25741579  0.57996884  1
  Cd  Cd2  1  0.25741579  0.57996884  0.57996884  1
  In  In0  1  0.58163685  0.58163685  0.58163685  1
  Ni  Ni0  1  0.14240628  0.14240628  0.14240628  1
  Ni  Ni1  1  0.14140762  0.14140762  0.57297575  1
  Ni  Ni2  1  0.14140762  0.57297575  0.14140762  1
  Ni  Ni3  1  0.57297575  0.14140762  0.14140762  1
loop_
_geom_bond_atom_site_label_1
_geom_bond_atom_site_label_2
_geom_bond_distance
_geom_bond_site_symmetry_2
Cd0 Cd2 3.093765 1_555
Cd0 Cd1 3.093765 1_555
Cd0 In0 3.122701 1_555
Cd0 Y14 3.219439 1_554
Cd0 Y13 3.259169 1_554
Cd0 Y11 3.259169 1_554
Cd0 Y0 3.416003 1_555
Cd0 Y2 3.422786 1_555
Cd0 Y3 3.422787 1_555
Cd0 Y4 3.482907 1_555
Cd0 Y6 3.482907 1_555
Cd0 Y9 3.490479 1_555
Cd1 Cd2 3.093765 1_555
Cd1 In0 3.122701 1_555
Cd1 Y12 3.219439 1_545
Cd1 Y11 3.259169 1_545
Cd1 Y15 3.259169 1_545
Cd1 Y0 3.416003 1_555
Cd1 Y3 3.422786 1_555
Cd1 Y1 3.422786 1_555
Cd1 Y8 3.482907 1_555
Cd1 Y4 3.482907 1_555
Cd1 Y7 3.490480 1_555
Cd2 In0 3.122701 1_555
Cd2 Y10 3.219439 1_455
Cd2 Y13 3.259169 1_455
Cd2 Y15 3.259169 1_455
Cd2 Y0 3.416003 1_555
Cd2 Y2 3.422786 1_555
Cd2 Y1 3.422787 1_555
Cd2 Y8 3.482907 1_555
Cd2 Y6 3.482907 1_555
Cd2 Y5 3.490480 1_555
In0 Y12 3.256873 1_555
In0 Y10 3.256873 1_555
In0 Y14 3.256873 1_555
In0 Y1 3.419127 1_555
In0 Y3 3.419127 1_555
In0 Y2 3.419127 1_555
In0 Y9 3.472762 1_555
In0 Y5 3.472762 1_555
In0 Y7 3.472762 1_555
Ni0 Y6 2.803101 1_545
Ni0 Y4 2.803101 1_455
Ni0 Y8 2.803101 1_554
Ni0 Y1 2.809802 1_554
Ni0 Y3 2.809802 1_455
Ni0 Y2 2.809802 1_545
Ni0 Y15 3.464939 1_445
Ni0 Y11 3.464939 1_544
Ni0 Y13 3.464939 1_454
Ni1 Y5 2.799165 1_545
Ni1 Y7 2.799165 1_455
Ni1 Y2 2.802604 1_545
Ni1 Y3 2.802604 1_455
Ni1 Y8 2.806989 1_555
Ni1 Y0 2.810745 1_555
Ni1 Y15 3.433945 1_445
Ni1 Y10 3.479998 1_455
Ni1 Y12 3.479998 1_545
Ni2 Y5 2.799165 1_554
Ni2 Y9 2.799165 1_455
Ni2 Y3 2.802604 1_455
Ni2 Y1 2.802604 1_554
Ni2 Y6 2.806989 1_555
Ni2 Y0 2.810746 1_555
Ni2 Y13 3.433946 1_454
Ni2 Y14 3.479998 1_554
Ni2 Y10 3.479998 1_455
Ni3 Y7 2.799165 1_554
Ni3 Y9 2.799165 1_545
Ni3 Y2 2.802604 1_545
Ni3 Y1 2.802604 1_554
Ni3 Y4 2.806989 1_555
Ni3 Y0 2.810745 1_555
Ni3 Y11 3.433945 1_544
Ni3 Y14 3.479998 1_554
Ni3 Y12 3.479998 1_545
