# generated using pymatgen
data_LiNbIrRh
_symmetry_space_group_name_H-M   'P 1'
_cell_length_a   4.33783712
_cell_length_b   4.33783698
_cell_length_c   4.33783723
_cell_angle_alpha   59.99999805
_cell_angle_beta   59.99999916
_cell_angle_gamma   59.99998966
_symmetry_Int_Tables_number   1
_chemical_formula_structural   LiNbIrRh
_chemical_formula_sum   'Li1 Nb1 Ir1 Rh1'
_cell_volume   57.71712357
_cell_formula_units_Z   1
loop_
 _symmetry_equiv_pos_site_id
 _symmetry_equiv_pos_as_xyz
  1  'x, y, z'
loop_
 _atom_site_type_symbol
 _atom_site_label
 _atom_site_symmetry_multiplicity
 _atom_site_fract_x
 _atom_site_fract_y
 _atom_site_fract_z
 _atom_site_occupancy
  Li  Li0  1  0.00000000  0.00000000  0.00000000  1
  Nb  Nb0  1  0.50000000  0.50000000  0.50000000  1
  Ir  Ir0  1  0.25000000  0.25000000  0.25000000  1
  Rh  Rh0  1  0.75000000  0.75000000  0.75000000  1
loop_
_geom_bond_atom_site_label_1
_geom_bond_atom_site_label_2
_geom_bond_distance
_geom_bond_site_symmetry_2
Li0 Rh0 2.656372 1_454
Li0 Rh0 2.656372 1_544
Li0 Rh0 2.656372 1_445
Li0 Rh0 2.656372 1_444
Nb0 Rh0 2.656372 1_545
Nb0 Rh0 2.656372 1_455
Nb0 Rh0 2.656372 1_554
Nb0 Rh0 2.656372 1_555
Ir0 Nb0 2.656372 1_545
Ir0 Li0 2.656372 1_565
Ir0 Li0 2.656372 1_655
Ir0 Nb0 2.656372 1_455
Ir0 Nb0 2.656372 1_555
Ir0 Li0 2.656372 1_556
Ir0 Li0 2.656372 1_555
Ir0 Nb0 2.656372 1_554
