# generated using pymatgen
data_Y2Se2ICl
_symmetry_space_group_name_H-M   'P 1'
_cell_length_a   4.15160466
_cell_length_b   5.63654675
_cell_length_c   8.55770309
_cell_angle_alpha   90.00000000
_cell_angle_beta   90.00000000
_cell_angle_gamma   90.00000000
_symmetry_Int_Tables_number   1
_chemical_formula_structural   Y2Se2ICl
_chemical_formula_sum   'Y2 Se2 I1 Cl1'
_cell_volume   200.25636058
_cell_formula_units_Z   1
loop_
 _symmetry_equiv_pos_site_id
 _symmetry_equiv_pos_as_xyz
  1  'x, y, z'
loop_
 _atom_site_type_symbol
 _atom_site_label
 _atom_site_symmetry_multiplicity
 _atom_site_fract_x
 _atom_site_fract_y
 _atom_site_fract_z
 _atom_site_occupancy
  Y  Y0  1  0.50000000  0.00000000  0.85308761  1
  Y  Y1  1  0.00000000  0.50000000  0.12537967  1
  Se  Se0  1  0.50000000  0.50000000  0.89524261  1
  Se  Se1  1  0.00000000  0.00000000  0.08740392  1
  I  I0  1  0.50000000  0.50000000  0.38328502  1
  Cl  Cl0  1  0.00000000  0.00000000  0.65560117  1
loop_
_geom_bond_atom_site_label_1
_geom_bond_atom_site_label_2
_geom_bond_distance
_geom_bond_site_symmetry_2
Se0 Y0 2.841268 1_555
Se0 Y0 2.841268 1_565
Se0 Y1 2.861410 1_556
Se0 Y1 2.861410 1_656
Se1 Y1 2.836949 1_555
Se1 Y1 2.836949 1_545
Se1 Y0 2.886143 1_454
Se1 Y0 2.886143 1_554
I0 Y1 3.029876 1_655
I0 Y1 3.029876 1_555
Cl0 Y0 2.676781 1_555
Cl0 Y0 2.676781 1_455
