# generated using pymatgen
data_Zr2VReW2
_symmetry_space_group_name_H-M   'P 1'
_cell_length_a   5.32269970
_cell_length_b   5.31561060
_cell_length_c   5.31561098
_cell_angle_alpha   119.51691736
_cell_angle_beta   120.33951613
_cell_angle_gamma   90.08713970
_symmetry_Int_Tables_number   1
_chemical_formula_structural   Zr2VReW2
_chemical_formula_sum   'Zr2 V1 Re1 W2'
_cell_volume   106.49078340
_cell_formula_units_Z   1
loop_
 _symmetry_equiv_pos_site_id
 _symmetry_equiv_pos_as_xyz
  1  'x, y, z'
loop_
 _atom_site_type_symbol
 _atom_site_label
 _atom_site_symmetry_multiplicity
 _atom_site_fract_x
 _atom_site_fract_y
 _atom_site_fract_z
 _atom_site_occupancy
  Zr  Zr0  1  0.12537005  0.87456414  0.25080591  1
  Zr  Zr1  1  0.87462995  0.12543586  0.74919409  1
  V  V0  1  0.00000000  0.50000000  0.50000000  1
  Re  Re0  1  0.50000000  0.50000000  0.00000000  1
  W  W0  1  0.50000000  0.00000000  0.00000000  1
  W  W1  1  0.50000000  0.50000000  0.50000000  1
loop_
_geom_bond_atom_site_label_1
_geom_bond_atom_site_label_2
_geom_bond_distance
_geom_bond_site_symmetry_2
Zr0 Zr1 3.245097 1_565
Zr0 Zr1 3.253166 1_464
Zr0 Zr1 3.267137 1_454
Zr0 Zr1 3.267138 1_465
V0 W0 2.661350 1_455
V0 W0 2.661350 1_566
V0 W1 2.661350 1_455
V0 W1 2.661350 1_555
V0 Zr0 3.106741 1_555
V0 Zr1 3.106741 1_455
V0 Zr1 3.132588 1_465
V0 Zr0 3.132588 1_545
V0 Zr0 3.132588 1_556
V0 Zr1 3.132588 1_454
Re0 V0 2.645919 1_655
Re0 V0 2.645919 1_554
Re0 W0 2.657805 1_565
Re0 W0 2.657805 1_555
Re0 W1 2.657805 1_554
Re0 W1 2.657805 1_555
Re0 Zr0 3.114909 1_655
Re0 Zr1 3.114909 1_454
Re0 Zr1 3.130495 1_565
Re0 Zr0 3.130495 1_544
Re0 Zr0 3.130495 1_555
Re0 Zr1 3.130495 1_554
W0 W1 2.677188 1_544
W0 W1 2.677188 1_555
W0 Zr1 3.104428 1_555
W0 Zr0 3.104428 1_544
W0 Zr0 3.114707 1_645
W0 Zr1 3.114707 1_454
W0 Zr1 3.123413 1_554
W0 Zr0 3.123413 1_545
W1 Zr0 3.104428 1_555
W1 Zr1 3.104428 1_555
W1 Zr0 3.114707 1_656
W1 Zr1 3.114707 1_454
W1 Zr1 3.123413 1_565
W1 Zr0 3.123413 1_545
