# generated using pymatgen
data_K3Ba3AlSb4
_symmetry_space_group_name_H-M   'P 1'
_cell_length_a   11.03783177
_cell_length_b   11.03783246
_cell_length_c   8.42469008
_cell_angle_alpha   90.00000000
_cell_angle_beta   90.00000000
_cell_angle_gamma   120.00000089
_symmetry_Int_Tables_number   1
_chemical_formula_structural   K3Ba3AlSb4
_chemical_formula_sum   'K6 Ba6 Al2 Sb8'
_cell_volume   888.89841025
_cell_formula_units_Z   2
loop_
 _symmetry_equiv_pos_site_id
 _symmetry_equiv_pos_as_xyz
  1  'x, y, z'
loop_
 _atom_site_type_symbol
 _atom_site_label
 _atom_site_symmetry_multiplicity
 _atom_site_fract_x
 _atom_site_fract_y
 _atom_site_fract_z
 _atom_site_occupancy
  K  K0  1  0.86238364  0.13761636  0.54943341  1
  K  K1  1  0.27523171  0.13761636  0.54943341  1
  K  K2  1  0.86238364  0.72476829  0.54943341  1
  K  K3  1  0.13761636  0.86238364  0.04943341  1
  K  K4  1  0.72476829  0.86238364  0.04943341  1
  K  K5  1  0.13761636  0.27523171  0.04943341  1
  Ba  Ba0  1  0.47879243  0.52120757  0.73345482  1
  Ba  Ba1  1  0.04241514  0.52120757  0.73345482  1
  Ba  Ba2  1  0.47879243  0.95758486  0.73345482  1
  Ba  Ba3  1  0.52120757  0.47879243  0.23345482  1
  Ba  Ba4  1  0.95758486  0.47879243  0.23345482  1
  Ba  Ba5  1  0.52120757  0.04241514  0.23345482  1
  Al  Al0  1  0.66666700  0.33333300  0.85439817  1
  Al  Al1  1  0.33333300  0.66666700  0.35439817  1
  Sb  Sb0  1  0.80272582  0.19727418  0.95384917  1
  Sb  Sb1  1  0.39454936  0.19727418  0.95384917  1
  Sb  Sb2  1  0.80272582  0.60545064  0.95384917  1
  Sb  Sb3  1  0.19727418  0.80272582  0.45384917  1
  Sb  Sb4  1  0.60545064  0.80272582  0.45384917  1
  Sb  Sb5  1  0.19727418  0.39454936  0.45384917  1
  Sb  Sb6  1  0.66666700  0.33333300  0.52075265  1
  Sb  Sb7  1  0.33333300  0.66666700  0.02075265  1
loop_
_geom_bond_atom_site_label_1
_geom_bond_atom_site_label_2
_geom_bond_distance
_geom_bond_site_symmetry_2
K0 Sb5 3.445577 1_655
K0 Sb4 3.445577 1_545
K0 Sb0 3.592912 1_555
K0 Sb6 3.749521 1_555
K1 Sb5 3.445577 1_555
K1 Sb3 3.445577 1_545
K1 Sb1 3.592918 1_555
K1 Sb6 3.749540 1_555
K2 Sb3 3.445577 1_655
K2 Sb4 3.445577 1_555
K2 Sb2 3.592918 1_555
K2 Sb6 3.749540 1_555
K3 Sb2 3.445577 1_454
K3 Sb1 3.445577 1_564
K3 Sb3 3.592912 1_555
K3 Sb7 3.749521 1_555
K4 Sb2 3.445577 1_554
K4 Sb0 3.445577 1_564
K4 Sb4 3.592918 1_555
K4 Sb7 3.749540 1_555
K5 Sb0 3.445577 1_454
K5 Sb1 3.445577 1_554
K5 Sb5 3.592918 1_555
K5 Sb7 3.749540 1_555
Ba0 Sb5 3.579770 1_555
Ba0 Sb4 3.579771 1_555
Ba0 Sb7 3.686699 1_556
Ba0 Sb2 3.711037 1_555
Ba0 Sb1 3.711038 1_555
Ba0 Sb6 4.013991 1_555
Ba1 Sb5 3.579763 1_555
Ba1 Sb3 3.579770 1_555
Ba1 Sb7 3.686692 1_556
Ba1 Sb2 3.711028 1_455
Ba1 Sb0 3.711035 1_455
Ba1 Sb6 4.013983 1_455
Ba2 Sb4 3.579763 1_555
Ba2 Sb3 3.579770 1_555
Ba2 Sb7 3.686692 1_556
Ba2 Sb1 3.711028 1_565
Ba2 Sb0 3.711035 1_565
Ba2 Sb6 4.013983 1_565
Ba3 Sb2 3.579770 1_554
Ba3 Sb1 3.579771 1_554
Ba3 Sb6 3.686699 1_555
Ba3 Sb5 3.711037 1_555
Ba3 Sb4 3.711038 1_555
Ba3 Sb7 4.013991 1_555
Ba4 Sb2 3.579763 1_554
Ba4 Sb0 3.579770 1_554
Ba4 Sb6 3.686692 1_555
Ba4 Sb5 3.711028 1_655
Ba4 Sb3 3.711035 1_655
Ba4 Sb7 4.013983 1_655
Ba5 Sb1 3.579763 1_554
Ba5 Sb0 3.579770 1_554
Ba5 Sb6 3.686692 1_555
Ba5 Sb4 3.711028 1_545
Ba5 Sb3 3.711035 1_545
Ba5 Sb7 4.013983 1_545
Al0 Sb1 2.732790 1_555
Al0 Sb0 2.732790 1_555
Al0 Sb2 2.732790 1_555
Al0 Sb6 2.810860 1_555
Al1 Sb4 2.732790 1_555
Al1 Sb3 2.732790 1_555
Al1 Sb5 2.732790 1_555
Al1 Sb7 2.810860 1_555
