# generated using pymatgen
data_Rb(CrSb3)4
_symmetry_space_group_name_H-M   'P 1'
_cell_length_a   8.31770417
_cell_length_b   8.31770550
_cell_length_c   8.31770574
_cell_angle_alpha   109.47122124
_cell_angle_beta   109.47122447
_cell_angle_gamma   109.47122046
_symmetry_Int_Tables_number   1
_chemical_formula_structural   Rb(CrSb3)4
_chemical_formula_sum   'Rb1 Cr4 Sb12'
_cell_volume   442.98461966
_cell_formula_units_Z   1
loop_
 _symmetry_equiv_pos_site_id
 _symmetry_equiv_pos_as_xyz
  1  'x, y, z'
loop_
 _atom_site_type_symbol
 _atom_site_label
 _atom_site_symmetry_multiplicity
 _atom_site_fract_x
 _atom_site_fract_y
 _atom_site_fract_z
 _atom_site_occupancy
  Rb  Rb0  1  0.00000000  0.00000000  0.00000000  1
  Cr  Cr0  1  0.50000000  0.50000000  0.50000000  1
  Cr  Cr1  1  0.50000000  0.00000000  0.00000000  1
  Cr  Cr2  1  0.00000000  0.50000000  0.00000000  1
  Cr  Cr3  1  0.00000000  0.00000000  0.50000000  1
  Sb  Sb0  1  0.84899678  0.65385179  0.50284857  1
  Sb  Sb1  1  0.15100322  0.34614821  0.49715143  1
  Sb  Sb2  1  0.15100322  0.65385179  0.80485602  1
  Sb  Sb3  1  0.84899678  0.34614821  0.19514398  1
  Sb  Sb4  1  0.65385179  0.50284857  0.84899678  1
  Sb  Sb5  1  0.34614821  0.49715143  0.15100322  1
  Sb  Sb6  1  0.65385179  0.80485602  0.15100322  1
  Sb  Sb7  1  0.34614821  0.19514398  0.84899678  1
  Sb  Sb8  1  0.50284857  0.84899678  0.65385179  1
  Sb  Sb9  1  0.49715143  0.15100322  0.34614821  1
  Sb  Sb10  1  0.19514398  0.84899678  0.34614821  1
  Sb  Sb11  1  0.80485602  0.15100322  0.65385179  1
loop_
_geom_bond_atom_site_label_1
_geom_bond_atom_site_label_2
_geom_bond_distance
_geom_bond_site_symmetry_2
Rb0 Sb7 3.627134 1_554
Rb0 Sb6 3.627134 1_445
Rb0 Sb3 3.627134 1_455
Rb0 Sb2 3.627134 1_544
Rb0 Sb10 3.627135 1_545
Rb0 Sb11 3.627135 1_454
Rb0 Sb9 3.627136 1_555
Rb0 Sb8 3.627136 1_444
Rb0 Sb4 3.627137 1_444
Rb0 Sb5 3.627137 1_555
Rb0 Sb1 3.627137 1_555
Rb0 Sb0 3.627137 1_444
Cr0 Sb0 2.742654 1_555
Cr0 Sb1 2.742654 1_555
Cr0 Sb4 2.742655 1_555
Cr0 Sb5 2.742655 1_555
Cr0 Sb8 2.742655 1_555
Cr0 Sb9 2.742655 1_555
Cr1 Sb7 2.742647 1_554
Cr1 Sb6 2.742647 1_545
Cr1 Sb9 2.742655 1_555
Cr1 Sb8 2.742655 1_544
Cr1 Sb3 2.742655 1_555
Cr1 Sb2 2.742655 1_544
Cr2 Sb3 2.742647 1_455
Cr2 Sb2 2.742647 1_554
Cr2 Sb5 2.742654 1_555
Cr2 Sb4 2.742654 1_454
Cr2 Sb10 2.742656 1_555
Cr2 Sb11 2.742656 1_454
Cr3 Sb11 2.742647 1_455
Cr3 Sb10 2.742647 1_545
Cr3 Sb1 2.742655 1_555
Cr3 Sb0 2.742655 1_445
Cr3 Sb7 2.742655 1_555
Cr3 Sb6 2.742655 1_445
Sb0 Sb2 2.900613 1_655
Sb0 Sb3 2.955331 1_555
Sb1 Sb3 2.900613 1_455
Sb1 Sb2 2.955331 1_555
Sb4 Sb6 2.900613 1_556
Sb4 Sb7 2.955331 1_555
Sb5 Sb7 2.900613 1_554
Sb5 Sb6 2.955331 1_555
Sb10 Sb9 2.900613 1_565
Sb10 Sb8 2.955331 1_555
Sb11 Sb8 2.900613 1_545
Sb11 Sb9 2.955331 1_555
