# generated using pymatgen
data_Sr4AgHgN2
_symmetry_space_group_name_H-M   'P 1'
_cell_length_a   10.02617791
_cell_length_b   10.02617924
_cell_length_c   5.31974576
_cell_angle_alpha   90.00000000
_cell_angle_beta   90.00000000
_cell_angle_gamma   158.23611274
_symmetry_Int_Tables_number   1
_chemical_formula_structural   Sr4AgHgN2
_chemical_formula_sum   'Sr4 Ag1 Hg1 N2'
_cell_volume   198.28097010
_cell_formula_units_Z   1
loop_
 _symmetry_equiv_pos_site_id
 _symmetry_equiv_pos_as_xyz
  1  'x, y, z'
loop_
 _atom_site_type_symbol
 _atom_site_label
 _atom_site_symmetry_multiplicity
 _atom_site_fract_x
 _atom_site_fract_y
 _atom_site_fract_z
 _atom_site_occupancy
  Sr  Sr0  1  0.39325490  0.60674710  0.25000000  1
  Sr  Sr1  1  0.21547670  0.78452430  0.25000000  1
  Sr  Sr2  1  0.78428350  0.21571750  0.75000100  1
  Sr  Sr3  1  0.60595242  0.39404958  0.75000100  1
  Ag  Ag0  1  0.96384226  0.03615974  0.75000100  1
  Hg  Hg0  1  0.03769701  0.96230499  0.25000000  1
  N  N0  1  0.80591939  0.19408261  0.25000000  1
  N  N1  1  0.19358081  0.80642119  0.75000100  1
loop_
_geom_bond_atom_site_label_1
_geom_bond_atom_site_label_2
_geom_bond_distance
_geom_bond_site_symmetry_2
Ag0 Hg0 3.031497 1_646
Ag0 Hg0 3.031507 1_645
Ag0 Sr3 3.378424 1_655
Ag0 Sr3 3.378425 1_545
Ag0 Sr2 3.535822 1_555
Ag0 Sr0 3.548192 1_546
Ag0 Sr0 3.548193 1_656
Ag0 Sr0 3.548200 1_545
Ag0 Sr0 3.548201 1_655
Hg0 Sr0 3.416557 1_455
Hg0 Sr0 3.416559 1_565
Hg0 Sr1 3.500809 1_555
Hg0 Sr3 3.530456 1_564
Hg0 Sr3 3.530456 1_454
Hg0 Sr3 3.530464 1_565
Hg0 Sr3 3.530464 1_455
N0 Sr0 2.557417 1_655
N0 Sr0 2.557418 1_545
N0 Sr1 2.598950 1_655
N0 Sr1 2.598952 1_545
N0 Sr2 2.693771 1_554
N0 Sr2 2.693782 1_555
N1 Sr3 2.561299 1_455
N1 Sr3 2.561300 1_565
N1 Sr2 2.602474 1_565
N1 Sr2 2.602477 1_455
N1 Sr1 2.694589 1_556
N1 Sr1 2.694600 1_555
