# generated using pymatgen
data_Sr6YIn(BO3)6
_symmetry_space_group_name_H-M   'P 1'
_cell_length_a   7.74368607
_cell_length_b   7.74368626
_cell_length_c   7.74368600
_cell_angle_alpha   105.15500244
_cell_angle_beta   105.15499597
_cell_angle_gamma   105.15498610
_symmetry_Int_Tables_number   1
_chemical_formula_structural   Sr6YIn(BO3)6
_chemical_formula_sum   'Sr6 Y1 In1 B6 O18'
_cell_volume   404.60260456
_cell_formula_units_Z   1
loop_
 _symmetry_equiv_pos_site_id
 _symmetry_equiv_pos_as_xyz
  1  'x, y, z'
loop_
 _atom_site_type_symbol
 _atom_site_label
 _atom_site_symmetry_multiplicity
 _atom_site_fract_x
 _atom_site_fract_y
 _atom_site_fract_z
 _atom_site_occupancy
  Sr  Sr0  1  0.65033037  0.26533596  0.16082799  1
  Sr  Sr1  1  0.16082799  0.65033037  0.26533496  1
  Sr  Sr2  1  0.73466404  0.83917201  0.34966963  1
  Sr  Sr3  1  0.26533596  0.16082799  0.65033037  1
  Sr  Sr4  1  0.83917201  0.34966963  0.73466404  1
  Sr  Sr5  1  0.34966963  0.73466404  0.83917201  1
  Y  Y0  1  0.00000000  0.00000000  0.00000000  1
  In  In0  1  0.50000000  0.50000000  0.50000000  1
  B  B0  1  0.29560335  0.37929913  0.04123587  1
  B  B1  1  0.37929913  0.04123687  0.29560335  1
  B  B2  1  0.04123687  0.29560335  0.37929913  1
  B  B3  1  0.95876313  0.70439665  0.62070087  1
  B  B4  1  0.62070087  0.95876313  0.70439665  1
  B  B5  1  0.70439665  0.62070087  0.95876313  1
  O  O0  1  0.72610824  0.81300125  0.01332368  1
  O  O1  1  0.81117400  0.55236719  0.07448085  1
  O  O2  1  0.98667632  0.27389176  0.18699875  1
  O  O3  1  0.44763181  0.92551815  0.18882600  1
  O  O4  1  0.43651846  0.50542316  0.21439278  1
  O  O5  1  0.18699875  0.98667632  0.27389176  1
  O  O6  1  0.50542316  0.21439278  0.43651746  1
  O  O7  1  0.92551815  0.18882700  0.44763181  1
  O  O8  1  0.21439278  0.43651846  0.50542316  1
  O  O9  1  0.78560722  0.56348154  0.49457684  1
  O  O10  1  0.07448185  0.81117300  0.55236819  1
  O  O11  1  0.49457684  0.78560722  0.56348254  1
  O  O12  1  0.81300125  0.01332368  0.72610824  1
  O  O13  1  0.56348154  0.49457684  0.78560722  1
  O  O14  1  0.55236819  0.07448185  0.81117400  1
  O  O15  1  0.01332368  0.72610824  0.81300125  1
  O  O16  1  0.18882600  0.44763281  0.92551915  1
  O  O17  1  0.27389176  0.18699875  0.98667632  1
loop_
_geom_bond_atom_site_label_1
_geom_bond_atom_site_label_2
_geom_bond_distance
_geom_bond_site_symmetry_2
In0 O11 2.150749 1_555
In0 O6 2.150749 1_555
In0 O13 2.150749 1_555
In0 O4 2.150749 1_555
In0 O9 2.150749 1_555
In0 O8 2.150749 1_555
B0 O16 1.362324 1_554
B0 O17 1.388247 1_554
B0 O4 1.391236 1_555
B1 O3 1.362327 1_545
B1 O5 1.388247 1_545
B1 O6 1.391229 1_555
B2 O7 1.362323 1_455
B2 O2 1.388247 1_455
B2 O8 1.391232 1_555
B3 O10 1.362323 1_655
B3 O15 1.388247 1_655
B3 O9 1.391232 1_555
B4 O14 1.362327 1_565
B4 O12 1.388247 1_565
B4 O11 1.391229 1_555
B5 O1 1.362328 1_556
B5 O0 1.388247 1_556
B5 O13 1.391232 1_555
O0 Y0 2.278722 1_665
O0 Sr2 2.540856 1_555
O0 Sr5 2.697451 1_554
O1 Sr1 2.517620 1_655
O1 Sr0 2.589159 1_555
O1 Sr4 2.784206 1_554
O1 Sr2 2.949262 1_555
O2 Y0 2.278722 1_655
O2 Sr0 2.540856 1_555
O2 Sr1 2.697452 1_655
O3 Sr5 2.517621 1_554
O3 Sr2 2.589160 1_555
O3 Sr0 2.784215 1_565
O3 Sr1 2.949249 1_555
O4 Sr2 2.703162 1_555
O4 Sr1 2.726504 1_555
O4 Sr0 2.816946 1_555
O5 Y0 2.278722 1_565
O5 Sr1 2.540854 1_555
O5 Sr3 2.697451 1_565
O6 Sr4 2.703166 1_555
O6 Sr0 2.726499 1_555
O6 Sr3 2.816953 1_555
O7 Sr2 2.517627 1_545
O7 Sr4 2.589158 1_555
O7 Sr3 2.784218 1_655
O7 Sr0 2.949249 1_555
O8 Sr5 2.703162 1_555
O8 Sr3 2.726506 1_555
O8 Sr1 2.816953 1_555
O9 Sr0 2.703162 1_555
O9 Sr2 2.726506 1_555
O9 Sr4 2.816947 1_555
O10 Sr3 2.517627 1_565
O10 Sr1 2.589164 1_555
O10 Sr2 2.784218 1_455
O10 Sr5 2.949249 1_555
O11 Sr1 2.703170 1_555
O11 Sr5 2.726499 1_555
O11 Sr2 2.816953 1_555
O12 Y0 2.278722 1_656
O12 Sr4 2.540856 1_555
O12 Sr2 2.697451 1_545
O13 Sr3 2.703162 1_555
O13 Sr4 2.726506 1_555
O13 Sr5 2.816946 1_555
O14 Sr0 2.517621 1_556
O14 Sr3 2.589160 1_555
O14 Sr5 2.784215 1_545
O14 Sr4 2.949254 1_555
O15 Y0 2.278722 1_566
O15 Sr5 2.540856 1_555
O15 Sr4 2.697451 1_455
O16 Sr4 2.517622 1_455
O16 Sr5 2.589159 1_555
O16 Sr1 2.784199 1_556
O16 Sr3 2.949262 1_555
O17 Y0 2.278722 1_556
O17 Sr3 2.540856 1_555
O17 Sr0 2.697451 1_556
