# generated using pymatgen
data_Hf3Zr2GaPb3
_symmetry_space_group_name_H-M   'P 1'
_cell_length_a   8.75504528
_cell_length_b   8.76043745
_cell_length_c   5.88198538
_cell_angle_alpha   90.00000000
_cell_angle_beta   90.00000000
_cell_angle_gamma   120.02037273
_symmetry_Int_Tables_number   1
_chemical_formula_structural   Hf3Zr2GaPb3
_chemical_formula_sum   'Hf6 Zr4 Ga2 Pb6'
_cell_volume   390.61558720
_cell_formula_units_Z   2
loop_
 _symmetry_equiv_pos_site_id
 _symmetry_equiv_pos_as_xyz
  1  'x, y, z'
loop_
 _atom_site_type_symbol
 _atom_site_label
 _atom_site_symmetry_multiplicity
 _atom_site_fract_x
 _atom_site_fract_y
 _atom_site_fract_z
 _atom_site_occupancy
  Hf  Hf0  1  0.33277982  0.66639041  0.00000000  1
  Hf  Hf1  1  0.66614707  0.33307304  0.50000000  1
  Hf  Hf2  1  0.66614707  0.33307304  0.00000000  1
  Hf  Hf3  1  0.33277982  0.66639041  0.50000000  1
  Hf  Hf4  1  0.26371532  0.00106720  0.25000000  1
  Hf  Hf5  1  0.26371532  0.26264912  0.75000000  1
  Zr  Zr0  1  0.99984921  0.73667815  0.75000000  1
  Zr  Zr1  1  0.99984921  0.26317206  0.25000000  1
  Zr  Zr2  1  0.73677210  0.73785602  0.25000000  1
  Zr  Zr3  1  0.73677210  0.99891608  0.75000000  1
  Ga  Ga0  1  0.00187817  0.00093959  0.00000000  1
  Ga  Ga1  1  0.00187817  0.00093959  0.50000000  1
  Pb  Pb0  1  0.60939530  0.99995225  0.25000000  1
  Pb  Pb1  1  0.60939530  0.60944305  0.75000000  1
  Pb  Pb2  1  0.00035512  0.38835325  0.75000000  1
  Pb  Pb3  1  0.00035512  0.61200187  0.25000000  1
  Pb  Pb4  1  0.38910789  0.38883591  0.25000000  1
  Pb  Pb5  1  0.38910789  0.00027198  0.75000000  1
loop_
_geom_bond_atom_site_label_1
_geom_bond_atom_site_label_2
_geom_bond_distance
_geom_bond_site_symmetry_2
Hf0 Pb3 3.077695 1_555
Hf0 Pb2 3.077698 1_554
Hf0 Pb0 3.079800 1_555
Hf0 Pb1 3.079805 1_554
Hf0 Pb5 3.085052 1_564
Hf0 Pb4 3.085059 1_555
Hf1 Pb5 3.077267 1_555
Hf1 Pb4 3.077272 1_555
Hf1 Pb0 3.078105 1_545
Hf1 Pb1 3.078112 1_555
Hf1 Pb2 3.088774 1_655
Hf1 Pb3 3.088777 1_655
Hf2 Pb5 3.077267 1_554
Hf2 Pb4 3.077272 1_555
Hf2 Pb0 3.078105 1_545
Hf2 Pb1 3.078112 1_554
Hf2 Pb2 3.088774 1_654
Hf2 Pb3 3.088777 1_655
Hf3 Pb3 3.077695 1_555
Hf3 Pb2 3.077698 1_555
Hf3 Pb0 3.079800 1_555
Hf3 Pb1 3.079805 1_555
Hf3 Pb5 3.085052 1_565
Hf3 Pb4 3.085059 1_555
Hf4 Pb4 3.002226 1_555
Hf4 Pb3 3.011613 1_545
Hf4 Pb0 3.031342 1_545
Hf4 Pb5 3.140437 1_555
Hf4 Pb5 3.140437 1_554
Hf5 Pb5 3.002235 1_555
Hf5 Pb2 3.011606 1_555
Hf5 Pb1 3.031338 1_555
Hf5 Pb4 3.140435 1_555
Hf5 Pb4 3.140435 1_556
Ga0 Hf4 2.723027 1_555
Ga0 Hf5 2.723027 1_554
Ga0 Zr1 2.735135 1_455
Ga0 Zr0 2.735135 1_444
Ga0 Zr3 2.740186 1_444
Ga0 Zr2 2.740189 1_445
Ga1 Hf4 2.723027 1_555
Ga1 Hf5 2.723027 1_555
Ga1 Zr1 2.735135 1_455
Ga1 Zr0 2.735135 1_445
Ga1 Zr3 2.740186 1_445
Ga1 Zr2 2.740189 1_445
Pb0 Zr2 3.012932 1_555
Pb0 Zr1 3.019189 1_565
Pb0 Zr3 3.146951 1_555
Pb0 Zr3 3.146951 1_554
Pb1 Zr3 3.012932 1_555
Pb1 Zr0 3.019188 1_555
Pb1 Zr2 3.146951 1_556
Pb1 Zr2 3.146951 1_555
Pb2 Zr3 3.014441 1_445
Pb2 Zr0 3.053697 1_455
Pb2 Zr1 3.138028 1_456
Pb2 Zr1 3.138028 1_455
Pb3 Zr2 3.014441 1_455
Pb3 Zr1 3.053688 1_455
Pb3 Zr0 3.138031 1_455
Pb3 Zr0 3.138031 1_454
Pb4 Zr1 3.012005 1_455
Pb4 Zr2 3.049776 1_555
Pb5 Zr0 3.012003 1_445
Pb5 Zr3 3.049776 1_545
