# generated using pymatgen
data_Cs2NiAgO4
_symmetry_space_group_name_H-M   'P 1'
_cell_length_a   6.75155036
_cell_length_b   6.75154888
_cell_length_c   5.68594990
_cell_angle_alpha   90.00000000
_cell_angle_beta   90.00000000
_cell_angle_gamma   134.42940217
_symmetry_Int_Tables_number   1
_chemical_formula_structural   Cs2NiAgO4
_chemical_formula_sum   'Cs2 Ni1 Ag1 O4'
_cell_volume   185.08755813
_cell_formula_units_Z   1
loop_
 _symmetry_equiv_pos_site_id
 _symmetry_equiv_pos_as_xyz
  1  'x, y, z'
loop_
 _atom_site_type_symbol
 _atom_site_label
 _atom_site_symmetry_multiplicity
 _atom_site_fract_x
 _atom_site_fract_y
 _atom_site_fract_z
 _atom_site_occupancy
  Cs  Cs0  1  0.69075556  0.30924444  0.75000000  1
  Cs  Cs1  1  0.31253998  0.68746002  0.25000000  1
  Ni  Ni0  1  0.00138012  0.99861988  0.25000000  1
  Ag  Ag0  1  0.99741079  0.00258921  0.75000000  1
  O  O0  1  0.10143449  0.89856551  0.48402206  1
  O  O1  1  0.89752229  0.10247771  0.02411781  1
  O  O2  1  0.89752229  0.10247771  0.47588219  1
  O  O3  1  0.10143449  0.89856551  0.01597794  1
loop_
_geom_bond_atom_site_label_1
_geom_bond_atom_site_label_2
_geom_bond_distance
_geom_bond_site_symmetry_2
Cs0 O1 3.009211 1_556
Cs0 O2 3.009211 1_555
Cs0 O3 3.218775 1_656
Cs0 O0 3.218775 1_655
Cs0 O3 3.218776 1_546
Cs0 O0 3.218776 1_545
Cs1 O0 2.945784 1_555
Cs1 O3 2.945784 1_555
Cs1 O2 3.099308 1_455
Cs1 O1 3.099308 1_455
Cs1 O2 3.099308 1_565
Cs1 O1 3.099308 1_565
Ni0 O2 1.822449 1_465
Ni0 O1 1.822449 1_465
Ni0 O0 1.822676 1_555
Ni0 O3 1.822676 1_555
Ag0 O3 1.991045 1_646
Ag0 O0 1.991045 1_645
Ag0 O1 1.993917 1_556
Ag0 O2 1.993917 1_555
