# generated using pymatgen
data_Hf10ZnSn6Ge
_symmetry_space_group_name_H-M   'P 1'
_cell_length_a   8.57523055
_cell_length_b   8.57523170
_cell_length_c   5.80343661
_cell_angle_alpha   90.00000000
_cell_angle_beta   90.00000000
_cell_angle_gamma   119.99999558
_symmetry_Int_Tables_number   1
_chemical_formula_structural   Hf10ZnSn6Ge
_chemical_formula_sum   'Hf10 Zn1 Sn6 Ge1'
_cell_volume   369.57923685
_cell_formula_units_Z   1
loop_
 _symmetry_equiv_pos_site_id
 _symmetry_equiv_pos_as_xyz
  1  'x, y, z'
loop_
 _atom_site_type_symbol
 _atom_site_label
 _atom_site_symmetry_multiplicity
 _atom_site_fract_x
 _atom_site_fract_y
 _atom_site_fract_z
 _atom_site_occupancy
  Hf  Hf0  1  0.33333300  0.66666700  0.00000000  1
  Hf  Hf1  1  0.66666700  0.33333300  0.50000000  1
  Hf  Hf2  1  0.66666700  0.33333300  0.00000000  1
  Hf  Hf3  1  0.33333300  0.66666700  0.50000000  1
  Hf  Hf4  1  0.26421414  0.00000000  0.24833989  1
  Hf  Hf5  1  0.26421414  0.26421414  0.75166011  1
  Hf  Hf6  1  1.00000000  0.73578586  0.75166011  1
  Hf  Hf7  1  0.00000000  0.26421414  0.24833989  1
  Hf  Hf8  1  0.73578586  0.73578586  0.24833989  1
  Hf  Hf9  1  0.73578586  0.00000000  0.75166011  1
  Zn  Zn0  1  0.00000000  0.00000000  0.50000000  1
  Sn  Sn0  1  0.61007237  0.00000000  0.25167356  1
  Sn  Sn1  1  0.61007237  0.61007237  0.74832644  1
  Sn  Sn2  1  1.00000000  0.38992763  0.74832644  1
  Sn  Sn3  1  0.00000000  0.61007237  0.25167356  1
  Sn  Sn4  1  0.38992763  0.38992763  0.25167356  1
  Sn  Sn5  1  0.38992763  0.00000000  0.74832644  1
  Ge  Ge0  1  0.00000000  0.00000000  0.00000000  1
loop_
_geom_bond_atom_site_label_1
_geom_bond_atom_site_label_2
_geom_bond_distance
_geom_bond_site_symmetry_2
Hf0 Sn3 3.025239 1_555
Hf0 Sn5 3.025239 1_564
Hf0 Sn2 3.025242 1_454
Hf0 Sn0 3.025242 1_565
Hf0 Sn1 3.025246 1_554
Hf0 Sn4 3.025247 1_555
Hf1 Sn2 3.015909 1_555
Hf1 Sn0 3.015909 1_555
Hf1 Sn3 3.015912 1_655
Hf1 Sn5 3.015912 1_555
Hf1 Sn4 3.015916 1_555
Hf1 Sn1 3.015916 1_555
Hf2 Sn2 3.025239 1_554
Hf2 Sn0 3.025239 1_555
Hf2 Sn3 3.025242 1_655
Hf2 Sn5 3.025242 1_554
Hf2 Sn4 3.025246 1_555
Hf2 Sn1 3.025247 1_554
Hf3 Sn3 3.015909 1_555
Hf3 Sn5 3.015909 1_565
Hf3 Sn2 3.015912 1_455
Hf3 Sn0 3.015912 1_565
Hf3 Sn1 3.015916 1_555
Hf3 Sn4 3.015916 1_555
Hf4 Zn0 2.695631 1_555
Hf4 Sn4 2.956072 1_555
Hf4 Sn3 2.956072 1_545
Hf4 Sn0 2.965877 1_555
Hf4 Sn5 3.095424 1_555
Hf4 Sn5 3.095570 1_554
Hf5 Zn0 2.695631 1_555
Hf5 Sn2 2.956072 1_455
Hf5 Sn5 2.956072 1_555
Hf5 Sn1 2.965878 1_555
Hf5 Sn4 3.095424 1_555
Hf5 Sn4 3.095570 1_556
Hf6 Zn0 2.695631 1_665
Hf6 Sn1 2.956072 1_555
Hf6 Sn5 2.956072 1_665
Hf6 Sn2 2.965878 1_555
Hf6 Sn3 3.095424 1_655
Hf6 Sn3 3.095570 1_656
Hf7 Zn0 2.695631 1_555
Hf7 Sn4 2.956072 1_555
Hf7 Sn0 2.956072 1_455
Hf7 Sn3 2.965878 1_555
Hf7 Sn2 3.095424 1_455
Hf7 Sn2 3.095570 1_454
Hf8 Zn0 2.695631 1_665
Hf8 Sn3 2.956072 1_655
Hf8 Sn0 2.956072 1_565
Hf8 Sn4 2.965878 1_555
Hf8 Sn1 3.095424 1_555
Hf8 Sn1 3.095570 1_554
Hf9 Zn0 2.695631 1_655
Hf9 Sn2 2.956072 1_555
Hf9 Sn1 2.956072 1_545
Hf9 Sn5 2.965877 1_555
Hf9 Sn0 3.095424 1_555
Hf9 Sn0 3.095570 1_556
Ge0 Hf4 2.685240 1_555
Ge0 Hf9 2.685240 1_454
Ge0 Hf7 2.685240 1_555
Ge0 Hf6 2.685240 1_444
Ge0 Hf5 2.685240 1_554
Ge0 Hf8 2.685240 1_445
Ge0 Zn0 2.901718 1_554
Ge0 Zn0 2.901718 1_555
