# generated using pymatgen
data_LiTaH4
_symmetry_space_group_name_H-M   'P 1'
_cell_length_a   5.87489956
_cell_length_b   5.87489952
_cell_length_c   5.87489888
_cell_angle_alpha   30.42886917
_cell_angle_beta   30.42886984
_cell_angle_gamma   30.42887372
_symmetry_Int_Tables_number   1
_chemical_formula_structural   LiTaH4
_chemical_formula_sum   'Li1 Ta1 H4'
_cell_volume   46.10103076
_cell_formula_units_Z   1
loop_
 _symmetry_equiv_pos_site_id
 _symmetry_equiv_pos_as_xyz
  1  'x, y, z'
loop_
 _atom_site_type_symbol
 _atom_site_label
 _atom_site_symmetry_multiplicity
 _atom_site_fract_x
 _atom_site_fract_y
 _atom_site_fract_z
 _atom_site_occupancy
  Li  Li0  1  0.50000000  0.50000000  0.50000000  1
  Ta  Ta0  1  0.00000000  0.00000000  0.00000000  1
  H  H0  1  0.62203236  0.62203236  0.62203236  1
  H  H1  1  0.11299230  0.11299230  0.11299230  1
  H  H2  1  0.88700770  0.88700770  0.88700770  1
  H  H3  1  0.37796764  0.37796764  0.37796764  1
loop_
_geom_bond_atom_site_label_1
_geom_bond_atom_site_label_2
_geom_bond_distance
_geom_bond_site_symmetry_2
H0 Ta0 1.931682 1_665
H0 Ta0 1.931682 1_656
H0 Ta0 1.931682 1_566
H0 Li0 2.049655 1_555
H1 Ta0 1.897819 1_555
H1 Li0 1.995522 1_554
H1 Li0 1.995522 1_545
H1 Li0 1.995522 1_455
H2 Ta0 1.897819 1_666
H2 Li0 1.995522 1_556
H2 Li0 1.995522 1_565
H2 Li0 1.995522 1_655
H3 Ta0 1.931682 1_556
H3 Ta0 1.931682 1_565
H3 Ta0 1.931682 1_655
H3 Li0 2.049655 1_555
