# generated using pymatgen
data_SrCdInRh
_symmetry_space_group_name_H-M   'P 1'
_cell_length_a   5.89791527
_cell_length_b   5.89791604
_cell_length_c   8.04716946
_cell_angle_alpha   89.38763501
_cell_angle_beta   90.61236672
_cell_angle_gamma   136.67301275
_symmetry_Int_Tables_number   1
_chemical_formula_structural   SrCdInRh
_chemical_formula_sum   'Sr2 Cd2 In2 Rh2'
_cell_volume   192.06030611
_cell_formula_units_Z   2
loop_
 _symmetry_equiv_pos_site_id
 _symmetry_equiv_pos_as_xyz
  1  'x, y, z'
loop_
 _atom_site_type_symbol
 _atom_site_label
 _atom_site_symmetry_multiplicity
 _atom_site_fract_x
 _atom_site_fract_y
 _atom_site_fract_z
 _atom_site_occupancy
  Sr  Sr0  1  0.94019163  0.05980837  0.75176020  1
  Sr  Sr1  1  0.05980837  0.94019163  0.24823980  1
  Cd  Cd0  1  0.65823871  0.34176129  0.94694784  1
  Cd  Cd1  1  0.34176129  0.65823871  0.05305216  1
  In  In0  1  0.34801861  0.65198139  0.44403713  1
  In  In1  1  0.65198139  0.34801861  0.55596287  1
  Rh  Rh0  1  0.21999488  0.78000512  0.73961634  1
  Rh  Rh1  1  0.78000512  0.21999488  0.26038366  1
loop_
_geom_bond_atom_site_label_1
_geom_bond_atom_site_label_2
_geom_bond_distance
_geom_bond_site_symmetry_2
Cd0 Rh0 2.829908 1_655
Cd0 Rh0 2.829908 1_545
Cd0 Rh1 2.840129 1_556
Cd0 Sr1 3.441418 1_546
Cd0 Sr1 3.441418 1_656
Cd0 Sr0 3.483217 1_555
Cd0 Sr0 3.582605 1_455
Cd0 Sr0 3.582606 1_565
Cd1 Rh1 2.829908 1_455
Cd1 Rh1 2.829908 1_565
Cd1 Rh0 2.840129 1_554
Cd1 Sr0 3.441418 1_564
Cd1 Sr0 3.441418 1_454
Cd1 Sr1 3.483217 1_555
Cd1 Sr1 3.582605 1_655
Cd1 Sr1 3.582606 1_545
In0 Rh1 2.730410 1_455
In0 Rh1 2.730410 1_565
In0 Rh0 2.775638 1_555
In0 Sr0 3.440339 1_565
In0 Sr0 3.440339 1_455
In0 Sr1 3.514376 1_555
In0 Sr1 3.563390 1_655
In0 Sr1 3.563391 1_545
In1 Rh0 2.730410 1_655
In1 Rh0 2.730410 1_545
In1 Rh1 2.775638 1_555
In1 Sr1 3.440339 1_545
In1 Sr1 3.440339 1_655
In1 Sr0 3.514376 1_555
In1 Sr0 3.563390 1_455
In1 Sr0 3.563391 1_565
Rh0 Sr0 3.070069 1_465
Rh0 Sr0 3.251405 1_565
Rh0 Sr0 3.251406 1_455
Rh1 Sr1 3.070069 1_645
Rh1 Sr1 3.251405 1_545
Rh1 Sr1 3.251406 1_655
