# generated using pymatgen
data_Rb3Al2Sb2P
_symmetry_space_group_name_H-M   'P 1'
_cell_length_a   6.19579607
_cell_length_b   8.20378819
_cell_length_c   11.10194173
_cell_angle_alpha   70.06946932
_cell_angle_beta   90.00000000
_cell_angle_gamma   90.00000000
_symmetry_Int_Tables_number   1
_chemical_formula_structural   Rb3Al2Sb2P
_chemical_formula_sum   'Rb6 Al4 Sb4 P2'
_cell_volume   530.50271031
_cell_formula_units_Z   2
loop_
 _symmetry_equiv_pos_site_id
 _symmetry_equiv_pos_as_xyz
  1  'x, y, z'
loop_
 _atom_site_type_symbol
 _atom_site_label
 _atom_site_symmetry_multiplicity
 _atom_site_fract_x
 _atom_site_fract_y
 _atom_site_fract_z
 _atom_site_occupancy
  Rb  Rb0  1  0.25000000  0.49213999  0.40457677  1
  Rb  Rb1  1  0.75000000  0.13643901  0.93903228  1
  Rb  Rb2  1  0.75000000  0.45916355  0.15787472  1
  Rb  Rb3  1  0.25000000  0.54083645  0.84212528  1
  Rb  Rb4  1  0.75000000  0.50786001  0.59542323  1
  Rb  Rb5  1  0.25000000  0.86356099  0.06096772  1
  Al  Al0  1  0.99981578  0.01351639  0.36254807  1
  Al  Al1  1  0.49981578  0.98648361  0.63745193  1
  Al  Al2  1  0.50018422  0.01351639  0.36254807  1
  Al  Al3  1  0.00018422  0.98648361  0.63745193  1
  Sb  Sb0  1  0.25000000  0.23877232  0.18401025  1
  Sb  Sb1  1  0.75000000  0.76122768  0.81598975  1
  Sb  Sb2  1  0.25000000  0.18562655  0.72701465  1
  Sb  Sb3  1  0.75000000  0.81437345  0.27298535  1
  P  P0  1  0.25000000  0.84270105  0.53144652  1
  P  P1  1  0.75000000  0.15729895  0.46855348  1
loop_
_geom_bond_atom_site_label_1
_geom_bond_atom_site_label_2
_geom_bond_distance
_geom_bond_site_symmetry_2
Rb0 Sb2 3.605612 1_555
Rb0 Sb0 3.713050 1_555
Rb0 Sb3 4.010808 1_455
Rb0 Sb3 4.010808 1_555
Rb1 Sb3 3.748108 1_546
Rb1 Sb1 3.769308 1_545
Rb1 Sb2 3.827880 1_655
Rb1 Sb2 3.827880 1_555
Rb2 Sb0 3.548594 1_555
Rb2 Sb0 3.548594 1_655
Rb2 Sb3 3.558630 1_555
Rb2 Sb1 3.759634 1_554
Rb3 Sb1 3.548594 1_555
Rb3 Sb1 3.548594 1_455
Rb3 Sb2 3.558630 1_555
Rb3 Sb0 3.759634 1_556
Rb4 Sb3 3.605612 1_555
Rb4 Sb1 3.713050 1_555
Rb4 Sb2 4.010808 1_555
Rb4 Sb2 4.010808 1_655
Rb5 Sb2 3.748108 1_564
Rb5 Sb0 3.769308 1_565
Rb5 Sb3 3.827880 1_555
Rb5 Sb3 3.827880 1_455
Al0 P0 2.468014 1_645
Al0 P1 2.473560 1_555
Al0 Sb3 2.675991 1_545
Al0 Sb0 2.692452 1_655
Al1 P1 2.468014 1_565
Al1 P0 2.473560 1_555
Al1 Sb2 2.675991 1_565
Al1 Sb1 2.692452 1_555
Al2 P0 2.468014 1_545
Al2 P1 2.473560 1_555
Al2 Sb3 2.675991 1_545
Al2 Sb0 2.692452 1_555
Al3 P1 2.468014 1_465
Al3 P0 2.473560 1_555
Al3 Sb2 2.675991 1_565
Al3 Sb1 2.692452 1_455
P0 Rb3 3.493704 1_555
P0 Rb0 3.607836 1_555
P1 Rb2 3.493704 1_555
P1 Rb4 3.607836 1_555
