# generated using pymatgen
data_Ta3Nb(SiH)2
_symmetry_space_group_name_H-M   'P 1'
_cell_length_a   5.10546527
_cell_length_b   5.10546567
_cell_length_c   5.10036492
_cell_angle_alpha   105.10321959
_cell_angle_beta   105.10322209
_cell_angle_gamma   118.64642969
_symmetry_Int_Tables_number   1
_chemical_formula_structural   Ta3Nb(SiH)2
_chemical_formula_sum   'Ta3 Nb1 Si2 H2'
_cell_volume   100.30931031
_cell_formula_units_Z   1
loop_
 _symmetry_equiv_pos_site_id
 _symmetry_equiv_pos_as_xyz
  1  'x, y, z'
loop_
 _atom_site_type_symbol
 _atom_site_label
 _atom_site_symmetry_multiplicity
 _atom_site_fract_x
 _atom_site_fract_y
 _atom_site_fract_z
 _atom_site_occupancy
  Ta  Ta0  1  0.83347142  0.33347142  0.16694283  1
  Ta  Ta1  1  0.33256782  0.16812102  0.50068984  1
  Ta  Ta2  1  0.66812102  0.83256782  0.50068984  1
  Nb  Nb0  1  0.16751953  0.66751953  0.83504105  1
  Si  Si0  1  0.25038706  0.25038706  0.00077311  1
  Si  Si1  1  0.75038706  0.75038706  0.00077311  1
  H  H0  1  0.74353229  0.24353229  0.49754610  1
  H  H1  1  0.25401281  0.75401281  0.49754610  1
loop_
_geom_bond_atom_site_label_1
_geom_bond_atom_site_label_2
_geom_bond_distance
_geom_bond_site_symmetry_2
Nb0 Si1 2.654164 1_456
Nb0 Si0 2.654164 1_556
Nb0 Si1 2.654171 1_556
Nb0 Si0 2.654171 1_566
Si0 Si1 2.604780 1_445
Si0 Si1 2.604780 1_555
Si0 Ta2 2.650136 1_555
Si0 Ta1 2.650142 1_555
Si0 Ta1 2.650741 1_554
Si0 Ta2 2.650746 1_444
Si0 Ta0 2.654692 1_555
Si0 Ta0 2.654695 1_455
Si1 Ta1 2.650136 1_665
Si1 Ta2 2.650142 1_555
Si1 Ta2 2.650741 1_554
Si1 Ta1 2.650746 1_554
Si1 Ta0 2.654692 1_565
Si1 Ta0 2.654695 1_555
H0 Ta1 1.948588 1_555
H0 Ta2 1.948589 1_545
H0 Ta0 1.967172 1_555
H0 Nb0 1.989544 1_655
H1 Ta2 1.948588 1_555
H1 Ta1 1.948589 1_565
H1 Ta0 1.967168 1_455
H1 Nb0 1.989548 1_555
