# generated using pymatgen
data_Cs6GaTe4I
_symmetry_space_group_name_H-M   'P 1'
_cell_length_a   12.03102232
_cell_length_b   12.03102283
_cell_length_c   9.16030609
_cell_angle_alpha   90.00000000
_cell_angle_beta   90.00000000
_cell_angle_gamma   120.00000395
_symmetry_Int_Tables_number   1
_chemical_formula_structural   Cs6GaTe4I
_chemical_formula_sum   'Cs12 Ga2 Te8 I2'
_cell_volume   1148.27440191
_cell_formula_units_Z   2
loop_
 _symmetry_equiv_pos_site_id
 _symmetry_equiv_pos_as_xyz
  1  'x, y, z'
loop_
 _atom_site_type_symbol
 _atom_site_label
 _atom_site_symmetry_multiplicity
 _atom_site_fract_x
 _atom_site_fract_y
 _atom_site_fract_z
 _atom_site_occupancy
  Cs  Cs0  1  0.14179507  0.85820493  0.51480844  1
  Cs  Cs1  1  0.71640686  0.85820493  0.51480844  1
  Cs  Cs2  1  0.95117918  0.47558909  0.32021927  1
  Cs  Cs3  1  0.52441091  0.47558909  0.32021927  1
  Cs  Cs4  1  0.85820493  0.71640686  0.01480844  1
  Cs  Cs5  1  0.28359314  0.14179507  0.01480844  1
  Cs  Cs6  1  0.52441091  0.04882082  0.32021927  1
  Cs  Cs7  1  0.14179507  0.28359314  0.51480844  1
  Cs  Cs8  1  0.85820493  0.14179507  0.01480844  1
  Cs  Cs9  1  0.04882082  0.52441091  0.82021927  1
  Cs  Cs10  1  0.47558909  0.95117918  0.82021927  1
  Cs  Cs11  1  0.47558909  0.52441091  0.82021927  1
  Ga  Ga0  1  0.66666700  0.33333300  0.70784972  1
  Ga  Ga1  1  0.33333300  0.66666700  0.20784972  1
  Te  Te0  1  0.42306577  0.21153238  0.61764182  1
  Te  Te1  1  0.57693423  0.78846762  0.11764182  1
  Te  Te2  1  0.66666700  0.33333300  0.00573330  1
  Te  Te3  1  0.78846762  0.57693423  0.61764182  1
  Te  Te4  1  0.21153238  0.42306577  0.11764182  1
  Te  Te5  1  0.33333300  0.66666700  0.50573330  1
  Te  Te6  1  0.21153238  0.78846762  0.11764182  1
  Te  Te7  1  0.78846762  0.21153238  0.61764182  1
  I  I0  1  0.00000000  0.00000000  0.26900941  1
  I  I1  1  0.00000000  0.00000000  0.76900941  1
loop_
_geom_bond_atom_site_label_1
_geom_bond_atom_site_label_2
_geom_bond_distance
_geom_bond_site_symmetry_2
Cs0 I0 3.714885 1_565
Cs0 I1 3.762031 1_565
Cs0 Te6 3.917663 1_555
Cs0 Te5 3.992199 1_555
Cs0 Te3 4.002972 1_455
Cs0 Te0 4.002972 1_565
Cs1 I0 3.714909 1_665
Cs1 I1 3.762055 1_665
Cs1 Te1 3.917655 1_555
Cs1 Te5 3.992177 1_555
Cs1 Te7 4.002957 1_565
Cs1 Te3 4.003003 1_555
Cs2 Te7 3.889532 1_555
Cs2 Te3 3.889532 1_555
Cs2 Te4 3.953930 1_655
Cs2 Te6 3.953943 1_655
Cs2 Te2 4.133581 1_555
Cs2 Te5 4.329201 1_655
Cs3 Te3 3.889532 1_555
Cs3 Te0 3.889532 1_555
Cs3 Te4 3.953951 1_555
Cs3 Te1 3.953951 1_555
Cs3 Te2 4.133581 1_555
Cs3 Te5 4.329221 1_555
Cs4 I1 3.714909 1_664
Cs4 I0 3.762055 1_665
Cs4 Te3 3.917655 1_554
Cs4 Te2 3.992178 1_555
Cs4 Te6 4.002957 1_655
Cs4 Te1 4.003003 1_555
Cs5 I1 3.714909 1_554
Cs5 I0 3.762055 1_555
Cs5 Te0 3.917655 1_554
Cs5 Te2 3.992177 1_555
Cs5 Te6 4.002957 1_545
Cs5 Te4 4.003003 1_555
Cs6 Te7 3.889532 1_555
Cs6 Te0 3.889532 1_555
Cs6 Te1 3.953930 1_545
Cs6 Te6 3.953943 1_545
Cs6 Te2 4.133581 1_555
Cs6 Te5 4.329201 1_545
Cs7 I0 3.714909 1_555
Cs7 I1 3.762055 1_555
Cs7 Te4 3.917655 1_555
Cs7 Te5 3.992178 1_555
Cs7 Te7 4.002957 1_455
Cs7 Te0 4.003003 1_555
Cs8 I1 3.714885 1_654
Cs8 I0 3.762031 1_655
Cs8 Te7 3.917663 1_554
Cs8 Te2 3.992199 1_555
Cs8 Te4 4.002972 1_655
Cs8 Te1 4.002972 1_545
Cs9 Te6 3.889532 1_556
Cs9 Te4 3.889532 1_556
Cs9 Te3 3.953930 1_455
Cs9 Te7 3.953943 1_455
Cs9 Te5 4.133581 1_555
Cs9 Te2 4.329201 1_456
Cs10 Te6 3.889532 1_556
Cs10 Te1 3.889532 1_556
Cs10 Te0 3.953930 1_565
Cs10 Te7 3.953943 1_565
Cs10 Te5 4.133581 1_555
Cs10 Te2 4.329201 1_566
Cs11 Te4 3.889532 1_556
Cs11 Te1 3.889532 1_556
Cs11 Te3 3.953951 1_555
Cs11 Te0 3.953951 1_555
Cs11 Te5 4.133581 1_555
Cs11 Te2 4.329221 1_556
Ga0 Te0 2.669249 1_555
Ga0 Te3 2.669249 1_555
Ga0 Te7 2.669250 1_555
Ga0 Te2 2.728705 1_556
Ga1 Te1 2.669249 1_555
Ga1 Te4 2.669249 1_555
Ga1 Te6 2.669250 1_555
Ga1 Te5 2.728705 1_555
