# generated using pymatgen
data_Rb4GaSnAu7
_symmetry_space_group_name_H-M   'P 1'
_cell_length_a   10.39663067
_cell_length_b   10.39663114
_cell_length_c   10.39663150
_cell_angle_alpha   37.75814964
_cell_angle_beta   37.75814716
_cell_angle_gamma   37.75814508
_symmetry_Int_Tables_number   1
_chemical_formula_structural   Rb4GaSnAu7
_chemical_formula_sum   'Rb4 Ga1 Sn1 Au7'
_cell_volume   378.05990895
_cell_formula_units_Z   1
loop_
 _symmetry_equiv_pos_site_id
 _symmetry_equiv_pos_as_xyz
  1  'x, y, z'
loop_
 _atom_site_type_symbol
 _atom_site_label
 _atom_site_symmetry_multiplicity
 _atom_site_fract_x
 _atom_site_fract_y
 _atom_site_fract_z
 _atom_site_occupancy
  Rb  Rb0  1  0.68475062  0.68475062  0.68475062  1
  Rb  Rb1  1  0.31717013  0.31717013  0.31717013  1
  Rb  Rb2  1  0.81105864  0.81105864  0.81105864  1
  Rb  Rb3  1  0.18878413  0.18878413  0.18878413  1
  Ga  Ga0  1  0.44808201  0.44808201  0.44808201  1
  Sn  Sn0  1  0.54376185  0.54376185  0.54376185  1
  Au  Au0  1  0.00107794  0.00107794  0.00107794  1
  Au  Au1  1  0.19753806  0.78451458  0.78451458  1
  Au  Au2  1  0.78451458  0.78451458  0.19753806  1
  Au  Au3  1  0.78451458  0.19753806  0.78451458  1
  Au  Au4  1  0.21912552  0.80049642  0.21912552  1
  Au  Au5  1  0.80049642  0.21912552  0.21912552  1
  Au  Au6  1  0.21912552  0.21912552  0.80049642  1
loop_
_geom_bond_atom_site_label_1
_geom_bond_atom_site_label_2
_geom_bond_distance
_geom_bond_site_symmetry_2
Rb0 Rb2 3.654226 1_555
Rb0 Rb1 4.008849 1_655
Rb0 Rb1 4.008849 1_565
Rb0 Rb1 4.008850 1_556
Rb1 Rb3 3.714344 1_555
Rb2 Rb3 4.091287 1_566
Rb2 Rb3 4.091287 1_656
Rb2 Rb3 4.091288 1_665
Rb3 Sn0 3.934627 1_455
Rb3 Sn0 3.934628 1_545
Rb3 Sn0 3.934628 1_554
Ga0 Sn0 2.768120 1_555
Ga0 Rb1 3.787421 1_555
Ga0 Rb2 3.978024 1_455
Ga0 Rb2 3.978024 1_545
Ga0 Rb2 3.978024 1_554
Au0 Au2 2.789823 1_445
Au0 Au3 2.789823 1_454
Au0 Au1 2.789823 1_544
Au0 Au6 2.793354 1_554
Au0 Au4 2.793354 1_545
Au0 Au5 2.793354 1_455
Au0 Rb0 3.915512 1_544
Au0 Rb0 3.915513 1_454
Au0 Rb0 3.915513 1_445
Au0 Rb1 3.916373 1_455
Au0 Rb1 3.916373 1_545
Au0 Rb1 3.916374 1_554
Au1 Sn0 2.626950 1_555
Au1 Au3 2.778869 1_465
Au1 Au2 2.778869 1_456
Au1 Rb0 3.591074 1_555
Au1 Rb2 3.593195 1_455
Au1 Rb1 3.822568 1_565
Au1 Rb1 3.822568 1_556
Au1 Rb3 3.893463 1_556
Au1 Rb3 3.893464 1_565
Au2 Sn0 2.626950 1_555
Au2 Au3 2.778869 1_564
Au2 Rb0 3.591075 1_555
Au2 Rb2 3.593195 1_554
Au2 Rb1 3.822568 1_655
Au2 Rb1 3.822568 1_565
Au2 Rb3 3.893463 1_565
Au2 Rb3 3.893463 1_655
Au3 Sn0 2.626950 1_555
Au3 Rb0 3.591075 1_555
Au3 Rb2 3.593195 1_545
Au3 Rb1 3.822568 1_655
Au3 Rb1 3.822568 1_556
Au3 Rb3 3.893463 1_556
Au3 Rb3 3.893463 1_655
Au4 Ga0 2.476917 1_555
Au4 Au5 2.816584 1_465
Au4 Au6 2.816585 1_564
Au4 Rb3 3.553264 1_565
Au4 Rb1 3.573942 1_555
Au4 Rb0 3.818692 1_455
Au4 Rb0 3.818692 1_554
Au4 Rb2 3.864252 1_554
Au4 Rb2 3.864252 1_455
Au5 Ga0 2.476916 1_555
Au5 Au6 2.816584 1_654
Au5 Rb3 3.553264 1_655
Au5 Rb1 3.573942 1_555
Au5 Rb0 3.818692 1_545
Au5 Rb0 3.818692 1_554
Au5 Rb2 3.864252 1_554
Au5 Rb2 3.864252 1_545
Au6 Ga0 2.476917 1_555
Au6 Rb3 3.553265 1_556
Au6 Rb1 3.573943 1_555
Au6 Rb0 3.818692 1_455
Au6 Rb0 3.818692 1_545
Au6 Rb2 3.864252 1_545
Au6 Rb2 3.864252 1_455
