# generated using pymatgen
data_SrCa2Pd9
_symmetry_space_group_name_H-M   'P 1'
_cell_length_a   9.39908528
_cell_length_b   9.39908504
_cell_length_c   9.39908545
_cell_angle_alpha   33.40923801
_cell_angle_beta   33.40923856
_cell_angle_gamma   33.40924426
_symmetry_Int_Tables_number   1
_chemical_formula_structural   SrCa2Pd9
_chemical_formula_sum   'Sr1 Ca2 Pd9'
_cell_volume   224.17688207
_cell_formula_units_Z   1
loop_
 _symmetry_equiv_pos_site_id
 _symmetry_equiv_pos_as_xyz
  1  'x, y, z'
loop_
 _atom_site_type_symbol
 _atom_site_label
 _atom_site_symmetry_multiplicity
 _atom_site_fract_x
 _atom_site_fract_y
 _atom_site_fract_z
 _atom_site_occupancy
  Sr  Sr0  1  0.00000000  0.00000000  0.00000000  1
  Ca  Ca0  1  0.14048357  0.14048357  0.14048357  1
  Ca  Ca1  1  0.85951643  0.85951643  0.85951643  1
  Pd  Pd0  1  0.58617745  0.58617745  0.08259475  1
  Pd  Pd1  1  0.33276083  0.33276083  0.33276083  1
  Pd  Pd2  1  0.91740525  0.41382155  0.41382255  1
  Pd  Pd3  1  0.41382155  0.91740525  0.41382255  1
  Pd  Pd4  1  0.50000000  0.50000000  0.50000000  1
  Pd  Pd5  1  0.58617845  0.08259375  0.58617745  1
  Pd  Pd6  1  0.08259375  0.58617845  0.58617745  1
  Pd  Pd7  1  0.66723817  0.66723817  0.66723817  1
  Pd  Pd8  1  0.41382255  0.41382255  0.91740525  1
loop_
_geom_bond_atom_site_label_1
_geom_bond_atom_site_label_2
_geom_bond_distance
_geom_bond_site_symmetry_2
Ca0 Pd6 3.078690 1_545
Ca0 Pd5 3.078690 1_455
Ca0 Pd0 3.078693 1_545
Ca0 Pd0 3.078693 1_455
Ca0 Pd6 3.078695 1_554
Ca0 Pd5 3.078695 1_554
Ca0 Pd4 3.196392 1_554
Ca0 Pd4 3.196393 1_545
Ca0 Pd4 3.196393 1_455
Ca0 Pd2 3.260376 1_455
Ca0 Pd3 3.260376 1_545
Ca0 Pd8 3.260385 1_554
Ca0 Ca1 3.416432 1_445
Ca0 Ca1 3.416433 1_454
Ca0 Ca1 3.416433 1_544
Ca0 Sr0 3.736700 1_555
Ca1 Pd2 3.078686 1_565
Ca1 Pd3 3.078686 1_655
Ca1 Pd2 3.078691 1_556
Ca1 Pd3 3.078691 1_556
Ca1 Pd8 3.078693 1_565
Ca1 Pd8 3.078693 1_655
Ca1 Pd4 3.196392 1_556
Ca1 Pd4 3.196393 1_565
Ca1 Pd4 3.196393 1_655
Ca1 Pd6 3.260383 1_655
Ca1 Pd5 3.260383 1_565
Ca1 Pd0 3.260385 1_556
Ca1 Sr0 3.736700 1_666
Pd0 Pd4 2.681143 1_555
Pd0 Pd5 2.682291 1_564
Pd0 Pd6 2.682291 1_654
Pd0 Pd5 2.721013 1_555
Pd0 Pd6 2.721013 1_555
Pd0 Pd7 2.727526 1_554
Pd0 Pd1 2.765266 1_555
Pd0 Sr0 3.522599 1_655
Pd0 Sr0 3.522599 1_565
Pd1 Pd8 2.727504 1_554
Pd1 Pd3 2.727510 1_545
Pd1 Pd2 2.727510 1_455
Pd1 Pd6 2.765269 1_555
Pd1 Pd5 2.765269 1_555
Pd1 Sr0 3.119636 1_556
Pd1 Sr0 3.119636 1_565
Pd1 Sr0 3.119636 1_655
Pd1 Pd7 3.119747 1_554
Pd1 Pd7 3.119747 1_545
Pd1 Pd7 3.119748 1_455
Pd2 Pd4 2.681136 1_555
Pd2 Pd3 2.682288 1_645
Pd2 Pd8 2.682293 1_654
Pd2 Pd8 2.721010 1_555
Pd2 Pd3 2.721016 1_555
Pd2 Pd7 2.765253 1_555
Pd2 Sr0 3.522603 1_656
Pd2 Sr0 3.522606 1_665
Pd3 Pd4 2.681136 1_555
Pd3 Pd8 2.682293 1_564
Pd3 Pd8 2.721010 1_555
Pd3 Pd7 2.765253 1_555
Pd3 Sr0 3.522603 1_566
Pd3 Sr0 3.522607 1_665
Pd4 Pd8 2.681143 1_555
Pd4 Pd5 2.681145 1_555
Pd4 Pd6 2.681145 1_555
Pd5 Pd6 2.682283 1_645
Pd5 Pd6 2.721021 1_555
Pd5 Pd7 2.727523 1_545
Pd5 Sr0 3.522597 1_655
Pd5 Sr0 3.522601 1_556
Pd6 Pd7 2.727523 1_455
Pd6 Sr0 3.522597 1_565
Pd6 Sr0 3.522601 1_556
Pd7 Pd8 2.765244 1_555
Pd7 Sr0 3.119636 1_665
Pd7 Sr0 3.119636 1_656
Pd7 Sr0 3.119636 1_566
Pd8 Sr0 3.522599 1_566
Pd8 Sr0 3.522599 1_656
