# generated using pymatgen
data_Y2Au5F21
_symmetry_space_group_name_H-M   'P 1'
_cell_length_a   7.94224804
_cell_length_b   8.97073687
_cell_length_c   14.68232730
_cell_angle_alpha   53.72675120
_cell_angle_beta   90.00000000
_cell_angle_gamma   90.00000000
_symmetry_Int_Tables_number   1
_chemical_formula_structural   Y2Au5F21
_chemical_formula_sum   'Y4 Au10 F42'
_cell_volume   843.35755328
_cell_formula_units_Z   2
loop_
 _symmetry_equiv_pos_site_id
 _symmetry_equiv_pos_as_xyz
  1  'x, y, z'
loop_
 _atom_site_type_symbol
 _atom_site_label
 _atom_site_symmetry_multiplicity
 _atom_site_fract_x
 _atom_site_fract_y
 _atom_site_fract_z
 _atom_site_occupancy
  Y  Y0  1  0.67195876  0.18578815  0.49896914  1
  Y  Y1  1  0.67195876  0.81421185  0.00103086  1
  Y  Y2  1  0.32804124  0.81421185  0.50103086  1
  Y  Y3  1  0.32804124  0.18578815  0.99896914  1
  Au  Au0  1  0.56179953  0.30836215  0.70676852  1
  Au  Au1  1  0.56179953  0.69163785  0.79323148  1
  Au  Au2  1  0.82483107  0.12752619  0.09888290  1
  Au  Au3  1  0.82483107  0.87247381  0.40111710  1
  Au  Au4  1  0.17516893  0.87247381  0.90111710  1
  Au  Au5  1  0.17516893  0.12752619  0.59888290  1
  Au  Au6  1  0.43820047  0.30836215  0.20676852  1
  Au  Au7  1  0.43820047  0.69163785  0.29323148  1
  Au  Au8  1  0.02845903  0.50000000  0.25000000  1
  Au  Au9  1  0.97154097  0.50000000  0.75000000  1
  F  F0  1  0.41079538  0.30709234  0.81093283  1
  F  F1  1  0.41079538  0.69290766  0.68906717  1
  F  F2  1  0.58920462  0.69290766  0.18906717  1
  F  F3  1  0.58920462  0.30709234  0.31093283  1
  F  F4  1  0.41984812  0.86138932  0.89247415  1
  F  F5  1  0.41984812  0.13861068  0.60752585  1
  F  F6  1  0.58015188  0.13861068  0.10752585  1
  F  F7  1  0.58015188  0.86138932  0.39247415  1
  F  F8  1  0.17298651  0.01671325  0.96221668  1
  F  F9  1  0.17298651  0.98328675  0.53778332  1
  F  F10  1  0.82701349  0.98328675  0.03778332  1
  F  F11  1  0.82701349  0.01671325  0.46221668  1
  F  F12  1  0.13994271  0.39599432  0.87011584  1
  F  F13  1  0.13994271  0.60400568  0.62988416  1
  F  F14  1  0.68211604  0.91293771  0.67791551  1
  F  F15  1  0.68211604  0.08706229  0.82208449  1
  F  F16  1  0.31788396  0.08706229  0.32208449  1
  F  F17  1  0.31788396  0.91293771  0.17791551  1
  F  F18  1  0.93234749  0.87951463  0.90674130  1
  F  F19  1  0.93234749  0.12048537  0.59325870  1
  F  F20  1  0.06765251  0.12048537  0.09325870  1
  F  F21  1  0.06765251  0.87951463  0.40674130  1
  F  F22  1  0.70867657  0.68952964  0.89944057  1
  F  F23  1  0.70867657  0.31047036  0.60055943  1
  F  F24  1  0.29132343  0.31047036  0.10055943  1
  F  F25  1  0.29132343  0.68952964  0.39944057  1
  F  F26  1  0.16612273  0.74283408  0.83462811  1
  F  F27  1  0.16612273  0.25716592  0.66537189  1
  F  F28  1  0.83387727  0.25716592  0.16537189  1
  F  F29  1  0.83387727  0.74283408  0.33462811  1
  F  F30  1  0.50000000  0.00000000  0.00000000  1
  F  F31  1  0.50000000  0.00000000  0.50000000  1
  F  F32  1  0.53954265  0.46323443  0.41734858  1
  F  F33  1  0.53954265  0.53676557  0.08265142  1
  F  F34  1  0.46045735  0.53676557  0.58265142  1
  F  F35  1  0.46045735  0.46323443  0.91734858  1
  F  F36  1  0.20142339  0.39668259  0.36299104  1
  F  F37  1  0.20142339  0.60331741  0.13700896  1
  F  F38  1  0.79857661  0.60331741  0.63700896  1
  F  F39  1  0.79857661  0.39668259  0.86299104  1
  F  F40  1  0.86005729  0.39599432  0.37011584  1
  F  F41  1  0.86005729  0.60400568  0.12988416  1
loop_
_geom_bond_atom_site_label_1
_geom_bond_atom_site_label_2
_geom_bond_distance
_geom_bond_site_symmetry_2
Au0 F15 1.934851 1_555
Au0 F34 1.936164 1_555
Au0 F0 1.938260 1_555
Au0 F23 1.938551 1_555
Au1 F14 1.934851 1_555
Au1 F35 1.936164 1_555
Au1 F1 1.938260 1_555
Au1 F22 1.938551 1_555
Au2 F28 1.911547 1_555
Au2 F20 1.932945 1_655
Au2 F6 1.953803 1_555
Au2 F10 1.962863 1_545
Au3 F29 1.911547 1_555
Au3 F21 1.932945 1_655
Au3 F7 1.953803 1_555
Au3 F11 1.962863 1_565
Au4 F26 1.911547 1_555
Au4 F18 1.932945 1_455
Au4 F4 1.953803 1_555
Au4 F8 1.962863 1_565
Au5 F27 1.911547 1_555
Au5 F19 1.932945 1_455
Au5 F5 1.953803 1_555
Au5 F9 1.962863 1_545
Au6 F16 1.934851 1_555
Au6 F33 1.936164 1_555
Au6 F3 1.938260 1_555
Au6 F24 1.938551 1_555
Au7 F17 1.934851 1_555
Au7 F32 1.936164 1_555
Au7 F2 1.938260 1_555
Au7 F25 1.938551 1_555
Au8 F36 1.918056 1_555
Au8 F37 1.918056 1_555
Au8 F40 1.955146 1_455
Au8 F41 1.955146 1_455
Au9 F39 1.918056 1_555
Au9 F38 1.918056 1_555
Au9 F12 1.955146 1_655
Au9 F13 1.955146 1_655
F0 Y3 2.383972 1_555
F1 Y2 2.383972 1_555
F2 Y1 2.383972 1_555
F3 Y0 2.383972 1_555
F4 Y1 2.435292 1_556
F5 Y0 2.435292 1_555
F6 Y3 2.435292 1_554
F7 Y2 2.435292 1_555
F8 Y3 2.253138 1_555
F9 Y2 2.253138 1_555
F10 Y1 2.253138 1_555
F11 Y0 2.253138 1_555
F12 Y3 2.268374 1_555
F13 Y2 2.268374 1_555
F14 Y0 2.300231 1_565
F15 Y1 2.300231 1_546
F16 Y2 2.300231 1_545
F17 Y3 2.300231 1_564
F18 Y1 2.361569 1_556
F19 Y0 2.361569 1_555
F20 Y3 2.361569 1_554
F21 Y2 2.361569 1_555
F22 Y1 2.352650 1_556
F23 Y0 2.352650 1_555
F24 Y3 2.352650 1_554
F25 Y2 2.352650 1_555
F30 Y1 2.147875 1_545
F30 Y3 2.147875 1_554
F31 Y0 2.147875 1_555
F31 Y2 2.147875 1_545
F32 Y0 2.281989 1_555
F33 Y1 2.281989 1_555
F34 Y2 2.281989 1_555
F35 Y3 2.281989 1_555
F40 Y0 2.268374 1_555
F41 Y1 2.268374 1_555
