# generated using pymatgen
data_Ni8IrS8
_symmetry_space_group_name_H-M   'P 1'
_cell_length_a   7.04880417
_cell_length_b   7.04880443
_cell_length_c   7.04880459
_cell_angle_alpha   59.99999924
_cell_angle_beta   59.99999801
_cell_angle_gamma   59.99999726
_symmetry_Int_Tables_number   1
_chemical_formula_structural   Ni8IrS8
_chemical_formula_sum   'Ni8 Ir1 S8'
_cell_volume   247.64602501
_cell_formula_units_Z   1
loop_
 _symmetry_equiv_pos_site_id
 _symmetry_equiv_pos_as_xyz
  1  'x, y, z'
loop_
 _atom_site_type_symbol
 _atom_site_label
 _atom_site_symmetry_multiplicity
 _atom_site_fract_x
 _atom_site_fract_y
 _atom_site_fract_z
 _atom_site_occupancy
  Ni  Ni0  1  0.61934724  0.12688425  0.12688425  1
  Ni  Ni1  1  0.12688425  0.61934724  0.12688425  1
  Ni  Ni2  1  0.12688425  0.12688425  0.61934724  1
  Ni  Ni3  1  0.12688425  0.12688425  0.12688425  1
  Ni  Ni4  1  0.38065276  0.87311575  0.87311575  1
  Ni  Ni5  1  0.87311575  0.38065276  0.87311575  1
  Ni  Ni6  1  0.87311575  0.87311575  0.38065276  1
  Ni  Ni7  1  0.87311575  0.87311575  0.87311575  1
  Ir  Ir0  1  0.50000000  0.50000000  0.50000000  1
  S  S0  1  0.25000000  0.25000000  0.25000000  1
  S  S1  1  0.75000000  0.75000000  0.75000000  1
  S  S2  1  0.74113346  0.25886654  0.25886654  1
  S  S3  1  0.74113346  0.25886654  0.74113346  1
  S  S4  1  0.74113346  0.74113346  0.25886654  1
  S  S5  1  0.25886654  0.74113346  0.74113346  1
  S  S6  1  0.25886654  0.74113346  0.25886654  1
  S  S7  1  0.25886654  0.25886654  0.74113346  1
loop_
_geom_bond_atom_site_label_1
_geom_bond_atom_site_label_2
_geom_bond_distance
_geom_bond_site_symmetry_2
Ni0 S0 2.125713 1_555
Ni0 S4 2.220509 1_545
Ni0 S2 2.220509 1_555
Ni0 S3 2.220509 1_554
Ni1 S0 2.125713 1_555
Ni1 S4 2.220509 1_455
Ni1 S6 2.220509 1_555
Ni1 S5 2.220509 1_554
Ni2 S0 2.125713 1_555
Ni2 S3 2.220509 1_455
Ni2 S5 2.220509 1_545
Ni2 S7 2.220509 1_555
Ni3 S0 2.125713 1_555
Ni3 S2 2.220509 1_455
Ni3 S6 2.220509 1_545
Ni3 S7 2.220509 1_554
Ni4 S1 2.125713 1_555
Ni4 S7 2.220509 1_565
Ni4 S5 2.220509 1_555
Ni4 S6 2.220509 1_556
Ni5 S1 2.125713 1_555
Ni5 S7 2.220509 1_655
Ni5 S3 2.220509 1_555
Ni5 S2 2.220509 1_556
Ni6 S1 2.125713 1_555
Ni6 S6 2.220509 1_655
Ni6 S2 2.220509 1_565
Ni6 S4 2.220509 1_555
Ni7 S1 2.125713 1_555
Ni7 S5 2.220509 1_655
Ni7 S3 2.220509 1_565
Ni7 S4 2.220509 1_556
Ir0 S4 2.403742 1_555
Ir0 S7 2.403742 1_555
Ir0 S3 2.403742 1_555
Ir0 S6 2.403742 1_555
Ir0 S5 2.403742 1_555
Ir0 S2 2.403742 1_555
