# generated using pymatgen
data_H3SI
_symmetry_space_group_name_H-M   'P 1'
_cell_length_a   4.62386188
_cell_length_b   4.62386151
_cell_length_c   4.62799643
_cell_angle_alpha   78.58907051
_cell_angle_beta   78.58907075
_cell_angle_gamma   78.57306015
_symmetry_Int_Tables_number   1
_chemical_formula_structural   H3SI
_chemical_formula_sum   'H3 S1 I1'
_cell_volume   93.76366607
_cell_formula_units_Z   1
loop_
 _symmetry_equiv_pos_site_id
 _symmetry_equiv_pos_as_xyz
  1  'x, y, z'
loop_
 _atom_site_type_symbol
 _atom_site_label
 _atom_site_symmetry_multiplicity
 _atom_site_fract_x
 _atom_site_fract_y
 _atom_site_fract_z
 _atom_site_occupancy
  H  H0  1  0.69344160  0.69344160  0.33873917  1
  H  H1  1  0.34226793  0.69322304  0.68922284  1
  H  H2  1  0.69322304  0.34226793  0.68922284  1
  S  S0  1  0.49950488  0.49950488  0.49526070  1
  I  I0  1  0.03014455  0.03014455  0.02501345  1
loop_
_geom_bond_atom_site_label_1
_geom_bond_atom_site_label_2
_geom_bond_distance
_geom_bond_site_symmetry_2
H0 S0 1.391965 1_555
H0 I0 2.475337 1_665
H1 S0 1.392327 1_555
H1 I0 2.470732 1_566
H2 S0 1.392327 1_555
H2 I0 2.470732 1_656
