# generated using pymatgen
data_Y2MoIrRu2
_symmetry_space_group_name_H-M   'P 1'
_cell_length_a   5.27886208
_cell_length_b   5.62082359
_cell_length_c   5.62082400
_cell_angle_alpha   59.45390352
_cell_angle_beta   55.72506566
_cell_angle_gamma   55.72507116
_symmetry_Int_Tables_number   1
_chemical_formula_structural   Y2MoIrRu2
_chemical_formula_sum   'Y2 Mo1 Ir1 Ru2'
_cell_volume   109.33448911
_cell_formula_units_Z   1
loop_
 _symmetry_equiv_pos_site_id
 _symmetry_equiv_pos_as_xyz
  1  'x, y, z'
loop_
 _atom_site_type_symbol
 _atom_site_label
 _atom_site_symmetry_multiplicity
 _atom_site_fract_x
 _atom_site_fract_y
 _atom_site_fract_z
 _atom_site_occupancy
  Y  Y0  1  0.11800589  0.12521844  0.12521844  1
  Y  Y1  1  0.88199411  0.87478156  0.87478156  1
  Mo  Mo0  1  0.00000000  0.50000000  0.50000000  1
  Ir  Ir0  1  0.50000000  0.50000000  0.50000000  1
  Ru  Ru0  1  0.50000000  0.00000000  0.50000000  1
  Ru  Ru1  1  0.50000000  0.50000000  0.00000000  1
loop_
_geom_bond_atom_site_label_1
_geom_bond_atom_site_label_2
_geom_bond_distance
_geom_bond_site_symmetry_2
Y0 Y1 3.074674 1_544
Y0 Y1 3.364409 1_454
Y0 Y1 3.364409 1_445
Y0 Y1 3.388214 1_444
Mo0 Ru1 2.551476 1_456
Mo0 Ru1 2.551476 1_555
Mo0 Ru0 2.551476 1_465
Mo0 Ru0 2.551476 1_555
Mo0 Y0 3.261653 1_565
Mo0 Y1 3.261653 1_445
Mo0 Y0 3.261654 1_556
Mo0 Y1 3.261654 1_454
Mo0 Y1 3.289083 1_455
Mo0 Y0 3.289083 1_555
Ir0 Mo0 2.639431 1_655
Ir0 Mo0 2.639431 1_555
Ir0 Ru0 2.810412 1_555
Ir0 Ru0 2.810412 1_565
Ir0 Ru1 2.810412 1_556
Ir0 Ru1 2.810412 1_555
Ir0 Y1 2.923677 1_455
Ir0 Y0 2.923677 1_655
Ir0 Y1 3.183047 1_554
Ir0 Y0 3.183047 1_556
Ir0 Y1 3.183048 1_545
Ir0 Y0 3.183048 1_565
Ru0 Ru1 2.787182 1_555
Ru0 Ru1 2.787182 1_546
Ru0 Y0 2.985735 1_655
Ru0 Y1 2.985735 1_445
Ru0 Y0 3.137744 1_556
Ru0 Y1 3.137744 1_544
Ru0 Y1 3.267752 1_545
Ru0 Y0 3.267752 1_555
Ru1 Y0 2.985735 1_655
Ru1 Y1 2.985735 1_454
Ru1 Y0 3.137744 1_565
Ru1 Y1 3.137744 1_544
Ru1 Y1 3.267752 1_554
Ru1 Y0 3.267752 1_555
