# generated using pymatgen
data_Ba3YScSe6
_symmetry_space_group_name_H-M   'P 1'
_cell_length_a   8.74068654
_cell_length_b   8.74068583
_cell_length_c   8.74068709
_cell_angle_alpha   92.76757312
_cell_angle_beta   92.76757283
_cell_angle_gamma   92.76757151
_symmetry_Int_Tables_number   1
_chemical_formula_structural   Ba3YScSe6
_chemical_formula_sum   'Ba6 Y2 Sc2 Se12'
_cell_volume   665.37011391
_cell_formula_units_Z   2
loop_
 _symmetry_equiv_pos_site_id
 _symmetry_equiv_pos_as_xyz
  1  'x, y, z'
loop_
 _atom_site_type_symbol
 _atom_site_label
 _atom_site_symmetry_multiplicity
 _atom_site_fract_x
 _atom_site_fract_y
 _atom_site_fract_z
 _atom_site_occupancy
  Ba  Ba0  1  0.37009462  0.75000000  0.12990538  1
  Ba  Ba1  1  0.12990538  0.37009462  0.75000000  1
  Ba  Ba2  1  0.75000000  0.12990538  0.37009462  1
  Ba  Ba3  1  0.62990538  0.25000000  0.87009462  1
  Ba  Ba4  1  0.87009462  0.62990538  0.25000000  1
  Ba  Ba5  1  0.25000000  0.87009462  0.62990538  1
  Y  Y0  1  0.25000000  0.25000000  0.25000000  1
  Y  Y1  1  0.75000000  0.75000000  0.75000000  1
  Sc  Sc0  1  0.50000000  0.50000000  0.50000000  1
  Sc  Sc1  1  0.00000000  0.00000000  0.00000000  1
  Se  Se0  1  0.53945695  0.40940691  0.20250623  1
  Se  Se1  1  0.20250623  0.53945695  0.40940691  1
  Se  Se2  1  0.40940691  0.20250623  0.53945695  1
  Se  Se3  1  0.96054305  0.29749377  0.09059309  1
  Se  Se4  1  0.09059309  0.96054305  0.29749377  1
  Se  Se5  1  0.29749377  0.09059309  0.96054305  1
  Se  Se6  1  0.46054305  0.59059309  0.79749377  1
  Se  Se7  1  0.79749377  0.46054305  0.59059309  1
  Se  Se8  1  0.59059309  0.79749377  0.46054305  1
  Se  Se9  1  0.03945695  0.70250623  0.90940691  1
  Se  Se10  1  0.70250623  0.90940691  0.03945695  1
  Se  Se11  1  0.90940691  0.03945695  0.70250623  1
loop_
_geom_bond_atom_site_label_1
_geom_bond_atom_site_label_2
_geom_bond_distance
_geom_bond_site_symmetry_2
Ba0 Se10 3.308413 1_555
Ba0 Se6 3.308413 1_554
Ba0 Se9 3.392337 1_554
Ba0 Se8 3.392337 1_555
Ba0 Se0 3.460352 1_555
Ba0 Se5 3.460352 1_564
Ba0 Se4 3.467026 1_555
Ba0 Se1 3.467026 1_555
Ba1 Se9 3.308412 1_555
Ba1 Se7 3.308413 1_455
Ba1 Se11 3.392337 1_455
Ba1 Se6 3.392337 1_555
Ba1 Se1 3.460353 1_555
Ba1 Se3 3.460353 1_456
Ba1 Se5 3.467026 1_555
Ba1 Se2 3.467026 1_555
Ba2 Se8 3.308413 1_545
Ba2 Se11 3.308413 1_555
Ba2 Se7 3.392337 1_555
Ba2 Se10 3.392337 1_545
Ba2 Se4 3.460352 1_645
Ba2 Se2 3.460353 1_555
Ba2 Se0 3.467026 1_555
Ba2 Se3 3.467026 1_555
Ba3 Se5 3.308413 1_555
Ba3 Se0 3.308413 1_556
Ba3 Se3 3.392337 1_556
Ba3 Se2 3.392337 1_555
Ba3 Se6 3.460352 1_555
Ba3 Se10 3.460352 1_546
Ba3 Se11 3.467026 1_555
Ba3 Se7 3.467026 1_555
Ba4 Se3 3.308412 1_555
Ba4 Se1 3.308413 1_655
Ba4 Se4 3.392337 1_655
Ba4 Se0 3.392337 1_555
Ba4 Se7 3.460353 1_555
Ba4 Se9 3.460353 1_654
Ba4 Se10 3.467026 1_555
Ba4 Se8 3.467026 1_555
Ba5 Se2 3.308413 1_565
Ba5 Se4 3.308413 1_555
Ba5 Se1 3.392337 1_555
Ba5 Se5 3.392337 1_565
Ba5 Se11 3.460352 1_465
Ba5 Se8 3.460353 1_555
Ba5 Se6 3.467026 1_555
Ba5 Se9 3.467026 1_555
Sc0 Se8 2.724272 1_555
Sc0 Se2 2.724272 1_555
Sc0 Se7 2.724272 1_555
Sc0 Se1 2.724272 1_555
Sc0 Se6 2.724272 1_555
Sc0 Se0 2.724272 1_555
Sc1 Se3 2.724272 1_455
Sc1 Se9 2.724272 1_544
Sc1 Se5 2.724272 1_554
Sc1 Se10 2.724272 1_445
Sc1 Se4 2.724272 1_545
Sc1 Se11 2.724272 1_454
Se0 Y0 2.886471 1_555
Se1 Y0 2.886470 1_555
Se2 Y0 2.886471 1_555
Se3 Y0 2.886471 1_655
Se4 Y0 2.886470 1_565
Se5 Y0 2.886471 1_556
Se6 Y1 2.886471 1_555
Se7 Y1 2.886470 1_555
Se8 Y1 2.886471 1_555
Se9 Y1 2.886471 1_455
Se10 Y1 2.886471 1_554
Se11 Y1 2.886470 1_545
