# generated using pymatgen
data_Na4CaSi12Ir19
_symmetry_space_group_name_H-M   'P 1'
_cell_length_a   12.67464835
_cell_length_b   12.67464931
_cell_length_c   3.98065824
_cell_angle_alpha   90.00000000
_cell_angle_beta   90.00000000
_cell_angle_gamma   120.00000263
_symmetry_Int_Tables_number   1
_chemical_formula_structural   Na4CaSi12Ir19
_chemical_formula_sum   'Na4 Ca1 Si12 Ir19'
_cell_volume   553.80565259
_cell_formula_units_Z   1
loop_
 _symmetry_equiv_pos_site_id
 _symmetry_equiv_pos_as_xyz
  1  'x, y, z'
loop_
 _atom_site_type_symbol
 _atom_site_label
 _atom_site_symmetry_multiplicity
 _atom_site_fract_x
 _atom_site_fract_y
 _atom_site_fract_z
 _atom_site_occupancy
  Na  Na0  1  0.00148923  0.18334732  0.50000000  1
  Na  Na1  1  0.81665268  0.81814191  0.50000000  1
  Na  Na2  1  0.18185809  0.99851077  0.50000000  1
  Na  Na3  1  0.66666700  0.33333300  0.00000000  1
  Ca  Ca0  1  0.33333300  0.66666700  0.00000000  1
  Si  Si0  1  0.48009460  0.31060682  0.50000000  1
  Si  Si1  1  0.81909891  0.00212416  0.00000000  1
  Si  Si2  1  0.18302625  0.18090109  0.00000000  1
  Si  Si3  1  0.99787584  0.81697375  0.00000000  1
  Si  Si4  1  0.37142037  0.00086822  0.00000000  1
  Si  Si5  1  0.68939318  0.16948878  0.50000000  1
  Si  Si6  1  0.83051122  0.51990540  0.50000000  1
  Si  Si7  1  0.52361419  0.83439168  0.50000000  1
  Si  Si8  1  0.16560832  0.68922251  0.50000000  1
  Si  Si9  1  0.31077749  0.47638581  0.50000000  1
  Si  Si10  1  0.99913178  0.37055215  0.00000000  1
  Si  Si11  1  0.62944785  0.62857963  0.00000000  1
  Ir  Ir0  1  0.80624532  0.18549729  0.00000000  1
  Ir  Ir1  1  0.37925097  0.19375468  0.00000000  1
  Ir  Ir2  1  0.63720745  0.51313412  0.50000000  1
  Ir  Ir3  1  0.87592567  0.36279255  0.50000000  1
  Ir  Ir4  1  0.36125740  0.87377874  0.50000000  1
  Ir  Ir5  1  0.51252134  0.63874260  0.50000000  1
  Ir  Ir6  1  0.12622126  0.48747866  0.50000000  1
  Ir  Ir7  1  0.81450271  0.62074903  0.00000000  1
  Ir  Ir8  1  0.62435019  0.81563618  0.00000000  1
  Ir  Ir9  1  0.18436382  0.80871301  0.00000000  1
  Ir  Ir10  1  0.19128699  0.37564981  0.00000000  1
  Ir  Ir11  1  0.99834846  0.71831717  0.50000000  1
  Ir  Ir12  1  0.28168283  0.28003129  0.50000000  1
  Ir  Ir13  1  0.71996871  0.00165154  0.50000000  1
  Ir  Ir14  1  0.00254048  0.55633441  0.00000000  1
  Ir  Ir15  1  0.44366559  0.44620607  0.00000000  1
  Ir  Ir16  1  0.55379393  0.99745952  0.00000000  1
  Ir  Ir17  1  0.00000000  0.00000000  0.00000000  1
  Ir  Ir18  1  0.48686588  0.12407433  0.50000000  1
loop_
_geom_bond_atom_site_label_1
_geom_bond_atom_site_label_2
_geom_bond_distance
_geom_bond_site_symmetry_2
Na0 Si1 3.044921 1_455
Na0 Si1 3.044921 1_456
Na0 Si2 3.054167 1_555
Na0 Si2 3.054167 1_556
Na0 Si10 3.108564 1_456
Na0 Si10 3.108564 1_455
Na1 Si3 3.044925 1_556
Na1 Si3 3.044925 1_555
Na1 Si1 3.054157 1_565
Na1 Si1 3.054157 1_566
Na1 Si11 3.108564 1_555
Na1 Si11 3.108564 1_556
Na2 Si2 3.044916 1_565
Na2 Si2 3.044916 1_566
Na2 Si3 3.054162 1_456
Na2 Si3 3.054162 1_455
Na2 Si4 3.108564 1_565
Na2 Si4 3.108564 1_566
Na3 Si5 2.992509 1_555
Na3 Si5 2.992509 1_554
Na3 Si6 2.992520 1_554
Na3 Si6 2.992520 1_555
Na3 Si0 2.992527 1_555
Na3 Si0 2.992527 1_554
Ca0 Si8 3.028222 1_554
Ca0 Si8 3.028222 1_555
Ca0 Si7 3.028228 1_554
Ca0 Si7 3.028228 1_555
Ca0 Si9 3.028232 1_555
Ca0 Si9 3.028232 1_554
Ca0 Ir4 3.169948 1_555
Ca0 Ir4 3.169948 1_554
Ca0 Ir6 3.169951 1_554
Ca0 Ir6 3.169951 1_555
Ca0 Ir5 3.169957 1_554
Ca0 Ir5 3.169957 1_555
Ca0 Ir9 3.194649 1_555
Ca0 Ir8 3.194671 1_555
Ca0 Ir10 3.194671 1_555
Ir0 Si10 2.396679 1_555
Ir0 Si1 2.409781 1_555
Ir0 Si5 2.428087 1_555
Ir0 Si5 2.428087 1_554
Ir0 Na3 3.155254 1_555
Ir0 Na0 3.186451 1_655
Ir0 Na0 3.186451 1_654
Ir1 Si4 2.396685 1_555
Ir1 Si2 2.409756 1_555
Ir1 Si0 2.428087 1_554
Ir1 Si0 2.428087 1_555
Ir1 Na3 3.155276 1_555
Ir1 Na2 3.186446 1_545
Ir1 Na2 3.186446 1_544
Ir2 Si0 2.333035 1_555
Ir2 Si6 2.408293 1_555
Ir2 Si11 2.501207 1_555
Ir2 Si11 2.501207 1_556
Ir2 Na3 3.185155 1_556
Ir2 Na3 3.185155 1_555
Ir2 Na1 3.365308 1_555
Ir3 Si6 2.333035 1_555
Ir3 Si5 2.408293 1_555
Ir3 Si10 2.501215 1_555
Ir3 Si10 2.501215 1_556
Ir3 Na3 3.185135 1_556
Ir3 Na3 3.185135 1_555
Ir3 Na0 3.365318 1_655
Ir4 Si7 2.347577 1_555
Ir4 Si8 2.412559 1_555
Ir4 Si4 2.522942 1_566
Ir4 Si4 2.522942 1_565
Ir4 Na2 3.356247 1_555
Ir5 Si9 2.347577 1_555
Ir5 Si7 2.412559 1_555
Ir5 Si11 2.522941 1_555
Ir5 Si11 2.522941 1_556
Ir5 Na1 3.356247 1_555
Ir6 Si8 2.347577 1_555
Ir6 Si9 2.412559 1_555
Ir6 Si10 2.522941 1_455
Ir6 Si10 2.522941 1_456
Ir6 Na0 3.356247 1_555
Ir7 Si11 2.396672 1_555
Ir7 Si3 2.409767 1_555
Ir7 Si6 2.428087 1_554
Ir7 Si6 2.428087 1_555
Ir7 Na3 3.155275 1_555
Ir7 Na1 3.186441 1_554
Ir7 Na1 3.186441 1_555
Ir8 Si11 2.403833 1_555
Ir8 Si1 2.417721 1_565
Ir8 Si7 2.439598 1_554
Ir8 Si7 2.439598 1_555
Ir8 Na1 3.134608 1_555
Ir8 Na1 3.134608 1_554
Ir9 Si4 2.403839 1_565
Ir9 Si3 2.417721 1_455
Ir9 Si8 2.439591 1_554
Ir9 Si8 2.439591 1_555
Ir9 Na2 3.134618 1_555
Ir9 Na2 3.134618 1_554
Ir10 Si10 2.403846 1_455
Ir10 Si2 2.417722 1_555
Ir10 Si9 2.439594 1_555
Ir10 Si9 2.439594 1_554
Ir10 Na0 3.134612 1_555
Ir10 Na0 3.134612 1_554
Ir11 Si8 2.326367 1_655
Ir11 Si6 2.345176 1_555
Ir11 Si3 2.352133 1_556
Ir11 Si3 2.352133 1_555
Ir11 Na2 3.124398 1_655
Ir11 Na1 3.133384 1_555
Ir12 Si9 2.326367 1_555
Ir12 Si0 2.345171 1_555
Ir12 Si2 2.352137 1_555
Ir12 Si2 2.352137 1_556
Ir12 Na0 3.124397 1_555
Ir12 Na2 3.133384 1_545
Ir13 Si7 2.326367 1_545
Ir13 Si5 2.345184 1_555
Ir13 Si1 2.352140 1_556
Ir13 Si1 2.352140 1_555
Ir13 Na1 3.124398 1_545
Ir13 Na0 3.133384 1_655
Ir14 Si10 2.333423 1_455
Ir14 Si8 2.754797 1_554
Ir14 Si8 2.754797 1_555
Ir14 Si6 2.814612 1_455
Ir14 Si6 2.814612 1_454
Ir15 Si11 2.333423 1_555
Ir15 Si9 2.754797 1_554
Ir15 Si9 2.754797 1_555
Ir15 Si0 2.814603 1_554
Ir15 Si0 2.814603 1_555
Ir16 Si4 2.333423 1_565
Ir16 Si7 2.754797 1_554
Ir16 Si7 2.754797 1_555
Ir16 Si5 2.814609 1_565
Ir16 Si5 2.814609 1_564
Ir17 Si1 2.306437 1_455
Ir17 Si2 2.306444 1_555
Ir17 Si3 2.306450 1_445
Ir17 Na1 3.052579 1_444
Ir17 Na1 3.052579 1_445
Ir17 Na2 3.052579 1_545
Ir17 Na2 3.052579 1_544
Ir17 Na0 3.052579 1_554
Ir17 Na0 3.052579 1_555
Ir18 Si5 2.333034 1_555
Ir18 Si0 2.408293 1_555
Ir18 Si4 2.501211 1_555
Ir18 Si4 2.501211 1_556
Ir18 Na3 3.185143 1_556
Ir18 Na3 3.185143 1_555
Ir18 Na2 3.365306 1_545
