# generated using pymatgen
data_Cs3Cu(AgAs)2
_symmetry_space_group_name_H-M   'P 1'
_cell_length_a   8.18228508
_cell_length_b   8.12296822
_cell_length_c   8.12296829
_cell_angle_alpha   47.17585034
_cell_angle_beta   46.25187035
_cell_angle_gamma   46.25186232
_symmetry_Int_Tables_number   1
_chemical_formula_structural   Cs3Cu(AgAs)2
_chemical_formula_sum   'Cs3 Cu1 Ag2 As2'
_cell_volume   259.86518372
_cell_formula_units_Z   1
loop_
 _symmetry_equiv_pos_site_id
 _symmetry_equiv_pos_as_xyz
  1  'x, y, z'
loop_
 _atom_site_type_symbol
 _atom_site_label
 _atom_site_symmetry_multiplicity
 _atom_site_fract_x
 _atom_site_fract_y
 _atom_site_fract_z
 _atom_site_occupancy
  Cs  Cs0  1  0.90075755  0.91370251  0.91370251  1
  Cs  Cs1  1  0.50000000  0.50000000  0.50000000  1
  Cs  Cs2  1  0.09924245  0.08629749  0.08629749  1
  Cu  Cu0  1  0.00000000  0.50000000  0.50000000  1
  Ag  Ag0  1  0.50000000  0.50000000  0.00000000  1
  Ag  Ag1  1  0.50000000  0.00000000  0.50000000  1
  As  As0  1  0.23280331  0.27173801  0.27173801  1
  As  As1  1  0.76719669  0.72826199  0.72826199  1
loop_
_geom_bond_atom_site_label_1
_geom_bond_atom_site_label_2
_geom_bond_distance
_geom_bond_site_symmetry_2
Cs0 Cu0 3.801332 1_656
Cs0 Cu0 3.801332 1_665
Cs0 Cs1 4.050277 1_655
Cs0 Cs1 4.075651 1_565
Cs0 Cs1 4.075652 1_556
Cs1 Cs2 4.050277 1_655
Cs1 Cs2 4.075651 1_565
Cs1 Cs2 4.075652 1_556
Cs1 Cu0 4.091143 1_655
Cs1 Cu0 4.091143 1_555
Cs2 Cu0 3.801332 1_554
Cs2 Cu0 3.801332 1_545
Ag0 As1 2.541287 1_554
Ag0 As0 2.541287 1_555
Ag0 Cs2 3.699630 1_565
Ag0 Cs0 3.699630 1_544
Ag0 Cs2 3.819531 1_655
Ag0 Cs0 3.819531 1_454
Ag0 Cs1 4.061484 1_555
Ag0 Cs1 4.061484 1_554
Ag1 As1 2.541286 1_545
Ag1 As0 2.541286 1_555
Ag1 Cs2 3.699630 1_556
Ag1 Cs0 3.699630 1_544
Ag1 Cs2 3.819532 1_655
Ag1 Cs0 3.819532 1_445
Ag1 Cs1 4.061484 1_555
Ag1 Cs1 4.061484 1_545
As0 Cu0 2.325737 1_555
As0 Cs2 3.656541 1_555
As0 Cs0 3.707906 1_454
As0 Cs0 3.707907 1_445
As0 Cs0 3.784312 1_544
As0 Cs1 4.092803 1_455
As0 Cs1 4.285512 1_545
As0 Cs1 4.285513 1_554
As1 Cu0 2.325737 1_655
As1 Cs0 3.656541 1_555
As1 Cs2 3.707906 1_656
As1 Cs2 3.707907 1_665
As1 Cs2 3.784312 1_566
As1 Cs1 4.092803 1_655
As1 Cs1 4.285512 1_565
As1 Cs1 4.285513 1_556
