# generated using pymatgen
data_Al11Tc3Os
_symmetry_space_group_name_H-M   'P 1'
_cell_length_a   5.14635999
_cell_length_b   5.10787603
_cell_length_c   8.93067431
_cell_angle_alpha   104.89353729
_cell_angle_beta   90.80398641
_cell_angle_gamma   99.84009974
_symmetry_Int_Tables_number   1
_chemical_formula_structural   Al11Tc3Os
_chemical_formula_sum   'Al11 Tc3 Os1'
_cell_volume   223.12149514
_cell_formula_units_Z   1
loop_
 _symmetry_equiv_pos_site_id
 _symmetry_equiv_pos_as_xyz
  1  'x, y, z'
loop_
 _atom_site_type_symbol
 _atom_site_label
 _atom_site_symmetry_multiplicity
 _atom_site_fract_x
 _atom_site_fract_y
 _atom_site_fract_z
 _atom_site_occupancy
  Al  Al0  1  0.99999421  0.99634737  0.00433414  1
  Al  Al1  1  0.94466289  0.80378737  0.67010330  1
  Al  Al2  1  0.04753045  0.21002484  0.33447706  1
  Al  Al3  1  0.79761397  0.25903912  0.63435717  1
  Al  Al4  1  0.85035808  0.52707476  0.12885053  1
  Al  Al5  1  0.14879686  0.46592386  0.87152571  1
  Al  Al6  1  0.50299016  0.89771491  0.12537962  1
  Al  Al7  1  0.50013108  0.09885444  0.87391378  1
  Al  Al8  1  0.55948248  0.31573347  0.37562992  1
  Al  Al9  1  0.43685888  0.68045686  0.62189474  1
  Al  Al10  1  0.20733288  0.75058517  0.35982139  1
  Tc  Tc0  1  0.72577022  0.84372762  0.40074372  1
  Tc  Tc1  1  0.66280087  0.60817530  0.86495113  1
  Tc  Tc2  1  0.33852559  0.38690530  0.13253560  1
  Os  Os0  1  0.27715138  0.15565059  0.60148218  1
loop_
_geom_bond_atom_site_label_1
_geom_bond_atom_site_label_2
_geom_bond_distance
_geom_bond_site_symmetry_2
Al0 Tc2 2.430601 1_665
Al0 Tc1 2.446775 1_554
Al0 Al6 2.807432 1_555
Al0 Al7 2.862280 1_664
Al0 Al4 2.887637 1_555
Al0 Al4 2.892486 1_565
Al0 Al6 2.961493 1_655
Al0 Al7 2.989681 1_564
Al1 Os0 2.465383 1_665
Al1 Tc1 2.568987 1_555
Al1 Tc0 2.711481 1_555
Al2 Tc0 2.476005 1_445
Al2 Al8 2.598611 1_555
Al2 Tc2 2.600467 1_555
Al2 Al8 2.668808 1_455
Al2 Os0 2.744655 1_555
Al2 Al4 3.010433 1_455
Al3 Tc0 2.534718 1_545
Al3 Tc1 2.545145 1_555
Al3 Os0 2.615639 1_655
Al3 Os0 2.637070 1_555
Al3 Al8 2.703784 1_555
Al3 Al7 2.855505 1_555
Al4 Tc2 2.611893 1_555
Al4 Tc1 2.689328 1_554
Al4 Tc0 2.702322 1_555
Al4 Tc2 2.729444 1_655
Al4 Al5 2.762553 1_654
Al4 Al6 2.822464 1_555
Al4 Al8 3.004435 1_555
Al4 Al7 3.032149 1_554
Al5 Tc1 2.626420 1_555
Al5 Tc2 2.665386 1_556
Al5 Os0 2.683652 1_555
Al5 Tc1 2.725053 1_455
Al5 Al7 2.821926 1_555
Al5 Al6 3.044058 1_556
Al6 Tc2 2.619267 1_555
Al6 Al8 2.637220 1_565
Al6 Tc1 2.640883 1_554
Al6 Al7 2.699905 1_564
Al6 Tc2 2.757968 1_565
Al6 Tc0 2.795650 1_555
Al7 Tc1 2.615303 1_555
Al7 Tc2 2.629894 1_556
Al7 Al9 2.647257 1_545
Al7 Tc1 2.757686 1_545
Al7 Os0 2.778262 1_555
Al8 Tc2 2.572189 1_555
Al8 Tc0 2.636456 1_555
Al8 Al9 2.653385 1_555
Al8 Os0 2.715154 1_555
Al8 Tc0 2.751928 1_545
Al9 Tc1 2.586115 1_555
Al9 Os0 2.624149 1_555
Al9 Tc0 2.704110 1_555
Al9 Os0 2.739589 1_565
Al10 Os0 2.548823 1_565
Al10 Tc2 2.560400 1_555
Al10 Tc0 2.615512 1_455
Al10 Al4 2.626684 1_455
Al10 Tc0 2.632086 1_555
Al10 Al6 2.787652 1_555
