# generated using pymatgen
data_RbSrMoN3
_symmetry_space_group_name_H-M   'P 1'
_cell_length_a   6.59485687
_cell_length_b   6.59485719
_cell_length_c   12.72073126
_cell_angle_alpha   90.05891860
_cell_angle_beta   90.05891758
_cell_angle_gamma   125.38659474
_symmetry_Int_Tables_number   1
_chemical_formula_structural   RbSrMoN3
_chemical_formula_sum   'Rb4 Sr4 Mo4 N12'
_cell_volume   451.04477006
_cell_formula_units_Z   4
loop_
 _symmetry_equiv_pos_site_id
 _symmetry_equiv_pos_as_xyz
  1  'x, y, z'
loop_
 _atom_site_type_symbol
 _atom_site_label
 _atom_site_symmetry_multiplicity
 _atom_site_fract_x
 _atom_site_fract_y
 _atom_site_fract_z
 _atom_site_occupancy
  Rb  Rb0  1  0.96771879  0.54633198  0.35965219  1
  Rb  Rb1  1  0.45366802  0.03228121  0.14034781  1
  Rb  Rb2  1  0.03228121  0.45366802  0.64034781  1
  Rb  Rb3  1  0.54633198  0.96771879  0.85965219  1
  Sr  Sr0  1  0.13197478  0.34623867  0.08281449  1
  Sr  Sr1  1  0.65376133  0.86802522  0.41718551  1
  Sr  Sr2  1  0.86802522  0.65376133  0.91718551  1
  Sr  Sr3  1  0.34623867  0.13197478  0.58281449  1
  Mo  Mo0  1  0.77034738  0.72466032  0.16333694  1
  Mo  Mo1  1  0.27533968  0.22965262  0.33666306  1
  Mo  Mo2  1  0.22965262  0.27533968  0.83666306  1
  Mo  Mo3  1  0.72466032  0.77034738  0.66333694  1
  N  N0  1  0.47686716  0.52313284  0.25000000  1
  N  N1  1  0.52313284  0.47686716  0.75000000  1
  N  N2  1  0.90996251  0.57112590  0.11940247  1
  N  N3  1  0.42887410  0.09003749  0.38059753  1
  N  N4  1  0.09003749  0.42887410  0.88059753  1
  N  N5  1  0.57112590  0.90996251  0.61940247  1
  N  N6  1  0.82368864  0.69697436  0.54801125  1
  N  N7  1  0.30302564  0.17631136  0.95198875  1
  N  N8  1  0.17631136  0.30302564  0.45198875  1
  N  N9  1  0.69697436  0.82368864  0.04801125  1
  N  N10  1  0.98738242  0.01261758  0.25000000  1
  N  N11  1  0.01261758  0.98738242  0.75000000  1
loop_
_geom_bond_atom_site_label_1
_geom_bond_atom_site_label_2
_geom_bond_distance
_geom_bond_site_symmetry_2
Mo0 N9 1.783069 1_555
Mo0 N2 1.806929 1_555
Mo0 N10 1.927356 1_565
Mo0 N0 1.938011 1_555
Mo1 N8 1.783069 1_555
Mo1 N3 1.806929 1_555
Mo1 N10 1.927356 1_455
Mo1 N0 1.938011 1_555
Mo2 N7 1.783069 1_555
Mo2 N4 1.806929 1_555
Mo2 N11 1.927356 1_545
Mo2 N1 1.938011 1_555
Mo3 N6 1.783069 1_555
Mo3 N5 1.806929 1_555
Mo3 N11 1.927356 1_655
Mo3 N1 1.938011 1_555
N0 Sr0 2.822960 1_555
N0 Sr1 2.822960 1_555
N1 Sr2 2.822960 1_555
N1 Sr3 2.822960 1_555
N2 Sr0 2.659857 1_655
N2 Sr2 2.677020 1_554
N2 Rb1 3.061528 1_555
N2 Rb1 3.089287 1_665
N2 Rb0 3.095585 1_555
N3 Sr1 2.659857 1_545
N3 Sr3 2.677020 1_555
N3 Rb0 3.061528 1_555
N3 Rb0 3.089287 1_445
N3 Rb1 3.095585 1_555
N4 Sr2 2.659857 1_455
N4 Sr0 2.677020 1_556
N4 Rb3 3.061528 1_555
N4 Rb3 3.089287 1_445
N4 Rb2 3.095585 1_555
N5 Sr3 2.659857 1_565
N5 Sr1 2.677020 1_555
N5 Rb2 3.061528 1_555
N5 Rb2 3.089287 1_665
N5 Rb3 3.095585 1_555
N6 Sr1 2.600396 1_555
N6 Rb2 2.898914 1_655
N6 Rb0 2.953478 1_555
N6 Sr3 2.974221 1_665
N6 Sr3 3.226792 1_555
N7 Sr0 2.600396 1_556
N7 Rb3 2.898914 1_545
N7 Rb1 2.953478 1_556
N7 Sr2 2.974221 1_445
N7 Sr2 3.226792 1_555
N8 Sr3 2.600396 1_555
N8 Rb0 2.898914 1_455
N8 Rb2 2.953478 1_555
N8 Sr1 2.974221 1_445
N8 Sr1 3.226792 1_555
N9 Sr2 2.600396 1_554
N9 Rb1 2.898914 1_565
N9 Rb3 2.953478 1_554
N9 Sr0 2.974221 1_665
N9 Sr0 3.226792 1_555
N10 Sr1 2.803025 1_545
N10 Sr0 2.803025 1_655
N11 Sr3 2.803025 1_565
N11 Sr2 2.803025 1_455
