# generated using pymatgen
data_Sr5CrMoN7
_symmetry_space_group_name_H-M   'P 1'
_cell_length_a   6.39582652
_cell_length_b   9.03139836
_cell_length_c   9.18590376
_cell_angle_alpha   114.64351767
_cell_angle_beta   97.43858925
_cell_angle_gamma   90.14082707
_symmetry_Int_Tables_number   1
_chemical_formula_structural   Sr5CrMoN7
_chemical_formula_sum   'Sr10 Cr2 Mo2 N14'
_cell_volume   477.28238839
_cell_formula_units_Z   2
loop_
 _symmetry_equiv_pos_site_id
 _symmetry_equiv_pos_as_xyz
  1  'x, y, z'
loop_
 _atom_site_type_symbol
 _atom_site_label
 _atom_site_symmetry_multiplicity
 _atom_site_fract_x
 _atom_site_fract_y
 _atom_site_fract_z
 _atom_site_occupancy
  Sr  Sr0  1  0.85273535  0.58423046  0.33606387  1
  Sr  Sr1  1  0.27126457  0.98382398  0.56983742  1
  Sr  Sr2  1  0.70285652  0.41037881  0.84311292  1
  Sr  Sr3  1  0.29714348  0.58962119  0.15688708  1
  Sr  Sr4  1  0.40086301  0.78586997  0.91219805  1
  Sr  Sr5  1  0.59913699  0.21413003  0.08780195  1
  Sr  Sr6  1  0.14726465  0.41576954  0.66393613  1
  Sr  Sr7  1  0.88325449  0.83540057  0.75701541  1
  Sr  Sr8  1  0.11674551  0.16459943  0.24298459  1
  Sr  Sr9  1  0.72873543  0.01617602  0.43016258  1
  Cr  Cr0  1  0.57378701  0.36679169  0.47780126  1
  Cr  Cr1  1  0.42621299  0.63320831  0.52219874  1
  Mo  Mo0  1  0.11680425  0.21499840  0.91018271  1
  Mo  Mo1  1  0.88319575  0.78500160  0.08981729  1
  N  N0  1  0.55782514  0.55834740  0.66695966  1
  N  N1  1  0.44217486  0.44165260  0.33304034  1
  N  N2  1  0.17735279  0.68828101  0.56794394  1
  N  N3  1  0.82264721  0.31171899  0.43205606  1
  N  N4  1  0.42400393  0.21093314  0.48358225  1
  N  N5  1  0.57599607  0.78906686  0.51641775  1
  N  N6  1  0.94238512  0.13333931  0.70997335  1
  N  N7  1  0.05761488  0.86666069  0.29002665  1
  N  N8  1  0.23145603  0.04842963  0.95711870  1
  N  N9  1  0.76854397  0.95157037  0.04288130  1
  N  N10  1  0.34778001  0.33154941  0.89699609  1
  N  N11  1  0.96815213  0.34615001  0.07637461  1
  N  N12  1  0.03184787  0.65384999  0.92362539  1
  N  N13  1  0.65221999  0.66845059  0.10300391  1
loop_
_geom_bond_atom_site_label_1
_geom_bond_atom_site_label_2
_geom_bond_distance
_geom_bond_site_symmetry_2
Cr0 N3 1.720506 1_555
Cr0 N4 1.723611 1_555
Cr0 N1 1.843005 1_555
Cr0 N0 1.887463 1_555
Cr1 N2 1.720506 1_555
Cr1 N5 1.723611 1_555
Cr1 N0 1.843005 1_555
Cr1 N1 1.887463 1_555
Mo0 N10 1.857433 1_555
Mo0 N8 1.857722 1_555
Mo0 N6 1.871977 1_455
Mo0 N11 1.873734 1_456
Mo1 N13 1.857433 1_555
Mo1 N9 1.857722 1_555
Mo1 N7 1.871977 1_655
Mo1 N12 1.873734 1_654
N0 Sr2 2.585616 1_555
N0 Sr4 2.653376 1_555
N0 Sr6 2.913549 1_555
N0 Sr7 3.013270 1_555
N1 Sr3 2.585616 1_555
N1 Sr5 2.653376 1_555
N1 Sr0 2.913549 1_555
N1 Sr8 3.013270 1_555
N2 Sr0 2.628076 1_455
N2 Sr7 2.693281 1_455
N2 Sr1 2.726944 1_555
N2 Sr6 2.953521 1_555
N2 Sr4 3.052772 1_555
N3 Sr6 2.628076 1_655
N3 Sr8 2.693281 1_655
N3 Sr9 2.726944 1_555
N3 Sr0 2.953521 1_555
N3 Sr5 3.052772 1_555
N4 Sr9 2.584175 1_555
N4 Sr8 2.649848 1_555
N4 Sr1 2.708327 1_545
N4 Sr6 2.742137 1_555
N5 Sr1 2.584175 1_555
N5 Sr7 2.649848 1_555
N5 Sr9 2.708327 1_565
N5 Sr0 2.742137 1_555
N6 Sr9 2.531554 1_555
N6 Sr1 2.677773 1_645
N6 Sr2 2.838147 1_555
N6 Sr7 2.928680 1_545
N6 Sr6 3.070637 1_655
N7 Sr1 2.531554 1_555
N7 Sr9 2.677773 1_465
N7 Sr3 2.838147 1_555
N7 Sr8 2.928680 1_565
N7 Sr0 3.070637 1_455
N8 Sr4 2.505915 1_545
N8 Sr8 2.596081 1_556
N8 Sr5 2.639001 1_556
N8 Sr7 2.830156 1_445
N9 Sr5 2.505915 1_565
N9 Sr7 2.596081 1_554
N9 Sr4 2.639001 1_554
N9 Sr8 2.830156 1_665
N10 Sr2 2.546821 1_555
N10 Sr3 2.607730 1_556
N10 Sr6 2.731016 1_555
N10 Sr5 2.758614 1_556
N11 Sr0 2.654249 1_555
N11 Sr5 2.675386 1_555
N11 Sr8 2.767268 1_655
N11 Sr2 2.811904 1_554
N11 Sr3 2.833324 1_655
N12 Sr6 2.654249 1_555
N12 Sr4 2.675386 1_555
N12 Sr7 2.767268 1_455
N12 Sr3 2.811904 1_556
N12 Sr2 2.833324 1_455
N13 Sr3 2.546821 1_555
N13 Sr2 2.607730 1_554
N13 Sr0 2.731016 1_555
N13 Sr4 2.758614 1_554
