# generated using pymatgen
data_KY(Pd3O4)2
_symmetry_space_group_name_H-M   'P 1'
_cell_length_a   5.80334571
_cell_length_b   5.80334571
_cell_length_c   5.80334571
_cell_angle_alpha   90.00000000
_cell_angle_beta   90.00000000
_cell_angle_gamma   90.00000000
_symmetry_Int_Tables_number   1
_chemical_formula_structural   KY(Pd3O4)2
_chemical_formula_sum   'K1 Y1 Pd6 O8'
_cell_volume   195.44984394
_cell_formula_units_Z   1
loop_
 _symmetry_equiv_pos_site_id
 _symmetry_equiv_pos_as_xyz
  1  'x, y, z'
loop_
 _atom_site_type_symbol
 _atom_site_label
 _atom_site_symmetry_multiplicity
 _atom_site_fract_x
 _atom_site_fract_y
 _atom_site_fract_z
 _atom_site_occupancy
  K  K0  1  0.50000000  0.50000000  0.50000000  1
  Y  Y0  1  0.00000000  0.00000000  0.00000000  1
  Pd  Pd0  1  0.24787432  0.00000000  0.50000000  1
  Pd  Pd1  1  0.75212568  0.00000000  0.50000000  1
  Pd  Pd2  1  0.50000000  0.24787432  0.00000000  1
  Pd  Pd3  1  0.50000000  0.75212568  0.00000000  1
  Pd  Pd4  1  0.00000000  0.50000000  0.24787432  1
  Pd  Pd5  1  0.00000000  0.50000000  0.75212568  1
  O  O0  1  0.23652651  0.23652651  0.23652651  1
  O  O1  1  0.76347349  0.76347349  0.76347349  1
  O  O2  1  0.76347349  0.76347349  0.23652651  1
  O  O3  1  0.76347349  0.23652651  0.76347349  1
  O  O4  1  0.23652651  0.23652651  0.76347349  1
  O  O5  1  0.23652651  0.76347349  0.23652651  1
  O  O6  1  0.23652651  0.76347349  0.76347349  1
  O  O7  1  0.76347349  0.23652651  0.23652651  1
loop_
_geom_bond_atom_site_label_1
_geom_bond_atom_site_label_2
_geom_bond_distance
_geom_bond_site_symmetry_2
K0 O1 2.648354 1_555
K0 O2 2.648354 1_555
K0 O3 2.648354 1_555
K0 O6 2.648354 1_555
K0 O7 2.648354 1_555
K0 O4 2.648354 1_555
K0 O5 2.648354 1_555
K0 O0 2.648354 1_555
O0 Pd0 2.055825 1_555
O0 Pd2 2.055825 1_555
O0 Pd4 2.055825 1_555
O0 Y0 2.377491 1_555
O1 Pd1 2.055825 1_565
O1 Pd5 2.055825 1_655
O1 Pd3 2.055825 1_556
O1 Y0 2.377491 1_666
O2 Pd3 2.055825 1_555
O2 Pd4 2.055825 1_655
O2 Pd1 2.055825 1_565
O2 Y0 2.377491 1_665
O3 Pd1 2.055825 1_555
O3 Pd2 2.055825 1_556
O3 Pd5 2.055825 1_655
O3 Y0 2.377491 1_656
O4 Pd0 2.055825 1_555
O4 Pd5 2.055825 1_555
O4 Pd2 2.055825 1_556
O4 Y0 2.377491 1_556
O5 Pd4 2.055825 1_555
O5 Pd3 2.055825 1_555
O5 Pd0 2.055825 1_565
O5 Y0 2.377491 1_565
O6 Pd5 2.055825 1_555
O6 Pd0 2.055825 1_565
O6 Pd3 2.055825 1_556
O6 Y0 2.377491 1_566
O7 Pd2 2.055825 1_555
O7 Pd1 2.055825 1_555
O7 Pd4 2.055825 1_655
O7 Y0 2.377491 1_655
