# generated using pymatgen
data_Ba2Rh2Br
_symmetry_space_group_name_H-M   'P 1'
_cell_length_a   4.40857707
_cell_length_b   4.40857644
_cell_length_c   18.41565958
_cell_angle_alpha   90.00000000
_cell_angle_beta   90.00000000
_cell_angle_gamma   119.99999028
_symmetry_Int_Tables_number   1
_chemical_formula_structural   Ba2Rh2Br
_chemical_formula_sum   'Ba4 Rh4 Br2'
_cell_volume   309.96650385
_cell_formula_units_Z   2
loop_
 _symmetry_equiv_pos_site_id
 _symmetry_equiv_pos_as_xyz
  1  'x, y, z'
loop_
 _atom_site_type_symbol
 _atom_site_label
 _atom_site_symmetry_multiplicity
 _atom_site_fract_x
 _atom_site_fract_y
 _atom_site_fract_z
 _atom_site_occupancy
  Ba  Ba0  1  0.00000000  0.00000000  0.11738395  1
  Ba  Ba1  1  0.00000000  0.00000000  0.88261605  1
  Ba  Ba2  1  0.00000000  0.00000000  0.61738395  1
  Ba  Ba3  1  0.00000000  0.00000000  0.38261605  1
  Rh  Rh0  1  0.33333300  0.66666700  0.50061802  1
  Rh  Rh1  1  0.66666700  0.33333300  0.49938198  1
  Rh  Rh2  1  0.66666700  0.33333300  0.00061802  1
  Rh  Rh3  1  0.33333300  0.66666700  0.99938198  1
  Br  Br0  1  0.33333300  0.66666700  0.25000000  1
  Br  Br1  1  0.66666700  0.33333300  0.75000000  1
loop_
_geom_bond_atom_site_label_1
_geom_bond_atom_site_label_2
_geom_bond_distance
_geom_bond_site_symmetry_2
Ba0 Rh2 3.332024 1_455
Ba0 Rh2 3.332027 1_445
Ba0 Rh2 3.332028 1_555
Ba0 Rh3 3.346759 1_544
Ba0 Rh3 3.346762 1_554
Ba0 Rh3 3.346763 1_444
Ba0 Br0 3.527450 1_545
Ba0 Br0 3.527453 1_555
Ba0 Br0 3.527453 1_445
Ba1 Rh3 3.332024 1_545
Ba1 Rh3 3.332027 1_555
Ba1 Rh3 3.332028 1_445
Ba1 Rh2 3.346759 1_456
Ba1 Rh2 3.346762 1_446
Ba1 Rh2 3.346763 1_556
Ba1 Br1 3.527450 1_455
Ba1 Br1 3.527453 1_445
Ba1 Br1 3.527453 1_555
Ba2 Rh0 3.332024 1_545
Ba2 Rh0 3.332027 1_555
Ba2 Rh0 3.332028 1_445
Ba2 Rh1 3.346759 1_455
Ba2 Rh1 3.346762 1_445
Ba2 Rh1 3.346763 1_555
Ba2 Br1 3.527450 1_455
Ba2 Br1 3.527453 1_445
Ba2 Br1 3.527453 1_555
Ba3 Rh1 3.332024 1_455
Ba3 Rh1 3.332027 1_445
Ba3 Rh1 3.332028 1_555
Ba3 Rh0 3.346759 1_545
Ba3 Rh0 3.346762 1_555
Ba3 Rh0 3.346763 1_445
Ba3 Br0 3.527450 1_545
Ba3 Br0 3.527453 1_555
Ba3 Br0 3.527453 1_445
Rh0 Rh1 2.545392 1_565
Rh0 Rh1 2.545393 1_455
Rh0 Rh1 2.545400 1_555
Rh2 Rh3 2.545392 1_544
Rh2 Rh3 2.545393 1_654
Rh2 Rh3 2.545400 1_554
