# generated using pymatgen
data_CoCuPtS4
_symmetry_space_group_name_H-M   'P 1'
_cell_length_a   6.77312945
_cell_length_b   6.86641577
_cell_length_c   6.86641620
_cell_angle_alpha   60.80878946
_cell_angle_beta   60.44841499
_cell_angle_gamma   60.44841362
_symmetry_Int_Tables_number   1
_chemical_formula_structural   CoCuPtS4
_chemical_formula_sum   'Co2 Cu2 Pt2 S8'
_cell_volume   228.69965674
_cell_formula_units_Z   2
loop_
 _symmetry_equiv_pos_site_id
 _symmetry_equiv_pos_as_xyz
  1  'x, y, z'
loop_
 _atom_site_type_symbol
 _atom_site_label
 _atom_site_symmetry_multiplicity
 _atom_site_fract_x
 _atom_site_fract_y
 _atom_site_fract_z
 _atom_site_occupancy
  Co  Co0  1  0.12500000  0.12500000  0.12500000  1
  Co  Co1  1  0.62500000  0.12500000  0.12500000  1
  Cu  Cu0  1  0.75509376  0.74490624  0.74490624  1
  Cu  Cu1  1  0.49490624  0.50509376  0.50509376  1
  Pt  Pt0  1  0.12500000  0.62500000  0.12500000  1
  Pt  Pt1  1  0.12500000  0.12500000  0.62500000  1
  S  S0  1  0.88028599  0.34012822  0.89929981  1
  S  S1  1  0.36971401  0.35070019  0.90987178  1
  S  S2  1  0.37938999  0.35759715  0.35759715  1
  S  S3  1  0.90541670  0.35759715  0.35759715  1
  S  S4  1  0.87061001  0.89240285  0.89240285  1
  S  S5  1  0.34458330  0.89240285  0.89240285  1
  S  S6  1  0.36971401  0.90987178  0.35070019  1
  S  S7  1  0.88028599  0.89929981  0.34012822  1
loop_
_geom_bond_atom_site_label_1
_geom_bond_atom_site_label_2
_geom_bond_distance
_geom_bond_site_symmetry_2
Co0 S3 2.261748 1_455
Co0 S5 2.261748 1_544
Co0 S1 2.283992 1_554
Co0 S7 2.283992 1_445
Co0 S6 2.283992 1_545
Co0 S0 2.283992 1_454
Co1 S2 2.261748 1_555
Co1 S4 2.261748 1_544
Co1 S0 2.283992 1_554
Co1 S6 2.283992 1_545
Co1 S7 2.283992 1_545
Co1 S1 2.283992 1_554
Cu0 S4 2.286346 1_555
Cu0 S5 2.286351 1_555
Cu0 S0 2.292515 1_555
Cu0 S7 2.292515 1_555
Cu1 S2 2.286346 1_555
Cu1 S3 2.286351 1_555
Cu1 S6 2.292515 1_555
Cu1 S1 2.292515 1_555
Pt0 S5 2.371524 1_554
Pt0 S3 2.371524 1_455
Pt0 S2 2.371529 1_555
Pt0 S4 2.371529 1_454
Pt0 S7 2.386638 1_455
Pt0 S1 2.386638 1_554
Pt1 S5 2.371524 1_545
Pt1 S3 2.371524 1_455
Pt1 S2 2.371529 1_555
Pt1 S4 2.371529 1_445
Pt1 S0 2.386638 1_455
Pt1 S6 2.386638 1_545
