# generated using pymatgen
data_BaSr2Al3Ga2
_symmetry_space_group_name_H-M   'P 1'
_cell_length_a   5.79881509
_cell_length_b   5.79881460
_cell_length_c   14.42717004
_cell_angle_alpha   90.00000000
_cell_angle_beta   90.00000000
_cell_angle_gamma   120.00000278
_symmetry_Int_Tables_number   1
_chemical_formula_structural   BaSr2Al3Ga2
_chemical_formula_sum   'Ba2 Sr4 Al6 Ga4'
_cell_volume   420.13634583
_cell_formula_units_Z   2
loop_
 _symmetry_equiv_pos_site_id
 _symmetry_equiv_pos_as_xyz
  1  'x, y, z'
loop_
 _atom_site_type_symbol
 _atom_site_label
 _atom_site_symmetry_multiplicity
 _atom_site_fract_x
 _atom_site_fract_y
 _atom_site_fract_z
 _atom_site_occupancy
  Ba  Ba0  1  0.00000000  0.00000000  0.00000000  1
  Ba  Ba1  1  0.00000000  0.00000000  0.50000000  1
  Sr  Sr0  1  0.33333300  0.66666700  0.87647639  1
  Sr  Sr1  1  0.66666700  0.33333300  0.37647639  1
  Sr  Sr2  1  0.66666700  0.33333300  0.12352361  1
  Sr  Sr3  1  0.33333300  0.66666700  0.62352361  1
  Al  Al0  1  0.83829486  0.67658973  0.75000000  1
  Al  Al1  1  0.67658973  0.83829486  0.25000000  1
  Al  Al2  1  0.83829486  0.16170514  0.75000000  1
  Al  Al3  1  0.16170514  0.83829486  0.25000000  1
  Al  Al4  1  0.32341027  0.16170514  0.75000000  1
  Al  Al5  1  0.16170514  0.32341027  0.25000000  1
  Ga  Ga0  1  0.66666700  0.33333300  0.89269267  1
  Ga  Ga1  1  0.33333300  0.66666700  0.10730733  1
  Ga  Ga2  1  0.33333300  0.66666700  0.39269267  1
  Ga  Ga3  1  0.66666700  0.33333300  0.60730733  1
loop_
_geom_bond_atom_site_label_1
_geom_bond_atom_site_label_2
_geom_bond_distance
_geom_bond_site_symmetry_2
Ba0 Ga0 3.688559 1_454
Ba0 Ga1 3.688559 1_545
Ba0 Ga0 3.688564 1_444
Ba0 Ga1 3.688564 1_555
Ba0 Ga0 3.688564 1_554
Ba0 Ga1 3.688564 1_445
Ba0 Sr2 3.792703 1_455
Ba0 Sr0 3.792703 1_544
Ba0 Sr2 3.792707 1_445
Ba0 Sr0 3.792707 1_554
Ba0 Sr2 3.792707 1_555
Ba0 Sr0 3.792707 1_444
Ba1 Ga2 3.688559 1_545
Ba1 Ga3 3.688559 1_455
Ba1 Ga2 3.688564 1_555
Ba1 Ga3 3.688564 1_445
Ba1 Ga3 3.688564 1_555
Ba1 Ga2 3.688564 1_445
Ba1 Sr3 3.792703 1_545
Ba1 Sr1 3.792703 1_455
Ba1 Sr3 3.792707 1_555
Ba1 Sr1 3.792707 1_445
Ba1 Sr3 3.792707 1_445
Ba1 Sr1 3.792707 1_555
Sr0 Sr3 3.649393 1_555
Sr1 Sr2 3.649393 1_555
Al0 Ga3 2.685062 1_555
Al0 Ga0 2.685062 1_555
Al0 Al2 2.813094 1_565
Al0 Al4 2.813094 1_665
Al0 Sr0 3.426156 1_655
Al0 Sr3 3.426156 1_655
Al0 Sr0 3.426161 1_555
Al0 Sr3 3.426161 1_555
Al0 Ba0 3.955602 1_666
Al0 Ba1 3.955602 1_665
Al1 Ga1 2.685062 1_555
Al1 Ga2 2.685062 1_555
Al1 Al5 2.813094 1_665
Al1 Al3 2.813095 1_655
Al1 Sr1 3.426156 1_565
Al1 Sr2 3.426156 1_565
Al1 Sr1 3.426161 1_555
Al1 Sr2 3.426161 1_555
Al1 Ba0 3.955602 1_665
Al1 Ba1 3.955602 1_665
Al2 Ga3 2.685059 1_555
Al2 Ga0 2.685059 1_555
Al2 Al4 2.813095 1_655
Al2 Sr0 3.426159 1_655
Al2 Sr3 3.426159 1_655
Al2 Sr0 3.426159 1_545
Al2 Sr3 3.426159 1_545
Al2 Ba1 3.955602 1_655
Al2 Ba0 3.955602 1_656
Al3 Ga1 2.685059 1_555
Al3 Ga2 2.685059 1_555
Al3 Al5 2.813094 1_565
Al3 Sr1 3.426159 1_455
Al3 Sr2 3.426159 1_455
Al3 Sr1 3.426159 1_565
Al3 Sr2 3.426159 1_565
Al3 Ba0 3.955602 1_565
Al3 Ba1 3.955602 1_565
Al4 Ga3 2.685062 1_555
Al4 Ga0 2.685062 1_555
Al4 Sr0 3.426156 1_545
Al4 Sr3 3.426156 1_545
Al4 Sr0 3.426161 1_555
Al4 Sr3 3.426161 1_555
Al4 Ba1 3.955602 1_555
Al4 Ba0 3.955602 1_556
Al5 Ga1 2.685062 1_555
Al5 Ga2 2.685062 1_555
Al5 Sr1 3.426156 1_455
Al5 Sr2 3.426156 1_455
Al5 Sr1 3.426161 1_555
Al5 Sr2 3.426161 1_555
Al5 Ba1 3.955602 1_555
Al5 Ba0 3.955602 1_555
Ga0 Sr2 3.330237 1_556
Ga0 Sr0 3.356108 1_545
Ga0 Sr0 3.356108 1_655
Ga0 Sr0 3.356118 1_555
Ga1 Sr0 3.330237 1_554
Ga1 Sr2 3.356108 1_565
Ga1 Sr2 3.356108 1_455
Ga1 Sr2 3.356118 1_555
Ga2 Sr3 3.330237 1_555
Ga2 Sr1 3.356108 1_565
Ga2 Sr1 3.356108 1_455
Ga2 Sr1 3.356118 1_555
Ga3 Sr1 3.330237 1_555
Ga3 Sr3 3.356108 1_545
Ga3 Sr3 3.356108 1_655
Ga3 Sr3 3.356118 1_555
