# generated using pymatgen
data_Zr6Al13Mo3Os7
_symmetry_space_group_name_H-M   'P 1'
_cell_length_a   8.74995392
_cell_length_b   8.74995488
_cell_length_c   8.74995434
_cell_angle_alpha   59.81987518
_cell_angle_beta   59.81986928
_cell_angle_gamma   59.81986908
_symmetry_Int_Tables_number   1
_chemical_formula_structural   Zr6Al13Mo3Os7
_chemical_formula_sum   'Zr6 Al13 Mo3 Os7'
_cell_volume   471.76213811
_cell_formula_units_Z   1
loop_
 _symmetry_equiv_pos_site_id
 _symmetry_equiv_pos_as_xyz
  1  'x, y, z'
loop_
 _atom_site_type_symbol
 _atom_site_label
 _atom_site_symmetry_multiplicity
 _atom_site_fract_x
 _atom_site_fract_y
 _atom_site_fract_z
 _atom_site_occupancy
  Zr  Zr0  1  0.70056794  0.70056794  0.29411177  1
  Zr  Zr1  1  0.29980315  0.70016257  0.29980315  1
  Zr  Zr2  1  0.70016257  0.29980315  0.29980315  1
  Zr  Zr3  1  0.29980315  0.29980315  0.70016257  1
  Zr  Zr4  1  0.70056794  0.29411177  0.70056794  1
  Zr  Zr5  1  0.29411177  0.70056794  0.70056794  1
  Al  Al0  1  0.88064425  0.88064425  0.88064425  1
  Al  Al1  1  0.11909669  0.11909669  0.63808398  1
  Al  Al2  1  0.11909669  0.63808398  0.11909669  1
  Al  Al3  1  0.63808398  0.11909669  0.11909669  1
  Al  Al4  1  0.12306076  0.12306076  0.12306076  1
  Al  Al5  1  0.66606089  0.66606089  0.00734342  1
  Al  Al6  1  0.66606089  0.00734342  0.66606089  1
  Al  Al7  1  0.00734342  0.66606089  0.66606089  1
  Al  Al8  1  0.65953334  0.65953334  0.65953334  1
  Al  Al9  1  0.33584954  0.33584954  0.99671302  1
  Al  Al10  1  0.33584954  0.99671302  0.33584954  1
  Al  Al11  1  0.99671302  0.33584954  0.33584954  1
  Al  Al12  1  0.33373365  0.33373365  0.33373365  1
  Mo  Mo0  1  0.87798647  0.87798647  0.36172410  1
  Mo  Mo1  1  0.87798647  0.36172410  0.87798647  1
  Mo  Mo2  1  0.36172410  0.87798647  0.87798647  1
  Os  Os0  1  0.00469512  0.00469512  0.00469512  1
  Os  Os1  1  0.99919337  0.99919337  0.49709938  1
  Os  Os2  1  0.50384193  0.99829471  0.50384193  1
  Os  Os3  1  0.99829471  0.50384193  0.50384193  1
  Os  Os4  1  0.50384193  0.50384193  0.99829471  1
  Os  Os5  1  0.99919337  0.49709938  0.99919337  1
  Os  Os6  1  0.49709938  0.99919337  0.99919337  1
loop_
_geom_bond_atom_site_label_1
_geom_bond_atom_site_label_2
_geom_bond_distance
_geom_bond_site_symmetry_2
Zr0 Zr1 3.483676 1_555
Zr0 Zr2 3.483676 1_555
Zr0 Zr5 3.546785 1_555
Zr0 Zr4 3.546786 1_555
Zr1 Zr5 3.483676 1_555
Zr1 Zr2 3.493584 1_555
Zr1 Zr3 3.493585 1_555
Zr2 Zr4 3.483676 1_555
Zr2 Zr3 3.493584 1_555
Zr3 Zr4 3.483676 1_555
Zr3 Zr5 3.483676 1_555
Zr4 Zr5 3.546785 1_555
Al0 Os0 2.662386 1_666
Al0 Os6 2.737942 1_555
Al0 Os1 2.737943 1_555
Al0 Os5 2.737943 1_555
Al0 Al6 2.763800 1_565
Al0 Al7 2.763800 1_655
Al0 Al5 2.763800 1_556
Al0 Al3 2.946748 1_566
Al0 Al2 2.946748 1_656
Al0 Al1 2.946748 1_665
Al0 Zr5 3.014517 1_655
Al0 Zr0 3.014517 1_556
Al0 Zr4 3.014518 1_565
Al1 Os0 2.616221 1_556
Al1 Os1 2.726257 1_445
Al1 Al10 2.738569 1_545
Al1 Al11 2.738570 1_455
Al1 Os2 2.743178 1_545
Al1 Os3 2.743178 1_455
Al1 Al12 2.763191 1_555
Al1 Mo1 2.981452 1_455
Al1 Mo2 2.981452 1_545
Al1 Zr4 3.040593 1_455
Al1 Zr5 3.040594 1_545
Al1 Zr3 3.088052 1_555
Al2 Os0 2.616221 1_565
Al2 Os5 2.726257 1_454
Al2 Al9 2.738569 1_554
Al2 Os4 2.743178 1_554
Al2 Os3 2.743178 1_455
Al2 Mo0 2.981452 1_455
Al2 Mo2 2.981452 1_554
Al2 Zr0 3.040593 1_455
Al2 Zr5 3.040594 1_554
Al2 Zr1 3.088052 1_555
Al3 Os0 2.616221 1_655
Al3 Os6 2.726257 1_544
Al3 Al9 2.738569 1_554
Al3 Os2 2.743178 1_545
Al3 Os4 2.743178 1_554
Al3 Mo0 2.981452 1_545
Al3 Mo1 2.981452 1_554
Al3 Zr4 3.040594 1_554
Al3 Zr0 3.040594 1_545
Al3 Zr2 3.088052 1_555
Al4 Os0 2.540370 1_555
Al4 Os6 2.666243 1_544
Al4 Os1 2.666243 1_445
Al4 Os5 2.666243 1_454
Al4 Al9 2.738945 1_554
Al4 Mo2 3.029232 1_544
Al4 Mo1 3.029232 1_454
Al4 Mo0 3.029232 1_445
Al4 Zr2 3.061547 1_455
Al4 Zr3 3.061548 1_554
Al4 Zr1 3.061548 1_545
Al5 Os5 2.500307 1_554
Al5 Os6 2.500308 1_554
Al5 Os4 2.507465 1_554
Al5 Mo2 2.786802 1_554
Al5 Mo1 2.786802 1_554
Al5 Zr0 2.844926 1_555
Al5 Zr1 2.910088 1_555
Al5 Zr2 2.910089 1_555
Al5 Al7 2.978072 1_654
Al5 Al6 2.978073 1_564
Al5 Al8 3.101798 1_554
Al6 Os1 2.500307 1_545
Al6 Os6 2.500308 1_545
Al6 Os2 2.507465 1_545
Al6 Mo0 2.786802 1_545
Al6 Mo2 2.786802 1_545
Al6 Zr4 2.844926 1_555
Al6 Zr3 2.910088 1_555
Al6 Zr2 2.910089 1_555
Al6 Al7 2.978072 1_645
Al6 Al8 3.101798 1_545
Al7 Os5 2.500308 1_455
Al7 Os1 2.500308 1_455
Al7 Os3 2.507465 1_455
Al7 Mo0 2.786802 1_455
Al7 Mo1 2.786802 1_455
Al7 Zr5 2.844926 1_555
Al7 Zr1 2.910088 1_555
Al7 Zr3 2.910089 1_555
Al7 Al8 3.101798 1_455
Al8 Os3 2.498755 1_555
Al8 Os4 2.498755 1_555
Al8 Os2 2.498756 1_555
Al8 Mo2 2.784805 1_555
Al8 Mo1 2.784805 1_555
Al8 Mo0 2.784805 1_555
Al8 Zr5 2.881388 1_555
Al8 Zr0 2.881388 1_555
Al8 Zr4 2.881388 1_555
Al9 Os5 2.540902 1_455
Al9 Os6 2.540902 1_545
Al9 Os4 2.556345 1_555
Al9 Zr4 2.915043 1_555
Al9 Zr5 2.915044 1_555
Al9 Zr3 2.945796 1_555
Al10 Os1 2.540902 1_455
Al10 Os6 2.540902 1_554
Al10 Os2 2.556345 1_555
Al10 Al3 2.738569 1_565
Al10 Al4 2.738945 1_565
Al10 Zr0 2.915043 1_555
Al10 Zr5 2.915044 1_555
Al10 Al12 2.930417 1_565
Al10 Zr1 2.945796 1_555
Al10 Al11 2.959346 1_465
Al10 Al9 2.959346 1_564
Al11 Os5 2.540902 1_554
Al11 Os1 2.540902 1_545
Al11 Os3 2.556345 1_555
Al11 Al2 2.738570 1_655
Al11 Al4 2.738945 1_655
Al11 Zr4 2.915043 1_555
Al11 Zr0 2.915043 1_555
Al11 Al12 2.930417 1_655
Al11 Zr2 2.945795 1_555
Al11 Al9 2.959346 1_654
Al12 Os3 2.547190 1_455
Al12 Os4 2.547190 1_554
Al12 Os2 2.547190 1_545
Al12 Al3 2.763190 1_555
Al12 Al2 2.763191 1_555
Al12 Al9 2.930417 1_554
Al12 Zr2 2.937806 1_555
Al12 Zr3 2.937806 1_555
Al12 Zr1 2.937806 1_555
Mo0 Os0 2.547315 1_665
Mo0 Os2 2.670202 1_555
Mo0 Os3 2.670202 1_555
Mo0 Os1 2.703652 1_555
Mo0 Zr1 3.065947 1_655
Mo0 Zr2 3.065948 1_565
Mo0 Zr0 3.072425 1_555
Mo1 Os0 2.547315 1_656
Mo1 Os4 2.670202 1_555
Mo1 Os3 2.670202 1_555
Mo1 Os5 2.703652 1_555
Mo1 Zr3 3.065947 1_655
Mo1 Zr2 3.065947 1_556
Mo1 Zr4 3.072425 1_555
Mo2 Os0 2.547315 1_566
Mo2 Os2 2.670202 1_555
Mo2 Os4 2.670202 1_555
Mo2 Os6 2.703652 1_555
Mo2 Zr1 3.065948 1_556
Mo2 Zr3 3.065948 1_565
Mo2 Zr5 3.072425 1_555
Os1 Zr1 3.130694 1_655
Os1 Zr2 3.130694 1_565
Os1 Zr4 3.133483 1_565
Os1 Zr5 3.133484 1_655
Os2 Zr3 3.136175 1_565
Os2 Zr2 3.136176 1_565
Os2 Zr0 3.199876 1_555
Os2 Zr5 3.199877 1_555
Os3 Zr3 3.136175 1_655
Os3 Zr1 3.136175 1_655
Os3 Zr0 3.199876 1_555
Os3 Zr4 3.199876 1_555
Os4 Zr1 3.136175 1_556
Os4 Zr2 3.136175 1_556
Os4 Zr4 3.199876 1_555
Os4 Zr5 3.199876 1_555
Os5 Zr3 3.130694 1_655
Os5 Zr2 3.130694 1_556
Os5 Zr0 3.133483 1_556
Os5 Zr5 3.133484 1_655
Os6 Zr3 3.130694 1_565
Os6 Zr1 3.130694 1_556
Os6 Zr0 3.133484 1_556
Os6 Zr4 3.133484 1_565
