# generated using pymatgen
data_K4SnGePt4
_symmetry_space_group_name_H-M   'P 1'
_cell_length_a   5.93581546
_cell_length_b   5.93581470
_cell_length_c   7.76762339
_cell_angle_alpha   83.33205131
_cell_angle_beta   83.33205018
_cell_angle_gamma   71.11524527
_symmetry_Int_Tables_number   1
_chemical_formula_structural   K4SnGePt4
_chemical_formula_sum   'K4 Sn1 Ge1 Pt4'
_cell_volume   256.30046454
_cell_formula_units_Z   1
loop_
 _symmetry_equiv_pos_site_id
 _symmetry_equiv_pos_as_xyz
  1  'x, y, z'
loop_
 _atom_site_type_symbol
 _atom_site_label
 _atom_site_symmetry_multiplicity
 _atom_site_fract_x
 _atom_site_fract_y
 _atom_site_fract_z
 _atom_site_occupancy
  K  K0  1  0.75548920  0.52317783  0.87601013  1
  K  K1  1  0.47682217  0.24451080  0.62398987  1
  K  K2  1  0.23725522  0.48436924  0.12297269  1
  K  K3  1  0.51563076  0.76274478  0.37702731  1
  Sn  Sn0  1  0.05125053  0.94874947  0.75000000  1
  Ge  Ge0  1  0.96306410  0.03693590  0.25000000  1
  Pt  Pt0  1  0.00470046  0.71317973  0.49367274  1
  Pt  Pt1  1  0.28682027  0.99529954  0.00632726  1
  Pt  Pt2  1  0.98946245  0.28049414  0.47803522  1
  Pt  Pt3  1  0.71950586  0.01053755  0.02196478  1
loop_
_geom_bond_atom_site_label_1
_geom_bond_atom_site_label_2
_geom_bond_distance
_geom_bond_site_symmetry_2
K0 Pt3 3.163086 1_566
K0 Pt3 3.186495 1_556
K0 Pt0 3.400314 1_655
K0 Pt1 3.402282 1_556
K0 Sn0 3.488157 1_645
K0 K2 3.490176 1_556
K0 Pt2 3.507455 1_555
K0 Sn0 3.509830 1_655
K0 K1 3.546762 1_555
K0 K2 3.557474 1_656
K0 Pt1 3.794394 1_646
K1 Pt2 3.163087 1_455
K1 Pt2 3.186495 1_555
K1 Pt1 3.400314 1_546
K1 Pt0 3.402282 1_555
K1 Sn0 3.488157 1_645
K1 K3 3.490176 1_555
K1 Pt3 3.507455 1_556
K1 Sn0 3.509831 1_545
K1 K3 3.557474 1_545
K1 Pt0 3.794394 1_645
K2 Pt1 3.054687 1_545
K2 Pt1 3.159565 1_555
K2 Pt2 3.266419 1_455
K2 Pt0 3.288303 1_555
K2 Pt3 3.391092 1_555
K2 Pt3 3.686816 1_465
K3 Pt0 3.054688 1_655
K3 Pt0 3.159565 1_555
K3 Pt3 3.266419 1_565
K3 Pt1 3.288303 1_555
K3 Pt2 3.391092 1_555
K3 Pt2 3.686816 1_465
Ge0 Pt2 2.461284 1_555
Ge0 Pt3 2.461284 1_555
Ge0 Pt0 2.508630 1_645
Ge0 Pt1 2.508630 1_645
Ge0 K0 3.856119 1_554
Ge0 K1 3.856120 1_555
Pt0 Pt2 2.616236 1_455
Pt0 Sn0 2.649585 1_555
Pt1 Pt3 2.616237 1_565
Pt1 Sn0 2.649585 1_554
Pt2 Sn0 2.687240 1_645
Pt3 Sn0 2.687240 1_644
