# generated using pymatgen
data_YSc2Ni9
_symmetry_space_group_name_H-M   'P 1'
_cell_length_a   8.32931616
_cell_length_b   8.32931610
_cell_length_c   8.32931700
_cell_angle_alpha   33.81396161
_cell_angle_beta   33.81396080
_cell_angle_gamma   33.81396261
_symmetry_Int_Tables_number   1
_chemical_formula_structural   YSc2Ni9
_chemical_formula_sum   'Y1 Sc2 Ni9'
_cell_volume   159.47121763
_cell_formula_units_Z   1
loop_
 _symmetry_equiv_pos_site_id
 _symmetry_equiv_pos_as_xyz
  1  'x, y, z'
loop_
 _atom_site_type_symbol
 _atom_site_label
 _atom_site_symmetry_multiplicity
 _atom_site_fract_x
 _atom_site_fract_y
 _atom_site_fract_z
 _atom_site_occupancy
  Y  Y0  1  0.00000000  0.00000000  0.00000000  1
  Sc  Sc0  1  0.85904105  0.85904105  0.85904105  1
  Sc  Sc1  1  0.14095895  0.14095895  0.14095895  1
  Ni  Ni0  1  0.41405644  0.41405644  0.91931415  1
  Ni  Ni1  1  0.91931415  0.41405644  0.41405644  1
  Ni  Ni2  1  0.50000000  0.50000000  0.50000000  1
  Ni  Ni3  1  0.58594356  0.08068585  0.58594356  1
  Ni  Ni4  1  0.58594356  0.58594356  0.08068585  1
  Ni  Ni5  1  0.33364587  0.33364587  0.33364587  1
  Ni  Ni6  1  0.41405644  0.91931415  0.41405644  1
  Ni  Ni7  1  0.66635413  0.66635413  0.66635413  1
  Ni  Ni8  1  0.08068585  0.58594356  0.58594356  1
loop_
_geom_bond_atom_site_label_1
_geom_bond_atom_site_label_2
_geom_bond_distance
_geom_bond_site_symmetry_2
Sc0 Sc1 3.047623 1_566
Sc0 Sc1 3.047623 1_656
Sc0 Sc1 3.047624 1_665
Sc0 Y0 3.317738 1_666
Sc1 Y0 3.317738 1_555
Ni0 Ni1 2.396850 1_456
Ni0 Ni6 2.396850 1_546
Ni0 Ni2 2.401161 1_555
Ni0 Ni5 2.422992 1_556
Ni0 Ni7 2.427931 1_555
Ni0 Ni1 2.447793 1_555
Ni0 Ni6 2.447793 1_555
Ni0 Sc0 2.766430 1_545
Ni0 Sc0 2.766430 1_455
Ni0 Sc1 2.898037 1_556
Ni0 Y0 3.129629 1_566
Ni0 Y0 3.129629 1_656
Ni1 Ni6 2.396850 1_645
Ni1 Ni2 2.401161 1_555
Ni1 Ni5 2.422992 1_655
Ni1 Ni7 2.427932 1_555
Ni1 Ni6 2.447793 1_555
Ni1 Sc0 2.766430 1_545
Ni1 Sc0 2.766430 1_554
Ni1 Sc1 2.898037 1_655
Ni1 Y0 3.129629 1_665
Ni1 Y0 3.129629 1_656
Ni2 Ni6 2.401161 1_555
Ni2 Ni3 2.401161 1_555
Ni2 Ni8 2.401161 1_555
Ni2 Ni4 2.401161 1_555
Ni2 Sc0 2.861755 1_554
Ni2 Sc1 2.861755 1_556
Ni2 Sc0 2.861755 1_455
Ni2 Sc1 2.861755 1_655
Ni2 Sc0 2.861755 1_545
Ni2 Sc1 2.861755 1_565
Ni3 Ni8 2.396850 1_645
Ni3 Ni4 2.396850 1_546
Ni3 Ni7 2.422992 1_545
Ni3 Ni5 2.427932 1_555
Ni3 Ni8 2.447793 1_555
Ni3 Ni4 2.447793 1_555
Ni3 Sc1 2.766430 1_655
Ni3 Sc1 2.766430 1_556
Ni3 Sc0 2.898037 1_545
Ni3 Y0 3.129629 1_556
Ni3 Y0 3.129629 1_655
Ni4 Ni8 2.396850 1_654
Ni4 Ni7 2.422992 1_554
Ni4 Ni5 2.427931 1_555
Ni4 Ni8 2.447793 1_555
Ni4 Sc1 2.766430 1_565
Ni4 Sc1 2.766430 1_655
Ni4 Sc0 2.898037 1_554
Ni4 Y0 3.129629 1_655
Ni4 Y0 3.129629 1_565
Ni5 Ni6 2.422992 1_545
Ni5 Ni8 2.427932 1_555
Ni5 Y0 2.797066 1_655
Ni5 Y0 2.797066 1_565
Ni5 Y0 2.797066 1_556
Ni5 Ni7 2.797095 1_455
Ni5 Ni7 2.797095 1_545
Ni5 Ni7 2.797095 1_554
Ni6 Ni7 2.427932 1_555
Ni6 Sc0 2.766430 1_455
Ni6 Sc0 2.766430 1_554
Ni6 Sc1 2.898037 1_565
Ni6 Y0 3.129629 1_665
Ni6 Y0 3.129629 1_566
Ni7 Ni8 2.422992 1_655
Ni7 Y0 2.797066 1_566
Ni7 Y0 2.797066 1_656
Ni7 Y0 2.797066 1_665
Ni8 Sc1 2.766430 1_565
Ni8 Sc1 2.766430 1_556
Ni8 Sc0 2.898037 1_455
Ni8 Y0 3.129629 1_556
Ni8 Y0 3.129629 1_565
