# generated using pymatgen
data_Y16In6IrRh
_symmetry_space_group_name_H-M   'P 1'
_cell_length_a   10.41014221
_cell_length_b   10.41014376
_cell_length_c   7.13367000
_cell_angle_alpha   90.00000000
_cell_angle_beta   90.00000000
_cell_angle_gamma   120.00000448
_symmetry_Int_Tables_number   1
_chemical_formula_structural   Y16In6IrRh
_chemical_formula_sum   'Y16 In6 Ir1 Rh1'
_cell_volume   669.50992033
_cell_formula_units_Z   1
loop_
 _symmetry_equiv_pos_site_id
 _symmetry_equiv_pos_as_xyz
  1  'x, y, z'
loop_
 _atom_site_type_symbol
 _atom_site_label
 _atom_site_symmetry_multiplicity
 _atom_site_fract_x
 _atom_site_fract_y
 _atom_site_fract_z
 _atom_site_occupancy
  Y  Y0  1  0.46554853  0.53445147  0.48148738  1
  Y  Y1  1  0.06890194  0.53445147  0.48148738  1
  Y  Y2  1  0.46554853  0.93109806  0.48148738  1
  Y  Y3  1  0.53477651  0.46522349  0.98132406  1
  Y  Y4  1  0.93044598  0.46522349  0.98132406  1
  Y  Y5  1  0.53477651  0.06955402  0.98132406  1
  Y  Y6  1  0.82409574  0.17590426  0.27460344  1
  Y  Y7  1  0.35180752  0.17590426  0.27460344  1
  Y  Y8  1  0.82409574  0.64819248  0.27460344  1
  Y  Y9  1  0.17567217  0.82432783  0.77572781  1
  Y  Y10  1  0.64865666  0.82432783  0.77572781  1
  Y  Y11  1  0.17567217  0.35134334  0.77572781  1
  Y  Y12  1  0.33333300  0.66666700  0.10012400  1
  Y  Y13  1  0.66666700  0.33333300  0.59942556  1
  Y  Y14  1  0.00000000  0.00000000  0.49668828  1
  Y  Y15  1  0.00000000  0.00000000  0.99687305  1
  In  In0  1  0.16361823  0.83638177  0.23306896  1
  In  In1  1  0.67276355  0.83638177  0.23306896  1
  In  In2  1  0.16361823  0.32723645  0.23306896  1
  In  In3  1  0.83655522  0.16344478  0.73169389  1
  In  In4  1  0.32689056  0.16344478  0.73169389  1
  In  In5  1  0.83655522  0.67310944  0.73169389  1
  Ir  Ir0  1  0.66666700  0.33333300  0.20796061  1
  Rh  Rh0  1  0.33333300  0.66666700  0.70975990  1
loop_
_geom_bond_atom_site_label_1
_geom_bond_atom_site_label_2
_geom_bond_distance
_geom_bond_site_symmetry_2
In0 Y8 3.081232 1_455
In0 Y7 3.081232 1_565
In0 Y12 3.203702 1_555
In0 Y9 3.269752 1_554
In0 Y2 3.300428 1_555
In0 Y1 3.300428 1_555
In0 Y15 3.397443 1_564
In0 Y14 3.498591 1_565
In0 Y5 3.829801 1_564
In0 Y4 3.829801 1_454
In0 Y9 3.877246 1_555
In1 Y8 3.081223 1_555
In1 Y6 3.081233 1_565
In1 Y12 3.203710 1_555
In1 Y10 3.269752 1_554
In1 Y0 3.300430 1_555
In1 Y2 3.300437 1_555
In1 Y15 3.397442 1_664
In1 Y14 3.498590 1_665
In1 Y3 3.829800 1_554
In1 Y5 3.829809 1_564
In1 Y10 3.877245 1_555
In2 Y7 3.081223 1_555
In2 Y6 3.081232 1_455
In2 Y12 3.203711 1_555
In2 Y11 3.269752 1_554
In2 Y0 3.300430 1_555
In2 Y1 3.300437 1_555
In2 Y15 3.397443 1_554
In2 Y14 3.498591 1_555
In2 Y3 3.829800 1_554
In2 Y4 3.829809 1_454
In2 Y11 3.877245 1_555
In3 Y11 3.079311 1_655
In3 Y10 3.079311 1_545
In3 Y13 3.205265 1_555
In3 Y6 3.268462 1_555
In3 Y5 3.305344 1_555
In3 Y4 3.305345 1_555
In3 Y14 3.390521 1_655
In3 Y15 3.501952 1_655
In3 Y2 3.822468 1_545
In3 Y1 3.822468 1_655
In3 Y6 3.879448 1_556
In4 Y11 3.079311 1_555
In4 Y9 3.079311 1_545
In4 Y13 3.205265 1_555
In4 Y7 3.268461 1_555
In4 Y5 3.305328 1_555
In4 Y3 3.305341 1_555
In4 Y14 3.390528 1_555
In4 Y15 3.501960 1_555
In4 Y2 3.822454 1_545
In4 Y0 3.822471 1_555
In4 Y7 3.879447 1_556
In5 Y9 3.079311 1_655
In5 Y10 3.079311 1_555
In5 Y13 3.205265 1_555
In5 Y8 3.268461 1_555
In5 Y4 3.305328 1_555
In5 Y3 3.305340 1_555
In5 Y14 3.390529 1_665
In5 Y15 3.501960 1_665
In5 Y1 3.822454 1_655
In5 Y0 3.822471 1_555
In5 Y8 3.879447 1_556
Ir0 Y13 2.792582 1_555
Ir0 Y4 2.875617 1_554
Ir0 Y5 2.875617 1_554
Ir0 Y3 2.875632 1_554
Ir0 Y6 2.878117 1_555
Ir0 Y7 2.878134 1_555
Ir0 Y8 2.878135 1_555
Rh0 Y12 2.784729 1_556
Rh0 Y9 2.881454 1_555
Rh0 Y10 2.881471 1_555
Rh0 Y11 2.881472 1_555
Rh0 Y1 2.887047 1_555
Rh0 Y0 2.887047 1_555
Rh0 Y2 2.887047 1_555
