# generated using pymatgen
data_Sr4Sc7AsSe16
_symmetry_space_group_name_H-M   'P 1'
_cell_length_a   3.96392382
_cell_length_b   12.26320530
_cell_length_c   14.35165935
_cell_angle_alpha   90.09501142
_cell_angle_beta   90.00000000
_cell_angle_gamma   90.00000000
_symmetry_Int_Tables_number   1
_chemical_formula_structural   Sr4Sc7AsSe16
_chemical_formula_sum   'Sr4 Sc7 As1 Se16'
_cell_volume   697.63910952
_cell_formula_units_Z   1
loop_
 _symmetry_equiv_pos_site_id
 _symmetry_equiv_pos_as_xyz
  1  'x, y, z'
loop_
 _atom_site_type_symbol
 _atom_site_label
 _atom_site_symmetry_multiplicity
 _atom_site_fract_x
 _atom_site_fract_y
 _atom_site_fract_z
 _atom_site_occupancy
  Sr  Sr0  1  0.25000000  0.75932423  0.32916253  1
  Sr  Sr1  1  0.25000000  0.26331679  0.16957358  1
  Sr  Sr2  1  0.75000000  0.23912737  0.66894579  1
  Sr  Sr3  1  0.75000000  0.73742241  0.83113087  1
  Sc  Sc0  1  0.25000000  0.44128954  0.38909565  1
  Sc  Sc1  1  0.25000000  0.94153502  0.10946078  1
  Sc  Sc2  1  0.75000000  0.55720137  0.60928381  1
  Sc  Sc3  1  0.75000000  0.05814755  0.89079798  1
  Sc  Sc4  1  0.25000000  0.41889331  0.90285437  1
  Sc  Sc5  1  0.25000000  0.91925633  0.59990686  1
  Sc  Sc6  1  0.75000000  0.58147620  0.09684344  1
  As  As0  1  0.75000000  0.07366470  0.40358911  1
  Se  Se0  1  0.25000000  0.20285912  0.84120999  1
  Se  Se1  1  0.25000000  0.70341386  0.65840632  1
  Se  Se2  1  0.75000000  0.79754262  0.15887339  1
  Se  Se3  1  0.75000000  0.30196942  0.33751221  1
  Se  Se4  1  0.25000000  0.11898975  0.53087179  1
  Se  Se5  1  0.25000000  0.62434285  0.97140011  1
  Se  Se6  1  0.75000000  0.88010963  0.46840048  1
  Se  Se7  1  0.75000000  0.37636295  0.02795464  1
  Se  Se8  1  0.25000000  0.02880501  0.28663161  1
  Se  Se9  1  0.25000000  0.53103629  0.21437510  1
  Se  Se10  1  0.75000000  0.97000988  0.71675161  1
  Se  Se11  1  0.75000000  0.47103127  0.78453610  1
  Se  Se12  1  0.25000000  0.41112618  0.57455970  1
  Se  Se13  1  0.25000000  0.91119153  0.92542484  1
  Se  Se14  1  0.75000000  0.59205260  0.42617223  1
  Se  Se15  1  0.75000000  0.08850321  0.07627410  1
loop_
_geom_bond_atom_site_label_1
_geom_bond_atom_site_label_2
_geom_bond_distance
_geom_bond_site_symmetry_2
Sc0 Se12 2.687904 1_555
Sc0 Se3 2.718648 1_555
Sc0 Se3 2.718648 1_455
Sc0 Se9 2.740099 1_555
Sc0 Se14 2.761567 1_455
Sc0 Se14 2.761567 1_555
Sc1 Se13 2.666693 1_554
Sc1 Se15 2.721425 1_565
Sc1 Se15 2.721425 1_465
Sc1 Se2 2.748327 1_555
Sc1 Se2 2.748327 1_455
Sc1 Se8 2.757104 1_565
Sc2 Se14 2.663181 1_555
Sc2 Se12 2.717075 1_555
Sc2 Se12 2.717075 1_655
Sc2 Se11 2.729746 1_555
Sc2 Se1 2.763324 1_655
Sc2 Se1 2.763324 1_555
Sc3 Se15 2.687182 1_556
Sc3 Se10 2.720029 1_545
Sc3 Se13 2.725042 1_645
Sc3 Se13 2.725042 1_545
Sc3 Se0 2.754658 1_555
Sc3 Se0 2.754658 1_655
Sc4 Se11 2.687750 1_555
Sc4 Se11 2.687750 1_455
Sc4 Se5 2.703195 1_555
Sc4 Se7 2.725207 1_456
Sc4 Se7 2.725207 1_556
Sc4 Se0 2.791695 1_555
Sc5 Se4 2.643689 1_565
Sc5 Se10 2.669109 1_455
Sc5 Se10 2.669109 1_555
Sc5 Se6 2.778068 1_555
Sc5 Se6 2.778068 1_455
Sc5 Se1 2.778206 1_555
Sc6 Se9 2.675715 1_555
Sc6 Se9 2.675715 1_655
Sc6 Se7 2.701145 1_555
Sc6 Se5 2.729250 1_654
Sc6 Se5 2.729250 1_554
Sc6 Se2 2.793819 1_555
As0 Se6 2.550785 1_545
As0 Se8 2.654284 1_655
As0 Se8 2.654284 1_555
As0 Se4 2.751482 1_655
As0 Se4 2.751482 1_555
As0 Se3 2.957480 1_555
Se0 Sr2 3.200280 1_455
Se0 Sr2 3.200280 1_555
Se1 Sr3 3.200554 1_455
Se1 Sr3 3.200554 1_555
Se2 Sr0 3.181892 1_655
Se2 Sr0 3.181892 1_555
Se3 Sr1 3.155649 1_555
Se3 Sr1 3.155649 1_655
Se4 Sr2 3.164763 1_455
Se4 Sr2 3.164763 1_555
Se5 Sr3 3.148488 1_455
Se5 Sr3 3.148488 1_555
Se6 Sr0 3.178922 1_555
Se6 Sr0 3.178922 1_655
Se7 Sr1 3.160742 1_655
Se7 Sr1 3.160742 1_555
Se8 Sr1 3.333009 1_555
Se8 Sr0 3.361591 1_545
Se9 Sr0 3.245926 1_555
Se9 Sr1 3.344422 1_555
Se10 Sr3 3.293264 1_555
Se10 Sr2 3.371919 1_565
Se11 Sr2 3.289989 1_555
Se11 Sr3 3.333463 1_555
Se12 Sr2 3.197115 1_455
Se12 Sr2 3.197115 1_555
Se13 Sr3 3.207956 1_455
Se13 Sr3 3.207956 1_555
Se14 Sr0 3.175497 1_555
Se14 Sr0 3.175497 1_655
Se15 Sr1 3.210506 1_655
Se15 Sr1 3.210506 1_555
