# generated using pymatgen
data_Ag2IrCl6
_symmetry_space_group_name_H-M   'P 1'
_cell_length_a   6.87529281
_cell_length_b   6.87529262
_cell_length_c   6.87529232
_cell_angle_alpha   57.65611130
_cell_angle_beta   57.65611339
_cell_angle_gamma   57.65610819
_symmetry_Int_Tables_number   1
_chemical_formula_structural   Ag2IrCl6
_chemical_formula_sum   'Ag2 Ir1 Cl6'
_cell_volume   217.42622130
_cell_formula_units_Z   1
loop_
 _symmetry_equiv_pos_site_id
 _symmetry_equiv_pos_as_xyz
  1  'x, y, z'
loop_
 _atom_site_type_symbol
 _atom_site_label
 _atom_site_symmetry_multiplicity
 _atom_site_fract_x
 _atom_site_fract_y
 _atom_site_fract_z
 _atom_site_occupancy
  Ag  Ag0  1  0.83175030  0.83175030  0.83175030  1
  Ag  Ag1  1  0.16824970  0.16824970  0.16824970  1
  Ir  Ir0  1  0.50000000  0.50000000  0.50000000  1
  Cl  Cl0  1  0.41820944  0.13432115  0.71331298  1
  Cl  Cl1  1  0.13432115  0.71331298  0.41820944  1
  Cl  Cl2  1  0.71331298  0.41820944  0.13432115  1
  Cl  Cl3  1  0.28668702  0.58179056  0.86567885  1
  Cl  Cl4  1  0.86567885  0.28668702  0.58179056  1
  Cl  Cl5  1  0.58179056  0.86567885  0.28668702  1
loop_
_geom_bond_atom_site_label_1
_geom_bond_atom_site_label_2
_geom_bond_distance
_geom_bond_site_symmetry_2
Ag0 Cl5 2.718689 1_556
Ag0 Cl3 2.718689 1_655
Ag0 Cl4 2.718689 1_565
Ag0 Cl0 2.722229 1_565
Ag0 Cl1 2.722229 1_655
Ag0 Cl2 2.722229 1_556
Ag1 Cl0 2.718689 1_554
Ag1 Cl2 2.718689 1_455
Ag1 Cl1 2.718689 1_545
Ag1 Cl5 2.722229 1_545
Ag1 Cl4 2.722229 1_455
Ag1 Cl3 2.722229 1_554
Cl0 Ir0 2.339452 1_555
Cl1 Ir0 2.339452 1_555
Cl2 Ir0 2.339452 1_555
Cl3 Ir0 2.339452 1_555
Cl4 Ir0 2.339452 1_555
Cl5 Ir0 2.339452 1_555
