# generated using pymatgen
data_RbCaCuH4
_symmetry_space_group_name_H-M   'P 1'
_cell_length_a   7.71036275
_cell_length_b   7.71036275
_cell_length_c   7.71036275
_cell_angle_alpha   90.00000000
_cell_angle_beta   90.00000000
_cell_angle_gamma   90.00000000
_symmetry_Int_Tables_number   1
_chemical_formula_structural   RbCaCuH4
_chemical_formula_sum   'Rb4 Ca4 Cu4 H16'
_cell_volume   458.37870385
_cell_formula_units_Z   4
loop_
 _symmetry_equiv_pos_site_id
 _symmetry_equiv_pos_as_xyz
  1  'x, y, z'
loop_
 _atom_site_type_symbol
 _atom_site_label
 _atom_site_symmetry_multiplicity
 _atom_site_fract_x
 _atom_site_fract_y
 _atom_site_fract_z
 _atom_site_occupancy
  Rb  Rb0  1  0.15657698  0.65657698  0.84342302  1
  Rb  Rb1  1  0.65657698  0.84342302  0.15657698  1
  Rb  Rb2  1  0.84342302  0.15657698  0.65657698  1
  Rb  Rb3  1  0.34342302  0.34342302  0.34342302  1
  Ca  Ca0  1  0.85093091  0.35093091  0.14906909  1
  Ca  Ca1  1  0.35093091  0.14906909  0.85093091  1
  Ca  Ca2  1  0.14906909  0.85093091  0.35093091  1
  Ca  Ca3  1  0.64906909  0.64906909  0.64906909  1
  Cu  Cu0  1  0.43448854  0.93448854  0.56551146  1
  Cu  Cu1  1  0.93448854  0.56551146  0.43448854  1
  Cu  Cu2  1  0.56551146  0.43448854  0.93448854  1
  Cu  Cu3  1  0.06551146  0.06551146  0.06551146  1
  H  H0  1  0.55237847  0.05237847  0.44762153  1
  H  H1  1  0.05237847  0.44762153  0.55237847  1
  H  H2  1  0.44762153  0.55237847  0.05237847  1
  H  H3  1  0.94762153  0.94762153  0.94762153  1
  H  H4  1  0.26059791  0.98284853  0.09558121  1
  H  H5  1  0.90441879  0.76059791  0.51715147  1
  H  H6  1  0.48284853  0.40441879  0.73940209  1
  H  H7  1  0.76059791  0.51715147  0.90441879  1
  H  H8  1  0.40441879  0.73940209  0.48284853  1
  H  H9  1  0.98284853  0.09558121  0.26059791  1
  H  H10  1  0.73940209  0.48284853  0.40441879  1
  H  H11  1  0.09558121  0.26059791  0.98284853  1
  H  H12  1  0.51715147  0.90441879  0.76059791  1
  H  H13  1  0.23940209  0.01715147  0.59558121  1
  H  H14  1  0.59558121  0.23940209  0.01715147  1
  H  H15  1  0.01715147  0.59558121  0.23940209  1
loop_
_geom_bond_atom_site_label_1
_geom_bond_atom_site_label_2
_geom_bond_distance
_geom_bond_site_symmetry_2
Ca0 H14 2.377049 1_555
Ca0 H9 2.377049 1_555
Ca0 H10 2.377049 1_555
Ca0 H11 2.384524 1_654
Ca0 H15 2.384524 1_655
Ca0 H7 2.384524 1_554
Ca1 H13 2.377049 1_555
Ca1 H6 2.377049 1_555
Ca1 H11 2.377049 1_555
Ca1 H14 2.384524 1_556
Ca1 H4 2.384524 1_546
Ca1 H12 2.384524 1_545
Ca2 H8 2.377049 1_555
Ca2 H4 2.377049 1_555
Ca2 H15 2.377049 1_555
Ca2 H9 2.384524 1_465
Ca2 H13 2.384524 1_565
Ca2 H5 2.384524 1_455
Ca3 H12 2.377049 1_555
Ca3 H5 2.377049 1_555
Ca3 H7 2.377049 1_555
Ca3 H10 2.384524 1_555
Ca3 H8 2.384524 1_555
Ca3 H6 2.384524 1_555
Cu0 H0 1.574389 1_565
Cu0 H13 1.650019 1_565
Cu0 H8 1.650019 1_555
Cu0 H12 1.650019 1_555
Cu1 H1 1.574389 1_655
Cu1 H15 1.650019 1_655
Cu1 H10 1.650019 1_555
Cu1 H5 1.650019 1_555
Cu2 H2 1.574389 1_556
Cu2 H14 1.650019 1_556
Cu2 H6 1.650019 1_555
Cu2 H7 1.650019 1_555
Cu3 H3 1.574389 1_444
Cu3 H11 1.650019 1_554
Cu3 H9 1.650019 1_455
Cu3 H4 1.650019 1_545
H0 Rb2 2.876974 1_555
H0 Rb1 2.876974 1_545
H0 Rb3 2.876974 1_555
H1 Rb2 2.876974 1_455
H1 Rb0 2.876974 1_555
H1 Rb3 2.876974 1_555
H2 Rb0 2.876974 1_554
H2 Rb3 2.876974 1_555
H2 Rb1 2.876974 1_555
H3 Rb0 2.876974 1_655
H3 Rb2 2.876974 1_565
H3 Rb1 2.876974 1_556
