# generated using pymatgen
data_SrAg2F8
_symmetry_space_group_name_H-M   'P 1'
_cell_length_a   6.86234055
_cell_length_b   6.86234011
_cell_length_c   6.86234033
_cell_angle_alpha   132.21698033
_cell_angle_beta   132.21697540
_cell_angle_gamma   69.88655067
_symmetry_Int_Tables_number   1
_chemical_formula_structural   SrAg2F8
_chemical_formula_sum   'Sr1 Ag2 F8'
_cell_volume   173.80617520
_cell_formula_units_Z   1
loop_
 _symmetry_equiv_pos_site_id
 _symmetry_equiv_pos_as_xyz
  1  'x, y, z'
loop_
 _atom_site_type_symbol
 _atom_site_label
 _atom_site_symmetry_multiplicity
 _atom_site_fract_x
 _atom_site_fract_y
 _atom_site_fract_z
 _atom_site_occupancy
  Sr  Sr0  1  0.00000000  0.00000000  0.00000000  1
  Ag  Ag0  1  0.75000000  0.25000000  0.50000000  1
  Ag  Ag1  1  0.25000000  0.75000000  0.50000000  1
  F  F0  1  0.69621818  0.18796886  0.14680429  1
  F  F1  1  0.45058611  0.95883643  0.14680429  1
  F  F2  1  0.81203214  0.30378182  0.85319571  1
  F  F3  1  0.30378182  0.45058611  0.49174968  1
  F  F4  1  0.04116357  0.54941389  0.85319571  1
  F  F5  1  0.54941389  0.69621818  0.50825032  1
  F  F6  1  0.18796886  0.04116357  0.49174968  1
  F  F7  1  0.95883643  0.81203214  0.50825032  1
loop_
_geom_bond_atom_site_label_1
_geom_bond_atom_site_label_2
_geom_bond_distance
_geom_bond_site_symmetry_2
Ag0 F4 1.926482 1_655
Ag0 F1 1.926482 1_545
Ag0 F2 1.926482 1_555
Ag0 F0 1.926486 1_555
Ag1 F3 1.926482 1_555
Ag1 F7 1.926483 1_455
Ag1 F5 1.926483 1_555
Ag1 F6 1.926483 1_565
F0 Sr0 2.500223 1_655
F1 Sr0 2.500224 1_565
F2 Sr0 2.500224 1_656
F3 Sr0 2.500224 1_555
F4 Sr0 2.500224 1_566
F5 Sr0 2.500224 1_666
F6 Sr0 2.500221 1_555
F7 Sr0 2.500224 1_666
