# generated using pymatgen
data_Al2BiTe4
_symmetry_space_group_name_H-M   'P 1'
_cell_length_a   8.46923529
_cell_length_b   8.46923529
_cell_length_c   13.54878893
_cell_angle_alpha   90.00000000
_cell_angle_beta   90.00000000
_cell_angle_gamma   90.00000000
_symmetry_Int_Tables_number   1
_chemical_formula_structural   Al2BiTe4
_chemical_formula_sum   'Al8 Bi4 Te16'
_cell_volume   971.82680656
_cell_formula_units_Z   4
loop_
 _symmetry_equiv_pos_site_id
 _symmetry_equiv_pos_as_xyz
  1  'x, y, z'
loop_
 _atom_site_type_symbol
 _atom_site_label
 _atom_site_symmetry_multiplicity
 _atom_site_fract_x
 _atom_site_fract_y
 _atom_site_fract_z
 _atom_site_occupancy
  Al  Al0  1  0.50000000  0.00000000  0.75000000  1
  Al  Al1  1  0.00000000  0.50000000  0.75000000  1
  Al  Al2  1  0.00000000  0.50000000  0.00000000  1
  Al  Al3  1  0.00000000  0.50000000  0.25000000  1
  Al  Al4  1  0.50000000  0.00000000  0.50000000  1
  Al  Al5  1  0.50000000  0.00000000  0.25000000  1
  Al  Al6  1  0.00000000  0.50000000  0.50000000  1
  Al  Al7  1  0.50000000  0.00000000  0.00000000  1
  Bi  Bi0  1  0.00000000  0.00000000  0.11680814  1
  Bi  Bi1  1  0.00000000  0.00000000  0.88319186  1
  Bi  Bi2  1  0.50000000  0.50000000  0.38319186  1
  Bi  Bi3  1  0.50000000  0.50000000  0.61680814  1
  Te  Te0  1  0.66603713  0.82765975  0.87534104  1
  Te  Te1  1  0.16603713  0.32765975  0.62465896  1
  Te  Te2  1  0.83396287  0.67234025  0.62465896  1
  Te  Te3  1  0.16603713  0.67234025  0.37534104  1
  Te  Te4  1  0.67234025  0.16603713  0.62465896  1
  Te  Te5  1  0.82765975  0.33396287  0.87534104  1
  Te  Te6  1  0.67234025  0.83396287  0.37534104  1
  Te  Te7  1  0.66603713  0.17234025  0.12465896  1
  Te  Te8  1  0.17234025  0.33396287  0.12465896  1
  Te  Te9  1  0.32765975  0.83396287  0.62465896  1
  Te  Te10  1  0.17234025  0.66603713  0.87534104  1
  Te  Te11  1  0.83396287  0.32765975  0.37534104  1
  Te  Te12  1  0.82765975  0.66603713  0.12465896  1
  Te  Te13  1  0.33396287  0.17234025  0.87534104  1
  Te  Te14  1  0.32765975  0.16603713  0.37534104  1
  Te  Te15  1  0.33396287  0.82765975  0.12465896  1
loop_
_geom_bond_atom_site_label_1
_geom_bond_atom_site_label_2
_geom_bond_distance
_geom_bond_site_symmetry_2
Al0 Te0 2.644196 1_545
Al0 Te13 2.644196 1_555
Al0 Te4 2.644196 1_555
Al0 Te9 2.644196 1_545
Al1 Te10 2.644196 1_555
Al1 Te5 2.644196 1_455
Al1 Te1 2.644196 1_555
Al1 Te2 2.644196 1_455
Al2 Te12 2.638270 1_455
Al2 Te8 2.638270 1_555
Al2 Te10 2.638270 1_554
Al2 Te5 2.638270 1_454
Al3 Te3 2.644196 1_555
Al3 Te11 2.644196 1_455
Al3 Te12 2.644196 1_455
Al3 Te8 2.644196 1_555
Al4 Te4 2.638270 1_555
Al4 Te9 2.638270 1_545
Al4 Te14 2.638270 1_555
Al4 Te6 2.638270 1_545
Al5 Te14 2.644196 1_555
Al5 Te6 2.644196 1_545
Al5 Te7 2.644196 1_555
Al5 Te15 2.644196 1_545
Al6 Te1 2.638270 1_555
Al6 Te2 2.638270 1_455
Al6 Te3 2.638270 1_555
Al6 Te11 2.638270 1_455
Al7 Te7 2.638270 1_555
Al7 Te15 2.638270 1_545
Al7 Te0 2.638270 1_544
Al7 Te13 2.638270 1_554
Bi0 Bi1 3.165218 1_554
Bi0 Te8 3.184591 1_555
Bi0 Te15 3.184591 1_545
Bi0 Te7 3.184591 1_455
Bi0 Te12 3.184591 1_445
Bi1 Te5 3.184591 1_455
Bi1 Te13 3.184591 1_555
Bi1 Te0 3.184591 1_445
Bi1 Te10 3.184591 1_545
Bi2 Bi3 3.165218 1_555
Bi2 Te11 3.184591 1_555
Bi2 Te6 3.184591 1_555
Bi2 Te14 3.184591 1_555
Bi2 Te3 3.184591 1_555
Bi3 Te9 3.184591 1_555
Bi3 Te2 3.184591 1_555
Bi3 Te1 3.184591 1_555
Bi3 Te4 3.184591 1_555
