# generated using pymatgen
data_Y2FeNiIr2
_symmetry_space_group_name_H-M   'P 1'
_cell_length_a   5.34326484
_cell_length_b   5.00103498
_cell_length_c   5.34326480
_cell_angle_alpha   59.49671107
_cell_angle_beta   62.29839075
_cell_angle_gamma   59.49669797
_symmetry_Int_Tables_number   1
_chemical_formula_structural   Y2FeNiIr2
_chemical_formula_sum   'Y2 Fe1 Ni1 Ir2'
_cell_volume   101.78154483
_cell_formula_units_Z   1
loop_
 _symmetry_equiv_pos_site_id
 _symmetry_equiv_pos_as_xyz
  1  'x, y, z'
loop_
 _atom_site_type_symbol
 _atom_site_label
 _atom_site_symmetry_multiplicity
 _atom_site_fract_x
 _atom_site_fract_y
 _atom_site_fract_z
 _atom_site_occupancy
  Y  Y0  1  0.62791545  0.61858319  0.62791545  1
  Y  Y1  1  0.37208455  0.38141681  0.37208455  1
  Fe  Fe0  1  0.00000000  0.50000000  0.00000000  1
  Ni  Ni0  1  0.00000000  0.00000000  0.00000000  1
  Ir  Ir0  1  0.50000000  0.00000000  0.00000000  1
  Ir  Ir1  1  0.00000000  0.00000000  0.50000000  1
loop_
_geom_bond_atom_site_label_1
_geom_bond_atom_site_label_2
_geom_bond_distance
_geom_bond_site_symmetry_2
Y0 Y1 3.072503 1_565
Y0 Y1 3.189545 1_555
Y0 Y1 3.300139 1_655
Y0 Y1 3.300140 1_556
Fe0 Ni0 2.500517 1_555
Fe0 Ni0 2.500517 1_565
Fe0 Ir0 2.570673 1_555
Fe0 Ir0 2.570673 1_465
Fe0 Ir1 2.570674 1_555
Fe0 Ir1 2.570674 1_564
Fe0 Y1 3.088405 1_555
Fe0 Y0 3.088405 1_454
Fe0 Y0 3.190995 1_455
Fe0 Y1 3.190995 1_554
Fe0 Y0 3.190996 1_554
Fe0 Y1 3.190996 1_455
Ni0 Y1 2.943291 1_545
Ni0 Y0 2.943291 1_454
Ni0 Y1 3.162154 1_455
Ni0 Y0 3.162154 1_544
Ni0 Y1 3.162155 1_554
Ni0 Y0 3.162155 1_445
Ir0 Ni0 2.671632 1_555
Ir0 Ni0 2.671632 1_655
Ir0 Ir1 2.763902 1_555
Ir0 Ir1 2.763902 1_654
Ir0 Y0 2.937566 1_554
Ir0 Y1 2.937566 1_545
Ir0 Y1 3.053088 1_555
Ir0 Y0 3.053088 1_544
Ir0 Y0 3.110311 1_545
Ir0 Y1 3.110311 1_554
Ir1 Ni0 2.671632 1_556
Ir1 Ni0 2.671632 1_555
Ir1 Y0 2.937565 1_455
Ir1 Y1 2.937565 1_545
Ir1 Y1 3.053088 1_555
Ir1 Y0 3.053088 1_445
Ir1 Y0 3.110311 1_545
Ir1 Y1 3.110311 1_455
