# generated using pymatgen
data_Zr2P2PdRu
_symmetry_space_group_name_H-M   'P 1'
_cell_length_a   3.81599138
_cell_length_b   6.54099775
_cell_length_c   7.46057685
_cell_angle_alpha   90.00000000
_cell_angle_beta   90.00000000
_cell_angle_gamma   90.00000000
_symmetry_Int_Tables_number   1
_chemical_formula_structural   Zr2P2PdRu
_chemical_formula_sum   'Zr4 P4 Pd2 Ru2'
_cell_volume   186.21891516
_cell_formula_units_Z   2
loop_
 _symmetry_equiv_pos_site_id
 _symmetry_equiv_pos_as_xyz
  1  'x, y, z'
loop_
 _atom_site_type_symbol
 _atom_site_label
 _atom_site_symmetry_multiplicity
 _atom_site_fract_x
 _atom_site_fract_y
 _atom_site_fract_z
 _atom_site_occupancy
  Zr  Zr0  1  0.75000000  0.52971803  0.32215524  1
  Zr  Zr1  1  0.25000000  0.97491003  0.81873242  1
  Zr  Zr2  1  0.75000000  0.02971803  0.17784476  1
  Zr  Zr3  1  0.25000000  0.47491003  0.68126758  1
  P  P0  1  0.25000000  0.74425717  0.11077777  1
  P  P1  1  0.25000000  0.24425717  0.38922223  1
  P  P2  1  0.75000000  0.26396181  0.86389100  1
  P  P3  1  0.75000000  0.76396181  0.63610900  1
  Pd  Pd0  1  0.25000000  0.34959650  0.06857374  1
  Pd  Pd1  1  0.25000000  0.84959650  0.43142626  1
  Ru  Ru0  1  0.75000000  0.13755545  0.55431829  1
  Ru  Ru1  1  0.75000000  0.63755545  0.94568171  1
loop_
_geom_bond_atom_site_label_1
_geom_bond_atom_site_label_2
_geom_bond_distance
_geom_bond_site_symmetry_2
P0 Ru1 2.375853 1_554
P0 Ru1 2.375853 1_454
P0 Pd1 2.489475 1_555
P0 Pd0 2.600606 1_555
P0 Zr1 2.650181 1_554
P0 Zr2 2.716107 1_565
P0 Zr2 2.716107 1_465
P0 Zr0 2.845456 1_555
P0 Zr0 2.845456 1_455
P1 Ru0 2.375853 1_555
P1 Ru0 2.375853 1_455
P1 Pd0 2.489475 1_555
P1 Pd1 2.600606 1_545
P1 Zr3 2.650181 1_555
P1 Zr0 2.716107 1_455
P1 Zr0 2.716107 1_555
P1 Zr2 2.845456 1_455
P1 Zr2 2.845456 1_555
P2 Ru0 2.453130 1_555
P2 Pd0 2.507207 1_556
P2 Pd0 2.507207 1_656
P2 Ru1 2.518710 1_555
P2 Zr1 2.707148 1_645
P2 Zr1 2.707148 1_545
P2 Zr3 2.720417 1_555
P2 Zr3 2.720417 1_655
P2 Zr2 2.798903 1_556
P3 Ru1 2.453130 1_555
P3 Pd1 2.507207 1_555
P3 Pd1 2.507207 1_655
P3 Ru0 2.518710 1_565
P3 Zr3 2.707148 1_655
P3 Zr3 2.707148 1_555
P3 Zr1 2.720417 1_655
P3 Zr1 2.720417 1_555
P3 Zr0 2.798903 1_555
Pd0 Ru1 2.833509 1_454
Pd0 Ru1 2.833509 1_554
Pd0 Zr0 2.933887 1_555
Pd0 Zr0 2.933887 1_455
Pd0 Zr2 2.946669 1_455
Pd0 Zr2 2.946669 1_555
Pd0 Zr3 3.003537 1_554
Pd0 Zr1 3.079104 1_544
Pd1 Ru0 2.833509 1_465
Pd1 Ru0 2.833509 1_565
Pd1 Zr2 2.933887 1_465
Pd1 Zr2 2.933887 1_565
Pd1 Zr0 2.946669 1_455
Pd1 Zr0 2.946669 1_555
Pd1 Zr1 3.003537 1_555
Pd1 Zr3 3.079104 1_555
Ru0 Zr2 2.895926 1_555
Ru0 Zr1 2.943421 1_645
Ru0 Zr1 2.943421 1_545
Ru0 Zr3 3.067037 1_555
Ru0 Zr3 3.067037 1_655
Ru0 Zr0 3.095155 1_555
Ru1 Zr0 2.895926 1_556
Ru1 Zr3 2.943421 1_555
Ru1 Zr3 2.943421 1_655
Ru1 Zr1 3.067037 1_655
Ru1 Zr1 3.067037 1_555
Ru1 Zr2 3.095155 1_566
