# generated using pymatgen
data_Nb4Cr2Si5
_symmetry_space_group_name_H-M   'P 1'
_cell_length_a   9.38583208
_cell_length_b   9.38583208
_cell_length_c   9.38583208
_cell_angle_alpha   149.36626784
_cell_angle_beta   130.27220938
_cell_angle_gamma   59.54496795
_symmetry_Int_Tables_number   1
_chemical_formula_structural   Nb4Cr2Si5
_chemical_formula_sum   'Nb8 Cr4 Si10'
_cell_volume   318.85345912
_cell_formula_units_Z   2
loop_
 _symmetry_equiv_pos_site_id
 _symmetry_equiv_pos_as_xyz
  1  'x, y, z'
loop_
 _atom_site_type_symbol
 _atom_site_label
 _atom_site_symmetry_multiplicity
 _atom_site_fract_x
 _atom_site_fract_y
 _atom_site_fract_z
 _atom_site_occupancy
  Nb  Nb0  1  0.19212100  0.93635600  0.25576400  1
  Nb  Nb1  1  0.80787900  0.06364400  0.74423600  1
  Nb  Nb2  1  0.31940800  0.56364400  0.75576400  1
  Nb  Nb3  1  0.68059200  0.43635600  0.24423600  1
  Nb  Nb4  1  0.02984500  0.64340200  0.38644300  1
  Nb  Nb5  1  0.97015500  0.35659800  0.61355700  1
  Nb  Nb6  1  0.74304000  0.85659800  0.88644300  1
  Nb  Nb7  1  0.25696000  0.14340200  0.11355700  1
  Cr  Cr0  1  0.69345000  0.94345000  0.25000000  1
  Cr  Cr1  1  0.30655000  0.55655000  0.25000000  1
  Cr  Cr2  1  0.30655000  0.05655000  0.75000000  1
  Cr  Cr3  1  0.69345000  0.44345000  0.75000000  1
  Si  Si0  1  0.00000000  0.25000000  0.25000000  1
  Si  Si1  1  0.00000000  0.75000000  0.75000000  1
  Si  Si2  1  0.65248400  0.57042400  0.08206000  1
  Si  Si3  1  0.34751600  0.42957600  0.91794000  1
  Si  Si4  1  0.51163600  0.92957600  0.58206000  1
  Si  Si5  1  0.48836400  0.07042400  0.41794000  1
  Si  Si6  1  0.98816700  0.78205600  0.20611000  1
  Si  Si7  1  0.01183300  0.21794400  0.79389000  1
  Si  Si8  1  0.57594600  0.28205600  0.29389000  1
  Si  Si9  1  0.42405400  0.71794400  0.70611000  1
loop_
_geom_bond_atom_site_label_1
_geom_bond_atom_site_label_2
_geom_bond_distance
_geom_bond_site_symmetry_2
Nb0 Si5 2.531878 1_565
Nb0 Si6 2.544508 1_455
Nb0 Si4 2.577758 1_555
Nb0 Si1 2.585979 1_554
Nb0 Si0 2.585982 1_565
Nb0 Si3 2.792443 1_554
Nb0 Si3 2.792448 1_565
Nb1 Si4 2.531878 1_545
Nb1 Si7 2.544508 1_655
Nb1 Si5 2.577758 1_555
Nb1 Si0 2.585979 1_656
Nb1 Si1 2.585982 1_645
Nb1 Si2 2.792443 1_556
Nb1 Si2 2.792448 1_545
Nb2 Si3 2.531887 1_555
Nb2 Si9 2.544508 1_555
Nb2 Si2 2.577761 1_556
Nb2 Si1 2.585981 1_555
Nb2 Si0 2.585981 1_555
Nb2 Si5 2.792447 1_555
Nb2 Si5 2.792447 1_566
Nb3 Si2 2.531887 1_555
Nb3 Si8 2.544508 1_555
Nb3 Si3 2.577761 1_554
Nb3 Si0 2.585981 1_655
Nb3 Si1 2.585981 1_655
Nb3 Si4 2.792447 1_544
Nb3 Si4 2.792447 1_555
Nb4 Si6 2.670195 1_455
Nb4 Si2 2.680607 1_455
Nb4 Si0 2.792791 1_555
Nb4 Si1 2.792791 1_555
Nb4 Si9 2.800195 1_555
Nb4 Si7 2.855854 1_554
Nb4 Si7 2.855858 1_565
Nb5 Si7 2.670195 1_655
Nb5 Si3 2.680607 1_655
Nb5 Si0 2.792791 1_655
Nb5 Si1 2.792791 1_655
Nb5 Si8 2.800195 1_555
Nb5 Si6 2.855854 1_556
Nb5 Si6 2.855858 1_545
Nb6 Si9 2.670182 1_555
Nb6 Si4 2.680607 1_555
Nb6 Si0 2.792798 1_666
Nb6 Si1 2.792800 1_655
Nb6 Si6 2.800195 1_556
Nb6 Si8 2.855852 1_566
Nb6 Si8 2.855856 1_555
Nb7 Si8 2.670182 1_555
Nb7 Si5 2.680607 1_555
Nb7 Si1 2.792798 1_544
Nb7 Si0 2.792800 1_555
Nb7 Si7 2.800195 1_554
Nb7 Si9 2.855852 1_544
Nb7 Si9 2.855856 1_555
Cr0 Si5 2.444294 1_565
Cr0 Si2 2.444294 1_555
Cr0 Cr3 2.479333 1_565
Cr0 Cr3 2.479333 1_554
Cr0 Si8 2.503514 1_565
Cr0 Si6 2.503523 1_555
Cr0 Si7 2.660201 1_665
Cr0 Si9 2.660204 1_554
Cr1 Si3 2.444294 1_554
Cr1 Si4 2.444294 1_555
Cr1 Cr2 2.479333 1_565
Cr1 Cr2 2.479333 1_554
Cr1 Si9 2.503514 1_555
Cr1 Si7 2.503520 1_554
Cr1 Si6 2.660198 1_455
Cr1 Si8 2.660204 1_555
Cr2 Si3 2.444294 1_555
Cr2 Si4 2.444294 1_545
Cr2 Si9 2.503514 1_545
Cr2 Si7 2.503523 1_555
Cr2 Si6 2.660201 1_445
Cr2 Si8 2.660204 1_556
Cr3 Si5 2.444294 1_555
Cr3 Si2 2.444294 1_556
Cr3 Si8 2.503514 1_555
Cr3 Si6 2.503520 1_556
Cr3 Si7 2.660198 1_655
Cr3 Si9 2.660204 1_555
Si0 Si1 2.479333 1_544
Si0 Si1 2.479333 1_555
Si2 Si3 2.635303 1_554
Si2 Si5 2.797333 1_554
Si2 Si5 2.797333 1_565
Si3 Si4 2.797333 1_545
Si3 Si4 2.797333 1_556
Si4 Si5 2.635303 1_565
Si6 Si7 2.778194 1_654
Si6 Si7 2.778203 1_665
Si8 Si9 2.778195 1_555
Si8 Si9 2.778195 1_544
