# generated using pymatgen
data_CaSi2NiRh2
_symmetry_space_group_name_H-M   'P 1'
_cell_length_a   6.44798346
_cell_length_b   6.63952481
_cell_length_c   6.44938419
_cell_angle_alpha   131.29858934
_cell_angle_beta   114.23478733
_cell_angle_gamma   84.99342708
_symmetry_Int_Tables_number   1
_chemical_formula_structural   CaSi2NiRh2
_chemical_formula_sum   'Ca2 Si4 Ni2 Rh4'
_cell_volume   182.23119336
_cell_formula_units_Z   2
loop_
 _symmetry_equiv_pos_site_id
 _symmetry_equiv_pos_as_xyz
  1  'x, y, z'
loop_
 _atom_site_type_symbol
 _atom_site_label
 _atom_site_symmetry_multiplicity
 _atom_site_fract_x
 _atom_site_fract_y
 _atom_site_fract_z
 _atom_site_occupancy
  Ca  Ca0  1  0.75306012  0.03530425  0.28229781  1
  Ca  Ca1  1  0.24693988  0.96469575  0.71770219  1
  Si  Si0  1  0.57808860  0.38244501  0.80450393  1
  Si  Si1  1  0.92432432  0.72190498  0.79767025  1
  Si  Si2  1  0.42191140  0.61755499  0.19549607  1
  Si  Si3  1  0.07567568  0.27809502  0.20232975  1
  Ni  Ni0  1  0.21704774  0.50022351  0.71700379  1
  Ni  Ni1  1  0.78295226  0.49977649  0.28299621  1
  Rh  Rh0  1  0.50000000  0.50000000  0.50000000  1
  Rh  Rh1  1  0.00000000  0.50000000  0.00000000  1
  Rh  Rh2  1  0.71545526  0.99995604  0.71570823  1
  Rh  Rh3  1  0.28454474  0.00004396  0.28429177  1
loop_
_geom_bond_atom_site_label_1
_geom_bond_atom_site_label_2
_geom_bond_distance
_geom_bond_site_symmetry_2
Ca0 Si1 3.027574 1_544
Ca0 Rh3 3.056240 1_555
Ca0 Rh2 3.059326 1_545
Ca0 Rh1 3.071806 1_656
Ca0 Rh0 3.072027 1_555
Ca0 Ni1 3.103571 1_555
Ca0 Ni0 3.105181 1_655
Ca0 Si3 3.123359 1_655
Ca0 Si0 3.150587 1_544
Ca0 Si0 3.216716 1_555
Ca0 Si2 3.250943 1_545
Ca0 Si1 3.303612 1_555
Ca0 Rh1 3.366447 1_645
Ca0 Rh0 3.366617 1_544
Ca0 Rh2 3.408406 1_544
Ca0 Rh3 3.409852 1_655
Ca0 Ca1 3.518826 1_645
Ca0 Ca1 3.519539 1_544
Ca0 Ni0 3.544101 1_544
Ca0 Ni1 3.546918 1_545
Ca1 Si3 3.027574 1_566
Ca1 Rh2 3.056240 1_555
Ca1 Rh3 3.059326 1_565
Ca1 Rh1 3.071806 1_555
Ca1 Rh0 3.072027 1_555
Ca1 Ni0 3.103571 1_555
Ca1 Ni1 3.105181 1_455
Ca1 Si1 3.123359 1_455
Ca1 Si2 3.150587 1_566
Ca1 Si2 3.216716 1_555
Ca1 Si0 3.250943 1_565
Ca1 Si3 3.303612 1_555
Ca1 Rh1 3.366447 1_566
Ca1 Rh0 3.366617 1_566
Ca1 Rh3 3.408406 1_566
Ca1 Rh2 3.409852 1_455
Ca1 Ni1 3.544101 1_566
Ca1 Ni0 3.546918 1_565
Si0 Si2 2.534586 1_556
Si1 Si3 2.686512 1_666
Ni0 Si1 2.304366 1_455
Ni0 Si3 2.304958 1_555
Ni0 Si2 2.352626 1_556
Ni0 Si0 2.352812 1_555
Ni0 Rh0 2.716696 1_555
Ni0 Rh1 2.718596 1_556
Ni0 Rh3 2.739814 1_566
Ni0 Rh3 2.741873 1_555
Ni1 Si3 2.304366 1_655
Ni1 Si1 2.304958 1_555
Ni1 Si0 2.352626 1_554
Ni1 Si2 2.352812 1_555
Ni1 Rh0 2.716696 1_555
Ni1 Rh1 2.718596 1_655
Ni1 Rh2 2.739814 1_544
Ni1 Rh2 2.741873 1_555
Rh0 Si2 2.421231 1_555
Rh0 Si0 2.421231 1_555
Rh0 Si1 2.449516 1_555
Rh0 Si3 2.449516 1_555
Rh1 Si2 2.419837 1_555
Rh1 Si0 2.419837 1_454
Rh1 Si1 2.449720 1_454
Rh1 Si3 2.449720 1_555
Rh2 Si0 2.380319 1_565
Rh2 Si2 2.380500 1_555
Rh2 Si3 2.401866 1_666
Rh2 Si1 2.402319 1_555
Rh3 Si2 2.380319 1_545
Rh3 Si0 2.380500 1_555
Rh3 Si1 2.401866 1_444
Rh3 Si3 2.402319 1_555
