# generated using pymatgen
data_LiCa2C3F
_symmetry_space_group_name_H-M   'P 1'
_cell_length_a   6.82517995
_cell_length_b   6.82517995
_cell_length_c   3.74760216
_cell_angle_alpha   90.00000000
_cell_angle_beta   90.00000000
_cell_angle_gamma   90.00000000
_symmetry_Int_Tables_number   1
_chemical_formula_structural   LiCa2C3F
_chemical_formula_sum   'Li2 Ca4 C6 F2'
_cell_volume   174.57485647
_cell_formula_units_Z   2
loop_
 _symmetry_equiv_pos_site_id
 _symmetry_equiv_pos_as_xyz
  1  'x, y, z'
loop_
 _atom_site_type_symbol
 _atom_site_label
 _atom_site_symmetry_multiplicity
 _atom_site_fract_x
 _atom_site_fract_y
 _atom_site_fract_z
 _atom_site_occupancy
  Li  Li0  1  0.50000000  0.50000000  0.00000000  1
  Li  Li1  1  0.00000000  0.00000000  0.00000000  1
  Ca  Ca0  1  0.68193609  0.18193609  0.50000000  1
  Ca  Ca1  1  0.31806391  0.81806391  0.50000000  1
  Ca  Ca2  1  0.18193609  0.31806391  0.50000000  1
  Ca  Ca3  1  0.81806391  0.68193609  0.50000000  1
  C  C0  1  0.13714727  0.63714727  0.00000000  1
  C  C1  1  0.86285273  0.36285273  0.00000000  1
  C  C2  1  0.63714727  0.86285273  0.00000000  1
  C  C3  1  0.36285273  0.13714727  0.00000000  1
  C  C4  1  0.50000000  0.00000000  0.00000000  1
  C  C5  1  0.00000000  0.50000000  0.00000000  1
  F  F0  1  0.50000000  0.50000000  0.50000000  1
  F  F1  1  0.00000000  0.00000000  0.50000000  1
loop_
_geom_bond_atom_site_label_1
_geom_bond_atom_site_label_2
_geom_bond_distance
_geom_bond_site_symmetry_2
Ca0 F1 2.500899 1_655
Ca0 F0 2.500899 1_555
Ca1 F1 2.500899 1_565
Ca1 F0 2.500899 1_555
Ca2 F1 2.500899 1_555
Ca2 F0 2.500899 1_555
Ca3 F1 2.500899 1_665
Ca3 F0 2.500899 1_555
C0 C5 1.323781 1_555
C0 Ca1 2.561354 1_555
C0 Ca1 2.561354 1_554
C0 Li0 2.647532 1_555
C0 Li1 2.647532 1_565
C1 C5 1.323781 1_655
C1 Ca0 2.561354 1_554
C1 Ca0 2.561354 1_555
C1 Li1 2.647532 1_655
C1 Li0 2.647532 1_555
C2 C4 1.323781 1_565
C2 Ca3 2.561354 1_554
C2 Ca3 2.561354 1_555
C2 Li0 2.647532 1_555
C2 Li1 2.647532 1_665
C3 C4 1.323781 1_555
C3 Ca2 2.561354 1_554
C3 Ca2 2.561354 1_555
C3 Li1 2.647532 1_555
C3 Li0 2.647532 1_555
C4 Ca1 2.568073 1_544
C4 Ca1 2.568073 1_545
C4 Ca0 2.568073 1_555
C4 Ca0 2.568073 1_554
C5 Ca2 2.568073 1_554
C5 Ca2 2.568073 1_555
C5 Ca3 2.568073 1_455
C5 Ca3 2.568073 1_454
F0 Li0 1.873801 1_556
F0 Li0 1.873801 1_555
F1 Li1 1.873801 1_555
F1 Li1 1.873801 1_556
