# generated using pymatgen
data_Ba3Sr9(InAs3)4
_symmetry_space_group_name_H-M   'P 1'
_cell_length_a   4.48528773
_cell_length_b   13.43342484
_cell_length_c   14.43914489
_cell_angle_alpha   90.21388507
_cell_angle_beta   90.00000000
_cell_angle_gamma   90.00000000
_symmetry_Int_Tables_number   1
_chemical_formula_structural   Ba3Sr9(InAs3)4
_chemical_formula_sum   'Ba3 Sr9 In4 As12'
_cell_volume   869.99249550
_cell_formula_units_Z   1
loop_
 _symmetry_equiv_pos_site_id
 _symmetry_equiv_pos_as_xyz
  1  'x, y, z'
loop_
 _atom_site_type_symbol
 _atom_site_label
 _atom_site_symmetry_multiplicity
 _atom_site_fract_x
 _atom_site_fract_y
 _atom_site_fract_z
 _atom_site_occupancy
  Ba  Ba0  1  0.75000000  0.07258912  0.60117951  1
  Ba  Ba1  1  0.75000000  0.57240520  0.89960682  1
  Ba  Ba2  1  0.25000000  0.65209826  0.50059720  1
  Sr  Sr0  1  0.25000000  0.42106758  0.11177334  1
  Sr  Sr1  1  0.25000000  0.14694641  0.00299082  1
  Sr  Sr2  1  0.25000000  0.22136034  0.29473604  1
  Sr  Sr3  1  0.75000000  0.27429946  0.78931993  1
  Sr  Sr4  1  0.75000000  0.36679953  0.50809032  1
  Sr  Sr5  1  0.25000000  0.92456437  0.38372661  1
  Sr  Sr6  1  0.75000000  0.77549579  0.71658268  1
  Sr  Sr7  1  0.75000000  0.87016631  0.99337361  1
  Sr  Sr8  1  0.25000000  0.72109823  0.19840399  1
  In  In0  1  0.75000000  0.55278461  0.30066958  1
  In  In1  1  0.75000000  0.05360107  0.19728899  1
  In  In2  1  0.25000000  0.44637769  0.70804752  1
  In  In3  1  0.25000000  0.94924101  0.79577830  1
  As  As0  1  0.75000000  0.24052058  0.12879413  1
  As  As1  1  0.75000000  0.74557837  0.36050485  1
  As  As2  1  0.75000000  0.58450532  0.11923400  1
  As  As3  1  0.25000000  0.26523918  0.62586742  1
  As  As4  1  0.25000000  0.76725343  0.87711323  1
  As  As5  1  0.75000000  0.08868551  0.37936952  1
  As  As6  1  0.25000000  0.89384431  0.61423296  1
  As  As7  1  0.25000000  0.39295648  0.88936759  1
  As  As8  1  0.75000000  0.05110743  0.85353342  1
  As  As9  1  0.25000000  0.44933874  0.35665068  1
  As  As10  1  0.25000000  0.95194265  0.14060197  1
  As  As11  1  0.75000000  0.54813502  0.65256297  1
loop_
_geom_bond_atom_site_label_1
_geom_bond_atom_site_label_2
_geom_bond_distance
_geom_bond_site_symmetry_2
As0 In1 2.702155 1_555
As0 Sr1 3.145179 1_555
As0 Sr1 3.145179 1_655
As0 Sr2 3.292629 1_655
As0 Sr2 3.292629 1_555
As0 Sr0 3.313110 1_555
As0 Sr0 3.313110 1_655
As1 In0 2.727127 1_555
As1 Sr8 3.257337 1_655
As1 Sr8 3.257337 1_555
As1 Ba2 3.273701 1_555
As1 Ba2 3.273701 1_655
As1 Sr5 3.304085 1_555
As1 Sr5 3.304085 1_655
As2 In0 2.655773 1_555
As2 Sr8 3.112471 1_555
As2 Sr8 3.112471 1_655
As2 Sr0 3.140006 1_555
As2 Sr0 3.140006 1_655
As2 Ba1 3.174786 1_554
As3 In2 2.703236 1_555
As3 Sr4 3.130517 1_455
As3 Sr4 3.130517 1_555
As3 Sr3 3.257646 1_555
As3 Sr3 3.257646 1_455
As3 Ba0 3.441965 1_455
As3 Ba0 3.441965 1_555
As4 In3 2.716120 1_555
As4 Sr7 3.121120 1_455
As4 Sr7 3.121120 1_555
As4 Sr6 3.227445 1_455
As4 Sr6 3.227445 1_555
As4 Ba1 3.463016 1_455
As4 Ba1 3.463016 1_555
As5 In1 2.669265 1_555
As5 Sr2 3.116985 1_555
As5 Sr2 3.116985 1_655
As5 Sr5 3.145662 1_545
As5 Sr5 3.145662 1_645
As5 Ba0 3.210843 1_555
As6 In3 2.722269 1_555
As6 Sr6 3.123869 1_455
As6 Sr6 3.123869 1_555
As6 Ba0 3.291489 1_465
As6 Ba0 3.291489 1_565
As6 Sr5 3.355329 1_555
As6 Ba2 3.632983 1_555
As7 In2 2.717260 1_555
As7 Sr3 3.104815 1_455
As7 Sr3 3.104815 1_555
As7 Sr0 3.232075 1_556
As7 Ba1 3.295405 1_455
As7 Ba1 3.295405 1_555
As7 Sr1 3.695070 1_556
As8 In3 2.754803 1_645
As8 In3 2.754803 1_545
As8 Sr3 3.141629 1_555
As8 Sr7 3.165723 1_545
As8 Sr1 3.365018 1_556
As8 Sr1 3.365018 1_656
As8 Ba0 3.656257 1_555
As9 In0 2.760851 1_455
As9 In0 2.760851 1_555
As9 Sr2 3.187143 1_555
As9 Sr4 3.325422 1_455
As9 Sr4 3.325422 1_555
As9 Ba2 3.420028 1_555
As9 Sr0 3.554747 1_555
As10 In1 2.748816 1_465
As10 In1 2.748816 1_565
As10 Sr8 3.214389 1_555
As10 Sr7 3.276895 1_454
As10 Sr7 3.276895 1_554
As10 Sr1 3.293800 1_565
As10 Sr5 3.531090 1_555
As11 In2 2.747366 1_555
As11 In2 2.747366 1_655
As11 Sr6 3.187752 1_555
As11 Sr4 3.201187 1_555
As11 Ba2 3.437664 1_555
As11 Ba2 3.437664 1_655
As11 Ba1 3.580758 1_555
