# generated using pymatgen
data_Rb3W2Br10N
_symmetry_space_group_name_H-M   'P 1'
_cell_length_a   7.33538405
_cell_length_b   7.33538405
_cell_length_c   19.56641177
_cell_angle_alpha   90.00000000
_cell_angle_beta   90.00000000
_cell_angle_gamma   90.00000000
_symmetry_Int_Tables_number   1
_chemical_formula_structural   Rb3W2Br10N
_chemical_formula_sum   'Rb6 W4 Br20 N2'
_cell_volume   1052.82672832
_cell_formula_units_Z   2
loop_
 _symmetry_equiv_pos_site_id
 _symmetry_equiv_pos_as_xyz
  1  'x, y, z'
loop_
 _atom_site_type_symbol
 _atom_site_label
 _atom_site_symmetry_multiplicity
 _atom_site_fract_x
 _atom_site_fract_y
 _atom_site_fract_z
 _atom_site_occupancy
  Rb  Rb0  1  0.50000000  0.50000000  0.00000000  1
  Rb  Rb1  1  0.00000000  0.00000000  0.50000000  1
  Rb  Rb2  1  0.00000000  0.50000000  0.25000000  1
  Rb  Rb3  1  0.50000000  0.00000000  0.75000000  1
  Rb  Rb4  1  0.50000000  0.00000000  0.25000000  1
  Rb  Rb5  1  0.00000000  0.50000000  0.75000000  1
  W  W0  1  0.50000000  0.50000000  0.40652484  1
  W  W1  1  0.00000000  0.00000000  0.90652484  1
  W  W2  1  0.50000000  0.50000000  0.59347516  1
  W  W3  1  0.00000000  0.00000000  0.09347516  1
  Br  Br0  1  0.78674728  0.68697914  0.39648859  1
  Br  Br1  1  0.21325272  0.31302086  0.39648859  1
  Br  Br2  1  0.71325272  0.18697914  0.89648859  1
  Br  Br3  1  0.28674728  0.81302086  0.89648859  1
  Br  Br4  1  0.68697914  0.21325272  0.39648859  1
  Br  Br5  1  0.31302086  0.78674728  0.39648859  1
  Br  Br6  1  0.18697914  0.28674728  0.89648859  1
  Br  Br7  1  0.81302086  0.71325272  0.89648859  1
  Br  Br8  1  0.21325272  0.31302086  0.60351141  1
  Br  Br9  1  0.78674728  0.68697914  0.60351141  1
  Br  Br10  1  0.28674728  0.81302086  0.10351141  1
  Br  Br11  1  0.71325272  0.18697914  0.10351141  1
  Br  Br12  1  0.31302086  0.78674728  0.60351141  1
  Br  Br13  1  0.68697914  0.21325272  0.60351141  1
  Br  Br14  1  0.81302086  0.71325272  0.10351141  1
  Br  Br15  1  0.18697914  0.28674728  0.10351141  1
  Br  Br16  1  0.50000000  0.50000000  0.26524506  1
  Br  Br17  1  0.00000000  0.00000000  0.76524506  1
  Br  Br18  1  0.50000000  0.50000000  0.73475494  1
  Br  Br19  1  0.00000000  0.00000000  0.23475494  1
  N  N0  1  0.50000000  0.50000000  0.50000000  1
  N  N1  1  0.00000000  0.00000000  0.00000000  1
loop_
_geom_bond_atom_site_label_1
_geom_bond_atom_site_label_2
_geom_bond_distance
_geom_bond_site_symmetry_2
Br0 W0 2.518739 1_555
Br0 Rb1 3.438203 1_665
Br0 Rb2 3.541697 1_655
Br1 W0 2.518739 1_555
Br1 Rb1 3.438203 1_555
Br1 Rb2 3.541697 1_555
Br2 W1 2.518739 1_655
Br2 Rb0 3.438203 1_556
Br2 Rb3 3.541697 1_555
Br3 W1 2.518739 1_565
Br3 Rb0 3.438203 1_556
Br3 Rb3 3.541697 1_565
Br4 W0 2.518739 1_555
Br4 Rb1 3.438203 1_655
Br4 Rb4 3.541697 1_555
Br5 W0 2.518739 1_555
Br5 Rb1 3.438203 1_565
Br5 Rb4 3.541697 1_565
Br6 W1 2.518739 1_555
Br6 Rb0 3.438203 1_556
Br6 Rb5 3.541697 1_555
Br7 W1 2.518739 1_665
Br7 Rb0 3.438203 1_556
Br7 Rb5 3.541697 1_655
Br8 W2 2.518739 1_555
Br8 Rb1 3.438203 1_555
Br8 Rb5 3.541697 1_555
Br9 W2 2.518739 1_555
Br9 Rb1 3.438203 1_665
Br9 Rb5 3.541697 1_655
Br10 W3 2.518739 1_565
Br10 Rb0 3.438203 1_555
Br10 Rb4 3.541697 1_565
Br11 W3 2.518739 1_655
Br11 Rb0 3.438203 1_555
Br11 Rb4 3.541697 1_555
Br12 W2 2.518739 1_555
Br12 Rb1 3.438203 1_565
Br12 Rb3 3.541697 1_565
Br13 W2 2.518739 1_555
Br13 Rb1 3.438203 1_655
Br13 Rb3 3.541697 1_555
Br14 W3 2.518739 1_665
Br14 Rb0 3.438203 1_555
Br14 Rb2 3.541697 1_655
Br15 W3 2.518739 1_555
Br15 Rb0 3.438203 1_555
Br15 Rb2 3.541697 1_555
Br16 W0 2.764338 1_555
Br16 Rb4 3.679802 1_565
Br16 Rb2 3.679802 1_655
Br16 Rb2 3.679802 1_555
Br16 Rb4 3.679802 1_555
Br17 W1 2.764338 1_555
Br17 Rb3 3.679802 1_555
Br17 Rb5 3.679802 1_555
Br17 Rb3 3.679802 1_455
Br17 Rb5 3.679802 1_545
Br18 W2 2.764338 1_555
Br18 Rb3 3.679802 1_565
Br18 Rb3 3.679802 1_555
Br18 Rb5 3.679802 1_555
Br18 Rb5 3.679802 1_655
Br19 W3 2.764338 1_555
Br19 Rb2 3.679802 1_545
Br19 Rb2 3.679802 1_555
Br19 Rb4 3.679802 1_455
Br19 Rb4 3.679802 1_555
N0 W2 1.828974 1_555
N0 W0 1.828974 1_555
N1 W3 1.828974 1_555
N1 W1 1.828974 1_554
