# generated using pymatgen
data_Sr3BiI3
_symmetry_space_group_name_H-M   'P 1'
_cell_length_a   11.74484338
_cell_length_b   11.74484366
_cell_length_c   11.74484411
_cell_angle_alpha   109.47122142
_cell_angle_beta   109.47122190
_cell_angle_gamma   109.47122130
_symmetry_Int_Tables_number   1
_chemical_formula_structural   Sr3BiI3
_chemical_formula_sum   'Sr12 Bi4 I12'
_cell_volume   1247.15324488
_cell_formula_units_Z   4
loop_
 _symmetry_equiv_pos_site_id
 _symmetry_equiv_pos_as_xyz
  1  'x, y, z'
loop_
 _atom_site_type_symbol
 _atom_site_label
 _atom_site_symmetry_multiplicity
 _atom_site_fract_x
 _atom_site_fract_y
 _atom_site_fract_z
 _atom_site_occupancy
  Sr  Sr0  1  0.48735505  0.49367653  0.24367653  1
  Sr  Sr1  1  0.75000000  0.24367653  0.25632347  1
  Sr  Sr2  1  0.75000000  0.00632347  0.49367653  1
  Sr  Sr3  1  0.24367653  0.48735505  0.49367653  1
  Sr  Sr4  1  0.25632347  0.75000000  0.24367653  1
  Sr  Sr5  1  0.01264495  0.25632347  0.00632347  1
  Sr  Sr6  1  0.00632347  0.01264495  0.25632347  1
  Sr  Sr7  1  0.49367653  0.75000000  0.00632347  1
  Sr  Sr8  1  0.49367653  0.24367653  0.48735505  1
  Sr  Sr9  1  0.00632347  0.49367653  0.75000000  1
  Sr  Sr10  1  0.25632347  0.00632347  0.01264495  1
  Sr  Sr11  1  0.24367653  0.25632347  0.75000000  1
  Bi  Bi0  1  0.25000000  0.25000000  0.25000000  1
  Bi  Bi1  1  0.50000000  0.00000000  0.25000000  1
  Bi  Bi2  1  0.00000000  0.25000000  0.50000000  1
  Bi  Bi3  1  0.25000000  0.50000000  0.00000000  1
  I  I0  1  0.25000000  0.75001116  0.74998884  1
  I  I1  1  0.50002233  0.50001116  0.75001116  1
  I  I2  1  0.99997767  0.74998884  0.99998884  1
  I  I3  1  0.74998884  0.25000000  0.75001116  1
  I  I4  1  0.99998884  0.99997767  0.74998884  1
  I  I5  1  0.25000000  0.99998884  0.50001116  1
  I  I6  1  0.75001116  0.50002233  0.50001116  1
  I  I7  1  0.50001116  0.25000000  0.99998884  1
  I  I8  1  0.75001116  0.74998884  0.25000000  1
  I  I9  1  0.74998884  0.99998884  0.99997767  1
  I  I10  1  0.99998884  0.50001116  0.25000000  1
  I  I11  1  0.50001116  0.75001116  0.50002233  1
loop_
_geom_bond_atom_site_label_1
_geom_bond_atom_site_label_2
_geom_bond_distance
_geom_bond_site_symmetry_2
Bi0 Sr6 3.305812 1_555
Bi0 Sr0 3.305812 1_555
Bi0 Sr8 3.305812 1_555
Bi0 Sr5 3.305812 1_555
Bi0 Sr10 3.305813 1_555
Bi0 Sr3 3.305813 1_555
Bi1 Sr1 3.305799 1_555
Bi1 Sr4 3.305799 1_545
Bi1 Sr2 3.305799 1_555
Bi1 Sr7 3.305799 1_545
Bi1 Sr10 3.305812 1_555
Bi1 Sr8 3.305813 1_555
Bi2 Sr2 3.305799 1_455
Bi2 Sr1 3.305799 1_455
Bi2 Sr11 3.305799 1_555
Bi2 Sr9 3.305799 1_555
Bi2 Sr3 3.305812 1_555
Bi2 Sr6 3.305813 1_555
Bi3 Sr7 3.305799 1_555
Bi3 Sr9 3.305799 1_554
Bi3 Sr4 3.305799 1_555
Bi3 Sr11 3.305799 1_554
Bi3 Sr5 3.305812 1_555
Bi3 Sr0 3.305812 1_555
I0 Sr9 3.392768 1_555
I0 Sr7 3.392768 1_556
I0 Sr3 3.477249 1_555
I0 Sr10 3.477249 1_566
I1 Sr11 3.392768 1_555
I1 Sr3 3.392781 1_555
I1 Sr8 3.477249 1_555
I1 Sr7 3.477263 1_556
I2 Sr4 3.392768 1_656
I2 Sr10 3.392781 1_666
I2 Sr6 3.477249 1_666
I2 Sr9 3.477263 1_655
I3 Sr9 3.392768 1_655
I3 Sr2 3.392768 1_555
I3 Sr5 3.477249 1_656
I3 Sr8 3.477249 1_555
I4 Sr11 3.392768 1_665
I4 Sr5 3.392781 1_666
I4 Sr10 3.477249 1_666
I4 Sr2 3.477263 1_565
I5 Sr8 3.392754 1_565
I5 Sr6 3.392754 1_565
I5 Sr11 3.477263 1_565
I5 Sr4 3.477263 1_555
I6 Sr1 3.392768 1_555
I6 Sr8 3.392781 1_555
I6 Sr0 3.477249 1_555
I6 Sr9 3.477263 1_655
I7 Sr10 3.392754 1_556
I7 Sr0 3.392754 1_556
I7 Sr11 3.477263 1_555
I7 Sr1 3.477263 1_556
I8 Sr7 3.392768 1_555
I8 Sr2 3.392768 1_565
I8 Sr0 3.477249 1_555
I8 Sr6 3.477249 1_665
I9 Sr1 3.392768 1_566
I9 Sr6 3.392781 1_666
I9 Sr5 3.477249 1_666
I9 Sr7 3.477263 1_556
I10 Sr3 3.392754 1_655
I10 Sr5 3.392754 1_655
I10 Sr4 3.477263 1_655
I10 Sr1 3.477263 1_555
I11 Sr4 3.392768 1_555
I11 Sr0 3.392781 1_555
I11 Sr3 3.477249 1_555
I11 Sr2 3.477263 1_565
