# generated using pymatgen
data_BeNi20(GeB3)2
_symmetry_space_group_name_H-M   'P 1'
_cell_length_a   7.31973052
_cell_length_b   7.31973077
_cell_length_c   7.31973139
_cell_angle_alpha   60.00000162
_cell_angle_beta   60.00000049
_cell_angle_gamma   60.00000146
_symmetry_Int_Tables_number   1
_chemical_formula_structural   BeNi20(GeB3)2
_chemical_formula_sum   'Be1 Ni20 Ge2 B6'
_cell_volume   277.31308234
_cell_formula_units_Z   1
loop_
 _symmetry_equiv_pos_site_id
 _symmetry_equiv_pos_as_xyz
  1  'x, y, z'
loop_
 _atom_site_type_symbol
 _atom_site_label
 _atom_site_symmetry_multiplicity
 _atom_site_fract_x
 _atom_site_fract_y
 _atom_site_fract_z
 _atom_site_occupancy
  Be  Be0  1  0.00000000  0.00000000  0.00000000  1
  Ni  Ni0  1  0.33339228  1.00000000  0.00000000  1
  Ni  Ni1  1  0.66660772  0.00000000  1.00000000  1
  Ni  Ni2  1  0.00000000  0.33339228  0.66660772  1
  Ni  Ni3  1  0.00000000  0.66660772  0.33339228  1
  Ni  Ni4  1  1.00000000  0.33339228  0.00000000  1
  Ni  Ni5  1  0.66660772  1.00000000  0.33339228  1
  Ni  Ni6  1  0.00000000  0.66660772  1.00000000  1
  Ni  Ni7  1  0.33339228  0.00000000  0.66660772  1
  Ni  Ni8  1  1.00000000  1.00000000  0.33339228  1
  Ni  Ni9  1  0.00000000  0.00000000  0.66660772  1
  Ni  Ni10  1  0.66660772  0.33339228  1.00000000  1
  Ni  Ni11  1  0.33339228  0.66660772  0.00000000  1
  Ni  Ni12  1  0.38065497  0.38065497  0.38065497  1
  Ni  Ni13  1  0.61934503  0.61934503  0.61934503  1
  Ni  Ni14  1  0.38065497  0.38065497  0.85803409  1
  Ni  Ni15  1  0.38065497  0.85803409  0.38065497  1
  Ni  Ni16  1  0.61934503  0.61934503  0.14196591  1
  Ni  Ni17  1  0.61934503  0.14196591  0.61934503  1
  Ni  Ni18  1  0.85803409  0.38065497  0.38065497  1
  Ni  Ni19  1  0.14196591  0.61934503  0.61934503  1
  Ge  Ge0  1  0.25000000  0.25000000  0.25000000  1
  Ge  Ge1  1  0.75000000  0.75000000  0.75000000  1
  B  B0  1  0.72531989  0.27468011  0.27468011  1
  B  B1  1  0.27468011  0.72531989  0.72531989  1
  B  B2  1  0.27468011  0.72531989  0.27468011  1
  B  B3  1  0.72531989  0.27468011  0.72531989  1
  B  B4  1  0.27468011  0.27468011  0.72531989  1
  B  B5  1  0.72531989  0.72531989  0.27468011  1
loop_
_geom_bond_atom_site_label_1
_geom_bond_atom_site_label_2
_geom_bond_distance
_geom_bond_site_symmetry_2
Be0 Ni0 2.440342 1_545
Be0 Ni1 2.440342 1_454
Be0 Ni4 2.440342 1_455
Be0 Ni6 2.440342 1_544
Be0 Ni10 2.440342 1_454
Be0 Ni11 2.440342 1_545
Be0 Ni5 2.440342 1_445
Be0 Ni7 2.440342 1_554
Be0 Ni3 2.440342 1_545
Be0 Ni2 2.440342 1_554
Be0 Ni8 2.440342 1_445
Be0 Ni9 2.440342 1_554
Ge0 Ni12 2.342592 1_555
Ge0 Ni18 2.342598 1_455
Ge0 Ni15 2.342598 1_545
Ge0 Ni14 2.342598 1_554
Ge1 Ni13 2.342592 1_555
Ge1 Ni19 2.342598 1_655
Ge1 Ni17 2.342598 1_565
Ge1 Ni16 2.342598 1_556
B0 Ni5 2.056001 1_545
B0 Ni8 2.056001 1_545
B0 Ni4 2.056001 1_555
B0 Ni10 2.056001 1_554
B0 Ni18 2.062993 1_555
B0 Ni16 2.062999 1_555
B0 Ni17 2.062999 1_555
B0 Ni12 2.062999 1_555
B1 Ni7 2.056001 1_565
B1 Ni9 2.056001 1_565
B1 Ni6 2.056001 1_555
B1 Ni11 2.056001 1_556
B1 Ni19 2.062993 1_555
B1 Ni14 2.062999 1_555
B1 Ni15 2.062999 1_555
B1 Ni13 2.062999 1_555
B2 Ni3 2.056001 1_555
B2 Ni8 2.056001 1_455
B2 Ni0 2.056001 1_555
B2 Ni11 2.056001 1_555
B2 Ni15 2.062993 1_555
B2 Ni16 2.062999 1_555
B2 Ni19 2.062999 1_555
B2 Ni12 2.062999 1_555
B3 Ni2 2.056001 1_655
B3 Ni9 2.056001 1_655
B3 Ni1 2.056001 1_555
B3 Ni10 2.056001 1_555
B3 Ni17 2.062993 1_555
B3 Ni14 2.062999 1_555
B3 Ni18 2.062999 1_555
B3 Ni13 2.062999 1_555
B4 Ni2 2.056001 1_555
B4 Ni7 2.056001 1_555
B4 Ni4 2.056001 1_456
B4 Ni0 2.056001 1_546
B4 Ni14 2.062993 1_555
B4 Ni17 2.062999 1_555
B4 Ni19 2.062999 1_555
B4 Ni12 2.063000 1_555
B5 Ni3 2.056001 1_655
B5 Ni5 2.056001 1_555
B5 Ni6 2.056001 1_654
B5 Ni1 2.056001 1_564
B5 Ni16 2.062993 1_555
B5 Ni15 2.062999 1_555
B5 Ni18 2.062999 1_555
B5 Ni13 2.063000 1_555
