# generated using pymatgen
data_Cu2Ir3PdS8
_symmetry_space_group_name_H-M   'P 1'
_cell_length_a   7.02453332
_cell_length_b   6.95235096
_cell_length_c   7.02453673
_cell_angle_alpha   59.65678151
_cell_angle_beta   60.00096363
_cell_angle_gamma   59.65705034
_symmetry_Int_Tables_number   1
_chemical_formula_structural   Cu2Ir3PdS8
_chemical_formula_sum   'Cu2 Ir3 Pd1 S8'
_cell_volume   241.31442480
_cell_formula_units_Z   1
loop_
 _symmetry_equiv_pos_site_id
 _symmetry_equiv_pos_as_xyz
  1  'x, y, z'
loop_
 _atom_site_type_symbol
 _atom_site_label
 _atom_site_symmetry_multiplicity
 _atom_site_fract_x
 _atom_site_fract_y
 _atom_site_fract_z
 _atom_site_occupancy
  Cu  Cu0  1  0.00112558  0.99662830  0.00113236  1
  Cu  Cu1  1  0.24887442  0.25337170  0.24886764  1
  Ir  Ir0  1  0.62500000  0.62500000  0.62500000  1
  Ir  Ir1  1  0.62500000  0.62500000  0.12500000  1
  Ir  Ir2  1  0.12500000  0.62500000  0.62500000  1
  Pd  Pd0  1  0.62500000  0.12500000  0.62500000  1
  S  S0  1  0.38109758  0.39026779  0.84753718  1
  S  S1  1  0.38109816  0.39026858  0.38109665  1
  S  S2  1  0.86890184  0.85973142  0.86890335  1
  S  S3  1  0.86890242  0.85973221  0.40246282  1
  S  S4  1  0.38498426  0.84505281  0.38498018  1
  S  S5  1  0.84753646  0.39026935  0.38109641  1
  S  S6  1  0.40246354  0.85973065  0.86890359  1
  S  S7  1  0.86501574  0.40494719  0.86501982  1
loop_
_geom_bond_atom_site_label_1
_geom_bond_atom_site_label_2
_geom_bond_distance
_geom_bond_site_symmetry_2
Cu0 S3 2.297827 1_455
Cu0 S6 2.297876 1_554
Cu0 S2 2.297895 1_454
Cu0 S7 2.305753 1_464
Cu1 S0 2.297827 1_554
Cu1 S5 2.297876 1_455
Cu1 S1 2.297895 1_555
Cu1 S4 2.305753 1_545
Ir0 S3 2.368868 1_555
Ir0 S0 2.368868 1_555
Ir0 S6 2.368876 1_555
Ir0 S5 2.368876 1_555
Ir0 S7 2.378269 1_555
Ir0 S4 2.378269 1_555
Ir1 S5 2.368866 1_555
Ir1 S6 2.368866 1_554
Ir1 S2 2.368866 1_554
Ir1 S1 2.368866 1_555
Ir1 S4 2.378264 1_555
Ir1 S7 2.378264 1_554
Ir2 S0 2.368875 1_555
Ir2 S3 2.368875 1_455
Ir2 S2 2.368884 1_455
Ir2 S1 2.368884 1_555
Ir2 S4 2.378275 1_555
Ir2 S7 2.378275 1_455
Pd0 S5 2.412969 1_555
Pd0 S6 2.412969 1_545
Pd0 S2 2.412973 1_545
Pd0 S1 2.412973 1_555
Pd0 S0 2.412975 1_555
Pd0 S3 2.412975 1_545
