# generated using pymatgen
data_ZrNi4Pd
_symmetry_space_group_name_H-M   'P 1'
_cell_length_a   4.75569031
_cell_length_b   4.75569016
_cell_length_c   4.75569065
_cell_angle_alpha   60.00000332
_cell_angle_beta   60.00000437
_cell_angle_gamma   60.00000574
_symmetry_Int_Tables_number   1
_chemical_formula_structural   ZrNi4Pd
_chemical_formula_sum   'Zr1 Ni4 Pd1'
_cell_volume   76.05464816
_cell_formula_units_Z   1
loop_
 _symmetry_equiv_pos_site_id
 _symmetry_equiv_pos_as_xyz
  1  'x, y, z'
loop_
 _atom_site_type_symbol
 _atom_site_label
 _atom_site_symmetry_multiplicity
 _atom_site_fract_x
 _atom_site_fract_y
 _atom_site_fract_z
 _atom_site_occupancy
  Zr  Zr0  1  0.75000000  0.75000000  0.75000000  1
  Ni  Ni0  1  0.12563931  0.12563931  0.12563931  1
  Ni  Ni1  1  0.62308308  0.12563931  0.12563931  1
  Ni  Ni2  1  0.12563931  0.62308308  0.12563931  1
  Ni  Ni3  1  0.12563931  0.12563931  0.62308308  1
  Pd  Pd0  1  0.50000000  0.50000000  0.50000000  1
loop_
_geom_bond_atom_site_label_1
_geom_bond_atom_site_label_2
_geom_bond_distance
_geom_bond_site_symmetry_2
Ni0 Ni2 2.365688 1_555
Ni0 Ni1 2.365689 1_555
Ni0 Ni3 2.365689 1_555
Ni0 Ni2 2.390002 1_545
Ni0 Ni1 2.390002 1_455
Ni0 Ni3 2.390002 1_554
Ni0 Pd0 2.786984 1_554
Ni0 Pd0 2.786984 1_545
Ni0 Pd0 2.786984 1_455
Ni0 Zr0 2.789577 1_445
Ni0 Zr0 2.789577 1_454
Ni0 Zr0 2.789577 1_544
Ni1 Ni2 2.365689 1_555
Ni1 Ni3 2.365689 1_555
Ni1 Ni2 2.390002 1_645
Ni1 Ni3 2.390002 1_654
Ni1 Pd0 2.786982 1_555
Ni1 Pd0 2.786986 1_545
Ni1 Pd0 2.786986 1_554
Ni1 Zr0 2.789575 1_554
Ni1 Zr0 2.789575 1_545
Ni1 Zr0 2.789579 1_544
Ni2 Ni3 2.365689 1_555
Ni2 Ni3 2.390002 1_564
Ni2 Pd0 2.786982 1_555
Ni2 Pd0 2.786986 1_455
Ni2 Pd0 2.786986 1_554
Ni2 Zr0 2.789575 1_554
Ni2 Zr0 2.789575 1_455
Ni2 Zr0 2.789579 1_454
Ni3 Pd0 2.786982 1_555
Ni3 Pd0 2.786986 1_545
Ni3 Pd0 2.786986 1_455
Ni3 Zr0 2.789575 1_455
Ni3 Zr0 2.789575 1_545
Ni3 Zr0 2.789579 1_445
Pd0 Zr0 2.912254 1_555
Pd0 Zr0 2.912254 1_545
Pd0 Zr0 2.912254 1_455
Pd0 Zr0 2.912254 1_554
