# generated using pymatgen
data_Hf8Al15Os5Rh2
_symmetry_space_group_name_H-M   'P 1'
_cell_length_a   8.80751232
_cell_length_b   8.80751191
_cell_length_c   8.80751160
_cell_angle_alpha   119.94439036
_cell_angle_beta   119.67194205
_cell_angle_gamma   90.33274939
_symmetry_Int_Tables_number   1
_chemical_formula_structural   Hf8Al15Os5Rh2
_chemical_formula_sum   'Hf8 Al15 Os5 Rh2'
_cell_volume   484.49710827
_cell_formula_units_Z   1
loop_
 _symmetry_equiv_pos_site_id
 _symmetry_equiv_pos_as_xyz
  1  'x, y, z'
loop_
 _atom_site_type_symbol
 _atom_site_label
 _atom_site_symmetry_multiplicity
 _atom_site_fract_x
 _atom_site_fract_y
 _atom_site_fract_z
 _atom_site_occupancy
  Hf  Hf0  1  0.79730862  0.29750334  0.07629798  1
  Hf  Hf1  1  0.22120637  0.29750334  0.50019572  1
  Hf  Hf2  1  0.20100432  0.70100432  0.50000000  1
  Hf  Hf3  1  0.22120637  0.72101065  0.92370202  1
  Hf  Hf4  1  0.79730862  0.72101065  0.49980428  1
  Hf  Hf5  1  0.77249903  0.27249903  0.50000000  1
  Hf  Hf6  1  0.37778321  0.11891458  0.74113136  1
  Hf  Hf7  1  0.37778321  0.63665185  0.25886864  1
  Al  Al0  1  0.98608714  0.48608714  0.50000000  1
  Al  Al1  1  0.15983042  0.33306433  0.17323191  1
  Al  Al2  1  0.15983042  0.98659851  0.82676809  1
  Al  Al3  1  0.15275427  0.34211433  0.81063994  1
  Al  Al4  1  0.53147339  0.34211433  0.18936006  1
  Al  Al5  1  0.84213039  0.65815802  0.81602863  1
  Al  Al6  1  0.84213039  0.02610277  0.18397137  1
  Al  Al7  1  0.83622133  0.66412554  0.17209479  1
  Al  Al8  1  0.49203074  0.66412554  0.82790521  1
  Al  Al9  1  0.37514765  0.12005748  0.25509017  1
  Al  Al10  1  0.86496731  0.12005748  0.74490983  1
  Al  Al11  1  0.62145927  0.87186729  0.25040901  1
  Al  Al12  1  0.62145927  0.37105126  0.74959099  1
  Al  Al13  1  0.62249414  0.87791089  0.74458425  1
  Al  Al14  1  0.13332464  0.87791089  0.25541575  1
  Os  Os0  1  0.99627481  0.99791101  0.50091083  1
  Os  Os1  1  0.49700118  0.99791101  0.00163620  1
  Os  Os2  1  0.49927401  0.49927401  0.00000000  1
  Os  Os3  1  0.49700118  0.49536498  0.49908917  1
  Os  Os4  1  0.99627481  0.49536498  0.99836380  1
  Rh  Rh0  1  0.99935671  0.99935671  1.00000000  1
  Rh  Rh1  1  0.50737275  0.00737275  0.50000000  1
loop_
_geom_bond_atom_site_label_1
_geom_bond_atom_site_label_2
_geom_bond_distance
_geom_bond_site_symmetry_2
Hf0 Os4 2.988067 1_554
Hf0 Hf6 3.055984 1_554
Hf0 Os1 3.294766 1_545
Hf1 Os3 2.988073 1_555
Hf1 Hf6 3.055977 1_555
Hf1 Os0 3.294771 1_445
Hf2 Hf7 3.055847 1_555
Hf2 Hf6 3.055847 1_565
Hf2 Os0 3.184001 1_455
Hf2 Os4 3.184002 1_454
Hf2 Os1 3.184002 1_556
Hf2 Os3 3.184003 1_555
Hf3 Os1 2.988061 1_556
Hf3 Hf7 3.055984 1_556
Hf3 Os4 3.294772 1_455
Hf4 Os0 2.988055 1_555
Hf4 Hf7 3.055984 1_555
Hf4 Os3 3.294766 1_555
Hf5 Os3 3.129289 1_555
Hf5 Os4 3.129290 1_555
Hf5 Os1 3.129290 1_545
Hf5 Os0 3.129291 1_545
Hf6 Rh1 2.666131 1_555
Hf6 Os2 2.735640 1_556
Hf6 Os1 2.751636 1_546
Hf6 Os0 2.751636 1_445
Hf7 Rh1 2.666131 1_565
Hf7 Os2 2.735640 1_555
Hf7 Os3 2.751629 1_555
Hf7 Os4 2.751636 1_454
Al0 Hf5 2.652654 1_555
Al0 Hf0 2.662008 1_555
Al0 Hf3 2.662009 1_655
Al0 Hf4 2.662009 1_555
Al0 Hf1 2.662015 1_655
Al0 Hf2 2.669160 1_655
Al1 Rh0 2.510763 1_444
Al1 Os4 2.552599 1_454
Al1 Os3 2.552612 1_555
Al1 Al10 2.770134 1_454
Al1 Al9 2.770149 1_555
Al1 Hf7 2.810135 1_555
Al1 Hf0 2.836241 1_455
Al1 Hf1 2.836258 1_555
Al1 Hf2 2.925460 1_555
Al2 Rh0 2.510748 1_455
Al2 Os0 2.552607 1_455
Al2 Os1 2.552615 1_556
Al2 Al9 2.770134 1_566
Al2 Hf6 2.810149 1_565
Al2 Hf3 2.836242 1_555
Al2 Hf4 2.836242 1_455
Al2 Hf2 2.925471 1_555
Al3 Os0 2.550424 1_445
Al3 Os4 2.550426 1_455
Al3 Os2 2.572711 1_556
Al3 Hf7 2.865743 1_556
Al3 Hf6 2.865744 1_555
Al3 Hf5 2.882251 1_455
Al3 Hf1 2.925108 1_555
Al3 Hf3 2.925111 1_555
Al4 Os3 2.550413 1_555
Al4 Os1 2.550428 1_545
Al4 Os2 2.572713 1_555
Al4 Al9 2.818524 1_555
Al4 Hf7 2.865738 1_555
Al4 Hf6 2.865745 1_554
Al4 Hf5 2.882253 1_555
Al4 Hf4 2.925114 1_555
Al4 Hf0 2.925119 1_555
Al5 Rh0 2.538275 1_555
Al5 Os4 2.576944 1_555
Al5 Os3 2.576954 1_555
Al5 Hf5 2.916900 1_555
Al5 Hf3 2.944908 1_655
Al5 Hf4 2.944913 1_555
Al6 Rh0 2.538266 1_544
Al6 Os1 2.576950 1_545
Al6 Os0 2.576965 1_545
Al6 Hf5 2.916904 1_555
Al6 Hf0 2.944890 1_555
Al6 Hf1 2.944902 1_655
Al7 Os4 2.535184 1_554
Al7 Os0 2.535194 1_555
Al7 Os2 2.551865 1_555
Al7 Hf4 2.870010 1_555
Al7 Hf0 2.870012 1_555
Al7 Hf2 2.938250 1_655
Al8 Os1 2.535192 1_556
Al8 Os3 2.535199 1_555
Al8 Os2 2.551857 1_556
Al8 Hf3 2.870004 1_555
Al8 Hf1 2.870010 1_555
Al8 Hf2 2.938255 1_555
Al9 Rh1 2.580238 1_555
Al9 Os1 2.698189 1_545
Al9 Os3 2.698189 1_555
Al9 Rh0 2.710161 1_444
Al9 Hf5 2.878098 1_555
Al9 Hf1 2.914690 1_555
Al9 Hf3 2.914692 1_544
Al10 Rh1 2.580238 1_555
Al10 Os0 2.698182 1_545
Al10 Os4 2.698189 1_555
Al10 Rh0 2.710160 1_545
Al10 Al2 2.770135 1_645
Al10 Al3 2.818529 1_655
Al10 Hf5 2.878097 1_555
Al10 Hf0 2.914691 1_556
Al10 Hf4 2.914692 1_545
Al10 Al13 3.007343 1_545
Al10 Al11 3.088675 1_545
Al10 Al12 3.088681 1_555
Al11 Rh1 2.616894 1_565
Al11 Os2 2.678623 1_555
Al11 Os0 2.701707 1_555
Al11 Os1 2.701714 1_555
Al11 Al8 2.733745 1_554
Al11 Al7 2.733747 1_555
Al11 Al6 2.802506 1_565
Al11 Hf5 2.891253 1_565
Al11 Hf4 2.925449 1_555
Al11 Hf3 2.925457 1_554
Al11 Hf7 3.027243 1_555
Al11 Al9 3.088681 1_565
Al12 Rh1 2.616901 1_555
Al12 Os2 2.678630 1_556
Al12 Os3 2.701707 1_555
Al12 Os4 2.701707 1_555
Al12 Al8 2.733737 1_555
Al12 Al7 2.733742 1_556
Al12 Al5 2.802481 1_555
Al12 Hf5 2.891245 1_555
Al12 Hf1 2.925453 1_555
Al12 Hf0 2.925469 1_556
Al12 Hf6 3.027255 1_555
Al12 Al9 3.088675 1_555
Al13 Rh1 2.696620 1_565
Al13 Rh0 2.717694 1_555
Al13 Os1 2.750744 1_556
Al13 Os3 2.750751 1_555
Al13 Al8 2.755618 1_555
Al13 Al6 2.817483 1_566
Al13 Al5 2.817497 1_555
Al13 Hf6 3.033895 1_565
Al13 Hf7 3.033901 1_555
Al13 Hf0 3.043847 1_566
Al13 Hf4 3.043861 1_555
Al13 Hf2 3.084434 1_555
Al14 Rh1 2.696635 1_565
Al14 Rh0 2.717686 1_454
Al14 Os0 2.750744 1_455
Al14 Os4 2.750751 1_454
Al14 Al7 2.755602 1_455
Al14 Al6 2.817476 1_465
Al14 Al5 2.817481 1_454
Al14 Al9 3.007349 1_565
Al14 Hf6 3.033901 1_565
Al14 Hf7 3.033914 1_555
Al14 Hf1 3.043844 1_565
Al14 Hf3 3.043866 1_554
Al14 Hf2 3.084438 1_555
