# generated using pymatgen
data_Cs4V2PtSe8
_symmetry_space_group_name_H-M   'P 1'
_cell_length_a   13.78234578
_cell_length_b   7.60210402
_cell_length_c   10.06003033
_cell_angle_alpha   86.03801510
_cell_angle_beta   90.00000000
_cell_angle_gamma   90.00000000
_symmetry_Int_Tables_number   1
_chemical_formula_structural   Cs4V2PtSe8
_chemical_formula_sum   'Cs8 V4 Pt2 Se16'
_cell_volume   1051.51889786
_cell_formula_units_Z   2
loop_
 _symmetry_equiv_pos_site_id
 _symmetry_equiv_pos_as_xyz
  1  'x, y, z'
loop_
 _atom_site_type_symbol
 _atom_site_label
 _atom_site_symmetry_multiplicity
 _atom_site_fract_x
 _atom_site_fract_y
 _atom_site_fract_z
 _atom_site_occupancy
  Cs  Cs0  1  0.13414707  0.81001739  0.68980472  1
  Cs  Cs1  1  0.63414707  0.18998261  0.81019528  1
  Cs  Cs2  1  0.86585293  0.18998261  0.31019528  1
  Cs  Cs3  1  0.36585293  0.81001739  0.18980472  1
  Cs  Cs4  1  0.34739195  0.25567984  0.54339017  1
  Cs  Cs5  1  0.84739195  0.74432016  0.95660983  1
  Cs  Cs6  1  0.65260805  0.74432016  0.45660983  1
  Cs  Cs7  1  0.15260805  0.25567984  0.04339017  1
  V  V0  1  0.42582880  0.74387275  0.77679296  1
  V  V1  1  0.92582880  0.25612725  0.72320704  1
  V  V2  1  0.57417120  0.25612725  0.22320704  1
  V  V3  1  0.07417120  0.74387275  0.27679296  1
  Pt  Pt0  1  0.00000000  0.50000000  0.50000000  1
  Pt  Pt1  1  0.50000000  0.50000000  0.00000000  1
  Se  Se0  1  0.08755046  0.30675595  0.66920753  1
  Se  Se1  1  0.58755046  0.69324405  0.83079247  1
  Se  Se2  1  0.91244954  0.69324405  0.33079247  1
  Se  Se3  1  0.41244954  0.30675595  0.16920753  1
  Se  Se4  1  0.39984477  0.74946564  0.55618596  1
  Se  Se5  1  0.89984477  0.25053436  0.94381404  1
  Se  Se6  1  0.60015523  0.25053436  0.44381404  1
  Se  Se7  1  0.10015523  0.74946564  0.05618596  1
  Se  Se8  1  0.15659078  0.50986030  0.37987881  1
  Se  Se9  1  0.65659078  0.49013970  0.12012119  1
  Se  Se10  1  0.84340922  0.49013970  0.62012119  1
  Se  Se11  1  0.34340922  0.50986030  0.87987881  1
  Se  Se12  1  0.37248202  0.99891036  0.85093432  1
  Se  Se13  1  0.87248202  0.00108964  0.64906568  1
  Se  Se14  1  0.62751798  0.00108964  0.14906568  1
  Se  Se15  1  0.12751798  0.99891036  0.35093432  1
loop_
_geom_bond_atom_site_label_1
_geom_bond_atom_site_label_2
_geom_bond_distance
_geom_bond_site_symmetry_2
Cs0 Se15 3.607702 1_555
Cs0 Pt0 3.638758 1_555
Cs0 Se7 3.712423 1_556
Cs0 Se0 3.821958 1_565
Cs0 Se13 3.898900 1_465
Cs0 Se0 3.898976 1_555
Cs0 Se4 3.938792 1_555
Cs0 Se12 3.975080 1_555
Cs0 Se8 4.000828 1_555
Cs0 Se11 4.071642 1_555
Cs1 Se14 3.607702 1_556
Cs1 Pt1 3.638758 1_556
Cs1 Se6 3.712423 1_555
Cs1 Se1 3.821958 1_545
Cs1 Se12 3.898900 1_545
Cs1 Se1 3.898976 1_555
Cs1 Se5 3.938792 1_555
Cs1 Se13 3.975080 1_555
Cs1 Se9 4.000828 1_556
Cs1 Se10 4.071642 1_555
Cs2 Se13 3.607702 1_555
Cs2 Pt0 3.638758 1_655
Cs2 Se5 3.712423 1_554
Cs2 Se2 3.821958 1_545
Cs2 Se15 3.898900 1_645
Cs2 Se2 3.898976 1_555
Cs2 Se6 3.938792 1_555
Cs2 Se14 3.975080 1_555
Cs2 Se10 4.000828 1_555
Cs2 Se9 4.071642 1_555
Cs3 Se12 3.607702 1_554
Cs3 Pt1 3.638758 1_555
Cs3 Se4 3.712423 1_555
Cs3 Se3 3.821958 1_565
Cs3 Se14 3.898900 1_565
Cs3 Se3 3.898976 1_555
Cs3 Se7 3.938792 1_555
Cs3 Se15 3.975080 1_555
Cs3 Se11 4.000828 1_554
Cs3 Se8 4.071642 1_555
Cs4 Se12 3.559145 1_545
Cs4 Se8 3.593831 1_555
Cs4 Se6 3.625795 1_555
Cs4 Se0 3.826999 1_555
Cs4 Se4 3.833674 1_555
Cs4 Se3 3.862982 1_555
Cs4 Se4 3.908976 1_545
Cs4 Se11 4.012421 1_555
Cs4 Se15 4.155026 1_545
Cs5 Se13 3.559145 1_565
Cs5 Se9 3.593831 1_556
Cs5 Se7 3.625795 1_656
Cs5 Se1 3.826999 1_555
Cs5 Se5 3.833674 1_555
Cs5 Se2 3.862982 1_556
Cs5 Se5 3.908976 1_565
Cs5 Se10 4.012421 1_555
Cs5 Se14 4.155026 1_566
Cs6 Se14 3.559145 1_565
Cs6 Se10 3.593831 1_555
Cs6 Se4 3.625795 1_555
Cs6 Se2 3.826999 1_555
Cs6 Se6 3.833674 1_555
Cs6 Se1 3.862982 1_555
Cs6 Se6 3.908976 1_565
Cs6 Se9 4.012421 1_555
Cs6 Se13 4.155026 1_565
Cs7 Se15 3.559145 1_545
Cs7 Se11 3.593831 1_554
Cs7 Se5 3.625795 1_454
Cs7 Se3 3.826999 1_555
Cs7 Se7 3.833674 1_555
Cs7 Se0 3.862982 1_554
Cs7 Se7 3.908976 1_545
Cs7 Se8 4.012421 1_555
Cs7 Se12 4.155026 1_544
Pt0 Se10 2.472077 1_455
Pt0 Se8 2.472077 1_555
Pt0 Se0 2.483179 1_555
Pt0 Se2 2.483179 1_455
Pt0 V3 2.991483 1_555
Pt0 V1 2.991483 1_455
Pt1 Se9 2.472077 1_555
Pt1 Se11 2.472077 1_554
Pt1 Se1 2.483179 1_554
Pt1 Se3 2.483179 1_555
Pt1 V0 2.991483 1_554
Pt1 V2 2.991483 1_555
Se0 V1 2.319992 1_455
Se1 V0 2.319992 1_555
Se2 V3 2.319992 1_655
Se3 V2 2.319992 1_555
Se4 V0 2.245522 1_555
Se5 V1 2.245522 1_555
Se6 V2 2.245522 1_555
Se7 V3 2.245522 1_555
Se8 V3 2.296882 1_555
Se9 V2 2.296882 1_555
Se10 V1 2.296882 1_555
Se11 V0 2.296882 1_555
Se12 V0 2.248503 1_555
Se13 V1 2.248503 1_555
Se14 V2 2.248503 1_555
Se15 V3 2.248503 1_555
