# generated using pymatgen
data_Co3Cu2AsS8
_symmetry_space_group_name_H-M   'P 1'
_cell_length_a   6.77616250
_cell_length_b   6.76309481
_cell_length_c   6.76309397
_cell_angle_alpha   59.99999455
_cell_angle_beta   60.06376763
_cell_angle_gamma   60.06377242
_symmetry_Int_Tables_number   1
_chemical_formula_structural   Co3Cu2AsS8
_chemical_formula_sum   'Co3 Cu2 As1 S8'
_cell_volume   219.37019994
_cell_formula_units_Z   1
loop_
 _symmetry_equiv_pos_site_id
 _symmetry_equiv_pos_as_xyz
  1  'x, y, z'
loop_
 _atom_site_type_symbol
 _atom_site_label
 _atom_site_symmetry_multiplicity
 _atom_site_fract_x
 _atom_site_fract_y
 _atom_site_fract_z
 _atom_site_occupancy
  Co  Co0  1  0.12500000  0.62500000  0.12500000  1
  Co  Co1  1  0.12500000  0.12500000  0.62500000  1
  Co  Co2  1  0.12500000  0.12500000  0.12500000  1
  Cu  Cu0  1  0.74445772  0.75184743  0.75184743  1
  Cu  Cu1  1  0.50554228  0.49815257  0.49815257  1
  As  As0  1  0.62500000  0.12500000  0.12500000  1
  S  S0  1  0.90184856  0.34373063  0.87720990  1
  S  S1  1  0.34815144  0.37279010  0.90626937  1
  S  S2  1  0.34815144  0.37279010  0.37279010  1
  S  S3  1  0.91154496  0.36281801  0.36281801  1
  S  S4  1  0.90184856  0.87720990  0.87720990  1
  S  S5  1  0.33845504  0.88718199  0.88718199  1
  S  S6  1  0.34815144  0.90626937  0.37279010  1
  S  S7  1  0.90184856  0.87720990  0.34373063  1
loop_
_geom_bond_atom_site_label_1
_geom_bond_atom_site_label_2
_geom_bond_distance
_geom_bond_site_symmetry_2
Co0 S7 2.258479 1_455
Co0 S1 2.258479 1_554
Co0 S2 2.258484 1_555
Co0 S4 2.258484 1_454
Co0 S5 2.282333 1_554
Co0 S3 2.282333 1_455
Co1 S0 2.258479 1_455
Co1 S6 2.258479 1_545
Co1 S2 2.258484 1_555
Co1 S4 2.258484 1_445
Co1 S5 2.282333 1_545
Co1 S3 2.282333 1_455
Co2 S6 2.258485 1_545
Co2 S0 2.258485 1_454
Co2 S1 2.258485 1_554
Co2 S7 2.258485 1_445
Co2 S3 2.282328 1_455
Co2 S5 2.282328 1_544
Cu0 S5 2.248459 1_555
Cu0 S4 2.258071 1_555
Cu0 S7 2.258076 1_555
Cu0 S0 2.258077 1_555
Cu1 S3 2.248459 1_555
Cu1 S2 2.258071 1_555
Cu1 S1 2.258076 1_555
Cu1 S6 2.258077 1_555
As0 S0 2.380958 1_554
As0 S6 2.380958 1_545
As0 S7 2.380958 1_545
As0 S1 2.380958 1_554
As0 S2 2.380962 1_555
As0 S4 2.380962 1_544
