# generated using pymatgen
data_Y4ReSi4Ru
_symmetry_space_group_name_H-M   'P 1'
_cell_length_a   5.76347263
_cell_length_b   5.76347162
_cell_length_c   10.05115286
_cell_angle_alpha   116.59034729
_cell_angle_beta   116.59034237
_cell_angle_gamma   43.07822090
_symmetry_Int_Tables_number   1
_chemical_formula_structural   Y4ReSi4Ru
_chemical_formula_sum   'Y4 Re1 Si4 Ru1'
_cell_volume   199.89681936
_cell_formula_units_Z   1
loop_
 _symmetry_equiv_pos_site_id
 _symmetry_equiv_pos_as_xyz
  1  'x, y, z'
loop_
 _atom_site_type_symbol
 _atom_site_label
 _atom_site_symmetry_multiplicity
 _atom_site_fract_x
 _atom_site_fract_y
 _atom_site_fract_z
 _atom_site_occupancy
  Y  Y0  1  0.00248598  0.00248598  0.17599935  1
  Y  Y1  1  0.81516717  0.81516717  0.39061217  1
  Y  Y2  1  0.18748464  0.18748464  0.61061000  1
  Y  Y3  1  0.99330178  0.99330178  0.82221341  1
  Re  Re0  1  0.27197465  0.27197465  0.12887714  1
  Si  Si0  1  0.64748620  0.64748620  0.05987281  1
  Si  Si1  1  0.50070106  0.50070106  0.37731229  1
  Si  Si2  1  0.50003015  0.50003015  0.62509603  1
  Si  Si3  1  0.35168841  0.35168841  0.93704491  1
  Ru  Ru0  1  0.72967995  0.72967995  0.87236389  1
loop_
_geom_bond_atom_site_label_1
_geom_bond_atom_site_label_2
_geom_bond_distance
_geom_bond_site_symmetry_2
Re0 Si0 2.418477 1_545
Re0 Si0 2.418478 1_455
Re0 Si3 2.456468 1_554
Re0 Si1 2.521088 1_555
Re0 Y3 3.092688 1_444
Re0 Y0 3.111846 1_565
Re0 Y0 3.111846 1_655
Re0 Y0 3.144898 1_555
Re0 Y1 3.231112 1_455
Re0 Y1 3.231112 1_545
Si0 Si3 2.795436 1_554
Si0 Y1 2.920835 1_555
Si0 Y3 3.019244 1_544
Si0 Y3 3.019244 1_454
Si0 Y0 3.162793 1_655
Si0 Y0 3.162793 1_565
Si0 Y0 3.402132 1_665
Si1 Si2 2.493982 1_555
Si1 Y0 2.934154 1_565
Si1 Y0 2.934154 1_655
Si1 Y1 2.951009 1_545
Si1 Y1 2.951010 1_455
Si1 Y2 3.076860 1_565
Si1 Y2 3.076861 1_655
Si1 Y1 3.309448 1_555
Si2 Y3 2.923271 1_545
Si2 Y3 2.923271 1_455
Si2 Y2 2.969823 1_565
Si2 Y2 2.969824 1_655
Si2 Y1 3.076491 1_545
Si2 Y1 3.076491 1_455
Si2 Y2 3.283525 1_555
Si3 Y2 2.881913 1_555
Si3 Y0 3.020376 1_566
Si3 Y0 3.020377 1_656
Si3 Y3 3.130756 1_455
Si3 Y3 3.130756 1_545
Si3 Y3 3.439388 1_445
Ru0 Si3 2.406829 1_565
Ru0 Si3 2.406830 1_655
Ru0 Si0 2.434584 1_556
Ru0 Si2 2.519940 1_555
Ru0 Y0 3.046038 1_666
Ru0 Y3 3.100760 1_555
Ru0 Y3 3.150448 1_545
Ru0 Y3 3.150449 1_455
Ru0 Y2 3.233927 1_655
Ru0 Y2 3.233927 1_565
