# generated using pymatgen
data_K4PPt3Au5
_symmetry_space_group_name_H-M   'P 1'
_cell_length_a   10.47450508
_cell_length_b   10.47450451
_cell_length_c   10.33299987
_cell_angle_alpha   81.24506804
_cell_angle_beta   81.24506300
_cell_angle_gamma   32.74021314
_symmetry_Int_Tables_number   1
_chemical_formula_structural   K4PPt3Au5
_chemical_formula_sum   'K8 P2 Pt6 Au10'
_cell_volume   605.36883950
_cell_formula_units_Z   2
loop_
 _symmetry_equiv_pos_site_id
 _symmetry_equiv_pos_as_xyz
  1  'x, y, z'
loop_
 _atom_site_type_symbol
 _atom_site_label
 _atom_site_symmetry_multiplicity
 _atom_site_fract_x
 _atom_site_fract_y
 _atom_site_fract_z
 _atom_site_occupancy
  K  K0  1  0.48085817  0.48085817  0.83402894  1
  K  K1  1  0.51914183  0.51914183  0.16597106  1
  K  K2  1  0.28236819  0.28236819  0.90334245  1
  K  K3  1  0.71763181  0.71763181  0.09665755  1
  K  K4  1  0.22228520  0.22228520  0.59098098  1
  K  K5  1  0.77771480  0.77771480  0.40901902  1
  K  K6  1  0.04178339  0.04178339  0.65571404  1
  K  K7  1  0.95821661  0.95821661  0.34428596  1
  P  P0  1  0.67058582  0.67058582  0.76172624  1
  P  P1  1  0.32941418  0.32941418  0.23827376  1
  Pt  Pt0  1  0.78197143  0.78197143  0.74111668  1
  Pt  Pt1  1  0.21802857  0.21802857  0.25888332  1
  Pt  Pt2  1  0.62138130  0.62138130  0.58422409  1
  Pt  Pt3  1  0.37861870  0.37861870  0.41577591  1
  Pt  Pt4  1  0.10718546  0.10718546  0.14095950  1
  Pt  Pt5  1  0.89281454  0.89281454  0.85904050  1
  Au  Au0  1  0.50000000  0.50000000  0.50000000  1
  Au  Au1  1  0.00000000  0.00000000  0.00000000  1
  Au  Au2  1  0.85996297  0.36210375  0.36649429  1
  Au  Au3  1  0.63789625  0.14003703  0.63350571  1
  Au  Au4  1  0.14003703  0.63789625  0.63350571  1
  Au  Au5  1  0.36210375  0.85996297  0.36649429  1
  Au  Au6  1  0.11052835  0.64775692  0.08834138  1
  Au  Au7  1  0.35224308  0.88947165  0.91165862  1
  Au  Au8  1  0.88947165  0.35224308  0.91165862  1
  Au  Au9  1  0.64775692  0.11052835  0.08834138  1
loop_
_geom_bond_atom_site_label_1
_geom_bond_atom_site_label_2
_geom_bond_distance
_geom_bond_site_symmetry_2
K0 Pt5 3.430527 1_545
K0 Pt5 3.430528 1_455
K0 Pt2 3.511024 1_555
K1 Pt4 3.430527 1_565
K1 Pt4 3.430528 1_655
K1 Pt3 3.511024 1_555
K2 Pt0 3.395492 1_545
K2 Pt0 3.395493 1_455
K2 K4 3.621152 1_555
K2 Pt5 3.678374 1_455
K2 Pt5 3.678375 1_545
K2 Pt1 3.696192 1_556
K2 Pt4 3.960282 1_556
K3 Pt1 3.395492 1_565
K3 Pt1 3.395493 1_655
K3 K5 3.621152 1_555
K3 Pt4 3.678374 1_655
K3 Pt4 3.678375 1_565
K3 Pt0 3.696192 1_554
K3 Pt5 3.960282 1_554
K4 Pt3 3.368448 1_555
K4 Pt1 3.446173 1_555
K4 P0 3.510851 1_455
K4 P0 3.510852 1_545
K4 K5 3.581479 1_545
K4 K5 3.581479 1_455
K4 K6 3.583315 1_555
K4 Pt2 3.588638 1_545
K4 Pt2 3.588638 1_455
K4 Pt0 3.626509 1_455
K4 Pt0 3.626510 1_545
K5 Pt2 3.368448 1_555
K5 Pt0 3.446173 1_555
K5 P1 3.510851 1_655
K5 P1 3.510852 1_565
K5 K7 3.583315 1_555
K5 Pt3 3.588638 1_565
K5 Pt3 3.588638 1_655
K5 Pt1 3.626509 1_655
K5 Pt1 3.626510 1_565
K6 Pt5 3.373960 1_445
K6 Pt2 3.383126 1_455
K6 Pt2 3.383126 1_545
K7 Pt4 3.373960 1_665
K7 Pt3 3.383126 1_655
K7 Pt3 3.383126 1_565
P0 Pt0 2.215043 1_555
P0 Pt2 2.217584 1_555
P1 Pt1 2.215043 1_555
P1 Pt3 2.217584 1_555
Pt0 Pt5 2.703649 1_555
Pt1 Pt4 2.703649 1_555
Au0 Pt2 2.717237 1_555
Au0 Pt3 2.717237 1_555
Au0 Au2 2.840264 1_555
Au0 Au4 2.840264 1_555
Au0 Au5 2.840264 1_555
Au0 Au3 2.840264 1_555
Au0 K0 3.411699 1_555
Au0 K1 3.411699 1_555
Au0 K6 3.526765 1_565
Au0 K7 3.526765 1_545
Au0 K6 3.526766 1_655
Au0 K7 3.526766 1_455
Au1 Pt4 2.785417 1_555
Au1 Pt5 2.785417 1_444
Au1 Au8 2.810188 1_454
Au1 Au6 2.810188 1_545
Au1 Au7 2.810188 1_544
Au1 Au9 2.810188 1_455
Au1 K1 3.466076 1_455
Au1 K0 3.466076 1_544
Au1 K1 3.466077 1_545
Au1 K0 3.466077 1_454
Au1 K6 3.523242 1_554
Au1 K7 3.523242 1_445
Au2 Pt1 2.701884 1_655
Au2 Pt2 2.722776 1_555
Au2 Pt4 2.773383 1_655
Au2 Au5 2.939504 1_555
Au2 Au5 2.964784 1_645
Au2 K1 3.328515 1_555
Au2 K6 3.427284 1_655
Au2 K7 3.450853 1_545
Au2 K3 3.553824 1_555
Au2 K5 3.747606 1_555
Au2 K4 3.771492 1_655
Au3 Pt0 2.701884 1_545
Au3 Pt3 2.722776 1_555
Au3 Pt5 2.773384 1_545
Au3 Au4 2.939504 1_555
Au3 Au4 2.964784 1_645
Au3 K0 3.328514 1_555
Au3 K7 3.427284 1_545
Au3 K6 3.450853 1_655
Au3 K2 3.553824 1_555
Au3 K4 3.747606 1_555
Au3 K5 3.771492 1_545
Au4 Pt0 2.701884 1_455
Au4 Pt3 2.722776 1_555
Au4 Pt5 2.773383 1_455
Au4 K0 3.328515 1_555
Au4 K7 3.427284 1_455
Au4 K6 3.450853 1_565
Au4 K2 3.553824 1_555
Au4 K4 3.747606 1_555
Au4 K5 3.771492 1_455
Au5 Pt1 2.701884 1_565
Au5 Pt2 2.722776 1_555
Au5 Pt4 2.773384 1_565
Au5 K1 3.328514 1_555
Au5 K6 3.427284 1_565
Au5 K7 3.450853 1_455
Au5 K3 3.553824 1_555
Au5 K5 3.747606 1_555
Au5 K4 3.771492 1_565
Au6 P1 2.328786 1_555
Au6 Pt5 2.710949 1_454
Au6 K2 3.336591 1_554
Au6 K1 3.434129 1_555
Au6 K0 3.449051 1_554
Au6 K3 3.510547 1_455
Au6 K7 3.566574 1_455
Au6 K5 3.854737 1_455
Au7 P0 2.328786 1_555
Au7 Pt4 2.710949 1_566
Au7 K3 3.336591 1_556
Au7 K0 3.434129 1_555
Au7 K1 3.449051 1_556
Au7 K2 3.510547 1_565
Au7 K6 3.566575 1_565
Au7 K4 3.854737 1_565
Au8 P0 2.328786 1_555
Au8 Pt4 2.710949 1_656
Au8 K3 3.336591 1_556
Au8 K0 3.434129 1_555
Au8 K1 3.449051 1_556
Au8 K2 3.510547 1_655
Au8 K6 3.566574 1_655
Au8 K4 3.854737 1_655
Au9 P1 2.328786 1_555
Au9 Pt5 2.710949 1_544
Au9 K2 3.336591 1_554
Au9 K1 3.434129 1_555
Au9 K0 3.449051 1_554
Au9 K3 3.510547 1_545
Au9 K7 3.566575 1_545
Au9 K5 3.854737 1_545
