# generated using pymatgen
data_Sr4Zn6AgAu11
_symmetry_space_group_name_H-M   'P 1'
_cell_length_a   8.76644001
_cell_length_b   8.78046029
_cell_length_c   8.75889230
_cell_angle_alpha   57.77023809
_cell_angle_beta   57.64474491
_cell_angle_gamma   57.79266558
_symmetry_Int_Tables_number   1
_chemical_formula_structural   Sr4Zn6AgAu11
_chemical_formula_sum   'Sr4 Zn6 Ag1 Au11'
_cell_volume   451.93601857
_cell_formula_units_Z   1
loop_
 _symmetry_equiv_pos_site_id
 _symmetry_equiv_pos_as_xyz
  1  'x, y, z'
loop_
 _atom_site_type_symbol
 _atom_site_label
 _atom_site_symmetry_multiplicity
 _atom_site_fract_x
 _atom_site_fract_y
 _atom_site_fract_z
 _atom_site_occupancy
  Sr  Sr0  1  0.91418169  0.90672782  0.90397193  1
  Sr  Sr1  1  0.40780822  0.40368287  0.41137786  1
  Sr  Sr2  1  0.08829077  0.09527775  0.09108673  1
  Sr  Sr3  1  0.59296723  0.58993909  0.59545240  1
  Zn  Zn0  1  0.56596151  0.74777615  0.93315347  1
  Zn  Zn1  1  0.93873895  0.56443820  0.74779523  1
  Zn  Zn2  1  0.74997505  0.93735330  0.56226538  1
  Zn  Zn3  1  0.43497793  0.25291124  0.06410751  1
  Zn  Zn4  1  0.06060126  0.43831360  0.25057325  1
  Zn  Zn5  1  0.24869904  0.06589982  0.43602082  1
  Ag  Ag0  1  0.48089256  0.86376642  0.20356038  1
  Au  Au0  1  0.20672482  0.47758884  0.86103324  1
  Au  Au1  1  0.86031457  0.20663426  0.47860789  1
  Au  Au2  1  0.70550382  0.36329433  0.97885109  1
  Au  Au3  1  0.97802273  0.70750995  0.36236907  1
  Au  Au4  1  0.36157456  0.97778881  0.70677292  1
  Au  Au5  1  0.52223107  0.13018793  0.80163601  1
  Au  Au6  1  0.78995823  0.52620070  0.13912389  1
  Au  Au7  1  0.14234116  0.79548081  0.51600101  1
  Au  Au8  1  0.29420833  0.63626873  0.02442727  1
  Au  Au9  1  0.02043579  0.29429662  0.63834619  1
  Au  Au10  1  0.63558873  0.01866377  0.29346547  1
loop_
_geom_bond_atom_site_label_1
_geom_bond_atom_site_label_2
_geom_bond_distance
_geom_bond_site_symmetry_2
Zn0 Zn1 2.721739 1_555
Zn0 Zn2 2.722461 1_555
Zn1 Zn2 2.743616 1_555
Zn3 Zn5 2.726500 1_555
Zn3 Zn4 2.737206 1_555
Zn4 Zn5 2.739311 1_555
Ag0 Zn5 2.646979 1_565
Ag0 Zn0 2.660030 1_554
Ag0 Zn3 2.817358 1_565
Ag0 Au6 2.834043 1_555
Ag0 Au7 2.847887 1_555
Ag0 Au10 2.925836 1_565
Ag0 Au5 2.958225 1_564
Ag0 Sr3 3.288942 1_555
Ag0 Sr2 3.314121 1_565
Ag0 Sr0 3.355463 1_554
Ag0 Sr1 3.702803 1_555
Au0 Zn1 2.619532 1_455
Au0 Zn3 2.630267 1_556
Au0 Zn4 2.817623 1_556
Au0 Au5 2.895580 1_555
Au0 Au7 2.896816 1_555
Au0 Au8 3.003041 1_556
Au0 Au6 3.063512 1_456
Au0 Sr3 3.245247 1_555
Au0 Sr2 3.266175 1_556
Au0 Sr0 3.330900 1_455
Au0 Sr1 3.621583 1_555
Au1 Zn2 2.625709 1_545
Au1 Zn4 2.632554 1_655
Au1 Zn5 2.811744 1_655
Au1 Au6 2.883435 1_555
Au1 Au5 2.891262 1_555
Au1 Au9 2.987119 1_655
Au1 Au7 3.056796 1_645
Au1 Sr3 3.250521 1_555
Au1 Sr2 3.266096 1_655
Au1 Sr0 3.336342 1_545
Au1 Sr1 3.629556 1_555
Au2 Zn3 2.627532 1_556
Au2 Zn1 2.646402 1_555
Au2 Zn0 2.781033 1_555
Au2 Au9 2.866244 1_655
Au2 Au6 2.991314 1_556
Au2 Au8 3.028592 1_556
Au2 Sr2 3.226517 1_656
Au2 Sr3 3.245882 1_555
Au2 Sr1 3.339625 1_556
Au2 Sr0 3.681100 1_545
Au3 Zn2 2.618546 1_555
Au3 Zn4 2.637397 1_655
Au3 Zn1 2.790476 1_555
Au3 Au8 2.860230 1_655
Au3 Au7 2.975208 1_655
Au3 Au9 3.051971 1_655
Au3 Sr2 3.254782 1_665
Au3 Sr3 3.273923 1_555
Au3 Sr1 3.360345 1_655
Au3 Sr0 3.655680 1_554
Au4 Zn0 2.625782 1_555
Au4 Zn5 2.634446 1_565
Au4 Zn2 2.810572 1_555
Au4 Au9 2.882456 1_565
Au4 Au8 2.883057 1_556
Au4 Au5 2.985287 1_565
Au4 Sr2 3.251555 1_566
Au4 Sr3 3.274745 1_555
Au4 Sr1 3.319014 1_565
Au4 Sr0 3.600469 1_455
Au5 Zn3 2.629264 1_556
Au5 Zn2 2.636555 1_545
Au5 Zn0 2.779080 1_545
Au5 Sr0 3.270090 1_545
Au5 Sr1 3.286931 1_555
Au5 Sr2 3.329280 1_556
Au5 Sr3 3.692647 1_555
Au6 Zn0 2.621321 1_554
Au6 Zn4 2.627034 1_655
Au6 Zn1 2.831374 1_554
Au6 Sr1 3.259091 1_555
Au6 Sr0 3.275567 1_554
Au6 Sr2 3.362322 1_655
Au6 Sr3 3.638516 1_555
Au7 Zn5 2.623827 1_565
Au7 Zn1 2.647860 1_455
Au7 Zn2 2.833074 1_455
Au7 Sr1 3.261322 1_555
Au7 Sr0 3.268855 1_455
Au7 Sr2 3.333701 1_565
Au7 Sr3 3.653766 1_555
Au8 Zn0 2.624136 1_554
Au8 Zn4 2.630370 1_555
Au8 Zn3 2.785197 1_555
Au8 Sr0 3.241555 1_454
Au8 Sr1 3.272825 1_555
Au8 Sr3 3.332318 1_554
Au8 Sr2 3.670073 1_565
Au9 Zn5 2.623719 1_555
Au9 Zn1 2.633982 1_455
Au9 Zn4 2.805788 1_555
Au9 Sr0 3.236608 1_445
Au9 Sr1 3.258978 1_555
Au9 Sr3 3.319603 1_455
Au9 Sr2 3.627411 1_556
Au10 Zn3 2.622483 1_555
Au10 Zn2 2.651281 1_545
Au10 Zn5 2.784685 1_555
Au10 Au3 2.877137 1_545
Au10 Au2 2.898461 1_554
Au10 Au4 3.038062 1_545
Au10 Sr0 3.266348 1_544
Au10 Sr1 3.286883 1_555
Au10 Sr3 3.335814 1_545
Au10 Sr2 3.659059 1_655
