# generated using pymatgen
data_Nb3VH3Se8
_symmetry_space_group_name_H-M   'P 1'
_cell_length_a   3.42931240
_cell_length_b   3.42931167
_cell_length_c   28.01532896
_cell_angle_alpha   90.00000000
_cell_angle_beta   90.00000000
_cell_angle_gamma   119.99998775
_symmetry_Int_Tables_number   1
_chemical_formula_structural   Nb3VH3Se8
_chemical_formula_sum   'Nb3 V1 H3 Se8'
_cell_volume   285.32538984
_cell_formula_units_Z   1
loop_
 _symmetry_equiv_pos_site_id
 _symmetry_equiv_pos_as_xyz
  1  'x, y, z'
loop_
 _atom_site_type_symbol
 _atom_site_label
 _atom_site_symmetry_multiplicity
 _atom_site_fract_x
 _atom_site_fract_y
 _atom_site_fract_z
 _atom_site_occupancy
  Nb  Nb0  1  0.66666700  0.33333300  0.50000000  1
  Nb  Nb1  1  0.33333300  0.66666700  0.24962073  1
  Nb  Nb2  1  0.33333300  0.66666700  0.75037927  1
  V  V0  1  0.66666700  0.33333300  0.00000000  1
  H  H0  1  0.00000000  0.00000000  0.50000000  1
  H  H1  1  0.00000000  0.00000000  0.24963825  1
  H  H2  1  0.00000000  0.00000000  0.75036175  1
  Se  Se0  1  0.66666700  0.33333300  0.31258298  1
  Se  Se1  1  0.66666700  0.33333300  0.81329874  1
  Se  Se2  1  0.33333300  0.66666700  0.94415872  1
  Se  Se3  1  0.33333300  0.66666700  0.43701086  1
  Se  Se4  1  0.33333300  0.66666700  0.05584128  1
  Se  Se5  1  0.33333300  0.66666700  0.56298914  1
  Se  Se6  1  0.66666700  0.33333300  0.18670126  1
  Se  Se7  1  0.66666700  0.33333300  0.68741702  1
loop_
_geom_bond_atom_site_label_1
_geom_bond_atom_site_label_2
_geom_bond_distance
_geom_bond_site_symmetry_2
Nb0 Se5 2.652185 1_545
Nb0 Se3 2.652185 1_545
Nb0 Se5 2.652185 1_655
Nb0 Se3 2.652185 1_655
Nb0 Se5 2.652189 1_555
Nb0 Se3 2.652189 1_555
Nb1 Se6 2.650886 1_565
Nb1 Se6 2.650887 1_455
Nb1 Se6 2.650891 1_555
Nb1 Se0 2.651683 1_565
Nb1 Se0 2.651684 1_455
Nb1 Se0 2.651688 1_555
Nb2 Se1 2.650886 1_565
Nb2 Se1 2.650887 1_455
Nb2 Se1 2.650891 1_555
Nb2 Se7 2.651683 1_565
Nb2 Se7 2.651684 1_455
Nb2 Se7 2.651688 1_555
H0 Nb0 1.979912 1_455
H0 Nb0 1.979915 1_445
H0 Nb0 1.979916 1_555
H1 Nb1 1.979912 1_545
H1 Nb1 1.979915 1_555
H1 Nb1 1.979916 1_445
H2 Nb2 1.979912 1_545
H2 Nb2 1.979915 1_555
H2 Nb2 1.979916 1_445
Se2 V0 2.523378 1_566
Se2 V0 2.523378 1_456
Se2 V0 2.523383 1_556
Se4 V0 2.523378 1_565
Se4 V0 2.523378 1_455
Se4 V0 2.523383 1_555
