# generated using pymatgen
data_Na4SnAs2O9
_symmetry_space_group_name_H-M   'P 1'
_cell_length_a   8.75505210
_cell_length_b   8.75505203
_cell_length_c   7.79579682
_cell_angle_alpha   89.72678476
_cell_angle_beta   89.72678703
_cell_angle_gamma   49.29655352
_symmetry_Int_Tables_number   1
_chemical_formula_structural   Na4SnAs2O9
_chemical_formula_sum   'Na8 Sn2 As4 O18'
_cell_volume   452.99738556
_cell_formula_units_Z   2
loop_
 _symmetry_equiv_pos_site_id
 _symmetry_equiv_pos_as_xyz
  1  'x, y, z'
loop_
 _atom_site_type_symbol
 _atom_site_label
 _atom_site_symmetry_multiplicity
 _atom_site_fract_x
 _atom_site_fract_y
 _atom_site_fract_z
 _atom_site_occupancy
  Na  Na0  1  0.74486618  0.25513382  0.00000000  1
  Na  Na1  1  0.63020160  0.63020160  0.28220134  1
  Na  Na2  1  0.89370143  0.89370143  0.23511808  1
  Na  Na3  1  0.10629857  0.10629857  0.76488192  1
  Na  Na4  1  0.50000000  0.00000000  0.50000000  1
  Na  Na5  1  0.25513382  0.74486618  1.00000000  1
  Na  Na6  1  0.36979840  0.36979840  0.71779866  1
  Na  Na7  1  0.00000000  0.50000000  0.50000000  1
  Sn  Sn0  1  0.00000000  0.50000000  0.00000000  1
  Sn  Sn1  1  0.50000000  0.00000000  0.00000000  1
  As  As0  1  0.12716238  0.12716238  0.28338349  1
  As  As1  1  0.39237439  0.39237439  0.24140614  1
  As  As2  1  0.87283762  0.87283762  0.71661651  1
  As  As3  1  0.60762561  0.60762561  0.75859386  1
  O  O0  1  0.55622704  0.16992078  0.12683604  1
  O  O1  1  0.50306459  0.50306459  0.77902562  1
  O  O2  1  0.44377296  0.83007922  0.87316396  1
  O  O3  1  0.13696043  0.13696043  0.49602855  1
  O  O4  1  0.37660430  0.98647394  0.22244951  1
  O  O5  1  0.98647394  0.37660430  0.22244951  1
  O  O6  1  0.83007922  0.44377296  0.87316396  1
  O  O7  1  0.96538527  0.96538527  0.81805635  1
  O  O8  1  0.16992078  0.55622704  0.12683604  1
  O  O9  1  0.23944972  0.23944972  0.90042534  1
  O  O10  1  0.01352606  0.62339570  0.77755049  1
  O  O11  1  0.76055028  0.76055028  0.09957466  1
  O  O12  1  0.86303957  0.86303957  0.50397145  1
  O  O13  1  0.49693541  0.49693541  0.22097438  1
  O  O14  1  0.62339570  0.01352606  0.77755049  1
  O  O15  1  0.65580428  0.65580428  0.56719068  1
  O  O16  1  0.03461473  0.03461473  0.18194365  1
  O  O17  1  0.34419572  0.34419572  0.43280932  1
loop_
_geom_bond_atom_site_label_1
_geom_bond_atom_site_label_2
_geom_bond_distance
_geom_bond_site_symmetry_2
Na0 O16 2.407227 1_655
Na0 O7 2.407227 1_544
Na0 O6 2.417918 1_554
Na0 O0 2.417918 1_555
Na0 O1 2.483254 1_554
Na0 O13 2.483254 1_555
Na1 O13 2.176377 1_555
Na1 O15 2.260875 1_555
Na1 O4 2.416429 1_555
Na1 O5 2.416430 1_555
Na1 O11 2.509852 1_555
Na2 O12 2.149487 1_555
Na2 O16 2.278441 1_665
Na2 O11 2.372856 1_555
Na2 O0 2.444480 1_565
Na2 O8 2.444480 1_655
Na3 O3 2.149487 1_555
Na3 O7 2.278441 1_445
Na3 O9 2.372856 1_555
Na3 O2 2.444480 1_545
Na3 O6 2.444480 1_455
Na4 O17 2.417923 1_555
Na4 O15 2.417923 1_545
Na4 O14 2.460582 1_555
Na4 O4 2.460582 1_545
Na4 O12 2.563364 1_545
Na4 O3 2.563364 1_555
Na5 O7 2.407227 1_455
Na5 O16 2.407227 1_566
Na5 O8 2.417918 1_556
Na5 O2 2.417918 1_555
Na5 O13 2.483254 1_556
Na5 O1 2.483254 1_555
Na6 O1 2.176377 1_555
Na6 O17 2.260875 1_555
Na6 O14 2.416429 1_555
Na6 O10 2.416430 1_555
Na6 O9 2.509852 1_555
Na7 O17 2.417923 1_555
Na7 O15 2.417923 1_455
Na7 O10 2.460582 1_555
Na7 O5 2.460582 1_455
Na7 O12 2.563364 1_455
Na7 O3 2.563364 1_555
As0 O3 1.665870 1_555
As0 O16 1.675388 1_555
As0 O5 1.731863 1_455
As0 O4 1.731863 1_545
As1 O13 1.670828 1_555
As1 O17 1.674031 1_555
As1 O8 1.734672 1_555
As1 O0 1.734672 1_555
As2 O12 1.665870 1_555
As2 O7 1.675388 1_555
As2 O10 1.731863 1_655
As2 O14 1.731863 1_565
As3 O1 1.670828 1_555
As3 O15 1.674031 1_555
As3 O6 1.734672 1_555
As3 O2 1.734672 1_555
O0 Sn1 2.099292 1_555
O2 Sn1 2.099292 1_566
O4 Sn1 2.082195 1_565
O5 Sn0 2.082195 1_655
O6 Sn0 2.099292 1_656
O8 Sn0 2.099292 1_555
O9 Sn1 1.991251 1_556
O9 Sn0 1.991251 1_556
O10 Sn0 2.082195 1_556
O11 Sn1 1.991251 1_565
O11 Sn0 1.991251 1_655
O14 Sn1 2.082195 1_556
