# generated using pymatgen
data_Ti6PC2S
_symmetry_space_group_name_H-M   'P 1'
_cell_length_a   5.35219684
_cell_length_b   5.35219942
_cell_length_c   7.93914880
_cell_angle_alpha   90.00000000
_cell_angle_beta   90.00000000
_cell_angle_gamma   145.16669800
_symmetry_Int_Tables_number   1
_chemical_formula_structural   Ti6PC2S
_chemical_formula_sum   'Ti6 P1 C2 S1'
_cell_volume   129.90308631
_cell_formula_units_Z   1
loop_
 _symmetry_equiv_pos_site_id
 _symmetry_equiv_pos_as_xyz
  1  'x, y, z'
loop_
 _atom_site_type_symbol
 _atom_site_label
 _atom_site_symmetry_multiplicity
 _atom_site_fract_x
 _atom_site_fract_y
 _atom_site_fract_z
 _atom_site_occupancy
  Ti  Ti0  1  0.63250710  0.36749390  0.05733773  1
  Ti  Ti1  1  0.93520891  0.06479209  0.25000000  1
  Ti  Ti2  1  0.63250710  0.36749390  0.44266227  1
  Ti  Ti3  1  0.36760740  0.63239360  0.55701032  1
  Ti  Ti4  1  0.06144403  0.93855697  0.75000000  1
  Ti  Ti5  1  0.36760740  0.63239360  0.94298868  1
  P  P0  1  0.74528931  0.25471169  0.75000000  1
  C  C0  1  0.00074588  0.99925412  0.00208859  1
  C  C1  1  0.00074588  0.99925412  0.49791041  1
  S  S0  1  0.25634099  0.74366001  0.25000000  1
loop_
_geom_bond_atom_site_label_1
_geom_bond_atom_site_label_2
_geom_bond_distance
_geom_bond_site_symmetry_2
P0 Ti4 2.468258 1_545
P0 Ti4 2.468260 1_655
P0 Ti5 2.544552 1_655
P0 Ti5 2.544553 1_545
P0 Ti3 2.544557 1_655
P0 Ti3 2.544558 1_545
P0 Ti0 2.698242 1_556
P0 Ti2 2.698242 1_555
C0 Ti1 2.078917 1_465
C0 Ti4 2.095187 1_554
C0 Ti0 2.137730 1_455
C0 Ti0 2.137731 1_565
C0 Ti5 2.153073 1_454
C0 Ti5 2.153077 1_564
C1 Ti1 2.078910 1_465
C1 Ti4 2.095194 1_555
C1 Ti2 2.137729 1_455
C1 Ti2 2.137729 1_565
C1 Ti3 2.153073 1_455
C1 Ti3 2.153077 1_565
S0 Ti1 2.429807 1_565
S0 Ti1 2.429809 1_455
S0 Ti2 2.550634 1_455
S0 Ti0 2.550634 1_455
S0 Ti2 2.550635 1_565
S0 Ti0 2.550635 1_565
S0 Ti3 2.689313 1_555
S0 Ti5 2.689320 1_554
