# generated using pymatgen
data_Mg13Au41
_symmetry_space_group_name_H-M   'P 1'
_cell_length_a   15.23408645
_cell_length_b   15.23408645
_cell_length_c   9.62161000
_cell_angle_alpha   90.00000000
_cell_angle_beta   90.00000000
_cell_angle_gamma   120.00000196
_symmetry_Int_Tables_number   1
_chemical_formula_structural   Mg13Au41
_chemical_formula_sum   'Mg26 Au82'
_cell_volume   1933.79843348
_cell_formula_units_Z   2
loop_
 _symmetry_equiv_pos_site_id
 _symmetry_equiv_pos_as_xyz
  1  'x, y, z'
loop_
 _atom_site_type_symbol
 _atom_site_label
 _atom_site_symmetry_multiplicity
 _atom_site_fract_x
 _atom_site_fract_y
 _atom_site_fract_z
 _atom_site_occupancy
  Mg  Mg0  1  0.00000000  0.00000000  0.00000000  1
  Mg  Mg1  1  0.00000000  0.00000000  0.50000000  1
  Mg  Mg2  1  0.44535400  0.00000000  0.25000000  1
  Mg  Mg3  1  0.44535400  0.44535400  0.75000000  1
  Mg  Mg4  1  0.00000000  0.55464600  0.75000000  1
  Mg  Mg5  1  0.00000000  0.44535400  0.25000000  1
  Mg  Mg6  1  0.55464600  0.55464600  0.25000000  1
  Mg  Mg7  1  0.55464600  0.00000000  0.75000000  1
  Mg  Mg8  1  0.77586300  0.00000000  0.25000000  1
  Mg  Mg9  1  0.77586300  0.77586300  0.75000000  1
  Mg  Mg10  1  0.00000000  0.22413700  0.75000000  1
  Mg  Mg11  1  0.00000000  0.77586300  0.25000000  1
  Mg  Mg12  1  0.22413700  0.22413700  0.25000000  1
  Mg  Mg13  1  0.22413700  0.00000000  0.75000000  1
  Mg  Mg14  1  0.22315000  0.44630000  0.00000000  1
  Mg  Mg15  1  0.77685000  0.22315000  0.50000000  1
  Mg  Mg16  1  0.44630000  0.22315000  0.50000000  1
  Mg  Mg17  1  0.55370000  0.77685000  0.00000000  1
  Mg  Mg18  1  0.22315000  0.77685000  0.00000000  1
  Mg  Mg19  1  0.77685000  0.55370000  0.50000000  1
  Mg  Mg20  1  0.77685000  0.55370000  0.00000000  1
  Mg  Mg21  1  0.22315000  0.77685000  0.50000000  1
  Mg  Mg22  1  0.55370000  0.77685000  0.50000000  1
  Mg  Mg23  1  0.44630000  0.22315000  0.00000000  1
  Mg  Mg24  1  0.77685000  0.22315000  0.00000000  1
  Mg  Mg25  1  0.22315000  0.44630000  0.50000000  1
  Au  Au0  1  0.33333300  0.66666700  0.00000000  1
  Au  Au1  1  0.66666700  0.33333300  0.50000000  1
  Au  Au2  1  0.66666700  0.33333300  0.00000000  1
  Au  Au3  1  0.33333300  0.66666700  0.50000000  1
  Au  Au4  1  0.10963100  0.00000000  0.25000000  1
  Au  Au5  1  0.10963100  0.10963100  0.75000000  1
  Au  Au6  1  0.00000000  0.89037000  0.75000000  1
  Au  Au7  1  0.00000000  0.10963100  0.25000000  1
  Au  Au8  1  0.89037000  0.89037000  0.25000000  1
  Au  Au9  1  0.89037000  0.00000000  0.75000000  1
  Au  Au10  1  0.11079500  0.22159000  0.00000000  1
  Au  Au11  1  0.88920500  0.11079500  0.50000000  1
  Au  Au12  1  0.22159000  0.11079500  0.50000000  1
  Au  Au13  1  0.77841000  0.88920500  0.00000000  1
  Au  Au14  1  0.11079500  0.88920500  0.00000000  1
  Au  Au15  1  0.88920500  0.77841000  0.50000000  1
  Au  Au16  1  0.88920500  0.77841000  0.00000000  1
  Au  Au17  1  0.11079500  0.88920500  0.50000000  1
  Au  Au18  1  0.77841000  0.88920500  0.50000000  1
  Au  Au19  1  0.22159000  0.11079500  0.00000000  1
  Au  Au20  1  0.88920500  0.11079500  0.00000000  1
  Au  Au21  1  0.11079500  0.22159000  0.50000000  1
  Au  Au22  1  0.44498900  0.88997800  0.00000000  1
  Au  Au23  1  0.55501100  0.44498900  0.50000000  1
  Au  Au24  1  0.88997800  0.44498900  0.50000000  1
  Au  Au25  1  0.11002200  0.55501100  0.00000000  1
  Au  Au26  1  0.44498900  0.55501100  0.00000000  1
  Au  Au27  1  0.55501100  0.11002200  0.50000000  1
  Au  Au28  1  0.55501100  0.11002200  0.00000000  1
  Au  Au29  1  0.44498900  0.55501100  0.50000000  1
  Au  Au30  1  0.11002200  0.55501100  0.50000000  1
  Au  Au31  1  0.88997800  0.44498900  0.00000000  1
  Au  Au32  1  0.55501100  0.44498900  0.00000000  1
  Au  Au33  1  0.44498900  0.88997800  0.50000000  1
  Au  Au34  1  0.22093300  0.55147900  0.25000000  1
  Au  Au35  1  0.66945400  0.22093300  0.75000000  1
  Au  Au36  1  0.55147900  0.33054600  0.75000000  1
  Au  Au37  1  0.44852100  0.66945400  0.25000000  1
  Au  Au38  1  0.33054600  0.77906700  0.25000000  1
  Au  Au39  1  0.66945400  0.44852100  0.25000000  1
  Au  Au40  1  0.77906700  0.33054600  0.25000000  1
  Au  Au41  1  0.77906700  0.44852100  0.75000000  1
  Au  Au42  1  0.55147900  0.22093300  0.25000000  1
  Au  Au43  1  0.44852100  0.77906700  0.75000000  1
  Au  Au44  1  0.33054600  0.55147900  0.75000000  1
  Au  Au45  1  0.22093300  0.66945400  0.75000000  1
  Au  Au46  1  0.11048600  0.66635100  0.25000000  1
  Au  Au47  1  0.44413500  0.11048600  0.75000000  1
  Au  Au48  1  0.66635100  0.55586500  0.75000000  1
  Au  Au49  1  0.33364900  0.44413500  0.25000000  1
  Au  Au50  1  0.55586500  0.88951400  0.25000000  1
  Au  Au51  1  0.44413500  0.33364900  0.25000000  1
  Au  Au52  1  0.88951400  0.55586500  0.25000000  1
  Au  Au53  1  0.88951400  0.33364900  0.75000000  1
  Au  Au54  1  0.66635100  0.11048600  0.25000000  1
  Au  Au55  1  0.33364900  0.88951400  0.75000000  1
  Au  Au56  1  0.55586500  0.66635100  0.75000000  1
  Au  Au57  1  0.11048600  0.44413500  0.75000000  1
  Au  Au58  1  0.11176800  0.33279300  0.25000000  1
  Au  Au59  1  0.77897400  0.11176800  0.75000000  1
  Au  Au60  1  0.33279300  0.22102600  0.75000000  1
  Au  Au61  1  0.66720700  0.77897400  0.25000000  1
  Au  Au62  1  0.22102600  0.88823200  0.25000000  1
  Au  Au63  1  0.77897400  0.66720700  0.25000000  1
  Au  Au64  1  0.88823200  0.22102600  0.25000000  1
  Au  Au65  1  0.88823200  0.66720700  0.75000000  1
  Au  Au66  1  0.33279300  0.11176800  0.25000000  1
  Au  Au67  1  0.66720700  0.88823200  0.75000000  1
  Au  Au68  1  0.22102600  0.33279300  0.75000000  1
  Au  Au69  1  0.11176800  0.77897400  0.75000000  1
  Au  Au70  1  0.33195000  0.00000000  0.00089500  1
  Au  Au71  1  0.33195000  0.33195000  0.50089500  1
  Au  Au72  1  0.00000000  0.66805000  0.50089500  1
  Au  Au73  1  0.00000000  0.33195000  0.00089500  1
  Au  Au74  1  0.66805000  0.66805000  0.00089500  1
  Au  Au75  1  0.33195000  0.00000000  0.49910500  1
  Au  Au76  1  0.66805000  0.66805000  0.49910500  1
  Au  Au77  1  0.66805000  0.00000000  0.50089500  1
  Au  Au78  1  0.00000000  0.33195000  0.49910500  1
  Au  Au79  1  0.00000000  0.66805000  0.99910500  1
  Au  Au80  1  0.66805000  0.00000000  0.99910500  1
  Au  Au81  1  0.33195000  0.33195000  0.99910500  1
loop_
_geom_bond_atom_site_label_1
_geom_bond_atom_site_label_2
_geom_bond_distance
_geom_bond_site_symmetry_2
Au0 Mg18 2.907312 1_555
Au0 Mg14 2.907325 1_555
Au0 Mg17 2.907325 1_555
Au0 Au22 2.946166 1_555
Au0 Au25 2.946166 1_555
Au0 Au26 2.946179 1_555
Au0 Au38 2.965211 1_555
Au0 Au45 2.965211 1_554
Au0 Au43 2.965215 1_554
Au0 Au34 2.965215 1_555
Au0 Au37 2.965220 1_555
Au0 Au44 2.965220 1_554
Au1 Mg15 2.907312 1_555
Au1 Mg16 2.907325 1_555
Au1 Mg19 2.907325 1_555
Au1 Au24 2.946166 1_555
Au1 Au27 2.946166 1_555
Au1 Au23 2.946179 1_555
Au1 Au35 2.965211 1_555
Au1 Au40 2.965211 1_555
Au1 Au41 2.965215 1_555
Au1 Au42 2.965215 1_555
Au1 Au39 2.965220 1_555
Au1 Au36 2.965220 1_555
Au2 Mg24 2.907312 1_555
Au2 Mg23 2.907325 1_555
Au2 Mg20 2.907325 1_555
Au2 Au31 2.946166 1_555
Au2 Au28 2.946166 1_555
Au2 Au32 2.946179 1_555
Au2 Au35 2.965211 1_554
Au2 Au40 2.965211 1_555
Au2 Au41 2.965215 1_554
Au2 Au42 2.965215 1_555
Au2 Au39 2.965220 1_555
Au2 Au36 2.965220 1_554
Au3 Mg21 2.907312 1_555
Au3 Mg25 2.907325 1_555
Au3 Mg22 2.907325 1_555
Au3 Au33 2.946166 1_555
Au3 Au30 2.946166 1_555
Au3 Au38 2.965211 1_555
Au3 Au45 2.965211 1_555
Au3 Au43 2.965215 1_555
Au3 Au34 2.965215 1_555
Au3 Au37 2.965220 1_555
Au3 Au44 2.965220 1_555
Au4 Au8 2.892734 1_445
Au4 Au7 2.892747 1_555
Au4 Mg1 2.928359 1_555
Au4 Mg0 2.928359 1_555
Au4 Au66 2.944201 1_555
Au4 Au62 2.944214 1_545
Au4 Mg12 2.957296 1_555
Au4 Mg11 2.957296 1_545
Au5 Au9 2.892734 1_455
Au5 Au6 2.892734 1_545
Au5 Mg1 2.928359 1_555
Au5 Mg0 2.928359 1_556
Au5 Au68 2.944201 1_555
Au5 Au60 2.944201 1_555
Au5 Mg13 2.957296 1_555
Au5 Mg10 2.957296 1_555
Au6 Au9 2.892720 1_465
Au6 Mg1 2.928351 1_565
Au6 Mg0 2.928351 1_566
Au6 Au65 2.944214 1_455
Au6 Au69 2.944228 1_555
Au6 Mg9 2.957296 1_455
Au6 Mg13 2.957296 1_565
Au7 Au8 2.892734 1_445
Au7 Mg1 2.928359 1_555
Au7 Mg0 2.928359 1_555
Au7 Mg12 2.957296 1_555
Au7 Mg8 2.957296 1_455
Au8 Mg0 2.928351 1_665
Au8 Mg1 2.928351 1_665
Au8 Mg11 2.957297 1_655
Au8 Mg8 2.957297 1_565
Au9 Mg0 2.928351 1_656
Au9 Mg1 2.928351 1_655
Au9 Mg9 2.957296 1_545
Au9 Mg10 2.957296 1_655
Au10 Au81 2.917736 1_554
Au10 Au73 2.917736 1_555
Au10 Au20 2.923460 1_455
Au10 Mg0 2.923460 1_555
Au10 Au19 2.923460 1_555
Au10 Au58 2.937850 1_555
Au10 Au68 2.937855 1_554
Au10 Au7 2.943651 1_555
Au10 Au5 2.943651 1_554
Au10 Mg12 2.949887 1_555
Au10 Mg10 2.949887 1_554
Au10 Mg14 2.964623 1_555
Au11 Au77 2.917736 1_555
Au11 Au78 2.917736 1_655
Au11 Au18 2.923460 1_545
Au11 Au21 2.923460 1_655
Au11 Mg1 2.923460 1_655
Au11 Au59 2.937859 1_555
Au11 Au64 2.937859 1_555
Au11 Au7 2.943651 1_655
Au11 Au9 2.943655 1_555
Au11 Mg8 2.949887 1_555
Au11 Mg10 2.949887 1_655
Au11 Mg15 2.964623 1_555
Au12 Au71 2.917736 1_555
Au12 Au75 2.917736 1_555
Au12 Au17 2.923460 1_545
Au12 Mg1 2.923460 1_555
Au12 Au21 2.923460 1_555
Au12 Au66 2.937850 1_555
Au12 Au60 2.937855 1_555
Au12 Au4 2.943651 1_555
Au12 Au5 2.943651 1_555
Au12 Mg12 2.949887 1_555
Au12 Mg13 2.949887 1_555
Au12 Mg16 2.964623 1_555
Au13 Au74 2.917736 1_555
Au13 Au80 2.917736 1_564
Au13 Mg0 2.923460 1_665
Au13 Au20 2.923460 1_565
Au13 Au16 2.923460 1_555
Au13 Au67 2.937850 1_554
Au13 Au61 2.937855 1_555
Au13 Au9 2.943655 1_564
Au13 Au8 2.943655 1_555
Au13 Mg9 2.949887 1_554
Au13 Mg8 2.949887 1_565
Au13 Mg17 2.964623 1_555
Au14 Au79 2.917736 1_554
Au14 Au70 2.917736 1_565
Au14 Au16 2.923460 1_455
Au14 Au19 2.923460 1_565
Au14 Mg0 2.923460 1_565
Au14 Au69 2.937859 1_554
Au14 Au62 2.937859 1_555
Au14 Au4 2.943651 1_565
Au14 Au6 2.943655 1_554
Au14 Mg11 2.949887 1_555
Au14 Mg13 2.949887 1_564
Au14 Mg18 2.964623 1_555
Au15 Au76 2.917736 1_555
Au15 Au72 2.917736 1_655
Au15 Mg1 2.923460 1_665
Au15 Au17 2.923460 1_655
Au15 Au18 2.923460 1_555
Au15 Au65 2.937850 1_555
Au15 Au63 2.937855 1_555
Au15 Au6 2.943655 1_655
Au15 Au8 2.943655 1_555
Au15 Mg9 2.949887 1_555
Au15 Mg11 2.949887 1_655
Au15 Mg19 2.964623 1_555
Au16 Au74 2.917736 1_555
Au16 Au79 2.917736 1_654
Au16 Mg0 2.923460 1_665
Au16 Au65 2.937850 1_554
Au16 Au63 2.937855 1_555
Au16 Au6 2.943655 1_654
Au16 Au8 2.943655 1_555
Au16 Mg9 2.949887 1_554
Au16 Mg11 2.949887 1_655
Au16 Mg20 2.964623 1_555
Au17 Au72 2.917736 1_555
Au17 Au75 2.917736 1_565
Au17 Mg1 2.923460 1_565
Au17 Au69 2.937859 1_555
Au17 Au62 2.937859 1_555
Au17 Au4 2.943651 1_565
Au17 Au6 2.943655 1_555
Au17 Mg11 2.949887 1_555
Au17 Mg13 2.949887 1_565
Au17 Mg21 2.964623 1_555
Au18 Au76 2.917736 1_555
Au18 Au77 2.917736 1_565
Au18 Mg1 2.923460 1_665
Au18 Au67 2.937850 1_555
Au18 Au61 2.937855 1_555
Au18 Au9 2.943655 1_565
Au18 Au8 2.943655 1_555
Au18 Mg9 2.949887 1_555
Au18 Mg8 2.949887 1_565
Au18 Mg22 2.964623 1_555
Au19 Au81 2.917736 1_554
Au19 Au70 2.917736 1_555
Au19 Mg0 2.923460 1_555
Au19 Au66 2.937850 1_555
Au19 Au60 2.937855 1_554
Au19 Au4 2.943651 1_555
Au19 Au5 2.943651 1_554
Au19 Mg12 2.949887 1_555
Au19 Mg13 2.949887 1_554
Au19 Mg23 2.964623 1_555
Au20 Au80 2.917736 1_554
Au20 Au73 2.917736 1_655
Au20 Mg0 2.923460 1_655
Au20 Au59 2.937859 1_554
Au20 Au64 2.937859 1_555
Au20 Au7 2.943651 1_655
Au20 Au9 2.943655 1_554
Au20 Mg8 2.949887 1_555
Au20 Mg10 2.949887 1_654
Au20 Mg24 2.964623 1_555
Au21 Au71 2.917736 1_555
Au21 Au78 2.917736 1_555
Au21 Mg1 2.923460 1_555
Au21 Au58 2.937850 1_555
Au21 Au68 2.937855 1_555
Au21 Au7 2.943651 1_555
Au21 Au5 2.943651 1_555
Au21 Mg12 2.949887 1_555
Au21 Mg10 2.949887 1_555
Au21 Mg25 2.964623 1_555
Au22 Au28 2.903064 1_565
Au22 Mg18 2.926939 1_555
Au22 Mg17 2.926939 1_555
Au22 Mg7 2.930176 1_564
Au22 Mg2 2.930176 1_565
Au22 Au55 2.941257 1_554
Au22 Au50 2.941257 1_555
Au22 Au80 2.942970 1_564
Au22 Au70 2.942970 1_565
Au22 Au38 2.955438 1_555
Au22 Au43 2.955438 1_554
Au23 Au29 2.903064 1_555
Au23 Mg16 2.926939 1_555
Au23 Mg19 2.926939 1_555
Au23 Mg3 2.930176 1_555
Au23 Mg6 2.930176 1_555
Au23 Au51 2.941257 1_555
Au23 Au48 2.941257 1_555
Au23 Au71 2.942970 1_555
Au23 Au76 2.942970 1_555
Au23 Au36 2.955438 1_555
Au23 Au39 2.955438 1_555
Au24 Au30 2.903064 1_655
Au24 Mg15 2.926939 1_555
Au24 Mg19 2.926939 1_555
Au24 Mg4 2.930176 1_655
Au24 Mg5 2.930176 1_655
Au24 Au53 2.941257 1_555
Au24 Au52 2.941257 1_555
Au24 Au72 2.942970 1_655
Au24 Au78 2.942970 1_655
Au24 Au40 2.955438 1_555
Au24 Au41 2.955438 1_555
Au25 Au31 2.903064 1_455
Au25 Mg18 2.926939 1_555
Au25 Mg14 2.926939 1_555
Au25 Mg5 2.930176 1_555
Au25 Mg4 2.930176 1_554
Au25 Au46 2.941257 1_555
Au25 Au57 2.941257 1_554
Au25 Au73 2.942970 1_555
Au25 Au79 2.942970 1_554
Au25 Au45 2.955438 1_554
Au25 Au34 2.955438 1_555
Au26 Au32 2.903064 1_555
Au26 Mg14 2.926939 1_555
Au26 Mg17 2.926939 1_555
Au26 Mg3 2.930176 1_554
Au26 Mg6 2.930176 1_555
Au26 Au49 2.941257 1_555
Au26 Au56 2.941257 1_554
Au26 Au81 2.942970 1_554
Au26 Au74 2.942970 1_555
Au26 Au44 2.955438 1_554
Au26 Au37 2.955438 1_555
Au27 Au33 2.903064 1_545
Au27 Mg15 2.926939 1_555
Au27 Mg16 2.926939 1_555
Au27 Mg2 2.930176 1_555
Au27 Mg7 2.930176 1_555
Au27 Au54 2.941257 1_555
Au27 Au47 2.941257 1_555
Au27 Au75 2.942970 1_555
Au27 Au77 2.942970 1_555
Au27 Au35 2.955438 1_555
Au27 Au42 2.955438 1_555
Au28 Mg24 2.926939 1_555
Au28 Mg23 2.926939 1_555
Au28 Mg2 2.930176 1_555
Au28 Mg7 2.930176 1_554
Au28 Au54 2.941257 1_555
Au28 Au47 2.941257 1_554
Au28 Au70 2.942970 1_555
Au28 Au80 2.942970 1_554
Au28 Au35 2.955438 1_554
Au28 Au42 2.955438 1_555
Au29 Mg25 2.926939 1_555
Au29 Mg22 2.926939 1_555
Au29 Mg3 2.930176 1_555
Au29 Mg6 2.930176 1_555
Au29 Au49 2.941257 1_555
Au29 Au56 2.941257 1_555
Au29 Au71 2.942970 1_555
Au29 Au76 2.942970 1_555
Au29 Au3 2.946179 1_555
Au29 Au44 2.955438 1_555
Au29 Au37 2.955438 1_555
Au30 Mg21 2.926939 1_555
Au30 Mg25 2.926939 1_555
Au30 Mg5 2.930176 1_555
Au30 Mg4 2.930176 1_555
Au30 Au46 2.941257 1_555
Au30 Au57 2.941257 1_555
Au30 Au78 2.942970 1_555
Au30 Au72 2.942970 1_555
Au30 Au45 2.955438 1_555
Au30 Au34 2.955438 1_555
Au31 Mg24 2.926939 1_555
Au31 Mg20 2.926939 1_555
Au31 Mg4 2.930176 1_654
Au31 Mg5 2.930176 1_655
Au31 Au53 2.941257 1_554
Au31 Au52 2.941257 1_555
Au31 Au79 2.942970 1_654
Au31 Au73 2.942970 1_655
Au31 Au40 2.955438 1_555
Au31 Au41 2.955438 1_554
Au32 Mg23 2.926939 1_555
Au32 Mg20 2.926939 1_555
Au32 Mg3 2.930176 1_554
Au32 Mg6 2.930176 1_555
Au32 Au51 2.941257 1_555
Au32 Au48 2.941257 1_554
Au32 Au81 2.942970 1_554
Au32 Au74 2.942970 1_555
Au32 Au36 2.955438 1_554
Au32 Au39 2.955438 1_555
Au33 Mg21 2.926939 1_555
Au33 Mg22 2.926939 1_555
Au33 Mg7 2.930176 1_565
Au33 Mg2 2.930176 1_565
Au33 Au55 2.941257 1_555
Au33 Au50 2.941257 1_555
Au33 Au77 2.942970 1_565
Au33 Au75 2.942970 1_565
Au33 Au38 2.955438 1_555
Au33 Au43 2.955438 1_555
Au34 Au58 2.885149 1_555
Au34 Mg14 2.899759 1_555
Au34 Mg25 2.899759 1_555
Au34 Au49 2.903563 1_555
Au34 Mg5 2.915543 1_555
Au34 Au46 2.972849 1_555
Au34 Au37 3.003268 1_555
Au34 Au38 3.003268 1_555
Au35 Au59 2.885136 1_555
Au35 Mg24 2.899759 1_556
Au35 Mg15 2.899759 1_555
Au35 Au53 2.903563 1_555
Au35 Mg7 2.915543 1_555
Au35 Au47 2.972848 1_555
Au35 Au41 3.003268 1_555
Au35 Au36 3.003268 1_555
Au36 Au60 2.885149 1_555
Au36 Mg16 2.899759 1_555
Au36 Mg23 2.899759 1_556
Au36 Au47 2.903563 1_555
Au36 Mg3 2.915543 1_555
Au36 Au48 2.972848 1_555
Au36 Au41 3.003268 1_555
Au37 Au61 2.885149 1_555
Au37 Mg22 2.899759 1_555
Au37 Mg17 2.899759 1_555
Au37 Au50 2.903563 1_555
Au37 Mg6 2.915543 1_555
Au37 Au49 2.972848 1_555
Au37 Au38 3.003268 1_555
Au38 Au62 2.885136 1_555
Au38 Mg21 2.899759 1_555
Au38 Mg18 2.899759 1_555
Au38 Au46 2.903563 1_555
Au38 Mg2 2.915543 1_565
Au38 Au50 2.972848 1_555
Au39 Au63 2.885149 1_555
Au39 Mg19 2.899759 1_555
Au39 Mg20 2.899759 1_555
Au39 Au52 2.903563 1_555
Au39 Mg6 2.915543 1_555
Au39 Au51 2.972848 1_555
Au39 Au42 3.003268 1_555
Au39 Au40 3.003268 1_555
Au40 Au64 2.885136 1_555
Au40 Mg24 2.899759 1_555
Au40 Mg15 2.899759 1_555
Au40 Au54 2.903563 1_555
Au40 Mg5 2.915543 1_655
Au40 Au52 2.972848 1_555
Au40 Au42 3.003268 1_555
Au41 Au65 2.885149 1_555
Au41 Mg20 2.899759 1_556
Au41 Mg19 2.899759 1_555
Au41 Au48 2.903563 1_555
Au41 Mg4 2.915543 1_655
Au41 Au53 2.972849 1_555
Au42 Au66 2.885149 1_555
Au42 Mg23 2.899759 1_555
Au42 Mg16 2.899759 1_555
Au42 Au51 2.903563 1_555
Au42 Mg2 2.915543 1_555
Au42 Au54 2.972849 1_555
Au43 Au67 2.885149 1_555
Au43 Mg17 2.899759 1_556
Au43 Mg22 2.899759 1_555
Au43 Au56 2.903563 1_555
Au43 Mg7 2.915543 1_565
Au43 Au55 2.972849 1_555
Au43 Au44 3.003268 1_555
Au43 Au45 3.003268 1_555
Au44 Au68 2.885149 1_555
Au44 Mg25 2.899759 1_555
Au44 Mg14 2.899759 1_556
Au44 Au57 2.903563 1_555
Au44 Mg3 2.915543 1_555
Au44 Au56 2.972848 1_555
Au44 Au45 3.003268 1_555
Au45 Au69 2.885136 1_555
Au45 Mg18 2.899759 1_556
Au45 Mg21 2.899759 1_555
Au45 Au55 2.903563 1_555
Au45 Mg4 2.915543 1_555
Au45 Au57 2.972848 1_555
Au46 Mg11 2.902466 1_555
Au46 Au52 2.915307 1_455
Au46 Mg5 2.915637 1_555
Au46 Au62 2.927306 1_555
Au46 Mg21 2.945546 1_555
Au46 Mg18 2.945546 1_555
Au46 Au72 2.950373 1_555
Au46 Au79 2.950373 1_554
Au47 Mg13 2.902466 1_555
Au47 Au55 2.915307 1_545
Au47 Mg7 2.915637 1_555
Au47 Au60 2.927319 1_555
Au47 Mg23 2.945546 1_556
Au47 Mg16 2.945546 1_555
Au47 Au70 2.950373 1_556
Au47 Au75 2.950373 1_555
Au48 Mg9 2.902466 1_555
Au48 Au56 2.915307 1_555
Au48 Mg3 2.915637 1_555
Au48 Au65 2.927306 1_555
Au48 Mg19 2.945546 1_555
Au48 Mg20 2.945546 1_556
Au48 Au74 2.950373 1_556
Au48 Au76 2.950373 1_555
Au49 Mg12 2.902466 1_555
Au49 Au51 2.915307 1_555
Au49 Mg6 2.915637 1_555
Au49 Au58 2.927306 1_555
Au49 Mg25 2.945546 1_555
Au49 Mg14 2.945546 1_555
Au49 Au71 2.950373 1_555
Au49 Au81 2.950373 1_554
Au50 Mg8 2.902466 1_565
Au50 Au54 2.915307 1_565
Au50 Mg2 2.915637 1_565
Au50 Au61 2.927319 1_555
Au50 Mg17 2.945546 1_555
Au50 Mg22 2.945546 1_555
Au50 Au77 2.950373 1_565
Au50 Au80 2.950373 1_564
Au51 Mg12 2.902466 1_555
Au51 Mg6 2.915637 1_555
Au51 Au66 2.927306 1_555
Au51 Mg16 2.945546 1_555
Au51 Mg23 2.945546 1_555
Au51 Au71 2.950373 1_555
Au51 Au81 2.950373 1_554
Au52 Mg11 2.902466 1_655
Au52 Mg5 2.915637 1_655
Au52 Au63 2.927319 1_555
Au52 Mg19 2.945546 1_555
Au52 Mg20 2.945546 1_555
Au52 Au72 2.950373 1_655
Au52 Au79 2.950373 1_654
Au53 Mg10 2.902466 1_655
Au53 Au57 2.915307 1_655
Au53 Mg4 2.915637 1_655
Au53 Au59 2.927306 1_555
Au53 Mg24 2.945546 1_556
Au53 Mg15 2.945546 1_555
Au53 Au73 2.950373 1_656
Au53 Au78 2.950373 1_655
Au54 Mg8 2.902466 1_555
Au54 Mg2 2.915637 1_555
Au54 Au64 2.927306 1_555
Au54 Mg15 2.945546 1_555
Au54 Mg24 2.945546 1_555
Au54 Au77 2.950373 1_555
Au54 Au80 2.950373 1_554
Au55 Mg13 2.902466 1_565
Au55 Mg7 2.915637 1_565
Au55 Au69 2.927306 1_555
Au55 Mg18 2.945546 1_556
Au55 Mg21 2.945546 1_555
Au55 Au70 2.950373 1_566
Au55 Au75 2.950373 1_565
Au56 Mg9 2.902466 1_555
Au56 Mg3 2.915637 1_555
Au56 Au67 2.927306 1_555
Au56 Mg22 2.945546 1_555
Au56 Mg17 2.945546 1_556
Au56 Au74 2.950373 1_556
Au56 Au76 2.950373 1_555
Au57 Mg10 2.902466 1_555
Au57 Mg4 2.915637 1_555
Au57 Au68 2.927319 1_555
Au57 Mg14 2.945546 1_556
Au57 Mg25 2.945546 1_555
Au57 Au73 2.950373 1_556
Au57 Au78 2.950373 1_555
Au58 Mg12 2.916143 1_555
Au58 Au78 2.936331 1_555
Au58 Au73 2.936331 1_555
Au58 Au7 2.944201 1_555
Au58 Au64 2.949134 1_455
Au58 Mg25 2.953147 1_555
Au58 Mg14 2.953147 1_555
Au58 Mg5 2.959602 1_555
Au59 Mg10 2.916156 1_655
Au59 Au80 2.936326 1_555
Au59 Au77 2.936326 1_555
Au59 Au9 2.944228 1_555
Au59 Au67 2.949134 1_545
Au59 Mg15 2.953143 1_555
Au59 Mg24 2.953143 1_556
Au59 Mg7 2.959589 1_555
Au60 Mg13 2.916157 1_555
Au60 Au81 2.936322 1_555
Au60 Au71 2.936322 1_555
Au60 Au68 2.949108 1_555
Au60 Mg23 2.953152 1_556
Au60 Mg16 2.953152 1_555
Au60 Mg3 2.959589 1_555
Au61 Mg8 2.916157 1_565
Au61 Au76 2.936322 1_555
Au61 Au74 2.936322 1_555
Au61 Au8 2.944214 1_555
Au61 Au63 2.949108 1_555
Au61 Mg22 2.953152 1_555
Au61 Mg17 2.953152 1_555
Au61 Mg6 2.959589 1_555
Au62 Mg11 2.916156 1_555
Au62 Au75 2.936326 1_565
Au62 Au70 2.936326 1_565
Au62 Au66 2.949134 1_565
Au62 Mg21 2.953143 1_555
Au62 Mg18 2.953143 1_555
Au62 Mg2 2.959589 1_565
Au63 Mg11 2.916157 1_655
Au63 Au76 2.936322 1_555
Au63 Au74 2.936322 1_555
Au63 Au8 2.944214 1_555
Au63 Mg20 2.953152 1_555
Au63 Mg19 2.953152 1_555
Au63 Mg6 2.959589 1_555
Au64 Mg8 2.916156 1_555
Au64 Au78 2.936326 1_655
Au64 Au73 2.936326 1_655
Au64 Au7 2.944214 1_655
Au64 Mg24 2.953143 1_555
Au64 Mg15 2.953143 1_555
Au64 Mg5 2.959589 1_655
Au65 Mg9 2.916143 1_555
Au65 Au79 2.936331 1_655
Au65 Au72 2.936331 1_655
Au65 Au69 2.949134 1_655
Au65 Mg19 2.953147 1_555
Au65 Mg20 2.953147 1_556
Au65 Mg4 2.959602 1_655
Au66 Mg12 2.916143 1_555
Au66 Au75 2.936331 1_555
Au66 Au70 2.936331 1_555
Au66 Mg16 2.953147 1_555
Au66 Mg23 2.953147 1_555
Au66 Mg2 2.959602 1_555
Au67 Mg9 2.916143 1_555
Au67 Au80 2.936331 1_565
Au67 Au77 2.936331 1_565
Au67 Au9 2.944214 1_565
Au67 Mg22 2.953147 1_555
Au67 Mg17 2.953147 1_556
Au67 Mg7 2.959602 1_565
Au68 Mg10 2.916157 1_555
Au68 Au81 2.936322 1_555
Au68 Au71 2.936322 1_555
Au68 Mg14 2.953152 1_556
Au68 Mg25 2.953152 1_555
Au68 Mg3 2.959589 1_555
Au69 Mg13 2.916156 1_565
Au69 Au79 2.936326 1_555
Au69 Au72 2.936326 1_555
Au69 Mg21 2.953143 1_555
Au69 Mg18 2.953143 1_556
Au69 Mg4 2.959589 1_555
Au70 Mg13 2.919768 1_554
Au70 Mg23 2.944358 1_555
Au70 Mg18 2.944358 1_545
Au70 Mg2 2.954527 1_555
Au71 Mg12 2.919768 1_555
Au71 Mg25 2.944358 1_555
Au71 Mg16 2.944358 1_555
Au71 Mg3 2.954527 1_555
Au72 Mg11 2.919768 1_555
Au72 Mg19 2.944358 1_455
Au72 Mg21 2.944358 1_555
Au72 Mg4 2.954527 1_555
Au73 Mg10 2.919768 1_554
Au73 Mg14 2.944358 1_555
Au73 Mg24 2.944358 1_455
Au73 Mg5 2.954527 1_555
Au74 Mg9 2.919768 1_554
Au74 Mg20 2.944358 1_555
Au74 Mg17 2.944358 1_555
Au74 Mg6 2.954527 1_555
Au75 Mg13 2.919768 1_555
Au75 Mg16 2.944358 1_555
Au75 Mg21 2.944358 1_545
Au75 Mg2 2.954527 1_555
Au76 Mg9 2.919768 1_555
Au76 Mg19 2.944358 1_555
Au76 Mg22 2.944358 1_555
Au76 Mg6 2.954527 1_555
Au77 Mg8 2.919768 1_555
Au77 Mg22 2.944358 1_545
Au77 Mg15 2.944358 1_555
Au77 Mg7 2.954527 1_555
Au78 Mg10 2.919768 1_555
Au78 Mg25 2.944358 1_555
Au78 Mg15 2.944358 1_455
Au78 Mg5 2.954527 1_555
Au79 Mg11 2.919768 1_556
Au79 Mg20 2.944358 1_456
Au79 Mg18 2.944358 1_556
Au79 Mg4 2.954527 1_555
Au80 Mg8 2.919768 1_556
Au80 Mg17 2.944358 1_546
Au80 Mg24 2.944358 1_556
Au80 Mg7 2.954527 1_555
Au81 Mg12 2.919768 1_556
Au81 Mg14 2.944358 1_556
Au81 Mg23 2.944358 1_556
Au81 Mg3 2.954527 1_555
