# generated using pymatgen
data_Rb9ZrTaAs6
_symmetry_space_group_name_H-M   'P 1'
_cell_length_a   9.53276539
_cell_length_b   9.81435466
_cell_length_c   13.45110351
_cell_angle_alpha   83.68328349
_cell_angle_beta   90.00000000
_cell_angle_gamma   90.00000000
_symmetry_Int_Tables_number   1
_chemical_formula_structural   Rb9ZrTaAs6
_chemical_formula_sum   'Rb18 Zr2 Ta2 As12'
_cell_volume   1250.81731590
_cell_formula_units_Z   2
loop_
 _symmetry_equiv_pos_site_id
 _symmetry_equiv_pos_as_xyz
  1  'x, y, z'
loop_
 _atom_site_type_symbol
 _atom_site_label
 _atom_site_symmetry_multiplicity
 _atom_site_fract_x
 _atom_site_fract_y
 _atom_site_fract_z
 _atom_site_occupancy
  Rb  Rb0  1  0.34947201  0.58728665  0.17177540  1
  Rb  Rb1  1  0.41378305  0.93702815  0.56927296  1
  Rb  Rb2  1  0.43550220  0.62903541  0.90183334  1
  Rb  Rb3  1  0.48630475  0.16287940  0.29724270  1
  Rb  Rb4  1  0.51369525  0.16287940  0.79724270  1
  Rb  Rb5  1  0.56449780  0.62903541  0.40183334  1
  Rb  Rb6  1  0.58621695  0.93702815  0.06927296  1
  Rb  Rb7  1  0.65052799  0.58728665  0.67177540  1
  Rb  Rb8  1  0.81153176  0.01335339  0.60425200  1
  Rb  Rb9  1  0.82732809  0.40178343  0.33686216  1
  Rb  Rb10  1  0.94846103  0.07547723  0.89699355  1
  Rb  Rb11  1  0.93056617  0.39822003  0.61280844  1
  Rb  Rb12  1  0.92747474  0.80123236  0.22179169  1
  Rb  Rb13  1  0.07252526  0.80123236  0.72179169  1
  Rb  Rb14  1  0.06943383  0.39822003  0.11280844  1
  Rb  Rb15  1  0.05153897  0.07547723  0.39699355  1
  Rb  Rb16  1  0.17267191  0.40178343  0.83686216  1
  Rb  Rb17  1  0.18846824  0.01335339  0.10425200  1
  Zr  Zr0  1  0.31985823  0.34047299  0.54958117  1
  Zr  Zr1  1  0.68014177  0.34047299  0.04958117  1
  Ta  Ta0  1  0.83693085  0.65714390  0.94783188  1
  Ta  Ta1  1  0.16306915  0.65714390  0.44783188  1
  As  As0  1  0.29713712  0.59224528  0.60872037  1
  As  As1  1  0.28458878  0.83652751  0.33534436  1
  As  As2  1  0.41691314  0.28083628  0.03189467  1
  As  As3  1  0.58308686  0.28083628  0.53189467  1
  As  As4  1  0.71541122  0.83652751  0.83534436  1
  As  As5  1  0.70286288  0.59224528  0.10872037  1
  As  As6  1  0.81858623  0.42796683  0.88099553  1
  As  As7  1  0.82277245  0.15385970  0.15913397  1
  As  As8  1  0.91890077  0.72284847  0.48076581  1
  As  As9  1  0.08109923  0.72284847  0.98076581  1
  As  As10  1  0.17722755  0.15385970  0.65913397  1
  As  As11  1  0.18141377  0.42796683  0.38099553  1
loop_
_geom_bond_atom_site_label_1
_geom_bond_atom_site_label_2
_geom_bond_distance
_geom_bond_site_symmetry_2
As0 Ta1 2.533614 1_555
As0 Zr0 2.686634 1_555
As0 Rb13 3.433833 1_555
As0 Rb7 3.472956 1_555
As0 Rb1 3.545864 1_555
As0 Rb16 3.613437 1_555
As0 Rb5 3.761565 1_555
As1 Ta1 2.478842 1_555
As1 Rb15 3.398647 1_565
As1 Rb5 3.415536 1_555
As1 Rb17 3.510942 1_565
As1 Rb0 3.520121 1_555
As1 Rb1 3.615757 1_555
As1 Rb3 3.722609 1_565
As1 Rb12 3.762785 1_455
As2 Zr1 2.593527 1_555
As2 Rb17 3.466844 1_555
As2 Rb4 3.599702 1_554
As2 Rb16 3.609289 1_554
As2 Rb2 3.668072 1_554
As2 Rb3 3.688888 1_555
As2 Rb14 3.709439 1_555
As2 Rb6 3.724225 1_545
As2 Rb0 3.774193 1_555
As3 Zr0 2.593527 1_555
As3 Rb8 3.466844 1_555
As3 Rb3 3.599702 1_555
As3 Rb9 3.609289 1_555
As3 Rb5 3.668072 1_555
As3 Rb4 3.688888 1_555
As3 Rb11 3.709439 1_555
As3 Rb1 3.724225 1_545
As3 Rb7 3.774193 1_555
As4 Ta0 2.478842 1_555
As4 Rb10 3.398647 1_565
As4 Rb2 3.415536 1_555
As4 Rb8 3.510942 1_565
As4 Rb7 3.520121 1_555
As4 Rb6 3.615757 1_556
As4 Rb4 3.722609 1_565
As4 Rb13 3.762785 1_655
As5 Ta0 2.533614 1_554
As5 Zr1 2.686634 1_555
As5 Rb12 3.433833 1_555
As5 Rb0 3.472956 1_555
As5 Rb6 3.545864 1_555
As5 Rb9 3.613437 1_555
As5 Rb2 3.761565 1_554
As6 Ta0 2.518491 1_555
As6 Zr1 2.681964 1_556
As6 Rb16 3.441721 1_655
As6 Rb7 3.458780 1_555
As6 Rb10 3.658299 1_555
As6 Rb11 3.803934 1_555
As7 Zr1 2.603971 1_555
As7 Rb14 3.367479 1_655
As7 Rb6 3.411868 1_545
As7 Rb9 3.594103 1_555
As7 Rb12 3.611358 1_545
As7 Rb3 3.712543 1_555
As7 Rb17 3.850117 1_655
As7 Rb15 3.878480 1_655
As7 Rb10 3.880397 1_554
As8 Ta1 2.468331 1_655
As8 Rb11 3.474548 1_555
As8 Rb12 3.484750 1_555
As8 Rb8 3.602441 1_565
As8 Rb5 3.688353 1_555
As8 Rb13 3.714332 1_655
As8 Rb15 3.740005 1_665
As8 Rb7 3.763540 1_555
As9 Ta0 2.468331 1_455
As9 Rb14 3.474548 1_556
As9 Rb13 3.484750 1_555
As9 Rb17 3.602441 1_566
As9 Rb2 3.688353 1_555
As9 Rb12 3.714332 1_456
As9 Rb10 3.740005 1_465
As9 Rb0 3.763540 1_556
As10 Zr0 2.603971 1_555
As10 Rb11 3.367479 1_455
As10 Rb1 3.411868 1_545
As10 Rb16 3.594103 1_555
As10 Rb13 3.611358 1_545
As10 Rb4 3.712543 1_555
As10 Rb8 3.850117 1_455
As10 Rb10 3.878480 1_455
As10 Rb15 3.880397 1_555
As11 Ta1 2.518491 1_555
As11 Zr0 2.681964 1_555
As11 Rb9 3.441721 1_455
As11 Rb0 3.458780 1_555
As11 Rb15 3.658299 1_555
As11 Rb14 3.803934 1_555
