# generated using pymatgen
data_SrY6PdI12
_symmetry_space_group_name_H-M   'P 1'
_cell_length_a   9.75287913
_cell_length_b   9.75287804
_cell_length_c   9.75287861
_cell_angle_alpha   106.30050099
_cell_angle_beta   106.30049673
_cell_angle_gamma   106.30049251
_symmetry_Int_Tables_number   1
_chemical_formula_structural   SrY6PdI12
_chemical_formula_sum   'Sr1 Y6 Pd1 I12'
_cell_volume   786.85812419
_cell_formula_units_Z   1
loop_
 _symmetry_equiv_pos_site_id
 _symmetry_equiv_pos_as_xyz
  1  'x, y, z'
loop_
 _atom_site_type_symbol
 _atom_site_label
 _atom_site_symmetry_multiplicity
 _atom_site_fract_x
 _atom_site_fract_y
 _atom_site_fract_z
 _atom_site_occupancy
  Sr  Sr0  1  0.50000000  0.50000000  0.50000000  1
  Y  Y0  1  0.70003103  0.97868203  0.90387220  1
  Y  Y1  1  0.97868203  0.90387220  0.70003103  1
  Y  Y2  1  0.09612780  0.29996897  0.02131797  1
  Y  Y3  1  0.29996897  0.02131797  0.09612780  1
  Y  Y4  1  0.90387220  0.70003103  0.97868203  1
  Y  Y5  1  0.02131797  0.09612780  0.29996897  1
  Pd  Pd0  1  0.00000000  0.00000000  0.00000000  1
  I  I0  1  0.07345144  0.22434441  0.67305479  1
  I  I1  1  0.37032719  0.13497627  0.45142417  1
  I  I2  1  0.62967281  0.86502373  0.54857583  1
  I  I3  1  0.22434441  0.67305479  0.07345144  1
  I  I4  1  0.77565559  0.32694521  0.92654856  1
  I  I5  1  0.67305479  0.07345144  0.22434441  1
  I  I6  1  0.54857583  0.62967281  0.86502373  1
  I  I7  1  0.86502373  0.54857583  0.62967281  1
  I  I8  1  0.92654856  0.77565559  0.32694521  1
  I  I9  1  0.32694521  0.92654856  0.77565559  1
  I  I10  1  0.45142417  0.37032719  0.13497627  1
  I  I11  1  0.13497627  0.45142417  0.37032719  1
loop_
_geom_bond_atom_site_label_1
_geom_bond_atom_site_label_2
_geom_bond_distance
_geom_bond_site_symmetry_2
Pd0 Y2 2.736888 1_555
Pd0 Y4 2.736888 1_444
Pd0 Y5 2.736888 1_555
Pd0 Y1 2.736888 1_444
Pd0 Y3 2.736889 1_555
Pd0 Y0 2.736889 1_444
I0 Y1 3.109482 1_445
I0 Y2 3.195319 1_556
I0 Y5 3.333532 1_555
I1 Y3 3.128740 1_555
I1 Y5 3.170344 1_555
I1 Sr0 3.269132 1_555
I2 Y0 3.128740 1_555
I2 Y1 3.170344 1_555
I2 Sr0 3.269132 1_555
I3 Y4 3.109482 1_454
I3 Y3 3.195319 1_565
I3 Y2 3.333532 1_555
I4 Y2 3.109482 1_656
I4 Y0 3.195319 1_545
I4 Y4 3.333532 1_555
I5 Y0 3.109482 1_544
I5 Y5 3.195319 1_655
I5 Y3 3.333532 1_555
I6 Y4 3.128740 1_555
I6 Y0 3.170343 1_555
I6 Sr0 3.269132 1_555
I7 Y1 3.128740 1_555
I7 Y4 3.170343 1_555
I7 Sr0 3.269133 1_555
I8 Y5 3.109482 1_665
I8 Y4 3.195319 1_554
I8 Y1 3.333532 1_555
I9 Y3 3.109482 1_566
I9 Y1 3.195319 1_455
I9 Y0 3.333532 1_555
I10 Y2 3.128740 1_555
I10 Y3 3.170343 1_555
I10 Sr0 3.269132 1_555
I11 Y5 3.128740 1_555
I11 Y2 3.170343 1_555
I11 Sr0 3.269133 1_555
