# generated using pymatgen
data_Dy5Ru2
_symmetry_space_group_name_H-M   'P 1'
_cell_length_a   6.33178326
_cell_length_b   7.22045874
_cell_length_c   8.45697491
_cell_angle_alpha   96.71124539
_cell_angle_beta   111.94904106
_cell_angle_gamma   90.00217892
_symmetry_Int_Tables_number   1
_chemical_formula_structural   Dy5Ru2
_chemical_formula_sum   'Dy10 Ru4'
_cell_volume   355.75559506
_cell_formula_units_Z   2
loop_
 _symmetry_equiv_pos_site_id
 _symmetry_equiv_pos_as_xyz
  1  'x, y, z'
loop_
 _atom_site_type_symbol
 _atom_site_label
 _atom_site_symmetry_multiplicity
 _atom_site_fract_x
 _atom_site_fract_y
 _atom_site_fract_z
 _atom_site_occupancy
  Dy  Dy0  1  0.97992527  0.41288256  0.18691483  1
  Dy  Dy1  1  0.79316786  0.08694003  0.81304650  1
  Dy  Dy2  1  0.35804170  0.68548884  0.56691957  1
  Dy  Dy3  1  0.79126692  0.81434070  0.43285314  1
  Dy  Dy4  1  0.64195830  0.31451116  0.43308043  1
  Dy  Dy5  1  0.20873308  0.18565930  0.56714686  1
  Dy  Dy6  1  0.20683214  0.91305997  0.18695350  1
  Dy  Dy7  1  0.02007473  0.58711744  0.81308517  1
  Dy  Dy8  1  0.42162511  0.25000209  0.00006055  1
  Dy  Dy9  1  0.57837489  0.74999791  0.99993945  1
  Ru  Ru0  1  0.60555663  0.42509446  0.77802004  1
  Ru  Ru1  1  0.82703174  0.07486676  0.22172613  1
  Ru  Ru2  1  0.39444437  0.57490554  0.22197996  1
  Ru  Ru3  1  0.17296826  0.92513324  0.77827387  1
loop_
_geom_bond_atom_site_label_1
_geom_bond_atom_site_label_2
_geom_bond_distance
_geom_bond_site_symmetry_2
Dy0 Ru1 2.713182 1_555
Dy0 Ru2 2.771670 1_655
Dy0 Ru0 3.395301 1_554
Dy1 Ru0 2.714158 1_555
Dy1 Ru3 2.771850 1_645
Dy1 Ru1 3.393416 1_556
Dy2 Ru0 2.805625 1_555
Dy2 Ru3 2.899182 1_555
Dy2 Ru2 3.026327 1_555
Dy3 Ru1 2.804488 1_565
Dy3 Ru2 2.900287 1_555
Dy3 Ru3 3.031561 1_655
Dy4 Ru2 2.805623 1_555
Dy4 Ru1 2.899182 1_555
Dy4 Ru0 3.026325 1_555
Dy5 Ru3 2.804488 1_545
Dy5 Ru0 2.900291 1_555
Dy5 Ru1 3.031561 1_455
Dy6 Ru2 2.714161 1_555
Dy6 Ru1 2.771850 1_465
Dy6 Ru3 3.393416 1_554
Dy7 Ru3 2.713182 1_555
Dy7 Ru0 2.771664 1_455
Dy7 Ru2 3.395303 1_556
Dy8 Ru3 2.874539 1_544
Dy8 Ru2 2.875375 1_555
Dy8 Ru1 2.942708 1_555
Dy8 Ru0 2.944548 1_554
Dy9 Ru1 2.874539 1_566
Dy9 Ru0 2.875377 1_555
Dy9 Ru3 2.942708 1_555
Dy9 Ru2 2.944544 1_556
