# generated using pymatgen
data_Na3WF8
_symmetry_space_group_name_H-M   'P 1'
_cell_length_a   6.28479183
_cell_length_b   6.28479122
_cell_length_c   11.18276406
_cell_angle_alpha   61.96180831
_cell_angle_beta   61.96181113
_cell_angle_gamma   49.69556955
_symmetry_Int_Tables_number   1
_chemical_formula_structural   Na3WF8
_chemical_formula_sum   'Na6 W2 F16'
_cell_volume   288.13318002
_cell_formula_units_Z   2
loop_
 _symmetry_equiv_pos_site_id
 _symmetry_equiv_pos_as_xyz
  1  'x, y, z'
loop_
 _atom_site_type_symbol
 _atom_site_label
 _atom_site_symmetry_multiplicity
 _atom_site_fract_x
 _atom_site_fract_y
 _atom_site_fract_z
 _atom_site_occupancy
  Na  Na0  1  0.29022473  0.27845988  0.60003060  1
  Na  Na1  1  0.72154012  0.70977527  0.89996940  1
  Na  Na2  1  0.70977527  0.72154012  0.39996940  1
  Na  Na3  1  0.27845988  0.29022473  0.10003060  1
  Na  Na4  1  0.00000000  0.00000000  0.50000000  1
  Na  Na5  1  0.00000000  0.00000000  0.00000000  1
  W  W0  1  0.56644272  0.43355728  0.75000000  1
  W  W1  1  0.43355728  0.56644272  0.25000000  1
  F  F0  1  0.62853336  0.10594982  0.71526590  1
  F  F1  1  0.89405018  0.37146664  0.78473410  1
  F  F2  1  0.37146664  0.89405018  0.28473410  1
  F  F3  1  0.10594982  0.62853336  0.21526590  1
  F  F4  1  0.20547942  0.44311379  0.86160882  1
  F  F5  1  0.55688621  0.79452058  0.63839118  1
  F  F6  1  0.79452058  0.55688621  0.13839118  1
  F  F7  1  0.44311379  0.20547942  0.36160882  1
  F  F8  1  0.65624264  0.37711791  0.39106984  1
  F  F9  1  0.62288209  0.34375736  0.10893016  1
  F  F10  1  0.34375736  0.62288209  0.60893016  1
  F  F11  1  0.37711791  0.65624264  0.89106984  1
  F  F12  1  0.10628403  0.67072107  0.42081747  1
  F  F13  1  0.32927893  0.89371597  0.07918253  1
  F  F14  1  0.89371597  0.32927893  0.57918253  1
  F  F15  1  0.67072107  0.10628403  0.92081747  1
loop_
_geom_bond_atom_site_label_1
_geom_bond_atom_site_label_2
_geom_bond_distance
_geom_bond_site_symmetry_2
F0 W0 2.027888 1_555
F0 Na1 2.285770 1_545
F0 Na0 2.374226 1_555
F0 Na4 2.429202 1_655
F1 W0 2.027888 1_555
F1 Na0 2.285770 1_655
F1 Na1 2.374226 1_555
F1 Na5 2.429202 1_656
F2 W1 2.027888 1_555
F2 Na3 2.285770 1_565
F2 Na2 2.374226 1_555
F2 Na4 2.429202 1_565
F3 W1 2.027888 1_555
F3 Na2 2.285770 1_455
F3 Na3 2.374226 1_555
F3 Na5 2.429202 1_565
F4 W0 1.984980 1_555
F4 Na1 2.257920 1_455
F4 Na3 2.532465 1_556
F5 W0 1.984980 1_555
F5 Na0 2.257920 1_565
F5 Na2 2.532465 1_555
F6 W1 1.984980 1_555
F6 Na3 2.257920 1_655
F6 Na1 2.532465 1_554
F7 W1 1.984980 1_555
F7 Na2 2.257920 1_545
F7 Na0 2.532465 1_555
F8 W1 2.004931 1_555
F8 Na4 2.214572 1_655
F8 Na2 2.446395 1_555
F8 Na0 2.562441 1_555
F9 W1 2.004931 1_555
F9 Na5 2.214572 1_655
F9 Na3 2.446395 1_555
F9 Na1 2.562440 1_554
F10 W0 2.004931 1_555
F10 Na4 2.214572 1_565
F10 Na0 2.446395 1_555
F10 Na2 2.562441 1_555
F11 W0 2.004931 1_555
F11 Na5 2.214572 1_566
F11 Na1 2.446395 1_555
F11 Na3 2.562440 1_556
F12 W1 2.012044 1_555
F12 Na4 2.211612 1_565
F12 Na0 2.297110 1_555
F12 Na2 2.410980 1_455
F13 W1 2.012044 1_555
F13 Na5 2.211612 1_565
F13 Na1 2.297110 1_554
F13 Na3 2.410980 1_565
F14 W0 2.012044 1_555
F14 Na4 2.211612 1_655
F14 Na2 2.297110 1_555
F14 Na0 2.410980 1_655
F15 W0 2.012044 1_555
F15 Na5 2.211612 1_656
F15 Na3 2.297110 1_556
F15 Na1 2.410980 1_545
