# generated using pymatgen
data_CsRb2Ag3As2
_symmetry_space_group_name_H-M   'P 1'
_cell_length_a   8.15140460
_cell_length_b   8.15140491
_cell_length_c   8.15140576
_cell_angle_alpha   45.09395951
_cell_angle_beta   45.09395911
_cell_angle_gamma   45.09396017
_symmetry_Int_Tables_number   1
_chemical_formula_structural   CsRb2Ag3As2
_chemical_formula_sum   'Cs1 Rb2 Ag3 As2'
_cell_volume   247.34499865
_cell_formula_units_Z   1
loop_
 _symmetry_equiv_pos_site_id
 _symmetry_equiv_pos_as_xyz
  1  'x, y, z'
loop_
 _atom_site_type_symbol
 _atom_site_label
 _atom_site_symmetry_multiplicity
 _atom_site_fract_x
 _atom_site_fract_y
 _atom_site_fract_z
 _atom_site_occupancy
  Cs  Cs0  1  0.50000000  0.50000000  0.50000000  1
  Rb  Rb0  1  0.09049940  0.09049940  0.09049940  1
  Rb  Rb1  1  0.90950060  0.90950060  0.90950060  1
  Ag  Ag0  1  0.00000000  0.50000000  0.50000000  1
  Ag  Ag1  1  0.50000000  0.50000000  0.00000000  1
  Ag  Ag2  1  0.50000000  0.00000000  0.50000000  1
  As  As0  1  0.74869997  0.74869997  0.74869997  1
  As  As1  1  0.25130003  0.25130003  0.25130003  1
loop_
_geom_bond_atom_site_label_1
_geom_bond_atom_site_label_2
_geom_bond_distance
_geom_bond_site_symmetry_2
Cs0 Rb1 3.976794 1_554
Cs0 Rb0 3.976794 1_556
Cs0 Rb1 3.976794 1_545
Cs0 Rb0 3.976794 1_565
Cs0 Rb1 3.976794 1_455
Cs0 Rb0 3.976794 1_655
Ag0 As0 2.547900 1_455
Ag0 As1 2.547900 1_555
Ag0 Rb0 3.702282 1_565
Ag0 Rb1 3.702282 1_445
Ag0 Rb0 3.702283 1_556
Ag0 Rb1 3.702283 1_454
Ag0 Cs0 4.075702 1_455
Ag0 Cs0 4.075702 1_555
Ag1 As0 2.547900 1_554
Ag1 As1 2.547900 1_555
Ag1 Rb0 3.702282 1_655
Ag1 Rb1 3.702282 1_454
Ag1 Rb0 3.702283 1_565
Ag1 Rb1 3.702283 1_544
Ag1 Cs0 4.075703 1_555
Ag1 Cs0 4.075703 1_554
Ag2 As0 2.547900 1_545
Ag2 As1 2.547900 1_555
Ag2 Rb0 3.702282 1_655
Ag2 Rb1 3.702282 1_445
Ag2 Rb0 3.702283 1_556
Ag2 Rb1 3.702283 1_544
Ag2 Cs0 4.075702 1_555
Ag2 Cs0 4.075702 1_545
As0 Rb1 3.525817 1_555
As0 Rb0 3.613882 1_566
As0 Rb0 3.613882 1_656
As0 Rb0 3.613882 1_665
As0 Cs0 4.058250 1_655
As0 Cs0 4.058250 1_565
As0 Cs0 4.058251 1_556
As1 Rb0 3.525817 1_555
As1 Rb1 3.613882 1_544
As1 Rb1 3.613882 1_454
As1 Rb1 3.613882 1_445
As1 Cs0 4.058250 1_455
As1 Cs0 4.058250 1_545
As1 Cs0 4.058251 1_554
