# generated using pymatgen
data_Be2ZnRu2
_symmetry_space_group_name_H-M   'P 1'
_cell_length_a   5.92658877
_cell_length_b   5.92658877
_cell_length_c   3.10832145
_cell_angle_alpha   90.00000000
_cell_angle_beta   90.00000000
_cell_angle_gamma   90.00000000
_symmetry_Int_Tables_number   1
_chemical_formula_structural   Be2ZnRu2
_chemical_formula_sum   'Be4 Zn2 Ru4'
_cell_volume   109.17809543
_cell_formula_units_Z   2
loop_
 _symmetry_equiv_pos_site_id
 _symmetry_equiv_pos_as_xyz
  1  'x, y, z'
loop_
 _atom_site_type_symbol
 _atom_site_label
 _atom_site_symmetry_multiplicity
 _atom_site_fract_x
 _atom_site_fract_y
 _atom_site_fract_z
 _atom_site_occupancy
  Be  Be0  1  0.87708903  0.37708903  0.00000000  1
  Be  Be1  1  0.37708903  0.12291097  0.00000000  1
  Be  Be2  1  0.62291097  0.87708903  0.00000000  1
  Be  Be3  1  0.12291097  0.62291097  0.00000000  1
  Zn  Zn0  1  0.00000000  0.00000000  0.00000000  1
  Zn  Zn1  1  0.50000000  0.50000000  0.00000000  1
  Ru  Ru0  1  0.67283404  0.17283404  0.50000000  1
  Ru  Ru1  1  0.17283404  0.32716596  0.50000000  1
  Ru  Ru2  1  0.82716596  0.67283404  0.50000000  1
  Ru  Ru3  1  0.32716596  0.82716596  0.50000000  1
loop_
_geom_bond_atom_site_label_1
_geom_bond_atom_site_label_2
_geom_bond_distance
_geom_bond_site_symmetry_2
Be0 Be3 2.060347 1_655
Be0 Ru0 2.312187 1_554
Be0 Ru0 2.312187 1_555
Be0 Zn0 2.350572 1_655
Be0 Zn1 2.350572 1_555
Be0 Ru1 2.361169 1_654
Be0 Ru1 2.361169 1_655
Be0 Ru2 2.361169 1_554
Be0 Ru2 2.361169 1_555
Be1 Be2 2.060347 1_545
Be1 Ru1 2.312187 1_554
Be1 Ru1 2.312187 1_555
Be1 Zn0 2.350572 1_555
Be1 Zn1 2.350572 1_555
Be1 Ru0 2.361169 1_554
Be1 Ru0 2.361169 1_555
Be1 Ru3 2.361169 1_544
Be1 Ru3 2.361169 1_545
Be2 Ru2 2.312187 1_554
Be2 Ru2 2.312187 1_555
Be2 Zn0 2.350572 1_665
Be2 Zn1 2.350572 1_555
Be2 Ru0 2.361169 1_565
Be2 Ru0 2.361169 1_564
Be2 Ru3 2.361169 1_555
Be2 Ru3 2.361169 1_554
Be3 Ru3 2.312187 1_555
Be3 Ru3 2.312187 1_554
Be3 Zn0 2.350572 1_565
Be3 Zn1 2.350572 1_555
Be3 Ru2 2.361169 1_455
Be3 Ru2 2.361169 1_454
Be3 Ru1 2.361169 1_555
Be3 Ru1 2.361169 1_554
Ru0 Zn0 2.687801 1_656
Ru0 Zn0 2.687801 1_655
Ru0 Zn1 2.687801 1_555
Ru0 Zn1 2.687801 1_556
Ru1 Zn0 2.687801 1_556
Ru1 Zn0 2.687801 1_555
Ru1 Zn1 2.687801 1_555
Ru1 Zn1 2.687801 1_556
Ru2 Zn1 2.687801 1_555
Ru2 Zn1 2.687801 1_556
Ru2 Zn0 2.687801 1_666
Ru2 Zn0 2.687801 1_665
Ru3 Zn1 2.687801 1_555
Ru3 Zn1 2.687801 1_556
Ru3 Zn0 2.687801 1_565
Ru3 Zn0 2.687801 1_566
