# generated using pymatgen
data_KRbHfTe3
_symmetry_space_group_name_H-M   'P 1'
_cell_length_a   14.38977434
_cell_length_b   6.99647367
_cell_length_c   9.48545019
_cell_angle_alpha   71.50898502
_cell_angle_beta   90.00000000
_cell_angle_gamma   90.00000000
_symmetry_Int_Tables_number   1
_chemical_formula_structural   KRbHfTe3
_chemical_formula_sum   'K4 Rb4 Hf4 Te12'
_cell_volume   905.67108269
_cell_formula_units_Z   4
loop_
 _symmetry_equiv_pos_site_id
 _symmetry_equiv_pos_as_xyz
  1  'x, y, z'
loop_
 _atom_site_type_symbol
 _atom_site_label
 _atom_site_symmetry_multiplicity
 _atom_site_fract_x
 _atom_site_fract_y
 _atom_site_fract_z
 _atom_site_occupancy
  K  K0  1  0.86516478  0.06459847  0.89742894  1
  K  K1  1  0.36516478  0.43540153  0.10257106  1
  K  K2  1  0.13483522  0.93540153  0.10257106  1
  K  K3  1  0.63483522  0.56459847  0.89742894  1
  Rb  Rb0  1  0.95332172  0.66464544  0.66253108  1
  Rb  Rb1  1  0.45332172  0.83535456  0.33746892  1
  Rb  Rb2  1  0.04667828  0.33535456  0.33746892  1
  Rb  Rb3  1  0.54667828  0.16464544  0.66253108  1
  Hf  Hf0  1  0.74888730  0.67374218  0.28769311  1
  Hf  Hf1  1  0.24888730  0.82625782  0.71230689  1
  Hf  Hf2  1  0.25111270  0.32625782  0.71230689  1
  Hf  Hf3  1  0.75111270  0.17374218  0.28769311  1
  Te  Te0  1  0.91179634  0.91069541  0.26907931  1
  Te  Te1  1  0.41179634  0.58930459  0.73092069  1
  Te  Te2  1  0.08820366  0.08930459  0.73092069  1
  Te  Te3  1  0.58820366  0.41069541  0.26907931  1
  Te  Te4  1  0.81476375  0.30443446  0.52161785  1
  Te  Te5  1  0.31476375  0.19556554  0.47838215  1
  Te  Te6  1  0.18523625  0.69556554  0.47838215  1
  Te  Te7  1  0.68523625  0.80443446  0.52161785  1
  Te  Te8  1  0.84530842  0.49630896  0.07472380  1
  Te  Te9  1  0.34530842  0.00369104  0.92527620  1
  Te  Te10  1  0.15469158  0.50369104  0.92527620  1
  Te  Te11  1  0.65469158  0.99630896  0.07472380  1
loop_
_geom_bond_atom_site_label_1
_geom_bond_atom_site_label_2
_geom_bond_distance
_geom_bond_site_symmetry_2
K0 Te0 3.410197 1_546
K0 Te11 3.423388 1_546
K0 Te4 3.500689 1_555
K0 Te2 3.556963 1_655
K0 Te8 3.804894 1_546
K0 Te8 3.905762 1_556
K1 Te1 3.410197 1_554
K1 Te10 3.423388 1_554
K1 Te5 3.500689 1_555
K1 Te3 3.556963 1_555
K1 Te9 3.804894 1_564
K1 Te9 3.905762 1_554
K2 Te2 3.410197 1_564
K2 Te9 3.423388 1_564
K2 Te6 3.500689 1_555
K2 Te0 3.556963 1_455
K2 Te10 3.804894 1_564
K2 Te10 3.905762 1_554
K3 Te3 3.410197 1_556
K3 Te8 3.423388 1_556
K3 Te7 3.500689 1_555
K3 Te1 3.556963 1_555
K3 Te11 3.804894 1_546
K3 Te11 3.905762 1_556
Rb0 Te0 3.629549 1_555
Rb0 Te6 3.741000 1_655
Rb0 Te10 3.754425 1_655
Rb0 Te2 3.773339 1_665
Rb0 Te4 3.774923 1_555
Rb0 Te8 4.021047 1_556
Rb0 Te7 4.098252 1_555
Rb1 Te1 3.629549 1_555
Rb1 Te7 3.741000 1_555
Rb1 Te11 3.754425 1_555
Rb1 Te3 3.773339 1_555
Rb1 Te5 3.774923 1_565
Rb1 Te9 4.021047 1_564
Rb1 Te6 4.098252 1_555
Rb2 Te2 3.629549 1_555
Rb2 Te4 3.741000 1_455
Rb2 Te8 3.754425 1_455
Rb2 Te0 3.773339 1_445
Rb2 Te6 3.774923 1_555
Rb2 Te10 4.021047 1_554
Rb2 Te5 4.098252 1_555
Rb3 Te3 3.629549 1_555
Rb3 Te5 3.741000 1_555
Rb3 Te9 3.754425 1_555
Rb3 Te1 3.773339 1_555
Rb3 Te7 3.774923 1_545
Rb3 Te11 4.021047 1_546
Rb3 Te4 4.098252 1_555
Hf0 Te7 2.808098 1_555
Hf0 Te0 2.844172 1_555
Hf0 Te11 2.849478 1_555
Hf0 Te4 2.976853 1_555
Hf0 Te3 2.995102 1_555
Hf0 Te8 3.022870 1_555
Hf1 Te6 2.808098 1_555
Hf1 Te1 2.844172 1_555
Hf1 Te10 2.849478 1_555
Hf1 Te5 2.976853 1_565
Hf1 Te2 2.995102 1_565
Hf1 Te9 3.022870 1_565
Hf2 Te5 2.808098 1_555
Hf2 Te2 2.844172 1_555
Hf2 Te9 2.849478 1_555
Hf2 Te6 2.976853 1_555
Hf2 Te1 2.995102 1_555
Hf2 Te10 3.022870 1_555
Hf3 Te4 2.808098 1_555
Hf3 Te3 2.844172 1_555
Hf3 Te8 2.849478 1_555
Hf3 Te7 2.976853 1_545
Hf3 Te0 2.995102 1_545
Hf3 Te11 3.022870 1_545
