# generated using pymatgen
data_Ta5GaSi2
_symmetry_space_group_name_H-M   'P 1'
_cell_length_a   7.55485724
_cell_length_b   7.55485654
_cell_length_c   7.55485647
_cell_angle_alpha   128.38703540
_cell_angle_beta   128.38703297
_cell_angle_gamma   75.99888151
_symmetry_Int_Tables_number   1
_chemical_formula_structural   Ta5GaSi2
_chemical_formula_sum   'Ta10 Ga2 Si4'
_cell_volume   257.58303741
_cell_formula_units_Z   2
loop_
 _symmetry_equiv_pos_site_id
 _symmetry_equiv_pos_as_xyz
  1  'x, y, z'
loop_
 _atom_site_type_symbol
 _atom_site_label
 _atom_site_symmetry_multiplicity
 _atom_site_fract_x
 _atom_site_fract_y
 _atom_site_fract_z
 _atom_site_occupancy
  Ta  Ta0  1  0.01523996  0.18728008  0.50000000  1
  Ta  Ta1  1  0.68728008  0.51523996  0.50000000  1
  Ta  Ta2  1  0.51523996  0.01523996  0.82796088  1
  Ta  Ta3  1  0.18728008  0.68728008  0.17203912  1
  Ta  Ta4  1  0.98476004  0.81271992  0.50000000  1
  Ta  Ta5  1  0.31271992  0.48476004  0.50000000  1
  Ta  Ta6  1  0.48476004  0.98476004  0.17203912  1
  Ta  Ta7  1  0.81271992  0.31271992  0.82796088  1
  Ta  Ta8  1  0.00000000  0.00000000  0.00000000  1
  Ta  Ta9  1  0.50000000  0.50000000  0.00000000  1
  Ga  Ga0  1  0.75000000  0.75000000  0.00000000  1
  Ga  Ga1  1  0.25000000  0.25000000  0.00000000  1
  Si  Si0  1  0.37004042  0.12995958  0.50000000  1
  Si  Si1  1  0.62995958  0.87004042  0.50000000  1
  Si  Si2  1  0.87004042  0.37004042  0.24007984  1
  Si  Si3  1  0.12995958  0.62995958  0.75992016  1
loop_
_geom_bond_atom_site_label_1
_geom_bond_atom_site_label_2
_geom_bond_distance
_geom_bond_site_symmetry_2
Ga0 Ta2 2.739031 1_564
Ga0 Ta6 2.739031 1_555
Ga0 Ta1 2.739034 1_554
Ga0 Ta4 2.739034 1_555
Ga0 Ta0 2.739035 1_665
Ga0 Ta5 2.739035 1_554
Ga0 Ta7 2.739036 1_554
Ga0 Ta3 2.739036 1_655
Ga0 Ta8 2.976677 1_665
Ga0 Ta9 2.976677 1_555
Ga1 Ta6 2.739031 1_545
Ga1 Ta2 2.739031 1_554
Ga1 Ta5 2.739034 1_555
Ga1 Ta0 2.739034 1_554
Ga1 Ta4 2.739035 1_444
Ga1 Ta1 2.739035 1_555
Ga1 Ta3 2.739036 1_555
Ga1 Ta7 2.739036 1_454
Ga1 Ta9 2.976677 1_555
Ga1 Ta8 2.976677 1_555
Si0 Si1 2.417860 1_545
Si0 Ta9 2.579784 1_556
Si0 Ta8 2.579784 1_555
Si0 Ta5 2.609743 1_555
Si0 Ta0 2.609743 1_555
Si0 Ta3 2.631501 1_545
Si0 Ta7 2.631502 1_555
Si0 Ta2 2.631509 1_555
Si0 Ta6 2.631509 1_545
Si1 Ta9 2.579784 1_555
Si1 Ta8 2.579784 1_666
Si1 Ta1 2.609743 1_555
Si1 Ta4 2.609743 1_555
Si1 Ta7 2.631501 1_565
Si1 Ta3 2.631502 1_555
Si1 Ta6 2.631509 1_555
Si1 Ta2 2.631509 1_565
Si2 Si3 2.417869 1_655
Si2 Ta8 2.579782 1_655
Si2 Ta9 2.579782 1_555
Si2 Ta7 2.609728 1_554
Si2 Ta2 2.609744 1_554
Si2 Ta4 2.631501 1_555
Si2 Ta5 2.631501 1_655
Si2 Ta0 2.631509 1_655
Si2 Ta1 2.631509 1_555
Si3 Ta8 2.579782 1_566
Si3 Ta9 2.579782 1_556
Si3 Ta3 2.609728 1_556
Si3 Ta6 2.609744 1_556
Si3 Ta0 2.631501 1_555
Si3 Ta1 2.631501 1_455
Si3 Ta4 2.631509 1_455
Si3 Ta5 2.631509 1_555
