# generated using pymatgen
data_NaPF3
_symmetry_space_group_name_H-M   'P 1'
_cell_length_a   5.19103600
_cell_length_b   5.19301899
_cell_length_c   5.33990418
_cell_angle_alpha   95.77567692
_cell_angle_beta   115.57008699
_cell_angle_gamma   116.60938507
_symmetry_Int_Tables_number   1
_chemical_formula_structural   NaPF3
_chemical_formula_sum   'Na1 P1 F3'
_cell_volume   108.11031679
_cell_formula_units_Z   1
loop_
 _symmetry_equiv_pos_site_id
 _symmetry_equiv_pos_as_xyz
  1  'x, y, z'
loop_
 _atom_site_type_symbol
 _atom_site_label
 _atom_site_symmetry_multiplicity
 _atom_site_fract_x
 _atom_site_fract_y
 _atom_site_fract_z
 _atom_site_occupancy
  Na  Na0  1  0.98897700  0.99708600  0.03572700  1
  P  P0  1  0.99587100  0.41896900  0.48995800  1
  F  F0  1  0.44942900  0.63061600  0.75141600  1
  F  F1  1  0.53568800  0.19124800  0.26199400  1
  F  F2  1  0.95503500  0.31208000  0.76090500  1
loop_
_geom_bond_atom_site_label_1
_geom_bond_atom_site_label_2
_geom_bond_distance
_geom_bond_site_symmetry_2
F0 P0 1.798910 1_455
F0 Na0 2.178128 1_556
F1 P0 1.804501 1_555
F1 Na0 2.182233 1_445
F2 P0 1.663536 1_555
F2 Na0 2.319168 1_546
