# generated using pymatgen
data_Rb2NaScSb2
_symmetry_space_group_name_H-M   'P 1'
_cell_length_a   11.05519362
_cell_length_b   11.05519404
_cell_length_c   7.30607406
_cell_angle_alpha   90.00000000
_cell_angle_beta   90.00000000
_cell_angle_gamma   98.84744433
_symmetry_Int_Tables_number   1
_chemical_formula_structural   Rb2NaScSb2
_chemical_formula_sum   'Rb8 Na4 Sc4 Sb8'
_cell_volume   882.30408565
_cell_formula_units_Z   4
loop_
 _symmetry_equiv_pos_site_id
 _symmetry_equiv_pos_as_xyz
  1  'x, y, z'
loop_
 _atom_site_type_symbol
 _atom_site_label
 _atom_site_symmetry_multiplicity
 _atom_site_fract_x
 _atom_site_fract_y
 _atom_site_fract_z
 _atom_site_occupancy
  Rb  Rb0  1  0.07203103  0.42796897  0.25000000  1
  Rb  Rb1  1  0.42796897  0.07203103  0.75000000  1
  Rb  Rb2  1  0.92796897  0.57203103  0.75000000  1
  Rb  Rb3  1  0.57203103  0.92796897  0.25000000  1
  Rb  Rb4  1  0.67662058  0.32337942  0.21403393  1
  Rb  Rb5  1  0.82337942  0.17662058  0.71403393  1
  Rb  Rb6  1  0.32337942  0.67662058  0.78596607  1
  Rb  Rb7  1  0.17662058  0.82337942  0.28596607  1
  Na  Na0  1  0.38408817  0.38408817  0.00000000  1
  Na  Na1  1  0.11591183  0.11591183  0.50000000  1
  Na  Na2  1  0.61591183  0.61591183  0.00000000  1
  Na  Na3  1  0.88408817  0.88408817  0.50000000  1
  Sc  Sc0  1  0.13042247  0.13042247  0.00000000  1
  Sc  Sc1  1  0.36957753  0.36957753  0.50000000  1
  Sc  Sc2  1  0.86957753  0.86957753  0.00000000  1
  Sc  Sc3  1  0.63042247  0.63042247  0.50000000  1
  Sb  Sb0  1  0.84188609  0.65811291  0.25000000  1
  Sb  Sb1  1  0.65811291  0.84188609  0.75000000  1
  Sb  Sb2  1  0.15811291  0.34188609  0.75000000  1
  Sb  Sb3  1  0.34188609  0.15811291  0.25000000  1
  Sb  Sb4  1  0.90254990  0.09745010  0.20129874  1
  Sb  Sb5  1  0.59745010  0.40254990  0.70129874  1
  Sb  Sb6  1  0.09745010  0.90254990  0.79870126  1
  Sb  Sb7  1  0.40254990  0.59745010  0.29870126  1
loop_
_geom_bond_atom_site_label_1
_geom_bond_atom_site_label_2
_geom_bond_distance
_geom_bond_site_symmetry_2
Rb0 Sb7 3.857792 1_555
Rb0 Sb4 3.857792 1_455
Rb0 Sb0 3.864986 1_455
Rb0 Sb2 3.928685 1_555
Rb0 Sb2 3.928685 1_554
Rb1 Sb6 3.857792 1_545
Rb1 Sb5 3.857792 1_555
Rb1 Sb1 3.864986 1_545
Rb1 Sb3 3.928685 1_556
Rb1 Sb3 3.928685 1_555
Rb2 Sb5 3.857792 1_555
Rb2 Sb6 3.857792 1_655
Rb2 Sb2 3.864986 1_655
Rb2 Sb0 3.928685 1_556
Rb2 Sb0 3.928685 1_555
Rb3 Sb4 3.857792 1_565
Rb3 Sb7 3.857792 1_555
Rb3 Sb3 3.864986 1_565
Rb3 Sb1 3.928685 1_555
Rb3 Sb1 3.928685 1_554
Rb4 Sb4 3.795339 1_555
Rb4 Sb5 3.800171 1_555
Rb4 Sb0 3.875745 1_555
Rb4 Sb3 3.875759 1_555
Rb4 Sb5 3.975032 1_554
Rb5 Sb5 3.795339 1_555
Rb5 Sb4 3.800171 1_556
Rb5 Sb2 3.875745 1_655
Rb5 Sb1 3.875759 1_545
Rb5 Sb4 3.975032 1_555
Rb6 Sb6 3.795339 1_555
Rb6 Sb7 3.800171 1_555
Rb6 Sb1 3.875745 1_555
Rb6 Sb2 3.875759 1_555
Rb6 Sb7 3.975032 1_556
Rb7 Sb7 3.795339 1_555
Rb7 Sb6 3.800171 1_554
Rb7 Sb3 3.875745 1_565
Rb7 Sb0 3.875759 1_455
Rb7 Sb6 3.975032 1_555
Na0 Sb2 3.071859 1_554
Na0 Sb3 3.071859 1_555
Na0 Sb5 3.196855 1_554
Na0 Sb7 3.196855 1_555
Na1 Sb3 3.071850 1_555
Na1 Sb2 3.071850 1_555
Na1 Sb4 3.196855 1_455
Na1 Sb6 3.196855 1_545
Na2 Sb0 3.071850 1_555
Na2 Sb1 3.071850 1_554
Na2 Sb7 3.196855 1_555
Na2 Sb5 3.196855 1_554
Na3 Sb1 3.071859 1_555
Na3 Sb0 3.071859 1_555
Na3 Sb6 3.196855 1_655
Na3 Sb4 3.196855 1_565
Sb0 Sc3 2.945321 1_555
Sb0 Sc2 2.945330 1_555
Sb1 Sc3 2.945321 1_555
Sb1 Sc2 2.945330 1_556
Sb2 Sc0 2.945321 1_556
Sb2 Sc1 2.945330 1_555
Sb3 Sc0 2.945321 1_555
Sb3 Sc1 2.945330 1_555
Sb4 Sc0 2.891300 1_655
Sb4 Sc2 2.891300 1_545
Sb5 Sc1 2.891300 1_555
Sb5 Sc3 2.891300 1_555
Sb6 Sc2 2.891300 1_456
Sb6 Sc0 2.891300 1_566
Sb7 Sc3 2.891300 1_555
Sb7 Sc1 2.891300 1_555
