# generated using pymatgen
data_CaY2(BPt2)3
_symmetry_space_group_name_H-M   'P 1'
_cell_length_a   5.35902233
_cell_length_b   5.40302373
_cell_length_c   7.80872167
_cell_angle_alpha   90.00000000
_cell_angle_beta   90.00000000
_cell_angle_gamma   120.27197374
_symmetry_Int_Tables_number   1
_chemical_formula_structural   CaY2(BPt2)3
_chemical_formula_sum   'Ca1 Y2 B3 Pt6'
_cell_volume   195.27032952
_cell_formula_units_Z   1
loop_
 _symmetry_equiv_pos_site_id
 _symmetry_equiv_pos_as_xyz
  1  'x, y, z'
loop_
 _atom_site_type_symbol
 _atom_site_label
 _atom_site_symmetry_multiplicity
 _atom_site_fract_x
 _atom_site_fract_y
 _atom_site_fract_z
 _atom_site_occupancy
  Ca  Ca0  1  0.00000000  0.50000000  0.66666700  1
  Y  Y0  1  0.50000000  0.50000000  0.33664995  1
  Y  Y1  1  0.50000000  0.00000000  0.99668305  1
  B  B0  1  0.00000000  0.50000000  0.16666700  1
  B  B1  1  0.50000000  0.50000000  0.83007377  1
  B  B2  1  0.50000000  0.00000000  0.50325923  1
  Pt  Pt0  1  0.29675910  0.14838005  0.66666700  1
  Pt  Pt1  1  0.15551038  0.85381408  0.33105018  1
  Pt  Pt2  1  0.84448962  0.69830571  0.00228282  1
  Pt  Pt3  1  0.84448962  0.14618592  0.33105018  1
  Pt  Pt4  1  0.15551038  0.30169429  0.00228282  1
  Pt  Pt5  1  0.70324090  0.85161995  0.66666700  1
loop_
_geom_bond_atom_site_label_1
_geom_bond_atom_site_label_2
_geom_bond_distance
_geom_bond_site_symmetry_2
Ca0 Pt0 3.030612 1_555
Ca0 Pt5 3.030612 1_455
Ca0 Pt0 3.030617 1_565
Ca0 Pt5 3.030617 1_445
Ca0 Pt4 3.100165 1_556
Ca0 Pt2 3.100165 1_456
Ca0 Pt1 3.100167 1_555
Ca0 Pt3 3.100167 1_455
B0 Pt1 2.095340 1_555
B0 Pt3 2.095340 1_455
B0 Pt2 2.095352 1_455
B0 Pt4 2.095352 1_555
B0 Y0 2.990257 1_555
B0 Y0 2.990257 1_455
B0 Y1 2.990261 1_564
B0 Y1 2.990261 1_454
B1 Pt5 2.082676 1_555
B1 Pt0 2.082676 1_555
B1 Pt2 2.090508 1_556
B1 Pt4 2.090508 1_556
B1 Ca0 2.967819 1_555
B1 Ca0 2.967819 1_655
B1 Y1 2.998463 1_565
B1 Y1 2.998463 1_555
B2 Pt5 2.082684 1_545
B2 Pt0 2.082684 1_555
B2 Pt3 2.090507 1_555
B2 Pt1 2.090507 1_545
B2 Ca0 2.967823 1_545
B2 Ca0 2.967823 1_655
B2 Y0 2.998463 1_545
B2 Y0 2.998463 1_555
Pt0 Y1 3.057831 1_555
Pt0 Y0 3.057835 1_555
Pt1 Y0 3.016830 1_565
Pt1 Y0 3.037464 1_455
Pt1 Y1 3.062537 1_564
Pt1 Y0 3.259252 1_555
Pt2 Y1 3.016821 1_564
Pt2 Y1 3.037465 1_664
Pt2 Y0 3.062537 1_555
Pt2 Y1 3.259261 1_554
Pt3 Y0 3.016830 1_545
Pt3 Y0 3.037464 1_655
Pt3 Y1 3.062537 1_554
Pt3 Y0 3.259252 1_555
Pt4 Y1 3.016821 1_554
Pt4 Y1 3.037465 1_454
Pt4 Y0 3.062537 1_555
Pt4 Y1 3.259261 1_564
Pt5 Y1 3.057831 1_565
Pt5 Y0 3.057835 1_555
