# generated using pymatgen
data_Sr4Mo(BrN2)2
_symmetry_space_group_name_H-M   'P 1'
_cell_length_a   6.04040654
_cell_length_b   8.01112888
_cell_length_c   10.59455629
_cell_angle_alpha   81.58957154
_cell_angle_beta   90.00000000
_cell_angle_gamma   90.00000000
_symmetry_Int_Tables_number   1
_chemical_formula_structural   Sr4Mo(BrN2)2
_chemical_formula_sum   'Sr8 Mo2 Br4 N8'
_cell_volume   507.16216146
_cell_formula_units_Z   2
loop_
 _symmetry_equiv_pos_site_id
 _symmetry_equiv_pos_as_xyz
  1  'x, y, z'
loop_
 _atom_site_type_symbol
 _atom_site_label
 _atom_site_symmetry_multiplicity
 _atom_site_fract_x
 _atom_site_fract_y
 _atom_site_fract_z
 _atom_site_occupancy
  Sr  Sr0  1  0.75000000  0.28414679  0.30340313  1
  Sr  Sr1  1  0.75000000  0.00260457  0.61869925  1
  Sr  Sr2  1  0.75000000  0.44917640  0.61311995  1
  Sr  Sr3  1  0.75000000  0.81401483  0.09575424  1
  Sr  Sr4  1  0.25000000  0.99739543  0.38130075  1
  Sr  Sr5  1  0.25000000  0.55082360  0.38688005  1
  Sr  Sr6  1  0.25000000  0.18598517  0.90424576  1
  Sr  Sr7  1  0.25000000  0.71585321  0.69659687  1
  Mo  Mo0  1  0.75000000  0.77154581  0.39475354  1
  Mo  Mo1  1  0.25000000  0.22845419  0.60524646  1
  Br  Br0  1  0.25000000  0.32537426  0.16500282  1
  Br  Br1  1  0.75000000  0.67462574  0.83499718  1
  Br  Br2  1  0.25000000  0.83761951  0.10036834  1
  Br  Br3  1  0.75000000  0.16238049  0.89963166  1
  N  N0  1  0.25000000  0.02776819  0.71511145  1
  N  N1  1  0.00097274  0.24587383  0.49904842  1
  N  N2  1  0.50097274  0.75412617  0.50095158  1
  N  N3  1  0.99902726  0.75412617  0.50095158  1
  N  N4  1  0.75000000  0.60250784  0.29292830  1
  N  N5  1  0.75000000  0.97223181  0.28488855  1
  N  N6  1  0.49902726  0.24587383  0.49904842  1
  N  N7  1  0.25000000  0.39749216  0.70707170  1
loop_
_geom_bond_atom_site_label_1
_geom_bond_atom_site_label_2
_geom_bond_distance
_geom_bond_site_symmetry_2
Mo0 N5 1.841787 1_555
Mo0 N4 1.850664 1_555
Mo0 N3 1.871400 1_555
Mo0 N2 1.871400 1_555
Mo1 N0 1.841787 1_555
Mo1 N7 1.850664 1_555
Mo1 N6 1.871400 1_555
Mo1 N1 1.871400 1_555
Br0 Sr6 3.127514 1_554
Br0 Sr5 3.166971 1_555
Br0 Sr4 3.223922 1_545
Br0 Sr0 3.352470 1_455
Br0 Sr0 3.352470 1_555
Br1 Sr3 3.127514 1_556
Br1 Sr2 3.166971 1_555
Br1 Sr1 3.223922 1_565
Br1 Sr7 3.352470 1_655
Br1 Sr7 3.352470 1_555
Br2 Sr3 3.026959 1_455
Br2 Sr3 3.026959 1_555
Br2 Sr6 3.226400 1_564
Br2 Sr4 3.407562 1_555
Br2 Sr5 3.528838 1_555
Br3 Sr6 3.026959 1_655
Br3 Sr6 3.026959 1_555
Br3 Sr3 3.226400 1_546
Br3 Sr1 3.407562 1_555
Br3 Sr2 3.528838 1_555
N0 Sr6 2.522835 1_555
N0 Sr7 2.534919 1_545
N0 Sr1 3.204036 1_555
N0 Sr1 3.204036 1_455
N1 Sr0 2.550036 1_455
N1 Sr1 2.642064 1_455
N1 Sr2 2.643321 1_455
N1 Sr4 2.916810 1_545
N1 Sr5 2.965448 1_555
N2 Sr7 2.550036 1_555
N2 Sr4 2.642064 1_555
N2 Sr5 2.643321 1_555
N2 Sr1 2.916810 1_565
N2 Sr2 2.965448 1_555
N3 Sr7 2.550036 1_655
N3 Sr4 2.642064 1_655
N3 Sr5 2.643321 1_655
N3 Sr1 2.916810 1_565
N3 Sr2 2.965448 1_555
N4 Sr3 2.489861 1_555
N4 Sr0 2.536577 1_555
N4 Sr5 3.187990 1_655
N4 Sr5 3.187990 1_555
N5 Sr3 2.522835 1_555
N5 Sr0 2.534919 1_565
N5 Sr4 3.204036 1_655
N5 Sr4 3.204036 1_555
N6 Sr0 2.550036 1_555
N6 Sr1 2.642064 1_555
N6 Sr2 2.643321 1_555
N6 Sr4 2.916810 1_545
N6 Sr5 2.965448 1_555
N7 Sr6 2.489861 1_555
N7 Sr7 2.536577 1_555
N7 Sr2 3.187990 1_455
N7 Sr2 3.187990 1_555
