# generated using pymatgen
data_Sr3YSb3
_symmetry_space_group_name_H-M   'P 1'
_cell_length_a   8.45000012
_cell_length_b   8.45000011
_cell_length_c   8.58011799
_cell_angle_alpha   109.73564540
_cell_angle_beta   109.73564548
_cell_angle_gamma   108.93058636
_symmetry_Int_Tables_number   1
_chemical_formula_structural   Sr3YSb3
_chemical_formula_sum   'Sr6 Y2 Sb6'
_cell_volume   471.65729533
_cell_formula_units_Z   2
loop_
 _symmetry_equiv_pos_site_id
 _symmetry_equiv_pos_as_xyz
  1  'x, y, z'
loop_
 _atom_site_type_symbol
 _atom_site_label
 _atom_site_symmetry_multiplicity
 _atom_site_fract_x
 _atom_site_fract_y
 _atom_site_fract_z
 _atom_site_occupancy
  Sr  Sr0  1  0.50108070  0.00368781  0.36158776  1
  Sr  Sr1  1  0.99533385  0.35990917  0.49442765  1
  Sr  Sr2  1  0.50368781  0.00108070  0.86158776  1
  Sr  Sr3  1  0.64113473  0.64041212  0.64502580  1
  Sr  Sr4  1  0.14041212  0.14113473  0.14502580  1
  Sr  Sr5  1  0.85990917  0.49533385  0.99442765  1
  Y  Y0  1  0.99781475  0.85937703  0.49634797  1
  Y  Y1  1  0.35937703  0.49781475  0.99634797  1
  Sb  Sb0  1  0.74398330  0.86027838  0.13431551  1
  Sb  Sb1  1  0.36027838  0.24398330  0.63431551  1
  Sb  Sb2  1  0.24779566  0.62994365  0.37097750  1
  Sb  Sb3  1  0.89579161  0.12345625  0.74731681  1
  Sb  Sb4  1  0.62345625  0.39579161  0.24731681  1
  Sb  Sb5  1  0.12994365  0.74779566  0.87097750  1
loop_
_geom_bond_atom_site_label_1
_geom_bond_atom_site_label_2
_geom_bond_distance
_geom_bond_site_symmetry_2
Sb0 Y0 3.126732 1_555
Sb0 Y1 3.136675 1_554
Sb0 Sr2 3.354568 1_564
Sb0 Sr4 3.368762 1_665
Sb0 Sr5 3.487725 1_554
Sb0 Sr0 3.493564 1_565
Sb0 Sr1 3.580788 1_565
Sb0 Sr3 3.612792 1_554
Sb1 Y1 3.126732 1_555
Sb1 Y0 3.136675 1_445
Sb1 Sr0 3.354568 1_555
Sb1 Sr3 3.368762 1_555
Sb1 Sr1 3.487725 1_455
Sb1 Sr2 3.493564 1_555
Sb1 Sr5 3.580788 1_555
Sb1 Sr4 3.612792 1_555
Sb2 Sr5 3.228373 1_454
Sb2 Sr0 3.234754 1_565
Sb2 Sr1 3.298399 1_455
Sb2 Sr3 3.312771 1_555
Sb2 Y0 3.487261 1_455
Sb2 Sr4 3.551682 1_555
Sb2 Sr2 3.573178 1_565
Sb2 Y1 3.574046 1_554
Sb3 Y0 3.101015 1_545
Sb3 Sr4 3.260532 1_656
Sb3 Sr5 3.318818 1_555
Sb3 Sr0 3.345848 1_555
Sb3 Y1 3.414585 1_655
Sb3 Sr1 3.532395 1_555
Sb3 Sr3 3.559121 1_545
Sb3 Sr2 3.696487 1_555
Sb4 Y1 3.101015 1_554
Sb4 Sr3 3.260532 1_555
Sb4 Sr1 3.318818 1_555
Sb4 Sr2 3.345848 1_554
Sb4 Y0 3.414585 1_555
Sb4 Sr5 3.532395 1_554
Sb4 Sr4 3.559121 1_555
Sb4 Sr0 3.696487 1_555
Sb5 Sr1 3.228373 1_455
Sb5 Sr2 3.234754 1_565
Sb5 Sr5 3.298399 1_455
Sb5 Sr4 3.312771 1_566
Sb5 Y1 3.487261 1_555
Sb5 Sr3 3.551682 1_455
Sb5 Sr0 3.573178 1_566
Sb5 Y0 3.574046 1_455
