# generated using pymatgen
data_PuBe13
_symmetry_space_group_name_H-M   'P 1'
_cell_length_a   7.24321607
_cell_length_b   7.24321607
_cell_length_c   7.24080214
_cell_angle_alpha   60.01102380
_cell_angle_beta   60.01102380
_cell_angle_gamma   60.07662033
_symmetry_Int_Tables_number   1
_chemical_formula_structural   PuBe13
_chemical_formula_sum   'Pu2 Be26'
_cell_volume   268.81768864
_cell_formula_units_Z   2
loop_
 _symmetry_equiv_pos_site_id
 _symmetry_equiv_pos_as_xyz
  1  'x, y, z'
loop_
 _atom_site_type_symbol
 _atom_site_label
 _atom_site_symmetry_multiplicity
 _atom_site_fract_x
 _atom_site_fract_y
 _atom_site_fract_z
 _atom_site_occupancy
  Pu  Pu0  1  0.25000000  0.25000000  0.25000000  1
  Pu  Pu1  1  0.75000000  0.75000000  0.75000000  1
  Be  Be0  1  0.00000000  -0.00000000  -0.00000000  1
  Be  Be1  1  0.50000000  0.50000000  0.50000000  1
  Be  Be2  1  0.28952830  0.93813745  0.06224760  1
  Be  Be3  1  0.56200664  0.43799336  0.79019075  1
  Be  Be4  1  0.79019367  0.20980633  0.56185681  1
  Be  Be5  1  0.56192025  0.79048969  0.20999424  1
  Be  Be6  1  0.43807975  0.20951031  0.79000576  1
  Be  Be7  1  0.43813745  0.78952830  0.56224760  1
  Be  Be8  1  0.78952830  0.43813745  0.21008866  1
  Be  Be9  1  0.06192025  0.29048969  0.93759582  1
  Be  Be10  1  0.93799336  0.06200664  0.29019075  1
  Be  Be11  1  0.70980633  0.29019367  0.06185681  1
  Be  Be12  1  0.93807975  0.70951031  0.06240418  1
  Be  Be13  1  0.70951031  0.93807975  0.29000476  1
  Be  Be14  1  0.06200664  0.93799336  0.70980925  1
  Be  Be15  1  0.29048969  0.06192025  0.70999524  1
  Be  Be16  1  0.29019367  0.70980633  0.93814319  1
  Be  Be17  1  0.79048969  0.56192025  0.43759582  1
  Be  Be18  1  0.20980633  0.79019367  0.43814319  1
  Be  Be19  1  0.21047170  0.56186255  0.78991134  1
  Be  Be20  1  0.56186255  0.21047170  0.43775240  1
  Be  Be21  1  0.43799336  0.56200664  0.20980925  1
  Be  Be22  1  0.20951031  0.43807975  0.56240418  1
  Be  Be23  1  0.06186255  0.71047170  0.28991134  1
  Be  Be24  1  0.71047170  0.06186255  0.93775240  1
  Be  Be25  1  0.93813745  0.28952830  0.71008866  1
loop_
_geom_bond_atom_site_label_1
_geom_bond_atom_site_label_2
_geom_bond_distance
_geom_bond_site_symmetry_2
Be0 Be25 2.146460 1_454
Be0 Be23 2.146460 1_545
Be0 Be2 2.146469 1_545
Be0 Be24 2.146469 1_454
Be0 Be14 2.148786 1_544
Be0 Be10 2.148786 1_455
Be0 Be13 2.149639 1_445
Be0 Be15 2.149639 1_554
Be0 Be9 2.149642 1_554
Be0 Be12 2.149642 1_445
Be0 Be11 2.151506 1_455
Be0 Be16 2.151506 1_544
Be1 Be8 2.146460 1_555
Be1 Be19 2.146460 1_555
Be1 Be7 2.146469 1_555
Be1 Be20 2.146469 1_555
Be1 Be21 2.148786 1_555
Be1 Be3 2.148786 1_555
Be1 Be22 2.149642 1_555
Be1 Be17 2.149642 1_555
Be1 Be5 2.149642 1_555
Be1 Be6 2.149642 1_555
Be1 Be18 2.151506 1_555
Be1 Be4 2.151506 1_555
Be2 Be6 2.241323 1_564
Be2 Be9 2.243453 1_564
Be2 Be21 2.244123 1_555
Be2 Be5 2.245457 1_555
Be2 Be23 2.331121 1_555
Be2 Pu0 3.011355 1_565
Be2 Pu1 3.016634 1_554
Be3 Be7 2.238847 1_555
Be3 Be6 2.242792 1_555
Be3 Be4 2.339140 1_555
Be3 Pu0 3.010436 1_556
Be3 Pu1 3.010436 1_555
Be4 Be8 2.239667 1_555
Be4 Be6 2.241388 1_555
Be4 Pu0 3.011308 1_655
Be4 Pu1 3.011308 1_545
Be5 Be7 2.238720 1_555
Be5 Be8 2.243450 1_555
Be5 Pu0 3.012215 1_565
Be5 Pu1 3.012900 1_554
Be6 Be9 2.242998 1_555
Be6 Pu1 3.012215 1_545
Be6 Pu0 3.012900 1_556
Be7 Pu1 3.011355 1_555
Be7 Pu0 3.016634 1_565
Be8 Be9 2.245467 1_654
Be8 Pu1 3.011367 1_554
Be8 Pu0 3.016628 1_655
Be9 Pu1 3.012215 1_455
Be9 Pu0 3.012900 1_556
Be10 Be2 2.238847 1_645
Be10 Be23 2.238852 1_645
Be10 Be4 2.240118 1_555
Be10 Be9 2.242792 1_654
Be10 Be13 2.242796 1_545
Be10 Be18 2.243396 1_645
Be10 Be20 2.244123 1_555
Be10 Be8 2.244124 1_555
Be10 Be11 2.339140 1_555
Be10 Pu0 3.010436 1_655
Be10 Pu1 3.010436 1_545
Be11 Be25 2.239667 1_554
Be11 Be24 2.239678 1_554
Be11 Be3 2.240118 1_554
Be11 Be20 2.240623 1_555
Be11 Be8 2.240635 1_555
Be11 Be13 2.241387 1_545
Be11 Be9 2.241388 1_654
Be11 Be21 2.243396 1_555
Be11 Pu0 3.011308 1_555
Be11 Pu1 3.011308 1_554
Be12 Be17 2.236004 1_555
Be12 Be23 2.238706 1_655
Be12 Be8 2.241320 1_555
Be12 Be16 2.241388 1_654
Be12 Be14 2.242792 1_654
Be12 Be5 2.242998 1_555
Be12 Be24 2.243453 1_564
Be12 Be19 2.245467 1_654
Be12 Be13 2.337355 1_555
Be12 Pu0 3.012215 1_655
Be12 Pu1 3.012900 1_554
Be13 Be5 2.235998 1_555
Be13 Be24 2.238713 1_564
Be13 Be7 2.241325 1_555
Be13 Be17 2.242998 1_555
Be13 Be23 2.243451 1_655
Be13 Be20 2.245462 1_565
Be13 Pu0 3.012213 1_565
Be13 Pu1 3.012907 1_555
Be14 Be24 2.238847 1_465
Be14 Be25 2.238852 1_465
Be14 Be18 2.240118 1_555
Be14 Be15 2.242796 1_565
Be14 Be4 2.243396 1_465
Be14 Be7 2.244123 1_555
Be14 Be19 2.244124 1_555
Be14 Be16 2.339140 1_555
Be14 Pu1 3.010436 1_455
Be14 Pu0 3.010436 1_565
Be15 Be6 2.235998 1_555
Be15 Be2 2.238713 1_546
Be15 Be20 2.241325 1_555
Be15 Be16 2.241387 1_545
Be15 Be22 2.242998 1_555
Be15 Be25 2.243451 1_455
Be15 Be7 2.245462 1_545
Be15 Be9 2.337355 1_555
Be15 Pu1 3.012213 1_545
Be15 Pu0 3.012907 1_555
Be16 Be23 2.239667 1_556
Be16 Be2 2.239678 1_556
Be16 Be21 2.240118 1_556
Be16 Be7 2.240623 1_555
Be16 Be19 2.240635 1_555
Be16 Be3 2.243396 1_555
Be16 Pu1 3.011308 1_555
Be16 Pu0 3.011308 1_556
Be17 Be8 2.238706 1_555
Be17 Be23 2.241320 1_655
Be17 Be4 2.241388 1_555
Be17 Be3 2.242792 1_555
Be17 Be7 2.243453 1_555
Be17 Be25 2.245467 1_555
Be17 Be5 2.337360 1_555
Be17 Pu0 3.012215 1_655
Be17 Pu1 3.012900 1_555
Be18 Be19 2.239667 1_555
Be18 Be7 2.239678 1_555
Be18 Be2 2.240623 1_555
Be18 Be23 2.240635 1_555
Be18 Be5 2.241388 1_555
Be18 Be22 2.241388 1_555
Be18 Be21 2.339140 1_555
Be18 Pu1 3.011308 1_455
Be18 Pu0 3.011308 1_565
Be19 Be22 2.238706 1_555
Be19 Be3 2.238852 1_555
Be19 Be9 2.241320 1_555
Be19 Be6 2.243450 1_555
Be19 Be7 2.331121 1_555
Be19 Pu0 3.011367 1_556
Be19 Pu1 3.016628 1_455
Be20 Be6 2.238720 1_555
Be20 Be21 2.238847 1_555
Be20 Be4 2.239678 1_555
Be20 Be22 2.243453 1_555
Be20 Be8 2.331121 1_555
Be20 Pu0 3.011355 1_555
Be20 Pu1 3.016634 1_545
Be21 Be8 2.238852 1_555
Be21 Be22 2.242792 1_555
Be21 Be5 2.242792 1_555
Be21 Be23 2.244124 1_555
Be21 Pu1 3.010436 1_554
Be21 Pu0 3.010436 1_555
Be22 Be9 2.236004 1_555
Be22 Be25 2.241320 1_455
Be22 Be23 2.245467 1_555
Be22 Be6 2.337360 1_555
Be22 Pu1 3.012215 1_455
Be22 Pu0 3.012900 1_555
Be23 Pu1 3.011367 1_455
Be23 Pu0 3.016628 1_555
Be24 Be4 2.240623 1_555
Be24 Be5 2.241323 1_546
Be24 Be3 2.244123 1_555
Be24 Be6 2.245457 1_555
Be24 Be25 2.331121 1_555
Be24 Pu1 3.011355 1_545
Be24 Pu0 3.016634 1_556
Be25 Be9 2.238706 1_655
Be25 Be4 2.240635 1_555
Be25 Be3 2.244124 1_555
Be25 Pu0 3.011367 1_655
Be25 Pu1 3.016628 1_555
