# generated using pymatgen
data_CsY3CBr6
_symmetry_space_group_name_H-M   'P 1'
_cell_length_a   8.74192715
_cell_length_b   8.78317409
_cell_length_c   9.36371424
_cell_angle_alpha   70.73765723
_cell_angle_beta   85.14804478
_cell_angle_gamma   89.31238840
_symmetry_Int_Tables_number   1
_chemical_formula_structural   CsY3CBr6
_chemical_formula_sum   'Cs2 Y6 C2 Br12'
_cell_volume   676.18566734
_cell_formula_units_Z   2
loop_
 _symmetry_equiv_pos_site_id
 _symmetry_equiv_pos_as_xyz
  1  'x, y, z'
loop_
 _atom_site_type_symbol
 _atom_site_label
 _atom_site_symmetry_multiplicity
 _atom_site_fract_x
 _atom_site_fract_y
 _atom_site_fract_z
 _atom_site_occupancy
  Cs  Cs0  1  0.47249938  0.36654666  0.33226696  1
  Cs  Cs1  1  0.52750162  0.63345334  0.66773304  1
  Y  Y0  1  0.91506766  0.74353269  0.00424842  1
  Y  Y1  1  0.08493234  0.25646731  0.99575058  1
  Y  Y2  1  0.74216782  0.08617329  0.00126393  1
  Y  Y3  1  0.25783118  0.91382671  0.99873707  1
  Y  Y4  1  0.97396563  0.88224625  0.32733387  1
  Y  Y5  1  0.02603337  0.11775375  0.67266713  1
  C  C0  1  0.00607446  0.02770894  0.91952101  1
  C  C1  1  0.99392454  0.97229106  0.08047899  1
  Br  Br0  1  0.07870224  0.19534578  0.33041202  1
  Br  Br1  1  0.92129776  0.80465422  0.66958798  1
  Br  Br2  1  0.20489927  0.59092559  0.00003015  1
  Br  Br3  1  0.79510173  0.40907441  0.99996985  1
  Br  Br4  1  0.40608009  0.20105694  0.00444687  1
  Br  Br5  1  0.59391891  0.79894406  0.99555213  1
  Br  Br6  1  0.66565657  0.99726944  0.32799201  1
  Br  Br7  1  0.33434343  0.00273056  0.67200799  1
  Br  Br8  1  0.28321748  0.77218645  0.32414236  1
  Br  Br9  1  0.71678252  0.22781355  0.67585764  1
  Br  Br10  1  0.85117748  0.58445513  0.32837002  1
  Br  Br11  1  0.14882152  0.41554487  0.67162998  1
loop_
_geom_bond_atom_site_label_1
_geom_bond_atom_site_label_2
_geom_bond_distance
_geom_bond_site_symmetry_2
C0 C1 1.417704 1_446
C0 Y5 2.174341 1_555
C0 Y1 2.466667 1_555
C0 Y2 2.470671 1_456
C0 Y0 2.475196 1_446
C0 Y3 2.475517 1_545
C1 Y4 2.174349 1_555
C1 Y0 2.466669 1_555
C1 Y3 2.470668 1_654
C1 Y1 2.475199 1_664
C1 Y2 2.475515 1_565
Br0 Y4 2.918714 1_445
Br0 Y1 2.995489 1_554
Br0 Y5 3.043673 1_555
Br0 Cs0 3.776783 1_555
Br1 Y5 2.918714 1_665
Br1 Y0 2.995480 1_556
Br1 Y4 3.043664 1_555
Br1 Cs1 3.776775 1_555
Br2 Y0 2.855560 1_455
Br2 Y3 2.874996 1_554
Br2 Y1 3.144791 1_554
Br2 Cs1 3.943165 1_554
Br2 Cs0 4.013708 1_555
Br3 Y1 2.855553 1_655
Br3 Y2 2.874996 1_556
Br3 Y0 3.144785 1_556
Br3 Cs0 3.943165 1_556
Br3 Cs1 4.013708 1_555
Br4 Y1 2.846927 1_554
Br4 Y3 2.868117 1_544
Br4 Y2 3.095980 1_555
Br4 Cs0 3.890755 1_555
Br4 Cs1 4.137761 1_554
Br5 Y0 2.846937 1_556
Br5 Y2 2.868116 1_566
Br5 Y3 3.095978 1_555
Br5 Cs1 3.890748 1_555
Br5 Cs0 4.137767 1_556
Br6 Y4 2.867196 1_555
Br6 Y2 2.916701 1_565
Br6 Cs0 3.649034 1_565
Br6 Cs1 3.811230 1_555
Br7 Y5 2.867204 1_555
Br7 Y3 2.916711 1_545
Br7 Cs1 3.649038 1_545
Br7 Cs0 3.811232 1_555
Br8 Y4 2.861241 1_455
Br8 Y3 2.913398 1_554
Br8 Cs1 3.861261 1_555
Br8 Cs0 3.890800 1_555
Br9 Y5 2.861233 1_655
Br9 Y2 2.913405 1_556
Br9 Cs0 3.861256 1_555
Br9 Cs1 3.890796 1_555
Br10 Y4 2.835892 1_555
Br10 Y0 2.899897 1_555
Br10 Cs0 3.835179 1_555
Br10 Cs1 4.200164 1_555
Br11 Y5 2.835889 1_555
Br11 Y1 2.899888 1_555
Br11 Cs1 3.835195 1_555
Br11 Cs0 4.200175 1_555
