# generated using pymatgen
data_PPdSe
_symmetry_space_group_name_H-M   'P 1'
_cell_length_a   5.84228848
_cell_length_b   5.87826686
_cell_length_c   14.19776988
_cell_angle_alpha   90.00000000
_cell_angle_beta   90.00000000
_cell_angle_gamma   90.00000000
_symmetry_Int_Tables_number   1
_chemical_formula_structural   PPdSe
_chemical_formula_sum   'P8 Pd8 Se8'
_cell_volume   487.58734881
_cell_formula_units_Z   8
loop_
 _symmetry_equiv_pos_site_id
 _symmetry_equiv_pos_as_xyz
  1  'x, y, z'
loop_
 _atom_site_type_symbol
 _atom_site_label
 _atom_site_symmetry_multiplicity
 _atom_site_fract_x
 _atom_site_fract_y
 _atom_site_fract_z
 _atom_site_occupancy
  P  P0  1  0.62411212  0.28410546  0.07619175  1
  P  P1  1  0.62411212  0.21589454  0.92380825  1
  P  P2  1  0.87588788  0.78410546  0.42380825  1
  P  P3  1  0.87588788  0.71589454  0.57619175  1
  P  P4  1  0.37588788  0.71589454  0.92380825  1
  P  P5  1  0.37588788  0.78410546  0.07619175  1
  P  P6  1  0.12411212  0.21589454  0.57619175  1
  P  P7  1  0.12411212  0.28410546  0.42380825  1
  Pd  Pd0  1  0.75978607  0.15251108  0.39406489  1
  Pd  Pd1  1  0.75978607  0.34748892  0.60593511  1
  Pd  Pd2  1  0.74021393  0.65251108  0.10593511  1
  Pd  Pd3  1  0.74021393  0.84748892  0.89406489  1
  Pd  Pd4  1  0.24021393  0.84748892  0.60593511  1
  Pd  Pd5  1  0.24021393  0.65251108  0.39406489  1
  Pd  Pd6  1  0.25978607  0.34748892  0.89406489  1
  Pd  Pd7  1  0.25978607  0.15251108  0.10593511  1
  Se  Se0  1  0.36521265  0.03900439  0.34798347  1
  Se  Se1  1  0.36521265  0.46099561  0.65201653  1
  Se  Se2  1  0.13478735  0.53900439  0.15201653  1
  Se  Se3  1  0.13478735  0.96099561  0.84798347  1
  Se  Se4  1  0.63478735  0.96099561  0.65201653  1
  Se  Se5  1  0.63478735  0.53900439  0.34798347  1
  Se  Se6  1  0.86521265  0.46099561  0.84798347  1
  Se  Se7  1  0.86521265  0.03900439  0.15201653  1
loop_
_geom_bond_atom_site_label_1
_geom_bond_atom_site_label_2
_geom_bond_distance
_geom_bond_site_symmetry_2
P0 P1 2.200347 1_554
P0 Se7 2.284481 1_555
P0 Pd7 2.303737 1_555
P0 Pd2 2.308286 1_555
P1 Se6 2.284481 1_555
P1 Pd6 2.303737 1_555
P1 Pd3 2.308286 1_545
P2 P3 2.200347 1_555
P2 Se5 2.284481 1_555
P2 Pd5 2.303737 1_655
P2 Pd0 2.308286 1_565
P3 Se4 2.284481 1_555
P3 Pd4 2.303737 1_655
P3 Pd1 2.308286 1_555
P4 P5 2.200347 1_556
P4 Se3 2.284481 1_555
P4 Pd3 2.303737 1_555
P4 Pd6 2.308286 1_555
P5 Se2 2.284481 1_555
P5 Pd2 2.303737 1_555
P5 Pd7 2.308286 1_565
P6 P7 2.200347 1_555
P6 Se1 2.284481 1_555
P6 Pd1 2.303737 1_455
P6 Pd4 2.308286 1_545
P7 Se0 2.284481 1_555
P7 Pd0 2.303737 1_455
P7 Pd5 2.308286 1_555
Pd0 Se5 2.474456 1_555
Pd0 Se0 2.487415 1_555
Pd1 Se4 2.474456 1_545
Pd1 Se1 2.487415 1_555
Pd2 Se7 2.474456 1_565
Pd2 Se2 2.487415 1_655
Pd3 Se6 2.474456 1_555
Pd3 Se3 2.487415 1_655
Pd4 Se1 2.474456 1_555
Pd4 Se4 2.487415 1_555
Pd5 Se0 2.474456 1_565
Pd5 Se5 2.487415 1_555
Pd6 Se3 2.474456 1_545
Pd6 Se6 2.487415 1_455
Pd7 Se2 2.474456 1_555
Pd7 Se7 2.487415 1_455
