# generated using pymatgen
data_Zr2Sb
_symmetry_space_group_name_H-M   'P 1'
_cell_length_a   4.13219111
_cell_length_b   4.13219019
_cell_length_c   8.50509699
_cell_angle_alpha   104.05918983
_cell_angle_beta   104.05918809
_cell_angle_gamma   90.00002540
_symmetry_Int_Tables_number   1
_chemical_formula_structural   Zr2Sb
_chemical_formula_sum   'Zr4 Sb2'
_cell_volume   136.38552488
_cell_formula_units_Z   2
loop_
 _symmetry_equiv_pos_site_id
 _symmetry_equiv_pos_as_xyz
  1  'x, y, z'
loop_
 _atom_site_type_symbol
 _atom_site_label
 _atom_site_symmetry_multiplicity
 _atom_site_fract_x
 _atom_site_fract_y
 _atom_site_fract_z
 _atom_site_occupancy
  Zr  Zr0  1  0.50000000  -0.00000000  0.00000000  1
  Zr  Zr1  1  -0.00000000  0.50000000  0.00000000  1
  Zr  Zr2  1  0.32241535  0.32241535  0.64483070  1
  Zr  Zr3  1  0.67758465  0.67758465  0.35516930  1
  Sb  Sb0  1  0.13834435  0.13834435  0.27668870  1
  Sb  Sb1  1  0.86165565  0.86165565  0.72331130  1
loop_
_geom_bond_atom_site_label_1
_geom_bond_atom_site_label_2
_geom_bond_distance
_geom_bond_site_symmetry_2
Zr0 Zr1 2.921899 1_655
Zr0 Zr1 2.921899 1_545
Zr0 Zr1 2.921901 1_555
Zr0 Zr1 2.921901 1_645
Sb0 Zr2 2.940512 1_555
Sb0 Zr3 2.988385 1_445
Sb0 Zr3 2.988386 1_555
Sb0 Zr3 2.988387 1_455
Sb0 Zr3 2.988387 1_545
Sb0 Zr1 3.025392 1_555
Sb0 Zr0 3.025393 1_555
Sb0 Zr1 3.025393 1_545
Sb0 Zr0 3.025393 1_455
Sb1 Zr3 2.940512 1_555
Sb1 Zr2 2.988385 1_665
Sb1 Zr2 2.988386 1_555
Sb1 Zr2 2.988387 1_655
Sb1 Zr2 2.988387 1_565
Sb1 Zr1 3.025392 1_656
Sb1 Zr0 3.025393 1_566
Sb1 Zr1 3.025393 1_666
Sb1 Zr0 3.025393 1_666
