# generated using pymatgen
data_HfSn(SeO3)4
_symmetry_space_group_name_H-M   'P 1'
_cell_length_a   8.43535458
_cell_length_b   8.32704717
_cell_length_c   8.42077522
_cell_angle_alpha   90.00000000
_cell_angle_beta   90.50545387
_cell_angle_gamma   90.00000000
_symmetry_Int_Tables_number   1
_chemical_formula_structural   HfSn(SeO3)4
_chemical_formula_sum   'Hf2 Sn2 Se8 O24'
_cell_volume   591.46567098
_cell_formula_units_Z   2
loop_
 _symmetry_equiv_pos_site_id
 _symmetry_equiv_pos_as_xyz
  1  'x, y, z'
loop_
 _atom_site_type_symbol
 _atom_site_label
 _atom_site_symmetry_multiplicity
 _atom_site_fract_x
 _atom_site_fract_y
 _atom_site_fract_z
 _atom_site_occupancy
  Hf  Hf0  1  0.50000000  0.50000000  0.00000000  1
  Hf  Hf1  1  0.50000000  0.00000000  0.50000000  1
  Sn  Sn0  1  0.00000000  0.00000000  0.00000000  1
  Sn  Sn1  1  0.00000000  0.50000000  0.50000000  1
  Se  Se0  1  0.83632810  0.18408733  0.68244661  1
  Se  Se1  1  0.16367190  0.81591267  0.31755339  1
  Se  Se2  1  0.69083390  0.67147215  0.67306718  1
  Se  Se3  1  0.16367190  0.68408733  0.81755339  1
  Se  Se4  1  0.30916610  0.17147215  0.82693282  1
  Se  Se5  1  0.83632810  0.31591267  0.18244661  1
  Se  Se6  1  0.69083390  0.82852785  0.17306718  1
  Se  Se7  1  0.30916610  0.32852785  0.32693282  1
  O  O0  1  0.23711164  0.45954302  0.46686837  1
  O  O1  1  0.96564153  0.24020350  0.04536674  1
  O  O2  1  0.03435847  0.74020350  0.45463326  1
  O  O3  1  0.44631868  0.26659222  0.94167017  1
  O  O4  1  0.27244679  0.93531829  0.43907178  1
  O  O5  1  0.57172002  0.54201072  0.77119306  1
  O  O6  1  0.96094925  0.04161214  0.76181667  1
  O  O7  1  0.55368132  0.73340778  0.05832983  1
  O  O8  1  0.57172002  0.95798928  0.27119306  1
  O  O9  1  0.42827998  0.04201072  0.72880694  1
  O  O10  1  0.76288836  0.95954302  0.03313163  1
  O  O11  1  0.27244679  0.56468171  0.93907178  1
  O  O12  1  0.03905075  0.54161214  0.73818333  1
  O  O13  1  0.03905075  0.95838786  0.23818333  1
  O  O14  1  0.23711164  0.04045698  0.96686837  1
  O  O15  1  0.42827998  0.45798928  0.22880694  1
  O  O16  1  0.76288836  0.54045698  0.53313163  1
  O  O17  1  0.96094925  0.45838786  0.26181667  1
  O  O18  1  0.03435847  0.75979650  0.95463326  1
  O  O19  1  0.44631868  0.23340778  0.44167017  1
  O  O20  1  0.55368132  0.76659222  0.55832983  1
  O  O21  1  0.96564153  0.25979650  0.54536674  1
  O  O22  1  0.72755321  0.06468171  0.56092822  1
  O  O23  1  0.72755321  0.43531829  0.06092822  1
loop_
_geom_bond_atom_site_label_1
_geom_bond_atom_site_label_2
_geom_bond_distance
_geom_bond_site_symmetry_2
Hf0 O7 2.054253 1_555
Hf0 O3 2.054253 1_554
Hf0 O23 2.054363 1_555
Hf0 O11 2.054363 1_554
Hf0 O15 2.054567 1_555
Hf0 O5 2.054567 1_554
Hf1 O19 2.054253 1_555
Hf1 O20 2.054253 1_545
Hf1 O22 2.054363 1_555
Hf1 O4 2.054363 1_545
Hf1 O9 2.054567 1_555
Hf1 O8 2.054567 1_545
O0 Se7 1.720704 1_555
O0 Sn1 2.049795 1_555
O1 Se5 1.715217 1_555
O1 Sn0 2.057338 1_655
O2 Se1 1.715217 1_555
O2 Sn1 2.057338 1_555
O3 Se4 1.696950 1_555
O4 Se1 1.691469 1_555
O5 Se2 1.693849 1_555
O6 Se0 1.716658 1_555
O6 Sn0 2.059054 1_656
O7 Se6 1.696950 1_555
O8 Se6 1.693849 1_555
O9 Se4 1.693849 1_555
O10 Se6 1.720704 1_555
O10 Sn0 2.049795 1_665
O11 Se3 1.691469 1_555
O12 Se3 1.716658 1_555
O12 Sn1 2.059054 1_555
O13 Se1 1.716658 1_555
O13 Sn0 2.059054 1_565
O14 Se4 1.720704 1_555
O14 Sn0 2.049795 1_556
O15 Se7 1.693849 1_555
O16 Se2 1.720704 1_555
O16 Sn1 2.049795 1_655
O17 Se5 1.716658 1_555
O17 Sn1 2.059054 1_655
O18 Se3 1.715217 1_555
O18 Sn0 2.057338 1_566
O19 Se7 1.696950 1_555
O20 Se2 1.696950 1_555
O21 Se0 1.715217 1_555
O21 Sn1 2.057338 1_655
O22 Se0 1.691469 1_555
O23 Se5 1.691469 1_555
