# generated using pymatgen
data_NaHf2MnF11
_symmetry_space_group_name_H-M   'P 1'
_cell_length_a   5.68452028
_cell_length_b   5.68452055
_cell_length_c   7.72273259
_cell_angle_alpha   69.48805681
_cell_angle_beta   69.48805634
_cell_angle_gamma   73.10963860
_symmetry_Int_Tables_number   1
_chemical_formula_structural   NaHf2MnF11
_chemical_formula_sum   'Na1 Hf2 Mn1 F11'
_cell_volume   214.86993503
_cell_formula_units_Z   1
loop_
 _symmetry_equiv_pos_site_id
 _symmetry_equiv_pos_as_xyz
  1  'x, y, z'
loop_
 _atom_site_type_symbol
 _atom_site_label
 _atom_site_symmetry_multiplicity
 _atom_site_fract_x
 _atom_site_fract_y
 _atom_site_fract_z
 _atom_site_occupancy
  Na  Na0  1  0.00000000  0.00000000  0.00000000  1
  Hf  Hf0  1  0.49810509  0.49810509  0.23244114  1
  Hf  Hf1  1  0.50189491  0.50189491  0.76755886  1
  Mn  Mn0  1  0.00000000  0.00000000  0.50000000  1
  F  F0  1  0.19743181  0.77734810  0.30517165  1
  F  F1  1  0.22265190  0.80256819  0.69482835  1
  F  F2  1  0.80256819  0.22265190  0.69482835  1
  F  F3  1  0.77734810  0.19743181  0.30517165  1
  F  F4  1  0.50000000  0.50000000  0.50000000  1
  F  F5  1  0.66828868  0.33171132  0.00000000  1
  F  F6  1  0.33171132  0.66828868  1.00000000  1
  F  F7  1  0.74468846  0.74468846  0.65102879  1
  F  F8  1  0.25531154  0.25531154  0.34897121  1
  F  F9  1  0.73443096  0.73443096  0.10920117  1
  F  F10  1  0.26556904  0.26556904  0.89079883  1
loop_
_geom_bond_atom_site_label_1
_geom_bond_atom_site_label_2
_geom_bond_distance
_geom_bond_site_symmetry_2
F0 Hf0 2.032739 1_555
F0 Mn0 2.109761 1_565
F0 Na0 2.711754 1_565
F1 Hf1 2.032739 1_555
F1 Mn0 2.109761 1_565
F1 Na0 2.711754 1_566
F2 Hf1 2.032739 1_555
F2 Mn0 2.109761 1_655
F2 Na0 2.711754 1_656
F3 Hf0 2.032739 1_555
F3 Mn0 2.109761 1_655
F3 Na0 2.711754 1_655
F4 Hf1 2.073893 1_555
F4 Hf0 2.073893 1_555
F5 Hf1 2.119918 1_554
F5 Hf0 2.119918 1_555
F5 Na0 2.246119 1_655
F6 Hf0 2.119918 1_556
F6 Hf1 2.119918 1_555
F6 Na0 2.246119 1_566
F7 Hf1 1.996394 1_555
F7 Mn0 2.103434 1_665
F8 Hf0 1.996394 1_555
F8 Mn0 2.103434 1_555
F9 Hf0 1.942136 1_555
F9 Na0 2.192955 1_665
F10 Hf1 1.942136 1_555
F10 Na0 2.192955 1_556
