# generated using pymatgen
data_SiSnAsPd6
_symmetry_space_group_name_H-M   'P 1'
_cell_length_a   6.83088552
_cell_length_b   6.83088616
_cell_length_c   3.47011383
_cell_angle_alpha   90.00000000
_cell_angle_beta   90.00000000
_cell_angle_gamma   120.00000633
_symmetry_Int_Tables_number   1
_chemical_formula_structural   SiSnAsPd6
_chemical_formula_sum   'Si1 Sn1 As1 Pd6'
_cell_volume   140.22594618
_cell_formula_units_Z   1
loop_
 _symmetry_equiv_pos_site_id
 _symmetry_equiv_pos_as_xyz
  1  'x, y, z'
loop_
 _atom_site_type_symbol
 _atom_site_label
 _atom_site_symmetry_multiplicity
 _atom_site_fract_x
 _atom_site_fract_y
 _atom_site_fract_z
 _atom_site_occupancy
  Si  Si0  1  0.00000000  0.00000000  0.50000000  1
  Sn  Sn0  1  0.33333300  0.66666700  0.00000000  1
  As  As0  1  0.66666700  0.33333300  0.00000000  1
  Pd  Pd0  1  0.99153443  0.74414620  0.00000000  1
  Pd  Pd1  1  0.25585380  0.24738922  0.00000000  1
  Pd  Pd2  1  0.75261078  0.00846557  0.00000000  1
  Pd  Pd3  1  0.99052187  0.38100599  0.50000000  1
  Pd  Pd4  1  0.61899401  0.60951588  0.50000000  1
  Pd  Pd5  1  0.39048412  0.00947813  0.50000000  1
loop_
_geom_bond_atom_site_label_1
_geom_bond_atom_site_label_2
_geom_bond_distance
_geom_bond_site_symmetry_2
As0 Pd2 2.563590 1_555
As0 Pd0 2.563599 1_555
As0 Pd1 2.563603 1_555
As0 Pd3 2.699993 1_555
As0 Pd3 2.699993 1_554
As0 Pd5 2.699995 1_554
As0 Pd5 2.699995 1_555
As0 Pd4 2.699998 1_555
As0 Pd4 2.699998 1_554
Pd0 Si0 2.442782 1_664
Pd0 Si0 2.442782 1_665
Pd0 Sn0 2.639513 1_655
Pd0 Pd4 2.826974 1_555
Pd0 Pd4 2.826974 1_554
Pd0 Pd5 2.963571 1_665
Pd0 Pd5 2.963571 1_664
Pd0 Pd3 3.024324 1_555
Pd0 Pd3 3.024324 1_554
Pd1 Si0 2.442784 1_555
Pd1 Si0 2.442784 1_554
Pd1 Sn0 2.639513 1_555
Pd1 Pd5 2.826980 1_554
Pd1 Pd5 2.826980 1_555
Pd1 Pd3 2.963567 1_455
Pd1 Pd3 2.963567 1_454
Pd1 Pd4 3.024321 1_555
Pd1 Pd4 3.024321 1_554
Pd2 Si0 2.442787 1_655
Pd2 Si0 2.442787 1_654
Pd2 Sn0 2.639512 1_545
Pd2 Pd3 2.826975 1_555
Pd2 Pd3 2.826975 1_554
Pd2 Pd4 2.963572 1_545
Pd2 Pd4 2.963572 1_544
Pd2 Pd5 3.024319 1_554
Pd2 Pd5 3.024319 1_555
Pd3 Si0 2.635577 1_655
Pd3 Sn0 2.780689 1_655
Pd3 Sn0 2.780689 1_656
Pd4 Si0 2.635577 1_665
Pd4 Sn0 2.780692 1_556
Pd4 Sn0 2.780692 1_555
Pd5 Si0 2.635577 1_555
Pd5 Sn0 2.780687 1_545
Pd5 Sn0 2.780687 1_546
