# generated using pymatgen
data_Mn2CrO4
_symmetry_space_group_name_H-M   'P 1'
_cell_length_a   5.90625677
_cell_length_b   6.00423105
_cell_length_c   5.90665852
_cell_angle_alpha   118.48196447
_cell_angle_beta   90.85188829
_cell_angle_gamma   118.47497054
_symmetry_Int_Tables_number   1
_chemical_formula_structural   Mn2CrO4
_chemical_formula_sum   'Mn4 Cr2 O8'
_cell_volume   153.68047246
_cell_formula_units_Z   2
loop_
 _symmetry_equiv_pos_site_id
 _symmetry_equiv_pos_as_xyz
  1  'x, y, z'
loop_
 _atom_site_type_symbol
 _atom_site_label
 _atom_site_symmetry_multiplicity
 _atom_site_fract_x
 _atom_site_fract_y
 _atom_site_fract_z
 _atom_site_occupancy
  Mn  Mn0  1  0.37476748  0.74989433  0.12489020  1
  Mn  Mn1  1  0.75505204  0.50053531  0.24524069  1
  Mn  Mn2  1  0.87498601  0.24982917  0.62484133  1
  Mn  Mn3  1  0.99505902  0.00058311  0.00511984  1
  Cr  Cr0  1  0.37536820  0.25004099  0.62489624  1
  Cr  Cr1  1  0.37485363  0.75003905  0.62522969  1
  O  O0  1  0.59082206  0.74758546  0.36909959  1
  O  O1  1  0.63101888  0.25182362  0.40842138  1
  O  O2  1  0.15835727  0.75187505  0.88093781  1
  O  O3  1  0.11924875  0.24767169  0.84091833  1
  O  O4  1  0.16946397  0.79420363  0.39007117  1
  O  O5  1  0.14007836  0.29407220  0.41945958  1
  O  O6  1  0.58068848  0.70595605  0.86015162  1
  O  O7  1  0.61023787  0.20588734  0.83072352  1
loop_
_geom_bond_atom_site_label_1
_geom_bond_atom_site_label_2
_geom_bond_distance
_geom_bond_site_symmetry_2
Mn0 O2 1.919964 1_554
Mn0 O0 1.921057 1_555
Mn0 O4 1.990267 1_555
Mn0 O6 1.990744 1_554
Mn0 O1 2.222448 1_565
Mn0 O3 2.223789 1_554
Mn1 O0 2.008600 1_555
Mn1 O1 2.011548 1_555
Mn1 O4 2.053171 1_655
Mn1 O7 2.054184 1_554
Mn2 O1 1.920107 1_555
Mn2 O3 1.920742 1_655
Mn2 O5 1.990199 1_655
Mn2 O7 1.990648 1_555
Mn2 O2 2.222821 1_655
Mn2 O0 2.224029 1_545
Mn3 O3 2.008870 1_654
Mn3 O2 2.011939 1_644
Mn3 O5 2.052713 1_655
Mn3 O6 2.053508 1_544
Cr0 O1 1.992488 1_555
Cr0 O3 1.992679 1_555
Cr0 O4 2.012209 1_545
Cr0 O6 2.012828 1_555
Cr0 O5 2.019830 1_555
Cr0 O7 2.020047 1_555
Cr1 O0 1.992514 1_555
Cr1 O2 1.992835 1_555
Cr1 O7 2.012516 1_565
Cr1 O5 2.012838 1_555
Cr1 O4 2.019689 1_555
Cr1 O6 2.020007 1_555
