# generated using pymatgen
data_Ba3H12RuPt
_symmetry_space_group_name_H-M   'P 1'
_cell_length_a   5.57222540
_cell_length_b   5.57222571
_cell_length_c   8.94093406
_cell_angle_alpha   90.00000000
_cell_angle_beta   90.00000000
_cell_angle_gamma   119.99999816
_symmetry_Int_Tables_number   1
_chemical_formula_structural   Ba3H12RuPt
_chemical_formula_sum   'Ba3 H12 Ru1 Pt1'
_cell_volume   240.42017406
_cell_formula_units_Z   1
loop_
 _symmetry_equiv_pos_site_id
 _symmetry_equiv_pos_as_xyz
  1  'x, y, z'
loop_
 _atom_site_type_symbol
 _atom_site_label
 _atom_site_symmetry_multiplicity
 _atom_site_fract_x
 _atom_site_fract_y
 _atom_site_fract_z
 _atom_site_occupancy
  Ba  Ba0  1  0.00000000  0.00000000  0.93693718  1
  Ba  Ba1  1  0.66666700  0.33333300  0.37834045  1
  Ba  Ba2  1  0.33333300  0.66666700  0.65459388  1
  H  H0  1  0.19020036  0.80979964  0.35069577  1
  H  H1  1  0.61960029  0.80979964  0.35069577  1
  H  H2  1  0.19020036  0.38039971  0.35069577  1
  H  H3  1  0.81509283  0.18490717  0.64867768  1
  H  H4  1  0.36981533  0.18490717  0.64867768  1
  H  H5  1  0.81509283  0.63018467  0.64867768  1
  H  H6  1  0.52441739  0.04883478  0.87284179  1
  H  H7  1  0.52441739  0.47558261  0.87284179  1
  H  H8  1  0.95116522  0.47558261  0.87284179  1
  H  H9  1  0.46606969  0.93213937  0.13581584  1
  H  H10  1  0.46606969  0.53393031  0.13581584  1
  H  H11  1  0.06786063  0.53393031  0.13581584  1
  Ru  Ru0  1  0.66666700  0.33333300  0.75908053  1
  Pt  Pt0  1  0.33333300  0.66666700  0.24694871  1
loop_
_geom_bond_atom_site_label_1
_geom_bond_atom_site_label_2
_geom_bond_distance
_geom_bond_site_symmetry_2
Ba0 H6 2.854185 1_455
Ba0 H6 2.854185 1_555
Ba0 H8 2.854185 1_455
Ba0 H7 2.854185 1_555
Ba0 H7 2.854185 1_445
Ba0 H8 2.854185 1_445
Ba1 H2 2.806262 1_655
Ba1 H2 2.806262 1_555
Ba1 H1 2.806262 1_555
Ba1 H0 2.806262 1_655
Ba1 H0 2.806262 1_545
Ba1 H1 2.806262 1_545
Ba1 H4 2.809682 1_555
Ba1 H3 2.809682 1_555
Ba1 H5 2.809682 1_555
Ba1 H11 2.906919 1_655
Ba1 H9 2.906919 1_545
Ba1 H10 2.906922 1_555
Ba2 H8 2.684937 1_455
Ba2 H6 2.684937 1_565
Ba2 H7 2.684940 1_555
Ba2 H5 2.792165 1_455
Ba2 H4 2.792165 1_565
Ba2 H3 2.792170 1_455
Ba2 H3 2.792170 1_565
Ba2 H5 2.792176 1_555
Ba2 H4 2.792176 1_555
Ba2 H0 3.048139 1_555
Ba2 H1 3.048144 1_555
Ba2 H2 3.048144 1_555
H0 Pt0 1.663964 1_555
H1 Pt0 1.663972 1_555
H2 Pt0 1.663972 1_555
H3 Ru0 1.739676 1_555
H4 Ru0 1.739676 1_555
H5 Ru0 1.739676 1_555
H6 Ru0 1.708629 1_555
H7 Ru0 1.708632 1_555
H8 Ru0 1.708629 1_555
H9 Pt0 1.621261 1_555
H10 Pt0 1.621265 1_555
H11 Pt0 1.621261 1_555
