# generated using pymatgen
data_SrGaSn2Pt
_symmetry_space_group_name_H-M   'P 1'
_cell_length_a   6.38323340
_cell_length_b   6.38323307
_cell_length_c   6.38323181
_cell_angle_alpha   136.61845099
_cell_angle_beta   136.61844799
_cell_angle_gamma   63.02564260
_symmetry_Int_Tables_number   1
_chemical_formula_structural   SrGaSn2Pt
_chemical_formula_sum   'Sr1 Ga1 Sn2 Pt1'
_cell_volume   121.15616077
_cell_formula_units_Z   1
loop_
 _symmetry_equiv_pos_site_id
 _symmetry_equiv_pos_as_xyz
  1  'x, y, z'
loop_
 _atom_site_type_symbol
 _atom_site_label
 _atom_site_symmetry_multiplicity
 _atom_site_fract_x
 _atom_site_fract_y
 _atom_site_fract_z
 _atom_site_occupancy
  Sr  Sr0  1  0.00197366  0.00197366  1.00000000  1
  Ga  Ga0  1  0.59109076  0.59109076  0.00000000  1
  Sn  Sn0  1  0.24917065  0.74917065  0.50000000  1
  Sn  Sn1  1  0.74917065  0.24917065  0.50000000  1
  Pt  Pt0  1  0.36759628  0.36759628  0.00000000  1
loop_
_geom_bond_atom_site_label_1
_geom_bond_atom_site_label_2
_geom_bond_distance
_geom_bond_site_symmetry_2
Ga0 Pt0 2.432449 1_555
Ga0 Sn1 2.919939 1_554
Ga0 Sn0 2.919939 1_554
Ga0 Sn1 2.919939 1_565
Ga0 Sn0 2.919940 1_655
Ga0 Sr0 3.474569 1_665
Ga0 Sr0 3.474569 1_553
Ga0 Sr0 3.474570 1_654
Ga0 Sr0 3.474570 1_564
Sn0 Sr0 3.578309 1_565
Sn0 Sr0 3.578310 1_554
Sn0 Sr0 3.624408 1_564
Sn0 Sr0 3.624408 1_665
Sn1 Sr0 3.578309 1_655
Sn1 Sr0 3.578310 1_554
Sn1 Sr0 3.624408 1_654
Sn1 Sr0 3.624408 1_665
Pt0 Sn0 2.688351 1_555
Pt0 Sn1 2.688351 1_555
Pt0 Sn0 2.688351 1_544
Pt0 Sn1 2.688351 1_454
Pt0 Sr0 3.642918 1_553
Pt0 Sr0 3.642919 1_665
Pt0 Sr0 3.642920 1_564
Pt0 Sr0 3.642920 1_654
