# generated using pymatgen
data_Na4PdAu
_symmetry_space_group_name_H-M   'P 1'
_cell_length_a   5.81013366
_cell_length_b   5.81013306
_cell_length_c   5.81013364
_cell_angle_alpha   102.96890075
_cell_angle_beta   102.96890415
_cell_angle_gamma   123.44633359
_symmetry_Int_Tables_number   1
_chemical_formula_structural   Na4PdAu
_chemical_formula_sum   'Na4 Pd1 Au1'
_cell_volume   144.12740627
_cell_formula_units_Z   1
loop_
 _symmetry_equiv_pos_site_id
 _symmetry_equiv_pos_as_xyz
  1  'x, y, z'
loop_
 _atom_site_type_symbol
 _atom_site_label
 _atom_site_symmetry_multiplicity
 _atom_site_fract_x
 _atom_site_fract_y
 _atom_site_fract_z
 _atom_site_occupancy
  Na  Na0  1  0.92341005  0.42341005  0.84682110  1
  Na  Na1  1  0.57658995  0.07658995  0.15317890  1
  Na  Na2  1  0.07658995  0.92341005  0.50000000  1
  Na  Na3  1  0.42341005  0.57658995  0.50000000  1
  Pd  Pd0  1  0.50000000  0.50000000  0.00000000  1
  Au  Au0  1  0.00000000  0.00000000  0.00000000  1
loop_
_geom_bond_atom_site_label_1
_geom_bond_atom_site_label_2
_geom_bond_distance
_geom_bond_site_symmetry_2
Na0 Pd0 3.008941 1_556
Na0 Pd0 3.008944 1_656
Na1 Pd0 3.008941 1_555
Na1 Pd0 3.008943 1_545
Na2 Pd0 3.008944 1_566
Na2 Pd0 3.008944 1_455
Na3 Pd0 3.008944 1_556
Na3 Pd0 3.008944 1_555
Au0 Pd0 2.752447 1_555
Au0 Pd0 2.752447 1_445
Au0 Na0 3.008941 1_454
Au0 Na1 3.008941 1_455
Au0 Na0 3.008943 1_444
Au0 Na3 3.008944 1_555
Au0 Na3 3.008944 1_444
Au0 Na1 3.008944 1_555
Au0 Na2 3.008944 1_545
Au0 Na2 3.008944 1_544
