# generated using pymatgen
data_K6ScTe4Br
_symmetry_space_group_name_H-M   'P 1'
_cell_length_a   11.38623466
_cell_length_b   11.38623352
_cell_length_c   8.34199889
_cell_angle_alpha   90.00000000
_cell_angle_beta   90.00000000
_cell_angle_gamma   120.00000047
_symmetry_Int_Tables_number   1
_chemical_formula_structural   K6ScTe4Br
_chemical_formula_sum   'K12 Sc2 Te8 Br2'
_cell_volume   936.61470829
_cell_formula_units_Z   2
loop_
 _symmetry_equiv_pos_site_id
 _symmetry_equiv_pos_as_xyz
  1  'x, y, z'
loop_
 _atom_site_type_symbol
 _atom_site_label
 _atom_site_symmetry_multiplicity
 _atom_site_fract_x
 _atom_site_fract_y
 _atom_site_fract_z
 _atom_site_occupancy
  K  K0  1  0.12695269  0.87304731  0.51056094  1
  K  K1  1  0.74609362  0.87304731  0.51056094  1
  K  K2  1  0.94542926  0.47271463  0.32033416  1
  K  K3  1  0.52728537  0.47271463  0.32033416  1
  K  K4  1  0.87304731  0.74609362  0.01056094  1
  K  K5  1  0.25390638  0.12695269  0.01056094  1
  K  K6  1  0.52728537  0.05457074  0.32033416  1
  K  K7  1  0.12695269  0.25390638  0.51056094  1
  K  K8  1  0.87304731  0.12695269  0.01056094  1
  K  K9  1  0.05457074  0.52728537  0.82033416  1
  K  K10  1  0.47271463  0.94542926  0.82033416  1
  K  K11  1  0.47271463  0.52728537  0.82033416  1
  Sc  Sc0  1  0.66666700  0.33333300  0.71418303  1
  Sc  Sc1  1  0.33333300  0.66666700  0.21418303  1
  Te  Te0  1  0.40116494  0.20058247  0.60463615  1
  Te  Te1  1  0.59883506  0.79941753  0.10463615  1
  Te  Te2  1  0.66666700  0.33333300  0.04890682  1
  Te  Te3  1  0.79941753  0.59883506  0.60463615  1
  Te  Te4  1  0.20058247  0.40116494  0.10463615  1
  Te  Te5  1  0.33333300  0.66666700  0.54890682  1
  Te  Te6  1  0.20058247  0.79941753  0.10463615  1
  Te  Te7  1  0.79941753  0.20058247  0.60463615  1
  Br  Br0  1  0.00000000  0.00000000  0.27091740  1
  Br  Br1  1  0.00000000  0.00000000  0.77091740  1
loop_
_geom_bond_atom_site_label_1
_geom_bond_atom_site_label_2
_geom_bond_distance
_geom_bond_site_symmetry_2
K0 Te0 3.553671 1_565
K0 Te3 3.553671 1_455
K0 Te6 3.684438 1_555
K1 Te7 3.553666 1_565
K1 Te3 3.553677 1_555
K1 Te1 3.684435 1_555
K2 Te2 3.561288 1_555
K2 Te7 3.583063 1_555
K2 Te3 3.583063 1_555
K2 Te6 3.835179 1_655
K2 Te4 3.835180 1_655
K3 Te2 3.561295 1_555
K3 Te0 3.583063 1_555
K3 Te3 3.583063 1_555
K3 Te1 3.835179 1_555
K3 Te4 3.835180 1_555
K4 Te6 3.553667 1_655
K4 Te1 3.553678 1_555
K4 Te3 3.684434 1_554
K5 Te6 3.553666 1_545
K5 Te4 3.553677 1_555
K5 Te0 3.684435 1_554
K6 Te2 3.561287 1_555
K6 Te0 3.583063 1_555
K6 Te7 3.583063 1_555
K6 Te1 3.835179 1_545
K6 Te6 3.835180 1_545
K7 Te7 3.553667 1_455
K7 Te0 3.553678 1_555
K7 Te4 3.684434 1_555
K8 Te1 3.553671 1_545
K8 Te4 3.553671 1_655
K8 Te7 3.684438 1_554
K9 Te5 3.561288 1_555
K9 Te6 3.583063 1_556
K9 Te4 3.583063 1_556
K9 Te7 3.835179 1_455
K9 Te3 3.835180 1_455
K10 Te5 3.561287 1_555
K10 Te1 3.583063 1_556
K10 Te6 3.583063 1_556
K10 Te0 3.835179 1_565
K10 Te7 3.835180 1_565
K11 Te5 3.561295 1_555
K11 Te1 3.583063 1_556
K11 Te4 3.583063 1_556
K11 Te0 3.835179 1_555
K11 Te3 3.835180 1_555
Sc0 Te7 2.772951 1_555
Sc0 Te3 2.772961 1_555
Sc0 Te0 2.772961 1_555
Sc0 Te2 2.792265 1_556
Sc1 Te6 2.772951 1_555
Sc1 Te4 2.772961 1_555
Sc1 Te1 2.772961 1_555
Sc1 Te5 2.792265 1_555
Br0 K0 3.203896 1_545
Br0 K7 3.203904 1_555
Br0 K1 3.203904 1_445
Br0 K8 3.314460 1_455
Br0 K4 3.314467 1_445
Br0 K5 3.314467 1_555
Br1 K8 3.203896 1_456
Br1 K4 3.203904 1_446
Br1 K5 3.203904 1_556
Br1 K0 3.314460 1_545
Br1 K7 3.314467 1_555
Br1 K1 3.314467 1_445
