# generated using pymatgen
data_DySi2Rh3
_symmetry_space_group_name_H-M   'P 1'
_cell_length_a   5.48342601
_cell_length_b   5.48342741
_cell_length_c   3.64914379
_cell_angle_alpha   90.00000000
_cell_angle_beta   90.00000000
_cell_angle_gamma   119.99999764
_symmetry_Int_Tables_number   1
_chemical_formula_structural   DySi2Rh3
_chemical_formula_sum   'Dy1 Si2 Rh3'
_cell_volume   95.02233647
_cell_formula_units_Z   1
loop_
 _symmetry_equiv_pos_site_id
 _symmetry_equiv_pos_as_xyz
  1  'x, y, z'
loop_
 _atom_site_type_symbol
 _atom_site_label
 _atom_site_symmetry_multiplicity
 _atom_site_fract_x
 _atom_site_fract_y
 _atom_site_fract_z
 _atom_site_occupancy
  Dy  Dy0  1  0.00000000  -0.00000000  -0.00000000  1
  Si  Si0  1  0.66666700  0.33333300  0.00000000  1
  Si  Si1  1  0.33333300  0.66666700  -0.00000000  1
  Rh  Rh0  1  0.00000000  0.50000000  0.50000000  1
  Rh  Rh1  1  0.50000000  -0.00000000  0.50000000  1
  Rh  Rh2  1  0.50000000  0.50000000  0.50000000  1
loop_
_geom_bond_atom_site_label_1
_geom_bond_atom_site_label_2
_geom_bond_distance
_geom_bond_site_symmetry_2
Dy0 Si1 3.165855 1_545
Dy0 Si0 3.165855 1_455
Dy0 Si0 3.165859 1_555
Dy0 Si1 3.165859 1_445
Dy0 Si0 3.165860 1_445
Dy0 Si1 3.165860 1_555
Dy0 Rh1 3.293335 1_554
Dy0 Rh1 3.293335 1_455
Dy0 Rh1 3.293335 1_555
Dy0 Rh1 3.293335 1_454
Dy0 Rh2 3.293335 1_444
Dy0 Rh2 3.293335 1_445
Dy0 Rh2 3.293335 1_555
Dy0 Rh2 3.293335 1_554
Dy0 Rh0 3.293335 1_554
Dy0 Rh0 3.293335 1_555
Dy0 Rh0 3.293335 1_544
Dy0 Rh0 3.293335 1_545
Rh0 Si1 2.415517 1_556
Rh0 Si0 2.415517 1_455
Rh0 Si0 2.415517 1_456
Rh0 Si1 2.415517 1_555
Rh1 Si1 2.415517 1_545
Rh1 Si1 2.415517 1_546
Rh1 Si0 2.415517 1_556
Rh1 Si0 2.415517 1_555
Rh2 Si1 2.415520 1_556
Rh2 Si0 2.415520 1_556
Rh2 Si0 2.415520 1_555
Rh2 Si1 2.415520 1_555
