# generated using pymatgen
data_Zr10BeIn6P
_symmetry_space_group_name_H-M   'P 1'
_cell_length_a   8.70326006
_cell_length_b   8.70325954
_cell_length_c   5.81167608
_cell_angle_alpha   90.00000000
_cell_angle_beta   90.00000000
_cell_angle_gamma   120.00000198
_symmetry_Int_Tables_number   1
_chemical_formula_structural   Zr10BeIn6P
_chemical_formula_sum   'Zr10 Be1 In6 P1'
_cell_volume   381.23776843
_cell_formula_units_Z   1
loop_
 _symmetry_equiv_pos_site_id
 _symmetry_equiv_pos_as_xyz
  1  'x, y, z'
loop_
 _atom_site_type_symbol
 _atom_site_label
 _atom_site_symmetry_multiplicity
 _atom_site_fract_x
 _atom_site_fract_y
 _atom_site_fract_z
 _atom_site_occupancy
  Zr  Zr0  1  0.75379443  0.75379443  0.24656902  1
  Zr  Zr1  1  0.24620557  0.00000000  0.24656902  1
  Zr  Zr2  1  0.00000000  0.24620557  0.24656902  1
  Zr  Zr3  1  0.24620557  0.24620557  0.75343098  1
  Zr  Zr4  1  0.75379443  0.00000000  0.75343098  1
  Zr  Zr5  1  1.00000000  0.75379443  0.75343098  1
  Zr  Zr6  1  0.66666700  0.33333300  0.50000000  1
  Zr  Zr7  1  0.33333300  0.66666700  0.50000000  1
  Zr  Zr8  1  0.33333300  0.66666700  0.00000000  1
  Zr  Zr9  1  0.66666700  0.33333300  0.00000000  1
  Be  Be0  1  0.00000000  0.00000000  0.00000000  1
  In  In0  1  0.39207309  0.39207309  0.24933705  1
  In  In1  1  0.60792691  0.00000000  0.24933705  1
  In  In2  1  1.00000000  0.60792691  0.24933705  1
  In  In3  1  0.60792691  0.60792691  0.75066295  1
  In  In4  1  0.39207309  0.00000000  0.75066295  1
  In  In5  1  0.00000000  0.39207309  0.75066295  1
  P  P0  1  0.00000000  0.00000000  0.50000000  1
loop_
_geom_bond_atom_site_label_1
_geom_bond_atom_site_label_2
_geom_bond_distance
_geom_bond_site_symmetry_2
Zr6 Zr9 2.905838 1_556
Zr6 Zr9 2.905838 1_555
Zr7 Zr8 2.905838 1_556
Zr7 Zr8 2.905838 1_555
Be0 Zr5 2.577786 1_444
Be0 Zr2 2.577786 1_555
Be0 Zr3 2.577786 1_554
Be0 Zr0 2.577786 1_445
Be0 Zr4 2.577787 1_454
Be0 Zr1 2.577787 1_555
In0 Zr1 2.987277 1_555
In0 Zr2 2.987277 1_555
In0 Zr8 3.048665 1_555
In0 Zr9 3.048665 1_555
In0 Zr7 3.052335 1_555
In0 Zr6 3.052335 1_555
In0 Zr0 3.148196 1_555
In0 Zr3 3.149266 1_554
In0 Zr3 3.192871 1_555
In1 Zr0 2.987277 1_545
In1 Zr2 2.987277 1_655
In1 Zr9 3.048658 1_555
In1 Zr8 3.048660 1_545
In1 Zr6 3.052328 1_555
In1 Zr7 3.052330 1_545
In1 Zr1 3.148196 1_555
In1 Zr4 3.149266 1_554
In1 Zr4 3.192871 1_555
In2 Zr1 2.987277 1_665
In2 Zr0 2.987277 1_555
In2 Zr8 3.048658 1_655
In2 Zr9 3.048660 1_555
In2 Zr7 3.052328 1_655
In2 Zr6 3.052331 1_555
In2 Zr2 3.148196 1_655
In2 Zr5 3.149266 1_554
In2 Zr5 3.192871 1_555
In3 Zr4 2.987277 1_565
In3 Zr5 2.987277 1_555
In3 Zr9 3.048665 1_556
In3 Zr8 3.048665 1_556
In3 Zr6 3.052335 1_555
In3 Zr7 3.052335 1_555
In3 Zr3 3.148196 1_555
In3 Zr0 3.149266 1_556
In3 Zr0 3.192871 1_555
In4 Zr3 2.987277 1_555
In4 Zr5 2.987277 1_445
In4 Zr8 3.048658 1_546
In4 Zr9 3.048660 1_556
In4 Zr7 3.052328 1_545
In4 Zr6 3.052330 1_555
In4 Zr4 3.148196 1_555
In4 Zr1 3.149266 1_556
In4 Zr1 3.192871 1_555
In5 Zr4 2.987277 1_455
In5 Zr3 2.987277 1_555
In5 Zr9 3.048658 1_456
In5 Zr8 3.048660 1_556
In5 Zr6 3.052328 1_455
In5 Zr7 3.052331 1_555
In5 Zr5 3.148196 1_455
In5 Zr2 3.149266 1_556
In5 Zr2 3.192871 1_555
P0 Zr2 2.600167 1_555
P0 Zr5 2.600167 1_445
P0 Zr0 2.600167 1_445
P0 Zr3 2.600167 1_555
P0 Zr1 2.600167 1_555
P0 Zr4 2.600167 1_455
