# generated using pymatgen
data_Mg4Co2P6Ir5
_symmetry_space_group_name_H-M   'P 1'
_cell_length_a   6.72752692
_cell_length_b   6.71867358
_cell_length_c   6.71867328
_cell_angle_alpha   108.59577713
_cell_angle_beta   109.88339865
_cell_angle_gamma   109.88339942
_symmetry_Int_Tables_number   1
_chemical_formula_structural   Mg4Co2P6Ir5
_chemical_formula_sum   'Mg4 Co2 P6 Ir5'
_cell_volume   233.89421105
_cell_formula_units_Z   1
loop_
 _symmetry_equiv_pos_site_id
 _symmetry_equiv_pos_as_xyz
  1  'x, y, z'
loop_
 _atom_site_type_symbol
 _atom_site_label
 _atom_site_symmetry_multiplicity
 _atom_site_fract_x
 _atom_site_fract_y
 _atom_site_fract_z
 _atom_site_occupancy
  Mg  Mg0  1  0.00000000  0.99796647  0.50234366  1
  Mg  Mg1  1  0.50000000  0.00232103  0.99767897  1
  Mg  Mg2  1  0.00000000  0.49765634  0.00203353  1
  Mg  Mg3  1  0.50000000  0.50232103  0.49767897  1
  Co  Co0  1  0.24215513  0.49259588  0.74955925  1
  Co  Co1  1  0.75784487  0.25044075  0.50740412  1
  P  P0  1  0.67393872  0.68155536  0.99238336  1
  P  P1  1  0.31174920  0.32057992  0.99116927  1
  P  P2  1  0.00000000  0.66527345  0.68343589  1
  P  P3  1  1.00000000  0.31656411  0.33472655  1
  P  P4  1  0.68825080  0.00883073  0.67942008  1
  P  P5  1  0.32606128  0.00761664  0.31844464  1
  Ir  Ir0  1  0.00000000  0.00024810  0.99975190  1
  Ir  Ir1  1  0.50000000  0.25772566  0.74227434  1
  Ir  Ir2  1  0.50000000  0.75772566  0.24227434  1
  Ir  Ir3  1  0.74349460  0.49203674  0.25145887  1
  Ir  Ir4  1  0.25650540  0.74854113  0.50796326  1
loop_
_geom_bond_atom_site_label_1
_geom_bond_atom_site_label_2
_geom_bond_distance
_geom_bond_site_symmetry_2
Mg0 P3 2.718024 1_465
Mg0 P4 2.750536 1_465
Mg0 P1 2.750536 1_565
Mg0 P0 2.853167 1_454
Mg0 P5 2.853167 1_565
Mg0 P2 2.865528 1_555
Mg1 P5 2.776680 1_556
Mg1 P0 2.776680 1_545
Mg1 P3 2.799828 1_556
Mg1 P2 2.799828 1_545
Mg1 P4 2.835858 1_555
Mg1 P1 2.835858 1_555
Mg2 P2 2.718024 1_554
Mg2 P1 2.750536 1_554
Mg2 P4 2.750536 1_454
Mg2 P0 2.853167 1_454
Mg2 P5 2.853167 1_565
Mg2 P3 2.865528 1_455
Mg3 P0 2.776680 1_555
Mg3 P5 2.776680 1_555
Mg3 P2 2.799828 1_655
Mg3 P3 2.799828 1_455
Mg3 P1 2.835858 1_554
Mg3 P4 2.835858 1_565
Co0 P1 2.288581 1_555
Co0 P3 2.306377 1_455
Co0 P2 2.306377 1_555
Co0 P0 2.378732 1_555
Co0 Co1 2.647665 1_455
Co0 Ir2 2.715148 1_556
Co0 Ir1 2.715148 1_555
Co0 Ir4 2.715708 1_555
Co0 Mg2 2.722714 1_556
Co0 Mg0 2.722714 1_545
Co0 Mg3 2.804894 1_555
Co0 Mg1 2.804894 1_565
Co1 P4 2.288581 1_555
Co1 P3 2.306377 1_555
Co1 P2 2.306377 1_655
Co1 P5 2.378732 1_555
Co1 Ir1 2.715148 1_555
Co1 Ir2 2.715148 1_545
Co1 Ir3 2.715708 1_555
Co1 Mg2 2.722714 1_656
Co1 Mg0 2.722714 1_645
Co1 Mg1 2.804894 1_554
Co1 Mg3 2.804894 1_555
Ir0 P5 2.462236 1_556
Ir0 P0 2.462236 1_445
Ir0 P4 2.474880 1_455
Ir0 P1 2.474880 1_555
Ir0 P3 2.555624 1_456
Ir0 P2 2.555624 1_545
Ir1 P5 2.376086 1_555
Ir1 P0 2.376086 1_555
Ir1 P1 2.435703 1_555
Ir1 P4 2.435703 1_555
Ir1 Mg3 2.669015 1_555
Ir1 Mg2 2.735579 1_656
Ir1 Mg0 2.735579 1_545
Ir1 Mg1 2.786965 1_555
Ir2 P0 2.376086 1_554
Ir2 P5 2.376086 1_565
Ir2 P4 2.435703 1_565
Ir2 P1 2.435703 1_554
Ir2 Mg1 2.669015 1_564
Ir2 Mg0 2.735579 1_655
Ir2 Mg2 2.735579 1_555
Ir2 Mg3 2.786965 1_555
Ir3 P1 2.409547 1_554
Ir3 P2 2.414238 1_655
Ir3 P3 2.414243 1_555
Ir3 P0 2.476883 1_554
Ir3 Mg3 2.696704 1_555
Ir3 Mg1 2.696710 1_554
Ir3 Mg0 2.784007 1_655
Ir3 Mg2 2.784013 1_655
Ir4 P4 2.409547 1_565
Ir4 P3 2.414238 1_455
Ir4 P2 2.414243 1_555
Ir4 P5 2.476883 1_565
Ir4 Mg3 2.696705 1_555
Ir4 Mg1 2.696710 1_565
Ir4 Mg2 2.784007 1_555
Ir4 Mg0 2.784013 1_555
