# generated using pymatgen
data_K2W3SeO12
_symmetry_space_group_name_H-M   'P 1'
_cell_length_a   7.24951680
_cell_length_b   7.24951665
_cell_length_c   11.99877517
_cell_angle_alpha   90.00000000
_cell_angle_beta   90.00000000
_cell_angle_gamma   119.99999194
_symmetry_Int_Tables_number   1
_chemical_formula_structural   K2W3SeO12
_chemical_formula_sum   'K4 W6 Se2 O24'
_cell_volume   546.11699926
_cell_formula_units_Z   2
loop_
 _symmetry_equiv_pos_site_id
 _symmetry_equiv_pos_as_xyz
  1  'x, y, z'
loop_
 _atom_site_type_symbol
 _atom_site_label
 _atom_site_symmetry_multiplicity
 _atom_site_fract_x
 _atom_site_fract_y
 _atom_site_fract_z
 _atom_site_occupancy
  K  K0  1  0.66666700  0.33333300  0.52936081  1
  K  K1  1  0.33333300  0.66666700  0.02936081  1
  K  K2  1  0.66666700  0.33333300  0.93742935  1
  K  K3  1  0.33333300  0.66666700  0.43742935  1
  W  W0  1  0.66053247  0.81213323  0.76329890  1
  W  W1  1  0.15159977  0.33946753  0.76329890  1
  W  W2  1  0.33946753  0.18786677  0.26329890  1
  W  W3  1  0.18786677  0.84840023  0.76329890  1
  W  W4  1  0.84840023  0.66053247  0.26329890  1
  W  W5  1  0.81213323  0.15159977  0.26329890  1
  Se  Se0  1  0.00000000  0.00000000  0.99854215  1
  Se  Se1  1  0.00000000  0.00000000  0.49854215  1
  O  O0  1  0.75218714  0.87092674  0.93718044  1
  O  O1  1  0.11873960  0.24781286  0.93718044  1
  O  O2  1  0.24781286  0.12907326  0.43718044  1
  O  O3  1  0.12907326  0.88126040  0.93718044  1
  O  O4  1  0.88126040  0.75218714  0.43718044  1
  O  O5  1  0.87092674  0.11873960  0.43718044  1
  O  O6  1  0.45125832  0.53848900  0.81134990  1
  O  O7  1  0.08723068  0.54874168  0.81134990  1
  O  O8  1  0.54874168  0.46151100  0.31134990  1
  O  O9  1  0.46151100  0.91276932  0.81134990  1
  O  O10  1  0.91276932  0.45125832  0.31134990  1
  O  O11  1  0.53848900  0.08723068  0.31134990  1
  O  O12  1  0.59315231  0.78779505  0.62294955  1
  O  O13  1  0.19464274  0.40684769  0.62294955  1
  O  O14  1  0.40684769  0.21220495  0.12294955  1
  O  O15  1  0.21220495  0.80535726  0.62294955  1
  O  O16  1  0.80535726  0.59315231  0.12294955  1
  O  O17  1  0.78779505  0.19464274  0.12294955  1
  O  O18  1  0.87034458  0.11935479  0.75141011  1
  O  O19  1  0.24901021  0.12965542  0.75141011  1
  O  O20  1  0.12965542  0.88064521  0.25141011  1
  O  O21  1  0.88064521  0.75098979  0.75141011  1
  O  O22  1  0.75098979  0.87034458  0.25141011  1
  O  O23  1  0.11935479  0.24901021  0.25141011  1
loop_
_geom_bond_atom_site_label_1
_geom_bond_atom_site_label_2
_geom_bond_distance
_geom_bond_site_symmetry_2
K0 O5 2.853055 1_555
K0 O4 2.853061 1_555
K0 O2 2.853061 1_555
K0 O10 3.038329 1_555
K0 O11 3.038330 1_555
K0 O8 3.038333 1_555
K1 O3 2.853055 1_554
K1 O1 2.853061 1_554
K1 O0 2.853061 1_554
K1 O7 3.038329 1_554
K1 O9 3.038330 1_554
K1 O6 3.038333 1_554
K2 O17 2.760441 1_556
K2 O16 2.760445 1_556
K2 O14 2.760445 1_556
K2 O9 3.043306 1_545
K2 O7 3.043306 1_655
K2 O6 3.043311 1_555
K3 O15 2.760441 1_555
K3 O13 2.760445 1_555
K3 O12 2.760445 1_555
K3 O11 3.043306 1_565
K3 O10 3.043306 1_455
K3 O8 3.043311 1_555
O0 Se0 1.721660 1_665
O0 W0 2.166305 1_555
O1 Se0 1.721660 1_555
O1 W1 2.166306 1_555
O2 Se1 1.721660 1_555
O2 W2 2.166305 1_555
O3 Se0 1.721660 1_565
O3 W3 2.166304 1_555
O4 Se1 1.721660 1_665
O4 W4 2.166306 1_555
O5 Se1 1.721660 1_655
O5 W5 2.166304 1_555
O6 W0 1.886758 1_555
O6 W1 1.999754 1_555
O7 W1 1.886753 1_555
O7 W3 1.999755 1_555
O8 W2 1.886758 1_555
O8 W4 1.999754 1_555
O9 W3 1.886760 1_555
O9 W0 1.999749 1_555
O10 W4 1.886753 1_555
O10 W5 1.999755 1_555
O11 W5 1.886760 1_555
O11 W2 1.999749 1_555
O12 W0 1.737664 1_555
O13 W1 1.737664 1_555
O14 W2 1.737664 1_555
O15 W3 1.737666 1_555
O16 W4 1.737664 1_555
O17 W5 1.737666 1_555
O18 W1 1.862907 1_655
O18 W0 1.976535 1_545
O19 W3 1.862904 1_545
O19 W1 1.976541 1_555
O20 W4 1.862907 1_455
O20 W2 1.976535 1_565
O21 W0 1.862911 1_555
O21 W3 1.976534 1_655
O22 W5 1.862904 1_565
O22 W4 1.976541 1_555
O23 W2 1.862911 1_555
O23 W5 1.976534 1_455
