# generated using pymatgen
data_Ti2Nb2MoN6
_symmetry_space_group_name_H-M   'P 1'
_cell_length_a   5.13517906
_cell_length_b   5.12320305
_cell_length_c   10.19873287
_cell_angle_alpha   90.00000000
_cell_angle_beta   90.00000000
_cell_angle_gamma   119.92288327
_symmetry_Int_Tables_number   1
_chemical_formula_structural   Ti2Nb2MoN6
_chemical_formula_sum   'Ti4 Nb4 Mo2 N12'
_cell_volume   232.54712053
_cell_formula_units_Z   2
loop_
 _symmetry_equiv_pos_site_id
 _symmetry_equiv_pos_as_xyz
  1  'x, y, z'
loop_
 _atom_site_type_symbol
 _atom_site_label
 _atom_site_symmetry_multiplicity
 _atom_site_fract_x
 _atom_site_fract_y
 _atom_site_fract_z
 _atom_site_occupancy
  Ti  Ti0  1  0.33304861  0.66652430  0.50000000  1
  Ti  Ti1  1  0.66753826  0.33376813  0.00000000  1
  Ti  Ti2  1  0.66753826  0.33376813  0.50000000  1
  Ti  Ti3  1  0.33304861  0.66652430  0.00000000  1
  Nb  Nb0  1  0.99880624  0.32299824  0.25000000  1
  Nb  Nb1  1  0.99880624  0.67580800  0.75000000  1
  Nb  Nb2  1  0.32305509  0.32429149  0.75000000  1
  Nb  Nb3  1  0.32305509  0.99876460  0.25000000  1
  Mo  Mo0  1  0.67545383  0.00012626  0.75000000  1
  Mo  Mo1  1  0.67545383  0.67532757  0.25000000  1
  N  N0  1  0.35081045  0.35053228  0.37975029  1
  N  N1  1  0.65323000  0.99662992  0.38055408  1
  N  N2  1  0.99700703  0.65412810  0.38002292  1
  N  N3  1  0.99700703  0.34287893  0.88002292  1
  N  N4  1  0.65323000  0.99662992  0.11944592  1
  N  N5  1  0.65323000  0.65660108  0.88055408  1
  N  N6  1  0.35081045  0.00027817  0.87975029  1
  N  N7  1  0.65323000  0.65660108  0.61944592  1
  N  N8  1  0.99700703  0.34287893  0.61997708  1
  N  N9  1  0.99700703  0.65412810  0.11997708  1
  N  N10  1  0.35081045  0.00027817  0.62024971  1
  N  N11  1  0.35081045  0.35053228  0.12024971  1
loop_
_geom_bond_atom_site_label_1
_geom_bond_atom_site_label_2
_geom_bond_distance
_geom_bond_site_symmetry_2
Mo0 N10 2.128759 1_555
Mo0 N6 2.128759 1_555
Mo0 N3 2.162348 1_555
Mo0 N8 2.162348 1_555
Mo0 N5 2.164005 1_545
Mo0 N7 2.164005 1_545
Mo1 N11 2.128759 1_555
Mo1 N0 2.128759 1_555
Mo1 N2 2.162348 1_555
Mo1 N9 2.162348 1_555
Mo1 N1 2.164009 1_555
Mo1 N4 2.164009 1_555
N0 Ti0 2.068934 1_555
N0 Ti2 2.072712 1_555
N0 Nb3 2.182427 1_545
N0 Nb0 2.187244 1_455
N1 Ti0 2.067208 1_555
N1 Ti2 2.084731 1_565
N1 Nb3 2.160143 1_555
N1 Nb0 2.181171 1_565
N2 Ti2 2.069566 1_555
N2 Ti0 2.090392 1_655
N2 Nb0 2.156875 1_555
N2 Nb3 2.174842 1_655
N3 Ti1 2.069562 1_556
N3 Ti3 2.090392 1_656
N3 Nb1 2.156875 1_555
N3 Nb2 2.174840 1_655
N4 Ti3 2.067208 1_555
N4 Ti1 2.084731 1_565
N4 Nb3 2.160143 1_555
N4 Nb0 2.181171 1_565
N5 Ti3 2.067206 1_556
N5 Ti1 2.084744 1_556
N5 Nb2 2.160143 1_555
N5 Nb1 2.181173 1_555
N6 Ti3 2.068934 1_546
N6 Ti1 2.072708 1_556
N6 Nb2 2.182431 1_555
N6 Nb1 2.187244 1_445
N7 Ti0 2.067206 1_555
N7 Ti2 2.084744 1_555
N7 Nb2 2.160143 1_555
N7 Nb1 2.181173 1_555
N8 Ti2 2.069562 1_555
N8 Ti0 2.090392 1_655
N8 Nb1 2.156875 1_555
N8 Nb2 2.174840 1_655
N9 Ti1 2.069566 1_555
N9 Ti3 2.090392 1_655
N9 Nb0 2.156875 1_555
N9 Nb3 2.174842 1_655
N10 Ti0 2.068934 1_545
N10 Ti2 2.072708 1_555
N10 Nb2 2.182431 1_555
N10 Nb1 2.187244 1_445
N11 Ti3 2.068934 1_555
N11 Ti1 2.072712 1_555
N11 Nb3 2.182427 1_545
N11 Nb0 2.187244 1_455
