# generated using pymatgen
data_Sr(FeP)2
_symmetry_space_group_name_H-M   'P 1'
_cell_length_a   3.79002160
_cell_length_b   3.79002216
_cell_length_c   6.27162816
_cell_angle_alpha   107.58713834
_cell_angle_beta   107.58714404
_cell_angle_gamma   89.99998954
_symmetry_Int_Tables_number   1
_chemical_formula_structural   Sr(FeP)2
_chemical_formula_sum   'Sr1 Fe2 P2'
_cell_volume   81.44829633
_cell_formula_units_Z   1
loop_
 _symmetry_equiv_pos_site_id
 _symmetry_equiv_pos_as_xyz
  1  'x, y, z'
loop_
 _atom_site_type_symbol
 _atom_site_label
 _atom_site_symmetry_multiplicity
 _atom_site_fract_x
 _atom_site_fract_y
 _atom_site_fract_z
 _atom_site_occupancy
  Sr  Sr0  1  -0.00000000  0.00000000  0.00000000  1
  Fe  Fe0  1  0.25000000  0.75000000  0.50000000  1
  Fe  Fe1  1  0.75000000  0.25000000  0.50000000  1
  P  P0  1  0.65583857  0.65583857  0.31167614  1
  P  P1  1  0.34416143  0.34416143  0.68832386  1
loop_
_geom_bond_atom_site_label_1
_geom_bond_atom_site_label_2
_geom_bond_distance
_geom_bond_site_symmetry_2
Fe0 P0 2.175162 1_455
Fe0 P1 2.175162 1_565
Fe0 P0 2.175165 1_555
Fe0 P1 2.175165 1_555
Fe1 P1 2.175162 1_655
Fe1 P0 2.175162 1_545
Fe1 P1 2.175165 1_555
Fe1 P0 2.175165 1_555
P0 Sr0 3.210194 1_665
P0 Sr0 3.210197 1_565
P0 Sr0 3.210197 1_655
P0 Sr0 3.210200 1_555
P1 Sr0 3.210194 1_556
P1 Sr0 3.210197 1_656
P1 Sr0 3.210197 1_566
P1 Sr0 3.210200 1_666
