# generated using pymatgen
data_Ba3ZrPd2O9
_symmetry_space_group_name_H-M   'P 1'
_cell_length_a   5.82356343
_cell_length_b   5.82356320
_cell_length_c   14.53144190
_cell_angle_alpha   90.00000000
_cell_angle_beta   90.00000000
_cell_angle_gamma   120.00000682
_symmetry_Int_Tables_number   1
_chemical_formula_structural   Ba3ZrPd2O9
_chemical_formula_sum   'Ba6 Zr2 Pd4 O18'
_cell_volume   426.79263385
_cell_formula_units_Z   2
loop_
 _symmetry_equiv_pos_site_id
 _symmetry_equiv_pos_as_xyz
  1  'x, y, z'
loop_
 _atom_site_type_symbol
 _atom_site_label
 _atom_site_symmetry_multiplicity
 _atom_site_fract_x
 _atom_site_fract_y
 _atom_site_fract_z
 _atom_site_occupancy
  Ba  Ba0  1  0.33333300  0.66666700  0.09064046  1
  Ba  Ba1  1  0.66666700  0.33333300  0.90935954  1
  Ba  Ba2  1  0.66666700  0.33333300  0.59064046  1
  Ba  Ba3  1  0.33333300  0.66666700  0.40935954  1
  Ba  Ba4  1  0.00000000  0.00000000  0.25000000  1
  Ba  Ba5  1  0.00000000  0.00000000  0.75000000  1
  Zr  Zr0  1  0.00000000  0.00000000  0.00000000  1
  Zr  Zr1  1  0.00000000  0.00000000  0.50000000  1
  Pd  Pd0  1  0.33333300  0.66666700  0.65832745  1
  Pd  Pd1  1  0.66666700  0.33333300  0.34167255  1
  Pd  Pd2  1  0.66666700  0.33333300  0.15832745  1
  Pd  Pd3  1  0.33333300  0.66666700  0.84167255  1
  O  O0  1  0.16859208  0.33718416  0.58163978  1
  O  O1  1  0.83140792  0.66281584  0.41836022  1
  O  O2  1  0.66281584  0.83140792  0.58163978  1
  O  O3  1  0.83140792  0.66281584  0.08163978  1
  O  O4  1  0.33718416  0.16859208  0.41836022  1
  O  O5  1  0.16859208  0.33718416  0.91836022  1
  O  O6  1  0.16859208  0.83140792  0.58163978  1
  O  O7  1  0.33718416  0.16859208  0.08163978  1
  O  O8  1  0.83140792  0.16859208  0.41836022  1
  O  O9  1  0.66281584  0.83140792  0.91836022  1
  O  O10  1  0.83140792  0.16859208  0.08163978  1
  O  O11  1  0.16859208  0.83140792  0.91836022  1
  O  O12  1  0.51622342  0.03244684  0.25000000  1
  O  O13  1  0.48377658  0.96755316  0.75000000  1
  O  O14  1  0.96755316  0.48377658  0.25000000  1
  O  O15  1  0.03244684  0.51622342  0.75000000  1
  O  O16  1  0.51622342  0.48377658  0.25000000  1
  O  O17  1  0.48377658  0.51622342  0.75000000  1
loop_
_geom_bond_atom_site_label_1
_geom_bond_atom_site_label_2
_geom_bond_distance
_geom_bond_site_symmetry_2
Ba0 O7 2.914779 1_565
Ba0 O3 2.914780 1_455
Ba0 O10 2.914782 1_565
Ba0 O10 2.914782 1_455
Ba0 O7 2.914785 1_555
Ba0 O3 2.914785 1_555
Ba0 O12 2.960693 1_565
Ba0 O14 2.960693 1_455
Ba0 O16 2.960697 1_555
Ba0 O11 3.004769 1_554
Ba0 O5 3.004772 1_554
Ba0 O9 3.004772 1_554
Ba1 O9 2.914779 1_545
Ba1 O5 2.914780 1_655
Ba1 O11 2.914782 1_545
Ba1 O11 2.914782 1_655
Ba1 O9 2.914785 1_555
Ba1 O5 2.914785 1_555
Ba1 O13 2.960693 1_545
Ba1 O15 2.960693 1_655
Ba1 O17 2.960697 1_555
Ba1 O10 3.004769 1_556
Ba1 O3 3.004772 1_556
Ba1 O7 3.004772 1_556
Ba2 O2 2.914779 1_545
Ba2 O0 2.914780 1_655
Ba2 O6 2.914782 1_545
Ba2 O6 2.914782 1_655
Ba2 O2 2.914785 1_555
Ba2 O0 2.914785 1_555
Ba2 O13 2.960693 1_545
Ba2 O15 2.960693 1_655
Ba2 O17 2.960697 1_555
Ba2 O8 3.004769 1_555
Ba2 O1 3.004772 1_555
Ba2 O4 3.004772 1_555
Ba3 O4 2.914779 1_565
Ba3 O1 2.914780 1_455
Ba3 O8 2.914782 1_565
Ba3 O8 2.914782 1_455
Ba3 O4 2.914785 1_555
Ba3 O1 2.914785 1_555
Ba3 O12 2.960693 1_565
Ba3 O14 2.960693 1_455
Ba3 O16 2.960697 1_555
Ba3 O6 3.004769 1_555
Ba3 O0 3.004772 1_555
Ba3 O2 3.004772 1_555
Ba4 O16 2.916376 1_445
Ba4 O16 2.916376 1_555
Ba4 O14 2.916376 1_445
Ba4 O14 2.916376 1_455
Ba4 O12 2.916376 1_555
Ba4 O12 2.916376 1_455
Ba4 O3 2.979476 1_445
Ba4 O1 2.979476 1_445
Ba4 O7 2.979476 1_555
Ba4 O4 2.979476 1_555
Ba4 O10 2.979476 1_455
Ba4 O8 2.979476 1_455
Ba5 O17 2.916376 1_555
Ba5 O17 2.916376 1_445
Ba5 O15 2.916376 1_555
Ba5 O15 2.916376 1_545
Ba5 O13 2.916376 1_445
Ba5 O13 2.916376 1_545
Ba5 O0 2.979476 1_555
Ba5 O5 2.979476 1_555
Ba5 O2 2.979476 1_445
Ba5 O9 2.979476 1_445
Ba5 O6 2.979476 1_545
Ba5 O11 2.979476 1_545
O0 Pd0 2.000772 1_555
O0 Zr1 2.073462 1_555
O1 Pd1 2.000772 1_555
O1 Zr1 2.073462 1_665
O2 Pd0 2.000772 1_555
O2 Zr1 2.073462 1_665
O3 Pd2 2.000772 1_555
O3 Zr0 2.073462 1_665
O4 Pd1 2.000772 1_555
O4 Zr1 2.073462 1_555
O5 Pd3 2.000772 1_555
O5 Zr0 2.073462 1_556
O6 Pd0 2.000768 1_555
O6 Zr1 2.073462 1_565
O7 Pd2 2.000772 1_555
O7 Zr0 2.073462 1_555
O8 Pd1 2.000768 1_555
O8 Zr1 2.073462 1_655
O9 Pd3 2.000772 1_555
O9 Zr0 2.073462 1_666
O10 Pd2 2.000768 1_555
O10 Zr0 2.073462 1_655
O11 Pd3 2.000768 1_555
O11 Zr0 2.073462 1_566
O12 Pd1 2.019236 1_555
O12 Pd2 2.019236 1_555
O13 Pd3 2.019236 1_555
O13 Pd0 2.019236 1_555
O14 Pd1 2.019236 1_555
O14 Pd2 2.019236 1_555
O15 Pd3 2.019236 1_555
O15 Pd0 2.019236 1_555
O16 Pd1 2.019240 1_555
O16 Pd2 2.019240 1_555
O17 Pd3 2.019240 1_555
O17 Pd0 2.019240 1_555
