# generated using pymatgen
data_NaCa4Bi3
_symmetry_space_group_name_H-M   'P 1'
_cell_length_a   8.26382824
_cell_length_b   9.54515546
_cell_length_c   13.49112854
_cell_angle_alpha   90.00000000
_cell_angle_beta   90.00000000
_cell_angle_gamma   90.00000000
_symmetry_Int_Tables_number   1
_chemical_formula_structural   NaCa4Bi3
_chemical_formula_sum   'Na4 Ca16 Bi12'
_cell_volume   1064.17381422
_cell_formula_units_Z   4
loop_
 _symmetry_equiv_pos_site_id
 _symmetry_equiv_pos_as_xyz
  1  'x, y, z'
loop_
 _atom_site_type_symbol
 _atom_site_label
 _atom_site_symmetry_multiplicity
 _atom_site_fract_x
 _atom_site_fract_y
 _atom_site_fract_z
 _atom_site_occupancy
  Na  Na0  1  0.33191797  0.96600018  0.09655487  1
  Na  Na1  1  0.83191797  0.03399982  0.40344513  1
  Na  Na2  1  0.66808203  0.46600018  0.90344513  1
  Na  Na3  1  0.16808203  0.53399982  0.59655487  1
  Ca  Ca0  1  0.66364595  0.02395471  0.90752864  1
  Ca  Ca1  1  0.16364595  0.97604529  0.59247136  1
  Ca  Ca2  1  0.33635405  0.52395471  0.09247136  1
  Ca  Ca3  1  0.83635405  0.47604529  0.40752864  1
  Ca  Ca4  1  0.68668595  0.76044955  0.22180648  1
  Ca  Ca5  1  0.18668595  0.23955045  0.27819352  1
  Ca  Ca6  1  0.31331405  0.26044955  0.77819352  1
  Ca  Ca7  1  0.81331405  0.73955045  0.72180648  1
  Ca  Ca8  1  0.16599414  0.75856835  0.30266589  1
  Ca  Ca9  1  0.66599414  0.24143165  0.19733411  1
  Ca  Ca10  1  0.83400586  0.25856835  0.69733411  1
  Ca  Ca11  1  0.33400586  0.74143165  0.80266589  1
  Ca  Ca12  1  0.54520663  0.75499099  0.50059426  1
  Ca  Ca13  1  0.04520663  0.24500901  0.99940574  1
  Ca  Ca14  1  0.45479337  0.25499099  0.49940574  1
  Ca  Ca15  1  0.95479337  0.74500901  0.00059426  1
  Bi  Bi0  1  0.95629124  0.00284664  0.16410304  1
  Bi  Bi1  1  0.45629124  0.99715336  0.33589696  1
  Bi  Bi2  1  0.04370876  0.50284664  0.83589696  1
  Bi  Bi3  1  0.54370876  0.49715336  0.66410304  1
  Bi  Bi4  1  0.03260213  0.99676099  0.82477118  1
  Bi  Bi5  1  0.53260213  0.00323901  0.67522882  1
  Bi  Bi6  1  0.96739787  0.49676099  0.17522882  1
  Bi  Bi7  1  0.46739787  0.50323901  0.32477118  1
  Bi  Bi8  1  0.55613956  0.74350820  0.99351004  1
  Bi  Bi9  1  0.05613956  0.25649180  0.50648996  1
  Bi  Bi10  1  0.44386044  0.24350820  0.00648996  1
  Bi  Bi11  1  0.94386044  0.75649180  0.49351004  1
loop_
_geom_bond_atom_site_label_1
_geom_bond_atom_site_label_2
_geom_bond_distance
_geom_bond_site_symmetry_2
Bi0 Na0 3.254181 1_645
Bi0 Ca13 3.289362 1_654
Bi0 Ca4 3.305024 1_545
Bi0 Ca15 3.305033 1_545
Bi0 Ca5 3.331507 1_655
Bi0 Ca9 3.338003 1_555
Bi0 Na1 3.401647 1_555
Bi0 Ca8 3.454614 1_645
Bi1 Na1 3.254181 1_565
Bi1 Ca12 3.289362 1_555
Bi1 Ca5 3.305024 1_565
Bi1 Ca14 3.305033 1_565
Bi1 Ca4 3.331507 1_555
Bi1 Ca8 3.338003 1_555
Bi1 Na0 3.401647 1_555
Bi1 Ca9 3.454614 1_565
Bi2 Na2 3.254181 1_455
Bi2 Ca15 3.289362 1_456
Bi2 Ca6 3.305024 1_555
Bi2 Ca13 3.305033 1_555
Bi2 Ca7 3.331507 1_455
Bi2 Ca11 3.338003 1_555
Bi2 Na3 3.401647 1_555
Bi2 Ca10 3.454614 1_455
Bi3 Na3 3.254181 1_555
Bi3 Ca14 3.289362 1_555
Bi3 Ca7 3.305024 1_555
Bi3 Ca12 3.305033 1_555
Bi3 Ca6 3.331507 1_555
Bi3 Ca10 3.338003 1_555
Bi3 Na2 3.401647 1_555
Bi3 Ca11 3.454614 1_555
Bi4 Ca0 3.257341 1_465
Bi4 Ca1 3.321701 1_555
Bi4 Ca13 3.343129 1_565
Bi4 Ca7 3.352780 1_455
Bi4 Ca15 3.437229 1_456
Bi4 Ca10 3.448808 1_465
Bi4 Ca6 3.480109 1_565
Bi4 Ca11 3.497500 1_555
Bi5 Ca1 3.257341 1_545
Bi5 Ca0 3.321701 1_555
Bi5 Ca12 3.343129 1_545
Bi5 Ca6 3.352780 1_555
Bi5 Ca14 3.437229 1_555
Bi5 Ca11 3.448808 1_545
Bi5 Ca7 3.480109 1_545
Bi5 Ca10 3.497500 1_555
Bi6 Ca2 3.257341 1_655
Bi6 Ca3 3.321701 1_555
Bi6 Ca15 3.343129 1_555
Bi6 Ca5 3.352780 1_655
Bi6 Ca13 3.437229 1_654
Bi6 Ca8 3.448808 1_655
Bi6 Ca4 3.480109 1_555
Bi6 Ca9 3.497500 1_555
Bi7 Ca3 3.257341 1_555
Bi7 Ca2 3.321701 1_555
Bi7 Ca14 3.343129 1_555
Bi7 Ca4 3.352780 1_555
Bi7 Ca12 3.437229 1_555
Bi7 Ca9 3.448808 1_555
Bi7 Ca5 3.480109 1_555
Bi7 Ca8 3.497500 1_555
Bi8 Ca0 3.049700 1_565
Bi8 Na2 3.057551 1_555
Bi8 Ca2 3.077851 1_556
Bi8 Na0 3.142637 1_556
Bi8 Ca11 3.162150 1_555
Bi8 Ca4 3.267452 1_556
Bi8 Ca15 3.295824 1_556
Bi9 Ca1 3.049700 1_545
Bi9 Na3 3.057551 1_555
Bi9 Ca3 3.077851 1_455
Bi9 Na1 3.142637 1_455
Bi9 Ca10 3.162150 1_455
Bi9 Ca5 3.267452 1_555
Bi9 Ca14 3.295824 1_555
Bi10 Ca2 3.049700 1_555
Bi10 Na0 3.057551 1_545
Bi10 Ca0 3.077851 1_554
Bi10 Na2 3.142637 1_554
Bi10 Ca9 3.162150 1_555
Bi10 Ca6 3.267452 1_554
Bi10 Ca13 3.295824 1_554
Bi11 Ca3 3.049700 1_555
Bi11 Na1 3.057551 1_565
Bi11 Ca1 3.077851 1_655
Bi11 Na3 3.142637 1_655
Bi11 Ca8 3.162150 1_655
Bi11 Ca7 3.267452 1_555
Bi11 Ca12 3.295824 1_555
