# generated using pymatgen
data_Cs4PbS4
_symmetry_space_group_name_H-M   'P 1'
_cell_length_a   9.02791779
_cell_length_b   10.58505166
_cell_length_c   15.15298187
_cell_angle_alpha   90.00000000
_cell_angle_beta   90.00000000
_cell_angle_gamma   90.00000000
_symmetry_Int_Tables_number   1
_chemical_formula_structural   Cs4PbS4
_chemical_formula_sum   'Cs16 Pb4 S16'
_cell_volume   1448.03374049
_cell_formula_units_Z   4
loop_
 _symmetry_equiv_pos_site_id
 _symmetry_equiv_pos_as_xyz
  1  'x, y, z'
loop_
 _atom_site_type_symbol
 _atom_site_label
 _atom_site_symmetry_multiplicity
 _atom_site_fract_x
 _atom_site_fract_y
 _atom_site_fract_z
 _atom_site_occupancy
  Cs  Cs0  1  0.00000000  0.00000000  0.00000000  1
  Cs  Cs1  1  0.50000000  0.00000000  0.50000000  1
  Cs  Cs2  1  0.00000000  0.50000000  0.00000000  1
  Cs  Cs3  1  0.50000000  0.50000000  0.50000000  1
  Cs  Cs4  1  0.99139125  0.75000000  0.42051603  1
  Cs  Cs5  1  0.49139125  0.25000000  0.07948397  1
  Cs  Cs6  1  0.00860875  0.25000000  0.57948397  1
  Cs  Cs7  1  0.50860875  0.75000000  0.92051603  1
  Cs  Cs8  1  0.83171963  0.05444884  0.28358846  1
  Cs  Cs9  1  0.33171963  0.94555116  0.21641154  1
  Cs  Cs10  1  0.16828037  0.55444884  0.71641154  1
  Cs  Cs11  1  0.66828037  0.44555116  0.78358846  1
  Cs  Cs12  1  0.16828037  0.94555116  0.71641154  1
  Cs  Cs13  1  0.66828037  0.05444884  0.78358846  1
  Cs  Cs14  1  0.83171963  0.44555116  0.28358846  1
  Cs  Cs15  1  0.33171963  0.55444884  0.21641154  1
  Pb  Pb0  1  0.76472246  0.75000000  0.66375523  1
  Pb  Pb1  1  0.23527754  0.25000000  0.33624477  1
  Pb  Pb2  1  0.73527754  0.75000000  0.16375523  1
  Pb  Pb3  1  0.26472246  0.25000000  0.83624477  1
  S  S0  1  0.98590550  0.25000000  0.82347940  1
  S  S1  1  0.51409450  0.25000000  0.32347940  1
  S  S2  1  0.48590550  0.75000000  0.67652060  1
  S  S3  1  0.01409450  0.75000000  0.17652060  1
  S  S4  1  0.65164493  0.55508072  0.08657735  1
  S  S5  1  0.15164493  0.44491928  0.41342265  1
  S  S6  1  0.34835507  0.05508072  0.91342265  1
  S  S7  1  0.84835507  0.94491928  0.58657735  1
  S  S8  1  0.34835507  0.44491928  0.91342265  1
  S  S9  1  0.84835507  0.55508072  0.58657735  1
  S  S10  1  0.65164493  0.94491928  0.08657735  1
  S  S11  1  0.15164493  0.05508072  0.41342265  1
  S  S12  1  0.62581416  0.75000000  0.31756503  1
  S  S13  1  0.12581416  0.25000000  0.18243497  1
  S  S14  1  0.37418584  0.25000000  0.68243497  1
  S  S15  1  0.87418584  0.75000000  0.81756503  1
loop_
_geom_bond_atom_site_label_1
_geom_bond_atom_site_label_2
_geom_bond_distance
_geom_bond_site_symmetry_2
Cs0 S6 3.457101 1_554
Cs0 S10 3.457101 1_445
Cs0 S3 3.764774 1_545
Cs0 S0 3.764774 1_454
Cs0 S13 3.991858 1_555
Cs0 S15 3.991858 1_444
Cs1 S7 3.457101 1_545
Cs1 S11 3.457101 1_555
Cs1 S2 3.764774 1_545
Cs1 S1 3.764774 1_555
Cs1 S14 3.991858 1_555
Cs1 S12 3.991858 1_545
Cs2 S8 3.457101 1_554
Cs2 S4 3.457101 1_455
Cs2 S3 3.764774 1_555
Cs2 S0 3.764774 1_454
Cs2 S13 3.991858 1_555
Cs2 S15 3.991858 1_454
Cs3 S9 3.457101 1_555
Cs3 S5 3.457101 1_555
Cs3 S2 3.764774 1_555
Cs3 S1 3.764774 1_555
Cs3 S14 3.991858 1_555
Cs3 S12 3.991858 1_555
Cs4 S7 3.500902 1_555
Cs4 S9 3.500902 1_555
Cs4 S11 3.540199 1_665
Cs4 S5 3.540199 1_655
Cs4 S12 3.650519 1_555
Cs4 S3 3.702935 1_655
Cs5 S8 3.500902 1_554
Cs5 S6 3.500902 1_554
Cs5 S4 3.540199 1_555
Cs5 S10 3.540199 1_545
Cs5 S13 3.650519 1_555
Cs5 S1 3.702935 1_555
Cs6 S5 3.500902 1_555
Cs6 S11 3.500902 1_555
Cs6 S9 3.540199 1_455
Cs6 S7 3.540199 1_445
Cs6 S14 3.650519 1_555
Cs6 S0 3.702935 1_455
Cs7 S10 3.500902 1_556
Cs7 S4 3.500902 1_556
Cs7 S6 3.540199 1_565
Cs7 S8 3.540199 1_555
Cs7 S15 3.650519 1_555
Cs7 S2 3.702935 1_555
Cs8 S11 3.494660 1_655
Cs8 S1 3.587822 1_555
Cs8 S10 3.591532 1_545
Cs8 S13 3.699097 1_655
Cs8 S12 3.755764 1_545
Cs8 Pb2 3.800066 1_545
Cs8 S3 3.965881 1_645
Cs9 S10 3.494660 1_555
Cs9 S3 3.587822 1_555
Cs9 S11 3.591532 1_565
Cs9 S12 3.699097 1_555
Cs9 S13 3.755764 1_565
Cs9 Pb1 3.800066 1_565
Cs9 S1 3.965881 1_565
Cs10 S9 3.494660 1_455
Cs10 S2 3.587822 1_555
Cs10 S8 3.591532 1_555
Cs10 S15 3.699097 1_455
Cs10 S14 3.755764 1_555
Cs10 Pb3 3.800066 1_555
Cs10 S0 3.965881 1_455
Cs11 S8 3.494660 1_555
Cs11 S0 3.587822 1_555
Cs11 S9 3.591532 1_555
Cs11 S14 3.699097 1_555
Cs11 S15 3.755764 1_555
Cs11 Pb0 3.800066 1_555
Cs11 S2 3.965881 1_555
Cs12 S7 3.494660 1_455
Cs12 S2 3.587822 1_555
Cs12 S6 3.591532 1_565
Cs12 S15 3.699097 1_455
Cs12 S14 3.755764 1_565
Cs12 Pb3 3.800066 1_565
Cs12 S0 3.965881 1_465
Cs13 S6 3.494660 1_555
Cs13 S0 3.587822 1_555
Cs13 S7 3.591532 1_545
Cs13 S14 3.699097 1_555
Cs13 S15 3.755764 1_545
Cs13 Pb0 3.800066 1_545
Cs13 S2 3.965881 1_545
Cs14 S5 3.494660 1_655
Cs14 S1 3.587822 1_555
Cs14 S4 3.591532 1_555
Cs14 S13 3.699097 1_655
Cs14 S12 3.755764 1_555
Cs14 Pb2 3.800066 1_555
Cs14 S3 3.965881 1_655
Cs15 S4 3.494660 1_555
Cs15 S3 3.587822 1_555
Cs15 S5 3.591532 1_555
Cs15 S12 3.699097 1_555
Cs15 S13 3.755764 1_555
Cs15 Pb1 3.800066 1_555
Cs15 S1 3.965881 1_555
Pb0 S7 2.488907 1_555
Pb0 S9 2.488907 1_555
Pb0 S2 2.524558 1_555
Pb0 S15 2.531531 1_555
Pb1 S5 2.488907 1_555
Pb1 S11 2.488907 1_555
Pb1 S1 2.524558 1_555
Pb1 S13 2.531531 1_555
Pb2 S10 2.488907 1_555
Pb2 S4 2.488907 1_555
Pb2 S3 2.524558 1_655
Pb2 S12 2.531531 1_555
Pb3 S8 2.488907 1_555
Pb3 S6 2.488907 1_555
Pb3 S0 2.524558 1_455
Pb3 S14 2.531531 1_555
