# generated using pymatgen
data_Rb8Y6SiI20
_symmetry_space_group_name_H-M   'P 1'
_cell_length_a   12.97320881
_cell_length_b   12.97320917
_cell_length_c   12.97320790
_cell_angle_alpha   60.00000322
_cell_angle_beta   60.00000230
_cell_angle_gamma   60.00000245
_symmetry_Int_Tables_number   1
_chemical_formula_structural   Rb8Y6SiI20
_chemical_formula_sum   'Rb8 Y6 Si1 I20'
_cell_volume   1543.92867996
_cell_formula_units_Z   1
loop_
 _symmetry_equiv_pos_site_id
 _symmetry_equiv_pos_as_xyz
  1  'x, y, z'
loop_
 _atom_site_type_symbol
 _atom_site_label
 _atom_site_symmetry_multiplicity
 _atom_site_fract_x
 _atom_site_fract_y
 _atom_site_fract_z
 _atom_site_occupancy
  Rb  Rb0  1  0.35953057  0.35953057  0.35953057  1
  Rb  Rb1  1  0.64046943  0.64046943  0.64046943  1
  Rb  Rb2  1  0.35953057  0.35953057  0.92140728  1
  Rb  Rb3  1  0.35953057  0.92140728  0.35953057  1
  Rb  Rb4  1  0.64046943  0.64046943  0.07859272  1
  Rb  Rb5  1  0.64046943  0.07859272  0.64046943  1
  Rb  Rb6  1  0.92140728  0.35953057  0.35953057  1
  Rb  Rb7  1  0.07859272  0.64046943  0.64046943  1
  Y  Y0  1  0.84573479  0.15426521  0.15426521  1
  Y  Y1  1  0.15426521  0.84573479  0.84573479  1
  Y  Y2  1  0.15426521  0.84573479  0.15426521  1
  Y  Y3  1  0.84573479  0.15426521  0.84573479  1
  Y  Y4  1  0.15426521  0.15426521  0.84573479  1
  Y  Y5  1  0.84573479  0.84573479  0.15426521  1
  Si  Si0  1  0.00000000  0.00000000  0.00000000  1
  I  I0  1  0.33631338  0.00000000  1.00000000  1
  I  I1  1  0.66368662  0.00000000  0.00000000  1
  I  I2  1  1.00000000  0.33631338  0.66368662  1
  I  I3  1  0.00000000  0.66368662  0.33631338  1
  I  I4  1  1.00000000  0.33631338  1.00000000  1
  I  I5  1  0.66368662  0.00000000  0.33631338  1
  I  I6  1  0.00000000  0.66368662  0.00000000  1
  I  I7  1  0.33631338  0.00000000  0.66368662  1
  I  I8  1  0.00000000  0.00000000  0.33631338  1
  I  I9  1  0.00000000  0.00000000  0.66368662  1
  I  I10  1  0.66368662  0.33631338  1.00000000  1
  I  I11  1  0.33631338  0.66368662  0.00000000  1
  I  I12  1  0.67576603  0.32423397  0.32423397  1
  I  I13  1  0.32423397  0.67576603  0.67576603  1
  I  I14  1  0.32423397  0.67576603  0.32423397  1
  I  I15  1  0.67576603  0.32423397  0.67576603  1
  I  I16  1  0.32423397  0.32423397  0.67576603  1
  I  I17  1  0.67576603  0.67576603  0.32423397  1
  I  I18  1  0.25000000  0.25000000  0.25000000  1
  I  I19  1  0.75000000  0.75000000  0.75000000  1
loop_
_geom_bond_atom_site_label_1
_geom_bond_atom_site_label_2
_geom_bond_distance
_geom_bond_site_symmetry_2
Si0 Y2 2.830286 1_545
Si0 Y3 2.830286 1_454
Si0 Y0 2.830286 1_455
Si0 Y1 2.830286 1_544
Si0 Y4 2.830287 1_554
Si0 Y5 2.830287 1_445
I0 Y4 3.095661 1_555
I0 Y2 3.095661 1_546
I1 Y5 3.095661 1_545
I1 Y3 3.095661 1_554
I2 Y4 3.095661 1_655
I2 Y3 3.095661 1_555
I3 Y5 3.095661 1_455
I3 Y2 3.095661 1_555
I4 Y4 3.095661 1_655
I4 Y0 3.095661 1_556
I5 Y5 3.095661 1_545
I5 Y0 3.095661 1_555
I6 Y5 3.095661 1_455
I6 Y1 3.095661 1_554
I7 Y4 3.095661 1_555
I7 Y1 3.095661 1_545
I8 Y0 3.095661 1_455
I8 Y2 3.095661 1_545
I9 Y1 3.095661 1_545
I9 Y3 3.095661 1_455
I10 Y3 3.095661 1_555
I10 Y0 3.095661 1_556
I11 Y2 3.095661 1_555
I11 Y1 3.095661 1_554
I12 Y0 3.118398 1_555
I12 Rb6 3.701750 1_555
I12 Rb5 3.701758 1_555
I12 Rb4 3.701758 1_555
I12 Rb0 3.701762 1_555
I13 Y1 3.118398 1_555
I13 Rb7 3.701750 1_555
I13 Rb3 3.701758 1_555
I13 Rb2 3.701758 1_555
I13 Rb1 3.701762 1_555
I14 Y2 3.118398 1_555
I14 Rb3 3.701750 1_555
I14 Rb7 3.701757 1_555
I14 Rb4 3.701758 1_555
I14 Rb0 3.701762 1_555
I15 Y3 3.118398 1_555
I15 Rb5 3.701750 1_555
I15 Rb6 3.701757 1_555
I15 Rb2 3.701758 1_555
I15 Rb1 3.701762 1_555
I16 Y4 3.118398 1_555
I16 Rb2 3.701749 1_555
I16 Rb5 3.701758 1_555
I16 Rb7 3.701758 1_555
I16 Rb0 3.701762 1_555
I17 Y5 3.118398 1_555
I17 Rb4 3.701749 1_555
I17 Rb3 3.701758 1_555
I17 Rb6 3.701758 1_555
I17 Rb1 3.701762 1_555
I18 Rb0 3.480634 1_555
I18 Rb2 3.480645 1_554
I18 Rb6 3.480645 1_455
I18 Rb3 3.480645 1_545
I19 Rb1 3.480634 1_555
I19 Rb4 3.480645 1_556
I19 Rb7 3.480645 1_655
I19 Rb5 3.480645 1_565
