# generated using pymatgen
data_IrRu3Pb4O13
_symmetry_space_group_name_H-M   'P 1'
_cell_length_a   7.27223881
_cell_length_b   7.24676441
_cell_length_c   7.27223880
_cell_angle_alpha   59.88364726
_cell_angle_beta   60.00000005
_cell_angle_gamma   59.88364215
_symmetry_Int_Tables_number   1
_chemical_formula_structural   IrRu3Pb4O13
_chemical_formula_sum   'Ir1 Ru3 Pb4 O13'
_cell_volume   270.51999314
_cell_formula_units_Z   1
loop_
 _symmetry_equiv_pos_site_id
 _symmetry_equiv_pos_as_xyz
  1  'x, y, z'
loop_
 _atom_site_type_symbol
 _atom_site_label
 _atom_site_symmetry_multiplicity
 _atom_site_fract_x
 _atom_site_fract_y
 _atom_site_fract_z
 _atom_site_occupancy
  Ir  Ir0  1  0.87489773  0.37530482  0.87489773  1
  Ru  Ru0  1  0.87474539  0.87540528  0.37510294  1
  Ru  Ru1  1  0.87474539  0.87540528  0.87474539  1
  Ru  Ru2  1  0.37510294  0.87540528  0.87474539  1
  Pb  Pb0  1  0.88018886  0.37355899  0.37312608  1
  Pb  Pb1  1  0.37312608  0.37355899  0.37312608  1
  Pb  Pb2  1  0.37312608  0.37355899  0.88018886  1
  Pb  Pb3  1  0.37263968  0.88207996  0.37263968  1
  O  O0  1  0.19744508  0.80469831  0.80041053  1
  O  O1  1  0.19744508  0.80469831  0.19744508  1
  O  O2  1  0.55687266  0.94020445  0.94604922  1
  O  O3  1  0.55687266  0.94020445  0.55687266  1
  O  O4  1  0.94604922  0.94020445  0.55687266  1
  O  O5  1  0.80041053  0.80469831  0.19744508  1
  O  O6  1  0.54929583  0.55167060  0.94951728  1
  O  O7  1  0.79749102  0.20168573  0.79749102  1
  O  O8  1  0.79749102  0.20168573  0.20333222  1
  O  O9  1  0.94951728  0.55167060  0.94951728  1
  O  O10  1  0.94951728  0.55167060  0.54929583  1
  O  O11  1  0.20333222  0.20168573  0.79749102  1
  O  O12  1  0.49968395  0.50094714  0.49968395  1
loop_
_geom_bond_atom_site_label_1
_geom_bond_atom_site_label_2
_geom_bond_distance
_geom_bond_site_symmetry_2
Ir0 O6 1.977074 1_555
Ir0 O10 1.977074 1_555
Ir0 O9 1.977090 1_555
Ir0 O7 1.988751 1_555
Ir0 O11 1.988762 1_655
Ir0 O8 1.988762 1_556
O0 Ru1 1.965877 1_455
O0 Ru2 1.965877 1_555
O0 Pb3 2.572556 1_555
O0 Pb2 2.578175 1_555
O1 Ru0 1.965877 1_455
O1 Ru2 1.965877 1_554
O1 Pb3 2.572556 1_555
O1 Pb1 2.578176 1_555
O2 Ru1 1.946650 1_555
O2 Ru2 1.946650 1_555
O2 Pb3 2.587498 1_556
O2 Pb2 2.607039 1_565
O3 Ru0 1.946650 1_555
O3 Ru2 1.946650 1_555
O3 Pb3 2.587498 1_555
O3 Pb1 2.607038 1_565
O4 Ru1 1.946650 1_555
O4 Ru0 1.946650 1_555
O4 Pb3 2.587498 1_655
O4 Pb0 2.607039 1_565
O5 Ru1 1.965877 1_554
O5 Ru0 1.965877 1_555
O5 Pb3 2.572556 1_555
O5 Pb0 2.578175 1_555
O6 Ru2 1.957183 1_555
O6 Pb1 2.553408 1_556
O6 Pb2 2.553413 1_555
O7 Ru1 1.967620 1_545
O7 Pb2 2.544669 1_555
O7 Pb0 2.544669 1_555
O8 Ru0 1.967619 1_545
O8 Pb1 2.544669 1_555
O8 Pb0 2.544669 1_555
O9 Ru1 1.957181 1_555
O9 Pb2 2.553407 1_655
O9 Pb0 2.553407 1_556
O10 Ru0 1.957183 1_555
O10 Pb1 2.553408 1_655
O10 Pb0 2.553413 1_555
O11 Ru2 1.967619 1_545
O11 Pb1 2.544669 1_555
O11 Pb2 2.544669 1_555
O12 Pb3 2.251173 1_555
O12 Pb1 2.258014 1_555
O12 Pb0 2.258020 1_555
O12 Pb2 2.258020 1_555
