# generated using pymatgen
data_NaSrPd4
_symmetry_space_group_name_H-M   'P 1'
_cell_length_a   5.44908008
_cell_length_b   5.44908011
_cell_length_c   5.44907963
_cell_angle_alpha   59.99999710
_cell_angle_beta   59.99999691
_cell_angle_gamma   60.00000490
_symmetry_Int_Tables_number   1
_chemical_formula_structural   NaSrPd4
_chemical_formula_sum   'Na1 Sr1 Pd4'
_cell_volume   114.40751071
_cell_formula_units_Z   1
loop_
 _symmetry_equiv_pos_site_id
 _symmetry_equiv_pos_as_xyz
  1  'x, y, z'
loop_
 _atom_site_type_symbol
 _atom_site_label
 _atom_site_symmetry_multiplicity
 _atom_site_fract_x
 _atom_site_fract_y
 _atom_site_fract_z
 _atom_site_occupancy
  Na  Na0  1  0.25000000  0.25000000  0.25000000  1
  Sr  Sr0  1  0.00000000  0.00000000  0.00000000  1
  Pd  Pd0  1  0.62471776  0.62471776  0.12584671  1
  Pd  Pd1  1  0.62471776  0.12584671  0.62471776  1
  Pd  Pd2  1  0.12584671  0.62471776  0.62471776  1
  Pd  Pd3  1  0.62471776  0.62471776  0.62471776  1
loop_
_geom_bond_atom_site_label_1
_geom_bond_atom_site_label_2
_geom_bond_distance
_geom_bond_site_symmetry_2
Na0 Pd3 3.194152 1_554
Na0 Pd1 3.194152 1_554
Na0 Pd2 3.194152 1_554
Na0 Pd1 3.194153 1_455
Na0 Pd2 3.194153 1_545
Na0 Pd0 3.194153 1_555
Na0 Pd1 3.194153 1_555
Na0 Pd2 3.194153 1_555
Na0 Pd3 3.194153 1_455
Na0 Pd3 3.194153 1_545
Na0 Pd0 3.194153 1_455
Na0 Pd0 3.194153 1_545
Na0 Sr0 3.336866 1_556
Na0 Sr0 3.336866 1_555
Na0 Sr0 3.336867 1_655
Na0 Sr0 3.336867 1_565
Pd0 Pd2 2.718388 1_555
Pd0 Pd3 2.718388 1_555
Pd0 Pd1 2.718388 1_555
Pd0 Pd2 2.730691 1_654
Pd0 Pd3 2.730692 1_554
Pd0 Pd1 2.730692 1_564
Pd0 Sr0 3.195464 1_665
Pd0 Sr0 3.195464 1_565
Pd0 Sr0 3.195464 1_655
Pd1 Pd3 2.718388 1_555
Pd1 Pd2 2.718389 1_555
Pd1 Pd3 2.730692 1_545
Pd1 Pd2 2.730692 1_645
Pd1 Sr0 3.195464 1_655
Pd1 Sr0 3.195464 1_556
Pd1 Sr0 3.195464 1_656
Pd2 Pd3 2.718388 1_555
Pd2 Pd3 2.730692 1_455
Pd2 Sr0 3.195464 1_565
Pd2 Sr0 3.195464 1_556
Pd2 Sr0 3.195464 1_566
Pd3 Sr0 3.195464 1_665
Pd3 Sr0 3.195464 1_566
Pd3 Sr0 3.195464 1_656
