# generated using pymatgen
data_Rb4Ca(VSe4)2
_symmetry_space_group_name_H-M   'P 1'
_cell_length_a   9.58926529
_cell_length_b   9.64819845
_cell_length_c   11.60103338
_cell_angle_alpha   105.75329778
_cell_angle_beta   102.67739221
_cell_angle_gamma   94.58359207
_symmetry_Int_Tables_number   1
_chemical_formula_structural   Rb4Ca(VSe4)2
_chemical_formula_sum   'Rb8 Ca2 V4 Se16'
_cell_volume   996.63628352
_cell_formula_units_Z   2
loop_
 _symmetry_equiv_pos_site_id
 _symmetry_equiv_pos_as_xyz
  1  'x, y, z'
loop_
 _atom_site_type_symbol
 _atom_site_label
 _atom_site_symmetry_multiplicity
 _atom_site_fract_x
 _atom_site_fract_y
 _atom_site_fract_z
 _atom_site_occupancy
  Rb  Rb0  1  0.93706948  0.51719132  0.25394077  1
  Rb  Rb1  1  0.06293052  0.48280868  0.74605923  1
  Rb  Rb2  1  0.76423224  0.99569569  0.47210170  1
  Rb  Rb3  1  0.23576776  0.00430431  0.52789830  1
  Rb  Rb4  1  0.59892594  0.74435594  0.02319382  1
  Rb  Rb5  1  0.40107406  0.25564406  0.97680618  1
  Rb  Rb6  1  0.61164511  0.68588317  0.61374357  1
  Rb  Rb7  1  0.38835489  0.31411683  0.38625643  1
  Ca  Ca0  1  0.85076319  0.14021526  0.92553937  1
  Ca  Ca1  1  0.14923681  0.85978474  0.07446063  1
  V  V0  1  0.95307556  0.11486989  0.23637185  1
  V  V1  1  0.04692444  0.88513011  0.76362815  1
  V  V2  1  0.37456327  0.68005375  0.25954979  1
  V  V3  1  0.62543673  0.31994625  0.74045021  1
  Se  Se0  1  0.95260036  0.87815202  0.23752697  1
  Se  Se1  1  0.04739964  0.12184798  0.76247303  1
  Se  Se2  1  0.58275315  0.07559636  0.72524765  1
  Se  Se3  1  0.41724685  0.92440364  0.27475235  1
  Se  Se4  1  0.28316634  0.65247592  0.41684650  1
  Se  Se5  1  0.71683366  0.34752408  0.58315350  1
  Se  Se6  1  0.78903765  0.43425433  0.92587760  1
  Se  Se7  1  0.21096235  0.56574567  0.07412240  1
  Se  Se8  1  0.02522203  0.26193621  0.43027481  1
  Se  Se9  1  0.97477797  0.73806379  0.56972519  1
  Se  Se10  1  0.11450188  0.17371596  0.12944352  1
  Se  Se11  1  0.88549812  0.82628404  0.87055648  1
  Se  Se12  1  0.72821407  0.14628716  0.14028518  1
  Se  Se13  1  0.27178593  0.85371284  0.85971482  1
  Se  Se14  1  0.58138348  0.58115250  0.26917059  1
  Se  Se15  1  0.41861652  0.41884750  0.73082941  1
loop_
_geom_bond_atom_site_label_1
_geom_bond_atom_site_label_2
_geom_bond_distance
_geom_bond_site_symmetry_2
Rb0 Se4 3.391913 1_655
Rb0 Se0 3.532240 1_555
Rb0 Se14 3.547828 1_555
Rb0 Se6 3.596322 1_554
Rb0 Se9 3.626162 1_555
Rb0 Se8 3.643311 1_655
Rb0 Se12 3.699873 1_555
Rb0 Se7 3.769369 1_655
Rb0 Se10 3.917121 1_655
Rb1 Se5 3.391913 1_455
Rb1 Se1 3.532240 1_555
Rb1 Se15 3.547828 1_555
Rb1 Se7 3.596322 1_556
Rb1 Se8 3.626162 1_555
Rb1 Se9 3.643311 1_455
Rb1 Se13 3.699873 1_555
Rb1 Se6 3.769369 1_455
Rb1 Se11 3.917121 1_455
Rb2 Se5 3.393824 1_565
Rb2 Se3 3.495910 1_555
Rb2 Se0 3.572618 1_555
Rb2 Se9 3.586724 1_555
Rb2 Se8 3.644137 1_665
Rb2 Se1 3.665080 1_665
Rb2 Se2 3.670913 1_565
Rb3 Se4 3.393824 1_545
Rb3 Se2 3.495910 1_555
Rb3 Se1 3.572618 1_555
Rb3 Se8 3.586724 1_555
Rb3 Se9 3.644137 1_445
Rb3 Se0 3.665080 1_445
Rb3 Se3 3.670913 1_545
Rb4 Se0 3.634164 1_555
Rb4 Se14 3.641272 1_555
Rb4 Se6 3.672958 1_554
Rb4 Se13 3.681739 1_554
Rb4 Se11 3.722990 1_554
Rb4 Se12 3.748673 1_565
Rb4 Se3 3.812094 1_555
Rb4 Se15 3.889824 1_554
Rb5 Se1 3.634164 1_555
Rb5 Se15 3.641272 1_555
Rb5 Se7 3.672958 1_556
Rb5 Se12 3.681739 1_556
Rb5 Se10 3.722990 1_556
Rb5 Se13 3.748673 1_545
Rb5 Se2 3.812094 1_555
Rb5 Se14 3.889824 1_556
Rb6 Se11 3.378362 1_555
Rb6 Se4 3.394571 1_555
Rb6 Se5 3.443115 1_555
Rb6 Se9 3.644131 1_555
Rb6 Se2 3.683839 1_565
Rb6 Se15 3.761747 1_555
Rb6 Se14 3.786184 1_555
Rb7 Se10 3.378362 1_555
Rb7 Se5 3.394571 1_555
Rb7 Se4 3.443115 1_555
Rb7 Se8 3.644131 1_555
Rb7 Se3 3.683839 1_545
Rb7 Se14 3.761747 1_555
Rb7 Se15 3.786184 1_555
Ca0 Se1 2.933019 1_655
Ca0 Se6 2.943126 1_555
Ca0 Se2 2.954483 1_555
Ca0 Se12 2.967765 1_556
Ca0 Se11 2.982835 1_545
Ca0 Se10 2.987397 1_656
Ca1 Se0 2.933019 1_455
Ca1 Se7 2.943126 1_555
Ca1 Se3 2.954483 1_555
Ca1 Se13 2.967765 1_554
Ca1 Se10 2.982835 1_565
Ca1 Se11 2.987397 1_454
Se0 V0 2.287222 1_565
Se1 V1 2.287222 1_545
Se2 V3 2.311911 1_555
Se3 V2 2.311911 1_555
Se4 V2 2.257694 1_555
Se5 V3 2.257694 1_555
Se6 V3 2.293237 1_555
Se7 V2 2.293237 1_555
Se8 V0 2.231368 1_455
Se9 V1 2.231368 1_655
Se10 V0 2.311298 1_455
Se11 V1 2.311298 1_655
Se12 V0 2.284039 1_555
Se13 V1 2.284039 1_555
Se14 V2 2.262615 1_555
Se15 V3 2.262615 1_555
