# generated using pymatgen
data_Zr16CoIr7N4
_symmetry_space_group_name_H-M   'P 1'
_cell_length_a   8.80529994
_cell_length_b   8.80530107
_cell_length_c   8.80530113
_cell_angle_alpha   59.27171658
_cell_angle_beta   59.27171457
_cell_angle_gamma   59.27171787
_symmetry_Int_Tables_number   1
_chemical_formula_structural   Zr16CoIr7N4
_chemical_formula_sum   'Zr16 Co1 Ir7 N4'
_cell_volume   474.73802487
_cell_formula_units_Z   1
loop_
 _symmetry_equiv_pos_site_id
 _symmetry_equiv_pos_as_xyz
  1  'x, y, z'
loop_
 _atom_site_type_symbol
 _atom_site_label
 _atom_site_symmetry_multiplicity
 _atom_site_fract_x
 _atom_site_fract_y
 _atom_site_fract_z
 _atom_site_occupancy
  Zr  Zr0  1  0.09452454  0.64180014  0.64180014  1
  Zr  Zr1  1  0.64180014  0.09452454  0.64180014  1
  Zr  Zr2  1  0.64180014  0.64180014  0.09452454  1
  Zr  Zr3  1  0.61457807  0.61457807  0.61457807  1
  Zr  Zr4  1  0.81862947  0.81862947  0.18173567  1
  Zr  Zr5  1  0.18862220  0.18862220  0.81522076  1
  Zr  Zr6  1  0.81862947  0.18173567  0.81862947  1
  Zr  Zr7  1  0.18862220  0.81522076  0.18862220  1
  Zr  Zr8  1  0.18173567  0.81862947  0.81862947  1
  Zr  Zr9  1  0.81522076  0.18862220  0.18862220  1
  Zr  Zr10  1  0.43797012  0.43797012  0.06838740  1
  Zr  Zr11  1  0.07044611  0.07044611  0.43485791  1
  Zr  Zr12  1  0.43797012  0.06838740  0.43797012  1
  Zr  Zr13  1  0.07044611  0.43485791  0.07044611  1
  Zr  Zr14  1  0.06838740  0.43797012  0.43797012  1
  Zr  Zr15  1  0.43485791  0.07044611  0.07044611  1
  Co  Co0  1  0.85595320  0.85595320  0.85595320  1
  Ir  Ir0  1  0.76295143  0.40081052  0.40081052  1
  Ir  Ir1  1  0.40081052  0.76295143  0.40081052  1
  Ir  Ir2  1  0.40081052  0.40081052  0.76295143  1
  Ir  Ir3  1  0.41587317  0.41587317  0.41587317  1
  Ir  Ir4  1  0.47883691  0.82804694  0.82804694  1
  Ir  Ir5  1  0.82804694  0.47883691  0.82804694  1
  Ir  Ir6  1  0.82804694  0.82804694  0.47883691  1
  N  N0  1  0.62316583  0.12833981  0.12833981  1
  N  N1  1  0.12833981  0.62316583  0.12833981  1
  N  N2  1  0.12833981  0.12833981  0.62316583  1
  N  N3  1  0.12458549  0.12458549  0.12458549  1
loop_
_geom_bond_atom_site_label_1
_geom_bond_atom_site_label_2
_geom_bond_distance
_geom_bond_site_symmetry_2
Co0 Zr8 2.574578 1_655
Co0 Zr4 2.574579 1_556
Co0 Zr6 2.574579 1_565
Co0 Zr2 2.657450 1_556
Co0 Zr1 2.657450 1_565
Co0 Zr0 2.657450 1_655
Ir0 Zr3 2.717979 1_555
Ir0 Zr1 2.773575 1_555
Ir0 Zr2 2.773575 1_555
Ir0 Zr13 2.787870 1_655
Ir0 Zr11 2.787870 1_655
Ir0 Ir3 2.926537 1_555
Ir0 Zr9 3.000566 1_555
Ir0 Zr14 3.058642 1_655
Ir1 Zr3 2.717979 1_555
Ir1 Zr0 2.773575 1_555
Ir1 Zr2 2.773575 1_555
Ir1 Zr11 2.787870 1_565
Ir1 Zr15 2.787870 1_565
Ir1 Ir3 2.926538 1_555
Ir1 Zr7 3.000565 1_555
Ir1 Zr12 3.058643 1_565
Ir2 Zr3 2.717979 1_555
Ir2 Zr0 2.773575 1_555
Ir2 Zr1 2.773575 1_555
Ir2 Zr13 2.787870 1_556
Ir2 Zr15 2.787870 1_556
Ir2 Ir3 2.926538 1_555
Ir2 Zr5 3.000565 1_555
Ir2 Zr10 3.058643 1_556
Ir3 Zr14 2.873933 1_555
Ir3 Zr12 2.873933 1_555
Ir3 Zr10 2.873934 1_555
Ir3 Zr2 2.908762 1_555
Ir3 Zr0 2.908762 1_555
Ir3 Zr1 2.908762 1_555
Ir3 Zr9 3.175465 1_555
Ir3 Zr5 3.175465 1_555
Ir3 Zr7 3.175465 1_555
Ir4 Zr8 2.703324 1_555
Ir4 Zr1 2.712510 1_565
Ir4 Zr2 2.712510 1_556
Ir4 Zr3 2.741093 1_555
Ir4 Zr7 2.874115 1_556
Ir4 Zr5 2.874115 1_565
Ir4 Zr10 3.076056 1_556
Ir4 Zr12 3.076056 1_565
Ir5 Zr6 2.703325 1_555
Ir5 Zr0 2.712510 1_655
Ir5 Zr2 2.712511 1_556
Ir5 Zr3 2.741093 1_555
Ir5 Zr5 2.874115 1_655
Ir5 Zr9 2.874115 1_556
Ir5 Zr10 3.076055 1_556
Ir5 Zr14 3.076056 1_655
Ir6 Zr4 2.703325 1_555
Ir6 Zr0 2.712510 1_655
Ir6 Zr1 2.712511 1_565
Ir6 Zr3 2.741092 1_555
Ir6 Zr7 2.874115 1_655
Ir6 Zr9 2.874115 1_565
Ir6 Zr12 3.076055 1_565
Ir6 Zr14 3.076056 1_655
N0 Zr12 2.288343 1_555
N0 Zr10 2.288343 1_555
N0 Zr15 2.293952 1_555
N0 Zr6 2.310927 1_554
N0 Zr4 2.310927 1_545
N0 Zr9 2.354980 1_555
N1 Zr10 2.288343 1_555
N1 Zr14 2.288343 1_555
N1 Zr13 2.293952 1_555
N1 Zr4 2.310927 1_455
N1 Zr8 2.310927 1_554
N1 Zr7 2.354980 1_555
N2 Zr12 2.288343 1_555
N2 Zr14 2.288343 1_555
N2 Zr11 2.293952 1_555
N2 Zr6 2.310927 1_455
N2 Zr8 2.310927 1_545
N2 Zr5 2.354980 1_555
N3 Zr9 2.289515 1_455
N3 Zr5 2.289516 1_554
N3 Zr7 2.289516 1_545
N3 Zr15 2.342833 1_555
N3 Zr11 2.342833 1_555
N3 Zr13 2.342833 1_555
