# generated using pymatgen
data_ScTa2(Ni10B3)2
_symmetry_space_group_name_H-M   'P 1'
_cell_length_a   7.43727735
_cell_length_b   7.43727814
_cell_length_c   7.43727732
_cell_angle_alpha   59.99999930
_cell_angle_beta   59.99999578
_cell_angle_gamma   60.00000574
_symmetry_Int_Tables_number   1
_chemical_formula_structural   ScTa2(Ni10B3)2
_chemical_formula_sum   'Sc1 Ta2 Ni20 B6'
_cell_volume   290.88878776
_cell_formula_units_Z   1
loop_
 _symmetry_equiv_pos_site_id
 _symmetry_equiv_pos_as_xyz
  1  'x, y, z'
loop_
 _atom_site_type_symbol
 _atom_site_label
 _atom_site_symmetry_multiplicity
 _atom_site_fract_x
 _atom_site_fract_y
 _atom_site_fract_z
 _atom_site_occupancy
  Sc  Sc0  1  0.75000000  0.75000000  0.75000000  1
  Ta  Ta0  1  0.00000000  0.00000000  0.00000000  1
  Ta  Ta1  1  0.25000000  0.25000000  0.25000000  1
  Ni  Ni0  1  0.61316930  0.61316930  0.16049109  1
  Ni  Ni1  1  0.61316930  0.16049109  0.61316930  1
  Ni  Ni2  1  0.16049109  0.61316930  0.61316930  1
  Ni  Ni3  1  0.61316930  0.61316930  0.61316930  1
  Ni  Ni4  1  0.38340183  0.38340183  0.84979451  1
  Ni  Ni5  1  0.38340183  0.84979451  0.38340183  1
  Ni  Ni6  1  0.84979451  0.38340183  0.38340183  1
  Ni  Ni7  1  0.38340183  0.38340183  0.38340183  1
  Ni  Ni8  1  0.00168809  0.00168809  0.34140564  1
  Ni  Ni9  1  0.65521818  0.00168809  0.34140564  1
  Ni  Ni10  1  0.00168809  0.65521818  0.34140564  1
  Ni  Ni11  1  0.65521818  0.34140564  0.00168809  1
  Ni  Ni12  1  0.00168809  0.34140564  0.00168809  1
  Ni  Ni13  1  0.00168809  0.34140564  0.65521818  1
  Ni  Ni14  1  0.34140564  0.65521818  0.00168809  1
  Ni  Ni15  1  0.34140564  0.00168809  0.65521818  1
  Ni  Ni16  1  0.34140564  0.00168809  0.00168809  1
  Ni  Ni17  1  0.00168809  0.00168809  0.65521818  1
  Ni  Ni18  1  0.00168809  0.65521818  0.00168809  1
  Ni  Ni19  1  0.65521818  0.00168809  0.00168809  1
  B  B0  1  0.73175420  0.73175420  0.26824580  1
  B  B1  1  0.26824580  0.73175420  0.26824580  1
  B  B2  1  0.73175420  0.26824580  0.26824580  1
  B  B3  1  0.26824580  0.26824580  0.73175420  1
  B  B4  1  0.73175420  0.26824580  0.73175420  1
  B  B5  1  0.26824580  0.73175420  0.73175420  1
loop_
_geom_bond_atom_site_label_1
_geom_bond_atom_site_label_2
_geom_bond_distance
_geom_bond_site_symmetry_2
Ni0 Sc0 2.492712 1_554
Ni1 Sc0 2.492712 1_545
Ni2 Sc0 2.492712 1_455
Ni3 Sc0 2.492718 1_555
Ni4 Ta1 2.430252 1_556
Ni5 Ta1 2.430253 1_565
Ni6 Ta1 2.430252 1_655
Ni7 Ta1 2.430252 1_555
Ni8 Ta0 2.551745 1_555
Ni8 Sc0 2.893028 1_445
Ni9 Ta0 2.551745 1_655
Ni9 Sc0 2.893028 1_545
Ni10 Ta0 2.551745 1_565
Ni10 Sc0 2.893028 1_455
Ni11 Ta0 2.551745 1_655
Ni11 Sc0 2.893028 1_554
Ni12 Ta0 2.551745 1_555
Ni12 Sc0 2.893028 1_454
Ni13 Ta0 2.551745 1_556
Ni13 Sc0 2.893028 1_455
Ni14 Ta0 2.551745 1_565
Ni14 Sc0 2.893028 1_554
Ni15 Ta0 2.551745 1_556
Ni15 Sc0 2.893028 1_545
Ni16 Ta0 2.551745 1_555
Ni16 Sc0 2.893028 1_544
Ni17 Ta0 2.551745 1_556
Ni17 Sc0 2.893028 1_445
Ni18 Ta0 2.551745 1_565
Ni18 Sc0 2.893028 1_454
Ni19 Ta0 2.551745 1_655
Ni19 Sc0 2.893028 1_544
B0 Ni18 2.071301 1_655
B0 Ni10 2.071301 1_655
B0 Ni19 2.071302 1_565
B0 Ni9 2.071302 1_565
B0 Ni3 2.095068 1_555
B0 Ni0 2.095074 1_555
B0 Ni5 2.115410 1_555
B0 Ni6 2.115410 1_555
B1 Ni10 2.071301 1_555
B1 Ni14 2.071301 1_555
B1 Ni16 2.071301 1_565
B1 Ni8 2.071302 1_565
B1 Ni2 2.095068 1_555
B1 Ni0 2.095068 1_555
B1 Ni5 2.115410 1_555
B1 Ni7 2.115410 1_555
B2 Ni12 2.071301 1_655
B2 Ni11 2.071301 1_555
B2 Ni9 2.071302 1_555
B2 Ni8 2.071302 1_655
B2 Ni1 2.095068 1_555
B2 Ni0 2.095068 1_555
B2 Ni7 2.115410 1_555
B2 Ni6 2.115410 1_555
B3 Ni12 2.071301 1_556
B3 Ni13 2.071301 1_555
B3 Ni16 2.071302 1_556
B3 Ni15 2.071302 1_555
B3 Ni1 2.095068 1_555
B3 Ni2 2.095068 1_555
B3 Ni7 2.115410 1_555
B3 Ni4 2.115410 1_555
B4 Ni13 2.071301 1_655
B4 Ni11 2.071301 1_556
B4 Ni19 2.071301 1_556
B4 Ni17 2.071302 1_655
B4 Ni3 2.095069 1_555
B4 Ni1 2.095074 1_555
B4 Ni6 2.115410 1_555
B4 Ni4 2.115410 1_555
B5 Ni18 2.071301 1_556
B5 Ni14 2.071301 1_556
B5 Ni15 2.071302 1_565
B5 Ni17 2.071302 1_565
B5 Ni3 2.095068 1_555
B5 Ni2 2.095074 1_555
B5 Ni5 2.115410 1_555
B5 Ni4 2.115410 1_555
