# generated using pymatgen
data_HfSc3Rh2O
_symmetry_space_group_name_H-M   'P 1'
_cell_length_a   8.65760032
_cell_length_b   8.65759963
_cell_length_c   8.65760161
_cell_angle_alpha   60.00000372
_cell_angle_beta   60.00000633
_cell_angle_gamma   59.99999726
_symmetry_Int_Tables_number   1
_chemical_formula_structural   HfSc3Rh2O
_chemical_formula_sum   'Hf4 Sc12 Rh8 O4'
_cell_volume   458.85730949
_cell_formula_units_Z   4
loop_
 _symmetry_equiv_pos_site_id
 _symmetry_equiv_pos_as_xyz
  1  'x, y, z'
loop_
 _atom_site_type_symbol
 _atom_site_label
 _atom_site_symmetry_multiplicity
 _atom_site_fract_x
 _atom_site_fract_y
 _atom_site_fract_z
 _atom_site_occupancy
  Hf  Hf0  1  0.12500000  0.62500000  0.62500000  1
  Hf  Hf1  1  0.62500000  0.12500000  0.62500000  1
  Hf  Hf2  1  0.62500000  0.62500000  0.12500000  1
  Hf  Hf3  1  0.62500000  0.62500000  0.62500000  1
  Sc  Sc0  1  0.81798198  0.81798198  0.18201802  1
  Sc  Sc1  1  0.18201802  0.18201802  0.81798198  1
  Sc  Sc2  1  0.81798198  0.18201802  0.81798198  1
  Sc  Sc3  1  0.18201802  0.81798198  0.18201802  1
  Sc  Sc4  1  0.18201802  0.81798198  0.81798198  1
  Sc  Sc5  1  0.81798198  0.18201802  0.18201802  1
  Sc  Sc6  1  0.43201802  0.43201802  0.06798198  1
  Sc  Sc7  1  0.06798198  0.06798198  0.43201802  1
  Sc  Sc8  1  0.43201802  0.06798198  0.43201802  1
  Sc  Sc9  1  0.06798198  0.43201802  0.06798198  1
  Sc  Sc10  1  0.06798198  0.43201802  0.43201802  1
  Sc  Sc11  1  0.43201802  0.06798198  0.06798198  1
  Rh  Rh0  1  0.76012498  0.41329134  0.41329134  1
  Rh  Rh1  1  0.41329134  0.76012498  0.41329134  1
  Rh  Rh2  1  0.41329134  0.41329134  0.76012498  1
  Rh  Rh3  1  0.41329134  0.41329134  0.41329134  1
  Rh  Rh4  1  0.48987502  0.83670866  0.83670866  1
  Rh  Rh5  1  0.83670866  0.48987502  0.83670866  1
  Rh  Rh6  1  0.83670866  0.83670866  0.48987502  1
  Rh  Rh7  1  0.83670866  0.83670866  0.83670866  1
  O  O0  1  0.62500000  0.12500000  0.12500000  1
  O  O1  1  0.12500000  0.62500000  0.12500000  1
  O  O2  1  0.12500000  0.12500000  0.62500000  1
  O  O3  1  0.12500000  0.12500000  0.12500000  1
loop_
_geom_bond_atom_site_label_1
_geom_bond_atom_site_label_2
_geom_bond_distance
_geom_bond_site_symmetry_2
Hf0 Rh2 2.675544 1_555
Hf0 Rh6 2.675544 1_455
Hf0 Rh1 2.675544 1_555
Hf0 Rh5 2.675544 1_455
Hf0 Rh7 2.675549 1_455
Hf0 Rh3 2.675549 1_555
Hf1 Rh6 2.675544 1_545
Hf1 Rh2 2.675544 1_555
Hf1 Rh0 2.675544 1_555
Hf1 Rh4 2.675544 1_545
Hf1 Rh7 2.675549 1_545
Hf1 Rh3 2.675549 1_555
Hf2 Rh0 2.675544 1_555
Hf2 Rh4 2.675544 1_554
Hf2 Rh1 2.675544 1_555
Hf2 Rh5 2.675544 1_554
Hf2 Rh7 2.675549 1_554
Hf2 Rh3 2.675549 1_555
Hf3 Rh6 2.675551 1_555
Hf3 Rh2 2.675551 1_555
Hf3 Rh4 2.675551 1_555
Hf3 Rh0 2.675551 1_555
Hf3 Rh5 2.675551 1_555
Hf3 Rh1 2.675551 1_555
Rh0 Sc7 2.836707 1_655
Rh0 Sc9 2.836708 1_655
Rh0 Sc10 2.836712 1_655
Rh1 Sc7 2.836707 1_565
Rh1 Sc11 2.836708 1_565
Rh1 Sc8 2.836712 1_565
Rh2 Sc11 2.836708 1_556
Rh2 Sc9 2.836708 1_556
Rh2 Sc6 2.836713 1_556
Rh3 Sc8 2.836703 1_555
Rh3 Sc10 2.836704 1_555
Rh3 Sc6 2.836704 1_555
Rh4 Sc1 2.836707 1_565
Rh4 Sc3 2.836708 1_556
Rh4 Sc4 2.836712 1_555
Rh5 Sc1 2.836707 1_655
Rh5 Sc5 2.836708 1_556
Rh5 Sc2 2.836712 1_555
Rh6 Sc5 2.836708 1_565
Rh6 Sc3 2.836708 1_655
Rh6 Sc0 2.836713 1_555
Rh7 Sc2 2.836703 1_565
Rh7 Sc4 2.836704 1_655
Rh7 Sc0 2.836704 1_556
O0 Sc0 2.274200 1_545
O0 Sc6 2.274200 1_555
O0 Sc5 2.274200 1_555
O0 Sc11 2.274200 1_555
O0 Sc8 2.274201 1_555
O0 Sc2 2.274201 1_554
O1 Sc3 2.274200 1_555
O1 Sc9 2.274200 1_555
O1 Sc6 2.274200 1_555
O1 Sc0 2.274200 1_455
O1 Sc10 2.274201 1_555
O1 Sc4 2.274201 1_554
O2 Sc10 2.274200 1_555
O2 Sc4 2.274200 1_545
O2 Sc1 2.274200 1_555
O2 Sc7 2.274200 1_555
O2 Sc8 2.274201 1_555
O2 Sc2 2.274201 1_455
O3 Sc9 2.274200 1_555
O3 Sc3 2.274200 1_545
O3 Sc11 2.274200 1_555
O3 Sc5 2.274200 1_455
O3 Sc7 2.274201 1_555
O3 Sc1 2.274201 1_554
