# generated using pymatgen
data_K2RbPb4Au
_symmetry_space_group_name_H-M   'P 1'
_cell_length_a   6.87678783
_cell_length_b   7.16393101
_cell_length_c   12.61566252
_cell_angle_alpha   90.00000000
_cell_angle_beta   90.00000000
_cell_angle_gamma   90.00000000
_symmetry_Int_Tables_number   1
_chemical_formula_structural   K2RbPb4Au
_chemical_formula_sum   'K4 Rb2 Pb8 Au2'
_cell_volume   621.50851488
_cell_formula_units_Z   2
loop_
 _symmetry_equiv_pos_site_id
 _symmetry_equiv_pos_as_xyz
  1  'x, y, z'
loop_
 _atom_site_type_symbol
 _atom_site_label
 _atom_site_symmetry_multiplicity
 _atom_site_fract_x
 _atom_site_fract_y
 _atom_site_fract_z
 _atom_site_occupancy
  K  K0  1  0.83141095  0.50000000  0.74958153  1
  K  K1  1  0.83141095  0.50000000  0.25041847  1
  K  K2  1  0.16858905  0.00000000  0.75041847  1
  K  K3  1  0.16858905  0.00000000  0.24958153  1
  Rb  Rb0  1  0.55827253  0.00000000  0.00000000  1
  Rb  Rb1  1  0.44172747  0.50000000  0.50000000  1
  Pb  Pb0  1  0.33609358  0.50000000  0.87042626  1
  Pb  Pb1  1  0.33609358  0.50000000  0.12957374  1
  Pb  Pb2  1  0.03892384  0.27080539  0.00000000  1
  Pb  Pb3  1  0.03892384  0.72919461  0.00000000  1
  Pb  Pb4  1  0.96107616  0.77080539  0.50000000  1
  Pb  Pb5  1  0.96107616  0.22919461  0.50000000  1
  Pb  Pb6  1  0.66390642  0.00000000  0.37042626  1
  Pb  Pb7  1  0.66390642  0.00000000  0.62957374  1
  Au  Au0  1  0.68616720  0.50000000  0.00000000  1
  Au  Au1  1  0.31383280  0.00000000  0.50000000  1
loop_
_geom_bond_atom_site_label_1
_geom_bond_atom_site_label_2
_geom_bond_distance
_geom_bond_site_symmetry_2
K0 Pb0 3.731804 1_555
K0 Pb0 3.790678 1_655
K0 Pb4 3.804304 1_555
K0 Pb5 3.804304 1_555
K0 Pb3 3.835734 1_656
K0 Pb2 3.835734 1_656
K0 Pb7 4.055794 1_555
K0 Pb7 4.055794 1_565
K0 Rb1 4.134620 1_555
K1 Pb1 3.731804 1_555
K1 Pb1 3.790678 1_655
K1 Pb4 3.804304 1_555
K1 Pb5 3.804304 1_555
K1 Pb3 3.835734 1_655
K1 Pb2 3.835734 1_655
K1 Pb6 4.055794 1_555
K1 Pb6 4.055794 1_565
K1 Rb1 4.134620 1_555
K2 Pb7 3.731804 1_555
K2 Pb7 3.790678 1_455
K2 Pb2 3.804304 1_556
K2 Pb3 3.804304 1_546
K2 Pb5 3.835734 1_455
K2 Pb4 3.835734 1_445
K2 Pb0 4.055794 1_555
K2 Pb0 4.055794 1_545
K2 Rb0 4.134620 1_556
K3 Pb6 3.731804 1_555
K3 Pb6 3.790678 1_455
K3 Pb2 3.804304 1_555
K3 Pb3 3.804304 1_545
K3 Pb5 3.835734 1_455
K3 Pb4 3.835734 1_445
K3 Pb1 4.055794 1_555
K3 Pb1 4.055794 1_545
K3 Rb0 4.134620 1_555
Pb0 Pb3 3.089377 1_556
Pb0 Pb2 3.089377 1_556
Pb0 Pb1 3.269317 1_556
Pb0 Rb0 4.223387 1_566
Pb0 Rb0 4.223387 1_556
Pb1 Pb3 3.089377 1_555
Pb1 Pb2 3.089377 1_555
Pb1 Rb0 4.223387 1_555
Pb1 Rb0 4.223387 1_565
Pb2 Pb3 3.283869 1_555
Pb2 Rb0 3.832620 1_455
Pb2 Rb0 4.064355 1_555
Pb3 Rb0 3.832620 1_465
Pb3 Rb0 4.064355 1_565
Pb4 Pb7 3.089377 1_565
Pb4 Pb6 3.089377 1_565
Pb4 Pb5 3.283869 1_565
Pb4 Rb1 3.832620 1_655
Pb4 Rb1 4.064355 1_555
Pb5 Pb7 3.089377 1_555
Pb5 Pb6 3.089377 1_555
Pb5 Rb1 3.832620 1_655
Pb5 Rb1 4.064355 1_555
Pb6 Pb7 3.269317 1_555
Pb6 Rb1 4.223387 1_545
Pb6 Rb1 4.223387 1_555
Pb7 Rb1 4.223387 1_555
Pb7 Rb1 4.223387 1_545
Au0 Pb1 2.909914 1_555
Au0 Pb0 2.909914 1_554
Au0 Pb3 2.929268 1_655
Au0 Pb2 2.929268 1_655
Au0 K1 3.313327 1_555
Au0 K0 3.313327 1_554
Au0 Rb0 3.688361 1_555
Au0 Rb0 3.688361 1_565
Au1 Pb7 2.909914 1_555
Au1 Pb6 2.909914 1_555
Au1 Pb5 2.929268 1_455
Au1 Pb4 2.929268 1_445
Au1 K2 3.313327 1_555
Au1 K3 3.313327 1_555
Au1 Rb1 3.688361 1_545
Au1 Rb1 3.688361 1_555
