# generated using pymatgen
data_CaCdOs2O7
_symmetry_space_group_name_H-M   'P 1'
_cell_length_a   7.24412757
_cell_length_b   7.24412669
_cell_length_c   7.24412731
_cell_angle_alpha   120.09409493
_cell_angle_beta   119.81223480
_cell_angle_gamma   90.08131340
_symmetry_Int_Tables_number   1
_chemical_formula_structural   CaCdOs2O7
_chemical_formula_sum   'Ca2 Cd2 Os4 O14'
_cell_volume   268.99659497
_cell_formula_units_Z   2
loop_
 _symmetry_equiv_pos_site_id
 _symmetry_equiv_pos_as_xyz
  1  'x, y, z'
loop_
 _atom_site_type_symbol
 _atom_site_label
 _atom_site_symmetry_multiplicity
 _atom_site_fract_x
 _atom_site_fract_y
 _atom_site_fract_z
 _atom_site_occupancy
  Ca  Ca0  1  0.50000000  0.50000000  0.50000000  1
  Ca  Ca1  1  0.50000000  0.00000000  0.00000000  1
  Cd  Cd0  1  0.50000000  0.50000000  0.00000000  1
  Cd  Cd1  1  0.00000000  0.00000000  0.00000000  1
  Os  Os0  1  0.00000000  0.50000000  0.00000000  1
  Os  Os1  1  0.00000000  0.00000000  0.50000000  1
  Os  Os2  1  0.00000000  0.50000000  0.50000000  1
  Os  Os3  1  0.50000000  0.00000000  0.50000000  1
  O  O0  1  0.94385454  0.58154091  0.76338969  1
  O  O1  1  0.05614546  0.81953415  0.63768737  1
  O  O2  1  0.68184678  0.91845909  0.36231263  1
  O  O3  1  0.31815322  0.68046585  0.23661031  1
  O  O4  1  0.05614546  0.41845909  0.23661031  1
  O  O5  1  0.94385454  0.18046585  0.36231263  1
  O  O6  1  0.31815322  0.08154091  0.63768737  1
  O  O7  1  0.68184678  0.31953415  0.76338969  1
  O  O8  1  0.09057879  0.25000000  0.84057879  1
  O  O9  1  0.90942121  0.75000000  0.15942121  1
  O  O10  1  0.35452628  0.09439939  0.26012689  1
  O  O11  1  0.64547372  0.90560061  0.73987311  1
  O  O12  1  0.66572650  0.40560061  0.26012689  1
  O  O13  1  0.33427350  0.59439939  0.73987311  1
loop_
_geom_bond_atom_site_label_1
_geom_bond_atom_site_label_2
_geom_bond_distance
_geom_bond_site_symmetry_2
Ca0 O12 2.411100 1_555
Ca0 O13 2.411100 1_555
Ca0 O11 2.411106 1_555
Ca0 O10 2.411106 1_555
Ca0 O0 2.663107 1_555
Ca0 O4 2.663107 1_555
Ca0 O3 2.663111 1_555
Ca0 O7 2.663111 1_555
Ca1 O12 2.411106 1_555
Ca1 O13 2.411106 1_544
Ca1 O11 2.411107 1_544
Ca1 O10 2.411107 1_555
Ca1 O6 2.663101 1_554
Ca1 O2 2.663101 1_545
Ca1 O5 2.663106 1_555
Ca1 O1 2.663106 1_544
Cd0 O12 2.122512 1_555
Cd0 O13 2.122512 1_554
Cd0 O7 2.526889 1_554
Cd0 O3 2.526889 1_555
Cd0 O6 2.526898 1_554
Cd0 O2 2.526898 1_555
Cd1 O10 2.122513 1_555
Cd1 O11 2.122513 1_444
Cd1 O5 2.526894 1_455
Cd1 O1 2.526894 1_544
Cd1 O4 2.526900 1_555
Cd1 O0 2.526900 1_444
O0 Os0 1.942964 1_656
O0 Os2 1.948581 1_655
O1 Os1 1.942976 1_565
O1 Os2 1.948573 1_555
O2 Os1 1.942976 1_665
O2 Os3 1.948573 1_565
O3 Os0 1.942976 1_555
O3 Os3 1.948573 1_565
O4 Os0 1.942964 1_555
O4 Os2 1.948581 1_555
O5 Os1 1.942976 1_655
O5 Os2 1.948573 1_655
O6 Os1 1.942976 1_555
O6 Os3 1.948573 1_555
O7 Os0 1.942976 1_656
O7 Os3 1.948573 1_555
O8 Os0 1.924450 1_556
O8 Os1 1.924450 1_555
O9 Os0 1.924450 1_655
O9 Os1 1.924450 1_665
O10 Os3 1.992638 1_555
O11 Os3 1.992638 1_565
O12 Os2 1.992644 1_655
O13 Os2 1.992644 1_555
