# generated using pymatgen
data_Mg2In5Sn7Ir6
_symmetry_space_group_name_H-M   'P 1'
_cell_length_a   8.07484465
_cell_length_b   8.18575039
_cell_length_c   8.15031080
_cell_angle_alpha   109.47897964
_cell_angle_beta   108.92435607
_cell_angle_gamma   109.91272959
_symmetry_Int_Tables_number   1
_chemical_formula_structural   Mg2In5Sn7Ir6
_chemical_formula_sum   'Mg2 In5 Sn7 Ir6'
_cell_volume   415.18590107
_cell_formula_units_Z   1
loop_
 _symmetry_equiv_pos_site_id
 _symmetry_equiv_pos_as_xyz
  1  'x, y, z'
loop_
 _atom_site_type_symbol
 _atom_site_label
 _atom_site_symmetry_multiplicity
 _atom_site_fract_x
 _atom_site_fract_y
 _atom_site_fract_z
 _atom_site_occupancy
  Mg  Mg0  1  0.69453266  0.99827595  0.00035612  1
  Mg  Mg1  1  0.30578256  0.00205437  0.00033282  1
  In  In0  1  0.50144085  0.75785253  0.24428299  1
  In  In1  1  0.50189359  0.24679840  0.75517570  1
  In  In2  1  0.25328391  0.50837999  0.75517226  1
  In  In3  1  0.74284888  0.48642900  0.24428532  1
  In  In4  1  0.74527734  0.24527267  0.49054506  1
  Sn  Sn0  1  0.25519725  0.75519724  0.51039141  1
  Sn  Sn1  1  0.32852198  0.31913912  0.31992070  1
  Sn  Sn2  1  0.67375624  0.67879990  0.68029812  1
  Sn  Sn3  1  0.00654133  0.00150963  0.68029736  1
  Sn  Sn4  1  0.00504112  0.67899463  0.99855048  1
  Sn  Sn5  1  0.99140865  0.00078148  0.31992342  1
  Sn  Sn6  1  0.99350705  0.31955286  0.99854373  1
  Ir  Ir0  1  0.01023736  0.34846215  0.34525547  1
  Ir  Ir1  1  0.99815993  0.65929005  0.65548818  1
  Ir  Ir2  1  0.33500585  0.99679564  0.34524077  1
  Ir  Ir3  1  0.65734708  0.99620086  0.65551127  1
  Ir  Ir4  1  0.33973890  0.34619737  0.00021241  1
  Ir  Ir5  1  0.66047648  0.65401515  0.00021440  1
loop_
_geom_bond_atom_site_label_1
_geom_bond_atom_site_label_2
_geom_bond_distance
_geom_bond_site_symmetry_2
Mg0 Sn5 2.900321 1_565
Mg0 Sn6 2.910158 1_564
Mg0 Sn2 2.922238 1_554
Mg1 Sn1 2.900277 1_555
Mg1 Sn4 2.909955 1_544
Mg1 Sn3 2.922167 1_554
In0 Ir5 2.757089 1_555
In0 Ir2 2.782696 1_555
In0 Ir3 2.802464 1_555
In0 Ir4 2.804382 1_555
In1 Ir4 2.775458 1_556
In1 Ir5 2.780907 1_556
In1 Ir3 2.783444 1_545
In1 Ir2 2.794263 1_545
In2 Ir5 2.775531 1_556
In2 Ir4 2.780953 1_556
In2 Ir1 2.783385 1_455
In2 Ir0 2.794177 1_555
In3 Ir4 2.757185 1_555
In3 Ir0 2.782590 1_655
In3 Ir1 2.802325 1_555
In3 Ir5 2.804407 1_555
In4 Ir0 2.787940 1_655
In4 Ir2 2.788086 1_545
In4 Ir1 2.815930 1_555
In4 Ir3 2.816043 1_545
Ir0 Sn6 2.709995 1_454
Ir0 Sn1 2.727096 1_555
Ir0 Sn5 2.731047 1_455
Ir0 Sn0 2.758215 1_555
Ir0 Mg0 2.760028 1_445
Ir1 Sn3 2.716081 1_665
Ir1 Mg1 2.721549 1_666
Ir1 Sn0 2.724705 1_655
Ir1 Sn4 2.727530 1_655
Ir1 Sn2 2.745037 1_555
Ir2 Sn4 2.709910 1_554
Ir2 Sn5 2.726952 1_465
Ir2 Sn1 2.730918 1_565
Ir2 Sn0 2.758278 1_555
Ir2 Mg1 2.759929 1_565
Ir3 Sn2 2.715884 1_555
Ir3 Mg0 2.721610 1_556
Ir3 Sn0 2.724802 1_555
Ir3 Sn6 2.727401 1_565
Ir3 Sn3 2.744913 1_665
Ir4 Sn3 2.714879 1_554
Ir4 Sn1 2.715029 1_555
Ir4 Sn6 2.724348 1_454
Ir4 Mg1 2.736224 1_555
Ir5 Sn2 2.714889 1_554
Ir5 Sn5 2.715078 1_565
Ir5 Sn4 2.724337 1_654
Ir5 Mg0 2.736179 1_555
