# generated using pymatgen
data_NaTc(MoS2)2
_symmetry_space_group_name_H-M   'P 1'
_cell_length_a   6.76381456
_cell_length_b   6.59773002
_cell_length_c   6.74598910
_cell_angle_alpha   97.29053884
_cell_angle_beta   90.73507352
_cell_angle_gamma   96.45418494
_symmetry_Int_Tables_number   1
_chemical_formula_structural   NaTc(MoS2)2
_chemical_formula_sum   'Na2 Tc2 Mo4 S8'
_cell_volume   296.60677356
_cell_formula_units_Z   2
loop_
 _symmetry_equiv_pos_site_id
 _symmetry_equiv_pos_as_xyz
  1  'x, y, z'
loop_
 _atom_site_type_symbol
 _atom_site_label
 _atom_site_symmetry_multiplicity
 _atom_site_fract_x
 _atom_site_fract_y
 _atom_site_fract_z
 _atom_site_occupancy
  Na  Na0  1  0.01117015  0.70664044  0.91290857  1
  Na  Na1  1  0.98882985  0.29335956  0.08709143  1
  Tc  Tc0  1  0.24006818  0.90103650  0.55479265  1
  Tc  Tc1  1  0.75993182  0.09896350  0.44520735  1
  Mo  Mo0  1  0.54832674  0.73457914  0.40380872  1
  Mo  Mo1  1  0.45167326  0.26542086  0.59619128  1
  Mo  Mo2  1  0.58756436  0.96356309  0.75717313  1
  Mo  Mo3  1  0.41243564  0.03643691  0.24282687  1
  S  S0  1  0.77384969  0.30579221  0.76156371  1
  S  S1  1  0.22615031  0.69420779  0.23843629  1
  S  S2  1  0.71394175  0.88731215  0.12005764  1
  S  S3  1  0.28605825  0.11268785  0.87994236  1
  S  S4  1  0.86286339  0.80946639  0.58758919  1
  S  S5  1  0.13713661  0.19053361  0.41241081  1
  S  S6  1  0.37950582  0.63416027  0.71171668  1
  S  S7  1  0.62049418  0.36583973  0.28828332  1
loop_
_geom_bond_atom_site_label_1
_geom_bond_atom_site_label_2
_geom_bond_distance
_geom_bond_site_symmetry_2
Na0 S4 2.599453 1_455
Na0 S1 2.633276 1_556
Na0 S2 2.757442 1_456
Na0 S6 2.909896 1_555
Na0 S0 2.988586 1_455
Na0 S3 3.118560 1_565
Na1 S5 2.599453 1_655
Na1 S0 2.633276 1_554
Na1 S3 2.757442 1_654
Na1 S7 2.909896 1_555
Na1 S1 2.988586 1_655
Na1 S2 3.118560 1_545
Mo0 S1 2.407464 1_555
Mo0 S4 2.418230 1_555
Mo0 S2 2.495027 1_555
Mo0 S6 2.509464 1_555
Mo0 S7 2.561228 1_555
Mo0 Tc0 2.622245 1_555
Mo0 Mo3 2.631617 1_565
Mo0 Tc1 2.636665 1_565
Mo0 Mo2 2.648572 1_555
Mo1 S0 2.407464 1_555
Mo1 S5 2.418230 1_555
Mo1 S3 2.495027 1_555
Mo1 S7 2.509464 1_555
Mo1 S6 2.561228 1_555
Mo1 Tc1 2.622245 1_555
Mo1 Mo2 2.631617 1_545
Mo1 Tc0 2.636665 1_545
Mo1 Mo3 2.648572 1_555
Mo2 S6 2.435142 1_555
Mo2 S4 2.448428 1_555
Mo2 S0 2.455445 1_565
Mo2 S3 2.469905 1_565
Mo2 Tc1 2.625307 1_565
Mo2 Tc0 2.667437 1_555
Mo2 S2 2.707785 1_556
Mo3 S7 2.435142 1_555
Mo3 S5 2.448428 1_555
Mo3 S1 2.455445 1_545
Mo3 S2 2.469905 1_545
Mo3 Tc0 2.625307 1_545
Mo3 Tc1 2.667437 1_555
Mo3 S3 2.707785 1_554
S0 Tc1 2.377471 1_555
S1 Tc0 2.377471 1_555
S2 Tc1 2.442426 1_565
S3 Tc0 2.442426 1_545
S4 Tc1 2.408919 1_565
S4 Tc0 2.573942 1_655
S5 Tc0 2.408919 1_545
S5 Tc1 2.573942 1_455
S6 Tc0 2.435423 1_555
S7 Tc1 2.435423 1_555
