# generated using pymatgen
data_Y2AlNiIr
_symmetry_space_group_name_H-M   'P 1'
_cell_length_a   5.46948704
_cell_length_b   5.46948680
_cell_length_c   5.46948636
_cell_angle_alpha   135.48781285
_cell_angle_beta   119.09718696
_cell_angle_gamma   78.49849090
_symmetry_Int_Tables_number   1
_chemical_formula_structural   Y2AlNiIr
_chemical_formula_sum   'Y2 Al1 Ni1 Ir1'
_cell_volume   97.28767503
_cell_formula_units_Z   1
loop_
 _symmetry_equiv_pos_site_id
 _symmetry_equiv_pos_as_xyz
  1  'x, y, z'
loop_
 _atom_site_type_symbol
 _atom_site_label
 _atom_site_symmetry_multiplicity
 _atom_site_fract_x
 _atom_site_fract_y
 _atom_site_fract_z
 _atom_site_occupancy
  Y  Y0  1  0.69622934  0.20062452  0.49560483  1
  Y  Y1  1  0.29497931  0.79937548  0.49560483  1
  Al  Al0  1  0.99494059  1.00000000  0.99494059  1
  Ni  Ni0  1  0.74348810  0.50000000  0.24348810  1
  Ir  Ir0  1  0.27036266  0.50000000  0.77036266  1
loop_
_geom_bond_atom_site_label_1
_geom_bond_atom_site_label_2
_geom_bond_distance
_geom_bond_site_symmetry_2
Y0 Y1 3.399046 1_545
Y0 Y1 3.560188 1_645
Y0 Y1 3.560190 1_656
Y0 Y1 3.560192 1_544
Y0 Y1 3.560195 1_555
Al0 Ni0 2.496933 1_555
Al0 Ni0 2.496934 1_566
Al0 Ir0 2.573486 1_666
Al0 Ir0 2.573487 1_655
Al0 Y0 3.248357 1_565
Al0 Y1 3.248362 1_555
Al0 Y1 3.254635 1_656
Al0 Y0 3.254636 1_666
Al0 Y1 3.274582 1_655
Al0 Y1 3.274585 1_666
Al0 Y0 3.274587 1_566
Al0 Y0 3.274587 1_555
Ni0 Y1 2.895717 1_655
Ni0 Y0 2.895722 1_555
Ni0 Y0 3.011357 1_554
Ni0 Y0 3.011357 1_565
Ni0 Y1 3.011359 1_544
Ni0 Y1 3.011362 1_555
Ir0 Ni0 2.622985 1_556
Ir0 Ni0 2.920968 1_455
Ir0 Y0 2.956185 1_566
Ir0 Y1 2.956185 1_545
Ir0 Y0 2.956185 1_555
Ir0 Y1 2.956187 1_556
Ir0 Y1 2.958350 1_555
Ir0 Y0 2.958353 1_455
