# generated using pymatgen
data_Ta12Zn9Au3C4
_symmetry_space_group_name_H-M   'P 1'
_cell_length_a   8.31023825
_cell_length_b   8.31023843
_cell_length_c   8.31023850
_cell_angle_alpha   60.01306700
_cell_angle_beta   60.01306436
_cell_angle_gamma   60.01306908
_symmetry_Int_Tables_number   1
_chemical_formula_structural   Ta12Zn9Au3C4
_chemical_formula_sum   'Ta12 Zn9 Au3 C4'
_cell_volume   405.93274226
_cell_formula_units_Z   1
loop_
 _symmetry_equiv_pos_site_id
 _symmetry_equiv_pos_as_xyz
  1  'x, y, z'
loop_
 _atom_site_type_symbol
 _atom_site_label
 _atom_site_symmetry_multiplicity
 _atom_site_fract_x
 _atom_site_fract_y
 _atom_site_fract_z
 _atom_site_occupancy
  Ta  Ta0  1  0.43166812  0.43166812  0.06962206  1
  Ta  Ta1  1  0.06935860  0.43079002  0.06935860  1
  Ta  Ta2  1  0.43079002  0.06935860  0.06935860  1
  Ta  Ta3  1  0.06935860  0.06935860  0.43079002  1
  Ta  Ta4  1  0.43166812  0.06962206  0.43166812  1
  Ta  Ta5  1  0.06962206  0.43166812  0.43166812  1
  Ta  Ta6  1  0.81833188  0.81833188  0.18037794  1
  Ta  Ta7  1  0.18064140  0.81920998  0.18064140  1
  Ta  Ta8  1  0.81920998  0.18064140  0.18064140  1
  Ta  Ta9  1  0.18064140  0.18064140  0.81920998  1
  Ta  Ta10  1  0.81833188  0.18037794  0.81833188  1
  Ta  Ta11  1  0.18037794  0.81833188  0.81833188  1
  Zn  Zn0  1  0.83029932  0.83029932  0.49666740  1
  Zn  Zn1  1  0.83029932  0.49666740  0.83029932  1
  Zn  Zn2  1  0.49666740  0.83029932  0.83029932  1
  Zn  Zn3  1  0.83467491  0.83467491  0.83467491  1
  Zn  Zn4  1  0.41970068  0.41970068  0.75333260  1
  Zn  Zn5  1  0.41970068  0.75333260  0.41970068  1
  Zn  Zn6  1  0.75333260  0.41970068  0.41970068  1
  Zn  Zn7  1  0.41532509  0.41532509  0.41532509  1
  Zn  Zn8  1  0.62500000  0.62500000  0.62500000  1
  Au  Au0  1  0.62500000  0.62500000  0.12500000  1
  Au  Au1  1  0.62500000  0.12500000  0.62500000  1
  Au  Au2  1  0.12500000  0.62500000  0.62500000  1
  C  C0  1  0.12500000  0.12500000  0.62500000  1
  C  C1  1  0.12500000  0.62500000  0.12500000  1
  C  C2  1  0.62500000  0.12500000  0.12500000  1
  C  C3  1  0.12500000  0.12500000  0.12500000  1
loop_
_geom_bond_atom_site_label_1
_geom_bond_atom_site_label_2
_geom_bond_distance
_geom_bond_site_symmetry_2
Ta0 Zn8 3.086606 1_554
Ta4 Zn8 3.086606 1_545
Ta5 Zn8 3.086606 1_455
Ta6 Zn8 3.086606 1_555
Ta10 Zn8 3.086606 1_555
Ta11 Zn8 3.086606 1_555
Zn0 Zn8 2.496167 1_555
Zn1 Zn8 2.496168 1_555
Zn2 Zn8 2.496167 1_555
Zn4 Zn8 2.496167 1_555
Zn5 Zn8 2.496168 1_555
Zn6 Zn8 2.496167 1_555
Au0 Zn7 2.554129 1_555
Au0 Zn3 2.554129 1_554
Au0 Zn5 2.580944 1_555
Au0 Zn1 2.580944 1_554
Au0 Zn6 2.580944 1_555
Au0 Zn2 2.580944 1_554
Au0 Ta6 3.071280 1_555
Au0 Ta0 3.071280 1_555
Au0 Ta1 3.088125 1_655
Au0 Ta7 3.088125 1_555
Au0 Ta2 3.088125 1_565
Au0 Ta8 3.088125 1_555
Au1 Zn3 2.554129 1_545
Au1 Zn7 2.554129 1_555
Au1 Zn6 2.580944 1_555
Au1 Zn2 2.580944 1_545
Au1 Zn4 2.580944 1_555
Au1 Zn0 2.580944 1_545
Au1 Ta10 3.071280 1_555
Au1 Ta4 3.071280 1_555
Au1 Ta3 3.088125 1_655
Au1 Ta9 3.088125 1_555
Au1 Ta2 3.088125 1_556
Au1 Ta8 3.088125 1_555
Au2 Zn3 2.554129 1_455
Au2 Zn7 2.554129 1_555
Au2 Zn5 2.580944 1_555
Au2 Zn1 2.580944 1_455
Au2 Zn4 2.580944 1_555
Au2 Zn0 2.580944 1_455
Au2 Ta11 3.071280 1_555
Au2 Ta5 3.071280 1_555
Au2 Ta1 3.088125 1_556
Au2 Ta7 3.088125 1_555
Au2 Ta3 3.088125 1_565
Au2 Ta9 3.088125 1_555
C0 Ta9 2.176710 1_555
C0 Ta3 2.176710 1_555
C0 Ta4 2.182132 1_555
C0 Ta10 2.182132 1_455
C0 Ta5 2.182132 1_555
C0 Ta11 2.182132 1_545
C1 Ta7 2.176710 1_555
C1 Ta1 2.176710 1_555
C1 Ta5 2.182132 1_555
C1 Ta11 2.182132 1_554
C1 Ta0 2.182132 1_555
C1 Ta6 2.182132 1_455
C2 Ta8 2.176710 1_555
C2 Ta2 2.176710 1_555
C2 Ta4 2.182132 1_555
C2 Ta10 2.182132 1_554
C2 Ta0 2.182132 1_555
C2 Ta6 2.182132 1_545
C3 Ta2 2.179414 1_555
C3 Ta8 2.179414 1_455
C3 Ta3 2.179414 1_555
C3 Ta9 2.179414 1_554
C3 Ta1 2.179414 1_555
C3 Ta7 2.179414 1_545
