# generated using pymatgen
data_KBa4(POs)10
_symmetry_space_group_name_H-M   'P 1'
_cell_length_a   8.91631585
_cell_length_b   8.91631669
_cell_length_c   8.91631689
_cell_angle_alpha   119.13176421
_cell_angle_beta   119.13177598
_cell_angle_gamma   91.51051578
_symmetry_Int_Tables_number   1
_chemical_formula_structural   KBa4(POs)10
_chemical_formula_sum   'K1 Ba4 P10 Os10'
_cell_volume   507.62198104
_cell_formula_units_Z   1
loop_
 _symmetry_equiv_pos_site_id
 _symmetry_equiv_pos_as_xyz
  1  'x, y, z'
loop_
 _atom_site_type_symbol
 _atom_site_label
 _atom_site_symmetry_multiplicity
 _atom_site_fract_x
 _atom_site_fract_y
 _atom_site_fract_z
 _atom_site_occupancy
  K  K0  1  0.00000000  0.00000000  0.00000000  1
  Ba  Ba0  1  0.39278796  0.80273792  0.19552688  1
  Ba  Ba1  1  0.80273792  0.60721204  0.40994995  1
  Ba  Ba2  1  0.19726208  0.39278796  0.59005005  1
  Ba  Ba3  1  0.60721204  0.19726208  0.80447312  1
  P  P0  1  0.94354738  0.54331274  0.80018066  1
  P  P1  1  0.34348394  0.34348394  1.00000000  1
  P  P2  1  0.74313208  0.14336572  0.19981934  1
  P  P3  1  0.14336572  0.94354738  0.40023464  1
  P  P4  1  0.54331274  0.74313208  0.59976536  1
  P  P5  1  0.65651606  0.65651606  0.00000000  1
  P  P6  1  0.05645262  0.45668726  0.19981934  1
  P  P7  1  0.45668726  0.25686792  0.40023464  1
  P  P8  1  0.85663428  0.05645262  0.59976536  1
  P  P9  1  0.25686792  0.85663428  0.80018066  1
  Os  Os0  1  0.94943425  0.64975206  0.10008678  1
  Os  Os1  1  0.35024794  0.45033572  0.29968219  1
  Os  Os2  1  0.75000000  0.25000000  0.50000000  1
  Os  Os3  1  0.15065153  0.05056475  0.70031781  1
  Os  Os4  1  0.54966428  0.84934847  0.89991322  1
  Os  Os5  1  0.64975206  0.54966428  0.70031781  1
  Os  Os6  1  0.05056475  0.35024794  0.89991322  1
  Os  Os7  1  0.45033572  0.15065153  0.10008678  1
  Os  Os8  1  0.84934847  0.94943525  0.29968219  1
  Os  Os9  1  0.25000000  0.75000000  0.50000000  1
loop_
_geom_bond_atom_site_label_1
_geom_bond_atom_site_label_2
_geom_bond_distance
_geom_bond_site_symmetry_2
K0 P9 3.458867 1_544
K0 P2 3.458867 1_455
K0 P7 3.458867 1_555
K0 P4 3.458867 1_444
K0 P0 3.458868 1_444
K0 P6 3.458868 1_555
K0 P3 3.458869 1_545
K0 P8 3.458869 1_454
Ba0 P0 3.412630 1_454
Ba0 P9 3.412643 1_554
Ba0 P7 3.423719 1_565
Ba0 P3 3.423720 1_555
Ba0 P1 3.494088 1_554
Ba0 P5 3.494094 1_555
Ba0 P4 3.502515 1_555
Ba0 P8 3.502527 1_565
Ba1 P8 3.412628 1_565
Ba1 P4 3.412629 1_555
Ba1 P0 3.423717 1_555
Ba1 P9 3.423718 1_655
Ba1 P1 3.494088 1_554
Ba1 P5 3.494089 1_555
Ba1 P6 3.502523 1_655
Ba1 P2 3.502532 1_555
Ba2 P3 3.412628 1_545
Ba2 P7 3.412629 1_555
Ba2 P6 3.423717 1_555
Ba2 P2 3.423718 1_455
Ba2 P5 3.494088 1_556
Ba2 P1 3.494089 1_555
Ba2 P0 3.502523 1_455
Ba2 P9 3.502532 1_555
Ba3 P6 3.412630 1_656
Ba3 P2 3.412643 1_556
Ba3 P4 3.423719 1_545
Ba3 P8 3.423720 1_555
Ba3 P5 3.494088 1_556
Ba3 P1 3.494094 1_555
Ba3 P7 3.502515 1_555
Ba3 P3 3.502527 1_545
Os0 P5 2.326515 1_555
Os0 P6 2.327111 1_655
Os0 P0 2.333203 1_554
Os0 P3 2.333262 1_655
Os1 P1 2.326514 1_554
Os1 P4 2.327107 1_555
Os1 P7 2.333211 1_555
Os1 P6 2.333261 1_555
Os2 P2 2.330467 1_555
Os2 P7 2.330468 1_555
Os2 P0 2.330468 1_555
Os2 P8 2.330470 1_555
Os3 P1 2.326522 1_555
Os3 P3 2.327113 1_545
Os3 P8 2.333188 1_455
Os3 P9 2.333248 1_545
Os4 P5 2.326526 1_556
Os4 P9 2.327103 1_555
Os4 P2 2.333195 1_566
Os4 P4 2.333267 1_555
Os5 P5 2.326514 1_556
Os5 P7 2.327107 1_555
Os5 P4 2.333211 1_555
Os5 P0 2.333261 1_555
Os6 P1 2.326524 1_555
Os6 P0 2.327109 1_455
Os6 P6 2.333198 1_556
Os6 P8 2.333260 1_455
Os7 P1 2.326526 1_554
Os7 P2 2.327103 1_555
Os7 P9 2.333195 1_544
Os7 P7 2.333267 1_555
Os8 P5 2.326522 1_555
Os8 P8 2.327113 1_565
Os8 P3 2.333188 1_655
Os8 P2 2.333248 1_565
Os9 P9 2.330467 1_555
Os9 P4 2.330468 1_555
Os9 P6 2.330468 1_555
Os9 P3 2.330470 1_555
