# generated using pymatgen
data_Rb3Cu2P2Au
_symmetry_space_group_name_H-M   'P 1'
_cell_length_a   7.55269795
_cell_length_b   7.55269788
_cell_length_c   7.66789292
_cell_angle_alpha   47.42740725
_cell_angle_beta   47.42740777
_cell_angle_gamma   46.01113711
_symmetry_Int_Tables_number   1
_chemical_formula_structural   Rb3Cu2P2Au
_chemical_formula_sum   'Rb3 Cu2 P2 Au1'
_cell_volume   213.39446575
_cell_formula_units_Z   1
loop_
 _symmetry_equiv_pos_site_id
 _symmetry_equiv_pos_as_xyz
  1  'x, y, z'
loop_
 _atom_site_type_symbol
 _atom_site_label
 _atom_site_symmetry_multiplicity
 _atom_site_fract_x
 _atom_site_fract_y
 _atom_site_fract_z
 _atom_site_occupancy
  Rb  Rb0  1  0.90552815  0.90552815  0.91637584  1
  Rb  Rb1  1  0.50000000  0.50000000  0.50000000  1
  Rb  Rb2  1  0.09447185  0.09447185  0.08362416  1
  Cu  Cu0  1  0.00000000  0.50000000  0.50000000  1
  Cu  Cu1  1  0.50000000  0.00000000  0.50000000  1
  P  P0  1  0.24762417  0.24762417  0.28540211  1
  P  P1  1  0.75237583  0.75237583  0.71459789  1
  Au  Au0  1  0.50000000  0.50000000  0.00000000  1
loop_
_geom_bond_atom_site_label_1
_geom_bond_atom_site_label_2
_geom_bond_distance
_geom_bond_site_symmetry_2
Rb0 Rb1 3.803557 1_565
Rb0 Rb1 3.803557 1_655
Rb0 Rb1 3.837692 1_556
Rb1 Rb2 3.803557 1_565
Rb1 Rb2 3.803557 1_655
Rb1 Rb2 3.837692 1_556
Cu0 P1 2.228658 1_455
Cu0 P0 2.228658 1_555
Cu0 Rb2 3.557559 1_556
Cu0 Rb0 3.557559 1_454
Cu0 Rb2 3.582356 1_565
Cu0 Rb0 3.582356 1_445
Cu0 Rb1 3.776349 1_455
Cu0 Rb1 3.776349 1_555
Cu1 P1 2.228658 1_545
Cu1 P0 2.228658 1_555
Cu1 Rb2 3.557559 1_556
Cu1 Rb0 3.557559 1_544
Cu1 Rb2 3.582356 1_655
Cu1 Rb0 3.582356 1_445
Cu1 Rb1 3.776349 1_545
Cu1 Rb1 3.776349 1_555
P0 Rb2 3.430946 1_555
P0 Rb0 3.493509 1_445
P0 Rb0 3.522480 1_454
P0 Rb0 3.522480 1_544
P0 Rb1 3.866084 1_545
P0 Rb1 3.866084 1_455
P1 Rb0 3.430946 1_555
P1 Rb2 3.493509 1_665
P1 Rb2 3.522480 1_656
P1 Rb2 3.522480 1_566
P1 Rb1 3.866084 1_565
P1 Rb1 3.866084 1_655
Au0 P1 2.411295 1_554
Au0 P0 2.411295 1_555
Au0 Cu1 3.061062 1_564
Au0 Cu1 3.061062 1_555
Au0 Cu0 3.061062 1_555
Au0 Cu0 3.061062 1_654
Au0 Rb2 3.476704 1_565
Au0 Rb0 3.476704 1_544
Au0 Rb2 3.476704 1_655
Au0 Rb0 3.476704 1_454
Au0 Rb1 3.833946 1_554
Au0 Rb1 3.833946 1_555
