# generated using pymatgen
data_Ti10ZnGeSb4
_symmetry_space_group_name_H-M   'P 1'
_cell_length_a   5.18012990
_cell_length_b   7.81217935
_cell_length_c   7.81218049
_cell_angle_alpha   83.67841651
_cell_angle_beta   70.61338729
_cell_angle_gamma   70.61337797
_symmetry_Int_Tables_number   1
_chemical_formula_structural   Ti10ZnGeSb4
_chemical_formula_sum   'Ti10 Zn1 Ge1 Sb4'
_cell_volume   281.30988261
_cell_formula_units_Z   1
loop_
 _symmetry_equiv_pos_site_id
 _symmetry_equiv_pos_as_xyz
  1  'x, y, z'
loop_
 _atom_site_type_symbol
 _atom_site_label
 _atom_site_symmetry_multiplicity
 _atom_site_fract_x
 _atom_site_fract_y
 _atom_site_fract_z
 _atom_site_occupancy
  Ti  Ti0  1  0.25000000  0.50023363  0.49976637  1
  Ti  Ti1  1  0.75000000  0.49983741  0.50016259  1
  Ti  Ti2  1  0.07349168  0.14145411  0.71012878  1
  Ti  Ti3  1  0.92487602  0.85857014  0.29000188  1
  Ti  Ti4  1  0.78352524  0.28991257  0.14137317  1
  Ti  Ti5  1  0.42650832  0.28987122  0.85854589  1
  Ti  Ti6  1  0.21507726  0.70999343  0.85852916  1
  Ti  Ti7  1  0.57512398  0.70999812  0.14142986  1
  Ti  Ti8  1  0.71647476  0.85862683  0.71008743  1
  Ti  Ti9  1  0.28492274  0.14147084  0.29000657  1
  Zn  Zn0  1  0.25000000  0.99994197  0.00005803  1
  Ge  Ge0  1  0.75000000  0.99994496  0.00005504  1
  Sb  Sb0  1  0.16406791  0.49990152  0.17222307  1
  Sb  Sb1  1  0.83601364  0.50010724  0.82763992  1
  Sb  Sb2  1  0.33593209  0.82777693  0.50009848  1
  Sb  Sb3  1  0.66398636  0.17236008  0.49989276  1
loop_
_geom_bond_atom_site_label_1
_geom_bond_atom_site_label_2
_geom_bond_distance
_geom_bond_site_symmetry_2
Ti0 Ti1 2.590068 1_555
Ti0 Ti1 2.590068 1_455
Ti2 Zn0 2.709373 1_546
Ti3 Zn0 2.708917 1_655
Ti4 Zn0 2.708333 1_645
Ti5 Zn0 2.709372 1_546
Ti6 Zn0 2.709677 1_556
Ti7 Zn0 2.708916 1_555
Ti8 Zn0 2.708334 1_556
Ti9 Zn0 2.709677 1_545
Ge0 Zn0 2.590065 1_655
Ge0 Zn0 2.590065 1_555
Ge0 Ti6 2.705121 1_654
Ge0 Ti9 2.705122 1_565
Ge0 Ti7 2.705232 1_555
Ge0 Ti3 2.705232 1_555
Ge0 Ti5 2.705351 1_564
Ge0 Ti2 2.705352 1_664
Ge0 Ti4 2.705487 1_565
Ge0 Ti8 2.705488 1_554
Sb0 Ti0 2.739373 1_555
Sb0 Ti1 2.741618 1_455
Sb0 Ti9 2.780386 1_555
Sb0 Ti5 2.781774 1_554
Sb0 Ti3 2.781902 1_455
Sb0 Ti6 2.782352 1_554
Sb0 Ti4 3.020763 1_555
Sb0 Ti7 3.022449 1_455
Sb0 Ti7 3.029682 1_555
Sb0 Ti4 3.030581 1_455
Sb1 Ti1 2.738987 1_555
Sb1 Ti0 2.741147 1_655
Sb1 Ti8 2.780483 1_555
Sb1 Ti2 2.781180 1_655
Sb1 Ti7 2.781900 1_556
Sb1 Ti4 2.783013 1_556
Sb1 Ti5 3.023454 1_555
Sb1 Ti6 3.023515 1_655
Sb1 Ti6 3.027096 1_555
Sb1 Ti5 3.029853 1_655
Sb2 Ti0 2.739373 1_555
Sb2 Ti1 2.741617 1_555
Sb2 Ti6 2.780387 1_555
Sb2 Ti2 2.781774 1_565
Sb2 Ti7 2.781902 1_555
Sb2 Ti9 2.782352 1_565
Sb2 Ti8 3.020764 1_455
Sb2 Ti3 3.022450 1_555
Sb2 Ti3 3.029682 1_455
Sb2 Ti8 3.030581 1_555
Sb3 Ti1 2.738987 1_555
Sb3 Ti0 2.741146 1_555
Sb3 Ti4 2.780483 1_555
Sb3 Ti5 2.781181 1_555
Sb3 Ti3 2.781900 1_545
Sb3 Ti8 2.783012 1_545
Sb3 Ti2 3.023454 1_655
Sb3 Ti9 3.023515 1_555
Sb3 Ti9 3.027096 1_655
Sb3 Ti2 3.029854 1_555
