# generated using pymatgen
data_Hf4CdPbC2
_symmetry_space_group_name_H-M   'P 1'
_cell_length_a   3.32190330
_cell_length_b   3.32190244
_cell_length_c   14.78768773
_cell_angle_alpha   90.00000000
_cell_angle_beta   90.00000000
_cell_angle_gamma   119.99998893
_symmetry_Int_Tables_number   1
_chemical_formula_structural   Hf4CdPbC2
_chemical_formula_sum   'Hf4 Cd1 Pb1 C2'
_cell_volume   141.32038450
_cell_formula_units_Z   1
loop_
 _symmetry_equiv_pos_site_id
 _symmetry_equiv_pos_as_xyz
  1  'x, y, z'
loop_
 _atom_site_type_symbol
 _atom_site_label
 _atom_site_symmetry_multiplicity
 _atom_site_fract_x
 _atom_site_fract_y
 _atom_site_fract_z
 _atom_site_occupancy
  Hf  Hf0  1  0.33333300  0.66666700  0.41779058  1
  Hf  Hf1  1  0.66666700  0.33333300  0.58132844  1
  Hf  Hf2  1  0.66666700  0.33333300  0.91867156  1
  Hf  Hf3  1  0.33333300  0.66666700  0.08220942  1
  Cd  Cd0  1  0.33333300  0.66666700  0.75000000  1
  Pb  Pb0  1  0.66666700  0.33333300  0.25000000  1
  C  C0  1  0.00000000  0.00000000  0.49913350  1
  C  C1  1  0.00000000  0.00000000  0.00086650  1
loop_
_geom_bond_atom_site_label_1
_geom_bond_atom_site_label_2
_geom_bond_distance
_geom_bond_site_symmetry_2
Hf0 Pb0 3.136059 1_565
Hf0 Pb0 3.136059 1_455
Hf0 Pb0 3.136062 1_555
Hf3 Pb0 3.136059 1_565
Hf3 Pb0 3.136059 1_455
Hf3 Pb0 3.136062 1_555
Cd0 Hf2 3.146376 1_565
Cd0 Hf1 3.146376 1_565
Cd0 Hf2 3.146376 1_455
Cd0 Hf1 3.146376 1_455
Cd0 Hf2 3.146380 1_555
Cd0 Hf1 3.146380 1_555
C0 Hf0 2.263900 1_545
C0 Hf0 2.263903 1_555
C0 Hf0 2.263903 1_445
C0 Hf1 2.270620 1_455
C0 Hf1 2.270622 1_445
C0 Hf1 2.270623 1_555
C1 Hf3 2.263900 1_545
C1 Hf3 2.263903 1_555
C1 Hf3 2.263903 1_445
C1 Hf2 2.270620 1_454
C1 Hf2 2.270622 1_444
C1 Hf2 2.270623 1_554
