# generated using pymatgen
data_In2BPtRh5
_symmetry_space_group_name_H-M   'P 1'
_cell_length_a   5.72027578
_cell_length_b   5.68431750
_cell_length_c   5.68431760
_cell_angle_alpha   60.41895734
_cell_angle_beta   59.79052346
_cell_angle_gamma   59.79053100
_symmetry_Int_Tables_number   1
_chemical_formula_structural   In2BPtRh5
_chemical_formula_sum   'In2 B1 Pt1 Rh5'
_cell_volume   130.68438286
_cell_formula_units_Z   1
loop_
 _symmetry_equiv_pos_site_id
 _symmetry_equiv_pos_as_xyz
  1  'x, y, z'
loop_
 _atom_site_type_symbol
 _atom_site_label
 _atom_site_symmetry_multiplicity
 _atom_site_fract_x
 _atom_site_fract_y
 _atom_site_fract_z
 _atom_site_occupancy
  In  In0  1  0.24959154  0.25040846  0.25040846  1
  In  In1  1  0.74959154  0.75040846  0.75040846  1
  B  B0  1  0.50424123  0.49575677  0.49575677  1
  Pt  Pt0  1  0.24007618  0.75992282  0.75992282  1
  Rh  Rh0  1  0.24340297  0.75659603  0.24482558  1
  Rh  Rh1  1  0.75517342  0.75659603  0.24482558  1
  Rh  Rh2  1  0.75934374  0.24065526  0.24065526  1
  Rh  Rh3  1  0.24340297  0.24482558  0.75659603  1
  Rh  Rh4  1  0.75517342  0.24482558  0.75659603  1
loop_
_geom_bond_atom_site_label_1
_geom_bond_atom_site_label_2
_geom_bond_distance
_geom_bond_site_symmetry_2
In0 Rh4 2.840859 1_554
In0 Rh1 2.840859 1_545
In0 Rh0 2.840864 1_545
In0 Rh3 2.840864 1_554
In0 Rh0 2.844252 1_555
In0 Rh3 2.844252 1_555
In0 Rh4 2.844258 1_455
In0 Rh1 2.844258 1_455
In0 Pt0 2.861147 1_545
In0 Pt0 2.861147 1_554
In0 Rh2 2.861193 1_555
In0 Rh2 2.861204 1_455
In1 Rh0 2.840859 1_655
In1 Rh3 2.840859 1_655
In1 Rh4 2.840864 1_555
In1 Rh1 2.840864 1_555
In1 Rh4 2.844252 1_565
In1 Rh1 2.844252 1_556
In1 Rh0 2.844258 1_556
In1 Rh3 2.844258 1_565
In1 Pt0 2.861142 1_655
In1 Pt0 2.861153 1_555
In1 Rh2 2.861199 1_565
In1 Rh2 2.861199 1_556
B0 Rh2 2.037665 1_555
B0 Rh3 2.070407 1_555
B0 Rh0 2.070407 1_555
B0 Rh1 2.070415 1_555
B0 Rh4 2.070415 1_555
B0 Pt0 2.110070 1_555
