# generated using pymatgen
data_Ca2NiIr3
_symmetry_space_group_name_H-M   'P 1'
_cell_length_a   5.21971287
_cell_length_b   5.21971319
_cell_length_c   5.21971215
_cell_angle_alpha   61.00137837
_cell_angle_beta   61.00138263
_cell_angle_gamma   61.00137376
_symmetry_Int_Tables_number   1
_chemical_formula_structural   Ca2NiIr3
_chemical_formula_sum   'Ca2 Ni1 Ir3'
_cell_volume   102.82809449
_cell_formula_units_Z   1
loop_
 _symmetry_equiv_pos_site_id
 _symmetry_equiv_pos_as_xyz
  1  'x, y, z'
loop_
 _atom_site_type_symbol
 _atom_site_label
 _atom_site_symmetry_multiplicity
 _atom_site_fract_x
 _atom_site_fract_y
 _atom_site_fract_z
 _atom_site_occupancy
  Ca  Ca0  1  0.24921414  0.24921414  0.24921414  1
  Ca  Ca1  1  0.00078586  0.00078586  0.00078586  1
  Ni  Ni0  1  0.62500000  0.62500000  0.62500000  1
  Ir  Ir0  1  0.12500000  0.62500000  0.62500000  1
  Ir  Ir1  1  0.62500000  0.12500000  0.62500000  1
  Ir  Ir2  1  0.62500000  0.62500000  0.12500000  1
loop_
_geom_bond_atom_site_label_1
_geom_bond_atom_site_label_2
_geom_bond_distance
_geom_bond_site_symmetry_2
Ca0 Ir1 3.062607 1_555
Ca0 Ir0 3.062608 1_555
Ca0 Ir2 3.062608 1_555
Ca0 Ir0 3.082603 1_554
Ca0 Ir1 3.082603 1_554
Ca0 Ir2 3.082603 1_455
Ca0 Ir2 3.082604 1_545
Ca0 Ir1 3.082604 1_455
Ca0 Ir0 3.082604 1_545
Ca0 Ni0 3.106159 1_545
Ca0 Ni0 3.106159 1_455
Ca0 Ni0 3.106159 1_554
Ca0 Ca1 3.152062 1_555
Ca0 Ca1 3.243242 1_556
Ca0 Ca1 3.243242 1_655
Ca0 Ca1 3.243242 1_565
Ca1 Ir1 3.062607 1_454
Ca1 Ir0 3.062608 1_544
Ca1 Ir2 3.062608 1_445
Ca1 Ir0 3.082603 1_545
Ca1 Ir1 3.082603 1_455
Ca1 Ir2 3.082603 1_545
Ca1 Ir2 3.082604 1_455
Ca1 Ir1 3.082604 1_554
Ca1 Ir0 3.082604 1_554
Ca1 Ni0 3.106159 1_454
Ca1 Ni0 3.106159 1_544
Ca1 Ni0 3.106159 1_445
Ir0 Ni0 2.609856 1_455
Ir0 Ni0 2.609856 1_555
Ir0 Ir1 2.649259 1_555
Ir0 Ir1 2.649259 1_465
Ir0 Ir2 2.649259 1_456
Ir0 Ir2 2.649259 1_555
Ir1 Ni0 2.609857 1_555
Ir1 Ni0 2.609857 1_545
Ir1 Ir2 2.649259 1_555
Ir1 Ir2 2.649259 1_546
Ir2 Ni0 2.609856 1_554
Ir2 Ni0 2.609856 1_555
