# generated using pymatgen
data_Ti8Al14AsIr7
_symmetry_space_group_name_H-M   'P 1'
_cell_length_a   8.60166958
_cell_length_b   8.60169690
_cell_length_c   8.60170935
_cell_angle_alpha   119.99019988
_cell_angle_beta   119.92215284
_cell_angle_gamma   90.07612046
_symmetry_Int_Tables_number   1
_chemical_formula_structural   Ti8Al14AsIr7
_chemical_formula_sum   'Ti8 Al14 As1 Ir7'
_cell_volume   450.32174123
_cell_formula_units_Z   1
loop_
 _symmetry_equiv_pos_site_id
 _symmetry_equiv_pos_as_xyz
  1  'x, y, z'
loop_
 _atom_site_type_symbol
 _atom_site_label
 _atom_site_symmetry_multiplicity
 _atom_site_fract_x
 _atom_site_fract_y
 _atom_site_fract_z
 _atom_site_occupancy
  Ti  Ti0  1  0.79775115  0.29563580  0.08658859  1
  Ti  Ti1  1  0.20903647  0.29563906  0.49788017  1
  Ti  Ti2  1  0.20376163  0.70376564  0.49999395  1
  Ti  Ti3  1  0.20899568  0.71110686  0.91332299  1
  Ti  Ti4  1  0.79777770  0.71111840  0.50211024  1
  Ti  Ti5  1  0.79104004  0.29105736  0.50000561  1
  Ti  Ti6  1  0.38010699  0.12295712  0.74285116  1
  Ti  Ti7  1  0.38011061  0.63725977  0.25715256  1
  Al  Al0  1  0.15976661  0.33695154  0.17719537  1
  Al  Al1  1  0.15975719  0.98255651  0.82281032  1
  Al  Al2  1  0.15537044  0.33960690  0.81578817  1
  Al  Al3  1  0.52382555  0.33960655  0.18424287  1
  Al  Al4  1  0.83851465  0.65935996  0.82085484  1
  Al  Al5  1  0.83852289  0.01768083  0.17917341  1
  Al  Al6  1  0.83684703  0.66075520  0.17610785  1
  Al  Al7  1  0.48464379  0.66075455  0.82390748  1
  Al  Al8  1  0.38096413  0.12017942  0.26078289  1
  Al  Al9  1  0.85940229  0.12018290  0.73921917  1
  Al  Al10  1  0.62067579  0.88040219  0.25972750  1
  Al  Al11  1  0.62067650  0.36096276  0.74028318  1
  Al  Al12  1  0.62181933  0.87945076  0.74237480  1
  Al  Al13  1  0.13707684  0.87944923  0.25763538  1
  As  As0  1  0.99805055  0.49804148  0.49997695  1
  Ir  Ir0  1  0.00194246  0.99950567  0.50149687  1
  Ir  Ir1  1  0.49802384  0.99951643  0.99755684  1
  Ir  Ir2  1  0.49743727  0.49742100  0.99999494  1
  Ir  Ir3  1  0.49801404  0.50045216  0.49851442  1
  Ir  Ir4  1  0.00191843  0.50043058  0.00243135  1
  Ir  Ir5  1  0.99988087  0.99990005  0.00001131  1
  Ir  Ir6  1  0.49828423  0.99828729  0.50000781  1
loop_
_geom_bond_atom_site_label_1
_geom_bond_atom_site_label_2
_geom_bond_distance
_geom_bond_site_symmetry_2
Al0 Ir5 2.469947 1_445
Al0 Ir3 2.482490 1_555
Al0 Ir4 2.482496 1_555
Al1 Ir5 2.470048 1_456
Al1 Ir1 2.482569 1_555
Al1 Ir0 2.482573 1_555
Al2 Ir4 2.476310 1_556
Al2 Ir0 2.476373 1_545
Al2 Ir2 2.489721 1_555
Al3 Ir3 2.476241 1_555
Al3 Ir1 2.476313 1_544
Al3 Ir2 2.489713 1_554
Al4 Ir5 2.494847 1_556
Al4 Ir3 2.496651 1_555
Al4 Ir4 2.496675 1_656
Al5 Ir5 2.494723 1_545
Al5 Ir0 2.496618 1_645
Al5 Ir1 2.496634 1_544
Al6 Ir0 2.492282 1_655
Al6 Ir4 2.492287 1_655
Al6 Ir2 2.498263 1_554
Al7 Ir1 2.492331 1_555
Al7 Ir3 2.492366 1_555
Al7 Ir2 2.498330 1_555
Al8 Ir6 2.537713 1_545
Al8 Ir3 2.673026 1_555
Al8 Ir1 2.673128 1_544
Al8 Ir5 2.679993 1_445
Al9 Ir6 2.537705 1_545
Al9 Ir4 2.672844 1_656
Al9 Ir0 2.672959 1_645
Al9 Ir5 2.679948 1_546
Al10 Ir6 2.546909 1_555
Al10 Ir0 2.680811 1_655
Al10 Ir1 2.680959 1_554
Al10 Ir2 2.690297 1_554
Al11 Ir6 2.546929 1_545
Al11 Ir4 2.680633 1_656
Al11 Ir3 2.680767 1_555
Al11 Ir2 2.690086 1_555
Al12 Ir6 2.538407 1_555
Al12 Ir5 2.658153 1_556
Al12 Ir1 2.662151 1_555
Al12 Ir3 2.662297 1_555
Al13 Ir6 2.538418 1_555
Al13 Ir5 2.658265 1_455
Al13 Ir0 2.662282 1_555
Al13 Ir4 2.662440 1_555
As0 Ti2 2.500710 1_655
As0 Ti5 2.516544 1_555
As0 Ti3 2.516621 1_655
As0 Ti4 2.516647 1_555
As0 Ti1 2.516882 1_655
As0 Ti0 2.516882 1_555
Ir0 Ti6 2.658640 1_565
Ir1 Ti6 2.658525 1_565
Ir2 Ti6 2.632085 1_555
Ir2 Ti7 2.632239 1_556
Ir3 Ti7 2.658691 1_555
Ir4 Ti7 2.658837 1_555
Ir5 Ti0 3.075422 1_565
Ir5 Ti1 3.075447 1_665
Ir5 Ti4 3.075738 1_554
Ir5 Ti3 3.075790 1_654
Ir6 Ti6 2.535461 1_565
Ir6 Ti7 2.535506 1_555
