# generated using pymatgen
data_Ti6MnTc5As6
_symmetry_space_group_name_H-M   'P 1'
_cell_length_a   7.51695083
_cell_length_b   7.52419368
_cell_length_c   7.52419389
_cell_angle_alpha   127.76039853
_cell_angle_beta   123.70454373
_cell_angle_gamma   80.39250973
_symmetry_Int_Tables_number   1
_chemical_formula_structural   Ti6MnTc5As6
_chemical_formula_sum   'Ti6 Mn1 Tc5 As6'
_cell_volume   270.04151842
_cell_formula_units_Z   1
loop_
 _symmetry_equiv_pos_site_id
 _symmetry_equiv_pos_as_xyz
  1  'x, y, z'
loop_
 _atom_site_type_symbol
 _atom_site_label
 _atom_site_symmetry_multiplicity
 _atom_site_fract_x
 _atom_site_fract_y
 _atom_site_fract_z
 _atom_site_occupancy
  Ti  Ti0  1  0.46113461  0.24855393  0.27662347  1
  Ti  Ti1  1  0.53886539  0.81548886  0.78741832  1
  Ti  Ti2  1  0.74951369  0.65374412  0.40642907  1
  Ti  Ti3  1  0.25048631  0.65691538  0.90422943  1
  Ti  Ti4  1  0.04842297  0.84925949  0.29344226  1
  Ti  Ti5  1  0.95157703  0.24501928  0.80083651  1
  Mn  Mn0  1  0.50000000  0.99584980  0.49584980  1
  Tc  Tc0  1  0.66440772  0.50141988  0.91179095  1
  Tc  Tc1  1  0.33559228  0.24738424  0.83701416  1
  Tc  Tc2  1  0.90793999  0.24511847  0.40754815  1
  Tc  Tc3  1  0.09206001  0.49960817  0.33717948  1
  Tc  Tc4  1  0.00000000  0.99144105  0.99144105  1
  As  As0  1  0.83379899  0.57657820  0.74599783  1
  As  As1  1  0.16620101  0.91219584  0.74277921  1
  As  As2  1  0.66891867  0.91583611  0.25566580  1
  As  As3  1  0.33108133  0.58674614  0.24691744  1
  As  As4  1  0.27809910  0.27741176  0.49992340  1
  As  As5  1  0.72190090  0.22182430  0.99931366  1
loop_
_geom_bond_atom_site_label_1
_geom_bond_atom_site_label_2
_geom_bond_distance
_geom_bond_site_symmetry_2
Mn0 Tc0 2.913524 1_565
Mn0 Tc1 2.913535 1_565
Mn0 Ti5 2.917799 1_565
Mn0 Ti4 2.917799 1_555
Tc0 Ti4 2.747036 1_656
Tc0 Ti5 2.777762 1_555
Tc0 Ti2 2.820015 1_556
Tc0 Ti1 2.886952 1_555
Tc0 Tc1 2.965774 1_555
Tc0 Tc3 3.032878 1_656
Tc0 Ti3 3.118174 1_555
Tc0 Ti0 3.244151 1_555
Tc1 Ti5 2.747029 1_455
Tc1 Ti4 2.777770 1_545
Tc1 Ti3 2.820016 1_555
Tc1 Ti0 2.886937 1_556
Tc1 Tc2 3.032878 1_455
Tc1 Ti2 3.118170 1_556
Tc1 Ti1 3.244152 1_545
Tc2 Ti4 2.747410 1_645
Tc2 Ti5 2.791002 1_555
Tc2 Ti3 2.828209 1_655
Tc2 Ti0 2.929447 1_555
Tc3 Ti5 2.747417 1_454
Tc3 Ti4 2.791007 1_555
Tc3 Ti2 2.828206 1_455
Tc3 Ti1 2.929447 1_555
Tc4 Ti2 2.842145 1_455
Tc4 Ti3 2.842146 1_555
Tc4 Ti5 2.893039 1_465
Tc4 Ti4 2.893039 1_556
As0 Tc2 2.519590 1_555
As0 Tc0 2.522781 1_555
As0 Tc4 2.529065 1_655
As0 Ti1 2.644625 1_555
As0 Ti0 2.657871 1_555
As0 Ti4 2.675538 1_656
As0 Ti2 2.676555 1_555
As0 Ti3 2.684321 1_655
As0 Ti5 2.701052 1_555
As1 Tc3 2.519576 1_555
As1 Tc1 2.522799 1_565
As1 Tc4 2.529058 1_555
As1 Ti0 2.644630 1_566
As1 Ti1 2.657870 1_555
As1 Ti5 2.675554 1_465
As1 Ti3 2.676527 1_555
As1 Ti2 2.684311 1_455
As1 Ti4 2.701065 1_555
As2 Mn0 2.489918 1_555
As2 Tc2 2.532206 1_565
As2 Tc0 2.544721 1_554
As2 Ti1 2.665438 1_554
As2 Ti5 2.667621 1_565
As2 Ti2 2.668513 1_555
As2 Ti3 2.680745 1_554
As2 Ti0 2.686312 1_565
As2 Ti4 2.695773 1_655
As3 Mn0 2.489924 1_555
As3 Tc3 2.532209 1_555
As3 Tc1 2.544708 1_554
As3 Ti0 2.665424 1_555
As3 Ti4 2.667625 1_555
As3 Ti3 2.668525 1_554
As3 Ti2 2.680747 1_555
As3 Ti1 2.686304 1_555
As3 Ti5 2.695771 1_454
As4 Mn0 2.463544 1_545
As4 Tc3 2.465064 1_555
As4 Tc1 2.474577 1_555
As4 Tc0 2.475140 1_555
As4 Tc2 2.481282 1_455
As4 Tc4 2.486053 1_544
As4 Ti0 2.604245 1_555
As4 Ti3 2.704684 1_555
As4 Ti4 2.919328 1_545
As5 Mn0 2.463549 1_545
As5 Tc2 2.465062 1_556
As5 Tc0 2.474572 1_555
As5 Tc1 2.475142 1_555
As5 Tc3 2.481282 1_656
As5 Tc4 2.486053 1_645
As5 Ti1 2.604239 1_545
As5 Ti2 2.704686 1_556
As5 Ti5 2.919334 1_555
