# generated using pymatgen
data_Zn3PI3
_symmetry_space_group_name_H-M   'P 1'
_cell_length_a   4.13883631
_cell_length_b   6.91252866
_cell_length_c   7.34036583
_cell_angle_alpha   89.93502338
_cell_angle_beta   90.00000000
_cell_angle_gamma   90.00000000
_symmetry_Int_Tables_number   1
_chemical_formula_structural   Zn3PI3
_chemical_formula_sum   'Zn3 P1 I3'
_cell_volume   210.00644382
_cell_formula_units_Z   1
loop_
 _symmetry_equiv_pos_site_id
 _symmetry_equiv_pos_as_xyz
  1  'x, y, z'
loop_
 _atom_site_type_symbol
 _atom_site_label
 _atom_site_symmetry_multiplicity
 _atom_site_fract_x
 _atom_site_fract_y
 _atom_site_fract_z
 _atom_site_occupancy
  Zn  Zn0  1  0.00000000  0.46598803  0.71467235  1
  Zn  Zn1  1  0.50000000  0.49720924  0.11384125  1
  Zn  Zn2  1  0.50000000  0.04107719  0.85019317  1
  P  P0  1  0.50000000  0.37255595  0.82433494  1
  I  I0  1  0.00000000  0.87016237  0.66484985  1
  I  I1  1  0.50000000  0.87277911  0.16997963  1
  I  I2  1  0.00000000  0.37222911  0.32879382  1
loop_
_geom_bond_atom_site_label_1
_geom_bond_atom_site_label_2
_geom_bond_distance
_geom_bond_site_symmetry_2
P0 Zn1 2.294036 1_556
P0 Zn2 2.298990 1_555
P0 Zn0 2.312229 1_555
P0 Zn0 2.312229 1_655
I0 Zn2 2.744612 1_565
I0 Zn2 2.744612 1_465
I0 Zn0 2.817290 1_555
I1 Zn2 2.618640 1_564
I1 Zn1 2.629099 1_555
I2 Zn1 2.741409 1_555
I2 Zn1 2.741409 1_455
I2 Zn0 2.906408 1_555
