# generated using pymatgen
data_MgAgAs
_symmetry_space_group_name_H-M   'P 1'
_cell_length_a   4.45335144
_cell_length_b   4.45335144
_cell_length_c   4.45335144
_cell_angle_alpha   60.00000000
_cell_angle_beta   60.00000000
_cell_angle_gamma   60.00000000
_symmetry_Int_Tables_number   1
_chemical_formula_structural   MgAgAs
_chemical_formula_sum   'Mg1 Ag1 As1'
_cell_volume   62.45193641
_cell_formula_units_Z   1
loop_
 _symmetry_equiv_pos_site_id
 _symmetry_equiv_pos_as_xyz
  1  'x, y, z'
loop_
 _atom_site_type_symbol
 _atom_site_label
 _atom_site_symmetry_multiplicity
 _atom_site_fract_x
 _atom_site_fract_y
 _atom_site_fract_z
 _atom_site_occupancy
  Mg  Mg0  1  0.00000000  0.00000000  0.00000000  1
  Ag  Ag0  1  0.75000000  0.75000000  0.75000000  1
  As  As0  1  0.50000000  0.50000000  0.50000000  1
loop_
_geom_bond_atom_site_label_1
_geom_bond_atom_site_label_2
_geom_bond_distance
_geom_bond_site_symmetry_2
Ag0 As0 2.727110 1_556
Ag0 Mg0 2.727110 1_665
Ag0 As0 2.727110 1_555
Ag0 As0 2.727110 1_655
Ag0 Mg0 2.727110 1_656
Ag0 As0 2.727110 1_565
Ag0 Mg0 2.727110 1_666
Ag0 Mg0 2.727110 1_566
As0 Mg0 3.148995 1_566
As0 Mg0 3.148995 1_655
As0 Mg0 3.148995 1_665
As0 Mg0 3.148995 1_565
As0 Mg0 3.148995 1_656
As0 Mg0 3.148995 1_556
