# generated using pymatgen
data_Y2H6PdPt
_symmetry_space_group_name_H-M   'P 1'
_cell_length_a   6.08353264
_cell_length_b   6.08353240
_cell_length_c   4.67150419
_cell_angle_alpha   90.00000000
_cell_angle_beta   90.00000000
_cell_angle_gamma   143.41783052
_symmetry_Int_Tables_number   1
_chemical_formula_structural   Y2H6PdPt
_chemical_formula_sum   'Y2 H6 Pd1 Pt1'
_cell_volume   103.03777191
_cell_formula_units_Z   1
loop_
 _symmetry_equiv_pos_site_id
 _symmetry_equiv_pos_as_xyz
  1  'x, y, z'
loop_
 _atom_site_type_symbol
 _atom_site_label
 _atom_site_symmetry_multiplicity
 _atom_site_fract_x
 _atom_site_fract_y
 _atom_site_fract_z
 _atom_site_occupancy
  Y  Y0  1  0.63935062  0.36064938  0.25000000  1
  Y  Y1  1  0.36333564  0.63666436  0.75000000  1
  H  H0  1  0.18679897  0.81320003  0.00797736  1
  H  H1  1  0.42901183  0.57098717  0.25000000  1
  H  H2  1  0.18679897  0.81320003  0.49202264  1
  H  H3  1  0.80991670  0.19008230  0.51166377  1
  H  H4  1  0.57340910  0.42658990  0.75000000  1
  H  H5  1  0.80991670  0.19008230  0.98833623  1
  Pd  Pd0  1  0.92475890  0.07524010  0.25000000  1
  Pt  Pt0  1  0.07670056  0.92329844  0.75000000  1
loop_
_geom_bond_atom_site_label_1
_geom_bond_atom_site_label_2
_geom_bond_distance
_geom_bond_site_symmetry_2
H0 Pt0 1.752163 1_554
H0 Y0 2.285629 1_455
H0 Y0 2.285632 1_565
H0 Y1 2.368866 1_554
H1 Pd0 1.909917 1_565
H1 Pd0 1.909917 1_455
H1 Y0 2.429894 1_555
H1 Y1 2.455889 1_555
H1 Y1 2.455889 1_554
H2 Pt0 1.752163 1_555
H2 Y0 2.285629 1_455
H2 Y0 2.285632 1_565
H2 Y1 2.368866 1_555
H3 Pd0 1.803964 1_555
H3 Y1 2.294736 1_545
H3 Y1 2.294740 1_655
H3 Y0 2.318793 1_555
H4 Pt0 1.909663 1_545
H4 Pt0 1.909663 1_655
H4 Y1 2.426841 1_555
H4 Y0 2.456834 1_556
H4 Y0 2.456834 1_555
H5 Pd0 1.803964 1_556
H5 Y1 2.294736 1_545
H5 Y1 2.294740 1_655
H5 Y0 2.318793 1_556
