# generated using pymatgen
data_Ta9TiSi6
_symmetry_space_group_name_H-M   'P 1'
_cell_length_a   7.51285249
_cell_length_b   7.51285224
_cell_length_c   7.51285259
_cell_angle_alpha   128.70676176
_cell_angle_beta   128.70676086
_cell_angle_gamma   75.48286556
_symmetry_Int_Tables_number   1
_chemical_formula_structural   Ta9TiSi6
_chemical_formula_sum   'Ta9 Ti1 Si6'
_cell_volume   251.27210237
_cell_formula_units_Z   1
loop_
 _symmetry_equiv_pos_site_id
 _symmetry_equiv_pos_as_xyz
  1  'x, y, z'
loop_
 _atom_site_type_symbol
 _atom_site_label
 _atom_site_symmetry_multiplicity
 _atom_site_fract_x
 _atom_site_fract_y
 _atom_site_fract_z
 _atom_site_occupancy
  Ta  Ta0  1  0.01606378  0.18522305  0.50048538  1
  Ta  Ta1  1  0.68473768  0.51557840  0.49951462  1
  Ta  Ta2  1  0.51557840  0.01606378  0.83084172  1
  Ta  Ta3  1  0.18522305  0.68473768  0.16915828  1
  Ta  Ta4  1  0.98393622  0.81477695  0.49951462  1
  Ta  Ta5  1  0.31526232  0.48442160  0.50048538  1
  Ta  Ta6  1  0.48442160  0.98393622  0.16915828  1
  Ta  Ta7  1  0.81477695  0.31526232  0.83084172  1
  Ta  Ta8  1  0.50000000  0.50000000  0.00000000  1
  Ti  Ti0  1  0.00000000  0.00000000  0.00000000  1
  Si  Si0  1  0.75052261  0.75052261  1.00000000  1
  Si  Si1  1  0.24947739  0.24947739  0.00000000  1
  Si  Si2  1  0.36654611  0.12704811  0.49359422  1
  Si  Si3  1  0.63345389  0.87295189  0.50640578  1
  Si  Si4  1  0.87295189  0.36654611  0.23949800  1
  Si  Si5  1  0.12704811  0.63345389  0.76050200  1
loop_
_geom_bond_atom_site_label_1
_geom_bond_atom_site_label_2
_geom_bond_distance
_geom_bond_site_symmetry_2
Si0 Ta2 2.703806 1_565
Si0 Ta0 2.703810 1_666
Si0 Ta1 2.703810 1_555
Si0 Ta3 2.703811 1_656
Si0 Ta6 2.705489 1_556
Si0 Ta5 2.705493 1_555
Si0 Ta4 2.705493 1_556
Si0 Ta7 2.705494 1_555
Si0 Ti0 2.964301 1_666
Si0 Ta8 2.976721 1_556
Si1 Ta6 2.703806 1_545
Si1 Ta4 2.703810 1_444
Si1 Ta5 2.703810 1_555
Si1 Ta7 2.703811 1_454
Si1 Ta2 2.705489 1_554
Si1 Ta1 2.705493 1_555
Si1 Ta0 2.705493 1_554
Si1 Ta3 2.705494 1_555
Si1 Ti0 2.964301 1_555
Si1 Ta8 2.976721 1_555
Si2 Si3 2.396618 1_545
Si2 Ti0 2.522934 1_555
Si2 Ta8 2.576068 1_556
Si2 Ta5 2.586942 1_555
Si2 Ta0 2.586943 1_555
Si2 Ta3 2.612662 1_545
Si2 Ta6 2.612670 1_545
Si2 Ta7 2.644726 1_555
Si2 Ta2 2.644734 1_555
Si3 Ti0 2.522934 1_666
Si3 Ta8 2.576068 1_555
Si3 Ta1 2.586942 1_555
Si3 Ta4 2.586943 1_555
Si3 Ta7 2.612662 1_565
Si3 Ta2 2.612670 1_565
Si3 Ta3 2.644726 1_555
Si3 Ta6 2.644734 1_555
Si4 Si5 2.396618 1_655
Si4 Ti0 2.522934 1_655
Si4 Ta8 2.576068 1_555
Si4 Ta7 2.586935 1_554
Si4 Ta2 2.586943 1_554
Si4 Ta0 2.612663 1_655
Si4 Ta5 2.612664 1_655
Si4 Ta4 2.644727 1_555
Si4 Ta1 2.644727 1_555
Si5 Ti0 2.522934 1_566
Si5 Ta8 2.576068 1_556
Si5 Ta3 2.586935 1_556
Si5 Ta6 2.586943 1_556
Si5 Ta4 2.612663 1_455
Si5 Ta1 2.612664 1_455
Si5 Ta0 2.644727 1_555
Si5 Ta5 2.644727 1_555
