# generated using pymatgen
data_Zn2SnO4
_symmetry_space_group_name_H-M   'P 1'
_cell_length_a   6.13402101
_cell_length_b   6.13402524
_cell_length_c   6.13401314
_cell_angle_alpha   121.38047847
_cell_angle_beta   118.74801682
_cell_angle_gamma   89.90353992
_symmetry_Int_Tables_number   1
_chemical_formula_structural   Zn2SnO4
_chemical_formula_sum   'Zn4 Sn2 O8'
_cell_volume   162.93413001
_cell_formula_units_Z   2
loop_
 _symmetry_equiv_pos_site_id
 _symmetry_equiv_pos_as_xyz
  1  'x, y, z'
loop_
 _atom_site_type_symbol
 _atom_site_label
 _atom_site_symmetry_multiplicity
 _atom_site_fract_x
 _atom_site_fract_y
 _atom_site_fract_z
 _atom_site_occupancy
  Zn  Zn0  1  0.89126510  0.14126740  0.74999871  1
  Zn  Zn1  1  0.10873490  0.85873302  0.25000166  1
  Zn  Zn2  1  0.49999992  0.50000007  0.50000004  1
  Zn  Zn3  1  0.49999998  0.00000000  0.00000003  1
  Sn  Sn0  1  0.00000005  0.49999999  0.50000000  1
  Sn  Sn1  1  0.49999996  0.49999996  -0.00000005  1
  O  O0  1  0.25207144  0.73496698  0.51710426  1
  O  O1  1  0.71786081  0.73496707  0.98289495  1
  O  O2  1  0.25055986  0.26738145  0.51681976  1
  O  O3  1  0.25056069  0.73374120  0.98318093  1
  O  O4  1  0.74943952  0.26625865  0.01681881  1
  O  O5  1  0.74944001  0.73261804  0.48317989  1
  O  O6  1  0.28213920  0.26503302  0.01710511  1
  O  O7  1  0.74792857  0.26503314  0.48289590  1
loop_
_geom_bond_atom_site_label_1
_geom_bond_atom_site_label_2
_geom_bond_distance
_geom_bond_site_symmetry_2
O0 Zn1 1.985262 1_555
O0 Sn0 2.042811 1_555
O0 Zn2 2.095180 1_555
O0 Zn3 2.095193 1_566
O1 Zn1 1.985300 1_656
O1 Sn1 2.042805 1_556
O1 Zn3 2.095174 1_566
O1 Zn2 2.095187 1_555
O2 Zn1 2.020895 1_545
O2 Sn0 2.098151 1_555
O2 Sn1 2.098169 1_556
O2 Zn2 2.168015 1_555
O3 Zn1 2.020874 1_556
O3 Sn1 2.098160 1_556
O3 Sn0 2.098172 1_555
O3 Zn3 2.168018 1_566
O4 Zn0 2.020869 1_554
O4 Sn1 2.098161 1_555
O4 Sn0 2.098173 1_655
O4 Zn3 2.168020 1_555
O5 Zn0 2.020899 1_565
O5 Sn0 2.098150 1_655
O5 Sn1 2.098168 1_555
O5 Zn2 2.168014 1_555
O6 Zn0 1.985300 1_454
O6 Sn1 2.042805 1_555
O6 Zn3 2.095174 1_555
O6 Zn2 2.095187 1_555
O7 Zn0 1.985262 1_555
O7 Sn0 2.042812 1_655
O7 Zn2 2.095181 1_555
O7 Zn3 2.095193 1_555
