# generated using pymatgen
data_Hf2ZrAsN
_symmetry_space_group_name_H-M   'P 1'
_cell_length_a   5.84273618
_cell_length_b   5.84273601
_cell_length_c   8.41623782
_cell_angle_alpha   90.00000000
_cell_angle_beta   90.00000000
_cell_angle_gamma   145.68991329
_symmetry_Int_Tables_number   1
_chemical_formula_structural   Hf2ZrAsN
_chemical_formula_sum   'Hf4 Zr2 As2 N2'
_cell_volume   161.94837535
_cell_formula_units_Z   2
loop_
 _symmetry_equiv_pos_site_id
 _symmetry_equiv_pos_as_xyz
  1  'x, y, z'
loop_
 _atom_site_type_symbol
 _atom_site_label
 _atom_site_symmetry_multiplicity
 _atom_site_fract_x
 _atom_site_fract_y
 _atom_site_fract_z
 _atom_site_occupancy
  Hf  Hf0  1  0.36814660  0.63185340  0.05532166  1
  Hf  Hf1  1  0.63185340  0.36814660  0.55532166  1
  Hf  Hf2  1  0.94247874  0.05752126  0.74943551  1
  Hf  Hf3  1  0.05752126  0.94247874  0.24943551  1
  Zr  Zr0  1  0.63218453  0.36781547  0.94409295  1
  Zr  Zr1  1  0.36781547  0.63218453  0.44409295  1
  As  As0  1  0.25791251  0.74208749  0.74949050  1
  As  As1  1  0.74208749  0.25791251  0.24949050  1
  N  N0  1  0.99541520  0.00458480  0.00166037  1
  N  N1  1  0.00458480  0.99541520  0.50166037  1
loop_
_geom_bond_atom_site_label_1
_geom_bond_atom_site_label_2
_geom_bond_distance
_geom_bond_site_symmetry_2
Hf0 N0 2.278875 1_455
Hf0 N0 2.278875 1_565
Hf1 N1 2.278875 1_655
Hf1 N1 2.278875 1_545
Hf2 N1 2.197611 1_645
Hf2 N0 2.203537 1_556
Hf3 N0 2.197611 1_465
Hf3 N1 2.203537 1_555
As0 Hf2 2.686418 1_455
As0 Hf2 2.686418 1_565
As0 Hf1 2.760729 1_565
As0 Hf1 2.760729 1_455
As0 Zr0 2.761009 1_565
As0 Zr0 2.761009 1_455
As0 Zr1 2.848207 1_555
As0 Hf0 2.853094 1_556
As1 Hf3 2.686418 1_655
As1 Hf3 2.686418 1_545
As1 Hf0 2.760729 1_545
As1 Hf0 2.760729 1_655
As1 Zr1 2.761009 1_545
As1 Zr1 2.761009 1_655
As1 Zr0 2.848207 1_554
As1 Hf1 2.853094 1_555
N0 Zr0 2.353038 1_544
N0 Zr0 2.353038 1_654
N1 Zr1 2.353038 1_565
N1 Zr1 2.353038 1_455
