# generated using pymatgen
data_Li4B4Ir3Rh
_symmetry_space_group_name_H-M   'P 1'
_cell_length_a   6.95300553
_cell_length_b   6.05337927
_cell_length_c   5.51447819
_cell_angle_alpha   73.72630434
_cell_angle_beta   56.69206060
_cell_angle_gamma   49.66255199
_symmetry_Int_Tables_number   1
_chemical_formula_structural   Li4B4Ir3Rh
_chemical_formula_sum   'Li4 B4 Ir3 Rh1'
_cell_volume   146.82062554
_cell_formula_units_Z   1
loop_
 _symmetry_equiv_pos_site_id
 _symmetry_equiv_pos_as_xyz
  1  'x, y, z'
loop_
 _atom_site_type_symbol
 _atom_site_label
 _atom_site_symmetry_multiplicity
 _atom_site_fract_x
 _atom_site_fract_y
 _atom_site_fract_z
 _atom_site_occupancy
  Li  Li0  1  0.12487159  0.62292986  0.62400892  1
  Li  Li1  1  0.62662539  0.62447341  0.62495655  1
  Li  Li2  1  0.62447341  0.62662539  0.12394465  1
  Li  Li3  1  0.62292986  0.12487159  0.62818963  1
  B  B0  1  0.43008081  0.06787441  0.42463632  1
  B  B1  1  0.17573111  0.82499046  0.17487134  1
  B  B2  1  0.06787441  0.43008081  0.07740746  1
  B  B3  1  0.82499046  0.17573111  0.82440710  1
  Ir  Ir0  1  0.86788810  0.86788810  0.13211190  1
  Ir  Ir1  1  0.13411737  0.13411737  0.86588263  1
  Ir  Ir2  1  0.11738875  0.11738875  0.38261125  1
  Rh  Rh0  1  0.38302877  0.38302877  0.11697123  1
loop_
_geom_bond_atom_site_label_1
_geom_bond_atom_site_label_2
_geom_bond_distance
_geom_bond_site_symmetry_2
Li0 Rh0 2.556915 1_555
Li3 Rh0 2.556915 1_556
B0 Ir0 2.065145 1_545
B0 Ir1 2.072542 1_555
B0 Ir2 2.131031 1_555
B0 Rh0 2.147703 1_555
B0 Li1 2.353677 1_545
B0 Li3 2.376133 1_555
B0 Li2 2.656678 1_545
B0 Li0 2.697919 1_555
B1 Ir2 2.075165 1_565
B1 Rh0 2.078041 1_555
B1 Ir0 2.122482 1_455
B1 Ir1 2.131246 1_564
B1 Li2 2.373237 1_555
B1 Li0 2.378162 1_555
B1 Li1 2.682015 1_554
B1 Li3 2.697372 1_465
B2 Ir0 2.065146 1_455
B2 Ir1 2.072538 1_554
B2 Ir2 2.131034 1_555
B2 Rh0 2.147707 1_555
B2 Li2 2.353674 1_455
B2 Li0 2.376129 1_554
B2 Li1 2.656681 1_455
B2 Li3 2.697917 1_554
B3 Ir2 2.075165 1_655
B3 Rh0 2.078041 1_556
B3 Ir0 2.122482 1_546
B3 Ir1 2.131246 1_655
B3 Li1 2.373237 1_555
B3 Li3 2.378162 1_555
B3 Li2 2.682015 1_556
B3 Li0 2.697372 1_645
Ir0 Li0 2.577254 1_654
Ir0 Li3 2.577254 1_565
Ir1 Li2 2.575498 1_456
Ir1 Li1 2.575498 1_545
Ir2 Li2 2.565725 1_545
Ir2 Li1 2.565725 1_455
