# generated using pymatgen
data_CrGa2IrSe6
_symmetry_space_group_name_H-M   'P 1'
_cell_length_a   3.78920762
_cell_length_b   10.24844406
_cell_length_c   12.55298662
_cell_angle_alpha   88.47781893
_cell_angle_beta   90.00000000
_cell_angle_gamma   90.00000000
_symmetry_Int_Tables_number   1
_chemical_formula_structural   CrGa2IrSe6
_chemical_formula_sum   'Cr2 Ga4 Ir2 Se12'
_cell_volume   487.30416187
_cell_formula_units_Z   2
loop_
 _symmetry_equiv_pos_site_id
 _symmetry_equiv_pos_as_xyz
  1  'x, y, z'
loop_
 _atom_site_type_symbol
 _atom_site_label
 _atom_site_symmetry_multiplicity
 _atom_site_fract_x
 _atom_site_fract_y
 _atom_site_fract_z
 _atom_site_occupancy
  Cr  Cr0  1  0.25000000  0.40042210  0.60913855  1
  Cr  Cr1  1  0.75000000  0.59957790  0.39086145  1
  Ga  Ga0  1  0.75000000  0.25908347  0.79226342  1
  Ga  Ga1  1  0.25000000  0.74091653  0.20773658  1
  Ga  Ga2  1  0.75000000  0.75886659  0.70619561  1
  Ga  Ga3  1  0.25000000  0.24113341  0.29380439  1
  Ir  Ir0  1  0.25000000  0.90643393  0.89346865  1
  Ir  Ir1  1  0.75000000  0.09356607  0.10653135  1
  Se  Se0  1  0.25000000  0.93639416  0.09142169  1
  Se  Se1  1  0.75000000  0.06360584  0.90857831  1
  Se  Se2  1  0.25000000  0.43069375  0.40549232  1
  Se  Se3  1  0.75000000  0.56930625  0.59450768  1
  Se  Se4  1  0.75000000  0.09498577  0.30828606  1
  Se  Se5  1  0.25000000  0.90501423  0.69171394  1
  Se  Se6  1  0.75000000  0.59798568  0.18364185  1
  Se  Se7  1  0.25000000  0.40201432  0.81635815  1
  Se  Se8  1  0.25000000  0.25789399  0.10235290  1
  Se  Se9  1  0.75000000  0.74210601  0.89764710  1
  Se  Se10  1  0.25000000  0.76812821  0.39579132  1
  Se  Se11  1  0.75000000  0.23187179  0.60420868  1
loop_
_geom_bond_atom_site_label_1
_geom_bond_atom_site_label_2
_geom_bond_distance
_geom_bond_site_symmetry_2
Cr0 Se11 2.565710 1_455
Cr0 Se11 2.565710 1_555
Cr0 Se2 2.566930 1_555
Cr0 Se3 2.569442 1_555
Cr0 Se3 2.569442 1_455
Cr0 Se7 2.601710 1_555
Cr1 Se10 2.565710 1_655
Cr1 Se10 2.565710 1_555
Cr1 Se3 2.566930 1_555
Cr1 Se2 2.569442 1_555
Cr1 Se2 2.569442 1_655
Cr1 Se6 2.601710 1_555
Ga0 Se11 2.384410 1_555
Ga0 Se7 2.418727 1_555
Ga0 Se7 2.418727 1_655
Ga0 Se1 2.447420 1_555
Ga1 Se10 2.384410 1_555
Ga1 Se6 2.418727 1_555
Ga1 Se6 2.418727 1_455
Ga1 Se0 2.447420 1_555
Ga2 Se9 2.404863 1_555
Ga2 Se5 2.418981 1_655
Ga2 Se5 2.418981 1_555
Ga2 Se3 2.425785 1_555
Ga3 Se8 2.404863 1_555
Ga3 Se4 2.418981 1_455
Ga3 Se4 2.418981 1_555
Ga3 Se2 2.425785 1_555
Ir0 Se1 2.497259 1_465
Ir0 Se1 2.497259 1_565
Ir0 Se0 2.511882 1_556
Ir0 Se5 2.533052 1_555
Ir0 Se9 2.534520 1_455
Ir0 Se9 2.534520 1_555
Ir1 Se0 2.497259 1_645
Ir1 Se0 2.497259 1_545
Ir1 Se1 2.511882 1_554
Ir1 Se4 2.533052 1_555
Ir1 Se8 2.534520 1_655
Ir1 Se8 2.534520 1_555
