# generated using pymatgen
data_Ho6CoBi2
_symmetry_space_group_name_H-M   'P 1'
_cell_length_a   8.36219089
_cell_length_b   8.36219089
_cell_length_c   4.07608800
_cell_angle_alpha   90.00000000
_cell_angle_beta   90.00000000
_cell_angle_gamma   120.00000705
_symmetry_Int_Tables_number   1
_chemical_formula_structural   Ho6CoBi2
_chemical_formula_sum   'Ho6 Co1 Bi2'
_cell_volume   246.83930054
_cell_formula_units_Z   1
loop_
 _symmetry_equiv_pos_site_id
 _symmetry_equiv_pos_as_xyz
  1  'x, y, z'
loop_
 _atom_site_type_symbol
 _atom_site_label
 _atom_site_symmetry_multiplicity
 _atom_site_fract_x
 _atom_site_fract_y
 _atom_site_fract_z
 _atom_site_occupancy
  Ho  Ho0  1  0.23078300  0.00000000  0.00000000  1
  Ho  Ho1  1  0.00000000  0.60682600  0.50000000  1
  Ho  Ho2  1  0.39317400  0.39317400  0.50000000  1
  Ho  Ho3  1  0.76921700  0.76921700  0.00000000  1
  Ho  Ho4  1  0.00000000  0.23078300  0.00000000  1
  Ho  Ho5  1  0.60682600  0.00000000  0.50000000  1
  Co  Co0  1  0.00000000  0.00000000  0.50000000  1
  Bi  Bi0  1  0.33333300  0.66666700  0.00000000  1
  Bi  Bi1  1  0.66666700  0.33333300  0.00000000  1
loop_
_geom_bond_atom_site_label_1
_geom_bond_atom_site_label_2
_geom_bond_distance
_geom_bond_site_symmetry_2
Ho0 Ho3 3.342601 1_445
Ho0 Ho4 3.342601 1_555
Ho0 Ho1 3.513203 1_545
Ho0 Ho1 3.513203 1_544
Ho0 Ho2 3.513203 1_555
Ho0 Ho2 3.513203 1_554
Ho0 Ho5 3.747236 1_555
Ho0 Ho5 3.747236 1_554
Ho1 Ho3 3.513203 1_456
Ho1 Ho3 3.513203 1_455
Ho1 Ho4 3.747236 1_556
Ho1 Ho4 3.747236 1_555
Ho2 Ho4 3.513203 1_555
Ho2 Ho4 3.513203 1_556
Ho2 Ho3 3.747236 1_555
Ho2 Ho3 3.747236 1_556
Ho3 Ho4 3.342601 1_665
Ho3 Ho5 3.513203 1_564
Ho3 Ho5 3.513203 1_565
Ho4 Ho5 3.513203 1_454
Ho4 Ho5 3.513203 1_455
Co0 Ho3 2.806768 1_446
Co0 Ho3 2.806768 1_445
Co0 Ho0 2.806769 1_555
Co0 Ho4 2.806769 1_555
Co0 Ho0 2.806769 1_556
Co0 Ho4 2.806769 1_556
Co0 Ho2 3.287796 1_555
Co0 Ho1 3.287796 1_545
Co0 Ho5 3.287796 1_455
Bi0 Ho1 3.283104 1_555
Bi0 Ho1 3.283104 1_554
Bi0 Ho5 3.283106 1_565
Bi0 Ho5 3.283106 1_564
Bi0 Ho2 3.283111 1_554
Bi0 Ho2 3.283111 1_555
Bi0 Ho0 3.300796 1_565
Bi0 Ho4 3.300802 1_555
Bi0 Ho3 3.300804 1_555
Bi1 Ho5 3.283104 1_554
Bi1 Ho5 3.283104 1_555
Bi1 Ho1 3.283106 1_654
Bi1 Ho1 3.283106 1_655
Bi1 Ho2 3.283111 1_554
Bi1 Ho2 3.283111 1_555
Bi1 Ho4 3.300796 1_655
Bi1 Ho0 3.300802 1_555
Bi1 Ho3 3.300804 1_555
