# generated using pymatgen
data_Lu12In2Tc2Rh
_symmetry_space_group_name_H-M   'P 1'
_cell_length_a   8.22087111
_cell_length_b   8.22087256
_cell_length_c   8.22087196
_cell_angle_alpha   109.74711002
_cell_angle_beta   109.74711769
_cell_angle_gamma   108.92082918
_symmetry_Int_Tables_number   1
_chemical_formula_structural   Lu12In2Tc2Rh
_chemical_formula_sum   'Lu12 In2 Tc2 Rh1'
_cell_volume   427.66306192
_cell_formula_units_Z   1
loop_
 _symmetry_equiv_pos_site_id
 _symmetry_equiv_pos_as_xyz
  1  'x, y, z'
loop_
 _atom_site_type_symbol
 _atom_site_label
 _atom_site_symmetry_multiplicity
 _atom_site_fract_x
 _atom_site_fract_y
 _atom_site_fract_z
 _atom_site_occupancy
  Lu  Lu0  1  0.31034581  0.31034581  0.62700763  1
  Lu  Lu1  1  0.68333818  0.68333818  0.37299237  1
  Lu  Lu2  1  0.68333818  0.31034581  1.00000000  1
  Lu  Lu3  1  0.31034581  0.68333818  0.00000000  1
  Lu  Lu4  1  0.18651366  0.42833851  0.24182484  1
  Lu  Lu5  1  0.81493919  0.57236330  0.75742310  1
  Lu  Lu6  1  0.18651366  0.94468782  0.75817516  1
  Lu  Lu7  1  0.94468782  0.18651366  0.75817516  1
  Lu  Lu8  1  0.81493919  0.05751709  0.24257690  1
  Lu  Lu9  1  0.05751709  0.81493919  0.24257690  1
  Lu  Lu10  1  0.42833851  0.18651366  0.24182484  1
  Lu  Lu11  1  0.57236330  0.81493919  0.75742310  1
  In  In0  1  0.00043112  0.50043112  0.50000000  1
  In  In1  1  0.50043112  0.00043112  0.50000000  1
  Tc  Tc0  1  0.35243584  0.35243584  1.00000000  1
  Tc  Tc1  1  0.99888960  0.99888960  0.00000000  1
  Rh  Rh0  1  0.65463194  0.65463194  0.00000000  1
loop_
_geom_bond_atom_site_label_1
_geom_bond_atom_site_label_2
_geom_bond_distance
_geom_bond_site_symmetry_2
Lu0 Tc0 2.851355 1_555
Lu0 Rh0 2.915414 1_556
Lu1 Tc0 2.851355 1_554
Lu1 Rh0 2.915414 1_555
Lu2 Tc0 2.851355 1_555
Lu2 Rh0 2.915414 1_556
Lu3 Tc0 2.851355 1_554
Lu3 Rh0 2.915414 1_555
Lu4 Tc0 2.783566 1_554
Lu4 Tc1 2.906722 1_445
Lu5 Rh0 2.759263 1_556
Lu5 Tc1 2.890834 1_556
Lu6 Tc0 2.783573 1_565
Lu6 Tc1 2.906722 1_456
Lu7 Tc0 2.783572 1_655
Lu7 Tc1 2.906722 1_546
Lu8 Rh0 2.759271 1_545
Lu8 Tc1 2.890841 1_545
Lu9 Rh0 2.759270 1_455
Lu9 Tc1 2.890841 1_455
Lu10 Tc0 2.783566 1_554
Lu10 Tc1 2.906721 1_445
Lu11 Rh0 2.759263 1_556
Lu11 Tc1 2.890833 1_556
In0 Lu8 3.012189 1_455
In0 Lu5 3.012196 1_455
In0 Lu6 3.021263 1_555
In0 Lu4 3.021269 1_555
In0 Lu1 3.451110 1_455
In0 Lu0 3.451110 1_555
In0 Lu2 3.451111 1_454
In0 Lu3 3.451111 1_556
In0 Lu9 3.868497 1_555
In0 Lu11 3.868503 1_555
In0 Lu10 3.868600 1_455
In0 Lu7 3.868601 1_455
In1 Lu9 3.012188 1_545
In1 Lu11 3.012196 1_545
In1 Lu7 3.021262 1_555
In1 Lu10 3.021269 1_555
In1 Lu0 3.451111 1_555
In1 Lu1 3.451111 1_545
In1 Lu2 3.451111 1_555
In1 Lu3 3.451111 1_545
In1 Lu8 3.868497 1_555
In1 Lu5 3.868503 1_555
In1 Lu4 3.868600 1_545
In1 Lu6 3.868601 1_545
Rh0 Tc0 2.888093 1_554
