# generated using pymatgen
data_CaY(NiB4)2
_symmetry_space_group_name_H-M   'P 1'
_cell_length_a   6.82264700
_cell_length_b   6.82264819
_cell_length_c   6.82264814
_cell_angle_alpha   112.95753650
_cell_angle_beta   112.95753412
_cell_angle_gamma   102.70331185
_symmetry_Int_Tables_number   1
_chemical_formula_structural   CaY(NiB4)2
_chemical_formula_sum   'Ca2 Y2 Ni4 B16'
_cell_volume   241.95988250
_cell_formula_units_Z   2
loop_
 _symmetry_equiv_pos_site_id
 _symmetry_equiv_pos_as_xyz
  1  'x, y, z'
loop_
 _atom_site_type_symbol
 _atom_site_label
 _atom_site_symmetry_multiplicity
 _atom_site_fract_x
 _atom_site_fract_y
 _atom_site_fract_z
 _atom_site_occupancy
  Ca  Ca0  1  0.79804474  0.79804474  1.00000000  1
  Ca  Ca1  1  0.20195526  0.20195526  0.00000000  1
  Y  Y0  1  0.75000000  0.25000000  0.50000000  1
  Y  Y1  1  0.25000000  0.75000000  0.50000000  1
  Ni  Ni0  1  0.27472242  0.50000000  0.77472242  1
  Ni  Ni1  1  0.72527758  0.50000000  0.22527758  1
  Ni  Ni2  1  0.50000000  0.72527758  0.22527758  1
  Ni  Ni3  1  0.50000000  0.27472242  0.77472242  1
  B  B0  1  0.27804075  0.11295141  0.39099315  1
  B  B1  1  0.72195925  0.88704859  0.60900685  1
  B  B2  1  0.27804075  0.88704859  0.16508934  1
  B  B3  1  0.72195925  0.11295141  0.83491066  1
  B  B4  1  0.11295141  0.72195925  0.83491066  1
  B  B5  1  0.88704859  0.27804075  0.16508934  1
  B  B6  1  0.11295141  0.27804075  0.39099315  1
  B  B7  1  0.88704859  0.72195925  0.60900685  1
  B  B8  1  0.11404430  0.11404430  0.53116821  1
  B  B9  1  0.58287709  0.58287709  0.46883179  1
  B  B10  1  0.11404430  0.58287709  0.00000000  1
  B  B11  1  0.58287709  0.11404430  0.00000000  1
  B  B12  1  0.88595570  0.88595570  0.46883179  1
  B  B13  1  0.41712291  0.41712291  0.53116821  1
  B  B14  1  0.88595570  0.41712291  1.00000000  1
  B  B15  1  0.41712291  0.88595570  1.00000000  1
loop_
_geom_bond_atom_site_label_1
_geom_bond_atom_site_label_2
_geom_bond_distance
_geom_bond_site_symmetry_2
Ca0 Ni0 3.055016 1_555
Ca0 Ni3 3.055017 1_555
Ca0 Ni2 3.055017 1_556
Ca0 Ni1 3.055017 1_556
Ca1 Ni1 3.055016 1_555
Ca1 Ni2 3.055017 1_555
Ca1 Ni3 3.055017 1_554
Ca1 Ni0 3.055017 1_554
Ni0 Ni2 2.400758 1_556
Ni0 Ni3 2.400759 1_555
Ni0 Y0 2.970643 1_455
Ni0 Y1 2.970644 1_555
Ni1 Ni3 2.400758 1_554
Ni1 Ni2 2.400759 1_555
Ni1 Y1 2.970643 1_655
Ni1 Y0 2.970644 1_555
Ni2 Y0 2.970643 1_565
Ni2 Y1 2.970644 1_555
Ni3 Y1 2.970643 1_545
Ni3 Y0 2.970644 1_555
B0 B2 1.702308 1_545
B0 B13 1.731897 1_555
B0 B8 1.731897 1_555
B0 B6 1.759339 1_555
B0 Ni3 2.069679 1_555
B0 Y1 2.839196 1_545
B0 Y0 2.839201 1_555
B0 Ca0 2.841895 1_444
B0 Ca1 2.841901 1_555
B1 B3 1.702308 1_565
B1 B9 1.731897 1_555
B1 B12 1.731897 1_555
B1 B7 1.759339 1_555
B1 Ni2 2.069679 1_555
B1 Y0 2.839196 1_565
B1 Y1 2.839201 1_555
B1 Ca1 2.841895 1_666
B1 Ca0 2.841901 1_555
B2 B4 1.759339 1_554
B2 Ni2 2.069685 1_555
B2 Y0 2.839199 1_565
B2 Y1 2.839200 1_555
B2 Ca0 2.841893 1_454
B2 Ca1 2.841894 1_565
B3 B5 1.759339 1_556
B3 Ni3 2.069685 1_555
B3 Y1 2.839199 1_545
B3 Y0 2.839200 1_555
B3 Ca1 2.841893 1_656
B3 Ca0 2.841894 1_545
B4 B7 1.702308 1_455
B4 Ni0 2.069685 1_555
B4 Y0 2.839199 1_455
B4 Y1 2.839200 1_555
B4 Ca0 2.841894 1_455
B4 Ca1 2.841894 1_566
B5 B6 1.702308 1_655
B5 Ni1 2.069685 1_555
B5 Y1 2.839199 1_655
B5 Y0 2.839200 1_555
B5 Ca1 2.841894 1_655
B5 Ca0 2.841894 1_544
B6 B8 1.731897 1_555
B6 Ni0 2.069679 1_555
B6 Y0 2.839195 1_455
B6 Y1 2.839202 1_555
B6 Ca0 2.841895 1_444
B6 Ca1 2.841900 1_555
B7 B9 1.731897 1_555
B7 Ni1 2.069679 1_555
B7 Y1 2.839195 1_655
B7 Y0 2.839202 1_555
B7 Ca1 2.841895 1_666
B7 Ca0 2.841900 1_555
B8 Ni3 2.189265 1_555
B8 Ni0 2.189265 1_555
B8 Ca1 2.792763 1_556
B8 Y0 2.798163 1_455
B8 Y1 2.798164 1_545
B8 Ca0 2.862725 1_444
B9 Ni1 2.189260 1_555
B9 Ni2 2.189261 1_555
B9 Ca1 2.792766 1_555
B9 Y1 2.798166 1_555
B9 Y0 2.798166 1_555
B9 Ca0 2.862726 1_555
B10 B14 1.710721 1_454
B10 B2 1.731897 1_555
B10 B4 1.731897 1_554
B10 Ni2 2.189266 1_555
B10 Ni0 2.189266 1_554
B10 Ca1 2.792769 1_555
B10 Y0 2.798164 1_454
B10 Y1 2.798164 1_555
B10 Ca0 2.862720 1_454
B11 B15 1.710721 1_544
B11 B5 1.731897 1_555
B11 B3 1.731897 1_554
B11 Ni1 2.189266 1_555
B11 Ni3 2.189266 1_554
B11 Ca1 2.792769 1_555
B11 Y1 2.798164 1_544
B11 Y0 2.798164 1_555
B11 Ca0 2.862720 1_544
B12 B8 1.710715 1_665
B12 B7 1.731897 1_555
B12 Ni2 2.189265 1_555
B12 Ni1 2.189265 1_555
B12 Ca0 2.792763 1_554
B12 Y1 2.798163 1_655
B12 Y0 2.798164 1_565
B12 Ca1 2.862725 1_666
B13 B9 1.710731 1_555
B13 B6 1.731897 1_555
B13 Ni0 2.189260 1_555
B13 Ni3 2.189261 1_555
B13 Ca0 2.792766 1_555
B13 Y0 2.798166 1_555
B13 Y1 2.798166 1_555
B13 Ca1 2.862726 1_555
B14 B3 1.731897 1_555
B14 B5 1.731897 1_556
B14 Ni3 2.189266 1_555
B14 Ni1 2.189266 1_556
B14 Ca0 2.792769 1_555
B14 Y1 2.798164 1_656
B14 Y0 2.798164 1_555
B14 Ca1 2.862720 1_656
B15 B4 1.731897 1_555
B15 B2 1.731897 1_556
B15 Ni0 2.189266 1_555
B15 Ni2 2.189266 1_556
B15 Ca0 2.792769 1_555
B15 Y0 2.798164 1_566
B15 Y1 2.798164 1_555
B15 Ca1 2.862720 1_566
