# generated using pymatgen
data_Na10NbGaP6
_symmetry_space_group_name_H-M   'P 1'
_cell_length_a   7.30482305
_cell_length_b   8.06464383
_cell_length_c   15.34677403
_cell_angle_alpha   59.20524972
_cell_angle_beta   90.00000000
_cell_angle_gamma   90.00000000
_symmetry_Int_Tables_number   1
_chemical_formula_structural   Na10NbGaP6
_chemical_formula_sum   'Na20 Nb2 Ga2 P12'
_cell_volume   776.62004801
_cell_formula_units_Z   2
loop_
 _symmetry_equiv_pos_site_id
 _symmetry_equiv_pos_as_xyz
  1  'x, y, z'
loop_
 _atom_site_type_symbol
 _atom_site_label
 _atom_site_symmetry_multiplicity
 _atom_site_fract_x
 _atom_site_fract_y
 _atom_site_fract_z
 _atom_site_occupancy
  Na  Na0  1  0.73590499  0.94446649  0.24787564  1
  Na  Na1  1  0.26409501  0.94446649  0.74787564  1
  Na  Na2  1  0.77335533  0.05312079  0.76149568  1
  Na  Na3  1  0.22664467  0.05312079  0.26149568  1
  Na  Na4  1  0.25798050  0.23858329  0.42152506  1
  Na  Na5  1  0.74201950  0.23858329  0.92152506  1
  Na  Na6  1  0.21341200  0.74651110  0.58125878  1
  Na  Na7  1  0.78658800  0.74651110  0.08125878  1
  Na  Na8  1  0.08666837  0.34395418  0.58295682  1
  Na  Na9  1  0.91333163  0.34395418  0.08295682  1
  Na  Na10  1  0.40408101  0.65574935  0.41911269  1
  Na  Na11  1  0.59591899  0.65574935  0.91911269  1
  Na  Na12  1  0.59426659  0.33670735  0.24379577  1
  Na  Na13  1  0.40573341  0.33670735  0.74379577  1
  Na  Na14  1  0.90610206  0.66386089  0.75981702  1
  Na  Na15  1  0.09389794  0.66386089  0.25981702  1
  Na  Na16  1  0.77230610  0.42472105  0.40702253  1
  Na  Na17  1  0.22769390  0.42472105  0.90702253  1
  Na  Na18  1  0.74053296  0.58092429  0.58769810  1
  Na  Na19  1  0.25946704  0.58092429  0.08769810  1
  Nb  Nb0  1  0.61441170  0.99152880  0.57764522  1
  Nb  Nb1  1  0.38558830  0.99152880  0.07764522  1
  Ga  Ga0  1  0.88910613  0.01291934  0.41423039  1
  Ga  Ga1  1  0.11089387  0.01291934  0.91423039  1
  P  P0  1  0.97846407  0.31608466  0.27212509  1
  P  P1  1  0.02153593  0.31608466  0.77212509  1
  P  P2  1  0.51921685  0.69636753  0.72433209  1
  P  P3  1  0.48078315  0.69636753  0.22433209  1
  P  P4  1  0.94418931  0.01909309  0.57201727  1
  P  P5  1  0.05581069  0.01909309  0.07201727  1
  P  P6  1  0.54339715  0.98011336  0.42765023  1
  P  P7  1  0.45660285  0.98011336  0.92765023  1
  P  P8  1  0.00284374  0.72740666  0.42127882  1
  P  P9  1  0.99715626  0.72740666  0.92127882  1
  P  P10  1  0.48996956  0.26788779  0.57816179  1
  P  P11  1  0.51003044  0.26788779  0.07816179  1
loop_
_geom_bond_atom_site_label_1
_geom_bond_atom_site_label_2
_geom_bond_distance
_geom_bond_site_symmetry_2
Na0 P3 2.889149 1_555
Na0 P8 3.029610 1_655
Na0 P11 3.058315 1_565
Na0 P6 3.237920 1_555
Na0 P5 3.382868 1_665
Na1 P2 2.889149 1_555
Na1 P9 3.029610 1_455
Na1 P10 3.058315 1_565
Na1 P7 3.237920 1_555
Na1 P4 3.382868 1_465
Na2 P1 2.857430 1_655
Na2 P9 2.998377 1_545
Na2 P10 3.195559 1_555
Na2 P7 3.265782 1_545
Na2 P4 3.302340 1_555
Na3 P0 2.857430 1_455
Na3 P8 2.998377 1_545
Na3 P11 3.195559 1_555
Na3 P6 3.265782 1_545
Na3 P5 3.302340 1_555
Na4 P0 2.889515 1_455
Na4 P6 2.915492 1_545
Na4 P10 3.047612 1_555
Na4 P4 3.087963 1_455
Na5 P1 2.889515 1_655
Na5 P7 2.915492 1_545
Na5 P11 3.047612 1_556
Na5 P5 3.087963 1_656
Na6 P4 2.898432 1_465
Na6 P8 2.967305 1_555
Na6 P2 3.010915 1_555
Na6 P6 3.220168 1_555
Na7 P5 2.898432 1_665
Na7 P9 2.967305 1_554
Na7 P3 3.010915 1_555
Na7 P7 3.220168 1_554
Na8 P1 2.834941 1_555
Na8 P8 2.870168 1_555
Na8 P4 2.902689 1_455
Na8 P10 3.017802 1_555
Na9 P0 2.834941 1_555
Na9 P9 2.870168 1_554
Na9 P5 2.902689 1_655
Na9 P11 3.017802 1_555
Na10 P6 2.871692 1_555
Na10 P10 2.884100 1_555
Na10 P3 2.890372 1_555
Na10 P8 2.990870 1_555
Na11 P7 2.871692 1_555
Na11 P11 2.884100 1_556
Na11 P2 2.890372 1_555
Na11 P9 2.990870 1_555
Na12 P0 2.831793 1_555
Na12 P6 2.839216 1_545
Na12 P3 2.881384 1_555
Na12 P11 2.931333 1_555
Na13 P1 2.831793 1_555
Na13 P7 2.839216 1_545
Na13 P2 2.881384 1_555
Na13 P10 2.931333 1_555
Na14 P1 2.840871 1_655
Na14 P4 2.852524 1_565
Na14 P9 2.854008 1_555
Na14 P2 2.864631 1_555
Na15 P0 2.840871 1_455
Na15 P5 2.852524 1_565
Na15 P8 2.854008 1_555
Na15 P3 2.864631 1_555
Na16 P0 3.029607 1_555
Na16 P10 3.057785 1_555
Na16 P8 3.064218 1_655
Na16 P4 3.194963 1_555
Na16 P3 3.302395 1_555
Na17 P1 3.029607 1_555
Na17 P11 3.057785 1_556
Na17 P9 3.064218 1_455
Na17 P5 3.194963 1_556
Na17 P2 3.302395 1_555
Na18 P8 2.915598 1_655
Na18 P2 3.142659 1_555
Na18 P10 3.181673 1_555
Na18 P6 3.220897 1_555
Na18 P1 3.255208 1_655
Na19 P9 2.915598 1_454
Na19 P3 3.142659 1_555
Na19 P11 3.181673 1_555
Na19 P7 3.220897 1_554
Na19 P0 3.255208 1_455
Nb0 P2 2.393876 1_555
Nb0 P6 2.406967 1_555
Nb0 P10 2.410758 1_565
Nb0 P4 2.416679 1_565
Nb1 P3 2.393876 1_555
Nb1 P7 2.406967 1_554
Nb1 P11 2.410758 1_565
Nb1 P5 2.416679 1_565
Ga0 P0 2.387518 1_555
Ga0 P8 2.397651 1_645
Ga0 P4 2.480240 1_555
Ga0 P6 2.536529 1_545
Ga0 Na0 3.085145 1_545
Ga1 P1 2.387518 1_555
Ga1 P9 2.397651 1_445
Ga1 P5 2.480240 1_556
Ga1 P7 2.536529 1_545
Ga1 Na1 3.085145 1_545
