# generated using pymatgen
data_Y4Si10IrOs5
_symmetry_space_group_name_H-M   'P 1'
_cell_length_a   8.08939502
_cell_length_b   8.08478547
_cell_length_c   5.78596474
_cell_angle_alpha   70.78218639
_cell_angle_beta   70.76782921
_cell_angle_gamma   94.12320968
_symmetry_Int_Tables_number   1
_chemical_formula_structural   Y4Si10IrOs5
_chemical_formula_sum   'Y4 Si10 Ir1 Os5'
_cell_volume   330.40668973
_cell_formula_units_Z   1
loop_
 _symmetry_equiv_pos_site_id
 _symmetry_equiv_pos_as_xyz
  1  'x, y, z'
loop_
 _atom_site_type_symbol
 _atom_site_label
 _atom_site_symmetry_multiplicity
 _atom_site_fract_x
 _atom_site_fract_y
 _atom_site_fract_z
 _atom_site_occupancy
  Y  Y0  1  0.86695446  0.60125284  0.75469406  1
  Y  Y1  1  0.39940404  0.13228515  0.74480440  1
  Y  Y2  1  0.13171732  0.39729283  0.24901525  1
  Y  Y3  1  0.60012720  0.86866891  0.25560200  1
  Si  Si0  1  0.06239422  0.25765825  0.83661376  1
  Si  Si1  1  0.73810816  0.93394726  0.66671801  1
  Si  Si2  1  0.93380039  0.73898791  0.16589294  1
  Si  Si3  1  0.26280575  0.06455048  0.33170268  1
  Si  Si4  1  0.21221761  0.79594637  0.74050608  1
  Si  Si5  1  0.79304936  0.20847680  0.24909241  1
  Si  Si6  1  0.51488239  0.48773571  0.75015741  1
  Si  Si7  1  0.48818928  0.51278417  0.24918112  1
  Si  Si8  1  0.77208801  0.22803989  0.75108829  1
  Si  Si9  1  0.22752516  0.77572860  0.25006429  1
  Ir  Ir0  1  0.25435761  0.53987405  0.63356649  1
  Os  Os0  1  0.45547206  0.74334493  0.87151561  1
  Os  Os1  1  0.74373874  0.45831054  0.36824424  1
  Os  Os2  1  0.54251575  0.25738303  0.13260343  1
  Os  Os3  1  0.00497707  0.99378909  0.74903987  1
  Os  Os4  1  0.99567744  0.00394219  0.24989968  1
loop_
_geom_bond_atom_site_label_1
_geom_bond_atom_site_label_2
_geom_bond_distance
_geom_bond_site_symmetry_2
Si0 Si5 2.534997 1_456
Si0 Si8 2.565137 1_455
Si0 Y1 2.922256 1_555
Si0 Y2 3.045317 1_555
Si0 Y2 3.137904 1_556
Si0 Y0 3.270977 1_455
Si1 Si5 2.565651 1_565
Si1 Si8 2.593401 1_565
Si1 Y0 2.903727 1_555
Si1 Y3 3.059385 1_556
Si1 Y3 3.110225 1_555
Si1 Y1 3.252035 1_565
Si2 Si9 2.593671 1_655
Si2 Si4 2.606768 1_654
Si2 Y3 2.914898 1_555
Si2 Y0 3.056293 1_555
Si2 Y0 3.114164 1_554
Si2 Y2 3.270293 1_655
Si3 Si4 2.516171 1_545
Si3 Si9 2.544835 1_545
Si3 Y2 2.913328 1_555
Si3 Y1 3.044495 1_554
Si3 Y1 3.122270 1_555
Si3 Y3 3.230595 1_545
Si4 Y1 3.027360 1_565
Si4 Y0 3.068674 1_455
Si4 Y3 3.303452 1_555
Si4 Y2 3.414939 1_556
Si5 Y2 3.038613 1_655
Si5 Y3 3.043203 1_545
Si5 Y0 3.353275 1_554
Si5 Y1 3.359143 1_555
Si6 Y0 2.940000 1_555
Si6 Y1 2.970455 1_555
Si6 Y3 3.277441 1_555
Si6 Y2 3.296047 1_556
Si7 Y2 2.966893 1_555
Si7 Y3 2.969474 1_555
Si7 Y0 3.263105 1_554
Si7 Y1 3.274231 1_555
Si8 Y0 3.068020 1_555
Si8 Y1 3.073224 1_555
Si8 Y2 3.165091 1_655
Si8 Y3 3.171441 1_546
Si9 Y3 3.066654 1_555
Si9 Y2 3.104193 1_555
Si9 Y1 3.160284 1_564
Si9 Y0 3.179462 1_455
Ir0 Si0 2.349792 1_555
Ir0 Si4 2.364527 1_555
Ir0 Si6 2.439552 1_555
Ir0 Si7 2.486177 1_555
Ir0 Si9 2.489610 1_555
Ir0 Y0 3.092594 1_455
Ir0 Y2 3.130394 1_556
Ir0 Y2 3.200299 1_555
Ir0 Y3 3.278158 1_555
Os0 Si1 2.347892 1_555
Os0 Si4 2.349126 1_555
Os0 Si6 2.422892 1_555
Os0 Si9 2.460126 1_556
Os0 Si7 2.467804 1_556
Os0 Y1 3.088295 1_565
Os0 Y3 3.130620 1_555
Os0 Y3 3.218632 1_556
Os0 Y2 3.257621 1_556
Os1 Si2 2.333956 1_555
Os1 Si5 2.359154 1_555
Os1 Si7 2.410686 1_555
Os1 Si6 2.466012 1_555
Os1 Si8 2.471128 1_555
Os1 Y2 3.096746 1_655
Os1 Y0 3.119914 1_554
Os1 Y0 3.214404 1_555
Os1 Y1 3.258663 1_555
Os2 Si3 2.338919 1_555
Os2 Si5 2.357473 1_555
Os2 Si7 2.400805 1_555
Os2 Si8 2.466838 1_554
Os2 Si6 2.467318 1_554
Os2 Y3 3.091408 1_545
Os2 Y1 3.111557 1_555
Os2 Y1 3.230266 1_554
Os2 Y0 3.250609 1_554
Os3 Si0 2.397441 1_565
Os3 Si4 2.398842 1_555
Os3 Si1 2.408385 1_455
Os3 Si2 2.456845 1_456
Os3 Si3 2.471686 1_565
Os3 Si8 2.765722 1_465
Os3 Y0 3.273726 1_455
Os3 Y1 3.294151 1_565
Os3 Y2 3.378637 1_565
Os3 Y3 3.404031 1_456
Os4 Si2 2.401441 1_545
Os4 Si3 2.409949 1_655
Os4 Si5 2.410599 1_555
Os4 Si0 2.445092 1_654
Os4 Si1 2.469696 1_545
Os4 Si9 2.723859 1_645
Os4 Y2 3.287367 1_655
Os4 Y3 3.292281 1_545
Os4 Y0 3.385737 1_545
Os4 Y1 3.392951 1_654
