# generated using pymatgen
data_RbInHgPb2
_symmetry_space_group_name_H-M   'P 1'
_cell_length_a   7.32429538
_cell_length_b   7.32429562
_cell_length_c   7.32429506
_cell_angle_alpha   139.00479814
_cell_angle_beta   139.00479968
_cell_angle_gamma   59.36753892
_symmetry_Int_Tables_number   1
_chemical_formula_structural   RbInHgPb2
_chemical_formula_sum   'Rb1 In1 Hg1 Pb2'
_cell_volume   167.42355688
_cell_formula_units_Z   1
loop_
 _symmetry_equiv_pos_site_id
 _symmetry_equiv_pos_as_xyz
  1  'x, y, z'
loop_
 _atom_site_type_symbol
 _atom_site_label
 _atom_site_symmetry_multiplicity
 _atom_site_fract_x
 _atom_site_fract_y
 _atom_site_fract_z
 _atom_site_occupancy
  Rb  Rb0  1  0.99319366  0.99319366  0.00000000  1
  In  In0  1  0.61392653  0.61392653  1.00000000  1
  Hg  Hg0  1  0.39238155  0.39238155  0.00000000  1
  Pb  Pb0  1  0.75024863  0.25024863  0.50000100  1
  Pb  Pb1  1  0.25024863  0.75024863  0.50000100  1
loop_
_geom_bond_atom_site_label_1
_geom_bond_atom_site_label_2
_geom_bond_distance
_geom_bond_site_symmetry_2
In0 Pb1 3.096388 1_555
In0 Pb0 3.096388 1_555
In0 Pb1 3.096392 1_656
In0 Pb0 3.096392 1_566
In0 Rb0 3.939099 1_557
In0 Rb0 3.939099 1_445
In0 Rb0 3.939100 1_456
In0 Rb0 3.939100 1_546
Hg0 In0 2.819444 1_554
Hg0 Pb0 3.138426 1_454
Hg0 Pb1 3.138426 1_544
Hg0 Pb0 3.138430 1_555
Hg0 Pb1 3.138430 1_555
Hg0 Rb0 3.847301 1_444
Hg0 Rb0 3.847301 1_556
Hg0 Rb0 3.847301 1_545
Hg0 Rb0 3.847302 1_455
Pb0 Rb0 4.017094 1_556
Pb0 Rb0 4.017097 1_545
Pb0 Rb0 4.156870 1_546
Pb0 Rb0 4.156873 1_445
Pb1 Rb0 4.017093 1_556
Pb1 Rb0 4.017097 1_455
Pb1 Rb0 4.156870 1_456
Pb1 Rb0 4.156874 1_445
