# generated using pymatgen
data_Ta4BiSb3O16
_symmetry_space_group_name_H-M   'P 1'
_cell_length_a   4.96702010
_cell_length_b   5.58070808
_cell_length_c   11.85605994
_cell_angle_alpha   89.85378473
_cell_angle_beta   90.00000000
_cell_angle_gamma   90.00000000
_symmetry_Int_Tables_number   1
_chemical_formula_structural   Ta4BiSb3O16
_chemical_formula_sum   'Ta4 Bi1 Sb3 O16'
_cell_volume   328.64285524
_cell_formula_units_Z   1
loop_
 _symmetry_equiv_pos_site_id
 _symmetry_equiv_pos_as_xyz
  1  'x, y, z'
loop_
 _atom_site_type_symbol
 _atom_site_label
 _atom_site_symmetry_multiplicity
 _atom_site_fract_x
 _atom_site_fract_y
 _atom_site_fract_z
 _atom_site_occupancy
  Ta  Ta0  1  0.74630080  0.87595250  0.25072177  1
  Ta  Ta1  1  0.74630080  0.62404750  0.74927823  1
  Ta  Ta2  1  0.24954847  0.12215128  0.75166507  1
  Ta  Ta3  1  0.24954847  0.37784872  0.24833493  1
  Bi  Bi0  1  0.73361159  0.25000000  0.00000000  1
  Sb  Sb0  1  0.19631415  0.75000000  0.50000000  1
  Sb  Sb1  1  0.30717636  0.75000000  0.00000000  1
  Sb  Sb2  1  0.80441227  0.25000000  0.50000000  1
  O  O0  1  0.08130567  0.07818206  0.59496881  1
  O  O1  1  0.08130567  0.42181794  0.40503119  1
  O  O2  1  0.41402261  0.07395464  0.90397675  1
  O  O3  1  0.41402261  0.42604536  0.09602325  1
  O  O4  1  0.91845274  0.92314670  0.40464526  1
  O  O5  1  0.91845274  0.57685330  0.59535474  1
  O  O6  1  0.58545637  0.91064304  0.09565677  1
  O  O7  1  0.58545637  0.58935696  0.90434323  1
  O  O8  1  0.50111205  0.14798928  0.30100334  1
  O  O9  1  0.50111205  0.35201072  0.69899666  1
  O  O10  1  0.98432862  0.15655254  0.19354378  1
  O  O11  1  0.98432862  0.34344746  0.80645622  1
  O  O12  1  0.49220641  0.85098929  0.69724690  1
  O  O13  1  0.49220641  0.64901071  0.30275310  1
  O  O14  1  0.00650758  0.84699490  0.80022833  1
  O  O15  1  0.00650758  0.65300510  0.19977167  1
loop_
_geom_bond_atom_site_label_1
_geom_bond_atom_site_label_2
_geom_bond_distance
_geom_bond_site_symmetry_2
Bi0 O3 2.187892 1_555
Bi0 O2 2.187892 1_554
Bi0 O6 2.324534 1_545
Bi0 O7 2.324534 1_554
Bi0 O10 2.661234 1_555
Bi0 O11 2.661234 1_554
O0 Sb2 2.018226 1_455
O0 Ta2 2.052388 1_555
O0 Sb0 2.226876 1_545
O1 Sb2 2.018226 1_455
O1 Ta3 2.052388 1_555
O1 Sb0 2.226876 1_555
O2 Ta2 1.999560 1_555
O2 Sb1 2.199027 1_546
O3 Ta3 1.999560 1_555
O3 Sb1 2.199027 1_555
O4 Sb0 2.027565 1_655
O4 Ta0 2.033062 1_555
O4 Sb2 2.221874 1_565
O5 Sb0 2.027565 1_655
O5 Ta1 2.033062 1_555
O5 Sb2 2.221874 1_555
O6 Sb1 2.001413 1_555
O6 Ta0 2.013422 1_555
O7 Sb1 2.001413 1_556
O7 Ta1 2.013422 1_555
O8 Ta3 1.895432 1_555
O8 Ta0 2.036660 1_545
O9 Ta2 1.895432 1_555
O9 Ta1 2.036660 1_555
O10 Ta3 1.920078 1_655
O10 Ta0 2.074641 1_545
O11 Ta2 1.920078 1_655
O11 Ta1 2.074641 1_555
O12 Ta1 1.890357 1_555
O12 Ta2 2.040580 1_565
O13 Ta0 1.890357 1_555
O13 Ta3 2.040580 1_555
O14 Ta1 1.893993 1_455
O14 Ta2 2.035257 1_565
O15 Ta0 1.893993 1_455
O15 Ta3 2.035257 1_555
