# generated using pymatgen
data_ZnIr4Pb3O14
_symmetry_space_group_name_H-M   'P 1'
_cell_length_a   7.26108320
_cell_length_b   7.16120539
_cell_length_c   7.26108442
_cell_angle_alpha   59.53755562
_cell_angle_beta   60.00000329
_cell_angle_gamma   59.53755710
_symmetry_Int_Tables_number   1
_chemical_formula_structural   ZnIr4Pb3O14
_chemical_formula_sum   'Zn1 Ir4 Pb3 O14'
_cell_volume   265.09574950
_cell_formula_units_Z   1
loop_
 _symmetry_equiv_pos_site_id
 _symmetry_equiv_pos_as_xyz
  1  'x, y, z'
loop_
 _atom_site_type_symbol
 _atom_site_label
 _atom_site_symmetry_multiplicity
 _atom_site_fract_x
 _atom_site_fract_y
 _atom_site_fract_z
 _atom_site_occupancy
  Zn  Zn0  1  0.12500000  0.62500000  0.12500000  1
  Ir  Ir0  1  0.12500000  0.62500000  0.62500000  1
  Ir  Ir1  1  0.62500000  0.12500000  0.62500000  1
  Ir  Ir2  1  0.62500000  0.62500000  0.12500000  1
  Ir  Ir3  1  0.62500000  0.62500000  0.62500000  1
  Pb  Pb0  1  0.62500000  0.12500000  0.12500000  1
  Pb  Pb1  1  0.12500000  0.12500000  0.62500000  1
  Pb  Pb2  1  0.12500000  0.12500000  0.12500000  1
  O  O0  1  0.69212108  0.70825418  0.29981187  1
  O  O1  1  0.29378473  0.28992348  0.70814589  1
  O  O2  1  0.70814589  0.28992348  0.70814589  1
  O  O3  1  0.29981187  0.70825418  0.29981187  1
  O  O4  1  0.29981187  0.70825418  0.69212108  1
  O  O5  1  0.70814589  0.28992348  0.29378473  1
  O  O6  1  0.55787892  0.54174582  0.95018813  1
  O  O7  1  0.95621527  0.96007652  0.54185411  1
  O  O8  1  0.54185411  0.96007652  0.54185411  1
  O  O9  1  0.95018813  0.54174582  0.95018813  1
  O  O10  1  0.95018813  0.54174582  0.55787892  1
  O  O11  1  0.54185411  0.96007652  0.95621527  1
  O  O12  1  0.23304625  0.30086126  0.23304625  1
  O  O13  1  0.01695375  0.94913874  0.01695375  1
loop_
_geom_bond_atom_site_label_1
_geom_bond_atom_site_label_2
_geom_bond_distance
_geom_bond_site_symmetry_2
Ir0 O4 1.970977 1_555
Ir0 O10 1.970977 1_455
Ir0 O9 1.970983 1_455
Ir0 O3 1.970983 1_555
Ir0 O7 1.978269 1_455
Ir0 O1 1.978269 1_555
Ir1 O2 1.983509 1_555
Ir1 O8 1.983509 1_545
Ir1 O7 1.983509 1_545
Ir1 O1 1.983509 1_555
Ir1 O5 1.983509 1_555
Ir1 O11 1.983509 1_545
Ir2 O0 1.970977 1_555
Ir2 O6 1.970977 1_554
Ir2 O9 1.970982 1_554
Ir2 O3 1.970982 1_555
Ir2 O11 1.978269 1_554
Ir2 O5 1.978269 1_555
Ir3 O10 1.970984 1_555
Ir3 O4 1.970984 1_555
Ir3 O6 1.970984 1_555
Ir3 O0 1.970984 1_555
Ir3 O8 1.978269 1_555
Ir3 O2 1.978269 1_555
O0 Pb0 2.461341 1_565
O0 Zn0 2.593007 1_655
O1 Pb1 2.488351 1_555
O1 Pb2 2.488351 1_556
O2 Pb1 2.488351 1_655
O2 Pb0 2.488351 1_556
O3 Pb2 2.461340 1_565
O3 Zn0 2.593001 1_555
O4 Pb1 2.461341 1_565
O4 Zn0 2.593008 1_556
O5 Pb0 2.488351 1_555
O5 Pb2 2.488351 1_655
O6 Pb0 2.461341 1_556
O6 Zn0 2.593007 1_556
O7 Pb1 2.488351 1_665
O7 Pb2 2.488351 1_665
O8 Pb1 2.488351 1_565
O8 Pb0 2.488351 1_565
O9 Pb2 2.461340 1_656
O9 Zn0 2.593001 1_656
O10 Pb1 2.461341 1_655
O10 Zn0 2.593008 1_655
O11 Pb0 2.488351 1_566
O11 Pb2 2.488351 1_566
O12 Zn0 1.881916 1_555
O12 Pb2 2.331548 1_555
O12 Pb0 2.331548 1_555
O12 Pb1 2.331549 1_555
O13 Zn0 1.881916 1_555
O13 Pb2 2.331548 1_565
O13 Pb0 2.331548 1_465
O13 Pb1 2.331549 1_564
