# generated using pymatgen
data_CdBi6(PO5)4
_symmetry_space_group_name_H-M   'P 1'
_cell_length_a   6.87594102
_cell_length_b   7.53661636
_cell_length_c   9.17362700
_cell_angle_alpha   106.61958296
_cell_angle_beta   94.42571234
_cell_angle_gamma   112.10517970
_symmetry_Int_Tables_number   1
_chemical_formula_structural   CdBi6(PO5)4
_chemical_formula_sum   'Cd1 Bi6 P4 O20'
_cell_volume   412.80175778
_cell_formula_units_Z   1
loop_
 _symmetry_equiv_pos_site_id
 _symmetry_equiv_pos_as_xyz
  1  'x, y, z'
loop_
 _atom_site_type_symbol
 _atom_site_label
 _atom_site_symmetry_multiplicity
 _atom_site_fract_x
 _atom_site_fract_y
 _atom_site_fract_z
 _atom_site_occupancy
  Cd  Cd0  1  0.00000000  0.50000000  0.00000000  1
  Bi  Bi0  1  0.81468337  0.80004544  0.32558465  1
  Bi  Bi1  1  0.33842767  0.63629920  0.50977862  1
  Bi  Bi2  1  0.43132064  0.28680282  0.08351570  1
  Bi  Bi3  1  0.56867936  0.71319718  0.91648430  1
  Bi  Bi4  1  0.66157233  0.36370080  0.49022138  1
  Bi  Bi5  1  0.18531663  0.19995456  0.67441535  1
  P  P0  1  0.34050584  0.89106602  0.25155620  1
  P  P1  1  0.65949416  0.10893398  0.74844380  1
  P  P2  1  0.94471956  0.23303202  0.23689500  1
  P  P3  1  0.05528044  0.76696798  0.76310500  1
  O  O0  1  0.44905939  0.47232582  0.63672617  1
  O  O1  1  0.14625976  0.00081694  0.83414086  1
  O  O2  1  0.34785463  0.82023156  0.07871027  1
  O  O3  1  0.23459439  0.69082646  0.75971792  1
  O  O4  1  0.52525116  0.88376795  0.35271902  1
  O  O5  1  0.89699175  0.66776610  0.85631339  1
  O  O6  1  0.47474884  0.11623205  0.64728098  1
  O  O7  1  0.05535856  0.29990079  0.40934155  1
  O  O8  1  0.64674246  0.89151794  0.69146908  1
  O  O9  1  0.85374024  0.99918306  0.16585914  1
  O  O10  1  0.76540561  0.30917354  0.24028208  1
  O  O11  1  0.94464144  0.70009921  0.59065845  1
  O  O12  1  0.55094061  0.52767418  0.36327383  1
  O  O13  1  0.87616880  0.25918709  0.73131852  1
  O  O14  1  0.31588523  0.41118982  0.90326866  1
  O  O15  1  0.65214537  0.17976844  0.92128973  1
  O  O16  1  0.68411477  0.58881018  0.09673134  1
  O  O17  1  0.10300825  0.33223390  0.14368661  1
  O  O18  1  0.35325754  0.10848206  0.30853092  1
  O  O19  1  0.12383120  0.74081291  0.26868148  1
loop_
_geom_bond_atom_site_label_1
_geom_bond_atom_site_label_2
_geom_bond_distance
_geom_bond_site_symmetry_2
Cd0 O17 2.306745 1_555
Cd0 O5 2.306745 1_454
Cd0 O19 2.459312 1_555
Cd0 O13 2.459312 1_454
Cd0 O2 2.541470 1_555
Cd0 O15 2.541470 1_454
Cd0 O14 2.646678 1_554
Cd0 O16 2.646678 1_455
Bi0 O16 2.114132 1_555
Bi0 O12 2.307186 1_555
Bi0 O4 2.313519 1_555
Bi0 O9 2.342420 1_555
Bi0 O19 2.396338 1_655
Bi1 O0 2.203666 1_555
Bi1 O12 2.277213 1_555
Bi1 O8 2.350296 1_555
Bi1 O7 2.395443 1_555
Bi1 O3 2.422856 1_555
Bi1 O4 2.687798 1_555
Bi2 O16 2.246942 1_555
Bi2 O14 2.342460 1_554
Bi2 O15 2.398914 1_554
Bi2 O17 2.486758 1_555
Bi2 O10 2.536427 1_555
Bi2 O12 2.538471 1_555
Bi2 O1 2.651182 1_554
Bi2 O18 2.751401 1_555
Bi3 O14 2.246942 1_555
Bi3 O16 2.342460 1_556
Bi3 O2 2.398914 1_556
Bi3 O5 2.486758 1_555
Bi3 O3 2.536427 1_555
Bi3 O0 2.538471 1_555
Bi3 O9 2.651182 1_556
Bi3 O8 2.751401 1_555
Bi4 O12 2.203666 1_555
Bi4 O0 2.277213 1_555
Bi4 O18 2.350296 1_555
Bi4 O11 2.395443 1_555
Bi4 O10 2.422856 1_555
Bi4 O6 2.687798 1_555
Bi5 O14 2.114132 1_555
Bi5 O0 2.307186 1_555
Bi5 O6 2.313519 1_555
Bi5 O1 2.342420 1_555
Bi5 O13 2.396338 1_455
O1 P3 1.540287 1_545
O2 P0 1.533038 1_555
O3 P3 1.542287 1_555
O4 P0 1.542001 1_555
O5 P3 1.539991 1_655
O6 P1 1.542001 1_555
O7 P2 1.550800 1_455
O8 P1 1.536460 1_565
O9 P2 1.540287 1_565
O10 P2 1.542287 1_555
O11 P3 1.550800 1_655
O13 P1 1.547511 1_555
O15 P1 1.533038 1_555
O17 P2 1.539991 1_455
O18 P0 1.536460 1_545
O19 P0 1.547511 1_555
