# generated using pymatgen
data_Ca10ZrReN10
_symmetry_space_group_name_H-M   'P 1'
_cell_length_a   6.95494176
_cell_length_b   6.95494164
_cell_length_c   8.89566518
_cell_angle_alpha   79.82582513
_cell_angle_beta   79.82583372
_cell_angle_gamma   59.81346977
_symmetry_Int_Tables_number   1
_chemical_formula_structural   Ca10ZrReN10
_chemical_formula_sum   'Ca10 Zr1 Re1 N10'
_cell_volume   364.13893931
_cell_formula_units_Z   1
loop_
 _symmetry_equiv_pos_site_id
 _symmetry_equiv_pos_as_xyz
  1  'x, y, z'
loop_
 _atom_site_type_symbol
 _atom_site_label
 _atom_site_symmetry_multiplicity
 _atom_site_fract_x
 _atom_site_fract_y
 _atom_site_fract_z
 _atom_site_occupancy
  Ca  Ca0  1  0.87178126  0.34912442  0.84021788  1
  Ca  Ca1  1  0.87067169  0.87067169  0.83499459  1
  Ca  Ca2  1  0.73739330  0.73739330  0.51440383  1
  Ca  Ca3  1  0.75958368  0.24770077  0.50227714  1
  Ca  Ca4  1  0.62849140  0.13959407  0.16290934  1
  Ca  Ca5  1  0.34912442  0.87178126  0.84021788  1
  Ca  Ca6  1  0.24770077  0.75958368  0.50227714  1
  Ca  Ca7  1  0.24486370  0.24486370  0.48559361  1
  Ca  Ca8  1  0.14635782  0.14635782  0.16452222  1
  Ca  Ca9  1  0.13959407  0.62849140  0.16290934  1
  Zr  Zr0  1  0.63054008  0.63054008  0.21277478  1
  Re  Re0  1  0.37017174  0.37017174  0.76822891  1
  N  N0  1  0.92475352  0.46188914  0.32575929  1
  N  N1  1  0.99897134  0.99897134  0.02511404  1
  N  N2  1  0.67851447  0.67851447  0.97832690  1
  N  N3  1  0.52540828  0.52540828  0.69270794  1
  N  N4  1  0.46188914  0.92475352  0.32575929  1
  N  N5  1  0.52701504  0.10189210  0.68447491  1
  N  N6  1  0.45695747  0.45695747  0.30891469  1
  N  N7  1  0.33100102  0.33100102  0.97710653  1
  N  N8  1  0.05960865  0.05960865  0.65184183  1
  N  N9  1  0.10189210  0.52701504  0.68447491  1
loop_
_geom_bond_atom_site_label_1
_geom_bond_atom_site_label_2
_geom_bond_distance
_geom_bond_site_symmetry_2
Ca0 N2 2.424576 1_555
Ca0 N8 2.518433 1_655
Ca0 N1 2.520119 1_546
Ca0 N3 2.570323 1_555
Ca0 N9 2.571728 1_655
Ca1 N2 2.406246 1_555
Ca1 N1 2.513912 1_556
Ca1 N8 2.516282 1_665
Ca1 N5 2.568308 1_565
Ca1 N9 2.568308 1_655
Ca2 N4 2.457258 1_555
Ca2 N0 2.457258 1_555
Ca2 N3 2.719711 1_555
Ca2 N9 2.774719 1_655
Ca2 N5 2.774719 1_565
Ca3 N8 2.335904 1_655
Ca3 N0 2.502330 1_555
Ca3 N3 2.504095 1_555
Ca3 N5 2.532647 1_555
Ca3 N6 2.611692 1_555
Ca4 N6 2.408194 1_555
Ca4 N1 2.423171 1_545
Ca4 N4 2.461146 1_545
Ca4 N7 2.538873 1_554
Ca5 N2 2.424576 1_555
Ca5 N8 2.518433 1_565
Ca5 N1 2.520119 1_456
Ca5 N3 2.570323 1_555
Ca5 N5 2.571728 1_565
Ca6 N8 2.335904 1_565
Ca6 N4 2.502330 1_555
Ca6 N3 2.504095 1_555
Ca6 N9 2.532647 1_555
Ca6 N6 2.611692 1_555
Ca7 N8 2.414613 1_555
Ca7 N0 2.497452 1_455
Ca7 N4 2.497453 1_545
Ca7 N5 2.571439 1_555
Ca7 N9 2.571439 1_555
Ca7 N6 2.715161 1_555
Ca8 N1 2.365228 1_445
Ca8 N4 2.485602 1_545
Ca8 N0 2.485603 1_455
Ca8 N7 2.494683 1_554
Ca9 N6 2.408194 1_555
Ca9 N1 2.423170 1_455
Ca9 N0 2.461146 1_455
Ca9 N7 2.538873 1_554
N0 Zr0 2.114118 1_555
N2 Zr0 2.047569 1_556
N3 Re0 1.855373 1_555
N4 Zr0 2.114118 1_555
N5 Re0 1.839473 1_555
N6 Zr0 2.093447 1_555
N7 Re0 1.821528 1_555
N9 Re0 1.839473 1_555
