# generated using pymatgen
data_K2Cr2SnO6
_symmetry_space_group_name_H-M   'P 1'
_cell_length_a   8.88002734
_cell_length_b   8.88002796
_cell_length_c   7.11784053
_cell_angle_alpha   68.99961286
_cell_angle_beta   68.99961174
_cell_angle_gamma   62.55715778
_symmetry_Int_Tables_number   1
_chemical_formula_structural   K2Cr2SnO6
_chemical_formula_sum   'K6 Cr6 Sn3 O18'
_cell_volume   452.20917206
_cell_formula_units_Z   3
loop_
 _symmetry_equiv_pos_site_id
 _symmetry_equiv_pos_as_xyz
  1  'x, y, z'
loop_
 _atom_site_type_symbol
 _atom_site_label
 _atom_site_symmetry_multiplicity
 _atom_site_fract_x
 _atom_site_fract_y
 _atom_site_fract_z
 _atom_site_occupancy
  K  K0  1  0.00582774  0.33697379  0.67053123  1
  K  K1  1  0.33697379  0.00582774  0.67053123  1
  K  K2  1  0.99417226  0.66302621  0.32946877  1
  K  K3  1  0.66302621  0.99417226  0.32946877  1
  K  K4  1  0.33255830  0.66744170  1.00000000  1
  K  K5  1  0.66744170  0.33255830  0.00000000  1
  Cr  Cr0  1  0.00489625  0.33627766  0.15884455  1
  Cr  Cr1  1  0.66982370  0.66982370  0.15680525  1
  Cr  Cr2  1  0.33627766  0.00489625  0.15884455  1
  Cr  Cr3  1  0.99510375  0.66372234  0.84115545  1
  Cr  Cr4  1  0.66372234  0.99510375  0.84115545  1
  Cr  Cr5  1  0.33017630  0.33017630  0.84319475  1
  Sn  Sn0  1  0.33399275  0.66600725  0.50000000  1
  Sn  Sn1  1  0.00000000  0.00000000  0.50000000  1
  Sn  Sn2  1  0.66600725  0.33399275  0.50000000  1
  O  O0  1  0.51867331  0.51867331  0.28725244  1
  O  O1  1  0.85436170  0.51831569  0.96549622  1
  O  O2  1  0.51831569  0.85436170  0.96549622  1
  O  O3  1  0.48132669  0.48132669  0.71274756  1
  O  O4  1  0.81743712  0.48243112  0.36372635  1
  O  O5  1  0.48243112  0.81743712  0.36372635  1
  O  O6  1  0.14563830  0.48168431  0.03450378  1
  O  O7  1  0.81194012  0.81194012  0.03530715  1
  O  O8  1  0.48168431  0.14563830  0.03450378  1
  O  O9  1  0.18256288  0.51756888  0.63627365  1
  O  O10  1  0.85031416  0.85031416  0.63293048  1
  O  O11  1  0.51756888  0.18256288  0.63627365  1
  O  O12  1  0.18519194  0.85059579  0.28828172  1
  O  O13  1  0.85059579  0.18519194  0.28828172  1
  O  O14  1  0.18805988  0.18805988  0.96469285  1
  O  O15  1  0.14940421  0.81480806  0.71171828  1
  O  O16  1  0.81480806  0.14940421  0.71171828  1
  O  O17  1  0.14968584  0.14968584  0.36706952  1
loop_
_geom_bond_atom_site_label_1
_geom_bond_atom_site_label_2
_geom_bond_distance
_geom_bond_site_symmetry_2
K0 O9 2.619087 1_555
K0 O1 2.685707 1_455
K0 O14 2.687546 1_555
K0 O16 2.763207 1_455
K0 O17 2.775291 1_555
K0 O4 2.800179 1_455
K1 O11 2.619087 1_555
K1 O2 2.685707 1_545
K1 O14 2.687546 1_555
K1 O15 2.763207 1_545
K1 O17 2.775291 1_555
K1 O5 2.800179 1_545
K2 O4 2.619087 1_555
K2 O6 2.685707 1_655
K2 O7 2.687546 1_555
K2 O12 2.763207 1_655
K2 O10 2.775291 1_555
K2 O9 2.800179 1_655
K3 O5 2.619087 1_555
K3 O8 2.685707 1_565
K3 O7 2.687546 1_555
K3 O13 2.763207 1_565
K3 O10 2.775291 1_555
K3 O11 2.800179 1_565
K4 O15 2.659662 1_555
K4 O12 2.659662 1_556
K4 O0 2.670334 1_556
K4 O3 2.670334 1_555
K4 O6 2.734504 1_556
K4 O2 2.734504 1_555
K5 O13 2.659662 1_555
K5 O16 2.659662 1_554
K5 O3 2.670334 1_554
K5 O0 2.670334 1_555
K5 O1 2.734504 1_554
K5 O8 2.734504 1_555
Cr0 O6 1.971817 1_555
Cr0 O14 2.001752 1_554
Cr0 O1 2.006564 1_454
Cr0 O4 2.051192 1_455
Cr0 O17 2.058460 1_555
Cr0 O13 2.104737 1_455
Cr1 O7 1.958737 1_555
Cr1 O1 2.007804 1_554
Cr1 O2 2.007804 1_554
Cr1 O5 2.067149 1_555
Cr1 O4 2.067149 1_555
Cr1 O0 2.083090 1_555
Cr2 O8 1.971817 1_555
Cr2 O14 2.001752 1_554
Cr2 O2 2.006564 1_544
Cr2 O5 2.051192 1_545
Cr2 O17 2.058460 1_555
Cr2 O12 2.104737 1_545
Cr3 O1 1.971817 1_555
Cr3 O7 2.001752 1_556
Cr3 O6 2.006564 1_656
Cr3 O9 2.051192 1_655
Cr3 O10 2.058460 1_555
Cr3 O15 2.104737 1_655
Cr4 O2 1.971817 1_555
Cr4 O7 2.001752 1_556
Cr4 O8 2.006564 1_566
Cr4 O11 2.051192 1_565
Cr4 O10 2.058460 1_555
Cr4 O16 2.104737 1_565
Cr5 O14 1.958737 1_555
Cr5 O6 2.007804 1_556
Cr5 O8 2.007804 1_556
Cr5 O11 2.067149 1_555
Cr5 O9 2.067149 1_555
Cr5 O3 2.083090 1_555
O0 Sn0 2.087273 1_555
O0 Sn2 2.087273 1_555
O3 Sn2 2.087273 1_555
O3 Sn0 2.087273 1_555
O4 Sn2 2.066165 1_555
O5 Sn0 2.066165 1_555
O9 Sn0 2.066165 1_555
O10 Sn1 2.062649 1_665
O11 Sn2 2.066165 1_555
O12 Sn0 2.089054 1_555
O12 Sn1 2.093152 1_565
O13 Sn2 2.089054 1_555
O13 Sn1 2.093152 1_655
O15 Sn0 2.089054 1_555
O15 Sn1 2.093152 1_565
O16 Sn2 2.089054 1_555
O16 Sn1 2.093152 1_655
O17 Sn1 2.062649 1_555
