# generated using pymatgen
data_Zn22IrPd2Au
_symmetry_space_group_name_H-M   'P 1'
_cell_length_a   7.83152553
_cell_length_b   7.83152505
_cell_length_c   7.83263516
_cell_angle_alpha   109.41100532
_cell_angle_beta   109.41101558
_cell_angle_gamma   109.43799827
_symmetry_Int_Tables_number   1
_chemical_formula_structural   Zn22IrPd2Au
_chemical_formula_sum   'Zn22 Ir1 Pd2 Au1'
_cell_volume   370.50959481
_cell_formula_units_Z   1
loop_
 _symmetry_equiv_pos_site_id
 _symmetry_equiv_pos_as_xyz
  1  'x, y, z'
loop_
 _atom_site_type_symbol
 _atom_site_label
 _atom_site_symmetry_multiplicity
 _atom_site_fract_x
 _atom_site_fract_y
 _atom_site_fract_z
 _atom_site_occupancy
  Zn  Zn0  1  0.72420985  0.37586966  0.72847981  1
  Zn  Zn1  1  0.62279926  0.34962449  0.35465077  1
  Zn  Zn2  1  0.35427720  0.35427720  0.62378595  1
  Zn  Zn3  1  0.65311601  0.28197157  0.00687782  1
  Zn  Zn4  1  0.22140400  0.22140400  0.21716521  1
  Zn  Zn5  1  0.99759735  0.99759735  0.78108908  1
  Zn  Zn6  1  0.77724820  0.99803523  0.99296581  1
  Zn  Zn7  1  0.99803523  0.77724820  0.99296581  1
  Zn  Zn8  1  0.34768952  0.34768952  0.98391375  1
  Zn  Zn9  1  0.00230933  0.64591710  0.64067505  1
  Zn  Zn10  1  0.98620671  0.35102426  0.34755841  1
  Zn  Zn11  1  0.35102426  0.98620671  0.34755841  1
  Zn  Zn12  1  0.64591710  0.00230933  0.64067505  1
  Zn  Zn13  1  0.64147888  0.64147888  0.99897464  1
  Zn  Zn14  1  0.34962449  0.62279926  0.35465077  1
  Zn  Zn15  1  0.28938442  0.00317073  0.65585405  1
  Zn  Zn16  1  0.64934916  0.00329147  0.27784752  1
  Zn  Zn17  1  0.28197157  0.65311601  0.00687782  1
  Zn  Zn18  1  0.71565319  0.71565319  0.36980223  1
  Zn  Zn19  1  0.37586966  0.72420985  0.72847981  1
  Zn  Zn20  1  0.00329147  0.64934916  0.27784752  1
  Zn  Zn21  1  0.00317073  0.28938442  0.65585405  1
  Ir  Ir0  1  0.65538078  0.65538078  0.65571502  1
  Pd  Pd0  1  0.00216368  0.34873300  0.00224267  1
  Pd  Pd1  1  0.34873300  0.00216368  0.00224267  1
  Au  Au0  1  0.00209593  0.00209593  0.35525029  1
loop_
_geom_bond_atom_site_label_1
_geom_bond_atom_site_label_2
_geom_bond_distance
_geom_bond_site_symmetry_2
Zn0 Zn12 2.568309 1_555
Zn0 Zn7 2.646414 1_555
Zn0 Zn2 2.664036 1_555
Zn0 Zn21 2.666462 1_655
Zn0 Zn1 2.681826 1_555
Zn0 Zn3 2.684410 1_556
Zn0 Zn13 2.848794 1_555
Zn0 Zn9 2.930163 1_655
Zn0 Zn11 2.995357 1_545
Zn1 Zn9 2.601082 1_655
Zn1 Zn4 2.641972 1_555
Zn1 Zn18 2.662551 1_555
Zn1 Zn16 2.671281 1_555
Zn1 Zn3 2.703971 1_555
Zn1 Zn10 2.861442 1_555
Zn1 Zn11 2.901391 1_545
Zn1 Zn8 2.977419 1_554
Zn2 Zn4 2.680079 1_555
Zn2 Zn21 2.737891 1_555
Zn2 Zn8 2.855458 1_555
Zn3 Zn8 2.571695 1_554
Zn3 Zn6 2.692529 1_544
Zn4 Zn8 2.654263 1_554
Zn4 Zn5 2.794181 1_444
Zn4 Zn6 2.844535 1_444
Zn4 Zn7 2.844535 1_444
Zn5 Zn8 2.600898 1_665
Zn5 Zn9 2.622548 1_655
Zn5 Zn7 2.763290 1_555
Zn5 Zn6 2.763290 1_555
Zn6 Zn7 2.823028 1_555
Zn7 Zn9 2.621252 1_655
Zn10 Zn20 2.542233 1_655
Zn10 Zn21 2.585739 1_655
Zn10 Zn9 2.590358 1_655
Zn10 Zn6 2.626520 1_544
Zn10 Zn4 2.696695 1_655
Zn10 Zn3 2.773607 1_555
Zn10 Zn16 2.818954 1_555
Zn10 Zn14 2.901391 1_655
Zn10 Zn2 2.959722 1_655
Zn10 Zn19 2.995357 1_655
Zn11 Zn16 2.542234 1_565
Zn11 Zn15 2.585739 1_565
Zn11 Zn12 2.590358 1_565
Zn11 Zn7 2.626520 1_454
Zn11 Zn4 2.696695 1_565
Zn11 Zn17 2.773607 1_555
Zn11 Zn20 2.818954 1_555
Zn11 Zn14 2.861441 1_555
Zn11 Zn2 2.959722 1_565
Zn12 Zn14 2.601082 1_545
Zn12 Zn6 2.621251 1_545
Zn12 Zn5 2.622547 1_545
Zn12 Zn15 2.836052 1_555
Zn12 Zn16 2.853474 1_555
Zn12 Zn18 2.873987 1_545
Zn12 Zn21 2.882924 1_655
Zn12 Zn19 2.930163 1_545
Zn12 Zn3 2.943140 1_556
Zn13 Zn2 2.569052 1_555
Zn13 Zn18 2.577550 1_556
Zn13 Zn8 2.591765 1_555
Zn13 Zn6 2.659820 1_555
Zn13 Zn7 2.659820 1_555
Zn13 Zn19 2.848794 1_555
Zn13 Zn3 2.867403 1_556
Zn13 Zn17 2.867404 1_556
Zn13 Zn20 2.912781 1_656
Zn13 Zn16 2.912781 1_566
Zn14 Zn4 2.641972 1_555
Zn14 Zn18 2.662551 1_555
Zn14 Zn20 2.671281 1_555
Zn14 Zn19 2.681826 1_555
Zn14 Zn17 2.703971 1_555
Zn14 Zn8 2.977420 1_554
Zn15 Zn3 2.665611 1_556
Zn15 Zn19 2.666461 1_545
Zn15 Zn20 2.733084 1_545
Zn15 Zn2 2.737891 1_555
Zn15 Zn5 2.763685 1_445
Zn15 Zn8 2.807644 1_555
Zn15 Zn9 2.882924 1_545
Zn16 Zn17 2.669096 1_545
Zn16 Zn6 2.726905 1_544
Zn16 Zn21 2.733084 1_655
Zn16 Zn18 2.733344 1_545
Zn17 Zn8 2.571695 1_554
Zn17 Zn21 2.665611 1_554
Zn17 Zn19 2.684410 1_554
Zn17 Zn7 2.692529 1_454
Zn17 Zn9 2.943140 1_554
Zn18 Zn5 2.725397 1_555
Zn18 Zn20 2.733345 1_655
Zn18 Zn9 2.873986 1_655
Zn18 Zn8 2.939087 1_554
Zn19 Zn9 2.568309 1_555
Zn19 Zn6 2.646414 1_555
Zn19 Zn2 2.664036 1_555
Zn20 Zn3 2.669096 1_455
Zn20 Zn7 2.726904 1_454
Zn20 Zn9 2.853474 1_555
Zn21 Zn5 2.763685 1_445
Zn21 Zn8 2.807644 1_555
Zn21 Zn9 2.836052 1_555
Ir0 Zn2 2.588210 1_555
Ir0 Zn18 2.591853 1_555
Ir0 Zn14 2.607652 1_555
Ir0 Zn1 2.607652 1_555
Ir0 Zn0 2.611035 1_555
Ir0 Zn19 2.611035 1_555
Ir0 Zn7 2.645344 1_555
Ir0 Zn6 2.645344 1_555
Ir0 Zn5 2.655291 1_555
Ir0 Zn13 2.762909 1_555
Ir0 Zn12 2.782502 1_565
Ir0 Zn9 2.782502 1_655
Pd0 Zn21 2.599167 1_554
Pd0 Zn20 2.607332 1_555
Pd0 Zn14 2.610142 1_555
Pd0 Zn3 2.621916 1_455
Pd0 Zn0 2.624854 1_454
Pd0 Zn17 2.626503 1_555
Pd0 Zn4 2.666537 1_555
Pd0 Zn6 2.685808 1_444
Pd0 Zn5 2.700207 1_444
Pd0 Zn10 2.743249 1_455
Pd0 Zn8 2.759572 1_554
Pd0 Zn12 2.787117 1_454
Pd1 Zn15 2.599167 1_554
Pd1 Zn16 2.607332 1_555
Pd1 Zn1 2.610142 1_555
Pd1 Zn17 2.621916 1_545
Pd1 Zn19 2.624854 1_544
Pd1 Zn3 2.626503 1_555
Pd1 Zn4 2.666537 1_555
Pd1 Zn7 2.685808 1_444
Pd1 Zn5 2.700207 1_444
Pd1 Zn11 2.743249 1_545
Pd1 Zn8 2.759572 1_554
Pd1 Zn9 2.787117 1_544
Au0 Zn2 2.619788 1_555
Au0 Zn20 2.628127 1_545
Au0 Zn16 2.628127 1_455
Au0 Zn15 2.656878 1_555
Au0 Zn21 2.656878 1_555
Au0 Zn18 2.658601 1_445
Au0 Zn4 2.752386 1_555
Au0 Zn6 2.781266 1_444
Au0 Zn7 2.781266 1_444
Au0 Zn10 2.795927 1_455
Au0 Zn11 2.795928 1_545
Au0 Zn13 2.820252 1_444
