# generated using pymatgen
data_Li2CeGe
_symmetry_space_group_name_H-M   'P 1'
_cell_length_a   4.78705951
_cell_length_b   4.78705951
_cell_length_c   7.43191400
_cell_angle_alpha   90.00000000
_cell_angle_beta   90.00000000
_cell_angle_gamma   119.99999318
_symmetry_Int_Tables_number   1
_chemical_formula_structural   Li2CeGe
_chemical_formula_sum   'Li4 Ce2 Ge2'
_cell_volume   147.49217814
_cell_formula_units_Z   2
loop_
 _symmetry_equiv_pos_site_id
 _symmetry_equiv_pos_as_xyz
  1  'x, y, z'
loop_
 _atom_site_type_symbol
 _atom_site_label
 _atom_site_symmetry_multiplicity
 _atom_site_fract_x
 _atom_site_fract_y
 _atom_site_fract_z
 _atom_site_occupancy
  Li  Li0  1  0.66666700  0.33333300  0.89477800  1
  Li  Li1  1  0.33333300  0.66666700  0.39477800  1
  Li  Li2  1  0.33333300  0.66666700  0.10522200  1
  Li  Li3  1  0.66666700  0.33333300  0.60522200  1
  Ce  Ce0  1  0.00000000  0.00000000  0.50000000  1
  Ce  Ce1  1  0.00000000  0.00000000  0.00000000  1
  Ge  Ge0  1  0.66666700  0.33333300  0.25000000  1
  Ge  Ge1  1  0.33333300  0.66666700  0.75000000  1
loop_
_geom_bond_atom_site_label_1
_geom_bond_atom_site_label_2
_geom_bond_distance
_geom_bond_site_symmetry_2
Li0 Li3 2.151955 1_555
Li1 Li2 2.151955 1_555
Ce0 Li3 2.872308 1_455
Ce0 Li1 2.872308 1_545
Ce0 Li3 2.872313 1_555
Ce0 Li3 2.872313 1_445
Ce0 Li1 2.872313 1_445
Ce0 Li1 2.872313 1_555
Ce0 Ge1 3.330272 1_545
Ce0 Ge0 3.330272 1_455
Ce0 Ge1 3.330276 1_445
Ce0 Ge0 3.330276 1_445
Ce0 Ge1 3.330276 1_555
Ce0 Ge0 3.330276 1_555
Ce1 Li0 2.872308 1_454
Ce1 Li2 2.872308 1_545
Ce1 Li0 2.872313 1_444
Ce1 Li0 2.872313 1_554
Ce1 Li2 2.872313 1_555
Ce1 Li2 2.872313 1_445
Ce1 Ge1 3.330272 1_544
Ce1 Ge0 3.330272 1_455
Ce1 Ge0 3.330276 1_555
Ce1 Ge0 3.330276 1_445
Ce1 Ge1 3.330276 1_554
Ce1 Ge1 3.330276 1_444
Ge0 Li3 2.639979 1_555
Ge0 Li0 2.639979 1_554
Ge0 Li1 2.965866 1_545
Ge0 Li1 2.965866 1_655
Ge0 Li2 2.965866 1_545
Ge0 Li2 2.965866 1_655
Ge0 Li1 2.965873 1_555
Ge0 Li2 2.965873 1_555
Ge1 Li2 2.639979 1_556
Ge1 Li1 2.639979 1_555
Ge1 Li0 2.965866 1_565
Ge1 Li0 2.965866 1_455
Ge1 Li3 2.965866 1_455
Ge1 Li3 2.965866 1_565
Ge1 Li0 2.965873 1_555
Ge1 Li3 2.965873 1_555
