# generated using pymatgen
data_BaNaBi
_symmetry_space_group_name_H-M   'P 1'
_cell_length_a   8.69672842
_cell_length_b   8.69672842
_cell_length_c   5.16072533
_cell_angle_alpha   90.00000000
_cell_angle_beta   90.00000000
_cell_angle_gamma   119.99999574
_symmetry_Int_Tables_number   1
_chemical_formula_structural   BaNaBi
_chemical_formula_sum   'Ba3 Na3 Bi3'
_cell_volume   338.02841726
_cell_formula_units_Z   3
loop_
 _symmetry_equiv_pos_site_id
 _symmetry_equiv_pos_as_xyz
  1  'x, y, z'
loop_
 _atom_site_type_symbol
 _atom_site_label
 _atom_site_symmetry_multiplicity
 _atom_site_fract_x
 _atom_site_fract_y
 _atom_site_fract_z
 _atom_site_occupancy
  Ba  Ba0  1  0.41778571  -0.00000000  0.00000000  1
  Ba  Ba1  1  0.58221429  0.58221429  0.00000000  1
  Ba  Ba2  1  -0.00000000  0.41778571  0.00000000  1
  Na  Na0  1  0.75985143  0.00000000  0.50000000  1
  Na  Na1  1  0.00000000  0.75985143  0.50000000  1
  Na  Na2  1  0.24014857  0.24014857  0.50000000  1
  Bi  Bi0  1  -0.00000000  0.00000000  0.00000000  1
  Bi  Bi1  1  0.33333300  0.66666700  0.50000000  1
  Bi  Bi2  1  0.66666700  0.33333300  0.50000000  1
loop_
_geom_bond_atom_site_label_1
_geom_bond_atom_site_label_2
_geom_bond_distance
_geom_bond_site_symmetry_2
Ba0 Bi0 3.633369 1_555
Ba0 Bi1 3.670453 1_544
Ba0 Bi1 3.670453 1_545
Ba0 Bi2 3.670455 1_555
Ba0 Bi2 3.670455 1_554
Ba1 Bi0 3.633369 1_665
Ba1 Bi1 3.670459 1_555
Ba1 Bi1 3.670459 1_554
Ba1 Bi2 3.670459 1_555
Ba1 Bi2 3.670459 1_554
Ba2 Bi0 3.633369 1_555
Ba2 Bi2 3.670453 1_455
Ba2 Bi2 3.670453 1_454
Ba2 Bi1 3.670455 1_555
Ba2 Bi1 3.670455 1_554
Bi0 Na0 3.319658 1_455
Bi0 Na0 3.319658 1_454
Bi0 Na1 3.319658 1_544
Bi0 Na1 3.319658 1_545
Bi0 Na2 3.319659 1_555
Bi0 Na2 3.319659 1_554
Bi1 Na1 3.377822 1_555
Bi1 Na0 3.377828 1_565
Bi1 Na2 3.377830 1_555
Bi2 Na0 3.377822 1_555
Bi2 Na1 3.377828 1_655
Bi2 Na2 3.377830 1_555
