# generated using pymatgen
data_KH9PbW
_symmetry_space_group_name_H-M   'P 1'
_cell_length_a   9.04926537
_cell_length_b   9.04926323
_cell_length_c   5.54216974
_cell_angle_alpha   90.00000000
_cell_angle_beta   90.00000000
_cell_angle_gamma   120.00000426
_symmetry_Int_Tables_number   1
_chemical_formula_structural   KH9PbW
_chemical_formula_sum   'K3 H27 Pb3 W3'
_cell_volume   393.04020780
_cell_formula_units_Z   3
loop_
 _symmetry_equiv_pos_site_id
 _symmetry_equiv_pos_as_xyz
  1  'x, y, z'
loop_
 _atom_site_type_symbol
 _atom_site_label
 _atom_site_symmetry_multiplicity
 _atom_site_fract_x
 _atom_site_fract_y
 _atom_site_fract_z
 _atom_site_occupancy
  K  K0  1  1.00000000  0.59729329  0.00000000  1
  K  K1  1  0.40270671  0.40270671  0.00000000  1
  K  K2  1  0.59729329  0.00000000  0.00000000  1
  H  H0  1  0.79388534  0.31701267  0.73146905  1
  H  H1  1  0.68298733  0.47687267  0.73146905  1
  H  H2  1  0.52312733  0.20611466  0.73146905  1
  H  H3  1  0.20611466  0.52312733  0.26853095  1
  H  H4  1  0.52312733  0.20611466  0.26853095  1
  H  H5  1  0.79388534  0.31701267  0.26853095  1
  H  H6  1  0.68298733  0.47687267  0.26853095  1
  H  H7  1  0.31701267  0.79388534  0.73146905  1
  H  H8  1  0.47687267  0.68298733  0.73146905  1
  H  H9  1  0.19335956  1.00000000  0.00000000  1
  H  H10  1  0.80664044  0.80664044  0.00000000  1
  H  H11  1  0.00000000  0.19335956  0.00000000  1
  H  H12  1  0.86180076  0.00000000  0.22715269  1
  H  H13  1  0.13819924  0.13819924  0.77284731  1
  H  H14  1  1.00000000  0.86180076  0.77284731  1
  H  H15  1  1.00000000  0.86180076  0.22715269  1
  H  H16  1  0.13819924  0.13819924  0.22715269  1
  H  H17  1  0.86180076  0.00000000  0.77284731  1
  H  H18  1  0.13268089  0.64497238  0.50000000  1
  H  H19  1  0.51229048  0.86731911  0.50000000  1
  H  H20  1  0.35502762  0.48770952  0.50000000  1
  H  H21  1  0.48770952  0.35502762  0.50000000  1
  H  H22  1  0.86731911  0.51229048  0.50000000  1
  H  H23  1  0.64497238  0.13268089  0.50000000  1
  H  H24  1  0.20611466  0.52312733  0.73146905  1
  H  H25  1  0.31701267  0.79388534  0.26853095  1
  H  H26  1  0.47687267  0.68298733  0.26853095  1
  Pb  Pb0  1  0.00000000  0.27396915  0.50000000  1
  Pb  Pb1  1  0.72603085  0.72603085  0.50000000  1
  Pb  Pb2  1  0.27396915  1.00000000  0.50000000  1
  W  W0  1  0.66666700  0.33333300  0.50000000  1
  W  W1  1  0.33333300  0.66666700  0.50000000  1
  W  W2  1  0.00000000  0.00000000  0.00000000  1
loop_
_geom_bond_atom_site_label_1
_geom_bond_atom_site_label_2
_geom_bond_distance
_geom_bond_site_symmetry_2
H0 W0 1.778440 1_555
H0 Pb0 2.450068 1_655
H0 K0 2.719566 1_556
H0 K2 2.916482 1_556
H1 W0 1.778446 1_555
H1 Pb1 2.450067 1_555
H1 K1 2.719567 1_556
H1 K0 2.916482 1_556
H2 W0 1.778444 1_555
H2 Pb2 2.450068 1_545
H2 K2 2.719567 1_556
H2 K1 2.916482 1_556
H3 W1 1.778444 1_555
H3 Pb0 2.450068 1_555
H3 K0 2.719567 1_455
H3 K1 2.916482 1_555
H4 W0 1.778444 1_555
H4 Pb2 2.450068 1_545
H4 K2 2.719567 1_555
H4 K1 2.916482 1_555
H5 W0 1.778440 1_555
H5 Pb0 2.450068 1_655
H5 K0 2.719566 1_555
H5 K2 2.916482 1_555
H6 W0 1.778446 1_555
H6 Pb1 2.450067 1_555
H6 K1 2.719567 1_555
H6 K0 2.916482 1_555
H7 W1 1.778440 1_555
H7 Pb2 2.450068 1_555
H7 K2 2.719567 1_566
H7 K0 2.916482 1_456
H8 W1 1.778447 1_555
H8 Pb1 2.450068 1_555
H8 K1 2.719566 1_556
H8 K2 2.916482 1_566
H9 W2 1.749762 1_565
H10 W2 1.749762 1_665
H11 W2 1.749762 1_555
H12 W2 1.774509 1_655
H12 K2 2.704476 1_555
H13 W2 1.774508 1_556
H13 K1 2.704475 1_556
H14 W2 1.774508 1_666
H14 K0 2.704475 1_556
H15 W2 1.774508 1_665
H15 K0 2.704475 1_555
H16 W2 1.774508 1_555
H16 K1 2.704475 1_555
H17 W2 1.774509 1_656
H17 K2 2.704476 1_556
H18 W1 1.725988 1_555
H18 K0 2.964562 1_455
H18 K0 2.964562 1_456
H19 W1 1.725988 1_555
H19 K2 2.964562 1_565
H19 K2 2.964562 1_566
H20 W1 1.725988 1_555
H20 K1 2.964565 1_555
H20 K1 2.964565 1_556
H21 W0 1.725988 1_555
H21 K1 2.964565 1_555
H21 K1 2.964565 1_556
H22 W0 1.725988 1_555
H22 K0 2.964562 1_556
H22 K0 2.964562 1_555
H23 W0 1.725988 1_555
H23 K2 2.964562 1_555
H23 K2 2.964562 1_556
H24 W1 1.778444 1_555
H24 Pb0 2.450068 1_555
H24 K0 2.719567 1_456
H24 K1 2.916482 1_556
H25 W1 1.778440 1_555
H25 Pb2 2.450068 1_555
H25 K2 2.719567 1_565
H25 K0 2.916482 1_455
H26 W1 1.778447 1_555
H26 Pb1 2.450068 1_555
H26 K1 2.719566 1_555
H26 K2 2.916482 1_565
