# generated using pymatgen
data_YZn3P6N13
_symmetry_space_group_name_H-M   'P 1'
_cell_length_a   7.01851776
_cell_length_b   7.11655122
_cell_length_c   7.01851810
_cell_angle_alpha   109.75441306
_cell_angle_beta   109.18653463
_cell_angle_gamma   109.75442166
_symmetry_Int_Tables_number   1
_chemical_formula_structural   YZn3P6N13
_chemical_formula_sum   'Y1 Zn3 P6 N13'
_cell_volume   268.91111413
_cell_formula_units_Z   1
loop_
 _symmetry_equiv_pos_site_id
 _symmetry_equiv_pos_as_xyz
  1  'x, y, z'
loop_
 _atom_site_type_symbol
 _atom_site_label
 _atom_site_symmetry_multiplicity
 _atom_site_fract_x
 _atom_site_fract_y
 _atom_site_fract_z
 _atom_site_occupancy
  Y  Y0  1  0.00000000  0.72105339  1.00000000  1
  Zn  Zn0  1  0.71261011  0.01545634  0.00000000  1
  Zn  Zn1  1  0.00000000  0.01545634  0.71261011  1
  Zn  Zn2  1  0.28738989  0.30284723  0.28738989  1
  P  P0  1  0.49422510  0.24042191  0.74693498  1
  P  P1  1  0.50577490  0.74619781  0.25270988  1
  P  P2  1  0.74729012  0.49348793  0.25306502  1
  P  P3  1  0.25270988  0.74619781  0.50577490  1
  P  P4  1  0.74693498  0.24042191  0.49422510  1
  P  P5  1  0.25306502  0.49348793  0.74729012  1
  N  N0  1  0.00000000  0.72900033  0.45050989  1
  N  N1  1  0.28342664  0.54548384  0.54825669  1
  N  N2  1  0.72179724  0.44322676  0.00000000  1
  N  N3  1  0.27820276  0.72143053  0.27820276  1
  N  N4  1  0.45174331  0.99722715  0.73517095  1
  N  N5  1  0.71657336  0.26205620  0.26482905  1
  N  N6  1  0.54949011  0.27849044  0.54949011  1
  N  N7  1  0.73517095  0.99722715  0.45174331  1
  N  N8  1  0.26482905  0.26205620  0.71657336  1
  N  N9  1  0.45050989  0.72900033  0.00000000  1
  N  N10  1  0.54825669  0.54548384  0.28342664  1
  N  N11  1  0.00000000  0.44322676  0.72179724  1
  N  N12  1  0.00000000  0.03106191  1.00000000  1
loop_
_geom_bond_atom_site_label_1
_geom_bond_atom_site_label_2
_geom_bond_distance
_geom_bond_site_symmetry_2
N0 P3 1.637145 1_555
N0 P2 1.637145 1_455
N0 Zn1 2.237140 1_565
N1 P5 1.620336 1_555
N1 P3 1.621567 1_555
N1 Zn2 2.064808 1_555
N2 P2 1.622664 1_555
N2 P0 1.622666 1_554
N2 Y0 2.260988 1_654
N3 P1 1.622665 1_555
N3 P3 1.622665 1_555
N3 Y0 2.260985 1_554
N4 P3 1.620339 1_555
N4 P0 1.621563 1_565
N4 Zn0 2.064808 1_566
N5 P4 1.620343 1_555
N5 P2 1.621571 1_555
N5 Zn0 2.064804 1_555
N6 P4 1.637148 1_555
N6 P0 1.637148 1_555
N6 Zn2 2.237145 1_555
N7 P1 1.620339 1_555
N7 P4 1.621563 1_565
N7 Zn1 2.064808 1_665
N8 P0 1.620343 1_555
N8 P5 1.621571 1_555
N8 Zn1 2.064803 1_555
N9 P1 1.637145 1_555
N9 P5 1.637145 1_554
N9 Zn0 2.237140 1_565
N10 P2 1.620336 1_555
N10 P1 1.621567 1_555
N10 Zn2 2.064808 1_555
N11 P5 1.622664 1_555
N11 P4 1.622666 1_455
N11 Y0 2.260989 1_555
N12 Zn0 1.982272 1_456
N12 Zn1 1.982272 1_555
N12 Zn2 1.982275 1_556
N12 Y0 2.206192 1_545
