# generated using pymatgen
data_Rb4Zr6PBr18
_symmetry_space_group_name_H-M   'P 1'
_cell_length_a   10.42242897
_cell_length_b   10.75534181
_cell_length_c   10.81454075
_cell_angle_alpha   117.74817655
_cell_angle_beta   100.50298949
_cell_angle_gamma   104.98302370
_symmetry_Int_Tables_number   1
_chemical_formula_structural   Rb4Zr6PBr18
_chemical_formula_sum   'Rb4 Zr6 P1 Br18'
_cell_volume   969.27311533
_cell_formula_units_Z   1
loop_
 _symmetry_equiv_pos_site_id
 _symmetry_equiv_pos_as_xyz
  1  'x, y, z'
loop_
 _atom_site_type_symbol
 _atom_site_label
 _atom_site_symmetry_multiplicity
 _atom_site_fract_x
 _atom_site_fract_y
 _atom_site_fract_z
 _atom_site_occupancy
  Rb  Rb0  1  0.20401151  0.73022275  0.57189808  1
  Rb  Rb1  1  0.83041295  0.95541774  0.76381311  1
  Rb  Rb2  1  0.16958705  0.04458226  0.23618689  1
  Rb  Rb3  1  0.79598849  0.26977725  0.42810192  1
  Zr  Zr0  1  0.34216317  0.44163155  0.76422982  1
  Zr  Zr1  1  0.35667072  0.62425227  0.13237455  1
  Zr  Zr2  1  0.65289892  0.74544851  0.04690648  1
  Zr  Zr3  1  0.65783683  0.55836845  0.23577018  1
  Zr  Zr4  1  0.34710108  0.25455149  0.95309352  1
  Zr  Zr5  1  0.64332928  0.37574773  0.86762545  1
  P  P0  1  0.50000000  0.50000000  0.00000000  1
  Br  Br0  1  0.82664887  0.42501040  0.11387174  1
  Br  Br1  1  0.51672754  0.70151712  0.40794387  1
  Br  Br2  1  0.17267590  0.97744934  0.89744811  1
  Br  Br3  1  0.17335113  0.57498960  0.88612826  1
  Br  Br4  1  0.83954906  0.83721477  0.31377259  1
  Br  Br5  1  0.50258539  0.29478714  0.21117335  1
  Br  Br6  1  0.79855484  0.23559068  0.71932469  1
  Br  Br7  1  0.16045094  0.16278523  0.68622741  1
  Br  Br8  1  0.50917527  0.90748493  0.19478639  1
  Br  Br9  1  0.82509756  0.63489525  0.90668998  1
  Br  Br10  1  0.20144516  0.76440932  0.28067531  1
  Br  Br11  1  0.16066954  0.37578002  0.49948761  1
  Br  Br12  1  0.49741461  0.70521286  0.78882665  1
  Br  Br13  1  0.82732410  0.02255066  0.10255189  1
  Br  Br14  1  0.48327246  0.29848288  0.59205613  1
  Br  Br15  1  0.17490244  0.36510475  0.09331002  1
  Br  Br16  1  0.83933046  0.62421998  0.50051239  1
  Br  Br17  1  0.49082473  0.09251507  0.80521361  1
loop_
_geom_bond_atom_site_label_1
_geom_bond_atom_site_label_2
_geom_bond_distance
_geom_bond_site_symmetry_2
P0 Zr3 2.459231 1_555
P0 Zr0 2.459231 1_554
P0 Zr2 2.459449 1_555
P0 Zr4 2.459449 1_554
P0 Zr1 2.469270 1_555
P0 Zr5 2.469270 1_554
Br0 Zr3 2.698235 1_555
Br0 Zr5 2.707536 1_554
Br1 Zr3 2.738626 1_555
Br1 Zr1 2.742152 1_555
Br1 Rb1 3.737324 1_555
Br1 Rb0 3.997419 1_555
Br2 Zr4 2.771100 1_565
Br2 Rb2 3.396203 1_566
Br2 Rb0 3.423913 1_555
Br2 Rb1 3.497757 1_455
Br3 Zr0 2.698235 1_555
Br3 Zr1 2.707536 1_556
Br4 Zr2 2.719501 1_555
Br4 Zr3 2.723562 1_555
Br4 Rb2 4.042083 1_665
Br5 Zr4 2.732566 1_554
Br5 Zr3 2.737649 1_555
Br5 Rb3 3.650300 1_555
Br5 Rb2 3.943501 1_555
Br6 Zr5 2.723535 1_555
Br6 Rb3 3.332802 1_555
Br6 Rb1 3.351292 1_545
Br7 Zr4 2.719501 1_555
Br7 Zr0 2.723562 1_555
Br7 Rb1 4.042083 1_445
Br8 Zr1 2.729908 1_555
Br8 Zr2 2.732506 1_555
Br8 Rb3 3.543721 1_565
Br9 Zr2 2.711259 1_556
Br9 Zr5 2.723522 1_555
Br10 Zr1 2.723535 1_555
Br10 Rb0 3.332802 1_555
Br10 Rb2 3.351292 1_565
Br11 Zr0 2.778765 1_555
Br11 Rb0 3.398622 1_555
Br11 Rb2 3.410031 1_555
Br11 Rb3 3.494624 1_455
Br12 Zr2 2.732566 1_556
Br12 Zr0 2.737649 1_555
Br12 Rb0 3.650300 1_555
Br12 Rb1 3.943501 1_555
Br13 Zr2 2.771100 1_545
Br13 Rb1 3.396203 1_544
Br13 Rb3 3.423913 1_555
Br13 Rb2 3.497757 1_655
Br14 Zr0 2.738626 1_555
Br14 Zr5 2.742152 1_555
Br14 Rb2 3.737324 1_555
Br14 Rb3 3.997419 1_555
Br15 Zr4 2.711259 1_554
Br15 Zr1 2.723522 1_555
Br16 Zr3 2.778765 1_555
Br16 Rb3 3.398622 1_555
Br16 Rb1 3.410031 1_555
Br16 Rb0 3.494624 1_655
Br17 Zr5 2.729908 1_555
Br17 Zr4 2.732506 1_555
Br17 Rb0 3.543721 1_545
