# generated using pymatgen
data_LuPS4
_symmetry_space_group_name_H-M   'P 1'
_cell_length_a   6.47738939
_cell_length_b   8.39409187
_cell_length_c   12.48859919
_cell_angle_alpha   58.49614896
_cell_angle_beta   90.00164253
_cell_angle_gamma   90.00094968
_symmetry_Int_Tables_number   1
_chemical_formula_structural   LuPS4
_chemical_formula_sum   'Lu4 P4 S16'
_cell_volume   578.94238835
_cell_formula_units_Z   4
loop_
 _symmetry_equiv_pos_site_id
 _symmetry_equiv_pos_as_xyz
  1  'x, y, z'
loop_
 _atom_site_type_symbol
 _atom_site_label
 _atom_site_symmetry_multiplicity
 _atom_site_fract_x
 _atom_site_fract_y
 _atom_site_fract_z
 _atom_site_occupancy
  Lu  Lu0  1  0.32156695  0.55759507  0.83493343  1
  Lu  Lu1  1  0.82155487  0.44240936  0.66506246  1
  Lu  Lu2  1  0.67842936  0.44238675  0.16506566  1
  Lu  Lu3  1  0.17847382  0.55758825  0.33493910  1
  P  P0  1  0.22974917  0.69080793  0.03707547  1
  P  P1  1  0.72976969  0.30920254  0.46292491  1
  P  P2  1  0.77023883  0.30921405  0.96290947  1
  P  P3  1  0.27024107  0.69078801  0.53708942  1
  S  S0  1  0.22967901  0.41621375  0.58822881  1
  S  S1  1  0.72968068  0.58379403  0.91176537  1
  S  S2  1  0.77030813  0.58376902  0.41178679  1
  S  S3  1  0.27030518  0.41622539  0.08821635  1
  S  S4  1  0.25572567  0.85550219  0.35058098  1
  S  S5  1  0.75567973  0.14448311  0.14942412  1
  S  S6  1  0.74428379  0.14446796  0.64944434  1
  S  S7  1  0.24428990  0.85553936  0.85055223  1
  S  S8  1  0.53805916  0.72306383  0.61241739  1
  S  S9  1  0.03805519  0.27694035  0.88758285  1
  S  S10  1  0.46196124  0.27691117  0.38760527  1
  S  S11  1  0.96195121  0.72307283  0.11240822  1
  S  S12  1  0.05091917  0.74342688  0.63276961  1
  S  S13  1  0.55091102  0.25658188  0.86721615  1
  S  S14  1  0.94908718  0.25658230  0.36723380  1
  S  S15  1  0.44907996  0.74343601  0.13276681  1
loop_
_geom_bond_atom_site_label_1
_geom_bond_atom_site_label_2
_geom_bond_distance
_geom_bond_site_symmetry_2
Lu0 S7 2.655814 1_555
Lu0 S8 2.753954 1_555
Lu0 S3 2.757000 1_556
Lu0 S13 2.772945 1_555
Lu0 S9 2.781328 1_555
Lu0 S12 2.786532 1_555
Lu0 S1 2.859645 1_555
Lu1 S6 2.655760 1_555
Lu1 S9 2.753964 1_655
Lu1 S2 2.756902 1_555
Lu1 S12 2.772971 1_655
Lu1 S8 2.781295 1_555
Lu1 S13 2.786494 1_555
Lu1 S0 2.859766 1_655
Lu2 S5 2.655607 1_555
Lu2 S10 2.754093 1_555
Lu2 S1 2.757139 1_554
Lu2 S15 2.773150 1_555
Lu2 S11 2.781540 1_555
Lu2 S14 2.786587 1_555
Lu2 S3 2.859710 1_555
Lu3 S4 2.655679 1_555
Lu3 S11 2.754132 1_455
Lu3 S0 2.757010 1_555
Lu3 S14 2.772960 1_455
Lu3 S10 2.781343 1_555
Lu3 S15 2.786498 1_555
Lu3 S2 2.860049 1_455
P0 S7 1.995182 1_554
P0 S15 2.047754 1_555
P0 S11 2.057622 1_455
P0 S3 2.061767 1_555
P1 S6 1.995134 1_555
P1 S14 2.047715 1_555
P1 S10 2.057623 1_555
P1 S2 2.061628 1_555
P2 S5 1.995101 1_556
P2 S13 2.047775 1_555
P2 S9 2.057710 1_655
P2 S1 2.061737 1_555
P3 S4 1.995009 1_555
P3 S12 2.047722 1_555
P3 S8 2.057682 1_555
P3 S0 2.061705 1_555
