# generated using pymatgen
data_LuSbI6
_symmetry_space_group_name_H-M   'P 1'
_cell_length_a   8.37963206
_cell_length_b   8.37963183
_cell_length_c   8.37963281
_cell_angle_alpha   53.42226583
_cell_angle_beta   53.42226774
_cell_angle_gamma   53.42226914
_symmetry_Int_Tables_number   1
_chemical_formula_structural   LuSbI6
_chemical_formula_sum   'Lu1 Sb1 I6'
_cell_volume   352.00833609
_cell_formula_units_Z   1
loop_
 _symmetry_equiv_pos_site_id
 _symmetry_equiv_pos_as_xyz
  1  'x, y, z'
loop_
 _atom_site_type_symbol
 _atom_site_label
 _atom_site_symmetry_multiplicity
 _atom_site_fract_x
 _atom_site_fract_y
 _atom_site_fract_z
 _atom_site_occupancy
  Lu  Lu0  1  0.83342587  0.83342587  0.83342587  1
  Sb  Sb0  1  0.16660836  0.16660836  0.16660836  1
  I  I0  1  0.22924298  0.58601072  0.92634366  1
  I  I1  1  0.92634366  0.22924298  0.58601072  1
  I  I2  1  0.58601072  0.92634366  0.22924298  1
  I  I3  1  0.76513194  0.42584706  0.06738841  1
  I  I4  1  0.06738841  0.76513194  0.42584706  1
  I  I5  1  0.42584706  0.06738841  0.76513194  1
loop_
_geom_bond_atom_site_label_1
_geom_bond_atom_site_label_2
_geom_bond_distance
_geom_bond_site_symmetry_2
I0 Lu0 2.977266 1_455
I0 Sb0 3.030876 1_556
I1 Lu0 2.977266 1_545
I1 Sb0 3.030877 1_655
I2 Lu0 2.977266 1_554
I2 Sb0 3.030876 1_565
I3 Lu0 2.974523 1_554
I3 Sb0 3.033028 1_655
I4 Lu0 2.974523 1_455
I4 Sb0 3.033028 1_565
I5 Lu0 2.974523 1_545
I5 Sb0 3.033028 1_556
