# generated using pymatgen
data_LuTaRh6
_symmetry_space_group_name_H-M   'P 1'
_cell_length_a   5.53142749
_cell_length_b   5.53142729
_cell_length_c   5.53142896
_cell_angle_alpha   60.00000164
_cell_angle_beta   60.00000279
_cell_angle_gamma   60.00000742
_symmetry_Int_Tables_number   1
_chemical_formula_structural   LuTaRh6
_chemical_formula_sum   'Lu1 Ta1 Rh6'
_cell_volume   119.67317468
_cell_formula_units_Z   1
loop_
 _symmetry_equiv_pos_site_id
 _symmetry_equiv_pos_as_xyz
  1  'x, y, z'
loop_
 _atom_site_type_symbol
 _atom_site_label
 _atom_site_symmetry_multiplicity
 _atom_site_fract_x
 _atom_site_fract_y
 _atom_site_fract_z
 _atom_site_occupancy
  Lu  Lu0  1  0.00000000  0.00000000  0.00000000  1
  Ta  Ta0  1  0.50000000  0.50000000  0.50000000  1
  Rh  Rh0  1  0.50000100  0.00000000  0.00000000  1
  Rh  Rh1  1  0.00000000  0.50000100  0.00000000  1
  Rh  Rh2  1  0.50000000  0.50000000  0.00000000  1
  Rh  Rh3  1  0.00000000  0.00000000  0.50000100  1
  Rh  Rh4  1  0.50000000  0.00000000  0.50000000  1
  Rh  Rh5  1  0.00000000  0.50000000  0.50000000  1
loop_
_geom_bond_atom_site_label_1
_geom_bond_atom_site_label_2
_geom_bond_distance
_geom_bond_site_symmetry_2
Lu0 Rh1 2.765708 1_545
Lu0 Rh0 2.765708 1_455
Lu0 Rh3 2.765709 1_554
Lu0 Rh2 2.765714 1_545
Lu0 Rh2 2.765714 1_455
Lu0 Rh5 2.765714 1_545
Lu0 Rh5 2.765714 1_554
Lu0 Rh4 2.765714 1_455
Lu0 Rh4 2.765714 1_554
Lu0 Rh1 2.765719 1_555
Lu0 Rh0 2.765719 1_555
Lu0 Rh3 2.765720 1_555
Rh0 Rh1 2.765708 1_645
Rh0 Rh3 2.765709 1_654
Rh0 Rh2 2.765711 1_555
Rh0 Rh4 2.765712 1_555
Rh0 Ta0 2.765714 1_545
Rh0 Ta0 2.765714 1_554
Rh0 Rh2 2.765716 1_545
Rh0 Rh4 2.765717 1_554
Rh0 Rh1 2.765720 1_555
Rh0 Rh3 2.765720 1_555
Rh1 Rh3 2.765709 1_564
Rh1 Rh2 2.765711 1_555
Rh1 Rh5 2.765712 1_555
Rh1 Ta0 2.765714 1_455
Rh1 Ta0 2.765714 1_554
Rh1 Rh2 2.765717 1_455
Rh1 Rh5 2.765717 1_554
Rh1 Rh3 2.765720 1_555
Rh2 Rh4 2.765714 1_564
Rh2 Rh4 2.765714 1_555
Rh2 Rh5 2.765714 1_654
Rh2 Rh5 2.765714 1_555
Rh2 Ta0 2.765714 1_555
Rh2 Ta0 2.765714 1_554
Rh3 Rh5 2.765711 1_555
Rh3 Rh4 2.765711 1_555
Rh3 Ta0 2.765714 1_545
Rh3 Ta0 2.765714 1_455
Rh3 Rh5 2.765716 1_545
Rh3 Rh4 2.765717 1_455
Rh4 Ta0 2.765714 1_555
Rh4 Ta0 2.765714 1_545
Rh4 Rh5 2.765714 1_555
Rh4 Rh5 2.765714 1_645
Rh5 Ta0 2.765714 1_455
Rh5 Ta0 2.765714 1_555
