# generated using pymatgen
data_Fe(TcO4)3
_symmetry_space_group_name_H-M   'P 1'
_cell_length_a   10.36146256
_cell_length_b   10.36146185
_cell_length_c   10.36146262
_cell_angle_alpha   48.31439255
_cell_angle_beta   48.31439861
_cell_angle_gamma   48.31439660
_symmetry_Int_Tables_number   1
_chemical_formula_structural   Fe(TcO4)3
_chemical_formula_sum   'Fe2 Tc6 O24'
_cell_volume   568.77236274
_cell_formula_units_Z   2
loop_
 _symmetry_equiv_pos_site_id
 _symmetry_equiv_pos_as_xyz
  1  'x, y, z'
loop_
 _atom_site_type_symbol
 _atom_site_label
 _atom_site_symmetry_multiplicity
 _atom_site_fract_x
 _atom_site_fract_y
 _atom_site_fract_z
 _atom_site_occupancy
  Fe  Fe0  1  0.50000000  0.50000000  0.50000000  1
  Fe  Fe1  1  0.00000000  0.00000000  0.00000000  1
  Tc  Tc0  1  0.59702565  0.90297435  0.25000000  1
  Tc  Tc1  1  0.25000000  0.59702565  0.90297435  1
  Tc  Tc2  1  0.90297435  0.25000000  0.59702565  1
  Tc  Tc3  1  0.75000000  0.40297435  0.09702565  1
  Tc  Tc4  1  0.09702565  0.75000000  0.40297435  1
  Tc  Tc5  1  0.40297435  0.09702565  0.75000000  1
  O  O0  1  0.81665109  0.88411426  0.17340207  1
  O  O1  1  0.17340207  0.81665109  0.88411426  1
  O  O2  1  0.88411426  0.17340207  0.81665109  1
  O  O3  1  0.67340207  0.38411426  0.31665109  1
  O  O4  1  0.31665109  0.67340207  0.38411426  1
  O  O5  1  0.38411426  0.31665109  0.67340207  1
  O  O6  1  0.18334891  0.11588574  0.82659793  1
  O  O7  1  0.82659793  0.18334891  0.11588574  1
  O  O8  1  0.11588574  0.82659793  0.18334891  1
  O  O9  1  0.32659793  0.61588574  0.68334891  1
  O  O10  1  0.68334891  0.32659793  0.61588574  1
  O  O11  1  0.61588574  0.68334891  0.32659793  1
  O  O12  1  0.43957180  0.97419826  0.42733248  1
  O  O13  1  0.42733248  0.43957180  0.97419826  1
  O  O14  1  0.97419826  0.42733248  0.43957180  1
  O  O15  1  0.92733248  0.47419826  0.93957180  1
  O  O16  1  0.93957180  0.92733248  0.47419826  1
  O  O17  1  0.47419826  0.93957180  0.92733248  1
  O  O18  1  0.56042820  0.02580174  0.57266752  1
  O  O19  1  0.57266752  0.56042820  0.02580174  1
  O  O20  1  0.02580174  0.57266752  0.56042820  1
  O  O21  1  0.07266752  0.52580174  0.06042820  1
  O  O22  1  0.06042820  0.07266752  0.52580174  1
  O  O23  1  0.52580174  0.06042820  0.07266752  1
loop_
_geom_bond_atom_site_label_1
_geom_bond_atom_site_label_2
_geom_bond_distance
_geom_bond_site_symmetry_2
Fe0 O11 1.975762 1_555
Fe0 O5 1.975762 1_555
Fe0 O10 1.975762 1_555
Fe0 O4 1.975762 1_555
Fe0 O9 1.975762 1_555
Fe0 O3 1.975762 1_555
Fe1 O8 1.975762 1_545
Fe1 O2 1.975762 1_454
Fe1 O6 1.975762 1_554
Fe1 O0 1.975762 1_445
Fe1 O7 1.975762 1_455
Fe1 O1 1.975762 1_544
O0 Tc0 1.749048 1_555
O1 Tc1 1.749048 1_555
O2 Tc2 1.749048 1_555
O3 Tc3 1.749048 1_555
O4 Tc4 1.749048 1_555
O5 Tc5 1.749048 1_555
O6 Tc5 1.749048 1_555
O7 Tc3 1.749048 1_555
O8 Tc4 1.749048 1_555
O9 Tc1 1.749048 1_555
O10 Tc2 1.749048 1_555
O11 Tc0 1.749048 1_555
O12 Tc0 1.672544 1_555
O13 Tc1 1.672544 1_555
O14 Tc2 1.672544 1_555
O15 Tc3 1.672544 1_556
O16 Tc4 1.672544 1_655
O17 Tc5 1.672544 1_565
O18 Tc5 1.672544 1_555
O19 Tc3 1.672544 1_555
O20 Tc4 1.672544 1_555
O21 Tc1 1.672544 1_554
O22 Tc2 1.672544 1_455
O23 Tc0 1.672544 1_545
