# generated using pymatgen
data_Hf2Cu
_symmetry_space_group_name_H-M   'P 1'
_cell_length_a   3.15283522
_cell_length_b   3.15283451
_cell_length_c   5.98985137
_cell_angle_alpha   105.25893970
_cell_angle_beta   105.25893362
_cell_angle_gamma   89.99999434
_symmetry_Int_Tables_number   1
_chemical_formula_structural   Hf2Cu
_chemical_formula_sum   'Hf2 Cu1'
_cell_volume   55.26354974
_cell_formula_units_Z   1
loop_
 _symmetry_equiv_pos_site_id
 _symmetry_equiv_pos_as_xyz
  1  'x, y, z'
loop_
 _atom_site_type_symbol
 _atom_site_label
 _atom_site_symmetry_multiplicity
 _atom_site_fract_x
 _atom_site_fract_y
 _atom_site_fract_z
 _atom_site_occupancy
  Hf  Hf0  1  0.34388910  0.34388910  0.68777920  1
  Hf  Hf1  1  0.65611090  0.65611090  0.31222080  1
  Cu  Cu0  1  0.00000000  0.00000000  -0.00000000  1
loop_
_geom_bond_atom_site_label_1
_geom_bond_atom_site_label_2
_geom_bond_distance
_geom_bond_site_symmetry_2
Cu0 Hf1 2.825448 1_445
Cu0 Hf0 2.825448 1_554
Cu0 Hf1 2.825449 1_455
Cu0 Hf0 2.825449 1_544
Cu0 Hf1 2.825449 1_545
Cu0 Hf0 2.825449 1_454
Cu0 Hf1 2.825451 1_555
Cu0 Hf0 2.825451 1_444
