# generated using pymatgen
data_Hf4Zr6Sn5Sb2
_symmetry_space_group_name_H-M   'P 1'
_cell_length_a   5.87941350
_cell_length_b   8.61803048
_cell_length_c   8.61335605
_cell_angle_alpha   120.01797162
_cell_angle_beta   89.93300329
_cell_angle_gamma   90.13390105
_symmetry_Int_Tables_number   1
_chemical_formula_structural   Hf4Zr6Sn5Sb2
_chemical_formula_sum   'Hf4 Zr6 Sn5 Sb2'
_cell_volume   377.88982687
_cell_formula_units_Z   1
loop_
 _symmetry_equiv_pos_site_id
 _symmetry_equiv_pos_as_xyz
  1  'x, y, z'
loop_
 _atom_site_type_symbol
 _atom_site_label
 _atom_site_symmetry_multiplicity
 _atom_site_fract_x
 _atom_site_fract_y
 _atom_site_fract_z
 _atom_site_occupancy
  Hf  Hf0  1  0.49997732  0.33454068  0.66809105  1
  Hf  Hf1  1  0.49997732  0.66644964  0.33190895  1
  Hf  Hf2  1  0.00082452  0.66661978  0.33300415  1
  Hf  Hf3  1  0.00082452  0.33361563  0.66699585  1
  Zr  Zr0  1  0.77304768  0.26676402  1.00000000  1
  Zr  Zr1  1  0.77334311  0.73494725  0.73504532  1
  Zr  Zr2  1  0.77334311  0.99990093  0.26495468  1
  Zr  Zr3  1  0.22864592  0.73281401  1.00000000  1
  Zr  Zr4  1  0.22537063  0.26536436  0.26564920  1
  Zr  Zr5  1  0.22537063  0.99971516  0.73435080  1
  Sn  Sn0  1  0.74188119  0.39040550  0.39052093  1
  Sn  Sn1  1  0.74188119  0.99988357  0.60947907  1
  Sn  Sn2  1  0.25685487  0.38809138  0.00000000  1
  Sn  Sn3  1  0.25697546  0.60985921  0.60918354  1
  Sn  Sn4  1  0.25697546  0.00067567  0.39081646  1
  Sb  Sb0  1  0.74561870  0.60979476  1.00000000  1
  Sb  Sb1  1  0.49908339  0.00056245  0.00000000  1
loop_
_geom_bond_atom_site_label_1
_geom_bond_atom_site_label_2
_geom_bond_distance
_geom_bond_site_symmetry_2
Hf0 Sb0 3.015667 1_555
Hf0 Sn2 3.017066 1_556
Hf0 Sn0 3.018457 1_555
Hf0 Sn4 3.022749 1_555
Hf0 Sn3 3.024972 1_555
Hf0 Sn1 3.025939 1_545
Hf1 Sb0 3.015667 1_554
Hf1 Sn2 3.017066 1_555
Hf1 Sn1 3.018452 1_555
Hf1 Sn3 3.022749 1_555
Hf1 Sn4 3.024972 1_565
Hf1 Sn0 3.025931 1_555
Hf2 Sb0 3.052780 1_454
Hf2 Sn3 3.056518 1_555
Hf2 Sn4 3.057985 1_565
Hf2 Sn2 3.061516 1_555
Hf2 Sn0 3.064455 1_455
Hf2 Sn1 3.066975 1_455
Hf3 Sb0 3.052780 1_455
Hf3 Sn4 3.056517 1_555
Hf3 Sn3 3.057986 1_555
Hf3 Sn2 3.061517 1_556
Hf3 Sn1 3.064462 1_445
Hf3 Sn0 3.066981 1_455
Sn0 Zr1 2.973129 1_555
Sn0 Zr2 2.981676 1_545
Sn0 Zr0 2.982745 1_554
Sn0 Zr4 3.040748 1_655
Sn0 Zr4 3.220680 1_555
Sn1 Zr2 2.973130 1_555
Sn1 Zr1 2.981660 1_555
Sn1 Zr0 2.982746 1_565
Sn1 Zr5 3.040747 1_655
Sn1 Zr5 3.220679 1_555
Sn2 Zr5 2.967818 1_544
Sn2 Zr4 2.967819 1_555
Sn2 Zr3 2.975843 1_554
Sn2 Zr0 3.028296 1_454
Sn2 Zr0 3.212289 1_554
Sn3 Zr4 2.968735 1_555
Sn3 Zr5 2.977129 1_555
Sn3 Zr3 2.985422 1_555
Sn3 Zr1 3.043112 1_455
Sn3 Zr1 3.221396 1_555
Sn4 Zr5 2.968736 1_545
Sn4 Zr4 2.977130 1_555
Sn4 Zr3 2.985422 1_544
Sn4 Zr2 3.043111 1_445
Sn4 Zr2 3.221394 1_545
Sb0 Zr0 2.961021 1_555
Sb0 Zr2 2.976430 1_556
Sb0 Zr1 2.976438 1_555
Sb0 Zr3 3.029033 1_655
Sb0 Zr3 3.221427 1_555
Sb1 Zr4 2.795923 1_555
Sb1 Zr5 2.795924 1_544
Sb1 Zr1 2.798212 1_544
Sb1 Zr2 2.798216 1_545
Sb1 Zr3 2.799176 1_544
Sb1 Zr0 2.800052 1_554
