# generated using pymatgen
data_Er2Se3
_symmetry_space_group_name_H-M   'P 1'
_cell_length_a   14.31734534
_cell_length_b   14.31734534
_cell_length_c   14.31734534
_cell_angle_alpha   144.89224436
_cell_angle_beta   144.89224436
_cell_angle_gamma   50.49513381
_symmetry_Int_Tables_number   1
_chemical_formula_structural   Er2Se3
_chemical_formula_sum   'Er16 Se24'
_cell_volume   965.85752657
_cell_formula_units_Z   8
loop_
 _symmetry_equiv_pos_site_id
 _symmetry_equiv_pos_as_xyz
  1  'x, y, z'
loop_
 _atom_site_type_symbol
 _atom_site_label
 _atom_site_symmetry_multiplicity
 _atom_site_fract_x
 _atom_site_fract_y
 _atom_site_fract_z
 _atom_site_occupancy
  Er  Er0  1  0.57666000  0.47060600  0.62576300  1
  Er  Er1  1  0.16665600  0.16665600  0.00000000  1
  Er  Er2  1  0.87500000  0.50817300  0.13317300  1
  Er  Er3  1  0.17334000  0.29910200  0.39394500  1
  Er  Er4  1  0.58334400  0.08334400  0.50000000  1
  Er  Er5  1  0.90515700  0.77939400  0.60605500  1
  Er  Er6  1  0.37500000  0.74182700  0.86682700  1
  Er  Er7  1  0.22060600  0.82666000  0.12576300  1
  Er  Er8  1  0.49182700  0.62500000  0.36682700  1
  Er  Er9  1  0.91665600  0.41665600  0.50000000  1
  Er  Er10  1  0.25817300  0.12500000  0.63317300  1
  Er  Er11  1  0.70089800  0.09484300  0.87423700  1
  Er  Er12  1  0.83334400  0.83334400  0.00000000  1
  Er  Er13  1  0.52939400  0.15515700  0.10605500  1
  Er  Er14  1  0.84484300  0.95089800  0.37423700  1
  Er  Er15  1  0.04910200  0.42334000  0.89394500  1
  Se  Se0  1  0.07527900  0.82805300  0.61402600  1
  Se  Se1  1  0.86453300  0.24964600  0.74507200  1
  Se  Se2  1  0.50457400  0.11946000  0.25492800  1
  Se  Se3  1  0.88546700  0.13054000  0.88511400  1
  Se  Se4  1  0.24542600  0.00035400  0.11488600  1
  Se  Se5  1  0.21402700  0.46125400  0.38597400  1
  Se  Se6  1  0.53597300  0.42194700  0.74722700  1
  Se  Se7  1  0.40361700  0.15990400  0.59846800  1
  Se  Se8  1  0.19485100  0.59638300  0.75628800  1
  Se  Se9  1  0.67472100  0.78874600  0.25277300  1
  Se  Se10  1  0.84009600  0.43856300  0.24371200  1
  Se  Se11  1  0.21125400  0.46402700  0.88597400  1
  Se  Se12  1  0.57805300  0.32527900  0.11402600  1
  Se  Se13  1  0.56143700  0.80514900  0.40153200  1
  Se  Se14  1  0.86946000  0.75457400  0.75492800  1
  Se  Se15  1  0.75035400  0.49542600  0.61488600  1
  Se  Se16  1  0.53874600  0.92472100  0.75277300  1
  Se  Se17  1  0.99964600  0.11453300  0.24507200  1
  Se  Se18  1  0.55514900  0.81143700  0.90153200  1
  Se  Se19  1  0.17194700  0.78597300  0.24722700  1
  Se  Se20  1  0.90990400  0.65361700  0.09846800  1
  Se  Se21  1  0.88054000  0.13546700  0.38511400  1
  Se  Se22  1  0.18856300  0.09009600  0.74371200  1
  Se  Se23  1  0.34638300  0.44485100  0.25628800  1
loop_
_geom_bond_atom_site_label_1
_geom_bond_atom_site_label_2
_geom_bond_distance
_geom_bond_site_symmetry_2
Er0 Se6 2.829314 1_555
Er0 Se18 2.837315 1_555
Er0 Se15 2.860665 1_555
Er0 Se2 2.914276 1_555
Er0 Se23 2.967985 1_555
Er0 Se20 3.081042 1_556
Er0 Se5 3.119180 1_555
Er0 Se1 3.262934 1_555
Er1 Se0 2.856542 1_544
Er1 Se5 2.856543 1_555
Er1 Se1 2.858221 1_454
Er1 Se2 2.858224 1_555
Er1 Se4 3.098863 1_555
Er1 Se3 3.098877 1_454
Er1 Se23 3.103048 1_555
Er1 Se22 3.103058 1_554
Er2 Se5 2.863099 1_655
Er2 Se6 2.863099 1_554
Er2 Se10 2.873335 1_555
Er2 Se20 2.873336 1_555
Er2 Se9 3.068438 1_555
Er2 Se0 3.068445 1_655
Er2 Se3 3.207932 1_554
Er2 Se1 3.207939 1_554
Er3 Se5 2.829315 1_555
Er3 Se8 2.837324 1_555
Er3 Se17 2.860651 1_455
Er3 Se4 2.914267 1_555
Er3 Se7 2.967994 1_555
Er3 Se10 3.081042 1_455
Er3 Se6 3.119181 1_555
Er3 Se3 3.262925 1_454
Er4 Se6 2.856543 1_555
Er4 Se9 2.856550 1_545
Er4 Se3 2.858222 1_555
Er4 Se4 2.858224 1_555
Er4 Se2 3.098863 1_555
Er4 Se1 3.098875 1_555
Er4 Se13 3.103048 1_545
Er4 Se7 3.103056 1_555
Er5 Se0 2.829312 1_655
Er5 Se10 2.837319 1_555
Er5 Se14 2.860651 1_555
Er5 Se3 2.914277 1_565
Er5 Se13 2.967981 1_555
Er5 Se8 3.081042 1_655
Er5 Se9 3.119196 1_555
Er5 Se4 3.262928 1_666
Er6 Se9 2.863100 1_556
Er6 Se0 2.863102 1_555
Er6 Se8 2.873347 1_555
Er6 Se18 2.873347 1_555
Er6 Se5 3.068446 1_555
Er6 Se6 3.068446 1_555
Er6 Se2 3.207930 1_566
Er6 Se4 3.207930 1_566
Er7 Se19 2.829314 1_555
Er7 Se13 2.837315 1_555
Er7 Se4 2.860665 1_565
Er7 Se14 2.914276 1_454
Er7 Se8 2.967985 1_554
Er7 Se7 3.081042 1_565
Er7 Se11 3.119180 1_554
Er7 Se17 3.262934 1_465
Er8 Se16 2.863100 1_555
Er8 Se12 2.863102 1_555
Er8 Se13 2.873347 1_555
Er8 Se23 2.873347 1_555
Er8 Se19 3.068446 1_555
Er8 Se11 3.068446 1_554
Er8 Se15 3.207930 1_555
Er8 Se14 3.207930 1_555
Er9 Se12 2.856542 1_555
Er9 Se11 2.856543 1_655
Er9 Se17 2.858221 1_555
Er9 Se14 2.858224 1_555
Er9 Se15 3.098863 1_555
Er9 Se21 3.098877 1_555
Er9 Se8 3.103048 1_655
Er9 Se10 3.103058 1_555
Er10 Se11 2.863099 1_555
Er10 Se19 2.863099 1_545
Er10 Se22 2.873335 1_555
Er10 Se7 2.873336 1_555
Er10 Se16 3.068438 1_545
Er10 Se12 3.068445 1_556
Er10 Se21 3.207932 1_455
Er10 Se17 3.207939 1_455
Er11 Se16 2.829313 1_545
Er11 Se7 2.837310 1_555
Er11 Se3 2.860637 1_555
Er11 Se17 2.914268 1_556
Er11 Se10 2.967985 1_556
Er11 Se13 3.081042 1_545
Er11 Se12 3.119194 1_556
Er11 Se14 3.262928 1_545
Er12 Se19 2.856543 1_655
Er12 Se16 2.856550 1_554
Er12 Se21 2.858222 1_565
Er12 Se15 2.858224 1_554
Er12 Se14 3.098863 1_554
Er12 Se17 3.098875 1_565
Er12 Se18 3.103048 1_554
Er12 Se20 3.103056 1_555
Er13 Se12 2.829312 1_555
Er13 Se22 2.837319 1_554
Er13 Se2 2.860651 1_555
Er13 Se21 2.914277 1_555
Er13 Se18 2.967981 1_544
Er13 Se23 3.081042 1_555
Er13 Se16 3.119196 1_544
Er13 Se15 3.262928 1_555
Er14 Se9 2.829313 1_555
Er14 Se20 2.837310 1_555
Er14 Se21 2.860637 1_565
Er14 Se1 2.914268 1_565
Er14 Se22 2.967985 1_665
Er14 Se18 3.081042 1_554
Er14 Se0 3.119194 1_655
Er14 Se2 3.262928 1_565
Er15 Se11 2.829315 1_555
Er15 Se23 2.837324 1_556
Er15 Se1 2.860651 1_455
Er15 Se15 2.914267 1_455
Er15 Se20 2.967994 1_456
Er15 Se22 3.081042 1_555
Er15 Se19 3.119181 1_556
Er15 Se21 3.262925 1_455
