# generated using pymatgen
data_K16ZrSnSb8
_symmetry_space_group_name_H-M   'P 1'
_cell_length_a   11.56700514
_cell_length_b   11.56701257
_cell_length_c   11.56675115
_cell_angle_alpha   60.00074760
_cell_angle_beta   60.00072636
_cell_angle_gamma   59.99970548
_symmetry_Int_Tables_number   1
_chemical_formula_structural   K16ZrSnSb8
_chemical_formula_sum   'K16 Zr1 Sn1 Sb8'
_cell_volume   1094.31512335
_cell_formula_units_Z   1
loop_
 _symmetry_equiv_pos_site_id
 _symmetry_equiv_pos_as_xyz
  1  'x, y, z'
loop_
 _atom_site_type_symbol
 _atom_site_label
 _atom_site_symmetry_multiplicity
 _atom_site_fract_x
 _atom_site_fract_y
 _atom_site_fract_z
 _atom_site_occupancy
  K  K0  1  0.62263809  0.13203966  0.62266162  1
  K  K1  1  0.62265564  0.62265664  0.13201981  1
  K  K2  1  0.13204066  0.62263909  0.62266062  1
  K  K3  1  0.62265564  0.62265664  0.62266790  1
  K  K4  1  0.02164974  0.02164874  0.47835026  1
  K  K5  1  0.77795113  0.22205849  0.22205022  1
  K  K6  1  0.22205649  0.77795213  0.77794215  1
  K  K7  1  0.77793598  0.77793798  0.22206302  1
  K  K8  1  0.77795113  0.22205849  0.77793915  1
  K  K9  1  0.22205649  0.77795213  0.22204922  1
  K  K10  1  0.47829101  0.02174113  0.47825717  1
  K  K11  1  0.47829101  0.02174113  0.02171068  1
  K  K12  1  0.02174213  0.47828901  0.47825617  1
  K  K13  1  0.02174213  0.47828901  0.02171268  1
  K  K14  1  0.22206008  0.22206008  0.77793992  1
  K  K15  1  0.47828724  0.47828624  0.02171276  1
  Zr  Zr0  1  0.75002138  0.75001938  0.74997962  1
  Sn  Sn0  1  0.50001109  0.50001209  0.49998791  1
  Sb  Sb0  1  0.39669049  0.80981145  0.39674903  1
  Sb  Sb1  1  0.85114676  0.85114676  0.44656388  1
  Sb  Sb2  1  0.44653871  0.85116207  0.85115011  1
  Sb  Sb3  1  0.85114676  0.85114676  0.85114360  1
  Sb  Sb4  1  0.80981145  0.39669049  0.39674903  1
  Sb  Sb5  1  0.39673334  0.39673334  0.39674970  1
  Sb  Sb6  1  0.39673334  0.39673334  0.80978363  1
  Sb  Sb7  1  0.85116207  0.44653871  0.85115011  1
loop_
_geom_bond_atom_site_label_1
_geom_bond_atom_site_label_2
_geom_bond_distance
_geom_bond_site_symmetry_2
K0 Sn0 3.475294 1_555
K0 Zr0 3.607968 1_545
K0 Sb6 3.722540 1_555
K0 Sb5 3.722548 1_555
K0 Sb4 3.722636 1_555
K0 Sb2 3.786520 1_545
K0 Sb1 3.786555 1_545
K0 Sb3 3.786555 1_545
K1 Sn0 3.475210 1_555
K1 Zr0 3.608112 1_554
K1 Sb5 3.722904 1_555
K1 Sb0 3.723085 1_555
K1 Sb4 3.723093 1_555
K1 Sb2 3.786468 1_554
K1 Sb7 3.786475 1_554
K1 Sb3 3.786546 1_554
K2 Sn0 3.475272 1_555
K2 Zr0 3.607956 1_455
K2 Sb6 3.722538 1_555
K2 Sb5 3.722546 1_555
K2 Sb0 3.722619 1_555
K2 Sb7 3.786535 1_455
K2 Sb1 3.786556 1_455
K2 Sb3 3.786556 1_455
K3 Sn0 3.475220 1_555
K3 Zr0 3.608112 1_555
K3 Sb6 3.722904 1_555
K3 Sb0 3.723085 1_555
K3 Sb4 3.723093 1_555
K3 Sb2 3.786477 1_555
K3 Sb7 3.786484 1_555
K3 Sb1 3.786547 1_555
K4 Sb1 3.640627 1_445
K4 Sb3 3.640642 1_445
K4 Sb0 3.647254 1_545
K4 Sb4 3.647267 1_455
K5 Sb7 3.645678 1_554
K5 Sb1 3.645895 1_545
K5 Sb4 3.724253 1_555
K5 Sb5 3.724607 1_555
K6 Sb2 3.645683 1_555
K6 Sb3 3.645876 1_455
K6 Sb0 3.724275 1_555
K6 Sb6 3.724625 1_555
K7 Sb3 3.645842 1_554
K7 Sb1 3.645853 1_555
K7 Sb0 3.724835 1_555
K7 Sb4 3.724853 1_555
K8 Sb7 3.645694 1_555
K8 Sb3 3.645890 1_545
K8 Sb4 3.724243 1_555
K8 Sb6 3.724605 1_555
K9 Sb2 3.645674 1_554
K9 Sb1 3.645878 1_455
K9 Sb0 3.724275 1_555
K9 Sb5 3.724625 1_555
K10 Sb1 3.641505 1_545
K10 Sb2 3.641682 1_545
K10 Sb5 3.647081 1_555
K10 Sb0 3.647441 1_545
K11 Sb3 3.641502 1_544
K11 Sb2 3.641672 1_544
K11 Sb6 3.647081 1_554
K11 Sb0 3.647441 1_545
K12 Sb1 3.641530 1_455
K12 Sb7 3.641696 1_455
K12 Sb5 3.647074 1_555
K12 Sb4 3.647426 1_455
K13 Sb3 3.641527 1_454
K13 Sb7 3.641687 1_454
K13 Sb6 3.647074 1_554
K13 Sb4 3.647426 1_455
K14 Sb7 3.645665 1_455
K14 Sb2 3.645667 1_545
K14 Sb5 3.724334 1_555
K14 Sb6 3.724334 1_555
K15 Sb7 3.641585 1_554
K15 Sb2 3.641595 1_554
K15 Sb6 3.647378 1_554
K15 Sb5 3.647388 1_555
Sb0 Sn0 2.925882 1_555
Sb1 Zr0 2.865557 1_555
Sb2 Zr0 2.866222 1_555
Sb3 Zr0 2.865566 1_555
Sb4 Sn0 2.925889 1_555
Sb5 Sn0 2.925802 1_555
Sb6 Sn0 2.925811 1_555
Sb7 Zr0 2.866205 1_555
