# generated using pymatgen
data_Tc5MoH4
_symmetry_space_group_name_H-M   'P 1'
_cell_length_a   4.93949412
_cell_length_b   4.93819818
_cell_length_c   5.28637573
_cell_angle_alpha   117.65295319
_cell_angle_beta   62.14787171
_cell_angle_gamma   120.00869083
_symmetry_Int_Tables_number   1
_chemical_formula_structural   Tc5MoH4
_chemical_formula_sum   'Tc5 Mo1 H4'
_cell_volume   94.14722834
_cell_formula_units_Z   1
loop_
 _symmetry_equiv_pos_site_id
 _symmetry_equiv_pos_as_xyz
  1  'x, y, z'
loop_
 _atom_site_type_symbol
 _atom_site_label
 _atom_site_symmetry_multiplicity
 _atom_site_fract_x
 _atom_site_fract_y
 _atom_site_fract_z
 _atom_site_occupancy
  Tc  Tc0  1  0.25080434  0.08277494  0.24560471  1
  Tc  Tc1  1  0.91363211  0.41722506  0.25439729  1
  Tc  Tc2  1  0.08445220  0.58323700  0.74891175  1
  Tc  Tc3  1  0.75012595  0.91676200  0.75108625  1
  Tc  Tc4  1  0.41437052  0.25000000  0.74999900  1
  Mo  Mo0  1  0.58555017  0.75000100  0.25000100  1
  H  H0  1  0.66248892  0.33130542  0.01058967  1
  H  H1  1  0.84177516  0.16869358  0.48940933  1
  H  H2  1  0.15921541  0.83767808  0.51604487  1
  H  H3  1  0.33758221  0.66232192  0.98395613  1
loop_
_geom_bond_atom_site_label_1
_geom_bond_atom_site_label_2
_geom_bond_distance
_geom_bond_site_symmetry_2
H0 Tc0 1.934753 1_555
H0 Tc1 1.959575 1_555
H0 Mo0 1.982110 1_555
H0 Tc3 1.996173 1_544
H0 Tc2 2.028617 1_654
H0 Tc4 2.032958 1_554
H1 Tc1 1.934752 1_555
H1 Tc0 1.959563 1_655
H1 Mo0 1.982101 1_545
H1 Tc2 1.996170 1_655
H1 Tc3 2.028607 1_545
H1 Tc4 2.032963 1_555
H2 Tc3 1.942295 1_455
H2 Tc2 1.943546 1_555
H2 Tc4 1.953448 1_565
H2 Tc1 2.019486 1_455
H2 Tc0 2.041471 1_565
H2 Mo0 2.044400 1_555
H3 Tc2 1.942299 1_555
H3 Tc3 1.943548 1_555
H3 Tc4 1.953451 1_555
H3 Tc0 2.019487 1_566
H3 Tc1 2.041477 1_456
H3 Mo0 2.044401 1_556
