# generated using pymatgen
data_TaBiO4
_symmetry_space_group_name_H-M   'P 1'
_cell_length_a   4.97981121
_cell_length_b   5.66235001
_cell_length_c   11.79260671
_cell_angle_alpha   90.00000000
_cell_angle_beta   90.00000000
_cell_angle_gamma   90.00000000
_symmetry_Int_Tables_number   1
_chemical_formula_structural   TaBiO4
_chemical_formula_sum   'Ta4 Bi4 O16'
_cell_volume   332.52125004
_cell_formula_units_Z   4
loop_
 _symmetry_equiv_pos_site_id
 _symmetry_equiv_pos_as_xyz
  1  'x, y, z'
loop_
 _atom_site_type_symbol
 _atom_site_label
 _atom_site_symmetry_multiplicity
 _atom_site_fract_x
 _atom_site_fract_y
 _atom_site_fract_z
 _atom_site_occupancy
  Ta  Ta0  1  0.75000000  0.86596378  0.25000000  1
  Ta  Ta1  1  0.75000000  0.63403622  0.75000000  1
  Ta  Ta2  1  0.25000000  0.13403622  0.75000000  1
  Ta  Ta3  1  0.25000000  0.36596378  0.25000000  1
  Bi  Bi0  1  0.22383586  0.75000000  0.50000000  1
  Bi  Bi1  1  0.27616414  0.75000000  0.00000000  1
  Bi  Bi2  1  0.77616414  0.25000000  0.50000000  1
  Bi  Bi3  1  0.72383586  0.25000000  0.00000000  1
  O  O0  1  0.08722104  0.08356931  0.59783529  1
  O  O1  1  0.08722104  0.41643069  0.40216471  1
  O  O2  1  0.41277896  0.08356931  0.90216471  1
  O  O3  1  0.41277896  0.41643069  0.09783529  1
  O  O4  1  0.91277896  0.91643069  0.40216471  1
  O  O5  1  0.91277896  0.58356931  0.59783529  1
  O  O6  1  0.58722104  0.91643069  0.09783529  1
  O  O7  1  0.58722104  0.58356931  0.90216471  1
  O  O8  1  0.50660235  0.14495108  0.30517774  1
  O  O9  1  0.50660235  0.35504892  0.69482226  1
  O  O10  1  0.99339765  0.14495108  0.19482226  1
  O  O11  1  0.99339765  0.35504892  0.80517774  1
  O  O12  1  0.49339765  0.85504892  0.69482226  1
  O  O13  1  0.49339765  0.64495108  0.30517774  1
  O  O14  1  0.00660235  0.85504892  0.80517774  1
  O  O15  1  0.00660235  0.64495108  0.19482226  1
loop_
_geom_bond_atom_site_label_1
_geom_bond_atom_site_label_2
_geom_bond_distance
_geom_bond_site_symmetry_2
Bi0 O5 2.149096 1_455
Bi0 O4 2.149096 1_455
Bi0 O1 2.315479 1_555
Bi0 O0 2.315479 1_565
Bi0 O13 2.726554 1_555
Bi0 O12 2.726554 1_555
Bi1 O6 2.149096 1_555
Bi1 O7 2.149096 1_554
Bi1 O3 2.315479 1_555
Bi1 O2 2.315479 1_564
Bi1 O15 2.726554 1_555
Bi1 O14 2.726554 1_554
Bi2 O0 2.149096 1_655
Bi2 O1 2.149096 1_655
Bi2 O4 2.315479 1_545
Bi2 O5 2.315479 1_555
Bi2 O8 2.726554 1_555
Bi2 O9 2.726554 1_555
Bi3 O3 2.149096 1_555
Bi3 O2 2.149096 1_554
Bi3 O7 2.315479 1_554
Bi3 O6 2.315479 1_545
Bi3 O11 2.726554 1_554
Bi3 O10 2.726554 1_555
O0 Ta2 1.989644 1_555
O1 Ta3 1.989644 1_555
O2 Ta2 1.989644 1_555
O3 Ta3 1.989644 1_555
O4 Ta0 1.989644 1_555
O5 Ta1 1.989644 1_555
O6 Ta0 1.989644 1_555
O7 Ta1 1.989644 1_555
O8 Ta3 1.903255 1_555
O8 Ta0 2.094767 1_545
O9 Ta2 1.903255 1_555
O9 Ta1 2.094767 1_555
O10 Ta3 1.903255 1_655
O10 Ta0 2.094767 1_545
O11 Ta2 1.903255 1_655
O11 Ta1 2.094767 1_555
O12 Ta1 1.903255 1_555
O12 Ta2 2.094767 1_565
O13 Ta0 1.903255 1_555
O13 Ta3 2.094767 1_555
O14 Ta1 1.903255 1_455
O14 Ta2 2.094767 1_565
O15 Ta0 1.903255 1_455
O15 Ta3 2.094767 1_555
