# generated using pymatgen
data_Ta2BeFe3
_symmetry_space_group_name_H-M   'P 1'
_cell_length_a   4.75782497
_cell_length_b   4.73998928
_cell_length_c   4.73998932
_cell_angle_alpha   60.00000657
_cell_angle_beta   60.12393560
_cell_angle_gamma   60.12392903
_symmetry_Int_Tables_number   1
_chemical_formula_structural   Ta2BeFe3
_chemical_formula_sum   'Ta2 Be1 Fe3'
_cell_volume   75.72847460
_cell_formula_units_Z   1
loop_
 _symmetry_equiv_pos_site_id
 _symmetry_equiv_pos_as_xyz
  1  'x, y, z'
loop_
 _atom_site_type_symbol
 _atom_site_label
 _atom_site_symmetry_multiplicity
 _atom_site_fract_x
 _atom_site_fract_y
 _atom_site_fract_z
 _atom_site_occupancy
  Ta  Ta0  1  0.99792810  0.00069097  0.00069097  1
  Ta  Ta1  1  0.25207190  0.24930903  0.24930903  1
  Be  Be0  1  0.12500000  0.62500000  0.62500000  1
  Fe  Fe0  1  0.62500000  0.62500000  0.62500000  1
  Fe  Fe1  1  0.62500000  0.12500000  0.62500000  1
  Fe  Fe2  1  0.62500000  0.62500000  0.12500000  1
loop_
_geom_bond_atom_site_label_1
_geom_bond_atom_site_label_2
_geom_bond_distance
_geom_bond_site_symmetry_2
Ta0 Ta1 2.902879 1_555
Ta0 Ta1 2.909899 1_655
Ta0 Ta1 2.909907 1_645
Ta0 Ta1 2.909907 1_654
Be0 Fe0 2.378912 1_555
Be0 Fe0 2.378912 1_455
Be0 Fe1 2.378912 1_465
Be0 Fe1 2.378912 1_555
Be0 Fe2 2.378913 1_456
Be0 Fe2 2.378913 1_555
Be0 Ta1 2.780963 1_556
Be0 Ta0 2.780963 1_465
Be0 Ta1 2.780963 1_565
Be0 Ta0 2.780963 1_456
Be0 Ta0 2.780967 1_466
Be0 Ta1 2.780967 1_555
Fe0 Fe1 2.369995 1_555
Fe0 Fe1 2.369995 1_565
Fe0 Fe2 2.369995 1_555
Fe0 Fe2 2.369995 1_556
Fe0 Ta0 2.779128 1_556
Fe0 Ta1 2.779128 1_565
Fe0 Ta0 2.779128 1_565
Fe0 Ta1 2.779128 1_556
Fe0 Ta0 2.797978 1_466
Fe0 Ta1 2.797978 1_655
Fe1 Fe2 2.369995 1_555
Fe1 Fe2 2.369995 1_546
Fe1 Ta1 2.779126 1_556
Fe1 Ta0 2.779126 1_555
Fe1 Ta0 2.779130 1_556
Fe1 Ta1 2.779130 1_555
Fe1 Ta1 2.797976 1_655
Fe1 Ta0 2.797976 1_456
Fe2 Ta1 2.779126 1_565
Fe2 Ta0 2.779126 1_555
Fe2 Ta0 2.779130 1_565
Fe2 Ta1 2.779130 1_555
Fe2 Ta1 2.797975 1_655
Fe2 Ta0 2.797975 1_465
