# generated using pymatgen
data_RbAsRu2S
_symmetry_space_group_name_H-M   'P 1'
_cell_length_a   7.37453079
_cell_length_b   7.37453026
_cell_length_c   7.37453037
_cell_angle_alpha   148.60157709
_cell_angle_beta   148.60157228
_cell_angle_gamma   44.99810604
_symmetry_Int_Tables_number   1
_chemical_formula_structural   RbAsRu2S
_chemical_formula_sum   'Rb1 As1 Ru2 S1'
_cell_volume   108.51655188
_cell_formula_units_Z   1
loop_
 _symmetry_equiv_pos_site_id
 _symmetry_equiv_pos_as_xyz
  1  'x, y, z'
loop_
 _atom_site_type_symbol
 _atom_site_label
 _atom_site_symmetry_multiplicity
 _atom_site_fract_x
 _atom_site_fract_y
 _atom_site_fract_z
 _atom_site_occupancy
  Rb  Rb0  1  0.99517937  0.99517937  1.00000000  1
  As  As0  1  0.65399047  0.65399047  0.00000000  1
  Ru  Ru0  1  0.75608494  0.25608494  0.50000000  1
  Ru  Ru1  1  0.25608494  0.75608494  0.50000000  1
  S  S0  1  0.33866128  0.33866128  1.00000000  1
loop_
_geom_bond_atom_site_label_1
_geom_bond_atom_site_label_2
_geom_bond_distance
_geom_bond_site_symmetry_2
Rb0 S0 3.537293 1_554
Rb0 S0 3.537293 1_666
Rb0 S0 3.537294 1_655
Rb0 S0 3.537294 1_565
As0 Ru0 2.432536 1_565
As0 Ru0 2.432536 1_554
As0 Ru1 2.432536 1_554
As0 Ru1 2.432536 1_655
As0 Rb0 3.556220 1_443
As0 Rb0 3.556220 1_555
As0 Rb0 3.556220 1_544
As0 Rb0 3.556221 1_454
Ru0 S0 2.290843 1_554
Ru0 S0 2.290843 1_655
Ru1 S0 2.290842 1_565
Ru1 S0 2.290843 1_554
