# generated using pymatgen
data_Na4LuOsO6
_symmetry_space_group_name_H-M   'P 1'
_cell_length_a   5.54047542
_cell_length_b   5.54047325
_cell_length_c   5.69801394
_cell_angle_alpha   99.44414264
_cell_angle_beta   99.44420776
_cell_angle_gamma   119.97521307
_symmetry_Int_Tables_number   1
_chemical_formula_structural   Na4LuOsO6
_chemical_formula_sum   'Na4 Lu1 Os1 O6'
_cell_volume   143.13047411
_cell_formula_units_Z   1
loop_
 _symmetry_equiv_pos_site_id
 _symmetry_equiv_pos_as_xyz
  1  'x, y, z'
loop_
 _atom_site_type_symbol
 _atom_site_label
 _atom_site_symmetry_multiplicity
 _atom_site_fract_x
 _atom_site_fract_y
 _atom_site_fract_z
 _atom_site_occupancy
  Na  Na0  1  0.49953687  0.50046443  0.00000127  1
  Na  Na1  1  0.00904839  0.99095119  0.50000066  1
  Na  Na2  1  0.65717866  0.34281988  0.50000132  1
  Na  Na3  1  0.33880426  0.66119944  0.50000175  1
  Lu  Lu0  1  0.83276314  0.16723689  0.00000069  1
  Os  Os0  1  0.16678422  0.83321592  0.00000110  1
  O  O0  1  0.94820775  0.59654949  0.20975195  1
  O  O1  1  0.54459651  0.92420441  0.21378116  1
  O  O2  1  0.21876061  0.19492578  0.21348906  1
  O  O3  1  0.80507162  0.78123869  0.78651060  1
  O  O4  1  0.07579706  0.45540345  0.78621975  1
  O  O5  1  0.40345090  0.05179244  0.79024771  1
loop_
_geom_bond_atom_site_label_1
_geom_bond_atom_site_label_2
_geom_bond_distance
_geom_bond_site_symmetry_2
Na0 O0 2.320581 1_555
Na0 O5 2.320589 1_554
Na0 O3 2.330405 1_554
Na0 O2 2.330407 1_555
Na0 O4 2.331082 1_554
Na0 O1 2.331084 1_555
Na1 O3 2.282158 1_455
Na1 O2 2.282161 1_565
Na1 O5 2.349211 1_565
Na1 O0 2.349215 1_455
Na1 O4 2.625304 1_565
Na1 O1 2.625307 1_455
Na2 O1 2.325372 1_545
Na2 O4 2.325376 1_655
Na2 O3 2.346833 1_555
Na2 O2 2.346835 1_555
Na2 O5 2.585414 1_555
Na2 O0 2.585436 1_555
Na3 O5 2.324473 1_565
Na3 O0 2.324490 1_455
Na3 O4 2.411040 1_555
Na3 O1 2.411040 1_555
Na3 O3 2.514749 1_555
Na3 O2 2.514778 1_555
Lu0 O0 2.188879 1_555
Lu0 O5 2.188880 1_554
Lu0 O2 2.198664 1_655
Lu0 O3 2.198664 1_544
Lu0 O1 2.207784 1_545
Lu0 O4 2.207788 1_654
O0 Os0 2.004214 1_655
O1 Os0 2.006717 1_555
O2 Os0 2.021687 1_545
O3 Os0 2.021703 1_656
O4 Os0 2.006724 1_556
O5 Os0 2.004226 1_546
