# generated using pymatgen
data_Tb(Al2Fe)4
_symmetry_space_group_name_H-M   'P 1'
_cell_length_a   4.98878081
_cell_length_b   6.64590639
_cell_length_c   6.64586680
_cell_angle_alpha   81.90750730
_cell_angle_beta   67.98740628
_cell_angle_gamma   67.98734664
_symmetry_Int_Tables_number   1
_chemical_formula_structural   Tb(Al2Fe)4
_chemical_formula_sum   'Tb1 Al8 Fe4'
_cell_volume   189.38894680
_cell_formula_units_Z   1
loop_
 _symmetry_equiv_pos_site_id
 _symmetry_equiv_pos_as_xyz
  1  'x, y, z'
loop_
 _atom_site_type_symbol
 _atom_site_label
 _atom_site_symmetry_multiplicity
 _atom_site_fract_x
 _atom_site_fract_y
 _atom_site_fract_z
 _atom_site_occupancy
  Tb  Tb0  1  -0.00000042  0.00000014  0.99999963  1
  Al  Al0  1  0.34193074  0.65795654  0.65795576  1
  Al  Al1  1  0.99999483  0.34201663  0.65798784  1
  Al  Al2  1  0.00000460  0.65798485  0.34201190  1
  Al  Al3  1  0.65807142  0.34204803  0.34204592  1
  Al  Al4  1  0.27777081  0.22239861  0.22240571  1
  Al  Al5  1  0.50000262  0.77766193  0.22233601  1
  Al  Al6  1  0.49999744  0.22233731  0.77766463  1
  Al  Al7  1  0.72222787  0.77760115  0.77759574  1
  Fe  Fe0  1  0.50000151  -0.00000085  0.50000022  1
  Fe  Fe1  1  -0.00000035  0.49999994  -0.00000024  1
  Fe  Fe2  1  0.50000032  0.49999861  -0.00000044  1
  Fe  Fe3  1  0.00000061  -0.00000088  0.50000032  1
loop_
_geom_bond_atom_site_label_1
_geom_bond_atom_site_label_2
_geom_bond_distance
_geom_bond_site_symmetry_2
Al0 Fe2 2.634872 1_556
Al0 Fe0 2.634877 1_565
Al0 Fe3 2.634933 1_565
Al0 Fe1 2.634943 1_556
Al0 Al7 2.702510 1_555
Al0 Al7 2.704587 1_455
Al0 Al3 2.753154 1_555
Al0 Al5 2.783281 1_555
Al0 Al6 2.783296 1_555
Al0 Tb0 2.980915 1_565
Al1 Fe1 2.634523 1_656
Al1 Fe3 2.634555 1_655
Al1 Fe2 2.636137 1_556
Al1 Fe0 2.636199 1_655
Al1 Al6 2.703530 1_555
Al1 Al6 2.703537 1_655
Al1 Al2 2.752777 1_655
Al1 Al4 2.783392 1_655
Al1 Al7 2.783403 1_555
Al1 Tb0 2.979657 1_655
Al2 Fe1 2.634530 1_555
Al2 Fe3 2.634543 1_565
Al2 Fe2 2.636147 1_555
Al2 Fe0 2.636179 1_465
Al2 Al5 2.703524 1_555
Al2 Al5 2.703532 1_455
Al2 Al7 2.783400 1_455
Al2 Al4 2.783411 1_555
Al2 Tb0 2.979654 1_564
Al3 Fe2 2.634883 1_555
Al3 Fe0 2.634912 1_555
Al3 Fe1 2.634928 1_655
Al3 Fe3 2.634951 1_655
Al3 Al4 2.702546 1_555
Al3 Al4 2.704567 1_655
Al3 Al5 2.783266 1_555
Al3 Al6 2.783283 1_555
Al3 Tb0 2.980945 1_654
Al4 Fe0 2.520789 1_555
Al4 Fe2 2.520838 1_555
Al4 Fe3 2.521833 1_555
Al4 Fe1 2.521882 1_555
Al4 Al5 2.740213 1_545
Al4 Al6 2.740225 1_554
Al4 Tb0 3.158391 1_554
Al4 Tb0 3.159441 1_654
Al5 Fe0 2.521165 1_565
Al5 Fe2 2.521168 1_555
Al5 Fe1 2.522851 1_655
Al5 Fe3 2.522871 1_565
Al5 Al7 2.740220 1_554
Al5 Tb0 3.158165 1_664
Al5 Tb0 3.158175 1_564
Al6 Fe2 2.521151 1_556
Al6 Fe0 2.521163 1_555
Al6 Fe1 2.522853 1_556
Al6 Fe3 2.522876 1_655
Al6 Al7 2.740210 1_545
Al6 Tb0 3.158163 1_555
Al6 Tb0 3.158164 1_655
Al7 Fe0 2.520781 1_565
Al7 Fe2 2.520842 1_556
Al7 Fe3 2.521835 1_665
Al7 Fe1 2.521874 1_656
Al7 Tb0 3.158386 1_665
Al7 Tb0 3.159438 1_565
Fe0 Fe3 2.494386 1_655
Fe0 Fe3 2.494395 1_555
Fe0 Tb0 3.324228 1_555
Fe0 Tb0 3.324228 1_654
Fe1 Fe2 2.494390 1_555
Fe1 Fe2 2.494391 1_455
Fe1 Tb0 3.322952 1_554
Fe1 Tb0 3.322954 1_564
Fe2 Tb0 3.324231 1_654
Fe2 Tb0 3.324249 1_564
Fe3 Tb0 3.322928 1_555
Fe3 Tb0 3.322939 1_554
