# generated using pymatgen
data_Hf9Nb(Sn3As)2
_symmetry_space_group_name_H-M   'P 1'
_cell_length_a   8.53141288
_cell_length_b   8.53141427
_cell_length_c   5.83650337
_cell_angle_alpha   90.00000000
_cell_angle_beta   90.00000000
_cell_angle_gamma   119.99999464
_symmetry_Int_Tables_number   1
_chemical_formula_structural   Hf9Nb(Sn3As)2
_chemical_formula_sum   'Hf9 Nb1 Sn6 As2'
_cell_volume   367.89627174
_cell_formula_units_Z   1
loop_
 _symmetry_equiv_pos_site_id
 _symmetry_equiv_pos_as_xyz
  1  'x, y, z'
loop_
 _atom_site_type_symbol
 _atom_site_label
 _atom_site_symmetry_multiplicity
 _atom_site_fract_x
 _atom_site_fract_y
 _atom_site_fract_z
 _atom_site_occupancy
  Hf  Hf0  1  0.66666700  0.33333300  0.50000000  1
  Hf  Hf1  1  0.66666700  0.33333300  0.00000000  1
  Hf  Hf2  1  0.33333300  0.66666700  0.50000000  1
  Hf  Hf3  1  0.26330293  0.99976618  0.24898094  1
  Hf  Hf4  1  0.26330293  0.26353675  0.75101906  1
  Hf  Hf5  1  0.00023382  0.73669707  0.75101906  1
  Hf  Hf6  1  0.00023382  0.26353675  0.24898094  1
  Hf  Hf7  1  0.73646325  0.73669707  0.24898094  1
  Hf  Hf8  1  0.73646325  0.99976618  0.75101906  1
  Nb  Nb0  1  0.33333300  0.66666700  0.00000000  1
  Sn  Sn0  1  0.60340147  0.99855412  0.24802340  1
  Sn  Sn1  1  0.60340147  0.60484735  0.75197660  1
  Sn  Sn2  1  0.00144588  0.39659853  0.75197660  1
  Sn  Sn3  1  0.00144588  0.60484735  0.24802340  1
  Sn  Sn4  1  0.39515265  0.39659853  0.24802340  1
  Sn  Sn5  1  0.39515265  0.99855412  0.75197660  1
  As  As0  1  0.00000000  0.00000000  0.00000000  1
  As  As1  1  0.00000000  0.00000000  0.50000000  1
loop_
_geom_bond_atom_site_label_1
_geom_bond_atom_site_label_2
_geom_bond_distance
_geom_bond_site_symmetry_2
Hf0 Sn2 3.011662 1_655
Hf0 Sn0 3.011662 1_545
Hf0 Sn3 3.011664 1_655
Hf0 Sn5 3.011665 1_545
Hf0 Sn4 3.011669 1_555
Hf0 Sn1 3.011669 1_555
Hf1 Sn2 3.000462 1_654
Hf1 Sn0 3.000463 1_545
Hf1 Sn3 3.000465 1_655
Hf1 Sn5 3.000465 1_544
Hf1 Sn4 3.000469 1_555
Hf1 Sn1 3.000470 1_554
Hf2 Nb0 2.918252 1_556
Hf2 Nb0 2.918252 1_555
Hf2 Sn3 2.994139 1_555
Hf2 Sn5 2.994139 1_555
Hf2 Sn2 2.994142 1_555
Hf2 Sn0 2.994142 1_555
Hf2 Sn1 2.994146 1_555
Hf2 Sn4 2.994146 1_555
Hf3 Sn0 2.906711 1_555
Hf3 Sn3 2.969106 1_555
Hf3 Sn4 2.986464 1_565
Hf3 Sn5 3.113119 1_554
Hf3 Sn5 3.145728 1_555
Hf4 Sn1 2.906711 1_555
Hf4 Sn2 2.969105 1_555
Hf4 Sn5 2.986463 1_545
Hf4 Sn4 3.113119 1_556
Hf4 Sn4 3.145728 1_555
Hf5 Sn2 2.906711 1_555
Hf5 Sn5 2.969105 1_555
Hf5 Sn1 2.986463 1_455
Hf5 Sn3 3.113119 1_556
Hf5 Sn3 3.145728 1_555
Hf6 Sn3 2.906711 1_555
Hf6 Sn4 2.969105 1_555
Hf6 Sn0 2.986463 1_445
Hf6 Sn2 3.113119 1_554
Hf6 Sn2 3.145728 1_555
Hf7 Sn4 2.906711 1_555
Hf7 Sn0 2.969105 1_555
Hf7 Sn3 2.986463 1_655
Hf7 Sn1 3.113119 1_554
Hf7 Sn1 3.145728 1_555
Hf8 Sn5 2.906711 1_555
Hf8 Sn1 2.969106 1_555
Hf8 Sn2 2.986464 1_665
Hf8 Sn0 3.113119 1_556
Hf8 Sn0 3.145728 1_555
Nb0 Sn3 2.982874 1_555
Nb0 Sn5 2.982874 1_554
Nb0 Sn2 2.982876 1_554
Nb0 Sn0 2.982877 1_555
Nb0 Sn1 2.982881 1_554
Nb0 Sn4 2.982881 1_555
As0 Hf3 2.676244 1_545
As0 Hf8 2.676244 1_444
As0 Hf5 2.676244 1_544
As0 Hf7 2.676244 1_445
As0 Hf6 2.676244 1_555
As0 Hf4 2.676244 1_554
As1 Hf8 2.682722 1_445
As1 Hf3 2.682722 1_545
As1 Hf5 2.682722 1_545
As1 Hf7 2.682722 1_445
As1 Hf4 2.682722 1_555
As1 Hf6 2.682722 1_555
