# generated using pymatgen
data_Y4MnRuC8
_symmetry_space_group_name_H-M   'P 1'
_cell_length_a   6.61606706
_cell_length_b   6.61606581
_cell_length_c   6.61606611
_cell_angle_alpha   134.18683886
_cell_angle_beta   109.47411800
_cell_angle_gamma   88.25899980
_symmetry_Int_Tables_number   1
_chemical_formula_structural   Y4MnRuC8
_chemical_formula_sum   'Y4 Mn1 Ru1 C8'
_cell_volume   186.84154123
_cell_formula_units_Z   1
loop_
 _symmetry_equiv_pos_site_id
 _symmetry_equiv_pos_as_xyz
  1  'x, y, z'
loop_
 _atom_site_type_symbol
 _atom_site_label
 _atom_site_symmetry_multiplicity
 _atom_site_fract_x
 _atom_site_fract_y
 _atom_site_fract_z
 _atom_site_occupancy
  Y  Y0  1  0.50387733  0.35502348  0.15410249  1
  Y  Y1  1  0.49612267  0.65022416  0.85114515  1
  Y  Y2  1  0.20092099  0.84977584  0.34589751  1
  Y  Y3  1  0.79907901  0.14497652  0.64885485  1
  Mn  Mn0  1  0.00000000  0.75000000  0.75000000  1
  Ru  Ru0  1  0.00000000  0.25000000  0.25000000  1
  C  C0  1  0.25105139  0.05757949  0.15370539  1
  C  C1  1  0.74894861  0.90265300  0.80652710  1
  C  C2  1  0.90387410  0.59734700  0.34629461  1
  C  C3  1  0.09612590  0.44242051  0.69347290  1
  C  C4  1  0.46829773  0.12696975  0.33931639  1
  C  C5  1  0.53170227  0.87101966  0.65867402  1
  C  C6  1  0.78765436  0.62898034  0.16068361  1
  C  C7  1  0.21234564  0.37303025  0.84132598  1
loop_
_geom_bond_atom_site_label_1
_geom_bond_atom_site_label_2
_geom_bond_distance
_geom_bond_site_symmetry_2
C0 C4 1.364550 1_555
C0 Mn0 1.924695 1_544
C0 Ru0 2.057152 1_555
C0 Y2 2.522484 1_545
C0 Y0 2.619260 1_555
C1 C5 1.364549 1_555
C1 Mn0 1.924692 1_655
C1 Ru0 2.057156 1_666
C1 Y3 2.522485 1_565
C1 Y1 2.619260 1_555
C2 C6 1.364538 1_555
C2 Mn0 1.924698 1_655
C2 Ru0 2.057158 1_655
C2 Y0 2.522493 1_555
C2 Y2 2.619260 1_655
C3 C7 1.364532 1_555
C3 Mn0 1.924698 1_555
C3 Ru0 2.057158 1_555
C3 Y1 2.522493 1_555
C3 Y3 2.619260 1_455
C4 Y3 2.384330 1_555
C4 Y1 2.564030 1_544
C4 Y0 2.573865 1_555
C4 Y1 2.601304 1_555
C4 Y2 2.618072 1_545
C5 Y2 2.384333 1_555
C5 Y0 2.564032 1_555
C5 Y1 2.573859 1_555
C5 Y0 2.601301 1_566
C5 Y3 2.618077 1_565
C6 Y1 2.384334 1_554
C6 Y3 2.564032 1_565
C6 Y2 2.573863 1_655
C6 Y3 2.601301 1_554
C6 Y0 2.618077 1_555
C7 Y0 2.384338 1_556
C7 Y2 2.564030 1_556
C7 Y3 2.573865 1_455
C7 Y2 2.601304 1_545
C7 Y1 2.618073 1_555
