# generated using pymatgen
data_Zr2Sc5NbH16
_symmetry_space_group_name_H-M   'P 1'
_cell_length_a   6.71650560
_cell_length_b   6.71650605
_cell_length_c   6.69782820
_cell_angle_alpha   60.09194360
_cell_angle_beta   60.09194138
_cell_angle_gamma   59.72823122
_symmetry_Int_Tables_number   1
_chemical_formula_structural   Zr2Sc5NbH16
_chemical_formula_sum   'Zr2 Sc5 Nb1 H16'
_cell_volume   213.50377038
_cell_formula_units_Z   1
loop_
 _symmetry_equiv_pos_site_id
 _symmetry_equiv_pos_as_xyz
  1  'x, y, z'
loop_
 _atom_site_type_symbol
 _atom_site_label
 _atom_site_symmetry_multiplicity
 _atom_site_fract_x
 _atom_site_fract_y
 _atom_site_fract_z
 _atom_site_occupancy
  Zr  Zr0  1  0.00000000  0.00000000  0.50000000  1
  Zr  Zr1  1  0.50000000  0.50000000  0.50000000  1
  Sc  Sc0  1  0.50000000  0.00000000  0.50000000  1
  Sc  Sc1  1  0.00000000  0.50000000  0.50000000  1
  Sc  Sc2  1  0.50000000  0.50000000  0.00000000  1
  Sc  Sc3  1  0.00000000  0.50000000  0.00000000  1
  Sc  Sc4  1  0.50000000  0.00000000  0.00000000  1
  Nb  Nb0  1  0.00000000  0.00000000  0.00000000  1
  H  H0  1  0.87963133  0.87963133  0.36198696  1
  H  H1  1  0.87998078  0.36108785  0.87946718  1
  H  H2  1  0.36108785  0.87998078  0.87946718  1
  H  H3  1  0.87963133  0.87963133  0.87875239  1
  H  H4  1  0.12036867  0.12036867  0.63801304  1
  H  H5  1  0.12001922  0.63891215  0.12053282  1
  H  H6  1  0.63891215  0.12001922  0.12053282  1
  H  H7  1  0.12036867  0.12036867  0.12124761  1
  H  H8  1  0.62497007  0.62497007  0.12523369  1
  H  H9  1  0.62497972  0.12467623  0.62517152  1
  H  H10  1  0.12467623  0.62497972  0.62517152  1
  H  H11  1  0.62497007  0.62497007  0.62482418  1
  H  H12  1  0.37502993  0.37502993  0.87476631  1
  H  H13  1  0.37502028  0.87532377  0.37482848  1
  H  H14  1  0.87532377  0.37502028  0.37482848  1
  H  H15  1  0.37502993  0.37502993  0.37517582  1
loop_
_geom_bond_atom_site_label_1
_geom_bond_atom_site_label_2
_geom_bond_distance
_geom_bond_site_symmetry_2
H0 Nb0 1.983721 1_665
H0 Zr0 2.076334 1_665
H0 Sc0 2.079915 1_565
H0 Sc1 2.079915 1_655
H1 Nb0 1.977075 1_656
H1 Sc3 2.080968 1_656
H1 Sc1 2.080984 1_655
H1 Sc2 2.081219 1_556
H2 Nb0 1.977075 1_566
H2 Sc4 2.080968 1_566
H2 Sc0 2.080984 1_565
H2 Sc2 2.081219 1_556
H3 Nb0 1.983710 1_666
H3 Zr0 2.076345 1_665
H3 Sc4 2.079915 1_566
H3 Sc3 2.079915 1_656
H4 Nb0 1.983721 1_556
H4 Zr0 2.076334 1_555
H4 Sc0 2.079915 1_555
H4 Sc1 2.079915 1_555
H5 Nb0 1.977075 1_565
H5 Sc3 2.080968 1_555
H5 Sc1 2.080984 1_555
H5 Sc2 2.081219 1_555
H6 Nb0 1.977075 1_655
H6 Sc4 2.080968 1_555
H6 Sc0 2.080984 1_555
H6 Sc2 2.081219 1_555
H7 Nb0 1.983710 1_555
H7 Zr0 2.076345 1_555
H7 Sc4 2.079915 1_555
H7 Sc3 2.079915 1_555
H8 Sc3 2.053399 1_655
H8 Sc4 2.053399 1_565
H8 Zr1 2.053774 1_555
H8 Sc2 2.055998 1_555
H9 Zr0 2.053358 1_655
H9 Sc0 2.054099 1_555
H9 Sc4 2.054104 1_556
H9 Zr1 2.055011 1_555
H10 Zr0 2.053358 1_565
H10 Sc1 2.054099 1_555
H10 Sc3 2.054104 1_556
H10 Zr1 2.055011 1_555
H11 Sc1 2.053399 1_655
H11 Sc0 2.053399 1_565
H11 Zr1 2.053763 1_555
H11 Sc2 2.056009 1_556
H12 Sc3 2.053399 1_556
H12 Sc4 2.053399 1_556
H12 Zr1 2.053774 1_555
H12 Sc2 2.055998 1_556
H13 Zr0 2.053358 1_565
H13 Sc0 2.054099 1_565
H13 Sc4 2.054104 1_565
H13 Zr1 2.055011 1_555
H14 Zr0 2.053358 1_655
H14 Sc1 2.054099 1_655
H14 Sc3 2.054104 1_655
H14 Zr1 2.055011 1_555
H15 Sc1 2.053399 1_555
H15 Sc0 2.053399 1_555
H15 Zr1 2.053763 1_555
H15 Sc2 2.056009 1_555
