# generated using pymatgen
data_Lu4As6IrRh6
_symmetry_space_group_name_H-M   'P 1'
_cell_length_a   7.16105189
_cell_length_b   7.16105210
_cell_length_c   7.16105117
_cell_angle_alpha   109.44776432
_cell_angle_beta   109.51814447
_cell_angle_gamma   109.44776283
_symmetry_Int_Tables_number   1
_chemical_formula_structural   Lu4As6IrRh6
_chemical_formula_sum   'Lu4 As6 Ir1 Rh6'
_cell_volume   282.68861935
_cell_formula_units_Z   1
loop_
 _symmetry_equiv_pos_site_id
 _symmetry_equiv_pos_as_xyz
  1  'x, y, z'
loop_
 _atom_site_type_symbol
 _atom_site_label
 _atom_site_symmetry_multiplicity
 _atom_site_fract_x
 _atom_site_fract_y
 _atom_site_fract_z
 _atom_site_occupancy
  Lu  Lu0  1  0.50008677  0.50000000  0.49991323  1
  Lu  Lu1  1  0.99991323  0.50000000  0.00008677  1
  Lu  Lu2  1  0.50008677  0.00017353  0.00008677  1
  Lu  Lu3  1  0.99991323  0.99982647  0.49991323  1
  As  As0  1  0.68282621  1.00000000  0.68282621  1
  As  As1  1  0.68213590  0.68309362  0.99904328  1
  As  As2  1  0.31594966  0.31690638  0.99904328  1
  As  As3  1  0.00095672  0.68309362  0.68405034  1
  As  As4  1  0.00095672  0.31690638  0.31786410  1
  As  As5  1  0.31717379  0.00000000  0.31717379  1
  Ir  Ir0  1  0.75000000  0.50000000  0.25000000  1
  Rh  Rh0  1  0.50041792  0.24985235  0.75027028  1
  Rh  Rh1  1  0.74943443  0.24985235  0.49958208  1
  Rh  Rh2  1  0.24972972  0.75014765  0.49958208  1
  Rh  Rh3  1  0.25000000  0.50000000  0.75000000  1
  Rh  Rh4  1  0.50041792  0.75014765  0.25056557  1
  Rh  Rh5  1  0.00000000  0.00000000  0.00000000  1
loop_
_geom_bond_atom_site_label_1
_geom_bond_atom_site_label_2
_geom_bond_distance
_geom_bond_site_symmetry_2
Lu0 Rh4 2.920116 1_555
Lu0 Rh1 2.920116 1_555
Lu0 Rh3 2.925348 1_555
Lu0 Rh0 2.926013 1_555
Lu0 Rh2 2.926013 1_555
Lu1 Rh2 2.920116 1_655
Lu1 Rh0 2.920116 1_554
Lu1 Rh3 2.925348 1_654
Lu1 Rh1 2.926013 1_554
Lu1 Rh4 2.926013 1_655
Lu2 Rh1 2.920116 1_555
Lu2 Rh0 2.920116 1_554
Lu2 Rh3 2.925348 1_544
Lu2 Rh2 2.926013 1_544
Lu2 Rh4 2.926013 1_545
Lu3 Rh2 2.920116 1_655
Lu3 Rh4 2.920116 1_555
Lu3 Rh3 2.925348 1_665
Lu3 Rh1 2.926013 1_565
Lu3 Rh0 2.926013 1_665
As0 Rh4 2.557964 1_555
As0 Rh0 2.557964 1_565
As0 Rh1 2.562041 1_565
As0 Rh2 2.562041 1_555
As0 Rh5 2.621150 1_666
As0 Lu2 2.976558 1_566
As0 Lu3 2.976558 1_555
As0 Lu1 2.976558 1_566
As0 Lu0 2.976558 1_555
As1 Rh3 2.555241 1_555
As1 Rh4 2.564073 1_556
As1 Rh0 2.564080 1_555
As1 Ir0 2.568001 1_556
As1 Rh5 2.621233 1_666
As1 Lu2 2.970132 1_566
As1 Lu0 2.970137 1_555
As1 Lu3 2.979854 1_556
As1 Lu1 2.979860 1_556
As2 Rh3 2.555247 1_555
As2 Rh0 2.564078 1_555
As2 Rh4 2.564079 1_556
As2 Ir0 2.568001 1_556
As2 Rh5 2.621228 1_556
As2 Lu3 2.970136 1_445
As2 Lu1 2.970137 1_456
As2 Lu0 2.979853 1_556
As2 Lu2 2.979853 1_556
As3 Rh3 2.555247 1_555
As3 Rh2 2.564078 1_555
As3 Rh1 2.564079 1_455
As3 Ir0 2.568000 1_455
As3 Rh5 2.621228 1_566
As3 Lu1 2.970136 1_456
As3 Lu2 2.970137 1_566
As3 Lu3 2.979853 1_455
As3 Lu0 2.979853 1_455
As4 Rh3 2.555241 1_555
As4 Rh1 2.564073 1_455
As4 Rh2 2.564080 1_555
As4 Ir0 2.568001 1_455
As4 Rh5 2.621232 1_555
As4 Lu3 2.970132 1_445
As4 Lu0 2.970137 1_555
As4 Lu2 2.979854 1_455
As4 Lu1 2.979860 1_455
As5 Rh2 2.557964 1_545
As5 Rh1 2.557964 1_555
As5 Rh0 2.562041 1_555
As5 Rh4 2.562041 1_545
As5 Rh5 2.621150 1_555
As5 Lu2 2.976558 1_555
As5 Lu3 2.976558 1_445
As5 Lu1 2.976558 1_445
As5 Lu0 2.976558 1_555
Ir0 Rh0 2.921488 1_554
Ir0 Rh1 2.921489 1_555
Ir0 Rh4 2.921489 1_555
Ir0 Rh2 2.921489 1_655
Ir0 Lu1 2.923318 1_555
Ir0 Lu0 2.923318 1_555
Ir0 Lu3 2.923319 1_555
Ir0 Lu2 2.923319 1_555
