# generated using pymatgen
data_Zr10Sn5GeSb
_symmetry_space_group_name_H-M   'P 1'
_cell_length_a   5.88102877
_cell_length_b   8.59829523
_cell_length_c   8.59035778
_cell_angle_alpha   120.03058316
_cell_angle_beta   89.92166102
_cell_angle_gamma   90.15652941
_symmetry_Int_Tables_number   1
_chemical_formula_structural   Zr10Sn5GeSb
_chemical_formula_sum   'Zr10 Sn5 Ge1 Sb1'
_cell_volume   376.07286438
_cell_formula_units_Z   1
loop_
 _symmetry_equiv_pos_site_id
 _symmetry_equiv_pos_as_xyz
  1  'x, y, z'
loop_
 _atom_site_type_symbol
 _atom_site_label
 _atom_site_symmetry_multiplicity
 _atom_site_fract_x
 _atom_site_fract_y
 _atom_site_fract_z
 _atom_site_occupancy
  Zr  Zr0  1  0.50000134  0.33457998  0.66789152  1
  Zr  Zr1  1  0.50000134  0.66668946  0.33210848  1
  Zr  Zr2  1  0.00062058  0.66644065  0.33274834  1
  Zr  Zr3  1  0.00062058  0.33369131  0.66725166  1
  Zr  Zr4  1  0.75960352  0.25632379  1.00000000  1
  Zr  Zr5  1  0.75992331  0.74501545  0.74476179  1
  Zr  Zr6  1  0.75992331  0.00025266  0.25523821  1
  Zr  Zr7  1  0.24176861  0.74269630  0.00000000  1
  Zr  Zr8  1  0.23915468  0.25534568  0.25579101  1
  Zr  Zr9  1  0.23915468  0.99955567  0.74420899  1
  Sn  Sn0  1  0.74629315  0.39193017  0.39198771  1
  Sn  Sn1  1  0.74629315  0.99994147  0.60801229  1
  Sn  Sn2  1  0.25314656  0.38921737  1.00000000  1
  Sn  Sn3  1  0.25290957  0.60839798  0.60779435  1
  Sn  Sn4  1  0.25290957  0.00060363  0.39220565  1
  Ge  Ge0  1  0.49907690  0.00037756  0.00000000  1
  Sb  Sb0  1  0.74859617  0.60894086  1.00000000  1
loop_
_geom_bond_atom_site_label_1
_geom_bond_atom_site_label_2
_geom_bond_distance
_geom_bond_site_symmetry_2
Sn0 Zr6 2.961346 1_555
Sn0 Zr4 2.962156 1_554
Sn0 Zr0 3.019127 1_555
Sn0 Zr1 3.029998 1_555
Sn0 Zr5 3.032745 1_555
Sn0 Zr2 3.041069 1_655
Sn0 Zr3 3.046023 1_655
Sn0 Zr8 3.127872 1_655
Sn0 Zr8 3.202882 1_555
Sn1 Zr5 2.961331 1_555
Sn1 Zr4 2.962157 1_565
Sn1 Zr1 3.019117 1_555
Sn1 Zr0 3.029998 1_565
Sn1 Zr6 3.032745 1_565
Sn1 Zr3 3.041069 1_665
Sn1 Zr2 3.046013 1_655
Sn1 Zr9 3.127869 1_655
Sn1 Zr9 3.202879 1_555
Sn2 Zr9 2.947980 1_545
Sn2 Zr8 2.947987 1_556
Sn2 Zr0 3.019670 1_555
Sn2 Zr1 3.019673 1_556
Sn2 Zr7 3.040235 1_556
Sn2 Zr3 3.040704 1_555
Sn2 Zr2 3.040706 1_556
Sn2 Zr4 3.116455 1_455
Sn2 Zr4 3.193063 1_555
Sn3 Zr9 2.957669 1_555
Sn3 Zr7 2.965606 1_556
Sn3 Zr1 3.024254 1_555
Sn3 Zr0 3.026310 1_555
Sn3 Zr8 3.029327 1_555
Sn3 Zr2 3.037588 1_555
Sn3 Zr3 3.037712 1_555
Sn3 Zr5 3.129836 1_455
Sn3 Zr5 3.203469 1_555
Sn4 Zr8 2.957661 1_555
Sn4 Zr7 2.965606 1_545
Sn4 Zr0 3.024249 1_555
Sn4 Zr1 3.026302 1_545
Sn4 Zr9 3.029323 1_545
Sn4 Zr3 3.037582 1_555
Sn4 Zr2 3.037705 1_545
Sn4 Zr6 3.129835 1_455
Sn4 Zr6 3.203467 1_555
Ge0 Zr8 2.675546 1_555
Ge0 Zr9 2.675550 1_544
Ge0 Zr4 2.678095 1_554
Ge0 Zr5 2.678111 1_544
Ge0 Zr6 2.678115 1_555
Ge0 Zr7 2.679653 1_545
Sb0 Zr6 2.957643 1_566
Sb0 Zr5 2.957650 1_555
Sb0 Zr1 3.016264 1_556
Sb0 Zr0 3.016266 1_555
Sb0 Zr4 3.032774 1_555
Sb0 Zr2 3.033960 1_656
Sb0 Zr3 3.033962 1_655
Sb0 Zr7 3.117135 1_656
Sb0 Zr7 3.197775 1_556
