# generated using pymatgen
data_HoZrSb
_symmetry_space_group_name_H-M   'P 1'
_cell_length_a   4.26123270
_cell_length_b   4.26123272
_cell_length_c   8.80945708
_cell_angle_alpha   103.98829462
_cell_angle_beta   103.98829488
_cell_angle_gamma   89.98597316
_symmetry_Int_Tables_number   1
_chemical_formula_structural   HoZrSb
_chemical_formula_sum   'Ho2 Zr2 Sb2'
_cell_volume   150.32848574
_cell_formula_units_Z   2
loop_
 _symmetry_equiv_pos_site_id
 _symmetry_equiv_pos_as_xyz
  1  'x, y, z'
loop_
 _atom_site_type_symbol
 _atom_site_label
 _atom_site_symmetry_multiplicity
 _atom_site_fract_x
 _atom_site_fract_y
 _atom_site_fract_z
 _atom_site_occupancy
  Ho  Ho0  1  0.67618454  0.67618451  0.35247348  1
  Ho  Ho1  1  0.32381548  0.32381548  0.64752652  1
  Zr  Zr0  1  -0.00000004  0.50000001  -0.00000000  1
  Zr  Zr1  1  0.50000002  0.00000001  -0.00000000  1
  Sb  Sb0  1  0.13362003  0.13362008  0.26802963  1
  Sb  Sb1  1  0.86637997  0.86637991  0.73197037  1
loop_
_geom_bond_atom_site_label_1
_geom_bond_atom_site_label_2
_geom_bond_distance
_geom_bond_site_symmetry_2
Ho0 Sb0 3.091337 1_665
Ho0 Sb0 3.092826 1_655
Ho0 Sb0 3.092826 1_565
Ho0 Sb0 3.095751 1_555
Ho0 Sb1 3.141806 1_555
Ho1 Sb1 3.091337 1_445
Ho1 Sb1 3.092826 1_455
Ho1 Sb1 3.092826 1_545
Ho1 Sb1 3.095751 1_555
Ho1 Sb0 3.141806 1_555
Sb0 Zr1 3.075412 1_455
Sb0 Zr0 3.075412 1_545
Sb0 Zr0 3.077118 1_555
Sb0 Zr1 3.077118 1_555
Sb1 Zr1 3.075412 1_666
Sb1 Zr0 3.075412 1_666
Sb1 Zr0 3.077117 1_656
Sb1 Zr1 3.077118 1_566
