# generated using pymatgen
data_BaNa5TaAs4
_symmetry_space_group_name_H-M   'P 1'
_cell_length_a   9.54336169
_cell_length_b   9.54336277
_cell_length_c   7.75737708
_cell_angle_alpha   89.57278911
_cell_angle_beta   89.57279008
_cell_angle_gamma   119.32661011
_symmetry_Int_Tables_number   1
_chemical_formula_structural   BaNa5TaAs4
_chemical_formula_sum   'Ba2 Na10 Ta2 As8'
_cell_volume   615.89705256
_cell_formula_units_Z   2
loop_
 _symmetry_equiv_pos_site_id
 _symmetry_equiv_pos_as_xyz
  1  'x, y, z'
loop_
 _atom_site_type_symbol
 _atom_site_label
 _atom_site_symmetry_multiplicity
 _atom_site_fract_x
 _atom_site_fract_y
 _atom_site_fract_z
 _atom_site_occupancy
  Ba  Ba0  1  0.53321406  0.06761511  0.60662841  1
  Ba  Ba1  1  0.06761511  0.53321406  0.10662841  1
  Na  Na0  1  0.53865792  0.47841958  0.61745579  1
  Na  Na1  1  0.93593517  0.47434488  0.61047752  1
  Na  Na2  1  0.47841958  0.53865792  0.11745579  1
  Na  Na3  1  0.47434488  0.93593517  0.11047752  1
  Na  Na4  1  0.13124377  0.85419255  0.77501061  1
  Na  Na5  1  0.70906344  0.84669647  0.78780645  1
  Na  Na6  1  0.14937908  0.29012084  0.77318532  1
  Na  Na7  1  0.85419255  0.13124377  0.27501061  1
  Na  Na8  1  0.29012084  0.14937908  0.27318532  1
  Na  Na9  1  0.84669647  0.70906344  0.28780645  1
  Ta  Ta0  1  0.33232818  0.65958374  0.50238652  1
  Ta  Ta1  1  0.65958374  0.33232818  0.00238652  1
  As  As0  1  0.80711443  0.18870518  0.90380858  1
  As  As1  1  0.37812909  0.19106537  0.90630432  1
  As  As2  1  0.80364380  0.61357941  0.89372326  1
  As  As3  1  0.18870518  0.80711443  0.40380858  1
  As  As4  1  0.61357941  0.80364380  0.39372326  1
  As  As5  1  0.19106537  0.37812909  0.40630432  1
  As  As6  1  0.34468952  0.67227938  0.82031222  1
  As  As7  1  0.67227938  0.34468952  0.32031222  1
loop_
_geom_bond_atom_site_label_1
_geom_bond_atom_site_label_2
_geom_bond_distance
_geom_bond_site_symmetry_2
Na0 Ta0 3.316814 1_555
Na2 Ta1 3.316814 1_555
As0 Ta1 2.517078 1_556
As0 Na7 3.005244 1_556
As0 Na5 3.066444 1_545
As0 Na6 3.077633 1_655
As0 Ba0 3.263933 1_555
As0 Na1 3.271551 1_555
As0 Na3 3.291929 1_546
As0 Ba1 3.405022 1_656
As1 Ta1 2.466862 1_556
As1 Na8 2.929806 1_556
As1 Na6 2.960790 1_555
As1 Na4 3.096586 1_545
As1 Na0 3.260350 1_555
As1 Ba0 3.268073 1_555
As1 Na3 3.381444 1_546
As1 Na2 3.405466 1_556
As2 Ta1 2.477741 1_556
As2 Na5 2.896555 1_555
As2 Na4 2.964523 1_655
As2 Na0 3.094927 1_555
As2 Na1 3.135745 1_555
As2 Na9 3.168321 1_556
As2 Na2 3.299080 1_556
As2 Ba1 3.405580 1_656
As3 Ta0 2.517078 1_555
As3 Na4 3.005244 1_555
As3 Na9 3.066443 1_455
As3 Na8 3.077634 1_565
As3 Ba1 3.263933 1_555
As3 Na3 3.271551 1_555
As3 Na1 3.291929 1_455
As3 Ba0 3.405022 1_565
As4 Ta0 2.477741 1_555
As4 Na9 2.896555 1_555
As4 Na7 2.964523 1_565
As4 Na2 3.094927 1_555
As4 Na3 3.135745 1_555
As4 Na5 3.168321 1_555
As4 Na0 3.299080 1_555
As4 Ba0 3.405581 1_565
As5 Ta0 2.466862 1_555
As5 Na6 2.929806 1_555
As5 Na8 2.960791 1_555
As5 Na7 3.096586 1_455
As5 Na2 3.260350 1_555
As5 Ba1 3.268073 1_555
As5 Na1 3.381444 1_455
As5 Na0 3.405466 1_555
As6 Ta0 2.471007 1_555
As6 Na5 3.039236 1_555
As6 Na3 3.163063 1_556
As6 Ba1 3.180757 1_556
As6 Na2 3.187856 1_556
As6 Na6 3.206252 1_555
As6 Na4 3.279090 1_555
As7 Ta1 2.471007 1_555
As7 Na9 3.039236 1_555
As7 Na1 3.163063 1_555
As7 Ba0 3.180757 1_555
As7 Na0 3.187856 1_555
As7 Na8 3.206252 1_555
As7 Na7 3.279090 1_555
