# generated using pymatgen
data_Nb3Cu2SnN
_symmetry_space_group_name_H-M   'P 1'
_cell_length_a   8.32338603
_cell_length_b   8.32338680
_cell_length_c   8.32338603
_cell_angle_alpha   120.00000086
_cell_angle_beta   90.00000000
_cell_angle_gamma   120.00000086
_symmetry_Int_Tables_number   1
_chemical_formula_structural   Nb3Cu2SnN
_chemical_formula_sum   'Nb12 Cu8 Sn4 N4'
_cell_volume   407.74171303
_cell_formula_units_Z   4
loop_
 _symmetry_equiv_pos_site_id
 _symmetry_equiv_pos_as_xyz
  1  'x, y, z'
loop_
 _atom_site_type_symbol
 _atom_site_label
 _atom_site_symmetry_multiplicity
 _atom_site_fract_x
 _atom_site_fract_y
 _atom_site_fract_z
 _atom_site_occupancy
  Nb  Nb0  1  0.30592800  0.75000100  0.19407200  1
  Nb  Nb1  1  0.94407300  0.38814400  0.19407200  1
  Nb  Nb2  1  0.94407300  0.75000100  0.19407200  1
  Nb  Nb3  1  0.69407300  0.88814400  0.44407200  1
  Nb  Nb4  1  0.69407300  0.25000100  0.44407200  1
  Nb  Nb5  1  0.05592900  0.25000100  0.44407300  1
  Nb  Nb6  1  0.30592800  0.11185600  0.55592900  1
  Nb  Nb7  1  0.30592800  0.75000100  0.55592900  1
  Nb  Nb8  1  0.94407300  0.75000100  0.55592900  1
  Nb  Nb9  1  0.69407300  0.25000100  0.80592900  1
  Nb  Nb10  1  0.05592800  0.61185600  0.80592900  1
  Nb  Nb11  1  0.05592800  0.25000100  0.80592900  1
  Cu  Cu0  1  0.70938728  0.91877256  0.12816085  1
  Cu  Cu1  1  0.29061272  0.08122644  0.20938728  1
  Cu  Cu2  1  0.29061272  0.41877356  0.20938728  1
  Cu  Cu3  1  0.62816085  0.41877356  0.20938728  1
  Cu  Cu4  1  0.70938728  0.58122644  0.79061272  1
  Cu  Cu5  1  0.70938728  0.91877256  0.79061272  1
  Cu  Cu6  1  0.37183915  0.58122644  0.79061272  1
  Cu  Cu7  1  0.29061272  0.08122644  0.87183915  1
  Sn  Sn0  1  0.00000000  0.00000000  0.00000000  1
  Sn  Sn1  1  0.50000000  0.00000000  0.00000000  1
  Sn  Sn2  1  0.50000000  0.50000000  0.00000000  1
  Sn  Sn3  1  0.50000000  0.50000000  0.50000000  1
  N  N0  1  0.00000000  0.50000000  0.00000000  1
  N  N1  1  0.00000000  0.00000000  0.50000000  1
  N  N2  1  0.50000000  0.00000000  0.50000000  1
  N  N3  1  0.00000000  0.50000000  0.50000000  1
loop_
_geom_bond_atom_site_label_1
_geom_bond_atom_site_label_2
_geom_bond_distance
_geom_bond_site_symmetry_2
Nb0 Sn1 3.090066 1_565
Nb0 Sn2 3.090078 1_555
Nb1 Sn0 3.090066 1_655
Nb1 Sn1 3.090077 1_555
Nb2 Sn0 3.090066 1_665
Nb2 Sn2 3.090077 1_555
Nb3 Sn2 3.090072 1_555
Nb3 Sn3 3.090072 1_555
Nb4 Sn1 3.090072 1_555
Nb4 Sn3 3.090072 1_555
Nb5 Sn3 3.090066 1_555
Nb5 Sn0 3.090077 1_555
Nb6 Sn2 3.090066 1_556
Nb6 Sn3 3.090078 1_555
Nb7 Sn1 3.090066 1_566
Nb7 Sn3 3.090078 1_555
Nb8 Sn0 3.090066 1_666
Nb8 Sn3 3.090077 1_555
Nb9 Sn2 3.090072 1_556
Nb9 Sn1 3.090072 1_556
Nb10 Sn1 3.090072 1_566
Nb10 Sn0 3.090072 1_566
Nb11 Sn2 3.090072 1_556
Nb11 Sn0 3.090072 1_556
Cu0 Sn2 2.555738 1_555
Cu0 Sn0 2.555744 1_665
Cu0 Sn1 2.555758 1_565
Cu0 Nb3 2.762804 1_555
Cu0 Nb5 2.762817 1_665
Cu0 Nb4 2.762818 1_565
Cu0 Cu4 2.809535 1_554
Cu0 Cu6 2.809543 1_554
Cu0 Cu5 2.809543 1_554
Cu0 Nb2 3.099137 1_555
Cu0 Nb0 3.099151 1_555
Cu0 Nb1 3.099158 1_565
Cu1 Sn0 2.555744 1_555
Cu1 Sn3 2.555745 1_555
Cu1 Sn1 2.555751 1_555
Cu1 Nb2 2.762801 1_445
Cu1 Nb0 2.762805 1_545
Cu1 Nb6 2.762817 1_555
Cu1 Cu2 2.809535 1_555
Cu1 Cu3 2.809539 1_555
Cu1 Cu7 2.809543 1_554
Cu1 Nb5 3.099144 1_555
Cu1 Nb10 3.099147 1_544
Cu1 Nb4 3.099155 1_555
Cu2 Sn3 2.555744 1_555
Cu2 Sn0 2.555745 1_555
Cu2 Sn2 2.555751 1_555
Cu2 Nb1 2.762801 1_455
Cu2 Nb7 2.762817 1_555
Cu2 Nb0 2.762822 1_555
Cu2 Cu7 2.809539 1_554
Cu2 Cu3 2.809543 1_555
Cu2 Nb5 3.099144 1_555
Cu2 Nb11 3.099147 1_554
Cu2 Nb3 3.099155 1_555
Cu3 Sn3 2.555744 1_555
Cu3 Sn1 2.555745 1_555
Cu3 Sn2 2.555751 1_555
Cu3 Nb8 2.762817 1_555
Cu3 Nb1 2.762817 1_555
Cu3 Nb2 2.762822 1_555
Cu3 Cu7 2.809543 1_554
Cu3 Nb4 3.099140 1_555
Cu3 Nb9 3.099147 1_554
Cu3 Nb3 3.099147 1_555
Cu4 Sn3 2.555744 1_555
Cu4 Sn0 2.555745 1_666
Cu4 Sn2 2.555751 1_556
Cu4 Nb10 2.762809 1_655
Cu4 Nb4 2.762809 1_555
Cu4 Nb9 2.762814 1_555
Cu4 Cu5 2.809527 1_555
Cu4 Cu6 2.809543 1_555
Cu4 Nb8 3.099144 1_555
Cu4 Nb2 3.099151 1_556
Cu4 Nb6 3.099151 1_555
Cu5 Sn0 2.555740 1_666
Cu5 Sn3 2.555740 1_555
Cu5 Sn1 2.555753 1_566
Cu5 Nb3 2.762813 1_555
Cu5 Nb11 2.762813 1_665
Cu5 Nb9 2.762822 1_565
Cu5 Cu6 2.809535 1_555
Cu5 Nb8 3.099140 1_555
Cu5 Nb7 3.099154 1_555
Cu5 Nb1 3.099154 1_566
Cu6 Sn3 2.555744 1_555
Cu6 Sn1 2.555745 1_566
Cu6 Sn2 2.555751 1_556
Cu6 Nb5 2.762800 1_555
Cu6 Nb10 2.762809 1_555
Cu6 Nb11 2.762814 1_555
Cu6 Nb7 3.099144 1_555
Cu6 Nb0 3.099151 1_556
Cu6 Nb6 3.099151 1_555
Cu7 Sn0 2.555744 1_556
Cu7 Sn2 2.555745 1_556
Cu7 Sn1 2.555751 1_556
Cu7 Nb8 2.762800 1_445
Cu7 Nb6 2.762801 1_555
Cu7 Nb7 2.762805 1_545
Cu7 Nb11 3.099148 1_555
Cu7 Nb9 3.099155 1_555
Cu7 Nb10 3.099155 1_545
N0 Nb9 2.182496 1_454
N0 Nb10 2.182496 1_554
N0 Nb11 2.182496 1_554
N0 Nb0 2.182504 1_555
N0 Nb1 2.182504 1_455
N0 Nb2 2.182504 1_455
N1 Nb3 2.182496 1_445
N1 Nb6 2.182504 1_555
N1 Nb2 2.182504 1_445
N1 Nb8 2.182504 1_445
N1 Nb5 2.182504 1_555
N1 Nb11 2.182512 1_555
N2 Nb0 2.182504 1_545
N2 Nb6 2.182504 1_555
N2 Nb7 2.182504 1_545
N2 Nb9 2.182511 1_555
N2 Nb3 2.182512 1_545
N2 Nb4 2.182512 1_555
N3 Nb4 2.182496 1_455
N3 Nb1 2.182504 1_455
N3 Nb7 2.182504 1_555
N3 Nb5 2.182504 1_555
N3 Nb8 2.182504 1_455
N3 Nb10 2.182511 1_555
