# generated using pymatgen
data_Y6Ni3Ir14Rh
_symmetry_space_group_name_H-M   'P 1'
_cell_length_a   5.26405125
_cell_length_b   5.26405086
_cell_length_c   16.96723192
_cell_angle_alpha   90.00000000
_cell_angle_beta   90.00000000
_cell_angle_gamma   120.00009321
_symmetry_Int_Tables_number   1
_chemical_formula_structural   Y6Ni3Ir14Rh
_chemical_formula_sum   'Y6 Ni3 Ir14 Rh1'
_cell_volume   407.17528194
_cell_formula_units_Z   1
loop_
 _symmetry_equiv_pos_site_id
 _symmetry_equiv_pos_as_xyz
  1  'x, y, z'
loop_
 _atom_site_type_symbol
 _atom_site_label
 _atom_site_symmetry_multiplicity
 _atom_site_fract_x
 _atom_site_fract_y
 _atom_site_fract_z
 _atom_site_occupancy
  Y  Y0  1  0.33333300  0.66666700  0.96111149  1
  Y  Y1  1  0.66666700  0.33333400  0.04296830  1
  Y  Y2  1  0.66666700  0.33333400  0.45703170  1
  Y  Y3  1  0.33333300  0.66666700  0.53888851  1
  Y  Y4  1  0.33333300  0.66666700  0.75000000  1
  Y  Y5  1  0.66666700  0.33333300  0.25000000  1
  Ni  Ni0  1  0.33333400  0.66666700  0.25000000  1
  Ni  Ni1  1  0.66666700  0.33333300  0.75000000  1
  Ni  Ni2  1  0.00000000  0.99999900  0.25000000  1
  Ir  Ir0  1  0.16805424  0.83194576  0.36803858  1
  Ir  Ir1  1  0.16805424  0.33610848  0.36803858  1
  Ir  Ir2  1  0.66389152  0.83194476  0.36803858  1
  Ir  Ir3  1  0.83096534  0.16903466  0.62649835  1
  Ir  Ir4  1  0.83096534  0.66193168  0.62649835  1
  Ir  Ir5  1  0.33806832  0.16903366  0.62649835  1
  Ir  Ir6  1  0.83096534  0.16903466  0.87350165  1
  Ir  Ir7  1  0.83096534  0.66193168  0.87350165  1
  Ir  Ir8  1  0.33806832  0.16903366  0.87350165  1
  Ir  Ir9  1  0.16805424  0.83194576  0.13196142  1
  Ir  Ir10  1  0.16805424  0.33610848  0.13196142  1
  Ir  Ir11  1  0.66389152  0.83194476  0.13196142  1
  Ir  Ir12  1  0.00000000  0.00000000  0.49723601  1
  Ir  Ir13  1  0.00000000  0.00000000  0.00276399  1
  Rh  Rh0  1  0.99999900  0.00000000  0.75000000  1
loop_
_geom_bond_atom_site_label_1
_geom_bond_atom_site_label_2
_geom_bond_distance
_geom_bond_site_symmetry_2
Ni0 Y5 3.039195 1_565
Ni0 Y5 3.039200 1_455
Ni0 Y5 3.039204 1_555
Ni1 Rh0 3.039195 1_555
Ni1 Y4 3.039195 1_545
Ni1 Y4 3.039196 1_655
Ni1 Rh0 3.039200 1_565
Ni1 Rh0 3.039205 1_455
Ni1 Y4 3.039209 1_555
Ni2 Y5 3.039195 1_455
Ni2 Y5 3.039200 1_565
Ni2 Y5 3.039204 1_465
Ir0 Ni0 2.506404 1_555
Ir0 Ni2 2.521695 1_555
Ir0 Ir1 2.610113 1_555
Ir0 Ir2 2.610115 1_555
Ir0 Ir2 2.653936 1_455
Ir0 Ir1 2.653938 1_565
Ir0 Ir12 2.674547 1_565
Ir0 Y2 3.034417 1_455
Ir0 Y2 3.034421 1_565
Ir0 Y3 3.267143 1_555
Ir0 Y5 3.307395 1_565
Ir0 Y5 3.307395 1_455
Ir1 Ni0 2.506403 1_555
Ir1 Ni2 2.521699 1_545
Ir1 Ir2 2.610106 1_555
Ir1 Ir2 2.653937 1_445
Ir1 Ir12 2.674546 1_555
Ir1 Y2 3.034422 1_455
Ir1 Y2 3.034422 1_555
Ir1 Y3 3.267144 1_555
Ir1 Y5 3.307395 1_455
Ir1 Y5 3.307400 1_555
Ir2 Ni0 2.506400 1_555
Ir2 Ni2 2.521696 1_655
Ir2 Y2 3.034415 1_555
Ir2 Y2 3.034429 1_565
Ir2 Y3 3.267144 1_555
Ir2 Y5 3.307395 1_555
Ir2 Y5 3.307400 1_565
Ir3 Ni1 2.575863 1_555
Ir3 Ir5 2.594633 1_555
Ir3 Ir4 2.594635 1_555
Ir3 Rh0 2.601211 1_555
Ir3 Ir4 2.669416 1_545
Ir3 Ir5 2.669419 1_655
Ir3 Y3 3.022859 1_545
Ir3 Y3 3.022859 1_655
Ir3 Y2 3.242198 1_555
Ir3 Y4 3.364379 1_545
Ir3 Y4 3.364379 1_655
Ir4 Ni1 2.575867 1_555
Ir4 Ir5 2.594634 1_555
Ir4 Rh0 2.601210 1_565
Ir4 Ir5 2.669410 1_665
Ir4 Y3 3.022862 1_655
Ir4 Y3 3.022862 1_555
Ir4 Y2 3.242197 1_555
Ir4 Y4 3.364382 1_655
Ir4 Y4 3.364382 1_555
Ir5 Ni1 2.575867 1_555
Ir5 Rh0 2.601213 1_455
Ir5 Y3 3.022857 1_545
Ir5 Y3 3.022867 1_555
Ir5 Y2 3.242200 1_555
Ir5 Y4 3.364378 1_545
Ir5 Y4 3.364386 1_555
Ir6 Ni1 2.575863 1_555
Ir6 Ir8 2.594633 1_555
Ir6 Ir7 2.594635 1_555
Ir6 Rh0 2.601211 1_555
Ir6 Ir7 2.669416 1_545
Ir6 Ir8 2.669419 1_655
Ir6 Y0 3.022859 1_545
Ir6 Y0 3.022859 1_655
Ir6 Y1 3.242198 1_556
Ir6 Y4 3.364379 1_545
Ir6 Y4 3.364379 1_655
Ir7 Ni1 2.575867 1_555
Ir7 Ir8 2.594634 1_555
Ir7 Rh0 2.601210 1_565
Ir7 Ir8 2.669410 1_665
Ir7 Y0 3.022862 1_655
Ir7 Y0 3.022862 1_555
Ir7 Y1 3.242197 1_556
Ir7 Y4 3.364382 1_655
Ir7 Y4 3.364382 1_555
Ir8 Ni1 2.575867 1_555
Ir8 Rh0 2.601213 1_455
Ir8 Y0 3.022857 1_545
Ir8 Y0 3.022867 1_555
Ir8 Y1 3.242200 1_556
Ir8 Y4 3.364378 1_545
Ir8 Y4 3.364386 1_555
Ir9 Ni0 2.506404 1_555
Ir9 Ni2 2.521695 1_555
Ir9 Y1 3.034417 1_455
Ir9 Y1 3.034421 1_565
Ir9 Y0 3.267143 1_554
Ir9 Y5 3.307395 1_565
Ir9 Y5 3.307395 1_455
Ir10 Ni0 2.506403 1_555
Ir10 Ni2 2.521699 1_545
Ir10 Ir11 2.610106 1_555
Ir10 Ir9 2.610113 1_555
Ir10 Ir11 2.653937 1_445
Ir10 Ir9 2.653938 1_545
Ir10 Ir13 2.674546 1_555
Ir10 Y1 3.034422 1_455
Ir10 Y1 3.034422 1_555
Ir10 Y0 3.267144 1_554
Ir10 Y5 3.307395 1_455
Ir10 Y5 3.307400 1_555
Ir11 Ni0 2.506400 1_555
Ir11 Ni2 2.521696 1_655
Ir11 Ir9 2.610115 1_555
Ir11 Ir9 2.653936 1_655
Ir11 Ir13 2.674546 1_665
Ir11 Y1 3.034415 1_555
Ir11 Y1 3.034429 1_565
Ir11 Y0 3.267144 1_554
Ir11 Y5 3.307395 1_555
Ir11 Y5 3.307400 1_565
Ir12 Ir2 2.674546 1_445
Ir12 Ir4 2.680575 1_445
Ir12 Ir5 2.680575 1_555
Ir12 Ir3 2.680579 1_455
Ir12 Y2 3.114811 1_445
Ir12 Y2 3.114815 1_555
Ir12 Y2 3.114819 1_455
Ir12 Y3 3.120288 1_545
Ir12 Y3 3.120288 1_555
Ir12 Y3 3.120289 1_445
Ir13 Ir9 2.674547 1_545
Ir13 Ir7 2.680575 1_444
Ir13 Ir8 2.680575 1_554
Ir13 Ir6 2.680579 1_454
Ir13 Y1 3.114811 1_445
Ir13 Y1 3.114815 1_555
Ir13 Y1 3.114819 1_455
Ir13 Y0 3.120288 1_544
Ir13 Y0 3.120288 1_554
Ir13 Y0 3.120289 1_444
Rh0 Y4 3.039196 1_545
Rh0 Y4 3.039200 1_655
Rh0 Y4 3.039204 1_645
