# generated using pymatgen
data_Cs4Rb3(BPt)12
_symmetry_space_group_name_H-M   'P 1'
_cell_length_a   9.48681410
_cell_length_b   9.48681407
_cell_length_c   9.48681351
_cell_angle_alpha   112.05760650
_cell_angle_beta   112.05761353
_cell_angle_gamma   112.05761812
_symmetry_Int_Tables_number   1
_chemical_formula_structural   Cs4Rb3(BPt)12
_chemical_formula_sum   'Cs4 Rb3 B12 Pt12'
_cell_volume   585.95747236
_cell_formula_units_Z   1
loop_
 _symmetry_equiv_pos_site_id
 _symmetry_equiv_pos_as_xyz
  1  'x, y, z'
loop_
 _atom_site_type_symbol
 _atom_site_label
 _atom_site_symmetry_multiplicity
 _atom_site_fract_x
 _atom_site_fract_y
 _atom_site_fract_z
 _atom_site_occupancy
  Cs  Cs0  1  0.25202437  0.99838592  0.25202437  1
  Cs  Cs1  1  0.99838592  0.25202437  0.25202437  1
  Cs  Cs2  1  0.25202437  0.25202437  0.99838592  1
  Cs  Cs3  1  0.51791059  0.51791059  0.51791059  1
  Rb  Rb0  1  0.00639784  0.71993028  0.71993028  1
  Rb  Rb1  1  0.71993028  0.71993028  0.00639784  1
  Rb  Rb2  1  0.71993028  0.00639784  0.71993028  1
  B  B0  1  0.27589082  0.72562484  0.50085745  1
  B  B1  1  0.72562484  0.50085745  0.27589082  1
  B  B2  1  0.50085745  0.27589082  0.72562484  1
  B  B3  1  0.72562484  0.27589082  0.50085745  1
  B  B4  1  0.27589082  0.50085745  0.72562484  1
  B  B5  1  0.50085745  0.72562484  0.27589082  1
  B  B6  1  0.05640156  0.94485763  0.50298352  1
  B  B7  1  0.94485763  0.50298352  0.05640156  1
  B  B8  1  0.50298352  0.05640156  0.94485763  1
  B  B9  1  0.94485763  0.05640156  0.50298352  1
  B  B10  1  0.05640156  0.50298352  0.94485763  1
  B  B11  1  0.50298352  0.94485763  0.05640156  1
  Pt  Pt0  1  0.67440462  0.32767810  0.00073448  1
  Pt  Pt1  1  0.32767810  0.00073448  0.67440462  1
  Pt  Pt2  1  0.00073448  0.67440462  0.32767810  1
  Pt  Pt3  1  0.32767810  0.67440462  0.00073448  1
  Pt  Pt4  1  0.67440462  0.00073448  0.32767810  1
  Pt  Pt5  1  0.00073448  0.32767810  0.67440462  1
  Pt  Pt6  1  0.64178400  0.25446981  0.25446981  1
  Pt  Pt7  1  0.25446981  0.25446981  0.64178400  1
  Pt  Pt8  1  0.25446981  0.64178400  0.25446981  1
  Pt  Pt9  1  0.74856781  0.36667210  0.74856781  1
  Pt  Pt10  1  0.36667210  0.74856781  0.74856781  1
  Pt  Pt11  1  0.74856781  0.74856781  0.36667210  1
loop_
_geom_bond_atom_site_label_1
_geom_bond_atom_site_label_2
_geom_bond_distance
_geom_bond_site_symmetry_2
Cs0 Pt8 3.400495 1_555
Cs0 Cs3 3.682787 1_565
Cs1 Pt6 3.400495 1_555
Cs1 Cs3 3.682787 1_655
Cs2 Pt7 3.400495 1_555
Cs2 Cs3 3.682787 1_556
Cs3 Rb1 3.566740 1_556
Cs3 Rb0 3.566740 1_655
Cs3 Rb2 3.566740 1_565
Cs3 Pt11 3.571388 1_555
Cs3 Pt9 3.571389 1_555
Cs3 Pt10 3.571389 1_555
Cs3 Pt7 3.686960 1_555
Cs3 Pt8 3.686960 1_555
Cs3 Pt6 3.686960 1_555
B0 Pt8 2.064701 1_555
B0 Pt10 2.065542 1_555
B0 Pt1 2.228391 1_565
B0 Pt2 2.230674 1_555
B0 Rb2 3.162060 1_565
B0 Cs1 3.342491 1_455
B0 Cs3 3.541106 1_555
B1 Pt6 2.064701 1_555
B1 Pt11 2.065542 1_555
B1 Pt2 2.228391 1_655
B1 Pt0 2.230674 1_555
B1 Rb0 3.162060 1_655
B1 Cs2 3.342491 1_554
B1 Cs3 3.541106 1_555
B2 Pt7 2.064701 1_555
B2 Pt9 2.065542 1_555
B2 Pt0 2.228391 1_556
B2 Pt1 2.230674 1_555
B2 Rb1 3.162060 1_556
B2 Cs0 3.342491 1_545
B2 Cs3 3.541106 1_555
B3 Pt6 2.064701 1_555
B3 Pt9 2.065542 1_555
B3 Pt5 2.228391 1_655
B3 Pt4 2.230675 1_555
B3 Rb0 3.162060 1_655
B3 Cs0 3.342491 1_545
B3 Cs3 3.541106 1_555
B4 Pt7 2.064701 1_555
B4 Pt10 2.065542 1_555
B4 Pt3 2.228391 1_556
B4 Pt5 2.230674 1_555
B4 Rb1 3.162060 1_556
B4 Cs1 3.342491 1_455
B4 Cs3 3.541106 1_555
B5 Pt8 2.064701 1_555
B5 Pt11 2.065542 1_555
B5 Pt4 2.228391 1_565
B5 Pt3 2.230674 1_555
B5 Rb2 3.162060 1_565
B5 Cs2 3.342491 1_554
B5 Cs3 3.541106 1_555
B6 B9 1.755164 1_465
B6 Pt1 2.175612 1_565
B6 Pt2 2.178425 1_555
B6 Pt11 2.222349 1_455
B6 Pt7 2.232353 1_565
B7 Pt2 2.175613 1_655
B7 Pt0 2.178425 1_555
B7 Pt9 2.222349 1_554
B7 Pt8 2.232353 1_655
B8 Pt0 2.175612 1_556
B8 Pt1 2.178425 1_555
B8 Pt10 2.222349 1_545
B8 Pt6 2.232353 1_556
B9 Pt5 2.175613 1_655
B9 Pt4 2.178425 1_555
B9 Pt11 2.222349 1_545
B9 Pt7 2.232353 1_655
B10 B7 1.755164 1_456
B10 Pt3 2.175612 1_556
B10 Pt5 2.178425 1_555
B10 Pt9 2.222349 1_455
B10 Pt8 2.232353 1_556
B11 B8 1.755164 1_564
B11 Pt4 2.175612 1_565
B11 Pt3 2.178425 1_555
B11 Pt10 2.222349 1_554
B11 Pt6 2.232353 1_565
Pt9 Rb2 3.221657 1_555
Pt10 Rb0 3.221657 1_555
Pt11 Rb1 3.221657 1_555
