# generated using pymatgen
data_Cs7(BPt)12
_symmetry_space_group_name_H-M   'P 1'
_cell_length_a   9.51824399
_cell_length_b   9.51824406
_cell_length_c   9.51824389
_cell_angle_alpha   111.99477986
_cell_angle_beta   111.99478315
_cell_angle_gamma   111.99478500
_symmetry_Int_Tables_number   1
_chemical_formula_structural   Cs7(BPt)12
_chemical_formula_sum   'Cs7 B12 Pt12'
_cell_volume   593.77342340
_cell_formula_units_Z   1
loop_
 _symmetry_equiv_pos_site_id
 _symmetry_equiv_pos_as_xyz
  1  'x, y, z'
loop_
 _atom_site_type_symbol
 _atom_site_label
 _atom_site_symmetry_multiplicity
 _atom_site_fract_x
 _atom_site_fract_y
 _atom_site_fract_z
 _atom_site_occupancy
  Cs  Cs0  1  0.99913533  0.73818171  0.73818171  1
  Cs  Cs1  1  0.73818171  0.73818171  0.99913533  1
  Cs  Cs2  1  0.73818171  0.99913533  0.73818171  1
  Cs  Cs3  1  0.26181829  0.00086467  0.26181829  1
  Cs  Cs4  1  0.00086467  0.26181829  0.26181829  1
  Cs  Cs5  1  0.26181829  0.26181829  0.00086467  1
  Cs  Cs6  1  0.50000000  0.50000000  0.50000000  1
  B  B0  1  0.27371645  0.72628355  0.50000000  1
  B  B1  1  0.72628355  0.50000000  0.27371645  1
  B  B2  1  0.50000000  0.27371645  0.72628355  1
  B  B3  1  0.72628355  0.27371645  0.50000000  1
  B  B4  1  0.27371645  0.50000000  0.72628355  1
  B  B5  1  0.50000000  0.72628355  0.27371645  1
  B  B6  1  0.05567692  0.94432308  0.50000000  1
  B  B7  1  0.94432308  0.50000000  0.05567692  1
  B  B8  1  0.50000000  0.05567692  0.94432308  1
  B  B9  1  0.94432308  0.05567692  0.50000000  1
  B  B10  1  0.05567692  0.50000000  0.94432308  1
  B  B11  1  0.50000000  0.94432308  0.05567692  1
  Pt  Pt0  1  0.67408483  0.32591517  0.00000000  1
  Pt  Pt1  1  0.32591517  1.00000000  0.67408483  1
  Pt  Pt2  1  1.00000000  0.67408483  0.32591517  1
  Pt  Pt3  1  0.32591517  0.67408483  1.00000000  1
  Pt  Pt4  1  0.67408483  0.00000000  0.32591517  1
  Pt  Pt5  1  0.00000000  0.32591517  0.67408483  1
  Pt  Pt6  1  0.64187484  0.25403970  0.25403970  1
  Pt  Pt7  1  0.25403970  0.25403970  0.64187484  1
  Pt  Pt8  1  0.25403970  0.64187484  0.25403970  1
  Pt  Pt9  1  0.74596030  0.35812516  0.74596030  1
  Pt  Pt10  1  0.35812516  0.74596030  0.74596030  1
  Pt  Pt11  1  0.74596030  0.74596030  0.35812516  1
loop_
_geom_bond_atom_site_label_1
_geom_bond_atom_site_label_2
_geom_bond_distance
_geom_bond_site_symmetry_2
Cs0 Pt10 3.362057 1_655
Cs0 Cs6 3.586791 1_555
Cs1 Pt11 3.362057 1_556
Cs1 Cs6 3.586791 1_555
Cs2 Pt9 3.362057 1_565
Cs2 Cs6 3.586791 1_555
Cs3 Pt8 3.362057 1_545
Cs3 Cs6 3.586791 1_555
Cs4 Pt6 3.362057 1_455
Cs4 Cs6 3.586791 1_555
Cs5 Pt7 3.362057 1_554
Cs5 Cs6 3.586791 1_555
Cs6 Pt11 3.662775 1_555
Cs6 Pt7 3.662775 1_555
Cs6 Pt9 3.662775 1_555
Cs6 Pt8 3.662775 1_555
Cs6 Pt10 3.662775 1_555
Cs6 Pt6 3.662775 1_555
B0 Pt10 2.076378 1_555
B0 Pt8 2.076378 1_555
B0 Pt2 2.227155 1_455
B0 Pt1 2.227155 1_555
B0 Cs2 3.303206 1_555
B0 Cs4 3.303206 1_555
B0 Cs6 3.571089 1_555
B1 Pt6 2.076378 1_555
B1 Pt11 2.076378 1_555
B1 Pt2 2.227155 1_555
B1 Pt0 2.227155 1_555
B1 Cs5 3.303206 1_555
B1 Cs0 3.303206 1_555
B1 Cs6 3.571089 1_555
B2 Pt9 2.076378 1_555
B2 Pt7 2.076378 1_555
B2 Pt1 2.227155 1_545
B2 Pt0 2.227155 1_556
B2 Cs3 3.303206 1_555
B2 Cs1 3.303206 1_555
B2 Cs6 3.571089 1_555
B3 Pt6 2.076378 1_555
B3 Pt9 2.076378 1_555
B3 Pt5 2.227155 1_655
B3 Pt4 2.227155 1_555
B3 Cs3 3.303206 1_555
B3 Cs0 3.303206 1_555
B3 Cs6 3.571089 1_555
B4 Pt10 2.076378 1_555
B4 Pt7 2.076378 1_555
B4 Pt5 2.227155 1_555
B4 Pt3 2.227155 1_555
B4 Cs1 3.303206 1_555
B4 Cs4 3.303206 1_555
B4 Cs6 3.571089 1_555
B5 Pt8 2.076378 1_555
B5 Pt11 2.076378 1_555
B5 Pt4 2.227155 1_565
B5 Pt3 2.227155 1_554
B5 Cs2 3.303206 1_555
B5 Cs5 3.303206 1_555
B5 Cs6 3.571089 1_555
B6 B9 1.757328 1_465
B6 Pt1 2.184340 1_555
B6 Pt2 2.184340 1_455
B6 Pt11 2.240092 1_455
B6 Pt7 2.240092 1_565
B7 Pt0 2.184340 1_555
B7 Pt2 2.184340 1_555
B7 Pt8 2.240092 1_655
B7 Pt9 2.240092 1_554
B8 Pt0 2.184340 1_556
B8 Pt1 2.184340 1_545
B8 Pt6 2.240092 1_556
B8 Pt10 2.240092 1_545
B9 Pt4 2.184340 1_555
B9 Pt5 2.184340 1_655
B9 Pt7 2.240092 1_655
B9 Pt11 2.240092 1_545
B10 B7 1.757328 1_456
B10 Pt3 2.184340 1_555
B10 Pt5 2.184340 1_555
B10 Pt9 2.240092 1_455
B10 Pt8 2.240092 1_556
B11 B8 1.757328 1_564
B11 Pt3 2.184340 1_554
B11 Pt4 2.184340 1_565
B11 Pt10 2.240092 1_554
B11 Pt6 2.240092 1_565
