# generated using pymatgen
data_MgAl2O4
_symmetry_space_group_name_H-M   'P 1'
_cell_length_a   5.67867134
_cell_length_b   5.67867134
_cell_length_c   5.67867134
_cell_angle_alpha   120.39214127
_cell_angle_beta   119.61511938
_cell_angle_gamma   89.99502955
_symmetry_Int_Tables_number   1
_chemical_formula_structural   MgAl2O4
_chemical_formula_sum   'Mg2 Al4 O8'
_cell_volume   129.47216407
_cell_formula_units_Z   2
loop_
 _symmetry_equiv_pos_site_id
 _symmetry_equiv_pos_as_xyz
  1  'x, y, z'
loop_
 _atom_site_type_symbol
 _atom_site_label
 _atom_site_symmetry_multiplicity
 _atom_site_fract_x
 _atom_site_fract_y
 _atom_site_fract_z
 _atom_site_occupancy
  Mg  Mg0  1  0.50000000  0.50000000  0.50000000  1
  Mg  Mg1  1  0.50000000  0.00000000  -0.00000000  1
  Al  Al0  1  0.11570419  0.86570419  0.25000000  1
  Al  Al1  1  -0.00000000  0.50000000  0.50000000  1
  Al  Al2  1  0.50000000  0.50000000  -0.00000000  1
  Al  Al3  1  0.88429581  0.13429581  0.75000000  1
  O  O0  1  0.23531153  0.73458123  0.50073030  1
  O  O1  1  0.73385093  0.73458123  0.99926970  1
  O  O2  1  0.24653828  0.26125048  0.51471220  1
  O  O3  1  0.24653828  0.73182608  0.98528780  1
  O  O4  1  0.75346172  0.26817392  0.01471220  1
  O  O5  1  0.26614907  0.26541877  0.00073030  1
  O  O6  1  0.75346172  0.73874952  0.48528780  1
  O  O7  1  0.76468847  0.26541877  0.49926970  1
loop_
_geom_bond_atom_site_label_1
_geom_bond_atom_site_label_2
_geom_bond_distance
_geom_bond_site_symmetry_2
Mg0 O7 2.008483 1_555
Mg0 O1 2.008483 1_555
Mg0 O0 2.008483 1_555
Mg0 O5 2.008483 1_555
Mg0 O2 2.037296 1_555
Mg0 O6 2.037296 1_555
Mg1 O0 2.008483 1_544
Mg1 O7 2.008483 1_555
Mg1 O5 2.008483 1_555
Mg1 O1 2.008483 1_544
Mg1 O3 2.037296 1_544
Mg1 O4 2.037296 1_555
Al0 O1 1.777596 1_454
Al0 O0 1.777596 1_555
Al0 O3 1.826747 1_554
Al0 O2 1.826747 1_565
Al1 O7 1.883974 1_455
Al1 O0 1.883974 1_555
Al1 O2 1.950340 1_555
Al1 O4 1.950340 1_455
Al1 O6 1.950340 1_455
Al1 O3 1.950340 1_555
Al2 O5 1.883974 1_555
Al2 O1 1.883974 1_554
Al2 O4 1.950340 1_555
Al2 O6 1.950340 1_555
Al2 O2 1.950340 1_554
Al2 O3 1.950340 1_554
Al3 O5 1.777596 1_656
Al3 O7 1.777596 1_555
Al3 O4 1.826747 1_556
Al3 O6 1.826747 1_545
