# generated using pymatgen
data_CrTc3Pb4O13
_symmetry_space_group_name_H-M   'P 1'
_cell_length_a   7.26104762
_cell_length_b   7.30599645
_cell_length_c   7.30599630
_cell_angle_alpha   59.99975375
_cell_angle_beta   59.79470794
_cell_angle_gamma   59.79470770
_symmetry_Int_Tables_number   1
_chemical_formula_structural   CrTc3Pb4O13
_chemical_formula_sum   'Cr1 Tc3 Pb4 O13'
_cell_volume   273.20446022
_cell_formula_units_Z   1
loop_
 _symmetry_equiv_pos_site_id
 _symmetry_equiv_pos_as_xyz
  1  'x, y, z'
loop_
 _atom_site_type_symbol
 _atom_site_label
 _atom_site_symmetry_multiplicity
 _atom_site_fract_x
 _atom_site_fract_y
 _atom_site_fract_z
 _atom_site_occupancy
  Cr  Cr0  1  0.37476119  0.87507965  0.87507965  1
  Tc  Tc0  1  0.87436571  0.37616116  0.87473700  1
  Tc  Tc1  1  0.87436571  0.87473700  0.37616116  1
  Tc  Tc2  1  0.87436873  0.87473468  0.87473468  1
  Pb  Pb0  1  0.88609458  0.37130156  0.37130156  1
  Pb  Pb1  1  0.37369087  0.37258783  0.37258783  1
  Pb  Pb2  1  0.37368879  0.37258730  0.88113237  1
  Pb  Pb3  1  0.37368879  0.88113237  0.37258730  1
  O  O0  1  0.19467097  0.80360778  0.80360778  1
  O  O1  1  0.19467622  0.80360402  0.19811630  1
  O  O2  1  0.55815926  0.94297540  0.94297540  1
  O  O3  1  0.55815675  0.94297476  0.55589169  1
  O  O4  1  0.94427731  0.94523849  0.55524422  1
  O  O5  1  0.80043854  0.80207552  0.19873934  1
  O  O6  1  0.55815675  0.55589169  0.94297476  1
  O  O7  1  0.80043854  0.19873934  0.80207552  1
  O  O8  1  0.80043849  0.19874274  0.19874274  1
  O  O9  1  0.94427731  0.55524422  0.94523849  1
  O  O10  1  0.94427744  0.55524106  0.55524106  1
  O  O11  1  0.19467622  0.19811630  0.80360402  1
  O  O12  1  0.50232984  0.49922314  0.49922314  1
loop_
_geom_bond_atom_site_label_1
_geom_bond_atom_site_label_2
_geom_bond_distance
_geom_bond_site_symmetry_2
Cr0 O3 1.959781 1_555
Cr0 O6 1.959781 1_555
Cr0 O2 1.959804 1_555
Cr0 O1 1.975351 1_556
Cr0 O11 1.975351 1_565
Cr0 O0 1.975355 1_555
O0 Tc2 1.946024 1_455
O0 Pb3 2.601031 1_555
O0 Pb2 2.601031 1_555
O1 Tc1 1.946059 1_455
O1 Pb3 2.600988 1_555
O1 Pb1 2.600998 1_555
O2 Tc2 1.927111 1_555
O2 Pb3 2.609694 1_556
O2 Pb2 2.609694 1_565
O3 Tc1 1.927108 1_555
O3 Pb1 2.609699 1_565
O3 Pb3 2.609726 1_555
O4 Tc2 1.959591 1_555
O4 Tc1 1.959637 1_555
O4 Pb3 2.586685 1_655
O4 Pb0 2.595935 1_565
O5 Tc2 1.981161 1_554
O5 Tc1 1.981210 1_555
O5 Pb3 2.553656 1_555
O5 Pb0 2.594785 1_555
O6 Tc0 1.927108 1_555
O6 Pb1 2.609699 1_556
O6 Pb2 2.609726 1_555
O7 Tc2 1.981161 1_545
O7 Tc0 1.981210 1_555
O7 Pb2 2.553656 1_555
O7 Pb0 2.594785 1_555
O8 Tc0 1.981169 1_554
O8 Tc1 1.981169 1_545
O8 Pb1 2.553640 1_555
O8 Pb0 2.594797 1_555
O9 Tc2 1.959591 1_555
O9 Tc0 1.959637 1_555
O9 Pb2 2.586685 1_655
O9 Pb0 2.595935 1_556
O10 Tc0 1.959620 1_555
O10 Tc1 1.959620 1_555
O10 Pb1 2.586693 1_655
O10 Pb0 2.595939 1_555
O11 Tc0 1.946059 1_455
O11 Pb2 2.600988 1_555
O11 Pb1 2.600998 1_555
O12 Pb0 2.268111 1_555
O12 Pb2 2.275840 1_555
O12 Pb3 2.275840 1_555
O12 Pb1 2.275855 1_555
