# generated using pymatgen
data_Hf8Ni2MoRh
_symmetry_space_group_name_H-M   'P 1'
_cell_length_a   8.60492259
_cell_length_b   8.60492242
_cell_length_c   8.57019451
_cell_angle_alpha   60.13342181
_cell_angle_beta   60.13342247
_cell_angle_gamma   60.15338533
_symmetry_Int_Tables_number   1
_chemical_formula_structural   Hf8Ni2MoRh
_chemical_formula_sum   'Hf16 Ni4 Mo2 Rh2'
_cell_volume   450.13775224
_cell_formula_units_Z   2
loop_
 _symmetry_equiv_pos_site_id
 _symmetry_equiv_pos_as_xyz
  1  'x, y, z'
loop_
 _atom_site_type_symbol
 _atom_site_label
 _atom_site_symmetry_multiplicity
 _atom_site_fract_x
 _atom_site_fract_y
 _atom_site_fract_z
 _atom_site_occupancy
  Hf  Hf0  1  0.68209882  0.10714490  0.10537714  1
  Hf  Hf1  1  0.10714490  0.68209882  0.10537714  1
  Hf  Hf2  1  0.10265729  0.10265729  0.69123631  1
  Hf  Hf3  1  0.10265729  0.10265729  0.10344811  1
  Hf  Hf4  1  0.31555819  0.31555819  0.68444181  1
  Hf  Hf5  1  0.68635404  0.68635404  0.31364596  1
  Hf  Hf6  1  0.31592504  0.69041604  0.31440156  1
  Hf  Hf7  1  0.69041604  0.31592504  0.67925636  1
  Hf  Hf8  1  0.69041604  0.31592504  0.31440156  1
  Hf  Hf9  1  0.31592504  0.69041604  0.67925636  1
  Hf  Hf10  1  0.95238408  0.95238408  0.54761592  1
  Hf  Hf11  1  0.54995157  0.54995157  0.95004843  1
  Hf  Hf12  1  0.94655101  0.55132003  0.94989162  1
  Hf  Hf13  1  0.55132003  0.94655101  0.55223835  1
  Hf  Hf14  1  0.55132003  0.94655101  0.94989162  1
  Hf  Hf15  1  0.94655101  0.55132003  0.55223835  1
  Ni  Ni0  1  0.32276870  0.88825261  0.89448885  1
  Ni  Ni1  1  0.88825261  0.32276870  0.89448885  1
  Ni  Ni2  1  0.89163445  0.89163445  0.32002988  1
  Ni  Ni3  1  0.89163445  0.89163445  0.89670123  1
  Mo  Mo0  1  0.99962453  0.33255338  0.33391005  1
  Mo  Mo1  1  0.33255338  0.99962453  0.33391005  1
  Rh  Rh0  1  0.33314875  0.33314875  0.99489364  1
  Rh  Rh1  1  0.33314875  0.33314875  0.33880686  1
loop_
_geom_bond_atom_site_label_1
_geom_bond_atom_site_label_2
_geom_bond_distance
_geom_bond_site_symmetry_2
Hf0 Ni1 2.568863 1_554
Hf0 Ni3 2.579095 1_544
Hf0 Ni2 2.579107 1_545
Hf0 Mo1 2.972686 1_545
Hf0 Rh0 2.979940 1_554
Hf0 Rh1 2.979941 1_555
Hf0 Hf11 3.118777 1_554
Hf0 Hf5 3.129575 1_545
Hf0 Hf14 3.134822 1_544
Hf0 Hf13 3.134843 1_545
Hf0 Hf7 3.146844 1_554
Hf0 Hf8 3.146851 1_555
Hf1 Ni0 2.568863 1_554
Hf1 Ni3 2.579095 1_454
Hf1 Ni2 2.579107 1_455
Hf1 Mo0 2.972686 1_455
Hf1 Rh0 2.979940 1_554
Hf1 Rh1 2.979940 1_555
Hf1 Hf11 3.118778 1_554
Hf1 Hf5 3.129576 1_455
Hf1 Hf12 3.134822 1_454
Hf1 Hf15 3.134843 1_455
Hf1 Hf9 3.146844 1_554
Hf1 Hf6 3.146851 1_555
Hf2 Ni3 2.570612 1_445
Hf2 Ni1 2.575358 1_455
Hf2 Ni0 2.575358 1_545
Hf2 Rh1 2.995492 1_555
Hf2 Mo0 3.000369 1_455
Hf2 Mo1 3.000369 1_545
Hf2 Hf9 3.107593 1_545
Hf2 Hf7 3.107593 1_455
Hf2 Hf4 3.137507 1_555
Hf3 Ni2 2.570612 1_445
Hf3 Ni1 2.575358 1_454
Hf3 Ni0 2.575358 1_544
Hf3 Rh0 2.995489 1_554
Hf3 Mo0 3.000362 1_455
Hf3 Mo1 3.000362 1_545
Hf3 Hf6 3.107593 1_545
Hf3 Hf8 3.107593 1_455
Hf3 Hf4 3.137502 1_554
Hf4 Rh0 2.819539 1_555
Hf4 Rh1 2.819556 1_555
Hf4 Ni0 3.171129 1_545
Hf4 Ni1 3.171130 1_455
Hf4 Hf9 3.205285 1_555
Hf4 Hf7 3.205285 1_555
Hf4 Hf6 3.205290 1_555
Hf4 Hf8 3.205290 1_555
Hf5 Mo0 2.887268 1_555
Hf5 Mo1 2.887268 1_555
Hf5 Ni2 3.088974 1_555
Hf5 Ni3 3.088975 1_554
Hf5 Hf7 3.167057 1_555
Hf5 Hf9 3.167057 1_555
Hf5 Hf8 3.167061 1_555
Hf5 Hf6 3.167061 1_555
Hf6 Mo1 2.823766 1_555
Hf6 Rh1 2.907528 1_555
Hf6 Ni0 3.104751 1_554
Hf6 Hf9 3.126877 1_555
Hf6 Ni2 3.153660 1_455
Hf6 Hf8 3.229934 1_555
Hf7 Mo0 2.823771 1_555
Hf7 Rh0 2.907524 1_555
Hf7 Ni1 3.104751 1_555
Hf7 Hf8 3.126877 1_555
Hf7 Ni3 3.153662 1_545
Hf7 Hf9 3.229934 1_555
Hf8 Mo0 2.823766 1_555
Hf8 Rh1 2.907528 1_555
Hf8 Ni1 3.104751 1_554
Hf8 Ni2 3.153660 1_545
Hf9 Mo1 2.823771 1_555
Hf9 Rh0 2.907524 1_555
Hf9 Ni0 3.104751 1_555
Hf9 Ni3 3.153662 1_455
Hf10 Ni2 2.579488 1_555
Hf10 Ni3 2.579488 1_555
Hf10 Mo0 2.972556 1_565
Hf10 Mo1 2.972556 1_655
Hf10 Hf7 3.178562 1_565
Hf10 Hf9 3.178562 1_655
Hf10 Hf8 3.178567 1_565
Hf10 Hf6 3.178567 1_655
Hf11 Ni0 2.530757 1_555
Hf11 Ni1 2.530757 1_555
Hf11 Rh1 3.023966 1_556
Hf11 Rh0 3.023974 1_555
Hf11 Hf8 3.215613 1_556
Hf11 Hf6 3.215613 1_556
Hf11 Hf7 3.215620 1_555
Hf11 Hf9 3.215620 1_555
Hf12 Ni1 2.548361 1_555
Hf12 Ni3 2.552282 1_555
Hf12 Mo0 3.009071 1_556
Hf12 Rh0 3.013330 1_655
Hf12 Hf8 3.162844 1_556
Hf12 Hf5 3.185609 1_556
Hf12 Hf4 3.219285 1_655
Hf12 Hf9 3.254856 1_655
Hf13 Ni0 2.548350 1_555
Hf13 Ni2 2.552285 1_555
Hf13 Mo1 3.009093 1_555
Hf13 Rh1 3.013339 1_565
Hf13 Hf9 3.162849 1_555
Hf13 Hf5 3.185616 1_555
Hf13 Hf4 3.219281 1_565
Hf13 Hf8 3.254855 1_565
Hf14 Ni0 2.548361 1_555
Hf14 Ni3 2.552282 1_555
Hf14 Mo1 3.009071 1_556
Hf14 Rh0 3.013329 1_565
Hf14 Hf6 3.162844 1_556
Hf14 Hf5 3.185609 1_556
Hf14 Hf4 3.219285 1_565
Hf14 Hf7 3.254856 1_565
Hf15 Ni1 2.548350 1_555
Hf15 Ni2 2.552285 1_555
Hf15 Mo0 3.009093 1_555
Hf15 Rh1 3.013339 1_655
Hf15 Hf7 3.162850 1_555
Hf15 Hf5 3.185616 1_555
Hf15 Hf4 3.219281 1_655
Hf15 Hf6 3.254856 1_655
Mo0 Mo1 2.871466 1_645
Mo0 Rh1 2.893649 1_655
Mo0 Rh0 2.893650 1_654
Mo1 Rh1 2.893649 1_565
Mo1 Rh0 2.893650 1_564
Rh0 Rh1 2.947403 1_556
