# generated using pymatgen
data_NaY(NbSe2)8
_symmetry_space_group_name_H-M   'P 1'
_cell_length_a   7.02506157
_cell_length_b   7.02506195
_cell_length_c   14.72243788
_cell_angle_alpha   90.00000000
_cell_angle_beta   90.00000000
_cell_angle_gamma   120.00000297
_symmetry_Int_Tables_number   1
_chemical_formula_structural   NaY(NbSe2)8
_chemical_formula_sum   'Na1 Y1 Nb8 Se16'
_cell_volume   629.23177068
_cell_formula_units_Z   1
loop_
 _symmetry_equiv_pos_site_id
 _symmetry_equiv_pos_as_xyz
  1  'x, y, z'
loop_
 _atom_site_type_symbol
 _atom_site_label
 _atom_site_symmetry_multiplicity
 _atom_site_fract_x
 _atom_site_fract_y
 _atom_site_fract_z
 _atom_site_occupancy
  Na  Na0  1  0.00000000  0.00000000  0.00000000  1
  Y  Y0  1  0.00000000  0.00000000  0.50000000  1
  Nb  Nb0  1  0.00000000  0.00000000  0.25785384  1
  Nb  Nb1  1  0.00000000  0.00000000  0.74214616  1
  Nb  Nb2  1  0.51026074  0.02052348  0.25739840  1
  Nb  Nb3  1  0.97947652  0.48973926  0.25739840  1
  Nb  Nb4  1  0.51026074  0.48973926  0.25739840  1
  Nb  Nb5  1  0.48973926  0.97947652  0.74260160  1
  Nb  Nb6  1  0.02052348  0.51026074  0.74260160  1
  Nb  Nb7  1  0.48973926  0.51026074  0.74260160  1
  Se  Se0  1  0.33333300  0.66666700  0.86061569  1
  Se  Se1  1  0.66666700  0.33333300  0.13938431  1
  Se  Se2  1  0.66666700  0.33333300  0.37615936  1
  Se  Se3  1  0.33333300  0.66666700  0.62384064  1
  Se  Se4  1  0.16975101  0.83024899  0.36923582  1
  Se  Se5  1  0.16975101  0.33950101  0.36923582  1
  Se  Se6  1  0.66049899  0.83024899  0.36923582  1
  Se  Se7  1  0.83024899  0.16975101  0.63076418  1
  Se  Se8  1  0.83024899  0.66049899  0.63076418  1
  Se  Se9  1  0.33950101  0.16975101  0.63076418  1
  Se  Se10  1  0.83147049  0.16852951  0.85281243  1
  Se  Se11  1  0.83147049  0.66294198  0.85281243  1
  Se  Se12  1  0.33705802  0.16852951  0.85281243  1
  Se  Se13  1  0.16852951  0.83147049  0.14718757  1
  Se  Se14  1  0.16852951  0.33705802  0.14718757  1
  Se  Se15  1  0.66294198  0.83147049  0.14718757  1
loop_
_geom_bond_atom_site_label_1
_geom_bond_atom_site_label_2
_geom_bond_distance
_geom_bond_site_symmetry_2
Na0 Se12 2.983414 1_554
Na0 Se15 2.983414 1_445
Na0 Se14 2.983415 1_555
Na0 Se11 2.983415 1_444
Na0 Se10 2.983419 1_454
Na0 Se13 2.983419 1_545
Nb0 Se15 2.619082 1_445
Nb0 Se14 2.619082 1_555
Nb0 Se13 2.619087 1_545
Nb0 Se6 2.637274 1_445
Nb0 Se5 2.637274 1_555
Nb0 Se4 2.637279 1_545
Nb1 Se12 2.619082 1_555
Nb1 Se11 2.619082 1_445
Nb1 Se10 2.619087 1_455
Nb1 Se9 2.637274 1_555
Nb1 Se8 2.637274 1_445
Nb1 Se7 2.637279 1_455
Nb2 Se1 2.576922 1_555
Nb2 Se2 2.584348 1_555
Nb2 Se13 2.640364 1_545
Nb2 Se15 2.640378 1_545
Nb2 Se4 2.649985 1_545
Nb2 Se6 2.649999 1_545
Nb3 Se1 2.576922 1_555
Nb3 Se2 2.584348 1_555
Nb3 Se13 2.640364 1_655
Nb3 Se14 2.640378 1_655
Nb3 Se4 2.649985 1_655
Nb3 Se5 2.649998 1_655
Nb4 Se1 2.576935 1_555
Nb4 Se2 2.584362 1_555
Nb4 Se14 2.640363 1_555
Nb4 Se15 2.640363 1_555
Nb4 Se5 2.649984 1_555
Nb4 Se6 2.649984 1_555
Nb5 Se0 2.576922 1_555
Nb5 Se3 2.584348 1_555
Nb5 Se10 2.640364 1_565
Nb5 Se12 2.640378 1_565
Nb5 Se7 2.649985 1_565
Nb5 Se9 2.649999 1_565
Nb6 Se0 2.576922 1_555
Nb6 Se3 2.584348 1_555
Nb6 Se10 2.640364 1_455
Nb6 Se11 2.640378 1_455
Nb6 Se7 2.649985 1_455
Nb6 Se8 2.649998 1_455
Nb7 Se0 2.576935 1_555
Nb7 Se3 2.584362 1_555
Nb7 Se11 2.640363 1_555
Nb7 Se12 2.640363 1_555
Nb7 Se8 2.649984 1_555
Nb7 Se9 2.649984 1_555
Se4 Y0 2.823565 1_565
Se5 Y0 2.823561 1_555
Se6 Y0 2.823560 1_665
Se7 Y0 2.823565 1_655
Se8 Y0 2.823561 1_665
Se9 Y0 2.823560 1_555
