# generated using pymatgen
data_Re3SiNi2
_symmetry_space_group_name_H-M   'P 1'
_cell_length_a   7.50645624
_cell_length_b   7.50645585
_cell_length_c   7.50645727
_cell_angle_alpha   59.99999804
_cell_angle_beta   59.99999976
_cell_angle_gamma   60.00000061
_symmetry_Int_Tables_number   1
_chemical_formula_structural   Re3SiNi2
_chemical_formula_sum   'Re12 Si4 Ni8'
_cell_volume   299.08174430
_cell_formula_units_Z   4
loop_
 _symmetry_equiv_pos_site_id
 _symmetry_equiv_pos_as_xyz
  1  'x, y, z'
loop_
 _atom_site_type_symbol
 _atom_site_label
 _atom_site_symmetry_multiplicity
 _atom_site_fract_x
 _atom_site_fract_y
 _atom_site_fract_z
 _atom_site_occupancy
  Re  Re0  1  0.93198682  0.93198682  0.56801318  1
  Re  Re1  1  0.68198682  0.31801318  0.31801318  1
  Re  Re2  1  0.31801318  0.68198682  0.68198682  1
  Re  Re3  1  0.68198682  0.68198682  0.31801318  1
  Re  Re4  1  0.68198682  0.31801318  0.68198682  1
  Re  Re5  1  0.31801318  0.68198682  0.31801318  1
  Re  Re6  1  0.56801318  0.93198682  0.56801318  1
  Re  Re7  1  0.56801318  0.93198682  0.93198682  1
  Re  Re8  1  0.93198682  0.56801318  0.56801318  1
  Re  Re9  1  0.93198682  0.56801318  0.93198682  1
  Re  Re10  1  0.31801318  0.31801318  0.68198682  1
  Re  Re11  1  0.56801318  0.56801318  0.93198682  1
  Si  Si0  1  0.12500000  0.62500000  0.12500000  1
  Si  Si1  1  0.12500000  0.12500000  0.62500000  1
  Si  Si2  1  0.62500000  0.12500000  0.12500000  1
  Si  Si3  1  0.12500000  0.12500000  0.12500000  1
  Ni  Ni0  1  0.91858561  0.24424418  0.91858561  1
  Ni  Ni1  1  0.33141439  0.33141439  0.00575582  1
  Ni  Ni2  1  0.00575582  0.33141439  0.33141439  1
  Ni  Ni3  1  0.33141439  0.33141439  0.33141439  1
  Ni  Ni4  1  0.24424418  0.91858561  0.91858561  1
  Ni  Ni5  1  0.91858561  0.91858561  0.91858561  1
  Ni  Ni6  1  0.91858561  0.91858561  0.24424418  1
  Ni  Ni7  1  0.33141439  0.00575582  0.33141439  1
loop_
_geom_bond_atom_site_label_1
_geom_bond_atom_site_label_2
_geom_bond_distance
_geom_bond_site_symmetry_2
Re0 Re8 2.732152 1_555
Re0 Re6 2.732152 1_555
Re0 Re9 2.732152 1_555
Re0 Re7 2.732152 1_555
Re0 Si1 2.778486 1_665
Re0 Si3 2.778486 1_665
Re0 Re4 2.843582 1_565
Re0 Re1 2.843582 1_565
Re0 Re2 2.843582 1_655
Re0 Re5 2.843582 1_655
Re1 Re3 2.732152 1_555
Re1 Re5 2.732152 1_555
Re1 Re10 2.732152 1_555
Re1 Re4 2.732153 1_555
Re1 Si3 2.778486 1_655
Re1 Si2 2.778486 1_555
Re1 Re6 2.843581 1_545
Re1 Re9 2.843582 1_554
Re1 Re11 2.843582 1_554
Re2 Re4 2.732152 1_555
Re2 Re3 2.732152 1_555
Re2 Re5 2.732153 1_555
Re2 Si1 2.778486 1_565
Re2 Si0 2.778486 1_556
Re2 Re6 2.843582 1_555
Re2 Re9 2.843582 1_455
Re3 Re5 2.732152 1_555
Re3 Re4 2.732152 1_555
Re3 Si2 2.778486 1_565
Re3 Si0 2.778486 1_655
Re3 Re6 2.843582 1_555
Re3 Re8 2.843582 1_555
Re3 Re7 2.843582 1_554
Re3 Re9 2.843582 1_554
Re4 Si1 2.778486 1_655
Re4 Si2 2.778486 1_556
Re4 Re7 2.843581 1_545
Re4 Re8 2.843582 1_555
Re5 Si3 2.778486 1_565
Re5 Si0 2.778486 1_555
Re5 Re8 2.843582 1_455
Re5 Re7 2.843582 1_554
Re6 Re8 2.732152 1_555
Re6 Re7 2.732153 1_555
Re6 Si1 2.778486 1_565
Re6 Si2 2.778486 1_565
Re7 Re9 2.732152 1_555
Re7 Si3 2.778486 1_566
Re7 Si2 2.778486 1_566
Re8 Re9 2.732153 1_555
Re8 Si1 2.778486 1_655
Re8 Si0 2.778486 1_655
Re9 Si3 2.778486 1_656
Re9 Si0 2.778486 1_656
Re10 Re2 2.732152 1_555
Re10 Re4 2.732152 1_555
Re10 Re5 2.732152 1_555
Re10 Si1 2.778486 1_555
Re10 Si3 2.778486 1_556
Re10 Re6 2.843582 1_545
Re10 Re7 2.843582 1_545
Re10 Re8 2.843582 1_455
Re10 Re9 2.843582 1_455
Re11 Re7 2.732152 1_555
Re11 Re9 2.732152 1_555
Re11 Re6 2.732152 1_555
Re11 Re8 2.732152 1_555
Re11 Si2 2.778486 1_556
Re11 Si0 2.778486 1_556
Re11 Re4 2.843582 1_555
Re11 Re2 2.843582 1_555
Re11 Re5 2.843582 1_556
Ni0 Si3 2.286852 1_656
Ni0 Si2 2.286858 1_556
Ni0 Si1 2.286858 1_655
Ni0 Ni5 2.444542 1_545
Ni0 Ni4 2.444542 1_645
Ni0 Ni6 2.444542 1_546
Ni0 Re9 2.534948 1_555
Ni0 Re11 2.534953 1_555
Ni0 Re8 2.534953 1_555
Ni0 Re10 2.793278 1_655
Ni0 Re1 2.793278 1_556
Ni0 Re4 2.793285 1_555
Ni1 Si3 2.286852 1_555
Ni1 Si0 2.286858 1_555
Ni1 Si2 2.286858 1_555
Ni1 Ni7 2.444542 1_555
Ni1 Ni2 2.444542 1_555
Ni1 Ni3 2.444542 1_555
Ni1 Re10 2.534949 1_554
Ni1 Re2 2.534953 1_554
Ni1 Re4 2.534953 1_554
Ni1 Re7 2.793278 1_544
Ni1 Re9 2.793278 1_454
Ni1 Re11 2.793284 1_554
Ni2 Si3 2.286852 1_555
Ni2 Si0 2.286858 1_555
Ni2 Si1 2.286858 1_555
Ni2 Ni7 2.444542 1_555
Ni2 Ni3 2.444542 1_555
Ni2 Re1 2.534949 1_455
Ni2 Re3 2.534953 1_455
Ni2 Re4 2.534953 1_455
Ni2 Re0 2.793278 1_445
Ni2 Re9 2.793278 1_454
Ni2 Re8 2.793285 1_455
Ni3 Si1 2.286854 1_555
Ni3 Si0 2.286854 1_555
Ni3 Si2 2.286854 1_555
Ni3 Ni7 2.444542 1_555
Ni3 Re5 2.534956 1_555
Ni3 Re1 2.534956 1_555
Ni3 Re10 2.534956 1_555
Ni3 Re6 2.793281 1_545
Ni3 Re11 2.793281 1_554
Ni3 Re8 2.793281 1_455
Ni4 Si3 2.286852 1_566
Ni4 Si0 2.286858 1_556
Ni4 Si1 2.286858 1_565
Ni4 Ni5 2.444542 1_455
Ni4 Ni6 2.444542 1_456
Ni4 Re7 2.534949 1_555
Ni4 Re11 2.534953 1_555
Ni4 Re6 2.534953 1_555
Ni4 Re10 2.793278 1_565
Ni4 Re5 2.793278 1_556
Ni4 Re2 2.793285 1_555
Ni5 Si1 2.286854 1_665
Ni5 Si0 2.286854 1_656
Ni5 Si2 2.286854 1_566
Ni5 Ni6 2.444542 1_556
Ni5 Re9 2.534956 1_555
Ni5 Re7 2.534956 1_555
Ni5 Re0 2.534956 1_555
Ni5 Re4 2.793281 1_565
Ni5 Re3 2.793281 1_556
Ni5 Re2 2.793281 1_655
Ni6 Si3 2.286852 1_665
Ni6 Si0 2.286858 1_655
Ni6 Si2 2.286858 1_565
Ni6 Re0 2.534949 1_555
Ni6 Re8 2.534953 1_555
Ni6 Re6 2.534953 1_555
Ni6 Re1 2.793278 1_565
Ni6 Re5 2.793278 1_655
Ni6 Re3 2.793284 1_555
Ni7 Si3 2.286852 1_555
Ni7 Si2 2.286858 1_555
Ni7 Si1 2.286858 1_555
Ni7 Re5 2.534948 1_545
Ni7 Re3 2.534953 1_545
Ni7 Re2 2.534953 1_545
Ni7 Re0 2.793278 1_445
Ni7 Re7 2.793278 1_544
Ni7 Re6 2.793285 1_545
