# generated using pymatgen
data_Ba2CaCrN4
_symmetry_space_group_name_H-M   'P 1'
_cell_length_a   10.63354109
_cell_length_b   10.33241078
_cell_length_c   7.84492172
_cell_angle_alpha   70.08155756
_cell_angle_beta   66.00115476
_cell_angle_gamma   43.91728646
_symmetry_Int_Tables_number   1
_chemical_formula_structural   Ba2CaCrN4
_chemical_formula_sum   'Ba8 Ca4 Cr4 N16'
_cell_volume   544.61430249
_cell_formula_units_Z   4
loop_
 _symmetry_equiv_pos_site_id
 _symmetry_equiv_pos_as_xyz
  1  'x, y, z'
loop_
 _atom_site_type_symbol
 _atom_site_label
 _atom_site_symmetry_multiplicity
 _atom_site_fract_x
 _atom_site_fract_y
 _atom_site_fract_z
 _atom_site_occupancy
  Ba  Ba0  1  0.57713718  0.92286282  0.92286282  1
  Ba  Ba1  1  0.92286282  0.57713718  0.57713718  1
  Ba  Ba2  1  0.32713718  0.67286282  0.67286282  1
  Ba  Ba3  1  0.11040330  0.11040330  0.88959670  1
  Ba  Ba4  1  0.13959670  0.13959670  0.36040330  1
  Ba  Ba5  1  0.36040330  0.36040330  0.13959670  1
  Ba  Ba6  1  0.67286282  0.32713718  0.32713718  1
  Ba  Ba7  1  0.88959670  0.88959670  0.11040330  1
  Ca  Ca0  1  0.33757017  0.33757017  0.66242983  1
  Ca  Ca1  1  0.91242983  0.91242983  0.58757017  1
  Ca  Ca2  1  0.66242983  0.66242983  0.33757017  1
  Ca  Ca3  1  0.58757017  0.58757017  0.91242983  1
  Cr  Cr0  1  0.49157408  0.00842592  0.49157408  1
  Cr  Cr1  1  0.00842592  0.49157408  0.00842592  1
  Cr  Cr2  1  0.75842592  0.24157408  0.75842592  1
  Cr  Cr3  1  0.24157408  0.75842592  0.24157408  1
  N  N0  1  0.01106731  0.64837135  0.83078266  1
  N  N1  1  0.70563429  0.27954369  0.98689435  1
  N  N2  1  0.64837135  0.01106731  0.50978068  1
  N  N3  1  0.50978068  0.83078266  0.64837135  1
  N  N4  1  0.23893269  0.60162865  0.41921734  1
  N  N5  1  0.74021932  0.41921734  0.60162865  1
  N  N6  1  0.98689435  0.02792667  0.70563429  1
  N  N7  1  0.54436571  0.97045631  0.26310565  1
  N  N8  1  0.41921734  0.74021932  0.23893269  1
  N  N9  1  0.97045631  0.54436571  0.22207333  1
  N  N10  1  0.27954369  0.70563429  0.02792667  1
  N  N11  1  0.83078266  0.50978068  0.01106731  1
  N  N12  1  0.22207333  0.26310565  0.97045631  1
  N  N13  1  0.60162865  0.23893269  0.74021932  1
  N  N14  1  0.26310565  0.22207333  0.54436571  1
  N  N15  1  0.02792667  0.98689435  0.27954369  1
loop_
_geom_bond_atom_site_label_1
_geom_bond_atom_site_label_2
_geom_bond_distance
_geom_bond_site_symmetry_2
Ba0 N12 2.716358 1_565
Ba0 N7 2.716362 1_556
Ba0 N11 2.981835 1_556
Ba0 N2 2.981835 1_565
Ba0 N3 3.112459 1_555
Ba0 N0 3.112475 1_655
Ba0 N13 3.243380 1_565
Ba0 N8 3.243393 1_556
Ba1 N9 2.716354 1_555
Ba1 N14 2.716358 1_655
Ba1 N3 2.981833 1_555
Ba1 N0 2.981849 1_655
Ba1 N11 3.112473 1_556
Ba1 N2 3.112474 1_565
Ba1 N4 3.243379 1_655
Ba1 N5 3.243399 1_555
Ba2 N10 2.716354 1_556
Ba2 N6 2.716358 1_465
Ba2 N5 2.981833 1_555
Ba2 N4 2.981849 1_555
Ba2 N8 3.112473 1_555
Ba2 N13 3.112474 1_555
Ba2 N0 3.243379 1_555
Ba2 N3 3.243399 1_555
Ba3 N14 2.880211 1_555
Ba3 N12 2.880216 1_555
Ba3 N15 2.919919 1_546
Ba3 N6 2.919925 1_455
Ba3 N3 3.078148 1_545
Ba3 N11 3.078154 1_456
Ba3 N10 3.092249 1_546
Ba3 N1 3.092250 1_455
Ba4 N6 2.880211 1_455
Ba4 N15 2.880216 1_545
Ba4 N12 2.919919 1_554
Ba4 N14 2.919925 1_555
Ba4 N5 3.078148 1_455
Ba4 N8 3.078154 1_545
Ba4 N9 3.092249 1_455
Ba4 N7 3.092250 1_545
Ba5 N1 2.880207 1_554
Ba5 N10 2.880207 1_555
Ba5 N9 2.919916 1_455
Ba5 N7 2.919918 1_545
Ba5 N4 3.078138 1_555
Ba5 N13 3.078150 1_554
Ba5 N12 3.092240 1_554
Ba5 N14 3.092246 1_555
Ba6 N15 2.716358 1_645
Ba6 N1 2.716362 1_554
Ba6 N8 2.981835 1_555
Ba6 N13 2.981835 1_555
Ba6 N5 3.112459 1_555
Ba6 N4 3.112475 1_555
Ba6 N2 3.243380 1_555
Ba6 N11 3.243393 1_555
Ba7 N7 2.880207 1_555
Ba7 N9 2.880207 1_555
Ba7 N10 2.919916 1_655
Ba7 N1 2.919918 1_564
Ba7 N0 3.078138 1_654
Ba7 N2 3.078150 1_565
Ba7 N15 3.092240 1_655
Ba7 N6 3.092246 1_564
Ca0 N14 2.370646 1_555
Ca0 N12 2.370651 1_555
Ca0 N13 2.478417 1_555
Ca0 N4 2.478426 1_555
Ca0 N2 2.684787 1_555
Ca0 N0 2.684793 1_555
Ca1 N6 2.370646 1_565
Ca1 N15 2.370651 1_655
Ca1 N2 2.478417 1_565
Ca1 N0 2.478426 1_655
Ca1 N13 2.684787 1_565
Ca1 N4 2.684793 1_655
Ca2 N9 2.370655 1_555
Ca2 N7 2.370655 1_555
Ca2 N5 2.478427 1_555
Ca2 N8 2.478437 1_555
Ca2 N11 2.684784 1_555
Ca2 N3 2.684798 1_555
Ca3 N10 2.370655 1_556
Ca3 N1 2.370655 1_555
Ca3 N3 2.478427 1_555
Ca3 N11 2.478437 1_556
Ca3 N8 2.684784 1_556
Ca3 N5 2.684798 1_555
Cr0 N7 1.739205 1_545
Cr0 N14 1.739208 1_555
Cr0 N3 1.750126 1_545
Cr0 N2 1.750141 1_555
Cr1 N12 1.739208 1_554
Cr1 N9 1.739212 1_455
Cr1 N11 1.750120 1_455
Cr1 N0 1.750134 1_554
Cr2 N1 1.739205 1_555
Cr2 N6 1.739208 1_555
Cr2 N5 1.750126 1_555
Cr2 N13 1.750141 1_555
Cr3 N15 1.739208 1_555
Cr3 N10 1.739212 1_555
Cr3 N8 1.750120 1_555
Cr3 N4 1.750134 1_555
