# generated using pymatgen
data_Y20Cd3Ni2Ag3
_symmetry_space_group_name_H-M   'P 1'
_cell_length_a   9.63072209
_cell_length_b   9.63072288
_cell_length_c   9.63651305
_cell_angle_alpha   90.00000000
_cell_angle_beta   90.00000000
_cell_angle_gamma   119.99999728
_symmetry_Int_Tables_number   1
_chemical_formula_structural   Y20Cd3Ni2Ag3
_chemical_formula_sum   'Y20 Cd3 Ni2 Ag3'
_cell_volume   774.04871639
_cell_formula_units_Z   1
loop_
 _symmetry_equiv_pos_site_id
 _symmetry_equiv_pos_as_xyz
  1  'x, y, z'
loop_
 _atom_site_type_symbol
 _atom_site_label
 _atom_site_symmetry_multiplicity
 _atom_site_fract_x
 _atom_site_fract_y
 _atom_site_fract_z
 _atom_site_occupancy
  Y  Y0  1  0.00000000  0.00000000  0.47637143  1
  Y  Y1  1  0.00000000  0.00000000  0.02362857  1
  Y  Y2  1  0.54377384  0.45622616  0.25000000  1
  Y  Y3  1  0.54377384  0.08754669  0.25000000  1
  Y  Y4  1  0.91245331  0.45622616  0.25000000  1
  Y  Y5  1  0.45599239  0.54400761  0.75000000  1
  Y  Y6  1  0.45599239  0.91198478  0.75000000  1
  Y  Y7  1  0.08801522  0.54400761  0.75000000  1
  Y  Y8  1  0.20997329  0.79002671  0.43622304  1
  Y  Y9  1  0.20997329  0.41994657  0.43622304  1
  Y  Y10  1  0.58005343  0.79002671  0.43622304  1
  Y  Y11  1  0.79082991  0.20917009  0.56486464  1
  Y  Y12  1  0.79082991  0.58165882  0.56486464  1
  Y  Y13  1  0.41834118  0.20917009  0.56486464  1
  Y  Y14  1  0.79082991  0.20917009  0.93513536  1
  Y  Y15  1  0.79082991  0.58165882  0.93513536  1
  Y  Y16  1  0.41834118  0.20917009  0.93513536  1
  Y  Y17  1  0.20997329  0.79002671  0.06377696  1
  Y  Y18  1  0.20997329  0.41994657  0.06377696  1
  Y  Y19  1  0.58005343  0.79002671  0.06377696  1
  Cd  Cd0  1  0.11143245  0.88856755  0.75000000  1
  Cd  Cd1  1  0.11143245  0.22286390  0.75000000  1
  Cd  Cd2  1  0.77713610  0.88856755  0.75000000  1
  Ni  Ni0  1  0.33333300  0.66666700  0.25000000  1
  Ni  Ni1  1  0.66666700  0.33333300  0.75000000  1
  Ag  Ag0  1  0.87712373  0.12287627  0.25000000  1
  Ag  Ag1  1  0.87712373  0.75424745  0.25000000  1
  Ag  Ag2  1  0.24575255  0.12287627  0.25000000  1
loop_
_geom_bond_atom_site_label_1
_geom_bond_atom_site_label_2
_geom_bond_distance
_geom_bond_site_symmetry_2
Y0 Y10 3.523847 1_445
Y0 Y8 3.523847 1_545
Y0 Y9 3.523847 1_555
Y0 Y11 3.591844 1_455
Y0 Y13 3.591852 1_555
Y0 Y12 3.591853 1_445
Y1 Y19 3.523847 1_445
Y1 Y17 3.523847 1_545
Y1 Y18 3.523847 1_555
Y1 Y14 3.591844 1_454
Y1 Y16 3.591852 1_554
Y1 Y15 3.591853 1_444
Y2 Y9 3.543132 1_555
Y2 Y4 3.550649 1_555
Y2 Y3 3.550650 1_555
Y3 Y8 3.543129 1_545
Y3 Y4 3.550650 1_555
Y4 Y9 3.543124 1_655
Y4 Y8 3.543129 1_655
Y5 Y7 3.543886 1_555
Y5 Y6 3.543886 1_555
Y5 Y9 3.654216 1_555
Y6 Y7 3.543886 1_555
Y6 Y8 3.654216 1_555
Y7 Y9 3.654216 1_555
Y7 Y8 3.654216 1_555
Y10 Y3 3.543124 1_565
Y10 Y2 3.543132 1_555
Y10 Y6 3.654216 1_555
Y10 Y5 3.654216 1_555
Y11 Y6 3.541734 1_545
Y11 Y7 3.541734 1_655
Y11 Y3 3.667777 1_555
Y11 Y4 3.667778 1_555
Y12 Y7 3.541729 1_655
Y12 Y5 3.541738 1_555
Y12 Y2 3.667777 1_555
Y12 Y4 3.667777 1_555
Y13 Y6 3.541729 1_545
Y13 Y5 3.541738 1_555
Y13 Y3 3.667777 1_555
Y13 Y2 3.667778 1_555
Y14 Y6 3.541734 1_545
Y14 Y7 3.541734 1_655
Y14 Y3 3.667777 1_556
Y14 Y4 3.667778 1_556
Y15 Y7 3.541729 1_655
Y15 Y5 3.541738 1_555
Y15 Y2 3.667777 1_556
Y15 Y4 3.667777 1_556
Y16 Y6 3.541729 1_545
Y16 Y5 3.541738 1_555
Y16 Y3 3.667777 1_556
Y16 Y2 3.667778 1_556
Y17 Y3 3.543129 1_565
Y17 Y4 3.543129 1_455
Y17 Y6 3.654216 1_554
Y17 Y7 3.654216 1_554
Y18 Y4 3.543124 1_455
Y18 Y2 3.543132 1_555
Y18 Y7 3.654216 1_554
Y18 Y5 3.654216 1_554
Y19 Y3 3.543124 1_565
Y19 Y2 3.543132 1_555
Y19 Y6 3.654216 1_554
Y19 Y5 3.654216 1_554
Cd0 Y6 3.211543 1_555
Cd0 Y7 3.211543 1_555
Cd0 Cd2 3.219515 1_455
Cd0 Cd1 3.219516 1_565
Cd0 Y0 3.226137 1_565
Cd0 Y1 3.226137 1_566
Cd0 Y17 3.441623 1_556
Cd0 Y8 3.441623 1_555
Cd0 Y15 3.510918 1_455
Cd0 Y12 3.510918 1_455
Cd0 Y16 3.510918 1_565
Cd0 Y13 3.510918 1_565
Cd1 Y5 3.211548 1_555
Cd1 Y7 3.211553 1_555
Cd1 Cd2 3.219516 1_445
Cd1 Y1 3.226132 1_556
Cd1 Y0 3.226132 1_555
Cd1 Y18 3.441627 1_556
Cd1 Y9 3.441627 1_555
Cd1 Y14 3.510918 1_455
Cd1 Y16 3.510918 1_555
Cd1 Y11 3.510918 1_455
Cd1 Y13 3.510918 1_555
Cd2 Y5 3.211548 1_555
Cd2 Y6 3.211553 1_555
Cd2 Y0 3.226132 1_665
Cd2 Y1 3.226132 1_666
Cd2 Y19 3.441627 1_556
Cd2 Y10 3.441627 1_555
Cd2 Y15 3.510918 1_555
Cd2 Y12 3.510918 1_555
Cd2 Y14 3.510918 1_565
Cd2 Y11 3.510918 1_565
Ni0 Y8 2.730333 1_555
Ni0 Y17 2.730333 1_555
Ni0 Y10 2.730339 1_555
Ni0 Y19 2.730339 1_555
Ni0 Y9 2.730339 1_555
Ni0 Y18 2.730339 1_555
Ni0 Y4 3.510326 1_455
Ni0 Y3 3.510326 1_565
Ni0 Y2 3.510343 1_555
Ni1 Y16 2.733592 1_555
Ni1 Y13 2.733592 1_555
Ni1 Y14 2.733592 1_555
Ni1 Y11 2.733592 1_555
Ni1 Y15 2.733592 1_555
Ni1 Y12 2.733592 1_555
Ni1 Y7 3.514234 1_655
Ni1 Y6 3.514234 1_545
Ni1 Y5 3.514242 1_555
Ag0 Y1 2.993302 1_655
Ag0 Y0 2.993302 1_655
Ag0 Y3 3.054521 1_555
Ag0 Y4 3.054522 1_555
Ag0 Y11 3.358332 1_555
Ag0 Y14 3.358332 1_554
Ag0 Y9 3.536988 1_655
Ag0 Y18 3.536988 1_655
Ag0 Y10 3.536988 1_545
Ag0 Y19 3.536988 1_545
Ag0 Ag2 3.550162 1_655
Ag0 Ag1 3.550162 1_545
Ag1 Y0 2.993302 1_665
Ag1 Y1 2.993302 1_665
Ag1 Y2 3.054526 1_555
Ag1 Y4 3.054531 1_555
Ag1 Y12 3.358336 1_555
Ag1 Y15 3.358336 1_554
Ag1 Y10 3.536988 1_555
Ag1 Y19 3.536988 1_555
Ag1 Y8 3.536988 1_655
Ag1 Y17 3.536988 1_655
Ag1 Ag2 3.550162 1_665
Ag2 Y1 2.993302 1_555
Ag2 Y0 2.993302 1_555
Ag2 Y2 3.054526 1_555
Ag2 Y3 3.054531 1_555
Ag2 Y13 3.358336 1_555
Ag2 Y16 3.358336 1_554
Ag2 Y9 3.536988 1_555
Ag2 Y18 3.536988 1_555
Ag2 Y8 3.536988 1_545
Ag2 Y17 3.536988 1_545
