# generated using pymatgen
data_Ti3MnSe6
_symmetry_space_group_name_H-M   'P 1'
_cell_length_a   7.21277276
_cell_length_b   7.21277240
_cell_length_c   7.21277277
_cell_angle_alpha   51.37596114
_cell_angle_beta   51.37596400
_cell_angle_gamma   51.37596158
_symmetry_Int_Tables_number   1
_chemical_formula_structural   Ti3MnSe6
_chemical_formula_sum   'Ti3 Mn1 Se6'
_cell_volume   211.44292159
_cell_formula_units_Z   1
loop_
 _symmetry_equiv_pos_site_id
 _symmetry_equiv_pos_as_xyz
  1  'x, y, z'
loop_
 _atom_site_type_symbol
 _atom_site_label
 _atom_site_symmetry_multiplicity
 _atom_site_fract_x
 _atom_site_fract_y
 _atom_site_fract_z
 _atom_site_occupancy
  Ti  Ti0  1  0.00000000  0.00000000  0.00000000  1
  Ti  Ti1  1  0.33270374  0.33270374  0.33270374  1
  Ti  Ti2  1  0.66729626  0.66729626  0.66729626  1
  Mn  Mn0  1  0.50000000  0.50000000  0.50000000  1
  Se  Se0  1  0.92122947  0.58574309  0.24891799  1
  Se  Se1  1  0.58574309  0.24891799  0.92122947  1
  Se  Se2  1  0.24891799  0.92122947  0.58574309  1
  Se  Se3  1  0.75108201  0.07877053  0.41425691  1
  Se  Se4  1  0.41425691  0.75108201  0.07877053  1
  Se  Se5  1  0.07877053  0.41425691  0.75108201  1
loop_
_geom_bond_atom_site_label_1
_geom_bond_atom_site_label_2
_geom_bond_distance
_geom_bond_site_symmetry_2
Mn0 Se2 2.640359 1_555
Mn0 Se3 2.640359 1_555
Mn0 Se1 2.640359 1_555
Mn0 Se4 2.640359 1_555
Mn0 Se0 2.640359 1_555
Mn0 Se5 2.640359 1_555
Se0 Ti1 2.569897 1_655
Se0 Ti0 2.573468 1_665
Se0 Ti2 2.603443 1_555
Se1 Ti1 2.569897 1_556
Se1 Ti0 2.573468 1_656
Se1 Ti2 2.603442 1_555
Se2 Ti1 2.569897 1_565
Se2 Ti0 2.573468 1_566
Se2 Ti2 2.603442 1_555
Se3 Ti2 2.569897 1_545
Se3 Ti0 2.573468 1_655
Se3 Ti1 2.603442 1_555
Se4 Ti2 2.569897 1_554
Se4 Ti0 2.573468 1_565
Se4 Ti1 2.603442 1_555
Se5 Ti2 2.569897 1_455
Se5 Ti0 2.573468 1_556
Se5 Ti1 2.603443 1_555
