# generated using pymatgen
data_Y6Al7Pd16S
_symmetry_space_group_name_H-M   'P 1'
_cell_length_a   8.96370933
_cell_length_b   8.96370863
_cell_length_c   8.96370863
_cell_angle_alpha   59.99999998
_cell_angle_beta   60.00000256
_cell_angle_gamma   60.00000121
_symmetry_Int_Tables_number   1
_chemical_formula_structural   Y6Al7Pd16S
_chemical_formula_sum   'Y6 Al7 Pd16 S1'
_cell_volume   509.27017382
_cell_formula_units_Z   1
loop_
 _symmetry_equiv_pos_site_id
 _symmetry_equiv_pos_as_xyz
  1  'x, y, z'
loop_
 _atom_site_type_symbol
 _atom_site_label
 _atom_site_symmetry_multiplicity
 _atom_site_fract_x
 _atom_site_fract_y
 _atom_site_fract_z
 _atom_site_occupancy
  Y  Y0  1  0.71418841  0.28581159  0.28581159  1
  Y  Y1  1  0.28581159  0.71418841  0.71418841  1
  Y  Y2  1  0.28581159  0.71418841  0.28581159  1
  Y  Y3  1  0.71418841  0.28581159  0.71418841  1
  Y  Y4  1  0.28581159  0.28581159  0.71418841  1
  Y  Y5  1  0.71418841  0.71418841  0.28581159  1
  Al  Al0  1  0.00000000  0.00000000  0.00000000  1
  Al  Al1  1  0.50000000  0.00000000  0.00000000  1
  Al  Al2  1  0.00000000  0.50000000  0.50000000  1
  Al  Al3  1  0.00000000  0.50000000  0.00000000  1
  Al  Al4  1  0.50000000  0.00000000  0.50000000  1
  Al  Al5  1  0.00000000  0.00000000  0.50000000  1
  Al  Al6  1  0.50000000  0.50000000  0.00000000  1
  Pd  Pd0  1  0.11888271  0.11888271  0.11888271  1
  Pd  Pd1  1  0.88111729  0.88111729  0.88111729  1
  Pd  Pd2  1  0.11888271  0.11888271  0.64335188  1
  Pd  Pd3  1  0.11888271  0.64335188  0.11888271  1
  Pd  Pd4  1  0.88111729  0.88111729  0.35664812  1
  Pd  Pd5  1  0.88111729  0.35664812  0.88111729  1
  Pd  Pd6  1  0.64335188  0.11888271  0.11888271  1
  Pd  Pd7  1  0.35664812  0.88111729  0.88111729  1
  Pd  Pd8  1  0.33270849  0.33270849  0.33270849  1
  Pd  Pd9  1  0.66729151  0.66729151  0.66729151  1
  Pd  Pd10  1  0.33270849  0.33270849  0.00187453  1
  Pd  Pd11  1  0.33270849  0.00187453  0.33270849  1
  Pd  Pd12  1  0.66729151  0.66729151  0.99812547  1
  Pd  Pd13  1  0.66729151  0.99812547  0.66729151  1
  Pd  Pd14  1  0.00187453  0.33270849  0.33270849  1
  Pd  Pd15  1  0.99812547  0.66729151  0.66729151  1
  S  S0  1  0.50000000  0.50000000  0.50000000  1
loop_
_geom_bond_atom_site_label_1
_geom_bond_atom_site_label_2
_geom_bond_distance
_geom_bond_site_symmetry_2
Al0 Pd5 2.610250 1_454
Al0 Pd3 2.610250 1_545
Al0 Pd1 2.610250 1_444
Al0 Pd2 2.610250 1_554
Al0 Pd4 2.610250 1_445
Al0 Pd0 2.610250 1_555
Al0 Pd7 2.610250 1_544
Al0 Pd6 2.610250 1_455
Al1 Pd10 2.587636 1_555
Al1 Pd12 2.587636 1_544
Al1 Pd11 2.587636 1_555
Al1 Pd13 2.587636 1_544
Al1 Pd6 2.792209 1_555
Al1 Pd7 2.792209 1_544
Al1 Pd0 2.792209 1_555
Al1 Pd1 2.792209 1_544
Al2 Pd15 2.587636 1_455
Al2 Pd14 2.587636 1_555
Al2 Pd9 2.587636 1_455
Al2 Pd8 2.587636 1_555
Al2 Pd2 2.792209 1_555
Al2 Pd4 2.792209 1_455
Al2 Pd3 2.792209 1_555
Al2 Pd5 2.792209 1_455
Al3 Pd14 2.587636 1_555
Al3 Pd15 2.587636 1_454
Al3 Pd10 2.587636 1_555
Al3 Pd12 2.587636 1_454
Al3 Pd0 2.792209 1_555
Al3 Pd1 2.792209 1_454
Al3 Pd3 2.792209 1_555
Al3 Pd5 2.792209 1_454
Al4 Pd8 2.587636 1_555
Al4 Pd9 2.587636 1_545
Al4 Pd13 2.587636 1_545
Al4 Pd11 2.587636 1_555
Al4 Pd6 2.792209 1_555
Al4 Pd7 2.792209 1_545
Al4 Pd2 2.792209 1_555
Al4 Pd4 2.792209 1_545
Al5 Pd14 2.587636 1_555
Al5 Pd15 2.587636 1_445
Al5 Pd11 2.587636 1_555
Al5 Pd13 2.587636 1_445
Al5 Pd4 2.792209 1_445
Al5 Pd0 2.792209 1_555
Al5 Pd1 2.792209 1_445
Al5 Pd2 2.792209 1_555
Al6 Pd12 2.587636 1_554
Al6 Pd10 2.587636 1_555
Al6 Pd8 2.587636 1_555
Al6 Pd9 2.587636 1_554
Al6 Pd7 2.792209 1_554
Al6 Pd6 2.792209 1_555
Al6 Pd5 2.792209 1_554
Al6 Pd3 2.792209 1_555
Pd0 Y2 3.003349 1_545
Pd0 Y4 3.003349 1_554
Pd0 Y0 3.003350 1_455
Pd1 Y3 3.003349 1_565
Pd1 Y5 3.003349 1_556
Pd1 Y1 3.003350 1_655
Pd2 Y1 3.003349 1_545
Pd2 Y4 3.003349 1_555
Pd2 Y3 3.003350 1_455
Pd3 Y2 3.003349 1_555
Pd3 Y1 3.003349 1_554
Pd3 Y5 3.003350 1_455
Pd4 Y0 3.003349 1_565
Pd4 Y5 3.003349 1_555
Pd4 Y2 3.003350 1_655
Pd5 Y3 3.003349 1_555
Pd5 Y0 3.003349 1_556
Pd5 Y4 3.003350 1_655
Pd6 Y5 3.003349 1_545
Pd6 Y3 3.003349 1_554
Pd6 Y0 3.003349 1_555
Pd7 Y4 3.003349 1_565
Pd7 Y2 3.003349 1_556
Pd7 Y1 3.003349 1_555
Pd8 Y2 3.057458 1_555
Pd8 Y4 3.057458 1_555
Pd8 Y0 3.057459 1_555
Pd9 Y3 3.057458 1_555
Pd9 Y5 3.057458 1_555
Pd9 Y1 3.057459 1_555
Pd10 Y1 3.057458 1_554
Pd10 Y4 3.057458 1_554
Pd10 Y3 3.057459 1_554
Pd11 Y1 3.057458 1_545
Pd11 Y2 3.057458 1_545
Pd11 Y5 3.057459 1_545
Pd12 Y0 3.057458 1_556
Pd12 Y5 3.057458 1_556
Pd12 Y2 3.057459 1_556
Pd13 Y0 3.057458 1_565
Pd13 Y3 3.057458 1_565
Pd13 Y4 3.057459 1_565
Pd14 Y5 3.057458 1_455
Pd14 Y3 3.057458 1_455
Pd14 Y0 3.057458 1_455
Pd15 Y4 3.057458 1_655
Pd15 Y2 3.057458 1_655
Pd15 Y1 3.057458 1_655
S0 Y1 2.715181 1_555
S0 Y3 2.715181 1_555
S0 Y0 2.715181 1_555
S0 Y2 2.715181 1_555
S0 Y5 2.715181 1_555
S0 Y4 2.715181 1_555
