# generated using pymatgen
data_Sr7Pt3
_symmetry_space_group_name_H-M   'P 1'
_cell_length_a   7.19222147
_cell_length_b   7.97911146
_cell_length_c   24.37032059
_cell_angle_alpha   90.00000000
_cell_angle_beta   90.00000000
_cell_angle_gamma   90.00000000
_symmetry_Int_Tables_number   1
_chemical_formula_structural   Sr7Pt3
_chemical_formula_sum   'Sr28 Pt12'
_cell_volume   1398.55266857
_cell_formula_units_Z   4
loop_
 _symmetry_equiv_pos_site_id
 _symmetry_equiv_pos_as_xyz
  1  'x, y, z'
loop_
 _atom_site_type_symbol
 _atom_site_label
 _atom_site_symmetry_multiplicity
 _atom_site_fract_x
 _atom_site_fract_y
 _atom_site_fract_z
 _atom_site_occupancy
  Sr  Sr0  1  0.65619920  0.45647066  0.38175958  1
  Sr  Sr1  1  0.15619920  0.04352934  0.61824042  1
  Sr  Sr2  1  0.84380080  0.95647066  0.11824042  1
  Sr  Sr3  1  0.34380080  0.54352934  0.88175958  1
  Sr  Sr4  1  0.34380080  0.54352934  0.61824042  1
  Sr  Sr5  1  0.84380080  0.95647066  0.38175958  1
  Sr  Sr6  1  0.15619920  0.04352934  0.88175958  1
  Sr  Sr7  1  0.65619920  0.45647066  0.11824042  1
  Sr  Sr8  1  0.17705808  0.33289371  0.47721766  1
  Sr  Sr9  1  0.67705808  0.16710629  0.52278234  1
  Sr  Sr10  1  0.32294192  0.83289371  0.02278234  1
  Sr  Sr11  1  0.82294192  0.66710629  0.97721766  1
  Sr  Sr12  1  0.64750511  0.17601602  0.25000000  1
  Sr  Sr13  1  0.14750511  0.32398398  0.75000000  1
  Sr  Sr14  1  0.85249489  0.67601602  0.25000000  1
  Sr  Sr15  1  0.35249489  0.82398398  0.75000000  1
  Sr  Sr16  1  0.18731546  0.32028836  0.17427138  1
  Sr  Sr17  1  0.68731546  0.17971164  0.82572862  1
  Sr  Sr18  1  0.31268454  0.82028836  0.32572862  1
  Sr  Sr19  1  0.81268454  0.67971164  0.67427138  1
  Sr  Sr20  1  0.81268454  0.67971164  0.82572862  1
  Sr  Sr21  1  0.31268454  0.82028836  0.17427138  1
  Sr  Sr22  1  0.68731546  0.17971164  0.67427138  1
  Sr  Sr23  1  0.18731546  0.32028836  0.32572862  1
  Sr  Sr24  1  0.17705808  0.33289371  0.02278234  1
  Sr  Sr25  1  0.67705808  0.16710629  0.97721766  1
  Sr  Sr26  1  0.32294192  0.83289371  0.47721766  1
  Sr  Sr27  1  0.82294192  0.66710629  0.52278234  1
  Pt  Pt0  1  0.46441376  0.12254775  0.40499350  1
  Pt  Pt1  1  0.96441376  0.37745225  0.59500650  1
  Pt  Pt2  1  0.03558624  0.62254775  0.09500650  1
  Pt  Pt3  1  0.53558624  0.87745225  0.90499350  1
  Pt  Pt4  1  0.53558624  0.87745225  0.59500650  1
  Pt  Pt5  1  0.03558624  0.62254775  0.40499350  1
  Pt  Pt6  1  0.96441376  0.37745225  0.90499350  1
  Pt  Pt7  1  0.46441376  0.12254775  0.09500650  1
  Pt  Pt8  1  0.96702952  0.97855200  0.75000000  1
  Pt  Pt9  1  0.46702952  0.52144800  0.25000000  1
  Pt  Pt10  1  0.53297048  0.47855200  0.75000000  1
  Pt  Pt11  1  0.03297048  0.02144800  0.25000000  1
loop_
_geom_bond_atom_site_label_1
_geom_bond_atom_site_label_2
_geom_bond_distance
_geom_bond_site_symmetry_2
Pt0 Sr0 3.053247 1_555
Pt0 Sr26 3.078133 1_545
Pt0 Sr5 3.085785 1_545
Pt0 Sr8 3.191604 1_555
Pt0 Sr23 3.192616 1_555
Pt0 Sr9 3.271925 1_555
Pt0 Sr18 3.277037 1_545
Pt1 Sr1 3.053247 1_655
Pt1 Sr27 3.078133 1_555
Pt1 Sr4 3.085785 1_655
Pt1 Sr9 3.191604 1_555
Pt1 Sr22 3.192616 1_555
Pt1 Sr8 3.271925 1_655
Pt1 Sr19 3.277037 1_555
Pt2 Sr2 3.053247 1_455
Pt2 Sr24 3.078133 1_555
Pt2 Sr7 3.085785 1_455
Pt2 Sr10 3.191604 1_555
Pt2 Sr21 3.192616 1_555
Pt2 Sr11 3.271925 1_454
Pt2 Sr16 3.277037 1_555
Pt3 Sr3 3.053247 1_555
Pt3 Sr25 3.078133 1_565
Pt3 Sr6 3.085785 1_565
Pt3 Sr11 3.191604 1_555
Pt3 Sr20 3.192616 1_555
Pt3 Sr10 3.271925 1_556
Pt3 Sr17 3.277037 1_565
Pt4 Sr4 3.053247 1_555
Pt4 Sr9 3.078133 1_565
Pt4 Sr1 3.085785 1_565
Pt4 Sr27 3.191604 1_555
Pt4 Sr19 3.192616 1_555
Pt4 Sr26 3.271925 1_555
Pt4 Sr22 3.277037 1_565
Pt5 Sr5 3.053247 1_455
Pt5 Sr8 3.078133 1_555
Pt5 Sr0 3.085785 1_455
Pt5 Sr26 3.191604 1_555
Pt5 Sr18 3.192616 1_555
Pt5 Sr27 3.271925 1_455
Pt5 Sr23 3.277037 1_555
Pt6 Sr6 3.053247 1_655
Pt6 Sr11 3.078133 1_555
Pt6 Sr3 3.085785 1_655
Pt6 Sr25 3.191604 1_555
Pt6 Sr17 3.192616 1_555
Pt6 Sr24 3.271925 1_656
Pt6 Sr20 3.277037 1_555
Pt7 Sr7 3.053247 1_555
Pt7 Sr10 3.078133 1_545
Pt7 Sr2 3.085785 1_545
Pt7 Sr24 3.191604 1_555
Pt7 Sr16 3.192616 1_555
Pt7 Sr25 3.271925 1_554
Pt7 Sr21 3.277037 1_545
Pt8 Sr15 3.034305 1_655
Pt8 Sr13 3.046591 1_665
Pt8 Sr17 3.166931 1_565
Pt8 Sr22 3.166931 1_565
Pt8 Sr19 3.213101 1_555
Pt8 Sr20 3.213101 1_555
Pt8 Sr1 3.525701 1_665
Pt8 Sr6 3.525701 1_665
Pt9 Sr14 3.034305 1_555
Pt9 Sr12 3.046591 1_555
Pt9 Sr16 3.166931 1_555
Pt9 Sr23 3.166931 1_555
Pt9 Sr21 3.213101 1_555
Pt9 Sr18 3.213101 1_555
Pt9 Sr0 3.525701 1_555
Pt9 Sr7 3.525701 1_555
Pt10 Sr13 3.034305 1_555
Pt10 Sr15 3.046591 1_555
Pt10 Sr19 3.166931 1_555
Pt10 Sr20 3.166931 1_555
Pt10 Sr22 3.213101 1_555
Pt10 Sr17 3.213101 1_555
Pt10 Sr4 3.525701 1_555
Pt10 Sr3 3.525701 1_555
Pt11 Sr12 3.034305 1_455
Pt11 Sr14 3.046591 1_445
Pt11 Sr21 3.166931 1_545
Pt11 Sr18 3.166931 1_545
Pt11 Sr16 3.213101 1_555
Pt11 Sr23 3.213101 1_555
Pt11 Sr2 3.525701 1_445
Pt11 Sr5 3.525701 1_445
