# generated using pymatgen
data_LiCa7(PbN)2
_symmetry_space_group_name_H-M   'P 1'
_cell_length_a   12.46593540
_cell_length_b   12.46593416
_cell_length_c   4.95250903
_cell_angle_alpha   90.00000000
_cell_angle_beta   90.00000000
_cell_angle_gamma   157.14955030
_symmetry_Int_Tables_number   1
_chemical_formula_structural   LiCa7(PbN)2
_chemical_formula_sum   'Li1 Ca7 Pb2 N2'
_cell_volume   298.86339897
_cell_formula_units_Z   1
loop_
 _symmetry_equiv_pos_site_id
 _symmetry_equiv_pos_as_xyz
  1  'x, y, z'
loop_
 _atom_site_type_symbol
 _atom_site_label
 _atom_site_symmetry_multiplicity
 _atom_site_fract_x
 _atom_site_fract_y
 _atom_site_fract_z
 _atom_site_occupancy
  Li  Li0  1  0.72347450  0.27652650  0.49999900  1
  Ca  Ca0  1  0.99709700  0.00290300  0.00000000  1
  Ca  Ca1  1  0.80549288  0.19450812  0.00000000  1
  Ca  Ca2  1  0.59245380  0.40754720  0.00000000  1
  Ca  Ca3  1  0.40072821  0.59927279  0.00000000  1
  Ca  Ca4  1  0.19684626  0.80315474  0.00000000  1
  Ca  Ca5  1  0.90092983  0.09907117  0.49999900  1
  Ca  Ca6  1  0.09316924  0.90683176  0.49999900  1
  Pb  Pb0  1  0.49958490  0.50041510  0.49999900  1
  Pb  Pb1  1  0.28905083  0.71095017  0.49999900  1
  N  N0  1  0.89844696  0.10155404  0.00000000  1
  N  N1  1  0.10272960  0.89727140  0.00000000  1
loop_
_geom_bond_atom_site_label_1
_geom_bond_atom_site_label_2
_geom_bond_distance
_geom_bond_site_symmetry_2
Li0 Pb1 2.943789 1_545
Li0 Pb1 2.943790 1_655
Ca0 N0 2.410804 1_555
Ca0 N1 2.581418 1_645
Ca0 Pb0 3.497608 1_545
Ca0 Pb0 3.497608 1_655
Ca0 Pb0 3.497615 1_544
Ca0 Pb0 3.497615 1_654
Ca1 N0 2.271595 1_555
Ca1 Pb1 3.520087 1_655
Ca1 Pb1 3.520088 1_545
Ca1 Pb1 3.520094 1_654
Ca1 Pb1 3.520095 1_544
Ca2 N1 2.482099 1_545
Ca2 N1 2.482099 1_655
Ca2 Pb0 3.358936 1_555
Ca2 Pb0 3.358943 1_554
Ca3 N0 2.469992 1_565
Ca3 N0 2.469992 1_455
Ca3 Pb0 3.459503 1_555
Ca3 Pb0 3.459511 1_554
Ca3 Pb1 3.685116 1_555
Ca3 Pb1 3.685123 1_554
Ca4 N1 2.300006 1_555
Ca4 Pb1 3.347996 1_555
Ca4 Pb1 3.348003 1_554
Ca5 N0 2.476993 1_555
Ca5 N0 2.477003 1_556
Ca5 Pb0 3.451133 1_655
Ca5 Pb0 3.451135 1_545
Ca5 Pb1 3.684147 1_655
Ca5 Pb1 3.684148 1_545
Ca6 N1 2.487247 1_555
Ca6 N1 2.487257 1_556
Ca6 Pb0 3.365715 1_565
Ca6 Pb0 3.365720 1_455
