# generated using pymatgen
data_CaGa2(SnIr)4
_symmetry_space_group_name_H-M   'P 1'
_cell_length_a   6.78282910
_cell_length_b   6.78282897
_cell_length_c   6.79869480
_cell_angle_alpha   119.45894833
_cell_angle_beta   119.45894514
_cell_angle_gamma   90.80787949
_symmetry_Int_Tables_number   1
_chemical_formula_structural   CaGa2(SnIr)4
_chemical_formula_sum   'Ca1 Ga2 Sn4 Ir4'
_cell_volume   223.20881995
_cell_formula_units_Z   1
loop_
 _symmetry_equiv_pos_site_id
 _symmetry_equiv_pos_as_xyz
  1  'x, y, z'
loop_
 _atom_site_type_symbol
 _atom_site_label
 _atom_site_symmetry_multiplicity
 _atom_site_fract_x
 _atom_site_fract_y
 _atom_site_fract_z
 _atom_site_occupancy
  Ca  Ca0  1  0.97926994  0.97926994  1.00000000  1
  Ga  Ga0  1  0.88282257  0.53062826  0.00000000  1
  Ga  Ga1  1  0.53062826  0.88282257  1.00000000  1
  Sn  Sn0  1  0.45964897  0.45964897  0.33702828  1
  Sn  Sn1  1  0.50596193  0.00596293  0.49999900  1
  Sn  Sn2  1  0.00596293  0.50596193  0.49999900  1
  Sn  Sn3  1  0.12261969  0.12261969  0.66297072  1
  Ir  Ir0  1  0.60173784  0.23821027  1.00000000  1
  Ir  Ir1  1  0.23821027  0.60173784  1.00000000  1
  Ir  Ir2  1  0.74674878  0.74674878  0.32036196  1
  Ir  Ir3  1  0.42638583  0.42638583  0.67963704  1
loop_
_geom_bond_atom_site_label_1
_geom_bond_atom_site_label_2
_geom_bond_distance
_geom_bond_site_symmetry_2
Ca0 Ga0 3.103552 1_556
Ca0 Ga1 3.103552 1_555
Ca0 Ir1 3.125532 1_655
Ca0 Ir0 3.125533 1_565
Ca0 Sn3 3.390759 1_665
Ca0 Sn0 3.390760 1_666
Ca0 Sn2 3.432539 1_666
Ca0 Sn1 3.432539 1_666
Ca0 Sn2 3.432552 1_655
Ca0 Sn1 3.432553 1_565
Ca0 Ir3 3.452412 1_666
Ca0 Ir2 3.452418 1_555
Ca0 Sn3 3.682234 1_666
Ca0 Sn0 3.682236 1_555
Ga0 Ir1 2.451637 1_654
Ga0 Ir2 2.572862 1_555
Ga0 Ir3 2.572867 1_554
Ga0 Ir0 2.731713 1_554
Ga0 Sn2 3.170455 1_655
Ga0 Sn1 3.170460 1_554
Ga1 Ir0 2.451637 1_565
Ga1 Ir2 2.572862 1_556
Ga1 Ir3 2.572867 1_555
Ga1 Ir1 2.731713 1_555
Ga1 Sn1 3.170455 1_566
Ga1 Sn2 3.170460 1_555
Sn0 Sn1 3.262499 1_565
Sn0 Sn2 3.262499 1_655
Sn0 Sn3 3.270618 1_554
Sn1 Sn3 3.262496 1_555
Sn2 Sn3 3.262496 1_555
Ir0 Sn2 2.644054 1_656
Ir0 Sn1 2.644060 1_555
Ir0 Sn0 2.694974 1_556
Ir0 Sn3 2.694980 1_555
Ir0 Ir2 2.831392 1_556
Ir0 Ir3 2.831392 1_555
Ir1 Sn1 2.644054 1_566
Ir1 Sn2 2.644060 1_555
Ir1 Sn0 2.694974 1_556
Ir1 Sn3 2.694979 1_555
Ir1 Ir3 2.831392 1_555
Ir1 Ir2 2.831392 1_556
Ir2 Sn3 2.561203 1_665
Ir2 Sn1 2.679753 1_565
Ir2 Sn2 2.679753 1_655
Ir2 Sn0 2.815014 1_555
Ir3 Sn0 2.561210 1_555
Ir3 Sn1 2.679745 1_555
Ir3 Sn2 2.679745 1_555
Ir3 Sn3 2.815014 1_555
