# generated using pymatgen
data_Li4TaN3
_symmetry_space_group_name_H-M   'P 1'
_cell_length_a   8.88139027
_cell_length_b   8.88115263
_cell_length_c   8.88108037
_cell_angle_alpha   148.11415088
_cell_angle_beta   114.03434777
_cell_angle_gamma   75.14313825
_symmetry_Int_Tables_number   1
_chemical_formula_structural   Li4TaN3
_chemical_formula_sum   'Li16 Ta4 N12'
_cell_volume   332.09372566
_cell_formula_units_Z   4
loop_
 _symmetry_equiv_pos_site_id
 _symmetry_equiv_pos_as_xyz
  1  'x, y, z'
loop_
 _atom_site_type_symbol
 _atom_site_label
 _atom_site_symmetry_multiplicity
 _atom_site_fract_x
 _atom_site_fract_y
 _atom_site_fract_z
 _atom_site_occupancy
  Li  Li0  1  0.87949951  0.93823440  0.98854542  1
  Li  Li1  1  0.62047174  0.60903076  0.05871910  1
  Li  Li2  1  0.05030747  0.56174717  0.44124350  1
  Li  Li3  1  0.44968383  0.89093234  0.51143858  1
  Li  Li4  1  0.12050088  0.06176600  0.01145456  1
  Li  Li5  1  0.37952819  0.39096841  0.94128063  1
  Li  Li6  1  0.94969305  0.43825323  0.55875584  1
  Li  Li7  1  0.55031684  0.10906864  0.48856210  1
  Li  Li8  1  0.47579079  0.22574041  0.25005708  1
  Li  Li9  1  0.02426374  0.27428647  0.74999054  1
  Li  Li10  1  0.52421063  0.77426097  0.74994619  1
  Li  Li11  1  0.97573558  0.72571307  0.25000731  1
  Li  Li12  1  0.24997900  0.65811625  0.40810751  1
  Li  Li13  1  0.74998249  0.84166595  0.09165929  1
  Li  Li14  1  0.75002070  0.34188330  0.59189251  1
  Li  Li15  1  0.25001899  0.15833069  0.90833734  1
  Ta  Ta0  1  0.66904687  0.41903651  0.24999605  1
  Ta  Ta1  1  0.83095357  0.08094449  0.74998732  1
  Ta  Ta2  1  0.33095216  0.58096286  0.75000322  1
  Ta  Ta3  1  0.16904610  0.91905455  0.25001075  1
  N  N0  1  0.86701018  0.74998545  0.61699511  1
  N  N1  1  0.63298251  0.24998019  0.88297020  1
  N  N2  1  0.13299001  0.25001622  0.38300657  1
  N  N3  1  0.36701767  0.75002056  0.11703125  1
  N  N4  1  0.46051218  0.51847030  0.30682739  1
  N  N5  1  0.03948612  0.34630805  0.05795594  1
  N  N6  1  0.78834236  0.98151869  0.44202595  1
  N  N7  1  0.71165501  0.15368857  0.19318593  1
  N  N8  1  0.53948631  0.48153139  0.69317392  1
  N  N9  1  0.96051488  0.65369324  0.94204504  1
  N  N10  1  0.21165803  0.01848160  0.55797450  1
  N  N11  1  0.28834559  0.84631025  0.80681436  1
loop_
_geom_bond_atom_site_label_1
_geom_bond_atom_site_label_2
_geom_bond_distance
_geom_bond_site_symmetry_2
Li0 N7 2.006246 1_566
Li0 N0 2.030826 1_555
Li0 N9 2.147468 1_555
Li0 N2 2.303815 1_666
Li1 N6 2.006430 1_555
Li1 N1 2.030815 1_554
Li1 N8 2.147502 1_554
Li1 N3 2.303506 1_555
Li2 N5 2.006172 1_555
Li2 N0 2.030802 1_455
Li2 N11 2.147588 1_555
Li2 N2 2.303620 1_555
Li3 N4 2.006194 1_555
Li3 N1 2.030869 1_565
Li3 N10 2.147467 1_565
Li3 N3 2.303628 1_555
Li4 N11 2.006247 1_544
Li4 N2 2.030834 1_555
Li4 N5 2.147469 1_555
Li4 N0 2.303813 1_444
Li5 N10 2.006424 1_555
Li5 N3 2.030819 1_556
Li5 N4 2.147502 1_556
Li5 N1 2.303504 1_555
Li6 N9 2.006179 1_555
Li6 N2 2.030791 1_655
Li6 N7 2.147589 1_555
Li6 N0 2.303617 1_555
Li7 N8 2.006197 1_555
Li7 N3 2.030872 1_545
Li7 N6 2.147465 1_545
Li7 N1 2.303636 1_555
Li8 N8 2.152060 1_555
Li8 N11 2.152819 1_544
Li8 N7 2.162950 1_555
Li8 N4 2.163410 1_555
Li9 N9 2.152208 1_455
Li9 N10 2.152455 1_555
Li9 N5 2.163383 1_556
Li9 N6 2.163431 1_445
Li10 N4 2.152070 1_555
Li10 N7 2.152806 1_566
Li10 N11 2.162950 1_555
Li10 N8 2.163398 1_555
Li11 N5 2.152210 1_655
Li11 N6 2.152453 1_555
Li11 N9 2.163373 1_554
Li11 N10 2.163437 1_665
Li12 N5 2.032007 1_555
Li12 N4 2.032195 1_555
Li12 N11 2.169498 1_555
Li12 N10 2.169509 1_565
Li13 N7 2.032508 1_565
Li13 N6 2.032550 1_555
Li13 N8 2.168894 1_554
Li13 N9 2.169053 1_554
Li14 N9 2.032019 1_555
Li14 N8 2.032209 1_555
Li14 N7 2.169494 1_555
Li14 N6 2.169505 1_545
Li15 N11 2.032511 1_545
Li15 N10 2.032536 1_555
Li15 N4 2.168893 1_556
Li15 N5 2.169070 1_556
N0 Ta1 2.016654 1_565
N0 Ta0 2.016682 1_555
N1 Ta0 2.016657 1_556
N1 Ta1 2.016679 1_555
N2 Ta3 2.016657 1_545
N2 Ta2 2.016670 1_555
N3 Ta2 2.016665 1_554
N3 Ta3 2.016673 1_555
N4 Ta0 1.905411 1_555
N5 Ta1 1.905439 1_454
N6 Ta1 1.905328 1_565
N7 Ta0 1.905352 1_555
N8 Ta2 1.905402 1_555
N9 Ta3 1.905426 1_656
N10 Ta3 1.905339 1_545
N11 Ta2 1.905341 1_555
