# generated using pymatgen
data_RbHfMnF7
_symmetry_space_group_name_H-M   'P 1'
_cell_length_a   6.36861311
_cell_length_b   6.36861365
_cell_length_c   8.25318961
_cell_angle_alpha   90.00000000
_cell_angle_beta   90.00000000
_cell_angle_gamma   117.35838163
_symmetry_Int_Tables_number   1
_chemical_formula_structural   RbHfMnF7
_chemical_formula_sum   'Rb2 Hf2 Mn2 F14'
_cell_volume   297.30186544
_cell_formula_units_Z   2
loop_
 _symmetry_equiv_pos_site_id
 _symmetry_equiv_pos_as_xyz
  1  'x, y, z'
loop_
 _atom_site_type_symbol
 _atom_site_label
 _atom_site_symmetry_multiplicity
 _atom_site_fract_x
 _atom_site_fract_y
 _atom_site_fract_z
 _atom_site_occupancy
  Rb  Rb0  1  0.50000000  0.50000000  0.50000000  1
  Rb  Rb1  1  0.50000000  0.50000000  0.00000000  1
  Hf  Hf0  1  0.80832363  0.19167637  0.25000000  1
  Hf  Hf1  1  0.19167637  0.80832363  0.75000000  1
  Mn  Mn0  1  0.19124711  0.80875289  0.25000000  1
  Mn  Mn1  1  0.80875289  0.19124711  0.75000000  1
  F  F0  1  0.84160887  0.55764229  0.75000000  1
  F  F1  1  0.15839113  0.44235771  0.25000000  1
  F  F2  1  0.16619264  0.46988223  0.75000000  1
  F  F3  1  0.80027542  0.19972458  0.49247951  1
  F  F4  1  0.44235771  0.15839113  0.75000000  1
  F  F5  1  0.80027542  0.19972458  0.00752049  1
  F  F6  1  0.19972458  0.80027542  0.99247951  1
  F  F7  1  0.83380736  0.53011777  0.25000000  1
  F  F8  1  0.55764229  0.84160887  0.25000000  1
  F  F9  1  0.99441693  0.00558307  0.25000000  1
  F  F10  1  0.00558307  0.99441693  0.75000000  1
  F  F11  1  0.19972458  0.80027542  0.50752049  1
  F  F12  1  0.53011777  0.83380736  0.75000000  1
  F  F13  1  0.46988223  0.16619264  0.25000000  1
loop_
_geom_bond_atom_site_label_1
_geom_bond_atom_site_label_2
_geom_bond_distance
_geom_bond_site_symmetry_2
F0 Hf1 2.061027 1_655
F0 Mn1 2.244974 1_555
F0 Rb1 2.896728 1_556
F0 Rb0 2.896728 1_555
F1 Hf0 2.061027 1_455
F1 Mn0 2.244974 1_555
F1 Rb0 2.896728 1_555
F1 Rb1 2.896728 1_555
F2 Hf1 2.085805 1_555
F2 Mn1 2.148987 1_455
F2 Rb0 2.904929 1_555
F2 Rb1 2.904929 1_556
F3 Hf0 2.003145 1_555
F3 Mn1 2.127366 1_555
F3 Rb0 3.267896 1_555
F4 Hf1 2.061027 1_545
F4 Mn1 2.244974 1_555
F4 Rb0 2.896728 1_555
F4 Rb1 2.896728 1_556
F5 Hf0 2.003145 1_555
F5 Mn1 2.127366 1_554
F5 Rb1 3.267896 1_555
F6 Hf1 2.003145 1_555
F6 Mn0 2.127366 1_556
F6 Rb1 3.267896 1_556
F7 Hf0 2.085805 1_555
F7 Mn0 2.148987 1_655
F7 Rb0 2.904929 1_555
F7 Rb1 2.904929 1_555
F8 Hf0 2.061027 1_565
F8 Mn0 2.244974 1_555
F8 Rb1 2.896728 1_555
F8 Rb0 2.896728 1_555
F9 Hf0 2.024887 1_555
F9 Mn0 2.141715 1_645
F10 Hf1 2.024887 1_555
F10 Mn1 2.141715 1_465
F11 Hf1 2.003145 1_555
F11 Mn0 2.127366 1_555
F11 Rb0 3.267896 1_555
F12 Hf1 2.085805 1_555
F12 Mn1 2.148987 1_565
F12 Rb0 2.904930 1_555
F12 Rb1 2.904930 1_556
F13 Hf0 2.085805 1_555
F13 Mn0 2.148987 1_545
F13 Rb1 2.904930 1_555
F13 Rb0 2.904930 1_555
