# generated using pymatgen
data_Tb(SiRu)2
_symmetry_space_group_name_H-M   'P 1'
_cell_length_a   4.16823390
_cell_length_b   4.16823360
_cell_length_c   5.61154574
_cell_angle_alpha   111.80184347
_cell_angle_beta   111.80185029
_cell_angle_gamma   90.00000164
_symmetry_Int_Tables_number   1
_chemical_formula_structural   Tb(SiRu)2
_chemical_formula_sum   'Tb1 Si2 Ru2'
_cell_volume   82.96484906
_cell_formula_units_Z   1
loop_
 _symmetry_equiv_pos_site_id
 _symmetry_equiv_pos_as_xyz
  1  'x, y, z'
loop_
 _atom_site_type_symbol
 _atom_site_label
 _atom_site_symmetry_multiplicity
 _atom_site_fract_x
 _atom_site_fract_y
 _atom_site_fract_z
 _atom_site_occupancy
  Tb  Tb0  1  -0.00000000  -0.00000000  -0.00000000  1
  Si  Si0  1  0.63280612  0.63280612  0.26561124  1
  Si  Si1  1  0.36719388  0.36719388  0.73438876  1
  Ru  Ru0  1  0.75000000  0.25000000  0.50000000  1
  Ru  Ru1  1  0.25000000  0.75000000  0.50000000  1
loop_
_geom_bond_atom_site_label_1
_geom_bond_atom_site_label_2
_geom_bond_distance
_geom_bond_site_symmetry_2
Si0 Tb0 3.208700 1_665
Si0 Tb0 3.208703 1_565
Si0 Tb0 3.208704 1_655
Si0 Tb0 3.208707 1_555
Si1 Tb0 3.208700 1_556
Si1 Tb0 3.208703 1_656
Si1 Tb0 3.208704 1_566
Si1 Tb0 3.208707 1_666
Ru0 Si0 2.365640 1_545
Ru0 Si1 2.365640 1_655
Ru0 Si0 2.365643 1_555
Ru0 Si1 2.365644 1_555
Ru0 Tb0 3.169248 1_656
Ru0 Tb0 3.169248 1_655
Ru0 Tb0 3.169249 1_555
Ru0 Tb0 3.169249 1_666
Ru1 Si1 2.365640 1_565
Ru1 Si0 2.365640 1_455
Ru1 Si1 2.365643 1_555
Ru1 Si0 2.365644 1_555
Ru1 Tb0 3.169248 1_565
Ru1 Tb0 3.169248 1_566
Ru1 Tb0 3.169249 1_666
Ru1 Tb0 3.169249 1_555
