# generated using pymatgen
data_Ta6Si5Tc6P
_symmetry_space_group_name_H-M   'P 1'
_cell_length_a   7.44888619
_cell_length_b   7.51353298
_cell_length_c   7.44888782
_cell_angle_alpha   127.55559033
_cell_angle_beta   123.99183177
_cell_angle_gamma   80.07265747
_symmetry_Int_Tables_number   1
_chemical_formula_structural   Ta6Si5Tc6P
_chemical_formula_sum   'Ta6 Si5 Tc6 P1'
_cell_volume   264.87918618
_cell_formula_units_Z   1
loop_
 _symmetry_equiv_pos_site_id
 _symmetry_equiv_pos_as_xyz
  1  'x, y, z'
loop_
 _atom_site_type_symbol
 _atom_site_label
 _atom_site_symmetry_multiplicity
 _atom_site_fract_x
 _atom_site_fract_y
 _atom_site_fract_z
 _atom_site_occupancy
  Ta  Ta0  1  0.54630952  0.09208237  0.04577285  1
  Ta  Ta1  1  0.44286259  0.47976462  0.53690004  1
  Ta  Ta2  1  0.96598148  0.50651437  0.04053189  1
  Ta  Ta3  1  0.04095855  0.07585459  0.53489604  1
  Ta  Ta4  1  0.75532491  0.90774765  0.65242275  1
  Ta  Ta5  1  0.24968154  0.91353278  0.16385123  1
  Si  Si0  1  0.22872363  0.46886233  0.74013871  1
  Si  Si1  1  0.34009732  0.82859406  0.50256728  1
  Si  Si2  1  0.66895222  0.16333683  0.49761061  1
  Si  Si3  1  0.82602678  0.82859406  0.98849674  1
  Si  Si4  1  0.16572523  0.16333683  0.99438361  1
  Tc  Tc0  1  0.52811744  0.24620822  0.77612154  1
  Tc  Tc1  1  0.97008668  0.24620822  0.21809078  1
  Tc  Tc2  1  0.15449930  0.74579889  0.65163982  1
  Tc  Tc3  1  0.84096478  0.49394471  0.58816626  1
  Tc  Tc4  1  0.59415907  0.74579889  0.09129959  1
  Tc  Tc5  1  0.40577845  0.49394471  0.15297992  1
  P  P0  1  0.77574951  0.54207485  0.26632434  1
loop_
_geom_bond_atom_site_label_1
_geom_bond_atom_site_label_2
_geom_bond_distance
_geom_bond_site_symmetry_2
Ta0 Tc2 2.762641 1_544
Ta0 Tc4 2.762642 1_545
Ta0 Tc3 2.784924 1_555
Ta0 Tc5 2.784924 1_555
Ta0 Tc1 2.805528 1_555
Ta0 Tc0 2.805528 1_554
Ta1 Tc5 2.782798 1_555
Ta1 Tc3 2.782805 1_555
Ta1 Tc2 2.798120 1_555
Ta1 Tc4 2.798128 1_556
Ta1 Tc1 2.969915 1_455
Ta1 Tc0 2.969925 1_555
Ta4 Tc0 2.753833 1_565
Ta4 Tc1 2.753834 1_566
Ta4 Tc5 2.854133 1_555
Ta4 Tc3 2.854134 1_555
Ta4 Tc2 3.014138 1_655
Ta4 Tc4 3.014138 1_555
Ta5 Tc4 2.840746 1_555
Ta5 Tc2 2.840746 1_554
Ta5 Tc1 2.943365 1_465
Ta5 Tc0 2.943366 1_565
Ta5 Tc3 3.134885 1_454
Ta5 Tc5 3.134885 1_555
Si0 Tc4 2.436765 1_556
Si0 Tc2 2.436766 1_555
Si0 Tc3 2.464965 1_455
Si0 Tc5 2.464965 1_556
Si0 Tc0 2.536912 1_555
Si0 Tc1 2.536912 1_455
Si0 Ta3 2.557872 1_555
Si0 Ta1 2.781960 1_555
Si0 Ta5 2.814678 1_556
Si1 Tc5 2.522113 1_555
Si1 Tc2 2.527155 1_555
Si1 Tc0 2.547354 1_565
Si1 Ta2 2.629647 1_455
Si1 Ta0 2.642859 1_566
Si1 Ta3 2.664915 1_565
Si1 Ta4 2.670345 1_555
Si1 Ta5 2.672337 1_555
Si1 Ta1 2.725281 1_555
Si2 Tc3 2.521021 1_555
Si2 Tc0 2.534905 1_555
Si2 Tc4 2.540629 1_545
Si2 Ta4 2.622149 1_545
Si2 Ta1 2.626153 1_555
Si2 Ta3 2.630930 1_655
Si2 Ta0 2.642549 1_555
Si2 Ta5 2.666136 1_545
Si2 Ta2 2.673765 1_556
Si3 Tc3 2.522113 1_555
Si3 Tc4 2.527155 1_556
Si3 Tc1 2.547354 1_566
Si3 Ta2 2.629643 1_556
Si3 Ta0 2.642859 1_566
Si3 Ta3 2.664916 1_666
Si3 Ta4 2.670346 1_555
Si3 Ta5 2.672336 1_656
Si3 Ta1 2.725290 1_555
Si4 Tc5 2.521021 1_556
Si4 Tc1 2.534904 1_456
Si4 Tc2 2.540630 1_545
Si4 Ta4 2.622144 1_445
Si4 Ta1 2.626149 1_556
Si4 Ta3 2.630926 1_555
Si4 Ta0 2.642553 1_556
Si4 Ta5 2.666141 1_546
Si4 Ta2 2.673765 1_456
P0 Tc4 2.370532 1_555
P0 Tc2 2.370537 1_655
P0 Tc0 2.380057 1_554
P0 Tc1 2.380061 1_555
P0 Tc5 2.410020 1_555
P0 Tc3 2.410025 1_555
P0 Ta4 2.560392 1_555
P0 Ta2 2.625761 1_555
P0 Ta0 3.022057 1_555
