# generated using pymatgen
data_Li2Nb4Se4O19
_symmetry_space_group_name_H-M   'P 1'
_cell_length_a   3.98952945
_cell_length_b   10.30684690
_cell_length_c   11.16914578
_cell_angle_alpha   109.41728124
_cell_angle_beta   90.58136592
_cell_angle_gamma   98.02286966
_symmetry_Int_Tables_number   1
_chemical_formula_structural   Li2Nb4Se4O19
_chemical_formula_sum   'Li2 Nb4 Se4 O19'
_cell_volume   428.12083882
_cell_formula_units_Z   1
loop_
 _symmetry_equiv_pos_site_id
 _symmetry_equiv_pos_as_xyz
  1  'x, y, z'
loop_
 _atom_site_type_symbol
 _atom_site_label
 _atom_site_symmetry_multiplicity
 _atom_site_fract_x
 _atom_site_fract_y
 _atom_site_fract_z
 _atom_site_occupancy
  Li  Li0  1  0.52504398  0.95160787  0.86471594  1
  Li  Li1  1  0.47495602  0.04839213  0.13528406  1
  Nb  Nb0  1  0.33750195  0.20016186  0.69770308  1
  Nb  Nb1  1  0.66249805  0.79983814  0.30229692  1
  Nb  Nb2  1  0.57941904  0.56802018  0.68289757  1
  Nb  Nb3  1  0.42058096  0.43197982  0.31710243  1
  Se  Se0  1  0.35237977  0.83508691  0.59111842  1
  Se  Se1  1  0.64762023  0.16491309  0.40888158  1
  Se  Se2  1  0.29845888  0.71801172  0.99004628  1
  Se  Se3  1  0.70154112  0.28198828  0.00995372  1
  O  O0  1  0.65718650  0.88026324  0.49771368  1
  O  O1  1  0.34281350  0.11973676  0.50228632  1
  O  O2  1  0.32933463  0.99268071  0.70383919  1
  O  O3  1  0.67066537  0.00731929  0.29616081  1
  O  O4  1  0.59810664  0.78237534  0.68790332  1
  O  O5  1  0.40189336  0.21762466  0.31209668  1
  O  O6  1  0.58084133  0.66125791  0.87665328  1
  O  O7  1  0.41915867  0.33874209  0.12334672  1
  O  O8  1  0.59691765  0.74660502  0.11519698  1
  O  O9  1  0.40308235  0.25339498  0.88480302  1
  O  O10  1  0.29524470  0.88035019  0.99213303  1
  O  O11  1  0.70475530  0.11964981  0.00786697  1
  O  O12  1  0.87816222  0.18929750  0.69390284  1
  O  O13  1  0.12183778  0.81070250  0.30609716  1
  O  O14  1  0.46380880  0.38474242  0.69462009  1
  O  O15  1  0.53619120  0.61525758  0.30537991  1
  O  O16  1  0.50000000  0.50000000  0.50000000  1
  O  O17  1  0.04300516  0.58874695  0.69360564  1
  O  O18  1  0.95699484  0.41125305  0.30639436  1
loop_
_geom_bond_atom_site_label_1
_geom_bond_atom_site_label_2
_geom_bond_distance
_geom_bond_site_symmetry_2
Li0 O11 1.964455 1_566
Li0 O10 1.984620 1_555
Li0 O2 2.141748 1_555
Li0 O4 2.211492 1_555
Li1 O10 1.964455 1_544
Li1 O11 1.984620 1_555
Li1 O3 2.141748 1_555
Li1 O5 2.211492 1_555
Nb0 O12 1.819494 1_455
Nb0 O14 1.910684 1_555
Nb0 O9 1.980661 1_555
Nb0 O1 2.062612 1_555
Nb0 O2 2.157981 1_545
Nb0 O12 2.175551 1_555
Nb1 O13 1.819494 1_655
Nb1 O15 1.910684 1_555
Nb1 O8 1.980661 1_555
Nb1 O0 2.062612 1_555
Nb1 O3 2.157981 1_565
Nb1 O13 2.175551 1_555
Nb2 O17 1.829970 1_655
Nb2 O14 1.928918 1_555
Nb2 O16 1.933286 1_555
Nb2 O6 2.054818 1_555
Nb2 O17 2.180717 1_555
Nb2 O4 2.182112 1_555
Nb3 O18 1.829970 1_455
Nb3 O15 1.928918 1_555
Nb3 O16 1.933286 1_555
Nb3 O7 2.054818 1_555
Nb3 O18 2.180717 1_555
Nb3 O5 2.182112 1_555
O0 Se0 1.724702 1_555
O1 Se1 1.724702 1_555
O2 Se0 1.707689 1_555
O3 Se1 1.707689 1_555
O4 Se0 1.715356 1_555
O5 Se1 1.715356 1_555
O6 Se2 1.713385 1_555
O7 Se3 1.713385 1_555
O8 Se2 1.747264 1_554
O9 Se3 1.747264 1_556
O10 Se2 1.667442 1_555
O11 Se3 1.667442 1_555
