# generated using pymatgen
data_Nb3Co2ReN
_symmetry_space_group_name_H-M   'P 1'
_cell_length_a   8.10988400
_cell_length_b   8.10988397
_cell_length_c   8.10988392
_cell_angle_alpha   60.00000018
_cell_angle_beta   60.00000031
_cell_angle_gamma   60.00000007
_symmetry_Int_Tables_number   1
_chemical_formula_structural   Nb3Co2ReN
_chemical_formula_sum   'Nb12 Co8 Re4 N4'
_cell_volume   377.16286434
_cell_formula_units_Z   4
loop_
 _symmetry_equiv_pos_site_id
 _symmetry_equiv_pos_as_xyz
  1  'x, y, z'
loop_
 _atom_site_type_symbol
 _atom_site_label
 _atom_site_symmetry_multiplicity
 _atom_site_fract_x
 _atom_site_fract_y
 _atom_site_fract_z
 _atom_site_occupancy
  Nb  Nb0  1  0.80752843  0.80752843  0.19247157  1
  Nb  Nb1  1  0.19247157  0.19247157  0.80752843  1
  Nb  Nb2  1  0.80752843  0.19247157  0.80752843  1
  Nb  Nb3  1  0.19247157  0.80752843  0.19247157  1
  Nb  Nb4  1  0.19247157  0.80752843  0.80752843  1
  Nb  Nb5  1  0.80752843  0.19247157  0.19247157  1
  Nb  Nb6  1  0.44247157  0.44247157  0.05752843  1
  Nb  Nb7  1  0.05752843  0.05752843  0.44247157  1
  Nb  Nb8  1  0.44247157  0.05752843  0.44247157  1
  Nb  Nb9  1  0.05752843  0.44247157  0.05752843  1
  Nb  Nb10  1  0.05752843  0.44247157  0.44247157  1
  Nb  Nb11  1  0.44247157  0.05752843  0.05752843  1
  Co  Co0  1  0.73174543  0.42275152  0.42275152  1
  Co  Co1  1  0.42275152  0.73174543  0.42275152  1
  Co  Co2  1  0.42275152  0.42275152  0.73174543  1
  Co  Co3  1  0.42275152  0.42275152  0.42275152  1
  Co  Co4  1  0.51825457  0.82724848  0.82724848  1
  Co  Co5  1  0.82724848  0.51825457  0.82724848  1
  Co  Co6  1  0.82724848  0.82724848  0.51825457  1
  Co  Co7  1  0.82724848  0.82724848  0.82724848  1
  Re  Re0  1  0.12500000  0.62500000  0.62500000  1
  Re  Re1  1  0.62500000  0.12500000  0.62500000  1
  Re  Re2  1  0.62500000  0.62500000  0.12500000  1
  Re  Re3  1  0.62500000  0.62500000  0.62500000  1
  N  N0  1  0.62500000  0.12500000  0.12500000  1
  N  N1  1  0.12500000  0.62500000  0.12500000  1
  N  N2  1  0.12500000  0.12500000  0.62500000  1
  N  N3  1  0.12500000  0.12500000  0.12500000  1
loop_
_geom_bond_atom_site_label_1
_geom_bond_atom_site_label_2
_geom_bond_distance
_geom_bond_site_symmetry_2
Nb0 Re2 2.914296 1_555
Nb0 Re3 2.914296 1_555
Nb1 Re0 2.914296 1_555
Nb1 Re1 2.914296 1_555
Nb2 Re1 2.914296 1_555
Nb2 Re3 2.914296 1_555
Nb3 Re0 2.914296 1_555
Nb3 Re2 2.914296 1_555
Nb4 Re0 2.914296 1_555
Nb4 Re3 2.914296 1_555
Nb5 Re1 2.914296 1_555
Nb5 Re2 2.914296 1_555
Nb6 Re3 2.914296 1_554
Nb6 Re2 2.914296 1_555
Nb7 Re0 2.914296 1_545
Nb7 Re1 2.914296 1_455
Nb8 Re1 2.914296 1_555
Nb8 Re3 2.914296 1_545
Nb9 Re0 2.914296 1_554
Nb9 Re2 2.914296 1_455
Nb10 Re0 2.914296 1_555
Nb10 Re3 2.914296 1_455
Nb11 Re1 2.914296 1_554
Nb11 Re2 2.914296 1_545
Co0 Re2 2.445499 1_555
Co0 Re3 2.445499 1_555
Co0 Re1 2.445500 1_555
Co0 Co1 2.505905 1_555
Co0 Co3 2.505905 1_555
Co0 Co2 2.505905 1_555
Co0 Nb7 2.811103 1_655
Co0 Nb9 2.811103 1_655
Co0 Nb10 2.811103 1_655
Co0 Nb5 2.923239 1_555
Co0 Nb2 2.923239 1_555
Co0 Nb0 2.923239 1_555
Co1 Re2 2.445499 1_555
Co1 Re3 2.445499 1_555
Co1 Re0 2.445500 1_555
Co1 Co2 2.505905 1_555
Co1 Co3 2.505905 1_555
Co1 Nb11 2.811103 1_565
Co1 Nb8 2.811103 1_565
Co1 Nb7 2.811103 1_565
Co1 Nb4 2.923239 1_555
Co1 Nb3 2.923239 1_555
Co1 Nb0 2.923239 1_555
Co2 Re1 2.445499 1_555
Co2 Re0 2.445499 1_555
Co2 Re3 2.445500 1_555
Co2 Co3 2.505905 1_555
Co2 Nb6 2.811103 1_556
Co2 Nb11 2.811103 1_556
Co2 Nb9 2.811103 1_556
Co2 Nb4 2.923239 1_555
Co2 Nb1 2.923239 1_555
Co2 Nb2 2.923239 1_555
Co3 Re1 2.445499 1_555
Co3 Re0 2.445499 1_555
Co3 Re2 2.445500 1_555
Co3 Nb6 2.811103 1_555
Co3 Nb8 2.811103 1_555
Co3 Nb10 2.811103 1_555
Co3 Nb3 2.923239 1_555
Co3 Nb1 2.923239 1_555
Co3 Nb5 2.923239 1_555
Co4 Re2 2.445499 1_556
Co4 Re3 2.445499 1_555
Co4 Re1 2.445500 1_565
Co4 Co5 2.505905 1_555
Co4 Co6 2.505905 1_555
Co4 Co7 2.505905 1_555
Co4 Nb1 2.811103 1_565
Co4 Nb3 2.811103 1_556
Co4 Nb4 2.811103 1_555
Co4 Nb11 2.923239 1_566
Co4 Nb8 2.923239 1_565
Co4 Nb6 2.923239 1_556
Co5 Re3 2.445499 1_555
Co5 Re2 2.445499 1_556
Co5 Re0 2.445500 1_655
Co5 Co6 2.505905 1_555
Co5 Co7 2.505905 1_555
Co5 Nb5 2.811103 1_556
Co5 Nb2 2.811103 1_555
Co5 Nb1 2.811103 1_655
Co5 Nb9 2.923239 1_656
Co5 Nb10 2.923239 1_655
Co5 Nb6 2.923239 1_556
Co6 Re1 2.445499 1_565
Co6 Re0 2.445499 1_655
Co6 Re3 2.445500 1_555
Co6 Co7 2.505905 1_555
Co6 Nb0 2.811103 1_555
Co6 Nb5 2.811103 1_565
Co6 Nb3 2.811103 1_655
Co6 Nb10 2.923239 1_655
Co6 Nb7 2.923239 1_665
Co6 Nb8 2.923239 1_565
Co7 Re1 2.445499 1_565
Co7 Re0 2.445499 1_655
Co7 Re2 2.445500 1_556
Co7 Nb0 2.811103 1_556
Co7 Nb2 2.811103 1_565
Co7 Nb4 2.811103 1_655
Co7 Nb9 2.923239 1_656
Co7 Nb7 2.923239 1_665
Co7 Nb11 2.923239 1_566
N0 Nb5 2.170130 1_555
N0 Nb8 2.170130 1_555
N0 Nb2 2.170130 1_554
N0 Nb11 2.170130 1_555
N0 Nb6 2.170130 1_555
N0 Nb0 2.170130 1_545
N1 Nb3 2.170130 1_555
N1 Nb10 2.170130 1_555
N1 Nb4 2.170130 1_554
N1 Nb9 2.170130 1_555
N1 Nb6 2.170130 1_555
N1 Nb0 2.170130 1_455
N2 Nb1 2.170130 1_555
N2 Nb7 2.170130 1_555
N2 Nb10 2.170130 1_555
N2 Nb4 2.170130 1_545
N2 Nb8 2.170130 1_555
N2 Nb2 2.170130 1_455
N3 Nb7 2.170130 1_555
N3 Nb1 2.170130 1_554
N3 Nb9 2.170130 1_555
N3 Nb3 2.170130 1_545
N3 Nb11 2.170130 1_555
N3 Nb5 2.170130 1_455
