# generated using pymatgen
data_SbAs(P2O7)2
_symmetry_space_group_name_H-M   'P 1'
_cell_length_a   8.28657294
_cell_length_b   4.79768499
_cell_length_c   7.01414147
_cell_angle_alpha   72.07114695
_cell_angle_beta   92.21075585
_cell_angle_gamma   89.78468039
_symmetry_Int_Tables_number   1
_chemical_formula_structural   SbAs(P2O7)2
_chemical_formula_sum   'Sb1 As1 P4 O14'
_cell_volume   265.08203715
_cell_formula_units_Z   1
loop_
 _symmetry_equiv_pos_site_id
 _symmetry_equiv_pos_as_xyz
  1  'x, y, z'
loop_
 _atom_site_type_symbol
 _atom_site_label
 _atom_site_symmetry_multiplicity
 _atom_site_fract_x
 _atom_site_fract_y
 _atom_site_fract_z
 _atom_site_occupancy
  Sb  Sb0  1  0.04537701  0.22740616  0.28719988  1
  As  As0  1  0.55682141  0.75602281  0.72297444  1
  P  P0  1  0.87097292  0.61190795  0.53374202  1
  P  P1  1  0.25420618  0.79868914  0.08781430  1
  P  P2  1  0.79809061  0.19035444  0.90193524  1
  P  P3  1  0.37656877  0.39503128  0.46900847  1
  O  O0  1  0.79845436  0.91206805  0.85249979  1
  O  O1  1  0.31734793  0.90297944  0.88739322  1
  O  O2  1  0.99963069  0.84664530  0.48522648  1
  O  O3  1  0.69972390  0.72978907  0.51923164  1
  O  O4  1  0.39079685  0.59422077  0.60063896  1
  O  O5  1  0.63602955  0.34429133  0.88225404  1
  O  O6  1  0.91771398  0.41719045  0.75233257  1
  O  O7  1  0.38626016  0.59615293  0.24094957  1
  O  O8  1  0.09989479  0.61034885  0.10296929  1
  O  O9  1  0.87631236  0.41990760  0.39499466  1
  O  O10  1  0.20028242  0.28479865  0.48926664  1
  O  O11  1  0.50316854  0.16416016  0.49972597  1
  O  O12  1  0.87876243  0.15056143  0.11107525  1
  O  O13  1  0.21679813  0.04747418  0.17876759  1
loop_
_geom_bond_atom_site_label_1
_geom_bond_atom_site_label_2
_geom_bond_distance
_geom_bond_site_symmetry_2
As0 O4 1.886454 1_555
As0 O3 1.923683 1_555
As0 O5 2.038620 1_555
As0 O11 2.129761 1_565
As0 O0 2.384280 1_555
As0 O1 2.536070 1_555
O0 P2 1.479153 1_565
O1 P1 1.458082 1_556
O2 P0 1.523752 1_555
O2 Sb0 1.973252 1_665
O3 P0 1.513721 1_555
O4 P3 1.521602 1_555
O5 P2 1.511104 1_555
O6 P0 1.563053 1_555
O6 P2 1.628914 1_555
O7 P1 1.598156 1_555
O7 P3 1.598921 1_555
O8 P1 1.556576 1_555
O8 Sb0 1.959329 1_555
O9 P0 1.533798 1_555
O9 Sb0 1.972120 1_655
O10 P3 1.552226 1_555
O10 Sb0 1.958294 1_555
O11 P3 1.483498 1_555
O12 P2 1.544732 1_554
O12 Sb0 1.928969 1_655
O13 P1 1.552106 1_545
O13 Sb0 1.954437 1_555
