# generated using pymatgen
data_Ba8Sn3Hg4Pb
_symmetry_space_group_name_H-M   'P 1'
_cell_length_a   8.46307505
_cell_length_b   6.01054599
_cell_length_c   12.02369106
_cell_angle_alpha   90.00000000
_cell_angle_beta   90.00625988
_cell_angle_gamma   90.00000000
_symmetry_Int_Tables_number   1
_chemical_formula_structural   Ba8Sn3Hg4Pb
_chemical_formula_sum   'Ba8 Sn3 Hg4 Pb1'
_cell_volume   611.61752758
_cell_formula_units_Z   1
loop_
 _symmetry_equiv_pos_site_id
 _symmetry_equiv_pos_as_xyz
  1  'x, y, z'
loop_
 _atom_site_type_symbol
 _atom_site_label
 _atom_site_symmetry_multiplicity
 _atom_site_fract_x
 _atom_site_fract_y
 _atom_site_fract_z
 _atom_site_occupancy
  Ba  Ba0  1  0.49916910  0.75000000  0.12720768  1
  Ba  Ba1  1  0.00084252  0.75000000  0.12722766  1
  Ba  Ba2  1  0.50104650  0.25000000  0.37427429  1
  Ba  Ba3  1  0.99894247  0.25000000  0.37429543  1
  Ba  Ba4  1  0.00091555  0.75000000  0.62413106  1
  Ba  Ba5  1  0.49911405  0.75000000  0.62411757  1
  Ba  Ba6  1  0.00300772  0.25000000  0.87429320  1
  Ba  Ba7  1  0.49694565  0.25000000  0.87429979  1
  Sn  Sn0  1  0.24999221  0.25000000  0.12520793  1
  Sn  Sn1  1  0.74998426  0.75000000  0.37594705  1
  Sn  Sn2  1  0.25002986  0.25000000  0.62285113  1
  Hg  Hg0  1  0.75008446  0.25000000  0.12166928  1
  Hg  Hg1  1  0.24999889  0.75000000  0.37617398  1
  Hg  Hg2  1  0.74995949  0.25000000  0.62554277  1
  Hg  Hg3  1  0.25000937  0.75000000  0.87656041  1
  Pb  Pb0  1  0.74995689  0.75000000  0.87620078  1
loop_
_geom_bond_atom_site_label_1
_geom_bond_atom_site_label_2
_geom_bond_distance
_geom_bond_site_symmetry_2
Ba0 Hg1 3.661857 1_555
Ba0 Sn1 3.667289 1_555
Ba0 Sn0 3.671414 1_555
Ba0 Sn0 3.671414 1_565
Ba0 Hg3 3.677971 1_554
Ba0 Hg0 3.680414 1_565
Ba0 Hg0 3.680414 1_555
Ba0 Pb0 3.689801 1_554
Ba1 Hg1 3.661216 1_555
Ba1 Sn1 3.667682 1_455
Ba1 Sn0 3.671287 1_555
Ba1 Sn0 3.671287 1_565
Ba1 Hg3 3.678580 1_554
Ba1 Hg0 3.679642 1_455
Ba1 Hg0 3.679642 1_465
Ba1 Pb0 3.690095 1_454
Ba2 Sn2 3.667061 1_555
Ba2 Sn1 3.670229 1_545
Ba2 Sn1 3.670229 1_555
Ba2 Sn0 3.671666 1_555
Ba2 Hg1 3.680526 1_555
Ba2 Hg1 3.680526 1_545
Ba2 Hg2 3.682898 1_555
Ba2 Hg0 3.697072 1_555
Ba3 Sn2 3.666823 1_655
Ba3 Sn1 3.670329 1_545
Ba3 Sn1 3.670329 1_555
Ba3 Sn0 3.672230 1_655
Ba3 Hg1 3.680564 1_655
Ba3 Hg1 3.680564 1_645
Ba3 Hg2 3.683406 1_555
Ba3 Hg0 3.696035 1_555
Ba4 Hg1 3.651518 1_555
Ba4 Sn1 3.662415 1_455
Ba4 Sn2 3.671066 1_565
Ba4 Sn2 3.671066 1_555
Ba4 Hg2 3.680047 1_465
Ba4 Hg2 3.680047 1_455
Ba4 Hg3 3.695229 1_555
Ba4 Pb0 3.701092 1_455
Ba5 Hg1 3.651165 1_555
Ba5 Sn1 3.662362 1_555
Ba5 Sn2 3.670917 1_555
Ba5 Sn2 3.670917 1_565
Ba5 Hg2 3.679505 1_565
Ba5 Hg2 3.679505 1_555
Ba5 Hg3 3.695793 1_555
Ba5 Pb0 3.700282 1_555
Ba6 Hg3 3.660894 1_545
Ba6 Hg3 3.660894 1_555
Ba6 Hg0 3.664705 1_456
Ba6 Sn0 3.670092 1_556
Ba6 Sn2 3.675862 1_555
Ba6 Hg2 3.678366 1_455
Ba6 Pb0 3.690339 1_455
Ba6 Pb0 3.690339 1_445
Ba7 Hg3 3.660580 1_545
Ba7 Hg3 3.660580 1_555
Ba7 Hg0 3.665327 1_556
Ba7 Sn0 3.670252 1_556
Ba7 Sn2 3.675040 1_555
Ba7 Hg2 3.678642 1_555
Ba7 Pb0 3.690141 1_545
Ba7 Pb0 3.690141 1_555
