# generated using pymatgen
data_Y3Si6(Pd7Rh3)2
_symmetry_space_group_name_H-M   'P 1'
_cell_length_a   8.56819378
_cell_length_b   8.62201519
_cell_length_c   8.62199484
_cell_angle_alpha   60.00003066
_cell_angle_beta   59.79186608
_cell_angle_gamma   59.79230912
_symmetry_Int_Tables_number   1
_chemical_formula_structural   Y3Si6(Pd7Rh3)2
_chemical_formula_sum   'Y3 Si6 Pd14 Rh6'
_cell_volume   448.97167244
_cell_formula_units_Z   1
loop_
 _symmetry_equiv_pos_site_id
 _symmetry_equiv_pos_as_xyz
  1  'x, y, z'
loop_
 _atom_site_type_symbol
 _atom_site_label
 _atom_site_symmetry_multiplicity
 _atom_site_fract_x
 _atom_site_fract_y
 _atom_site_fract_z
 _atom_site_occupancy
  Y  Y0  1  0.25975603  0.24678751  0.24668701  1
  Y  Y1  1  0.74024131  0.75321774  0.75331080  1
  Y  Y2  1  0.00000334  0.00001260  0.99998927  1
  Si  Si0  1  0.72006090  0.27675640  0.27672315  1
  Si  Si1  1  0.27993509  0.72324202  0.72327426  1
  Si  Si2  1  0.27992857  0.72325003  0.27356338  1
  Si  Si3  1  0.72006738  0.27674380  0.72644897  1
  Si  Si4  1  0.27995017  0.27352077  0.72327955  1
  Si  Si5  1  0.72005582  0.72645961  0.27672682  1
  Pd  Pd0  1  0.85642975  0.38119972  0.38116144  1
  Pd  Pd1  1  0.14355981  0.61876115  0.61887268  1
  Pd  Pd2  1  0.34099132  0.00111269  0.00112794  1
  Pd  Pd3  1  0.65901216  0.99889428  0.99887453  1
  Pd  Pd4  1  0.00001731  0.34239264  0.65759213  1
  Pd  Pd5  1  0.99998589  0.65761884  0.34240750  1
  Pd  Pd6  1  0.00000506  0.34241363  0.00000227  1
  Pd  Pd7  1  0.65904277  0.99887722  0.34321005  1
  Pd  Pd8  1  0.99999224  0.65760207  0.99998658  1
  Pd  Pd9  1  0.34096786  0.00112438  0.65677722  1
  Pd  Pd10  1  0.99999405  0.00001612  0.34238643  1
  Pd  Pd11  1  0.00000311  0.00001361  0.65759307  1
  Pd  Pd12  1  0.65900069  0.34322398  0.99888339  1
  Pd  Pd13  1  0.34099689  0.65678571  0.00111424  1
  Rh  Rh0  1  0.38013892  0.38465738  0.38462443  1
  Rh  Rh1  1  0.61986284  0.61533268  0.61538430  1
  Rh  Rh2  1  0.38013502  0.38463263  0.85059197  1
  Rh  Rh3  1  0.38011723  0.85058969  0.38462527  1
  Rh  Rh4  1  0.61986686  0.61535552  0.14940550  1
  Rh  Rh5  1  0.61988058  0.14940657  0.61537485  1
loop_
_geom_bond_atom_site_label_1
_geom_bond_atom_site_label_2
_geom_bond_distance
_geom_bond_site_symmetry_2
Pd0 Si0 2.432163 1_555
Pd0 Si5 2.432242 1_555
Pd0 Si3 2.432409 1_555
Pd0 Y0 2.812731 1_655
Pd1 Si4 2.432115 1_555
Pd1 Si1 2.432216 1_555
Pd1 Si2 2.432561 1_555
Pd1 Y1 2.812676 1_455
Pd2 Si4 2.434548 1_554
Pd2 Si2 2.434746 1_545
Pd2 Y2 2.931395 1_554
Pd3 Si3 2.434631 1_565
Pd3 Si5 2.434657 1_556
Pd3 Y2 2.931397 1_665
Pd4 Si3 2.454307 1_455
Pd4 Si4 2.454324 1_555
Pd4 Y2 2.952078 1_555
Pd5 Si2 2.454195 1_655
Pd5 Si5 2.454364 1_555
Pd5 Y2 2.952228 1_664
Pd6 Si0 2.454222 1_455
Pd6 Si4 2.454263 1_554
Pd6 Y2 2.952250 1_554
Pd7 Si0 2.434670 1_565
Pd7 Si5 2.434732 1_555
Pd7 Y2 2.931244 1_664
Pd8 Si1 2.454153 1_655
Pd8 Si5 2.454255 1_556
Pd8 Y2 2.952328 1_665
Pd9 Si4 2.434638 1_555
Pd9 Si1 2.434739 1_545
Pd9 Y2 2.931223 1_555
Pd10 Si0 2.454260 1_555
Pd10 Si2 2.454328 1_645
Pd10 Y2 2.952122 1_654
Pd11 Si3 2.454212 1_455
Pd11 Si1 2.454389 1_545
Pd11 Y2 2.952135 1_555
Pd12 Si0 2.434611 1_556
Pd12 Si3 2.434671 1_555
Pd12 Y2 2.931403 1_655
Pd13 Si1 2.434657 1_554
Pd13 Si2 2.434706 1_555
Pd13 Y2 2.931433 1_564
Rh0 Si0 2.371934 1_555
Rh0 Si2 2.384601 1_555
Rh0 Si4 2.385030 1_555
Rh0 Y0 2.788074 1_555
Rh1 Si1 2.371976 1_555
Rh1 Si3 2.384575 1_555
Rh1 Si5 2.385048 1_555
Rh1 Y1 2.788074 1_555
Rh2 Si3 2.372011 1_555
Rh2 Si4 2.384710 1_555
Rh2 Si1 2.384719 1_555
Rh2 Y0 2.787391 1_556
Rh3 Si5 2.372052 1_555
Rh3 Si2 2.384583 1_555
Rh3 Si1 2.384993 1_555
Rh3 Y0 2.788146 1_565
Rh4 Si2 2.372055 1_555
Rh4 Si0 2.384649 1_555
Rh4 Si5 2.384748 1_555
Rh4 Y1 2.787390 1_554
Rh5 Si4 2.371991 1_555
Rh5 Si3 2.384639 1_555
Rh5 Si0 2.385013 1_555
Rh5 Y1 2.788082 1_545
