# generated using pymatgen
data_Lu10Al3GaTe4
_symmetry_space_group_name_H-M   'P 1'
_cell_length_a   8.45546224
_cell_length_b   8.45546302
_cell_length_c   7.75276343
_cell_angle_alpha   90.07116306
_cell_angle_beta   90.07116318
_cell_angle_gamma   125.60794774
_symmetry_Int_Tables_number   1
_chemical_formula_structural   Lu10Al3GaTe4
_chemical_formula_sum   'Lu10 Al3 Ga1 Te4'
_cell_volume   450.64121500
_cell_formula_units_Z   1
loop_
 _symmetry_equiv_pos_site_id
 _symmetry_equiv_pos_as_xyz
  1  'x, y, z'
loop_
 _atom_site_type_symbol
 _atom_site_label
 _atom_site_symmetry_multiplicity
 _atom_site_fract_x
 _atom_site_fract_y
 _atom_site_fract_z
 _atom_site_occupancy
  Lu  Lu0  1  0.00027578  0.00027578  0.00021977  1
  Lu  Lu1  1  0.50016177  0.50016177  0.50020020  1
  Lu  Lu2  1  0.79615844  0.54218189  0.16998952  1
  Lu  Lu3  1  0.45953461  0.20208792  0.83047075  1
  Lu  Lu4  1  0.95995454  0.70731505  0.66720414  1
  Lu  Lu5  1  0.29312340  0.04027503  0.33220179  1
  Lu  Lu6  1  0.20208792  0.45953461  0.83047075  1
  Lu  Lu7  1  0.54218189  0.79615844  0.16998952  1
  Lu  Lu8  1  0.04027503  0.29312340  0.33220179  1
  Lu  Lu9  1  0.70731505  0.95995454  0.66720414  1
  Al  Al0  1  0.12676717  0.12676717  0.62467654  1
  Al  Al1  1  0.62554076  0.62554076  0.87605227  1
  Al  Al2  1  0.37437627  0.37437627  0.12378731  1
  Ga  Ga0  1  0.87250621  0.87250621  0.37410927  1
  Te  Te0  1  0.20593906  0.79249915  0.00092712  1
  Te  Te1  1  0.70771033  0.29359263  0.49968599  1
  Te  Te2  1  0.79249915  0.20593906  0.00092712  1
  Te  Te3  1  0.29359263  0.70771033  0.49968599  1
loop_
_geom_bond_atom_site_label_1
_geom_bond_atom_site_label_2
_geom_bond_distance
_geom_bond_site_symmetry_2
Lu0 Te2 3.109371 1_455
Lu0 Te0 3.109371 1_545
Lu1 Te1 3.114458 1_555
Lu1 Te3 3.114458 1_555
Lu2 Te0 3.111519 1_655
Lu2 Te2 3.112917 1_555
Lu2 Te1 3.114235 1_555
Lu3 Te2 3.091544 1_556
Lu3 Te1 3.115509 1_555
Lu3 Te0 3.115976 1_546
Lu4 Te3 3.105357 1_655
Lu4 Te1 3.125183 1_555
Lu4 Te0 3.126712 1_656
Lu5 Te3 3.100864 1_545
Lu5 Te0 3.116460 1_545
Lu5 Te1 3.130626 1_555
Lu6 Te0 3.091544 1_556
Lu6 Te3 3.115509 1_555
Lu6 Te2 3.115976 1_456
Lu7 Te2 3.111519 1_565
Lu7 Te0 3.112917 1_555
Lu7 Te3 3.114235 1_555
Lu8 Te1 3.100864 1_455
Lu8 Te2 3.116459 1_455
Lu8 Te3 3.130627 1_555
Lu9 Te1 3.105357 1_565
Lu9 Te3 3.125182 1_555
Lu9 Te2 3.126712 1_566
Al0 Ga0 2.759484 1_445
Al0 Lu3 2.961029 1_555
Al0 Lu6 2.961029 1_555
Al0 Lu9 2.975864 1_445
Al0 Lu4 2.975865 1_445
Al0 Lu5 2.976008 1_555
Al0 Lu8 2.976008 1_555
Al0 Lu1 3.045494 1_555
Al0 Lu0 3.073771 1_556
Al1 Al2 2.734493 1_556
Al1 Lu4 2.971977 1_555
Al1 Lu9 2.971977 1_555
Al1 Lu2 2.991820 1_556
Al1 Lu7 2.991820 1_556
Al1 Lu6 3.009698 1_555
Al1 Lu3 3.009699 1_555
Al1 Lu0 3.049595 1_666
Al1 Lu1 3.068300 1_555
Al2 Lu8 2.969399 1_555
Al2 Lu5 2.969399 1_555
Al2 Lu2 2.993916 1_555
Al2 Lu7 2.993917 1_555
Al2 Lu6 3.004852 1_554
Al2 Lu3 3.004852 1_554
Al2 Lu0 3.043487 1_555
Al2 Lu1 3.073410 1_555
Ga0 Lu7 2.934107 1_555
Ga0 Lu2 2.934108 1_555
Ga0 Lu9 2.977816 1_555
Ga0 Lu4 2.977816 1_555
Ga0 Lu5 2.982576 1_665
Ga0 Lu8 2.982576 1_665
Ga0 Lu1 3.041828 1_555
Ga0 Lu0 3.064813 1_665
