# generated using pymatgen
data_Na3GdCl6
_symmetry_space_group_name_H-M   'P 1'
_cell_length_a   7.49983674
_cell_length_b   7.49983829
_cell_length_c   7.49983978
_cell_angle_alpha   55.68196961
_cell_angle_beta   55.68194308
_cell_angle_gamma   55.68197078
_symmetry_Int_Tables_number   1
_chemical_formula_structural   Na3GdCl6
_chemical_formula_sum   'Na3 Gd1 Cl6'
_cell_volume   268.40916562
_cell_formula_units_Z   1
loop_
 _symmetry_equiv_pos_site_id
 _symmetry_equiv_pos_as_xyz
  1  'x, y, z'
loop_
 _atom_site_type_symbol
 _atom_site_label
 _atom_site_symmetry_multiplicity
 _atom_site_fract_x
 _atom_site_fract_y
 _atom_site_fract_z
 _atom_site_occupancy
  Na  Na0  1  0.19522330  0.19522330  0.19522230  1
  Na  Na1  1  0.50000000  0.50000000  0.50000000  1
  Na  Na2  1  0.80477670  0.80477670  0.80477770  1
  Gd  Gd0  1  -0.00000000  -0.00000000  0.00000000  1
  Cl  Cl0  1  0.10823094  0.37725334  0.77550592  1
  Cl  Cl1  1  0.37725434  0.77550592  0.10822994  1
  Cl  Cl2  1  0.77550492  0.10823094  0.37725334  1
  Cl  Cl3  1  0.22449508  0.89176906  0.62274666  1
  Cl  Cl4  1  0.62274566  0.22449408  0.89177006  1
  Cl  Cl5  1  0.89176906  0.62274666  0.22449408  1
loop_
_geom_bond_atom_site_label_1
_geom_bond_atom_site_label_2
_geom_bond_distance
_geom_bond_site_symmetry_2
Cl0 Gd0 2.678804 1_556
Cl0 Na2 2.740556 1_455
Cl0 Na1 2.794537 1_555
Cl0 Na0 2.943451 1_556
Cl1 Gd0 2.678807 1_565
Cl1 Na2 2.740545 1_554
Cl1 Na1 2.794542 1_555
Cl1 Na0 2.943455 1_565
Cl2 Gd0 2.678803 1_655
Cl2 Na2 2.740562 1_545
Cl2 Na1 2.794539 1_555
Cl2 Na0 2.943461 1_655
Cl3 Gd0 2.678803 1_566
Cl3 Na0 2.740562 1_565
Cl3 Na1 2.794539 1_555
Cl3 Na2 2.943461 1_455
Cl4 Gd0 2.678807 1_656
Cl4 Na0 2.740545 1_556
Cl4 Na1 2.794542 1_555
Cl4 Na2 2.943455 1_545
Cl5 Gd0 2.678804 1_665
Cl5 Na0 2.740556 1_655
Cl5 Na1 2.794537 1_555
Cl5 Na2 2.943451 1_554
