# generated using pymatgen
data_Ca10TaMoN10
_symmetry_space_group_name_H-M   'P 1'
_cell_length_a   6.91348086
_cell_length_b   6.91348001
_cell_length_c   8.87188539
_cell_angle_alpha   80.50979948
_cell_angle_beta   80.50980105
_cell_angle_gamma   59.73140547
_symmetry_Int_Tables_number   1
_chemical_formula_structural   Ca10TaMoN10
_chemical_formula_sum   'Ca10 Ta1 Mo1 N10'
_cell_volume   359.55320736
_cell_formula_units_Z   1
loop_
 _symmetry_equiv_pos_site_id
 _symmetry_equiv_pos_as_xyz
  1  'x, y, z'
loop_
 _atom_site_type_symbol
 _atom_site_label
 _atom_site_symmetry_multiplicity
 _atom_site_fract_x
 _atom_site_fract_y
 _atom_site_fract_z
 _atom_site_occupancy
  Ca  Ca0  1  0.87558393  0.35212717  0.83422008  1
  Ca  Ca1  1  0.87365269  0.87365269  0.82490420  1
  Ca  Ca2  1  0.73910981  0.73910981  0.52913528  1
  Ca  Ca3  1  0.75363547  0.24802354  0.50590925  1
  Ca  Ca4  1  0.63010922  0.13659415  0.15158627  1
  Ca  Ca5  1  0.35212717  0.87558393  0.83422008  1
  Ca  Ca6  1  0.24802354  0.75363547  0.50590925  1
  Ca  Ca7  1  0.24084208  0.24084208  0.49454154  1
  Ca  Ca8  1  0.14162847  0.14162847  0.16005016  1
  Ca  Ca9  1  0.13659415  0.63010922  0.15158627  1
  Ta  Ta0  1  0.36944784  0.36944784  0.77370566  1
  Mo  Mo0  1  0.63249879  0.63249879  0.22536052  1
  N  N0  1  0.90786901  0.47075854  0.31913039  1
  N  N1  1  0.99700933  0.99700933  0.01694488  1
  N  N2  1  0.67875911  0.67875911  0.01592594  1
  N  N3  1  0.53518965  0.53518965  0.69291582  1
  N  N4  1  0.47075854  0.90786901  0.31913039  1
  N  N5  1  0.53747238  0.08519379  0.67659080  1
  N  N6  1  0.47354595  0.47354595  0.29596337  1
  N  N7  1  0.32145270  0.32145270  0.99500633  1
  N  N8  1  0.06178539  0.06178539  0.64647673  1
  N  N9  1  0.08519379  0.53747238  0.67659080  1
loop_
_geom_bond_atom_site_label_1
_geom_bond_atom_site_label_2
_geom_bond_distance
_geom_bond_site_symmetry_2
Ca0 N3 2.481646 1_555
Ca0 N8 2.500233 1_655
Ca0 N9 2.512050 1_655
Ca0 N1 2.533548 1_546
Ca0 N2 2.632313 1_556
Ca1 N1 2.459454 1_556
Ca1 N9 2.493851 1_655
Ca1 N5 2.493851 1_565
Ca1 N8 2.497352 1_665
Ca1 N2 2.612898 1_556
Ca2 N5 2.539254 1_565
Ca2 N9 2.539254 1_655
Ca2 N0 2.552521 1_555
Ca2 N4 2.552521 1_555
Ca2 N3 2.595963 1_555
Ca3 N8 2.309325 1_655
Ca3 N5 2.486203 1_555
Ca3 N3 2.492431 1_555
Ca3 N0 2.546619 1_555
Ca3 N6 2.614957 1_555
Ca4 N1 2.388632 1_545
Ca4 N7 2.399872 1_554
Ca4 N6 2.494746 1_555
Ca4 N4 2.522839 1_545
Ca5 N3 2.481646 1_555
Ca5 N8 2.500234 1_565
Ca5 N5 2.512050 1_565
Ca5 N1 2.533548 1_456
Ca5 N2 2.632313 1_556
Ca6 N8 2.309325 1_565
Ca6 N9 2.486203 1_555
Ca6 N3 2.492431 1_555
Ca6 N4 2.546619 1_555
Ca6 N6 2.614957 1_555
Ca7 N8 2.307842 1_555
Ca7 N9 2.503313 1_555
Ca7 N5 2.503313 1_555
Ca7 N4 2.631448 1_545
Ca7 N0 2.631448 1_455
Ca7 N6 3.003360 1_555
Ca8 N1 2.335837 1_445
Ca8 N7 2.364893 1_554
Ca8 N0 2.526058 1_455
Ca8 N4 2.526058 1_545
Ca9 N1 2.388631 1_455
Ca9 N7 2.399871 1_554
Ca9 N6 2.494746 1_555
Ca9 N0 2.522839 1_455
Mo0 N2 1.835273 1_555
Mo0 N6 1.889717 1_555
Mo0 N4 1.906891 1_555
Mo0 N0 1.906891 1_555
N3 Ta0 1.980319 1_555
N5 Ta0 1.969937 1_555
N7 Ta0 1.938118 1_555
N9 Ta0 1.969937 1_555
