# generated using pymatgen
data_Zr6SiGeN2
_symmetry_space_group_name_H-M   'P 1'
_cell_length_a   5.83905589
_cell_length_b   5.83905467
_cell_length_c   8.63302465
_cell_angle_alpha   90.00000000
_cell_angle_beta   90.00000000
_cell_angle_gamma   145.29375023
_symmetry_Int_Tables_number   1
_chemical_formula_structural   Zr6SiGeN2
_chemical_formula_sum   'Zr6 Si1 Ge1 N2'
_cell_volume   167.58769335
_cell_formula_units_Z   1
loop_
 _symmetry_equiv_pos_site_id
 _symmetry_equiv_pos_as_xyz
  1  'x, y, z'
loop_
 _atom_site_type_symbol
 _atom_site_label
 _atom_site_symmetry_multiplicity
 _atom_site_fract_x
 _atom_site_fract_y
 _atom_site_fract_z
 _atom_site_occupancy
  Zr  Zr0  1  0.94272651  0.05727349  0.75000000  1
  Zr  Zr1  1  0.05974820  0.94025180  0.25000000  1
  Zr  Zr2  1  0.63021006  0.36978994  0.55013593  1
  Zr  Zr3  1  0.36898897  0.63101103  0.44514861  1
  Zr  Zr4  1  0.36898897  0.63101103  0.05485139  1
  Zr  Zr5  1  0.63021006  0.36978994  0.94986407  1
  Si  Si0  1  0.74633376  0.25366624  0.25000000  1
  Ge  Ge0  1  0.25257643  0.74742357  0.75000000  1
  N  N0  1  0.00011002  0.99988998  0.49998662  1
  N  N1  1  0.00011002  0.99988998  0.00001338  1
loop_
_geom_bond_atom_site_label_1
_geom_bond_atom_site_label_2
_geom_bond_distance
_geom_bond_site_symmetry_2
Si0 Zr1 2.712664 1_655
Si0 Zr1 2.712665 1_545
Si0 Zr3 2.782176 1_545
Si0 Zr4 2.782176 1_545
Si0 Zr3 2.782177 1_655
Si0 Zr4 2.782177 1_655
Si0 Zr2 2.896398 1_555
Si0 Zr5 2.896398 1_554
Ge0 Zr0 2.743245 1_455
Ge0 Zr0 2.743246 1_565
Ge0 Zr5 2.805447 1_565
Ge0 Zr2 2.805447 1_565
Ge0 Zr5 2.805448 1_455
Ge0 Zr2 2.805448 1_455
Ge0 Zr4 2.934295 1_556
Ge0 Zr3 2.934295 1_555
N0 Zr0 2.251154 1_465
N0 Zr1 2.258203 1_555
N0 Zr2 2.307260 1_455
N0 Zr2 2.307261 1_565
N0 Zr3 2.322342 1_565
N0 Zr3 2.322343 1_455
N1 Zr0 2.251154 1_464
N1 Zr1 2.258203 1_555
N1 Zr5 2.307260 1_454
N1 Zr5 2.307261 1_564
N1 Zr4 2.322342 1_565
N1 Zr4 2.322343 1_455
