# generated using pymatgen
data_K2SrOsO6
_symmetry_space_group_name_H-M   'P 1'
_cell_length_a   6.06806376
_cell_length_b   6.06806398
_cell_length_c   6.06806432
_cell_angle_alpha   120.00000184
_cell_angle_beta   120.00000305
_cell_angle_gamma   60.00000832
_symmetry_Int_Tables_number   1
_chemical_formula_structural   K2SrOsO6
_chemical_formula_sum   'K2 Sr1 Os1 O6'
_cell_volume   157.99213794
_cell_formula_units_Z   1
loop_
 _symmetry_equiv_pos_site_id
 _symmetry_equiv_pos_as_xyz
  1  'x, y, z'
loop_
 _atom_site_type_symbol
 _atom_site_label
 _atom_site_symmetry_multiplicity
 _atom_site_fract_x
 _atom_site_fract_y
 _atom_site_fract_z
 _atom_site_occupancy
  K  K0  1  0.74999800  0.74999800  0.24999800  1
  K  K1  1  0.25000000  0.25000000  0.74999900  1
  Sr  Sr0  1  0.50000000  0.50000000  0.49999900  1
  Os  Os0  1  0.00000000  0.00000000  0.00000000  1
  O  O0  1  0.21642459  0.21642459  0.21642359  1
  O  O1  1  0.78357541  0.21642359  0.21642359  1
  O  O2  1  0.21642359  0.78357541  0.21642359  1
  O  O3  1  0.78357641  0.78357641  0.78357541  1
  O  O4  1  0.78357541  0.21642459  0.78357541  1
  O  O5  1  0.21642459  0.78357541  0.78357541  1
loop_
_geom_bond_atom_site_label_1
_geom_bond_atom_site_label_2
_geom_bond_distance
_geom_bond_site_symmetry_2
K0 O5 3.047670 1_554
K0 O4 3.047670 1_554
K0 O2 3.047674 1_555
K0 O1 3.047674 1_555
K0 O3 3.047679 1_555
K0 O0 3.047681 1_565
K0 O0 3.047681 1_655
K0 O3 3.047691 1_554
K0 O2 3.047692 1_655
K0 O1 3.047692 1_565
K0 O5 3.047694 1_655
K0 O4 3.047695 1_565
K1 O4 3.047680 1_555
K1 O5 3.047680 1_555
K1 O1 3.047682 1_455
K1 O1 3.047682 1_556
K1 O2 3.047682 1_545
K1 O2 3.047682 1_556
K1 O0 3.047683 1_556
K1 O0 3.047683 1_555
K1 O3 3.047684 1_545
K1 O3 3.047684 1_455
K1 O4 3.047686 1_455
K1 O5 3.047686 1_545
O0 Os0 1.857256 1_555
O0 Sr0 2.433513 1_555
O1 Os0 1.857252 1_655
O1 Sr0 2.433513 1_555
O2 Os0 1.857252 1_565
O2 Sr0 2.433513 1_555
O3 Os0 1.857247 1_666
O3 Sr0 2.433522 1_555
O4 Os0 1.857256 1_656
O4 Sr0 2.433518 1_555
O5 Os0 1.857256 1_566
O5 Sr0 2.433518 1_555
