# generated using pymatgen
data_RbZnAsO4
_symmetry_space_group_name_H-M   'P 1'
_cell_length_a   5.62032771
_cell_length_b   9.06139998
_cell_length_c   9.03673457
_cell_angle_alpha   89.56082221
_cell_angle_beta   90.00000000
_cell_angle_gamma   90.00000000
_symmetry_Int_Tables_number   1
_chemical_formula_structural   RbZnAsO4
_chemical_formula_sum   'Rb4 Zn4 As4 O16'
_cell_volume   460.20963638
_cell_formula_units_Z   4
loop_
 _symmetry_equiv_pos_site_id
 _symmetry_equiv_pos_as_xyz
  1  'x, y, z'
loop_
 _atom_site_type_symbol
 _atom_site_label
 _atom_site_symmetry_multiplicity
 _atom_site_fract_x
 _atom_site_fract_y
 _atom_site_fract_z
 _atom_site_occupancy
  Rb  Rb0  1  0.93333802  0.99382124  0.81818176  1
  Rb  Rb1  1  0.43333802  0.00617876  0.18181824  1
  Rb  Rb2  1  0.45550949  0.49930434  0.31590625  1
  Rb  Rb3  1  0.95550949  0.50069566  0.68409375  1
  Zn  Zn0  1  0.47034255  0.67476246  0.90121910  1
  Zn  Zn1  1  0.97034255  0.32523754  0.09878090  1
  Zn  Zn2  1  0.42088049  0.17183440  0.57557125  1
  Zn  Zn3  1  0.92088049  0.82816560  0.42442875  1
  As  As0  1  0.46797748  0.31218240  0.90049402  1
  As  As1  1  0.96797748  0.68781760  0.09950598  1
  As  As2  1  0.42809208  0.80919790  0.56958454  1
  As  As3  1  0.92809208  0.19080210  0.43041546  1
  O  O0  1  0.20274244  0.71631655  0.48632054  1
  O  O1  1  0.70274244  0.28368345  0.51367946  1
  O  O2  1  0.68191285  0.71363599  0.53517128  1
  O  O3  1  0.18191285  0.28636401  0.46482872  1
  O  O4  1  0.31386776  0.29927527  0.06250688  1
  O  O5  1  0.81386776  0.70072473  0.93749312  1
  O  O6  1  0.42716427  0.47903119  0.81735157  1
  O  O7  1  0.92716427  0.52096881  0.18264843  1
  O  O8  1  0.76343036  0.28103519  0.93076477  1
  O  O9  1  0.26343036  0.71896481  0.06923523  1
  O  O10  1  0.46073112  0.97776171  0.48978583  1
  O  O11  1  0.96073112  0.02223829  0.51021417  1
  O  O12  1  0.37945866  0.82370652  0.75467145  1
  O  O13  1  0.87945866  0.17629348  0.24532855  1
  O  O14  1  0.36585443  0.17689782  0.78804671  1
  O  O15  1  0.86585443  0.82310218  0.21195329  1
loop_
_geom_bond_atom_site_label_1
_geom_bond_atom_site_label_2
_geom_bond_distance
_geom_bond_site_symmetry_2
As0 O14 1.698192 1_555
As0 O6 1.698676 1_555
As0 O4 1.704335 1_556
As0 O8 1.706078 1_555
As1 O15 1.698192 1_555
As1 O7 1.698676 1_555
As1 O5 1.704335 1_554
As1 O9 1.706078 1_655
As2 O10 1.694050 1_555
As2 O2 1.698743 1_555
As2 O0 1.699511 1_555
As2 O12 1.700851 1_555
As3 O11 1.694050 1_555
As3 O3 1.698743 1_655
As3 O1 1.699511 1_555
As3 O13 1.700851 1_555
O0 Zn3 1.959816 1_455
O0 Rb2 2.881502 1_555
O0 Rb3 2.981421 1_455
O1 Zn2 1.959816 1_555
O1 Rb3 2.881502 1_555
O1 Rb2 2.981421 1_555
O2 Zn3 1.966332 1_555
O2 Rb3 2.803380 1_555
O2 Rb2 3.062055 1_555
O3 Zn2 1.966332 1_555
O3 Rb2 2.803380 1_555
O3 Rb3 3.062055 1_455
O4 Zn1 1.972733 1_455
O4 Rb1 2.936505 1_555
O4 Rb2 3.037487 1_555
O5 Zn0 1.972733 1_555
O5 Rb0 2.936505 1_555
O5 Rb3 3.037487 1_555
O6 Zn0 1.949243 1_555
O6 Rb3 2.917547 1_455
O6 Rb3 3.209801 1_555
O7 Zn1 1.949243 1_555
O7 Rb2 2.917547 1_555
O7 Rb2 3.209801 1_655
O8 Zn1 1.956376 1_556
O8 Rb0 2.959879 1_545
O8 Rb3 3.166719 1_555
O9 Zn0 1.956376 1_554
O9 Rb1 2.959879 1_565
O9 Rb2 3.166719 1_555
O10 Zn2 1.940257 1_565
O10 Rb1 2.797183 1_565
O11 Zn3 1.940257 1_545
O11 Rb0 2.797183 1_545
O12 Zn0 1.951627 1_555
O12 Rb0 3.000980 1_455
O13 Zn1 1.951627 1_555
O13 Rb1 3.000980 1_555
O14 Zn2 1.945719 1_555
O14 Rb0 2.954400 1_445
O15 Zn3 1.945719 1_555
O15 Rb1 2.954400 1_565
