# generated using pymatgen
data_Na2Al3Ga3Se10
_symmetry_space_group_name_H-M   'P 1'
_cell_length_a   9.67344064
_cell_length_b   9.67344050
_cell_length_c   9.67344143
_cell_angle_alpha   90.63855175
_cell_angle_beta   90.63855709
_cell_angle_gamma   90.63854747
_symmetry_Int_Tables_number   1
_chemical_formula_structural   Na2Al3Ga3Se10
_chemical_formula_sum   'Na4 Al6 Ga6 Se20'
_cell_volume   905.02674905
_cell_formula_units_Z   2
loop_
 _symmetry_equiv_pos_site_id
 _symmetry_equiv_pos_as_xyz
  1  'x, y, z'
loop_
 _atom_site_type_symbol
 _atom_site_label
 _atom_site_symmetry_multiplicity
 _atom_site_fract_x
 _atom_site_fract_y
 _atom_site_fract_z
 _atom_site_occupancy
  Na  Na0  1  0.25561743  1.00000000  0.74438257  1
  Na  Na1  1  0.74438257  0.25561743  1.00000000  1
  Na  Na2  1  0.00000000  0.74438257  0.25561743  1
  Na  Na3  1  0.50000000  0.50000000  0.50000000  1
  Al  Al0  1  0.74434710  0.16393814  0.34718287  1
  Al  Al1  1  0.34718287  0.74434710  0.16393814  1
  Al  Al2  1  0.16393814  0.34718287  0.74434710  1
  Al  Al3  1  0.25565290  0.65281713  0.83606186  1
  Al  Al4  1  0.83606186  0.25565290  0.65281713  1
  Al  Al5  1  0.65281713  0.83606186  0.25565290  1
  Ga  Ga0  1  0.83874650  0.87801876  0.57254468  1
  Ga  Ga1  1  0.57254468  0.83874650  0.87801876  1
  Ga  Ga2  1  0.87801876  0.57254468  0.83874650  1
  Ga  Ga3  1  0.16125350  0.42745532  0.12198124  1
  Ga  Ga4  1  0.12198124  0.16125350  0.42745532  1
  Ga  Ga5  1  0.42745532  0.12198124  0.16125350  1
  Se  Se0  1  0.18214913  0.81785087  0.00000000  1
  Se  Se1  1  0.81785087  0.00000000  0.18214913  1
  Se  Se2  1  0.17771810  0.17771810  0.17771810  1
  Se  Se3  1  0.82228190  0.82228190  0.82228190  1
  Se  Se4  1  1.00000000  0.18214913  0.81785087  1
  Se  Se5  1  0.92594716  0.50000000  0.07405284  1
  Se  Se6  1  0.07405284  0.92594716  0.50000000  1
  Se  Se7  1  0.50000000  0.07405284  0.92594716  1
  Se  Se8  1  0.74638479  0.69367204  0.42854832  1
  Se  Se9  1  0.42854832  0.74638479  0.69367204  1
  Se  Se10  1  0.69367204  0.42854832  0.74638479  1
  Se  Se11  1  0.25361521  0.57145168  0.30632796  1
  Se  Se12  1  0.30632796  0.25361521  0.57145168  1
  Se  Se13  1  0.57145168  0.30632796  0.25361521  1
  Se  Se14  1  0.67868095  0.07298088  0.57215035  1
  Se  Se15  1  0.57215035  0.67868095  0.07298088  1
  Se  Se16  1  0.07298088  0.57215035  0.67868095  1
  Se  Se17  1  0.32131905  0.42784965  0.92701912  1
  Se  Se18  1  0.92701912  0.32131905  0.42784965  1
  Se  Se19  1  0.42784965  0.92701912  0.32131905  1
loop_
_geom_bond_atom_site_label_1
_geom_bond_atom_site_label_2
_geom_bond_distance
_geom_bond_site_symmetry_2
Na0 Se7 3.004694 1_565
Na0 Se6 3.004694 1_555
Na0 Se9 3.023375 1_555
Na0 Se12 3.023375 1_565
Na0 Se4 3.135661 1_465
Na0 Se0 3.135662 1_556
Na1 Se7 3.004694 1_555
Na1 Se5 3.004694 1_556
Na1 Se10 3.023375 1_555
Na1 Se13 3.023375 1_556
Na1 Se1 3.135661 1_556
Na1 Se4 3.135662 1_555
Na2 Se5 3.004694 1_455
Na2 Se6 3.004695 1_555
Na2 Se11 3.023375 1_555
Na2 Se8 3.023375 1_455
Na2 Se1 3.135661 1_465
Na2 Se0 3.135662 1_555
Na3 Se11 3.103907 1_555
Na3 Se10 3.103907 1_555
Na3 Se9 3.103907 1_555
Na3 Se12 3.103907 1_555
Na3 Se13 3.103907 1_555
Na3 Se8 3.103907 1_555
Al0 Se13 2.357775 1_555
Al0 Se1 2.358626 1_555
Al0 Se18 2.435571 1_555
Al0 Se14 2.444298 1_555
Al1 Se11 2.357775 1_555
Al1 Se0 2.358626 1_555
Al1 Se19 2.435571 1_555
Al1 Se15 2.444298 1_555
Al2 Se12 2.357775 1_555
Al2 Se4 2.358626 1_455
Al2 Se17 2.435571 1_555
Al2 Se16 2.444298 1_555
Al3 Se9 2.357775 1_555
Al3 Se0 2.358626 1_556
Al3 Se16 2.435571 1_555
Al3 Se17 2.444298 1_555
Al4 Se10 2.357775 1_555
Al4 Se4 2.358626 1_555
Al4 Se14 2.435571 1_555
Al4 Se18 2.444298 1_555
Al5 Se8 2.357775 1_555
Al5 Se1 2.358626 1_565
Al5 Se15 2.435571 1_555
Al5 Se19 2.444298 1_555
Ga0 Se8 2.408312 1_555
Ga0 Se6 2.430625 1_655
Ga0 Se14 2.453457 1_565
Ga0 Se3 2.487557 1_555
Ga1 Se9 2.408312 1_555
Ga1 Se7 2.430625 1_565
Ga1 Se15 2.453457 1_556
Ga1 Se3 2.487557 1_555
Ga2 Se10 2.408312 1_555
Ga2 Se5 2.430625 1_556
Ga2 Se16 2.453457 1_655
Ga2 Se3 2.487557 1_555
Ga3 Se11 2.408312 1_555
Ga3 Se5 2.430625 1_455
Ga3 Se17 2.453457 1_554
Ga3 Se2 2.487557 1_555
Ga4 Se12 2.408312 1_555
Ga4 Se6 2.430625 1_545
Ga4 Se18 2.453457 1_455
Ga4 Se2 2.487557 1_555
Ga5 Se13 2.408312 1_555
Ga5 Se7 2.430625 1_554
Ga5 Se19 2.453457 1_545
Ga5 Se2 2.487557 1_555
