# generated using pymatgen
data_YCr2(MoC2)2
_symmetry_space_group_name_H-M   'P 1'
_cell_length_a   5.75724121
_cell_length_b   5.75724126
_cell_length_c   6.07454308
_cell_angle_alpha   93.24818042
_cell_angle_beta   95.42134092
_cell_angle_gamma   147.19609301
_symmetry_Int_Tables_number   1
_chemical_formula_structural   YCr2(MoC2)2
_chemical_formula_sum   'Y1 Cr2 Mo2 C4'
_cell_volume   105.08124788
_cell_formula_units_Z   1
loop_
 _symmetry_equiv_pos_site_id
 _symmetry_equiv_pos_as_xyz
  1  'x, y, z'
loop_
 _atom_site_type_symbol
 _atom_site_label
 _atom_site_symmetry_multiplicity
 _atom_site_fract_x
 _atom_site_fract_y
 _atom_site_fract_z
 _atom_site_occupancy
  Y  Y0  1  0.00000000  0.00000000  0.00000000  1
  Cr  Cr0  1  0.63867618  0.18861420  0.82728837  1
  Cr  Cr1  1  0.36132382  0.81138580  0.17271163  1
  Mo  Mo0  1  0.83154224  0.62636368  0.45790592  1
  Mo  Mo1  1  0.16845776  0.37363632  0.54209408  1
  C  C0  1  0.25394047  0.60734595  0.86128543  1
  C  C1  1  0.74605953  0.39265405  0.13871457  1
  C  C2  1  0.58999731  0.73298985  0.32298716  1
  C  C3  1  0.41000269  0.26701015  0.67701284  1
loop_
_geom_bond_atom_site_label_1
_geom_bond_atom_site_label_2
_geom_bond_distance
_geom_bond_site_symmetry_2
C0 Cr1 1.909781 1_556
C0 Cr0 1.962605 1_455
C0 Cr0 1.962607 1_565
C0 Mo1 2.054992 1_555
C0 Y0 2.654598 1_666
C0 Y0 2.654600 1_556
C1 Cr0 1.909781 1_554
C1 Cr1 1.962605 1_655
C1 Cr1 1.962607 1_545
C1 Mo0 2.054992 1_555
C1 Y0 2.654598 1_555
C1 Y0 2.654600 1_665
C2 Cr1 1.894403 1_555
C2 Mo0 2.063763 1_555
C2 Mo1 2.103207 1_555
C2 Mo1 2.103208 1_665
C2 Y0 2.627050 1_665
C2 Y0 2.627051 1_555
C3 Cr0 1.894403 1_555
C3 Mo1 2.063763 1_555
C3 Mo0 2.103207 1_555
C3 Mo0 2.103208 1_445
C3 Y0 2.627050 1_556
C3 Y0 2.627051 1_666
