# generated using pymatgen
data_Ca7Tl3N2
_symmetry_space_group_name_H-M   'P 1'
_cell_length_a   4.84781044
_cell_length_b   4.93106563
_cell_length_c   12.60396886
_cell_angle_alpha   101.28069595
_cell_angle_beta   90.00000000
_cell_angle_gamma   90.00000000
_symmetry_Int_Tables_number   1
_chemical_formula_structural   Ca7Tl3N2
_chemical_formula_sum   'Ca7 Tl3 N2'
_cell_volume   295.47539841
_cell_formula_units_Z   1
loop_
 _symmetry_equiv_pos_site_id
 _symmetry_equiv_pos_as_xyz
  1  'x, y, z'
loop_
 _atom_site_type_symbol
 _atom_site_label
 _atom_site_symmetry_multiplicity
 _atom_site_fract_x
 _atom_site_fract_y
 _atom_site_fract_z
 _atom_site_occupancy
  Ca  Ca0  1  0.00000000  0.40003809  0.80007618  1
  Ca  Ca1  1  0.00000000  0.80328386  0.60656572  1
  Ca  Ca2  1  0.00000000  -0.00000000  -0.00000000  1
  Ca  Ca3  1  0.00000000  0.59996191  0.19992382  1
  Ca  Ca4  1  0.50000000  0.09838927  0.19677955  1
  Ca  Ca5  1  0.50000000  0.90161073  0.80322045  1
  Ca  Ca6  1  0.00000000  0.19671614  0.39343428  1
  Tl  Tl0  1  0.50000000  0.50000000  -0.00000000  1
  Tl  Tl1  1  0.50000000  0.70651738  0.41303377  1
  Tl  Tl2  1  0.50000000  0.29348262  0.58696623  1
  N  N0  1  0.00000000  0.89757359  0.79514818  1
  N  N1  1  0.00000000  0.10242641  0.20485182  1
loop_
_geom_bond_atom_site_label_1
_geom_bond_atom_site_label_2
_geom_bond_distance
_geom_bond_site_symmetry_2
Ca0 N0 2.466283 1_555
Ca0 N0 2.466288 1_545
Ca0 Tl0 3.461489 1_556
Ca0 Tl0 3.461489 1_456
Ca0 Tl2 3.579665 1_555
Ca0 Tl2 3.579665 1_455
Ca1 N0 2.330967 1_555
Ca1 Tl1 3.405536 1_455
Ca1 Tl1 3.405536 1_555
Ca1 Tl2 3.465952 1_565
Ca1 Tl2 3.465952 1_465
Ca1 Tl2 3.465962 1_455
Ca1 Tl2 3.465962 1_555
Ca2 N1 2.532064 1_555
Ca2 N0 2.532064 1_544
Ca2 Tl0 3.457480 1_555
Ca2 Tl0 3.457480 1_455
Ca2 Tl0 3.457480 1_545
Ca2 Tl0 3.457480 1_445
Ca3 N1 2.466283 1_555
Ca3 N1 2.466288 1_565
Ca3 Tl0 3.461489 1_455
Ca3 Tl0 3.461489 1_555
Ca3 Tl1 3.579665 1_555
Ca3 Tl1 3.579665 1_455
Ca4 N1 2.425958 1_655
Ca4 N1 2.425958 1_555
Ca4 Tl0 3.463360 1_545
Ca4 Tl0 3.463364 1_555
Ca4 Tl1 3.636451 1_545
Ca4 Tl1 3.636457 1_555
Ca5 N0 2.425958 1_655
Ca5 N0 2.425958 1_555
Ca5 Tl0 3.463360 1_566
Ca5 Tl0 3.463364 1_556
Ca5 Tl2 3.636451 1_565
Ca5 Tl2 3.636457 1_555
Ca6 N1 2.330967 1_555
Ca6 Tl2 3.405536 1_555
Ca6 Tl2 3.405536 1_455
Ca6 Tl1 3.465952 1_445
Ca6 Tl1 3.465952 1_545
Ca6 Tl1 3.465962 1_455
Ca6 Tl1 3.465962 1_555
Tl1 Tl2 3.271214 1_565
Tl1 Tl2 3.271222 1_555
