# generated using pymatgen
data_KRb2ZrOF5
_symmetry_space_group_name_H-M   'P 1'
_cell_length_a   6.60219023
_cell_length_b   6.60219023
_cell_length_c   6.60219023
_cell_angle_alpha   120.32371236
_cell_angle_beta   120.32371236
_cell_angle_gamma   89.44022228
_symmetry_Int_Tables_number   1
_chemical_formula_structural   KRb2ZrOF5
_chemical_formula_sum   'K1 Rb2 Zr1 O1 F5'
_cell_volume   202.48667853
_cell_formula_units_Z   1
loop_
 _symmetry_equiv_pos_site_id
 _symmetry_equiv_pos_as_xyz
  1  'x, y, z'
loop_
 _atom_site_type_symbol
 _atom_site_label
 _atom_site_symmetry_multiplicity
 _atom_site_fract_x
 _atom_site_fract_y
 _atom_site_fract_z
 _atom_site_occupancy
  K  K0  1  0.49824500  0.49824500  0.00000000  1
  Rb  Rb0  1  0.75339100  0.25339100  0.50000000  1
  Rb  Rb1  1  0.25339100  0.75339100  0.50000000  1
  Zr  Zr0  1  0.01845300  0.01845300  0.00000000  1
  O  O0  1  0.21958100  0.21958100  0.00000000  1
  F  F0  1  0.21860400  0.77031400  0.00000000  1
  F  F1  1  0.21860400  0.21860400  0.44828900  1
  F  F2  1  0.77031400  0.77031400  0.55171100  1
  F  F3  1  0.77031400  0.21860400  0.00000000  1
  F  F4  1  0.77910300  0.77910300  0.00000000  1
loop_
_geom_bond_atom_site_label_1
_geom_bond_atom_site_label_2
_geom_bond_distance
_geom_bond_site_symmetry_2
K0 O0 2.614539 1_555
O0 Zr0 1.887065 1_555
O0 Rb0 3.300211 1_555
O0 Rb1 3.300211 1_544
O0 Rb1 3.300211 1_555
O0 Rb0 3.300211 1_454
F0 Zr0 2.094705 1_565
F0 K0 2.563266 1_555
F0 Rb1 3.250972 1_555
F0 Rb0 3.250972 1_454
F0 Rb0 3.369733 1_565
F0 Rb1 3.369733 1_554
F1 Zr0 2.094700 1_555
F1 K0 2.563271 1_556
F1 Rb0 3.250976 1_455
F1 Rb1 3.250976 1_545
F1 Rb0 3.369730 1_555
F1 Rb1 3.369730 1_555
F2 Zr0 2.094701 1_666
F2 K0 2.563271 1_555
F2 Rb1 3.250969 1_555
F2 Rb0 3.250969 1_555
F2 Rb1 3.369737 1_655
F2 Rb0 3.369737 1_565
F3 Zr0 2.094705 1_655
F3 K0 2.563266 1_555
F3 Rb1 3.250972 1_544
F3 Rb0 3.250972 1_555
F3 Rb1 3.369733 1_655
F3 Rb0 3.369733 1_554
F4 Zr0 2.245679 1_665
F4 K0 2.635124 1_555
F4 Rb1 3.293776 1_655
F4 Rb0 3.293776 1_565
F4 Rb1 3.293776 1_554
F4 Rb0 3.293776 1_554
