# generated using pymatgen
data_Zr3Zn2PdC
_symmetry_space_group_name_H-M   'P 1'
_cell_length_a   8.62748352
_cell_length_b   8.62748379
_cell_length_c   8.62748449
_cell_angle_alpha   59.99999732
_cell_angle_beta   59.99999626
_cell_angle_gamma   59.99999856
_symmetry_Int_Tables_number   1
_chemical_formula_structural   Zr3Zn2PdC
_chemical_formula_sum   'Zr12 Zn8 Pd4 C4'
_cell_volume   454.08531200
_cell_formula_units_Z   4
loop_
 _symmetry_equiv_pos_site_id
 _symmetry_equiv_pos_as_xyz
  1  'x, y, z'
loop_
 _atom_site_type_symbol
 _atom_site_label
 _atom_site_symmetry_multiplicity
 _atom_site_fract_x
 _atom_site_fract_y
 _atom_site_fract_z
 _atom_site_occupancy
  Zr  Zr0  1  0.44038810  0.44038810  0.05961190  1
  Zr  Zr1  1  0.05961190  0.44038810  0.05961190  1
  Zr  Zr2  1  0.44038810  0.05961190  0.05961190  1
  Zr  Zr3  1  0.05961190  0.05961190  0.44038810  1
  Zr  Zr4  1  0.44038810  0.05961190  0.44038810  1
  Zr  Zr5  1  0.05961190  0.44038810  0.44038810  1
  Zr  Zr6  1  0.80961190  0.80961190  0.19038810  1
  Zr  Zr7  1  0.19038810  0.80961190  0.19038810  1
  Zr  Zr8  1  0.80961190  0.19038810  0.19038810  1
  Zr  Zr9  1  0.19038810  0.19038810  0.80961190  1
  Zr  Zr10  1  0.80961190  0.19038810  0.80961190  1
  Zr  Zr11  1  0.19038810  0.80961190  0.80961190  1
  Zn  Zn0  1  0.83149552  0.83149552  0.50551343  1
  Zn  Zn1  1  0.83149552  0.50551343  0.83149552  1
  Zn  Zn2  1  0.50551343  0.83149552  0.83149552  1
  Zn  Zn3  1  0.83149552  0.83149552  0.83149552  1
  Zn  Zn4  1  0.41850448  0.41850448  0.74448657  1
  Zn  Zn5  1  0.41850448  0.74448657  0.41850448  1
  Zn  Zn6  1  0.74448657  0.41850448  0.41850448  1
  Zn  Zn7  1  0.41850448  0.41850448  0.41850448  1
  Pd  Pd0  1  0.62500000  0.62500000  0.12500000  1
  Pd  Pd1  1  0.62500000  0.12500000  0.62500000  1
  Pd  Pd2  1  0.12500000  0.62500000  0.62500000  1
  Pd  Pd3  1  0.62500000  0.62500000  0.62500000  1
  C  C0  1  0.12500000  0.12500000  0.62500000  1
  C  C1  1  0.12500000  0.62500000  0.12500000  1
  C  C2  1  0.62500000  0.12500000  0.12500000  1
  C  C3  1  0.12500000  0.12500000  0.12500000  1
loop_
_geom_bond_atom_site_label_1
_geom_bond_atom_site_label_2
_geom_bond_distance
_geom_bond_site_symmetry_2
Zn0 Zn2 2.812405 1_555
Zn0 Zn1 2.812405 1_555
Zn0 Zn3 2.812406 1_555
Zn0 Zr7 2.919773 1_655
Zn0 Zr8 2.919773 1_565
Zn0 Zr6 2.919773 1_555
Zn0 Zr4 3.118334 1_565
Zn0 Zr3 3.118334 1_665
Zn0 Zr5 3.118334 1_655
Zn1 Zn2 2.812405 1_555
Zn1 Zn3 2.812405 1_555
Zn1 Zr9 2.919773 1_655
Zn1 Zr8 2.919773 1_556
Zn1 Zr10 2.919773 1_555
Zn1 Zr0 3.118334 1_556
Zn1 Zr1 3.118334 1_656
Zn1 Zr5 3.118334 1_655
Zn2 Zn3 2.812405 1_555
Zn2 Zr9 2.919773 1_565
Zn2 Zr7 2.919773 1_556
Zn2 Zr11 2.919773 1_555
Zn2 Zr0 3.118334 1_556
Zn2 Zr4 3.118334 1_565
Zn2 Zr2 3.118334 1_566
Zn3 Zr11 2.919773 1_655
Zn3 Zr10 2.919773 1_565
Zn3 Zr6 2.919773 1_556
Zn3 Zr2 3.118334 1_566
Zn3 Zr3 3.118334 1_665
Zn3 Zr1 3.118334 1_656
Zn4 Zn6 2.812405 1_555
Zn4 Zn5 2.812405 1_555
Zn4 Zn7 2.812406 1_555
Zn4 Zr1 2.919773 1_556
Zn4 Zr2 2.919773 1_556
Zn4 Zr0 2.919773 1_556
Zn4 Zr10 3.118334 1_555
Zn4 Zr9 3.118334 1_555
Zn4 Zr11 3.118334 1_555
Zn5 Zn6 2.812405 1_555
Zn5 Zn7 2.812405 1_555
Zn5 Zr3 2.919773 1_565
Zn5 Zr2 2.919773 1_565
Zn5 Zr4 2.919773 1_565
Zn5 Zr6 3.118334 1_555
Zn5 Zr7 3.118334 1_555
Zn5 Zr11 3.118334 1_555
Zn6 Zn7 2.812405 1_555
Zn6 Zr3 2.919773 1_655
Zn6 Zr1 2.919773 1_655
Zn6 Zr5 2.919773 1_655
Zn6 Zr6 3.118334 1_555
Zn6 Zr8 3.118334 1_555
Zn6 Zr10 3.118334 1_555
Zn7 Zr5 2.919773 1_555
Zn7 Zr4 2.919773 1_555
Zn7 Zr0 2.919773 1_555
Zn7 Zr8 3.118334 1_555
Zn7 Zr9 3.118334 1_555
Zn7 Zr7 3.118334 1_555
Pd0 Zn3 2.628925 1_554
Pd0 Zn7 2.628925 1_555
Pd0 Zn5 2.628926 1_555
Pd0 Zn1 2.628926 1_554
Pd0 Zn6 2.628926 1_555
Pd0 Zn2 2.628926 1_554
Pd0 Zr1 3.118607 1_655
Pd0 Zr7 3.118607 1_555
Pd0 Zr2 3.118607 1_565
Pd0 Zr8 3.118607 1_555
Pd0 Zr6 3.118607 1_555
Pd0 Zr0 3.118607 1_555
Pd1 Zn6 2.628925 1_555
Pd1 Zn2 2.628925 1_545
Pd1 Zn4 2.628926 1_555
Pd1 Zn0 2.628926 1_545
Pd1 Zn3 2.628926 1_545
Pd1 Zn7 2.628926 1_555
Pd1 Zr3 3.118607 1_655
Pd1 Zr9 3.118607 1_555
Pd1 Zr10 3.118607 1_555
Pd1 Zr4 3.118607 1_555
Pd1 Zr2 3.118607 1_556
Pd1 Zr8 3.118607 1_555
Pd2 Zn5 2.628925 1_555
Pd2 Zn1 2.628925 1_455
Pd2 Zn4 2.628926 1_555
Pd2 Zn0 2.628926 1_455
Pd2 Zn7 2.628926 1_555
Pd2 Zn3 2.628926 1_455
Pd2 Zr3 3.118607 1_565
Pd2 Zr9 3.118607 1_555
Pd2 Zr11 3.118607 1_555
Pd2 Zr1 3.118607 1_556
Pd2 Zr7 3.118607 1_555
Pd2 Zr5 3.118607 1_555
Pd3 Zn0 2.628925 1_555
Pd3 Zn4 2.628925 1_555
Pd3 Zn1 2.628926 1_555
Pd3 Zn5 2.628926 1_555
Pd3 Zn2 2.628926 1_555
Pd3 Zn6 2.628926 1_555
Pd3 Zr11 3.118607 1_555
Pd3 Zr5 3.118607 1_655
Pd3 Zr10 3.118607 1_555
Pd3 Zr4 3.118607 1_565
Pd3 Zr6 3.118607 1_555
Pd3 Zr0 3.118607 1_556
C0 Zr4 2.299693 1_555
C0 Zr10 2.299693 1_455
C0 Zr5 2.299693 1_555
C0 Zr11 2.299693 1_545
C0 Zr9 2.299693 1_555
C0 Zr3 2.299693 1_555
C1 Zr6 2.299693 1_455
C1 Zr0 2.299693 1_555
C1 Zr7 2.299693 1_555
C1 Zr11 2.299693 1_554
C1 Zr5 2.299693 1_555
C1 Zr1 2.299693 1_555
C2 Zr0 2.299693 1_555
C2 Zr6 2.299693 1_545
C2 Zr8 2.299693 1_555
C2 Zr2 2.299693 1_555
C2 Zr4 2.299693 1_555
C2 Zr10 2.299693 1_554
C3 Zr2 2.299693 1_555
C3 Zr8 2.299693 1_455
C3 Zr1 2.299693 1_555
C3 Zr7 2.299693 1_545
C3 Zr3 2.299693 1_555
C3 Zr9 2.299693 1_554
