# generated using pymatgen
data_Y4OsCl4
_symmetry_space_group_name_H-M   'P 1'
_cell_length_a   8.53146899
_cell_length_b   8.53147007
_cell_length_c   6.52277501
_cell_angle_alpha   89.76162573
_cell_angle_beta   89.76162784
_cell_angle_gamma   89.25513266
_symmetry_Int_Tables_number   1
_chemical_formula_structural   Y4OsCl4
_chemical_formula_sum   'Y8 Os2 Cl8'
_cell_volume   474.71829027
_cell_formula_units_Z   2
loop_
 _symmetry_equiv_pos_site_id
 _symmetry_equiv_pos_as_xyz
  1  'x, y, z'
loop_
 _atom_site_type_symbol
 _atom_site_label
 _atom_site_symmetry_multiplicity
 _atom_site_fract_x
 _atom_site_fract_y
 _atom_site_fract_z
 _atom_site_occupancy
  Y  Y0  1  0.10684281  0.74017621  0.98676742  1
  Y  Y1  1  0.25982379  0.89315719  0.51323258  1
  Y  Y2  1  0.89315719  0.25982379  0.01323258  1
  Y  Y3  1  0.74017621  0.10684281  0.48676742  1
  Y  Y4  1  0.74192151  0.89513565  0.00891241  1
  Y  Y5  1  0.10486435  0.25807849  0.49108759  1
  Y  Y6  1  0.25807849  0.10486435  0.99108759  1
  Y  Y7  1  0.89513565  0.74192151  0.50891241  1
  Os  Os0  1  0.00703077  0.99296923  0.25000000  1
  Os  Os1  1  0.99296923  0.00703077  0.75000000  1
  Cl  Cl0  1  0.42304739  0.81933550  0.90011408  1
  Cl  Cl1  1  0.18066450  0.57695261  0.59988592  1
  Cl  Cl2  1  0.57695261  0.18066450  0.09988592  1
  Cl  Cl3  1  0.81933550  0.42304739  0.40011408  1
  Cl  Cl4  1  0.81392243  0.58061517  0.90064216  1
  Cl  Cl5  1  0.41938483  0.18607757  0.59935784  1
  Cl  Cl6  1  0.18607757  0.41938483  0.09935784  1
  Cl  Cl7  1  0.58061517  0.81392243  0.40064216  1
loop_
_geom_bond_atom_site_label_1
_geom_bond_atom_site_label_2
_geom_bond_distance
_geom_bond_site_symmetry_2
Os0 Y1 2.880186 1_555
Os0 Y0 2.880186 1_554
Os0 Y6 2.891442 1_564
Os0 Y7 2.891442 1_455
Os0 Y4 2.893928 1_455
Os0 Y5 2.893928 1_565
Os0 Y3 2.904798 1_465
Os0 Y2 2.904798 1_465
Os1 Y3 2.880186 1_555
Os1 Y2 2.880186 1_556
Os1 Y4 2.891442 1_546
Os1 Y5 2.891442 1_655
Os1 Y6 2.893928 1_655
Os1 Y7 2.893928 1_545
Os1 Y1 2.904798 1_645
Os1 Y0 2.904798 1_645
Cl0 Y0 2.843343 1_555
Cl0 Y6 2.860580 1_565
Cl0 Y4 2.896271 1_556
Cl0 Y1 2.949117 1_555
Cl1 Y1 2.843343 1_555
Cl1 Y7 2.860579 1_455
Cl1 Y5 2.896271 1_555
Cl1 Y0 2.949117 1_555
Cl2 Y2 2.843343 1_555
Cl2 Y4 2.860580 1_545
Cl2 Y6 2.896271 1_554
Cl2 Y3 2.949117 1_555
Cl3 Y3 2.843343 1_555
Cl3 Y5 2.860579 1_655
Cl3 Y7 2.896271 1_555
Cl3 Y2 2.949117 1_555
Cl4 Y4 2.836477 1_556
Cl4 Y2 2.902724 1_556
Cl4 Y0 2.918973 1_655
Cl4 Y7 2.980538 1_555
Cl5 Y5 2.836477 1_555
Cl5 Y3 2.902724 1_555
Cl5 Y1 2.918973 1_545
Cl5 Y6 2.980538 1_555
Cl6 Y6 2.836477 1_554
Cl6 Y0 2.902724 1_554
Cl6 Y2 2.918973 1_455
Cl6 Y5 2.980538 1_555
Cl7 Y7 2.836477 1_555
Cl7 Y1 2.902724 1_555
Cl7 Y3 2.918973 1_565
Cl7 Y4 2.980538 1_555
