# generated using pymatgen
data_Y2ZnGa8Ru5
_symmetry_space_group_name_H-M   'P 1'
_cell_length_a   7.98980965
_cell_length_b   7.98980962
_cell_length_c   7.98981117
_cell_angle_alpha   135.05121233
_cell_angle_beta   135.05120073
_cell_angle_gamma   65.45064515
_symmetry_Int_Tables_number   1
_chemical_formula_structural   Y2ZnGa8Ru5
_chemical_formula_sum   'Y2 Zn1 Ga8 Ru5'
_cell_volume   250.81150239
_cell_formula_units_Z   1
loop_
 _symmetry_equiv_pos_site_id
 _symmetry_equiv_pos_as_xyz
  1  'x, y, z'
loop_
 _atom_site_type_symbol
 _atom_site_label
 _atom_site_symmetry_multiplicity
 _atom_site_fract_x
 _atom_site_fract_y
 _atom_site_fract_z
 _atom_site_occupancy
  Y  Y0  1  0.00000000  0.50000000  0.50000000  1
  Y  Y1  1  0.50000000  0.00000000  0.50000000  1
  Zn  Zn0  1  0.00000000  0.00000000  0.00000000  1
  Ga  Ga0  1  0.43776235  0.85972073  0.00000000  1
  Ga  Ga1  1  0.14027927  0.14027927  0.57804062  1
  Ga  Ga2  1  0.85972073  0.43776235  0.00000000  1
  Ga  Ga3  1  0.85972073  0.85972073  0.42195938  1
  Ga  Ga4  1  0.56223765  0.14027927  1.00000000  1
  Ga  Ga5  1  0.14027927  0.56223765  1.00000000  1
  Ga  Ga6  1  0.56223765  0.56223765  0.42195938  1
  Ga  Ga7  1  0.43776235  0.43776235  0.57804062  1
  Ru  Ru0  1  0.18679269  0.18679269  1.00000000  1
  Ru  Ru1  1  0.81320731  0.81320731  0.00000000  1
  Ru  Ru2  1  0.25000000  0.75000000  0.50000000  1
  Ru  Ru3  1  0.75000000  0.25000000  0.50000000  1
  Ru  Ru4  1  0.50000000  0.50000000  0.00000000  1
loop_
_geom_bond_atom_site_label_1
_geom_bond_atom_site_label_2
_geom_bond_distance
_geom_bond_site_symmetry_2
Y0 Zn0 3.054269 1_555
Y0 Zn0 3.054269 1_566
Y1 Zn0 3.054270 1_555
Y1 Zn0 3.054270 1_656
Ga0 Ru0 2.548647 1_564
Ga0 Ru3 2.575049 1_565
Ga0 Ru2 2.575050 1_554
Ga0 Ga7 2.577552 1_554
Ga0 Ga3 2.577552 1_555
Ga0 Ru4 2.705574 1_555
Ga0 Ru1 2.865339 1_555
Ga0 Y0 2.962459 1_554
Ga0 Y1 2.962460 1_565
Ga1 Ru1 2.548645 1_445
Ga1 Ru2 2.575052 1_545
Ga1 Ru3 2.575052 1_455
Ga1 Ga5 2.577552 1_555
Ga1 Ga4 2.577552 1_555
Ga1 Ru4 2.705572 1_556
Ga1 Ru0 2.865347 1_555
Ga1 Y1 2.962454 1_555
Ga1 Y0 2.962454 1_555
Ga2 Ru0 2.548647 1_654
Ga2 Ru2 2.575050 1_655
Ga2 Ru3 2.575050 1_554
Ga2 Ga3 2.577552 1_555
Ga2 Ga7 2.577552 1_554
Ga2 Ru4 2.705574 1_555
Ga2 Ru1 2.865339 1_555
Ga2 Y1 2.962459 1_554
Ga2 Y0 2.962460 1_655
Ga3 Ru0 2.548645 1_665
Ga3 Ru3 2.575052 1_565
Ga3 Ru2 2.575052 1_655
Ga3 Ru4 2.705572 1_555
Ga3 Ru1 2.865347 1_555
Ga3 Y1 2.962454 1_565
Ga3 Y0 2.962454 1_655
Ga4 Ru1 2.548647 1_546
Ga4 Ru2 2.575049 1_545
Ga4 Ru3 2.575050 1_556
Ga4 Ga6 2.577552 1_556
Ga4 Ru4 2.705574 1_556
Ga4 Ru0 2.865339 1_555
Ga4 Y0 2.962459 1_656
Ga4 Y1 2.962460 1_555
Ga5 Ru1 2.548647 1_456
Ga5 Ru3 2.575050 1_455
Ga5 Ru2 2.575050 1_556
Ga5 Ga6 2.577552 1_556
Ga5 Ru4 2.705574 1_556
Ga5 Ru0 2.865339 1_555
Ga5 Y1 2.962459 1_566
Ga5 Y0 2.962460 1_555
Ga6 Ru1 2.548643 1_556
Ga6 Ru2 2.575045 1_555
Ga6 Ru3 2.575045 1_555
Ga6 Ru4 2.705583 1_555
Ga6 Ru0 2.865336 1_554
Ga6 Y1 2.962463 1_565
Ga6 Y0 2.962463 1_655
Ga7 Ru0 2.548643 1_554
Ga7 Ru3 2.575045 1_555
Ga7 Ru2 2.575045 1_555
Ga7 Ru4 2.705583 1_556
Ga7 Ru1 2.865336 1_556
Ga7 Y1 2.962463 1_555
Ga7 Y0 2.962463 1_555
Ru0 Zn0 2.511092 1_556
Ru1 Zn0 2.511092 1_665
Ru4 Y1 3.054269 1_565
Ru4 Y1 3.054269 1_554
Ru4 Y0 3.054270 1_655
Ru4 Y0 3.054270 1_554
