# generated using pymatgen
data_ZrBi
_symmetry_space_group_name_H-M   'P 1'
_cell_length_a   3.89310867
_cell_length_b   5.75860323
_cell_length_c   14.45800379
_cell_angle_alpha   90.00000000
_cell_angle_beta   90.00000000
_cell_angle_gamma   109.75661825
_symmetry_Int_Tables_number   1
_chemical_formula_structural   ZrBi
_chemical_formula_sum   'Zr6 Bi6'
_cell_volume   305.05268640
_cell_formula_units_Z   6
loop_
 _symmetry_equiv_pos_site_id
 _symmetry_equiv_pos_as_xyz
  1  'x, y, z'
loop_
 _atom_site_type_symbol
 _atom_site_label
 _atom_site_symmetry_multiplicity
 _atom_site_fract_x
 _atom_site_fract_y
 _atom_site_fract_z
 _atom_site_occupancy
  Zr  Zr0  1  0.07142285  0.14284470  0.89071651  1
  Zr  Zr1  1  0.92857715  0.85715530  0.10928349  1
  Zr  Zr2  1  0.92857715  0.85715530  0.39071651  1
  Zr  Zr3  1  0.07142285  0.14284470  0.60928349  1
  Zr  Zr4  1  0.38830321  0.77660641  0.75000000  1
  Zr  Zr5  1  0.61169679  0.22339359  0.25000000  1
  Bi  Bi0  1  0.67496013  0.34992125  0.75000000  1
  Bi  Bi1  1  0.32503987  0.65007875  0.25000000  1
  Bi  Bi2  1  0.64087953  0.28175906  0.45022410  1
  Bi  Bi3  1  0.35912047  0.71824094  0.54977590  1
  Bi  Bi4  1  0.35912047  0.71824094  0.95022410  1
  Bi  Bi5  1  0.64087953  0.28175906  0.04977590  1
loop_
_geom_bond_atom_site_label_1
_geom_bond_atom_site_label_2
_geom_bond_distance
_geom_bond_site_symmetry_2
Zr0 Zr4 3.444984 1_545
Zr0 Zr4 3.444986 1_445
Zr0 Zr1 3.518977 1_446
Zr1 Zr5 3.444984 1_565
Zr1 Zr5 3.444986 1_665
Zr2 Zr5 3.444984 1_565
Zr2 Zr5 3.444986 1_665
Zr2 Zr3 3.518977 1_665
Zr3 Zr4 3.444984 1_545
Zr3 Zr4 3.444986 1_445
Bi0 Zr4 3.022684 1_555
Bi0 Zr4 3.022687 1_655
Bi0 Zr3 3.031118 1_555
Bi0 Zr0 3.031118 1_555
Bi0 Zr3 3.031123 1_655
Bi0 Zr0 3.031123 1_655
Bi0 Zr4 3.107157 1_545
Bi1 Zr5 3.022684 1_555
Bi1 Zr5 3.022687 1_455
Bi1 Zr2 3.031118 1_555
Bi1 Zr1 3.031118 1_555
Bi1 Zr1 3.031123 1_455
Bi1 Zr2 3.031123 1_455
Bi1 Zr5 3.107157 1_565
Bi2 Zr5 2.912072 1_555
Bi2 Zr3 3.105544 1_555
Bi2 Zr3 3.105547 1_655
Bi2 Zr2 3.134453 1_545
Bi2 Zr2 3.134455 1_445
Bi2 Zr2 3.234945 1_555
Bi2 Bi3 3.376231 1_545
Bi2 Bi3 3.384767 1_655
Bi2 Bi3 3.384767 1_555
Bi3 Zr4 2.912072 1_555
Bi3 Zr2 3.105544 1_555
Bi3 Zr2 3.105547 1_455
Bi3 Zr3 3.134453 1_565
Bi3 Zr3 3.134455 1_665
Bi3 Zr3 3.234945 1_555
Bi4 Zr4 2.912072 1_555
Bi4 Zr1 3.105544 1_556
Bi4 Zr1 3.105547 1_456
Bi4 Zr0 3.134453 1_565
Bi4 Zr0 3.134455 1_665
Bi4 Zr0 3.234945 1_555
Bi4 Bi5 3.376231 1_566
Bi4 Bi5 3.384767 1_456
Bi4 Bi5 3.384767 1_556
Bi5 Zr5 2.912072 1_555
Bi5 Zr0 3.105544 1_554
Bi5 Zr0 3.105547 1_654
Bi5 Zr1 3.134453 1_545
Bi5 Zr1 3.134455 1_445
Bi5 Zr1 3.234945 1_555
