# generated using pymatgen
data_ZrAl5GaCu6
_symmetry_space_group_name_H-M   'P 1'
_cell_length_a   6.47768352
_cell_length_b   6.47768283
_cell_length_c   6.47725183
_cell_angle_alpha   134.26650692
_cell_angle_beta   99.51813062
_cell_angle_gamma   97.85698468
_symmetry_Int_Tables_number   1
_chemical_formula_structural   ZrAl5GaCu6
_chemical_formula_sum   'Zr1 Al5 Ga1 Cu6'
_cell_volume   179.30041091
_cell_formula_units_Z   1
loop_
 _symmetry_equiv_pos_site_id
 _symmetry_equiv_pos_as_xyz
  1  'x, y, z'
loop_
 _atom_site_type_symbol
 _atom_site_label
 _atom_site_symmetry_multiplicity
 _atom_site_fract_x
 _atom_site_fract_y
 _atom_site_fract_z
 _atom_site_occupancy
  Zr  Zr0  1  0.00216928  0.99991442  0.00208370  1
  Al  Al0  1  0.65272416  0.00003229  0.65275645  1
  Al  Al1  1  0.65716305  0.65651503  0.00057003  1
  Al  Al2  1  0.34405500  0.34340598  0.00057003  1
  Al  Al3  1  0.18397071  0.68356567  0.50023755  1
  Al  Al4  1  0.81667289  0.31626684  0.50023755  1
  Ga  Ga0  1  0.34378964  0.00028441  0.34407405  1
  Cu  Cu0  1  0.76288083  0.49978791  0.26266874  1
  Cu  Cu1  1  0.23696745  0.50032539  0.73729284  1
  Cu  Cu2  1  0.99848008  0.99995744  0.50129485  1
  Cu  Cu3  1  0.99846172  0.49713239  0.99845918  1
  Cu  Cu4  1  0.50132680  0.99999847  0.99845918  1
  Cu  Cu5  1  0.50133741  0.50281476  0.50129485  1
loop_
_geom_bond_atom_site_label_1
_geom_bond_atom_site_label_2
_geom_bond_distance
_geom_bond_site_symmetry_2
Al0 Ga0 2.585452 1_555
Al0 Cu4 2.588957 1_545
Al0 Cu3 2.588961 1_555
Al0 Cu5 2.589406 1_545
Al0 Cu2 2.589406 1_545
Al0 Cu0 2.679318 1_556
Al0 Cu0 2.681857 1_545
Al0 Zr0 2.924482 1_646
Al1 Cu2 2.562754 1_555
Al1 Cu3 2.562846 1_554
Al1 Cu0 2.567761 1_555
Al1 Cu5 2.572806 1_554
Al1 Cu4 2.573263 1_554
Al1 Cu1 2.577568 1_554
Al1 Zr0 2.923332 1_655
Al2 Cu5 2.562751 1_555
Al2 Cu4 2.562834 1_544
Al2 Cu0 2.567760 1_555
Al2 Cu2 2.572807 1_444
Al2 Cu3 2.573261 1_454
Al2 Cu1 2.577573 1_554
Al2 Zr0 2.923328 1_545
Al3 Cu4 2.502300 1_555
Al3 Cu5 2.502373 1_555
Al3 Cu3 2.509604 1_454
Al3 Cu2 2.510091 1_455
Al3 Cu1 2.523048 1_555
Al3 Cu0 2.528269 1_455
Al3 Zr0 2.962993 1_556
Al3 Zr0 2.963013 1_545
Al4 Cu3 2.502300 1_555
Al4 Cu2 2.502369 1_545
Al4 Cu4 2.509608 1_544
Al4 Cu5 2.510096 1_555
Al4 Cu1 2.523042 1_655
Al4 Cu0 2.528269 1_555
Al4 Zr0 2.962993 1_656
Al4 Zr0 2.963008 1_645
Ga0 Zr0 2.858997 1_545
Cu0 Cu4 2.467287 1_544
Cu0 Cu3 2.467291 1_554
Cu0 Cu5 2.468298 1_555
Cu0 Cu2 2.468298 1_555
Cu0 Zr0 3.216233 1_645
Cu0 Zr0 3.216814 1_656
Cu1 Cu3 2.480613 1_455
Cu1 Cu4 2.480618 1_555
Cu1 Cu5 2.482381 1_555
Cu1 Cu2 2.482381 1_445
Cu1 Ga0 2.670813 1_566
Cu1 Ga0 2.671425 1_555
Cu1 Zr0 3.191837 1_556
Cu1 Zr0 3.194688 1_545
Cu2 Cu3 2.502872 1_565
Cu2 Cu3 2.531276 1_554
Cu2 Ga0 2.606801 1_665
Cu2 Zr0 3.237360 1_655
Cu2 Zr0 3.240065 1_656
Cu3 Ga0 2.608273 1_666
Cu3 Zr0 3.237278 1_656
Cu3 Zr0 3.240576 1_646
Cu4 Cu5 2.502874 1_555
Cu4 Cu5 2.531274 1_566
Cu4 Ga0 2.608277 1_566
Cu4 Zr0 3.237278 1_556
Cu4 Zr0 3.240577 1_656
Cu5 Ga0 2.606801 1_555
Cu5 Zr0 3.237360 1_545
Cu5 Zr0 3.240065 1_656
