# generated using pymatgen
data_Ga12CoTc2Ir
_symmetry_space_group_name_H-M   'P 1'
_cell_length_a   6.43153245
_cell_length_b   6.42595911
_cell_length_c   6.75340373
_cell_angle_alpha   90.00000000
_cell_angle_beta   90.00000000
_cell_angle_gamma   90.33567072
_symmetry_Int_Tables_number   1
_chemical_formula_structural   Ga12CoTc2Ir
_chemical_formula_sum   'Ga12 Co1 Tc2 Ir1'
_cell_volume   279.10504239
_cell_formula_units_Z   1
loop_
 _symmetry_equiv_pos_site_id
 _symmetry_equiv_pos_as_xyz
  1  'x, y, z'
loop_
 _atom_site_type_symbol
 _atom_site_label
 _atom_site_symmetry_multiplicity
 _atom_site_fract_x
 _atom_site_fract_y
 _atom_site_fract_z
 _atom_site_occupancy
  Ga  Ga0  1  0.49529119  0.99407027  0.00000000  1
  Ga  Ga1  1  0.50187512  0.00062502  0.50000000  1
  Ga  Ga2  1  0.01245868  0.50444504  0.00000000  1
  Ga  Ga3  1  0.99566131  0.50529799  0.50000000  1
  Ga  Ga4  1  0.65903111  0.34977374  0.73975290  1
  Ga  Ga5  1  0.84550861  0.84396001  0.76737660  1
  Ga  Ga6  1  0.15260799  0.14960088  0.77007941  1
  Ga  Ga7  1  0.34217075  0.66443191  0.73911006  1
  Ga  Ga8  1  0.34217075  0.66443191  0.26088994  1
  Ga  Ga9  1  0.65903111  0.34977374  0.26024710  1
  Ga  Ga10  1  0.84550861  0.84396001  0.23262340  1
  Ga  Ga11  1  0.15260799  0.14960088  0.22992059  1
  Co  Co0  1  0.16428505  0.83552571  0.00000000  1
  Tc  Tc0  1  0.84630521  0.15212482  0.00000000  1
  Tc  Tc1  1  0.65309227  0.65679297  0.50000000  1
  Ir  Ir0  1  0.33239423  0.33558112  0.50000000  1
loop_
_geom_bond_atom_site_label_1
_geom_bond_atom_site_label_2
_geom_bond_distance
_geom_bond_site_symmetry_2
Ga0 Tc0 2.470071 1_565
Ga0 Ga11 2.879795 1_565
Ga0 Ga6 2.879795 1_564
Ga0 Ga10 2.915033 1_555
Ga0 Ga5 2.915033 1_554
Ga0 Ga8 2.921748 1_555
Ga0 Ga7 2.921748 1_554
Ga0 Ga9 3.065028 1_565
Ga0 Ga4 3.065028 1_564
Ga1 Ir0 2.418372 1_555
Ga1 Tc1 2.419239 1_545
Ga1 Ga7 2.881631 1_545
Ga1 Ga8 2.881631 1_545
Ga1 Ga4 2.941174 1_555
Ga1 Ga9 2.941174 1_555
Ga1 Ga5 3.030614 1_545
Ga1 Ga10 3.030614 1_545
Ga1 Ga6 3.051954 1_555
Ga1 Ga11 3.051954 1_555
Ga2 Tc0 2.497855 1_455
Ga2 Ga5 2.899702 1_454
Ga2 Ga6 2.906365 1_554
Ga2 Ga8 2.938095 1_555
Ga2 Ga7 2.938095 1_554
Ga2 Ga9 3.035997 1_455
Ga2 Ga4 3.035997 1_454
Ga3 Tc1 2.413942 1_555
Ga3 Ir0 2.430507 1_655
Ga3 Ga4 2.877934 1_555
Ga3 Ga9 2.877934 1_555
Ga3 Ga7 2.931413 1_655
Ga3 Ga8 2.931413 1_655
Ga3 Ga5 2.992282 1_555
Ga3 Ga6 3.097927 1_655
Ga4 Tc0 2.484100 1_556
Ga4 Tc1 2.552702 1_555
Ga4 Ir0 2.653483 1_555
Ga4 Ga7 2.879189 1_555
Ga5 Tc1 2.494225 1_555
Ga5 Tc0 2.527717 1_566
Ga5 Ga6 2.777303 1_665
Ga6 Ir0 2.464938 1_555
Ga6 Tc0 2.508494 1_456
Ga7 Tc1 2.570986 1_555
Ga7 Ir0 2.659988 1_555
Ga8 Tc1 2.570986 1_555
Ga8 Ir0 2.659988 1_555
Ga8 Ga9 2.879189 1_555
Ga9 Tc0 2.484100 1_555
Ga9 Tc1 2.552702 1_555
Ga9 Ir0 2.653483 1_555
Ga10 Tc1 2.494225 1_555
Ga10 Tc0 2.527717 1_565
Ga10 Ga11 2.777303 1_665
Ga10 Ga2 2.899702 1_655
Ga10 Ga3 2.992282 1_555
Ga11 Ir0 2.464938 1_555
Ga11 Tc0 2.508494 1_455
Ga11 Ga2 2.906365 1_555
Ga11 Ga3 3.097927 1_455
Ga11 Ga6 3.105493 1_554
Co0 Ga2 2.335694 1_555
Co0 Ga0 2.354710 1_555
Co0 Ga8 2.374173 1_555
Co0 Ga7 2.374173 1_554
Co0 Ga11 2.547883 1_565
Co0 Ga6 2.547883 1_564
Co0 Ga10 2.583735 1_455
Co0 Ga5 2.583735 1_454
Ir0 Tc1 2.909439 1_555
