# generated using pymatgen
data_K4GaFe3O8
_symmetry_space_group_name_H-M   'P 1'
_cell_length_a   5.59329704
_cell_length_b   5.63378207
_cell_length_c   8.08804961
_cell_angle_alpha   89.95919527
_cell_angle_beta   90.04885614
_cell_angle_gamma   90.13889618
_symmetry_Int_Tables_number   1
_chemical_formula_structural   K4GaFe3O8
_chemical_formula_sum   'K4 Ga1 Fe3 O8'
_cell_volume   254.86499463
_cell_formula_units_Z   1
loop_
 _symmetry_equiv_pos_site_id
 _symmetry_equiv_pos_as_xyz
  1  'x, y, z'
loop_
 _atom_site_type_symbol
 _atom_site_label
 _atom_site_symmetry_multiplicity
 _atom_site_fract_x
 _atom_site_fract_y
 _atom_site_fract_z
 _atom_site_occupancy
  K  K0  1  0.50061929  0.96881908  0.37647766  1
  K  K1  1  0.99848760  0.03101216  0.62329119  1
  K  K2  1  0.00030722  0.53289369  0.87702347  1
  K  K3  1  0.50226384  0.46830098  0.12380491  1
  Ga  Ga0  1  0.02242905  0.04652224  0.12530979  1
  Fe  Fe0  1  0.02251107  0.54646628  0.37230706  1
  Fe  Fe1  1  0.52290070  0.45494793  0.62516881  1
  Fe  Fe2  1  0.52220350  0.95482689  0.87722285  1
  O  O0  1  0.96311390  0.86278046  0.31011786  1
  O  O1  1  0.46644405  0.13442872  0.68455942  1
  O  O2  1  0.46506565  0.63448538  0.81658742  1
  O  O3  1  0.96437704  0.35918214  0.18575992  1
  O  O4  1  0.34883678  0.51785131  0.43121521  1
  O  O5  1  0.84911894  0.48670538  0.56737420  1
  O  O6  1  0.84543007  0.98408164  0.93710312  1
  O  O7  1  0.34189231  0.01669374  0.06667512  1
loop_
_geom_bond_atom_site_label_1
_geom_bond_atom_site_label_2
_geom_bond_distance
_geom_bond_site_symmetry_2
K0 O1 2.668521 1_565
K0 O7 2.671306 1_565
K0 O0 2.710566 1_555
K0 O4 2.712977 1_555
K0 O0 3.110073 1_455
K0 O4 3.240294 1_565
K1 O6 2.691941 1_545
K1 O0 2.712007 1_545
K1 O1 2.725198 1_655
K1 O5 2.738895 1_555
K1 O1 3.074442 1_555
K1 O5 3.208567 1_545
K2 O5 2.655444 1_455
K2 O3 2.688858 1_456
K2 O2 2.705298 1_555
K2 O6 2.731472 1_455
K2 O2 3.087808 1_455
K2 O6 3.245291 1_445
K3 O4 2.646147 1_555
K3 O2 2.662852 1_554
K3 O3 2.704614 1_555
K3 O7 2.735191 1_555
K3 O3 3.110244 1_455
K3 O7 3.251767 1_565
Ga0 O0 1.847388 1_445
Ga0 O6 1.848658 1_444
Ga0 O7 1.857149 1_555
Ga0 O3 1.857816 1_455
Fe0 O3 1.869560 1_455
Fe0 O0 1.881586 1_455
Fe0 O5 1.882386 1_455
Fe0 O4 1.893230 1_555
Fe1 O2 1.878651 1_555
Fe1 O4 1.879517 1_555
Fe1 O5 1.891973 1_555
Fe1 O1 1.894042 1_555
Fe2 O7 1.868600 1_566
Fe2 O6 1.878140 1_555
Fe2 O1 1.883547 1_565
Fe2 O2 1.896817 1_555
