# generated using pymatgen
data_Be15Nb6Co3Cu5
_symmetry_space_group_name_H-M   'P 1'
_cell_length_a   7.60826783
_cell_length_b   7.60826825
_cell_length_c   7.60997304
_cell_angle_alpha   59.90636484
_cell_angle_beta   59.90635946
_cell_angle_gamma   59.75982353
_symmetry_Int_Tables_number   1
_chemical_formula_structural   Be15Nb6Co3Cu5
_chemical_formula_sum   'Be15 Nb6 Co3 Cu5'
_cell_volume   310.47835320
_cell_formula_units_Z   1
loop_
 _symmetry_equiv_pos_site_id
 _symmetry_equiv_pos_as_xyz
  1  'x, y, z'
loop_
 _atom_site_type_symbol
 _atom_site_label
 _atom_site_symmetry_multiplicity
 _atom_site_fract_x
 _atom_site_fract_y
 _atom_site_fract_z
 _atom_site_occupancy
  Be  Be0  1  0.32491956  0.32491956  0.33199831  1
  Be  Be1  1  0.67304270  0.67304270  0.67268569  1
  Be  Be2  1  0.32416877  0.32416877  0.01977529  1
  Be  Be3  1  0.31955749  0.02665544  0.32705859  1
  Be  Be4  1  0.67684423  0.67684423  0.97534244  1
  Be  Be5  1  0.67732546  0.97627862  0.67699130  1
  Be  Be6  1  0.02665544  0.31955749  0.32705859  1
  Be  Be7  1  0.97627862  0.67732546  0.67699130  1
  Be  Be8  1  0.49918658  0.00194840  0.99865971  1
  Be  Be9  1  0.00114749  0.49574127  0.50166073  1
  Be  Be10  1  0.00194840  0.49918658  0.99865971  1
  Be  Be11  1  0.49574127  0.00114749  0.50166073  1
  Be  Be12  1  0.00158741  0.00158741  0.50127547  1
  Be  Be13  1  0.49859900  0.49859900  0.00162181  1
  Be  Be14  1  0.00137135  0.00137135  0.99548643  1
  Nb  Nb0  1  0.70761867  0.30171763  0.30016031  1
  Nb  Nb1  1  0.28767339  0.71224278  0.69609341  1
  Nb  Nb2  1  0.30171763  0.70761867  0.30016031  1
  Nb  Nb3  1  0.71224278  0.28767339  0.69609341  1
  Nb  Nb4  1  0.29491785  0.29491785  0.70510299  1
  Nb  Nb5  1  0.69960122  0.69960122  0.29137207  1
  Co  Co0  1  0.12184126  0.12184126  0.12169537  1
  Co  Co1  1  0.87740954  0.87740954  0.87959142  1
  Co  Co2  1  0.12238093  0.12238093  0.63452619  1
  Cu  Cu0  1  0.12287325  0.63249844  0.12285741  1
  Cu  Cu1  1  0.87747659  0.87747659  0.36622513  1
  Cu  Cu2  1  0.87577512  0.36760156  0.87817022  1
  Cu  Cu3  1  0.63249844  0.12287325  0.12285741  1
  Cu  Cu4  1  0.36760156  0.87577512  0.87817022  1
loop_
_geom_bond_atom_site_label_1
_geom_bond_atom_site_label_2
_geom_bond_distance
_geom_bond_site_symmetry_2
Be0 Be9 2.166274 1_555
Be0 Be11 2.166275 1_555
Be0 Be13 2.215564 1_555
Be0 Co2 2.307776 1_555
Be0 Be6 2.309331 1_555
Be0 Be3 2.309331 1_555
Be0 Cu3 2.338259 1_555
Be0 Cu0 2.338260 1_555
Be0 Be2 2.381751 1_555
Be0 Nb4 2.630309 1_555
Be0 Nb0 2.717618 1_555
Be0 Nb2 2.717618 1_555
Be1 Be9 2.203588 1_655
Be1 Be11 2.203589 1_565
Be1 Be13 2.213572 1_556
Be1 Cu4 2.321409 1_555
Be1 Cu2 2.321409 1_555
Be1 Cu1 2.332134 1_555
Be1 Be4 2.332574 1_555
Be1 Be7 2.340394 1_555
Be1 Be5 2.340394 1_555
Be1 Nb1 2.714035 1_555
Be1 Nb3 2.714036 1_555
Be1 Nb5 2.714247 1_555
Be2 Be8 2.168260 1_554
Be2 Be6 2.298418 1_555
Be2 Be3 2.298418 1_555
Be2 Co0 2.309332 1_555
Be2 Cu3 2.342177 1_555
Be2 Cu0 2.342177 1_555
Be2 Nb4 2.636693 1_554
Be2 Nb3 2.725603 1_554
Be2 Nb1 2.725603 1_554
Be3 Be6 2.220382 1_555
Be3 Be8 2.221683 1_554
Be3 Co2 2.311722 1_555
Be3 Co0 2.314077 1_555
Be3 Cu3 2.350323 1_555
Be3 Nb2 2.609630 1_545
Be3 Nb1 2.613872 1_545
Be3 Nb5 2.696149 1_545
Be4 Be8 2.192863 1_565
Be4 Be7 2.271118 1_555
Be4 Be5 2.271118 1_555
Be4 Co1 2.302899 1_555
Be4 Cu4 2.325682 1_555
Be4 Cu2 2.325682 1_555
Be4 Nb5 2.590217 1_556
Be4 Nb2 2.672654 1_556
Be4 Nb0 2.672654 1_556
Be5 Be8 2.180125 1_565
Be5 Be7 2.266254 1_555
Be5 Co1 2.301638 1_555
Be5 Cu1 2.344167 1_555
Be5 Cu4 2.346184 1_555
Be5 Nb3 2.592828 1_565
Be5 Nb4 2.679422 1_565
Be5 Nb0 2.683069 1_565
Be6 Be9 2.205780 1_555
Be6 Co2 2.311722 1_555
Be6 Co0 2.314077 1_555
Be6 Cu0 2.350323 1_555
Be6 Nb0 2.609630 1_455
Be6 Nb3 2.613872 1_455
Be6 Nb5 2.696149 1_455
Be7 Be9 2.248732 1_655
Be7 Co1 2.301638 1_555
Be7 Cu1 2.344167 1_555
Be7 Cu2 2.346184 1_555
Be7 Nb1 2.592828 1_655
Be7 Nb4 2.679422 1_655
Be7 Nb2 2.683069 1_655
Be8 Co0 2.339671 1_556
Be8 Co1 2.345064 1_545
Be8 Cu4 2.352831 1_545
Be8 Cu3 2.354098 1_556
Be8 Nb5 2.704271 1_546
Be8 Nb2 2.704730 1_546
Be8 Nb4 2.715356 1_555
Be8 Nb3 2.727973 1_555
Be9 Co2 2.314757 1_555
Be9 Cu2 2.337626 1_455
Be9 Cu0 2.352792 1_555
Be9 Cu1 2.366619 1_455
Be9 Nb4 2.717565 1_555
Be9 Nb3 2.724186 1_455
Be9 Nb5 2.799763 1_455
Be9 Nb2 2.810193 1_555
Be10 Be2 2.168260 1_556
Be10 Be7 2.180126 1_455
Be10 Be4 2.192863 1_455
Be10 Be6 2.221684 1_556
Be10 Co0 2.339672 1_556
Be10 Co1 2.345064 1_455
Be10 Cu2 2.352831 1_455
Be10 Cu0 2.354098 1_556
Be10 Nb5 2.704271 1_456
Be10 Nb0 2.704730 1_456
Be10 Nb4 2.715356 1_555
Be10 Nb1 2.727973 1_555
Be11 Be3 2.205780 1_555
Be11 Be5 2.248732 1_545
Be11 Co2 2.314757 1_555
Be11 Cu4 2.337626 1_545
Be11 Cu3 2.352792 1_555
Be11 Cu1 2.366619 1_545
Be11 Nb4 2.717565 1_555
Be11 Nb1 2.724186 1_545
Be11 Nb5 2.799762 1_545
Be11 Nb0 2.810193 1_555
Be12 Be3 2.154385 1_555
Be12 Be6 2.154385 1_555
Be12 Be5 2.196270 1_445
Be12 Be7 2.196270 1_445
Be12 Co2 2.331816 1_555
Be12 Co1 2.348916 1_445
Be12 Co0 2.358106 1_555
Be12 Cu1 2.384118 1_445
Be12 Nb3 2.630327 1_455
Be12 Nb1 2.630327 1_545
Be12 Nb2 2.709756 1_545
Be12 Nb0 2.709756 1_455
Be13 Be2 2.224370 1_555
Be13 Be4 2.242032 1_554
Be13 Cu0 2.329196 1_555
Be13 Cu3 2.329196 1_555
Be13 Cu2 2.337830 1_554
Be13 Cu4 2.337831 1_554
Be13 Nb2 2.783015 1_555
Be13 Nb0 2.783015 1_555
Be13 Nb3 2.819168 1_554
Be13 Nb1 2.819169 1_554
Be14 Co2 2.241029 1_555
Be14 Co1 2.262991 1_445
Be14 Cu4 2.270033 1_545
Be14 Cu2 2.270033 1_455
Be14 Co0 2.283516 1_556
Be14 Cu3 2.286442 1_456
Be14 Cu0 2.286442 1_546
Be14 Cu1 2.301726 1_446
Nb0 Nb5 2.964327 1_555
Nb0 Nb3 2.978376 1_555
Nb0 Nb2 3.076986 1_555
Nb0 Nb4 3.107811 1_555
Nb1 Nb2 2.978376 1_555
Nb1 Nb5 3.103378 1_555
Nb1 Nb4 3.114214 1_555
Nb1 Nb3 3.218504 1_555
Nb2 Nb5 2.964327 1_555
Nb2 Nb4 3.107811 1_555
Nb3 Nb5 3.103379 1_555
Nb3 Nb4 3.114214 1_555
Co0 Nb0 2.622374 1_455
Co0 Nb2 2.622375 1_545
Co0 Nb4 2.625300 1_554
Co0 Cu4 2.629431 1_544
Co0 Cu2 2.629431 1_454
Co0 Cu1 2.630339 1_445
Co1 Nb1 2.590362 1_655
Co1 Nb3 2.590362 1_565
Co1 Nb5 2.611672 1_556
Co1 Cu3 2.624807 1_566
Co1 Cu0 2.624807 1_656
Co2 Nb3 2.590414 1_455
Co2 Nb1 2.590414 1_545
Co2 Nb4 2.623857 1_555
Co2 Cu2 2.625533 1_455
Co2 Cu4 2.625533 1_545
Cu0 Cu1 2.622738 1_455
Cu0 Cu4 2.626443 1_554
Cu0 Nb5 2.671143 1_455
Cu0 Nb1 2.682204 1_554
Cu0 Nb2 2.719647 1_555
Cu1 Cu3 2.622738 1_565
Cu1 Nb2 2.676535 1_655
Cu1 Nb0 2.676536 1_565
Cu1 Nb5 2.716314 1_555
Cu2 Cu3 2.626443 1_556
Cu2 Nb4 2.636675 1_655
Cu2 Nb0 2.666886 1_556
Cu2 Nb3 2.678366 1_555
Cu3 Nb5 2.671143 1_545
Cu3 Nb3 2.682204 1_554
Cu3 Nb0 2.719647 1_555
Cu4 Nb4 2.636675 1_565
Cu4 Nb2 2.666886 1_556
Cu4 Nb1 2.678366 1_555
