# generated using pymatgen
data_Ba2NaGaAs3
_symmetry_space_group_name_H-M   'P 1'
_cell_length_a   8.63143720
_cell_length_b   8.63143680
_cell_length_c   12.44266837
_cell_angle_alpha   76.42623437
_cell_angle_beta   76.42623198
_cell_angle_gamma   67.10692885
_symmetry_Int_Tables_number   1
_chemical_formula_structural   Ba2NaGaAs3
_chemical_formula_sum   'Ba8 Na4 Ga4 As12'
_cell_volume   819.41742785
_cell_formula_units_Z   4
loop_
 _symmetry_equiv_pos_site_id
 _symmetry_equiv_pos_as_xyz
  1  'x, y, z'
loop_
 _atom_site_type_symbol
 _atom_site_label
 _atom_site_symmetry_multiplicity
 _atom_site_fract_x
 _atom_site_fract_y
 _atom_site_fract_z
 _atom_site_occupancy
  Ba  Ba0  1  0.74420765  0.19721820  0.68567150  1
  Ba  Ba1  1  0.25579235  0.80278180  0.31432850  1
  Ba  Ba2  1  0.19721820  0.74420765  0.68567150  1
  Ba  Ba3  1  0.50000000  0.00000000  0.50000000  1
  Ba  Ba4  1  0.80278180  0.25579235  0.31432850  1
  Ba  Ba5  1  0.00000000  0.50000000  0.00000000  1
  Ba  Ba6  1  0.50000000  0.00000000  0.00000000  1
  Ba  Ba7  1  0.00000000  0.50000000  0.50000000  1
  Na  Na0  1  0.28394501  0.71605499  1.00000000  1
  Na  Na1  1  0.35904881  0.35904881  0.21562747  1
  Na  Na2  1  0.64095119  0.64095119  0.78437253  1
  Na  Na3  1  0.71605499  0.28394501  0.00000000  1
  Ga  Ga0  1  0.69482219  0.69482219  0.26025041  1
  Ga  Ga1  1  0.09252679  0.09252679  0.88237643  1
  Ga  Ga2  1  0.90747321  0.90747321  0.11762357  1
  Ga  Ga3  1  0.30517781  0.30517781  0.73974959  1
  As  As0  1  0.01678374  0.61507045  0.22823858  1
  As  As1  1  0.58606397  0.58606397  0.13111084  1
  As  As2  1  0.98321626  0.38492955  0.77176142  1
  As  As3  1  0.08890197  0.08890197  0.48678610  1
  As  As4  1  0.58913294  0.58913294  0.48240303  1
  As  As5  1  0.91512328  0.91512328  0.90925061  1
  As  As6  1  0.08487672  0.08487672  0.09074939  1
  As  As7  1  0.41393603  0.41393603  0.86888916  1
  As  As8  1  0.61507045  0.01678374  0.22823858  1
  As  As9  1  0.91109803  0.91109803  0.51321390  1
  As  As10  1  0.38492955  0.98321626  0.77176142  1
  As  As11  1  0.41086706  0.41086706  0.51759697  1
loop_
_geom_bond_atom_site_label_1
_geom_bond_atom_site_label_2
_geom_bond_distance
_geom_bond_site_symmetry_2
Ba0 Ga3 3.468599 1_555
Ba1 Ga0 3.468599 1_555
Ba2 Ga3 3.468599 1_555
Ba4 Ga0 3.468599 1_555
Ga1 Na3 3.186940 1_456
Ga1 Na0 3.186940 1_545
Ga2 Na0 3.186940 1_654
Ga2 Na3 3.186940 1_565
As0 Ga2 2.506134 1_455
As0 Ga0 2.544814 1_455
As0 Na1 2.915724 1_555
As0 Ba5 3.271323 1_555
As0 Ba7 3.278282 1_555
As0 Na0 3.386782 1_554
As0 Ba1 3.532841 1_555
As1 Ga0 2.538916 1_555
As1 Na3 3.095441 1_555
As1 Na0 3.095441 1_554
As1 Na1 3.136508 1_555
As1 Ba1 3.409566 1_555
As1 Ba4 3.409566 1_555
As1 Ba6 3.427314 1_565
As1 Ba5 3.427314 1_655
As2 Ga1 2.506134 1_655
As2 Ga3 2.544814 1_655
As2 Na2 2.915724 1_555
As2 Ba5 3.271323 1_656
As2 Ba7 3.278282 1_655
As2 Na3 3.386782 1_556
As2 Ba0 3.532841 1_555
As3 As9 2.485455 1_445
As3 Ba1 3.323772 1_545
As3 Ba4 3.323772 1_455
As3 Ba7 3.361986 1_555
As3 Ba3 3.361987 1_555
As3 Ba0 3.363894 1_455
As3 Ba2 3.363894 1_545
As4 Ga0 2.754134 1_555
As4 Ba3 3.373315 1_565
As4 Ba7 3.373315 1_655
As4 Ba4 3.597026 1_555
As4 Ba1 3.597026 1_555
As4 Ba2 3.698914 1_555
As4 Ba0 3.698914 1_555
As5 Ga1 2.478874 1_665
As5 Ga2 2.563897 1_556
As5 Na3 3.298884 1_566
As5 Na0 3.298884 1_655
As5 Ba5 3.331253 1_656
As5 Ba6 3.331253 1_566
As5 Ba2 3.434571 1_655
As5 Ba0 3.434571 1_565
As6 Ga2 2.478874 1_445
As6 Ga1 2.563897 1_554
As6 Na0 3.298884 1_544
As6 Na3 3.298884 1_455
As6 Ba5 3.331253 1_555
As6 Ba6 3.331253 1_555
As6 Ba4 3.434571 1_455
As6 Ba1 3.434571 1_545
As7 Ga3 2.538916 1_555
As7 Na0 3.095441 1_555
As7 Na3 3.095441 1_556
As7 Na2 3.136508 1_555
As7 Ba0 3.409566 1_555
As7 Ba2 3.409566 1_555
As7 Ba6 3.427314 1_556
As7 Ba5 3.427314 1_556
As8 Ga2 2.506134 1_545
As8 Ga0 2.544814 1_545
As8 Na1 2.915724 1_555
As8 Ba6 3.271323 1_555
As8 Ba3 3.278282 1_555
As8 Na3 3.386782 1_555
As8 Ba4 3.532841 1_555
As9 Ba0 3.323772 1_565
As9 Ba2 3.323772 1_655
As9 Ba7 3.361986 1_655
As9 Ba3 3.361987 1_565
As9 Ba1 3.363894 1_655
As9 Ba4 3.363894 1_565
As10 Ga1 2.506134 1_565
As10 Ga3 2.544814 1_565
As10 Na2 2.915724 1_555
As10 Ba6 3.271323 1_566
As10 Ba3 3.278282 1_565
As10 Na0 3.386782 1_555
As10 Ba2 3.532841 1_555
As11 As4 2.477170 1_555
As11 Ga3 2.754134 1_555
As11 Ba3 3.373315 1_555
As11 Ba7 3.373315 1_555
As11 Ba2 3.597026 1_555
As11 Ba0 3.597026 1_555
As11 Ba4 3.698914 1_555
As11 Ba1 3.698914 1_555
