# generated using pymatgen
data_Rb2Pt(S4O13)2
_symmetry_space_group_name_H-M   'P 1'
_cell_length_a   7.56595895
_cell_length_b   8.53297332
_cell_length_c   9.21677684
_cell_angle_alpha   106.96452279
_cell_angle_beta   88.48022983
_cell_angle_gamma   108.05951250
_symmetry_Int_Tables_number   1
_chemical_formula_structural   Rb2Pt(S4O13)2
_chemical_formula_sum   'Rb2 Pt1 S8 O26'
_cell_volume   539.76591891
_cell_formula_units_Z   1
loop_
 _symmetry_equiv_pos_site_id
 _symmetry_equiv_pos_as_xyz
  1  'x, y, z'
loop_
 _atom_site_type_symbol
 _atom_site_label
 _atom_site_symmetry_multiplicity
 _atom_site_fract_x
 _atom_site_fract_y
 _atom_site_fract_z
 _atom_site_occupancy
  Rb  Rb0  1  0.13266603  0.26867597  0.88266200  1
  Rb  Rb1  1  0.86733397  0.73132403  0.11733800  1
  Pt  Pt0  1  0.50000000  0.50000000  0.50000000  1
  S  S0  1  0.67341218  0.36070579  0.71521945  1
  S  S1  1  0.32658782  0.63929421  0.28478055  1
  S  S2  1  0.87209770  0.18810791  0.48350323  1
  S  S3  1  0.12790230  0.81189209  0.51649677  1
  S  S4  1  0.37917156  0.14988314  0.22856253  1
  S  S5  1  0.62082844  0.85011686  0.77143747  1
  S  S6  1  0.78116065  0.22654077  0.19517304  1
  S  S7  1  0.21883935  0.77345923  0.80482696  1
  O  O0  1  0.69509618  0.18325847  0.57592328  1
  O  O1  1  0.30490382  0.81674153  0.42407672  1
  O  O2  1  0.70436702  0.48749908  0.62823702  1
  O  O3  1  0.29563298  0.51250092  0.37176298  1
  O  O4  1  0.82348775  0.41148127  0.82591074  1
  O  O5  1  0.17651225  0.58851873  0.17408926  1
  O  O6  1  0.84519024  0.30198978  0.37520079  1
  O  O7  1  0.15480976  0.69801022  0.62479921  1
  O  O8  1  0.03616432  0.29298501  0.57555188  1
  O  O9  1  0.96383568  0.70701499  0.42444812  1
  O  O10  1  0.48802781  0.29265151  0.75132780  1
  O  O11  1  0.51197219  0.70734849  0.24867220  1
  O  O12  1  0.84741292  0.01728700  0.39319526  1
  O  O13  1  0.15258708  0.98271300  0.60680474  1
  O  O14  1  0.41073953  0.24293971  0.39366339  1
  O  O15  1  0.58926047  0.75706029  0.60633661  1
  O  O16  1  0.58358970  0.09513759  0.19093936  1
  O  O17  1  0.41641030  0.90486241  0.80906064  1
  O  O18  1  0.77348803  0.37267543  0.15713902  1
  O  O19  1  0.22651197  0.62732457  0.84286098  1
  O  O20  1  0.89628465  0.12849917  0.12247660  1
  O  O21  1  0.10371535  0.87150083  0.87752340  1
  O  O22  1  0.37294487  0.24942250  0.13069504  1
  O  O23  1  0.62705513  0.75057750  0.86930496  1
  O  O24  1  0.25182750  0.98139998  0.20177626  1
  O  O25  1  0.74817250  0.01860002  0.79822374  1
loop_
_geom_bond_atom_site_label_1
_geom_bond_atom_site_label_2
_geom_bond_distance
_geom_bond_site_symmetry_2
O0 S2 1.564105 1_555
O0 S0 1.725197 1_555
O1 S3 1.564105 1_555
O1 S1 1.725197 1_555
O2 S0 1.485675 1_555
O2 Pt0 2.017908 1_555
O3 S1 1.485675 1_555
O3 Pt0 2.017908 1_555
O4 S0 1.419973 1_555
O4 Rb0 3.071586 1_655
O4 Rb1 3.159328 1_556
O5 S1 1.419973 1_555
O5 Rb1 3.071586 1_455
O5 Rb0 3.159328 1_554
O6 S6 1.621186 1_555
O6 S2 1.637570 1_555
O7 S7 1.621186 1_555
O7 S3 1.637570 1_555
O8 S2 1.409101 1_455
O8 Rb0 3.022312 1_555
O9 S3 1.409101 1_655
O9 Rb1 3.022312 1_555
O10 S0 1.413616 1_555
O10 Rb0 2.892543 1_555
O11 S1 1.413616 1_555
O11 Rb1 2.892543 1_555
O12 S2 1.408466 1_555
O12 Rb1 3.004753 1_545
O13 S3 1.408466 1_555
O13 Rb0 3.004753 1_565
O14 S4 1.483139 1_555
O14 Pt0 2.022414 1_555
O15 S5 1.483139 1_555
O15 Pt0 2.022414 1_555
O16 S6 1.559357 1_555
O16 S4 1.747991 1_555
O17 S7 1.559357 1_555
O17 S5 1.747991 1_555
O18 S6 1.407914 1_555
O18 Rb1 3.049338 1_555
O19 S7 1.407914 1_555
O19 Rb0 3.049338 1_555
O20 S6 1.414646 1_555
O20 Rb0 3.085707 1_654
O20 Rb1 3.314022 1_545
O21 S7 1.414646 1_555
O21 Rb1 3.085707 1_456
O21 Rb0 3.314022 1_565
O22 S4 1.418254 1_555
O22 Rb0 3.030311 1_554
O23 S5 1.418254 1_555
O23 Rb1 3.030311 1_556
O24 S4 1.415203 1_565
O24 Rb1 2.987306 1_455
O25 S5 1.415203 1_545
O25 Rb0 2.987306 1_655
