# generated using pymatgen
data_Mg2Fe2P6N13
_symmetry_space_group_name_H-M   'P 1'
_cell_length_a   7.00309621
_cell_length_b   6.95144515
_cell_length_c   7.00309681
_cell_angle_alpha   109.68823069
_cell_angle_beta   109.33955240
_cell_angle_gamma   109.68823284
_symmetry_Int_Tables_number   1
_chemical_formula_structural   Mg2Fe2P6N13
_chemical_formula_sum   'Mg2 Fe2 P6 N13'
_cell_volume   261.45576611
_cell_formula_units_Z   1
loop_
 _symmetry_equiv_pos_site_id
 _symmetry_equiv_pos_as_xyz
  1  'x, y, z'
loop_
 _atom_site_type_symbol
 _atom_site_label
 _atom_site_symmetry_multiplicity
 _atom_site_fract_x
 _atom_site_fract_y
 _atom_site_fract_z
 _atom_site_occupancy
  Mg  Mg0  1  0.70768808  0.00000000  0.00011148  1
  Mg  Mg1  1  0.00011148  0.00000000  0.70768808  1
  Fe  Fe0  1  0.29081240  0.28373895  0.29081240  1
  Fe  Fe1  1  0.00707344  0.71626105  0.00707344  1
  P  P0  1  0.49953038  0.25163768  0.74943610  1
  P  P1  1  0.49779842  0.74836232  0.24789370  1
  P  P2  1  0.74943610  0.25163768  0.49953038  1
  P  P3  1  0.24980620  0.50000000  0.74980620  1
  P  P4  1  0.74980620  0.50000000  0.24980620  1
  P  P5  1  0.24789370  0.74836232  0.49779842  1
  N  N0  1  0.00973576  1.00000000  0.00973576  1
  N  N1  1  0.00026701  0.73360750  0.45473953  1
  N  N2  1  0.26202037  0.71576999  0.26202037  1
  N  N3  1  0.27557664  0.54029563  0.54097003  1
  N  N4  1  0.54097003  0.54029563  0.27557664  1
  N  N5  1  0.54624938  0.28423001  0.54624938  1
  N  N6  1  0.72996983  0.00000000  0.45676812  1
  N  N7  1  0.45676812  0.00000000  0.72996983  1
  N  N8  1  0.73528001  0.45970437  0.00067440  1
  N  N9  1  0.26665951  0.26639250  0.72113103  1
  N  N10  1  0.72113103  0.26639250  0.26665951  1
  N  N11  1  0.00067440  0.45970437  0.73528001  1
  N  N12  1  0.45473953  0.73360750  0.00026701  1
loop_
_geom_bond_atom_site_label_1
_geom_bond_atom_site_label_2
_geom_bond_distance
_geom_bond_site_symmetry_2
Mg0 N12 2.087937 1_545
Mg0 N10 2.087941 1_555
Mg0 N0 2.093914 1_645
Mg0 N7 2.113055 1_554
Mg1 N1 2.087937 1_545
Mg1 N9 2.087941 1_555
Mg1 N0 2.093915 1_546
Mg1 N6 2.113055 1_455
Fe0 N0 1.959912 1_545
Fe0 N5 2.066954 1_555
Fe0 N4 2.099506 1_555
Fe0 N3 2.099507 1_555
Fe1 N0 1.959911 1_555
Fe1 N2 2.066962 1_555
Fe1 N8 2.099511 1_455
Fe1 N11 2.099511 1_554
N1 P4 1.617546 1_455
N1 P5 1.619166 1_555
N2 P1 1.630561 1_555
N2 P5 1.630561 1_555
N3 P5 1.632703 1_555
N3 P3 1.633012 1_555
N4 P1 1.632703 1_555
N4 P4 1.633012 1_555
N5 P2 1.630568 1_555
N5 P0 1.630568 1_555
N6 P1 1.620937 1_545
N6 P2 1.620938 1_555
N7 P5 1.620937 1_545
N7 P0 1.620938 1_555
N8 P0 1.632703 1_554
N8 P4 1.633009 1_555
N9 P3 1.617544 1_555
N9 P0 1.619158 1_555
N10 P4 1.617544 1_555
N10 P2 1.619158 1_555
N11 P2 1.632703 1_455
N11 P3 1.633009 1_555
N12 P3 1.617546 1_554
N12 P1 1.619167 1_555
