# generated using pymatgen
data_Nb2In(Ni10B3)2
_symmetry_space_group_name_H-M   'P 1'
_cell_length_a   7.45284763
_cell_length_b   7.45284763
_cell_length_c   7.45284726
_cell_angle_alpha   59.99999733
_cell_angle_beta   59.99999734
_cell_angle_gamma   59.99999822
_symmetry_Int_Tables_number   1
_chemical_formula_structural   Nb2In(Ni10B3)2
_chemical_formula_sum   'Nb2 In1 Ni20 B6'
_cell_volume   292.71952005
_cell_formula_units_Z   1
loop_
 _symmetry_equiv_pos_site_id
 _symmetry_equiv_pos_as_xyz
  1  'x, y, z'
loop_
 _atom_site_type_symbol
 _atom_site_label
 _atom_site_symmetry_multiplicity
 _atom_site_fract_x
 _atom_site_fract_y
 _atom_site_fract_z
 _atom_site_occupancy
  Nb  Nb0  1  0.75000000  0.75000000  0.75000000  1
  Nb  Nb1  1  0.00000000  0.00000000  0.00000000  1
  In  In0  1  0.25000000  0.25000000  0.25000000  1
  Ni  Ni0  1  0.38737878  0.38737878  0.38737878  1
  Ni  Ni1  1  0.61623975  0.61623975  0.61623975  1
  Ni  Ni2  1  0.38737878  0.38737878  0.83786465  1
  Ni  Ni3  1  0.38737878  0.83786465  0.38737878  1
  Ni  Ni4  1  0.61623975  0.61623975  0.15127975  1
  Ni  Ni5  1  0.61623975  0.15127975  0.61623975  1
  Ni  Ni6  1  0.83786465  0.38737878  0.38737878  1
  Ni  Ni7  1  0.15127975  0.61623975  0.61623975  1
  Ni  Ni8  1  0.34467891  0.99776315  0.99776315  1
  Ni  Ni9  1  0.65979480  0.99776315  0.99776315  1
  Ni  Ni10  1  0.99776315  0.34467891  0.65979480  1
  Ni  Ni11  1  0.99776315  0.65979480  0.34467891  1
  Ni  Ni12  1  0.99776315  0.34467891  0.99776315  1
  Ni  Ni13  1  0.65979480  0.99776315  0.34467891  1
  Ni  Ni14  1  0.99776315  0.65979480  0.99776315  1
  Ni  Ni15  1  0.34467891  0.99776315  0.65979480  1
  Ni  Ni16  1  0.99776315  0.99776315  0.34467891  1
  Ni  Ni17  1  0.99776315  0.99776315  0.65979480  1
  Ni  Ni18  1  0.65979480  0.34467891  0.99776315  1
  Ni  Ni19  1  0.34467891  0.65979480  0.99776315  1
  B  B0  1  0.73065778  0.26934222  0.26934222  1
  B  B1  1  0.26934222  0.73065778  0.73065778  1
  B  B2  1  0.26934222  0.73065778  0.26934222  1
  B  B3  1  0.73065778  0.26934222  0.73065778  1
  B  B4  1  0.26934222  0.26934222  0.73065778  1
  B  B5  1  0.73065778  0.73065778  0.26934222  1
loop_
_geom_bond_atom_site_label_1
_geom_bond_atom_site_label_2
_geom_bond_distance
_geom_bond_site_symmetry_2
Nb0 Ni4 2.441877 1_556
Nb0 Ni5 2.441877 1_565
Nb0 Ni7 2.441877 1_655
Nb0 Ni1 2.441884 1_555
Nb1 Ni11 2.552277 1_445
Nb1 Ni13 2.552277 1_445
Nb1 Ni10 2.552277 1_454
Nb1 Ni15 2.552277 1_544
Nb1 Ni16 2.552277 1_445
Nb1 Ni17 2.552277 1_444
Nb1 Ni18 2.552277 1_454
Nb1 Ni19 2.552277 1_544
Nb1 Ni12 2.552277 1_454
Nb1 Ni8 2.552277 1_544
Nb1 Ni14 2.552277 1_444
Nb1 Ni9 2.552277 1_444
In0 Ni2 2.507936 1_554
In0 Ni3 2.507936 1_545
In0 Ni6 2.507936 1_455
In0 Ni0 2.507942 1_555
In0 Ni15 2.906337 1_545
In0 Ni10 2.906337 1_455
In0 Ni17 2.906337 1_445
In0 Ni14 2.906337 1_454
In0 Ni9 2.906337 1_544
In0 Ni19 2.906337 1_554
In0 Ni18 2.906337 1_554
In0 Ni8 2.906337 1_544
In0 Ni12 2.906337 1_454
In0 Ni11 2.906337 1_455
In0 Ni13 2.906337 1_545
In0 Ni16 2.906337 1_445
B0 Ni12 2.080117 1_554
B0 Ni18 2.080117 1_554
B0 Ni16 2.080117 1_545
B0 Ni13 2.080117 1_545
B0 Ni0 2.089450 1_555
B0 Ni6 2.089456 1_555
B0 Ni5 2.111007 1_555
B0 Ni4 2.111008 1_555
B1 Ni14 2.080117 1_455
B1 Ni19 2.080117 1_555
B1 Ni17 2.080117 1_455
B1 Ni15 2.080117 1_555
B1 Ni3 2.089449 1_555
B1 Ni2 2.089449 1_555
B1 Ni1 2.111008 1_555
B1 Ni7 2.111014 1_555
B2 Ni8 2.080117 1_554
B2 Ni19 2.080117 1_554
B2 Ni16 2.080117 1_455
B2 Ni11 2.080117 1_455
B2 Ni0 2.089450 1_555
B2 Ni3 2.089456 1_555
B2 Ni7 2.111007 1_555
B2 Ni4 2.111008 1_555
B3 Ni9 2.080117 1_545
B3 Ni18 2.080117 1_555
B3 Ni17 2.080117 1_545
B3 Ni10 2.080117 1_555
B3 Ni6 2.089449 1_555
B3 Ni2 2.089449 1_555
B3 Ni1 2.111008 1_555
B3 Ni5 2.111014 1_555
B4 Ni8 2.080117 1_545
B4 Ni12 2.080117 1_455
B4 Ni15 2.080117 1_545
B4 Ni10 2.080117 1_455
B4 Ni0 2.089449 1_555
B4 Ni2 2.089456 1_555
B4 Ni7 2.111008 1_555
B4 Ni5 2.111008 1_555
B5 Ni9 2.080117 1_554
B5 Ni14 2.080117 1_554
B5 Ni13 2.080117 1_555
B5 Ni11 2.080117 1_555
B5 Ni6 2.089449 1_555
B5 Ni3 2.089449 1_555
B5 Ni1 2.111007 1_555
B5 Ni4 2.111014 1_555
