# generated using pymatgen
data_Ba2GaTe5As
_symmetry_space_group_name_H-M   'P 1'
_cell_length_a   9.56471491
_cell_length_b   9.92063148
_cell_length_c   13.77329598
_cell_angle_alpha   90.00000000
_cell_angle_beta   90.00000000
_cell_angle_gamma   90.00000000
_symmetry_Int_Tables_number   1
_chemical_formula_structural   Ba2GaTe5As
_chemical_formula_sum   'Ba8 Ga4 Te20 As4'
_cell_volume   1306.92067124
_cell_formula_units_Z   4
loop_
 _symmetry_equiv_pos_site_id
 _symmetry_equiv_pos_as_xyz
  1  'x, y, z'
loop_
 _atom_site_type_symbol
 _atom_site_label
 _atom_site_symmetry_multiplicity
 _atom_site_fract_x
 _atom_site_fract_y
 _atom_site_fract_z
 _atom_site_occupancy
  Ba  Ba0  1  0.99383041  0.13225506  0.67432190  1
  Ba  Ba1  1  0.50616959  0.36774494  0.17432190  1
  Ba  Ba2  1  0.49383041  0.86774494  0.32567810  1
  Ba  Ba3  1  0.00616959  0.63225506  0.82567810  1
  Ba  Ba4  1  0.00616959  0.86774494  0.32567810  1
  Ba  Ba5  1  0.49383041  0.63225506  0.82567810  1
  Ba  Ba6  1  0.50616959  0.13225506  0.67432190  1
  Ba  Ba7  1  0.99383041  0.36774494  0.17432190  1
  Ga  Ga0  1  0.25000000  0.83924540  0.59743696  1
  Ga  Ga1  1  0.25000000  0.66075460  0.09743696  1
  Ga  Ga2  1  0.75000000  0.16075460  0.40256304  1
  Ga  Ga3  1  0.75000000  0.33924540  0.90256304  1
  Te  Te0  1  0.04018336  0.67226214  0.55644557  1
  Te  Te1  1  0.45981664  0.82773786  0.05644557  1
  Te  Te2  1  0.54018336  0.32773786  0.44355443  1
  Te  Te3  1  0.95981664  0.17226214  0.94355443  1
  Te  Te4  1  0.95981664  0.32773786  0.44355443  1
  Te  Te5  1  0.54018336  0.17226214  0.94355443  1
  Te  Te6  1  0.45981664  0.67226214  0.55644557  1
  Te  Te7  1  0.04018336  0.82773786  0.05644557  1
  Te  Te8  1  0.75000000  0.94901194  0.51219068  1
  Te  Te9  1  0.75000000  0.55098806  0.01219068  1
  Te  Te10  1  0.25000000  0.05098806  0.48780932  1
  Te  Te11  1  0.25000000  0.44901194  0.98780932  1
  Te  Te12  1  0.25000000  0.90216168  0.78056636  1
  Te  Te13  1  0.25000000  0.59783832  0.28056636  1
  Te  Te14  1  0.75000000  0.09783832  0.21943364  1
  Te  Te15  1  0.75000000  0.40216168  0.71943364  1
  Te  Te16  1  0.25000000  0.39637580  0.71516036  1
  Te  Te17  1  0.25000000  0.10362420  0.21516036  1
  Te  Te18  1  0.75000000  0.60362420  0.28483964  1
  Te  Te19  1  0.75000000  0.89637580  0.78483964  1
  As  As0  1  0.25000000  0.49447924  0.53777741  1
  As  As1  1  0.25000000  0.00552076  0.03777741  1
  As  As2  1  0.75000000  0.50552076  0.46222259  1
  As  As3  1  0.75000000  0.99447924  0.96222259  1
loop_
_geom_bond_atom_site_label_1
_geom_bond_atom_site_label_2
_geom_bond_distance
_geom_bond_site_symmetry_2
Ba0 Te15 3.604837 1_555
Ba0 Te16 3.631183 1_655
Ba0 Te19 3.637584 1_545
Ba0 Te10 3.640416 1_655
Ba0 Te12 3.654500 1_645
Ba0 Te8 3.705452 1_545
Ba0 Te4 3.737537 1_555
Ba0 Te3 3.743562 1_555
Ba1 Te14 3.604837 1_555
Ba1 Te17 3.631183 1_555
Ba1 Te18 3.637584 1_555
Ba1 Te11 3.640416 1_554
Ba1 Te13 3.654500 1_555
Ba1 Te9 3.705452 1_555
Ba1 Te5 3.737537 1_554
Ba1 Te2 3.743562 1_555
Ba2 Te13 3.604837 1_555
Ba2 Te18 3.631183 1_555
Ba2 Te17 3.637584 1_565
Ba2 Te8 3.640416 1_555
Ba2 Te14 3.654500 1_565
Ba2 Te10 3.705452 1_565
Ba2 Te6 3.737537 1_555
Ba2 Te1 3.743562 1_555
Ba3 Te12 3.604837 1_555
Ba3 Te19 3.631183 1_455
Ba3 Te16 3.637584 1_555
Ba3 Te9 3.640416 1_456
Ba3 Te15 3.654500 1_455
Ba3 Te11 3.705452 1_555
Ba3 Te7 3.737537 1_556
Ba3 Te0 3.743562 1_555
Ba4 Te13 3.604837 1_555
Ba4 Te18 3.631183 1_455
Ba4 Te17 3.637584 1_565
Ba4 Te8 3.640416 1_455
Ba4 Te14 3.654500 1_465
Ba4 Te10 3.705452 1_565
Ba4 Te0 3.737537 1_555
Ba4 Te7 3.743562 1_555
Ba5 Te12 3.604837 1_555
Ba5 Te19 3.631183 1_555
Ba5 Te16 3.637584 1_555
Ba5 Te9 3.640416 1_556
Ba5 Te15 3.654500 1_555
Ba5 Te11 3.705452 1_555
Ba5 Te1 3.737537 1_556
Ba5 Te6 3.743562 1_555
Ba6 Te15 3.604837 1_555
Ba6 Te16 3.631183 1_555
Ba6 Te19 3.637584 1_545
Ba6 Te10 3.640416 1_555
Ba6 Te12 3.654500 1_545
Ba6 Te8 3.705452 1_545
Ba6 Te2 3.737537 1_555
Ba6 Te5 3.743562 1_555
Ba7 Te14 3.604837 1_555
Ba7 Te17 3.631183 1_655
Ba7 Te18 3.637584 1_555
Ba7 Te11 3.640416 1_654
Ba7 Te13 3.654500 1_655
Ba7 Te9 3.705452 1_555
Ba7 Te3 3.737537 1_554
Ba7 Te4 3.743562 1_555
Ga0 Te10 2.586988 1_565
Ga0 Te12 2.598377 1_555
Ga0 Te6 2.662782 1_555
Ga0 Te0 2.662782 1_555
Ga1 Te11 2.586988 1_554
Ga1 Te13 2.598377 1_555
Ga1 Te1 2.662782 1_555
Ga1 Te7 2.662782 1_555
Ga2 Te8 2.586988 1_545
Ga2 Te14 2.598377 1_555
Ga2 Te4 2.662782 1_555
Ga2 Te2 2.662782 1_555
Ga3 Te9 2.586988 1_556
Ga3 Te15 2.598377 1_555
Ga3 Te3 2.662782 1_555
Ga3 Te5 2.662782 1_555
As0 Te16 2.629864 1_555
As0 Te6 2.684065 1_555
As0 Te0 2.684065 1_555
As1 Te17 2.629864 1_555
As1 Te1 2.684065 1_545
As1 Te7 2.684065 1_545
As2 Te18 2.629864 1_555
As2 Te4 2.684065 1_555
As2 Te2 2.684065 1_555
As3 Te19 2.629864 1_555
As3 Te3 2.684065 1_565
As3 Te5 2.684065 1_565
