# generated using pymatgen
data_Sr6HfMn2O12
_symmetry_space_group_name_H-M   'P 1'
_cell_length_a   8.67085099
_cell_length_b   8.67085175
_cell_length_c   6.87594102
_cell_angle_alpha   67.81109038
_cell_angle_beta   67.81108619
_cell_angle_gamma   36.82270494
_symmetry_Int_Tables_number   1
_chemical_formula_structural   Sr6HfMn2O12
_chemical_formula_sum   'Sr6 Hf1 Mn2 O12'
_cell_volume   284.23268628
_cell_formula_units_Z   1
loop_
 _symmetry_equiv_pos_site_id
 _symmetry_equiv_pos_as_xyz
  1  'x, y, z'
loop_
 _atom_site_type_symbol
 _atom_site_label
 _atom_site_symmetry_multiplicity
 _atom_site_fract_x
 _atom_site_fract_y
 _atom_site_fract_z
 _atom_site_occupancy
  Sr  Sr0  1  0.87654300  0.87654300  0.71448051  1
  Sr  Sr1  1  0.21892761  0.21892761  0.71023430  1
  Sr  Sr2  1  0.54952362  0.54952362  0.70288425  1
  Sr  Sr3  1  0.45047638  0.45047638  0.29711575  1
  Sr  Sr4  1  0.78107239  0.78107239  0.28976570  1
  Sr  Sr5  1  0.12345700  0.12345700  0.28551949  1
  Hf  Hf0  1  0.00000000  0.00000000  0.00000000  1
  Mn  Mn0  1  0.66806888  0.66806888  0.99993718  1
  Mn  Mn1  1  0.33193112  0.33193112  0.00006282  1
  O  O0  1  0.94359282  0.94359282  0.32800078  1
  O  O1  1  0.28150717  0.28150717  0.30953433  1
  O  O2  1  0.61668046  0.61668046  0.30944794  1
  O  O3  1  0.38331954  0.38331954  0.69055206  1
  O  O4  1  0.71849283  0.71849283  0.69046567  1
  O  O5  1  0.05640718  0.05640718  0.67199922  1
  O  O6  1  0.50000000  0.00000000  0.00000000  1
  O  O7  1  0.82619093  0.34834760  0.00099962  1
  O  O8  1  0.17380907  0.65165240  0.99900038  1
  O  O9  1  0.00000000  0.50000000  0.00000000  1
  O  O10  1  0.34834760  0.82619093  0.00099962  1
  O  O11  1  0.65165240  0.17380907  0.99900038  1
loop_
_geom_bond_atom_site_label_1
_geom_bond_atom_site_label_2
_geom_bond_distance
_geom_bond_site_symmetry_2
Hf0 O10 2.028449 1_545
Hf0 O11 2.028449 1_454
Hf0 O7 2.028450 1_455
Hf0 O8 2.028450 1_544
Hf0 O0 2.069181 1_445
Hf0 O5 2.069181 1_554
Mn0 O10 1.863411 1_556
Mn0 O7 1.863411 1_556
Mn0 O9 1.921661 1_656
Mn0 O6 1.921661 1_566
Mn0 O4 1.952155 1_555
Mn0 O2 1.952327 1_556
Mn1 O11 1.863411 1_554
Mn1 O8 1.863411 1_554
Mn1 O9 1.921661 1_555
Mn1 O6 1.921661 1_555
Mn1 O1 1.952155 1_555
Mn1 O3 1.952327 1_554
O0 Sr0 2.438254 1_555
O0 Sr3 2.745647 1_655
O0 Sr3 2.745647 1_565
O0 Sr4 2.789209 1_555
O0 Sr5 2.855826 1_665
O1 Sr1 2.528415 1_555
O1 Sr5 2.670589 1_555
O1 Sr4 2.742098 1_545
O1 Sr4 2.742098 1_455
O1 Sr3 2.747355 1_555
O2 Sr2 2.481871 1_555
O2 Sr4 2.653949 1_555
O2 Sr5 2.743118 1_655
O2 Sr5 2.743118 1_565
O2 Sr3 2.769573 1_555
O3 Sr3 2.481871 1_555
O3 Sr1 2.653949 1_555
O3 Sr0 2.743118 1_455
O3 Sr0 2.743118 1_545
O3 Sr2 2.769573 1_555
O4 Sr4 2.528415 1_555
O4 Sr0 2.670589 1_555
O4 Sr1 2.742098 1_565
O4 Sr1 2.742098 1_655
O4 Sr2 2.747355 1_555
O5 Sr5 2.438254 1_555
O5 Sr2 2.745647 1_455
O5 Sr2 2.745647 1_545
O5 Sr1 2.789209 1_555
O5 Sr0 2.855826 1_445
O6 Sr0 2.609672 1_544
O6 Sr5 2.609672 1_555
O6 Sr4 2.630013 1_545
O6 Sr1 2.630013 1_554
O7 Sr5 2.674685 1_655
O7 Sr3 2.697391 1_555
O7 Sr1 2.699445 1_654
O7 Sr2 2.704335 1_554
O8 Sr0 2.674685 1_455
O8 Sr2 2.697391 1_555
O8 Sr4 2.699445 1_456
O8 Sr3 2.704335 1_556
O9 Sr0 2.609672 1_454
O9 Sr5 2.609672 1_555
O9 Sr4 2.630013 1_455
O9 Sr1 2.630013 1_554
O10 Sr5 2.674685 1_565
O10 Sr3 2.697392 1_555
O10 Sr1 2.699446 1_564
O10 Sr2 2.704335 1_554
O11 Sr0 2.674685 1_545
O11 Sr2 2.697392 1_555
O11 Sr4 2.699446 1_546
O11 Sr3 2.704335 1_556
