# generated using pymatgen
data_TaNbPdPt5
_symmetry_space_group_name_H-M   'P 1'
_cell_length_a   5.57929488
_cell_length_b   4.88556299
_cell_length_c   9.32649521
_cell_angle_alpha   79.59286577
_cell_angle_beta   90.00000000
_cell_angle_gamma   90.00000000
_symmetry_Int_Tables_number   1
_chemical_formula_structural   TaNbPdPt5
_chemical_formula_sum   'Ta2 Nb2 Pd2 Pt10'
_cell_volume   250.03937176
_cell_formula_units_Z   2
loop_
 _symmetry_equiv_pos_site_id
 _symmetry_equiv_pos_as_xyz
  1  'x, y, z'
loop_
 _atom_site_type_symbol
 _atom_site_label
 _atom_site_symmetry_multiplicity
 _atom_site_fract_x
 _atom_site_fract_y
 _atom_site_fract_z
 _atom_site_occupancy
  Ta  Ta0  1  0.75000000  0.37647329  0.37766578  1
  Ta  Ta1  1  0.25000000  0.62352671  0.62233422  1
  Nb  Nb0  1  0.75000000  0.21564290  0.87316175  1
  Nb  Nb1  1  0.25000000  0.78435710  0.12683825  1
  Pd  Pd0  1  0.75000000  0.79022443  0.12785117  1
  Pd  Pd1  1  0.25000000  0.20977557  0.87214883  1
  Pt  Pt0  1  0.75000000  0.61081285  0.62396793  1
  Pt  Pt1  1  0.25000000  0.38918715  0.37603207  1
  Pt  Pt2  1  0.99806032  0.87753813  0.37438091  1
  Pt  Pt3  1  0.49806032  0.12246187  0.62561909  1
  Pt  Pt4  1  0.00193968  0.12246187  0.62561909  1
  Pt  Pt5  1  0.50193968  0.87753813  0.37438091  1
  Pt  Pt6  1  0.99814243  0.29039676  0.12323556  1
  Pt  Pt7  1  0.49814243  0.70960324  0.87676444  1
  Pt  Pt8  1  0.00185757  0.70960324  0.87676444  1
  Pt  Pt9  1  0.50185757  0.29039676  0.12323556  1
loop_
_geom_bond_atom_site_label_1
_geom_bond_atom_site_label_2
_geom_bond_distance
_geom_bond_site_symmetry_2
Nb0 Pt0 2.740021 1_555
Nb0 Pd1 2.789828 1_655
Nb0 Pd1 2.789828 1_555
Nb0 Pt6 2.792406 1_556
Nb0 Pt9 2.792406 1_556
Nb0 Pt8 2.798012 1_655
Nb0 Pt7 2.798012 1_555
Nb0 Pt4 2.809434 1_655
Nb0 Pt3 2.809434 1_555
Nb0 Pt8 2.838641 1_645
Nb0 Pt7 2.838641 1_545
Nb0 Pd0 2.859803 1_546
Nb1 Pt1 2.740021 1_555
Nb1 Pd0 2.789828 1_555
Nb1 Pd0 2.789828 1_455
Nb1 Pt7 2.792406 1_554
Nb1 Pt8 2.792406 1_554
Nb1 Pt9 2.798012 1_555
Nb1 Pt6 2.798012 1_455
Nb1 Pt5 2.809434 1_555
Nb1 Pt2 2.809434 1_455
Nb1 Pt9 2.838641 1_565
Nb1 Pt6 2.838641 1_465
Nb1 Pd1 2.859803 1_564
Pd0 Pt2 2.781792 1_555
Pd0 Pt5 2.781792 1_555
Pd0 Ta0 2.795170 1_555
Pd0 Pt6 2.802119 1_565
Pd0 Pt9 2.802119 1_565
Pd0 Pt6 2.814183 1_555
Pd0 Pt9 2.814183 1_555
Pd0 Pt8 2.819001 1_654
Pd0 Pt7 2.819001 1_554
Pd1 Pt3 2.781792 1_555
Pd1 Pt4 2.781792 1_555
Pd1 Ta1 2.795170 1_555
Pd1 Pt7 2.802119 1_545
Pd1 Pt8 2.802119 1_545
Pd1 Pt7 2.814183 1_555
Pd1 Pt8 2.814183 1_555
Pd1 Pt9 2.819001 1_556
Pd1 Pt6 2.819001 1_456
Pt0 Ta0 2.745495 1_555
Pt0 Pt4 2.766799 1_655
Pt0 Pt3 2.766799 1_555
Pt0 Ta1 2.790319 1_555
Pt0 Ta1 2.790319 1_655
Pt0 Pt2 2.817121 1_555
Pt0 Pt5 2.817121 1_555
Pt0 Pt8 2.859614 1_655
Pt0 Pt7 2.859614 1_555
Pt0 Pt4 2.870270 1_665
Pt0 Pt3 2.870270 1_565
Pt1 Ta1 2.745495 1_555
Pt1 Pt5 2.766799 1_555
Pt1 Pt2 2.766799 1_455
Pt1 Ta0 2.790319 1_455
Pt1 Ta0 2.790319 1_555
Pt1 Pt3 2.817121 1_555
Pt1 Pt4 2.817121 1_555
Pt1 Pt9 2.859614 1_555
Pt1 Pt6 2.859614 1_455
Pt1 Pt5 2.870270 1_545
Pt1 Pt2 2.870270 1_445
Pt2 Pt5 2.768003 1_555
Pt2 Ta1 2.797658 1_655
Pt2 Pt6 2.801424 1_565
Pt2 Ta0 2.807477 1_555
Pt2 Ta0 2.808055 1_565
Pt2 Pt5 2.811291 1_655
Pt2 Pt4 2.817041 1_665
Pt3 Pt4 2.768003 1_555
Pt3 Ta0 2.797658 1_555
Pt3 Pt7 2.801424 1_545
Pt3 Ta1 2.807477 1_555
Pt3 Ta1 2.808055 1_545
Pt3 Pt4 2.811291 1_655
Pt3 Pt5 2.817041 1_545
Pt4 Ta0 2.797658 1_455
Pt4 Pt8 2.801424 1_545
Pt4 Ta1 2.807477 1_555
Pt4 Ta1 2.808055 1_545
Pt5 Ta1 2.797658 1_555
Pt5 Pt9 2.801424 1_565
Pt5 Ta0 2.807477 1_555
Pt5 Ta0 2.808055 1_565
Pt6 Pt9 2.768920 1_555
Pt6 Pt8 2.788937 1_654
Pt6 Pt9 2.810375 1_655
Pt6 Ta0 2.843406 1_555
Pt7 Pt8 2.768920 1_555
Pt7 Pt9 2.788937 1_556
Pt7 Pt8 2.810375 1_655
Pt7 Ta1 2.843406 1_555
Pt8 Ta1 2.843406 1_555
Pt9 Ta0 2.843406 1_555
