# generated using pymatgen
data_Cs2Li2ZrTe4
_symmetry_space_group_name_H-M   'P 1'
_cell_length_a   8.32607424
_cell_length_b   8.32607350
_cell_length_c   6.77014699
_cell_angle_alpha   90.00000000
_cell_angle_beta   90.00000000
_cell_angle_gamma   131.92347764
_symmetry_Int_Tables_number   1
_chemical_formula_structural   Cs2Li2ZrTe4
_chemical_formula_sum   'Cs2 Li2 Zr1 Te4'
_cell_volume   349.19951820
_cell_formula_units_Z   1
loop_
 _symmetry_equiv_pos_site_id
 _symmetry_equiv_pos_as_xyz
  1  'x, y, z'
loop_
 _atom_site_type_symbol
 _atom_site_label
 _atom_site_symmetry_multiplicity
 _atom_site_fract_x
 _atom_site_fract_y
 _atom_site_fract_z
 _atom_site_occupancy
  Cs  Cs0  1  0.50000000  0.00000000  0.25918829  1
  Cs  Cs1  1  0.00000000  0.50000000  0.74081171  1
  Li  Li0  1  0.00000000  0.00000000  0.50000000  1
  Li  Li1  1  0.50000000  0.50000000  0.00000000  1
  Zr  Zr0  1  0.00000000  0.00000000  0.00000000  1
  Te  Te0  1  0.86345028  0.66214016  0.23680247  1
  Te  Te1  1  0.13654972  0.33785984  0.23680247  1
  Te  Te2  1  0.66214016  0.86345028  0.76319753  1
  Te  Te3  1  0.33785984  0.13654972  0.76319753  1
loop_
_geom_bond_atom_site_label_1
_geom_bond_atom_site_label_2
_geom_bond_distance
_geom_bond_site_symmetry_2
Cs0 Te1 4.012880 1_655
Cs0 Te0 4.012880 1_445
Cs0 Te2 4.054840 1_544
Cs0 Te3 4.054840 1_554
Cs0 Te2 4.099909 1_545
Cs0 Te3 4.099909 1_555
Cs0 Te0 4.157002 1_555
Cs0 Te1 4.157002 1_545
Cs1 Te3 4.012880 1_565
Cs1 Te2 4.012880 1_445
Cs1 Te0 4.054840 1_456
Cs1 Te1 4.054840 1_556
Cs1 Te1 4.099909 1_555
Cs1 Te0 4.099909 1_455
Cs1 Te2 4.157003 1_555
Cs1 Te3 4.157003 1_455
Li0 Te1 2.847322 1_555
Li0 Te0 2.847322 1_445
Li0 Te3 2.847322 1_555
Li0 Te2 2.847322 1_445
Li1 Te2 2.844480 1_554
Li1 Te3 2.844480 1_554
Li1 Te0 2.844480 1_555
Li1 Te1 2.844480 1_555
Te0 Zr0 2.739039 1_665
Te1 Zr0 2.739039 1_555
Te2 Zr0 2.739039 1_666
Te3 Zr0 2.739039 1_556
