# generated using pymatgen
data_CaYMnRh3
_symmetry_space_group_name_H-M   'P 1'
_cell_length_a   5.16285634
_cell_length_b   5.16285707
_cell_length_c   5.16285581
_cell_angle_alpha   64.47736914
_cell_angle_beta   64.47738310
_cell_angle_gamma   64.47736717
_symmetry_Int_Tables_number   1
_chemical_formula_structural   CaYMnRh3
_chemical_formula_sum   'Ca1 Y1 Mn1 Rh3'
_cell_volume   106.86671356
_cell_formula_units_Z   1
loop_
 _symmetry_equiv_pos_site_id
 _symmetry_equiv_pos_as_xyz
  1  'x, y, z'
loop_
 _atom_site_type_symbol
 _atom_site_label
 _atom_site_symmetry_multiplicity
 _atom_site_fract_x
 _atom_site_fract_y
 _atom_site_fract_z
 _atom_site_occupancy
  Ca  Ca0  1  0.62692913  0.62692913  0.62692913  1
  Y  Y0  1  0.37238830  0.37238830  0.37238830  1
  Mn  Mn0  1  0.00037036  0.00037036  0.00037036  1
  Rh  Rh0  1  0.99965815  0.99965815  0.50099590  1
  Rh  Rh1  1  0.50099590  0.99965815  0.99965815  1
  Rh  Rh2  1  0.99965815  0.50099590  0.99965815  1
loop_
_geom_bond_atom_site_label_1
_geom_bond_atom_site_label_2
_geom_bond_distance
_geom_bond_site_symmetry_2
Ca0 Rh2 2.977197 1_555
Ca0 Rh1 2.977197 1_555
Ca0 Rh0 2.977198 1_555
Ca0 Y0 3.105754 1_555
Ca0 Rh1 3.159071 1_554
Ca0 Rh0 3.159072 1_455
Ca0 Rh2 3.159072 1_554
Ca0 Rh0 3.159072 1_545
Ca0 Rh2 3.159072 1_455
Ca0 Rh1 3.159072 1_545
Ca0 Mn0 3.217608 1_656
Ca0 Mn0 3.217608 1_566
Ca0 Mn0 3.217608 1_665
Ca0 Y0 3.322313 1_556
Ca0 Y0 3.322313 1_565
Ca0 Y0 3.322313 1_655
Mn0 Rh0 2.581373 1_444
Mn0 Rh1 2.581373 1_444
Mn0 Rh2 2.581373 1_444
Mn0 Rh0 2.581494 1_445
Mn0 Rh1 2.581495 1_544
Mn0 Rh2 2.581495 1_454
Mn0 Y0 3.215012 1_545
Mn0 Y0 3.215013 1_455
Mn0 Y0 3.215013 1_554
Rh0 Rh2 2.746744 1_555
Rh0 Rh1 2.746744 1_555
Rh0 Rh2 2.761481 1_564
Rh0 Rh1 2.761482 1_654
Rh0 Y0 2.972561 1_665
Rh0 Y0 3.164409 1_565
Rh0 Y0 3.164410 1_655
Rh1 Rh2 2.746744 1_555
Rh1 Rh2 2.761481 1_465
Rh1 Y0 2.972560 1_566
Rh1 Y0 3.164409 1_565
Rh1 Y0 3.164410 1_556
Rh2 Y0 2.972560 1_656
Rh2 Y0 3.164410 1_655
Rh2 Y0 3.164410 1_556
