# generated using pymatgen
data_RbNbTc2Te3
_symmetry_space_group_name_H-M   'P 1'
_cell_length_a   10.04153177
_cell_length_b   9.97679106
_cell_length_c   4.62962448
_cell_angle_alpha   90.00000000
_cell_angle_beta   90.00000000
_cell_angle_gamma   120.15226688
_symmetry_Int_Tables_number   1
_chemical_formula_structural   RbNbTc2Te3
_chemical_formula_sum   'Rb2 Nb2 Tc4 Te6'
_cell_volume   401.05029307
_cell_formula_units_Z   2
loop_
 _symmetry_equiv_pos_site_id
 _symmetry_equiv_pos_as_xyz
  1  'x, y, z'
loop_
 _atom_site_type_symbol
 _atom_site_label
 _atom_site_symmetry_multiplicity
 _atom_site_fract_x
 _atom_site_fract_y
 _atom_site_fract_z
 _atom_site_occupancy
  Rb  Rb0  1  0.33643627  0.66407671  0.25000000  1
  Rb  Rb1  1  0.66697805  0.33156120  0.75000000  1
  Nb  Nb0  1  0.97455905  0.14334676  0.75000000  1
  Nb  Nb1  1  0.85728647  0.83079019  0.75000000  1
  Tc  Tc0  1  0.83277578  0.97380862  0.25000000  1
  Tc  Tc1  1  0.13994263  0.16546137  0.25000000  1
  Tc  Tc2  1  0.02700333  0.86189045  0.25000000  1
  Tc  Tc3  1  0.16173557  0.02586595  0.75000000  1
  Te  Te0  1  0.33567861  0.05365280  0.25000000  1
  Te  Te1  1  0.94901978  0.29649908  0.25000000  1
  Te  Te2  1  0.70978294  0.65009107  0.25000000  1
  Te  Te3  1  0.64374717  0.94529006  0.75000000  1
  Te  Te4  1  0.30147235  0.34504084  0.75000000  1
  Te  Te5  1  0.06358500  0.71262290  0.75000000  1
loop_
_geom_bond_atom_site_label_1
_geom_bond_atom_site_label_2
_geom_bond_distance
_geom_bond_site_symmetry_2
Rb0 Te3 3.748977 1_554
Rb0 Te3 3.748977 1_555
Rb0 Te1 3.775001 1_455
Rb0 Te5 3.799051 1_554
Rb0 Te5 3.799051 1_555
Rb0 Te4 3.806596 1_554
Rb0 Te4 3.806596 1_555
Rb0 Te2 3.820965 1_555
Rb0 Te0 3.890546 1_565
Rb1 Te4 3.739597 1_555
Rb1 Te3 3.742014 1_545
Rb1 Te2 3.777560 1_555
Rb1 Te2 3.777560 1_556
Rb1 Te1 3.807485 1_556
Rb1 Te1 3.807485 1_555
Rb1 Te0 3.853161 1_555
Rb1 Te0 3.853161 1_556
Rb1 Te5 3.886355 1_655
Nb0 Tc3 2.668248 1_655
Nb0 Nb1 2.724261 1_545
Nb0 Tc1 2.792290 1_655
Nb0 Tc1 2.792290 1_656
Nb0 Tc0 2.797696 1_545
Nb0 Tc0 2.797696 1_546
Nb0 Te1 2.855253 1_556
Nb0 Te1 2.855253 1_555
Nb0 Te4 2.861700 1_655
Nb0 Te3 2.888791 1_545
Nb1 Tc3 2.675188 1_665
Nb1 Tc0 2.794222 1_556
Nb1 Tc0 2.794222 1_555
Nb1 Tc2 2.797815 1_656
Nb1 Tc2 2.797815 1_655
Nb1 Te2 2.849519 1_555
Nb1 Te2 2.849519 1_556
Nb1 Te5 2.852132 1_655
Nb1 Te3 2.891980 1_555
Tc0 Tc2 2.690415 1_655
Tc0 Tc1 2.691642 1_665
Tc0 Te2 2.819386 1_555
Tc0 Te1 2.819919 1_565
Tc0 Te3 2.915422 1_554
Tc0 Te3 2.915422 1_555
Tc1 Tc2 2.647337 1_545
Tc1 Te0 2.703708 1_555
Tc1 Tc3 2.766238 1_555
Tc1 Tc3 2.766238 1_554
Tc1 Te1 2.811142 1_455
Tc1 Te4 2.877462 1_555
Tc1 Te4 2.877462 1_554
Tc2 Te0 2.703754 1_565
Tc2 Tc3 2.764342 1_565
Tc2 Tc3 2.764342 1_564
Tc2 Te2 2.801754 1_455
Tc2 Te5 2.874126 1_554
Tc2 Te5 2.874126 1_555
Tc3 Te4 2.760469 1_555
Tc3 Te5 2.764730 1_545
Tc3 Te0 2.828351 1_556
Tc3 Te0 2.828351 1_555
