# generated using pymatgen
data_Mn2Hg(P2O7)2
_symmetry_space_group_name_H-M   'P 1'
_cell_length_a   4.87239506
_cell_length_b   6.86409340
_cell_length_c   8.00428037
_cell_angle_alpha   90.51464765
_cell_angle_beta   96.34176081
_cell_angle_gamma   106.11252309
_symmetry_Int_Tables_number   1
_chemical_formula_structural   Mn2Hg(P2O7)2
_chemical_formula_sum   'Mn2 Hg1 P4 O14'
_cell_volume   255.38999250
_cell_formula_units_Z   1
loop_
 _symmetry_equiv_pos_site_id
 _symmetry_equiv_pos_as_xyz
  1  'x, y, z'
loop_
 _atom_site_type_symbol
 _atom_site_label
 _atom_site_symmetry_multiplicity
 _atom_site_fract_x
 _atom_site_fract_y
 _atom_site_fract_z
 _atom_site_occupancy
  Mn  Mn0  1  0.50000000  0.50000000  0.50000000  1
  Mn  Mn1  1  0.00000000  0.00000000  0.00000000  1
  Hg  Hg0  1  0.00000000  0.00000000  0.50000000  1
  P  P0  1  0.03100988  0.63574868  0.25364321  1
  P  P1  1  0.96899012  0.36425132  0.74635679  1
  P  P2  1  0.60901479  0.23698966  0.20642045  1
  P  P3  1  0.39098521  0.76301034  0.79357955  1
  O  O0  1  0.78520422  0.45974368  0.15582588  1
  O  O1  1  0.21479578  0.54025632  0.84417412  1
  O  O2  1  0.52695631  0.25967244  0.38490340  1
  O  O3  1  0.47304369  0.74032756  0.61509660  1
  O  O4  1  0.28182814  0.55332825  0.30610715  1
  O  O5  1  0.71817186  0.44667175  0.69389285  1
  O  O6  1  0.89623493  0.69487339  0.40626076  1
  O  O7  1  0.19726379  0.90072631  0.78812091  1
  O  O8  1  0.80273621  0.09927369  0.21187909  1
  O  O9  1  0.88293545  0.19156584  0.85990316  1
  O  O10  1  0.11706455  0.80843416  0.14009684  1
  O  O11  1  0.64294174  0.81017961  0.92891452  1
  O  O12  1  0.35705826  0.18982039  0.07108548  1
  O  O13  1  0.10376507  0.30512661  0.59373924  1
loop_
_geom_bond_atom_site_label_1
_geom_bond_atom_site_label_2
_geom_bond_distance
_geom_bond_site_symmetry_2
Mn0 O5 1.879985 1_555
Mn0 O4 1.879985 1_555
Mn0 O3 1.925345 1_555
Mn0 O2 1.925345 1_555
Mn0 O6 2.232521 1_555
Mn0 O13 2.232521 1_555
Mn1 O12 1.886239 1_555
Mn1 O11 1.886239 1_444
Mn1 O10 1.900876 1_545
Mn1 O9 1.900876 1_454
Mn1 O8 2.228728 1_455
Mn1 O7 2.228728 1_544
Hg0 O13 2.122591 1_555
Hg0 O6 2.122591 1_445
Hg0 O7 2.570754 1_545
Hg0 O8 2.570754 1_455
O0 P0 1.574706 1_655
O0 P2 1.611890 1_555
O1 P1 1.574706 1_455
O1 P3 1.611890 1_555
O2 P2 1.543314 1_555
O3 P3 1.543314 1_555
O4 P0 1.504842 1_555
O5 P1 1.504842 1_555
O6 P0 1.550630 1_655
O7 P3 1.507744 1_555
O8 P2 1.507744 1_555
O9 P1 1.494829 1_555
O10 P0 1.494829 1_555
O11 P3 1.504877 1_555
O12 P2 1.504877 1_555
O13 P1 1.550630 1_455
