# generated using pymatgen
data_CsFeSn3O8
_symmetry_space_group_name_H-M   'P 1'
_cell_length_a   7.58394109
_cell_length_b   7.58394094
_cell_length_c   10.54533520
_cell_angle_alpha   46.61690933
_cell_angle_beta   46.61691083
_cell_angle_gamma   24.38911649
_symmetry_Int_Tables_number   1
_chemical_formula_structural   CsFeSn3O8
_chemical_formula_sum   'Cs1 Fe1 Sn3 O8'
_cell_volume   178.18740011
_cell_formula_units_Z   1
loop_
 _symmetry_equiv_pos_site_id
 _symmetry_equiv_pos_as_xyz
  1  'x, y, z'
loop_
 _atom_site_type_symbol
 _atom_site_label
 _atom_site_symmetry_multiplicity
 _atom_site_fract_x
 _atom_site_fract_y
 _atom_site_fract_z
 _atom_site_occupancy
  Cs  Cs0  1  0.49723041  0.49723041  0.99882822  1
  Fe  Fe0  1  0.34915721  0.34915721  0.81378469  1
  Sn  Sn0  1  0.65736027  0.65736027  0.17180920  1
  Sn  Sn1  1  0.15845130  0.15845130  0.49370616  1
  Sn  Sn2  1  0.83775913  0.83775913  0.51786003  1
  O  O0  1  0.15390211  0.15390211  0.04973853  1
  O  O1  1  0.84647296  0.84647296  0.94472472  1
  O  O2  1  0.20568424  0.20568424  0.64112061  1
  O  O3  1  0.79228972  0.79228972  0.36655643  1
  O  O4  1  0.53803952  0.53803952  0.62803047  1
  O  O5  1  0.46131915  0.46131915  0.37279943  1
  O  O6  1  0.16560499  0.16560499  0.29305785  1
  O  O7  1  0.83672997  0.83672997  0.70798264  1
loop_
_geom_bond_atom_site_label_1
_geom_bond_atom_site_label_2
_geom_bond_distance
_geom_bond_site_symmetry_2
Cs0 O1 3.111209 1_545
Cs0 O1 3.111209 1_455
Cs0 O2 3.156259 1_565
Cs0 O2 3.156259 1_655
Cs0 O0 3.162650 1_566
Cs0 O0 3.162651 1_656
Cs0 O3 3.205622 1_546
Cs0 O3 3.205622 1_456
Fe0 O4 1.992314 1_555
Fe0 O7 2.033222 1_455
Fe0 O7 2.033222 1_545
Fe0 O1 2.096972 1_545
Fe0 O1 2.096972 1_455
Fe0 O0 2.108951 1_556
O0 Sn0 2.078166 1_545
O0 Sn0 2.078167 1_455
O1 Sn0 2.039378 1_556
O2 Sn1 2.106392 1_555
O2 Sn2 2.124345 1_455
O2 Sn2 2.124345 1_545
O3 Sn2 2.124119 1_555
O3 Sn1 2.135902 1_655
O3 Sn1 2.135902 1_565
O4 Sn1 2.050769 1_565
O4 Sn1 2.050770 1_655
O5 Sn0 2.069239 1_555
O5 Sn2 2.079334 1_545
O5 Sn2 2.079334 1_455
O6 Sn1 2.042768 1_555
O6 Sn0 2.106121 1_455
O6 Sn0 2.106121 1_545
O7 Sn2 1.994214 1_555
