# generated using pymatgen
data_P6Pd20Pb3
_symmetry_space_group_name_H-M   'P 1'
_cell_length_a   8.65252615
_cell_length_b   8.65252628
_cell_length_c   8.65252699
_cell_angle_alpha   60.00000100
_cell_angle_beta   60.00000051
_cell_angle_gamma   60.00000083
_symmetry_Int_Tables_number   1
_chemical_formula_structural   P6Pd20Pb3
_chemical_formula_sum   'P6 Pd20 Pb3'
_cell_volume   458.05098388
_cell_formula_units_Z   1
loop_
 _symmetry_equiv_pos_site_id
 _symmetry_equiv_pos_as_xyz
  1  'x, y, z'
loop_
 _atom_site_type_symbol
 _atom_site_label
 _atom_site_symmetry_multiplicity
 _atom_site_fract_x
 _atom_site_fract_y
 _atom_site_fract_z
 _atom_site_occupancy
  P  P0  1  0.73493501  0.26506499  0.26506499  1
  P  P1  1  0.26506499  0.73493501  0.73493501  1
  P  P2  1  0.26506499  0.73493501  0.26506499  1
  P  P3  1  0.73493501  0.26506499  0.73493501  1
  P  P4  1  0.26506499  0.26506499  0.73493501  1
  P  P5  1  0.73493501  0.73493501  0.26506499  1
  Pd  Pd0  1  0.38482948  0.38482948  0.38482948  1
  Pd  Pd1  1  0.61517052  0.61517052  0.61517052  1
  Pd  Pd2  1  0.38482948  0.38482948  0.84551155  1
  Pd  Pd3  1  0.38482948  0.84551155  0.38482948  1
  Pd  Pd4  1  0.61517052  0.61517052  0.15448845  1
  Pd  Pd5  1  0.61517052  0.15448845  0.61517052  1
  Pd  Pd6  1  0.84551155  0.38482948  0.38482948  1
  Pd  Pd7  1  0.15448845  0.61517052  0.61517052  1
  Pd  Pd8  1  0.34654014  0.00000000  1.00000000  1
  Pd  Pd9  1  0.65345986  0.00000000  0.00000000  1
  Pd  Pd10  1  0.00000000  0.34654014  0.65345986  1
  Pd  Pd11  1  0.00000000  0.65345986  0.34654014  1
  Pd  Pd12  1  0.00000000  0.34654014  1.00000000  1
  Pd  Pd13  1  0.65345986  0.00000000  0.34654014  1
  Pd  Pd14  1  1.00000000  0.65345986  0.00000000  1
  Pd  Pd15  1  0.34654014  0.00000000  0.65345986  1
  Pd  Pd16  1  0.00000000  0.00000000  0.34654014  1
  Pd  Pd17  1  1.00000000  1.00000000  0.65345986  1
  Pd  Pd18  1  0.65345986  0.34654014  0.00000000  1
  Pd  Pd19  1  0.34654014  0.65345986  0.00000000  1
  Pb  Pb0  1  0.25000000  0.25000000  0.25000000  1
  Pb  Pb1  1  0.75000000  0.75000000  0.75000000  1
  Pb  Pb2  1  0.00000000  0.00000000  0.00000000  1
loop_
_geom_bond_atom_site_label_1
_geom_bond_atom_site_label_2
_geom_bond_distance
_geom_bond_site_symmetry_2
P0 Pd13 2.399382 1_555
P0 Pd16 2.399382 1_655
P0 Pd12 2.399382 1_654
P0 Pd18 2.399382 1_555
P0 Pd0 2.473837 1_555
P0 Pd4 2.473837 1_555
P0 Pd6 2.473837 1_555
P0 Pd5 2.473837 1_555
P1 Pd15 2.399382 1_565
P1 Pd17 2.399382 1_455
P1 Pd14 2.399382 1_456
P1 Pd19 2.399382 1_556
P1 Pd1 2.473837 1_555
P1 Pd2 2.473837 1_555
P1 Pd7 2.473837 1_555
P1 Pd3 2.473837 1_555
P2 Pd11 2.399382 1_555
P2 Pd16 2.399382 1_565
P2 Pd8 2.399382 1_564
P2 Pd19 2.399382 1_555
P2 Pd4 2.473837 1_555
P2 Pd0 2.473837 1_555
P2 Pd3 2.473837 1_555
P2 Pd7 2.473837 1_555
P3 Pd10 2.399382 1_655
P3 Pd17 2.399382 1_545
P3 Pd9 2.399382 1_556
P3 Pd18 2.399382 1_556
P3 Pd2 2.473837 1_555
P3 Pd1 2.473837 1_555
P3 Pd5 2.473837 1_555
P3 Pd6 2.473837 1_555
P4 Pd10 2.399382 1_555
P4 Pd15 2.399382 1_555
P4 Pd12 2.399382 1_555
P4 Pd8 2.399382 1_555
P4 Pd5 2.473837 1_555
P4 Pd7 2.473837 1_555
P4 Pd2 2.473837 1_555
P4 Pd0 2.473837 1_555
P5 Pd11 2.399382 1_655
P5 Pd13 2.399382 1_565
P5 Pd14 2.399382 1_555
P5 Pd9 2.399382 1_565
P5 Pd3 2.473837 1_555
P5 Pd6 2.473837 1_555
P5 Pd4 2.473837 1_555
P5 Pd1 2.473837 1_555
Pd0 Pd11 3.032021 1_555
Pd0 Pd10 3.032021 1_555
Pd0 Pd13 3.032021 1_555
Pd0 Pd15 3.032021 1_555
Pd0 Pd18 3.032021 1_555
Pd0 Pd19 3.032021 1_555
Pd1 Pd10 3.032021 1_655
Pd1 Pd11 3.032021 1_655
Pd1 Pd15 3.032021 1_565
Pd1 Pd13 3.032021 1_565
Pd1 Pd19 3.032021 1_556
Pd1 Pd18 3.032021 1_556
Pd2 Pd8 3.032021 1_555
Pd2 Pd9 3.032021 1_556
Pd3 Pd9 3.032021 1_565
Pd3 Pd8 3.032021 1_564
Pd4 Pd9 3.032021 1_565
Pd4 Pd8 3.032021 1_564
Pd5 Pd8 3.032021 1_555
Pd5 Pd9 3.032021 1_556
Pd8 Pd9 2.655631 1_556
Pd10 Pd11 2.655631 1_555
Pd10 Pd17 2.998448 1_445
Pd10 Pd15 2.998448 1_555
Pd10 Pd18 2.998448 1_456
Pd10 Pd12 2.998448 1_555
Pd10 Pd7 3.032021 1_555
Pd10 Pd6 3.032021 1_455
Pd11 Pd16 2.998448 1_565
Pd11 Pd13 2.998448 1_465
Pd11 Pd19 2.998448 1_555
Pd11 Pd14 2.998448 1_455
Pd11 Pd6 3.032021 1_455
Pd11 Pd7 3.032021 1_555
Pd12 Pd14 2.655631 1_456
Pd12 Pd18 2.998448 1_456
Pd12 Pd8 2.998448 1_555
Pd12 Pd16 2.998448 1_556
Pd12 Pd2 3.032021 1_555
Pd12 Pd4 3.032021 1_456
Pd12 Pd7 3.032021 1_555
Pd12 Pd6 3.032021 1_456
Pd13 Pd15 2.655631 1_555
Pd13 Pd16 2.998448 1_655
Pd13 Pd18 2.998448 1_555
Pd13 Pd9 2.998448 1_555
Pd13 Pd3 3.032021 1_545
Pd13 Pd5 3.032021 1_555
Pd14 Pd19 2.998448 1_655
Pd14 Pd9 2.998448 1_565
Pd14 Pd17 2.998448 1_554
Pd14 Pd4 3.032021 1_555
Pd14 Pd2 3.032021 1_654
Pd14 Pd6 3.032021 1_555
Pd14 Pd7 3.032021 1_654
Pd15 Pd17 2.998448 1_445
Pd15 Pd19 2.998448 1_546
Pd15 Pd8 2.998448 1_555
Pd15 Pd5 3.032021 1_555
Pd15 Pd3 3.032021 1_545
Pd16 Pd17 2.655631 1_445
Pd16 Pd8 2.998448 1_554
Pd16 Pd3 3.032021 1_545
Pd16 Pd6 3.032021 1_455
Pd16 Pd5 3.032021 1_455
Pd16 Pd7 3.032021 1_545
Pd17 Pd9 2.998448 1_566
Pd17 Pd5 3.032021 1_565
Pd17 Pd7 3.032021 1_655
Pd17 Pd3 3.032021 1_655
Pd17 Pd6 3.032021 1_565
Pd18 Pd19 2.655631 1_555
Pd18 Pd9 2.998448 1_555
Pd18 Pd2 3.032021 1_554
Pd18 Pd4 3.032021 1_555
Pd19 Pd8 2.998448 1_564
Pd19 Pd4 3.032021 1_555
Pd19 Pd2 3.032021 1_554
Pb0 Pd6 2.857613 1_455
Pb0 Pd3 2.857613 1_545
Pb0 Pd0 2.857613 1_555
Pb0 Pd2 2.857613 1_554
Pb0 Pd16 3.334872 1_555
Pb0 Pd18 3.334872 1_555
Pb0 Pd13 3.334872 1_555
Pb0 Pd19 3.334872 1_555
Pb0 Pd11 3.334872 1_555
Pb0 Pd9 3.334872 1_555
Pb0 Pd14 3.334872 1_455
Pb0 Pd12 3.334872 1_554
Pb0 Pd17 3.334872 1_445
Pb0 Pd8 3.334872 1_554
Pb0 Pd10 3.334872 1_555
Pb0 Pd15 3.334872 1_555
Pb1 Pd7 2.857613 1_655
Pb1 Pd5 2.857613 1_565
Pb1 Pd1 2.857613 1_555
Pb1 Pd4 2.857613 1_556
Pb1 Pd17 3.334872 1_555
Pb1 Pd19 3.334872 1_556
Pb1 Pd15 3.334872 1_565
Pb1 Pd18 3.334872 1_556
Pb1 Pd10 3.334872 1_655
Pb1 Pd8 3.334872 1_565
Pb1 Pd12 3.334872 1_655
Pb1 Pd14 3.334872 1_556
Pb1 Pd16 3.334872 1_665
Pb1 Pd9 3.334872 1_566
Pb1 Pd11 3.334872 1_655
Pb1 Pd13 3.334872 1_565
Pb2 Pd8 2.998448 1_554
Pb2 Pd9 2.998448 1_455
Pb2 Pd12 2.998448 1_554
Pb2 Pd14 2.998448 1_445
Pb2 Pd19 2.998448 1_545
Pb2 Pd18 2.998448 1_455
Pb2 Pd15 2.998448 1_554
Pb2 Pd13 2.998448 1_455
Pb2 Pd10 2.998448 1_554
Pb2 Pd11 2.998448 1_545
Pb2 Pd16 2.998448 1_555
Pb2 Pd17 2.998448 1_444
