# generated using pymatgen
data_ZrTa5(CrB7)2
_symmetry_space_group_name_H-M   'P 1'
_cell_length_a   7.36120586
_cell_length_b   7.36120538
_cell_length_c   8.91249375
_cell_angle_alpha   90.00005964
_cell_angle_beta   89.99993937
_cell_angle_gamma   155.03688679
_symmetry_Int_Tables_number   1
_chemical_formula_structural   ZrTa5(CrB7)2
_chemical_formula_sum   'Zr1 Ta5 Cr2 B14'
_cell_volume   203.81929409
_cell_formula_units_Z   1
loop_
 _symmetry_equiv_pos_site_id
 _symmetry_equiv_pos_as_xyz
  1  'x, y, z'
loop_
 _atom_site_type_symbol
 _atom_site_label
 _atom_site_symmetry_multiplicity
 _atom_site_fract_x
 _atom_site_fract_y
 _atom_site_fract_z
 _atom_site_occupancy
  Zr  Zr0  1  0.75024558  0.24975442  0.25000000  1
  Ta  Ta0  1  0.24873100  0.75126900  0.75000000  1
  Ta  Ta1  1  0.89269284  0.10730716  0.55384619  1
  Ta  Ta2  1  0.10623597  0.89376403  0.44970472  1
  Ta  Ta3  1  0.10623697  0.89376303  0.05029528  1
  Ta  Ta4  1  0.89269184  0.10730816  0.94615281  1
  Cr  Cr0  1  0.95386365  0.04613635  0.25000100  1
  Cr  Cr1  1  0.04729851  0.95270149  0.75000100  1
  B  B0  1  0.56635404  0.43364596  0.25000000  1
  B  B1  1  0.43257235  0.56742765  0.75000000  1
  B  B2  1  0.51444494  0.48555506  0.90718642  1
  B  B3  1  0.48536389  0.51463611  0.09274745  1
  B  B4  1  0.48536389  0.51463611  0.40725255  1
  B  B5  1  0.51444494  0.48555506  0.59281358  1
  B  B6  1  0.63289809  0.36710191  0.84785189  1
  B  B7  1  0.36792630  0.63207370  0.15032980  1
  B  B8  1  0.72783547  0.27216453  0.96321767  1
  B  B9  1  0.27307046  0.72692954  0.03038397  1
  B  B10  1  0.27307046  0.72692954  0.46961603  1
  B  B11  1  0.72783547  0.27216453  0.53678233  1
  B  B12  1  0.63289709  0.36710291  0.65214811  1
  B  B13  1  0.36792630  0.63207370  0.34967020  1
loop_
_geom_bond_atom_site_label_1
_geom_bond_atom_site_label_2
_geom_bond_distance
_geom_bond_site_symmetry_2
B0 B4 1.821969 1_555
B0 B3 1.821971 1_555
B0 Cr0 2.268425 1_565
B0 Cr0 2.268425 1_455
B0 Ta2 2.455133 1_545
B0 Ta2 2.455133 1_655
B0 Ta3 2.455136 1_545
B0 Ta3 2.455136 1_655
B0 Zr0 2.643341 1_555
B1 B5 1.829649 1_555
B1 B2 1.829650 1_555
B1 Cr1 2.291444 1_545
B1 Cr1 2.291444 1_655
B1 Ta4 2.432276 1_565
B1 Ta4 2.432276 1_455
B1 Ta1 2.432280 1_565
B1 Ta1 2.432280 1_455
B1 Ta0 2.642619 1_555
B2 B3 1.705824 1_556
B2 B6 1.782928 1_555
B2 Cr1 2.171792 1_545
B2 Cr1 2.171792 1_655
B2 Ta4 2.390539 1_565
B2 Ta4 2.390540 1_455
B2 Ta3 2.428759 1_546
B2 Ta3 2.428759 1_656
B3 B7 1.764387 1_555
B3 Cr0 2.168038 1_565
B3 Cr0 2.168038 1_455
B3 Ta3 2.386022 1_545
B3 Ta3 2.386023 1_655
B3 Ta4 2.452065 1_564
B3 Ta4 2.452066 1_454
B4 B5 1.705825 1_555
B4 Cr0 2.168027 1_565
B4 Cr0 2.168027 1_455
B4 Ta2 2.386013 1_545
B4 Ta2 2.386013 1_655
B4 Ta1 2.452051 1_565
B4 Ta1 2.452052 1_455
B5 Cr1 2.171804 1_545
B5 Cr1 2.171804 1_655
B5 Ta1 2.390530 1_565
B5 Ta1 2.390531 1_455
B5 Ta2 2.428749 1_545
B5 Ta2 2.428750 1_655
B6 B8 1.708662 1_555
B6 Cr1 2.192180 1_655
B6 Cr1 2.192180 1_545
B6 Ta3 2.435853 1_546
B6 Ta3 2.435853 1_656
B6 Ta0 2.462520 1_545
B6 Ta0 2.462520 1_655
B7 B9 1.732609 1_555
B7 Cr0 2.201405 1_455
B7 Cr0 2.201405 1_565
B7 Ta4 2.443201 1_564
B7 Ta4 2.443201 1_454
B7 Zr0 2.486300 1_565
B7 Zr0 2.486300 1_455
B8 B9 1.819957 1_546
B8 B9 1.819957 1_656
B8 Ta4 2.374596 1_555
B8 Ta3 2.487688 1_656
B8 Ta3 2.487688 1_546
B8 Ta0 2.496490 1_655
B8 Ta0 2.496490 1_545
B8 Zr0 2.576166 1_556
B9 Ta3 2.404697 1_555
B9 Ta4 2.459942 1_454
B9 Ta4 2.459942 1_564
B9 Ta0 2.523294 1_554
B9 Zr0 2.543594 1_455
B9 Zr0 2.543594 1_565
B10 B13 1.732607 1_555
B10 B11 1.819956 1_565
B10 B11 1.819956 1_455
B10 Ta2 2.404712 1_555
B10 Ta1 2.459950 1_455
B10 Ta1 2.459951 1_565
B10 Ta0 2.523293 1_555
B10 Zr0 2.543595 1_565
B10 Zr0 2.543595 1_455
B11 B12 1.708671 1_555
B11 Ta1 2.374610 1_555
B11 Ta2 2.487699 1_655
B11 Ta2 2.487700 1_545
B11 Ta0 2.496490 1_545
B11 Ta0 2.496490 1_655
B11 Zr0 2.576165 1_555
B12 B6 1.744209 1_555
B12 B5 1.782916 1_555
B12 Cr1 2.192178 1_655
B12 Cr1 2.192178 1_545
B12 Ta2 2.435854 1_655
B12 Ta2 2.435854 1_545
B12 Ta0 2.462531 1_545
B12 Ta0 2.462531 1_655
B13 B4 1.764388 1_555
B13 B7 1.776620 1_555
B13 Cr0 2.201397 1_455
B13 Cr0 2.201397 1_565
B13 Ta1 2.443197 1_455
B13 Ta1 2.443197 1_565
B13 Zr0 2.486301 1_565
B13 Zr0 2.486302 1_455
