# generated using pymatgen
data_Mg3P6IN12
_symmetry_space_group_name_H-M   'P 1'
_cell_length_a   7.26863744
_cell_length_b   7.26863674
_cell_length_c   7.26863751
_cell_angle_alpha   109.64217843
_cell_angle_beta   109.64217660
_cell_angle_gamma   109.64215597
_symmetry_Int_Tables_number   1
_chemical_formula_structural   Mg3P6IN12
_chemical_formula_sum   'Mg3 P6 I1 N12'
_cell_volume   293.73627112
_cell_formula_units_Z   1
loop_
 _symmetry_equiv_pos_site_id
 _symmetry_equiv_pos_as_xyz
  1  'x, y, z'
loop_
 _atom_site_type_symbol
 _atom_site_label
 _atom_site_symmetry_multiplicity
 _atom_site_fract_x
 _atom_site_fract_y
 _atom_site_fract_z
 _atom_site_occupancy
  Mg  Mg0  1  0.00747037  0.37965846  0.00747037  1
  Mg  Mg1  1  0.00747037  0.00747037  0.37965846  1
  Mg  Mg2  1  0.37965846  0.00747037  0.00747037  1
  P  P0  1  0.50144235  0.25455396  0.74913609  1
  P  P1  1  0.25455396  0.74913609  0.50144235  1
  P  P2  1  0.74913609  0.50144235  0.25455396  1
  P  P3  1  0.74913609  0.25455396  0.50144235  1
  P  P4  1  0.50144235  0.74913609  0.25455396  1
  P  P5  1  0.25455396  0.50144235  0.74913609  1
  I  I0  1  0.96397189  0.96397189  0.96397189  1
  N  N0  1  0.42279387  0.70767539  0.42279387  1
  N  N1  1  0.70767539  0.42279387  0.42279387  1
  N  N2  1  0.42279387  0.42279387  0.70767539  1
  N  N3  1  0.72374809  0.29017741  0.72374809  1
  N  N4  1  0.99904685  0.56710321  0.28396313  1
  N  N5  1  0.28396313  0.56710321  0.99904685  1
  N  N6  1  0.28396313  0.99904685  0.56710321  1
  N  N7  1  0.99904685  0.28396313  0.56710321  1
  N  N8  1  0.72374809  0.72374809  0.29017741  1
  N  N9  1  0.56710321  0.99904685  0.28396313  1
  N  N10  1  0.29017741  0.72374809  0.72374809  1
  N  N11  1  0.56710321  0.28396313  0.99904685  1
loop_
_geom_bond_atom_site_label_1
_geom_bond_atom_site_label_2
_geom_bond_distance
_geom_bond_site_symmetry_2
Mg0 N4 2.048662 1_455
Mg0 N5 2.048663 1_554
Mg0 N3 2.065488 1_454
Mg1 N7 2.048662 1_455
Mg1 N6 2.048662 1_545
Mg1 N8 2.065489 1_445
Mg2 N9 2.048662 1_545
Mg2 N11 2.048663 1_554
Mg2 N10 2.065488 1_544
I0 Mg0 2.824454 1_666
I0 Mg1 2.824454 1_666
I0 Mg2 2.824454 1_666
N0 P1 1.585864 1_555
N0 P4 1.585864 1_555
N1 P3 1.585864 1_555
N1 P2 1.585864 1_555
N2 P0 1.585864 1_555
N2 P5 1.585864 1_555
N3 P3 1.631995 1_555
N3 P0 1.631995 1_555
N4 P2 1.631165 1_555
N4 P1 1.633037 1_655
N5 P5 1.631165 1_555
N5 P4 1.633036 1_556
N6 P1 1.631165 1_555
N6 P0 1.633037 1_565
N7 P3 1.631165 1_555
N7 P5 1.633037 1_655
N8 P2 1.631995 1_555
N8 P4 1.631995 1_555
N9 P4 1.631165 1_555
N9 P3 1.633036 1_565
N10 P5 1.631995 1_555
N10 P1 1.631995 1_555
N11 P0 1.631165 1_555
N11 P2 1.633036 1_556
