# generated using pymatgen
data_Sr10TiReN10
_symmetry_space_group_name_H-M   'P 1'
_cell_length_a   7.29845262
_cell_length_b   7.29845153
_cell_length_c   9.37381347
_cell_angle_alpha   81.81974229
_cell_angle_beta   81.81974537
_cell_angle_gamma   59.61182699
_symmetry_Int_Tables_number   1
_chemical_formula_structural   Sr10TiReN10
_chemical_formula_sum   'Sr10 Ti1 Re1 N10'
_cell_volume   424.89095245
_cell_formula_units_Z   1
loop_
 _symmetry_equiv_pos_site_id
 _symmetry_equiv_pos_as_xyz
  1  'x, y, z'
loop_
 _atom_site_type_symbol
 _atom_site_label
 _atom_site_symmetry_multiplicity
 _atom_site_fract_x
 _atom_site_fract_y
 _atom_site_fract_z
 _atom_site_occupancy
  Sr  Sr0  1  0.88555118  0.35655872  0.83952187  1
  Sr  Sr1  1  0.87894627  0.87894627  0.81822285  1
  Sr  Sr2  1  0.74016000  0.74016000  0.53654428  1
  Sr  Sr3  1  0.73912677  0.25402717  0.51292238  1
  Sr  Sr4  1  0.62549580  0.12869110  0.13668283  1
  Sr  Sr5  1  0.35655872  0.88555118  0.83952187  1
  Sr  Sr6  1  0.25402717  0.73912677  0.51292238  1
  Sr  Sr7  1  0.23978793  0.23978793  0.50192754  1
  Sr  Sr8  1  0.13623174  0.13623174  0.16521286  1
  Sr  Sr9  1  0.12869110  0.62549580  0.13668283  1
  Ti  Ti0  1  0.36679575  0.36679575  0.77410401  1
  Re  Re0  1  0.63699712  0.63699712  0.22831999  1
  N  N0  1  0.88952483  0.48213163  0.31841876  1
  N  N1  1  0.99665066  0.99665066  0.01608776  1
  N  N2  1  0.69470972  0.69470972  0.03757087  1
  N  N3  1  0.52556441  0.52556441  0.70747044  1
  N  N4  1  0.48213163  0.88952483  0.31841876  1
  N  N5  1  0.52970799  0.09679310  0.67670595  1
  N  N6  1  0.48935471  0.48935471  0.26909195  1
  N  N7  1  0.30679268  0.30679268  0.97874361  1
  N  N8  1  0.06268770  0.06268770  0.64400725  1
  N  N9  1  0.09679310  0.52970799  0.67670595  1
loop_
_geom_bond_atom_site_label_1
_geom_bond_atom_site_label_2
_geom_bond_distance
_geom_bond_site_symmetry_2
N0 Re0 1.857807 1_555
N0 Sr2 2.701851 1_555
N0 Sr8 2.715662 1_655
N0 Sr9 2.745577 1_655
N0 Sr3 2.777803 1_555
N0 Sr7 2.904059 1_655
N1 Sr8 2.426953 1_665
N1 Sr9 2.518333 1_655
N1 Sr4 2.518334 1_565
N1 Sr1 2.563111 1_554
N1 Sr0 2.699367 1_564
N1 Sr5 2.699368 1_654
N2 Re0 1.817359 1_555
N2 Sr1 2.845954 1_554
N2 Sr0 2.927057 1_554
N2 Sr5 2.927057 1_554
N2 Sr4 3.199344 1_565
N2 Sr9 3.199344 1_655
N3 Ti0 2.005527 1_555
N3 Sr3 2.603298 1_555
N3 Sr6 2.603298 1_555
N3 Sr5 2.677479 1_555
N3 Sr0 2.677480 1_555
N3 Sr2 2.920054 1_555
N4 Re0 1.857806 1_555
N4 Sr2 2.701851 1_555
N4 Sr8 2.715662 1_565
N4 Sr4 2.745577 1_565
N4 Sr6 2.777803 1_555
N4 Sr7 2.904059 1_565
N5 Ti0 1.990761 1_555
N5 Sr7 2.552733 1_555
N5 Sr3 2.572053 1_555
N5 Sr1 2.654523 1_545
N5 Sr5 2.656300 1_545
N5 Sr2 2.685979 1_545
N6 Re0 1.846263 1_555
N6 Sr4 2.718346 1_555
N6 Sr9 2.718346 1_555
N6 Sr3 2.897938 1_555
N6 Sr6 2.897938 1_555
N7 Ti0 1.944008 1_555
N7 Sr8 2.546333 1_556
N7 Sr9 2.581736 1_556
N7 Sr4 2.581736 1_556
N8 Sr7 2.413643 1_555
N8 Sr6 2.457176 1_545
N8 Sr3 2.457177 1_455
N8 Sr1 2.614689 1_445
N8 Sr0 2.696192 1_455
N8 Sr5 2.696192 1_545
N9 Ti0 1.990762 1_555
N9 Sr7 2.552733 1_555
N9 Sr6 2.572053 1_555
N9 Sr1 2.654523 1_455
N9 Sr0 2.656301 1_455
N9 Sr2 2.685980 1_455
