# generated using pymatgen
data_TaBi2OsO8
_symmetry_space_group_name_H-M   'P 1'
_cell_length_a   5.52172838
_cell_length_b   7.70293458
_cell_length_c   7.75375307
_cell_angle_alpha   103.77643432
_cell_angle_beta   90.00345889
_cell_angle_gamma   89.94345879
_symmetry_Int_Tables_number   1
_chemical_formula_structural   TaBi2OsO8
_chemical_formula_sum   'Ta2 Bi4 Os2 O16'
_cell_volume   320.30676901
_cell_formula_units_Z   2
loop_
 _symmetry_equiv_pos_site_id
 _symmetry_equiv_pos_as_xyz
  1  'x, y, z'
loop_
 _atom_site_type_symbol
 _atom_site_label
 _atom_site_symmetry_multiplicity
 _atom_site_fract_x
 _atom_site_fract_y
 _atom_site_fract_z
 _atom_site_occupancy
  Ta  Ta0  1  0.74254921  0.83343599  0.70019715  1
  Ta  Ta1  1  0.24211226  0.16629755  0.79969463  1
  Bi  Bi0  1  0.27558125  0.61905450  0.40471951  1
  Bi  Bi1  1  0.21484940  0.66015268  0.89996723  1
  Bi  Bi2  1  0.71481781  0.33891132  0.60002924  1
  Bi  Bi3  1  0.77518902  0.38072302  0.09501987  1
  Os  Os0  1  0.75022622  0.83210271  0.20459199  1
  Os  Os1  1  0.24981101  0.16785079  0.29531579  1
  O  O0  1  0.48522930  0.98738629  0.22155079  1
  O  O1  1  0.53071170  0.59802938  0.66630816  1
  O  O2  1  0.03874959  0.37706092  0.36895422  1
  O  O3  1  0.69263179  0.81483865  0.45136846  1
  O  O4  1  0.32231411  0.18018654  0.54875891  1
  O  O5  1  0.82329812  0.81904118  0.95115145  1
  O  O6  1  0.02887175  0.40205707  0.83312167  1
  O  O7  1  0.52160685  0.32661169  0.85214010  1
  O  O8  1  0.42377645  0.94675260  0.77513018  1
  O  O9  1  0.92322136  0.05367044  0.72566831  1
  O  O10  1  0.50202730  0.35885979  0.32329954  1
  O  O11  1  0.19209458  0.18606826  0.04886493  1
  O  O12  1  0.00240242  0.64059555  0.17659697  1
  O  O13  1  0.98517599  0.01256322  0.27798978  1
  O  O14  1  0.02348176  0.67458082  0.64791447  1
  O  O15  1  0.53927075  0.62317205  0.13164665  1
loop_
_geom_bond_atom_site_label_1
_geom_bond_atom_site_label_2
_geom_bond_distance
_geom_bond_site_symmetry_2
Bi0 O2 2.240609 1_555
Bi0 O14 2.300316 1_555
Bi0 O10 2.317666 1_555
Bi0 O12 2.360191 1_555
Bi0 O1 2.506086 1_555
Bi0 O15 2.576156 1_555
Bi0 O3 2.730432 1_555
Bi1 O6 2.188359 1_555
Bi1 O14 2.247531 1_555
Bi1 O5 2.468484 1_455
Bi1 O1 2.477721 1_555
Bi1 O12 2.480730 1_556
Bi1 O15 2.599896 1_556
Bi2 O1 2.188371 1_555
Bi2 O7 2.248796 1_555
Bi2 O6 2.468369 1_655
Bi2 O4 2.474616 1_555
Bi2 O10 2.482849 1_555
Bi2 O2 2.597700 1_655
Bi3 O15 2.237873 1_555
Bi3 O7 2.303880 1_554
Bi3 O12 2.320148 1_655
Bi3 O10 2.362030 1_555
Bi3 O6 2.504517 1_654
Bi3 O2 2.580361 1_655
Bi3 O11 2.722759 1_655
O0 Os0 1.873706 1_555
O0 Os1 1.888693 1_565
O1 Ta0 2.121937 1_555
O2 Os1 1.959438 1_555
O3 Ta0 1.920231 1_555
O3 Os0 1.975205 1_555
O4 Os1 1.985474 1_555
O4 Ta1 2.023024 1_555
O5 Os0 1.985057 1_556
O5 Ta0 2.024831 1_555
O6 Ta1 2.126787 1_555
O7 Ta1 1.958721 1_555
O8 Ta1 1.935384 1_565
O8 Ta0 1.988279 1_555
O9 Ta0 1.938027 1_545
O9 Ta1 1.987049 1_655
O10 Os1 2.000845 1_555
O11 Ta1 1.921448 1_554
O11 Os1 1.974949 1_555
O12 Os0 2.001406 1_455
O13 Os1 1.873764 1_655
O13 Os0 1.888372 1_545
O14 Ta0 1.956543 1_455
O15 Os0 1.958812 1_555
