# generated using pymatgen
data_Na2SO3
_symmetry_space_group_name_H-M   'P 1'
_cell_length_a   5.58944957
_cell_length_b   5.58944957
_cell_length_c   7.14374000
_cell_angle_alpha   90.00000000
_cell_angle_beta   90.00000000
_cell_angle_gamma   116.14665839
_symmetry_Int_Tables_number   1
_chemical_formula_structural   Na2SO3
_chemical_formula_sum   'Na4 S2 O6'
_cell_volume   200.34566947
_cell_formula_units_Z   2
loop_
 _symmetry_equiv_pos_site_id
 _symmetry_equiv_pos_as_xyz
  1  'x, y, z'
loop_
 _atom_site_type_symbol
 _atom_site_label
 _atom_site_symmetry_multiplicity
 _atom_site_fract_x
 _atom_site_fract_y
 _atom_site_fract_z
 _atom_site_occupancy
  Na  Na0  1  0.32925000  0.67075000  0.25000000  1
  Na  Na1  1  0.94864400  0.94864400  0.50000000  1
  Na  Na2  1  0.05135600  0.05135600  0.00000000  1
  Na  Na3  1  0.67075000  0.32925000  0.75000000  1
  S  S0  1  0.30765700  0.69234300  0.75000000  1
  S  S1  1  0.69234300  0.30765700  0.25000000  1
  O  O0  1  0.14555100  0.85444900  0.75000000  1
  O  O1  1  0.09302900  0.44613800  0.87644300  1
  O  O2  1  0.55386200  0.90697100  0.62355700  1
  O  O3  1  0.44613800  0.09302900  0.12355700  1
  O  O4  1  0.90697100  0.55386200  0.37644300  1
  O  O5  1  0.85444900  0.14555100  0.25000000  1
loop_
_geom_bond_atom_site_label_1
_geom_bond_atom_site_label_2
_geom_bond_distance
_geom_bond_site_symmetry_2
Na0 O4 2.335532 1_455
Na0 O3 2.335532 1_565
Na1 O5 2.277893 1_565
Na1 O0 2.277893 1_655
Na1 O4 2.291177 1_555
Na1 O2 2.291177 1_555
Na2 O0 2.277893 1_544
Na2 O5 2.277893 1_455
Na2 O3 2.291177 1_555
Na2 O1 2.291177 1_554
Na3 O2 2.335532 1_545
Na3 O1 2.335532 1_655
O0 S0 1.538032 1_555
O1 S0 1.641297 1_555
O2 S0 1.641297 1_555
O3 S1 1.641297 1_555
O4 S1 1.641297 1_555
O5 S1 1.538032 1_555
