# generated using pymatgen
data_NaGaPIr2
_symmetry_space_group_name_H-M   'P 1'
_cell_length_a   5.76300323
_cell_length_b   5.76300194
_cell_length_c   5.76300361
_cell_angle_alpha   138.61874702
_cell_angle_beta   138.61875408
_cell_angle_gamma   59.95666969
_symmetry_Int_Tables_number   1
_chemical_formula_structural   NaGaPIr2
_chemical_formula_sum   'Na1 Ga1 P1 Ir2'
_cell_volume   82.78901510
_cell_formula_units_Z   1
loop_
 _symmetry_equiv_pos_site_id
 _symmetry_equiv_pos_as_xyz
  1  'x, y, z'
loop_
 _atom_site_type_symbol
 _atom_site_label
 _atom_site_symmetry_multiplicity
 _atom_site_fract_x
 _atom_site_fract_y
 _atom_site_fract_z
 _atom_site_occupancy
  Na  Na0  1  0.99923808  0.99923808  0.00000000  1
  Ga  Ga0  1  0.38567978  0.38567978  1.00000000  1
  P  P0  1  0.63258495  0.63258495  0.00000000  1
  Ir  Ir0  1  0.74124859  0.24124859  0.50000000  1
  Ir  Ir1  1  0.24124859  0.74124859  0.50000000  1
loop_
_geom_bond_atom_site_label_1
_geom_bond_atom_site_label_2
_geom_bond_distance
_geom_bond_site_symmetry_2
Na0 P0 3.172479 1_666
Na0 P0 3.172479 1_565
Na0 P0 3.172480 1_655
Na0 P0 3.172480 1_554
Ga0 P0 2.465099 1_556
Ga0 Ir1 2.495085 1_545
Ga0 Ir0 2.495085 1_455
Ga0 Ir0 2.495086 1_556
Ga0 Ir1 2.495086 1_556
Ga0 Na0 3.094769 1_557
Ga0 Na0 3.094769 1_456
Ga0 Na0 3.094770 1_546
Ga0 Na0 3.094770 1_445
Ir0 P0 2.307182 1_545
Ir0 P0 2.307183 1_556
Ir0 Na0 3.159788 1_445
Ir0 Na0 3.159788 1_546
Ir0 Na0 3.283390 1_556
Ir0 Na0 3.283391 1_545
Ir1 P0 2.307182 1_455
Ir1 P0 2.307182 1_556
Ir1 Na0 3.159787 1_445
Ir1 Na0 3.159789 1_456
Ir1 Na0 3.283390 1_556
Ir1 Na0 3.283391 1_455
