# generated using pymatgen
data_Rb2Li(ClF4)3
_symmetry_space_group_name_H-M   'P 1'
_cell_length_a   6.87063647
_cell_length_b   6.87063816
_cell_length_c   6.87063765
_cell_angle_alpha   68.31878127
_cell_angle_beta   111.68122289
_cell_angle_gamma   111.68121163
_symmetry_Int_Tables_number   1
_chemical_formula_structural   Rb2Li(ClF4)3
_chemical_formula_sum   'Rb2 Li1 Cl3 F12'
_cell_volume   269.68163288
_cell_formula_units_Z   1
loop_
 _symmetry_equiv_pos_site_id
 _symmetry_equiv_pos_as_xyz
  1  'x, y, z'
loop_
 _atom_site_type_symbol
 _atom_site_label
 _atom_site_symmetry_multiplicity
 _atom_site_fract_x
 _atom_site_fract_y
 _atom_site_fract_z
 _atom_site_occupancy
  Rb  Rb0  1  0.86298144  0.13701956  0.13701756  1
  Rb  Rb1  1  0.13701856  0.86298244  0.86298044  1
  Li  Li0  1  0.50000100  0.50000100  0.49999900  1
  Cl  Cl0  1  0.49999900  0.50000100  0.00000000  1
  Cl  Cl1  1  0.00000000  0.50000100  0.49999900  1
  Cl  Cl2  1  0.50000000  0.00000000  0.50000000  1
  F  F0  1  0.43771683  0.21305102  0.02883479  1
  F  F1  1  0.35576200  0.44130672  0.20009481  1
  F  F2  1  0.97116621  0.56228417  0.21305202  1
  F  F3  1  0.44130672  0.79990519  0.35576300  1
  F  F4  1  0.21305302  0.97116721  0.43771583  1
  F  F5  1  0.20009481  0.35576100  0.55869428  1
  F  F6  1  0.79990519  0.64423800  0.44130672  1
  F  F7  1  0.78694898  0.02883479  0.56228317  1
  F  F8  1  0.55869228  0.20009481  0.64423700  1
  F  F9  1  0.02883279  0.43771583  0.78694798  1
  F  F10  1  0.64423700  0.55869228  0.79990519  1
  F  F11  1  0.56228417  0.78694798  0.97116721  1
loop_
_geom_bond_atom_site_label_1
_geom_bond_atom_site_label_2
_geom_bond_distance
_geom_bond_site_symmetry_2
Cl0 F11 1.805519 1_554
Cl0 F0 1.805539 1_555
Cl0 F1 1.826597 1_555
Cl0 F10 1.826608 1_554
Cl1 F2 1.805519 1_455
Cl1 F9 1.805532 1_555
Cl1 F6 1.826601 1_455
Cl1 F5 1.826610 1_555
Cl2 F4 1.805520 1_545
Cl2 F7 1.805531 1_555
Cl2 F3 1.826599 1_545
Cl2 F8 1.826601 1_555
F0 Rb1 2.822375 1_544
F0 Rb0 2.932354 1_555
F1 Li0 2.049487 1_555
F2 Rb1 2.822383 1_654
F2 Rb0 2.932362 1_555
F3 Li0 2.049486 1_555
F4 Rb0 2.822383 1_465
F4 Rb1 2.932362 1_555
F5 Li0 2.049502 1_555
F6 Li0 2.049481 1_555
F7 Rb1 2.822371 1_645
F7 Rb0 2.932362 1_555
F8 Li0 2.049491 1_555
F9 Rb0 2.822367 1_456
F9 Rb1 2.932368 1_555
F10 Li0 2.049491 1_555
F11 Rb0 2.822375 1_566
F11 Rb1 2.932365 1_555
