# generated using pymatgen
data_NbHg2SbO7
_symmetry_space_group_name_H-M   'P 1'
_cell_length_a   7.35857767
_cell_length_b   7.42088112
_cell_length_c   7.42088173
_cell_angle_alpha   60.48953628
_cell_angle_beta   60.27733981
_cell_angle_gamma   60.27734167
_symmetry_Int_Tables_number   1
_chemical_formula_structural   NbHg2SbO7
_chemical_formula_sum   'Nb2 Hg4 Sb2 O14'
_cell_volume   288.79671222
_cell_formula_units_Z   2
loop_
 _symmetry_equiv_pos_site_id
 _symmetry_equiv_pos_as_xyz
  1  'x, y, z'
loop_
 _atom_site_type_symbol
 _atom_site_label
 _atom_site_symmetry_multiplicity
 _atom_site_fract_x
 _atom_site_fract_y
 _atom_site_fract_z
 _atom_site_occupancy
  Nb  Nb0  1  0.62500000  0.62500000  0.12500000  1
  Nb  Nb1  1  0.62500000  0.12500000  0.62500000  1
  Hg  Hg0  1  0.12500000  0.12500000  0.62500000  1
  Hg  Hg1  1  0.12500000  0.62500000  0.12500000  1
  Hg  Hg2  1  0.62500000  0.12500000  0.12500000  1
  Hg  Hg3  1  0.12500000  0.12500000  0.12500000  1
  Sb  Sb0  1  0.12500000  0.62500000  0.62500000  1
  Sb  Sb1  1  0.62500000  0.62500000  0.62500000  1
  O  O0  1  0.25390353  0.24609647  0.24609647  1
  O  O1  1  0.99609647  0.00390353  0.00390353  1
  O  O2  1  0.55668835  0.93847256  0.56011664  1
  O  O3  1  0.30527756  0.68988336  0.31152744  1
  O  O4  1  0.55668835  0.56011664  0.93847256  1
  O  O5  1  0.94668957  0.55331043  0.55331043  1
  O  O6  1  0.56051350  0.93948650  0.93948650  1
  O  O7  1  0.94472244  0.93847256  0.56011664  1
  O  O8  1  0.94472244  0.56011664  0.93847256  1
  O  O9  1  0.68948650  0.31051350  0.31051350  1
  O  O10  1  0.30331043  0.69668957  0.69668957  1
  O  O11  1  0.69331165  0.31152744  0.68988336  1
  O  O12  1  0.30527756  0.31152744  0.68988336  1
  O  O13  1  0.69331165  0.68988336  0.31152744  1
loop_
_geom_bond_atom_site_label_1
_geom_bond_atom_site_label_2
_geom_bond_distance
_geom_bond_site_symmetry_2
Nb0 O6 1.987800 1_554
Nb0 O9 1.987800 1_555
Nb0 O8 1.996767 1_554
Nb0 O3 1.996767 1_555
Nb0 O13 1.996767 1_555
Nb0 O4 1.996767 1_554
Nb1 O6 1.987800 1_545
Nb1 O9 1.987800 1_555
Nb1 O7 1.996767 1_545
Nb1 O12 1.996767 1_555
Nb1 O11 1.996767 1_555
Nb1 O2 1.996767 1_545
Hg0 O1 2.307533 1_456
Hg0 O0 2.307533 1_555
Hg0 O5 2.645379 1_455
Hg0 O10 2.645379 1_545
Hg0 O2 2.649242 1_545
Hg0 O11 2.649242 1_455
Hg0 O12 2.649242 1_555
Hg0 O7 2.649242 1_445
Hg1 O0 2.307533 1_555
Hg1 O1 2.307533 1_465
Hg1 O5 2.645379 1_455
Hg1 O10 2.645379 1_554
Hg1 O4 2.649242 1_554
Hg1 O13 2.649242 1_455
Hg1 O3 2.649242 1_555
Hg1 O8 2.649242 1_454
Hg2 O0 2.236276 1_555
Hg2 O1 2.236276 1_555
Hg3 O1 2.236276 1_455
Hg3 O0 2.236276 1_555
O2 Sb1 1.967980 1_555
O3 Sb0 1.967980 1_555
O4 Sb1 1.967980 1_555
O5 Sb1 1.987680 1_555
O5 Sb0 1.987680 1_655
O7 Sb0 1.967980 1_655
O8 Sb0 1.967980 1_655
O10 Sb1 1.987680 1_555
O10 Sb0 1.987680 1_555
O11 Sb1 1.967980 1_555
O12 Sb0 1.967980 1_555
O13 Sb1 1.967980 1_555
