# generated using pymatgen
data_Sc6Al6PtAu5
_symmetry_space_group_name_H-M   'P 1'
_cell_length_a   7.27739399
_cell_length_b   7.27739490
_cell_length_c   7.15829081
_cell_angle_alpha   90.00000000
_cell_angle_beta   90.00000000
_cell_angle_gamma   119.99999589
_symmetry_Int_Tables_number   1
_chemical_formula_structural   Sc6Al6PtAu5
_chemical_formula_sum   'Sc6 Al6 Pt1 Au5'
_cell_volume   328.31582555
_cell_formula_units_Z   1
loop_
 _symmetry_equiv_pos_site_id
 _symmetry_equiv_pos_as_xyz
  1  'x, y, z'
loop_
 _atom_site_type_symbol
 _atom_site_label
 _atom_site_symmetry_multiplicity
 _atom_site_fract_x
 _atom_site_fract_y
 _atom_site_fract_z
 _atom_site_occupancy
  Sc  Sc0  1  0.59606407  0.00215535  0.75000000  1
  Sc  Sc1  1  0.99784465  0.59390972  0.75000000  1
  Sc  Sc2  1  0.40609028  0.40393593  0.75000000  1
  Sc  Sc3  1  0.00227142  0.60443901  0.25000000  1
  Sc  Sc4  1  0.60216759  0.99772858  0.25000000  1
  Sc  Sc5  1  0.39556099  0.39783241  0.25000000  1
  Al  Al0  1  0.74061992  0.74036607  0.00597491  1
  Al  Al1  1  0.25963393  0.00025385  0.00597491  1
  Al  Al2  1  0.99974615  0.25938008  0.00597491  1
  Al  Al3  1  0.74061992  0.74036607  0.49402509  1
  Al  Al4  1  0.25963393  0.00025385  0.49402509  1
  Al  Al5  1  0.99974615  0.25938008  0.49402509  1
  Pt  Pt0  1  0.00000000  0.00000000  0.25000000  1
  Au  Au0  1  0.00000000  0.00000000  0.75000000  1
  Au  Au1  1  0.66666700  0.33333300  0.00503402  1
  Au  Au2  1  0.66666700  0.33333300  0.49496598  1
  Au  Au3  1  0.33333300  0.66666700  0.50097628  1
  Au  Au4  1  0.33333300  0.66666700  0.99902372  1
loop_
_geom_bond_atom_site_label_1
_geom_bond_atom_site_label_2
_geom_bond_distance
_geom_bond_site_symmetry_2
Al0 Pt0 2.572525 1_665
Al0 Au0 2.631358 1_664
Al0 Au1 2.733091 1_555
Al0 Au4 2.735993 1_554
Al0 Sc5 3.051439 1_555
Al0 Sc2 3.052565 1_554
Al0 Sc4 3.075954 1_555
Al0 Sc3 3.088551 1_655
Al0 Sc1 3.161123 1_554
Al0 Sc0 3.177724 1_564
Al1 Pt0 2.572525 1_555
Al1 Au0 2.631358 1_554
Al1 Au1 2.733088 1_555
Al1 Au4 2.735986 1_544
Al1 Sc4 3.051439 1_545
Al1 Sc0 3.052562 1_554
Al1 Sc3 3.075954 1_545
Al1 Sc5 3.088551 1_555
Al1 Sc2 3.161129 1_554
Al1 Sc1 3.177719 1_444
Al2 Pt0 2.572525 1_655
Al2 Au0 2.631358 1_654
Al2 Au1 2.733083 1_555
Al2 Au4 2.735991 1_654
Al2 Sc3 3.051440 1_655
Al2 Sc1 3.052568 1_554
Al2 Sc5 3.075954 1_655
Al2 Sc4 3.088551 1_545
Al2 Sc0 3.161127 1_554
Al2 Sc2 3.177718 1_654
Al3 Pt0 2.572525 1_665
Al3 Au0 2.631358 1_665
Al3 Au2 2.733091 1_555
Al3 Au3 2.735993 1_555
Al3 Sc5 3.051439 1_555
Al3 Sc2 3.052565 1_555
Al3 Sc4 3.075954 1_555
Al3 Sc3 3.088551 1_655
Al3 Sc1 3.161123 1_555
Al3 Sc0 3.177724 1_565
Al4 Pt0 2.572525 1_555
Al4 Au0 2.631358 1_555
Al4 Au2 2.733088 1_555
Al4 Au3 2.735986 1_545
Al4 Sc4 3.051439 1_545
Al4 Sc0 3.052562 1_555
Al4 Sc3 3.075954 1_545
Al4 Sc5 3.088551 1_555
Al4 Sc2 3.161129 1_555
Al4 Sc1 3.177719 1_445
Al5 Pt0 2.572525 1_655
Al5 Au0 2.631358 1_655
Al5 Au2 2.733083 1_555
Al5 Au3 2.735991 1_655
Al5 Sc3 3.051440 1_655
Al5 Sc1 3.052568 1_555
Al5 Sc5 3.075954 1_655
Al5 Sc4 3.088551 1_545
Al5 Sc0 3.161127 1_555
Al5 Sc2 3.177718 1_655
Pt0 Sc4 2.886954 1_445
Pt0 Sc3 2.886954 1_545
Pt0 Sc5 2.886954 1_555
Au0 Sc1 2.947468 1_445
Au0 Sc2 2.947472 1_555
Au0 Sc0 2.947475 1_455
Au1 Sc4 2.848469 1_545
Au1 Sc3 2.848471 1_655
Au1 Sc5 2.848475 1_555
Au1 Sc0 2.857822 1_554
Au1 Sc1 2.857825 1_554
Au1 Sc2 2.857832 1_554
Au2 Sc4 2.848469 1_545
Au2 Sc3 2.848471 1_655
Au2 Sc5 2.848475 1_555
Au2 Sc0 2.857822 1_555
Au2 Sc1 2.857825 1_555
Au2 Sc2 2.857832 1_555
Au3 Sc1 2.850625 1_455
Au3 Sc2 2.850625 1_555
Au3 Sc0 2.850626 1_565
Au3 Sc3 2.854158 1_555
Au3 Sc4 2.854160 1_555
Au3 Sc5 2.854164 1_555
Au4 Sc1 2.850625 1_455
Au4 Sc2 2.850625 1_555
Au4 Sc0 2.850626 1_565
Au4 Sc3 2.854158 1_556
Au4 Sc4 2.854160 1_556
Au4 Sc5 2.854164 1_556
