# generated using pymatgen
data_Zn3SnP6N13
_symmetry_space_group_name_H-M   'P 1'
_cell_length_a   7.00225208
_cell_length_b   7.08841768
_cell_length_c   7.00225284
_cell_angle_alpha   109.72067501
_cell_angle_beta   109.22060135
_cell_angle_gamma   109.72068450
_symmetry_Int_Tables_number   1
_chemical_formula_structural   Zn3SnP6N13
_chemical_formula_sum   'Zn3 Sn1 P6 N13'
_cell_volume   266.72067945
_cell_formula_units_Z   1
loop_
 _symmetry_equiv_pos_site_id
 _symmetry_equiv_pos_as_xyz
  1  'x, y, z'
loop_
 _atom_site_type_symbol
 _atom_site_label
 _atom_site_symmetry_multiplicity
 _atom_site_fract_x
 _atom_site_fract_y
 _atom_site_fract_z
 _atom_site_occupancy
  Zn  Zn0  1  0.70468746  0.00617972  0.00000000  1
  Zn  Zn1  1  0.00000000  0.00617972  0.70468746  1
  Zn  Zn2  1  0.29531254  0.30149227  0.29531254  1
  Sn  Sn0  1  0.00000000  0.72364713  0.00000000  1
  P  P0  1  0.49579396  0.24177879  0.74653519  1
  P  P1  1  0.50420604  0.74598483  0.25074123  1
  P  P2  1  0.74925877  0.49524360  0.25346481  1
  P  P3  1  0.25074123  0.74598483  0.50420604  1
  P  P4  1  0.74653519  0.24177879  0.49579396  1
  P  P5  1  0.25346481  0.49524360  0.74925877  1
  N  N0  1  0.00000000  0.73002790  0.45495079  1
  N  N1  1  0.28002871  0.54392188  0.54687305  1
  N  N2  1  0.73016763  0.44490905  0.00000000  1
  N  N3  1  0.26983237  0.71474242  0.26983237  1
  N  N4  1  0.45312695  0.99704882  0.73315566  1
  N  N5  1  0.71997129  0.26389316  0.26684434  1
  N  N6  1  0.54504921  0.27507611  0.54504921  1
  N  N7  1  0.73315566  0.99704882  0.45312695  1
  N  N8  1  0.26684434  0.26389316  0.71997129  1
  N  N9  1  0.45495079  0.73002790  0.00000000  1
  N  N10  1  0.54687305  0.54392188  0.28002871  1
  N  N11  1  0.00000000  0.44490905  0.73016763  1
  N  N12  1  1.00000000  0.04706354  1.00000000  1
loop_
_geom_bond_atom_site_label_1
_geom_bond_atom_site_label_2
_geom_bond_distance
_geom_bond_site_symmetry_2
N0 P3 1.629528 1_555
N0 P2 1.629528 1_455
N0 Zn1 2.140002 1_565
N1 P5 1.619333 1_555
N1 P3 1.621575 1_555
N1 Zn2 2.067060 1_555
N2 P2 1.636891 1_555
N2 P0 1.636892 1_554
N2 Sn0 2.225846 1_655
N3 P1 1.636892 1_555
N3 P3 1.636892 1_555
N3 Sn0 2.225842 1_555
N4 P3 1.619334 1_555
N4 P0 1.621575 1_565
N4 Zn0 2.067060 1_566
N5 P4 1.619333 1_555
N5 P2 1.621575 1_555
N5 Zn0 2.067060 1_555
N6 P4 1.629525 1_555
N6 P0 1.629525 1_555
N6 Zn2 2.140007 1_555
N7 P1 1.619334 1_555
N7 P4 1.621575 1_565
N7 Zn1 2.067060 1_665
N8 P0 1.619333 1_555
N8 P5 1.621575 1_555
N8 Zn1 2.067060 1_555
N9 P1 1.629528 1_555
N9 P5 1.629528 1_554
N9 Zn0 2.140002 1_565
N10 P2 1.619333 1_555
N10 P1 1.621575 1_555
N10 Zn2 2.067060 1_555
N11 P5 1.636891 1_555
N11 P4 1.636891 1_455
N11 Sn0 2.225847 1_556
N12 Zn0 1.988862 1_556
N12 Zn1 1.988863 1_655
N12 Zn2 1.988863 1_656
N12 Sn0 2.292511 1_646
