# generated using pymatgen
data_CsFeHgF6
_symmetry_space_group_name_H-M   'P 1'
_cell_length_a   7.50653812
_cell_length_b   7.58425766
_cell_length_c   10.67406122
_cell_angle_alpha   90.00000000
_cell_angle_beta   90.00000000
_cell_angle_gamma   90.00000000
_symmetry_Int_Tables_number   1
_chemical_formula_structural   CsFeHgF6
_chemical_formula_sum   'Cs4 Fe4 Hg4 F24'
_cell_volume   607.69052193
_cell_formula_units_Z   4
loop_
 _symmetry_equiv_pos_site_id
 _symmetry_equiv_pos_as_xyz
  1  'x, y, z'
loop_
 _atom_site_type_symbol
 _atom_site_label
 _atom_site_symmetry_multiplicity
 _atom_site_fract_x
 _atom_site_fract_y
 _atom_site_fract_z
 _atom_site_occupancy
  Cs  Cs0  1  0.96769424  0.25000000  0.37411820  1
  Cs  Cs1  1  0.46769424  0.25000000  0.12588180  1
  Cs  Cs2  1  0.03230576  0.75000000  0.62588180  1
  Cs  Cs3  1  0.53230576  0.75000000  0.87411820  1
  Fe  Fe0  1  0.50000000  0.00000000  0.50000000  1
  Fe  Fe1  1  0.00000000  0.50000000  0.00000000  1
  Fe  Fe2  1  0.50000000  0.50000000  0.50000000  1
  Fe  Fe3  1  0.00000000  0.00000000  0.00000000  1
  Hg  Hg0  1  0.79990296  0.25000000  0.74308606  1
  Hg  Hg1  1  0.29990296  0.25000000  0.75691394  1
  Hg  Hg2  1  0.20009704  0.75000000  0.25691394  1
  Hg  Hg3  1  0.70009704  0.75000000  0.24308606  1
  F  F0  1  0.55905849  0.25000000  0.85592075  1
  F  F1  1  0.05905849  0.25000000  0.64407925  1
  F  F2  1  0.44094151  0.75000000  0.14407925  1
  F  F3  1  0.94094151  0.75000000  0.35592075  1
  F  F4  1  0.93025830  0.25000000  0.99454850  1
  F  F5  1  0.43025830  0.25000000  0.50545150  1
  F  F6  1  0.06974170  0.75000000  0.00545150  1
  F  F7  1  0.56974170  0.75000000  0.49454850  1
  F  F8  1  0.61187799  0.02486091  0.33818066  1
  F  F9  1  0.11187799  0.47513909  0.16181934  1
  F  F10  1  0.38812201  0.52486091  0.66181934  1
  F  F11  1  0.88812201  0.97513909  0.83818066  1
  F  F12  1  0.38812201  0.97513909  0.66181934  1
  F  F13  1  0.88812201  0.52486091  0.83818066  1
  F  F14  1  0.61187799  0.47513909  0.33818066  1
  F  F15  1  0.11187799  0.02486091  0.16181934  1
  F  F16  1  0.72441198  0.05036523  0.57903544  1
  F  F17  1  0.22441198  0.44963477  0.92096456  1
  F  F18  1  0.27558802  0.55036523  0.42096456  1
  F  F19  1  0.77558802  0.94963477  0.07903544  1
  F  F20  1  0.27558802  0.94963477  0.42096456  1
  F  F21  1  0.77558802  0.55036523  0.07903544  1
  F  F22  1  0.72441198  0.44963477  0.57903544  1
  F  F23  1  0.22441198  0.05036523  0.92096456  1
loop_
_geom_bond_atom_site_label_1
_geom_bond_atom_site_label_2
_geom_bond_distance
_geom_bond_site_symmetry_2
Cs0 F1 2.962072 1_655
Cs0 F9 3.036805 1_655
Cs0 F15 3.036805 1_655
Cs0 F14 3.193229 1_555
Cs0 F8 3.193229 1_555
Cs0 F16 3.226725 1_555
Cs0 F22 3.226725 1_555
Cs0 F20 3.283483 1_645
Cs0 F18 3.283483 1_655
Cs1 F0 2.962072 1_554
Cs1 F14 3.036805 1_555
Cs1 F8 3.036805 1_555
Cs1 F9 3.193229 1_555
Cs1 F15 3.193229 1_555
Cs1 F23 3.226725 1_554
Cs1 F17 3.226725 1_554
Cs1 F19 3.283483 1_545
Cs1 F21 3.283483 1_555
Cs2 F3 2.962072 1_455
Cs2 F11 3.036805 1_455
Cs2 F13 3.036805 1_455
Cs2 F12 3.193229 1_555
Cs2 F10 3.193229 1_555
Cs2 F18 3.226725 1_555
Cs2 F20 3.226725 1_555
Cs2 F22 3.283483 1_455
Cs2 F16 3.283483 1_465
Cs3 F2 2.962072 1_556
Cs3 F12 3.036805 1_555
Cs3 F10 3.036805 1_555
Cs3 F11 3.193229 1_555
Cs3 F13 3.193229 1_555
Cs3 F19 3.226725 1_556
Cs3 F21 3.226725 1_556
Cs3 F17 3.283483 1_555
Cs3 F23 3.283483 1_565
F0 Hg0 2.172354 1_555
F0 Hg1 2.213880 1_555
F1 Hg1 2.172354 1_555
F1 Hg0 2.213880 1_455
F2 Hg2 2.172354 1_555
F2 Hg3 2.213880 1_555
F3 Hg3 2.172354 1_555
F3 Hg2 2.213880 1_655
F4 Fe1 1.967871 1_656
F4 Fe3 1.967871 1_656
F5 Fe2 1.967871 1_555
F5 Fe0 1.967871 1_555
F6 Fe3 1.967871 1_565
F6 Fe1 1.967871 1_555
F7 Fe2 1.967871 1_555
F7 Fe0 1.967871 1_565
F8 Fe0 1.929845 1_555
F8 Hg3 2.411322 1_545
F9 Fe1 1.929845 1_555
F9 Hg2 2.411322 1_555
F10 Fe2 1.929845 1_555
F10 Hg1 2.411322 1_555
F11 Fe3 1.929845 1_666
F11 Hg0 2.411322 1_565
F12 Fe0 1.929845 1_565
F12 Hg1 2.411322 1_565
F13 Fe1 1.929845 1_656
F13 Hg0 2.411322 1_555
F14 Fe2 1.929845 1_555
F14 Hg3 2.411322 1_555
F15 Fe3 1.929845 1_555
F15 Hg2 2.411322 1_545
F16 Fe0 1.922330 1_555
F16 Hg0 2.383247 1_555
F17 Fe1 1.922330 1_556
F17 Hg1 2.383247 1_555
F18 Fe2 1.922330 1_555
F18 Hg2 2.383247 1_555
F19 Fe3 1.922330 1_665
F19 Hg3 2.383247 1_555
F20 Fe0 1.922330 1_565
F20 Hg2 2.383247 1_555
F21 Fe1 1.922330 1_655
F21 Hg3 2.383247 1_555
F22 Fe2 1.922330 1_555
F22 Hg0 2.383247 1_555
F23 Fe3 1.922330 1_556
F23 Hg1 2.383247 1_555
