# generated using pymatgen
data_Na(WO3)2
_symmetry_space_group_name_H-M   'P 1'
_cell_length_a   7.68240100
_cell_length_b   5.43198299
_cell_length_c   5.43227855
_cell_angle_alpha   59.99820006
_cell_angle_beta   45.00000000
_cell_angle_gamma   44.99688236
_symmetry_Int_Tables_number   1
_chemical_formula_structural   Na(WO3)2
_chemical_formula_sum   'Na1 W2 O6'
_cell_volume   113.34014824
_cell_formula_units_Z   1
loop_
 _symmetry_equiv_pos_site_id
 _symmetry_equiv_pos_as_xyz
  1  'x, y, z'
loop_
 _atom_site_type_symbol
 _atom_site_label
 _atom_site_symmetry_multiplicity
 _atom_site_fract_x
 _atom_site_fract_y
 _atom_site_fract_z
 _atom_site_occupancy
  Na  Na0  1  0.50000000  0.00000000  0.00000000  1
  W  W0  1  0.25000000  0.50000000  0.50000000  1
  W  W1  1  0.75000000  0.50000000  0.50000000  1
  O  O0  1  0.00000000  0.50000000  0.00000000  1
  O  O1  1  0.50000000  0.50000000  0.00000000  1
  O  O2  1  0.00000000  0.00000000  0.50000000  1
  O  O3  1  0.50000000  0.50000000  0.50000000  1
  O  O4  1  0.50000000  0.00000000  0.50000000  1
  O  O5  1  0.00000000  0.50000000  0.50000000  1
loop_
_geom_bond_atom_site_label_1
_geom_bond_atom_site_label_2
_geom_bond_distance
_geom_bond_site_symmetry_2
Na0 O0 2.715991 1_555
Na0 O0 2.715991 1_645
Na0 O1 2.715991 1_545
Na0 O3 2.715991 1_554
Na0 O1 2.715991 1_555
Na0 O3 2.715991 1_545
Na0 O5 2.715991 1_644
Na0 O5 2.715991 1_555
Na0 O2 2.716139 1_555
Na0 O2 2.716139 1_654
Na0 O4 2.716139 1_554
Na0 O4 2.716139 1_555
O0 W1 1.920601 1_455
O0 W0 1.920601 1_554
O1 W1 1.920601 1_554
O1 W0 1.920601 1_555
O2 W0 1.920392 1_545
O2 W1 1.920392 1_455
O3 W0 1.920600 1_555
O3 W1 1.920600 1_555
O4 W0 1.920392 1_555
O4 W1 1.920392 1_545
O5 W1 1.920600 1_455
O5 W0 1.920600 1_555
