# generated using pymatgen
data_TaHg4Sb3O14
_symmetry_space_group_name_H-M   'P 1'
_cell_length_a   7.34944754
_cell_length_b   7.34944781
_cell_length_c   7.40189665
_cell_angle_alpha   60.23412844
_cell_angle_beta   60.23413064
_cell_angle_gamma   60.00000149
_symmetry_Int_Tables_number   1
_chemical_formula_structural   TaHg4Sb3O14
_chemical_formula_sum   'Ta1 Hg4 Sb3 O14'
_cell_volume   283.70390122
_cell_formula_units_Z   1
loop_
 _symmetry_equiv_pos_site_id
 _symmetry_equiv_pos_as_xyz
  1  'x, y, z'
loop_
 _atom_site_type_symbol
 _atom_site_label
 _atom_site_symmetry_multiplicity
 _atom_site_fract_x
 _atom_site_fract_y
 _atom_site_fract_z
 _atom_site_occupancy
  Ta  Ta0  1  0.12500000  0.12500000  0.62500000  1
  Hg  Hg0  1  0.62500000  0.62500000  0.62500000  1
  Hg  Hg1  1  0.62500000  0.12500000  0.62500000  1
  Hg  Hg2  1  0.62500000  0.62500000  0.12500000  1
  Hg  Hg3  1  0.12500000  0.62500000  0.62500000  1
  Sb  Sb0  1  0.12500000  0.62500000  0.12500000  1
  Sb  Sb1  1  0.12500000  0.12500000  0.12500000  1
  Sb  Sb2  1  0.62500000  0.12500000  0.12500000  1
  O  O0  1  0.80387440  0.80387440  0.19561162  1
  O  O1  1  0.80871372  0.18956034  0.81216560  1
  O  O2  1  0.06043966  0.06043966  0.43783440  1
  O  O3  1  0.80387440  0.19663958  0.19561162  1
  O  O4  1  0.44612560  0.44612560  0.05438838  1
  O  O5  1  0.05336042  0.44612560  0.05438838  1
  O  O6  1  0.18956034  0.80871372  0.81216560  1
  O  O7  1  0.44128628  0.06043966  0.43783440  1
  O  O8  1  0.49777079  0.49777079  0.50668662  1
  O  O9  1  0.19663958  0.80387440  0.19561162  1
  O  O10  1  0.18956034  0.18956034  0.81216560  1
  O  O11  1  0.75222921  0.75222921  0.74331338  1
  O  O12  1  0.44612560  0.05336042  0.05438838  1
  O  O13  1  0.06043966  0.44128628  0.43783440  1
loop_
_geom_bond_atom_site_label_1
_geom_bond_atom_site_label_2
_geom_bond_distance
_geom_bond_site_symmetry_2
Hg0 O11 2.239667 1_555
Hg0 O8 2.239667 1_555
Hg0 O4 2.643660 1_556
Hg0 O0 2.643660 1_555
Hg0 O7 2.667966 1_565
Hg0 O1 2.667966 1_555
Hg0 O6 2.667966 1_555
Hg0 O13 2.667966 1_655
Hg1 O11 2.239662 1_545
Hg1 O8 2.239662 1_555
Hg1 O12 2.643660 1_556
Hg1 O3 2.643660 1_555
Hg1 O1 2.667966 1_555
Hg1 O7 2.667966 1_555
Hg1 O2 2.667966 1_655
Hg1 O10 2.667966 1_555
Hg2 O8 2.314900 1_555
Hg2 O11 2.314900 1_554
Hg2 O0 2.611969 1_555
Hg2 O4 2.611969 1_555
Hg2 O5 2.611969 1_655
Hg2 O9 2.611969 1_555
Hg2 O12 2.611969 1_565
Hg2 O3 2.611969 1_555
Hg3 O8 2.239662 1_555
Hg3 O11 2.239662 1_455
Hg3 O5 2.643660 1_556
Hg3 O9 2.643660 1_555
Hg3 O6 2.667966 1_555
Hg3 O13 2.667966 1_555
Hg3 O2 2.667966 1_565
Hg3 O10 2.667966 1_555
O0 Sb0 1.981482 1_655
O0 Sb2 1.981482 1_565
O1 Sb2 1.963526 1_556
O1 Ta0 1.974853 1_655
O2 Sb1 1.963526 1_555
O2 Ta0 1.974853 1_555
O3 Sb2 1.981482 1_555
O3 Sb1 1.981482 1_655
O4 Sb0 1.981482 1_555
O4 Sb2 1.981482 1_555
O5 Sb0 1.981482 1_555
O5 Sb1 1.981482 1_555
O6 Sb0 1.963526 1_556
O6 Ta0 1.974853 1_565
O7 Sb2 1.963526 1_555
O7 Ta0 1.974853 1_555
O9 Sb0 1.981482 1_555
O9 Sb1 1.981482 1_565
O10 Sb1 1.963526 1_556
O10 Ta0 1.974853 1_555
O12 Sb2 1.981482 1_555
O12 Sb1 1.981482 1_555
O13 Sb0 1.963526 1_555
O13 Ta0 1.974853 1_555
