# generated using pymatgen
data_MgGa6Fe5Rh12
_symmetry_space_group_name_H-M   'P 1'
_cell_length_a   4.24021251
_cell_length_b   6.00225566
_cell_length_c   12.74223605
_cell_angle_alpha   90.00000000
_cell_angle_beta   89.95749596
_cell_angle_gamma   90.00000000
_symmetry_Int_Tables_number   1
_chemical_formula_structural   MgGa6Fe5Rh12
_chemical_formula_sum   'Mg1 Ga6 Fe5 Rh12'
_cell_volume   324.30051539
_cell_formula_units_Z   1
loop_
 _symmetry_equiv_pos_site_id
 _symmetry_equiv_pos_as_xyz
  1  'x, y, z'
loop_
 _atom_site_type_symbol
 _atom_site_label
 _atom_site_symmetry_multiplicity
 _atom_site_fract_x
 _atom_site_fract_y
 _atom_site_fract_z
 _atom_site_occupancy
  Mg  Mg0  1  0.00000000  0.50000000  0.00000000  1
  Ga  Ga0  1  0.00000000  0.00000000  0.00000000  1
  Ga  Ga1  1  0.49962401  0.50000000  0.16510899  1
  Ga  Ga2  1  0.99967177  0.00000000  0.33477284  1
  Ga  Ga3  1  0.50000100  0.50000000  0.50000000  1
  Ga  Ga4  1  0.00032723  0.00000000  0.66522716  1
  Ga  Ga5  1  0.50037499  0.50000000  0.83489101  1
  Fe  Fe0  1  0.49974957  0.00000000  0.16700163  1
  Fe  Fe1  1  0.99971644  0.50000000  0.33330862  1
  Fe  Fe2  1  0.50000100  0.00000000  0.50000000  1
  Fe  Fe3  1  0.00028456  0.50000000  0.66669138  1
  Fe  Fe4  1  0.50025143  0.00000000  0.83299837  1
  Rh  Rh0  1  0.50000100  0.24162167  0.00000000  1
  Rh  Rh1  1  0.50000100  0.75837833  0.00000000  1
  Rh  Rh2  1  0.99967372  0.24637658  0.17082131  1
  Rh  Rh3  1  0.99967372  0.75362442  0.17082131  1
  Rh  Rh4  1  0.49967936  0.25069559  0.33420069  1
  Rh  Rh5  1  0.49967936  0.74930241  0.33420069  1
  Rh  Rh6  1  0.00000000  0.25044336  0.50000000  1
  Rh  Rh7  1  0.00000000  0.74955664  0.50000000  1
  Rh  Rh8  1  0.50032164  0.25069559  0.66579931  1
  Rh  Rh9  1  0.50032164  0.74930241  0.66579931  1
  Rh  Rh10  1  0.00032828  0.24637658  0.82917869  1
  Rh  Rh11  1  0.00032828  0.75362442  0.82917869  1
loop_
_geom_bond_atom_site_label_1
_geom_bond_atom_site_label_2
_geom_bond_distance
_geom_bond_site_symmetry_2
Mg0 Rh1 2.626781 1_455
Mg0 Rh0 2.626781 1_455
Mg0 Rh1 2.626788 1_555
Mg0 Rh0 2.626788 1_555
Mg0 Rh10 2.656166 1_554
Mg0 Rh2 2.656166 1_455
Mg0 Rh11 2.656170 1_554
Mg0 Rh3 2.656170 1_455
Ga0 Rh0 2.568683 1_455
Ga0 Rh1 2.568683 1_445
Ga0 Rh0 2.568690 1_555
Ga0 Rh1 2.568690 1_545
Ga0 Rh11 2.631475 1_544
Ga0 Rh3 2.631475 1_445
Ga0 Rh10 2.631478 1_554
Ga0 Rh2 2.631478 1_455
Ga1 Rh2 2.610835 1_455
Ga1 Rh3 2.610839 1_455
Ga1 Rh2 2.611265 1_555
Ga1 Rh3 2.611269 1_555
Ga1 Rh1 2.613687 1_555
Ga1 Rh0 2.613687 1_555
Ga1 Rh5 2.623256 1_555
Ga1 Rh4 2.623263 1_555
Ga2 Rh3 2.559542 1_545
Ga2 Rh2 2.559545 1_555
Ga2 Rh6 2.586938 1_655
Ga2 Rh7 2.586938 1_645
Ga2 Rh4 2.599813 1_555
Ga2 Rh5 2.599820 1_545
Ga2 Rh4 2.599857 1_655
Ga2 Rh5 2.599864 1_645
Ga3 Rh9 2.588910 1_555
Ga3 Rh5 2.588910 1_555
Ga3 Rh8 2.588917 1_555
Ga3 Rh4 2.588917 1_555
Ga3 Rh7 2.595871 1_655
Ga3 Rh6 2.595871 1_655
Ga3 Rh7 2.595878 1_555
Ga3 Rh6 2.595878 1_555
Ga4 Rh11 2.559542 1_545
Ga4 Rh10 2.559545 1_555
Ga4 Rh6 2.586938 1_555
Ga4 Rh7 2.586938 1_545
Ga4 Rh8 2.599820 1_555
Ga4 Rh9 2.599827 1_545
Ga4 Rh8 2.599850 1_455
Ga4 Rh9 2.599857 1_445
Ga5 Rh10 2.610846 1_655
Ga5 Rh11 2.610849 1_655
Ga5 Rh10 2.611255 1_555
Ga5 Rh11 2.611259 1_555
Ga5 Rh1 2.613687 1_556
Ga5 Rh0 2.613687 1_556
Ga5 Rh9 2.623256 1_555
Ga5 Rh8 2.623263 1_555
Fe0 Rh0 2.575183 1_555
Fe0 Rh1 2.575183 1_545
Fe0 Rh3 2.585128 1_545
Fe0 Rh2 2.585131 1_555
Fe0 Rh3 2.585596 1_445
Fe0 Rh2 2.585599 1_455
Fe0 Rh4 2.608299 1_555
Fe0 Rh5 2.608306 1_545
Fe1 Rh2 2.569865 1_555
Fe1 Rh3 2.569869 1_555
Fe1 Rh5 2.594897 1_655
Fe1 Rh4 2.594904 1_655
Fe1 Rh5 2.595140 1_555
Fe1 Rh4 2.595147 1_555
Fe1 Rh7 2.599073 1_655
Fe1 Rh6 2.599073 1_655
Fe2 Rh8 2.593753 1_555
Fe2 Rh4 2.593753 1_555
Fe2 Rh9 2.593759 1_545
Fe2 Rh5 2.593760 1_545
Fe2 Rh6 2.598946 1_655
Fe2 Rh7 2.598946 1_645
Fe2 Rh6 2.598952 1_555
Fe2 Rh7 2.598952 1_545
Fe3 Rh10 2.569865 1_555
Fe3 Rh11 2.569869 1_555
Fe3 Rh9 2.594897 1_455
Fe3 Rh8 2.594904 1_455
Fe3 Rh9 2.595140 1_555
Fe3 Rh8 2.595147 1_555
Fe3 Rh7 2.599073 1_555
Fe3 Rh6 2.599073 1_555
Fe4 Rh0 2.575183 1_556
Fe4 Rh1 2.575183 1_546
Fe4 Rh11 2.585124 1_545
Fe4 Rh10 2.585128 1_555
Fe4 Rh11 2.585600 1_645
Fe4 Rh10 2.585603 1_655
Fe4 Rh8 2.608299 1_555
Fe4 Rh9 2.608306 1_545
