# generated using pymatgen
data_CsBaTaS4
_symmetry_space_group_name_H-M   'P 1'
_cell_length_a   7.19962009
_cell_length_b   9.63988052
_cell_length_c   12.61620505
_cell_angle_alpha   90.00000000
_cell_angle_beta   90.00000000
_cell_angle_gamma   90.00000000
_symmetry_Int_Tables_number   1
_chemical_formula_structural   CsBaTaS4
_chemical_formula_sum   'Cs4 Ba4 Ta4 S16'
_cell_volume   875.60850299
_cell_formula_units_Z   4
loop_
 _symmetry_equiv_pos_site_id
 _symmetry_equiv_pos_as_xyz
  1  'x, y, z'
loop_
 _atom_site_type_symbol
 _atom_site_label
 _atom_site_symmetry_multiplicity
 _atom_site_fract_x
 _atom_site_fract_y
 _atom_site_fract_z
 _atom_site_occupancy
  Cs  Cs0  1  0.75000000  0.36719216  0.08944546  1
  Cs  Cs1  1  0.25000000  0.13280784  0.58944546  1
  Cs  Cs2  1  0.75000000  0.86719216  0.41055454  1
  Cs  Cs3  1  0.25000000  0.63280784  0.91055454  1
  Ba  Ba0  1  0.75000000  0.01359657  0.82165564  1
  Ba  Ba1  1  0.25000000  0.48640343  0.32165564  1
  Ba  Ba2  1  0.75000000  0.51359657  0.67834436  1
  Ba  Ba3  1  0.25000000  0.98640343  0.17834436  1
  Ta  Ta0  1  0.75000000  0.27508751  0.41858976  1
  Ta  Ta1  1  0.25000000  0.22491249  0.91858976  1
  Ta  Ta2  1  0.75000000  0.77508751  0.08141024  1
  Ta  Ta3  1  0.25000000  0.72491249  0.58141024  1
  S  S0  1  0.75000000  0.19576791  0.58830823  1
  S  S1  1  0.25000000  0.30423209  0.08830823  1
  S  S2  1  0.75000000  0.69576791  0.91169177  1
  S  S3  1  0.25000000  0.80423209  0.41169177  1
  S  S4  1  0.75000000  0.01012379  0.08140204  1
  S  S5  1  0.25000000  0.48987621  0.58140204  1
  S  S6  1  0.75000000  0.51012379  0.41859796  1
  S  S7  1  0.25000000  0.98987621  0.91859796  1
  S  S8  1  0.00687039  0.19718612  0.33374468  1
  S  S9  1  0.99312961  0.30281388  0.83374468  1
  S  S10  1  0.49312961  0.69718612  0.16625532  1
  S  S11  1  0.50687039  0.80281388  0.66625532  1
  S  S12  1  0.99312961  0.80281388  0.66625532  1
  S  S13  1  0.00687039  0.69718612  0.16625532  1
  S  S14  1  0.50687039  0.30281388  0.83374468  1
  S  S15  1  0.49312961  0.19718612  0.33374468  1
loop_
_geom_bond_atom_site_label_1
_geom_bond_atom_site_label_2
_geom_bond_distance
_geom_bond_site_symmetry_2
Cs0 S4 3.443592 1_555
Cs0 S1 3.650644 1_655
Cs0 S1 3.650644 1_555
Cs0 S9 3.722377 1_554
Cs0 S14 3.722377 1_554
Cs0 S13 3.805080 1_655
Cs0 S10 3.805080 1_555
Cs0 S2 3.880950 1_554
Cs0 S8 3.950377 1_655
Cs0 S15 3.950377 1_555
Cs1 S5 3.443592 1_555
Cs1 S0 3.650644 1_555
Cs1 S0 3.650644 1_455
Cs1 S15 3.722377 1_555
Cs1 S8 3.722377 1_555
Cs1 S11 3.805080 1_545
Cs1 S12 3.805080 1_445
Cs1 S3 3.880950 1_545
Cs1 S14 3.950377 1_555
Cs1 S9 3.950377 1_455
Cs2 S6 3.443592 1_555
Cs2 S3 3.650644 1_655
Cs2 S3 3.650644 1_555
Cs2 S12 3.722377 1_555
Cs2 S11 3.722377 1_555
Cs2 S8 3.805080 1_665
Cs2 S15 3.805080 1_565
Cs2 S0 3.880950 1_565
Cs2 S13 3.950377 1_655
Cs2 S10 3.950377 1_555
Cs3 S7 3.443592 1_555
Cs3 S2 3.650644 1_455
Cs3 S2 3.650644 1_555
Cs3 S10 3.722377 1_556
Cs3 S13 3.722377 1_556
Cs3 S14 3.805080 1_555
Cs3 S9 3.805080 1_455
Cs3 S1 3.880950 1_556
Cs3 S11 3.950377 1_555
Cs3 S12 3.950377 1_455
Ba0 S2 3.267623 1_545
Ba0 S4 3.277185 1_556
Ba0 S9 3.295506 1_555
Ba0 S14 3.295506 1_555
Ba0 S12 3.322130 1_545
Ba0 S11 3.322130 1_545
Ba0 S0 3.427946 1_555
Ba0 S7 3.808773 1_545
Ba0 S7 3.808773 1_645
Ba1 S3 3.267623 1_555
Ba1 S5 3.277185 1_555
Ba1 S15 3.295506 1_555
Ba1 S8 3.295506 1_555
Ba1 S10 3.322130 1_555
Ba1 S13 3.322130 1_555
Ba1 S1 3.427946 1_555
Ba1 S6 3.808773 1_455
Ba1 S6 3.808773 1_555
Ba2 S0 3.267623 1_555
Ba2 S6 3.277185 1_555
Ba2 S12 3.295506 1_555
Ba2 S11 3.295506 1_555
Ba2 S9 3.322130 1_555
Ba2 S14 3.322130 1_555
Ba2 S2 3.427946 1_555
Ba2 S5 3.808773 1_555
Ba2 S5 3.808773 1_655
Ba3 S1 3.267623 1_565
Ba3 S7 3.277185 1_554
Ba3 S10 3.295506 1_555
Ba3 S13 3.295506 1_555
Ba3 S15 3.322130 1_565
Ba3 S8 3.322130 1_565
Ba3 S3 3.427946 1_555
Ba3 S4 3.808773 1_565
Ba3 S4 3.808773 1_465
S0 Ta0 2.273634 1_555
S1 Ta1 2.273634 1_554
S2 Ta2 2.273634 1_556
S3 Ta3 2.273634 1_555
S4 Ta2 2.265722 1_545
S5 Ta3 2.265722 1_555
S6 Ta0 2.265722 1_555
S7 Ta1 2.265722 1_565
S8 Ta0 2.264931 1_455
S9 Ta1 2.264931 1_655
S10 Ta2 2.264931 1_555
S11 Ta3 2.264931 1_555
S12 Ta3 2.264931 1_655
S13 Ta2 2.264931 1_455
S14 Ta1 2.264931 1_555
S15 Ta0 2.264931 1_555
