# generated using pymatgen
data_TaCd6IO12
_symmetry_space_group_name_H-M   'P 1'
_cell_length_a   5.70799031
_cell_length_b   5.54431448
_cell_length_c   9.74329666
_cell_angle_alpha   55.65598639
_cell_angle_beta   89.85150121
_cell_angle_gamma   90.34741666
_symmetry_Int_Tables_number   1
_chemical_formula_structural   TaCd6IO12
_chemical_formula_sum   'Ta1 Cd6 I1 O12'
_cell_volume   254.57835033
_cell_formula_units_Z   1
loop_
 _symmetry_equiv_pos_site_id
 _symmetry_equiv_pos_as_xyz
  1  'x, y, z'
loop_
 _atom_site_type_symbol
 _atom_site_label
 _atom_site_symmetry_multiplicity
 _atom_site_fract_x
 _atom_site_fract_y
 _atom_site_fract_z
 _atom_site_occupancy
  Ta  Ta0  1  0.00000000  0.00000000  0.00000000  1
  Cd  Cd0  1  0.95533357  0.26690935  0.23110077  1
  Cd  Cd1  1  0.44505327  0.77679530  0.24205451  1
  Cd  Cd2  1  0.04466643  0.73309065  0.76889923  1
  Cd  Cd3  1  0.55494673  0.22320470  0.75794549  1
  Cd  Cd4  1  0.00000000  0.50000000  0.50000000  1
  Cd  Cd5  1  0.50000000  0.50000000  0.00000000  1
  I  I0  1  0.50000000  0.00000000  0.50000000  1
  O  O0  1  0.29050808  0.90354653  0.92864594  1
  O  O1  1  0.77030182  0.06873660  0.58578192  1
  O  O2  1  0.70949192  0.09645347  0.07135406  1
  O  O3  1  0.22969818  0.93126340  0.41421808  1
  O  O4  1  0.17501997  0.25824786  0.04317763  1
  O  O5  1  0.67342735  0.78632025  0.43932940  1
  O  O6  1  0.82498003  0.74175214  0.95682237  1
  O  O7  1  0.32657265  0.21367975  0.56067060  1
  O  O8  1  0.42592837  0.65650193  0.71117616  1
  O  O9  1  0.93404680  0.34318909  0.76355813  1
  O  O10  1  0.57407163  0.34349807  0.28882384  1
  O  O11  1  0.06595320  0.65681091  0.23644187  1
loop_
_geom_bond_atom_site_label_1
_geom_bond_atom_site_label_2
_geom_bond_distance
_geom_bond_site_symmetry_2
Cd0 O4 2.239489 1_655
Cd0 O11 2.277070 1_655
Cd0 O3 2.324316 1_645
Cd0 O10 2.346692 1_555
Cd0 O6 2.592674 1_554
Cd0 O2 2.634349 1_555
Cd0 O5 2.763453 1_545
Cd1 O2 2.194122 1_565
Cd1 O11 2.269843 1_555
Cd1 O10 2.304173 1_555
Cd1 O5 2.350156 1_555
Cd1 O3 2.584825 1_555
Cd1 O4 2.735881 1_565
Cd2 O6 2.239489 1_455
Cd2 O9 2.277070 1_455
Cd2 O1 2.324316 1_465
Cd2 O8 2.346692 1_555
Cd2 O4 2.592674 1_556
Cd2 O0 2.634349 1_555
Cd2 O7 2.763453 1_565
Cd3 O0 2.194122 1_545
Cd3 O9 2.269843 1_555
Cd3 O8 2.304173 1_555
Cd3 O7 2.350156 1_555
Cd3 O1 2.584825 1_555
Cd3 O6 2.735881 1_545
Cd4 O9 2.227956 1_455
Cd4 O11 2.227956 1_555
Cd4 O5 2.308028 1_455
Cd4 O7 2.308028 1_555
Cd4 O3 2.415815 1_555
Cd4 O1 2.415815 1_455
Cd5 O6 2.178085 1_554
Cd5 O4 2.178085 1_555
Cd5 O0 2.280526 1_554
Cd5 O2 2.280526 1_555
Cd5 O10 2.471093 1_555
Cd5 O8 2.471093 1_554
I0 O7 1.879970 1_555
I0 O5 1.879970 1_545
I0 O1 1.892940 1_555
I0 O3 1.892940 1_545
I0 O8 1.898321 1_545
I0 O10 1.898321 1_555
O0 Ta0 1.985766 1_566
O2 Ta0 1.985766 1_655
O4 Ta0 1.972196 1_555
O6 Ta0 1.972196 1_666
O9 Ta0 2.033865 1_656
O11 Ta0 2.033865 1_565
