# generated using pymatgen
data_Y6Nb3Al13Ru7
_symmetry_space_group_name_H-M   'P 1'
_cell_length_a   9.01003121
_cell_length_b   9.01003125
_cell_length_c   9.01003185
_cell_angle_alpha   59.74890146
_cell_angle_beta   59.74890655
_cell_angle_gamma   59.74890303
_symmetry_Int_Tables_number   1
_chemical_formula_structural   Y6Nb3Al13Ru7
_chemical_formula_sum   'Y6 Nb3 Al13 Ru7'
_cell_volume   514.25737405
_cell_formula_units_Z   1
loop_
 _symmetry_equiv_pos_site_id
 _symmetry_equiv_pos_as_xyz
  1  'x, y, z'
loop_
 _atom_site_type_symbol
 _atom_site_label
 _atom_site_symmetry_multiplicity
 _atom_site_fract_x
 _atom_site_fract_y
 _atom_site_fract_z
 _atom_site_occupancy
  Y  Y0  1  0.70889030  0.70889030  0.28537801  1
  Y  Y1  1  0.29291074  0.70853242  0.29291074  1
  Y  Y2  1  0.70853242  0.29291074  0.29291074  1
  Y  Y3  1  0.29291074  0.29291074  0.70853242  1
  Y  Y4  1  0.70889030  0.28537801  0.70889030  1
  Y  Y5  1  0.28537801  0.70889030  0.70889030  1
  Nb  Nb0  1  0.87806949  0.87806949  0.36070764  1
  Nb  Nb1  1  0.87806949  0.36070764  0.87806949  1
  Nb  Nb2  1  0.36070764  0.87806949  0.87806949  1
  Al  Al0  1  0.88120519  0.88120519  0.88120519  1
  Al  Al1  1  0.12036757  0.12036757  0.63910906  1
  Al  Al2  1  0.12036757  0.63910906  0.12036757  1
  Al  Al3  1  0.63910906  0.12036757  0.12036757  1
  Al  Al4  1  0.12101646  0.12101646  0.12101646  1
  Al  Al5  1  0.67258539  0.67258539  0.98889294  1
  Al  Al6  1  0.67258539  0.98889294  0.67258539  1
  Al  Al7  1  0.98889294  0.67258539  0.67258539  1
  Al  Al8  1  0.66890299  0.66890299  0.66890299  1
  Al  Al9  1  0.32979339  0.32979339  0.01286290  1
  Al  Al10  1  0.32979339  0.01286290  0.32979339  1
  Al  Al11  1  0.01286290  0.32979339  0.32979339  1
  Al  Al12  1  0.32993949  0.32993949  0.32993949  1
  Ru  Ru0  1  0.00214354  0.00214354  0.00214354  1
  Ru  Ru1  1  0.99810875  0.99810875  0.49777417  1
  Ru  Ru2  1  0.50342643  0.99523004  0.50342643  1
  Ru  Ru3  1  0.99523004  0.50342643  0.50342643  1
  Ru  Ru4  1  0.50342643  0.50342643  0.99523004  1
  Ru  Ru5  1  0.99810875  0.49777417  0.99810875  1
  Ru  Ru6  1  0.49777417  0.99810875  0.99810875  1
loop_
_geom_bond_atom_site_label_1
_geom_bond_atom_site_label_2
_geom_bond_distance
_geom_bond_site_symmetry_2
Nb0 Ru0 2.630196 1_665
Nb0 Ru3 2.750648 1_555
Nb0 Ru2 2.750648 1_555
Nb0 Ru1 2.781181 1_555
Nb0 Y0 3.087668 1_555
Nb0 Y2 3.092573 1_565
Nb0 Y1 3.092573 1_655
Nb1 Ru0 2.630196 1_656
Nb1 Ru4 2.750648 1_555
Nb1 Ru3 2.750649 1_555
Nb1 Ru5 2.781181 1_555
Nb1 Y4 3.087668 1_555
Nb1 Y3 3.092573 1_655
Nb1 Y2 3.092573 1_556
Nb2 Ru0 2.630196 1_566
Nb2 Ru4 2.750648 1_555
Nb2 Ru2 2.750649 1_555
Nb2 Ru6 2.781181 1_555
Nb2 Y5 3.087668 1_555
Nb2 Y3 3.092573 1_565
Nb2 Y1 3.092573 1_556
Al0 Ru0 2.674161 1_666
Al0 Ru5 2.817616 1_555
Al0 Ru6 2.817616 1_555
Al0 Ru1 2.817616 1_555
Al0 Y4 3.019531 1_565
Al0 Y5 3.019531 1_655
Al0 Y0 3.019531 1_556
Al0 Al2 3.041625 1_656
Al0 Al1 3.041625 1_665
Al0 Al3 3.041625 1_566
Al1 Ru0 2.662784 1_556
Al1 Al11 2.800988 1_555
Al1 Al10 2.800988 1_555
Al1 Al12 2.807764 1_555
Al1 Ru3 2.809687 1_455
Al1 Ru2 2.809687 1_545
Al1 Ru1 2.845678 1_445
Al1 Nb2 3.047828 1_545
Al1 Nb1 3.047828 1_455
Al1 Y5 3.064331 1_545
Al1 Y4 3.064331 1_455
Al1 Y3 3.101564 1_555
Al2 Ru0 2.662784 1_565
Al2 Al9 2.800988 1_555
Al2 Ru4 2.809687 1_554
Al2 Ru3 2.809687 1_455
Al2 Ru5 2.845678 1_454
Al2 Nb2 3.047828 1_554
Al2 Nb0 3.047828 1_455
Al2 Y0 3.064331 1_455
Al2 Y5 3.064331 1_554
Al2 Y1 3.101564 1_555
Al3 Ru0 2.662784 1_655
Al3 Al9 2.800988 1_555
Al3 Ru4 2.809687 1_554
Al3 Ru2 2.809687 1_545
Al3 Ru6 2.845678 1_544
Al3 Nb0 3.047828 1_545
Al3 Nb1 3.047828 1_554
Al3 Y0 3.064331 1_545
Al3 Y4 3.064331 1_554
Al3 Y2 3.101564 1_555
Al4 Ru0 2.628491 1_555
Al4 Ru5 2.763376 1_454
Al4 Ru6 2.763376 1_544
Al4 Ru1 2.763376 1_445
Al4 Y1 3.070394 1_545
Al4 Y2 3.070395 1_455
Al4 Y3 3.070395 1_554
Al5 Ru5 2.559107 1_555
Al5 Ru6 2.559107 1_555
Al5 Ru4 2.610440 1_555
Al5 Y0 3.036240 1_556
Al5 Y2 3.105896 1_556
Al5 Y1 3.105896 1_556
Al6 Ru1 2.559107 1_555
Al6 Ru6 2.559107 1_555
Al6 Ru2 2.610440 1_555
Al6 Y4 3.036240 1_565
Al6 Y3 3.105896 1_565
Al6 Y2 3.105896 1_565
Al7 Ru1 2.559107 1_555
Al7 Ru5 2.559107 1_555
Al7 Ru3 2.610440 1_555
Al7 Y5 3.036240 1_655
Al7 Y3 3.105896 1_655
Al7 Y1 3.105896 1_655
Al8 Ru2 2.548847 1_555
Al8 Ru3 2.548847 1_555
Al8 Ru4 2.548847 1_555
Al8 Y4 3.134088 1_555
Al8 Y5 3.134088 1_555
Al8 Y0 3.134089 1_555
Al9 Ru5 2.622902 1_454
Al9 Ru6 2.622902 1_544
Al9 Ru4 2.623993 1_554
Al9 Y5 3.103114 1_554
Al9 Y4 3.103114 1_554
Al9 Y3 3.112409 1_554
Al10 Ru1 2.622902 1_445
Al10 Ru6 2.622902 1_544
Al10 Ru2 2.623994 1_545
Al10 Al3 2.800988 1_555
Al10 Y0 3.103114 1_545
Al10 Y5 3.103114 1_545
Al10 Y1 3.112409 1_545
Al11 Ru1 2.622902 1_445
Al11 Ru5 2.622902 1_454
Al11 Ru3 2.623994 1_455
Al11 Al2 2.800988 1_555
Al11 Y0 3.103114 1_455
Al11 Y4 3.103114 1_455
Al11 Y2 3.112409 1_455
Al12 Ru2 2.635120 1_545
Al12 Ru3 2.635121 1_455
Al12 Ru4 2.635121 1_554
Al12 Al2 2.807764 1_555
Al12 Al3 2.807764 1_555
Al12 Y1 3.110826 1_555
Al12 Y2 3.110826 1_555
Al12 Y3 3.110826 1_555
Ru1 Y2 3.193648 1_565
Ru1 Y1 3.193649 1_655
Ru1 Y5 3.206013 1_655
Ru1 Y4 3.206013 1_565
Ru2 Y2 3.247003 1_565
Ru2 Y3 3.247003 1_565
Ru2 Y5 3.251623 1_555
Ru2 Y0 3.251623 1_555
Ru3 Y3 3.247003 1_655
Ru3 Y1 3.247003 1_655
Ru3 Y0 3.251623 1_555
Ru3 Y4 3.251623 1_555
Ru4 Y2 3.247003 1_556
Ru4 Y1 3.247003 1_556
Ru4 Y5 3.251623 1_555
Ru4 Y4 3.251623 1_555
Ru5 Y2 3.193649 1_556
Ru5 Y3 3.193649 1_655
Ru5 Y5 3.206013 1_655
Ru5 Y0 3.206013 1_556
Ru6 Y3 3.193648 1_565
Ru6 Y1 3.193648 1_556
Ru6 Y0 3.206013 1_556
Ru6 Y4 3.206013 1_565
