# generated using pymatgen
data_Zr10GaNiSb6
_symmetry_space_group_name_H-M   'P 1'
_cell_length_a   8.62487875
_cell_length_b   8.62473242
_cell_length_c   5.83607172
_cell_angle_alpha   89.99923077
_cell_angle_beta   90.00011287
_cell_angle_gamma   119.99695037
_symmetry_Int_Tables_number   1
_chemical_formula_structural   Zr10GaNiSb6
_chemical_formula_sum   'Zr10 Ga1 Ni1 Sb6'
_cell_volume   375.97868564
_cell_formula_units_Z   1
loop_
 _symmetry_equiv_pos_site_id
 _symmetry_equiv_pos_as_xyz
  1  'x, y, z'
loop_
 _atom_site_type_symbol
 _atom_site_label
 _atom_site_symmetry_multiplicity
 _atom_site_fract_x
 _atom_site_fract_y
 _atom_site_fract_z
 _atom_site_occupancy
  Zr  Zr0  1  0.73837044  0.73835710  0.74291298  1
  Zr  Zr1  1  0.26164603  0.99996170  0.74292433  1
  Zr  Zr2  1  0.99997809  0.26167195  0.74293888  1
  Zr  Zr3  1  0.26162956  0.26164290  0.25708702  1
  Zr  Zr4  1  0.73835397  0.00003830  0.25707567  1
  Zr  Zr5  1  0.00002191  0.73832805  0.25706112  1
  Zr  Zr6  1  0.66672182  0.33332360  0.99999863  1
  Zr  Zr7  1  0.33327818  0.66667640  0.00000137  1
  Zr  Zr8  1  0.33327612  0.66667290  0.50000093  1
  Zr  Zr9  1  0.66672388  0.33332710  0.49999907  1
  Ga  Ga0  1  0.00000000  0.00000000  0.00000000  1
  Ni  Ni0  1  0.00000000  0.00000000  0.50000000  1
  Sb  Sb0  1  0.38796253  0.38795868  0.75102797  1
  Sb  Sb1  1  0.61202409  0.99998689  0.75102898  1
  Sb  Sb2  1  0.99999384  0.61202623  0.75102605  1
  Sb  Sb3  1  0.61203747  0.61204132  0.24897203  1
  Sb  Sb4  1  0.38797591  0.00001311  0.24897102  1
  Sb  Sb5  1  0.00000616  0.38797377  0.24897395  1
loop_
_geom_bond_atom_site_label_1
_geom_bond_atom_site_label_2
_geom_bond_distance
_geom_bond_site_symmetry_2
Ga0 Zr3 2.709936 1_555
Ga0 Zr0 2.709936 1_444
Ga0 Zr1 2.710025 1_544
Ga0 Zr4 2.710025 1_455
Ga0 Zr5 2.710054 1_545
Ga0 Zr2 2.710054 1_454
Ni0 Zr3 2.664999 1_555
Ni0 Zr0 2.664999 1_445
Ni0 Zr1 2.665185 1_545
Ni0 Zr4 2.665185 1_455
Ni0 Zr5 2.665346 1_545
Ni0 Zr2 2.665346 1_455
Sb0 Zr1 2.956679 1_545
Sb0 Zr2 2.956683 1_455
Sb0 Zr0 3.022669 1_555
Sb0 Zr7 3.040735 1_556
Sb0 Zr6 3.040815 1_555
Sb0 Zr8 3.046433 1_555
Sb0 Zr9 3.046583 1_555
Sb0 Zr3 3.081729 1_555
Sb0 Zr3 3.147960 1_556
Sb1 Zr0 2.956381 1_555
Sb1 Zr2 2.956514 1_565
Sb1 Zr1 3.022230 1_555
Sb1 Zr6 3.040232 1_565
Sb1 Zr7 3.040474 1_556
Sb1 Zr9 3.045981 1_565
Sb1 Zr8 3.046280 1_555
Sb1 Zr4 3.081711 1_565
Sb1 Zr4 3.147827 1_566
Sb2 Zr0 2.956250 1_555
Sb2 Zr1 2.956304 1_655
Sb2 Zr2 3.022013 1_555
Sb2 Zr7 3.040013 1_656
Sb2 Zr6 3.040190 1_555
Sb2 Zr8 3.045743 1_655
Sb2 Zr9 3.045945 1_555
Sb2 Zr5 3.081702 1_655
Sb2 Zr5 3.147724 1_656
Sb3 Zr4 2.956679 1_565
Sb3 Zr5 2.956683 1_655
Sb3 Zr3 3.022669 1_555
Sb3 Zr6 3.040735 1_554
Sb3 Zr7 3.040815 1_555
Sb3 Zr9 3.046433 1_555
Sb3 Zr8 3.046583 1_555
Sb3 Zr0 3.081729 1_555
Sb3 Zr0 3.147960 1_554
Sb4 Zr3 2.956381 1_555
Sb4 Zr5 2.956514 1_545
Sb4 Zr4 3.022230 1_555
Sb4 Zr7 3.040232 1_545
Sb4 Zr6 3.040474 1_554
Sb4 Zr8 3.045981 1_545
Sb4 Zr9 3.046280 1_555
Sb4 Zr1 3.081711 1_545
Sb4 Zr1 3.147827 1_544
Sb5 Zr3 2.956250 1_555
Sb5 Zr4 2.956304 1_455
Sb5 Zr5 3.022013 1_555
Sb5 Zr6 3.040013 1_454
Sb5 Zr7 3.040190 1_555
Sb5 Zr9 3.045743 1_455
Sb5 Zr8 3.045945 1_555
Sb5 Zr2 3.081702 1_455
Sb5 Zr2 3.147724 1_454
