# generated using pymatgen
data_YHf(GaCu)2
_symmetry_space_group_name_H-M   'P 1'
_cell_length_a   4.23621444
_cell_length_b   4.23621440
_cell_length_c   6.82320503
_cell_angle_alpha   90.00000000
_cell_angle_beta   90.00000000
_cell_angle_gamma   120.00000033
_symmetry_Int_Tables_number   1
_chemical_formula_structural   YHf(GaCu)2
_chemical_formula_sum   'Y1 Hf1 Ga2 Cu2'
_cell_volume   106.04126989
_cell_formula_units_Z   1
loop_
 _symmetry_equiv_pos_site_id
 _symmetry_equiv_pos_as_xyz
  1  'x, y, z'
loop_
 _atom_site_type_symbol
 _atom_site_label
 _atom_site_symmetry_multiplicity
 _atom_site_fract_x
 _atom_site_fract_y
 _atom_site_fract_z
 _atom_site_occupancy
  Y  Y0  1  0.00000000  0.00000000  0.50000000  1
  Hf  Hf0  1  0.00000000  0.00000000  0.00000000  1
  Ga  Ga0  1  0.33333300  0.66666700  0.78314335  1
  Ga  Ga1  1  0.66666700  0.33333300  0.21685665  1
  Cu  Cu0  1  0.33333300  0.66666700  0.19896523  1
  Cu  Cu1  1  0.66666700  0.33333300  0.80103477  1
loop_
_geom_bond_atom_site_label_1
_geom_bond_atom_site_label_2
_geom_bond_distance
_geom_bond_site_symmetry_2
Ga0 Hf0 2.858533 1_566
Ga0 Hf0 2.858536 1_556
Ga0 Hf0 2.858536 1_666
Ga0 Y0 3.116767 1_565
Ga0 Y0 3.116770 1_555
Ga0 Y0 3.116770 1_665
Ga1 Hf0 2.858533 1_655
Ga1 Hf0 2.858536 1_665
Ga1 Hf0 2.858536 1_555
Ga1 Y0 3.116767 1_655
Ga1 Y0 3.116770 1_665
Ga1 Y0 3.116770 1_555
Cu0 Ga1 2.448822 1_565
Cu0 Ga1 2.448822 1_455
Cu0 Ga1 2.448829 1_555
Cu0 Hf0 2.797293 1_565
Cu0 Hf0 2.797297 1_555
Cu0 Hf0 2.797297 1_665
Cu0 Ga0 2.837238 1_554
Cu0 Y0 3.193874 1_565
Cu0 Y0 3.193877 1_555
Cu0 Y0 3.193877 1_665
Cu1 Ga0 2.448822 1_545
Cu1 Ga0 2.448822 1_655
Cu1 Ga0 2.448829 1_555
Cu1 Hf0 2.797293 1_656
Cu1 Hf0 2.797297 1_666
Cu1 Hf0 2.797297 1_556
Cu1 Ga1 2.837238 1_556
Cu1 Y0 3.193874 1_655
Cu1 Y0 3.193877 1_665
Cu1 Y0 3.193877 1_555
