# generated using pymatgen
data_NaLi6BiO6
_symmetry_space_group_name_H-M   'P 1'
_cell_length_a   5.39016249
_cell_length_b   5.39016248
_cell_length_c   5.39016266
_cell_angle_alpha   101.49462980
_cell_angle_beta   101.49462369
_cell_angle_gamma   101.49463283
_symmetry_Int_Tables_number   1
_chemical_formula_structural   NaLi6BiO6
_chemical_formula_sum   'Na1 Li6 Bi1 O6'
_cell_volume   145.65444623
_cell_formula_units_Z   1
loop_
 _symmetry_equiv_pos_site_id
 _symmetry_equiv_pos_as_xyz
  1  'x, y, z'
loop_
 _atom_site_type_symbol
 _atom_site_label
 _atom_site_symmetry_multiplicity
 _atom_site_fract_x
 _atom_site_fract_y
 _atom_site_fract_z
 _atom_site_occupancy
  Na  Na0  1  0.50000000  0.50000000  0.50000000  1
  Li  Li0  1  0.00000000  0.34531194  0.65468806  1
  Li  Li1  1  0.65468806  1.00000000  0.34531194  1
  Li  Li2  1  0.65468806  0.34531194  0.00000000  1
  Li  Li3  1  0.34531194  0.00000000  0.65468806  1
  Li  Li4  1  1.00000000  0.65468806  0.34531194  1
  Li  Li5  1  0.34531194  0.65468806  1.00000000  1
  Bi  Bi0  1  0.00000000  0.00000000  0.00000000  1
  O  O0  1  0.28188477  0.90833777  0.28188477  1
  O  O1  1  0.90833777  0.28188477  0.28188477  1
  O  O2  1  0.71811523  0.71811523  0.09166223  1
  O  O3  1  0.71811523  0.09166223  0.71811523  1
  O  O4  1  0.09166223  0.71811523  0.71811523  1
  O  O5  1  0.28188477  0.28188477  0.90833777  1
loop_
_geom_bond_atom_site_label_1
_geom_bond_atom_site_label_2
_geom_bond_distance
_geom_bond_site_symmetry_2
Na0 O2 3.020037 1_555
Na0 O5 3.020037 1_555
Na0 O4 3.020037 1_555
Na0 O1 3.020037 1_555
Na0 O0 3.020037 1_555
Na0 O3 3.020037 1_555
Na0 O3 3.065222 1_565
Na0 O0 3.065222 1_545
Na0 O4 3.065222 1_655
Na0 O1 3.065222 1_455
Na0 O2 3.065222 1_556
Na0 O5 3.065222 1_554
Li0 O4 1.913672 1_555
Li0 O1 1.913673 1_455
Li0 O3 1.964724 1_455
Li0 O5 1.964724 1_555
Li0 Na0 2.988472 1_555
Li0 Na0 2.988472 1_455
Li1 O0 1.913672 1_555
Li1 O3 1.913673 1_565
Li1 O1 1.964724 1_565
Li1 O2 1.964724 1_555
Li1 Na0 2.988472 1_555
Li1 Na0 2.988472 1_565
Li2 O2 1.913672 1_555
Li2 O5 1.913672 1_554
Li2 O3 1.964724 1_554
Li2 O1 1.964724 1_555
Li2 Na0 2.988472 1_555
Li2 Na0 2.988472 1_554
Li3 O3 1.913672 1_555
Li3 O0 1.913673 1_545
Li3 O4 1.964724 1_545
Li3 O5 1.964724 1_555
Li3 Na0 2.988472 1_555
Li3 Na0 2.988472 1_545
Li4 O1 1.913672 1_555
Li4 O4 1.913673 1_655
Li4 O0 1.964724 1_655
Li4 O2 1.964724 1_555
Li4 Na0 2.988472 1_555
Li4 Na0 2.988472 1_655
Li5 O5 1.913672 1_555
Li5 O2 1.913672 1_556
Li5 O0 1.964724 1_556
Li5 O4 1.964724 1_555
Li5 Na0 2.988472 1_555
Li5 Na0 2.988472 1_556
Bi0 O5 2.130629 1_554
Bi0 O2 2.130629 1_445
Bi0 O1 2.130630 1_455
Bi0 O4 2.130630 1_544
Bi0 O0 2.130630 1_545
Bi0 O3 2.130630 1_454
