# generated using pymatgen
data_SrCdSn5Ir4
_symmetry_space_group_name_H-M   'P 1'
_cell_length_a   7.12204710
_cell_length_b   6.89211162
_cell_length_c   6.97359052
_cell_angle_alpha   119.77043853
_cell_angle_beta   120.85887383
_cell_angle_gamma   89.73545904
_symmetry_Int_Tables_number   1
_chemical_formula_structural   SrCdSn5Ir4
_chemical_formula_sum   'Sr1 Cd1 Sn5 Ir4'
_cell_volume   240.27292739
_cell_formula_units_Z   1
loop_
 _symmetry_equiv_pos_site_id
 _symmetry_equiv_pos_as_xyz
  1  'x, y, z'
loop_
 _atom_site_type_symbol
 _atom_site_label
 _atom_site_symmetry_multiplicity
 _atom_site_fract_x
 _atom_site_fract_y
 _atom_site_fract_z
 _atom_site_occupancy
  Sr  Sr0  1  0.99755730  0.99213605  0.00000433  1
  Cd  Cd0  1  0.89101823  0.52440769  0.00005270  1
  Sn  Sn0  1  0.53566802  0.87688197  0.99996733  1
  Sn  Sn1  1  0.46317771  0.46853384  0.34524613  1
  Sn  Sn2  1  0.50145314  0.00511673  0.50449134  1
  Sn  Sn3  1  0.99691787  0.50061052  0.49550911  1
  Sn  Sn4  1  0.11797760  0.12321742  0.65473009  1
  Ir  Ir0  1  0.58337826  0.25019586  0.00002338  1
  Ir  Ir1  1  0.26335513  0.59635469  0.99997272  1
  Ir  Ir2  1  0.75278439  0.75933689  0.35611713  1
  Ir  Ir3  1  0.39671135  0.40320734  0.64388375  1
loop_
_geom_bond_atom_site_label_1
_geom_bond_atom_site_label_2
_geom_bond_distance
_geom_bond_site_symmetry_2
Cd0 Ir1 2.700346 1_654
Cd0 Ir2 2.873498 1_555
Cd0 Ir3 2.873563 1_554
Cd0 Ir0 2.899949 1_555
Cd0 Sn3 3.228290 1_555
Cd0 Sn2 3.228475 1_554
Cd0 Sr0 3.315343 1_555
Cd0 Sr0 3.742564 1_545
Sn0 Sr0 3.387549 1_556
Sn0 Sr0 3.910416 1_456
Sn1 Sr0 3.410892 1_445
Sn1 Sr0 3.780607 1_556
Sn2 Sr0 3.464481 1_445
Sn2 Sr0 3.494535 1_546
Sn3 Sr0 3.464360 1_556
Sn3 Sr0 3.494573 1_545
Sn4 Sr0 3.411005 1_446
Sn4 Sr0 3.780488 1_445
Ir0 Sn0 2.596598 1_544
Ir0 Sn3 2.697671 1_555
Ir0 Sn2 2.698012 1_554
Ir0 Sn4 2.701313 1_554
Ir0 Sn1 2.701453 1_555
Ir0 Ir2 2.871921 1_555
Ir0 Ir3 2.872023 1_554
Ir0 Sr0 3.437498 1_545
Ir1 Sn1 2.679277 1_556
Ir1 Sn4 2.679483 1_555
Ir1 Sn3 2.696333 1_455
Ir1 Sn2 2.696580 1_566
Ir1 Sn0 2.744864 1_555
Ir1 Ir2 2.822266 1_556
Ir1 Ir3 2.822342 1_555
Ir1 Sr0 3.313067 1_456
Ir2 Sn4 2.590108 1_665
Ir2 Sn3 2.665825 1_555
Ir2 Sn0 2.694931 1_554
Ir2 Sn2 2.697325 1_565
Ir2 Sn1 2.829120 1_555
Ir2 Sr0 3.258332 1_556
Ir3 Sn1 2.590050 1_555
Ir3 Sn2 2.665646 1_555
Ir3 Sn0 2.694779 1_555
Ir3 Sn3 2.697865 1_455
Ir3 Sn4 2.829265 1_555
Ir3 Sr0 3.258315 1_445
