# generated using pymatgen
data_OsRu3Pb4O13
_symmetry_space_group_name_H-M   'P 1'
_cell_length_a   7.30043861
_cell_length_b   7.30857446
_cell_length_c   7.30043874
_cell_angle_alpha   60.03681666
_cell_angle_beta   59.99999941
_cell_angle_gamma   60.03681176
_symmetry_Int_Tables_number   1
_chemical_formula_structural   OsRu3Pb4O13
_chemical_formula_sum   'Os1 Ru3 Pb4 O13'
_cell_volume   275.58592213
_cell_formula_units_Z   1
loop_
 _symmetry_equiv_pos_site_id
 _symmetry_equiv_pos_as_xyz
  1  'x, y, z'
loop_
 _atom_site_type_symbol
 _atom_site_label
 _atom_site_symmetry_multiplicity
 _atom_site_fract_x
 _atom_site_fract_y
 _atom_site_fract_z
 _atom_site_occupancy
  Os  Os0  1  0.87479769  0.37560694  0.87479769  1
  Ru  Ru0  1  0.87471269  0.87461433  0.37595929  1
  Ru  Ru1  1  0.87471269  0.87461433  0.87471269  1
  Ru  Ru2  1  0.37595929  0.87461433  0.87471269  1
  Pb  Pb0  1  0.88231909  0.37265455  0.37251368  1
  Pb  Pb1  1  0.37251368  0.37265455  0.37251368  1
  Pb  Pb2  1  0.37251368  0.37265455  0.88231909  1
  Pb  Pb3  1  0.37314488  0.88056535  0.37314488  1
  O  O0  1  0.19972588  0.79765205  0.80289518  1
  O  O1  1  0.19972588  0.79765205  0.19972588  1
  O  O2  1  0.55416494  0.94917081  0.94250031  1
  O  O3  1  0.55416494  0.94917081  0.55416494  1
  O  O4  1  0.94250031  0.94917081  0.55416494  1
  O  O5  1  0.80289518  0.79765205  0.19972588  1
  O  O6  1  0.55847434  0.55557181  0.94297742  1
  O  O7  1  0.80284019  0.19896658  0.80284019  1
  O  O8  1  0.80284019  0.19896658  0.19535303  1
  O  O9  1  0.94297742  0.55557181  0.94297742  1
  O  O10  1  0.94297742  0.55557181  0.55847434  1
  O  O11  1  0.19535303  0.19896658  0.80284019  1
  O  O12  1  0.50068755  0.49793834  0.50068755  1
loop_
_geom_bond_atom_site_label_1
_geom_bond_atom_site_label_2
_geom_bond_distance
_geom_bond_site_symmetry_2
O0 Ru1 1.984586 1_455
O0 Ru2 1.984586 1_555
O0 Pb2 2.567883 1_555
O0 Pb3 2.590054 1_555
O1 Ru0 1.984586 1_455
O1 Ru2 1.984586 1_554
O1 Pb1 2.567885 1_555
O1 Pb3 2.590060 1_555
O2 Ru1 1.963574 1_555
O2 Ru2 1.963587 1_555
O2 Pb2 2.579827 1_565
O2 Pb3 2.610449 1_556
O3 Ru0 1.963577 1_555
O3 Ru2 1.963577 1_555
O3 Pb1 2.579827 1_565
O3 Pb3 2.610455 1_555
O4 Ru1 1.963574 1_555
O4 Ru0 1.963587 1_555
O4 Pb0 2.579827 1_565
O4 Pb3 2.610448 1_655
O5 Ru1 1.984586 1_554
O5 Ru0 1.984586 1_555
O5 Pb0 2.567883 1_555
O5 Pb3 2.590054 1_555
O6 Os0 1.944502 1_555
O6 Ru2 1.964847 1_555
O6 Pb1 2.613772 1_556
O6 Pb2 2.613772 1_555
O7 Os0 1.961988 1_555
O7 Ru1 1.990115 1_545
O7 Pb2 2.597486 1_555
O7 Pb0 2.597486 1_555
O8 Os0 1.961988 1_554
O8 Ru0 1.990114 1_545
O8 Pb1 2.597487 1_555
O8 Pb0 2.597493 1_555
O9 Os0 1.944508 1_555
O9 Ru1 1.964844 1_555
O9 Pb2 2.613772 1_655
O9 Pb0 2.613772 1_556
O10 Os0 1.944502 1_555
O10 Ru0 1.964847 1_555
O10 Pb1 2.613772 1_655
O10 Pb0 2.613772 1_555
O11 Os0 1.961988 1_455
O11 Ru2 1.990114 1_545
O11 Pb1 2.597488 1_555
O11 Pb2 2.597493 1_555
O12 Pb0 2.275265 1_555
O12 Pb2 2.275266 1_555
O12 Pb1 2.275266 1_555
O12 Pb3 2.284568 1_555
