# generated using pymatgen
data_Cs8SrSnBr12
_symmetry_space_group_name_H-M   'P 1'
_cell_length_a   9.87898760
_cell_length_b   9.87898838
_cell_length_c   9.87898923
_cell_angle_alpha   88.83759527
_cell_angle_beta   88.83759318
_cell_angle_gamma   88.83759697
_symmetry_Int_Tables_number   1
_chemical_formula_structural   Cs8SrSnBr12
_chemical_formula_sum   'Cs8 Sr1 Sn1 Br12'
_cell_volume   963.54676642
_cell_formula_units_Z   1
loop_
 _symmetry_equiv_pos_site_id
 _symmetry_equiv_pos_as_xyz
  1  'x, y, z'
loop_
 _atom_site_type_symbol
 _atom_site_label
 _atom_site_symmetry_multiplicity
 _atom_site_fract_x
 _atom_site_fract_y
 _atom_site_fract_z
 _atom_site_occupancy
  Cs  Cs0  1  0.25141245  0.25141245  0.25141245  1
  Cs  Cs1  1  0.74858755  0.74858755  0.74858755  1
  Cs  Cs2  1  0.25094460  0.62375658  0.87405155  1
  Cs  Cs3  1  0.87405155  0.25094460  0.62375658  1
  Cs  Cs4  1  0.62375658  0.87405155  0.25094460  1
  Cs  Cs5  1  0.74905540  0.37624342  0.12594845  1
  Cs  Cs6  1  0.12594845  0.74905540  0.37624342  1
  Cs  Cs7  1  0.37624342  0.12594845  0.74905540  1
  Sr  Sr0  1  0.00000000  0.00000000  0.00000000  1
  Sn  Sn0  1  0.50000000  0.50000000  0.50000000  1
  Br  Br0  1  0.56242525  0.21007562  0.42843200  1
  Br  Br1  1  0.42843200  0.56242525  0.21007562  1
  Br  Br2  1  0.21007562  0.42843200  0.56242525  1
  Br  Br3  1  0.93750588  0.07371599  0.29308897  1
  Br  Br4  1  0.29308897  0.93750588  0.07371599  1
  Br  Br5  1  0.07371599  0.29308897  0.93750588  1
  Br  Br6  1  0.43757475  0.78992438  0.57156800  1
  Br  Br7  1  0.57156800  0.43757475  0.78992438  1
  Br  Br8  1  0.78992438  0.57156800  0.43757475  1
  Br  Br9  1  0.06249412  0.92628401  0.70691103  1
  Br  Br10  1  0.92628401  0.70691103  0.06249412  1
  Br  Br11  1  0.70691103  0.06249412  0.92628401  1
loop_
_geom_bond_atom_site_label_1
_geom_bond_atom_site_label_2
_geom_bond_distance
_geom_bond_site_symmetry_2
Br0 Sn0 3.012708 1_555
Br0 Cs0 3.578170 1_555
Br0 Cs3 3.699587 1_555
Br0 Cs7 3.718223 1_555
Br0 Cs4 3.817401 1_545
Br0 Cs5 3.837162 1_555
Br1 Sn0 3.012708 1_555
Br1 Cs0 3.578170 1_555
Br1 Cs4 3.699587 1_555
Br1 Cs5 3.718223 1_555
Br1 Cs2 3.817401 1_554
Br1 Cs6 3.837161 1_555
Br2 Sn0 3.012708 1_555
Br2 Cs0 3.578170 1_555
Br2 Cs2 3.699587 1_555
Br2 Cs6 3.718223 1_555
Br2 Cs3 3.817400 1_455
Br2 Cs7 3.837162 1_555
Br3 Sr0 3.047908 1_655
Br3 Cs0 3.606604 1_655
Br3 Cs4 3.742301 1_545
Br3 Cs6 3.760353 1_645
Br3 Cs3 3.772786 1_555
Br3 Cs5 3.850090 1_555
Br4 Sr0 3.047908 1_565
Br4 Cs0 3.606605 1_565
Br4 Cs2 3.742301 1_554
Br4 Cs7 3.760353 1_564
Br4 Cs4 3.772786 1_555
Br4 Cs6 3.850090 1_555
Br5 Sr0 3.047908 1_556
Br5 Cs0 3.606605 1_556
Br5 Cs3 3.742302 1_455
Br5 Cs5 3.760353 1_456
Br5 Cs2 3.772786 1_555
Br5 Cs7 3.850090 1_555
Br6 Sn0 3.012708 1_555
Br6 Cs1 3.578170 1_555
Br6 Cs6 3.699587 1_555
Br6 Cs4 3.718223 1_555
Br6 Cs7 3.817401 1_565
Br6 Cs2 3.837162 1_555
Br7 Sn0 3.012708 1_555
Br7 Cs1 3.578170 1_555
Br7 Cs7 3.699587 1_555
Br7 Cs2 3.718223 1_555
Br7 Cs5 3.817401 1_556
Br7 Cs3 3.837161 1_555
Br8 Sn0 3.012708 1_555
Br8 Cs1 3.578170 1_555
Br8 Cs5 3.699587 1_555
Br8 Cs3 3.718223 1_555
Br8 Cs6 3.817400 1_655
Br8 Cs4 3.837162 1_555
Br9 Sr0 3.047908 1_566
Br9 Cs1 3.606604 1_455
Br9 Cs7 3.742301 1_565
Br9 Cs3 3.760353 1_465
Br9 Cs6 3.772786 1_555
Br9 Cs2 3.850090 1_555
Br10 Sr0 3.047908 1_665
Br10 Cs1 3.606605 1_554
Br10 Cs6 3.742302 1_655
Br10 Cs2 3.760353 1_654
Br10 Cs5 3.772786 1_555
Br10 Cs4 3.850090 1_555
Br11 Sr0 3.047908 1_656
Br11 Cs1 3.606605 1_545
Br11 Cs5 3.742301 1_556
Br11 Cs4 3.760353 1_546
Br11 Cs7 3.772786 1_555
Br11 Cs3 3.850090 1_555
