# generated using pymatgen
data_CsRb(SnSe2)4
_symmetry_space_group_name_H-M   'P 1'
_cell_length_a   10.27292717
_cell_length_b   10.29432167
_cell_length_c   7.62820653
_cell_angle_alpha   86.10292458
_cell_angle_beta   89.65870027
_cell_angle_gamma   140.97707003
_symmetry_Int_Tables_number   1
_chemical_formula_structural   CsRb(SnSe2)4
_chemical_formula_sum   'Cs1 Rb1 Sn4 Se8'
_cell_volume   504.53017114
_cell_formula_units_Z   1
loop_
 _symmetry_equiv_pos_site_id
 _symmetry_equiv_pos_as_xyz
  1  'x, y, z'
loop_
 _atom_site_type_symbol
 _atom_site_label
 _atom_site_symmetry_multiplicity
 _atom_site_fract_x
 _atom_site_fract_y
 _atom_site_fract_z
 _atom_site_occupancy
  Cs  Cs0  1  0.32421426  0.01619611  0.97185366  1
  Rb  Rb0  1  0.02808079  0.32932975  0.95740498  1
  Sn  Sn0  1  0.59546957  0.59896828  0.38491721  1
  Sn  Sn1  1  0.47916624  0.85825156  0.54842214  1
  Sn  Sn2  1  0.85841748  0.47669662  0.55824380  1
  Sn  Sn3  1  0.67937725  0.68936929  0.87299030  1
  Se  Se0  1  0.51213931  0.12767253  0.45440215  1
  Se  Se1  1  0.12709410  0.51718305  0.44614742  1
  Se  Se2  1  0.38493579  0.38947113  0.13597614  1
  Se  Se3  1  0.74952808  0.95007041  0.35065076  1
  Se  Se4  1  0.38448876  0.38768577  0.67461877  1
  Se  Se5  1  0.85179624  0.50957394  0.87303477  1
  Se  Se6  1  0.52763093  0.84406615  0.86554729  1
  Se  Se7  1  0.94465820  0.75246143  0.36239061  1
loop_
_geom_bond_atom_site_label_1
_geom_bond_atom_site_label_2
_geom_bond_distance
_geom_bond_site_symmetry_2
Cs0 Se5 3.521115 1_555
Cs0 Se5 3.545602 1_445
Cs0 Se2 3.696083 1_556
Cs0 Se7 3.709870 1_446
Cs0 Se6 3.754037 1_545
Cs0 Se4 3.908258 1_555
Cs0 Se0 3.976186 1_556
Cs0 Se0 4.059025 1_555
Rb0 Se6 3.479247 1_555
Rb0 Se5 3.494175 1_455
Rb0 Se2 3.510780 1_556
Rb0 Se6 3.534200 1_445
Rb0 Se3 3.657406 1_446
Rb0 Se4 3.838214 1_555
Rb0 Se1 3.981883 1_555
Rb0 Se1 4.079565 1_556
Se0 Sn1 2.566796 1_545
Se0 Sn2 2.598520 1_555
Se1 Sn2 2.580514 1_455
Se1 Sn1 2.586928 1_555
Se2 Sn0 2.508594 1_555
Se2 Sn3 2.698345 1_554
Se3 Sn1 2.561366 1_555
Se3 Sn0 2.572024 1_555
Se4 Sn0 2.505355 1_555
Se4 Sn3 2.680869 1_555
Se5 Sn2 2.455538 1_555
Se6 Sn1 2.490086 1_555
Se6 Sn3 2.969081 1_555
Se7 Sn0 2.557899 1_555
Se7 Sn2 2.564316 1_555
