# generated using pymatgen
data_Zr3Ga2PdN
_symmetry_space_group_name_H-M   'P 1'
_cell_length_a   8.57227262
_cell_length_b   8.57227274
_cell_length_c   8.57227226
_cell_angle_alpha   59.99999808
_cell_angle_beta   59.99999762
_cell_angle_gamma   59.99999234
_symmetry_Int_Tables_number   1
_chemical_formula_structural   Zr3Ga2PdN
_chemical_formula_sum   'Zr12 Ga8 Pd4 N4'
_cell_volume   445.42324091
_cell_formula_units_Z   4
loop_
 _symmetry_equiv_pos_site_id
 _symmetry_equiv_pos_as_xyz
  1  'x, y, z'
loop_
 _atom_site_type_symbol
 _atom_site_label
 _atom_site_symmetry_multiplicity
 _atom_site_fract_x
 _atom_site_fract_y
 _atom_site_fract_z
 _atom_site_occupancy
  Zr  Zr0  1  0.81130291  0.18869709  0.18869709  1
  Zr  Zr1  1  0.18869709  0.81130291  0.18869709  1
  Zr  Zr2  1  0.81130291  0.81130291  0.18869709  1
  Zr  Zr3  1  0.18869709  0.81130291  0.81130291  1
  Zr  Zr4  1  0.81130291  0.18869709  0.81130291  1
  Zr  Zr5  1  0.18869709  0.18869709  0.81130291  1
  Zr  Zr6  1  0.43869709  0.06130291  0.06130291  1
  Zr  Zr7  1  0.06130291  0.43869709  0.06130291  1
  Zr  Zr8  1  0.43869709  0.43869709  0.06130291  1
  Zr  Zr9  1  0.06130291  0.43869709  0.43869709  1
  Zr  Zr10  1  0.43869709  0.06130291  0.43869709  1
  Zr  Zr11  1  0.06130291  0.06130291  0.43869709  1
  Ga  Ga0  1  0.41699909  0.41699909  0.74900273  1
  Ga  Ga1  1  0.41699909  0.41699909  0.41699909  1
  Ga  Ga2  1  0.74900273  0.41699909  0.41699909  1
  Ga  Ga3  1  0.41699909  0.74900273  0.41699909  1
  Ga  Ga4  1  0.83300091  0.83300091  0.50099727  1
  Ga  Ga5  1  0.83300091  0.83300091  0.83300091  1
  Ga  Ga6  1  0.50099727  0.83300091  0.83300091  1
  Ga  Ga7  1  0.83300091  0.50099727  0.83300091  1
  Pd  Pd0  1  0.62500000  0.62500000  0.12500000  1
  Pd  Pd1  1  0.62500000  0.62500000  0.62500000  1
  Pd  Pd2  1  0.12500000  0.62500000  0.62500000  1
  Pd  Pd3  1  0.62500000  0.12500000  0.62500000  1
  N  N0  1  0.12500000  0.12500000  0.62500000  1
  N  N1  1  0.12500000  0.12500000  0.12500000  1
  N  N2  1  0.62500000  0.12500000  0.12500000  1
  N  N3  1  0.12500000  0.62500000  0.12500000  1
loop_
_geom_bond_atom_site_label_1
_geom_bond_atom_site_label_2
_geom_bond_distance
_geom_bond_site_symmetry_2
Ga0 Pd2 2.622393 1_555
Ga0 Pd3 2.622393 1_555
Ga0 Pd1 2.622393 1_555
Ga0 Ga2 2.846026 1_555
Ga0 Ga3 2.846026 1_555
Ga0 Ga1 2.846026 1_555
Ga0 Zr7 2.875181 1_556
Ga0 Zr6 2.875181 1_556
Ga0 Zr8 2.875181 1_556
Ga0 Zr4 3.112103 1_555
Ga0 Zr3 3.112103 1_555
Ga0 Zr5 3.112104 1_555
Ga1 Pd2 2.622393 1_555
Ga1 Pd3 2.622393 1_555
Ga1 Pd0 2.622393 1_555
Ga1 Ga2 2.846026 1_555
Ga1 Ga3 2.846026 1_555
Ga1 Zr8 2.875181 1_555
Ga1 Zr9 2.875181 1_555
Ga1 Zr10 2.875182 1_555
Ga1 Zr0 3.112103 1_555
Ga1 Zr1 3.112103 1_555
Ga1 Zr5 3.112103 1_555
Ga2 Pd0 2.622393 1_555
Ga2 Pd1 2.622393 1_555
Ga2 Pd3 2.622393 1_555
Ga2 Ga3 2.846025 1_555
Ga2 Zr11 2.875181 1_655
Ga2 Zr7 2.875181 1_655
Ga2 Zr9 2.875182 1_655
Ga2 Zr4 3.112103 1_555
Ga2 Zr0 3.112103 1_555
Ga2 Zr2 3.112103 1_555
Ga3 Pd0 2.622393 1_555
Ga3 Pd1 2.622393 1_555
Ga3 Pd2 2.622393 1_555
Ga3 Zr11 2.875181 1_565
Ga3 Zr6 2.875181 1_565
Ga3 Zr10 2.875182 1_565
Ga3 Zr3 3.112103 1_555
Ga3 Zr1 3.112103 1_555
Ga3 Zr2 3.112103 1_555
Ga4 Pd2 2.622393 1_655
Ga4 Pd3 2.622393 1_565
Ga4 Pd1 2.622393 1_555
Ga4 Ga6 2.846026 1_555
Ga4 Ga7 2.846026 1_555
Ga4 Ga5 2.846026 1_555
Ga4 Zr1 2.875181 1_655
Ga4 Zr0 2.875181 1_565
Ga4 Zr2 2.875181 1_555
Ga4 Zr10 3.112103 1_565
Ga4 Zr9 3.112103 1_655
Ga4 Zr11 3.112104 1_665
Ga5 Pd2 2.622393 1_655
Ga5 Pd3 2.622393 1_565
Ga5 Pd0 2.622393 1_556
Ga5 Ga6 2.846026 1_555
Ga5 Ga7 2.846026 1_555
Ga5 Zr2 2.875181 1_556
Ga5 Zr3 2.875181 1_655
Ga5 Zr4 2.875182 1_565
Ga5 Zr6 3.112103 1_566
Ga5 Zr7 3.112103 1_656
Ga5 Zr11 3.112103 1_665
Ga6 Pd0 2.622393 1_556
Ga6 Pd1 2.622393 1_555
Ga6 Pd3 2.622393 1_565
Ga6 Ga7 2.846025 1_555
Ga6 Zr5 2.875181 1_565
Ga6 Zr1 2.875181 1_556
Ga6 Zr3 2.875182 1_555
Ga6 Zr10 3.112103 1_565
Ga6 Zr6 3.112103 1_566
Ga6 Zr8 3.112103 1_556
Ga7 Pd0 2.622393 1_556
Ga7 Pd1 2.622393 1_555
Ga7 Pd2 2.622393 1_655
Ga7 Zr5 2.875181 1_655
Ga7 Zr0 2.875181 1_556
Ga7 Zr4 2.875182 1_555
Ga7 Zr9 3.112103 1_655
Ga7 Zr7 3.112103 1_656
Ga7 Zr8 3.112103 1_556
Pd0 Zr7 3.113488 1_655
Pd0 Zr1 3.113488 1_555
Pd0 Zr6 3.113488 1_565
Pd0 Zr0 3.113488 1_555
Pd0 Zr2 3.113489 1_555
Pd0 Zr8 3.113489 1_555
Pd1 Zr9 3.113488 1_655
Pd1 Zr3 3.113488 1_555
Pd1 Zr4 3.113488 1_555
Pd1 Zr10 3.113488 1_565
Pd1 Zr8 3.113488 1_556
Pd1 Zr2 3.113488 1_555
Pd2 Zr7 3.113488 1_556
Pd2 Zr1 3.113488 1_555
Pd2 Zr11 3.113488 1_565
Pd2 Zr5 3.113488 1_555
Pd2 Zr3 3.113488 1_555
Pd2 Zr9 3.113488 1_555
Pd3 Zr6 3.113488 1_556
Pd3 Zr0 3.113488 1_555
Pd3 Zr11 3.113488 1_655
Pd3 Zr5 3.113488 1_555
Pd3 Zr4 3.113488 1_555
Pd3 Zr10 3.113488 1_555
N0 Zr10 2.277945 1_555
N0 Zr4 2.277945 1_455
N0 Zr9 2.277945 1_555
N0 Zr3 2.277945 1_545
N0 Zr5 2.277946 1_555
N0 Zr11 2.277946 1_555
N1 Zr11 2.277945 1_555
N1 Zr5 2.277945 1_554
N1 Zr6 2.277945 1_555
N1 Zr0 2.277945 1_455
N1 Zr7 2.277946 1_555
N1 Zr1 2.277946 1_545
N2 Zr8 2.277945 1_555
N2 Zr2 2.277945 1_545
N2 Zr10 2.277945 1_555
N2 Zr4 2.277945 1_554
N2 Zr0 2.277946 1_555
N2 Zr6 2.277946 1_555
N3 Zr2 2.277945 1_455
N3 Zr8 2.277945 1_555
N3 Zr9 2.277945 1_555
N3 Zr3 2.277945 1_554
N3 Zr1 2.277946 1_555
N3 Zr7 2.277946 1_555
