# generated using pymatgen
data_Cs2Ta6PbBr18
_symmetry_space_group_name_H-M   'P 1'
_cell_length_a   10.89356814
_cell_length_b   10.89356826
_cell_length_c   10.89356724
_cell_angle_alpha   55.01443370
_cell_angle_beta   55.01443270
_cell_angle_gamma   55.01443309
_symmetry_Int_Tables_number   1
_chemical_formula_structural   Cs2Ta6PbBr18
_chemical_formula_sum   'Cs2 Ta6 Pb1 Br18'
_cell_volume   808.07466488
_cell_formula_units_Z   1
loop_
 _symmetry_equiv_pos_site_id
 _symmetry_equiv_pos_as_xyz
  1  'x, y, z'
loop_
 _atom_site_type_symbol
 _atom_site_label
 _atom_site_symmetry_multiplicity
 _atom_site_fract_x
 _atom_site_fract_y
 _atom_site_fract_z
 _atom_site_occupancy
  Cs  Cs0  1  0.27674653  0.27674653  0.27674653  1
  Cs  Cs1  1  0.72325347  0.72325347  0.72325347  1
  Ta  Ta0  1  0.42317316  0.30951557  0.63862465  1
  Ta  Ta1  1  0.36137535  0.57682684  0.69048443  1
  Ta  Ta2  1  0.69048443  0.36137535  0.57682684  1
  Ta  Ta3  1  0.63862465  0.42317316  0.30951557  1
  Ta  Ta4  1  0.57682684  0.69048443  0.36137535  1
  Ta  Ta5  1  0.30951557  0.63862465  0.42317316  1
  Pb  Pb0  1  0.00000000  0.00000000  0.00000000  1
  Br  Br0  1  0.63992552  0.09185694  0.77039355  1
  Br  Br1  1  0.77039355  0.63992552  0.09185694  1
  Br  Br2  1  0.09185694  0.77039355  0.63992552  1
  Br  Br3  1  0.82769629  0.32292722  0.03972491  1
  Br  Br4  1  0.16627508  0.43475530  0.57770763  1
  Br  Br5  1  0.67707278  0.96027509  0.17230371  1
  Br  Br6  1  0.90814306  0.22960645  0.36007448  1
  Br  Br7  1  0.56524470  0.42229237  0.83372492  1
  Br  Br8  1  0.42229237  0.83372492  0.56524470  1
  Br  Br9  1  0.96027509  0.17230371  0.67707278  1
  Br  Br10  1  0.17230371  0.67707278  0.96027509  1
  Br  Br11  1  0.03972491  0.82769629  0.32292722  1
  Br  Br12  1  0.32292722  0.03972491  0.82769629  1
  Br  Br13  1  0.22960645  0.36007448  0.90814306  1
  Br  Br14  1  0.57770763  0.16627508  0.43475530  1
  Br  Br15  1  0.43475530  0.57770763  0.16627508  1
  Br  Br16  1  0.36007448  0.90814306  0.22960645  1
  Br  Br17  1  0.83372492  0.56524470  0.42229237  1
loop_
_geom_bond_atom_site_label_1
_geom_bond_atom_site_label_2
_geom_bond_distance
_geom_bond_site_symmetry_2
Br0 Ta2 2.606337 1_555
Br0 Ta0 2.611778 1_555
Br0 Cs1 3.855052 1_545
Br1 Ta4 2.606336 1_555
Br1 Ta3 2.611778 1_555
Br1 Cs1 3.855052 1_554
Br2 Ta1 2.606337 1_555
Br2 Ta5 2.611778 1_555
Br2 Cs1 3.855053 1_455
Br3 Ta3 2.869138 1_555
Br3 Pb0 3.054160 1_655
Br3 Cs1 3.710180 1_554
Br4 Ta0 2.616602 1_555
Br4 Ta5 2.622100 1_555
Br4 Cs0 3.838150 1_555
Br4 Cs1 3.902370 1_455
Br5 Ta4 2.869138 1_555
Br5 Pb0 3.054160 1_665
Br5 Cs0 3.710180 1_565
Br6 Ta3 2.606337 1_555
Br6 Ta2 2.611778 1_555
Br6 Cs0 3.855053 1_655
Br7 Ta2 2.616602 1_555
Br7 Ta1 2.622100 1_555
Br7 Cs1 3.838150 1_555
Br7 Cs0 3.902370 1_556
Br8 Ta1 2.616602 1_555
Br8 Ta4 2.622100 1_555
Br8 Cs1 3.838150 1_555
Br8 Cs0 3.902370 1_565
Br9 Ta2 2.869138 1_555
Br9 Pb0 3.054160 1_656
Br9 Cs0 3.710180 1_655
Br10 Ta1 2.869138 1_555
Br10 Pb0 3.054160 1_566
Br10 Cs0 3.710180 1_556
Br11 Ta5 2.869138 1_555
Br11 Pb0 3.054160 1_565
Br11 Cs1 3.710180 1_455
Br12 Ta0 2.869138 1_555
Br12 Pb0 3.054160 1_556
Br12 Cs1 3.710180 1_545
Br13 Ta0 2.606336 1_555
Br13 Ta1 2.611778 1_555
Br13 Cs0 3.855052 1_556
Br14 Ta3 2.616602 1_555
Br14 Ta0 2.622100 1_555
Br14 Cs0 3.838150 1_555
Br14 Cs1 3.902370 1_545
Br15 Ta5 2.616602 1_555
Br15 Ta3 2.622100 1_555
Br15 Cs0 3.838150 1_555
Br15 Cs1 3.902370 1_554
Br16 Ta5 2.606337 1_555
Br16 Ta4 2.611778 1_555
Br16 Cs0 3.855052 1_565
Br17 Ta4 2.616602 1_555
Br17 Ta2 2.622100 1_555
Br17 Cs1 3.838150 1_555
Br17 Cs0 3.902370 1_655
