# generated using pymatgen
data_Fe(PO3)4
_symmetry_space_group_name_H-M   'P 1'
_cell_length_a   5.16826585
_cell_length_b   10.44417650
_cell_length_c   10.44417614
_cell_angle_alpha   72.64901246
_cell_angle_beta   96.02221064
_cell_angle_gamma   96.02222396
_symmetry_Int_Tables_number   1
_chemical_formula_structural   Fe(PO3)4
_chemical_formula_sum   'Fe2 P8 O24'
_cell_volume   533.52345682
_cell_formula_units_Z   2
loop_
 _symmetry_equiv_pos_site_id
 _symmetry_equiv_pos_as_xyz
  1  'x, y, z'
loop_
 _atom_site_type_symbol
 _atom_site_label
 _atom_site_symmetry_multiplicity
 _atom_site_fract_x
 _atom_site_fract_y
 _atom_site_fract_z
 _atom_site_occupancy
  Fe  Fe0  1  0.00000000  0.00000000  0.50000000  1
  Fe  Fe1  1  0.00000000  0.50000000  0.00000000  1
  P  P0  1  0.46967700  0.29867400  0.05752300  1
  P  P1  1  0.18746300  0.78856800  0.35833000  1
  P  P2  1  0.53032300  0.94247700  0.70132600  1
  P  P3  1  0.46967700  0.05752300  0.29867400  1
  P  P4  1  0.18746300  0.35833000  0.78856800  1
  P  P5  1  0.81253700  0.21143200  0.64167000  1
  P  P6  1  0.81253700  0.64167000  0.21143200  1
  P  P7  1  0.53032300  0.70132600  0.94247700  1
  O  O0  1  0.75973700  0.06766100  0.32927400  1
  O  O1  1  0.97007100  0.55095500  0.16698800  1
  O  O2  1  0.24026300  0.67072600  0.93233900  1
  O  O3  1  0.37673100  0.91242300  0.27762800  1
  O  O4  1  0.66363600  0.33233500  0.57040600  1
  O  O5  1  0.30399500  0.39436000  0.08866000  1
  O  O6  1  0.00000000  0.76894300  0.23105700  1
  O  O7  1  0.69600500  0.91134000  0.60564000  1
  O  O8  1  0.02992900  0.83301200  0.44904500  1
  O  O9  1  0.75973700  0.32927400  0.06766100  1
  O  O10  1  0.97007100  0.16698800  0.55095500  1
  O  O11  1  0.39926100  0.14815700  0.14815700  1
  O  O12  1  0.60073900  0.85184300  0.85184300  1
  O  O13  1  0.24026300  0.93233900  0.67072600  1
  O  O14  1  0.62326900  0.72237200  0.08757700  1
  O  O15  1  0.00000000  0.23105700  0.76894300  1
  O  O16  1  0.33636400  0.42959400  0.66766500  1
  O  O17  1  0.30399500  0.08866000  0.39436000  1
  O  O18  1  0.02992900  0.44904500  0.83301200  1
  O  O19  1  0.69600500  0.60564000  0.91134000  1
  O  O20  1  0.33636400  0.66766500  0.42959400  1
  O  O21  1  0.62326900  0.08757700  0.72237200  1
  O  O22  1  0.37673100  0.27762800  0.91242300  1
  O  O23  1  0.66363600  0.57040600  0.33233500  1
loop_
_geom_bond_atom_site_label_1
_geom_bond_atom_site_label_2
_geom_bond_distance
_geom_bond_site_symmetry_2
Fe0 O10 1.994076 1_455
Fe0 O8 1.994076 1_545
Fe0 O17 1.998074 1_555
Fe0 O7 1.998074 1_445
Fe0 O13 2.046631 1_545
Fe0 O0 2.046631 1_455
Fe1 O1 1.994076 1_455
Fe1 O18 1.994076 1_554
Fe1 O5 1.998074 1_555
Fe1 O19 1.998074 1_454
Fe1 O2 2.046631 1_554
Fe1 O9 2.046631 1_455
O0 P3 1.499007 1_555
O1 P6 1.509790 1_555
O2 P7 1.499007 1_555
O3 P1 1.611758 1_555
O3 P3 1.612277 1_565
O4 P5 1.504605 1_555
O5 P0 1.506499 1_555
O6 P6 1.611906 1_455
O6 P1 1.611906 1_555
O7 P2 1.506499 1_555
O8 P1 1.509790 1_555
O9 P0 1.499007 1_555
O10 P5 1.509790 1_555
O11 P0 1.601386 1_555
O11 P3 1.601386 1_555
O12 P7 1.601386 1_555
O12 P2 1.601386 1_555
O13 P2 1.499007 1_555
O14 P6 1.611759 1_555
O14 P7 1.612277 1_554
O15 P4 1.611906 1_555
O15 P5 1.611906 1_455
O16 P4 1.504604 1_555
O17 P3 1.506499 1_555
O18 P4 1.509790 1_555
O19 P7 1.506499 1_555
O20 P1 1.504605 1_555
O21 P5 1.611758 1_555
O21 P2 1.612277 1_545
O22 P4 1.611759 1_555
O22 P0 1.612277 1_556
O23 P6 1.504604 1_555
