# generated using pymatgen
data_Rb4Ge2SbAu6
_symmetry_space_group_name_H-M   'P 1'
_cell_length_a   10.31127858
_cell_length_b   10.31127891
_cell_length_c   10.31127869
_cell_angle_alpha   37.58343544
_cell_angle_beta   37.58343214
_cell_angle_gamma   37.58343455
_symmetry_Int_Tables_number   1
_chemical_formula_structural   Rb4Ge2SbAu6
_chemical_formula_sum   'Rb4 Ge2 Sb1 Au6'
_cell_volume   365.80644740
_cell_formula_units_Z   1
loop_
 _symmetry_equiv_pos_site_id
 _symmetry_equiv_pos_as_xyz
  1  'x, y, z'
loop_
 _atom_site_type_symbol
 _atom_site_label
 _atom_site_symmetry_multiplicity
 _atom_site_fract_x
 _atom_site_fract_y
 _atom_site_fract_z
 _atom_site_occupancy
  Rb  Rb0  1  0.68311113  0.68311113  0.68311113  1
  Rb  Rb1  1  0.31688887  0.31688887  0.31688887  1
  Rb  Rb2  1  0.81002875  0.81002875  0.81002875  1
  Rb  Rb3  1  0.18997125  0.18997125  0.18997125  1
  Ge  Ge0  1  0.54449918  0.54449918  0.54449918  1
  Ge  Ge1  1  0.45550082  0.45550082  0.45550082  1
  Sb  Sb0  1  0.00000000  0.00000000  0.00000000  1
  Au  Au0  1  0.22657561  0.22657561  0.79252776  1
  Au  Au1  1  0.79252776  0.22657561  0.22657561  1
  Au  Au2  1  0.22657561  0.79252776  0.22657561  1
  Au  Au3  1  0.77342439  0.20747224  0.77342439  1
  Au  Au4  1  0.77342439  0.77342439  0.20747224  1
  Au  Au5  1  0.20747224  0.77342439  0.77342439  1
loop_
_geom_bond_atom_site_label_1
_geom_bond_atom_site_label_2
_geom_bond_distance
_geom_bond_site_symmetry_2
Au0 Ge1 2.459499 1_555
Au0 Sb0 2.881134 1_556
Au0 Au1 2.883432 1_456
Au0 Au2 2.883432 1_546
Au0 Rb3 3.521706 1_556
Au0 Rb1 3.561596 1_555
Au0 Rb2 3.769896 1_545
Au0 Rb2 3.769896 1_455
Au0 Rb0 3.824727 1_455
Au0 Rb0 3.824728 1_545
Au1 Ge1 2.459499 1_555
Au1 Sb0 2.881134 1_655
Au1 Au2 2.883432 1_645
Au1 Rb3 3.521706 1_655
Au1 Rb1 3.561596 1_555
Au1 Rb2 3.769896 1_545
Au1 Rb2 3.769896 1_554
Au1 Rb0 3.824728 1_554
Au1 Rb0 3.824728 1_545
Au2 Ge1 2.459499 1_555
Au2 Sb0 2.881134 1_565
Au2 Rb3 3.521706 1_565
Au2 Rb1 3.561596 1_555
Au2 Rb2 3.769895 1_554
Au2 Rb2 3.769895 1_455
Au2 Rb0 3.824727 1_455
Au2 Rb0 3.824727 1_554
Au3 Ge0 2.459499 1_555
Au3 Sb0 2.881134 1_656
Au3 Au5 2.883432 1_645
Au3 Au4 2.883432 1_546
Au3 Rb2 3.521706 1_545
Au3 Rb0 3.561596 1_555
Au3 Rb3 3.769895 1_556
Au3 Rb3 3.769895 1_655
Au3 Rb1 3.824727 1_655
Au3 Rb1 3.824727 1_556
Au4 Ge0 2.459499 1_555
Au4 Sb0 2.881134 1_665
Au4 Au5 2.883432 1_654
Au4 Rb2 3.521706 1_554
Au4 Rb0 3.561596 1_555
Au4 Rb3 3.769896 1_565
Au4 Rb3 3.769896 1_655
Au4 Rb1 3.824727 1_655
Au4 Rb1 3.824728 1_565
Au5 Ge0 2.459499 1_555
Au5 Sb0 2.881134 1_566
Au5 Rb2 3.521706 1_455
Au5 Rb0 3.561596 1_555
Au5 Rb3 3.769896 1_565
Au5 Rb3 3.769896 1_556
Au5 Rb1 3.824728 1_556
Au5 Rb1 3.824728 1_565
