# generated using pymatgen
data_Re4OsRuRh2
_symmetry_space_group_name_H-M   'P 1'
_cell_length_a   5.46595688
_cell_length_b   5.49385134
_cell_length_c   4.36172280
_cell_angle_alpha   90.00000000
_cell_angle_beta   90.00000000
_cell_angle_gamma   119.83218271
_symmetry_Int_Tables_number   1
_chemical_formula_structural   Re4OsRuRh2
_chemical_formula_sum   'Re4 Os1 Ru1 Rh2'
_cell_volume   113.62233906
_cell_formula_units_Z   1
loop_
 _symmetry_equiv_pos_site_id
 _symmetry_equiv_pos_as_xyz
  1  'x, y, z'
loop_
 _atom_site_type_symbol
 _atom_site_label
 _atom_site_symmetry_multiplicity
 _atom_site_fract_x
 _atom_site_fract_y
 _atom_site_fract_z
 _atom_site_occupancy
  Re  Re0  1  0.67330345  0.83599731  0.25000000  1
  Re  Re1  1  0.16269485  0.83599731  0.25000000  1
  Re  Re2  1  0.32603103  0.16547290  0.75000000  1
  Re  Re3  1  0.83943988  0.16547290  0.75000000  1
  Os  Os0  1  0.83666565  0.67333331  0.75000000  1
  Ru  Ru0  1  0.16348859  0.32697719  0.25000000  1
  Rh  Rh0  1  0.33278180  0.66556359  0.75000000  1
  Rh  Rh1  1  0.66559374  0.33118649  0.25000000  1
loop_
_geom_bond_atom_site_label_1
_geom_bond_atom_site_label_2
_geom_bond_distance
_geom_bond_site_symmetry_2
Re0 Re1 2.674992 1_655
Re0 Re3 2.687346 1_564
Re0 Re3 2.687346 1_565
Re0 Ru0 2.695212 1_665
Re0 Rh0 2.713540 1_554
Re0 Rh0 2.713540 1_555
Re0 Rh1 2.741703 1_565
Re0 Rh1 2.752635 1_555
Re0 Re1 2.790965 1_555
Re0 Ru0 2.798644 1_555
Re1 Re2 2.687346 1_564
Re1 Re2 2.687346 1_565
Re1 Ru0 2.695215 1_565
Re1 Rh0 2.713537 1_554
Re1 Rh0 2.713537 1_555
Re1 Rh1 2.741703 1_565
Re1 Rh1 2.752635 1_455
Re1 Ru0 2.798642 1_555
Re2 Re3 2.659686 1_455
Re2 Ru0 2.667783 1_555
Re2 Ru0 2.667783 1_556
Re2 Rh1 2.710848 1_555
Re2 Rh1 2.710848 1_556
Re2 Rh0 2.729256 1_555
Re2 Rh0 2.764969 1_545
Re2 Re3 2.806271 1_555
Re3 Ru0 2.667789 1_656
Re3 Ru0 2.667789 1_655
Re3 Rh1 2.710839 1_555
Re3 Rh1 2.710839 1_556
Re3 Rh0 2.729261 1_655
Re3 Rh0 2.764963 1_545
Os0 Re0 2.673203 1_556
Os0 Re0 2.673203 1_555
Os0 Re1 2.673211 1_655
Os0 Re1 2.673211 1_656
Os0 Re3 2.696230 1_565
Os0 Re2 2.696230 1_665
Os0 Rh1 2.723062 1_555
Os0 Rh1 2.723062 1_556
Os0 Rh0 2.733224 1_555
Os0 Rh0 2.733235 1_655
Os0 Re2 2.797684 1_555
Os0 Re3 2.797684 1_555
Rh0 Ru0 2.712935 1_556
Rh0 Ru0 2.712935 1_555
Rh1 Ru0 2.733049 1_655
Rh1 Ru0 2.733055 1_555
