# generated using pymatgen
data_Sc3NiSn3Pd2
_symmetry_space_group_name_H-M   'P 1'
_cell_length_a   7.39254540
_cell_length_b   7.39254506
_cell_length_c   7.14581677
_cell_angle_alpha   90.00000000
_cell_angle_beta   90.00000000
_cell_angle_gamma   120.00000152
_symmetry_Int_Tables_number   1
_chemical_formula_structural   Sc3NiSn3Pd2
_chemical_formula_sum   'Sc6 Ni2 Sn6 Pd4'
_cell_volume   338.19756941
_cell_formula_units_Z   2
loop_
 _symmetry_equiv_pos_site_id
 _symmetry_equiv_pos_as_xyz
  1  'x, y, z'
loop_
 _atom_site_type_symbol
 _atom_site_label
 _atom_site_symmetry_multiplicity
 _atom_site_fract_x
 _atom_site_fract_y
 _atom_site_fract_z
 _atom_site_occupancy
  Sc  Sc0  1  0.39776931  0.01147068  0.25000000  1
  Sc  Sc1  1  0.61370137  0.60223069  0.25000000  1
  Sc  Sc2  1  0.98852932  0.38629863  0.25000000  1
  Sc  Sc3  1  0.38629863  0.98852932  0.75000000  1
  Sc  Sc4  1  0.60223069  0.61370137  0.75000000  1
  Sc  Sc5  1  0.01147068  0.39776931  0.75000000  1
  Ni  Ni0  1  0.00000000  0.00000000  0.25000000  1
  Ni  Ni1  1  0.00000000  0.00000000  0.75000000  1
  Sn  Sn0  1  0.73847538  0.00000000  0.00000000  1
  Sn  Sn1  1  0.26152462  0.26152462  0.50000000  1
  Sn  Sn2  1  0.00000000  0.73847538  0.50000000  1
  Sn  Sn3  1  0.00000000  0.73847538  0.00000000  1
  Sn  Sn4  1  0.26152462  0.26152462  0.00000000  1
  Sn  Sn5  1  0.73847538  0.00000000  0.50000000  1
  Pd  Pd0  1  0.33333300  0.66666700  0.02430955  1
  Pd  Pd1  1  0.33333300  0.66666700  0.47569045  1
  Pd  Pd2  1  0.66666700  0.33333300  0.97569045  1
  Pd  Pd3  1  0.66666700  0.33333300  0.52430955  1
loop_
_geom_bond_atom_site_label_1
_geom_bond_atom_site_label_2
_geom_bond_distance
_geom_bond_site_symmetry_2
Sc0 Sn4 3.079737 1_555
Sc0 Sn1 3.079737 1_555
Sc0 Sn5 3.123454 1_555
Sc0 Sn0 3.123454 1_555
Sc0 Sn2 3.158576 1_545
Sc0 Sn3 3.158576 1_545
Sc1 Sn3 3.079737 1_655
Sc1 Sn2 3.079737 1_655
Sc1 Sn1 3.123453 1_555
Sc1 Sn4 3.123453 1_555
Sc1 Sn5 3.158576 1_565
Sc1 Sn0 3.158576 1_565
Sc2 Sn5 3.079737 1_555
Sc2 Sn0 3.079737 1_555
Sc2 Sn3 3.123453 1_655
Sc2 Sn2 3.123453 1_655
Sc2 Sn4 3.158576 1_655
Sc2 Sn1 3.158576 1_655
Sc3 Sn2 3.079737 1_555
Sc3 Sn3 3.079737 1_556
Sc3 Sn0 3.123454 1_566
Sc3 Sn5 3.123454 1_565
Sc3 Sn1 3.158576 1_565
Sc3 Sn4 3.158576 1_566
Sc4 Sn5 3.079737 1_565
Sc4 Sn0 3.079737 1_566
Sc4 Sn1 3.123453 1_555
Sc4 Sn4 3.123453 1_556
Sc4 Sn2 3.158576 1_655
Sc4 Sn3 3.158576 1_656
Sc5 Sn1 3.079737 1_555
Sc5 Sn4 3.079737 1_556
Sc5 Sn2 3.123453 1_555
Sc5 Sn3 3.123453 1_556
Sc5 Sn0 3.158576 1_456
Sc5 Sn5 3.158576 1_455
Ni0 Sn4 2.632336 1_555
Ni0 Sn1 2.632336 1_555
Ni0 Sn3 2.632336 1_545
Ni0 Sn2 2.632336 1_545
Ni0 Sn0 2.632336 1_455
Ni0 Sn5 2.632336 1_455
Ni0 Sc1 2.899059 1_445
Ni0 Sc2 2.899059 1_455
Ni0 Sc0 2.899059 1_555
Ni1 Sn1 2.632336 1_555
Ni1 Sn4 2.632336 1_556
Ni1 Sn3 2.632336 1_546
Ni1 Sn2 2.632336 1_545
Ni1 Sn0 2.632336 1_456
Ni1 Sn5 2.632336 1_455
Ni1 Sc5 2.899059 1_555
Ni1 Sc4 2.899059 1_445
Ni1 Sc3 2.899059 1_545
Pd0 Sn3 2.773492 1_555
Pd0 Sn0 2.773496 1_565
Pd0 Sn4 2.773499 1_555
Pd0 Sc0 2.847969 1_565
Pd0 Sc2 2.847971 1_455
Pd0 Sc1 2.847975 1_555
Pd0 Sc3 2.953874 1_554
Pd0 Sc5 2.953876 1_554
Pd0 Sc4 2.953879 1_554
Pd1 Sn2 2.773492 1_555
Pd1 Sn5 2.773496 1_565
Pd1 Sn1 2.773499 1_555
Pd1 Sc0 2.847969 1_565
Pd1 Sc2 2.847971 1_455
Pd1 Sc1 2.847975 1_555
Pd1 Sc3 2.953874 1_555
Pd1 Sc5 2.953876 1_555
Pd1 Sc4 2.953879 1_555
Pd2 Sn0 2.773491 1_556
Pd2 Sn3 2.773496 1_656
Pd2 Sn4 2.773499 1_556
Pd2 Sc5 2.847969 1_655
Pd2 Sc3 2.847971 1_545
Pd2 Sc4 2.847975 1_555
Pd2 Sc2 2.953874 1_556
Pd2 Sc0 2.953876 1_556
Pd2 Sc1 2.953879 1_556
Pd3 Sn5 2.773491 1_555
Pd3 Sn2 2.773496 1_655
Pd3 Sn1 2.773499 1_555
Pd3 Sc5 2.847969 1_655
Pd3 Sc3 2.847971 1_545
Pd3 Sc4 2.847975 1_555
Pd3 Sc2 2.953874 1_555
Pd3 Sc0 2.953876 1_555
Pd3 Sc1 2.953879 1_555
