# generated using pymatgen
data_Na11Li(OsN2)4
_symmetry_space_group_name_H-M   'P 1'
_cell_length_a   8.15588310
_cell_length_b   5.49734453
_cell_length_c   10.14032195
_cell_angle_alpha   57.21529734
_cell_angle_beta   91.12564125
_cell_angle_gamma   91.24636192
_symmetry_Int_Tables_number   1
_chemical_formula_structural   Na11Li(OsN2)4
_chemical_formula_sum   'Na11 Li1 Os4 N8'
_cell_volume   382.12085627
_cell_formula_units_Z   1
loop_
 _symmetry_equiv_pos_site_id
 _symmetry_equiv_pos_as_xyz
  1  'x, y, z'
loop_
 _atom_site_type_symbol
 _atom_site_label
 _atom_site_symmetry_multiplicity
 _atom_site_fract_x
 _atom_site_fract_y
 _atom_site_fract_z
 _atom_site_occupancy
  Na  Na0  1  0.50247517  0.42958092  0.50084617  1
  Na  Na1  1  0.00345935  0.13056244  0.99134238  1
  Na  Na2  1  0.50840002  0.91614005  0.50268037  1
  Na  Na3  1  0.35488880  0.60295054  0.86715005  1
  Na  Na4  1  0.86436509  0.37147878  0.62854909  1
  Na  Na5  1  0.63024566  0.36877419  0.12455994  1
  Na  Na6  1  0.13714185  0.62177096  0.37342582  1
  Na  Na7  1  0.25281283  0.19840221  0.76120691  1
  Na  Na8  1  0.77670759  0.74103962  0.75574343  1
  Na  Na9  1  0.74183120  0.77010235  0.24179678  1
  Na  Na10  1  0.24347276  0.24241207  0.25032925  1
  Li  Li0  1  0.97834107  0.59079347  0.05707583  1
  Os  Os0  1  0.10789106  0.89582706  0.58787459  1
  Os  Os1  1  0.60634359  0.08314858  0.90285430  1
  Os  Os2  1  0.89250464  0.12023043  0.38977554  1
  Os  Os3  1  0.38871597  0.88853720  0.09991054  1
  N  N0  1  0.78154959  0.85531104  0.95590450  1
  N  N1  1  0.28067007  0.12692751  0.55126546  1
  N  N2  1  0.20796056  0.75149506  0.05678694  1
  N  N3  1  0.72973183  0.26133945  0.44205453  1
  N  N4  1  0.57057644  0.43657782  0.73463348  1
  N  N5  1  0.06978244  0.53759961  0.74948164  1
  N  N6  1  0.43779126  0.90409564  0.26765707  1
  N  N7  1  0.93233916  0.15490299  0.20709841  1
loop_
_geom_bond_atom_site_label_1
_geom_bond_atom_site_label_2
_geom_bond_distance
_geom_bond_site_symmetry_2
Li0 N0 2.040667 1_554
Li0 N2 2.052582 1_655
Li0 N7 2.057314 1_555
N0 Os1 1.793892 1_565
N0 Na8 2.427436 1_555
N0 Na1 2.477613 1_665
N0 Na5 2.566519 1_556
N0 Na9 2.699712 1_556
N1 Os0 1.780307 1_545
N1 Na0 2.299199 1_555
N1 Na7 2.380521 1_555
N1 Na2 2.404790 1_545
N1 Na6 2.601042 1_555
N1 Na10 2.771503 1_555
N1 Na3 2.988540 1_545
N2 Os3 1.793108 1_555
N2 Na10 2.415066 1_555
N2 Na1 2.484916 1_564
N2 Na7 2.680052 1_564
N2 Na3 2.763037 1_554
N2 Na6 2.954108 1_555
N3 Os2 1.778479 1_555
N3 Na0 2.315453 1_555
N3 Na9 2.408505 1_555
N3 Na2 2.422576 1_545
N3 Na4 2.505623 1_555
N3 Na8 2.931343 1_545
N4 Os1 1.784855 1_555
N4 Na8 2.434138 1_555
N4 Na0 2.444623 1_555
N4 Na2 2.456747 1_555
N4 Na3 2.688971 1_555
N4 Na4 2.753558 1_555
N4 Na7 2.828658 1_555
N5 Os0 1.777269 1_555
N5 Na1 2.317502 1_555
N5 Na7 2.365075 1_555
N5 Na4 2.492012 1_455
N5 Na8 2.677205 1_455
N5 Na3 2.697897 1_555
N6 Os3 1.786127 1_555
N6 Na10 2.401037 1_565
N6 Na0 2.450546 1_555
N6 Na2 2.476091 1_555
N6 Na5 2.644916 1_565
N6 Na9 2.659800 1_555
N6 Na6 2.776112 1_555
N7 Os2 1.792167 1_555
N7 Na1 2.347608 1_654
N7 Na9 2.466830 1_545
N7 Na10 2.644698 1_655
N7 Na5 2.670703 1_555
N7 Na6 2.995561 1_645
