# generated using pymatgen
data_Mn7Nb12Ga5N4
_symmetry_space_group_name_H-M   'P 1'
_cell_length_a   8.25476151
_cell_length_b   8.26868353
_cell_length_c   8.26868411
_cell_angle_alpha   59.99999768
_cell_angle_beta   59.94419153
_cell_angle_gamma   59.94419462
_symmetry_Int_Tables_number   1
_chemical_formula_structural   Mn7Nb12Ga5N4
_chemical_formula_sum   'Mn7 Nb12 Ga5 N4'
_cell_volume   398.74517765
_cell_formula_units_Z   1
loop_
 _symmetry_equiv_pos_site_id
 _symmetry_equiv_pos_as_xyz
  1  'x, y, z'
loop_
 _atom_site_type_symbol
 _atom_site_label
 _atom_site_symmetry_multiplicity
 _atom_site_fract_x
 _atom_site_fract_y
 _atom_site_fract_z
 _atom_site_occupancy
  Mn  Mn0  1  0.11165896  0.62944735  0.62944735  1
  Mn  Mn1  1  0.63366460  0.11883935  0.62374753  1
  Mn  Mn2  1  0.63366460  0.62374753  0.11883935  1
  Mn  Mn3  1  0.63366460  0.62374753  0.62374753  1
  Mn  Mn4  1  0.82843290  0.50503444  0.83326583  1
  Mn  Mn5  1  0.82843290  0.83326583  0.50503444  1
  Mn  Mn6  1  0.82843290  0.83326583  0.83326583  1
  Nb  Nb0  1  0.80964564  0.80900172  0.19067682  1
  Nb  Nb1  1  0.19002441  0.19399335  0.80799212  1
  Nb  Nb2  1  0.80964564  0.19067682  0.80900172  1
  Nb  Nb3  1  0.19002441  0.80799212  0.19399335  1
  Nb  Nb4  1  0.19002441  0.80799212  0.80799212  1
  Nb  Nb5  1  0.80964564  0.19067682  0.19067682  1
  Nb  Nb6  1  0.43722766  0.43765331  0.06255952  1
  Nb  Nb7  1  0.06443272  0.06253448  0.43651690  1
  Nb  Nb8  1  0.43722766  0.06255952  0.43765331  1
  Nb  Nb9  1  0.06443272  0.43651690  0.06253448  1
  Nb  Nb10  1  0.06443272  0.43651690  0.43651690  1
  Nb  Nb11  1  0.43722766  0.06255952  0.06255952  1
  Ga  Ga0  1  0.75866775  0.41377775  0.41377775  1
  Ga  Ga1  1  0.41486915  0.75569115  0.41472135  1
  Ga  Ga2  1  0.41486915  0.41472135  0.75569115  1
  Ga  Ga3  1  0.41486915  0.41472135  0.41472135  1
  Ga  Ga4  1  0.49637081  0.83454306  0.83454306  1
  N  N0  1  0.62710274  0.12429975  0.12429975  1
  N  N1  1  0.12377083  0.63012022  0.12305447  1
  N  N2  1  0.12377083  0.12305447  0.63012022  1
  N  N3  1  0.12377083  0.12305447  0.12305447  1
loop_
_geom_bond_atom_site_label_1
_geom_bond_atom_site_label_2
_geom_bond_distance
_geom_bond_site_symmetry_2
Mn0 Mn6 2.468443 1_455
Mn0 Mn4 2.468452 1_455
Mn0 Mn5 2.468452 1_455
Mn0 Nb1 2.978311 1_555
Mn0 Nb3 2.978311 1_555
Mn0 Nb4 2.978318 1_555
Mn0 Nb7 3.005437 1_565
Mn0 Nb10 3.005437 1_555
Mn0 Nb9 3.005437 1_556
Mn1 Mn5 2.461391 1_545
Mn1 Mn6 2.461391 1_545
Mn1 Nb7 2.967490 1_655
Mn1 Nb5 2.968620 1_555
Mn1 Nb2 2.968634 1_555
Mn1 Nb8 3.030681 1_555
Mn1 Nb11 3.030688 1_556
Mn1 Nb1 3.032654 1_555
Mn2 Mn6 2.461391 1_554
Mn2 Mn4 2.461391 1_554
Mn2 Nb9 2.967490 1_655
Mn2 Nb5 2.968620 1_555
Mn2 Nb0 2.968634 1_555
Mn2 Nb6 3.030681 1_555
Mn2 Nb11 3.030688 1_565
Mn2 Nb3 3.032654 1_555
Mn3 Mn5 2.461391 1_555
Mn3 Mn4 2.461391 1_555
Mn3 Nb10 2.967487 1_655
Mn3 Nb2 2.968622 1_555
Mn3 Nb0 2.968622 1_555
Mn3 Nb8 3.030686 1_565
Mn3 Nb6 3.030686 1_556
Mn3 Nb4 3.032658 1_555
Mn4 Mn5 2.714041 1_555
Mn4 Mn6 2.714041 1_555
Mn4 Nb2 2.788774 1_555
Mn4 Nb5 2.788783 1_556
Mn4 Nb1 2.791173 1_655
Mn4 Nb6 2.991062 1_556
Mn4 Nb10 3.038045 1_655
Mn4 Nb9 3.038059 1_656
Mn5 Mn6 2.714042 1_555
Mn5 Nb0 2.788774 1_555
Mn5 Nb5 2.788783 1_565
Mn5 Nb3 2.791173 1_655
Mn5 Nb8 2.991062 1_565
Mn5 Nb10 3.038045 1_655
Mn5 Nb7 3.038059 1_665
Mn6 Nb2 2.788790 1_565
Mn6 Nb0 2.788790 1_556
Mn6 Nb4 2.791183 1_655
Mn6 Nb11 2.991066 1_566
Mn6 Nb7 3.038051 1_665
Mn6 Nb9 3.038051 1_656
Ga0 Mn3 2.553154 1_555
Ga0 Mn1 2.553168 1_555
Ga0 Mn2 2.553168 1_555
Ga0 Nb9 2.725338 1_655
Ga0 Nb10 2.725338 1_655
Ga0 Nb7 2.725338 1_655
Ga0 Ga3 2.830181 1_555
Ga0 Ga2 2.830190 1_555
Ga0 Ga1 2.830190 1_555
Ga0 Nb0 2.971734 1_555
Ga0 Nb2 2.971734 1_555
Ga0 Nb5 2.971734 1_555
Ga1 Mn3 2.589789 1_555
Ga1 Mn2 2.589816 1_555
Ga1 Mn0 2.611324 1_555
Ga1 Nb7 2.724166 1_565
Ga1 Nb8 2.737462 1_565
Ga1 Nb11 2.737476 1_565
Ga1 Ga3 2.819371 1_555
Ga1 Ga2 2.819371 1_555
Ga1 Nb4 2.960216 1_555
Ga1 Nb3 2.960223 1_555
Ga1 Nb0 2.970016 1_555
Ga2 Mn3 2.589789 1_555
Ga2 Mn1 2.589816 1_555
Ga2 Mn0 2.611325 1_555
Ga2 Nb9 2.724166 1_556
Ga2 Nb6 2.737462 1_556
Ga2 Nb11 2.737476 1_556
Ga2 Ga3 2.819372 1_555
Ga2 Nb4 2.960216 1_555
Ga2 Nb1 2.960223 1_555
Ga2 Nb2 2.970016 1_555
Ga3 Mn2 2.589798 1_555
Ga3 Mn1 2.589798 1_555
Ga3 Mn0 2.611316 1_555
Ga3 Nb10 2.724173 1_555
Ga3 Nb8 2.737486 1_555
Ga3 Nb6 2.737486 1_555
Ga3 Nb1 2.960219 1_555
Ga3 Nb3 2.960219 1_555
Ga3 Nb5 2.970023 1_555
Ga4 Mn1 2.537935 1_565
Ga4 Mn2 2.537935 1_556
Ga4 Mn3 2.537942 1_555
Ga4 Mn6 2.730555 1_555
Ga4 Mn5 2.730559 1_555
Ga4 Mn4 2.730559 1_555
Ga4 Nb4 2.766178 1_555
Ga4 Nb3 2.766187 1_556
Ga4 Nb1 2.766187 1_565
Ga4 Nb6 3.009726 1_556
Ga4 Nb11 3.009726 1_566
Ga4 Nb8 3.009726 1_565
N0 Nb5 2.197991 1_555
N0 Nb0 2.197997 1_545
N0 Nb2 2.197997 1_554
N0 Nb6 2.200339 1_555
N0 Nb8 2.200339 1_555
N0 Nb11 2.200351 1_555
N1 Nb0 2.181073 1_455
N1 Nb4 2.189990 1_554
N1 Nb3 2.190002 1_555
N1 Nb6 2.202924 1_555
N1 Nb9 2.210232 1_555
N1 Nb10 2.210238 1_555
N2 Nb2 2.181073 1_455
N2 Nb4 2.189990 1_545
N2 Nb1 2.190002 1_555
N2 Nb8 2.202924 1_555
N2 Nb7 2.210233 1_555
N2 Nb10 2.210238 1_555
N3 Nb5 2.181071 1_455
N3 Nb3 2.189986 1_545
N3 Nb1 2.189986 1_554
N3 Nb11 2.202924 1_555
N3 Nb9 2.210240 1_555
N3 Nb7 2.210240 1_555
