# generated using pymatgen
data_CdIn5Co2
_symmetry_space_group_name_H-M   'P 1'
_cell_length_a   6.85216087
_cell_length_b   6.85217382
_cell_length_c   6.96192220
_cell_angle_alpha   89.99995180
_cell_angle_beta   89.99977481
_cell_angle_gamma   90.00074729
_symmetry_Int_Tables_number   1
_chemical_formula_structural   CdIn5Co2
_chemical_formula_sum   'Cd2 In10 Co4'
_cell_volume   326.87754471
_cell_formula_units_Z   2
loop_
 _symmetry_equiv_pos_site_id
 _symmetry_equiv_pos_as_xyz
  1  'x, y, z'
loop_
 _atom_site_type_symbol
 _atom_site_label
 _atom_site_symmetry_multiplicity
 _atom_site_fract_x
 _atom_site_fract_y
 _atom_site_fract_z
 _atom_site_occupancy
  Cd  Cd0  1  0.50000000  0.50000000  0.00000000  1
  Cd  Cd1  1  0.50000000  0.50000000  0.50000000  1
  In  In0  1  0.00000000  0.00000000  0.00000000  1
  In  In1  1  0.83738835  0.34991115  0.24117210  1
  In  In2  1  0.16261165  0.65008885  0.24117110  1
  In  In3  1  0.34990391  0.16264765  0.25877328  1
  In  In4  1  0.65009709  0.83735235  0.25877428  1
  In  In5  1  0.00000000  0.00000000  0.50000000  1
  In  In6  1  0.34990391  0.16264765  0.74122572  1
  In  In7  1  0.65009709  0.83735235  0.74122672  1
  In  In8  1  0.83738835  0.34991215  0.75882890  1
  In  In9  1  0.16261165  0.65008985  0.75882790  1
  Co  Co0  1  0.14407633  0.34475435  1.00000000  1
  Co  Co1  1  0.85592267  0.65524565  0.00000000  1
  Co  Co2  1  0.65526991  0.14411082  0.50000000  1
  Co  Co3  1  0.34473009  0.85588818  0.50000000  1
loop_
_geom_bond_atom_site_label_1
_geom_bond_atom_site_label_2
_geom_bond_distance
_geom_bond_site_symmetry_2
Cd0 Co1 2.660729 1_555
Cd0 Co0 2.660735 1_554
Cd0 In8 3.036674 1_554
Cd0 In2 3.036676 1_555
Cd0 In1 3.036689 1_555
Cd0 In9 3.036692 1_554
Cd0 In3 3.105928 1_555
Cd0 In7 3.105930 1_554
Cd0 In6 3.105939 1_554
Cd0 In4 3.105941 1_555
Cd1 Co3 2.660607 1_555
Cd1 Co2 2.660614 1_555
Cd1 In6 3.036699 1_555
Cd1 In4 3.036701 1_555
Cd1 In3 3.036710 1_555
Cd1 In7 3.036712 1_555
Cd1 In1 3.106332 1_555
Cd1 In9 3.106334 1_555
Cd1 In8 3.106343 1_555
Cd1 In2 3.106346 1_555
Co0 In0 2.560295 1_556
Co0 In6 2.606121 1_555
Co0 In3 2.606123 1_556
Co0 In2 2.685618 1_556
Co0 In9 2.685625 1_555
Co0 In1 2.690081 1_456
Co0 In8 2.690087 1_455
Co1 In0 2.560298 1_665
Co1 In4 2.606114 1_555
Co1 In7 2.606115 1_554
Co1 In8 2.685612 1_554
Co1 In1 2.685619 1_555
Co1 In9 2.690086 1_654
Co1 In2 2.690092 1_655
Co2 In5 2.560253 1_655
Co2 In1 2.606298 1_555
Co2 In8 2.606315 1_555
Co2 In6 2.686017 1_555
Co2 In3 2.686032 1_555
Co2 In4 2.690701 1_545
Co2 In7 2.690703 1_545
Co3 In5 2.560256 1_565
Co3 In9 2.606291 1_555
Co3 In2 2.606308 1_555
Co3 In4 2.686022 1_555
Co3 In7 2.686037 1_555
Co3 In6 2.690707 1_565
Co3 In3 2.690709 1_565
