# generated using pymatgen
data_Sr(RuO3)2
_symmetry_space_group_name_H-M   'P 1'
_cell_length_a   5.46611855
_cell_length_b   5.46611855
_cell_length_c   5.46611855
_cell_angle_alpha   119.93853524
_cell_angle_beta   119.90577016
_cell_angle_gamma   90.13489078
_symmetry_Int_Tables_number   1
_chemical_formula_structural   Sr(RuO3)2
_chemical_formula_sum   'Sr1 Ru2 O6'
_cell_volume   115.61961266
_cell_formula_units_Z   1
loop_
 _symmetry_equiv_pos_site_id
 _symmetry_equiv_pos_as_xyz
  1  'x, y, z'
loop_
 _atom_site_type_symbol
 _atom_site_label
 _atom_site_symmetry_multiplicity
 _atom_site_fract_x
 _atom_site_fract_y
 _atom_site_fract_z
 _atom_site_occupancy
  Sr  Sr0  1  0.50245900  0.50000000  0.00245900  1
  Ru  Ru0  1  0.24977000  0.75045800  0.49931200  1
  Ru  Ru1  1  0.74885500  0.24954200  0.49931200  1
  O  O0  1  0.52671100  0.02565800  0.99775700  1
  O  O1  1  0.52671100  0.52895400  0.50105200  1
  O  O2  1  0.43387200  0.00000000  0.43387200  1
  O  O3  1  0.04842600  0.50000000  0.54842600  1
  O  O4  1  0.97209800  0.97434200  0.50105200  1
  O  O5  1  0.97209800  0.47104600  0.99775700  1
loop_
_geom_bond_atom_site_label_1
_geom_bond_atom_site_label_2
_geom_bond_distance
_geom_bond_site_symmetry_2
O0 Ru0 1.939944 1_545
O0 Ru1 1.952666 1_556
O0 Sr0 2.584453 1_556
O0 Sr0 2.889542 1_546
O1 Ru0 1.939944 1_555
O1 Ru1 1.952671 1_555
O1 Sr0 2.584447 1_555
O1 Sr0 2.889548 1_556
O2 Ru0 1.959768 1_545
O2 Ru1 1.959772 1_555
O2 Sr0 2.761241 1_556
O2 Sr0 2.761241 1_545
O3 Ru1 1.952419 1_455
O3 Ru0 1.952423 1_555
O3 Sr0 2.485332 1_556
O3 Sr0 2.988570 1_455
O4 Ru1 1.939936 1_565
O4 Ru0 1.952671 1_655
O4 Sr0 2.584450 1_555
O4 Sr0 2.889545 1_666
O5 Ru1 1.939944 1_555
O5 Ru0 1.952667 1_656
O5 Sr0 2.584447 1_556
O5 Sr0 2.889548 1_656
