# generated using pymatgen
data_Pd4IBr7
_symmetry_space_group_name_H-M   'P 1'
_cell_length_a   8.32895520
_cell_length_b   6.46592055
_cell_length_c   6.65886898
_cell_angle_alpha   74.96844127
_cell_angle_beta   89.15469708
_cell_angle_gamma   90.12006227
_symmetry_Int_Tables_number   1
_chemical_formula_structural   Pd4IBr7
_chemical_formula_sum   'Pd4 I1 Br7'
_cell_volume   346.29445658
_cell_formula_units_Z   1
loop_
 _symmetry_equiv_pos_site_id
 _symmetry_equiv_pos_as_xyz
  1  'x, y, z'
loop_
 _atom_site_type_symbol
 _atom_site_label
 _atom_site_symmetry_multiplicity
 _atom_site_fract_x
 _atom_site_fract_y
 _atom_site_fract_z
 _atom_site_occupancy
  Pd  Pd0  1  0.37038989  0.22834442  0.99235527  1
  Pd  Pd1  1  0.87276853  0.77299056  0.51215637  1
  Pd  Pd2  1  0.62494627  0.77240580  0.99994227  1
  Pd  Pd3  1  0.12963935  0.23044525  0.49766253  1
  I  I0  1  0.82805047  0.53978548  0.25440549  1
  Br  Br0  1  0.92600347  0.01688671  0.73754887  1
  Br  Br1  1  0.42445299  0.99312266  0.76323979  1
  Br  Br2  1  0.07582730  0.98896760  0.27507483  1
  Br  Br3  1  0.56837599  0.00989184  0.22664065  1
  Br  Br4  1  0.67457107  0.55343706  0.75406648  1
  Br  Br5  1  0.18112840  0.44856119  0.74452846  1
  Br  Br6  1  0.32384526  0.44516144  0.24238000  1
loop_
_geom_bond_atom_site_label_1
_geom_bond_atom_site_label_2
_geom_bond_distance
_geom_bond_site_symmetry_2
I0 Pd1 2.591747 1_555
I0 Pd2 2.601611 1_554
I0 Pd3 3.375617 1_655
Br0 Pd3 2.470050 1_655
Br0 Pd1 2.486072 1_545
Br0 Pd2 3.203238 1_545
Br1 Pd0 2.455561 1_565
Br1 Pd2 2.496092 1_555
Br1 Pd3 3.201228 1_565
Br2 Pd3 2.460225 1_565
Br2 Pd1 2.463863 1_455
Br2 Pd0 3.208638 1_564
Br3 Pd2 2.458278 1_544
Br3 Pd0 2.467974 1_554
Br4 Pd2 2.457825 1_555
Br4 Pd1 2.461862 1_555
Br5 Pd3 2.468998 1_555
Br5 Pd0 2.470428 1_555
Br6 Pd0 2.466050 1_554
Br6 Pd3 2.473628 1_555
