# generated using pymatgen
data_Ti8Al10Si5Ir7
_symmetry_space_group_name_H-M   'P 1'
_cell_length_a   8.53169696
_cell_length_b   8.53169581
_cell_length_c   8.53169667
_cell_angle_alpha   120.12453487
_cell_angle_beta   119.83046833
_cell_angle_gamma   90.03916352
_symmetry_Int_Tables_number   1
_chemical_formula_structural   Ti8Al10Si5Ir7
_chemical_formula_sum   'Ti8 Al10 Si5 Ir7'
_cell_volume   439.27366209
_cell_formula_units_Z   1
loop_
 _symmetry_equiv_pos_site_id
 _symmetry_equiv_pos_as_xyz
  1  'x, y, z'
loop_
 _atom_site_type_symbol
 _atom_site_label
 _atom_site_symmetry_multiplicity
 _atom_site_fract_x
 _atom_site_fract_y
 _atom_site_fract_z
 _atom_site_occupancy
  Ti  Ti0  1  0.79888998  0.29730369  0.09216286  1
  Ti  Ti1  1  0.20513984  0.29730369  0.49841471  1
  Ti  Ti2  1  0.20488223  0.70488223  0.50000000  1
  Ti  Ti3  1  0.20513984  0.70672612  0.90783714  1
  Ti  Ti4  1  0.79888998  0.70672612  0.50158529  1
  Ti  Ti5  1  0.79579940  0.29579940  0.50000000  1
  Ti  Ti6  1  0.37652928  0.12409672  0.74756743  1
  Ti  Ti7  1  0.37652928  0.62896185  0.25243257  1
  Al  Al0  1  0.83636758  0.66255210  0.82618552  1
  Al  Al1  1  0.83636758  0.01018306  0.17381448  1
  Al  Al2  1  0.83667275  0.66285002  0.17382273  1
  Al  Al3  1  0.48902728  0.66285002  0.82617727  1
  Al  Al4  1  0.37968824  0.12109686  0.25859338  1
  Al  Al5  1  0.86250448  0.12109686  0.74140662  1
  Al  Al6  1  0.61971938  0.88121652  0.26149714  1
  Al  Al7  1  0.61971938  0.35822224  0.73850286  1
  Al  Al8  1  0.62242177  0.88022538  0.74219739  1
  Al  Al9  1  0.13802699  0.88022538  0.25780261  1
  Si  Si0  1  0.00098416  0.50098416  0.50000000  1
  Si  Si1  1  0.15183074  0.34757953  0.19574680  1
  Si  Si2  1  0.15183074  0.95608394  0.80425320  1
  Si  Si3  1  0.14932340  0.34939317  0.79993022  1
  Si  Si4  1  0.54946195  0.34939317  0.20006978  1
  Ir  Ir0  1  0.00580644  0.00742496  0.51422263  1
  Ir  Ir1  1  0.49320233  0.00742496  0.00161752  1
  Ir  Ir2  1  0.49290240  0.49290240  1.00000000  1
  Ir  Ir3  1  0.49320233  0.49158381  0.48577737  1
  Ir  Ir4  1  0.00580644  0.49158381  0.99838248  1
  Ir  Ir5  1  0.00770627  0.00770627  0.00000000  1
  Ir  Ir6  1  0.49562158  0.99562158  0.50000000  1
loop_
_geom_bond_atom_site_label_1
_geom_bond_atom_site_label_2
_geom_bond_distance
_geom_bond_site_symmetry_2
Al0 Ir4 2.533136 1_655
Al0 Ir3 2.533139 1_555
Al0 Ir5 2.541988 1_666
Al0 Ti5 2.820440 1_555
Al1 Ir1 2.533136 1_555
Al1 Ir0 2.533144 1_655
Al1 Ir5 2.541979 1_655
Al1 Ti5 2.820442 1_555
Al2 Ir2 2.532265 1_554
Al2 Ir4 2.532604 1_654
Al2 Ir0 2.532609 1_665
Al3 Ir2 2.532265 1_555
Al3 Ir1 2.532609 1_566
Al3 Ir3 2.532609 1_555
Al4 Ir6 2.560115 1_545
Al4 Ir3 2.581588 1_555
Al4 Ir1 2.581609 1_555
Al4 Ir5 2.600556 1_555
Al4 Si2 2.794362 1_544
Al4 Si1 2.794365 1_555
Al4 Si4 2.798736 1_555
Al4 Ti5 2.950259 1_555
Al5 Ir6 2.560122 1_545
Al5 Ir0 2.581581 1_655
Al5 Ir4 2.581587 1_655
Al5 Ir5 2.600569 1_656
Al5 Si2 2.794356 1_645
Al5 Si1 2.794361 1_656
Al5 Si3 2.798725 1_655
Al5 Ti5 2.950243 1_555
Al6 Ir6 2.522975 1_555
Al6 Ir0 2.693987 1_665
Al6 Ir1 2.693993 1_565
Al6 Ir2 2.701553 1_554
Al6 Ti5 2.938616 1_565
Al7 Ir6 2.522975 1_545
Al7 Ir3 2.693986 1_555
Al7 Ir4 2.693987 1_655
Al7 Ir2 2.701553 1_555
Al7 Ti5 2.938616 1_555
Al8 Ir6 2.495792 1_555
Al8 Ir5 2.688285 1_666
Al8 Ir1 2.703708 1_566
Al8 Ir3 2.703721 1_555
Al9 Ir6 2.495799 1_555
Al9 Ir5 2.688278 1_565
Al9 Ir0 2.703715 1_565
Al9 Ir4 2.703721 1_554
Si0 Ti2 2.459320 1_555
Si0 Ti1 2.461250 1_555
Si0 Ti4 2.461250 1_455
Si0 Ti3 2.461256 1_555
Si0 Ti0 2.461256 1_455
Si0 Ti5 2.474839 1_455
Si1 Ti0 2.646221 1_455
Si1 Ti1 2.646243 1_555
Si1 Ti2 2.668744 1_555
Si1 Ti7 2.752844 1_555
Si2 Ti4 2.646223 1_455
Si2 Ti3 2.646229 1_555
Si2 Ti2 2.668755 1_555
Si2 Ti6 2.752858 1_565
Si3 Ti5 2.645655 1_455
Si3 Ti1 2.667062 1_555
Si3 Ti3 2.667067 1_555
Si3 Ti7 2.767052 1_556
Si3 Ti6 2.767052 1_555
Si4 Ti5 2.645657 1_555
Si4 Ti4 2.667073 1_555
Si4 Ti0 2.667084 1_555
Si4 Ti7 2.767047 1_555
Si4 Ti6 2.767053 1_554
Ir0 Si3 2.416700 1_555
Ir0 Si2 2.426652 1_545
Ir0 Ti6 2.588476 1_555
Ir0 Ti5 3.060646 1_455
Ir1 Si4 2.416702 1_555
Ir1 Si2 2.426652 1_544
Ir1 Ti6 2.588469 1_554
Ir1 Ti5 3.060651 1_555
Ir2 Si3 2.434075 1_555
Ir2 Si4 2.434076 1_556
Ir2 Ti6 2.567308 1_555
Ir2 Ti7 2.567309 1_556
Ir3 Si4 2.416695 1_555
Ir3 Si1 2.426652 1_555
Ir3 Ti7 2.588476 1_555
Ir3 Ti5 3.060647 1_555
Ir4 Si3 2.416707 1_555
Ir4 Si1 2.426631 1_556
Ir4 Ti7 2.588476 1_556
Ir4 Ti5 3.060654 1_455
Ir5 Si2 2.408418 1_544
Ir5 Si1 2.408432 1_555
Ir5 Ti0 3.057199 1_455
Ir5 Ti3 3.057199 1_544
Ir5 Ti4 3.057206 1_444
Ir5 Ti1 3.057206 1_555
Ir6 Ti7 2.551043 1_555
Ir6 Ti6 2.551043 1_565
