# generated using pymatgen
data_Ti3GaPt2O
_symmetry_space_group_name_H-M   'P 1'
_cell_length_a   8.19391536
_cell_length_b   8.19393437
_cell_length_c   8.19389608
_cell_angle_alpha   60.00028485
_cell_angle_beta   59.99946877
_cell_angle_gamma   59.99911353
_symmetry_Int_Tables_number   1
_chemical_formula_structural   Ti3GaPt2O
_chemical_formula_sum   'Ti12 Ga4 Pt8 O4'
_cell_volume   389.00545345
_cell_formula_units_Z   4
loop_
 _symmetry_equiv_pos_site_id
 _symmetry_equiv_pos_as_xyz
  1  'x, y, z'
loop_
 _atom_site_type_symbol
 _atom_site_label
 _atom_site_symmetry_multiplicity
 _atom_site_fract_x
 _atom_site_fract_y
 _atom_site_fract_z
 _atom_site_occupancy
  Ti  Ti0  1  0.93640123  0.93638573  0.56360947  1
  Ti  Ti1  1  0.56360394  0.93640152  0.56360662  1
  Ti  Ti2  1  0.93640937  0.56360242  0.56360857  1
  Ti  Ti3  1  0.56360445  0.56360164  0.93639803  1
  Ti  Ti4  1  0.93640831  0.56360470  0.93638205  1
  Ti  Ti5  1  0.56360646  0.93640138  0.93638902  1
  Ti  Ti6  1  0.31359877  0.31361427  0.68639053  1
  Ti  Ti7  1  0.68639606  0.31359848  0.68639338  1
  Ti  Ti8  1  0.31359063  0.68639758  0.68639143  1
  Ti  Ti9  1  0.68639555  0.68639836  0.31360197  1
  Ti  Ti10  1  0.31359169  0.68639530  0.31361795  1
  Ti  Ti11  1  0.68639354  0.31359862  0.31361098  1
  Ga  Ga0  1  0.12500000  0.12500000  0.62500000  1
  Ga  Ga1  1  0.12500000  0.62500000  0.12500000  1
  Ga  Ga2  1  0.62500000  0.12500000  0.12500000  1
  Ga  Ga3  1  0.12500000  0.12500000  0.12500000  1
  Pt  Pt0  1  0.34350470  0.34352297  0.96943819  1
  Pt  Pt1  1  0.34349456  0.96945278  0.34352122  1
  Pt  Pt2  1  0.96947257  0.34350157  0.34350983  1
  Pt  Pt3  1  0.34351100  0.34352394  0.34352645  1
  Pt  Pt4  1  0.90649530  0.90647703  0.28056181  1
  Pt  Pt5  1  0.90650544  0.28054722  0.90647878  1
  Pt  Pt6  1  0.28052743  0.90649843  0.90649017  1
  Pt  Pt7  1  0.90648900  0.90647606  0.90647355  1
  O  O0  1  0.62500000  0.62500000  0.12500000  1
  O  O1  1  0.62500000  0.12500000  0.62500000  1
  O  O2  1  0.12500000  0.62500000  0.62500000  1
  O  O3  1  0.62500000  0.62500000  0.62500000  1
loop_
_geom_bond_atom_site_label_1
_geom_bond_atom_site_label_2
_geom_bond_distance
_geom_bond_site_symmetry_2
Ga0 Pt5 2.584113 1_455
Ga0 Pt1 2.584113 1_545
Ga0 Pt6 2.584123 1_545
Ga0 Pt2 2.584123 1_455
Ga0 Pt3 2.584192 1_555
Ga0 Pt7 2.584192 1_445
Ga1 Pt4 2.584174 1_455
Ga1 Pt0 2.584174 1_554
Ga1 Pt3 2.584190 1_555
Ga1 Pt7 2.584190 1_454
Ga1 Pt6 2.584196 1_554
Ga1 Pt2 2.584196 1_455
Ga2 Pt3 2.584241 1_555
Ga2 Pt7 2.584241 1_544
Ga2 Pt4 2.584313 1_545
Ga2 Pt0 2.584313 1_554
Ga2 Pt5 2.584326 1_554
Ga2 Pt1 2.584326 1_545
Ga3 Pt2 2.584058 1_455
Ga3 Pt6 2.584058 1_544
Ga3 Pt1 2.584077 1_545
Ga3 Pt5 2.584077 1_454
Ga3 Pt0 2.584149 1_554
Ga3 Pt4 2.584149 1_445
Pt0 Ti6 2.587635 1_555
Pt0 Ti8 2.587707 1_555
Pt0 Ti7 2.587744 1_555
Pt0 Ti4 2.975210 1_455
Pt0 Ti5 2.975369 1_545
Pt0 Ti3 2.975502 1_555
Pt1 Ti10 2.587685 1_555
Pt1 Ti8 2.587712 1_555
Pt1 Ti9 2.587814 1_555
Pt1 Ti0 2.975232 1_455
Pt1 Ti5 2.975447 1_554
Pt1 Ti1 2.975557 1_555
Pt2 Ti7 2.587817 1_555
Pt2 Ti11 2.587837 1_555
Pt2 Ti9 2.587876 1_555
Pt2 Ti0 2.975433 1_545
Pt2 Ti4 2.975481 1_554
Pt2 Ti2 2.975529 1_555
Pt3 Ti6 2.587623 1_555
Pt3 Ti10 2.587674 1_555
Pt3 Ti11 2.587712 1_555
Pt3 Ti2 2.975231 1_455
Pt3 Ti1 2.975395 1_545
Pt3 Ti3 2.975427 1_554
Pt4 Ti0 2.587635 1_555
Pt4 Ti2 2.587707 1_555
Pt4 Ti1 2.587744 1_555
Pt4 Ti10 2.975210 1_655
Pt4 Ti11 2.975369 1_565
Pt4 Ti9 2.975502 1_555
Pt5 Ti4 2.587685 1_555
Pt5 Ti2 2.587712 1_555
Pt5 Ti3 2.587814 1_555
Pt5 Ti6 2.975232 1_655
Pt5 Ti11 2.975447 1_556
Pt5 Ti7 2.975557 1_555
Pt6 Ti1 2.587817 1_555
Pt6 Ti5 2.587837 1_555
Pt6 Ti3 2.587876 1_555
Pt6 Ti6 2.975433 1_565
Pt6 Ti10 2.975481 1_556
Pt6 Ti8 2.975529 1_555
Pt7 Ti0 2.587623 1_555
Pt7 Ti4 2.587674 1_555
Pt7 Ti5 2.587712 1_555
Pt7 Ti8 2.975231 1_655
Pt7 Ti7 2.975395 1_565
Pt7 Ti9 2.975427 1_556
O0 Ti9 2.168505 1_555
O0 Ti3 2.168505 1_554
O0 Ti11 2.168560 1_555
O0 Ti5 2.168560 1_554
O0 Ti4 2.168583 1_554
O0 Ti10 2.168583 1_555
O1 Ti7 2.168458 1_555
O1 Ti1 2.168458 1_545
O1 Ti5 2.168463 1_545
O1 Ti11 2.168463 1_555
O1 Ti0 2.168530 1_545
O1 Ti6 2.168530 1_555
O2 Ti4 2.168393 1_455
O2 Ti10 2.168393 1_555
O2 Ti8 2.168396 1_555
O2 Ti2 2.168396 1_455
O2 Ti6 2.168425 1_555
O2 Ti0 2.168425 1_455
O3 Ti3 2.168514 1_555
O3 Ti9 2.168514 1_555
O3 Ti1 2.168558 1_555
O3 Ti7 2.168558 1_555
O3 Ti2 2.168605 1_555
O3 Ti8 2.168605 1_555
