# generated using pymatgen
data_K4PbSe4
_symmetry_space_group_name_H-M   'P 1'
_cell_length_a   8.34074590
_cell_length_b   10.50359601
_cell_length_c   14.69672141
_cell_angle_alpha   90.00000000
_cell_angle_beta   90.00000000
_cell_angle_gamma   90.00000000
_symmetry_Int_Tables_number   1
_chemical_formula_structural   K4PbSe4
_chemical_formula_sum   'K16 Pb4 Se16'
_cell_volume   1287.54780241
_cell_formula_units_Z   4
loop_
 _symmetry_equiv_pos_site_id
 _symmetry_equiv_pos_as_xyz
  1  'x, y, z'
loop_
 _atom_site_type_symbol
 _atom_site_label
 _atom_site_symmetry_multiplicity
 _atom_site_fract_x
 _atom_site_fract_y
 _atom_site_fract_z
 _atom_site_occupancy
  K  K0  1  0.00000000  0.00000000  0.00000000  1
  K  K1  1  0.50000000  0.00000000  0.50000000  1
  K  K2  1  0.00000000  0.50000000  0.00000000  1
  K  K3  1  0.50000000  0.50000000  0.50000000  1
  K  K4  1  0.98614768  0.75000000  0.41843111  1
  K  K5  1  0.48614768  0.25000000  0.08156889  1
  K  K6  1  0.01385232  0.25000000  0.58156889  1
  K  K7  1  0.51385232  0.75000000  0.91843111  1
  K  K8  1  0.83858213  0.04798883  0.27084441  1
  K  K9  1  0.33858213  0.95201117  0.22915559  1
  K  K10  1  0.16141787  0.54798883  0.72915559  1
  K  K11  1  0.66141787  0.45201117  0.77084441  1
  K  K12  1  0.16141787  0.95201117  0.72915559  1
  K  K13  1  0.66141787  0.04798883  0.77084441  1
  K  K14  1  0.83858213  0.45201117  0.27084441  1
  K  K15  1  0.33858213  0.54798883  0.22915559  1
  Pb  Pb0  1  0.76661603  0.75000000  0.66560684  1
  Pb  Pb1  1  0.23338397  0.25000000  0.33439316  1
  Pb  Pb2  1  0.73338397  0.75000000  0.16560684  1
  Pb  Pb3  1  0.26661603  0.25000000  0.83439316  1
  Se  Se0  1  0.94949333  0.25000000  0.82612016  1
  Se  Se1  1  0.55050667  0.25000000  0.32612016  1
  Se  Se2  1  0.44949333  0.75000000  0.67387984  1
  Se  Se3  1  0.05050667  0.75000000  0.17387984  1
  Se  Se4  1  0.63515764  0.54658119  0.08048363  1
  Se  Se5  1  0.13515764  0.45341881  0.41951637  1
  Se  Se6  1  0.36484236  0.04658119  0.91951637  1
  Se  Se7  1  0.86484236  0.95341881  0.58048363  1
  Se  Se8  1  0.36484236  0.45341881  0.91951637  1
  Se  Se9  1  0.86484236  0.54658119  0.58048363  1
  Se  Se10  1  0.63515764  0.95341881  0.08048363  1
  Se  Se11  1  0.13515764  0.04658119  0.41951637  1
  Se  Se12  1  0.60982168  0.75000000  0.33293927  1
  Se  Se13  1  0.10982168  0.25000000  0.16706073  1
  Se  Se14  1  0.39017832  0.25000000  0.66706073  1
  Se  Se15  1  0.89017832  0.75000000  0.83293927  1
loop_
_geom_bond_atom_site_label_1
_geom_bond_atom_site_label_2
_geom_bond_distance
_geom_bond_site_symmetry_2
K0 Se6 3.301319 1_554
K0 Se10 3.301319 1_445
K0 Se3 3.688252 1_545
K0 Se0 3.688252 1_454
K0 Se13 3.709801 1_555
K0 Se15 3.709801 1_444
K1 Se7 3.301319 1_545
K1 Se11 3.301319 1_555
K1 Se2 3.688252 1_545
K1 Se1 3.688252 1_555
K1 Se14 3.709801 1_555
K1 Se12 3.709801 1_545
K2 Se8 3.301319 1_554
K2 Se4 3.301319 1_455
K2 Se3 3.688252 1_555
K2 Se0 3.688252 1_454
K2 Se13 3.709801 1_555
K2 Se15 3.709801 1_454
K3 Se9 3.301319 1_555
K3 Se5 3.301319 1_555
K3 Se2 3.688252 1_555
K3 Se1 3.688252 1_555
K3 Se14 3.709801 1_555
K3 Se12 3.709801 1_555
K4 Se11 3.353986 1_665
K4 Se5 3.353986 1_655
K4 Se7 3.355754 1_555
K4 Se9 3.355754 1_555
K4 Se12 3.380973 1_555
K4 Se3 3.633968 1_655
K5 Se4 3.353986 1_555
K5 Se10 3.353986 1_545
K5 Se8 3.355754 1_554
K5 Se6 3.355754 1_554
K5 Se13 3.380973 1_555
K5 Se1 3.633968 1_555
K6 Se9 3.353986 1_455
K6 Se7 3.353986 1_445
K6 Se5 3.355754 1_555
K6 Se11 3.355754 1_555
K6 Se14 3.380973 1_555
K6 Se0 3.633968 1_455
K7 Se6 3.353986 1_565
K7 Se8 3.353986 1_555
K7 Se10 3.355754 1_556
K7 Se4 3.355754 1_556
K7 Se15 3.380973 1_555
K7 Se2 3.633968 1_555
K8 Se11 3.300515 1_655
K8 Se1 3.306879 1_555
K8 Se10 3.419435 1_545
K8 Se13 3.456426 1_655
K8 Se12 3.777569 1_545
K8 Se3 3.866763 1_645
K9 Se10 3.300515 1_555
K9 Se3 3.306879 1_555
K9 Se11 3.419435 1_565
K9 Se12 3.456426 1_555
K9 Se13 3.777569 1_565
K9 Se1 3.866763 1_565
K10 Se9 3.300515 1_455
K10 Se2 3.306879 1_555
K10 Se8 3.419435 1_555
K10 Se15 3.456426 1_455
K10 Se14 3.777569 1_555
K10 Se0 3.866763 1_455
K11 Se8 3.300515 1_555
K11 Se0 3.306879 1_555
K11 Se9 3.419435 1_555
K11 Se14 3.456426 1_555
K11 Se15 3.777569 1_555
K11 Se2 3.866763 1_555
K12 Se7 3.300515 1_455
K12 Se2 3.306879 1_555
K12 Se6 3.419435 1_565
K12 Se15 3.456426 1_455
K12 Se14 3.777569 1_565
K12 Se0 3.866763 1_465
K13 Se6 3.300515 1_555
K13 Se0 3.306879 1_555
K13 Se7 3.419435 1_545
K13 Se14 3.456426 1_555
K13 Se15 3.777569 1_545
K13 Se2 3.866763 1_545
K14 Se5 3.300515 1_655
K14 Se1 3.306879 1_555
K14 Se4 3.419435 1_555
K14 Se13 3.456426 1_655
K14 Se12 3.777569 1_555
K14 Se3 3.866763 1_655
K15 Se4 3.300515 1_555
K15 Se3 3.306879 1_555
K15 Se5 3.419435 1_555
K15 Se12 3.456426 1_555
K15 Se13 3.777569 1_555
K15 Se1 3.866763 1_555
Pb0 Se7 2.607966 1_555
Pb0 Se9 2.607966 1_555
Pb0 Se2 2.647833 1_555
Pb0 Se15 2.666457 1_555
Pb1 Se5 2.607966 1_555
Pb1 Se11 2.607966 1_555
Pb1 Se1 2.647833 1_555
Pb1 Se13 2.666457 1_555
Pb2 Se10 2.607966 1_555
Pb2 Se4 2.607966 1_555
Pb2 Se3 2.647833 1_655
Pb2 Se12 2.666457 1_555
Pb3 Se8 2.607966 1_555
Pb3 Se6 2.607966 1_555
Pb3 Se0 2.647833 1_455
Pb3 Se14 2.666457 1_555
