# generated using pymatgen
data_Na3Ca2NbO6
_symmetry_space_group_name_H-M   'P 1'
_cell_length_a   10.91567014
_cell_length_b   10.37076231
_cell_length_c   5.76533674
_cell_angle_alpha   79.57410241
_cell_angle_beta   69.13050209
_cell_angle_gamma   31.29539771
_symmetry_Int_Tables_number   1
_chemical_formula_structural   Na3Ca2NbO6
_chemical_formula_sum   'Na6 Ca4 Nb2 O12'
_cell_volume   306.36518971
_cell_formula_units_Z   2
loop_
 _symmetry_equiv_pos_site_id
 _symmetry_equiv_pos_as_xyz
  1  'x, y, z'
loop_
 _atom_site_type_symbol
 _atom_site_label
 _atom_site_symmetry_multiplicity
 _atom_site_fract_x
 _atom_site_fract_y
 _atom_site_fract_z
 _atom_site_occupancy
  Na  Na0  1  0.00000000  0.00000000  0.00000000  1
  Na  Na1  1  0.08642613  0.08642613  0.41357387  1
  Na  Na2  1  0.83642613  0.83642613  0.16357387  1
  Na  Na3  1  0.16357387  0.16357387  0.83642613  1
  Na  Na4  1  0.25000000  0.25000000  0.25000000  1
  Na  Na5  1  0.41357387  0.41357387  0.08642613  1
  Ca  Ca0  1  0.58075064  0.58075064  0.91924936  1
  Ca  Ca1  1  0.91924936  0.91924936  0.58075064  1
  Ca  Ca2  1  0.66924936  0.66924936  0.33075064  1
  Ca  Ca3  1  0.33075064  0.33075064  0.66924936  1
  Nb  Nb0  1  0.75000000  0.75000000  0.75000000  1
  Nb  Nb1  1  0.50000000  0.50000000  0.50000000  1
  O  O0  1  0.28536941  0.71463059  0.28536941  1
  O  O1  1  0.71463059  0.28536941  0.71463059  1
  O  O2  1  0.96463059  0.53536941  0.96463059  1
  O  O3  1  0.53536941  0.96463059  0.53536941  1
  O  O4  1  0.20397708  0.64769152  0.78887039  1
  O  O5  1  0.35946101  0.78887039  0.64769152  1
  O  O6  1  0.78887039  0.35946101  0.20397708  1
  O  O7  1  0.64769152  0.20397708  0.35946101  1
  O  O8  1  0.60230848  0.04602292  0.89053899  1
  O  O9  1  0.89053899  0.46112961  0.60230848  1
  O  O10  1  0.46112961  0.89053899  0.04602292  1
  O  O11  1  0.04602292  0.60230848  0.46112961  1
loop_
_geom_bond_atom_site_label_1
_geom_bond_atom_site_label_2
_geom_bond_distance
_geom_bond_site_symmetry_2
Na0 O6 2.358902 1_455
Na0 O4 2.358902 1_544
Na0 O7 2.358903 1_455
Na0 O5 2.358903 1_544
Na0 O0 2.702382 1_545
Na0 O1 2.702382 1_454
Na1 O0 2.389007 1_545
Na1 O1 2.389007 1_455
Na1 O5 2.422393 1_545
Na1 O6 2.422393 1_455
Na1 O9 2.555219 1_455
Na1 O10 2.555219 1_545
Na2 O2 2.389007 1_554
Na2 O3 2.389007 1_555
Na2 O11 2.422393 1_655
Na2 O8 2.422393 1_564
Na2 O7 2.555219 1_565
Na2 O4 2.555219 1_654
Na3 O2 2.389007 1_455
Na3 O3 2.389007 1_545
Na3 O9 2.422393 1_455
Na3 O10 2.422393 1_546
Na3 O5 2.555219 1_545
Na3 O6 2.555219 1_456
Na4 O10 2.358902 1_545
Na4 O11 2.358902 1_555
Na4 O8 2.358903 1_554
Na4 O9 2.358903 1_455
Na4 O3 2.702382 1_545
Na4 O2 2.702382 1_454
Na5 O0 2.389007 1_555
Na5 O1 2.389007 1_554
Na5 O4 2.422393 1_554
Na5 O7 2.422393 1_555
Na5 O8 2.555219 1_554
Na5 O11 2.555219 1_555
Ca0 O1 2.310894 1_555
Ca0 O0 2.310894 1_556
Ca0 O6 2.346464 1_556
Ca0 O5 2.346464 1_555
Ca0 O10 2.358282 1_556
Ca0 O9 2.358282 1_555
Ca1 O1 2.310893 1_565
Ca1 O0 2.310894 1_655
Ca1 O7 2.346464 1_565
Ca1 O4 2.346464 1_655
Ca1 O11 2.358282 1_655
Ca1 O8 2.358282 1_565
Ca2 O3 2.310894 1_555
Ca2 O2 2.310894 1_554
Ca2 O10 2.346464 1_555
Ca2 O9 2.346464 1_555
Ca2 O6 2.358282 1_555
Ca2 O5 2.358282 1_555
Ca3 O3 2.310893 1_545
Ca3 O2 2.310894 1_455
Ca3 O8 2.346464 1_555
Ca3 O11 2.346464 1_555
Ca3 O4 2.358282 1_555
Ca3 O7 2.358282 1_555
Nb0 O2 2.032502 1_555
Nb0 O3 2.032502 1_555
Nb0 O8 2.047345 1_565
Nb0 O9 2.047345 1_555
Nb0 O10 2.047345 1_556
Nb0 O11 2.047345 1_655
Nb1 O1 2.032502 1_555
Nb1 O0 2.032502 1_555
Nb1 O7 2.047345 1_555
Nb1 O5 2.047345 1_555
Nb1 O6 2.047345 1_555
Nb1 O4 2.047345 1_555
