# generated using pymatgen
data_Zr6Zn21AsOs2
_symmetry_space_group_name_H-M   'P 1'
_cell_length_a   8.71893174
_cell_length_b   8.71893192
_cell_length_c   8.71893151
_cell_angle_alpha   59.62599144
_cell_angle_beta   59.62599209
_cell_angle_gamma   59.62599048
_symmetry_Int_Tables_number   1
_chemical_formula_structural   Zr6Zn21AsOs2
_chemical_formula_sum   'Zr6 Zn21 As1 Os2'
_cell_volume   464.69478700
_cell_formula_units_Z   1
loop_
 _symmetry_equiv_pos_site_id
 _symmetry_equiv_pos_as_xyz
  1  'x, y, z'
loop_
 _atom_site_type_symbol
 _atom_site_label
 _atom_site_symmetry_multiplicity
 _atom_site_fract_x
 _atom_site_fract_y
 _atom_site_fract_z
 _atom_site_occupancy
  Zr  Zr0  1  0.72714457  0.28453214  0.28453214  1
  Zr  Zr1  1  0.27285543  0.71546786  0.71546786  1
  Zr  Zr2  1  0.28453214  0.72714457  0.28453214  1
  Zr  Zr3  1  0.71546786  0.27285543  0.71546786  1
  Zr  Zr4  1  0.28453214  0.28453214  0.72714457  1
  Zr  Zr5  1  0.71546786  0.71546786  0.27285543  1
  Zn  Zn0  1  0.11957814  0.11957814  0.63681874  1
  Zn  Zn1  1  0.11957814  0.63681874  0.11957814  1
  Zn  Zn2  1  0.88042186  0.88042186  0.36318126  1
  Zn  Zn3  1  0.88042186  0.36318126  0.88042186  1
  Zn  Zn4  1  0.63681874  0.11957814  0.11957814  1
  Zn  Zn5  1  0.36318126  0.88042186  0.88042186  1
  Zn  Zn6  1  0.50000000  0.00000000  0.00000000  1
  Zn  Zn7  1  0.00000000  0.50000000  0.50000000  1
  Zn  Zn8  1  0.00000000  0.50000000  0.00000000  1
  Zn  Zn9  1  0.50000000  0.00000000  0.50000000  1
  Zn  Zn10  1  0.00000000  0.00000000  0.50000000  1
  Zn  Zn11  1  0.50000000  0.50000000  0.00000000  1
  Zn  Zn12  1  0.33516954  0.33516954  0.33516954  1
  Zn  Zn13  1  0.66483046  0.66483046  0.66483046  1
  Zn  Zn14  1  0.32796071  0.32796071  0.00987759  1
  Zn  Zn15  1  0.32796071  0.00987759  0.32796071  1
  Zn  Zn16  1  0.67203929  0.67203929  0.99012241  1
  Zn  Zn17  1  0.67203929  0.99012241  0.67203929  1
  Zn  Zn18  1  0.00987759  0.32796071  0.32796071  1
  Zn  Zn19  1  0.99012241  0.67203929  0.67203929  1
  Zn  Zn20  1  0.00000000  0.00000000  0.00000000  1
  As  As0  1  0.50000000  0.50000000  0.50000000  1
  Os  Os0  1  0.11826003  0.11826003  0.11826003  1
  Os  Os1  1  0.88173997  0.88173997  0.88173997  1
loop_
_geom_bond_atom_site_label_1
_geom_bond_atom_site_label_2
_geom_bond_distance
_geom_bond_site_symmetry_2
Zn0 Zn20 2.573511 1_556
Zn0 Zn10 2.685485 1_555
Zn0 Zn9 2.696456 1_555
Zn0 Zn7 2.696456 1_555
Zn0 Zn18 2.714242 1_555
Zn0 Zn15 2.714242 1_555
Zn0 Zn12 2.749188 1_555
Zn0 Zr3 2.896922 1_455
Zn0 Zr1 2.896922 1_545
Zn0 Zn5 2.995806 1_545
Zn0 Zn3 2.995806 1_455
Zn0 Zr4 3.023229 1_555
Zn1 Zn20 2.573511 1_565
Zn1 Zn8 2.685485 1_555
Zn1 Zn7 2.696456 1_555
Zn1 Zn11 2.696456 1_555
Zn1 Zn14 2.714242 1_555
Zn1 Zn18 2.714242 1_555
Zn1 Zn12 2.749188 1_555
Zn1 Zr1 2.896922 1_554
Zn1 Zr5 2.896922 1_455
Zn1 Zn2 2.995806 1_455
Zn1 Zn5 2.995807 1_554
Zn1 Zr2 3.023229 1_555
Zn2 Zn20 2.573511 1_665
Zn2 Zn9 2.696456 1_565
Zn2 Zn7 2.696456 1_655
Zn2 Zr2 2.896922 1_655
Zn2 Zr0 2.896922 1_565
Zn2 Zn4 2.995806 1_565
Zn2 Zr5 3.023229 1_555
Zn3 Zn8 2.685485 1_656
Zn3 Zn7 2.696456 1_655
Zn3 Zr0 2.896922 1_556
Zn3 Zr4 2.896922 1_655
Zn3 Zn4 2.995807 1_556
Zn3 Zr3 3.023229 1_555
Zn4 Zn6 2.685485 1_555
Zn4 Zn9 2.696456 1_555
Zn4 Zr3 2.896922 1_554
Zn4 Zr5 2.896922 1_545
Zn4 Zr0 3.023229 1_555
Zn5 Zn6 2.685485 1_566
Zn5 Zn9 2.696456 1_565
Zn5 Zr2 2.896922 1_556
Zn5 Zr4 2.896922 1_565
Zn5 Zr1 3.023229 1_555
Zn6 Zr5 3.030107 1_545
Zn6 Zr4 3.030107 1_554
Zn6 Zr3 3.030107 1_554
Zn6 Zr2 3.030107 1_545
Zn7 Zr4 3.177866 1_555
Zn7 Zr5 3.177866 1_455
Zn7 Zr2 3.177866 1_555
Zn7 Zr3 3.177866 1_455
Zn8 Zr5 3.030107 1_455
Zn8 Zr4 3.030107 1_554
Zn8 Zr1 3.030107 1_554
Zn8 Zr0 3.030107 1_455
Zn9 Zr4 3.177866 1_555
Zn9 Zr5 3.177866 1_545
Zn9 Zr0 3.177866 1_555
Zn9 Zr1 3.177866 1_545
Zn10 Zn15 2.492943 1_555
Zn10 Zn17 2.492943 1_445
Zn10 Zn18 2.492943 1_555
Zn10 Zn19 2.492943 1_445
Zn10 Zn2 2.685485 1_445
Zn10 Zr1 3.030107 1_545
Zn10 Zr0 3.030107 1_455
Zn10 Zr3 3.030107 1_455
Zn10 Zr2 3.030107 1_545
Zn11 Zn13 2.503006 1_554
Zn11 Zn12 2.503006 1_555
Zn11 Zn16 2.553726 1_554
Zn11 Zn14 2.553726 1_555
Zn11 Zn3 2.696456 1_554
Zn11 Zn5 2.696456 1_554
Zn11 Zn4 2.696456 1_555
Zn11 Zr0 3.177866 1_555
Zn11 Zr1 3.177866 1_554
Zn11 Zr2 3.177866 1_555
Zn11 Zr3 3.177866 1_554
Zn12 Zn7 2.503006 1_555
Zn12 Zn9 2.503006 1_555
Zn12 Zn4 2.749188 1_555
Zn12 Zn14 2.901115 1_555
Zn12 Zn18 2.901115 1_555
Zn12 Zn15 2.901115 1_555
Zn12 Zr4 3.035649 1_555
Zn12 Zr0 3.035649 1_555
Zn12 Zr2 3.035649 1_555
Zn13 Zn7 2.503006 1_655
Zn13 Zn9 2.503006 1_565
Zn13 Zn3 2.749188 1_555
Zn13 Zn5 2.749188 1_555
Zn13 Zn2 2.749188 1_555
Zn13 Zn16 2.901115 1_555
Zn13 Zn19 2.901115 1_555
Zn13 Zn17 2.901115 1_555
Zn13 Zr5 3.035649 1_555
Zn13 Zr1 3.035649 1_555
Zn13 Zr3 3.035649 1_555
Zn14 Zn8 2.492943 1_555
Zn14 Zn6 2.492943 1_555
Zn14 Zn4 2.714242 1_555
Zn14 Zn18 2.757652 1_555
Zn14 Zn15 2.757652 1_555
Zn14 Zr4 2.897676 1_554
Zn14 Zr3 3.011682 1_554
Zn14 Zr1 3.011682 1_554
Zn15 Zn6 2.492943 1_555
Zn15 Zn9 2.553726 1_555
Zn15 Zn4 2.714242 1_555
Zn15 Zn18 2.757652 1_555
Zn15 Zr2 2.897676 1_545
Zn15 Zr1 3.011682 1_545
Zn15 Zr5 3.011682 1_545
Zn16 Zn8 2.492943 1_656
Zn16 Zn6 2.492943 1_566
Zn16 Zn5 2.714242 1_555
Zn16 Zn3 2.714242 1_555
Zn16 Zn19 2.757652 1_555
Zn16 Zn17 2.757652 1_555
Zn16 Zr5 2.897676 1_556
Zn16 Zr2 3.011682 1_556
Zn16 Zr0 3.011682 1_556
Zn17 Zn6 2.492943 1_566
Zn17 Zn9 2.553726 1_565
Zn17 Zn2 2.714242 1_555
Zn17 Zn5 2.714242 1_555
Zn17 Zn19 2.757652 1_555
Zn17 Zr3 2.897676 1_565
Zn17 Zr0 3.011682 1_565
Zn17 Zr4 3.011682 1_565
Zn18 Zn8 2.492943 1_555
Zn18 Zn7 2.553726 1_555
Zn18 Zr0 2.897676 1_455
Zn18 Zr3 3.011682 1_455
Zn18 Zr5 3.011682 1_455
Zn19 Zn8 2.492943 1_656
Zn19 Zn7 2.553726 1_655
Zn19 Zn2 2.714242 1_555
Zn19 Zn3 2.714242 1_555
Zn19 Zr1 2.897676 1_655
Zn19 Zr2 3.011682 1_655
Zn19 Zr4 3.011682 1_655
Zn20 Zn5 2.573511 1_544
Zn20 Zn4 2.573511 1_455
Zn20 Zn3 2.573511 1_454
As0 Zr3 2.650447 1_555
As0 Zr2 2.650447 1_555
As0 Zr1 2.650447 1_555
As0 Zr0 2.650447 1_555
As0 Zr5 2.650447 1_555
As0 Zr4 2.650447 1_555
Os0 Zn20 2.532787 1_555
Os0 Zn10 2.708930 1_555
Os0 Zn6 2.708930 1_555
Os0 Zn8 2.708930 1_555
Os0 Zn15 2.732205 1_555
Os0 Zn18 2.732205 1_555
Os0 Zn14 2.732205 1_555
Os0 Zr4 2.821105 1_554
Os0 Zr0 2.821105 1_455
Os0 Zr2 2.821105 1_545
Os0 Zn3 2.924520 1_454
Os0 Zn5 2.924520 1_544
Os0 Zn2 2.924520 1_445
Os1 Zn20 2.532787 1_666
Os1 Zn10 2.708930 1_665
Os1 Zn6 2.708930 1_566
Os1 Zn8 2.708930 1_656
Os1 Zn17 2.732205 1_555
Os1 Zn19 2.732205 1_555
Os1 Zn16 2.732205 1_555
Os1 Zr5 2.821105 1_556
Os1 Zr1 2.821105 1_655
Os1 Zr3 2.821105 1_565
Os1 Zn1 2.924520 1_656
Os1 Zn4 2.924520 1_566
Os1 Zn0 2.924520 1_665
