# generated using pymatgen
data_SrTcF6
_symmetry_space_group_name_H-M   'P 1'
_cell_length_a   4.79224960
_cell_length_b   4.79225024
_cell_length_c   4.79224942
_cell_angle_alpha   97.73299579
_cell_angle_beta   97.73299682
_cell_angle_gamma   97.73299027
_symmetry_Int_Tables_number   1
_chemical_formula_structural   SrTcF6
_chemical_formula_sum   'Sr1 Tc1 F6'
_cell_volume   106.75039920
_cell_formula_units_Z   1
loop_
 _symmetry_equiv_pos_site_id
 _symmetry_equiv_pos_as_xyz
  1  'x, y, z'
loop_
 _atom_site_type_symbol
 _atom_site_label
 _atom_site_symmetry_multiplicity
 _atom_site_fract_x
 _atom_site_fract_y
 _atom_site_fract_z
 _atom_site_occupancy
  Sr  Sr0  1  0.50000000  0.50000000  0.50000000  1
  Tc  Tc0  1  0.00000000  0.00000000  0.00000000  1
  F  F0  1  0.70822039  0.70822039  0.07053888  1
  F  F1  1  0.07053888  0.70822039  0.70822039  1
  F  F2  1  0.92946112  0.29177961  0.29177961  1
  F  F3  1  0.29177961  0.29177961  0.92946112  1
  F  F4  1  0.29177961  0.92946112  0.29177961  1
  F  F5  1  0.70822039  0.07053888  0.70822039  1
loop_
_geom_bond_atom_site_label_1
_geom_bond_atom_site_label_2
_geom_bond_distance
_geom_bond_site_symmetry_2
F0 Tc0 1.937237 1_665
F0 Sr0 2.657908 1_555
F0 Sr0 2.780406 1_554
F1 Tc0 1.937237 1_566
F1 Sr0 2.657908 1_555
F1 Sr0 2.780406 1_455
F2 Tc0 1.937237 1_655
F2 Sr0 2.657908 1_555
F2 Sr0 2.780406 1_655
F3 Tc0 1.937237 1_556
F3 Sr0 2.657908 1_555
F3 Sr0 2.780406 1_556
F4 Tc0 1.937237 1_565
F4 Sr0 2.657908 1_555
F4 Sr0 2.780406 1_565
F5 Tc0 1.937237 1_656
F5 Sr0 2.657908 1_555
F5 Sr0 2.780406 1_545
