# generated using pymatgen
data_NaLi4H9Pt2
_symmetry_space_group_name_H-M   'P 1'
_cell_length_a   7.34670635
_cell_length_b   7.34670589
_cell_length_c   7.34670542
_cell_angle_alpha   109.20590728
_cell_angle_beta   109.20589874
_cell_angle_gamma   110.00316446
_symmetry_Int_Tables_number   1
_chemical_formula_structural   NaLi4H9Pt2
_chemical_formula_sum   'Na2 Li8 H18 Pt4'
_cell_volume   305.23054226
_cell_formula_units_Z   2
loop_
 _symmetry_equiv_pos_site_id
 _symmetry_equiv_pos_as_xyz
  1  'x, y, z'
loop_
 _atom_site_type_symbol
 _atom_site_label
 _atom_site_symmetry_multiplicity
 _atom_site_fract_x
 _atom_site_fract_y
 _atom_site_fract_z
 _atom_site_occupancy
  Na  Na0  1  0.50000000  0.50000000  0.00000000  1
  Na  Na1  1  0.00000000  0.00000000  0.00000000  1
  Li  Li0  1  0.69241603  0.19241603  0.20264542  1
  Li  Li1  1  0.98977061  0.48977061  0.79735458  1
  Li  Li2  1  0.19241603  0.98977061  0.50000000  1
  Li  Li3  1  0.48977061  0.69241603  0.50000000  1
  Li  Li4  1  0.30758397  0.80758397  0.79735458  1
  Li  Li5  1  0.01022939  0.51022939  0.20264542  1
  Li  Li6  1  0.80758397  0.01022939  0.50000000  1
  Li  Li7  1  0.51022939  0.30758397  0.50000000  1
  H  H0  1  0.43510912  0.12536684  0.83647381  1
  H  H1  1  0.28889104  0.59863531  0.16352619  1
  H  H2  1  0.93510912  0.09863531  0.30974327  1
  H  H3  1  0.78889104  0.62536684  0.69025673  1
  H  H4  1  0.59863531  0.43510912  0.30974327  1
  H  H5  1  0.12536684  0.28889104  0.69025673  1
  H  H6  1  0.62536684  0.93510912  0.83647381  1
  H  H7  1  0.09863531  0.78889104  0.16352619  1
  H  H8  1  0.56489088  0.87463316  0.16352619  1
  H  H9  1  0.71110896  0.40136469  0.83647381  1
  H  H10  1  0.06489088  0.90136469  0.69025673  1
  H  H11  1  0.21110896  0.37463316  0.30974327  1
  H  H12  1  0.40136469  0.56489088  0.69025673  1
  H  H13  1  0.87463316  0.71110896  0.30974327  1
  H  H14  1  0.37463316  0.06489088  0.16352619  1
  H  H15  1  0.90136469  0.21110896  0.83647381  1
  H  H16  1  0.50000000  0.00000000  0.50000000  1
  H  H17  1  0.00000000  0.50000000  0.50000000  1
  Pt  Pt0  1  0.65465137  0.15465137  0.80930274  1
  Pt  Pt1  1  0.34534863  0.84534863  0.19069726  1
  Pt  Pt2  1  0.15465137  0.34534863  0.50000000  1
  Pt  Pt3  1  0.84534863  0.65465137  0.50000000  1
loop_
_geom_bond_atom_site_label_1
_geom_bond_atom_site_label_2
_geom_bond_distance
_geom_bond_site_symmetry_2
H0 Pt0 1.640214 1_555
H0 Li4 2.072665 1_545
H0 Li2 2.132354 1_545
H0 Na0 2.407458 1_556
H1 Pt1 1.640212 1_555
H1 Li5 2.072651 1_555
H1 Li3 2.132357 1_555
H1 Na0 2.407472 1_555
H2 Pt2 1.640213 1_655
H2 Li6 2.072658 1_555
H2 Li0 2.132356 1_555
H2 Na1 2.407465 1_655
H3 Pt3 1.640214 1_555
H3 Li7 2.072659 1_555
H3 Li1 2.132367 1_555
H3 Na1 2.407460 1_666
H4 Pt3 1.640213 1_555
H4 Li7 2.072658 1_555
H4 Li0 2.132355 1_555
H4 Na0 2.407465 1_555
H5 Pt2 1.640214 1_555
H5 Li6 2.072659 1_455
H5 Li1 2.132367 1_455
H5 Na0 2.407461 1_556
H6 Pt0 1.640214 1_565
H6 Li4 2.072665 1_555
H6 Li3 2.132354 1_555
H6 Na1 2.407459 1_666
H7 Pt1 1.640212 1_555
H7 Li5 2.072651 1_555
H7 Li2 2.132357 1_555
H7 Na1 2.407472 1_565
H8 Pt1 1.640214 1_555
H8 Li0 2.072665 1_565
H8 Li6 2.132354 1_565
H8 Na0 2.407458 1_555
H9 Pt0 1.640212 1_555
H9 Li1 2.072651 1_555
H9 Li7 2.132357 1_555
H9 Na0 2.407472 1_556
H10 Pt3 1.640213 1_455
H10 Li2 2.072658 1_555
H10 Li4 2.132356 1_555
H10 Na1 2.407465 1_566
H11 Pt2 1.640214 1_555
H11 Li3 2.072659 1_555
H11 Li5 2.132367 1_555
H11 Na1 2.407460 1_555
H12 Pt2 1.640213 1_555
H12 Li3 2.072658 1_555
H12 Li4 2.132355 1_555
H12 Na0 2.407465 1_556
H13 Pt3 1.640214 1_555
H13 Li2 2.072659 1_655
H13 Li5 2.132367 1_655
H13 Na0 2.407461 1_555
H14 Pt1 1.640214 1_545
H14 Li0 2.072665 1_555
H14 Li7 2.132354 1_555
H14 Na1 2.407459 1_555
H15 Pt0 1.640212 1_555
H15 Li1 2.072651 1_555
H15 Li6 2.132357 1_555
H15 Na1 2.407472 1_656
H16 Pt0 1.861441 1_555
H16 Pt1 1.861441 1_545
H16 Li7 2.235137 1_555
H16 Li3 2.235137 1_545
H16 Li2 2.235137 1_545
H16 Li6 2.235137 1_555
H17 Pt2 1.861441 1_555
H17 Pt3 1.861441 1_455
H17 Li1 2.235137 1_455
H17 Li5 2.235137 1_555
H17 Li4 2.235138 1_555
H17 Li0 2.235138 1_455
