# generated using pymatgen
data_TbNi5
_symmetry_space_group_name_H-M   'P 1'
_cell_length_a   4.83704880
_cell_length_b   4.83703750
_cell_length_c   3.91059117
_cell_angle_alpha   90.00000000
_cell_angle_beta   90.00000000
_cell_angle_gamma   119.99656441
_symmetry_Int_Tables_number   1
_chemical_formula_structural   TbNi5
_chemical_formula_sum   'Tb1 Ni5'
_cell_volume   79.24064550
_cell_formula_units_Z   1
loop_
 _symmetry_equiv_pos_site_id
 _symmetry_equiv_pos_as_xyz
  1  'x, y, z'
loop_
 _atom_site_type_symbol
 _atom_site_label
 _atom_site_symmetry_multiplicity
 _atom_site_fract_x
 _atom_site_fract_y
 _atom_site_fract_z
 _atom_site_occupancy
  Tb  Tb0  1  -0.00000000  0.00000000  0.00000000  1
  Ni  Ni0  1  0.33333803  0.66666836  -0.00000000  1
  Ni  Ni1  1  0.66666197  0.33333164  -0.00000000  1
  Ni  Ni2  1  0.50000000  0.00000000  0.50000000  1
  Ni  Ni3  1  0.50000000  0.50000000  0.50000000  1
  Ni  Ni4  1  -0.00000000  0.50000000  0.50000000  1
loop_
_geom_bond_atom_site_label_1
_geom_bond_atom_site_label_2
_geom_bond_distance
_geom_bond_site_symmetry_2
Ni0 Ni3 2.402671 1_555
Ni0 Ni3 2.402671 1_554
Ni0 Ni2 2.402715 1_565
Ni0 Ni2 2.402715 1_564
Ni0 Ni4 2.402733 1_554
Ni0 Ni4 2.402733 1_555
Ni0 Tb0 2.792632 1_565
Ni0 Tb0 2.792748 1_665
Ni0 Tb0 2.792769 1_555
Ni1 Ni3 2.402671 1_555
Ni1 Ni3 2.402671 1_554
Ni1 Ni2 2.402715 1_555
Ni1 Ni2 2.402715 1_554
Ni1 Ni4 2.402733 1_654
Ni1 Ni4 2.402733 1_655
Ni1 Tb0 2.792632 1_655
Ni1 Tb0 2.792748 1_555
Ni1 Tb0 2.792769 1_665
Ni2 Ni3 2.418519 1_555
Ni2 Ni3 2.418519 1_545
Ni2 Ni4 2.418647 1_545
Ni2 Ni4 2.418647 1_655
Ni2 Tb0 3.110055 1_555
Ni2 Tb0 3.110055 1_556
Ni2 Tb0 3.110055 1_656
Ni2 Tb0 3.110055 1_655
Ni3 Ni4 2.418524 1_655
Ni3 Ni4 2.418524 1_555
Ni3 Tb0 3.110150 1_555
Ni3 Tb0 3.110150 1_556
Ni3 Tb0 3.110150 1_665
Ni3 Tb0 3.110150 1_666
Ni4 Tb0 3.110050 1_566
Ni4 Tb0 3.110050 1_555
Ni4 Tb0 3.110050 1_556
Ni4 Tb0 3.110050 1_565
