# generated using pymatgen
data_Lu4Sn4Sb2Rh7
_symmetry_space_group_name_H-M   'P 1'
_cell_length_a   7.48107161
_cell_length_b   7.48330178
_cell_length_c   7.48107193
_cell_angle_alpha   109.54267233
_cell_angle_beta   109.31630503
_cell_angle_gamma   109.54268181
_symmetry_Int_Tables_number   1
_chemical_formula_structural   Lu4Sn4Sb2Rh7
_chemical_formula_sum   'Lu4 Sn4 Sb2 Rh7'
_cell_volume   322.44944379
_cell_formula_units_Z   1
loop_
 _symmetry_equiv_pos_site_id
 _symmetry_equiv_pos_as_xyz
  1  'x, y, z'
loop_
 _atom_site_type_symbol
 _atom_site_label
 _atom_site_symmetry_multiplicity
 _atom_site_fract_x
 _atom_site_fract_y
 _atom_site_fract_z
 _atom_site_occupancy
  Lu  Lu0  1  0.49841632  0.99683163  0.99841632  1
  Lu  Lu1  1  0.99694075  0.48647487  0.99694075  1
  Lu  Lu2  1  0.99841632  0.99683163  0.49841632  1
  Lu  Lu3  1  0.48953511  0.48647487  0.48953511  1
  Sn  Sn0  1  0.31114466  0.99136981  0.31114466  1
  Sn  Sn1  1  0.99572120  0.68938788  0.69366769  1
  Sn  Sn2  1  0.69366769  0.68938788  0.99572120  1
  Sn  Sn3  1  0.68022515  0.99136980  0.68022515  1
  Sb  Sb0  1  0.99707213  0.32003775  0.32296562  1
  Sb  Sb1  1  0.32296562  0.32003775  0.99707213  1
  Rh  Rh0  1  0.25233207  0.50466414  0.75233207  1
  Rh  Rh1  1  0.50222368  0.25084469  0.74862102  1
  Rh  Rh2  1  0.74862102  0.25084469  0.50222368  1
  Rh  Rh3  1  0.50289293  0.74944304  0.24655111  1
  Rh  Rh4  1  0.01094419  0.02188837  0.01094419  1
  Rh  Rh5  1  0.24655111  0.74944304  0.50289293  1
  Rh  Rh6  1  0.75233207  0.50466414  0.25233207  1
loop_
_geom_bond_atom_site_label_1
_geom_bond_atom_site_label_2
_geom_bond_distance
_geom_bond_site_symmetry_2
Lu0 Rh0 3.004760 1_555
Lu0 Rh5 3.028819 1_555
Lu0 Rh3 3.028819 1_556
Lu0 Rh2 3.079234 1_566
Lu0 Rh1 3.079240 1_565
Lu0 Rh6 3.100397 1_566
Lu0 Sn0 3.103543 1_556
Lu0 Sn3 3.103545 1_555
Lu0 Sn1 3.108691 1_455
Lu0 Sn2 3.108692 1_555
Lu0 Sb0 3.115149 1_566
Lu0 Sb1 3.115155 1_565
Lu1 Rh1 3.025189 1_555
Lu1 Rh2 3.025189 1_555
Lu1 Rh0 3.053401 1_655
Lu1 Rh6 3.053401 1_556
Lu1 Sn3 3.081396 1_545
Lu1 Sb0 3.087335 1_556
Lu1 Sb1 3.087335 1_655
Lu1 Rh3 3.093318 1_656
Lu1 Rh5 3.093318 1_656
Lu1 Sn1 3.123090 1_555
Lu1 Sn2 3.123090 1_555
Lu1 Sn0 3.128460 1_656
Lu2 Rh6 3.004760 1_555
Lu2 Rh3 3.028819 1_555
Lu2 Rh5 3.028820 1_655
Lu2 Rh1 3.079233 1_665
Lu2 Rh2 3.079240 1_565
Lu2 Rh0 3.100397 1_665
Lu2 Sn0 3.103543 1_655
Lu2 Sn3 3.103545 1_555
Lu2 Sn2 3.108692 1_554
Lu2 Sn1 3.108692 1_555
Lu2 Sb1 3.115149 1_665
Lu2 Sb0 3.115155 1_565
Lu3 Rh1 3.025183 1_555
Lu3 Rh2 3.025183 1_555
Lu3 Rh6 3.053401 1_555
Lu3 Rh0 3.053401 1_555
Lu3 Sn0 3.081395 1_545
Lu3 Sb0 3.087340 1_455
Lu3 Sb1 3.087341 1_554
Lu3 Rh3 3.093318 1_555
Lu3 Rh5 3.093319 1_555
Lu3 Sn1 3.123090 1_555
Lu3 Sn2 3.123090 1_555
Lu3 Sn3 3.128462 1_555
Rh0 Sb0 2.661029 1_455
Rh0 Sb1 2.661030 1_555
Rh0 Sn1 2.722628 1_455
Rh0 Sn2 2.722635 1_555
Rh1 Sb1 2.644027 1_555
Rh1 Sn2 2.698832 1_555
Rh1 Sn0 2.705797 1_545
Rh1 Sn3 2.705798 1_545
Rh2 Sb0 2.644027 1_555
Rh2 Sn1 2.698832 1_555
Rh2 Sn0 2.705797 1_545
Rh2 Sn3 2.705797 1_545
Rh3 Sb1 2.655723 1_554
Rh3 Sn3 2.679469 1_555
Rh3 Sn0 2.679474 1_555
Rh3 Sn2 2.719687 1_554
Rh4 Sb1 2.695996 1_554
Rh4 Sb0 2.695996 1_455
Rh4 Sn3 2.736624 1_444
Rh4 Sn0 2.736624 1_545
Rh4 Sn2 2.741965 1_444
Rh4 Sn1 2.741965 1_444
Rh5 Sb0 2.655722 1_455
Rh5 Sn3 2.679468 1_555
Rh5 Sn0 2.679474 1_555
Rh5 Sn1 2.719687 1_455
Rh6 Sb1 2.661029 1_554
Rh6 Sb0 2.661030 1_555
Rh6 Sn2 2.722628 1_554
Rh6 Sn1 2.722635 1_555
