# generated using pymatgen
data_Ba3AgBi2H
_symmetry_space_group_name_H-M   'P 1'
_cell_length_a   4.97966260
_cell_length_b   13.74900640
_cell_length_c   14.19012474
_cell_angle_alpha   90.00000000
_cell_angle_beta   90.00000000
_cell_angle_gamma   90.00000000
_symmetry_Int_Tables_number   1
_chemical_formula_structural   Ba3AgBi2H
_chemical_formula_sum   'Ba12 Ag4 Bi8 H4'
_cell_volume   971.53274912
_cell_formula_units_Z   4
loop_
 _symmetry_equiv_pos_site_id
 _symmetry_equiv_pos_as_xyz
  1  'x, y, z'
loop_
 _atom_site_type_symbol
 _atom_site_label
 _atom_site_symmetry_multiplicity
 _atom_site_fract_x
 _atom_site_fract_y
 _atom_site_fract_z
 _atom_site_occupancy
  Ba  Ba0  1  0.25000000  0.06912978  0.62791114  1
  Ba  Ba1  1  0.25000000  0.56912978  0.87208886  1
  Ba  Ba2  1  0.75000000  0.93087022  0.37208886  1
  Ba  Ba3  1  0.75000000  0.43087022  0.12791114  1
  Ba  Ba4  1  0.25000000  0.21548312  0.29240002  1
  Ba  Ba5  1  0.25000000  0.71548312  0.20759998  1
  Ba  Ba6  1  0.75000000  0.78451688  0.70759998  1
  Ba  Ba7  1  0.75000000  0.28451688  0.79240002  1
  Ba  Ba8  1  0.25000000  0.36973060  0.55790993  1
  Ba  Ba9  1  0.25000000  0.86973060  0.94209007  1
  Ba  Ba10  1  0.75000000  0.63026940  0.44209007  1
  Ba  Ba11  1  0.75000000  0.13026940  0.05790993  1
  Ag  Ag0  1  0.25000000  0.12625936  0.87580528  1
  Ag  Ag1  1  0.25000000  0.62625936  0.62419472  1
  Ag  Ag2  1  0.75000000  0.87374064  0.12419472  1
  Ag  Ag3  1  0.75000000  0.37374064  0.37580528  1
  Bi  Bi0  1  0.25000000  0.31103335  0.98431390  1
  Bi  Bi1  1  0.25000000  0.81103335  0.51568610  1
  Bi  Bi2  1  0.75000000  0.68896665  0.01568610  1
  Bi  Bi3  1  0.75000000  0.18896665  0.48431390  1
  Bi  Bi4  1  0.25000000  0.47663111  0.31942683  1
  Bi  Bi5  1  0.25000000  0.97663111  0.18057317  1
  Bi  Bi6  1  0.75000000  0.52336889  0.68057317  1
  Bi  Bi7  1  0.75000000  0.02336889  0.81942683  1
  H  H0  1  0.25000000  0.24946553  0.70923107  1
  H  H1  1  0.25000000  0.74946553  0.79076893  1
  H  H2  1  0.75000000  0.75053447  0.29076893  1
  H  H3  1  0.75000000  0.25053447  0.20923107  1
loop_
_geom_bond_atom_site_label_1
_geom_bond_atom_site_label_2
_geom_bond_distance
_geom_bond_site_symmetry_2
Ba0 H0 2.734810 1_555
Ba0 Bi3 3.614698 1_455
Ba0 Bi3 3.614698 1_555
Ba0 Bi7 3.739068 1_555
Ba0 Bi7 3.739068 1_455
Ba0 Bi1 3.889519 1_545
Ba1 H1 2.734810 1_555
Ba1 Bi2 3.614698 1_556
Ba1 Bi2 3.614698 1_456
Ba1 Bi6 3.739068 1_455
Ba1 Bi6 3.739068 1_555
Ba1 Bi0 3.889519 1_555
Ba2 H2 2.734810 1_555
Ba2 Bi1 3.614698 1_655
Ba2 Bi1 3.614698 1_555
Ba2 Bi5 3.739068 1_655
Ba2 Bi5 3.739068 1_555
Ba2 Bi3 3.889519 1_565
Ba3 H3 2.734810 1_555
Ba3 Bi0 3.614698 1_654
Ba3 Bi0 3.614698 1_554
Ba3 Bi4 3.739068 1_555
Ba3 Bi4 3.739068 1_655
Ba3 Bi2 3.889519 1_555
Ba4 H3 2.797200 1_455
Ba4 H3 2.797200 1_555
Ba4 Bi4 3.610949 1_555
Ba4 Bi5 3.647268 1_545
Ba4 Bi3 3.707889 1_555
Ba4 Bi3 3.707889 1_455
Ba5 H2 2.797200 1_455
Ba5 H2 2.797200 1_555
Ba5 Bi5 3.610949 1_555
Ba5 Bi4 3.647268 1_555
Ba5 Bi2 3.707889 1_455
Ba5 Bi2 3.707889 1_555
Ba6 H1 2.797200 1_555
Ba6 H1 2.797200 1_655
Ba6 Bi6 3.610949 1_555
Ba6 Bi7 3.647268 1_565
Ba6 Bi1 3.707889 1_555
Ba6 Bi1 3.707889 1_655
Ba7 H0 2.797200 1_655
Ba7 H0 2.797200 1_555
Ba7 Bi7 3.610949 1_555
Ba7 Bi6 3.647268 1_555
Ba7 Bi0 3.707889 1_555
Ba7 Bi0 3.707889 1_655
Ba8 H0 2.710147 1_555
Ba8 Bi3 3.669705 1_555
Ba8 Bi3 3.669705 1_455
Ba8 Bi4 3.689500 1_555
Ba8 Bi6 3.700148 1_455
Ba8 Bi6 3.700148 1_555
Ba9 H1 2.710147 1_555
Ba9 Bi2 3.669705 1_556
Ba9 Bi2 3.669705 1_456
Ba9 Bi5 3.689500 1_556
Ba9 Bi7 3.700148 1_465
Ba9 Bi7 3.700148 1_565
Ba10 H2 2.710147 1_555
Ba10 Bi1 3.669705 1_555
Ba10 Bi1 3.669705 1_655
Ba10 Bi6 3.689500 1_555
Ba10 Bi4 3.700148 1_555
Ba10 Bi4 3.700148 1_655
Ba11 H3 2.710147 1_555
Ba11 Bi0 3.669705 1_654
Ba11 Bi0 3.669705 1_554
Ba11 Bi7 3.689500 1_554
Ba11 Bi5 3.700148 1_545
Ba11 Bi5 3.700148 1_645
Ag0 Bi0 2.970650 1_555
Ag0 Bi7 2.973298 1_555
Ag0 Bi7 2.973298 1_455
Ag0 Ba7 3.512047 1_455
Ag0 Ba7 3.512047 1_555
Ag0 Ba11 3.588845 1_556
Ag0 Ba11 3.588845 1_456
Ag0 Ba0 3.604279 1_555
Ag0 Ba9 3.650280 1_545
Ag1 Bi1 2.970650 1_555
Ag1 Bi6 2.973298 1_555
Ag1 Bi6 2.973298 1_455
Ag1 Ba6 3.512047 1_555
Ag1 Ba6 3.512047 1_455
Ag1 Ba10 3.588845 1_455
Ag1 Ba10 3.588845 1_555
Ag1 Ba1 3.604279 1_555
Ag1 Ba8 3.650280 1_555
Ag2 Bi2 2.970650 1_555
Ag2 Bi5 2.973298 1_655
Ag2 Bi5 2.973298 1_555
Ag2 Ba5 3.512047 1_555
Ag2 Ba5 3.512047 1_655
Ag2 Ba9 3.588845 1_554
Ag2 Ba9 3.588845 1_654
Ag2 Ba2 3.604279 1_555
Ag2 Ba11 3.650280 1_565
Ag3 Bi3 2.970650 1_555
Ag3 Bi4 2.973298 1_555
Ag3 Bi4 2.973298 1_655
Ag3 Ba4 3.512047 1_555
Ag3 Ba4 3.512047 1_655
Ag3 Ba8 3.588845 1_655
Ag3 Ba8 3.588845 1_555
Ag3 Ba3 3.604279 1_555
Ag3 Ba10 3.650280 1_555
