# generated using pymatgen
data_Be3AlBRu
_symmetry_space_group_name_H-M   'P 1'
_cell_length_a   4.25336488
_cell_length_b   4.25336560
_cell_length_c   4.20248830
_cell_angle_alpha   59.59870573
_cell_angle_beta   59.59869767
_cell_angle_gamma   59.99998781
_symmetry_Int_Tables_number   1
_chemical_formula_structural   Be3AlBRu
_chemical_formula_sum   'Be3 Al1 B1 Ru1'
_cell_volume   53.43130225
_cell_formula_units_Z   1
loop_
 _symmetry_equiv_pos_site_id
 _symmetry_equiv_pos_as_xyz
  1  'x, y, z'
loop_
 _atom_site_type_symbol
 _atom_site_label
 _atom_site_symmetry_multiplicity
 _atom_site_fract_x
 _atom_site_fract_y
 _atom_site_fract_z
 _atom_site_occupancy
  Be  Be0  1  0.62535425  0.12351192  0.62577858  1
  Be  Be1  1  0.12351192  0.62535425  0.62577858  1
  Be  Be2  1  0.62535425  0.62535425  0.62577858  1
  Al  Al0  1  0.25113267  0.25113267  0.24660100  1
  B  B0  1  0.62370095  0.62370095  0.12889616  1
  Ru  Ru0  1  0.00094497  0.00094497  0.99716509  1
loop_
_geom_bond_atom_site_label_1
_geom_bond_atom_site_label_2
_geom_bond_distance
_geom_bond_site_symmetry_2
Be0 Be1 2.118846 1_645
Be0 Be2 2.118847 1_545
Be0 Be1 2.134518 1_555
Be0 Be2 2.134519 1_555
Be0 Ru0 2.468271 1_654
Be0 Ru0 2.475271 1_555
Be0 Ru0 2.475275 1_655
Be1 Be2 2.118846 1_455
Be1 Be2 2.134519 1_555
Be1 Ru0 2.468271 1_564
Be1 Ru0 2.475271 1_555
Be1 Ru0 2.475275 1_565
Be2 Ru0 2.468273 1_664
Be2 Ru0 2.475272 1_565
Be2 Ru0 2.475273 1_655
Al0 Be0 2.449769 1_554
Al0 Be2 2.449769 1_554
Al0 Be1 2.449769 1_554
Al0 B0 2.488273 1_455
Al0 B0 2.488274 1_545
Al0 B0 2.488274 1_555
Al0 Be2 2.488973 1_455
Al0 Be0 2.488973 1_455
Al0 Be2 2.488973 1_545
Al0 Be0 2.488973 1_555
Al0 Be1 2.488973 1_555
Al0 Be1 2.488973 1_545
Al0 Ru0 2.559691 1_555
Al0 Ru0 2.598844 1_554
Al0 Ru0 2.598847 1_654
Al0 Ru0 2.598848 1_564
B0 Be1 2.095283 1_555
B0 Be0 2.095283 1_555
B0 Be2 2.095283 1_555
B0 Be1 2.107251 1_654
B0 Be0 2.107252 1_564
B0 Be2 2.107252 1_554
B0 Ru0 2.496435 1_564
B0 Ru0 2.496436 1_654
B0 Ru0 2.496439 1_664
