# generated using pymatgen
data_Y6Sn6PtRh5
_symmetry_space_group_name_H-M   'P 1'
_cell_length_a   7.62871029
_cell_length_b   7.62871011
_cell_length_c   7.51846538
_cell_angle_alpha   90.00000000
_cell_angle_beta   90.00000000
_cell_angle_gamma   120.00001411
_symmetry_Int_Tables_number   1
_chemical_formula_structural   Y6Sn6PtRh5
_chemical_formula_sum   'Y6 Sn6 Pt1 Rh5'
_cell_volume   378.93263389
_cell_formula_units_Z   1
loop_
 _symmetry_equiv_pos_site_id
 _symmetry_equiv_pos_as_xyz
  1  'x, y, z'
loop_
 _atom_site_type_symbol
 _atom_site_label
 _atom_site_symmetry_multiplicity
 _atom_site_fract_x
 _atom_site_fract_y
 _atom_site_fract_z
 _atom_site_occupancy
  Y  Y0  1  0.40324005  0.99809012  0.24861715  1
  Y  Y1  1  0.59485106  0.59675995  0.24861715  1
  Y  Y2  1  0.00190988  0.40514894  0.24861715  1
  Y  Y3  1  0.40322009  0.99804255  0.75138379  1
  Y  Y4  1  0.59482245  0.59677991  0.75138379  1
  Y  Y5  1  0.00195745  0.40517755  0.75138379  1
  Sn  Sn0  1  0.26529118  0.26432281  0.00000165  1
  Sn  Sn1  1  0.99903263  0.73470882  0.00000165  1
  Sn  Sn2  1  0.00495685  0.74100710  0.50000094  1
  Sn  Sn3  1  0.73604925  0.99504315  0.50000094  1
  Sn  Sn4  1  0.25899290  0.26395075  0.50000094  1
  Sn  Sn5  1  0.73567719  0.00096737  0.00000165  1
  Pt  Pt0  1  0.66666700  0.33333300  0.50003041  1
  Rh  Rh0  1  0.00000000  0.00000000  0.75167918  1
  Rh  Rh1  1  0.00000000  0.00000000  0.24832588  1
  Rh  Rh2  1  0.66666700  0.33333300  0.99994868  1
  Rh  Rh3  1  0.33333300  0.66666700  0.49994363  1
  Rh  Rh4  1  0.33333300  0.66666700  0.00005763  1
loop_
_geom_bond_atom_site_label_1
_geom_bond_atom_site_label_2
_geom_bond_distance
_geom_bond_site_symmetry_2
Sn0 Y4 3.141702 1_554
Sn0 Y1 3.141716 1_555
Sn0 Y5 3.292863 1_554
Sn0 Y2 3.292995 1_555
Sn0 Y0 3.296030 1_545
Sn0 Y3 3.296226 1_544
Sn1 Y5 3.141700 1_654
Sn1 Y2 3.141717 1_655
Sn1 Y3 3.292857 1_654
Sn1 Y0 3.292995 1_655
Sn1 Y1 3.296030 1_555
Sn1 Y4 3.296232 1_554
Sn2 Y5 3.174527 1_555
Sn2 Y2 3.174563 1_555
Sn2 Y3 3.269622 1_555
Sn2 Y0 3.269771 1_555
Sn2 Y1 3.335918 1_455
Sn2 Y4 3.336104 1_455
Sn3 Y3 3.174521 1_555
Sn3 Y0 3.174550 1_555
Sn3 Y4 3.269623 1_555
Sn3 Y1 3.269773 1_555
Sn3 Y2 3.335920 1_665
Sn3 Y5 3.336105 1_665
Sn4 Y4 3.174524 1_555
Sn4 Y1 3.174556 1_555
Sn4 Y5 3.269618 1_555
Sn4 Y2 3.269762 1_555
Sn4 Y0 3.335930 1_545
Sn4 Y3 3.336110 1_545
Sn5 Y3 3.141706 1_544
Sn5 Y0 3.141717 1_545
Sn5 Y4 3.292856 1_544
Sn5 Y1 3.292995 1_545
Sn5 Y2 3.296029 1_655
Sn5 Y5 3.296230 1_654
Pt0 Sn3 2.882050 1_545
Pt0 Sn2 2.882059 1_655
Pt0 Sn4 2.882065 1_555
Pt0 Y5 3.002052 1_655
Pt0 Y3 3.002054 1_545
Pt0 Y4 3.002058 1_555
Pt0 Y0 3.002112 1_545
Pt0 Y2 3.002113 1_655
Pt0 Y1 3.002113 1_555
Rh0 Sn2 2.749619 1_545
Rh0 Sn4 2.749622 1_555
Rh0 Sn3 2.749625 1_445
Rh0 Sn5 2.750759 1_456
Rh0 Sn0 2.750762 1_556
Rh0 Sn1 2.750765 1_446
Rh0 Y4 3.083543 1_445
Rh0 Y5 3.083544 1_555
Rh0 Y3 3.083544 1_545
Rh1 Sn2 2.749603 1_545
Rh1 Sn4 2.749605 1_555
Rh1 Sn3 2.749608 1_445
Rh1 Sn5 2.750768 1_455
Rh1 Sn0 2.750771 1_555
Rh1 Sn1 2.750774 1_445
Rh1 Y2 3.083505 1_555
Rh1 Y1 3.083509 1_445
Rh1 Y0 3.083513 1_545
Rh2 Sn1 2.835643 1_556
Rh2 Sn0 2.835643 1_556
Rh2 Sn5 2.835643 1_556
Rh2 Y5 2.988899 1_655
Rh2 Y3 2.988901 1_545
Rh2 Y4 2.988905 1_555
Rh2 Y0 2.989162 1_546
Rh2 Y2 2.989162 1_656
Rh2 Y1 2.989162 1_556
Rh3 Sn3 2.831565 1_555
Rh3 Sn4 2.831566 1_555
Rh3 Sn2 2.831566 1_555
Rh3 Y0 2.983128 1_555
Rh3 Y2 2.983132 1_555
Rh3 Y1 2.983140 1_555
Rh3 Y3 2.983432 1_555
Rh3 Y5 2.983434 1_555
Rh3 Y4 2.983438 1_555
Rh4 Sn1 2.845548 1_455
Rh4 Sn5 2.845557 1_565
Rh4 Sn0 2.845563 1_555
Rh4 Y0 2.969994 1_555
Rh4 Y2 2.969998 1_555
Rh4 Y1 2.970006 1_555
Rh4 Y3 2.970297 1_554
Rh4 Y5 2.970298 1_554
Rh4 Y4 2.970303 1_554
