# generated using pymatgen
data_MgSc6NiBr12
_symmetry_space_group_name_H-M   'P 1'
_cell_length_a   8.65339362
_cell_length_b   8.65339403
_cell_length_c   8.65339285
_cell_angle_alpha   107.23877950
_cell_angle_beta   107.23878174
_cell_angle_gamma   107.23878256
_symmetry_Int_Tables_number   1
_chemical_formula_structural   MgSc6NiBr12
_chemical_formula_sum   'Mg1 Sc6 Ni1 Br12'
_cell_volume   536.08726653
_cell_formula_units_Z   1
loop_
 _symmetry_equiv_pos_site_id
 _symmetry_equiv_pos_as_xyz
  1  'x, y, z'
loop_
 _atom_site_type_symbol
 _atom_site_label
 _atom_site_symmetry_multiplicity
 _atom_site_fract_x
 _atom_site_fract_y
 _atom_site_fract_z
 _atom_site_occupancy
  Mg  Mg0  1  0.50000000  0.50000000  0.50000000  1
  Sc  Sc0  1  0.10166847  0.02873970  0.30698667  1
  Sc  Sc1  1  0.02873970  0.30698667  0.10166847  1
  Sc  Sc2  1  0.30698667  0.10166847  0.02873970  1
  Sc  Sc3  1  0.89833053  0.97126030  0.69301333  1
  Sc  Sc4  1  0.97126030  0.69301333  0.89833053  1
  Sc  Sc5  1  0.69301333  0.89833053  0.97126030  1
  Ni  Ni0  1  0.00000000  0.00000000  0.00000000  1
  Br  Br0  1  0.07349652  0.68267285  0.22224795  1
  Br  Br1  1  0.68267285  0.22224795  0.07349652  1
  Br  Br2  1  0.22224795  0.07349652  0.68267285  1
  Br  Br3  1  0.92650348  0.31732715  0.77775205  1
  Br  Br4  1  0.31732715  0.77775205  0.92650348  1
  Br  Br5  1  0.77775205  0.92650348  0.31732715  1
  Br  Br6  1  0.46035987  0.16169947  0.38555958  1
  Br  Br7  1  0.16169947  0.38555958  0.46035987  1
  Br  Br8  1  0.38555958  0.46035987  0.16169947  1
  Br  Br9  1  0.53964013  0.83830053  0.61444042  1
  Br  Br10  1  0.83830053  0.61444042  0.53964013  1
  Br  Br11  1  0.61444042  0.53964013  0.83830053  1
loop_
_geom_bond_atom_site_label_1
_geom_bond_atom_site_label_2
_geom_bond_distance
_geom_bond_site_symmetry_2
Ni0 Sc0 2.446679 1_555
Ni0 Sc3 2.446679 1_444
Ni0 Sc2 2.446680 1_555
Ni0 Sc5 2.446680 1_444
Ni0 Sc1 2.446680 1_555
Ni0 Sc4 2.446680 1_444
Br0 Sc4 2.715364 1_454
Br0 Sc0 2.779366 1_565
Br0 Sc1 2.968355 1_555
Br1 Sc5 2.715364 1_544
Br1 Sc1 2.779366 1_655
Br1 Sc2 2.968355 1_555
Br2 Sc3 2.715364 1_445
Br2 Sc2 2.779366 1_556
Br2 Sc0 2.968355 1_555
Br3 Sc1 2.715356 1_656
Br3 Sc3 2.779364 1_545
Br3 Sc4 2.968355 1_555
Br4 Sc2 2.715356 1_566
Br4 Sc4 2.779363 1_455
Br4 Sc5 2.968355 1_555
Br5 Sc0 2.715356 1_665
Br5 Sc5 2.779363 1_554
Br5 Sc3 2.968355 1_555
Br6 Mg0 2.674601 1_555
Br6 Sc0 2.754821 1_555
Br6 Sc2 2.788721 1_555
Br7 Mg0 2.674600 1_555
Br7 Sc1 2.754821 1_555
Br7 Sc0 2.788722 1_555
Br8 Mg0 2.674600 1_555
Br8 Sc2 2.754821 1_555
Br8 Sc1 2.788721 1_555
Br9 Mg0 2.674601 1_555
Br9 Sc3 2.754813 1_555
Br9 Sc5 2.788724 1_555
Br10 Mg0 2.674600 1_555
Br10 Sc4 2.754813 1_555
Br10 Sc3 2.788724 1_555
Br11 Mg0 2.674600 1_555
Br11 Sc5 2.754813 1_555
Br11 Sc4 2.788724 1_555
