# generated using pymatgen
data_Nb4CoSiH2
_symmetry_space_group_name_H-M   'P 1'
_cell_length_a   5.12823779
_cell_length_b   5.12823687
_cell_length_c   5.12823775
_cell_angle_alpha   104.54321572
_cell_angle_beta   104.54322982
_cell_angle_gamma   119.85319973
_symmetry_Int_Tables_number   1
_chemical_formula_structural   Nb4CoSiH2
_chemical_formula_sum   'Nb4 Co1 Si1 H2'
_cell_volume   101.22422862
_cell_formula_units_Z   1
loop_
 _symmetry_equiv_pos_site_id
 _symmetry_equiv_pos_as_xyz
  1  'x, y, z'
loop_
 _atom_site_type_symbol
 _atom_site_label
 _atom_site_symmetry_multiplicity
 _atom_site_fract_x
 _atom_site_fract_y
 _atom_site_fract_z
 _atom_site_occupancy
  Nb  Nb0  1  0.16670603  0.66670603  0.83341405  1
  Nb  Nb1  1  0.83329397  0.33329397  0.16658595  1
  Nb  Nb2  1  0.33329397  0.16670603  0.50000000  1
  Nb  Nb3  1  0.66670603  0.83329397  0.50000000  1
  Co  Co0  1  0.25000000  0.25000000  0.00000000  1
  Si  Si0  1  0.75000000  0.75000000  0.00000000  1
  H  H0  1  0.75000000  0.25000000  0.50000000  1
  H  H1  1  0.25000000  0.75000000  0.50000000  1
loop_
_geom_bond_atom_site_label_1
_geom_bond_atom_site_label_2
_geom_bond_distance
_geom_bond_site_symmetry_2
Nb0 Si0 2.668566 1_456
Nb0 Si0 2.668571 1_556
Nb1 Si0 2.668565 1_555
Nb1 Si0 2.668570 1_545
Nb2 Si0 2.668571 1_556
Nb2 Si0 2.668571 1_445
Nb3 Si0 2.668571 1_556
Nb3 Si0 2.668571 1_555
Co0 Si0 2.569806 1_445
Co0 Si0 2.569806 1_555
Co0 Nb0 2.668565 1_554
Co0 Nb1 2.668566 1_455
Co0 Nb0 2.668570 1_544
Co0 Nb3 2.668571 1_555
Co0 Nb3 2.668571 1_444
Co0 Nb2 2.668571 1_555
Co0 Nb1 2.668571 1_555
Co0 Nb2 2.668571 1_554
H0 Nb3 1.959677 1_545
H0 Nb2 1.959677 1_555
H0 Nb0 1.959680 1_655
H0 Nb1 1.959687 1_555
H1 Nb2 1.959677 1_565
H1 Nb3 1.959677 1_555
H1 Nb1 1.959680 1_455
H1 Nb0 1.959687 1_555
