# generated using pymatgen
data_Cs2Ge3BiO9
_symmetry_space_group_name_H-M   'P 1'
_cell_length_a   7.48945345
_cell_length_b   7.48941469
_cell_length_c   10.86568460
_cell_angle_alpha   90.00000000
_cell_angle_beta   90.00000000
_cell_angle_gamma   119.99997526
_symmetry_Int_Tables_number   1
_chemical_formula_structural   Cs2Ge3BiO9
_chemical_formula_sum   'Cs4 Ge6 Bi2 O18'
_cell_volume   527.81999527
_cell_formula_units_Z   2
loop_
 _symmetry_equiv_pos_site_id
 _symmetry_equiv_pos_as_xyz
  1  'x, y, z'
loop_
 _atom_site_type_symbol
 _atom_site_label
 _atom_site_symmetry_multiplicity
 _atom_site_fract_x
 _atom_site_fract_y
 _atom_site_fract_z
 _atom_site_occupancy
  Cs  Cs0  1  0.33333612  0.66666808  0.05853918  1
  Cs  Cs1  1  0.66666388  0.33333192  0.55853918  1
  Cs  Cs2  1  0.66666388  0.33333192  0.94146082  1
  Cs  Cs3  1  0.33333612  0.66666808  0.44146082  1
  Ge  Ge0  1  0.38336658  0.24731348  0.25000000  1
  Ge  Ge1  1  0.13605895  0.38336920  0.75000000  1
  Ge  Ge2  1  0.24730852  0.86393969  0.75000000  1
  Ge  Ge3  1  0.75269148  0.13606031  0.25000000  1
  Ge  Ge4  1  0.86394105  0.61663080  0.25000000  1
  Ge  Ge5  1  0.61663342  0.75268652  0.75000000  1
  Bi  Bi0  1  0.00000000  0.00000000  0.00000000  1
  Bi  Bi1  1  0.00000000  0.00000000  0.50000000  1
  O  O0  1  0.48990046  0.08262461  0.25000000  1
  O  O1  1  0.40727825  0.48989346  0.75000000  1
  O  O2  1  0.08260942  0.59271952  0.75000000  1
  O  O3  1  0.91739058  0.40728048  0.25000000  1
  O  O4  1  0.59272175  0.51010654  0.25000000  1
  O  O5  1  0.51009954  0.91737539  0.75000000  1
  O  O6  1  0.25680057  0.23381791  0.11370637  1
  O  O7  1  0.02298357  0.25680173  0.61370662  1
  O  O8  1  0.23381596  0.97701798  0.61370813  1
  O  O9  1  0.76618404  0.02298202  0.11370813  1
  O  O10  1  0.97701643  0.74319827  0.11370662  1
  O  O11  1  0.74319943  0.76618209  0.61370637  1
  O  O12  1  0.74319943  0.76618209  0.88629363  1
  O  O13  1  0.97701643  0.74319827  0.38629338  1
  O  O14  1  0.76618404  0.02298202  0.38629187  1
  O  O15  1  0.23381596  0.97701798  0.88629187  1
  O  O16  1  0.02298357  0.25680173  0.88629338  1
  O  O17  1  0.25680057  0.23381791  0.38629363  1
loop_
_geom_bond_atom_site_label_1
_geom_bond_atom_site_label_2
_geom_bond_distance
_geom_bond_site_symmetry_2
Cs0 O6 3.055960 1_555
Cs0 O9 3.055964 1_565
Cs0 O10 3.055986 1_455
Cs0 O12 3.345621 1_554
Cs0 O16 3.345632 1_554
Cs0 O15 3.345651 1_554
Cs0 O3 3.428486 1_455
Cs0 O4 3.428489 1_555
Cs0 O0 3.428531 1_565
Cs1 O11 3.055960 1_555
Cs1 O8 3.055964 1_545
Cs1 O7 3.055986 1_655
Cs1 O17 3.345621 1_555
Cs1 O13 3.345632 1_555
Cs1 O14 3.345651 1_555
Cs1 O2 3.428486 1_655
Cs1 O1 3.428489 1_555
Cs1 O5 3.428531 1_545
Cs2 O12 3.055960 1_555
Cs2 O15 3.055964 1_545
Cs2 O16 3.055986 1_655
Cs2 O6 3.345621 1_556
Cs2 O10 3.345632 1_556
Cs2 O9 3.345651 1_556
Cs2 O2 3.428486 1_655
Cs2 O1 3.428489 1_555
Cs2 O5 3.428531 1_545
Cs3 O17 3.055960 1_555
Cs3 O14 3.055964 1_565
Cs3 O13 3.055986 1_455
Cs3 O11 3.345621 1_555
Cs3 O7 3.345632 1_555
Cs3 O8 3.345651 1_555
Cs3 O3 3.428486 1_455
Cs3 O4 3.428489 1_555
Cs3 O0 3.428531 1_565
Ge0 O17 1.733804 1_555
Ge0 O6 1.733804 1_555
Ge0 O0 1.772588 1_555
Ge0 O4 1.801713 1_555
Ge1 O16 1.733811 1_555
Ge1 O7 1.733811 1_555
Ge1 O1 1.772581 1_555
Ge1 O2 1.801732 1_555
Ge2 O15 1.733809 1_555
Ge2 O8 1.733809 1_555
Ge2 O2 1.772581 1_555
Ge2 O5 1.801710 1_555
Ge3 O14 1.733809 1_555
Ge3 O9 1.733809 1_555
Ge3 O3 1.772581 1_555
Ge3 O0 1.801710 1_555
Ge4 O13 1.733811 1_555
Ge4 O10 1.733811 1_555
Ge4 O4 1.772581 1_555
Ge4 O3 1.801732 1_555
Ge5 O12 1.733804 1_555
Ge5 O11 1.733804 1_555
Ge5 O5 1.772588 1_555
Ge5 O1 1.801713 1_555
Bi0 O15 2.219026 1_544
Bi0 O9 2.219026 1_455
Bi0 O6 2.219028 1_555
Bi0 O12 2.219028 1_444
Bi0 O10 2.219029 1_445
Bi0 O16 2.219029 1_554
Bi1 O8 2.219026 1_545
Bi1 O14 2.219026 1_455
Bi1 O17 2.219028 1_555
Bi1 O11 2.219028 1_445
Bi1 O7 2.219029 1_555
Bi1 O13 2.219029 1_445
