# generated using pymatgen
data_Hf3Ti2CuPb3
_symmetry_space_group_name_H-M   'P 1'
_cell_length_a   8.53039735
_cell_length_b   8.53039557
_cell_length_c   5.73979539
_cell_angle_alpha   90.00000000
_cell_angle_beta   90.00000000
_cell_angle_gamma   119.99999935
_symmetry_Int_Tables_number   1
_chemical_formula_structural   Hf3Ti2CuPb3
_chemical_formula_sum   'Hf6 Ti4 Cu2 Pb6'
_cell_volume   361.71413248
_cell_formula_units_Z   2
loop_
 _symmetry_equiv_pos_site_id
 _symmetry_equiv_pos_as_xyz
  1  'x, y, z'
loop_
 _atom_site_type_symbol
 _atom_site_label
 _atom_site_symmetry_multiplicity
 _atom_site_fract_x
 _atom_site_fract_y
 _atom_site_fract_z
 _atom_site_occupancy
  Hf  Hf0  1  0.74449389  0.74449389  0.25000000  1
  Hf  Hf1  1  0.25550611  1.00000000  0.25000000  1
  Hf  Hf2  1  0.00000000  0.25550611  0.25000000  1
  Hf  Hf3  1  0.25550611  0.25550611  0.75000000  1
  Hf  Hf4  1  0.74449389  0.00000000  0.75000000  1
  Hf  Hf5  1  1.00000000  0.74449389  0.75000000  1
  Ti  Ti0  1  0.66666700  0.33333300  0.50000000  1
  Ti  Ti1  1  0.33333300  0.66666700  0.50000000  1
  Ti  Ti2  1  0.33333300  0.66666700  0.00000000  1
  Ti  Ti3  1  0.66666700  0.33333300  0.00000000  1
  Cu  Cu0  1  0.00000000  0.00000000  0.00000000  1
  Cu  Cu1  1  0.00000000  0.00000000  0.50000000  1
  Pb  Pb0  1  0.39337043  0.39337043  0.25000000  1
  Pb  Pb1  1  0.60662957  0.00000000  0.25000000  1
  Pb  Pb2  1  1.00000000  0.60662957  0.25000000  1
  Pb  Pb3  1  0.60662957  0.60662957  0.75000000  1
  Pb  Pb4  1  0.39337043  1.00000000  0.75000000  1
  Pb  Pb5  1  0.00000000  0.39337043  0.75000000  1
loop_
_geom_bond_atom_site_label_1
_geom_bond_atom_site_label_2
_geom_bond_distance
_geom_bond_site_symmetry_2
Hf0 Pb1 2.949040 1_565
Hf0 Pb2 2.949040 1_555
Hf0 Pb0 2.995222 1_555
Hf0 Pb3 3.101512 1_555
Hf0 Pb3 3.101512 1_554
Hf1 Pb0 2.949040 1_565
Hf1 Pb2 2.949040 1_455
Hf1 Pb1 2.995223 1_565
Hf1 Pb4 3.101512 1_554
Hf1 Pb4 3.101512 1_555
Hf2 Pb1 2.949040 1_455
Hf2 Pb0 2.949040 1_555
Hf2 Pb2 2.995222 1_455
Hf2 Pb5 3.101512 1_554
Hf2 Pb5 3.101512 1_555
Hf3 Pb4 2.949040 1_545
Hf3 Pb5 2.949040 1_555
Hf3 Pb3 2.995222 1_555
Hf3 Pb0 3.101512 1_555
Hf3 Pb0 3.101512 1_556
Hf4 Pb3 2.949040 1_545
Hf4 Pb5 2.949040 1_655
Hf4 Pb4 2.995223 1_545
Hf4 Pb1 3.101512 1_556
Hf4 Pb1 3.101512 1_555
Hf5 Pb4 2.949040 1_655
Hf5 Pb3 2.949040 1_555
Hf5 Pb5 2.995222 1_655
Hf5 Pb2 3.101512 1_555
Hf5 Pb2 3.101512 1_556
Cu0 Hf2 2.609520 1_555
Cu0 Hf5 2.609520 1_444
Cu0 Hf3 2.609520 1_554
Cu0 Hf0 2.609520 1_445
Cu0 Hf1 2.609521 1_545
Cu0 Hf4 2.609521 1_454
Cu1 Hf2 2.609520 1_555
Cu1 Hf5 2.609520 1_445
Cu1 Hf3 2.609520 1_555
Cu1 Hf0 2.609520 1_445
Cu1 Hf1 2.609521 1_545
Cu1 Hf4 2.609521 1_455
Pb0 Ti2 2.991727 1_555
Pb0 Ti1 2.991727 1_555
Pb0 Ti3 2.991728 1_555
Pb0 Ti0 2.991728 1_555
Pb1 Ti3 2.991720 1_555
Pb1 Ti0 2.991720 1_555
Pb1 Ti1 2.991723 1_545
Pb1 Ti2 2.991723 1_545
Pb2 Ti2 2.991720 1_655
Pb2 Ti1 2.991720 1_655
Pb2 Ti0 2.991723 1_555
Pb2 Ti3 2.991723 1_555
Pb3 Ti3 2.991727 1_556
Pb3 Ti0 2.991727 1_555
Pb3 Ti1 2.991728 1_555
Pb3 Ti2 2.991728 1_556
Pb4 Ti1 2.991720 1_555
Pb4 Ti2 2.991720 1_556
Pb4 Ti3 2.991723 1_566
Pb4 Ti0 2.991723 1_565
Pb5 Ti0 2.991720 1_455
Pb5 Ti3 2.991720 1_456
Pb5 Ti1 2.991723 1_555
Pb5 Ti2 2.991723 1_556
