# generated using pymatgen
data_Hf6BBr12
_symmetry_space_group_name_H-M   'P 1'
_cell_length_a   8.48022081
_cell_length_b   8.48022095
_cell_length_c   8.48022145
_cell_angle_alpha   107.09615993
_cell_angle_beta   107.09616048
_cell_angle_gamma   107.09615966
_symmetry_Int_Tables_number   1
_chemical_formula_structural   Hf6BBr12
_chemical_formula_sum   'Hf6 B1 Br12'
_cell_volume   506.54899343
_cell_formula_units_Z   1
loop_
 _symmetry_equiv_pos_site_id
 _symmetry_equiv_pos_as_xyz
  1  'x, y, z'
loop_
 _atom_site_type_symbol
 _atom_site_label
 _atom_site_symmetry_multiplicity
 _atom_site_fract_x
 _atom_site_fract_y
 _atom_site_fract_z
 _atom_site_occupancy
  Hf  Hf0  1  0.96959341  0.71208519  0.90369752  1
  Hf  Hf1  1  0.28791481  0.09630248  0.03040659  1
  Hf  Hf2  1  0.09630248  0.03040659  0.28791481  1
  Hf  Hf3  1  0.90369752  0.96959341  0.71208519  1
  Hf  Hf4  1  0.71208519  0.90369752  0.96959341  1
  Hf  Hf5  1  0.03040659  0.28791481  0.09630248  1
  B  B0  1  0.00000000  0.00000000  0.00000000  1
  Br  Br0  1  0.92159859  0.31270332  0.77511517  1
  Br  Br1  1  0.68729668  0.22488483  0.07840141  1
  Br  Br2  1  0.44786791  0.14512551  0.37196342  1
  Br  Br3  1  0.85487449  0.62803658  0.55213209  1
  Br  Br4  1  0.22488483  0.07840141  0.68729668  1
  Br  Br5  1  0.62803658  0.55213209  0.85487449  1
  Br  Br6  1  0.37196342  0.44786791  0.14512551  1
  Br  Br7  1  0.77511517  0.92159859  0.31270332  1
  Br  Br8  1  0.14512551  0.37196342  0.44786791  1
  Br  Br9  1  0.55213209  0.85487449  0.62803658  1
  Br  Br10  1  0.31270332  0.77511517  0.92159859  1
  Br  Br11  1  0.07840141  0.68729668  0.22488483  1
loop_
_geom_bond_atom_site_label_1
_geom_bond_atom_site_label_2
_geom_bond_distance
_geom_bond_site_symmetry_2
B0 Hf1 2.242416 1_555
B0 Hf4 2.242416 1_444
B0 Hf0 2.242416 1_444
B0 Hf5 2.242416 1_555
B0 Hf2 2.242416 1_555
B0 Hf3 2.242416 1_444
Br0 Hf5 2.699513 1_656
Br0 Hf3 2.748270 1_545
Br0 Hf0 3.095582 1_555
Br1 Hf4 2.699513 1_544
Br1 Hf5 2.748270 1_655
Br1 Hf1 3.095582 1_555
Br2 Hf2 2.642073 1_555
Br2 Hf1 2.656245 1_555
Br3 Hf0 2.642073 1_555
Br3 Hf3 2.656245 1_555
Br4 Hf3 2.699512 1_445
Br4 Hf1 2.748270 1_556
Br4 Hf2 3.095582 1_555
Br5 Hf4 2.642073 1_555
Br5 Hf0 2.656245 1_555
Br6 Hf1 2.642073 1_555
Br6 Hf5 2.656245 1_555
Br7 Hf2 2.699512 1_665
Br7 Hf4 2.748270 1_554
Br7 Hf3 3.095582 1_555
Br8 Hf5 2.642073 1_555
Br8 Hf2 2.656245 1_555
Br9 Hf3 2.642073 1_555
Br9 Hf4 2.656245 1_555
Br10 Hf1 2.699513 1_566
Br10 Hf0 2.748270 1_455
Br10 Hf4 3.095582 1_555
Br11 Hf0 2.699513 1_454
Br11 Hf2 2.748270 1_565
Br11 Hf5 3.095582 1_555
