# generated using pymatgen
data_Rb7Nb(SeO4)6
_symmetry_space_group_name_H-M   'P 1'
_cell_length_a   9.94708058
_cell_length_b   9.94708018
_cell_length_c   9.94708135
_cell_angle_alpha   109.67644093
_cell_angle_beta   109.67643244
_cell_angle_gamma   109.67644005
_symmetry_Int_Tables_number   1
_chemical_formula_structural   Rb7Nb(SeO4)6
_chemical_formula_sum   'Rb7 Nb1 Se6 O24'
_cell_volume   751.83209522
_cell_formula_units_Z   1
loop_
 _symmetry_equiv_pos_site_id
 _symmetry_equiv_pos_as_xyz
  1  'x, y, z'
loop_
 _atom_site_type_symbol
 _atom_site_label
 _atom_site_symmetry_multiplicity
 _atom_site_fract_x
 _atom_site_fract_y
 _atom_site_fract_z
 _atom_site_occupancy
  Rb  Rb0  1  0.50000000  0.50000000  0.50000000  1
  Rb  Rb1  1  0.83146715  0.33039269  0.67235041  1
  Rb  Rb2  1  0.33039269  0.67235041  0.83146715  1
  Rb  Rb3  1  0.67235041  0.83146715  0.33039269  1
  Rb  Rb4  1  0.16853285  0.66960731  0.32764959  1
  Rb  Rb5  1  0.66960731  0.32764959  0.16853285  1
  Rb  Rb6  1  0.32764959  0.16853285  0.66960731  1
  Nb  Nb0  1  0.00000000  0.00000000  0.00000000  1
  Se  Se0  1  0.97064139  0.74992283  0.62611026  1
  Se  Se1  1  0.74992283  0.62611026  0.97064139  1
  Se  Se2  1  0.62611026  0.97064139  0.74992283  1
  Se  Se3  1  0.02935861  0.25007717  0.37388974  1
  Se  Se4  1  0.25007717  0.37388974  0.02935861  1
  Se  Se5  1  0.37388974  0.02935861  0.25007717  1
  O  O0  1  0.41380982  0.89195605  0.15593840  1
  O  O1  1  0.89195605  0.15593840  0.41380982  1
  O  O2  1  0.15593840  0.41380982  0.89195605  1
  O  O3  1  0.58619018  0.10804395  0.84406160  1
  O  O4  1  0.10804395  0.84406160  0.58619018  1
  O  O5  1  0.84406160  0.58619018  0.10804395  1
  O  O6  1  0.29713274  0.98596126  0.36114554  1
  O  O7  1  0.98596126  0.36114554  0.29713274  1
  O  O8  1  0.36114554  0.29713274  0.98596126  1
  O  O9  1  0.70286726  0.01403874  0.63885446  1
  O  O10  1  0.01403874  0.63885446  0.70286726  1
  O  O11  1  0.63885446  0.70286726  0.01403874  1
  O  O12  1  0.77491625  0.97335963  0.90552483  1
  O  O13  1  0.97335963  0.90552483  0.77491625  1
  O  O14  1  0.64476250  0.46824789  0.78111452  1
  O  O15  1  0.78111452  0.64476250  0.46824789  1
  O  O16  1  0.46824789  0.78111452  0.64476250  1
  O  O17  1  0.35523750  0.53175211  0.21888548  1
  O  O18  1  0.21888548  0.35523750  0.53175211  1
  O  O19  1  0.53175211  0.21888548  0.35523750  1
  O  O20  1  0.09447517  0.22508375  0.02664037  1
  O  O21  1  0.02664037  0.09447517  0.22508375  1
  O  O22  1  0.22508375  0.02664037  0.09447517  1
  O  O23  1  0.90552483  0.77491625  0.97335963  1
loop_
_geom_bond_atom_site_label_1
_geom_bond_atom_site_label_2
_geom_bond_distance
_geom_bond_site_symmetry_2
Nb0 O23 1.995499 1_444
Nb0 O20 1.995499 1_555
Nb0 O22 1.995499 1_555
Nb0 O12 1.995499 1_444
Nb0 O21 1.995499 1_555
Nb0 O13 1.995499 1_444
O0 Se5 1.629898 1_565
O0 Rb2 2.846998 1_554
O0 Rb3 2.954144 1_555
O1 Se3 1.629898 1_655
O1 Rb3 2.846997 1_545
O1 Rb1 2.954144 1_555
O2 Se4 1.629898 1_556
O2 Rb1 2.846998 1_455
O2 Rb2 2.954144 1_555
O3 Se2 1.629898 1_545
O3 Rb5 2.846998 1_556
O3 Rb6 2.954144 1_555
O4 Se0 1.629898 1_455
O4 Rb6 2.846997 1_565
O4 Rb4 2.954144 1_555
O5 Se1 1.629898 1_554
O5 Rb4 2.846998 1_655
O5 Rb5 2.954144 1_555
O6 Se5 1.630076 1_565
O6 Rb4 2.818841 1_555
O6 Rb6 2.837918 1_565
O7 Se3 1.630076 1_655
O7 Rb5 2.818842 1_555
O7 Rb4 2.837917 1_655
O8 Se4 1.630076 1_556
O8 Rb6 2.818842 1_555
O8 Rb5 2.837918 1_556
O9 Se2 1.630076 1_545
O9 Rb1 2.818841 1_555
O9 Rb3 2.837918 1_545
O10 Se0 1.630076 1_455
O10 Rb2 2.818842 1_555
O10 Rb1 2.837917 1_455
O11 Se1 1.630076 1_554
O11 Rb3 2.818842 1_555
O11 Rb2 2.837918 1_554
O12 Se2 1.728983 1_555
O13 Se0 1.728983 1_555
O14 Se1 1.639026 1_555
O14 Rb0 2.860395 1_555
O14 Rb1 2.927261 1_555
O14 Rb6 3.025313 1_555
O15 Se0 1.639026 1_555
O15 Rb0 2.860395 1_555
O15 Rb3 2.927261 1_555
O15 Rb5 3.025313 1_555
O16 Se2 1.639026 1_555
O16 Rb0 2.860395 1_555
O16 Rb2 2.927261 1_555
O16 Rb4 3.025314 1_555
O17 Se4 1.639026 1_555
O17 Rb0 2.860395 1_555
O17 Rb4 2.927261 1_555
O17 Rb3 3.025313 1_555
O18 Se3 1.639026 1_555
O18 Rb0 2.860395 1_555
O18 Rb6 2.927261 1_555
O18 Rb2 3.025313 1_555
O19 Se5 1.639026 1_555
O19 Rb0 2.860395 1_555
O19 Rb5 2.927261 1_555
O19 Rb1 3.025314 1_555
O20 Se4 1.728983 1_555
O21 Se3 1.728983 1_555
O22 Se5 1.728983 1_555
O23 Se1 1.728983 1_555
