# generated using pymatgen
data_LuZrAlTc3
_symmetry_space_group_name_H-M   'P 1'
_cell_length_a   5.24253725
_cell_length_b   5.24253546
_cell_length_c   8.71153289
_cell_angle_alpha   90.00000000
_cell_angle_beta   90.00000000
_cell_angle_gamma   119.99998663
_symmetry_Int_Tables_number   1
_chemical_formula_structural   LuZrAlTc3
_chemical_formula_sum   'Lu2 Zr2 Al2 Tc6'
_cell_volume   207.35197306
_cell_formula_units_Z   2
loop_
 _symmetry_equiv_pos_site_id
 _symmetry_equiv_pos_as_xyz
  1  'x, y, z'
loop_
 _atom_site_type_symbol
 _atom_site_label
 _atom_site_symmetry_multiplicity
 _atom_site_fract_x
 _atom_site_fract_y
 _atom_site_fract_z
 _atom_site_occupancy
  Lu  Lu0  1  0.33333300  0.66666700  0.43429562  1
  Lu  Lu1  1  0.66666700  0.33333300  0.93429562  1
  Zr  Zr0  1  0.66666700  0.33333300  0.56841721  1
  Zr  Zr1  1  0.33333300  0.66666700  0.06841721  1
  Al  Al0  1  0.00000000  0.00000000  0.99879021  1
  Al  Al1  1  0.00000000  0.00000000  0.49879021  1
  Tc  Tc0  1  0.17052617  0.34105033  0.74949865  1
  Tc  Tc1  1  0.82947383  0.17052617  0.24949865  1
  Tc  Tc2  1  0.34105033  0.17052617  0.24949865  1
  Tc  Tc3  1  0.65894967  0.82947383  0.74949865  1
  Tc  Tc4  1  0.82947383  0.65894967  0.24949865  1
  Tc  Tc5  1  0.17052617  0.82947383  0.74949865  1
loop_
_geom_bond_atom_site_label_1
_geom_bond_atom_site_label_2
_geom_bond_distance
_geom_bond_site_symmetry_2
Lu0 Tc2 3.076349 1_555
Lu0 Tc4 3.076350 1_555
Lu0 Tc1 3.076352 1_565
Lu0 Tc1 3.076352 1_455
Lu0 Tc2 3.076353 1_565
Lu0 Tc4 3.076354 1_455
Lu0 Tc5 3.118568 1_555
Lu0 Tc0 3.118575 1_555
Lu0 Tc3 3.118575 1_555
Lu0 Zr1 3.187362 1_555
Lu0 Zr0 3.244464 1_565
Lu0 Zr0 3.244465 1_455
Lu0 Zr0 3.244472 1_555
Lu1 Tc3 3.076349 1_555
Lu1 Tc0 3.076350 1_555
Lu1 Tc5 3.076352 1_545
Lu1 Tc5 3.076352 1_655
Lu1 Tc3 3.076353 1_545
Lu1 Tc0 3.076354 1_655
Lu1 Tc1 3.118568 1_556
Lu1 Tc4 3.118575 1_556
Lu1 Tc2 3.118575 1_556
Lu1 Zr0 3.187362 1_555
Lu1 Zr1 3.244464 1_546
Lu1 Zr1 3.244465 1_656
Lu1 Zr1 3.244472 1_556
Al0 Tc0 2.667200 1_555
Al0 Tc3 2.667200 1_445
Al0 Tc5 2.667205 1_545
Al0 Tc4 2.677260 1_446
Al0 Tc2 2.677260 1_556
Al0 Tc1 2.677265 1_456
Al0 Lu1 3.078481 1_455
Al0 Lu1 3.078486 1_445
Al0 Lu1 3.078487 1_555
Al0 Zr1 3.086955 1_546
Al0 Zr1 3.086959 1_556
Al0 Zr1 3.086960 1_446
Al1 Tc4 2.667200 1_445
Al1 Tc2 2.667200 1_555
Al1 Tc1 2.667205 1_455
Al1 Tc0 2.677260 1_555
Al1 Tc3 2.677260 1_445
Al1 Tc5 2.677265 1_545
Al1 Lu0 3.078481 1_545
Al1 Lu0 3.078486 1_555
Al1 Lu0 3.078487 1_445
Al1 Zr0 3.086955 1_455
Al1 Zr0 3.086959 1_445
Al1 Zr0 3.086960 1_555
Tc0 Tc5 2.560578 1_555
Tc0 Tc3 2.560578 1_555
Tc0 Tc5 2.681958 1_545
Tc0 Tc3 2.681959 1_445
Tc0 Zr0 3.059536 1_555
Tc0 Zr0 3.059540 1_455
Tc0 Zr1 3.147112 1_556
Tc1 Tc4 2.560578 1_555
Tc1 Tc2 2.560578 1_555
Tc1 Tc4 2.681958 1_545
Tc1 Tc2 2.681959 1_655
Tc1 Zr1 3.059538 1_545
Tc1 Zr1 3.059538 1_655
Tc1 Zr0 3.147106 1_555
Tc2 Tc4 2.560578 1_555
Tc2 Tc4 2.681959 1_445
Tc2 Zr1 3.059535 1_555
Tc2 Zr1 3.059540 1_545
Tc2 Zr0 3.147112 1_555
Tc3 Tc5 2.560578 1_555
Tc3 Tc5 2.681959 1_655
Tc3 Zr0 3.059535 1_555
Tc3 Zr0 3.059540 1_565
Tc3 Zr1 3.147112 1_556
Tc4 Zr1 3.059536 1_555
Tc4 Zr1 3.059540 1_655
Tc4 Zr0 3.147112 1_555
Tc5 Zr0 3.059538 1_565
Tc5 Zr0 3.059538 1_455
Tc5 Zr1 3.147106 1_556
