# generated using pymatgen
data_Ba6Fe(IrO6)2
_symmetry_space_group_name_H-M   'P 1'
_cell_length_a   9.05429074
_cell_length_b   9.05429088
_cell_length_c   7.27092775
_cell_angle_alpha   68.07929453
_cell_angle_beta   68.07929174
_cell_angle_gamma   36.88357312
_symmetry_Int_Tables_number   1
_chemical_formula_structural   Ba6Fe(IrO6)2
_chemical_formula_sum   'Ba6 Fe1 Ir2 O12'
_cell_volume   328.88979956
_cell_formula_units_Z   1
loop_
 _symmetry_equiv_pos_site_id
 _symmetry_equiv_pos_as_xyz
  1  'x, y, z'
loop_
 _atom_site_type_symbol
 _atom_site_label
 _atom_site_symmetry_multiplicity
 _atom_site_fract_x
 _atom_site_fract_y
 _atom_site_fract_z
 _atom_site_occupancy
  Ba  Ba0  1  0.88392007  0.88392007  0.70872215  1
  Ba  Ba1  1  0.21291545  0.21291545  0.70960861  1
  Ba  Ba2  1  0.54771563  0.54771563  0.71380150  1
  Ba  Ba3  1  0.45228437  0.45228437  0.28619850  1
  Ba  Ba4  1  0.78708455  0.78708455  0.29039139  1
  Ba  Ba5  1  0.11607993  0.11607993  0.29127785  1
  Fe  Fe0  1  0.00000000  0.00000000  0.00000000  1
  Ir  Ir0  1  0.66797054  0.66797054  0.00017858  1
  Ir  Ir1  1  0.33202946  0.33202946  0.99982142  1
  O  O0  1  0.95075615  0.95075615  0.29711715  1
  O  O1  1  0.28195107  0.28195107  0.30780872  1
  O  O2  1  0.61527954  0.61527954  0.30768841  1
  O  O3  1  0.38472046  0.38472046  0.69231159  1
  O  O4  1  0.71804893  0.71804893  0.69219128  1
  O  O5  1  0.04924385  0.04924385  0.70288285  1
  O  O6  1  0.50000000  0.00000000  0.00000000  1
  O  O7  1  0.83009371  0.34196197  0.99997770  1
  O  O8  1  0.16990629  0.65803803  0.00002230  1
  O  O9  1  0.00000000  0.50000000  0.00000000  1
  O  O10  1  0.34196197  0.83009371  0.99997770  1
  O  O11  1  0.65803803  0.16990629  0.00002230  1
loop_
_geom_bond_atom_site_label_1
_geom_bond_atom_site_label_2
_geom_bond_distance
_geom_bond_site_symmetry_2
Ba0 O0 2.751426 1_555
Ba0 O11 2.786151 1_566
Ba0 O8 2.786151 1_656
Ba0 O5 2.823597 1_665
Ba0 O6 2.827383 1_566
Ba0 O9 2.827384 1_656
Ba0 O3 2.866535 1_655
Ba0 O3 2.866535 1_565
Ba0 O4 2.898845 1_555
Ba1 O1 2.685972 1_555
Ba1 O7 2.781389 1_455
Ba1 O10 2.781389 1_545
Ba1 O9 2.823752 1_556
Ba1 O6 2.823752 1_556
Ba1 O5 2.831255 1_555
Ba1 O4 2.866865 1_545
Ba1 O4 2.866865 1_455
Ba1 O3 2.904183 1_555
Ba2 O2 2.714558 1_555
Ba2 O10 2.792019 1_555
Ba2 O7 2.792019 1_555
Ba2 O8 2.793043 1_556
Ba2 O11 2.793043 1_556
Ba2 O3 2.865126 1_555
Ba2 O5 2.865177 1_655
Ba2 O5 2.865177 1_565
Ba2 O4 2.867898 1_555
Ba3 O3 2.714558 1_555
Ba3 O11 2.792019 1_555
Ba3 O8 2.792019 1_555
Ba3 O7 2.793043 1_554
Ba3 O10 2.793043 1_554
Ba3 O2 2.865126 1_555
Ba3 O0 2.865177 1_455
Ba3 O0 2.865177 1_545
Ba3 O1 2.867898 1_555
Ba4 O4 2.685972 1_555
Ba4 O8 2.781389 1_655
Ba4 O11 2.781389 1_565
Ba4 O9 2.823752 1_655
Ba4 O6 2.823752 1_565
Ba4 O0 2.831255 1_555
Ba4 O1 2.866865 1_565
Ba4 O1 2.866865 1_655
Ba4 O2 2.904183 1_555
Ba5 O5 2.751426 1_555
Ba5 O10 2.786151 1_544
Ba5 O7 2.786151 1_454
Ba5 O0 2.823597 1_445
Ba5 O6 2.827383 1_555
Ba5 O9 2.827384 1_555
Ba5 O2 2.866535 1_455
Ba5 O2 2.866535 1_545
Ba5 O1 2.898845 1_555
Fe0 O0 1.986007 1_445
Fe0 O5 1.986007 1_554
Fe0 O11 2.081662 1_455
Fe0 O10 2.081662 1_544
Fe0 O7 2.081662 1_454
Fe0 O8 2.081662 1_545
Ir0 O10 1.984414 1_554
Ir0 O7 1.984414 1_554
Ir0 O9 2.008792 1_655
Ir0 O6 2.008793 1_565
Ir0 O2 2.055625 1_555
Ir0 O4 2.058768 1_554
Ir1 O11 1.984414 1_556
Ir1 O8 1.984414 1_556
Ir1 O9 2.008792 1_556
Ir1 O6 2.008793 1_556
Ir1 O3 2.055625 1_555
Ir1 O1 2.058768 1_556
