# generated using pymatgen
data_Ba2AlSbSe5
_symmetry_space_group_name_H-M   'P 1'
_cell_length_a   9.22533488
_cell_length_b   9.43570792
_cell_length_c   12.86027663
_cell_angle_alpha   90.00000000
_cell_angle_beta   90.00000000
_cell_angle_gamma   90.00000000
_symmetry_Int_Tables_number   1
_chemical_formula_structural   Ba2AlSbSe5
_chemical_formula_sum   'Ba8 Al4 Sb4 Se20'
_cell_volume   1119.45577033
_cell_formula_units_Z   4
loop_
 _symmetry_equiv_pos_site_id
 _symmetry_equiv_pos_as_xyz
  1  'x, y, z'
loop_
 _atom_site_type_symbol
 _atom_site_label
 _atom_site_symmetry_multiplicity
 _atom_site_fract_x
 _atom_site_fract_y
 _atom_site_fract_z
 _atom_site_occupancy
  Ba  Ba0  1  0.00656565  0.12397183  0.82452415  1
  Ba  Ba1  1  0.49343435  0.37602817  0.32452415  1
  Ba  Ba2  1  0.50656565  0.87602817  0.17547585  1
  Ba  Ba3  1  0.99343435  0.62397183  0.67547585  1
  Ba  Ba4  1  0.99343435  0.87602817  0.17547585  1
  Ba  Ba5  1  0.50656565  0.62397183  0.67547585  1
  Ba  Ba6  1  0.49343435  0.12397183  0.82452415  1
  Ba  Ba7  1  0.00656565  0.37602817  0.32452415  1
  Al  Al0  1  0.25000000  0.32951760  0.59568082  1
  Al  Al1  1  0.25000000  0.17048240  0.09568082  1
  Al  Al2  1  0.75000000  0.67048240  0.40431918  1
  Al  Al3  1  0.75000000  0.82951760  0.90431918  1
  Sb  Sb0  1  0.25000000  0.98409229  0.52815349  1
  Sb  Sb1  1  0.25000000  0.51590771  0.02815349  1
  Sb  Sb2  1  0.75000000  0.01590771  0.47184651  1
  Sb  Sb3  1  0.75000000  0.48409229  0.97184651  1
  Se  Se0  1  0.04576675  0.17870190  0.55754646  1
  Se  Se1  1  0.45423325  0.32129810  0.05754646  1
  Se  Se2  1  0.54576675  0.82129810  0.44245354  1
  Se  Se3  1  0.95423325  0.67870190  0.94245354  1
  Se  Se4  1  0.95423325  0.82129810  0.44245354  1
  Se  Se5  1  0.54576675  0.67870190  0.94245354  1
  Se  Se6  1  0.45423325  0.17870190  0.55754646  1
  Se  Se7  1  0.04576675  0.32129810  0.05754646  1
  Se  Se8  1  0.25000000  0.88364564  0.71462392  1
  Se  Se9  1  0.25000000  0.61635436  0.21462392  1
  Se  Se10  1  0.75000000  0.11635436  0.28537608  1
  Se  Se11  1  0.75000000  0.38364564  0.78537608  1
  Se  Se12  1  0.25000000  0.38669230  0.77365821  1
  Se  Se13  1  0.25000000  0.11330770  0.27365821  1
  Se  Se14  1  0.75000000  0.61330770  0.22634179  1
  Se  Se15  1  0.75000000  0.88669230  0.72634179  1
  Se  Se16  1  0.25000000  0.96753506  0.99239557  1
  Se  Se17  1  0.25000000  0.53246494  0.49239557  1
  Se  Se18  1  0.75000000  0.03246494  0.00760443  1
  Se  Se19  1  0.75000000  0.46753506  0.50760443  1
loop_
_geom_bond_atom_site_label_1
_geom_bond_atom_site_label_2
_geom_bond_distance
_geom_bond_site_symmetry_2
Ba0 Se12 3.408310 1_555
Ba0 Se11 3.443721 1_455
Ba0 Se16 3.447177 1_545
Ba0 Se18 3.448369 1_456
Ba0 Se8 3.490448 1_545
Ba0 Se0 3.490810 1_555
Ba0 Se15 3.494167 1_445
Ba0 Se7 3.546534 1_556
Ba1 Se13 3.408310 1_555
Ba1 Se10 3.443721 1_555
Ba1 Se17 3.447177 1_555
Ba1 Se19 3.448369 1_555
Ba1 Se9 3.490448 1_555
Ba1 Se1 3.490810 1_555
Ba1 Se14 3.494167 1_555
Ba1 Se6 3.546534 1_555
Ba2 Se14 3.408310 1_555
Ba2 Se9 3.443721 1_555
Ba2 Se18 3.447177 1_565
Ba2 Se16 3.448369 1_554
Ba2 Se10 3.490448 1_565
Ba2 Se2 3.490810 1_555
Ba2 Se13 3.494167 1_565
Ba2 Se5 3.546534 1_554
Ba3 Se15 3.408310 1_555
Ba3 Se8 3.443721 1_655
Ba3 Se19 3.447177 1_555
Ba3 Se17 3.448369 1_655
Ba3 Se11 3.490448 1_555
Ba3 Se3 3.490810 1_555
Ba3 Se12 3.494167 1_655
Ba3 Se4 3.546534 1_555
Ba4 Se14 3.408310 1_555
Ba4 Se9 3.443721 1_655
Ba4 Se18 3.447177 1_565
Ba4 Se16 3.448369 1_654
Ba4 Se10 3.490448 1_565
Ba4 Se4 3.490810 1_555
Ba4 Se13 3.494167 1_665
Ba4 Se3 3.546534 1_554
Ba5 Se15 3.408310 1_555
Ba5 Se8 3.443721 1_555
Ba5 Se19 3.447177 1_555
Ba5 Se17 3.448369 1_555
Ba5 Se11 3.490448 1_555
Ba5 Se5 3.490810 1_555
Ba5 Se12 3.494167 1_555
Ba5 Se2 3.546534 1_555
Ba6 Se12 3.408310 1_555
Ba6 Se11 3.443721 1_555
Ba6 Se16 3.447177 1_545
Ba6 Se18 3.448369 1_556
Ba6 Se8 3.490448 1_545
Ba6 Se6 3.490810 1_555
Ba6 Se15 3.494167 1_545
Ba6 Se1 3.546534 1_556
Ba7 Se13 3.408310 1_555
Ba7 Se10 3.443721 1_455
Ba7 Se17 3.447177 1_555
Ba7 Se19 3.448369 1_455
Ba7 Se9 3.490448 1_555
Ba7 Se7 3.490810 1_555
Ba7 Se14 3.494167 1_455
Ba7 Se0 3.546534 1_555
Al0 Se17 2.330528 1_555
Al0 Se12 2.351558 1_555
Al0 Se6 2.411534 1_555
Al0 Se0 2.411534 1_555
Al1 Se16 2.330528 1_544
Al1 Se13 2.351558 1_555
Al1 Se1 2.411534 1_555
Al1 Se7 2.411534 1_555
Al2 Se19 2.330528 1_555
Al2 Se14 2.351558 1_555
Al2 Se4 2.411534 1_555
Al2 Se2 2.411534 1_555
Al3 Se18 2.330528 1_566
Al3 Se15 2.351558 1_555
Al3 Se3 2.411534 1_555
Al3 Se5 2.411534 1_555
Sb0 Se8 2.578564 1_555
Sb0 Se6 2.657953 1_565
Sb0 Se0 2.657953 1_565
Sb0 Se2 3.319516 1_555
Sb0 Se4 3.319516 1_455
Sb1 Se9 2.578564 1_555
Sb1 Se1 2.657953 1_555
Sb1 Se7 2.657953 1_555
Sb1 Se5 3.319516 1_554
Sb1 Se3 3.319516 1_454
Sb2 Se10 2.578564 1_555
Sb2 Se4 2.657953 1_545
Sb2 Se2 2.657953 1_545
Sb2 Se0 3.319516 1_655
Sb2 Se6 3.319516 1_555
Sb3 Se11 2.578564 1_555
Sb3 Se3 2.657953 1_555
Sb3 Se5 2.657953 1_555
Sb3 Se7 3.319516 1_656
Sb3 Se1 3.319516 1_556
