# generated using pymatgen
data_Lu3Si2GeOs2
_symmetry_space_group_name_H-M   'P 1'
_cell_length_a   5.61828689
_cell_length_b   5.61828868
_cell_length_c   13.53619629
_cell_angle_alpha   90.00000000
_cell_angle_beta   90.00000000
_cell_angle_gamma   136.77562848
_symmetry_Int_Tables_number   1
_chemical_formula_structural   Lu3Si2GeOs2
_chemical_formula_sum   'Lu6 Si4 Ge2 Os4'
_cell_volume   292.62038736
_cell_formula_units_Z   2
loop_
 _symmetry_equiv_pos_site_id
 _symmetry_equiv_pos_as_xyz
  1  'x, y, z'
loop_
 _atom_site_type_symbol
 _atom_site_label
 _atom_site_symmetry_multiplicity
 _atom_site_fract_x
 _atom_site_fract_y
 _atom_site_fract_z
 _atom_site_occupancy
  Lu  Lu0  1  0.64713337  0.35286663  0.25000000  1
  Lu  Lu1  1  0.35286663  0.64713337  0.75000000  1
  Lu  Lu2  1  0.92547499  0.07452501  0.11304160  1
  Lu  Lu3  1  0.07452501  0.92547499  0.88695840  1
  Lu  Lu4  1  0.07452501  0.92547499  0.61304160  1
  Lu  Lu5  1  0.92547499  0.07452501  0.38695840  1
  Si  Si0  1  0.61494085  0.38505915  0.03843189  1
  Si  Si1  1  0.38505915  0.61494085  0.96156811  1
  Si  Si2  1  0.38505915  0.61494085  0.53843189  1
  Si  Si3  1  0.61494085  0.38505915  0.46156811  1
  Ge  Ge0  1  0.33952349  0.66047651  0.25000000  1
  Ge  Ge1  1  0.66047651  0.33952349  0.75000000  1
  Os  Os0  1  0.78977243  0.21022757  0.58100322  1
  Os  Os1  1  0.21022757  0.78977243  0.41899678  1
  Os  Os2  1  0.21022757  0.78977243  0.08100322  1
  Os  Os3  1  0.78977243  0.21022757  0.91899678  1
loop_
_geom_bond_atom_site_label_1
_geom_bond_atom_site_label_2
_geom_bond_distance
_geom_bond_site_symmetry_2
Lu0 Si3 2.883506 1_555
Lu0 Si0 2.883506 1_555
Lu0 Os1 3.154299 1_655
Lu0 Os2 3.154299 1_655
Lu0 Os1 3.154300 1_545
Lu0 Os2 3.154300 1_545
Lu1 Si1 2.883506 1_555
Lu1 Si2 2.883506 1_555
Lu1 Os3 3.154299 1_455
Lu1 Os0 3.154299 1_455
Lu1 Os3 3.154300 1_565
Lu1 Os0 3.154300 1_565
Lu2 Si1 2.943547 1_544
Lu2 Si1 2.943547 1_654
Lu2 Os3 2.984772 1_554
Lu2 Os2 3.006150 1_645
Lu2 Si0 3.036391 1_655
Lu2 Si0 3.036393 1_545
Lu2 Os2 3.086500 1_545
Lu2 Os2 3.086502 1_655
Lu3 Si0 2.943547 1_566
Lu3 Si0 2.943547 1_456
Lu3 Os2 2.984772 1_556
Lu3 Os3 3.006150 1_465
Lu3 Si1 3.036391 1_455
Lu3 Si1 3.036393 1_565
Lu3 Os3 3.086500 1_565
Lu3 Os3 3.086502 1_455
Lu4 Si3 2.943547 1_565
Lu4 Si3 2.943547 1_455
Lu4 Os1 2.984772 1_555
Lu4 Os0 3.006150 1_465
Lu4 Si2 3.036391 1_455
Lu4 Si2 3.036393 1_565
Lu4 Os0 3.086500 1_565
Lu4 Os0 3.086502 1_455
Lu5 Si2 2.943547 1_545
Lu5 Si2 2.943547 1_655
Lu5 Os0 2.984772 1_555
Lu5 Os1 3.006150 1_645
Lu5 Si3 3.036391 1_655
Lu5 Si3 3.036393 1_545
Lu5 Os1 3.086500 1_545
Lu5 Os1 3.086502 1_655
Si0 Si1 2.617186 1_554
Si2 Si3 2.617186 1_555
Ge0 Os1 2.656577 1_555
Ge0 Os2 2.656577 1_555
Ge0 Lu0 2.884714 1_455
Ge0 Lu0 2.884715 1_565
Ge0 Lu5 2.919817 1_565
Ge0 Lu2 2.919817 1_565
Ge0 Lu5 2.919817 1_455
Ge0 Lu2 2.919817 1_455
Ge0 Lu0 3.213485 1_555
Ge1 Os3 2.656577 1_555
Ge1 Os0 2.656577 1_555
Ge1 Lu1 2.884714 1_655
Ge1 Lu1 2.884715 1_545
Ge1 Lu3 2.919817 1_545
Ge1 Lu4 2.919817 1_545
Ge1 Lu3 2.919817 1_655
Ge1 Lu4 2.919817 1_655
Ge1 Lu1 3.213485 1_555
Os0 Si2 2.367511 1_655
Os0 Si2 2.367512 1_545
Os0 Si3 2.439149 1_555
Os1 Si3 2.367511 1_455
Os1 Si3 2.367512 1_565
Os1 Si2 2.439149 1_555
Os2 Si0 2.367511 1_455
Os2 Si0 2.367512 1_565
Os2 Si1 2.439149 1_554
Os3 Si1 2.367511 1_655
Os3 Si1 2.367512 1_545
Os3 Si0 2.439149 1_556
