# generated using pymatgen
data_Ta2MnO6
_symmetry_space_group_name_H-M   'P 1'
_cell_length_a   4.73144776
_cell_length_b   5.14386992
_cell_length_c   17.21707289
_cell_angle_alpha   90.00000000
_cell_angle_beta   90.00000000
_cell_angle_gamma   90.00000000
_symmetry_Int_Tables_number   1
_chemical_formula_structural   Ta2MnO6
_chemical_formula_sum   'Ta8 Mn4 O24'
_cell_volume   419.02829032
_cell_formula_units_Z   4
loop_
 _symmetry_equiv_pos_site_id
 _symmetry_equiv_pos_as_xyz
  1  'x, y, z'
loop_
 _atom_site_type_symbol
 _atom_site_label
 _atom_site_symmetry_multiplicity
 _atom_site_fract_x
 _atom_site_fract_y
 _atom_site_fract_z
 _atom_site_occupancy
  Ta  Ta0  1  -0.00000000  0.25000000  0.21906423  1
  Ta  Ta1  1  -0.00000000  0.25000000  0.55411068  1
  Ta  Ta2  1  0.50000000  0.75000000  0.28093577  1
  Ta  Ta3  1  0.50000000  0.75000000  0.94588932  1
  Ta  Ta4  1  0.50000000  0.25000000  0.05411068  1
  Ta  Ta5  1  0.50000000  0.25000000  0.71906423  1
  Ta  Ta6  1  -0.00000000  0.75000000  0.44588932  1
  Ta  Ta7  1  -0.00000000  0.75000000  0.78093577  1
  Mn  Mn0  1  -0.00000000  0.25000000  0.89288289  1
  Mn  Mn1  1  0.50000000  0.75000000  0.60711711  1
  Mn  Mn2  1  0.50000000  0.25000000  0.39288289  1
  Mn  Mn3  1  -0.00000000  0.75000000  0.10711711  1
  O  O0  1  0.23252305  0.10809426  0.12900720  1
  O  O1  1  0.21787840  0.06972398  0.46515683  1
  O  O2  1  0.23708533  0.07333373  0.78811438  1
  O  O3  1  0.26291467  0.07333373  0.28811438  1
  O  O4  1  0.26747695  0.10809426  0.62900720  1
  O  O5  1  0.28212160  0.06972398  0.96515683  1
  O  O6  1  0.23708533  0.57333373  0.21188562  1
  O  O7  1  0.21787840  0.56972398  0.53484317  1
  O  O8  1  0.23252305  0.60809426  0.87099280  1
  O  O9  1  0.28212160  0.56972398  0.03484317  1
  O  O10  1  0.26747695  0.60809426  0.37099280  1
  O  O11  1  0.26291467  0.57333373  0.71188562  1
  O  O12  1  0.73708533  0.42666627  0.28811438  1
  O  O13  1  0.73252305  0.39190574  0.62900720  1
  O  O14  1  0.71787840  0.43027602  0.96515683  1
  O  O15  1  0.76747695  0.39190574  0.12900720  1
  O  O16  1  0.78212160  0.43027602  0.46515683  1
  O  O17  1  0.76291467  0.42666627  0.78811438  1
  O  O18  1  0.71787840  0.93027602  0.03484317  1
  O  O19  1  0.73252305  0.89190574  0.37099280  1
  O  O20  1  0.73708533  0.92666627  0.71188562  1
  O  O21  1  0.76291467  0.92666627  0.21188562  1
  O  O22  1  0.78212160  0.93027602  0.53484317  1
  O  O23  1  0.76747695  0.89190574  0.87099280  1
loop_
_geom_bond_atom_site_label_1
_geom_bond_atom_site_label_2
_geom_bond_distance
_geom_bond_site_symmetry_2
Mn0 O5 2.046978 1_555
Mn0 O14 2.046978 1_455
Mn0 O8 2.178381 1_555
Mn0 O23 2.178381 1_445
Mn0 O17 2.310386 1_455
Mn0 O2 2.310386 1_555
Mn1 O22 2.046978 1_555
Mn1 O7 2.046978 1_555
Mn1 O13 2.178381 1_555
Mn1 O4 2.178381 1_565
Mn1 O11 2.310386 1_555
Mn1 O20 2.310386 1_555
Mn2 O16 2.046978 1_555
Mn2 O1 2.046978 1_555
Mn2 O19 2.178381 1_545
Mn2 O10 2.178381 1_555
Mn2 O3 2.310386 1_555
Mn2 O12 2.310386 1_555
Mn3 O9 2.046978 1_555
Mn3 O18 2.046978 1_455
Mn3 O15 2.178381 1_455
Mn3 O0 2.178381 1_565
Mn3 O21 2.310386 1_455
Mn3 O6 2.310386 1_555
O0 Ta4 1.948654 1_555
O0 Ta0 2.036493 1_555
O1 Ta6 1.969144 1_545
O1 Ta1 2.065962 1_555
O2 Ta5 1.945924 1_555
O2 Ta7 2.009926 1_545
O3 Ta0 1.945924 1_555
O3 Ta2 2.009926 1_545
O4 Ta1 1.948654 1_555
O4 Ta5 2.036493 1_555
O5 Ta3 1.969144 1_545
O5 Ta4 2.065962 1_556
O6 Ta2 1.945924 1_555
O6 Ta0 2.009926 1_555
O7 Ta1 1.969144 1_555
O7 Ta6 2.065962 1_555
O8 Ta3 1.948654 1_555
O8 Ta7 2.036493 1_555
O9 Ta4 1.969144 1_555
O9 Ta3 2.065962 1_554
O10 Ta6 1.948654 1_555
O10 Ta2 2.036493 1_555
O11 Ta7 1.945924 1_555
O11 Ta5 2.009926 1_555
O12 Ta0 1.945924 1_655
O12 Ta2 2.009926 1_555
O13 Ta1 1.948654 1_655
O13 Ta5 2.036493 1_555
O14 Ta3 1.969144 1_555
O14 Ta4 2.065962 1_556
O15 Ta4 1.948654 1_555
O15 Ta0 2.036493 1_655
O16 Ta6 1.969144 1_655
O16 Ta1 2.065962 1_655
O17 Ta5 1.945924 1_555
O17 Ta7 2.009926 1_655
O18 Ta4 1.969144 1_565
O18 Ta3 2.065962 1_554
O19 Ta6 1.948654 1_655
O19 Ta2 2.036493 1_555
O20 Ta7 1.945924 1_655
O20 Ta5 2.009926 1_565
O21 Ta2 1.945924 1_555
O21 Ta0 2.009926 1_665
O22 Ta1 1.969144 1_665
O22 Ta6 2.065962 1_655
O23 Ta3 1.948654 1_555
O23 Ta7 2.036493 1_655
