# generated using pymatgen
data_Ca7Cd2SnN2
_symmetry_space_group_name_H-M   'P 1'
_cell_length_a   12.53866069
_cell_length_b   12.53866092
_cell_length_c   4.90352370
_cell_angle_alpha   90.00000000
_cell_angle_beta   90.00000000
_cell_angle_gamma   157.37458611
_symmetry_Int_Tables_number   1
_chemical_formula_structural   Ca7Cd2SnN2
_chemical_formula_sum   'Ca7 Cd2 Sn1 N2'
_cell_volume   296.57747952
_cell_formula_units_Z   1
loop_
 _symmetry_equiv_pos_site_id
 _symmetry_equiv_pos_as_xyz
  1  'x, y, z'
loop_
 _atom_site_type_symbol
 _atom_site_label
 _atom_site_symmetry_multiplicity
 _atom_site_fract_x
 _atom_site_fract_y
 _atom_site_fract_z
 _atom_site_occupancy
  Ca  Ca0  1  0.90561978  0.09437922  0.00000000  1
  Ca  Ca1  1  0.69407298  0.30592602  0.00000000  1
  Ca  Ca2  1  0.50000000  0.50000000  0.00000000  1
  Ca  Ca3  1  0.30592602  0.69407298  0.00000000  1
  Ca  Ca4  1  0.09437922  0.90561978  0.00000000  1
  Ca  Ca5  1  0.59453019  0.40546981  0.50000100  1
  Ca  Ca6  1  0.40546981  0.59453019  0.50000100  1
  Cd  Cd0  1  0.78714007  0.21285893  0.50000100  1
  Cd  Cd1  1  0.21285893  0.78714007  0.50000100  1
  Sn  Sn0  1  0.00000000  0.00000000  0.50000100  1
  N  N0  1  0.60135553  0.39864347  0.00000000  1
  N  N1  1  0.39864347  0.60135553  0.00000000  1
loop_
_geom_bond_atom_site_label_1
_geom_bond_atom_site_label_2
_geom_bond_distance
_geom_bond_site_symmetry_2
Ca0 N1 2.465604 1_545
Ca0 N1 2.465604 1_655
Ca0 Sn0 3.375982 1_654
Ca0 Sn0 3.375989 1_655
Ca0 Cd0 3.807778 1_554
Ca0 Cd0 3.807784 1_555
Ca1 N0 2.279931 1_555
Ca1 Cd0 3.353875 1_554
Ca1 Cd0 3.353882 1_555
Ca1 Cd1 3.503467 1_654
Ca1 Cd1 3.503467 1_544
Ca1 Cd1 3.503474 1_655
Ca1 Cd1 3.503474 1_545
Ca2 N1 2.492355 1_555
Ca2 N0 2.492355 1_555
Ca2 Sn0 3.472879 1_554
Ca2 Sn0 3.472879 1_664
Ca2 Sn0 3.472886 1_665
Ca2 Sn0 3.472886 1_555
Ca3 N1 2.279931 1_555
Ca3 Cd1 3.353875 1_554
Ca3 Cd1 3.353882 1_555
Ca3 Cd0 3.503467 1_454
Ca3 Cd0 3.503467 1_564
Ca3 Cd0 3.503474 1_455
Ca3 Cd0 3.503474 1_565
Ca4 N0 2.465604 1_565
Ca4 N0 2.465604 1_455
Ca4 Sn0 3.375982 1_564
Ca4 Sn0 3.375989 1_565
Ca4 Cd1 3.807778 1_554
Ca4 Cd1 3.807784 1_555
Ca5 N0 2.457496 1_556
Ca5 N0 2.457505 1_555
Ca5 Sn0 3.384244 1_555
Ca5 Sn0 3.384244 1_665
Ca5 Cd1 3.810023 1_655
Ca5 Cd1 3.810027 1_545
Ca6 N1 2.457496 1_556
Ca6 N1 2.457505 1_555
Ca6 Sn0 3.384244 1_665
Ca6 Sn0 3.384244 1_555
Ca6 Cd0 3.810024 1_565
Ca6 Cd0 3.810027 1_455
Cd0 Cd1 3.063686 1_545
Cd0 Cd1 3.063686 1_655
