# generated using pymatgen
data_CsCaGaF6
_symmetry_space_group_name_H-M   'P 1'
_cell_length_a   7.75053556
_cell_length_b   7.43038812
_cell_length_c   10.24751698
_cell_angle_alpha   90.00000000
_cell_angle_beta   90.00000000
_cell_angle_gamma   90.00000000
_symmetry_Int_Tables_number   1
_chemical_formula_structural   CsCaGaF6
_chemical_formula_sum   'Cs4 Ca4 Ga4 F24'
_cell_volume   590.14924962
_cell_formula_units_Z   4
loop_
 _symmetry_equiv_pos_site_id
 _symmetry_equiv_pos_as_xyz
  1  'x, y, z'
loop_
 _atom_site_type_symbol
 _atom_site_label
 _atom_site_symmetry_multiplicity
 _atom_site_fract_x
 _atom_site_fract_y
 _atom_site_fract_z
 _atom_site_occupancy
  Cs  Cs0  1  0.03330821  0.25000000  0.62838075  1
  Cs  Cs1  1  0.96669179  0.75000000  0.37161925  1
  Cs  Cs2  1  0.46669179  0.75000000  0.12838075  1
  Cs  Cs3  1  0.53330821  0.25000000  0.87161925  1
  Ca  Ca0  1  0.20352240  0.25000000  0.24642133  1
  Ca  Ca1  1  0.79647760  0.75000000  0.75357867  1
  Ca  Ca2  1  0.29647760  0.75000000  0.74642133  1
  Ca  Ca3  1  0.70352240  0.25000000  0.25357867  1
  Ga  Ga0  1  0.00000000  0.00000000  0.00000000  1
  Ga  Ga1  1  0.50000000  0.00000000  0.50000000  1
  Ga  Ga2  1  0.00000000  0.50000000  0.00000000  1
  Ga  Ga3  1  0.50000000  0.50000000  0.50000000  1
  F  F0  1  0.30106141  0.05183831  0.40233761  1
  F  F1  1  0.69893859  0.94816169  0.59766239  1
  F  F2  1  0.19893859  0.94816169  0.90233761  1
  F  F3  1  0.69893859  0.55183831  0.59766239  1
  F  F4  1  0.80106141  0.05183831  0.09766239  1
  F  F5  1  0.30106141  0.44816169  0.40233761  1
  F  F6  1  0.80106141  0.44816169  0.09766239  1
  F  F7  1  0.19893859  0.55183831  0.90233761  1
  F  F8  1  0.57381959  0.25000000  0.49063008  1
  F  F9  1  0.42618041  0.75000000  0.50936992  1
  F  F10  1  0.92618041  0.75000000  0.99063008  1
  F  F11  1  0.07381959  0.25000000  0.00936992  1
  F  F12  1  0.12670180  0.52809384  0.15544451  1
  F  F13  1  0.87329820  0.47190616  0.84455549  1
  F  F14  1  0.37329820  0.47190616  0.65544451  1
  F  F15  1  0.87329820  0.02809384  0.84455549  1
  F  F16  1  0.62670180  0.52809384  0.34455549  1
  F  F17  1  0.12670180  0.97190616  0.15544451  1
  F  F18  1  0.62670180  0.97190616  0.34455549  1
  F  F19  1  0.37329820  0.02809384  0.65544451  1
  F  F20  1  0.45474182  0.25000000  0.14922175  1
  F  F21  1  0.54525818  0.75000000  0.85077825  1
  F  F22  1  0.04525818  0.75000000  0.64922175  1
  F  F23  1  0.95474182  0.25000000  0.35077825  1
loop_
_geom_bond_atom_site_label_1
_geom_bond_atom_site_label_2
_geom_bond_distance
_geom_bond_site_symmetry_2
Cs0 F23 2.909179 1_455
Cs0 F15 3.027220 1_455
Cs0 F13 3.027220 1_455
Cs0 F14 3.120800 1_555
Cs0 F19 3.120800 1_555
Cs1 F22 2.909179 1_655
Cs1 F12 3.027220 1_655
Cs1 F17 3.027220 1_655
Cs1 F18 3.120800 1_555
Cs1 F16 3.120800 1_555
Cs2 F21 2.909179 1_554
Cs2 F16 3.027220 1_555
Cs2 F18 3.027220 1_555
Cs2 F12 3.120800 1_555
Cs2 F17 3.120800 1_555
Cs3 F20 2.909179 1_556
Cs3 F19 3.027220 1_555
Cs3 F14 3.027220 1_555
Cs3 F15 3.120800 1_555
Cs3 F13 3.120800 1_555
Ca0 F20 2.187068 1_555
Ca0 F23 2.204882 1_455
Ca0 F5 2.300509 1_555
Ca0 F0 2.300509 1_555
Ca0 F17 2.343809 1_545
Ca0 F12 2.343809 1_555
Ca0 F11 2.628976 1_555
Ca1 F21 2.187068 1_555
Ca1 F22 2.204882 1_655
Ca1 F1 2.300509 1_555
Ca1 F3 2.300509 1_555
Ca1 F13 2.343809 1_555
Ca1 F15 2.343809 1_565
Ca1 F10 2.628976 1_555
Ca2 F22 2.187068 1_555
Ca2 F21 2.204882 1_555
Ca2 F2 2.300509 1_555
Ca2 F7 2.300509 1_555
Ca2 F14 2.343809 1_555
Ca2 F19 2.343809 1_565
Ca2 F9 2.628976 1_555
Ca3 F23 2.187068 1_555
Ca3 F20 2.204882 1_555
Ca3 F6 2.300509 1_555
Ca3 F4 2.300509 1_555
Ca3 F18 2.343809 1_545
Ca3 F16 2.343809 1_555
Ca3 F8 2.628976 1_555
F0 Ga1 1.878125 1_555
F1 Ga1 1.878125 1_565
F2 Ga0 1.878125 1_566
F3 Ga3 1.878125 1_555
F4 Ga0 1.878125 1_655
F5 Ga3 1.878125 1_555
F6 Ga2 1.878125 1_655
F7 Ga2 1.878125 1_556
F8 Ga1 1.946081 1_555
F8 Ga3 1.946081 1_555
F9 Ga1 1.946081 1_565
F9 Ga3 1.946081 1_555
F10 Ga0 1.946081 1_666
F10 Ga2 1.946081 1_656
F11 Ga2 1.946081 1_555
F11 Ga0 1.946081 1_555
F12 Ga2 1.882899 1_555
F13 Ga2 1.882899 1_656
F14 Ga3 1.882899 1_555
F15 Ga0 1.882899 1_656
F16 Ga3 1.882899 1_555
F17 Ga0 1.882899 1_565
F18 Ga1 1.882899 1_565
F19 Ga1 1.882899 1_555
