# generated using pymatgen
data_Hf16TcNi4Mo3
_symmetry_space_group_name_H-M   'P 1'
_cell_length_a   8.63900448
_cell_length_b   8.63900422
_cell_length_c   8.63900516
_cell_angle_alpha   59.99968375
_cell_angle_beta   59.99967835
_cell_angle_gamma   59.99968121
_symmetry_Int_Tables_number   1
_chemical_formula_structural   Hf16TcNi4Mo3
_chemical_formula_sum   'Hf16 Tc1 Ni4 Mo3'
_cell_volume   455.90355754
_cell_formula_units_Z   1
loop_
 _symmetry_equiv_pos_site_id
 _symmetry_equiv_pos_as_xyz
  1  'x, y, z'
loop_
 _atom_site_type_symbol
 _atom_site_label
 _atom_site_symmetry_multiplicity
 _atom_site_fract_x
 _atom_site_fract_y
 _atom_site_fract_z
 _atom_site_occupancy
  Hf  Hf0  1  0.69474338  0.10185071  0.10185071  1
  Hf  Hf1  1  0.10185071  0.69474338  0.10185071  1
  Hf  Hf2  1  0.10185071  0.10185071  0.69474338  1
  Hf  Hf3  1  0.10192334  0.10192334  0.10192334  1
  Hf  Hf4  1  0.31481781  0.31481781  0.68402511  1
  Hf  Hf5  1  0.68506509  0.68506509  0.31490431  1
  Hf  Hf6  1  0.31481781  0.68402511  0.31481781  1
  Hf  Hf7  1  0.68506509  0.31490431  0.68506509  1
  Hf  Hf8  1  0.68402511  0.31481781  0.31481781  1
  Hf  Hf9  1  0.31490431  0.68506509  0.68506509  1
  Hf  Hf10  1  0.95197781  0.95197781  0.54790790  1
  Hf  Hf11  1  0.54748883  0.54748883  0.95240611  1
  Hf  Hf12  1  0.95197781  0.54790790  0.95197781  1
  Hf  Hf13  1  0.54748883  0.95240611  0.54748883  1
  Hf  Hf14  1  0.54790790  0.95197781  0.95197781  1
  Hf  Hf15  1  0.95240611  0.54748883  0.54748883  1
  Tc  Tc0  1  0.33421412  0.33421412  0.33421412  1
  Ni  Ni0  1  0.32570033  0.89118842  0.89118842  1
  Ni  Ni1  1  0.89118842  0.32570033  0.89118842  1
  Ni  Ni2  1  0.89118842  0.89118842  0.32570033  1
  Ni  Ni3  1  0.89138476  0.89138476  0.89138476  1
  Mo  Mo0  1  0.00316069  0.33242380  0.33242380  1
  Mo  Mo1  1  0.33242380  0.00316069  0.33242380  1
  Mo  Mo2  1  0.33242380  0.33242380  0.00316069  1
loop_
_geom_bond_atom_site_label_1
_geom_bond_atom_site_label_2
_geom_bond_distance
_geom_bond_site_symmetry_2
Hf0 Ni1 2.570178 1_554
Hf0 Ni2 2.570179 1_545
Hf0 Ni3 2.574113 1_544
Hf0 Mo1 3.037681 1_555
Hf0 Mo2 3.037681 1_555
Hf0 Tc0 3.047143 1_555
Hf1 Ni0 2.570178 1_554
Hf1 Ni2 2.570178 1_455
Hf1 Ni3 2.574113 1_454
Hf1 Mo2 3.037681 1_555
Hf1 Mo0 3.037681 1_555
Hf1 Tc0 3.047144 1_555
Hf2 Ni1 2.570178 1_455
Hf2 Ni0 2.570179 1_545
Hf2 Ni3 2.574113 1_445
Hf2 Mo1 3.037681 1_555
Hf2 Mo0 3.037681 1_555
Hf2 Tc0 3.047144 1_555
Hf3 Ni0 2.577089 1_544
Hf3 Ni2 2.577089 1_445
Hf3 Ni1 2.577090 1_454
Hf3 Mo2 3.037392 1_555
Hf3 Mo0 3.037392 1_555
Hf3 Mo1 3.037392 1_555
Hf4 Tc0 2.864272 1_555
Hf4 Mo2 2.917055 1_556
Hf5 Mo1 2.904912 1_565
Hf5 Mo0 2.904912 1_655
Hf6 Tc0 2.864272 1_555
Hf6 Mo1 2.917055 1_565
Hf7 Mo2 2.904912 1_556
Hf7 Mo0 2.904912 1_655
Hf8 Tc0 2.864272 1_555
Hf8 Mo0 2.917055 1_655
Hf9 Mo2 2.904912 1_556
Hf9 Mo1 2.904912 1_565
Hf10 Ni3 2.553494 1_555
Hf10 Ni2 2.555135 1_555
Hf10 Mo1 2.995813 1_665
Hf10 Mo0 2.995813 1_665
Hf11 Ni1 2.553620 1_555
Hf11 Ni0 2.553620 1_555
Hf11 Tc0 2.984830 1_556
Hf11 Mo2 2.986449 1_556
Hf12 Ni3 2.553493 1_555
Hf12 Ni1 2.555135 1_555
Hf12 Mo2 2.995813 1_656
Hf12 Mo0 2.995813 1_656
Hf13 Ni2 2.553620 1_555
Hf13 Ni0 2.553620 1_555
Hf13 Tc0 2.984830 1_565
Hf13 Mo1 2.986449 1_565
Hf14 Ni3 2.553493 1_555
Hf14 Ni0 2.555135 1_555
Hf14 Mo2 2.995813 1_566
Hf14 Mo1 2.995813 1_566
Hf15 Ni2 2.553620 1_555
Hf15 Ni1 2.553621 1_555
Hf15 Tc0 2.984830 1_655
Hf15 Mo0 2.986449 1_655
Mo0 Mo1 2.844492 1_555
Mo0 Mo2 2.844492 1_555
Mo0 Tc0 2.875522 1_555
Mo1 Mo2 2.844492 1_555
Mo1 Tc0 2.875522 1_555
Mo2 Tc0 2.875522 1_555
