# generated using pymatgen
data_Sc2Ni2Sn
_symmetry_space_group_name_H-M   'P 1'
_cell_length_a   6.78210516
_cell_length_b   14.12195276
_cell_length_c   14.12195276
_cell_angle_alpha   90.00000000
_cell_angle_beta   90.00000000
_cell_angle_gamma   90.00000000
_symmetry_Int_Tables_number   1
_chemical_formula_structural   Sc2Ni2Sn
_chemical_formula_sum   'Sc32 Ni32 Sn16'
_cell_volume   1352.55217845
_cell_formula_units_Z   16
loop_
 _symmetry_equiv_pos_site_id
 _symmetry_equiv_pos_as_xyz
  1  'x, y, z'
loop_
 _atom_site_type_symbol
 _atom_site_label
 _atom_site_symmetry_multiplicity
 _atom_site_fract_x
 _atom_site_fract_y
 _atom_site_fract_z
 _atom_site_occupancy
  Sc  Sc0_0  1  0.25000000  0.08543982  0.33543983  1
  Sc  Sc0_1  1  0.25000000  0.08543982  0.83543983  1
  Sc  Sc0_2  1  0.25000000  0.58543983  0.33543983  1
  Sc  Sc0_3  1  0.25000000  0.58543983  0.83543983  1
  Sc  Sc0_4  1  0.75000000  0.08543982  0.33543983  1
  Sc  Sc0_5  1  0.75000000  0.08543982  0.83543983  1
  Sc  Sc0_6  1  0.75000000  0.58543983  0.33543983  1
  Sc  Sc0_7  1  0.75000000  0.58543983  0.83543983  1
  Sc  Sc1_0  1  0.25000000  0.16456018  0.08543982  1
  Sc  Sc1_1  1  0.25000000  0.16456018  0.58543983  1
  Sc  Sc1_2  1  0.25000000  0.66456017  0.08543982  1
  Sc  Sc1_3  1  0.25000000  0.66456017  0.58543983  1
  Sc  Sc1_4  1  0.75000000  0.16456018  0.08543982  1
  Sc  Sc1_5  1  0.75000000  0.16456018  0.58543983  1
  Sc  Sc1_6  1  0.75000000  0.66456017  0.08543982  1
  Sc  Sc1_7  1  0.75000000  0.66456017  0.58543983  1
  Sc  Sc2_0  1  0.25000000  0.33543983  0.41456018  1
  Sc  Sc2_1  1  0.25000000  0.33543983  0.91456017  1
  Sc  Sc2_2  1  0.25000000  0.83543983  0.41456018  1
  Sc  Sc2_3  1  0.25000000  0.83543983  0.91456017  1
  Sc  Sc2_4  1  0.75000000  0.33543983  0.41456018  1
  Sc  Sc2_5  1  0.75000000  0.33543983  0.91456017  1
  Sc  Sc2_6  1  0.75000000  0.83543983  0.41456018  1
  Sc  Sc2_7  1  0.75000000  0.83543983  0.91456017  1
  Sc  Sc3_0  1  0.25000000  0.41456018  0.16456018  1
  Sc  Sc3_1  1  0.25000000  0.41456018  0.66456017  1
  Sc  Sc3_2  1  0.25000000  0.91456017  0.16456018  1
  Sc  Sc3_3  1  0.25000000  0.91456017  0.66456017  1
  Sc  Sc3_4  1  0.75000000  0.41456018  0.16456018  1
  Sc  Sc3_5  1  0.75000000  0.41456018  0.66456017  1
  Sc  Sc3_6  1  0.75000000  0.91456017  0.16456018  1
  Sc  Sc3_7  1  0.75000000  0.91456017  0.66456017  1
  Ni  Ni0_0  1  0.00000000  0.18874025  0.43874025  1
  Ni  Ni0_1  1  0.00000000  0.18874025  0.93874025  1
  Ni  Ni0_2  1  0.00000000  0.68874024  0.43874025  1
  Ni  Ni0_3  1  0.00000000  0.68874024  0.93874025  1
  Ni  Ni0_4  1  0.50000000  0.18874025  0.43874025  1
  Ni  Ni0_5  1  0.50000000  0.18874025  0.93874025  1
  Ni  Ni0_6  1  0.50000000  0.68874024  0.43874025  1
  Ni  Ni0_7  1  0.50000000  0.68874024  0.93874025  1
  Ni  Ni1_0  1  0.00000000  0.06125975  0.18874025  1
  Ni  Ni1_1  1  0.00000000  0.06125975  0.68874024  1
  Ni  Ni1_2  1  0.00000000  0.56125976  0.18874025  1
  Ni  Ni1_3  1  0.00000000  0.56125976  0.68874024  1
  Ni  Ni1_4  1  0.50000000  0.06125975  0.18874025  1
  Ni  Ni1_5  1  0.50000000  0.06125975  0.68874024  1
  Ni  Ni1_6  1  0.50000000  0.56125976  0.18874025  1
  Ni  Ni1_7  1  0.50000000  0.56125976  0.68874024  1
  Ni  Ni2_0  1  0.00000000  0.43874025  0.31125976  1
  Ni  Ni2_1  1  0.00000000  0.43874025  0.81125976  1
  Ni  Ni2_2  1  0.00000000  0.93874025  0.31125976  1
  Ni  Ni2_3  1  0.00000000  0.93874025  0.81125976  1
  Ni  Ni2_4  1  0.50000000  0.43874025  0.31125976  1
  Ni  Ni2_5  1  0.50000000  0.43874025  0.81125976  1
  Ni  Ni2_6  1  0.50000000  0.93874025  0.31125976  1
  Ni  Ni2_7  1  0.50000000  0.93874025  0.81125976  1
  Ni  Ni3_0  1  0.00000000  0.31125976  0.06125975  1
  Ni  Ni3_1  1  0.00000000  0.31125976  0.56125976  1
  Ni  Ni3_2  1  0.00000000  0.81125976  0.06125975  1
  Ni  Ni3_3  1  0.00000000  0.81125976  0.56125976  1
  Ni  Ni3_4  1  0.50000000  0.31125976  0.06125975  1
  Ni  Ni3_5  1  0.50000000  0.31125976  0.56125976  1
  Ni  Ni3_6  1  0.50000000  0.81125976  0.06125975  1
  Ni  Ni3_7  1  0.50000000  0.81125976  0.56125976  1
  Sn  Sn0_0  1  0.00000000  0.00000000  0.00000000  1
  Sn  Sn0_1  1  0.00000000  0.00000000  0.50000000  1
  Sn  Sn0_2  1  0.00000000  0.50000000  0.00000000  1
  Sn  Sn0_3  1  0.00000000  0.50000000  0.50000000  1
  Sn  Sn0_4  1  0.50000000  0.00000000  0.00000000  1
  Sn  Sn0_5  1  0.50000000  0.00000000  0.50000000  1
  Sn  Sn0_6  1  0.50000000  0.50000000  0.00000000  1
  Sn  Sn0_7  1  0.50000000  0.50000000  0.50000000  1
  Sn  Sn1_0  1  0.00000000  0.25000000  0.25000000  1
  Sn  Sn1_1  1  0.00000000  0.25000000  0.75000000  1
  Sn  Sn1_2  1  0.00000000  0.75000000  0.25000000  1
  Sn  Sn1_3  1  0.00000000  0.75000000  0.75000000  1
  Sn  Sn1_4  1  0.50000000  0.25000000  0.25000000  1
  Sn  Sn1_5  1  0.50000000  0.25000000  0.75000000  1
  Sn  Sn1_6  1  0.50000000  0.75000000  0.25000000  1
  Sn  Sn1_7  1  0.50000000  0.75000000  0.75000000  1
loop_
_geom_bond_atom_site_label_1
_geom_bond_atom_site_label_2
_geom_bond_distance
_geom_bond_site_symmetry_2
Sc0_0 Sn0_5 3.119487 1_555
Sc0_0 Sn0_1 3.119487 1_555
Sc0_0 Sn1_0 3.119487 1_555
Sc0_0 Sn1_4 3.119487 1_555
Sc0_1 Sn0_0 3.119487 1_556
Sc0_1 Sn0_4 3.119487 1_556
Sc0_1 Sn1_1 3.119487 1_555
Sc0_1 Sn1_5 3.119487 1_555
Sc0_2 Sn0_7 3.119487 1_555
Sc0_2 Sn0_3 3.119487 1_555
Sc0_2 Sn1_2 3.119487 1_555
Sc0_2 Sn1_6 3.119487 1_555
Sc0_3 Sn1_7 3.119487 1_555
Sc0_3 Sn1_3 3.119487 1_555
Sc0_3 Sn0_6 3.119487 1_556
Sc0_3 Sn0_2 3.119487 1_556
Sc0_4 Sn0_5 3.119487 1_555
Sc0_4 Sn0_1 3.119487 1_655
Sc0_4 Sn1_0 3.119487 1_655
Sc0_4 Sn1_4 3.119487 1_555
Sc0_5 Sn0_4 3.119487 1_556
Sc0_5 Sn0_0 3.119487 1_656
Sc0_5 Sn1_5 3.119487 1_555
Sc0_5 Sn1_1 3.119487 1_655
Sc0_6 Sn0_3 3.119487 1_655
Sc0_6 Sn0_7 3.119487 1_555
Sc0_6 Sn1_2 3.119487 1_655
Sc0_6 Sn1_6 3.119487 1_555
Sc0_7 Sn1_7 3.119487 1_555
Sc0_7 Sn0_2 3.119487 1_656
Sc0_7 Sn1_3 3.119487 1_655
Sc0_7 Sn0_6 3.119487 1_556
Sc1_0 Sn0_0 3.119487 1_555
Sc1_0 Sn0_4 3.119487 1_555
Sc1_0 Sn1_0 3.119487 1_555
Sc1_0 Sn1_4 3.119487 1_555
Sc1_1 Sn1_1 3.119487 1_555
Sc1_1 Sn1_5 3.119487 1_555
Sc1_1 Sn0_1 3.119487 1_555
Sc1_1 Sn0_5 3.119487 1_555
Sc1_2 Sn0_2 3.119487 1_555
Sc1_2 Sn0_6 3.119487 1_555
Sc1_2 Sn1_2 3.119487 1_555
Sc1_2 Sn1_6 3.119487 1_555
Sc1_3 Sn1_3 3.119487 1_555
Sc1_3 Sn1_7 3.119487 1_555
Sc1_3 Sn0_3 3.119487 1_555
Sc1_3 Sn0_7 3.119487 1_555
Sc1_4 Sn0_0 3.119487 1_655
Sc1_4 Sn1_0 3.119487 1_655
Sc1_4 Sn0_4 3.119487 1_555
Sc1_4 Sn1_4 3.119487 1_555
Sc1_5 Sn1_1 3.119487 1_655
Sc1_5 Sn1_5 3.119487 1_555
Sc1_5 Sn0_1 3.119487 1_655
Sc1_5 Sn0_5 3.119487 1_555
Sc1_6 Sn0_2 3.119487 1_655
Sc1_6 Sn0_6 3.119487 1_555
Sc1_6 Sn1_2 3.119487 1_655
Sc1_6 Sn1_6 3.119487 1_555
Sc1_7 Sn0_3 3.119487 1_655
Sc1_7 Sn1_7 3.119487 1_555
Sc1_7 Sn1_3 3.119487 1_655
Sc1_7 Sn0_7 3.119487 1_555
Sc2_0 Sn0_7 3.119487 1_555
Sc2_0 Sn0_3 3.119487 1_555
Sc2_0 Sn1_0 3.119487 1_555
Sc2_0 Sn1_4 3.119487 1_555
Sc2_1 Sn1_1 3.119487 1_555
Sc2_1 Sn0_6 3.119487 1_556
Sc2_1 Sn1_5 3.119487 1_555
Sc2_1 Sn0_2 3.119487 1_556
Sc2_2 Sn0_1 3.119487 1_565
Sc2_2 Sn0_5 3.119487 1_565
Sc2_2 Sn1_2 3.119487 1_555
Sc2_2 Sn1_6 3.119487 1_555
Sc2_3 Sn0_0 3.119487 1_566
Sc2_3 Sn1_7 3.119487 1_555
Sc2_3 Sn1_3 3.119487 1_555
Sc2_3 Sn0_4 3.119487 1_566
Sc2_4 Sn0_7 3.119487 1_555
Sc2_4 Sn0_3 3.119487 1_655
Sc2_4 Sn1_4 3.119487 1_555
Sc2_4 Sn1_0 3.119487 1_655
Sc2_5 Sn0_2 3.119487 1_656
Sc2_5 Sn0_6 3.119487 1_556
Sc2_5 Sn1_5 3.119487 1_555
Sc2_5 Sn1_1 3.119487 1_655
Sc2_6 Sn0_1 3.119487 1_665
Sc2_6 Sn0_5 3.119487 1_565
Sc2_6 Sn1_2 3.119487 1_655
Sc2_6 Sn1_6 3.119487 1_555
Sc2_7 Sn1_7 3.119487 1_555
Sc2_7 Sn0_4 3.119487 1_566
Sc2_7 Sn1_3 3.119487 1_655
Sc2_7 Sn0_0 3.119487 1_666
Sc3_0 Sn1_0 3.119487 1_555
Sc3_0 Sn1_4 3.119487 1_555
Sc3_0 Sn0_2 3.119487 1_555
Sc3_0 Sn0_6 3.119487 1_555
Sc3_1 Sn0_7 3.119487 1_555
Sc3_1 Sn0_3 3.119487 1_555
Sc3_1 Sn1_1 3.119487 1_555
Sc3_1 Sn1_5 3.119487 1_555
Sc3_2 Sn1_2 3.119487 1_555
Sc3_2 Sn1_6 3.119487 1_555
Sc3_2 Sn0_4 3.119487 1_565
Sc3_2 Sn0_0 3.119487 1_565
Sc3_3 Sn0_1 3.119487 1_565
Sc3_3 Sn0_5 3.119487 1_565
Sc3_3 Sn1_7 3.119487 1_555
Sc3_3 Sn1_3 3.119487 1_555
Sc3_4 Sn0_6 3.119487 1_555
Sc3_4 Sn1_0 3.119487 1_655
Sc3_4 Sn0_2 3.119487 1_655
Sc3_4 Sn1_4 3.119487 1_555
Sc3_5 Sn0_7 3.119487 1_555
Sc3_5 Sn0_3 3.119487 1_655
Sc3_5 Sn1_5 3.119487 1_555
Sc3_5 Sn1_1 3.119487 1_655
Sc3_6 Sn1_2 3.119487 1_655
Sc3_6 Sn1_6 3.119487 1_555
Sc3_6 Sn0_4 3.119487 1_565
Sc3_6 Sn0_0 3.119487 1_665
Sc3_7 Sn0_5 3.119487 1_565
Sc3_7 Sn1_7 3.119487 1_555
Sc3_7 Sn0_1 3.119487 1_665
Sc3_7 Sn1_3 3.119487 1_655
Ni0_0 Ni3_1 2.446893 1_555
Ni0_0 Sc0_0 2.670398 1_555
Ni0_0 Sc0_4 2.670398 1_455
Ni0_0 Sc1_5 2.698757 1_455
Ni0_0 Sc1_1 2.698757 1_555
Ni0_0 Sc2_0 2.698757 1_555
Ni0_0 Sc2_4 2.698757 1_455
Ni0_0 Sn0_1 2.802261 1_555
Ni0_0 Sn1_0 2.802261 1_555
Ni0_1 Ni3_0 2.446893 1_556
Ni0_1 Sc0_5 2.670398 1_455
Ni0_1 Sc0_1 2.670398 1_555
Ni0_1 Sc1_0 2.698757 1_556
Ni0_1 Sc1_4 2.698757 1_456
Ni0_1 Sc2_5 2.698757 1_455
Ni0_1 Sc2_1 2.698757 1_555
Ni0_1 Sn0_0 2.802261 1_556
Ni0_1 Sn1_1 2.802261 1_555
Ni0_2 Ni3_3 2.446893 1_555
Ni0_2 Sc0_6 2.670398 1_455
Ni0_2 Sc0_2 2.670398 1_555
Ni0_2 Sc1_7 2.698757 1_455
Ni0_2 Sc1_3 2.698757 1_555
Ni0_2 Sc2_2 2.698757 1_555
Ni0_2 Sc2_6 2.698757 1_455
Ni0_2 Sn0_3 2.802261 1_555
Ni0_2 Sn1_2 2.802261 1_555
Ni0_3 Ni3_2 2.446893 1_556
Ni0_3 Sc0_7 2.670398 1_455
Ni0_3 Sc0_3 2.670398 1_555
Ni0_3 Sc1_2 2.698757 1_556
Ni0_3 Sc1_6 2.698757 1_456
Ni0_3 Sc2_7 2.698757 1_455
Ni0_3 Sc2_3 2.698757 1_555
Ni0_3 Sn0_2 2.802261 1_556
Ni0_3 Sn1_3 2.802261 1_555
Ni0_4 Ni3_5 2.446893 1_555
Ni0_4 Sc0_0 2.670398 1_555
Ni0_4 Sc0_4 2.670398 1_555
Ni0_4 Sc1_1 2.698757 1_555
Ni0_4 Sc1_5 2.698757 1_555
Ni0_4 Sc2_0 2.698757 1_555
Ni0_4 Sc2_4 2.698757 1_555
Ni0_4 Sn0_5 2.802261 1_555
Ni0_4 Sn1_4 2.802261 1_555
Ni0_5 Ni3_4 2.446893 1_556
Ni0_5 Sc0_5 2.670398 1_555
Ni0_5 Sc0_1 2.670398 1_555
Ni0_5 Sc1_0 2.698757 1_556
Ni0_5 Sc1_4 2.698757 1_556
Ni0_5 Sc2_5 2.698757 1_555
Ni0_5 Sc2_1 2.698757 1_555
Ni0_5 Sn0_4 2.802261 1_556
Ni0_5 Sn1_5 2.802261 1_555
Ni0_6 Ni3_7 2.446893 1_555
Ni0_6 Sc0_2 2.670398 1_555
Ni0_6 Sc0_6 2.670398 1_555
Ni0_6 Sc1_3 2.698757 1_555
Ni0_6 Sc1_7 2.698757 1_555
Ni0_6 Sc2_2 2.698757 1_555
Ni0_6 Sc2_6 2.698757 1_555
Ni0_6 Sn0_7 2.802261 1_555
Ni0_6 Sn1_6 2.802261 1_555
Ni0_7 Ni3_6 2.446893 1_556
Ni0_7 Sc0_7 2.670398 1_555
Ni0_7 Sc0_3 2.670398 1_555
Ni0_7 Sc1_2 2.698757 1_556
Ni0_7 Sc1_6 2.698757 1_556
Ni0_7 Sc2_7 2.698757 1_555
Ni0_7 Sc2_3 2.698757 1_555
Ni0_7 Sn0_6 2.802261 1_556
Ni0_7 Sn1_7 2.802261 1_555
Ni1_0 Ni2_2 2.446893 1_545
Ni1_0 Sc1_0 2.670398 1_555
Ni1_0 Sc1_4 2.670398 1_455
Ni1_0 Sc0_4 2.698757 1_455
Ni1_0 Sc3_2 2.698757 1_545
Ni1_0 Sc3_6 2.698757 1_445
Ni1_0 Sc0_0 2.698757 1_555
Ni1_0 Sn1_0 2.802261 1_555
Ni1_0 Sn0_0 2.802261 1_555
Ni1_1 Ni2_3 2.446893 1_545
Ni1_1 Sc1_1 2.670398 1_555
Ni1_1 Sc1_5 2.670398 1_455
Ni1_1 Sc0_1 2.698757 1_555
Ni1_1 Sc0_5 2.698757 1_455
Ni1_1 Sc3_7 2.698757 1_445
Ni1_1 Sc3_3 2.698757 1_545
Ni1_1 Sn0_1 2.802261 1_555
Ni1_1 Sn1_1 2.802261 1_555
Ni1_2 Ni2_0 2.446893 1_555
Ni1_2 Sc1_6 2.670398 1_455
Ni1_2 Sc1_2 2.670398 1_555
Ni1_2 Sc3_4 2.698757 1_455
Ni1_2 Sc3_0 2.698757 1_555
Ni1_2 Sc0_2 2.698757 1_555
Ni1_2 Sc0_6 2.698757 1_455
Ni1_2 Sn1_2 2.802261 1_555
Ni1_2 Sn0_2 2.802261 1_555
Ni1_3 Ni2_1 2.446893 1_555
Ni1_3 Sc1_7 2.670398 1_455
Ni1_3 Sc1_3 2.670398 1_555
Ni1_3 Sc3_1 2.698757 1_555
Ni1_3 Sc3_5 2.698757 1_455
Ni1_3 Sc0_3 2.698757 1_555
Ni1_3 Sc0_7 2.698757 1_455
Ni1_3 Sn1_3 2.802261 1_555
Ni1_3 Sn0_3 2.802261 1_555
Ni1_4 Ni2_6 2.446893 1_545
Ni1_4 Sc1_4 2.670398 1_555
Ni1_4 Sc1_0 2.670398 1_555
Ni1_4 Sc0_4 2.698757 1_555
Ni1_4 Sc3_2 2.698757 1_545
Ni1_4 Sc0_0 2.698757 1_555
Ni1_4 Sc3_6 2.698757 1_545
Ni1_4 Sn0_4 2.802261 1_555
Ni1_4 Sn1_4 2.802261 1_555
Ni1_5 Ni2_7 2.446893 1_545
Ni1_5 Sc1_1 2.670398 1_555
Ni1_5 Sc1_5 2.670398 1_555
Ni1_5 Sc3_7 2.698757 1_545
Ni1_5 Sc3_3 2.698757 1_545
Ni1_5 Sc0_1 2.698757 1_555
Ni1_5 Sc0_5 2.698757 1_555
Ni1_5 Sn0_5 2.802261 1_555
Ni1_5 Sn1_5 2.802261 1_555
Ni1_6 Ni2_4 2.446893 1_555
Ni1_6 Sc1_2 2.670398 1_555
Ni1_6 Sc1_6 2.670398 1_555
Ni1_6 Sc3_0 2.698757 1_555
Ni1_6 Sc3_4 2.698757 1_555
Ni1_6 Sc0_6 2.698757 1_555
Ni1_6 Sc0_2 2.698757 1_555
Ni1_6 Sn1_6 2.802261 1_555
Ni1_6 Sn0_6 2.802261 1_555
Ni1_7 Ni2_5 2.446893 1_555
Ni1_7 Sc1_3 2.670398 1_555
Ni1_7 Sc1_7 2.670398 1_555
Ni1_7 Sc3_1 2.698757 1_555
Ni1_7 Sc3_5 2.698757 1_555
Ni1_7 Sc0_3 2.698757 1_555
Ni1_7 Sc0_7 2.698757 1_555
Ni1_7 Sn1_7 2.802261 1_555
Ni1_7 Sn0_7 2.802261 1_555
Ni2_0 Sc2_4 2.670398 1_455
Ni2_0 Sc2_0 2.670398 1_555
Ni2_0 Sc0_6 2.698757 1_455
Ni2_0 Sc0_2 2.698757 1_555
Ni2_0 Sc3_4 2.698757 1_455
Ni2_0 Sc3_0 2.698757 1_555
Ni2_0 Sn0_3 2.802261 1_555
Ni2_0 Sn1_0 2.802261 1_555
Ni2_1 Sc2_1 2.670398 1_555
Ni2_1 Sc2_5 2.670398 1_455
Ni2_1 Sc0_3 2.698757 1_555
Ni2_1 Sc0_7 2.698757 1_455
Ni2_1 Sc3_1 2.698757 1_555
Ni2_1 Sc3_5 2.698757 1_455
Ni2_1 Sn0_2 2.802261 1_556
Ni2_1 Sn1_1 2.802261 1_555
Ni2_2 Sc2_2 2.670398 1_555
Ni2_2 Sc2_6 2.670398 1_455
Ni2_2 Sc0_0 2.698757 1_565
Ni2_2 Sc0_4 2.698757 1_465
Ni2_2 Sc3_2 2.698757 1_555
Ni2_2 Sc3_6 2.698757 1_455
Ni2_2 Sn0_1 2.802261 1_565
Ni2_2 Sn1_2 2.802261 1_555
Ni2_3 Sc2_3 2.670398 1_555
Ni2_3 Sc2_7 2.670398 1_455
Ni2_3 Sc0_5 2.698757 1_465
Ni2_3 Sc0_1 2.698757 1_565
Ni2_3 Sc3_7 2.698757 1_455
Ni2_3 Sc3_3 2.698757 1_555
Ni2_3 Sn0_0 2.802261 1_566
Ni2_3 Sn1_3 2.802261 1_555
Ni2_4 Sc2_0 2.670398 1_555
Ni2_4 Sc2_4 2.670398 1_555
Ni2_4 Sc0_2 2.698757 1_555
Ni2_4 Sc0_6 2.698757 1_555
Ni2_4 Sc3_4 2.698757 1_555
Ni2_4 Sc3_0 2.698757 1_555
Ni2_4 Sn0_7 2.802261 1_555
Ni2_4 Sn1_4 2.802261 1_555
Ni2_5 Sc2_1 2.670398 1_555
Ni2_5 Sc2_5 2.670398 1_555
Ni2_5 Sc0_3 2.698757 1_555
Ni2_5 Sc0_7 2.698757 1_555
Ni2_5 Sc3_5 2.698757 1_555
Ni2_5 Sc3_1 2.698757 1_555
Ni2_5 Sn0_6 2.802261 1_556
Ni2_5 Sn1_5 2.802261 1_555
Ni2_6 Sc2_2 2.670398 1_555
Ni2_6 Sc2_6 2.670398 1_555
Ni2_6 Sc0_0 2.698757 1_565
Ni2_6 Sc0_4 2.698757 1_565
Ni2_6 Sc3_6 2.698757 1_555
Ni2_6 Sc3_2 2.698757 1_555
Ni2_6 Sn0_5 2.802261 1_565
Ni2_6 Sn1_6 2.802261 1_555
Ni2_7 Sc2_3 2.670398 1_555
Ni2_7 Sc2_7 2.670398 1_555
Ni2_7 Sc0_1 2.698757 1_565
Ni2_7 Sc0_5 2.698757 1_565
Ni2_7 Sc3_7 2.698757 1_555
Ni2_7 Sc3_3 2.698757 1_555
Ni2_7 Sn0_4 2.802261 1_566
Ni2_7 Sn1_7 2.802261 1_555
Ni3_0 Sc3_0 2.670398 1_555
Ni3_0 Sc3_4 2.670398 1_455
Ni3_0 Sc2_1 2.698757 1_554
Ni3_0 Sc1_0 2.698757 1_555
Ni3_0 Sc1_4 2.698757 1_455
Ni3_0 Sc2_5 2.698757 1_454
Ni3_0 Sn0_2 2.802261 1_555
Ni3_0 Sn1_0 2.802261 1_555
Ni3_1 Sc3_1 2.670398 1_555
Ni3_1 Sc3_5 2.670398 1_455
Ni3_1 Sc2_4 2.698757 1_455
Ni3_1 Sc2_0 2.698757 1_555
Ni3_1 Sc1_1 2.698757 1_555
Ni3_1 Sc1_5 2.698757 1_455
Ni3_1 Sn0_3 2.802261 1_555
Ni3_1 Sn1_1 2.802261 1_555
Ni3_2 Sc3_6 2.670398 1_455
Ni3_2 Sc3_2 2.670398 1_555
Ni3_2 Sc1_6 2.698757 1_455
Ni3_2 Sc2_7 2.698757 1_454
Ni3_2 Sc1_2 2.698757 1_555
Ni3_2 Sc2_3 2.698757 1_554
Ni3_2 Sn0_0 2.802261 1_565
Ni3_2 Sn1_2 2.802261 1_555
Ni3_3 Sc3_3 2.670398 1_555
Ni3_3 Sc3_7 2.670398 1_455
Ni3_3 Sc2_2 2.698757 1_555
Ni3_3 Sc2_6 2.698757 1_455
Ni3_3 Sc1_3 2.698757 1_555
Ni3_3 Sc1_7 2.698757 1_455
Ni3_3 Sn1_3 2.802261 1_555
Ni3_3 Sn0_1 2.802261 1_565
Ni3_4 Sc3_0 2.670398 1_555
Ni3_4 Sc3_4 2.670398 1_555
Ni3_4 Sc2_1 2.698757 1_554
Ni3_4 Sc1_0 2.698757 1_555
Ni3_4 Sc2_5 2.698757 1_554
Ni3_4 Sc1_4 2.698757 1_555
Ni3_4 Sn0_6 2.802261 1_555
Ni3_4 Sn1_4 2.802261 1_555
Ni3_5 Sc3_1 2.670398 1_555
Ni3_5 Sc3_5 2.670398 1_555
Ni3_5 Sc2_4 2.698757 1_555
Ni3_5 Sc2_0 2.698757 1_555
Ni3_5 Sc1_5 2.698757 1_555
Ni3_5 Sc1_1 2.698757 1_555
Ni3_5 Sn1_5 2.802261 1_555
Ni3_5 Sn0_7 2.802261 1_555
Ni3_6 Sc3_6 2.670398 1_555
Ni3_6 Sc3_2 2.670398 1_555
Ni3_6 Sc1_6 2.698757 1_555
Ni3_6 Sc2_7 2.698757 1_554
Ni3_6 Sc1_2 2.698757 1_555
Ni3_6 Sc2_3 2.698757 1_554
Ni3_6 Sn0_4 2.802261 1_565
Ni3_6 Sn1_6 2.802261 1_555
Ni3_7 Sc3_3 2.670398 1_555
Ni3_7 Sc3_7 2.670398 1_555
Ni3_7 Sc2_2 2.698757 1_555
Ni3_7 Sc2_6 2.698757 1_555
Ni3_7 Sc1_7 2.698757 1_555
Ni3_7 Sc1_3 2.698757 1_555
Ni3_7 Sn0_5 2.802261 1_565
Ni3_7 Sn1_7 2.802261 1_555
Sn0_0 Sn0_4 3.391053 1_455
Sn0_0 Sn0_4 3.391053 1_555
Sn0_1 Sn0_5 3.391053 1_455
Sn0_1 Sn0_5 3.391053 1_555
Sn0_2 Sn0_6 3.391053 1_555
Sn0_2 Sn0_6 3.391053 1_455
Sn0_3 Sn0_7 3.391053 1_555
Sn0_3 Sn0_7 3.391053 1_455
Sn1_0 Sn1_4 3.391053 1_455
Sn1_0 Sn1_4 3.391053 1_555
Sn1_1 Sn1_5 3.391053 1_455
Sn1_1 Sn1_5 3.391053 1_555
Sn1_2 Sn1_6 3.391053 1_555
Sn1_2 Sn1_6 3.391053 1_455
Sn1_3 Sn1_7 3.391053 1_455
Sn1_3 Sn1_7 3.391053 1_555
