# generated using pymatgen
data_CsBaGaO3
_symmetry_space_group_name_H-M   'P 1'
_cell_length_a   6.72700065
_cell_length_b   6.72700969
_cell_length_c   13.02731062
_cell_angle_alpha   90.00000000
_cell_angle_beta   90.00000000
_cell_angle_gamma   128.25941485
_symmetry_Int_Tables_number   1
_chemical_formula_structural   CsBaGaO3
_chemical_formula_sum   'Cs4 Ba4 Ga4 O12'
_cell_volume   462.89979049
_cell_formula_units_Z   4
loop_
 _symmetry_equiv_pos_site_id
 _symmetry_equiv_pos_as_xyz
  1  'x, y, z'
loop_
 _atom_site_type_symbol
 _atom_site_label
 _atom_site_symmetry_multiplicity
 _atom_site_fract_x
 _atom_site_fract_y
 _atom_site_fract_z
 _atom_site_occupancy
  Cs  Cs0  1  0.46436921  0.53563134  0.64395409  1
  Cs  Cs1  1  0.53563079  0.46436866  0.35604591  1
  Cs  Cs2  1  0.03563079  0.96436866  0.14395409  1
  Cs  Cs3  1  0.96436921  0.03563134  0.85604591  1
  Ba  Ba0  1  0.64846321  0.35153442  0.92023440  1
  Ba  Ba1  1  0.85153679  0.14846558  0.42023440  1
  Ba  Ba2  1  0.14846321  0.85153442  0.57976560  1
  Ba  Ba3  1  0.35153679  0.64846558  0.07976560  1
  Ga  Ga0  1  0.22158388  0.77841697  0.33402991  1
  Ga  Ga1  1  0.72158388  0.27841697  0.16597009  1
  Ga  Ga2  1  0.77841612  0.22158303  0.66597009  1
  Ga  Ga3  1  0.27841612  0.72158303  0.83402991  1
  O  O0  1  0.98769204  0.51230728  0.74999987  1
  O  O1  1  0.51230796  0.98769272  0.24999987  1
  O  O2  1  0.01230796  0.48769272  0.25000013  1
  O  O3  1  0.48769204  0.01230728  0.75000013  1
  O  O4  1  0.42328755  0.57671318  0.87881845  1
  O  O5  1  0.57671245  0.42328682  0.12118155  1
  O  O6  1  0.07671245  0.92328682  0.37881845  1
  O  O7  1  0.68540830  0.31459095  0.55382566  1
  O  O8  1  0.18540830  0.81459095  0.94617434  1
  O  O9  1  0.81459170  0.18540905  0.05382566  1
  O  O10  1  0.31459170  0.68540905  0.44617434  1
  O  O11  1  0.92328755  0.07671318  0.62118155  1
loop_
_geom_bond_atom_site_label_1
_geom_bond_atom_site_label_2
_geom_bond_distance
_geom_bond_site_symmetry_2
Cs0 O7 2.922108 1_555
Cs0 O11 2.991807 1_455
Cs0 O11 2.991809 1_565
Cs0 O4 3.099806 1_555
Cs0 O10 3.150573 1_555
Cs1 O10 2.922108 1_555
Cs1 O6 2.991807 1_655
Cs1 O6 2.991809 1_545
Cs1 O5 3.099806 1_555
Cs1 O7 3.150573 1_555
Cs2 O9 2.922108 1_465
Cs2 O5 2.991807 1_565
Cs2 O5 2.991809 1_455
Cs2 O6 3.099806 1_555
Cs2 O8 3.150573 1_554
Cs3 O8 2.922108 1_645
Cs3 O4 2.991807 1_545
Cs3 O4 2.991809 1_655
Cs3 O11 3.099806 1_555
Cs3 O9 3.150573 1_556
Ba0 O9 2.659553 1_556
Ba0 O5 2.758143 1_556
Ba0 O4 2.778811 1_555
Ba0 O3 2.870334 1_555
Ba0 O0 2.870340 1_555
Ba0 O8 2.988272 1_545
Ba0 O8 2.988279 1_655
Ba1 O7 2.659553 1_555
Ba1 O11 2.758143 1_555
Ba1 O6 2.778811 1_645
Ba1 O2 2.870334 1_655
Ba1 O1 2.870340 1_545
Ba1 O10 2.988272 1_655
Ba1 O10 2.988279 1_545
Ba2 O10 2.659553 1_555
Ba2 O6 2.758143 1_555
Ba2 O11 2.778811 1_465
Ba2 O0 2.870334 1_455
Ba2 O3 2.870340 1_565
Ba2 O7 2.988272 1_455
Ba2 O7 2.988279 1_565
Ba3 O8 2.659553 1_554
Ba3 O4 2.758143 1_554
Ba3 O5 2.778811 1_555
Ba3 O1 2.870334 1_555
Ba3 O2 2.870340 1_555
Ba3 O9 2.988272 1_565
Ba3 O9 2.988279 1_455
Ga0 O10 1.844466 1_555
Ga0 O6 1.848275 1_555
Ga0 O1 1.896120 1_555
Ga0 O2 1.896120 1_555
Ga1 O9 1.844466 1_555
Ga1 O5 1.848275 1_555
Ga1 O2 1.896120 1_655
Ga1 O1 1.896120 1_545
Ga2 O7 1.844466 1_555
Ga2 O11 1.848275 1_555
Ga2 O3 1.896120 1_555
Ga2 O0 1.896120 1_555
Ga3 O8 1.844466 1_555
Ga3 O4 1.848275 1_555
Ga3 O0 1.896120 1_455
Ga3 O3 1.896120 1_565
