# generated using pymatgen
data_NaLuSnBr6
_symmetry_space_group_name_H-M   'P 1'
_cell_length_a   7.71832458
_cell_length_b   7.71818118
_cell_length_c   7.71758654
_cell_angle_alpha   56.60783114
_cell_angle_beta   56.61324631
_cell_angle_gamma   56.60815728
_symmetry_Int_Tables_number   1
_chemical_formula_structural   NaLuSnBr6
_chemical_formula_sum   'Na1 Lu1 Sn1 Br6'
_cell_volume   299.62957299
_cell_formula_units_Z   1
loop_
 _symmetry_equiv_pos_site_id
 _symmetry_equiv_pos_as_xyz
  1  'x, y, z'
loop_
 _atom_site_type_symbol
 _atom_site_label
 _atom_site_symmetry_multiplicity
 _atom_site_fract_x
 _atom_site_fract_y
 _atom_site_fract_z
 _atom_site_occupancy
  Na  Na0  1  0.66931380  0.66933028  0.66929095  1
  Lu  Lu0  1  0.99970353  0.99973632  0.99975223  1
  Sn  Sn0  1  0.33132379  0.33132437  0.33129740  1
  Br  Br0  1  0.23072959  0.61573628  0.91122108  1
  Br  Br1  1  0.61575736  0.91123356  0.23071041  1
  Br  Br2  1  0.91121821  0.23075316  0.61571608  1
  Br  Br3  1  0.76945905  0.38639834  0.08608081  1
  Br  Br4  1  0.38642820  0.08603602  0.76948968  1
  Br  Br5  1  0.08606847  0.76945167  0.38644136  1
loop_
_geom_bond_atom_site_label_1
_geom_bond_atom_site_label_2
_geom_bond_distance
_geom_bond_site_symmetry_2
Br0 Lu0 2.738867 1_455
Br0 Na0 2.975132 1_555
Br0 Sn0 2.998779 1_556
Br1 Lu0 2.738637 1_554
Br1 Na0 2.974511 1_555
Br1 Sn0 2.999136 1_565
Br2 Lu0 2.738678 1_545
Br2 Na0 2.974821 1_555
Br2 Sn0 2.999380 1_655
Br3 Lu0 2.748831 1_544
Br3 Sn0 2.975100 1_555
Br3 Na0 2.976467 1_554
Br4 Lu0 2.749321 1_445
Br4 Sn0 2.975051 1_555
Br4 Na0 2.976411 1_545
Br5 Lu0 2.748858 1_454
Br5 Sn0 2.975036 1_555
Br5 Na0 2.976656 1_455
