# generated using pymatgen
data_Sr5TaTcN7
_symmetry_space_group_name_H-M   'P 1'
_cell_length_a   6.53402579
_cell_length_b   9.37341871
_cell_length_c   9.36357110
_cell_angle_alpha   116.14122444
_cell_angle_beta   96.21042058
_cell_angle_gamma   88.93480482
_symmetry_Int_Tables_number   1
_chemical_formula_structural   Sr5TaTcN7
_chemical_formula_sum   'Sr10 Ta2 Tc2 N14'
_cell_volume   511.52871079
_cell_formula_units_Z   2
loop_
 _symmetry_equiv_pos_site_id
 _symmetry_equiv_pos_as_xyz
  1  'x, y, z'
loop_
 _atom_site_type_symbol
 _atom_site_label
 _atom_site_symmetry_multiplicity
 _atom_site_fract_x
 _atom_site_fract_y
 _atom_site_fract_z
 _atom_site_occupancy
  Sr  Sr0  1  0.84326878  0.59141970  0.31547311  1
  Sr  Sr1  1  0.26248503  0.98786310  0.55885654  1
  Sr  Sr2  1  0.70558442  0.41591814  0.85766717  1
  Sr  Sr3  1  0.29441558  0.58408186  0.14233283  1
  Sr  Sr4  1  0.40614556  0.79710928  0.93751152  1
  Sr  Sr5  1  0.59385444  0.20289072  0.06248848  1
  Sr  Sr6  1  0.15673122  0.40858030  0.68452689  1
  Sr  Sr7  1  0.91122674  0.84871518  0.76966472  1
  Sr  Sr8  1  0.08877326  0.15128482  0.23033528  1
  Sr  Sr9  1  0.73751497  0.01213690  0.44114346  1
  Ta  Ta0  1  0.11751511  0.21357519  0.91224764  1
  Ta  Ta1  1  0.88248489  0.78642481  0.08775236  1
  Tc  Tc0  1  0.57235678  0.36033524  0.47535026  1
  Tc  Tc1  1  0.42764322  0.63966476  0.52464974  1
  N  N0  1  0.52215795  0.54917762  0.67239418  1
  N  N1  1  0.47784205  0.45082238  0.32760582  1
  N  N2  1  0.16887522  0.69181509  0.53827645  1
  N  N3  1  0.83112478  0.30818491  0.46172355  1
  N  N4  1  0.41152000  0.20256160  0.45997271  1
  N  N5  1  0.58848000  0.79743840  0.54002729  1
  N  N6  1  0.94614459  0.12640802  0.70632905  1
  N  N7  1  0.05385541  0.87359198  0.29367095  1
  N  N8  1  0.23269219  0.04482108  0.95886647  1
  N  N9  1  0.76730781  0.95517892  0.04113353  1
  N  N10  1  0.35465777  0.32551323  0.89133504  1
  N  N11  1  0.95778449  0.34953782  0.08612694  1
  N  N12  1  0.04221551  0.65046218  0.91387306  1
  N  N13  1  0.64534223  0.67448677  0.10866496  1
loop_
_geom_bond_atom_site_label_1
_geom_bond_atom_site_label_2
_geom_bond_distance
_geom_bond_site_symmetry_2
N0 Tc1 1.960674 1_555
N0 Tc0 1.968890 1_555
N0 Sr4 2.719564 1_555
N0 Sr2 2.722169 1_555
N0 Sr6 2.785402 1_555
N1 Tc0 1.960674 1_555
N1 Tc1 1.968890 1_555
N1 Sr5 2.719564 1_555
N1 Sr3 2.722169 1_555
N1 Sr0 2.785402 1_555
N2 Tc1 1.753572 1_555
N2 Sr0 2.673660 1_455
N2 Sr7 2.753291 1_455
N2 Sr1 2.770952 1_555
N3 Tc0 1.753572 1_555
N3 Sr6 2.673660 1_655
N3 Sr8 2.753291 1_655
N3 Sr9 2.770952 1_555
N4 Tc0 1.774721 1_555
N4 Sr9 2.723381 1_555
N4 Sr8 2.729030 1_555
N4 Sr1 2.786655 1_545
N4 Sr6 2.825186 1_555
N5 Tc1 1.774721 1_555
N5 Sr1 2.723381 1_555
N5 Sr7 2.729030 1_555
N5 Sr9 2.786655 1_565
N5 Sr0 2.825186 1_555
N6 Ta0 1.953919 1_655
N6 Sr9 2.479837 1_555
N6 Sr1 2.608302 1_645
N6 Sr7 2.930972 1_545
N6 Sr2 2.962714 1_555
N6 Sr6 3.098784 1_655
N7 Ta1 1.953919 1_455
N7 Sr1 2.479837 1_555
N7 Sr9 2.608302 1_465
N7 Sr8 2.930972 1_565
N7 Sr3 2.962714 1_555
N7 Sr0 3.098784 1_455
N8 Ta0 1.937036 1_555
N8 Sr4 2.501557 1_545
N8 Sr8 2.566820 1_556
N8 Sr5 2.659588 1_556
N8 Sr7 2.719985 1_445
N9 Ta1 1.937036 1_555
N9 Sr5 2.501557 1_565
N9 Sr7 2.566820 1_554
N9 Sr4 2.659588 1_554
N9 Sr8 2.719985 1_665
N10 Ta0 1.961461 1_555
N10 Sr2 2.557186 1_555
N10 Sr3 2.588068 1_556
N10 Sr6 2.603456 1_555
N10 Sr5 2.710458 1_556
N11 Ta0 1.963183 1_654
N11 Sr0 2.511238 1_555
N11 Sr5 2.707872 1_555
N11 Sr8 2.812667 1_655
N11 Sr2 2.837407 1_554
N11 Sr3 2.976261 1_655
N12 Ta1 1.963183 1_456
N12 Sr6 2.511238 1_555
N12 Sr4 2.707872 1_555
N12 Sr7 2.812667 1_455
N12 Sr3 2.837407 1_556
N12 Sr2 2.976261 1_455
N13 Ta1 1.961461 1_555
N13 Sr3 2.557186 1_555
N13 Sr2 2.588068 1_554
N13 Sr0 2.603456 1_555
N13 Sr4 2.710458 1_554
