# generated using pymatgen
data_YSeBrO3
_symmetry_space_group_name_H-M   'P 1'
_cell_length_a   6.90656151
_cell_length_b   7.47635593
_cell_length_c   8.99194140
_cell_angle_alpha   90.00000000
_cell_angle_beta   90.00000000
_cell_angle_gamma   90.00000000
_symmetry_Int_Tables_number   1
_chemical_formula_structural   YSeBrO3
_chemical_formula_sum   'Y4 Se4 Br4 O12'
_cell_volume   464.30709563
_cell_formula_units_Z   4
loop_
 _symmetry_equiv_pos_site_id
 _symmetry_equiv_pos_as_xyz
  1  'x, y, z'
loop_
 _atom_site_type_symbol
 _atom_site_label
 _atom_site_symmetry_multiplicity
 _atom_site_fract_x
 _atom_site_fract_y
 _atom_site_fract_z
 _atom_site_occupancy
  Y  Y0  1  0.25000000  0.89393815  0.02851866  1
  Y  Y1  1  0.75000000  0.10606185  0.97148134  1
  Y  Y2  1  0.75000000  0.60606185  0.52851866  1
  Y  Y3  1  0.25000000  0.39393815  0.47148134  1
  Se  Se0  1  0.25000000  0.78275679  0.63229261  1
  Se  Se1  1  0.75000000  0.21724321  0.36770739  1
  Se  Se2  1  0.75000000  0.71724321  0.13229261  1
  Se  Se3  1  0.25000000  0.28275679  0.86770739  1
  Br  Br0  1  0.25000000  0.55039075  0.17717489  1
  Br  Br1  1  0.75000000  0.44960925  0.82282511  1
  Br  Br2  1  0.75000000  0.94960925  0.67717489  1
  Br  Br3  1  0.25000000  0.05039075  0.32282511  1
  O  O0  1  0.07250723  0.63661786  0.57033471  1
  O  O1  1  0.92749277  0.36338214  0.42966529  1
  O  O2  1  0.92749277  0.86338214  0.07033471  1
  O  O3  1  0.57250723  0.36338214  0.42966529  1
  O  O4  1  0.07250723  0.13661786  0.92966529  1
  O  O5  1  0.42749277  0.63661786  0.57033471  1
  O  O6  1  0.42749277  0.13661786  0.92966529  1
  O  O7  1  0.57250723  0.86338214  0.07033471  1
  O  O8  1  0.25000000  0.74618720  0.81674287  1
  O  O9  1  0.75000000  0.25381280  0.18325713  1
  O  O10  1  0.75000000  0.75381280  0.31674287  1
  O  O11  1  0.25000000  0.24618720  0.68325713  1
loop_
_geom_bond_atom_site_label_1
_geom_bond_atom_site_label_2
_geom_bond_distance
_geom_bond_site_symmetry_2
Br0 Y3 2.893363 1_555
Br0 Y0 2.895495 1_555
Br1 Y2 2.893363 1_555
Br1 Y1 2.895495 1_555
Br2 Y1 2.893363 1_565
Br2 Y2 2.895495 1_555
Br3 Y0 2.893363 1_545
Br3 Y3 2.895495 1_555
O0 Se0 1.734034 1_555
O0 Y2 2.270452 1_455
O0 Y3 2.363210 1_555
O1 Se1 1.734034 1_555
O1 Y3 2.270452 1_655
O1 Y2 2.363210 1_555
O2 Se2 1.734034 1_555
O2 Y0 2.270452 1_655
O2 Y1 2.363210 1_564
O3 Se1 1.734034 1_555
O3 Y3 2.270452 1_555
O3 Y2 2.363210 1_555
O4 Se3 1.734034 1_555
O4 Y1 2.270452 1_455
O4 Y0 2.363210 1_546
O5 Se0 1.734034 1_555
O5 Y2 2.270452 1_555
O5 Y3 2.363210 1_555
O6 Se3 1.734034 1_555
O6 Y1 2.270452 1_555
O6 Y0 2.363210 1_546
O7 Se2 1.734034 1_555
O7 Y0 2.270452 1_555
O7 Y1 2.363210 1_564
O8 Se0 1.680950 1_555
O8 Y0 2.201475 1_556
O9 Se1 1.680950 1_555
O9 Y1 2.201475 1_554
O10 Se2 1.680950 1_555
O10 Y2 2.201475 1_555
O11 Se3 1.680950 1_555
O11 Y3 2.201475 1_555
