# generated using pymatgen
data_Ta10Ga3Si2Ge
_symmetry_space_group_name_H-M   'P 1'
_cell_length_a   6.62110332
_cell_length_b   7.59158318
_cell_length_c   6.62110321
_cell_angle_alpha   115.85397641
_cell_angle_beta   90.00035665
_cell_angle_gamma   115.85398104
_symmetry_Int_Tables_number   1
_chemical_formula_structural   Ta10Ga3Si2Ge
_chemical_formula_sum   'Ta10 Ga3 Si2 Ge1'
_cell_volume   261.98262859
_cell_formula_units_Z   1
loop_
 _symmetry_equiv_pos_site_id
 _symmetry_equiv_pos_as_xyz
  1  'x, y, z'
loop_
 _atom_site_type_symbol
 _atom_site_label
 _atom_site_symmetry_multiplicity
 _atom_site_fract_x
 _atom_site_fract_y
 _atom_site_fract_z
 _atom_site_occupancy
  Ta  Ta0  1  0.99937084  0.00000000  0.00099908  1
  Ta  Ta1  1  0.50099908  1.00000000  0.49937084  1
  Ta  Ta2  1  0.51556604  0.69859853  0.68324470  1
  Ta  Ta3  1  0.18324470  0.69859853  0.01556604  1
  Ta  Ta4  1  0.68861816  0.69984163  0.18861816  1
  Ta  Ta5  1  0.01062549  0.69847342  0.51062549  1
  Ta  Ta6  1  0.48464717  0.30140147  0.31696851  1
  Ta  Ta7  1  0.81696851  0.30140147  0.98464717  1
  Ta  Ta8  1  0.31215307  0.30152658  0.81215307  1
  Ta  Ta9  1  0.98877753  0.30015837  0.48877753  1
  Ga  Ga0  1  0.75034409  0.50000000  0.75034409  1
  Ga  Ga1  1  0.25034409  0.50000000  0.25034409  1
  Ga  Ga2  1  0.36608167  0.00000000  0.86608167  1
  Si  Si0  1  0.86973806  0.00000000  0.63167634  1
  Si  Si1  1  0.13167634  1.00000000  0.36973806  1
  Ge  Ge0  1  0.63084314  0.00000000  0.13084314  1
loop_
_geom_bond_atom_site_label_1
_geom_bond_atom_site_label_2
_geom_bond_distance
_geom_bond_site_symmetry_2
Ga0 Ta3 2.737567 1_656
Ga0 Ta7 2.737574 1_555
Ga0 Ta6 2.741367 1_555
Ga0 Ta2 2.741375 1_555
Ga0 Ta8 2.753267 1_555
Ga0 Ta5 2.753269 1_655
Ga0 Ta4 2.755104 1_556
Ga0 Ta9 2.755106 1_555
Ga0 Ta0 2.988018 1_566
Ga0 Ta1 2.988018 1_545
Ga1 Ta2 2.737567 1_555
Ga1 Ta6 2.737574 1_555
Ga1 Ta7 2.741367 1_454
Ga1 Ta3 2.741375 1_555
Ga1 Ta8 2.753267 1_554
Ga1 Ta5 2.753270 1_555
Ga1 Ta4 2.755104 1_555
Ga1 Ta9 2.755106 1_455
Ga1 Ta1 2.988018 1_555
Ga1 Ta0 2.988018 1_455
Ga2 Ge0 2.479127 1_556
Ga2 Ta1 2.587150 1_545
Ga2 Ta0 2.587150 1_456
Ga2 Ta8 2.630688 1_555
Ga2 Ta5 2.630695 1_545
Ga2 Ta3 2.690708 1_546
Ga2 Ta2 2.690708 1_545
Ga2 Ta7 2.690713 1_555
Ga2 Ta6 2.690713 1_556
Si0 Si1 2.452707 1_645
Si0 Ta0 2.591579 1_556
Si0 Ta1 2.593855 1_545
Si0 Ta2 2.617787 1_545
Si0 Ta7 2.617787 1_555
Si0 Ta5 2.648508 1_645
Si0 Ta8 2.648513 1_655
Si0 Ta9 2.650046 1_555
Si0 Ta4 2.650052 1_545
Si1 Ta1 2.591579 1_555
Si1 Ta0 2.593855 1_465
Si1 Ta6 2.617787 1_565
Si1 Ta3 2.617787 1_555
Si1 Ta5 2.648508 1_555
Si1 Ta8 2.648513 1_565
Si1 Ta9 2.650046 1_465
Si1 Ta4 2.650052 1_455
Ge0 Ta1 2.587087 1_545
Ge0 Ta0 2.587088 1_555
Ge0 Ta4 2.646792 1_545
Ge0 Ta9 2.646799 1_555
Ge0 Ta7 2.676485 1_554
Ge0 Ta6 2.676486 1_555
Ge0 Ta3 2.676490 1_545
Ge0 Ta2 2.676490 1_544
