# generated using pymatgen
data_Cs4V2PdSe8
_symmetry_space_group_name_H-M   'P 1'
_cell_length_a   13.79798877
_cell_length_b   7.60081812
_cell_length_c   10.05715551
_cell_angle_alpha   86.10751554
_cell_angle_beta   90.00000000
_cell_angle_gamma   90.00000000
_symmetry_Int_Tables_number   1
_chemical_formula_structural   Cs4V2PdSe8
_chemical_formula_sum   'Cs8 V4 Pd2 Se16'
_cell_volume   1052.32115597
_cell_formula_units_Z   2
loop_
 _symmetry_equiv_pos_site_id
 _symmetry_equiv_pos_as_xyz
  1  'x, y, z'
loop_
 _atom_site_type_symbol
 _atom_site_label
 _atom_site_symmetry_multiplicity
 _atom_site_fract_x
 _atom_site_fract_y
 _atom_site_fract_z
 _atom_site_occupancy
  Cs  Cs0  1  0.13530066  0.81147334  0.68797364  1
  Cs  Cs1  1  0.63530066  0.18852666  0.81202636  1
  Cs  Cs2  1  0.86469934  0.18852666  0.31202636  1
  Cs  Cs3  1  0.36469934  0.81147334  0.18797364  1
  Cs  Cs4  1  0.34647002  0.26030854  0.54351420  1
  Cs  Cs5  1  0.84647002  0.73969146  0.95648580  1
  Cs  Cs6  1  0.65352998  0.73969146  0.45648580  1
  Cs  Cs7  1  0.15352998  0.26030854  0.04351420  1
  V  V0  1  0.42616125  0.74617478  0.77444394  1
  V  V1  1  0.92616125  0.25382522  0.72555606  1
  V  V2  1  0.57383875  0.25382522  0.22555606  1
  V  V3  1  0.07383875  0.74617478  0.27444394  1
  Pd  Pd0  1  0.00000000  0.50000000  0.50000000  1
  Pd  Pd1  1  0.50000000  0.50000000  0.00000000  1
  Se  Se0  1  0.08697968  0.30646401  0.67025981  1
  Se  Se1  1  0.58697968  0.69353599  0.82974019  1
  Se  Se2  1  0.91302032  0.69353599  0.32974019  1
  Se  Se3  1  0.41302032  0.30646401  0.17025981  1
  Se  Se4  1  0.39971970  0.75059191  0.55389387  1
  Se  Se5  1  0.89971970  0.24940809  0.94610613  1
  Se  Se6  1  0.60028030  0.24940809  0.44610613  1
  Se  Se7  1  0.10028030  0.75059191  0.05389387  1
  Se  Se8  1  0.15638793  0.51448253  0.37951535  1
  Se  Se9  1  0.65638793  0.48551747  0.12048465  1
  Se  Se10  1  0.84361207  0.48551747  0.62048465  1
  Se  Se11  1  0.34361207  0.51448253  0.87951535  1
  Se  Se12  1  0.37425560  0.00206285  0.84879521  1
  Se  Se13  1  0.87425560  0.99793715  0.65120479  1
  Se  Se14  1  0.62574440  0.99793715  0.15120479  1
  Se  Se15  1  0.12574440  0.00206285  0.34879521  1
loop_
_geom_bond_atom_site_label_1
_geom_bond_atom_site_label_2
_geom_bond_distance
_geom_bond_site_symmetry_2
Cs0 Se15 3.616781 1_565
Cs0 Pd0 3.643024 1_555
Cs0 Se7 3.709404 1_556
Cs0 Se0 3.813191 1_565
Cs0 Se13 3.879165 1_455
Cs0 Se0 3.911914 1_555
Cs0 Se4 3.927900 1_555
Cs0 Se8 3.969243 1_555
Cs0 Se12 3.987921 1_565
Cs0 Se11 4.059273 1_555
Cs1 Se14 3.616781 1_546
Cs1 Pd1 3.643024 1_556
Cs1 Se6 3.709404 1_555
Cs1 Se1 3.813191 1_545
Cs1 Se12 3.879165 1_555
Cs1 Se1 3.911914 1_555
Cs1 Se5 3.927900 1_555
Cs1 Se9 3.969243 1_556
Cs1 Se13 3.987921 1_545
Cs1 Se10 4.059273 1_555
Cs2 Se13 3.616781 1_545
Cs2 Pd0 3.643024 1_655
Cs2 Se5 3.709404 1_554
Cs2 Se2 3.813191 1_545
Cs2 Se15 3.879165 1_655
Cs2 Se2 3.911914 1_555
Cs2 Se6 3.927900 1_555
Cs2 Se10 3.969243 1_555
Cs2 Se14 3.987921 1_545
Cs2 Se9 4.059273 1_555
Cs3 Se12 3.616781 1_564
Cs3 Pd1 3.643024 1_555
Cs3 Se4 3.709404 1_555
Cs3 Se3 3.813191 1_565
Cs3 Se14 3.879165 1_555
Cs3 Se3 3.911914 1_555
Cs3 Se7 3.927900 1_555
Cs3 Se11 3.969243 1_554
Cs3 Se15 3.987921 1_565
Cs3 Se8 4.059273 1_555
Cs4 Se12 3.550795 1_555
Cs4 Se8 3.591511 1_555
Cs4 Se6 3.638970 1_555
Cs4 Se4 3.806674 1_555
Cs4 Se0 3.824687 1_555
Cs4 Se3 3.857340 1_555
Cs4 Se4 3.937733 1_545
Cs4 Se11 4.004917 1_555
Cs4 Se15 4.181541 1_555
Cs5 Se13 3.550795 1_555
Cs5 Se9 3.591511 1_556
Cs5 Se7 3.638970 1_656
Cs5 Se5 3.806674 1_555
Cs5 Se1 3.824687 1_555
Cs5 Se2 3.857340 1_556
Cs5 Se5 3.937733 1_565
Cs5 Se10 4.004917 1_555
Cs5 Se14 4.181541 1_556
Cs6 Se14 3.550795 1_555
Cs6 Se10 3.591511 1_555
Cs6 Se4 3.638970 1_555
Cs6 Se6 3.806674 1_555
Cs6 Se2 3.824687 1_555
Cs6 Se1 3.857340 1_555
Cs6 Se6 3.937733 1_565
Cs6 Se9 4.004917 1_555
Cs6 Se13 4.181541 1_555
Cs7 Se15 3.550795 1_555
Cs7 Se11 3.591511 1_554
Cs7 Se5 3.638970 1_454
Cs7 Se7 3.806674 1_555
Cs7 Se3 3.824687 1_555
Cs7 Se0 3.857340 1_554
Cs7 Se7 3.937733 1_545
Cs7 Se8 4.004917 1_555
Cs7 Se12 4.181541 1_554
Pd0 Se10 2.473575 1_455
Pd0 Se8 2.473575 1_555
Pd0 Se0 2.488849 1_555
Pd0 Se2 2.488849 1_455
Pd0 V1 3.018067 1_455
Pd0 V3 3.018067 1_555
Pd1 Se11 2.473575 1_554
Pd1 Se9 2.473575 1_555
Pd1 Se1 2.488849 1_554
Pd1 Se3 2.488849 1_555
Pd1 V2 3.018067 1_555
Pd1 V0 3.018067 1_554
Se0 V1 2.315810 1_455
Se1 V0 2.315810 1_555
Se2 V3 2.315810 1_655
Se3 V2 2.315810 1_555
Se4 V0 2.245912 1_555
Se5 V1 2.245912 1_555
Se6 V2 2.245912 1_555
Se7 V3 2.245912 1_555
Se8 V3 2.294046 1_555
Se9 V2 2.294046 1_555
Se10 V1 2.294046 1_555
Se11 V0 2.294046 1_555
Se12 V0 2.247755 1_545
Se13 V1 2.247755 1_565
Se14 V2 2.247755 1_565
Se15 V3 2.247755 1_545
