# generated using pymatgen
data_Sr2Ga(SiIr2)3
_symmetry_space_group_name_H-M   'P 1'
_cell_length_a   6.76789584
_cell_length_b   6.74729932
_cell_length_c   6.76789660
_cell_angle_alpha   129.88749275
_cell_angle_beta   115.82607729
_cell_angle_gamma   85.68726744
_symmetry_Int_Tables_number   1
_chemical_formula_structural   Sr2Ga(SiIr2)3
_chemical_formula_sum   'Sr2 Ga1 Si3 Ir6'
_cell_volume   203.91532188
_cell_formula_units_Z   1
loop_
 _symmetry_equiv_pos_site_id
 _symmetry_equiv_pos_as_xyz
  1  'x, y, z'
loop_
 _atom_site_type_symbol
 _atom_site_label
 _atom_site_symmetry_multiplicity
 _atom_site_fract_x
 _atom_site_fract_y
 _atom_site_fract_z
 _atom_site_occupancy
  Sr  Sr0  1  0.24878823  0.98036635  0.73157812  1
  Sr  Sr1  1  0.75273126  0.00871270  0.25598044  1
  Ga  Ga0  1  0.09229627  0.31519443  0.22289817  1
  Si  Si0  1  0.93433532  0.72447908  0.79014375  1
  Si  Si1  1  0.39788148  0.62433587  0.22645439  1
  Si  Si2  1  0.57346544  0.36148331  0.78801787  1
  Ir  Ir0  1  0.53091718  0.49784863  0.52345600  1
  Ir  Ir1  1  0.97439264  0.49784863  0.96693245  1
  Ir  Ir2  1  0.28129966  0.99573822  0.27547380  1
  Ir  Ir3  1  0.72026542  0.99573822  0.71443856  1
  Ir  Ir4  1  0.23692370  0.49912628  0.74242287  1
  Ir  Ir5  1  0.75670341  0.49912628  0.26220258  1
loop_
_geom_bond_atom_site_label_1
_geom_bond_atom_site_label_2
_geom_bond_distance
_geom_bond_site_symmetry_2
Sr0 Sr1 3.598059 1_566
Sr0 Sr1 3.598066 1_465
Ga0 Ir5 2.539412 1_455
Ga0 Ir4 2.539413 1_555
Ga0 Ir1 2.557846 1_454
Ga0 Ir0 2.557852 1_555
Ga0 Ir3 2.565407 1_444
Ga0 Ir2 2.565410 1_545
Ga0 Sr0 3.218119 1_544
Ga0 Sr0 3.292099 1_555
Ga0 Sr1 3.371172 1_455
Si0 Sr0 3.135691 1_655
Si0 Sr1 3.224158 1_566
Si0 Sr1 3.540139 1_555
Si1 Sr0 3.188305 1_544
Si1 Sr0 3.253310 1_555
Si1 Sr1 3.519625 1_565
Si2 Sr1 3.206806 1_566
Si2 Sr0 3.231994 1_545
Si2 Sr1 3.533073 1_555
Ir0 Si2 2.399870 1_555
Ir0 Si0 2.417632 1_555
Ir0 Si1 2.467235 1_555
Ir0 Sr1 3.222255 1_555
Ir0 Sr1 3.330122 1_566
Ir0 Sr0 3.428731 1_555
Ir0 Sr0 3.556149 1_544
Ir1 Si2 2.399869 1_555
Ir1 Si0 2.417638 1_555
Ir1 Si1 2.467235 1_656
Ir1 Sr1 3.222263 1_555
Ir1 Sr1 3.330124 1_566
Ir1 Sr0 3.428727 1_656
Ir1 Sr0 3.556149 1_645
Ir2 Si2 2.410649 1_565
Ir2 Si0 2.422519 1_454
Ir2 Si1 2.424223 1_555
Ir2 Sr0 3.254808 1_555
Ir2 Sr1 3.260149 1_565
Ir2 Sr1 3.518327 1_465
Ir2 Sr0 3.523807 1_554
Ir3 Si2 2.410651 1_565
Ir3 Si0 2.422516 1_555
Ir3 Si1 2.424226 1_555
Ir3 Sr0 3.254814 1_555
Ir3 Sr1 3.260149 1_565
Ir3 Sr1 3.518326 1_566
Ir3 Sr0 3.523800 1_655
Ir4 Si2 2.362753 1_555
Ir4 Si0 2.467435 1_455
Ir4 Si1 2.472125 1_556
Ir4 Sr1 3.284123 1_455
Ir4 Sr0 3.302320 1_555
Ir4 Sr0 3.449174 1_545
Ir4 Sr1 3.463440 1_566
Ir5 Si2 2.362753 1_554
Ir5 Si0 2.467436 1_555
Ir5 Si1 2.472125 1_555
Ir5 Sr1 3.284119 1_555
Ir5 Sr0 3.302320 1_655
Ir5 Sr0 3.449175 1_544
Ir5 Sr1 3.463443 1_565
