# generated using pymatgen
data_Cu8O7
_symmetry_space_group_name_H-M   'P 1'
_cell_length_a   5.85003552
_cell_length_b   5.85003552
_cell_length_c   6.40151041
_cell_angle_alpha   64.27413870
_cell_angle_beta   64.27413870
_cell_angle_gamma   89.95749148
_symmetry_Int_Tables_number   1
_chemical_formula_structural   Cu8O7
_chemical_formula_sum   'Cu8 O7'
_cell_volume   172.98214312
_cell_formula_units_Z   1
loop_
 _symmetry_equiv_pos_site_id
 _symmetry_equiv_pos_as_xyz
  1  'x, y, z'
loop_
 _atom_site_type_symbol
 _atom_site_label
 _atom_site_symmetry_multiplicity
 _atom_site_fract_x
 _atom_site_fract_y
 _atom_site_fract_z
 _atom_site_occupancy
  Cu  Cu0  1  0.99712900  0.99219100  0.25876600  1
  Cu  Cu1  1  0.50644500  0.00207900  0.23545900  1
  Cu  Cu2  1  0.49953200  0.48945700  0.77301600  1
  Cu  Cu3  1  0.99792100  0.49355500  0.76454100  1
  Cu  Cu4  1  0.51054300  0.50046800  0.22698400  1
  Cu  Cu5  1  0.99703500  0.50063700  0.25868200  1
  Cu  Cu6  1  0.49936300  0.00296500  0.74131800  1
  Cu  Cu7  1  0.00780900  0.00287100  0.74123400  1
  O  O0  1  0.63345000  0.86923900  0.99118300  1
  O  O1  1  0.12990200  0.87009800  0.00000000  1
  O  O2  1  0.13076100  0.36655000  0.00881700  1
  O  O3  1  0.37938600  0.62061400  0.50000000  1
  O  O4  1  0.85991600  0.61531100  0.53069900  1
  O  O5  1  0.86811700  0.13188300  0.50000000  1
  O  O6  1  0.38468900  0.14008400  0.46930100  1
loop_
_geom_bond_atom_site_label_1
_geom_bond_atom_site_label_2
_geom_bond_distance
_geom_bond_site_symmetry_2
Cu0 O5 1.924843 1_565
Cu0 O1 1.940813 1_655
Cu0 O2 1.960116 1_665
Cu0 O4 1.998322 1_555
Cu1 O6 1.876870 1_555
Cu1 O0 1.909631 1_544
Cu1 O3 2.007291 1_545
Cu2 O4 1.888067 1_555
Cu2 O2 1.919017 1_556
Cu2 O3 2.009650 1_555
Cu3 O4 1.876870 1_555
Cu3 O2 1.909631 1_656
Cu3 O3 2.007291 1_655
Cu4 O6 1.888067 1_555
Cu4 O0 1.919017 1_554
Cu4 O3 2.009650 1_555
Cu5 O5 1.925297 1_555
Cu5 O2 1.946218 1_655
Cu5 O1 1.948274 1_655
Cu5 O4 1.981511 1_555
Cu6 O5 1.925297 1_555
Cu6 O0 1.946218 1_545
Cu6 O1 1.948274 1_546
Cu6 O6 1.981511 1_555
Cu7 O5 1.924843 1_455
Cu7 O1 1.940813 1_546
Cu7 O0 1.960116 1_445
Cu7 O6 1.998322 1_555
