# generated using pymatgen
data_Ba3Re2O9
_symmetry_space_group_name_H-M   'P 1'
_cell_length_a   7.70911753
_cell_length_b   7.70911753
_cell_length_c   7.70911656
_cell_angle_alpha   43.77988172
_cell_angle_beta   43.77988172
_cell_angle_gamma   43.77988500
_symmetry_Int_Tables_number   1
_chemical_formula_structural   Ba3Re2O9
_chemical_formula_sum   'Ba3 Re2 O9'
_cell_volume   199.11542614
_cell_formula_units_Z   1
loop_
 _symmetry_equiv_pos_site_id
 _symmetry_equiv_pos_as_xyz
  1  'x, y, z'
loop_
 _atom_site_type_symbol
 _atom_site_label
 _atom_site_symmetry_multiplicity
 _atom_site_fract_x
 _atom_site_fract_y
 _atom_site_fract_z
 _atom_site_occupancy
  Ba  Ba0  1  -0.00000000  -0.00000000  0.00000000  1
  Ba  Ba1  1  0.21148148  0.21148148  0.21148148  1
  Ba  Ba2  1  0.78851852  0.78851852  0.78851852  1
  Re  Re0  1  0.39186122  0.39186122  0.39186122  1
  Re  Re1  1  0.60813878  0.60813878  0.60813878  1
  O  O0  1  0.50000000  0.50000000  0.00000000  1
  O  O1  1  -0.00000000  0.50000000  0.50000000  1
  O  O2  1  0.50000000  -0.00000000  0.50000000  1
  O  O3  1  0.27922748  0.75381531  0.27922748  1
  O  O4  1  0.75381531  0.27922748  0.27922748  1
  O  O5  1  0.27922748  0.27922748  0.75381531  1
  O  O6  1  0.72077252  0.72077252  0.24618469  1
  O  O7  1  0.24618469  0.72077252  0.72077252  1
  O  O8  1  0.72077252  0.24618469  0.72077252  1
loop_
_geom_bond_atom_site_label_1
_geom_bond_atom_site_label_2
_geom_bond_distance
_geom_bond_site_symmetry_2
Ba0 O4 2.785998 1_455
Ba0 O8 2.785998 1_454
Ba0 O3 2.785998 1_545
Ba0 O7 2.785998 1_544
Ba0 O6 2.785998 1_445
Ba0 O5 2.785998 1_554
Ba0 O2 2.874151 1_455
Ba0 O2 2.874151 1_554
Ba0 O1 2.874151 1_545
Ba0 O1 2.874151 1_554
Ba0 O0 2.874151 1_545
Ba0 O0 2.874151 1_455
Ba1 O5 2.840071 1_554
Ba1 O3 2.840072 1_545
Ba1 O4 2.840072 1_455
Ba1 O8 2.899194 1_455
Ba1 O7 2.899194 1_545
Ba1 O7 2.899194 1_554
Ba1 O8 2.899194 1_554
Ba1 O6 2.899194 1_545
Ba1 O6 2.899194 1_455
Ba1 O2 3.037017 1_555
Ba1 O1 3.037017 1_555
Ba1 O0 3.037018 1_555
Ba2 O6 2.840071 1_556
Ba2 O7 2.840072 1_655
Ba2 O8 2.840072 1_565
Ba2 O4 2.899194 1_565
Ba2 O3 2.899194 1_655
Ba2 O4 2.899194 1_556
Ba2 O3 2.899194 1_556
Ba2 O5 2.899194 1_655
Ba2 O5 2.899194 1_565
Ba2 O2 3.037017 1_565
Ba2 O1 3.037017 1_655
Ba2 O0 3.037018 1_556
O0 Re0 2.060639 1_555
O0 Re1 2.060639 1_554
O1 Re0 2.060639 1_555
O1 Re1 2.060639 1_455
O2 Re0 2.060639 1_555
O2 Re1 2.060639 1_545
O3 Re0 1.839937 1_555
O4 Re0 1.839937 1_555
O5 Re0 1.839936 1_555
O6 Re1 1.839936 1_555
O7 Re1 1.839937 1_555
O8 Re1 1.839937 1_555
