# generated using pymatgen
data_Zr10Sn5B2Sb
_symmetry_space_group_name_H-M   'P 1'
_cell_length_a   8.54421216
_cell_length_b   8.54421195
_cell_length_c   5.81474889
_cell_angle_alpha   90.00000000
_cell_angle_beta   90.00000000
_cell_angle_gamma   119.96769018
_symmetry_Int_Tables_number   1
_chemical_formula_structural   Zr10Sn5B2Sb
_chemical_formula_sum   'Zr10 Sn5 B2 Sb1'
_cell_volume   367.74513496
_cell_formula_units_Z   1
loop_
 _symmetry_equiv_pos_site_id
 _symmetry_equiv_pos_as_xyz
  1  'x, y, z'
loop_
 _atom_site_type_symbol
 _atom_site_label
 _atom_site_symmetry_multiplicity
 _atom_site_fract_x
 _atom_site_fract_y
 _atom_site_fract_z
 _atom_site_occupancy
  Zr  Zr0  1  0.66531788  0.33303044  0.00035987  1
  Zr  Zr1  1  0.33303044  0.66531788  0.00035987  1
  Zr  Zr2  1  0.33303044  0.66531788  0.49964013  1
  Zr  Zr3  1  0.66531788  0.33303044  0.49964013  1
  Zr  Zr4  1  0.77067901  0.77067901  0.75000000  1
  Zr  Zr5  1  0.23000337  0.99938800  0.75000000  1
  Zr  Zr6  1  0.99938800  0.23000337  0.75000000  1
  Zr  Zr7  1  0.23249755  0.23249755  0.25000000  1
  Zr  Zr8  1  0.76996304  0.00075259  0.25000000  1
  Zr  Zr9  1  0.00075259  0.76996304  0.25000000  1
  Sn  Sn0  1  0.59920493  0.99946220  0.75000000  1
  Sn  Sn1  1  0.99946220  0.59920493  0.75000000  1
  Sn  Sn2  1  0.60244827  0.60244827  0.25000000  1
  Sn  Sn3  1  0.39988484  0.99897190  0.25000000  1
  Sn  Sn4  1  0.99897190  0.39988484  0.25000000  1
  B  B0  1  0.00030642  0.00030642  0.00080048  1
  B  B1  1  0.00030642  0.00030642  0.49919952  1
  Sb  Sb0  1  0.39943483  0.39943483  0.75000000  1
loop_
_geom_bond_atom_site_label_1
_geom_bond_atom_site_label_2
_geom_bond_distance
_geom_bond_site_symmetry_2
Sn0 Zr4 2.971337 1_555
Sn0 Zr6 2.973670 1_565
Sn0 Zr0 2.992147 1_566
Sn0 Zr3 2.992147 1_565
Sn0 Zr1 2.992640 1_556
Sn0 Zr2 2.992640 1_555
Sn0 Zr5 3.154220 1_555
Sn0 Zr8 3.250468 1_566
Sn0 Zr8 3.250468 1_565
Sn1 Zr4 2.971337 1_555
Sn1 Zr5 2.973670 1_655
Sn1 Zr1 2.992147 1_656
Sn1 Zr2 2.992147 1_655
Sn1 Zr0 2.992640 1_556
Sn1 Zr3 2.992640 1_555
Sn1 Zr6 3.154220 1_555
Sn1 Zr9 3.250468 1_655
Sn1 Zr9 3.250468 1_656
Sn2 Zr8 2.960429 1_565
Sn2 Zr9 2.960429 1_655
Sn2 Zr3 2.988320 1_555
Sn2 Zr0 2.988320 1_555
Sn2 Zr2 2.988320 1_555
Sn2 Zr1 2.988320 1_555
Sn2 Zr7 3.162481 1_555
Sn2 Zr4 3.243603 1_555
Sn2 Zr4 3.243603 1_554
Sn3 Zr9 2.965175 1_555
Sn3 Zr7 2.979515 1_565
Sn3 Zr3 2.988394 1_565
Sn3 Zr0 2.988394 1_565
Sn3 Zr2 2.988929 1_555
Sn3 Zr1 2.988929 1_555
Sn3 Zr8 3.154454 1_565
Sn3 Zr5 3.250362 1_555
Sn3 Zr5 3.250362 1_554
Sn4 Zr8 2.965175 1_555
Sn4 Zr7 2.979515 1_655
Sn4 Zr2 2.988394 1_655
Sn4 Zr1 2.988394 1_655
Sn4 Zr3 2.988929 1_555
Sn4 Zr0 2.988929 1_555
Sn4 Zr9 3.154454 1_655
Sn4 Zr6 3.250362 1_554
Sn4 Zr6 3.250362 1_555
B0 Zr4 2.445385 1_444
B0 Zr9 2.445533 1_545
B0 Zr8 2.445533 1_455
B0 Zr6 2.448250 1_454
B0 Zr5 2.448250 1_544
B0 Zr7 2.457511 1_555
B1 Zr4 2.445385 1_445
B1 Zr9 2.445533 1_545
B1 Zr8 2.445533 1_455
B1 Zr6 2.448250 1_455
B1 Zr5 2.448250 1_545
B1 Zr7 2.457511 1_555
Sb0 Zr5 2.972479 1_545
Sb0 Zr6 2.972479 1_455
Sb0 Zr1 2.981574 1_556
Sb0 Zr2 2.981574 1_555
Sb0 Zr0 2.981574 1_556
Sb0 Zr3 2.981574 1_555
Sb0 Zr4 3.173538 1_555
Sb0 Zr7 3.238716 1_555
Sb0 Zr7 3.238716 1_556
