# generated using pymatgen
data_RbMg2Zn2As3
_symmetry_space_group_name_H-M   'P 1'
_cell_length_a   4.38243613
_cell_length_b   4.19784841
_cell_length_c   10.49725795
_cell_angle_alpha   90.00000000
_cell_angle_beta   90.00000000
_cell_angle_gamma   90.00000000
_symmetry_Int_Tables_number   1
_chemical_formula_structural   RbMg2Zn2As3
_chemical_formula_sum   'Rb1 Mg2 Zn2 As3'
_cell_volume   193.11598143
_cell_formula_units_Z   1
loop_
 _symmetry_equiv_pos_site_id
 _symmetry_equiv_pos_as_xyz
  1  'x, y, z'
loop_
 _atom_site_type_symbol
 _atom_site_label
 _atom_site_symmetry_multiplicity
 _atom_site_fract_x
 _atom_site_fract_y
 _atom_site_fract_z
 _atom_site_occupancy
  Rb  Rb0  1  0.00000000  0.00000000  0.50000000  1
  Mg  Mg0  1  0.00000000  0.50000000  0.15683990  1
  Mg  Mg1  1  0.00000000  0.50000000  0.84316010  1
  Zn  Zn0  1  0.50000000  0.00000000  0.83822980  1
  Zn  Zn1  1  0.50000000  0.00000000  0.16177020  1
  As  As0  1  0.00000000  0.00000000  0.00000000  1
  As  As1  1  0.50000000  0.50000000  0.28984686  1
  As  As2  1  0.50000000  0.50000000  0.71015314  1
loop_
_geom_bond_atom_site_label_1
_geom_bond_atom_site_label_2
_geom_bond_distance
_geom_bond_site_symmetry_2
Mg0 Zn1 3.034732 1_455
Mg0 Zn1 3.034732 1_555
Mg0 Zn1 3.034732 1_465
Mg0 Zn1 3.034732 1_565
Mg1 Zn0 3.034732 1_555
Mg1 Zn0 3.034732 1_565
Mg1 Zn0 3.034732 1_455
Mg1 Zn0 3.034732 1_465
As0 Mg0 2.667598 1_545
As0 Mg0 2.667598 1_555
As0 Mg1 2.667598 1_544
As0 Mg1 2.667598 1_554
As0 Zn1 2.772206 1_555
As0 Zn1 2.772206 1_455
As0 Zn0 2.772206 1_454
As0 Zn0 2.772206 1_554
As1 Zn1 2.492597 1_565
As1 Zn1 2.492597 1_555
As1 Mg0 2.598237 1_655
As1 Mg0 2.598237 1_555
As1 Rb0 3.751466 1_565
As1 Rb0 3.751466 1_655
As1 Rb0 3.751466 1_665
As1 Rb0 3.751466 1_555
As2 Zn0 2.492597 1_565
As2 Zn0 2.492597 1_555
As2 Mg1 2.598237 1_555
As2 Mg1 2.598237 1_655
As2 Rb0 3.751466 1_555
As2 Rb0 3.751466 1_565
As2 Rb0 3.751466 1_655
As2 Rb0 3.751466 1_665
