# generated using pymatgen
data_BaScGe4N7
_symmetry_space_group_name_H-M   'P 1'
_cell_length_a   6.18346332
_cell_length_b   6.18346237
_cell_length_c   10.08523464
_cell_angle_alpha   90.00000000
_cell_angle_beta   90.00000000
_cell_angle_gamma   119.99999464
_symmetry_Int_Tables_number   1
_chemical_formula_structural   BaScGe4N7
_chemical_formula_sum   'Ba2 Sc2 Ge8 N14'
_cell_volume   333.94901981
_cell_formula_units_Z   2
loop_
 _symmetry_equiv_pos_site_id
 _symmetry_equiv_pos_as_xyz
  1  'x, y, z'
loop_
 _atom_site_type_symbol
 _atom_site_label
 _atom_site_symmetry_multiplicity
 _atom_site_fract_x
 _atom_site_fract_y
 _atom_site_fract_z
 _atom_site_occupancy
  Ba  Ba0  1  0.66666700  0.33333300  0.57696252  1
  Ba  Ba1  1  0.33333300  0.66666700  0.07696252  1
  Sc  Sc0  1  0.66666700  0.33333300  0.95079306  1
  Sc  Sc1  1  0.33333300  0.66666700  0.45079306  1
  Ge  Ge0  1  0.17365616  0.34731332  0.76130411  1
  Ge  Ge1  1  0.82634384  0.17365616  0.26130411  1
  Ge  Ge2  1  0.34731332  0.17365616  0.26130411  1
  Ge  Ge3  1  0.65268668  0.82634384  0.76130411  1
  Ge  Ge4  1  0.17365616  0.82634384  0.76130411  1
  Ge  Ge5  1  0.82634384  0.65268668  0.26130411  1
  Ge  Ge6  1  0.00000000  0.00000000  0.02360088  1
  Ge  Ge7  1  0.00000000  0.00000000  0.52360088  1
  N  N0  1  0.00000000  0.00000000  0.83083163  1
  N  N1  1  0.00000000  0.00000000  0.33083163  1
  N  N2  1  0.83752886  0.67505672  0.07922502  1
  N  N3  1  0.16247114  0.83752886  0.57922502  1
  N  N4  1  0.67505672  0.83752886  0.57922502  1
  N  N5  1  0.32494328  0.16247114  0.07922502  1
  N  N6  1  0.83752886  0.16247114  0.07922502  1
  N  N7  1  0.16247114  0.32494328  0.57922502  1
  N  N8  1  0.49715891  0.50284109  0.82301518  1
  N  N9  1  0.99431981  0.49715891  0.32301518  1
  N  N10  1  0.50284109  0.00568019  0.32301518  1
  N  N11  1  0.49715891  0.99431981  0.82301518  1
  N  N12  1  0.50284109  0.49715891  0.32301518  1
  N  N13  1  0.00568019  0.50284109  0.82301518  1
loop_
_geom_bond_atom_site_label_1
_geom_bond_atom_site_label_2
_geom_bond_distance
_geom_bond_site_symmetry_2
Ba0 N11 3.074673 1_545
Ba0 N13 3.074673 1_655
Ba0 N8 3.074682 1_555
Ba0 N4 3.092136 1_545
Ba0 N7 3.092136 1_655
Ba0 N3 3.092142 1_655
Ba0 N3 3.092142 1_545
Ba0 N4 3.092148 1_555
Ba0 N7 3.092148 1_555
Ba0 N12 3.104497 1_555
Ba0 N10 3.104500 1_555
Ba0 N9 3.104501 1_555
Ba1 N10 3.074673 1_565
Ba1 N9 3.074673 1_455
Ba1 N12 3.074682 1_555
Ba1 N5 3.092136 1_565
Ba1 N2 3.092136 1_455
Ba1 N6 3.092142 1_455
Ba1 N6 3.092142 1_565
Ba1 N5 3.092148 1_555
Ba1 N2 3.092148 1_555
Ba1 N8 3.104497 1_554
Ba1 N11 3.104500 1_554
Ba1 N13 3.104501 1_554
Ge0 N7 1.840214 1_555
Ge0 N8 1.841176 1_555
Ge0 N13 1.841181 1_555
Ge0 N0 1.987667 1_555
Ge1 N6 1.840214 1_555
Ge1 N9 1.841176 1_555
Ge1 N10 1.841176 1_555
Ge1 N1 1.987662 1_655
Ge2 N5 1.840214 1_555
Ge2 N12 1.841176 1_555
Ge2 N10 1.841181 1_555
Ge2 N1 1.987667 1_555
Ge3 N4 1.840214 1_555
Ge3 N8 1.841176 1_555
Ge3 N11 1.841181 1_555
Ge3 N0 1.987667 1_665
Ge4 N3 1.840214 1_555
Ge4 N13 1.841176 1_555
Ge4 N11 1.841176 1_555
Ge4 N0 1.987662 1_565
Ge5 N2 1.840214 1_555
Ge5 N12 1.841176 1_555
Ge5 N9 1.841181 1_555
Ge5 N1 1.987667 1_665
Ge6 N6 1.828270 1_455
Ge6 N2 1.828275 1_445
Ge6 N5 1.828275 1_555
Ge6 N0 1.944123 1_554
Ge7 N3 1.828270 1_545
Ge7 N7 1.828275 1_555
Ge7 N4 1.828275 1_445
Ge7 N1 1.944123 1_555
N2 Sc0 2.241965 1_554
N3 Sc1 2.241965 1_555
N4 Sc1 2.241965 1_555
N5 Sc0 2.241965 1_554
N6 Sc0 2.241965 1_554
N7 Sc1 2.241965 1_555
N8 Sc0 2.226321 1_555
N9 Sc1 2.226308 1_655
N10 Sc1 2.226308 1_545
N11 Sc0 2.226308 1_565
N12 Sc1 2.226321 1_555
N13 Sc0 2.226308 1_455
