# generated using pymatgen
data_SrCa7(As2O)2
_symmetry_space_group_name_H-M   'P 1'
_cell_length_a   8.44479599
_cell_length_b   8.44479606
_cell_length_c   6.45671970
_cell_angle_alpha   89.98157864
_cell_angle_beta   89.98158139
_cell_angle_gamma   44.95120329
_symmetry_Int_Tables_number   1
_chemical_formula_structural   SrCa7(As2O)2
_chemical_formula_sum   'Sr1 Ca7 As4 O2'
_cell_volume   325.31571977
_cell_formula_units_Z   1
loop_
 _symmetry_equiv_pos_site_id
 _symmetry_equiv_pos_as_xyz
  1  'x, y, z'
loop_
 _atom_site_type_symbol
 _atom_site_label
 _atom_site_symmetry_multiplicity
 _atom_site_fract_x
 _atom_site_fract_y
 _atom_site_fract_z
 _atom_site_occupancy
  Sr  Sr0  1  0.67486086  0.67486086  0.99898482  1
  Ca  Ca0  1  0.33180362  0.33180362  0.00067746  1
  Ca  Ca1  1  0.74964787  0.24948292  0.25013211  1
  Ca  Ca2  1  0.24948292  0.74964787  0.25013211  1
  Ca  Ca3  1  0.83087518  0.83087518  0.49908955  1
  Ca  Ca4  1  0.17283019  0.17283019  0.50059625  1
  Ca  Ca5  1  0.74925407  0.24895439  0.75004322  1
  Ca  Ca6  1  0.24895439  0.74925407  0.75004322  1
  As  As0  1  0.86849963  0.86849963  0.00030970  1
  As  As1  1  0.36280793  0.36280793  0.50012743  1
  As  As2  1  0.63625036  0.63625036  0.49982192  1
  As  As3  1  0.13701747  0.13701747  0.99991321  1
  O  O0  1  0.49168318  0.49168318  0.00008152  1
  O  O1  1  0.99602833  0.99602833  0.50004650  1
loop_
_geom_bond_atom_site_label_1
_geom_bond_atom_site_label_2
_geom_bond_distance
_geom_bond_site_symmetry_2
Ca0 O0 2.495194 1_555
Ca1 O1 2.282682 1_545
Ca1 O0 2.286744 1_555
Ca2 O1 2.282682 1_455
Ca2 O0 2.286745 1_555
Ca3 O1 2.577505 1_555
Ca4 O1 2.759297 1_445
Ca5 O1 2.282613 1_545
Ca5 O0 2.286561 1_556
Ca6 O1 2.282613 1_455
Ca6 O0 2.286561 1_556
As0 Sr0 3.022077 1_554
As0 Ca5 3.060391 1_564
As0 Ca6 3.060391 1_654
As0 Ca2 3.064656 1_655
As0 Ca1 3.064656 1_565
As0 Ca3 3.273375 1_555
As0 Ca0 3.278766 1_565
As0 Ca0 3.278766 1_655
As0 Ca3 3.289279 1_554
As1 Ca4 2.964926 1_555
As1 Ca5 3.120836 1_555
As1 Ca6 3.120836 1_555
As1 Ca2 3.125021 1_555
As1 Ca1 3.125021 1_555
As1 Ca0 3.261075 1_555
As1 Ca3 3.266608 1_455
As1 Ca3 3.266608 1_545
As1 Ca0 3.267766 1_556
As2 Ca3 3.037453 1_555
As2 Ca2 3.123996 1_555
As2 Ca1 3.123996 1_555
As2 Ca5 3.130143 1_555
As2 Ca6 3.130143 1_555
As2 Ca4 3.278453 1_655
As2 Ca4 3.278453 1_565
As2 Sr0 3.279008 1_555
As2 Sr0 3.289222 1_554
As3 Ca0 3.039974 1_556
As3 Ca2 3.132628 1_546
As3 Ca1 3.132628 1_456
As3 Ca5 3.136947 1_455
As3 Ca6 3.136947 1_545
As3 Ca4 3.271848 1_555
As3 Ca4 3.280922 1_556
As3 Sr0 3.281946 1_545
As3 Sr0 3.281946 1_455
O0 Sr0 2.858805 1_554
