# generated using pymatgen
data_LuInCu3Ir
_symmetry_space_group_name_H-M   'P 1'
_cell_length_a   5.17828753
_cell_length_b   5.17828667
_cell_length_c   5.17828672
_cell_angle_alpha   57.64100177
_cell_angle_beta   57.64100747
_cell_angle_gamma   57.64101028
_symmetry_Int_Tables_number   1
_chemical_formula_structural   LuInCu3Ir
_chemical_formula_sum   'Lu1 In1 Cu3 Ir1'
_cell_volume   92.86143304
_cell_formula_units_Z   1
loop_
 _symmetry_equiv_pos_site_id
 _symmetry_equiv_pos_as_xyz
  1  'x, y, z'
loop_
 _atom_site_type_symbol
 _atom_site_label
 _atom_site_symmetry_multiplicity
 _atom_site_fract_x
 _atom_site_fract_y
 _atom_site_fract_z
 _atom_site_occupancy
  Lu  Lu0  1  0.25168943  0.25168943  0.25168943  1
  In  In0  1  0.99914611  0.99914611  0.99914611  1
  Cu  Cu0  1  0.62412405  0.62412405  0.12507981  1
  Cu  Cu1  1  0.62412405  0.12507981  0.62412405  1
  Cu  Cu2  1  0.12507981  0.62412405  0.62412405  1
  Ir  Ir0  1  0.62583655  0.62583655  0.62583655  1
loop_
_geom_bond_atom_site_label_1
_geom_bond_atom_site_label_2
_geom_bond_distance
_geom_bond_site_symmetry_2
In0 Ir0 2.928265 1_556
In0 Ir0 2.928265 1_565
In0 Ir0 2.928266 1_655
In0 Lu0 3.065236 1_665
In0 Lu0 3.065236 1_656
In0 Lu0 3.065237 1_566
In0 Lu0 3.259226 1_666
Cu0 Cu1 2.491510 1_555
Cu0 Cu2 2.491511 1_555
Cu0 Cu1 2.501054 1_564
Cu0 Cu2 2.501054 1_654
Cu0 Ir0 2.575762 1_554
Cu0 Ir0 2.602584 1_555
Cu0 In0 2.974259 1_544
Cu0 In0 2.974259 1_454
Cu0 Lu0 2.988017 1_565
Cu0 Lu0 2.988018 1_655
Cu0 Lu0 3.023751 1_555
Cu0 In0 3.048519 1_554
Cu1 Cu2 2.491511 1_555
Cu1 Cu2 2.501054 1_645
Cu1 Ir0 2.575762 1_545
Cu1 Ir0 2.602584 1_555
Cu1 In0 2.974259 1_544
Cu1 In0 2.974259 1_445
Cu1 Lu0 2.988017 1_556
Cu1 Lu0 2.988017 1_655
Cu1 Lu0 3.023751 1_555
Cu1 In0 3.048519 1_545
Cu2 Ir0 2.575762 1_455
Cu2 Ir0 2.602584 1_555
Cu2 In0 2.974258 1_445
Cu2 In0 2.974258 1_454
Cu2 Lu0 2.988017 1_565
Cu2 Lu0 2.988017 1_556
Cu2 Lu0 3.023750 1_555
Cu2 In0 3.048519 1_455
Ir0 Lu0 2.930189 1_556
Ir0 Lu0 2.930189 1_565
Ir0 Lu0 2.930190 1_655
