# generated using pymatgen
data_HfMnCl6
_symmetry_space_group_name_H-M   'P 1'
_cell_length_a   6.38912449
_cell_length_b   6.38912319
_cell_length_c   12.06487746
_cell_angle_alpha   90.00000000
_cell_angle_beta   90.00000000
_cell_angle_gamma   119.99999167
_symmetry_Int_Tables_number   1
_chemical_formula_structural   HfMnCl6
_chemical_formula_sum   'Hf2 Mn2 Cl12'
_cell_volume   426.51685237
_cell_formula_units_Z   2
loop_
 _symmetry_equiv_pos_site_id
 _symmetry_equiv_pos_as_xyz
  1  'x, y, z'
loop_
 _atom_site_type_symbol
 _atom_site_label
 _atom_site_symmetry_multiplicity
 _atom_site_fract_x
 _atom_site_fract_y
 _atom_site_fract_z
 _atom_site_occupancy
  Hf  Hf0  1  0.33333300  0.66666700  0.25000000  1
  Hf  Hf1  1  0.66666700  0.33333300  0.75000000  1
  Mn  Mn0  1  0.00000000  0.00000000  0.25000000  1
  Mn  Mn1  1  0.00000000  0.00000000  0.75000000  1
  Cl  Cl0  1  0.65647633  0.97048043  0.13309701  1
  Cl  Cl1  1  0.02951957  0.68599589  0.13309701  1
  Cl  Cl2  1  0.31400411  0.34352367  0.13309701  1
  Cl  Cl3  1  0.02951957  0.34352367  0.36690299  1
  Cl  Cl4  1  0.34352367  0.31400411  0.63309701  1
  Cl  Cl5  1  0.68599589  0.02951957  0.63309701  1
  Cl  Cl6  1  0.97048043  0.65647633  0.63309701  1
  Cl  Cl7  1  0.68599589  0.65647633  0.86690299  1
  Cl  Cl8  1  0.97048043  0.31400411  0.86690299  1
  Cl  Cl9  1  0.34352367  0.02951957  0.86690299  1
  Cl  Cl10  1  0.65647633  0.68599589  0.36690299  1
  Cl  Cl11  1  0.31400411  0.97048043  0.36690299  1
loop_
_geom_bond_atom_site_label_1
_geom_bond_atom_site_label_2
_geom_bond_distance
_geom_bond_site_symmetry_2
Cl0 Hf0 2.451967 1_555
Cl0 Mn0 2.535374 1_665
Cl1 Hf0 2.451964 1_555
Cl1 Mn0 2.535374 1_565
Cl2 Hf0 2.451969 1_555
Cl2 Mn0 2.535374 1_555
Cl3 Hf0 2.451967 1_555
Cl3 Mn0 2.535374 1_555
Cl4 Hf1 2.451969 1_555
Cl4 Mn1 2.535374 1_555
Cl5 Hf1 2.451964 1_555
Cl5 Mn1 2.535374 1_655
Cl6 Hf1 2.451967 1_555
Cl6 Mn1 2.535374 1_665
Cl7 Hf1 2.451969 1_555
Cl7 Mn1 2.535374 1_665
Cl8 Hf1 2.451964 1_555
Cl8 Mn1 2.535374 1_655
Cl9 Hf1 2.451967 1_555
Cl9 Mn1 2.535374 1_555
Cl10 Hf0 2.451969 1_555
Cl10 Mn0 2.535374 1_665
Cl11 Hf0 2.451964 1_555
Cl11 Mn0 2.535374 1_565
