# generated using pymatgen
data_Y2TiIr3
_symmetry_space_group_name_H-M   'P 1'
_cell_length_a   5.16486813
_cell_length_b   5.61448927
_cell_length_c   5.61449012
_cell_angle_alpha   59.99999499
_cell_angle_beta   57.07594156
_cell_angle_gamma   57.07594644
_symmetry_Int_Tables_number   1
_chemical_formula_structural   Y2TiIr3
_chemical_formula_sum   'Y2 Ti1 Ir3'
_cell_volume   109.77014560
_cell_formula_units_Z   1
loop_
 _symmetry_equiv_pos_site_id
 _symmetry_equiv_pos_as_xyz
  1  'x, y, z'
loop_
 _atom_site_type_symbol
 _atom_site_label
 _atom_site_symmetry_multiplicity
 _atom_site_fract_x
 _atom_site_fract_y
 _atom_site_fract_z
 _atom_site_occupancy
  Y  Y0  1  0.50567675  0.49810808  0.49810808  1
  Y  Y1  1  0.74432325  0.75189192  0.75189192  1
  Ti  Ti0  1  0.62500000  0.12500000  0.12500000  1
  Ir  Ir0  1  0.12500000  0.12500000  0.12500000  1
  Ir  Ir1  1  0.12500000  0.12500000  0.62500000  1
  Ir  Ir2  1  0.12500000  0.62500000  0.12500000  1
loop_
_geom_bond_atom_site_label_1
_geom_bond_atom_site_label_2
_geom_bond_distance
_geom_bond_site_symmetry_2
Y0 Y1 3.061395 1_455
Y0 Y1 3.380574 1_555
Y0 Y1 3.380583 1_545
Y0 Y1 3.380583 1_554
Ti0 Y1 3.276842 1_554
Ti0 Y0 3.276842 1_545
Ti0 Y1 3.276842 1_545
Ti0 Y0 3.276842 1_554
Ti0 Y0 3.276847 1_555
Ti0 Y1 3.276847 1_544
Ir0 Ti0 2.582434 1_455
Ir0 Ti0 2.582434 1_555
Ir0 Ir2 2.807245 1_555
Ir0 Ir2 2.807245 1_545
Ir0 Ir1 2.807245 1_554
Ir0 Ir1 2.807245 1_555
Ir0 Y0 2.971270 1_455
Ir0 Y1 2.971270 1_544
Ir0 Y0 3.197445 1_554
Ir0 Y1 3.197445 1_445
Ir0 Y1 3.197446 1_454
Ir0 Y0 3.197446 1_545
Ir1 Ti0 2.582434 1_456
Ir1 Ti0 2.582434 1_555
Ir1 Ir2 2.807245 1_546
Ir1 Ir2 2.807245 1_555
Ir1 Y1 2.971267 1_545
Ir1 Y0 2.971267 1_455
Ir1 Y1 3.197443 1_455
Ir1 Y0 3.197443 1_545
Ir1 Y0 3.197448 1_555
Ir1 Y1 3.197448 1_445
Ir2 Ti0 2.582434 1_465
Ir2 Ti0 2.582434 1_555
Ir2 Y1 2.971267 1_554
Ir2 Y0 2.971267 1_455
Ir2 Y1 3.197443 1_455
Ir2 Y0 3.197443 1_554
Ir2 Y0 3.197448 1_555
Ir2 Y1 3.197448 1_454
