# generated using pymatgen
data_BaAu5
_symmetry_space_group_name_H-M   'P 1'
_cell_length_a   5.85537691
_cell_length_b   5.85537839
_cell_length_c   4.52495127
_cell_angle_alpha   90.00000000
_cell_angle_beta   90.00000000
_cell_angle_gamma   120.00000952
_symmetry_Int_Tables_number   1
_chemical_formula_structural   BaAu5
_chemical_formula_sum   'Ba1 Au5'
_cell_volume   134.35514987
_cell_formula_units_Z   1
loop_
 _symmetry_equiv_pos_site_id
 _symmetry_equiv_pos_as_xyz
  1  'x, y, z'
loop_
 _atom_site_type_symbol
 _atom_site_label
 _atom_site_symmetry_multiplicity
 _atom_site_fract_x
 _atom_site_fract_y
 _atom_site_fract_z
 _atom_site_occupancy
  Ba  Ba0  1  0.00000000  0.00000000  -0.00000000  1
  Au  Au0  1  0.66666700  0.33333300  -0.00000000  1
  Au  Au1  1  0.50000000  0.00000000  0.50000000  1
  Au  Au2  1  0.50000000  0.50000000  0.50000000  1
  Au  Au3  1  0.00000000  0.50000000  0.50000000  1
  Au  Au4  1  0.33333300  0.66666700  0.00000000  1
loop_
_geom_bond_atom_site_label_1
_geom_bond_atom_site_label_2
_geom_bond_distance
_geom_bond_site_symmetry_2
Au0 Au3 2.824165 1_654
Au0 Au3 2.824165 1_655
Au0 Au1 2.824166 1_555
Au0 Au1 2.824166 1_554
Au0 Au2 2.824169 1_555
Au0 Au2 2.824169 1_554
Au0 Ba0 3.380601 1_655
Au0 Ba0 3.380605 1_555
Au0 Ba0 3.380606 1_665
Au1 Au4 2.824166 1_545
Au1 Au4 2.824166 1_546
Au1 Au3 2.927688 1_545
Au1 Au3 2.927688 1_655
Au1 Au2 2.927689 1_555
Au1 Au2 2.927689 1_545
Au1 Ba0 3.700021 1_655
Au1 Ba0 3.700021 1_556
Au1 Ba0 3.700021 1_555
Au1 Ba0 3.700021 1_656
Au2 Au4 2.824169 1_556
Au2 Au4 2.824169 1_555
Au2 Au3 2.927688 1_555
Au2 Au3 2.927688 1_655
Au2 Ba0 3.700021 1_666
Au2 Ba0 3.700021 1_556
Au2 Ba0 3.700021 1_555
Au2 Ba0 3.700021 1_665
Au3 Au4 2.824165 1_555
Au3 Au4 2.824165 1_556
Au3 Ba0 3.700022 1_556
Au3 Ba0 3.700022 1_555
Au3 Ba0 3.700022 1_566
Au3 Ba0 3.700022 1_565
Au4 Ba0 3.380601 1_565
Au4 Ba0 3.380605 1_665
Au4 Ba0 3.380606 1_555
