# generated using pymatgen
data_YHfAgS4
_symmetry_space_group_name_H-M   'P 1'
_cell_length_a   7.74270232
_cell_length_b   7.74270311
_cell_length_c   7.74270276
_cell_angle_alpha   118.81380811
_cell_angle_beta   121.69710069
_cell_angle_gamma   89.57638726
_symmetry_Int_Tables_number   1
_chemical_formula_structural   YHfAgS4
_chemical_formula_sum   'Y2 Hf2 Ag2 S8'
_cell_volume   326.68011234
_cell_formula_units_Z   2
loop_
 _symmetry_equiv_pos_site_id
 _symmetry_equiv_pos_as_xyz
  1  'x, y, z'
loop_
 _atom_site_type_symbol
 _atom_site_label
 _atom_site_symmetry_multiplicity
 _atom_site_fract_x
 _atom_site_fract_y
 _atom_site_fract_z
 _atom_site_occupancy
  Y  Y0  1  0.00000000  0.00000000  0.50000000  1
  Y  Y1  1  0.00000000  0.50000000  0.00000000  1
  Hf  Hf0  1  0.00000000  0.00000000  0.00000000  1
  Hf  Hf1  1  0.50000000  0.00000000  0.50000000  1
  Ag  Ag0  1  0.37049197  0.62049197  0.75000000  1
  Ag  Ag1  1  0.62950803  0.37950803  0.25000000  1
  S  S0  1  0.24923829  0.77721878  0.02798049  1
  S  S1  1  0.75076171  0.77874220  0.52798049  1
  S  S2  1  0.22422644  0.22995655  0.99426989  1
  S  S3  1  0.73568567  0.22995655  0.50573011  1
  S  S4  1  0.77577356  0.77004345  0.00573011  1
  S  S5  1  0.26431433  0.77004345  0.49426989  1
  S  S6  1  0.75076171  0.22278122  0.97201951  1
  S  S7  1  0.24923829  0.22125780  0.47201951  1
loop_
_geom_bond_atom_site_label_1
_geom_bond_atom_site_label_2
_geom_bond_distance
_geom_bond_site_symmetry_2
Hf0 S2 2.527647 1_554
Hf0 S4 2.527647 1_445
Hf0 S7 2.572550 1_555
Hf0 S1 2.572550 1_444
Hf0 S6 2.572550 1_454
Hf0 S0 2.572550 1_545
Hf1 S3 2.527641 1_555
Hf1 S5 2.527641 1_545
Hf1 S0 2.572550 1_545
Hf1 S6 2.572550 1_555
Hf1 S7 2.572550 1_555
Hf1 S1 2.572550 1_545
Ag0 S4 2.534289 1_556
Ag0 S5 2.534290 1_555
Ag0 S0 2.564258 1_556
Ag0 S7 2.564258 1_555
Ag1 S2 2.534289 1_554
Ag1 S3 2.534290 1_555
Ag1 S6 2.564258 1_554
Ag1 S1 2.564258 1_555
S0 Y1 2.748050 1_555
S1 Y0 2.748050 1_665
S2 Y0 2.706593 1_555
S2 Y1 2.706593 1_556
S3 Y1 2.706593 1_656
S3 Y0 2.706599 1_655
S4 Y0 2.706593 1_665
S4 Y1 2.706593 1_655
S5 Y1 2.706593 1_555
S5 Y0 2.706599 1_565
S6 Y1 2.748050 1_656
S7 Y0 2.748050 1_555
