# generated using pymatgen
data_RbVPdSe4
_symmetry_space_group_name_H-M   'P 1'
_cell_length_a   8.57102699
_cell_length_b   8.57102722
_cell_length_c   8.57102762
_cell_angle_alpha   118.83203570
_cell_angle_beta   118.83203682
_cell_angle_gamma   92.03516659
_symmetry_Int_Tables_number   1
_chemical_formula_structural   RbVPdSe4
_chemical_formula_sum   'Rb2 V2 Pd2 Se8'
_cell_volume   452.78010980
_cell_formula_units_Z   2
loop_
 _symmetry_equiv_pos_site_id
 _symmetry_equiv_pos_as_xyz
  1  'x, y, z'
loop_
 _atom_site_type_symbol
 _atom_site_label
 _atom_site_symmetry_multiplicity
 _atom_site_fract_x
 _atom_site_fract_y
 _atom_site_fract_z
 _atom_site_occupancy
  Rb  Rb0  1  0.25000000  0.25000000  0.00000000  1
  Rb  Rb1  1  0.75000000  0.75000000  0.00000000  1
  V  V0  1  0.75000000  0.25000000  0.50000000  1
  V  V1  1  0.25000000  0.75000000  0.50000000  1
  Pd  Pd0  1  0.50000000  0.00000000  0.50000000  1
  Pd  Pd1  1  0.00000000  0.50000000  0.50000000  1
  Se  Se0  1  0.21413280  0.71413180  0.20183728  1
  Se  Se1  1  0.48770448  0.98770448  0.20183728  1
  Se  Se2  1  0.01229452  0.21413180  0.50000000  1
  Se  Se3  1  0.28586720  0.48770548  0.50000000  1
  Se  Se4  1  0.71413180  0.51229452  0.50000000  1
  Se  Se5  1  0.98770448  0.78586720  0.50000000  1
  Se  Se6  1  0.51229452  0.01229452  0.79816172  1
  Se  Se7  1  0.78586720  0.28586720  0.79816172  1
loop_
_geom_bond_atom_site_label_1
_geom_bond_atom_site_label_2
_geom_bond_distance
_geom_bond_site_symmetry_2
Rb0 Se0 3.588133 1_555
Rb0 Se4 3.588136 1_555
Rb0 Se2 3.588137 1_554
Rb0 Se7 3.588141 1_454
Rb0 Se6 3.588141 1_554
Rb0 Se5 3.588141 1_444
Rb0 Se1 3.588141 1_545
Rb0 Se3 3.588141 1_555
Rb1 Se2 3.588136 1_665
Rb1 Se4 3.588137 1_554
Rb1 Se3 3.588141 1_554
Rb1 Se7 3.588141 1_554
Rb1 Se6 3.588141 1_564
Rb1 Se1 3.588141 1_555
Rb1 Se5 3.588141 1_555
Rb1 Se0 3.588144 1_655
Pd0 Se7 2.456176 1_555
Pd0 Se6 2.456177 1_555
Pd0 Se1 2.456177 1_545
Pd0 Se0 2.456181 1_545
Pd1 Se3 2.456176 1_555
Pd1 Se5 2.456177 1_455
Pd1 Se4 2.456185 1_455
Pd1 Se2 2.456185 1_555
Se0 V1 2.279851 1_555
Se1 V0 2.279854 1_565
Se2 V0 2.279847 1_455
Se3 V1 2.279846 1_555
Se4 V0 2.279847 1_555
Se5 V1 2.279854 1_655
Se6 V1 2.279846 1_545
Se7 V0 2.279846 1_555
