# generated using pymatgen
data_SrSiHgSe4
_symmetry_space_group_name_H-M   'P 1'
_cell_length_a   6.33693154
_cell_length_b   6.33693163
_cell_length_c   10.87952761
_cell_angle_alpha   90.00000000
_cell_angle_beta   90.00000000
_cell_angle_gamma   116.47181910
_symmetry_Int_Tables_number   1
_chemical_formula_structural   SrSiHgSe4
_chemical_formula_sum   'Sr2 Si2 Hg2 Se8'
_cell_volume   391.08007854
_cell_formula_units_Z   2
loop_
 _symmetry_equiv_pos_site_id
 _symmetry_equiv_pos_as_xyz
  1  'x, y, z'
loop_
 _atom_site_type_symbol
 _atom_site_label
 _atom_site_symmetry_multiplicity
 _atom_site_fract_x
 _atom_site_fract_y
 _atom_site_fract_z
 _atom_site_occupancy
  Sr  Sr0  1  0.94277088  0.94277088  0.50000000  1
  Sr  Sr1  1  0.94277088  0.94277088  0.00000000  1
  Si  Si0  1  0.24009046  0.67430540  0.75000000  1
  Si  Si1  1  0.67430540  0.24009046  0.25000000  1
  Hg  Hg0  1  0.67071453  0.33789220  0.75000000  1
  Hg  Hg1  1  0.33789220  0.67071453  0.25000000  1
  Se  Se0  1  0.02902891  0.47946147  0.58057902  1
  Se  Se1  1  0.47946147  0.02902891  0.41942098  1
  Se  Se2  1  0.62599420  0.75986354  0.75000000  1
  Se  Se3  1  0.75986354  0.62599420  0.25000000  1
  Se  Se4  1  0.02902891  0.47946147  0.91942098  1
  Se  Se5  1  0.47946147  0.02902891  0.08057902  1
  Se  Se6  1  0.23327850  0.03613865  0.75000000  1
  Se  Se7  1  0.03613865  0.23327850  0.25000000  1
loop_
_geom_bond_atom_site_label_1
_geom_bond_atom_site_label_2
_geom_bond_distance
_geom_bond_site_symmetry_2
Hg0 Se6 2.571946 1_555
Hg0 Se4 2.746260 1_655
Hg0 Se0 2.746260 1_655
Hg0 Se2 2.811793 1_555
Hg1 Se7 2.571946 1_555
Hg1 Se1 2.746260 1_565
Hg1 Se5 2.746260 1_565
Hg1 Se3 2.811793 1_555
Se0 Si0 2.288795 1_555
Se0 Sr0 3.313094 1_445
Se0 Sr0 3.334353 1_455
Se1 Si1 2.288795 1_555
Se1 Sr0 3.313094 1_445
Se1 Sr0 3.334353 1_545
Se2 Si0 2.256575 1_555
Se2 Sr1 3.270555 1_556
Se2 Sr0 3.270555 1_555
Se3 Si1 2.256575 1_555
Se3 Sr0 3.270555 1_555
Se3 Sr1 3.270555 1_555
Se4 Si0 2.288795 1_555
Se4 Sr1 3.313094 1_446
Se4 Sr1 3.334353 1_456
Se5 Si1 2.288795 1_555
Se5 Sr1 3.313094 1_445
Se5 Sr1 3.334353 1_545
Se6 Si0 2.312477 1_545
Se6 Sr1 3.188383 1_446
Se6 Sr0 3.188383 1_445
Se7 Si1 2.312477 1_455
Se7 Sr0 3.188383 1_445
Se7 Sr1 3.188383 1_445
