# generated using pymatgen
data_K5SrNbSb4
_symmetry_space_group_name_H-M   'P 1'
_cell_length_a   11.02385219
_cell_length_b   11.02385285
_cell_length_c   8.38720354
_cell_angle_alpha   88.57360687
_cell_angle_beta   88.57360911
_cell_angle_gamma   120.64096909
_symmetry_Int_Tables_number   1
_chemical_formula_structural   K5SrNbSb4
_chemical_formula_sum   'K10 Sr2 Nb2 Sb8'
_cell_volume   875.83776295
_cell_formula_units_Z   2
loop_
 _symmetry_equiv_pos_site_id
 _symmetry_equiv_pos_as_xyz
  1  'x, y, z'
loop_
 _atom_site_type_symbol
 _atom_site_label
 _atom_site_symmetry_multiplicity
 _atom_site_fract_x
 _atom_site_fract_y
 _atom_site_fract_z
 _atom_site_occupancy
  K  K0  1  0.46914999  0.52410640  0.60694034  1
  K  K1  1  0.05167326  0.52557023  0.61102522  1
  K  K2  1  0.52410640  0.46914999  0.10694034  1
  K  K3  1  0.52557023  0.05167326  0.11102522  1
  K  K4  1  0.86352353  0.14428546  0.78890757  1
  K  K5  1  0.29488493  0.15374599  0.82530042  1
  K  K6  1  0.85409359  0.71399336  0.76977417  1
  K  K7  1  0.14428546  0.86352353  0.28890757  1
  K  K8  1  0.71399336  0.85409359  0.26977417  1
  K  K9  1  0.15374599  0.29488493  0.32530042  1
  Sr  Sr0  1  0.46871765  0.94373548  0.60468207  1
  Sr  Sr1  1  0.94373548  0.46871765  0.10468207  1
  Nb  Nb0  1  0.66931486  0.33105373  0.49821553  1
  Nb  Nb1  1  0.33105373  0.66931486  0.99821553  1
  Sb  Sb0  1  0.68244756  0.33632794  0.81932075  1
  Sb  Sb1  1  0.33632794  0.68244756  0.31932075  1
  Sb  Sb2  1  0.19255073  0.79750110  0.89048713  1
  Sb  Sb3  1  0.59661071  0.80379818  0.87165096  1
  Sb  Sb4  1  0.18719295  0.39572038  0.92089484  1
  Sb  Sb5  1  0.79750110  0.19255073  0.39048713  1
  Sb  Sb6  1  0.39572038  0.18719295  0.42089484  1
  Sb  Sb7  1  0.80379818  0.59661071  0.37165096  1
loop_
_geom_bond_atom_site_label_1
_geom_bond_atom_site_label_2
_geom_bond_distance
_geom_bond_site_symmetry_2
K0 Sb3 3.534156 1_555
K0 Sb4 3.677086 1_555
K0 Sb1 3.685308 1_555
K0 Sb6 3.764493 1_555
K0 Sb7 3.833567 1_555
K1 Sb2 3.560577 1_555
K1 Sb1 3.563575 1_555
K1 Sb4 3.636386 1_555
K1 Nb0 3.787694 1_455
K1 Sb7 3.806178 1_455
K1 Sb0 3.844562 1_455
K1 Sb5 3.854964 1_455
K2 Sb7 3.534155 1_555
K2 Sb6 3.677086 1_555
K2 Sb0 3.685308 1_554
K2 Sb4 3.764493 1_554
K2 Sb3 3.833567 1_554
K3 Sb5 3.560577 1_555
K3 Sb0 3.563575 1_554
K3 Sb6 3.636386 1_555
K3 Nb1 3.787694 1_544
K3 Sb3 3.806178 1_544
K3 Sb1 3.844562 1_545
K3 Sb2 3.854964 1_544
K4 Sb3 3.426234 1_545
K4 Sb4 3.450783 1_655
K4 Sb5 3.522305 1_555
K4 Sb0 3.583392 1_555
K5 Sb6 3.494048 1_555
K5 Sb2 3.512962 1_545
K5 Sb4 3.529133 1_555
K5 Sb0 3.677804 1_555
K6 Sb2 3.539348 1_655
K6 Sb3 3.542980 1_555
K6 Sb7 3.564786 1_555
K6 Sb0 3.595988 1_555
K7 Sb7 3.426234 1_455
K7 Sb6 3.450783 1_565
K7 Sb2 3.522305 1_554
K7 Sb1 3.583392 1_555
K8 Sb5 3.539349 1_565
K8 Sb7 3.542980 1_555
K8 Sb3 3.564786 1_554
K8 Sb1 3.595988 1_555
K9 Sb4 3.494048 1_554
K9 Sb5 3.512961 1_455
K9 Sb6 3.529133 1_555
K9 Sb1 3.677804 1_555
Nb0 Sb7 2.690320 1_555
Nb0 Sb0 2.701140 1_555
Nb0 Sb6 2.702833 1_555
Nb0 Sb5 2.710877 1_555
Nb1 Sb3 2.690320 1_555
Nb1 Sb1 2.701140 1_556
Nb1 Sb4 2.702833 1_555
Nb1 Sb2 2.710877 1_555
Sb0 Sr1 3.519532 1_556
Sb1 Sr0 3.519532 1_555
Sb2 Sr0 3.472042 1_555
Sb2 Sr1 3.631059 1_456
Sb3 Sr0 3.403428 1_555
Sb4 Sr1 3.504836 1_456
Sb5 Sr1 3.472042 1_555
Sb5 Sr0 3.631059 1_545
Sb6 Sr0 3.504836 1_545
Sb7 Sr1 3.403428 1_555
