# generated using pymatgen
data_BaSn2IF5
_symmetry_space_group_name_H-M   'P 1'
_cell_length_a   5.93627483
_cell_length_b   5.93627483
_cell_length_c   9.93684089
_cell_angle_alpha   90.00000000
_cell_angle_beta   90.00000000
_cell_angle_gamma   90.00000000
_symmetry_Int_Tables_number   1
_chemical_formula_structural   BaSn2IF5
_chemical_formula_sum   'Ba2 Sn4 I2 F10'
_cell_volume   350.16790162
_cell_formula_units_Z   2
loop_
 _symmetry_equiv_pos_site_id
 _symmetry_equiv_pos_as_xyz
  1  'x, y, z'
loop_
 _atom_site_type_symbol
 _atom_site_label
 _atom_site_symmetry_multiplicity
 _atom_site_fract_x
 _atom_site_fract_y
 _atom_site_fract_z
 _atom_site_occupancy
  Ba  Ba0  1  0.50000000  0.50000000  0.00000000  1
  Ba  Ba1  1  0.00000000  0.00000000  0.00000000  1
  Sn  Sn0  1  0.50000000  0.00000000  0.68946242  1
  Sn  Sn1  1  0.00000000  0.50000000  0.73759445  1
  Sn  Sn2  1  0.50000000  0.00000000  0.26240555  1
  Sn  Sn3  1  0.00000000  0.50000000  0.31053758  1
  I  I0  1  0.50000000  0.50000000  0.50000000  1
  I  I1  1  0.00000000  0.00000000  0.50000000  1
  F  F0  1  0.50000000  0.00000000  0.04256194  1
  F  F1  1  0.76549962  0.26549962  0.18219005  1
  F  F2  1  0.26549962  0.23450038  0.81780995  1
  F  F3  1  0.76549962  0.73450038  0.18219005  1
  F  F4  1  0.73450038  0.76549962  0.81780995  1
  F  F5  1  0.23450038  0.26549962  0.18219005  1
  F  F6  1  0.00000000  0.50000000  0.95743806  1
  F  F7  1  0.73450038  0.23450038  0.81780995  1
  F  F8  1  0.26549962  0.76549962  0.81780995  1
  F  F9  1  0.23450038  0.73450038  0.18219005  1
loop_
_geom_bond_atom_site_label_1
_geom_bond_atom_site_label_2
_geom_bond_distance
_geom_bond_site_symmetry_2
Ba0 F5 2.774775 1_555
Ba0 F9 2.774775 1_555
Ba0 F3 2.774775 1_555
Ba0 F1 2.774775 1_555
Ba0 F2 2.774775 1_554
Ba0 F7 2.774775 1_554
Ba0 F8 2.774775 1_554
Ba0 F4 2.774775 1_554
Ba0 F6 2.998118 1_654
Ba0 F0 2.998118 1_555
Ba0 F0 2.998118 1_565
Ba0 F6 2.998118 1_554
Ba1 F3 2.774775 1_445
Ba1 F1 2.774775 1_455
Ba1 F9 2.774775 1_545
Ba1 F5 2.774775 1_555
Ba1 F4 2.774775 1_444
Ba1 F8 2.774775 1_544
Ba1 F7 2.774775 1_454
Ba1 F2 2.774775 1_554
Ba1 F0 2.998118 1_455
Ba1 F0 2.998118 1_555
Ba1 F6 2.998118 1_544
Ba1 F6 2.998118 1_554
I0 Sn0 3.514860 1_565
I0 Sn0 3.514860 1_555
I0 Sn3 3.514860 1_555
I0 Sn3 3.514860 1_655
I1 Sn0 3.514860 1_455
I1 Sn0 3.514860 1_555
I1 Sn3 3.514860 1_555
I1 Sn3 3.514860 1_545
F0 Sn2 2.184551 1_555
F1 Sn3 2.345681 1_655
F1 Sn2 2.367150 1_555
F2 Sn0 2.345681 1_555
F2 Sn1 2.367150 1_555
F3 Sn3 2.345681 1_655
F3 Sn2 2.367150 1_565
F4 Sn0 2.345681 1_565
F4 Sn1 2.367150 1_655
F5 Sn3 2.345681 1_555
F5 Sn2 2.367150 1_555
F6 Sn1 2.184551 1_555
F7 Sn0 2.345681 1_555
F7 Sn1 2.367150 1_655
F8 Sn0 2.345681 1_565
F8 Sn1 2.367150 1_555
F9 Sn3 2.345681 1_555
F9 Sn2 2.367150 1_565
