# generated using pymatgen
data_TiSiTcRh
_symmetry_space_group_name_H-M   'P 1'
_cell_length_a   4.24486096
_cell_length_b   4.24486050
_cell_length_c   4.24486120
_cell_angle_alpha   59.99999454
_cell_angle_beta   59.99999815
_cell_angle_gamma   59.99999955
_symmetry_Int_Tables_number   1
_chemical_formula_structural   TiSiTcRh
_chemical_formula_sum   'Ti1 Si1 Tc1 Rh1'
_cell_volume   54.08481681
_cell_formula_units_Z   1
loop_
 _symmetry_equiv_pos_site_id
 _symmetry_equiv_pos_as_xyz
  1  'x, y, z'
loop_
 _atom_site_type_symbol
 _atom_site_label
 _atom_site_symmetry_multiplicity
 _atom_site_fract_x
 _atom_site_fract_y
 _atom_site_fract_z
 _atom_site_occupancy
  Ti  Ti0  1  0.75000000  0.75000000  0.75000000  1
  Si  Si0  1  0.25000000  0.25000000  0.25000000  1
  Tc  Tc0  1  0.00000000  0.00000000  0.00000000  1
  Rh  Rh0  1  0.50000000  0.50000000  0.50000000  1
loop_
_geom_bond_atom_site_label_1
_geom_bond_atom_site_label_2
_geom_bond_distance
_geom_bond_site_symmetry_2
Si0 Tc0 2.599435 1_565
Si0 Tc0 2.599436 1_655
Si0 Tc0 2.599436 1_556
Si0 Tc0 2.599436 1_555
Si0 Ti0 3.001570 1_445
Si0 Ti0 3.001570 1_554
Si0 Ti0 3.001570 1_455
Si0 Ti0 3.001570 1_545
Si0 Ti0 3.001570 1_454
Si0 Ti0 3.001570 1_544
Tc0 Ti0 2.599435 1_454
Tc0 Ti0 2.599436 1_544
Tc0 Ti0 2.599436 1_445
Tc0 Ti0 2.599436 1_444
Rh0 Ti0 2.599435 1_545
Rh0 Si0 2.599435 1_565
Rh0 Ti0 2.599436 1_455
Rh0 Si0 2.599436 1_655
Rh0 Ti0 2.599436 1_555
Rh0 Ti0 2.599436 1_554
Rh0 Si0 2.599436 1_556
Rh0 Si0 2.599436 1_555
Rh0 Tc0 3.001570 1_556
Rh0 Tc0 3.001570 1_665
Rh0 Tc0 3.001570 1_566
Rh0 Tc0 3.001570 1_565
Rh0 Tc0 3.001570 1_656
Rh0 Tc0 3.001570 1_655
