# generated using pymatgen
data_Lu12Al(TcPb)2
_symmetry_space_group_name_H-M   'P 1'
_cell_length_a   8.31191795
_cell_length_b   8.31202981
_cell_length_c   8.31191935
_cell_angle_alpha   109.82482096
_cell_angle_beta   109.80435662
_cell_angle_gamma   108.78610558
_symmetry_Int_Tables_number   1
_chemical_formula_structural   Lu12Al(TcPb)2
_chemical_formula_sum   'Lu12 Al1 Tc2 Pb2'
_cell_volume   442.02230271
_cell_formula_units_Z   1
loop_
 _symmetry_equiv_pos_site_id
 _symmetry_equiv_pos_as_xyz
  1  'x, y, z'
loop_
 _atom_site_type_symbol
 _atom_site_label
 _atom_site_symmetry_multiplicity
 _atom_site_fract_x
 _atom_site_fract_y
 _atom_site_fract_z
 _atom_site_occupancy
  Lu  Lu0  1  0.32138104  0.32139436  0.64277540  1
  Lu  Lu1  1  0.67861896  0.67860564  0.35722460  1
  Lu  Lu2  1  0.32138204  0.67860564  0.99998768  1
  Lu  Lu3  1  0.67861796  0.32139436  0.00001232  1
  Lu  Lu4  1  0.43965930  0.19293369  0.24672546  1
  Lu  Lu5  1  0.56034070  0.80706631  0.75327454  1
  Lu  Lu6  1  0.94620823  0.19293369  0.75327439  1
  Lu  Lu7  1  0.19292058  0.94620505  0.75328547  1
  Lu  Lu8  1  0.05379177  0.80706631  0.24672561  1
  Lu  Lu9  1  0.80707942  0.05379495  0.24671453  1
  Lu  Lu10  1  0.19292199  0.43963833  0.24671634  1
  Lu  Lu11  1  0.80707801  0.56036167  0.75328366  1
  Al  Al0  1  0.00000000  0.00000000  0.00000000  1
  Tc  Tc0  1  0.33600798  0.33601675  0.00000977  1
  Tc  Tc1  1  0.66399202  0.66398325  0.99999023  1
  Pb  Pb0  1  0.50000000  0.00000000  0.50000000  1
  Pb  Pb1  1  0.00000000  0.50000000  0.50000000  1
loop_
_geom_bond_atom_site_label_1
_geom_bond_atom_site_label_2
_geom_bond_distance
_geom_bond_site_symmetry_2
Lu0 Tc1 2.889111 1_555
Lu0 Tc0 2.889184 1_556
Lu0 Pb0 3.513859 1_555
Lu0 Pb1 3.514145 1_555
Lu1 Tc0 2.889111 1_555
Lu1 Tc1 2.889184 1_554
Lu1 Pb0 3.513859 1_565
Lu1 Pb1 3.514145 1_655
Lu2 Tc0 2.889111 1_556
Lu2 Tc1 2.889172 1_555
Lu2 Pb0 3.513855 1_566
Lu2 Pb1 3.514154 1_555
Lu3 Tc1 2.889111 1_554
Lu3 Tc0 2.889172 1_555
Lu3 Pb0 3.513855 1_554
Lu3 Pb1 3.514154 1_655
Lu4 Tc0 2.734785 1_555
Lu4 Pb0 3.057397 1_555
Lu4 Pb1 3.833225 1_655
Lu5 Tc1 2.734785 1_555
Lu5 Pb0 3.057397 1_565
Lu5 Pb1 3.833225 1_555
Lu6 Tc0 2.734793 1_656
Lu6 Pb0 3.057397 1_555
Lu6 Pb1 3.833225 1_655
Lu7 Tc0 2.734367 1_566
Lu7 Pb1 3.056951 1_555
Lu7 Pb0 3.832975 1_565
Lu8 Tc1 2.734793 1_454
Lu8 Pb0 3.057397 1_565
Lu8 Pb1 3.833225 1_555
Lu9 Tc1 2.734367 1_544
Lu9 Pb1 3.056951 1_655
Lu9 Pb0 3.832975 1_555
Lu10 Tc0 2.734167 1_555
Lu10 Pb1 3.056893 1_555
Lu10 Pb0 3.833028 1_565
Lu11 Tc1 2.734167 1_555
Lu11 Pb1 3.056893 1_655
Lu11 Pb0 3.833028 1_555
Al0 Lu9 3.007428 1_455
Al0 Lu7 3.007428 1_544
Al0 Lu10 3.007508 1_555
Al0 Lu11 3.007508 1_444
Al0 Lu5 3.008075 1_444
Al0 Lu4 3.008075 1_555
Al0 Lu8 3.008075 1_545
Al0 Lu6 3.008075 1_454
