# generated using pymatgen
data_Cs6V3RhBr18
_symmetry_space_group_name_H-M   'P 1'
_cell_length_a   7.64833343
_cell_length_b   7.64833376
_cell_length_c   18.94148803
_cell_angle_alpha   90.00000000
_cell_angle_beta   90.00000000
_cell_angle_gamma   119.99999856
_symmetry_Int_Tables_number   1
_chemical_formula_structural   Cs6V3RhBr18
_chemical_formula_sum   'Cs6 V3 Rh1 Br18'
_cell_volume   959.57378785
_cell_formula_units_Z   1
loop_
 _symmetry_equiv_pos_site_id
 _symmetry_equiv_pos_as_xyz
  1  'x, y, z'
loop_
 _atom_site_type_symbol
 _atom_site_label
 _atom_site_symmetry_multiplicity
 _atom_site_fract_x
 _atom_site_fract_y
 _atom_site_fract_z
 _atom_site_occupancy
  Cs  Cs0  1  0.66666700  0.33333300  0.57648338  1
  Cs  Cs1  1  0.33333300  0.66666700  0.07498545  1
  Cs  Cs2  1  0.33333300  0.66666700  0.42585235  1
  Cs  Cs3  1  0.66666700  0.33333300  0.92571762  1
  Cs  Cs4  1  0.00000000  0.00000000  0.25031167  1
  Cs  Cs5  1  0.00000000  0.00000000  0.74709749  1
  V  V0  1  0.66666700  0.33333300  0.34189474  1
  V  V1  1  0.33333300  0.66666700  0.83804971  1
  V  V2  1  0.66666700  0.33333300  0.15881191  1
  Rh  Rh0  1  0.33333300  0.66666700  0.66706199  1
  Br  Br0  1  0.82595670  0.65191439  0.40949293  1
  Br  Br1  1  0.18003149  0.81996851  0.59261288  1
  Br  Br2  1  0.63993801  0.81996851  0.59261288  1
  Br  Br3  1  0.82595670  0.17404330  0.40949293  1
  Br  Br4  1  0.34808561  0.17404330  0.40949293  1
  Br  Br5  1  0.17467458  0.34935017  0.90707761  1
  Br  Br6  1  0.02651042  0.51325521  0.74782021  1
  Br  Br7  1  0.65064983  0.82532542  0.90707761  1
  Br  Br8  1  0.82579709  0.65159417  0.09077802  1
  Br  Br9  1  0.18003149  0.36006199  0.59261288  1
  Br  Br10  1  0.48674479  0.97348958  0.74782021  1
  Br  Br11  1  0.51402958  0.48597042  0.25012857  1
  Br  Br12  1  0.48674479  0.51325521  0.74782021  1
  Br  Br13  1  0.17467458  0.82532542  0.90707761  1
  Br  Br14  1  0.34840583  0.17420291  0.09077802  1
  Br  Br15  1  0.97194184  0.48597042  0.25012857  1
  Br  Br16  1  0.51402958  0.02805816  0.25012857  1
  Br  Br17  1  0.82579709  0.17420291  0.09077802  1
loop_
_geom_bond_atom_site_label_1
_geom_bond_atom_site_label_2
_geom_bond_distance
_geom_bond_site_symmetry_2
Br0 V0 2.468254 1_555
Br0 Cs4 3.795628 1_665
Br0 Cs0 3.802328 1_555
Br0 Cs2 3.837945 1_555
Br0 Cs2 3.837945 1_655
Br1 Rh0 2.472423 1_555
Br1 Cs2 3.755212 1_555
Br1 Cs5 3.774965 1_565
Br1 Cs0 3.840434 1_455
Br1 Cs0 3.840435 1_565
Br2 Rh0 2.472434 1_555
Br2 Cs2 3.755219 1_555
Br2 Cs5 3.774961 1_665
Br2 Cs0 3.840434 1_555
Br2 Cs0 3.840435 1_565
Br3 V0 2.468242 1_555
Br3 Cs4 3.795632 1_655
Br3 Cs0 3.802320 1_555
Br3 Cs2 3.837945 1_655
Br3 Cs2 3.837945 1_545
Br4 V0 2.468254 1_555
Br4 Cs4 3.795628 1_555
Br4 Cs0 3.802328 1_555
Br4 Cs2 3.837945 1_555
Br4 Cs2 3.837945 1_545
Br5 V1 2.475294 1_555
Br5 Cs1 3.812171 1_556
Br5 Cs5 3.812737 1_555
Br5 Cs3 3.841888 1_455
Br5 Cs3 3.841904 1_555
Br6 Rh0 2.543641 1_555
Br6 V1 2.655399 1_555
Br6 Cs5 3.828221 1_565
Br6 Cs5 3.828221 1_555
Br6 Cs0 4.026589 1_455
Br6 Cs3 4.127402 1_455
Br7 V1 2.475294 1_555
Br7 Cs1 3.812171 1_556
Br7 Cs5 3.812736 1_665
Br7 Cs3 3.841889 1_565
Br7 Cs3 3.841904 1_555
Br8 V2 2.470735 1_555
Br8 Cs3 3.770785 1_554
Br8 Cs4 3.802219 1_665
Br8 Cs1 3.837144 1_655
Br8 Cs1 3.837151 1_555
Br9 Rh0 2.472434 1_555
Br9 Cs2 3.755219 1_555
Br9 Cs5 3.774961 1_555
Br9 Cs0 3.840434 1_555
Br9 Cs0 3.840434 1_455
Br10 Rh0 2.543641 1_555
Br10 V1 2.655399 1_555
Br10 Cs5 3.828221 1_665
Br10 Cs5 3.828221 1_565
Br10 Cs0 4.026589 1_565
Br10 Cs3 4.127402 1_565
Br11 V2 2.660901 1_555
Br11 V0 2.666443 1_555
Br11 Cs4 3.828682 1_555
Br11 Cs4 3.828682 1_665
Br11 Cs1 4.090919 1_555
Br11 Cs2 4.099843 1_555
Br12 Rh0 2.543646 1_555
Br12 V1 2.655404 1_555
Br12 Cs5 3.828221 1_665
Br12 Cs5 3.828221 1_555
Br12 Cs0 4.026593 1_555
Br12 Cs3 4.127406 1_555
Br13 V1 2.475294 1_555
Br13 Cs1 3.812171 1_556
Br13 Cs5 3.812732 1_565
Br13 Cs3 3.841896 1_455
Br13 Cs3 3.841896 1_565
Br14 V2 2.470735 1_555
Br14 Cs3 3.770785 1_554
Br14 Cs4 3.802219 1_555
Br14 Cs1 3.837144 1_545
Br14 Cs1 3.837151 1_555
Br15 V2 2.660901 1_555
Br15 V0 2.666443 1_555
Br15 Cs4 3.828678 1_655
Br15 Cs4 3.828686 1_665
Br15 Cs1 4.090911 1_655
Br15 Cs2 4.099835 1_655
Br16 V2 2.660901 1_555
Br16 V0 2.666443 1_555
Br16 Cs4 3.828678 1_655
Br16 Cs4 3.828685 1_555
Br16 Cs1 4.090911 1_545
Br16 Cs2 4.099835 1_545
Br17 V2 2.470729 1_555
Br17 Cs3 3.770781 1_554
Br17 Cs4 3.802219 1_655
Br17 Cs1 3.837147 1_655
Br17 Cs1 3.837147 1_545
