# generated using pymatgen
data_BaLiGaF6
_symmetry_space_group_name_H-M   'P 1'
_cell_length_a   10.36663578
_cell_length_b   5.37640365
_cell_length_c   8.60639790
_cell_angle_alpha   89.05456772
_cell_angle_beta   90.00000000
_cell_angle_gamma   90.00000000
_symmetry_Int_Tables_number   1
_chemical_formula_structural   BaLiGaF6
_chemical_formula_sum   'Ba4 Li4 Ga4 F24'
_cell_volume   479.61416437
_cell_formula_units_Z   4
loop_
 _symmetry_equiv_pos_site_id
 _symmetry_equiv_pos_as_xyz
  1  'x, y, z'
loop_
 _atom_site_type_symbol
 _atom_site_label
 _atom_site_symmetry_multiplicity
 _atom_site_fract_x
 _atom_site_fract_y
 _atom_site_fract_z
 _atom_site_occupancy
  Ba  Ba0  1  0.68590440  0.30159152  0.49718054  1
  Ba  Ba1  1  0.81409560  0.30159152  0.99718054  1
  Ba  Ba2  1  0.31409560  0.69840848  0.50281946  1
  Ba  Ba3  1  0.18590440  0.69840848  0.00281946  1
  Li  Li0  1  0.90886189  0.75596780  0.67827309  1
  Li  Li1  1  0.09113811  0.24403220  0.32172691  1
  Li  Li2  1  0.40886189  0.24403220  0.82172691  1
  Li  Li3  1  0.59113811  0.75596780  0.17827309  1
  Ga  Ga0  1  0.91367834  0.76348258  0.27039793  1
  Ga  Ga1  1  0.41367834  0.23651742  0.22960207  1
  Ga  Ga2  1  0.08632166  0.23651742  0.72960207  1
  Ga  Ga3  1  0.58632166  0.76348258  0.77039793  1
  F  F0  1  0.24888988  0.39622757  0.25827442  1
  F  F1  1  0.00358999  0.53433424  0.79693420  1
  F  F2  1  0.08311819  0.89808272  0.29556841  1
  F  F3  1  0.75111012  0.60377243  0.74172558  1
  F  F4  1  0.49641001  0.53433424  0.29693420  1
  F  F5  1  0.60451810  0.66022278  0.97711737  1
  F  F6  1  0.91688181  0.10191728  0.70443159  1
  F  F7  1  0.58311819  0.10191728  0.20443159  1
  F  F8  1  0.84286292  0.07910293  0.30281152  1
  F  F9  1  0.89548190  0.66022278  0.47711737  1
  F  F10  1  0.15713708  0.92089707  0.69718848  1
  F  F11  1  0.40820354  0.16808281  0.44856368  1
  F  F12  1  0.59179646  0.83191719  0.55143632  1
  F  F13  1  0.50358999  0.46566576  0.70306580  1
  F  F14  1  0.25111012  0.39622757  0.75827442  1
  F  F15  1  0.74888988  0.60377243  0.24172558  1
  F  F16  1  0.34286292  0.92089707  0.19718848  1
  F  F17  1  0.99641001  0.46566576  0.20306580  1
  F  F18  1  0.39548190  0.33977722  0.02288263  1
  F  F19  1  0.65713708  0.07910293  0.80281152  1
  F  F20  1  0.10451810  0.33977722  0.52288263  1
  F  F21  1  0.09179646  0.16808281  0.94856368  1
  F  F22  1  0.90820354  0.83191719  0.05143632  1
  F  F23  1  0.41688181  0.89808272  0.79556841  1
loop_
_geom_bond_atom_site_label_1
_geom_bond_atom_site_label_2
_geom_bond_distance
_geom_bond_site_symmetry_2
Ba0 F8 2.634915 1_555
Ba0 F12 2.739948 1_545
Ba0 F13 2.746183 1_555
Ba0 F3 2.763838 1_555
Ba0 F15 2.789544 1_555
Ba0 F4 2.885079 1_555
Ba0 F19 2.887019 1_555
Ba0 F9 2.908062 1_555
Ba0 F7 2.953822 1_555
Ba0 F11 2.997973 1_555
Ba0 F12 3.056687 1_555
Ba0 F6 3.162948 1_555
Ba1 F19 2.634915 1_555
Ba1 F22 2.739948 1_546
Ba1 F17 2.746183 1_556
Ba1 F15 2.763838 1_556
Ba1 F3 2.789544 1_555
Ba1 F1 2.885079 1_655
Ba1 F8 2.887019 1_556
Ba1 F5 2.908062 1_555
Ba1 F6 2.953822 1_555
Ba1 F21 2.997973 1_655
Ba1 F22 3.056687 1_556
Ba1 F7 3.162948 1_556
Ba2 F10 2.634915 1_555
Ba2 F11 2.739948 1_565
Ba2 F4 2.746183 1_555
Ba2 F0 2.763838 1_555
Ba2 F14 2.789544 1_555
Ba2 F13 2.885079 1_555
Ba2 F16 2.887019 1_555
Ba2 F20 2.908062 1_555
Ba2 F23 2.953822 1_555
Ba2 F12 2.997973 1_555
Ba2 F11 3.056687 1_555
Ba2 F2 3.162948 1_555
Ba3 F16 2.634915 1_555
Ba3 F21 2.739948 1_564
Ba3 F1 2.746183 1_554
Ba3 F14 2.763838 1_554
Ba3 F0 2.789544 1_555
Ba3 F17 2.885079 1_455
Ba3 F10 2.887019 1_554
Ba3 F18 2.908062 1_555
Ba3 F2 2.953822 1_555
Ba3 F22 2.997973 1_455
Ba3 F21 3.056687 1_554
Ba3 F23 3.162948 1_554
F0 Li1 1.904578 1_555
F0 Ga1 1.929634 1_555
F1 Li0 1.840386 1_455
F1 Ga2 1.914622 1_555
F2 Li1 1.879064 1_565
F2 Ga0 1.913415 1_455
F3 Li0 1.904578 1_555
F3 Ga3 1.929634 1_555
F4 Li3 1.840386 1_555
F4 Ga1 1.914622 1_555
F5 Li3 1.819553 1_556
F5 Ga3 1.864519 1_555
F6 Li0 1.879064 1_545
F6 Ga2 1.913415 1_655
F7 Li3 1.879064 1_545
F7 Ga1 1.913415 1_555
F8 Ga0 1.873993 1_545
F9 Li0 1.819553 1_555
F9 Ga0 1.864519 1_555
F10 Ga2 1.873993 1_565
F11 Ga1 1.914927 1_555
F12 Ga3 1.914927 1_555
F13 Li2 1.840386 1_555
F13 Ga3 1.914622 1_555
F14 Li2 1.904578 1_555
F14 Ga2 1.929634 1_555
F15 Li3 1.904578 1_555
F15 Ga0 1.929634 1_555
F16 Ga1 1.873993 1_565
F17 Li1 1.840386 1_655
F17 Ga0 1.914622 1_555
F18 Li2 1.819553 1_554
F18 Ga1 1.864519 1_555
F19 Ga3 1.873993 1_545
F20 Li1 1.819553 1_555
F20 Ga2 1.864519 1_555
F21 Ga2 1.914927 1_555
F22 Ga0 1.914927 1_555
F23 Li2 1.879064 1_565
F23 Ga3 1.913415 1_555
