# generated using pymatgen
data_Rb6Fe2O5
_symmetry_space_group_name_H-M   'P 1'
_cell_length_a   6.87109781
_cell_length_b   6.87109685
_cell_length_c   6.94784346
_cell_angle_alpha   92.95484430
_cell_angle_beta   92.95482159
_cell_angle_gamma   116.64926205
_symmetry_Int_Tables_number   1
_chemical_formula_structural   Rb6Fe2O5
_chemical_formula_sum   'Rb6 Fe2 O5'
_cell_volume   291.75928246
_cell_formula_units_Z   1
loop_
 _symmetry_equiv_pos_site_id
 _symmetry_equiv_pos_as_xyz
  1  'x, y, z'
loop_
 _atom_site_type_symbol
 _atom_site_label
 _atom_site_symmetry_multiplicity
 _atom_site_fract_x
 _atom_site_fract_y
 _atom_site_fract_z
 _atom_site_occupancy
  Rb  Rb0  1  0.20510583  0.79273717  0.99467626  1
  Rb  Rb1  1  0.24581657  0.75544774  0.50042379  1
  Rb  Rb2  1  0.36100398  0.36100398  0.17074919  1
  Rb  Rb3  1  0.64739242  0.64739242  0.82387825  1
  Rb  Rb4  1  0.75544774  0.24581657  0.50042379  1
  Rb  Rb5  1  0.79273717  0.20510583  0.99467626  1
  Fe  Fe0  1  0.18755130  0.18755230  0.69029796  1
  Fe  Fe1  1  0.79749276  0.79749276  0.33055872  1
  O  O0  1  0.16480277  0.43547581  0.77065821  1
  O  O1  1  0.57133737  0.84140467  0.22157044  1
  O  O2  1  0.43547581  0.16480277  0.77065821  1
  O  O3  1  0.93592862  0.93592862  0.57886046  1
  O  O4  1  0.84140467  0.57133737  0.22157044  1
loop_
_geom_bond_atom_site_label_1
_geom_bond_atom_site_label_2
_geom_bond_distance
_geom_bond_site_symmetry_2
Fe0 O0 1.840624 1_555
Fe0 O2 1.840635 1_555
Fe0 O3 1.902724 1_445
Fe1 O4 1.844448 1_555
Fe1 O1 1.844448 1_555
Fe1 O3 1.906766 1_555
O0 Rb0 2.734406 1_555
O0 Rb1 2.846784 1_555
O0 Rb5 2.915115 1_455
O0 Rb3 2.956197 1_555
O0 Rb4 3.008321 1_455
O0 Rb2 3.191473 1_556
O1 Rb0 2.776884 1_554
O1 Rb5 2.878814 1_564
O1 Rb1 2.912889 1_555
O1 Rb2 2.942273 1_555
O1 Rb4 3.018997 1_565
O1 Rb3 3.174738 1_554
O2 Rb5 2.734407 1_555
O2 Rb4 2.846784 1_555
O2 Rb0 2.915115 1_545
O2 Rb3 2.956197 1_555
O2 Rb1 3.008320 1_545
O2 Rb2 3.191472 1_556
O3 Rb3 2.815859 1_555
O3 Rb1 2.964334 1_655
O3 Rb4 2.964334 1_565
O4 Rb5 2.776883 1_554
O4 Rb0 2.878814 1_654
O4 Rb4 2.912890 1_555
O4 Rb2 2.942273 1_555
O4 Rb1 3.018998 1_655
O4 Rb3 3.174739 1_554
