# generated using pymatgen
data_YGa2Ni3
_symmetry_space_group_name_H-M   'P 1'
_cell_length_a   8.85529387
_cell_length_b   8.85529445
_cell_length_c   3.88267349
_cell_angle_alpha   90.00000000
_cell_angle_beta   90.00000000
_cell_angle_gamma   120.00000160
_symmetry_Int_Tables_number   1
_chemical_formula_structural   YGa2Ni3
_chemical_formula_sum   'Y3 Ga6 Ni9'
_cell_volume   263.67410471
_cell_formula_units_Z   3
loop_
 _symmetry_equiv_pos_site_id
 _symmetry_equiv_pos_as_xyz
  1  'x, y, z'
loop_
 _atom_site_type_symbol
 _atom_site_label
 _atom_site_symmetry_multiplicity
 _atom_site_fract_x
 _atom_site_fract_y
 _atom_site_fract_z
 _atom_site_occupancy
  Y  Y0  1  -0.00000000  -0.00000000  -0.00000000  1
  Y  Y1  1  0.33333300  0.66666700  0.50000000  1
  Y  Y2  1  0.66666700  0.33333300  0.50000000  1
  Ga  Ga0  1  0.31622210  0.31622210  0.50000000  1
  Ga  Ga1  1  0.68377790  -0.00000000  0.50000000  1
  Ga  Ga2  1  0.68377790  0.68377790  0.50000000  1
  Ga  Ga3  1  -0.00000000  0.31622210  0.50000000  1
  Ga  Ga4  1  0.00000000  0.68377790  0.50000000  1
  Ga  Ga5  1  0.31622210  0.00000000  0.50000000  1
  Ni  Ni0  1  0.17982228  0.35964256  0.00000000  1
  Ni  Ni1  1  0.82017772  0.64035744  -0.00000000  1
  Ni  Ni2  1  0.17982228  0.82017772  -0.00000000  1
  Ni  Ni3  1  0.64035744  0.82017772  -0.00000000  1
  Ni  Ni4  1  0.35964256  0.17982228  0.00000000  1
  Ni  Ni5  1  0.82017772  0.17982228  0.00000000  1
  Ni  Ni6  1  0.50000000  -0.00000000  -0.00000000  1
  Ni  Ni7  1  -0.00000000  0.50000000  -0.00000000  1
  Ni  Ni8  1  0.50000000  0.50000000  -0.00000000  1
loop_
_geom_bond_atom_site_label_1
_geom_bond_atom_site_label_2
_geom_bond_distance
_geom_bond_site_symmetry_2
Ga0 Ni0 2.416605 1_555
Ga0 Ni0 2.416605 1_556
Ga0 Ni4 2.416605 1_555
Ga0 Ni4 2.416605 1_556
Ga0 Ni8 2.533228 1_555
Ga0 Ni8 2.533228 1_556
Ga0 Y2 3.030374 1_555
Ga0 Y1 3.030374 1_555
Ga1 Ni5 2.416612 1_555
Ga1 Ni5 2.416612 1_556
Ga1 Ni3 2.416615 1_545
Ga1 Ni3 2.416615 1_546
Ga1 Ni6 2.533228 1_556
Ga1 Ni6 2.533228 1_555
Ga1 Y2 3.030365 1_555
Ga1 Y1 3.030370 1_545
Ga2 Ni1 2.416605 1_555
Ga2 Ni1 2.416605 1_556
Ga2 Ni3 2.416605 1_556
Ga2 Ni3 2.416605 1_555
Ga2 Ni8 2.533228 1_555
Ga2 Ni8 2.533228 1_556
Ga2 Y1 3.030374 1_555
Ga2 Y2 3.030374 1_555
Ga3 Ni5 2.416612 1_455
Ga3 Ni5 2.416612 1_456
Ga3 Ni0 2.416615 1_555
Ga3 Ni0 2.416615 1_556
Ga3 Ni7 2.533228 1_555
Ga3 Ni7 2.533228 1_556
Ga3 Y2 3.030365 1_455
Ga3 Y1 3.030370 1_555
Ga4 Ni2 2.416612 1_555
Ga4 Ni2 2.416612 1_556
Ga4 Ni1 2.416615 1_456
Ga4 Ni1 2.416615 1_455
Ga4 Ni7 2.533228 1_555
Ga4 Ni7 2.533228 1_556
Ga4 Y1 3.030365 1_555
Ga4 Y2 3.030370 1_455
Ga5 Ni2 2.416612 1_545
Ga5 Ni2 2.416612 1_546
Ga5 Ni4 2.416615 1_555
Ga5 Ni4 2.416615 1_556
Ga5 Ni6 2.533228 1_556
Ga5 Ni6 2.533228 1_555
Ga5 Y1 3.030365 1_545
Ga5 Y2 3.030370 1_555
Ni0 Ni8 2.461623 1_555
Ni0 Ni7 2.461639 1_555
Ni0 Ni4 2.758051 1_555
Ni0 Y0 2.758066 1_555
Ni0 Ni5 2.758082 1_455
Ni0 Y1 3.051665 1_555
Ni0 Y1 3.051665 1_554
Ni1 Ni8 2.461623 1_555
Ni1 Ni7 2.461639 1_655
Ni1 Ni3 2.758051 1_555
Ni1 Y0 2.758066 1_665
Ni1 Ni2 2.758082 1_655
Ni1 Y2 3.051665 1_555
Ni1 Y2 3.051665 1_554
Ni2 Ni6 2.461624 1_565
Ni2 Ni7 2.461624 1_555
Ni2 Y0 2.758082 1_565
Ni2 Ni4 2.758082 1_565
Ni2 Y1 3.051647 1_555
Ni2 Y1 3.051647 1_554
Ni3 Ni8 2.461623 1_555
Ni3 Ni6 2.461639 1_565
Ni3 Y0 2.758066 1_665
Ni3 Ni5 2.758082 1_565
Ni3 Y1 3.051665 1_555
Ni3 Y1 3.051665 1_554
Ni4 Ni8 2.461623 1_555
Ni4 Ni6 2.461639 1_555
Ni4 Y0 2.758066 1_555
Ni4 Y2 3.051665 1_554
Ni4 Y2 3.051665 1_555
Ni5 Ni6 2.461624 1_555
Ni5 Ni7 2.461624 1_655
Ni5 Y0 2.758082 1_655
Ni5 Y2 3.051647 1_555
Ni5 Y2 3.051647 1_554
Ni6 Y2 3.209901 1_554
Ni6 Y1 3.209901 1_544
Ni6 Y1 3.209901 1_545
Ni6 Y2 3.209901 1_555
Ni7 Y2 3.209900 1_454
Ni7 Y1 3.209900 1_554
Ni7 Y2 3.209900 1_455
Ni7 Y1 3.209900 1_555
Ni8 Y2 3.209907 1_554
Ni8 Y1 3.209907 1_555
Ni8 Y2 3.209907 1_555
Ni8 Y1 3.209907 1_554
