# generated using pymatgen
data_Be2GaSiIr4
_symmetry_space_group_name_H-M   'P 1'
_cell_length_a   7.10098158
_cell_length_b   7.10098089
_cell_length_c   7.10098134
_cell_angle_alpha   33.49781644
_cell_angle_beta   33.49781227
_cell_angle_gamma   33.49782032
_symmetry_Int_Tables_number   1
_chemical_formula_structural   Be2GaSiIr4
_chemical_formula_sum   'Be2 Ga1 Si1 Ir4'
_cell_volume   97.13697055
_cell_formula_units_Z   1
loop_
 _symmetry_equiv_pos_site_id
 _symmetry_equiv_pos_as_xyz
  1  'x, y, z'
loop_
 _atom_site_type_symbol
 _atom_site_label
 _atom_site_symmetry_multiplicity
 _atom_site_fract_x
 _atom_site_fract_y
 _atom_site_fract_z
 _atom_site_occupancy
  Be  Be0  1  0.25184005  0.25184005  0.25184005  1
  Be  Be1  1  0.74815995  0.74815995  0.74815995  1
  Ga  Ga0  1  0.00000000  0.00000000  0.00000000  1
  Si  Si0  1  0.50000000  0.50000000  0.50000000  1
  Ir  Ir0  1  0.37819855  0.37819855  0.37819855  1
  Ir  Ir1  1  0.87220672  0.87220672  0.87220672  1
  Ir  Ir2  1  0.62180145  0.62180145  0.62180145  1
  Ir  Ir3  1  0.12779328  0.12779328  0.12779328  1
loop_
_geom_bond_atom_site_label_1
_geom_bond_atom_site_label_2
_geom_bond_distance
_geom_bond_site_symmetry_2
Be0 Ir2 2.474835 1_554
Be0 Ir2 2.474835 1_455
Be0 Ir2 2.474835 1_545
Be0 Ir3 2.491966 1_555
Be0 Ir0 2.538407 1_555
Be0 Ir1 2.539389 1_445
Be0 Ir1 2.539389 1_544
Be0 Ir1 2.539390 1_454
Be1 Ir0 2.474835 1_556
Be1 Ir0 2.474835 1_655
Be1 Ir0 2.474835 1_565
Be1 Ir1 2.491966 1_555
Be1 Ir2 2.538407 1_555
Be1 Ir3 2.539389 1_665
Be1 Ir3 2.539389 1_566
Be1 Ir3 2.539390 1_656
Ga0 Ir0 2.528974 1_554
Ga0 Ir2 2.528974 1_445
Ga0 Ir0 2.528974 1_455
Ga0 Ir2 2.528974 1_544
Ga0 Ir0 2.528975 1_545
Ga0 Ir2 2.528975 1_454
Ga0 Ir3 2.567230 1_555
Ga0 Ir1 2.567230 1_444
Ir0 Si0 2.446860 1_555
Ir1 Si0 2.488618 1_556
Ir1 Si0 2.488619 1_655
Ir1 Si0 2.488619 1_565
Ir2 Si0 2.446860 1_555
Ir3 Si0 2.488618 1_554
Ir3 Si0 2.488619 1_455
Ir3 Si0 2.488619 1_545
