# generated using pymatgen
data_Mg(GaO2)2
_symmetry_space_group_name_H-M   'P 1'
_cell_length_a   5.85014315
_cell_length_b   5.85014299
_cell_length_c   5.90596470
_cell_angle_alpha   59.68385123
_cell_angle_beta   59.68384724
_cell_angle_gamma   59.68611804
_symmetry_Int_Tables_number   1
_chemical_formula_structural   Mg(GaO2)2
_chemical_formula_sum   'Mg2 Ga4 O8'
_cell_volume   141.90116985
_cell_formula_units_Z   2
loop_
 _symmetry_equiv_pos_site_id
 _symmetry_equiv_pos_as_xyz
  1  'x, y, z'
loop_
 _atom_site_type_symbol
 _atom_site_label
 _atom_site_symmetry_multiplicity
 _atom_site_fract_x
 _atom_site_fract_y
 _atom_site_fract_z
 _atom_site_occupancy
  Mg  Mg0  1  0.12500000  0.62500000  0.62500000  1
  Mg  Mg1  1  0.62500000  0.12500000  0.62500000  1
  Ga  Ga0  1  0.99073075  0.99073075  0.00926925  1
  Ga  Ga1  1  0.25926925  0.25926925  0.24073075  1
  Ga  Ga2  1  0.62500000  0.62500000  0.12500000  1
  Ga  Ga3  1  0.62500000  0.62500000  0.62500000  1
  O  O0  1  0.38725028  0.38725028  0.37211710  1
  O  O1  1  0.38725028  0.38725028  0.85338234  1
  O  O2  1  0.38862196  0.86015462  0.37561221  1
  O  O3  1  0.86015462  0.38862196  0.37561221  1
  O  O4  1  0.38984538  0.86137804  0.87438779  1
  O  O5  1  0.86137804  0.38984538  0.87438779  1
  O  O6  1  0.86274972  0.86274972  0.39661766  1
  O  O7  1  0.86274972  0.86274972  0.87788290  1
loop_
_geom_bond_atom_site_label_1
_geom_bond_atom_site_label_2
_geom_bond_distance
_geom_bond_site_symmetry_2
Mg0 O7 2.036832 1_455
Mg0 O0 2.036832 1_555
Mg0 O6 2.036833 1_455
Mg0 O1 2.036833 1_555
Mg0 O2 2.059935 1_555
Mg0 O5 2.059935 1_455
Mg1 O6 2.036832 1_545
Mg1 O1 2.036832 1_555
Mg1 O7 2.036833 1_545
Mg1 O0 2.036833 1_555
Mg1 O4 2.059935 1_545
Mg1 O3 2.059935 1_555
Ga0 O6 1.860683 1_555
Ga0 O7 1.860684 1_554
Ga0 O4 1.898975 1_654
Ga0 O5 1.898975 1_564
Ga1 O1 1.860683 1_554
Ga1 O0 1.860684 1_555
Ga1 O3 1.898975 1_455
Ga1 O2 1.898975 1_545
Ga2 O0 1.962990 1_555
Ga2 O7 1.962990 1_554
Ga2 O5 2.016039 1_554
Ga2 O2 2.016039 1_555
Ga2 O4 2.016039 1_554
Ga2 O3 2.016039 1_555
Ga3 O1 1.962990 1_555
Ga3 O6 1.962990 1_555
Ga3 O3 2.016035 1_555
Ga3 O4 2.016035 1_555
Ga3 O2 2.016035 1_555
Ga3 O5 2.016035 1_555
