# generated using pymatgen
data_Ca4Sn2PdRh3
_symmetry_space_group_name_H-M   'P 1'
_cell_length_a   5.79871810
_cell_length_b   5.80460796
_cell_length_c   7.98376414
_cell_angle_alpha   102.05460567
_cell_angle_beta   102.63401618
_cell_angle_gamma   59.19859087
_symmetry_Int_Tables_number   1
_chemical_formula_structural   Ca4Sn2PdRh3
_chemical_formula_sum   'Ca4 Sn2 Pd1 Rh3'
_cell_volume   223.72555719
_cell_formula_units_Z   1
loop_
 _symmetry_equiv_pos_site_id
 _symmetry_equiv_pos_as_xyz
  1  'x, y, z'
loop_
 _atom_site_type_symbol
 _atom_site_label
 _atom_site_symmetry_multiplicity
 _atom_site_fract_x
 _atom_site_fract_y
 _atom_site_fract_z
 _atom_site_occupancy
  Ca  Ca0  1  0.50679995  0.78602650  0.15139117  1
  Ca  Ca1  1  0.20832327  0.50028113  0.35396852  1
  Ca  Ca2  1  0.79269756  0.50297131  0.64421623  1
  Ca  Ca3  1  0.49351644  0.20805334  0.85082431  1
  Sn  Sn0  1  0.86858699  0.12630233  0.25399398  1
  Sn  Sn1  1  0.13148706  0.86426514  0.74471678  1
  Pd  Pd0  1  0.99569701  0.27876307  0.00434823  1
  Rh  Rh0  1  0.71317843  0.00589541  0.49687841  1
  Rh  Rh1  1  0.28304049  0.99527259  0.50559227  1
  Rh  Rh2  1  0.00667380  0.73216919  0.99406811  1
loop_
_geom_bond_atom_site_label_1
_geom_bond_atom_site_label_2
_geom_bond_distance
_geom_bond_site_symmetry_2
Ca0 Rh2 3.042519 1_554
Ca0 Rh0 3.052699 1_565
Ca0 Pd0 3.088942 1_465
Ca0 Pd0 3.090034 1_555
Ca0 Rh1 3.116413 1_555
Ca0 Rh2 3.252380 1_654
Ca0 Sn0 3.381210 1_465
Ca0 Sn0 3.433602 1_565
Ca0 Sn1 3.463664 1_554
Ca0 Sn0 3.473858 1_555
Ca0 Ca1 3.639690 1_655
Ca0 Ca1 3.694245 1_555
Ca0 Ca3 3.720327 1_554
Ca0 Ca1 3.724952 1_565
Ca0 Ca3 3.734509 1_564
Ca1 Rh0 3.067575 1_555
Ca1 Rh1 3.082411 1_555
Ca1 Rh0 3.092503 1_465
Ca1 Pd0 3.095775 1_455
Ca1 Rh2 3.157382 1_554
Ca1 Rh1 3.193447 1_545
Ca1 Sn0 3.303761 1_465
Ca1 Sn1 3.359386 1_555
Ca1 Sn0 3.479874 1_555
Ca1 Sn0 3.492658 1_455
Ca1 Ca2 3.668357 1_555
Ca1 Ca2 3.683470 1_455
Ca2 Rh1 3.060414 1_555
Ca2 Rh1 3.070353 1_645
Ca2 Rh0 3.103078 1_555
Ca2 Rh2 3.119861 1_655
Ca2 Pd0 3.140016 1_556
Ca2 Rh0 3.152297 1_565
Ca2 Sn1 3.367811 1_645
Ca2 Sn0 3.383676 1_555
Ca2 Sn1 3.424669 1_655
Ca2 Sn1 3.485801 1_555
Ca2 Ca3 3.645370 1_655
Ca2 Ca3 3.693429 1_565
Ca2 Ca3 3.759524 1_555
Ca3 Rh2 3.034079 1_645
Ca3 Rh1 3.043410 1_545
Ca3 Pd0 3.098893 1_556
Ca3 Rh0 3.105392 1_555
Ca3 Rh2 3.113896 1_555
Ca3 Pd0 3.182477 1_456
Ca3 Sn1 3.389666 1_645
Ca3 Sn0 3.440180 1_556
Ca3 Sn1 3.451561 1_545
Ca3 Sn1 3.466142 1_555
Pd0 Rh2 2.683555 1_654
Pd0 Sn0 2.710419 1_555
Pd0 Sn1 2.719587 1_644
Pd0 Rh2 3.124726 1_644
Rh0 Rh1 2.542661 1_545
Rh0 Sn1 2.648106 1_645
Rh0 Sn0 2.652617 1_555
Rh1 Sn1 2.649537 1_555
Rh1 Sn0 2.653972 1_465
Rh2 Sn1 2.628895 1_555
Rh2 Sn0 2.655056 1_466
