# generated using pymatgen
data_Zr(TaS2)4
_symmetry_space_group_name_H-M   'P 1'
_cell_length_a   6.66037052
_cell_length_b   6.66036968
_cell_length_c   12.94484636
_cell_angle_alpha   90.00000000
_cell_angle_beta   90.00000000
_cell_angle_gamma   120.00000416
_symmetry_Int_Tables_number   1
_chemical_formula_structural   Zr(TaS2)4
_chemical_formula_sum   'Zr2 Ta8 S16'
_cell_volume   497.30661825
_cell_formula_units_Z   2
loop_
 _symmetry_equiv_pos_site_id
 _symmetry_equiv_pos_as_xyz
  1  'x, y, z'
loop_
 _atom_site_type_symbol
 _atom_site_label
 _atom_site_symmetry_multiplicity
 _atom_site_fract_x
 _atom_site_fract_y
 _atom_site_fract_z
 _atom_site_occupancy
  Zr  Zr0  1  0.00000000  0.00000000  0.50000000  1
  Zr  Zr1  1  0.00000000  0.00000000  0.00000000  1
  Ta  Ta0  1  0.50564195  0.49435805  0.75000000  1
  Ta  Ta1  1  0.01128190  0.50564195  0.25000000  1
  Ta  Ta2  1  0.49435805  0.98871810  0.25000000  1
  Ta  Ta3  1  0.50564195  0.01128190  0.75000000  1
  Ta  Ta4  1  0.98871810  0.49435805  0.75000000  1
  Ta  Ta5  1  0.49435805  0.50564195  0.25000000  1
  Ta  Ta6  1  0.00000000  0.00000000  0.75000000  1
  Ta  Ta7  1  0.00000000  0.00000000  0.25000000  1
  S  S0  1  0.83137364  0.16862636  0.37133668  1
  S  S1  1  0.83137364  0.66274628  0.37133668  1
  S  S2  1  0.33725372  0.16862636  0.37133668  1
  S  S3  1  0.66274628  0.83137364  0.87133668  1
  S  S4  1  0.16862636  0.33725372  0.62866332  1
  S  S5  1  0.16862636  0.83137364  0.87133668  1
  S  S6  1  0.16862636  0.33725372  0.87133668  1
  S  S7  1  0.83137364  0.16862636  0.12866332  1
  S  S8  1  0.33725372  0.16862636  0.12866332  1
  S  S9  1  0.66274628  0.83137364  0.62866332  1
  S  S10  1  0.33333300  0.66666700  0.12639880  1
  S  S11  1  0.66666700  0.33333300  0.62639880  1
  S  S12  1  0.66666700  0.33333300  0.87360120  1
  S  S13  1  0.33333300  0.66666700  0.37360120  1
  S  S14  1  0.83137364  0.66274628  0.12866332  1
  S  S15  1  0.16862636  0.83137364  0.62866332  1
loop_
_geom_bond_atom_site_label_1
_geom_bond_atom_site_label_2
_geom_bond_distance
_geom_bond_site_symmetry_2
S0 Ta7 2.500241 1_655
S0 Ta1 2.500330 1_655
S0 Ta2 2.500330 1_545
S0 Zr0 2.560886 1_655
S1 Ta7 2.500245 1_665
S1 Ta1 2.500317 1_655
S1 Ta5 2.500331 1_555
S1 Zr0 2.560890 1_665
S2 Ta7 2.500246 1_555
S2 Ta2 2.500317 1_545
S2 Ta5 2.500331 1_555
S2 Zr0 2.560890 1_555
S3 Ta6 2.500246 1_665
S3 Ta3 2.500317 1_565
S3 Ta0 2.500331 1_555
S3 Zr1 2.560890 1_666
S4 Ta6 2.500245 1_555
S4 Ta4 2.500317 1_455
S4 Ta0 2.500331 1_555
S4 Zr0 2.560890 1_555
S5 Ta6 2.500241 1_565
S5 Ta4 2.500330 1_455
S5 Ta3 2.500330 1_565
S5 Zr1 2.560886 1_566
S6 Ta6 2.500245 1_555
S6 Ta4 2.500317 1_455
S6 Ta0 2.500331 1_555
S6 Zr1 2.560890 1_556
S7 Ta7 2.500241 1_655
S7 Ta1 2.500330 1_655
S7 Ta2 2.500330 1_545
S7 Zr1 2.560886 1_655
S8 Ta7 2.500246 1_555
S8 Ta2 2.500317 1_545
S8 Ta5 2.500331 1_555
S8 Zr1 2.560890 1_555
S9 Ta6 2.500246 1_665
S9 Ta3 2.500317 1_565
S9 Ta0 2.500331 1_555
S9 Zr0 2.560890 1_665
S10 Ta5 2.451668 1_555
S10 Ta2 2.451672 1_555
S10 Ta1 2.451673 1_555
S11 Ta0 2.451668 1_555
S11 Ta3 2.451672 1_555
S11 Ta4 2.451673 1_555
S12 Ta0 2.451668 1_555
S12 Ta3 2.451672 1_555
S12 Ta4 2.451673 1_555
S13 Ta5 2.451668 1_555
S13 Ta2 2.451672 1_555
S13 Ta1 2.451673 1_555
S14 Ta7 2.500245 1_665
S14 Ta1 2.500317 1_655
S14 Ta5 2.500331 1_555
S14 Zr1 2.560890 1_665
S15 Ta6 2.500241 1_565
S15 Ta4 2.500330 1_455
S15 Ta3 2.500330 1_565
S15 Zr0 2.560886 1_565
