# generated using pymatgen
data_BaScIO6
_symmetry_space_group_name_H-M   'P 1'
_cell_length_a   5.39412949
_cell_length_b   5.39412929
_cell_length_c   11.33545387
_cell_angle_alpha   90.00000000
_cell_angle_beta   90.00000000
_cell_angle_gamma   120.00000722
_symmetry_Int_Tables_number   1
_chemical_formula_structural   BaScIO6
_chemical_formula_sum   'Ba2 Sc2 I2 O12'
_cell_volume   285.63553372
_cell_formula_units_Z   2
loop_
 _symmetry_equiv_pos_site_id
 _symmetry_equiv_pos_as_xyz
  1  'x, y, z'
loop_
 _atom_site_type_symbol
 _atom_site_label
 _atom_site_symmetry_multiplicity
 _atom_site_fract_x
 _atom_site_fract_y
 _atom_site_fract_z
 _atom_site_occupancy
  Ba  Ba0  1  0.00000000  0.00000000  0.00000000  1
  Ba  Ba1  1  0.00000000  0.00000000  0.50000000  1
  Sc  Sc0  1  0.66666700  0.33333300  0.25000000  1
  Sc  Sc1  1  0.33333300  0.66666700  0.75000000  1
  I  I0  1  0.33333300  0.66666700  0.25000000  1
  I  I1  1  0.66666700  0.33333300  0.75000000  1
  O  O0  1  0.63295532  0.60065012  0.65462888  1
  O  O1  1  0.63295532  0.03230520  0.84537112  1
  O  O2  1  0.96769480  0.60065012  0.84537112  1
  O  O3  1  0.39934988  0.36704468  0.84537112  1
  O  O4  1  0.03230520  0.39934988  0.34537112  1
  O  O5  1  0.39934988  0.03230520  0.65462888  1
  O  O6  1  0.36704468  0.96769480  0.34537112  1
  O  O7  1  0.36704468  0.39934988  0.15462888  1
  O  O8  1  0.96769480  0.36704468  0.65462888  1
  O  O9  1  0.60065012  0.96769480  0.15462888  1
  O  O10  1  0.03230520  0.63295532  0.15462888  1
  O  O11  1  0.60065012  0.63295532  0.34537112  1
loop_
_geom_bond_atom_site_label_1
_geom_bond_atom_site_label_2
_geom_bond_distance
_geom_bond_site_symmetry_2
Ba0 O7 2.714331 1_555
Ba0 O3 2.714331 1_554
Ba0 O2 2.714332 1_444
Ba0 O10 2.714332 1_545
Ba0 O9 2.714332 1_445
Ba0 O1 2.714332 1_454
Ba1 O0 2.714331 1_445
Ba1 O11 2.714331 1_445
Ba1 O4 2.714332 1_555
Ba1 O8 2.714332 1_455
Ba1 O5 2.714332 1_555
Ba1 O6 2.714332 1_545
I0 O6 1.882335 1_555
I0 O10 1.882335 1_555
I0 O9 1.882337 1_555
I0 O4 1.882337 1_555
I0 O7 1.882339 1_555
I0 O11 1.882339 1_555
I1 O1 1.882335 1_555
I1 O8 1.882335 1_555
I1 O5 1.882337 1_555
I1 O2 1.882337 1_555
I1 O0 1.882339 1_555
I1 O3 1.882339 1_555
O0 Sc1 2.117351 1_555
O1 Sc1 2.117348 1_545
O2 Sc1 2.117346 1_655
O3 Sc1 2.117351 1_555
O4 Sc0 2.117346 1_455
O5 Sc1 2.117346 1_545
O6 Sc0 2.117348 1_565
O7 Sc0 2.117351 1_555
O8 Sc1 2.117348 1_655
O9 Sc0 2.117346 1_565
O10 Sc0 2.117348 1_455
O11 Sc0 2.117351 1_555
