# generated using pymatgen
data_K2Rb2Cd3O5
_symmetry_space_group_name_H-M   'P 1'
_cell_length_a   6.52264725
_cell_length_b   9.22234824
_cell_length_c   9.24545974
_cell_angle_alpha   66.10279393
_cell_angle_beta   74.42456551
_cell_angle_gamma   70.99659004
_symmetry_Int_Tables_number   1
_chemical_formula_structural   K2Rb2Cd3O5
_chemical_formula_sum   'K4 Rb4 Cd6 O10'
_cell_volume   474.72315865
_cell_formula_units_Z   2
loop_
 _symmetry_equiv_pos_site_id
 _symmetry_equiv_pos_as_xyz
  1  'x, y, z'
loop_
 _atom_site_type_symbol
 _atom_site_label
 _atom_site_symmetry_multiplicity
 _atom_site_fract_x
 _atom_site_fract_y
 _atom_site_fract_z
 _atom_site_occupancy
  K  K0  1  0.05791256  0.94675752  0.69032030  1
  K  K1  1  0.24243083  0.57224716  0.97758369  1
  K  K2  1  0.75756917  0.42775284  0.02241631  1
  K  K3  1  0.94208744  0.05324248  0.30967970  1
  Rb  Rb0  1  0.05000169  0.55747612  0.65686645  1
  Rb  Rb1  1  0.61704768  0.29180423  0.74957910  1
  Rb  Rb2  1  0.38295232  0.70819577  0.25042090  1
  Rb  Rb3  1  0.94999831  0.44252388  0.34313355  1
  Cd  Cd0  1  0.60686412  0.81482804  0.50480557  1
  Cd  Cd1  1  0.12621964  0.13985053  0.90064766  1
  Cd  Cd2  1  0.42884295  0.17460701  0.16317239  1
  Cd  Cd3  1  0.87378036  0.86014947  0.09935234  1
  Cd  Cd4  1  0.39313588  0.18517196  0.49519443  1
  Cd  Cd5  1  0.57115705  0.82539299  0.83682761  1
  O  O0  1  0.80443868  0.70451866  0.00697037  1
  O  O1  1  0.42196054  0.37289862  0.25779741  1
  O  O2  1  0.19556132  0.29548134  0.99302963  1
  O  O3  1  0.32476522  0.99564894  0.39845797  1
  O  O4  1  0.67523478  0.00435106  0.60154203  1
  O  O5  1  0.08532171  0.25547220  0.64581836  1
  O  O6  1  0.57803946  0.62710138  0.74220259  1
  O  O7  1  0.91467829  0.74452780  0.35418164  1
  O  O8  1  0.77050235  0.12546471  0.03764605  1
  O  O9  1  0.22949765  0.87453529  0.96235395  1
loop_
_geom_bond_atom_site_label_1
_geom_bond_atom_site_label_2
_geom_bond_distance
_geom_bond_site_symmetry_2
K0 O4 2.658907 1_465
K0 O3 2.741792 1_555
K0 O5 2.765863 1_565
K0 O9 2.773218 1_555
K0 O0 3.286679 1_456
K1 O2 2.611163 1_555
K1 O6 2.656081 1_555
K1 O0 2.702901 1_456
K1 O9 2.708135 1_555
K1 O1 2.798426 1_556
K2 O0 2.611163 1_555
K2 O1 2.656081 1_555
K2 O2 2.702901 1_654
K2 O8 2.708135 1_555
K2 O6 2.798426 1_554
K3 O3 2.658907 1_645
K3 O4 2.741792 1_555
K3 O7 2.765863 1_545
K3 O8 2.773218 1_555
K3 O2 3.286679 1_654
Cd0 O6 2.182145 1_555
Cd0 O7 2.184726 1_555
Cd0 O3 2.185899 1_555
Cd0 O4 2.458065 1_565
Cd1 O2 2.148847 1_555
Cd1 O9 2.183623 1_545
Cd1 O5 2.208131 1_555
Cd1 O8 2.343387 1_456
Cd2 O2 2.189168 1_554
Cd2 O8 2.213163 1_555
Cd2 O3 2.223654 1_545
Cd2 O1 2.309375 1_555
Cd3 O0 2.148847 1_555
Cd3 O8 2.183623 1_565
Cd3 O7 2.208131 1_555
Cd3 O9 2.343387 1_654
Cd4 O1 2.182145 1_555
Cd4 O5 2.184726 1_555
Cd4 O4 2.185899 1_555
Cd4 O3 2.458065 1_545
Cd5 O0 2.189168 1_556
Cd5 O9 2.213163 1_555
Cd5 O4 2.223654 1_565
Cd5 O6 2.309375 1_555
O0 Rb2 3.050173 1_555
O0 Rb3 3.225758 1_555
O1 Rb3 2.886247 1_455
O1 Rb2 2.992880 1_555
O2 Rb1 3.050173 1_555
O2 Rb0 3.225758 1_555
O3 Rb2 3.324233 1_555
O4 Rb1 3.324233 1_555
O5 Rb0 2.760570 1_555
O5 Rb3 2.830185 1_455
O5 Rb1 2.895210 1_455
O6 Rb0 2.886247 1_655
O6 Rb1 2.992880 1_555
O7 Rb3 2.760570 1_555
O7 Rb0 2.830185 1_655
O7 Rb2 2.895210 1_655
O8 Rb1 2.751329 1_554
O9 Rb2 2.751329 1_556
