# generated using pymatgen
data_Zr10Zn2GaBi5
_symmetry_space_group_name_H-M   'P 1'
_cell_length_a   8.76815668
_cell_length_b   8.73903288
_cell_length_c   5.87591506
_cell_angle_alpha   90.00000000
_cell_angle_beta   90.00000000
_cell_angle_gamma   119.89018093
_symmetry_Int_Tables_number   1
_chemical_formula_structural   Zr10Zn2GaBi5
_chemical_formula_sum   'Zr10 Zn2 Ga1 Bi5'
_cell_volume   390.35284372
_cell_formula_units_Z   1
loop_
 _symmetry_equiv_pos_site_id
 _symmetry_equiv_pos_as_xyz
  1  'x, y, z'
loop_
 _atom_site_type_symbol
 _atom_site_label
 _atom_site_symmetry_multiplicity
 _atom_site_fract_x
 _atom_site_fract_y
 _atom_site_fract_z
 _atom_site_occupancy
  Zr  Zr0  1  0.67359342  0.33464518  0.00380632  1
  Zr  Zr1  1  0.32640658  0.66105276  0.00380632  1
  Zr  Zr2  1  0.32640658  0.66105276  0.49619368  1
  Zr  Zr3  1  0.67359342  0.33464518  0.49619368  1
  Zr  Zr4  1  0.73765204  0.73541189  0.75000000  1
  Zr  Zr5  1  0.26234796  0.99775885  0.75000000  1
  Zr  Zr6  1  0.00000000  0.26349367  0.75000000  1
  Zr  Zr7  1  0.25536807  0.27340133  0.25000000  1
  Zr  Zr8  1  0.74463193  0.01803325  0.25000000  1
  Zr  Zr9  1  1.00000000  0.72382868  0.25000000  1
  Zn  Zn0  1  1.00000000  0.99792454  0.00669173  1
  Zn  Zn1  1  1.00000000  0.99792454  0.49330827  1
  Ga  Ga0  1  1.00000000  0.38676429  0.25000000  1
  Bi  Bi0  1  0.38694303  0.38462480  0.75000000  1
  Bi  Bi1  1  0.61305697  0.99768077  0.75000000  1
  Bi  Bi2  1  0.00000000  0.60890112  0.75000000  1
  Bi  Bi3  1  0.61756029  0.62020934  0.25000000  1
  Bi  Bi4  1  0.38243971  0.00264905  0.25000000  1
loop_
_geom_bond_atom_site_label_1
_geom_bond_atom_site_label_2
_geom_bond_distance
_geom_bond_site_symmetry_2
Zn0 Zr8 2.735065 1_565
Zn0 Zr7 2.735065 1_665
Zn0 Zr4 2.751306 1_554
Zn0 Zr5 2.751310 1_654
Zn0 Zr6 2.767880 1_664
Zn0 Zr9 2.789542 1_555
Zn1 Zr8 2.735065 1_565
Zn1 Zr7 2.735065 1_665
Zn1 Zr4 2.751306 1_555
Zn1 Zr5 2.751310 1_655
Zn1 Zr6 2.767880 1_665
Zn1 Zr9 2.789542 1_555
Ga0 Zr7 2.864599 1_655
Ga0 Zr8 2.864600 1_555
Ga0 Zr9 2.945617 1_555
Ga0 Zr3 3.031811 1_555
Ga0 Zr0 3.031811 1_555
Ga0 Zr2 3.031814 1_655
Ga0 Zr1 3.031814 1_655
Ga0 Zr6 3.129233 1_655
Ga0 Zr6 3.129233 1_654
Bi0 Zr5 2.990375 1_545
Bi0 Zr6 3.008645 1_555
Bi0 Zr4 3.075412 1_555
Bi0 Zr1 3.101532 1_556
Bi0 Zr2 3.101532 1_555
Bi0 Zr7 3.128846 1_555
Bi0 Zr7 3.128846 1_556
Bi0 Zr0 3.134673 1_556
Bi0 Zr3 3.134673 1_555
Bi1 Zr4 2.990358 1_555
Bi1 Zr6 3.008647 1_665
Bi1 Zr5 3.075412 1_555
Bi1 Zr0 3.101532 1_566
Bi1 Zr3 3.101532 1_565
Bi1 Zr8 3.128845 1_566
Bi1 Zr8 3.128845 1_565
Bi1 Zr1 3.134664 1_556
Bi1 Zr2 3.134664 1_555
Bi2 Zr5 3.008059 1_555
Bi2 Zr4 3.008066 1_455
Bi2 Zr6 3.018527 1_555
Bi2 Zr1 3.053317 1_556
Bi2 Zr2 3.053317 1_555
Bi2 Zr0 3.053320 1_456
Bi2 Zr3 3.053320 1_455
Bi2 Zr9 3.104887 1_455
Bi2 Zr9 3.104887 1_456
Bi3 Zr9 3.006347 1_555
Bi3 Zr8 3.076918 1_565
Bi3 Zr2 3.105716 1_555
Bi3 Zr1 3.105716 1_555
Bi3 Zr7 3.110944 1_555
Bi3 Zr4 3.114057 1_555
Bi3 Zr4 3.114057 1_554
Bi3 Zr3 3.127919 1_555
Bi3 Zr0 3.127919 1_555
Bi4 Zr9 3.006347 1_445
Bi4 Zr7 3.076918 1_555
Bi4 Zr3 3.105712 1_555
Bi4 Zr0 3.105712 1_555
Bi4 Zr8 3.110944 1_555
Bi4 Zr5 3.114056 1_545
Bi4 Zr5 3.114056 1_544
Bi4 Zr2 3.127911 1_545
Bi4 Zr1 3.127911 1_545
