# generated using pymatgen
data_NaCr(SeO4)2
_symmetry_space_group_name_H-M   'P 1'
_cell_length_a   4.89638955
_cell_length_b   4.89693378
_cell_length_c   7.03305545
_cell_angle_alpha   91.56877756
_cell_angle_beta   91.59124702
_cell_angle_gamma   67.18156118
_symmetry_Int_Tables_number   1
_chemical_formula_structural   NaCr(SeO4)2
_chemical_formula_sum   'Na1 Cr1 Se2 O8'
_cell_volume   155.35092448
_cell_formula_units_Z   1
loop_
 _symmetry_equiv_pos_site_id
 _symmetry_equiv_pos_as_xyz
  1  'x, y, z'
loop_
 _atom_site_type_symbol
 _atom_site_label
 _atom_site_symmetry_multiplicity
 _atom_site_fract_x
 _atom_site_fract_y
 _atom_site_fract_z
 _atom_site_occupancy
  Na  Na0  1  0.99990977  0.99991422  0.49989187  1
  Cr  Cr0  1  0.00001319  0.00001608  0.99998852  1
  Se  Se0  1  0.36406985  0.36380701  0.22165130  1
  Se  Se1  1  0.63593027  0.63622743  0.77838983  1
  O  O0  1  0.23881364  0.23863628  0.03122676  1
  O  O1  1  0.73410359  0.23560182  0.20601866  1
  O  O2  1  0.23615469  0.73372134  0.20584099  1
  O  O3  1  0.28385723  0.28347950  0.42804311  1
  O  O4  1  0.71618178  0.71652238  0.57194430  1
  O  O5  1  0.76384303  0.26626990  0.79417927  1
  O  O6  1  0.26590249  0.76442101  0.79398585  1
  O  O7  1  0.76122248  0.76138704  0.96883955  1
loop_
_geom_bond_atom_site_label_1
_geom_bond_atom_site_label_2
_geom_bond_distance
_geom_bond_site_symmetry_2
Na0 O4 2.384448 1_555
Na0 O3 2.385664 1_665
Na0 O1 2.472619 1_565
Na0 O6 2.473937 1_655
Na0 O2 2.475867 1_655
Na0 O5 2.477262 1_565
Cr0 O7 1.952445 1_445
Cr0 O0 1.952498 1_556
Cr0 O5 1.993312 1_455
Cr0 O6 1.993315 1_545
Cr0 O1 1.993486 1_456
Cr0 O2 1.993581 1_546
O0 Se0 1.657256 1_555
O1 Se0 1.677493 1_555
O2 Se0 1.677247 1_555
O3 Se0 1.612073 1_555
O4 Se1 1.612430 1_555
O5 Se1 1.677433 1_555
O6 Se1 1.677446 1_555
O7 Se1 1.657456 1_555
