# generated using pymatgen
data_K2BaCr2O8
_symmetry_space_group_name_H-M   'P 1'
_cell_length_a   7.90349883
_cell_length_b   7.90349965
_cell_length_c   7.90349946
_cell_angle_alpha   42.35461878
_cell_angle_beta   42.35461250
_cell_angle_gamma   42.35461183
_symmetry_Int_Tables_number   1
_chemical_formula_structural   K2BaCr2O8
_chemical_formula_sum   'K2 Ba1 Cr2 O8'
_cell_volume   202.84552511
_cell_formula_units_Z   1
loop_
 _symmetry_equiv_pos_site_id
 _symmetry_equiv_pos_as_xyz
  1  'x, y, z'
loop_
 _atom_site_type_symbol
 _atom_site_label
 _atom_site_symmetry_multiplicity
 _atom_site_fract_x
 _atom_site_fract_y
 _atom_site_fract_z
 _atom_site_occupancy
  K  K0  1  0.20079491  0.20079491  0.20079491  1
  K  K1  1  0.79920509  0.79920509  0.79920509  1
  Ba  Ba0  1  0.00000000  0.00000000  0.00000000  1
  Cr  Cr0  1  0.40655773  0.40655773  0.40655773  1
  Cr  Cr1  1  0.59344227  0.59344227  0.59344127  1
  O  O0  1  0.72543224  0.72543224  0.25365550  1
  O  O1  1  0.74634250  0.27456776  0.27456876  1
  O  O2  1  0.27456776  0.74634250  0.27456876  1
  O  O3  1  0.33003783  0.33003783  0.33003683  1
  O  O4  1  0.66996217  0.66996217  0.66996217  1
  O  O5  1  0.72543124  0.25365650  0.72543324  1
  O  O6  1  0.25365650  0.72543124  0.72543324  1
  O  O7  1  0.27456776  0.27456776  0.74634350  1
loop_
_geom_bond_atom_site_label_1
_geom_bond_atom_site_label_2
_geom_bond_distance
_geom_bond_site_symmetry_2
K0 O3 2.785059 1_555
K0 O7 2.809389 1_554
K0 O1 2.809392 1_455
K0 O2 2.809392 1_545
K0 O5 2.949393 1_554
K0 O6 2.949394 1_554
K0 O0 2.949397 1_545
K0 O0 2.949397 1_455
K0 O5 2.949405 1_455
K0 O6 2.949405 1_545
K1 O4 2.785067 1_555
K1 O0 2.809381 1_556
K1 O6 2.809389 1_655
K1 O5 2.809389 1_565
K1 O2 2.949396 1_655
K1 O1 2.949397 1_565
K1 O7 2.949399 1_565
K1 O7 2.949399 1_655
K1 O2 2.949402 1_556
K1 O1 2.949402 1_556
Ba0 O5 2.745454 1_454
Ba0 O6 2.745454 1_544
Ba0 O7 2.745454 1_554
Ba0 O2 2.745457 1_545
Ba0 O1 2.745457 1_455
Ba0 O0 2.745458 1_445
Ba0 O3 3.297642 1_455
Ba0 O3 3.297642 1_545
Ba0 O4 3.297643 1_544
Ba0 O4 3.297644 1_454
Ba0 O4 3.297644 1_445
Ba0 O3 3.297647 1_554
Cr0 O1 1.647941 1_555
Cr0 O2 1.647942 1_555
Cr0 O7 1.647946 1_555
Cr0 O3 1.648941 1_555
Cr1 O6 1.647945 1_555
Cr1 O5 1.647946 1_555
Cr1 O0 1.647946 1_555
Cr1 O4 1.648941 1_555
