# generated using pymatgen
data_NbCd6IO12
_symmetry_space_group_name_H-M   'P 1'
_cell_length_a   5.71645429
_cell_length_b   5.54814994
_cell_length_c   9.82174903
_cell_angle_alpha   55.17579727
_cell_angle_beta   89.32831757
_cell_angle_gamma   89.60716136
_symmetry_Int_Tables_number   1
_chemical_formula_structural   NbCd6IO12
_chemical_formula_sum   'Nb1 Cd6 I1 O12'
_cell_volume   255.69864334
_cell_formula_units_Z   1
loop_
 _symmetry_equiv_pos_site_id
 _symmetry_equiv_pos_as_xyz
  1  'x, y, z'
loop_
 _atom_site_type_symbol
 _atom_site_label
 _atom_site_symmetry_multiplicity
 _atom_site_fract_x
 _atom_site_fract_y
 _atom_site_fract_z
 _atom_site_occupancy
  Nb  Nb0  1  0.00000000  0.00000000  0.00000000  1
  Cd  Cd0  1  0.04560478  0.73031922  0.76739982  1
  Cd  Cd1  1  0.95439522  0.26968078  0.23260018  1
  Cd  Cd2  1  0.55617885  0.26196355  0.75734632  1
  Cd  Cd3  1  0.44382115  0.73803645  0.24265368  1
  Cd  Cd4  1  0.50000000  0.50000000  0.00000000  1
  Cd  Cd5  1  0.00000000  0.50000000  0.50000000  1
  I  I0  1  0.50000000  0.00000000  0.50000000  1
  O  O0  1  0.42641764  0.92419351  0.71024971  1
  O  O1  1  0.57358236  0.07580649  0.28975029  1
  O  O2  1  0.93399727  0.12997561  0.76136532  1
  O  O3  1  0.06600273  0.87002439  0.23863468  1
  O  O4  1  0.76856734  0.75753415  0.58635382  1
  O  O5  1  0.23143266  0.24246585  0.41364618  1
  O  O6  1  0.29329471  0.23931190  0.92860139  1
  O  O7  1  0.70670529  0.76068810  0.07139861  1
  O  O8  1  0.32424202  0.66577628  0.56259034  1
  O  O9  1  0.67575798  0.33422372  0.43740966  1
  O  O10  1  0.82519945  0.34851297  0.95561793  1
  O  O11  1  0.17480055  0.65148703  0.04438207  1
loop_
_geom_bond_atom_site_label_1
_geom_bond_atom_site_label_2
_geom_bond_distance
_geom_bond_site_symmetry_2
Nb0 O10 1.987050 1_454
Nb0 O11 1.987050 1_545
Nb0 O6 2.001301 1_554
Nb0 O7 2.001301 1_445
Nb0 O3 2.059718 1_545
Nb0 O2 2.059718 1_454
Cd0 O10 2.236427 1_455
Cd0 O2 2.271256 1_465
Cd0 O4 2.334280 1_455
Cd0 O0 2.350500 1_555
Cd0 O11 2.611764 1_556
Cd0 O6 2.646937 1_555
Cd0 O8 2.729753 1_555
Cd1 O11 2.236427 1_655
Cd1 O3 2.271256 1_645
Cd1 O5 2.334280 1_655
Cd1 O1 2.350500 1_555
Cd1 O10 2.611764 1_554
Cd1 O7 2.646937 1_555
Cd1 O9 2.729753 1_555
Cd2 O6 2.192076 1_555
Cd2 O2 2.269308 1_555
Cd2 O0 2.300703 1_545
Cd2 O8 2.358054 1_555
Cd2 O4 2.564843 1_555
Cd2 O10 2.745206 1_555
Cd3 O7 2.192076 1_555
Cd3 O3 2.269308 1_555
Cd3 O1 2.300703 1_565
Cd3 O9 2.358054 1_555
Cd3 O5 2.564843 1_555
Cd3 O11 2.745206 1_555
Cd4 O11 2.174917 1_555
Cd4 O10 2.174917 1_554
Cd4 O7 2.276214 1_555
Cd4 O6 2.276214 1_554
Cd4 O1 2.485891 1_555
Cd4 O0 2.485891 1_554
Cd5 O2 2.217128 1_455
Cd5 O3 2.217128 1_555
Cd5 O9 2.314138 1_455
Cd5 O8 2.314138 1_555
Cd5 O4 2.417241 1_455
Cd5 O5 2.417241 1_555
I0 O8 1.880158 1_545
I0 O9 1.880158 1_555
I0 O4 1.893440 1_545
I0 O5 1.893440 1_555
I0 O0 1.899536 1_545
I0 O1 1.899536 1_555
