# generated using pymatgen
data_Ca21(Mn2Sb9)2
_symmetry_space_group_name_H-M   'P 1'
_cell_length_a   12.15947672
_cell_length_b   12.15947672
_cell_length_c   16.85025882
_cell_angle_alpha   88.08668043
_cell_angle_beta   88.08668043
_cell_angle_gamma   90.14561100
_symmetry_Int_Tables_number   1
_chemical_formula_structural   Ca21(Mn2Sb9)2
_chemical_formula_sum   'Ca42 Mn8 Sb36'
_cell_volume   2488.56534059
_cell_formula_units_Z   2
loop_
 _symmetry_equiv_pos_site_id
 _symmetry_equiv_pos_as_xyz
  1  'x, y, z'
loop_
 _atom_site_type_symbol
 _atom_site_label
 _atom_site_symmetry_multiplicity
 _atom_site_fract_x
 _atom_site_fract_y
 _atom_site_fract_z
 _atom_site_occupancy
  Ca  Ca0  1  0.57755900  0.08900000  0.24040700  1
  Ca  Ca1  1  0.91100000  0.42244100  0.25959300  1
  Ca  Ca2  1  0.42244100  0.91100000  0.75959300  1
  Ca  Ca3  1  0.08900000  0.57755900  0.74040700  1
  Ca  Ca4  1  0.48779500  0.31652500  0.06420100  1
  Ca  Ca5  1  0.68347500  0.51220500  0.43579900  1
  Ca  Ca6  1  0.51220500  0.68347500  0.93579900  1
  Ca  Ca7  1  0.31652500  0.48779500  0.56420100  1
  Ca  Ca8  1  0.26347000  0.74778100  0.42219900  1
  Ca  Ca9  1  0.25221900  0.73653000  0.07780100  1
  Ca  Ca10  1  0.73653000  0.25221900  0.57780100  1
  Ca  Ca11  1  0.74778100  0.26347000  0.92219900  1
  Ca  Ca12  1  0.23024800  0.40571400  0.15612500  1
  Ca  Ca13  1  0.59428600  0.76975200  0.34387500  1
  Ca  Ca14  1  0.76975200  0.59428600  0.84387500  1
  Ca  Ca15  1  0.40571400  0.23024800  0.65612500  1
  Ca  Ca16  1  0.18908100  0.42321300  0.37762800  1
  Ca  Ca17  1  0.57678700  0.81091900  0.12237200  1
  Ca  Ca18  1  0.81091900  0.57678700  0.62237200  1
  Ca  Ca19  1  0.42321300  0.18908100  0.87762800  1
  Ca  Ca20  1  0.25780900  0.08020200  0.34098900  1
  Ca  Ca21  1  0.91979800  0.74219100  0.15901100  1
  Ca  Ca22  1  0.74219100  0.91979800  0.65901100  1
  Ca  Ca23  1  0.08020200  0.25780900  0.84098900  1
  Ca  Ca24  1  0.06058800  0.31522800  0.61846600  1
  Ca  Ca25  1  0.68477200  0.93941200  0.88153400  1
  Ca  Ca26  1  0.93941200  0.68477200  0.38153400  1
  Ca  Ca27  1  0.31522800  0.06058800  0.11846600  1
  Ca  Ca28  1  0.48080200  0.24237000  0.43284500  1
  Ca  Ca29  1  0.75763000  0.51919800  0.06715500  1
  Ca  Ca30  1  0.51919800  0.75763000  0.56715500  1
  Ca  Ca31  1  0.24237000  0.48080200  0.93284500  1
  Ca  Ca32  1  0.26588100  0.99834100  0.56277700  1
  Ca  Ca33  1  0.00165900  0.73411900  0.93722300  1
  Ca  Ca34  1  0.73411900  0.00165900  0.43722300  1
  Ca  Ca35  1  0.99834100  0.26588100  0.06277700  1
  Ca  Ca36  1  0.99526900  0.17663800  0.42906900  1
  Ca  Ca37  1  0.82336200  0.00473100  0.07093100  1
  Ca  Ca38  1  0.00473100  0.82336200  0.57093100  1
  Ca  Ca39  1  0.17663800  0.99526900  0.92906900  1
  Ca  Ca40  1  0.57229100  0.42770900  0.25000000  1
  Ca  Ca41  1  0.42770900  0.57229100  0.75000000  1
  Mn  Mn0  1  0.35996500  0.64003500  0.25000000  1
  Mn  Mn1  1  0.64003500  0.35996500  0.75000000  1
  Mn  Mn2  1  0.15759500  0.84240500  0.25000000  1
  Mn  Mn3  1  0.84240500  0.15759500  0.75000000  1
  Mn  Mn4  1  0.99885500  0.00114500  0.25000000  1
  Mn  Mn5  1  0.00114500  0.99885500  0.75000000  1
  Mn  Mn6  1  0.83841600  0.16158400  0.25000000  1
  Mn  Mn7  1  0.16158400  0.83841600  0.75000000  1
  Sb  Sb0  1  0.43327200  0.55354900  0.39368100  1
  Sb  Sb1  1  0.44645100  0.56672800  0.10631900  1
  Sb  Sb2  1  0.56672800  0.44645100  0.60631900  1
  Sb  Sb3  1  0.55354900  0.43327200  0.89368100  1
  Sb  Sb4  1  0.38255900  0.86909900  0.24308900  1
  Sb  Sb5  1  0.13090100  0.61744100  0.25691100  1
  Sb  Sb6  1  0.61744100  0.13090100  0.75691100  1
  Sb  Sb7  1  0.86909900  0.38255900  0.74308900  1
  Sb  Sb8  1  0.06840200  0.91934800  0.39742500  1
  Sb  Sb9  1  0.08065200  0.93159800  0.10257500  1
  Sb  Sb10  1  0.93159800  0.08065200  0.60257500  1
  Sb  Sb11  1  0.91934800  0.06840200  0.89742500  1
  Sb  Sb12  1  0.06684600  0.21910800  0.24692400  1
  Sb  Sb13  1  0.78089200  0.93315400  0.25307600  1
  Sb  Sb14  1  0.93315400  0.78089200  0.75307600  1
  Sb  Sb15  1  0.21910800  0.06684600  0.74692400  1
  Sb  Sb16  1  0.72918400  0.25375500  0.37555000  1
  Sb  Sb17  1  0.74624500  0.27081600  0.12445000  1
  Sb  Sb18  1  0.27081600  0.74624500  0.62445000  1
  Sb  Sb19  1  0.25375500  0.72918400  0.87555000  1
  Sb  Sb20  1  0.57553700  0.07708700  0.03578700  1
  Sb  Sb21  1  0.92291300  0.42446300  0.46421300  1
  Sb  Sb22  1  0.42446300  0.92291300  0.96421300  1
  Sb  Sb23  1  0.07708700  0.57553700  0.53578700  1
  Sb  Sb24  1  0.46178700  0.96063000  0.42322700  1
  Sb  Sb25  1  0.03937000  0.53821300  0.07677300  1
  Sb  Sb26  1  0.53821300  0.03937000  0.57677300  1
  Sb  Sb27  1  0.96063000  0.46178700  0.92322700  1
  Sb  Sb28  1  0.24269100  0.23977200  0.50002800  1
  Sb  Sb29  1  0.76022800  0.75730900  0.99997200  1
  Sb  Sb30  1  0.75730900  0.76022800  0.49997200  1
  Sb  Sb31  1  0.23977200  0.24269100  0.00002800  1
  Sb  Sb32  1  0.74484300  0.60957100  0.25384700  1
  Sb  Sb33  1  0.39042900  0.25515700  0.24615300  1
  Sb  Sb34  1  0.25515700  0.39042900  0.74615300  1
  Sb  Sb35  1  0.60957100  0.74484300  0.75384700  1
loop_
_geom_bond_atom_site_label_1
_geom_bond_atom_site_label_2
_geom_bond_distance
_geom_bond_site_symmetry_2
Ca0 Sb33 3.048031 1_555
Ca0 Sb13 3.127545 1_545
Ca0 Mn6 3.300828 1_555
Ca0 Sb20 3.456674 1_555
Ca0 Sb17 3.511889 1_555
Ca0 Sb4 3.567399 1_545
Ca0 Sb16 3.628268 1_555
Ca0 Sb24 3.645022 1_545
Ca1 Sb32 3.048031 1_555
Ca1 Sb12 3.127545 1_655
Ca1 Mn6 3.300828 1_555
Ca1 Sb21 3.456674 1_555
Ca1 Sb16 3.511889 1_555
Ca1 Sb5 3.567399 1_655
Ca1 Sb17 3.628268 1_555
Ca1 Sb25 3.645022 1_655
Ca2 Sb35 3.048031 1_555
Ca2 Sb15 3.127545 1_565
Ca2 Mn7 3.300828 1_555
Ca2 Sb22 3.456674 1_555
Ca2 Sb19 3.511889 1_555
Ca2 Sb6 3.567399 1_565
Ca2 Sb18 3.628268 1_555
Ca2 Sb26 3.645022 1_565
Ca3 Sb34 3.048031 1_555
Ca3 Sb14 3.127545 1_455
Ca3 Mn7 3.300828 1_555
Ca3 Sb23 3.456674 1_555
Ca3 Sb18 3.511889 1_555
Ca3 Sb7 3.567399 1_455
Ca3 Sb19 3.628268 1_555
Ca3 Sb27 3.645022 1_455
Ca4 Sb20 3.149405 1_555
Ca4 Sb1 3.184391 1_555
Ca4 Sb3 3.237100 1_554
Ca4 Sb33 3.310411 1_555
Ca4 Sb31 3.367395 1_555
Ca4 Sb17 3.376366 1_555
Ca5 Sb21 3.149405 1_555
Ca5 Sb0 3.184391 1_555
Ca5 Sb2 3.237100 1_555
Ca5 Sb32 3.310411 1_555
Ca5 Sb30 3.367395 1_555
Ca5 Sb16 3.376366 1_555
Ca6 Sb22 3.149405 1_555
Ca6 Sb3 3.184391 1_555
Ca6 Sb1 3.237100 1_556
Ca6 Sb35 3.310411 1_555
Ca6 Sb29 3.367395 1_555
Ca6 Sb19 3.376366 1_555
Ca7 Sb23 3.149405 1_555
Ca7 Sb2 3.184391 1_555
Ca7 Sb0 3.237100 1_555
Ca7 Sb34 3.310411 1_555
Ca7 Sb28 3.367395 1_555
Ca7 Sb18 3.376366 1_555
Ca8 Sb0 3.179016 1_555
Ca8 Sb8 3.191472 1_555
Ca8 Mn2 3.381493 1_555
Ca8 Mn0 3.398050 1_555
Ca8 Sb18 3.411562 1_555
Ca8 Sb24 3.533807 1_555
Ca8 Sb23 3.550295 1_555
Ca8 Sb4 3.575141 1_555
Ca8 Sb5 3.667266 1_555
Ca9 Sb1 3.179016 1_555
Ca9 Sb9 3.191472 1_555
Ca9 Mn2 3.381493 1_555
Ca9 Mn0 3.398050 1_555
Ca9 Sb19 3.411562 1_554
Ca9 Sb25 3.533807 1_555
Ca9 Sb22 3.550295 1_554
Ca9 Sb5 3.575141 1_555
Ca9 Sb4 3.667266 1_555
Ca10 Sb2 3.179016 1_555
Ca10 Sb10 3.191472 1_555
Ca10 Mn3 3.381493 1_555
Ca10 Mn1 3.398050 1_555
Ca10 Sb16 3.411562 1_555
Ca10 Sb26 3.533807 1_555
Ca10 Sb21 3.550295 1_555
Ca10 Sb6 3.575141 1_555
Ca10 Sb7 3.667266 1_555
Ca11 Sb3 3.179016 1_555
Ca11 Sb11 3.191472 1_555
Ca11 Mn3 3.381493 1_555
Ca11 Mn1 3.398050 1_555
Ca11 Sb17 3.411562 1_556
Ca11 Sb27 3.533807 1_555
Ca11 Sb20 3.550295 1_556
Ca11 Sb7 3.575141 1_555
Ca11 Sb6 3.667266 1_555
Ca12 Sb33 3.078359 1_555
Ca12 Sb25 3.138927 1_555
Ca12 Sb12 3.313510 1_555
Ca12 Sb5 3.337989 1_555
Ca12 Sb1 3.341479 1_555
Ca12 Sb31 3.345169 1_555
Ca13 Sb32 3.078359 1_555
Ca13 Sb24 3.138927 1_555
Ca13 Sb13 3.313510 1_555
Ca13 Sb4 3.337989 1_555
Ca13 Sb0 3.341479 1_555
Ca13 Sb30 3.345169 1_555
Ca14 Sb35 3.078359 1_555
Ca14 Sb27 3.138927 1_555
Ca14 Sb14 3.313510 1_555
Ca14 Sb7 3.337989 1_555
Ca14 Sb3 3.341479 1_555
Ca14 Sb29 3.345169 1_555
Ca15 Sb34 3.078359 1_555
Ca15 Sb26 3.138927 1_555
Ca15 Sb15 3.313510 1_555
Ca15 Sb6 3.337989 1_555
Ca15 Sb2 3.341479 1_555
Ca15 Sb28 3.345169 1_555
Ca16 Sb28 3.073115 1_555
Ca16 Sb5 3.162208 1_555
Ca16 Sb0 3.385190 1_555
Ca16 Sb21 3.505706 1_455
Ca16 Sb23 3.533760 1_555
Ca16 Sb12 3.712665 1_555
Ca17 Sb29 3.073115 1_554
Ca17 Sb4 3.162208 1_555
Ca17 Sb1 3.385190 1_555
Ca17 Sb20 3.505706 1_565
Ca17 Sb22 3.533760 1_554
Ca17 Sb13 3.712665 1_555
Ca18 Sb30 3.073115 1_555
Ca18 Sb7 3.162208 1_555
Ca18 Sb2 3.385190 1_555
Ca18 Sb23 3.505706 1_655
Ca18 Sb21 3.533760 1_555
Ca18 Sb14 3.712665 1_555
Ca19 Sb31 3.073115 1_556
Ca19 Sb6 3.162208 1_555
Ca19 Sb3 3.385190 1_555
Ca19 Sb22 3.505706 1_545
Ca19 Sb20 3.533760 1_556
Ca19 Sb15 3.712665 1_555
Ca20 Sb33 3.043556 1_555
Ca20 Sb8 3.121018 1_545
Ca20 Sb24 3.209235 1_545
Ca20 Sb12 3.292985 1_555
Ca20 Sb28 3.360985 1_555
Ca20 Sb4 3.427349 1_545
Ca21 Sb32 3.043556 1_555
Ca21 Sb9 3.121018 1_655
Ca21 Sb25 3.209235 1_655
Ca21 Sb13 3.292985 1_555
Ca21 Sb29 3.360985 1_554
Ca21 Sb5 3.427349 1_655
Ca22 Sb35 3.043556 1_555
Ca22 Sb10 3.121018 1_565
Ca22 Sb26 3.209235 1_565
Ca22 Sb14 3.292985 1_555
Ca22 Sb30 3.360985 1_555
Ca22 Sb6 3.427349 1_565
Ca23 Sb34 3.043556 1_555
Ca23 Sb11 3.121018 1_455
Ca23 Sb27 3.209235 1_455
Ca23 Sb15 3.292985 1_555
Ca23 Sb31 3.360985 1_556
Ca23 Sb7 3.427349 1_455
Ca24 Sb28 3.092768 1_555
Ca24 Sb7 3.209277 1_455
Ca24 Sb10 3.274718 1_455
Ca24 Sb21 3.375480 1_455
Ca24 Sb34 3.394540 1_555
Ca24 Sb23 3.418103 1_555
Ca25 Sb29 3.092768 1_555
Ca25 Sb6 3.209277 1_565
Ca25 Sb11 3.274718 1_565
Ca25 Sb20 3.375480 1_566
Ca25 Sb35 3.394540 1_555
Ca25 Sb22 3.418103 1_555
Ca26 Sb30 3.092768 1_555
Ca26 Sb5 3.209277 1_655
Ca26 Sb8 3.274718 1_655
Ca26 Sb23 3.375480 1_655
Ca26 Sb32 3.394540 1_555
Ca26 Sb21 3.418103 1_555
Ca27 Sb31 3.092768 1_555
Ca27 Sb4 3.209277 1_545
Ca27 Sb9 3.274718 1_545
Ca27 Sb22 3.375480 1_544
Ca27 Sb33 3.394540 1_555
Ca27 Sb20 3.418103 1_555
Ca28 Sb28 3.073046 1_555
Ca28 Sb16 3.141187 1_555
Ca28 Sb33 3.365544 1_555
Ca28 Sb24 3.442594 1_545
Ca28 Sb26 3.490555 1_555
Ca29 Sb29 3.073046 1_554
Ca29 Sb17 3.141187 1_555
Ca29 Sb32 3.365544 1_555
Ca29 Sb25 3.442594 1_655
Ca29 Sb27 3.490555 1_554
Ca30 Sb30 3.073046 1_555
Ca30 Sb18 3.141187 1_555
Ca30 Sb35 3.365544 1_555
Ca30 Sb26 3.442594 1_565
Ca30 Sb24 3.490555 1_555
Ca31 Sb31 3.073046 1_556
Ca31 Sb19 3.141187 1_555
Ca31 Sb34 3.365544 1_555
Ca31 Sb27 3.442594 1_455
Ca31 Sb25 3.490555 1_556
Ca32 Sb28 3.103628 1_565
Ca32 Sb18 3.205049 1_555
Ca32 Sb15 3.271487 1_565
Ca32 Sb24 3.334304 1_555
Ca32 Sb26 3.364756 1_565
Ca33 Sb29 3.103628 1_455
Ca33 Sb19 3.205049 1_555
Ca33 Sb14 3.271487 1_455
Ca33 Sb25 3.334304 1_556
Ca33 Sb27 3.364756 1_455
Ca34 Sb30 3.103628 1_545
Ca34 Sb16 3.205049 1_555
Ca34 Sb13 3.271487 1_545
Ca34 Sb26 3.334304 1_555
Ca34 Sb24 3.364756 1_545
Ca35 Sb31 3.103628 1_655
Ca35 Sb17 3.205049 1_555
Ca35 Sb12 3.271487 1_655
Ca35 Sb27 3.334304 1_554
Ca35 Sb25 3.364756 1_655
Ca36 Sb10 3.182071 1_555
Ca36 Sb12 3.187100 1_655
Ca36 Sb21 3.209877 1_555
Ca36 Sb8 3.310068 1_645
Ca36 Sb28 3.370450 1_655
Ca36 Sb16 3.509202 1_555
Ca37 Sb11 3.182071 1_554
Ca37 Sb13 3.187100 1_545
Ca37 Sb20 3.209877 1_555
Ca37 Sb9 3.310068 1_645
Ca37 Sb29 3.370450 1_544
Ca37 Sb17 3.509202 1_555
Ca38 Sb8 3.182071 1_555
Ca38 Sb14 3.187100 1_455
Ca38 Sb23 3.209877 1_555
Ca38 Sb10 3.310068 1_465
Ca38 Sb30 3.370450 1_455
Ca38 Sb18 3.509202 1_555
Ca39 Sb9 3.182071 1_556
Ca39 Sb15 3.187100 1_565
Ca39 Sb22 3.209877 1_555
Ca39 Sb11 3.310068 1_465
Ca39 Sb31 3.370450 1_566
Ca39 Sb19 3.509202 1_555
Ca40 Sb32 3.048201 1_555
Ca40 Sb33 3.048201 1_555
Ca40 Sb0 3.323790 1_555
Ca40 Sb1 3.323790 1_555
Ca40 Sb17 3.546864 1_555
Ca40 Sb16 3.546864 1_555
Ca41 Sb35 3.048201 1_555
Ca41 Sb34 3.048201 1_555
Ca41 Sb3 3.323790 1_555
Ca41 Sb2 3.323790 1_555
Ca41 Sb18 3.546864 1_555
Ca41 Sb19 3.546864 1_555
Mn0 Sb1 2.782240 1_555
Mn0 Sb0 2.782240 1_555
Mn0 Sb4 2.796291 1_555
Mn0 Sb5 2.796291 1_555
Mn1 Sb3 2.782240 1_555
Mn1 Sb2 2.782240 1_555
Mn1 Sb7 2.796291 1_555
Mn1 Sb6 2.796291 1_555
Mn2 Sb5 2.751957 1_555
Mn2 Sb4 2.751957 1_555
Mn2 Sb9 2.864087 1_555
Mn2 Sb8 2.864087 1_555
Mn3 Sb6 2.751957 1_555
Mn3 Sb7 2.751957 1_555
Mn3 Sb11 2.864087 1_555
Mn3 Sb10 2.864087 1_555
Mn4 Sb12 2.772577 1_655
Mn4 Sb13 2.772577 1_545
Mn4 Sb8 2.802667 1_645
Mn4 Sb9 2.802667 1_645
Mn5 Sb15 2.772577 1_565
Mn5 Sb14 2.772577 1_455
Mn5 Sb11 2.802667 1_465
Mn5 Sb10 2.802667 1_465
Mn6 Sb17 2.733866 1_555
Mn6 Sb16 2.733866 1_555
Mn6 Sb12 2.860948 1_655
Mn6 Sb13 2.860948 1_545
Mn7 Sb18 2.733866 1_555
Mn7 Sb19 2.733866 1_555
Mn7 Sb15 2.860948 1_565
Mn7 Sb14 2.860948 1_455
Sb20 Sb22 2.936809 1_544
Sb21 Sb23 2.936809 1_655
Sb24 Sb26 2.965771 1_565
Sb25 Sb27 2.965771 1_454
