# generated using pymatgen
data_Te2Pb3(IO3)2
_symmetry_space_group_name_H-M   'P 1'
_cell_length_a   9.41650037
_cell_length_b   9.41650040
_cell_length_c   11.54154713
_cell_angle_alpha   72.57122093
_cell_angle_beta   72.57122006
_cell_angle_gamma   35.64662892
_symmetry_Int_Tables_number   1
_chemical_formula_structural   Te2Pb3(IO3)2
_chemical_formula_sum   'Te4 Pb6 I4 O12'
_cell_volume   566.13090902
_cell_formula_units_Z   2
loop_
 _symmetry_equiv_pos_site_id
 _symmetry_equiv_pos_as_xyz
  1  'x, y, z'
loop_
 _atom_site_type_symbol
 _atom_site_label
 _atom_site_symmetry_multiplicity
 _atom_site_fract_x
 _atom_site_fract_y
 _atom_site_fract_z
 _atom_site_occupancy
  Te  Te0  1  0.59773964  0.59773964  0.94668673  1
  Te  Te1  1  0.40226036  0.40226036  0.05331327  1
  Te  Te2  1  0.86719872  0.86719872  0.56532790  1
  Te  Te3  1  0.13280128  0.13280128  0.43467210  1
  Pb  Pb0  1  0.25260047  0.25260047  0.78264043  1
  Pb  Pb1  1  0.74739953  0.74739953  0.21735957  1
  Pb  Pb2  1  0.03001101  0.03001101  0.80417505  1
  Pb  Pb3  1  0.96998899  0.96998899  0.19582495  1
  Pb  Pb4  1  0.66939754  0.66939754  0.61434323  1
  Pb  Pb5  1  0.33060246  0.33060246  0.38565677  1
  I  I0  1  0.81873021  0.81873021  0.89371362  1
  I  I1  1  0.18126979  0.18126979  0.10628638  1
  I  I2  1  0.46575393  0.46575393  0.68605954  1
  I  I3  1  0.53424607  0.53424607  0.31394046  1
  O  O0  1  0.85986376  0.40239331  0.81645422  1
  O  O1  1  0.40239331  0.85986376  0.81645422  1
  O  O2  1  0.14013624  0.59760669  0.18354578  1
  O  O3  1  0.59760669  0.14013624  0.18354578  1
  O  O4  1  0.71054133  0.28945867  0.00000000  1
  O  O5  1  0.28945867  0.71054133  1.00000000  1
  O  O6  1  0.87483178  0.87483178  0.39994965  1
  O  O7  1  0.12516822  0.12516822  0.60005035  1
  O  O8  1  0.02760429  0.55397251  0.60643313  1
  O  O9  1  0.55397251  0.02760429  0.60643313  1
  O  O10  1  0.97239571  0.44602749  0.39356687  1
  O  O11  1  0.44602749  0.97239571  0.39356687  1
loop_
_geom_bond_atom_site_label_1
_geom_bond_atom_site_label_2
_geom_bond_distance
_geom_bond_site_symmetry_2
I0 Pb0 3.508963 1_655
I0 Pb0 3.508963 1_565
I0 Pb1 3.547199 1_556
I0 Pb2 3.599196 1_665
I1 Pb1 3.508963 1_455
I1 Pb1 3.508963 1_545
I1 Pb0 3.547199 1_554
I1 Pb3 3.599196 1_445
I2 Pb4 3.480569 1_555
I2 Pb2 3.532870 1_565
I2 Pb2 3.532870 1_655
I2 Pb0 3.628639 1_555
I3 Pb5 3.480569 1_555
I3 Pb3 3.532870 1_545
I3 Pb3 3.532870 1_455
I3 Pb1 3.628639 1_555
O0 Te0 1.946784 1_555
O0 Pb2 2.431805 1_655
O0 Pb4 2.577511 1_555
O0 Pb0 2.608793 1_655
O1 Te0 1.946784 1_555
O1 Pb2 2.431804 1_565
O1 Pb4 2.577511 1_555
O1 Pb0 2.608793 1_565
O2 Te1 1.946784 1_555
O2 Pb3 2.431805 1_455
O2 Pb5 2.577511 1_555
O2 Pb1 2.608793 1_455
O3 Te1 1.946784 1_555
O3 Pb3 2.431804 1_545
O3 Pb5 2.577511 1_555
O3 Pb1 2.608793 1_545
O4 Te1 2.060082 1_555
O4 Te0 2.060082 1_554
O4 Pb2 2.723341 1_654
O4 Pb3 2.723341 1_545
O5 Te0 2.060082 1_555
O5 Te1 2.060082 1_556
O5 Pb3 2.723341 1_456
O5 Pb2 2.723341 1_565
O6 Te2 1.870181 1_555
O6 Pb3 2.435548 1_555
O7 Te3 1.870181 1_555
O7 Pb2 2.435548 1_555
O8 Te2 1.885858 1_455
O8 Pb0 2.455646 1_555
O8 Pb4 2.546310 1_455
O9 Te2 1.885858 1_545
O9 Pb0 2.455646 1_555
O9 Pb4 2.546310 1_545
O10 Te3 1.885858 1_655
O10 Pb1 2.455646 1_555
O10 Pb5 2.546310 1_655
O11 Te3 1.885858 1_565
O11 Pb1 2.455646 1_555
O11 Pb5 2.546310 1_565
