# generated using pymatgen
data_InBi2SbO7
_symmetry_space_group_name_H-M   'P 1'
_cell_length_a   6.41234517
_cell_length_b   6.57941438
_cell_length_c   7.56268953
_cell_angle_alpha   106.82128242
_cell_angle_beta   89.52637140
_cell_angle_gamma   99.20966653
_symmetry_Int_Tables_number   1
_chemical_formula_structural   InBi2SbO7
_chemical_formula_sum   'In2 Bi4 Sb2 O14'
_cell_volume   301.23219463
_cell_formula_units_Z   2
loop_
 _symmetry_equiv_pos_site_id
 _symmetry_equiv_pos_as_xyz
  1  'x, y, z'
loop_
 _atom_site_type_symbol
 _atom_site_label
 _atom_site_symmetry_multiplicity
 _atom_site_fract_x
 _atom_site_fract_y
 _atom_site_fract_z
 _atom_site_occupancy
  In  In0  1  0.53665482  0.99634513  0.74942994  1
  In  In1  1  0.46334518  0.00365487  0.25057006  1
  Bi  Bi0  1  0.25789971  0.52768214  0.88339110  1
  Bi  Bi1  1  0.74210029  0.47231786  0.11660890  1
  Bi  Bi2  1  0.73590000  0.46095261  0.60763491  1
  Bi  Bi3  1  0.26410000  0.53904739  0.39236509  1
  Sb  Sb0  1  0.00000000  0.00000000  0.50000000  1
  Sb  Sb1  1  0.00000000  0.00000000  0.00000000  1
  O  O0  1  0.45430891  0.66810667  0.18416168  1
  O  O1  1  0.54569109  0.33189333  0.81583832  1
  O  O2  1  0.29460724  0.95300201  0.95253986  1
  O  O3  1  0.70539276  0.04699799  0.04746014  1
  O  O4  1  0.28818945  0.92719392  0.51479113  1
  O  O5  1  0.71181055  0.07280608  0.48520887  1
  O  O6  1  0.52339917  0.34046181  0.34765285  1
  O  O7  1  0.47660083  0.65953819  0.65234715  1
  O  O8  1  0.92305007  0.68183209  0.95350625  1
  O  O9  1  0.07694993  0.31816791  0.04649375  1
  O  O10  1  0.09790958  0.31107525  0.61707604  1
  O  O11  1  0.90209042  0.68892475  0.38292396  1
  O  O12  1  0.90072898  0.95035572  0.73760563  1
  O  O13  1  0.09927102  0.04964428  0.26239437  1
loop_
_geom_bond_atom_site_label_1
_geom_bond_atom_site_label_2
_geom_bond_distance
_geom_bond_site_symmetry_2
In0 O7 2.094715 1_555
In0 O1 2.108881 1_565
In0 O2 2.218608 1_555
In0 O4 2.289480 1_555
In0 O12 2.399327 1_555
In0 O3 2.419103 1_566
In0 O5 2.423076 1_565
In1 O6 2.094715 1_555
In1 O0 2.108881 1_545
In1 O3 2.218608 1_555
In1 O5 2.289480 1_555
In1 O13 2.399327 1_555
In1 O2 2.419103 1_544
In1 O4 2.423076 1_545
Bi0 O10 2.246075 1_555
Bi0 O9 2.283970 1_556
Bi0 O1 2.385460 1_555
Bi0 O0 2.464211 1_556
Bi0 O7 2.493954 1_555
Bi0 O8 2.507417 1_455
Bi0 O2 2.665312 1_555
Bi1 O11 2.246075 1_555
Bi1 O8 2.283970 1_554
Bi1 O0 2.385460 1_555
Bi1 O1 2.464211 1_554
Bi1 O6 2.493954 1_555
Bi1 O9 2.507417 1_655
Bi1 O3 2.665312 1_555
Bi2 O7 2.239755 1_555
Bi2 O1 2.257992 1_555
Bi2 O6 2.268789 1_555
Bi2 O5 2.431146 1_555
Bi2 O10 2.672506 1_655
Bi2 O11 2.684615 1_555
Bi2 O8 2.772661 1_555
Bi3 O6 2.239755 1_555
Bi3 O0 2.257992 1_555
Bi3 O7 2.268789 1_555
Bi3 O4 2.431146 1_555
Bi3 O11 2.672506 1_455
Bi3 O10 2.684615 1_555
Bi3 O9 2.772661 1_555
O2 Sb1 1.976049 1_566
O3 Sb1 1.976049 1_655
O4 Sb0 1.993678 1_565
O5 Sb0 1.993678 1_655
O8 Sb1 1.998869 1_666
O9 Sb1 1.998869 1_555
O10 Sb0 1.978918 1_555
O11 Sb0 1.978918 1_665
O12 Sb0 1.998779 1_665
O12 Sb1 2.007226 1_666
O13 Sb0 1.998779 1_555
O13 Sb1 2.007226 1_555
