# generated using pymatgen
data_KRb15(HfSe4)4
_symmetry_space_group_name_H-M   'P 1'
_cell_length_a   8.87168775
_cell_length_b   10.43804980
_cell_length_c   15.15787110
_cell_angle_alpha   89.75359940
_cell_angle_beta   89.80123129
_cell_angle_gamma   90.04598885
_symmetry_Int_Tables_number   1
_chemical_formula_structural   KRb15(HfSe4)4
_chemical_formula_sum   'K1 Rb15 Hf4 Se16'
_cell_volume   1403.64424011
_cell_formula_units_Z   1
loop_
 _symmetry_equiv_pos_site_id
 _symmetry_equiv_pos_as_xyz
  1  'x, y, z'
loop_
 _atom_site_type_symbol
 _atom_site_label
 _atom_site_symmetry_multiplicity
 _atom_site_fract_x
 _atom_site_fract_y
 _atom_site_fract_z
 _atom_site_occupancy
  K  K0  1  0.34614139  0.55484301  0.22308233  1
  Rb  Rb0  1  0.99955810  0.99684437  0.99868588  1
  Rb  Rb1  1  0.50006394  0.00004108  0.49907258  1
  Rb  Rb2  1  0.99887732  0.49701276  0.00330941  1
  Rb  Rb3  1  0.50162540  0.50168246  0.49933640  1
  Rb  Rb4  1  0.98968035  0.75065801  0.42441551  1
  Rb  Rb5  1  0.48944194  0.25024631  0.07434478  1
  Rb  Rb6  1  0.01267159  0.25156856  0.57378908  1
  Rb  Rb7  1  0.50989970  0.74945919  0.92604101  1
  Rb  Rb8  1  0.84115244  0.05569379  0.28126145  1
  Rb  Rb9  1  0.33823980  0.94376936  0.21688172  1
  Rb  Rb10  1  0.15919976  0.55584853  0.71848359  1
  Rb  Rb11  1  0.65906058  0.44442139  0.78178694  1
  Rb  Rb12  1  0.15933620  0.94535440  0.71783945  1
  Rb  Rb13  1  0.65889799  0.05513813  0.78096223  1
  Rb  Rb14  1  0.84275537  0.44503383  0.28245144  1
  Hf  Hf0  1  0.75628241  0.75002245  0.66698021  1
  Hf  Hf1  1  0.24571389  0.25228233  0.33101466  1
  Hf  Hf2  1  0.74189720  0.74853147  0.16894834  1
  Hf  Hf3  1  0.25557891  0.24983692  0.83281255  1
  Se  Se0  1  0.97272642  0.24910184  0.82148892  1
  Se  Se1  1  0.52817907  0.25108039  0.31951073  1
  Se  Se2  1  0.47330033  0.75010321  0.67827436  1
  Se  Se3  1  0.02558131  0.74391592  0.18071085  1
  Se  Se4  1  0.65092794  0.55255197  0.09221702  1
  Se  Se5  1  0.16266850  0.45103225  0.40799146  1
  Se  Se6  1  0.34174772  0.05197990  0.91075054  1
  Se  Se7  1  0.84238828  0.94790966  0.58884687  1
  Se  Se8  1  0.34052453  0.44716104  0.91034519  1
  Se  Se9  1  0.84273004  0.55275150  0.58915251  1
  Se  Se10  1  0.65921013  0.94677338  0.09048409  1
  Se  Se11  1  0.15880377  0.05464815  0.40939137  1
  Se  Se12  1  0.62464549  0.74864443  0.32060680  1
  Se  Se13  1  0.13083191  0.25406042  0.17919896  1
  Se  Se14  1  0.36999338  0.25037592  0.68017978  1
  Se  Se15  1  0.86966690  0.74962268  0.81935198  1
loop_
_geom_bond_atom_site_label_1
_geom_bond_atom_site_label_2
_geom_bond_distance
_geom_bond_site_symmetry_2
K0 Se4 3.348157 1_555
K0 Se5 3.408643 1_555
K0 Se3 3.522216 1_555
K0 Se12 3.524957 1_555
Rb0 Se6 3.359533 1_665
Rb0 Se10 3.359842 1_556
Rb0 Se0 3.761460 1_565
Rb0 Se3 3.818215 1_656
Rb0 Se15 3.931097 1_555
Rb0 Se13 4.016430 1_666
Rb1 Se11 3.370984 1_555
Rb1 Se7 3.375816 1_545
Rb1 Se2 3.764905 1_545
Rb1 Se1 3.777494 1_555
Rb1 Se12 3.933229 1_545
Rb1 Se14 3.967377 1_555
Rb2 Se8 3.379724 1_654
Rb2 Se4 3.414953 1_555
Rb2 Se3 3.740580 1_655
Rb2 Se0 3.796112 1_554
Rb2 Se13 3.857188 1_655
Rb2 Se15 4.000687 1_554
Rb3 Se5 3.357383 1_555
Rb3 Se9 3.365648 1_555
Rb3 Se2 3.768345 1_555
Rb3 Se1 3.792835 1_555
Rb3 Se12 3.884669 1_555
Rb3 Se14 3.958519 1_555
Rb4 Se9 3.482962 1_555
Rb4 Se7 3.490669 1_555
Rb4 Se5 3.494329 1_655
Rb4 Se11 3.514997 1_665
Rb4 Se12 3.605504 1_555
Rb4 Se3 3.707622 1_655
Rb5 Se4 3.476455 1_555
Rb5 Se8 3.483238 1_554
Rb5 Se6 3.494454 1_554
Rb5 Se10 3.516523 1_545
Rb5 Se13 3.551778 1_555
Rb5 Se1 3.733284 1_555
Rb6 Se11 3.484432 1_555
Rb6 Se9 3.495999 1_455
Rb6 Se5 3.514088 1_555
Rb6 Se7 3.516307 1_445
Rb6 Se14 3.561654 1_555
Rb6 Se0 3.770041 1_455
Rb7 Se4 3.480799 1_556
Rb7 Se6 3.500580 1_565
Rb7 Se10 3.503182 1_556
Rb7 Se8 3.503204 1_555
Rb7 Se15 3.573044 1_555
Rb7 Se2 3.770725 1_555
Rb8 Se11 3.428078 1_655
Rb8 Se1 3.494729 1_555
Rb8 Se10 3.509717 1_545
Rb8 Se13 3.636142 1_655
Rb8 Se12 3.779262 1_545
Rb8 Se3 3.952826 1_645
Rb9 Se10 3.426623 1_555
Rb9 Se3 3.515316 1_555
Rb9 Se11 3.519707 1_565
Rb9 Se12 3.617303 1_555
Rb9 Se13 3.768695 1_565
Rb9 Se1 3.949868 1_565
Rb10 Se9 3.430083 1_455
Rb10 Se2 3.495206 1_555
Rb10 Se8 3.512770 1_555
Rb10 Se15 3.610308 1_455
Rb10 Se14 3.744208 1_555
Rb10 Se0 3.918794 1_455
Rb11 Se8 3.427322 1_555
Rb11 Se0 3.503217 1_555
Rb11 Se9 3.520703 1_555
Rb11 Se14 3.619000 1_555
Rb11 Se15 3.738639 1_555
Rb11 Se2 3.916863 1_555
Rb12 Se7 3.430469 1_455
Rb12 Se2 3.504244 1_555
Rb12 Se6 3.530721 1_565
Rb12 Se15 3.617040 1_455
Rb12 Se14 3.731323 1_565
Rb12 Se0 3.910842 1_465
Rb13 Se6 3.427677 1_555
Rb13 Se0 3.498799 1_555
Rb13 Se7 3.518643 1_545
Rb13 Se14 3.614535 1_555
Rb13 Se15 3.742438 1_545
Rb13 Se2 3.914539 1_545
Rb14 Se5 3.423221 1_655
Rb14 Se1 3.488997 1_555
Rb14 Se4 3.532688 1_555
Rb14 Se13 3.600291 1_655
Rb14 Se12 3.760290 1_555
Rb14 Se3 3.830803 1_655
Hf0 Se7 2.494569 1_555
Hf0 Se9 2.497405 1_555
Hf0 Se2 2.515767 1_555
Hf0 Se15 2.522364 1_555
Hf1 Se5 2.495065 1_555
Hf1 Se11 2.496304 1_555
Hf1 Se1 2.511444 1_555
Hf1 Se13 2.520035 1_555
Hf2 Se4 2.492605 1_555
Hf2 Se10 2.494362 1_555
Hf2 Se12 2.519933 1_555
Hf2 Se3 2.524165 1_655
Hf3 Se8 2.493160 1_555
Hf3 Se6 2.496615 1_555
Hf3 Se0 2.515844 1_455
Hf3 Se14 2.523218 1_555
