# generated using pymatgen
data_Li6Ca4AlCd
_symmetry_space_group_name_H-M   'P 1'
_cell_length_a   5.93532734
_cell_length_b   5.93532729
_cell_length_c   9.92353811
_cell_angle_alpha   90.00000000
_cell_angle_beta   90.00000000
_cell_angle_gamma   120.00001085
_symmetry_Int_Tables_number   1
_chemical_formula_structural   Li6Ca4AlCd
_chemical_formula_sum   'Li6 Ca4 Al1 Cd1'
_cell_volume   302.75161854
_cell_formula_units_Z   1
loop_
 _symmetry_equiv_pos_site_id
 _symmetry_equiv_pos_as_xyz
  1  'x, y, z'
loop_
 _atom_site_type_symbol
 _atom_site_label
 _atom_site_symmetry_multiplicity
 _atom_site_fract_x
 _atom_site_fract_y
 _atom_site_fract_z
 _atom_site_occupancy
  Li  Li0  1  0.16014555  0.32028910  0.75211874  1
  Li  Li1  1  0.16014555  0.83985445  0.75211874  1
  Li  Li2  1  0.32028910  0.16014555  0.24788126  1
  Li  Li3  1  0.83985445  0.67971090  0.24788126  1
  Li  Li4  1  0.67971090  0.83985445  0.75211874  1
  Li  Li5  1  0.83985445  0.16014555  0.24788126  1
  Ca  Ca0  1  0.33333300  0.66666700  0.44456904  1
  Ca  Ca1  1  0.66666700  0.33333300  0.55543096  1
  Ca  Ca2  1  0.66666700  0.33333300  0.94166953  1
  Ca  Ca3  1  0.33333300  0.66666700  0.05833047  1
  Al  Al0  1  0.00000000  0.00000000  0.00000000  1
  Cd  Cd0  1  0.00000000  0.00000000  0.50000000  1
loop_
_geom_bond_atom_site_label_1
_geom_bond_atom_site_label_2
_geom_bond_distance
_geom_bond_site_symmetry_2
Ca0 Cd0 3.470628 1_565
Ca0 Cd0 3.470633 1_555
Ca0 Cd0 3.470633 1_665
Ca1 Cd0 3.470628 1_655
Ca1 Cd0 3.470633 1_665
Ca1 Cd0 3.470633 1_555
Al0 Li3 2.959952 1_445
Al0 Li0 2.959952 1_554
Al0 Li2 2.959952 1_555
Al0 Li4 2.959952 1_444
Al0 Li5 2.959958 1_455
Al0 Li1 2.959958 1_544
Al0 Ca3 3.475305 1_545
Al0 Ca2 3.475305 1_454
Al0 Ca3 3.475309 1_555
Al0 Ca2 3.475309 1_444
Al0 Ca2 3.475309 1_554
Al0 Ca3 3.475309 1_445
Cd0 Li0 2.994990 1_555
Cd0 Li3 2.994990 1_445
Cd0 Li4 2.994990 1_445
Cd0 Li2 2.994990 1_555
Cd0 Li1 2.994995 1_545
Cd0 Li5 2.994995 1_455
