# generated using pymatgen
data_Sr3YBi3
_symmetry_space_group_name_H-M   'P 1'
_cell_length_a   8.59675577
_cell_length_b   8.73389328
_cell_length_c   8.59675602
_cell_angle_alpha   109.73159637
_cell_angle_beta   108.89242408
_cell_angle_gamma   109.73159031
_symmetry_Int_Tables_number   1
_chemical_formula_structural   Sr3YBi3
_chemical_formula_sum   'Sr6 Y2 Bi6'
_cell_volume   497.21324450
_cell_formula_units_Z   2
loop_
 _symmetry_equiv_pos_site_id
 _symmetry_equiv_pos_as_xyz
  1  'x, y, z'
loop_
 _atom_site_type_symbol
 _atom_site_label
 _atom_site_symmetry_multiplicity
 _atom_site_fract_x
 _atom_site_fract_y
 _atom_site_fract_z
 _atom_site_occupancy
  Sr  Sr0  1  0.35941978  0.35475114  0.35800467  1
  Sr  Sr1  1  0.99891933  0.13857133  0.49667855  1
  Sr  Sr2  1  0.85800467  0.85475114  0.85941978  1
  Sr  Sr3  1  0.99667855  0.63857133  0.49891933  1
  Sr  Sr4  1  0.50473805  0.00497993  0.13991410  1
  Sr  Sr5  1  0.63991410  0.50497993  0.00473805  1
  Y  Y0  1  0.50206108  0.00422843  0.64126834  1
  Y  Y1  1  0.14126834  0.50422843  0.00206108  1
  Bi  Bi0  1  0.87662074  0.25246794  0.10527465  1
  Bi  Bi1  1  0.13888714  0.86654350  0.25579075  1
  Bi  Bi2  1  0.37022673  0.62845774  0.75219609  1
  Bi  Bi3  1  0.25219609  0.12845774  0.87022673  1
  Bi  Bi4  1  0.75579075  0.36654350  0.63888714  1
  Bi  Bi5  1  0.60527465  0.75246794  0.37662074  1
loop_
_geom_bond_atom_site_label_1
_geom_bond_atom_site_label_2
_geom_bond_distance
_geom_bond_site_symmetry_2
Sr0 Sr1 3.814722 1_455
Sr0 Sr4 3.825484 1_555
Sr0 Y1 3.901182 1_555
Sr1 Sr4 3.822991 1_555
Sr1 Y1 3.888685 1_656
Sr2 Sr3 3.814722 1_555
Sr2 Sr5 3.825484 1_556
Sr2 Y0 3.901182 1_565
Sr3 Sr5 3.822991 1_555
Sr3 Y0 3.888685 1_665
Sr4 Y1 3.894909 1_545
Sr5 Y0 3.894909 1_554
Bi0 Y1 3.169407 1_655
Bi0 Sr2 3.317681 1_544
Bi0 Sr4 3.371449 1_555
Bi0 Sr3 3.401668 1_555
Bi0 Y0 3.479840 1_554
Bi0 Sr5 3.595848 1_555
Bi0 Sr0 3.618197 1_655
Bi0 Sr1 3.753959 1_555
Bi1 Y1 3.191206 1_555
Bi1 Y0 3.201465 1_565
Bi1 Sr1 3.406294 1_465
Bi1 Sr2 3.423321 1_454
Bi1 Sr4 3.552544 1_565
Bi1 Sr3 3.556506 1_455
Bi1 Sr5 3.645075 1_455
Bi1 Sr0 3.671583 1_565
Bi2 Sr4 3.285768 1_566
Bi2 Sr3 3.294623 1_455
Bi2 Sr5 3.355779 1_556
Bi2 Sr0 3.373894 1_555
Bi2 Y1 3.540495 1_556
Bi2 Sr2 3.606990 1_555
Bi2 Sr1 3.634840 1_455
Bi2 Y0 3.642336 1_565
Bi3 Sr5 3.285768 1_556
Bi3 Sr1 3.294623 1_455
Bi3 Sr4 3.355779 1_556
Bi3 Sr2 3.373894 1_445
Bi3 Y0 3.540495 1_555
Bi3 Sr0 3.606990 1_556
Bi3 Sr3 3.634840 1_445
Bi3 Y1 3.642336 1_556
Bi4 Y0 3.191206 1_555
Bi4 Y1 3.201465 1_656
Bi4 Sr3 3.406294 1_555
Bi4 Sr0 3.423321 1_555
Bi4 Sr5 3.552544 1_556
Bi4 Sr1 3.556506 1_555
Bi4 Sr4 3.645075 1_555
Bi4 Sr2 3.671582 1_555
Bi5 Y0 3.169407 1_565
Bi5 Sr0 3.317682 1_555
Bi5 Sr5 3.371448 1_555
Bi5 Sr1 3.401668 1_565
Bi5 Y1 3.479840 1_555
Bi5 Sr4 3.595848 1_565
Bi5 Sr2 3.618197 1_555
Bi5 Sr3 3.753959 1_555
