# generated using pymatgen
data_NaLi2(CuO2)2
_symmetry_space_group_name_H-M   'P 1'
_cell_length_a   5.28545818
_cell_length_b   5.28545693
_cell_length_c   7.52134322
_cell_angle_alpha   61.74419492
_cell_angle_beta   61.74419911
_cell_angle_gamma   30.65041558
_symmetry_Int_Tables_number   1
_chemical_formula_structural   NaLi2(CuO2)2
_chemical_formula_sum   'Na1 Li2 Cu2 O4'
_cell_volume   93.32442389
_cell_formula_units_Z   1
loop_
 _symmetry_equiv_pos_site_id
 _symmetry_equiv_pos_as_xyz
  1  'x, y, z'
loop_
 _atom_site_type_symbol
 _atom_site_label
 _atom_site_symmetry_multiplicity
 _atom_site_fract_x
 _atom_site_fract_y
 _atom_site_fract_z
 _atom_site_occupancy
  Na  Na0  1  0.00000000  0.00000000  0.50000000  1
  Li  Li0  1  0.64046398  0.64046398  0.11820656  1
  Li  Li1  1  0.35953602  0.35953602  0.88179344  1
  Cu  Cu0  1  0.83983436  0.83983436  0.25067890  1
  Cu  Cu1  1  0.16016564  0.16016564  0.74932110  1
  O  O0  1  0.75243529  0.75243529  0.82072266  1
  O  O1  1  0.56600445  0.56600445  0.68930019  1
  O  O2  1  0.43399555  0.43399555  0.31069981  1
  O  O3  1  0.24756471  0.24756471  0.17927734  1
loop_
_geom_bond_atom_site_label_1
_geom_bond_atom_site_label_2
_geom_bond_distance
_geom_bond_site_symmetry_2
Na0 O1 2.317759 1_455
Na0 O2 2.317759 1_545
Na0 O1 2.317759 1_545
Na0 O2 2.317759 1_455
Na0 O3 2.492410 1_555
Na0 O0 2.492410 1_445
Li0 O2 1.880184 1_555
Li0 O0 1.949853 1_554
Li0 O3 1.961383 1_565
Li0 O3 1.961383 1_655
Li1 O1 1.880184 1_555
Li1 O3 1.949853 1_556
Li1 O0 1.961383 1_545
Li1 O0 1.961383 1_455
Cu0 O2 1.871422 1_565
Cu0 O2 1.871423 1_655
Cu0 O3 1.902809 1_655
Cu0 O3 1.902809 1_565
Cu1 O1 1.871422 1_545
Cu1 O1 1.871423 1_455
Cu1 O0 1.902809 1_455
Cu1 O0 1.902809 1_545
