# generated using pymatgen
data_Hf4Ta2Al6Zn
_symmetry_space_group_name_H-M   'P 1'
_cell_length_a   9.94093797
_cell_length_b   9.94093741
_cell_length_c   9.94093744
_cell_angle_alpha   30.46991842
_cell_angle_beta   30.46993427
_cell_angle_gamma   30.46992611
_symmetry_Int_Tables_number   1
_chemical_formula_structural   Hf4Ta2Al6Zn
_chemical_formula_sum   'Hf4 Ta2 Al6 Zn1'
_cell_volume   223.91177831
_cell_formula_units_Z   1
loop_
 _symmetry_equiv_pos_site_id
 _symmetry_equiv_pos_as_xyz
  1  'x, y, z'
loop_
 _atom_site_type_symbol
 _atom_site_label
 _atom_site_symmetry_multiplicity
 _atom_site_fract_x
 _atom_site_fract_y
 _atom_site_fract_z
 _atom_site_occupancy
  Hf  Hf0  1  0.83473129  0.83473129  0.83473129  1
  Hf  Hf1  1  0.16526871  0.16526871  0.16526871  1
  Hf  Hf2  1  0.64799936  0.64799936  0.64799936  1
  Hf  Hf3  1  0.35200064  0.35200064  0.35200064  1
  Ta  Ta0  1  0.54474260  0.54474260  0.54474260  1
  Ta  Ta1  1  0.45525740  0.45525740  0.45525740  1
  Al  Al0  1  0.90734983  0.41229085  0.90734983  1
  Al  Al1  1  0.90734983  0.90734983  0.41229085  1
  Al  Al2  1  0.41229085  0.90734983  0.90734983  1
  Al  Al3  1  0.09265017  0.58770915  0.09265017  1
  Al  Al4  1  0.09265017  0.09265017  0.58770915  1
  Al  Al5  1  0.58770915  0.09265017  0.09265017  1
  Zn  Zn0  1  0.00000000  0.00000000  0.00000000  1
loop_
_geom_bond_atom_site_label_1
_geom_bond_atom_site_label_2
_geom_bond_distance
_geom_bond_site_symmetry_2
Hf0 Hf1 3.017423 1_656
Hf0 Hf1 3.017424 1_665
Hf0 Hf1 3.017425 1_566
Hf0 Ta0 3.258167 1_565
Hf0 Ta0 3.258168 1_556
Hf0 Ta0 3.258169 1_655
Hf0 Ta1 3.289025 1_565
Hf0 Ta1 3.289026 1_556
Hf0 Ta1 3.289026 1_655
Hf1 Ta1 3.258167 1_545
Hf1 Ta1 3.258168 1_554
Hf1 Ta1 3.258169 1_455
Hf1 Ta0 3.289025 1_545
Hf1 Ta0 3.289026 1_554
Hf1 Ta0 3.289026 1_455
Hf2 Ta0 2.934225 1_555
Hf2 Zn0 3.062666 1_656
Hf2 Zn0 3.062667 1_665
Hf2 Zn0 3.062668 1_566
Hf2 Hf3 3.197515 1_565
Hf2 Hf3 3.197516 1_556
Hf2 Hf3 3.197516 1_655
Hf3 Ta1 2.934225 1_555
Hf3 Zn0 3.062666 1_565
Hf3 Zn0 3.062667 1_556
Hf3 Zn0 3.062668 1_655
Ta0 Ta1 2.542881 1_555
Al0 Al1 2.586445 1_555
Al0 Al2 2.586445 1_555
Al0 Zn0 2.634919 1_656
Al0 Al1 2.638073 1_546
Al0 Al2 2.638074 1_645
Al0 Ta1 2.924421 1_556
Al0 Ta1 2.924421 1_655
Al0 Hf1 2.967054 1_656
Al0 Hf0 3.020666 1_555
Al0 Hf2 3.068452 1_555
Al0 Hf3 3.073660 1_655
Al0 Hf3 3.073660 1_556
Al1 Al2 2.586446 1_555
Al1 Zn0 2.634919 1_665
Al1 Al2 2.638075 1_654
Al1 Ta1 2.924420 1_565
Al1 Ta1 2.924420 1_655
Al1 Hf1 2.967054 1_665
Al1 Hf0 3.020666 1_555
Al1 Hf2 3.068452 1_555
Al1 Hf3 3.073660 1_655
Al1 Hf3 3.073660 1_565
Al2 Zn0 2.634919 1_566
Al2 Ta1 2.924420 1_556
Al2 Ta1 2.924420 1_565
Al2 Hf1 2.967055 1_566
Al2 Hf0 3.020666 1_555
Al2 Hf2 3.068452 1_555
Al2 Hf3 3.073659 1_565
Al2 Hf3 3.073659 1_556
Al3 Al4 2.586445 1_555
Al3 Al5 2.586445 1_555
Al3 Zn0 2.634919 1_565
Al3 Al4 2.638073 1_564
Al3 Al5 2.638074 1_465
Al3 Ta0 2.924421 1_554
Al3 Ta0 2.924421 1_455
Al3 Hf0 2.967054 1_454
Al3 Hf1 3.020666 1_555
Al3 Hf3 3.068452 1_555
Al3 Hf2 3.073660 1_455
Al3 Hf2 3.073660 1_554
Al4 Al5 2.586446 1_555
Al4 Zn0 2.634919 1_556
Al4 Al5 2.638075 1_456
Al4 Ta0 2.924420 1_545
Al4 Ta0 2.924420 1_455
Al4 Hf0 2.967054 1_445
Al4 Hf1 3.020666 1_555
Al4 Hf3 3.068452 1_555
Al4 Hf2 3.073660 1_455
Al4 Hf2 3.073660 1_545
Al5 Zn0 2.634919 1_655
Al5 Ta0 2.924420 1_554
Al5 Ta0 2.924420 1_545
Al5 Hf0 2.967055 1_544
Al5 Hf1 3.020666 1_555
Al5 Hf3 3.068452 1_555
Al5 Hf2 3.073659 1_545
Al5 Hf2 3.073659 1_554
