# generated using pymatgen
data_Na4As2PtO9
_symmetry_space_group_name_H-M   'P 1'
_cell_length_a   7.26685208
_cell_length_b   7.67745959
_cell_length_c   8.68886005
_cell_angle_alpha   90.50269939
_cell_angle_beta   114.71914981
_cell_angle_gamma   89.99999865
_symmetry_Int_Tables_number   1
_chemical_formula_structural   Na4As2PtO9
_chemical_formula_sum   'Na8 As4 Pt2 O18'
_cell_volume   440.32004000
_cell_formula_units_Z   2
loop_
 _symmetry_equiv_pos_site_id
 _symmetry_equiv_pos_as_xyz
  1  'x, y, z'
loop_
 _atom_site_type_symbol
 _atom_site_label
 _atom_site_symmetry_multiplicity
 _atom_site_fract_x
 _atom_site_fract_y
 _atom_site_fract_z
 _atom_site_occupancy
  Na  Na0  1  0.25510789  0.00000000  1.00000000  1
  Na  Na1  1  0.74489311  1.00000000  0.00000000  1
  Na  Na2  1  0.10615618  0.23193233  0.21231337  1
  Na  Na3  1  0.63058273  0.72479792  0.26116546  1
  Na  Na4  1  0.00000000  0.50000000  0.50000000  1
  Na  Na5  1  0.50000000  0.50000000  0.50000000  1
  Na  Na6  1  0.36941727  0.27520208  0.73883454  1
  Na  Na7  1  0.89384282  0.76806667  0.78768763  1
  As  As0  1  0.61247111  0.23497942  0.22494421  1
  As  As1  1  0.13007239  0.72447638  0.26014478  1
  As  As2  1  0.86992761  0.27552262  0.73985522  1
  As  As3  1  0.38752789  0.76501958  0.77505679  1
  Pt  Pt0  1  0.00000000  0.00000000  0.49999900  1
  Pt  Pt1  1  0.50000000  0.00000000  0.49999900  1
  O  O0  1  0.50680261  0.21855880  0.01360623  1
  O  O1  1  0.03746470  0.82856393  0.07493041  1
  O  O2  1  0.13503053  0.50808523  0.27006206  1
  O  O3  1  0.44175223  0.11528835  0.27604962  1
  O  O4  1  0.83429739  0.11528835  0.27604962  1
  O  O5  1  0.65935537  0.43089055  0.31871273  1
  O  O6  1  0.38510669  0.77683077  0.37279118  1
  O  O7  1  0.98768348  0.77683077  0.37279118  1
  O  O8  1  0.23872339  0.11176534  0.47744678  1
  O  O9  1  0.76127661  0.88823366  0.52255222  1
  O  O10  1  0.01231552  0.22316823  0.62720782  1
  O  O11  1  0.61489231  0.22316823  0.62720782  1
  O  O12  1  0.34064463  0.56911045  0.68128727  1
  O  O13  1  0.16570261  0.88471265  0.72395038  1
  O  O14  1  0.55824677  0.88471265  0.72395038  1
  O  O15  1  0.86496847  0.49191477  0.72993694  1
  O  O16  1  0.96253530  0.17143607  0.92507059  1
  O  O17  1  0.49319739  0.78144120  0.98639377  1
loop_
_geom_bond_atom_site_label_1
_geom_bond_atom_site_label_2
_geom_bond_distance
_geom_bond_site_symmetry_2
Na0 O16 2.352411 1_455
Na0 O1 2.352416 1_546
Na0 O13 2.370244 1_545
Na0 O3 2.370246 1_556
Na0 O0 2.447570 1_556
Na0 O17 2.447576 1_545
Na1 O1 2.352405 1_655
Na1 O16 2.352406 1_564
Na1 O14 2.370246 1_554
Na1 O4 2.370248 1_565
Na1 O17 2.447576 1_554
Na1 O0 2.447581 1_565
Na2 O2 2.164284 1_555
Na2 O8 2.295099 1_555
Na2 O16 2.309805 1_454
Na2 O4 2.436226 1_455
Na2 O3 2.436232 1_555
Na3 O17 2.215973 1_554
Na3 O5 2.306018 1_555
Na3 O7 2.392181 1_555
Na3 O6 2.392188 1_555
Na3 O9 2.404287 1_555
Na4 O5 2.369523 1_455
Na4 O12 2.369525 1_555
Na4 O7 2.388582 1_455
Na4 O10 2.388586 1_555
Na4 O15 2.569056 1_455
Na4 O2 2.569059 1_555
Na5 O5 2.369512 1_555
Na5 O12 2.369514 1_555
Na5 O6 2.388583 1_555
Na5 O11 2.388586 1_555
Na5 O15 2.569056 1_555
Na5 O2 2.569064 1_555
Na6 O0 2.215973 1_556
Na6 O12 2.306025 1_555
Na6 O10 2.392188 1_555
Na6 O11 2.392189 1_555
Na6 O8 2.404297 1_555
Na7 O15 2.164280 1_555
Na7 O9 2.295114 1_555
Na7 O1 2.309807 1_656
Na7 O14 2.436236 1_555
Na7 O13 2.436243 1_655
As0 O5 1.669892 1_555
As0 O0 1.671567 1_555
As0 O3 1.746008 1_555
As0 O4 1.746020 1_555
As1 O2 1.663932 1_555
As1 O1 1.672766 1_555
As1 O6 1.740769 1_555
As1 O7 1.740775 1_455
As2 O15 1.663940 1_555
As2 O16 1.672769 1_555
As2 O11 1.740776 1_555
As2 O10 1.740776 1_655
As3 O12 1.669882 1_555
As3 O17 1.671560 1_555
As3 O13 1.746021 1_555
As3 O14 1.746021 1_555
O3 Pt1 2.022467 1_555
O4 Pt0 2.022468 1_655
O6 Pt1 2.012304 1_565
O7 Pt0 2.012302 1_665
O8 Pt0 2.017761 1_555
O8 Pt1 2.017767 1_555
O9 Pt1 2.017768 1_565
O9 Pt0 2.017768 1_665
O10 Pt0 2.012301 1_555
O11 Pt1 2.012300 1_555
O13 Pt0 2.022477 1_565
O14 Pt1 2.022480 1_565
