# generated using pymatgen
data_HfPCl9
_symmetry_space_group_name_H-M   'P 1'
_cell_length_a   7.04158581
_cell_length_b   9.25733590
_cell_length_c   9.62465454
_cell_angle_alpha   101.26628438
_cell_angle_beta   95.83550493
_cell_angle_gamma   95.19736938
_symmetry_Int_Tables_number   1
_chemical_formula_structural   HfPCl9
_chemical_formula_sum   'Hf2 P2 Cl18'
_cell_volume   608.18215924
_cell_formula_units_Z   2
loop_
 _symmetry_equiv_pos_site_id
 _symmetry_equiv_pos_as_xyz
  1  'x, y, z'
loop_
 _atom_site_type_symbol
 _atom_site_label
 _atom_site_symmetry_multiplicity
 _atom_site_fract_x
 _atom_site_fract_y
 _atom_site_fract_z
 _atom_site_occupancy
  Hf  Hf0  1  0.61535747  0.63893212  0.68146327  1
  Hf  Hf1  1  0.38464253  0.36106788  0.31853673  1
  P  P0  1  0.04945571  0.18968276  0.77326793  1
  P  P1  1  0.95054429  0.81031724  0.22673207  1
  Cl  Cl0  1  0.36909943  0.57622004  0.21176569  1
  Cl  Cl1  1  0.63090057  0.42377996  0.78823431  1
  Cl  Cl2  1  0.42123801  0.16240607  0.44426478  1
  Cl  Cl3  1  0.57876199  0.83759393  0.55573522  1
  Cl  Cl4  1  0.05498582  0.27947757  0.23981433  1
  Cl  Cl5  1  0.94501418  0.72052243  0.76018567  1
  Cl  Cl6  1  0.52047813  0.23076214  0.12081584  1
  Cl  Cl7  1  0.47952187  0.76923786  0.87918416  1
  Cl  Cl8  1  0.28476184  0.51631235  0.54992669  1
  Cl  Cl9  1  0.71523816  0.48368765  0.45007331  1
  Cl  Cl10  1  0.84463292  0.61663273  0.11757358  1
  Cl  Cl11  1  0.15536708  0.38336727  0.88242642  1
  Cl  Cl12  1  0.94537862  0.20344587  0.58278479  1
  Cl  Cl13  1  0.05462138  0.79655413  0.41721521  1
  Cl  Cl14  1  0.25126140  0.05919565  0.76109803  1
  Cl  Cl15  1  0.74873860  0.94080435  0.23890197  1
  Cl  Cl16  1  0.84709343  0.10837282  0.86821385  1
  Cl  Cl17  1  0.15290657  0.89162718  0.13178615  1
loop_
_geom_bond_atom_site_label_1
_geom_bond_atom_site_label_2
_geom_bond_distance
_geom_bond_site_symmetry_2
Cl0 Hf1 2.418967 1_555
Cl1 Hf0 2.418967 1_555
Cl2 Hf1 2.409347 1_555
Cl3 Hf0 2.409347 1_555
Cl4 Hf1 2.373630 1_555
Cl5 Hf0 2.373630 1_555
Cl6 Hf1 2.381934 1_555
Cl7 Hf0 2.381934 1_555
Cl8 Hf0 2.582811 1_555
Cl8 Hf1 2.602083 1_555
Cl9 Hf1 2.582811 1_555
Cl9 Hf0 2.602083 1_555
Cl10 P1 1.933182 1_555
Cl11 P0 1.933182 1_555
Cl12 P0 1.936341 1_655
Cl13 P1 1.936341 1_455
Cl14 P0 1.944680 1_555
Cl15 P1 1.944680 1_555
Cl16 P0 1.942000 1_655
Cl17 P1 1.942000 1_455
