# generated using pymatgen
data_Ba6SiAsI4
_symmetry_space_group_name_H-M   'P 1'
_cell_length_a   16.34325421
_cell_length_b   15.58265620
_cell_length_c   8.65289287
_cell_angle_alpha   79.18732402
_cell_angle_beta   69.47724971
_cell_angle_gamma   31.33542995
_symmetry_Int_Tables_number   1
_chemical_formula_structural   Ba6SiAsI4
_chemical_formula_sum   'Ba12 Si2 As2 I8'
_cell_volume   1044.58366172
_cell_formula_units_Z   2
loop_
 _symmetry_equiv_pos_site_id
 _symmetry_equiv_pos_as_xyz
  1  'x, y, z'
loop_
 _atom_site_type_symbol
 _atom_site_label
 _atom_site_symmetry_multiplicity
 _atom_site_fract_x
 _atom_site_fract_y
 _atom_site_fract_z
 _atom_site_occupancy
  Ba  Ba0  1  0.37653652  0.94283892  0.58641305  1
  Ba  Ba1  1  0.58641305  0.09421351  0.37653652  1
  Ba  Ba2  1  0.30834766  0.87218584  0.16041551  1
  Ba  Ba3  1  0.94283892  0.37653652  0.09421351  1
  Ba  Ba4  1  0.46148965  0.03851035  0.03851035  1
  Ba  Ba5  1  0.87218584  0.30834766  0.65904898  1
  Ba  Ba6  1  0.09421351  0.58641305  0.94283892  1
  Ba  Ba7  1  0.65904898  0.16041551  0.87218584  1
  Ba  Ba8  1  0.78698914  0.21301086  0.21301086  1
  Ba  Ba9  1  0.21301086  0.78698914  0.78698914  1
  Ba  Ba10  1  0.16041551  0.65904898  0.30834766  1
  Ba  Ba11  1  0.03851035  0.46148965  0.46148965  1
  Si  Si0  1  0.16478003  0.16478003  0.33521997  1
  Si  Si1  1  0.33521997  0.33521997  0.16478003  1
  As  As0  1  0.08286096  0.08286096  0.91713904  1
  As  As1  1  0.91713904  0.91713904  0.08286096  1
  I  I0  1  0.67088024  0.67088024  0.82911976  1
  I  I1  1  0.74701394  0.74701394  0.25298606  1
  I  I2  1  0.25298606  0.25298606  0.74701394  1
  I  I3  1  0.57788602  0.57788602  0.42211398  1
  I  I4  1  0.99637683  0.99637683  0.50362317  1
  I  I5  1  0.82911976  0.82911976  0.67088024  1
  I  I6  1  0.42211398  0.42211398  0.57788602  1
  I  I7  1  0.50362317  0.50362317  0.99637683  1
loop_
_geom_bond_atom_site_label_1
_geom_bond_atom_site_label_2
_geom_bond_distance
_geom_bond_site_symmetry_2
Ba0 Si0 3.266467 1_565
Ba0 I3 3.602168 1_555
Ba0 I2 3.639688 1_565
Ba0 I1 3.713299 1_555
Ba0 I0 3.798683 1_555
Ba1 Si1 3.266468 1_555
Ba1 I6 3.602141 1_555
Ba1 I1 3.639717 1_545
Ba1 I2 3.713313 1_555
Ba1 I5 3.798685 1_545
Ba2 Si0 3.225726 1_565
Ba2 I0 3.588590 1_554
Ba2 I4 3.639301 1_455
Ba2 I7 3.708846 1_554
Ba2 I3 3.761874 1_555
Ba3 Si0 3.266453 1_655
Ba3 I3 3.602162 1_555
Ba3 I2 3.639695 1_654
Ba3 I1 3.713293 1_555
Ba3 I0 3.798697 1_554
Ba4 Si1 3.293110 1_555
Ba4 Si0 3.293110 1_555
Ba4 I1 3.542913 1_545
Ba4 I2 3.542913 1_554
Ba4 I0 3.724078 1_544
Ba4 I5 3.724078 1_544
Ba5 Si0 3.225718 1_655
Ba5 I0 3.588597 1_555
Ba5 I4 3.639294 1_545
Ba5 I7 3.708853 1_555
Ba5 I3 3.761861 1_555
Ba6 Si1 3.266455 1_556
Ba6 I6 3.602149 1_555
Ba6 I1 3.639711 1_456
Ba6 I2 3.713321 1_555
Ba6 I5 3.798700 1_455
Ba7 Si1 3.225705 1_556
Ba7 I5 3.588570 1_545
Ba7 I7 3.639323 1_555
Ba7 I4 3.708866 1_545
Ba7 I6 3.761863 1_555
Ba8 I7 3.541790 1_554
Ba8 I4 3.541790 1_545
Ba8 I3 3.689395 1_555
Ba8 I6 3.689395 1_555
Ba9 I7 3.541790 1_555
Ba9 I4 3.541790 1_455
Ba9 I6 3.689395 1_555
Ba9 I3 3.689395 1_555
Ba10 Si1 3.225699 1_555
Ba10 I5 3.588578 1_455
Ba10 I7 3.639317 1_554
Ba10 I4 3.708874 1_455
Ba10 I6 3.761878 1_555
Ba11 Si0 3.293110 1_555
Ba11 Si1 3.293110 1_555
Ba11 I1 3.542913 1_455
Ba11 I2 3.542913 1_555
Ba11 I5 3.724078 1_455
Ba11 I0 3.724078 1_455
As0 Ba9 3.250372 1_545
As0 Ba8 3.250372 1_456
As0 Ba0 3.287722 1_545
As0 Ba3 3.287730 1_456
As0 Ba2 3.311910 1_546
As0 Ba5 3.311925 1_455
As1 Ba8 3.250372 1_565
As1 Ba9 3.250372 1_654
As1 Ba6 3.287702 1_654
As1 Ba1 3.287709 1_565
As1 Ba10 3.311913 1_655
As1 Ba7 3.311926 1_564
