# generated using pymatgen
data_Sc12Ni4SnRu
_symmetry_space_group_name_H-M   'P 1'
_cell_length_a   7.74483263
_cell_length_b   7.74471666
_cell_length_c   7.74407668
_cell_angle_alpha   106.33497037
_cell_angle_beta   110.85147010
_cell_angle_gamma   111.27572290
_symmetry_Int_Tables_number   1
_chemical_formula_structural   Sc12Ni4SnRu
_chemical_formula_sum   'Sc12 Ni4 Sn1 Ru1'
_cell_volume   356.75493391
_cell_formula_units_Z   1
loop_
 _symmetry_equiv_pos_site_id
 _symmetry_equiv_pos_as_xyz
  1  'x, y, z'
loop_
 _atom_site_type_symbol
 _atom_site_label
 _atom_site_symmetry_multiplicity
 _atom_site_fract_x
 _atom_site_fract_y
 _atom_site_fract_z
 _atom_site_occupancy
  Sc  Sc0  1  0.69578462  0.27671591  0.97250425  1
  Sc  Sc1  1  0.30423202  0.72328345  0.02750681  1
  Sc  Sc2  1  0.69574532  0.72334836  0.41910562  1
  Sc  Sc3  1  0.30427778  0.27667094  0.58093019  1
  Sc  Sc4  1  0.80158816  0.12183418  0.32022247  1
  Sc  Sc5  1  0.80162522  0.48135476  0.67978430  1
  Sc  Sc6  1  0.19842545  0.87815720  0.67977333  1
  Sc  Sc7  1  0.19837657  0.51864014  0.32022686  1
  Sc  Sc8  1  0.59658133  0.77870182  0.81790593  1
  Sc  Sc9  1  0.96079217  0.77868085  0.18209852  1
  Sc  Sc10  1  0.03922376  0.22133821  0.81789940  1
  Sc  Sc11  1  0.40341804  0.22129543  0.18210043  1
  Ni  Ni0  1  0.85568508  0.50006326  0.35576642  1
  Ni  Ni1  1  0.14425848  0.49991045  0.64421609  1
  Ni  Ni2  1  0.99997990  0.12366805  0.12364447  1
  Ni  Ni3  1  0.99999819  0.87633455  0.87630086  1
  Sn  Sn0  1  0.50000057  0.99999900  0.50000062  1
  Ru  Ru0  1  0.50000633  0.50000243  0.00001144  1
loop_
_geom_bond_atom_site_label_1
_geom_bond_atom_site_label_2
_geom_bond_distance
_geom_bond_site_symmetry_2
Sc0 Sn0 3.092238 1_545
Sc1 Sn0 3.092196 1_555
Sc2 Sn0 3.091879 1_555
Sc3 Sn0 3.091923 1_545
Sc4 Sn0 3.120704 1_545
Sc5 Sn0 3.120621 1_545
Sc6 Sn0 3.120601 1_555
Sc7 Sn0 3.120651 1_555
Sc8 Sn0 3.398618 1_555
Sc9 Sn0 3.398698 1_655
Sc10 Sn0 3.398761 1_445
Sc11 Sn0 3.398584 1_545
Ni0 Sc2 2.505062 1_555
Ni0 Sc0 2.505140 1_554
Ni0 Ni1 2.536559 1_655
Ni0 Sc5 2.720450 1_555
Ni0 Sc6 2.720512 1_655
Ni0 Sc4 2.721335 1_555
Ni0 Sc7 2.721360 1_655
Ni0 Sc11 2.874738 1_555
Ni0 Sc9 2.874824 1_555
Ni0 Ru0 3.126325 1_555
Ni1 Sc3 2.505203 1_555
Ni1 Sc1 2.505255 1_556
Ni1 Sc4 2.720282 1_455
Ni1 Sc7 2.720481 1_555
Ni1 Sc5 2.721060 1_455
Ni1 Sc6 2.721297 1_555
Ni1 Sc10 2.874544 1_555
Ni1 Sc8 2.875075 1_555
Ni1 Ru0 3.126669 1_556
Ni2 Ni3 2.296670 1_544
Ni2 Sc7 2.517931 1_655
Ni2 Sc4 2.517934 1_555
Ni2 Sc8 2.760961 1_544
Ni2 Sc10 2.761075 1_654
Ni2 Sc9 2.761402 1_545
Ni2 Sc11 2.761439 1_655
Ni2 Sc0 3.028081 1_554
Ni2 Sc3 3.028273 1_655
Ni3 Sc6 2.517843 1_655
Ni3 Sc5 2.517965 1_555
Ni3 Sc11 2.761113 1_666
Ni3 Sc10 2.761279 1_665
Ni3 Sc9 2.761318 1_556
Ni3 Sc8 2.761420 1_555
Ni3 Sc2 3.027677 1_555
Ni3 Sc1 3.028446 1_656
Ru0 Sc3 2.694361 1_554
Ru0 Sc2 2.694446 1_555
Ru0 Sc1 2.694461 1_555
Ru0 Sc0 2.694531 1_554
Ru0 Sc10 2.915111 1_554
Ru0 Sc9 2.915180 1_555
Ru0 Sc11 2.915203 1_555
Ru0 Sc8 2.915241 1_554
