# generated using pymatgen
data_Na2MoH2F8
_symmetry_space_group_name_H-M   'P 1'
_cell_length_a   5.55194534
_cell_length_b   5.41952415
_cell_length_c   5.41952444
_cell_angle_alpha   95.35334072
_cell_angle_beta   106.21345549
_cell_angle_gamma   106.21344950
_symmetry_Int_Tables_number   1
_chemical_formula_structural   Na2MoH2F8
_chemical_formula_sum   'Na2 Mo1 H2 F8'
_cell_volume   147.73815381
_cell_formula_units_Z   1
loop_
 _symmetry_equiv_pos_site_id
 _symmetry_equiv_pos_as_xyz
  1  'x, y, z'
loop_
 _atom_site_type_symbol
 _atom_site_label
 _atom_site_symmetry_multiplicity
 _atom_site_fract_x
 _atom_site_fract_y
 _atom_site_fract_z
 _atom_site_occupancy
  Na  Na0  1  0.49999900  0.73283638  0.26716162  1
  Na  Na1  1  0.49999900  0.26716162  0.73283638  1
  Mo  Mo0  1  0.00000000  0.00000000  0.00000000  1
  H  H0  1  0.76816700  0.34845119  0.34845119  1
  H  H1  1  0.23183300  0.65154981  0.65154981  1
  F  F0  1  0.76202228  0.66399253  0.00500726  1
  F  F1  1  0.76239945  0.14919770  0.14919770  1
  F  F2  1  0.23797772  0.99499374  0.33600847  1
  F  F3  1  0.73375502  0.46947448  0.46947448  1
  F  F4  1  0.26624498  0.53052552  0.53052552  1
  F  F5  1  0.76202228  0.00500726  0.66399253  1
  F  F6  1  0.23760055  0.85080130  0.85080130  1
  F  F7  1  0.23797772  0.33600847  0.99499374  1
loop_
_geom_bond_atom_site_label_1
_geom_bond_atom_site_label_2
_geom_bond_distance
_geom_bond_site_symmetry_2
F0 Mo0 1.936006 1_665
F0 Na1 2.319460 1_554
F0 Na0 2.373263 1_555
F1 H0 1.441183 1_555
F1 Mo0 2.029049 1_655
F1 Na1 2.564434 1_554
F1 Na0 2.564434 1_545
F2 Mo0 1.936008 1_565
F2 Na1 2.319441 1_565
F2 Na0 2.373270 1_555
F3 H0 0.978041 1_555
F3 Na0 2.335687 1_555
F3 Na1 2.335687 1_555
F4 H1 0.978048 1_555
F4 Na1 2.335685 1_555
F4 Na0 2.335685 1_555
F5 Mo0 1.936006 1_656
F5 Na0 2.319460 1_545
F5 Na1 2.373262 1_555
F6 H1 1.441169 1_555
F6 Mo0 2.029055 1_566
F6 Na0 2.564428 1_556
F6 Na1 2.564428 1_565
F7 Mo0 1.936008 1_556
F7 Na0 2.319441 1_556
F7 Na1 2.373270 1_555
