# generated using pymatgen
data_Li2B2Se5
_symmetry_space_group_name_H-M   'P 1'
_cell_length_a   5.31914736
_cell_length_b   5.97589371
_cell_length_c   12.06091593
_cell_angle_alpha   79.65886695
_cell_angle_beta   77.26090032
_cell_angle_gamma   63.57342478
_symmetry_Int_Tables_number   1
_chemical_formula_structural   Li2B2Se5
_chemical_formula_sum   'Li4 B4 Se10'
_cell_volume   333.40833798
_cell_formula_units_Z   2
loop_
 _symmetry_equiv_pos_site_id
 _symmetry_equiv_pos_as_xyz
  1  'x, y, z'
loop_
 _atom_site_type_symbol
 _atom_site_label
 _atom_site_symmetry_multiplicity
 _atom_site_fract_x
 _atom_site_fract_y
 _atom_site_fract_z
 _atom_site_occupancy
  Li  Li0  1  0.85540446  0.31789775  0.93261804  1
  Li  Li1  1  0.10592025  0.18210225  0.56738196  1
  Li  Li2  1  0.14459554  0.68210225  0.06738196  1
  Li  Li3  1  0.89407975  0.81789775  0.43261804  1
  B  B0  1  0.30656031  0.57404323  0.70754062  1
  B  B1  1  0.58814316  0.92595677  0.79245938  1
  B  B2  1  0.69343969  0.42595677  0.29245938  1
  B  B3  1  0.41185684  0.07404323  0.20754062  1
  Se  Se0  1  0.75548957  0.75000000  0.25000000  1
  Se  Se1  1  0.24451043  0.25000000  0.75000000  1
  Se  Se2  1  0.43552747  0.65033133  0.83928625  1
  Se  Se3  1  0.92514404  0.84966867  0.66071375  1
  Se  Se4  1  0.56447253  0.34966867  0.16071375  1
  Se  Se5  1  0.07485596  0.15033133  0.33928625  1
  Se  Se6  1  0.59745314  0.56942981  0.56081715  1
  Se  Se7  1  0.72770010  0.93057019  0.93918285  1
  Se  Se8  1  0.40254686  0.43057019  0.43918285  1
  Se  Se9  1  0.27229990  0.06942981  0.06081715  1
loop_
_geom_bond_atom_site_label_1
_geom_bond_atom_site_label_2
_geom_bond_distance
_geom_bond_site_symmetry_2
Li0 Se2 2.560931 1_555
Li0 Se1 2.619622 1_655
Li0 Se7 2.671172 1_545
Li0 Se9 2.696292 1_656
Li0 Se4 2.836814 1_556
Li1 Se3 2.560935 1_445
Li1 Se1 2.619622 1_555
Li1 Se6 2.671172 1_455
Li1 Se8 2.696292 1_555
Li1 Se5 2.836813 1_555
Li2 Se4 2.560931 1_555
Li2 Se0 2.619622 1_455
Li2 Se9 2.671172 1_565
Li2 Se7 2.696292 1_454
Li2 Se2 2.836814 1_554
Li3 Se5 2.560935 1_665
Li3 Se0 2.619622 1_555
Li3 Se8 2.671172 1_655
Li3 Se6 2.696292 1_555
Li3 Se3 2.836813 1_555
B0 Se2 2.054855 1_555
B0 Se1 2.063816 1_555
B0 Se6 2.073263 1_555
B0 Se3 2.084452 1_455
B1 Se3 2.054854 1_555
B1 Se1 2.063813 1_565
B1 Se7 2.073266 1_555
B1 Se2 2.084445 1_555
B2 Se4 2.054855 1_555
B2 Se0 2.063816 1_555
B2 Se8 2.073263 1_555
B2 Se5 2.084452 1_655
B3 Se5 2.054854 1_555
B3 Se0 2.063813 1_545
B3 Se9 2.073266 1_555
B3 Se4 2.084445 1_555
