# generated using pymatgen
data_Ca4Al18PdRh5
_symmetry_space_group_name_H-M   'P 1'
_cell_length_a   7.51993779
_cell_length_b   7.51993820
_cell_length_c   9.55084020
_cell_angle_alpha   90.02146630
_cell_angle_beta   90.02146437
_cell_angle_gamma   118.86992913
_symmetry_Int_Tables_number   1
_chemical_formula_structural   Ca4Al18PdRh5
_chemical_formula_sum   'Ca4 Al18 Pd1 Rh5'
_cell_volume   472.97074779
_cell_formula_units_Z   1
loop_
 _symmetry_equiv_pos_site_id
 _symmetry_equiv_pos_as_xyz
  1  'x, y, z'
loop_
 _atom_site_type_symbol
 _atom_site_label
 _atom_site_symmetry_multiplicity
 _atom_site_fract_x
 _atom_site_fract_y
 _atom_site_fract_z
 _atom_site_occupancy
  Ca  Ca0  1  0.99363287  0.67493766  0.25058939  1
  Ca  Ca1  1  0.00636713  0.32506234  0.74941061  1
  Ca  Ca2  1  0.67493766  0.99363287  0.25058939  1
  Ca  Ca3  1  0.32506234  0.00636713  0.74941061  1
  Al  Al0  1  0.13619433  0.13619433  0.25307088  1
  Al  Al1  1  0.86380567  0.86380567  0.74692912  1
  Al  Al2  1  0.00253049  0.34027306  0.07375559  1
  Al  Al3  1  0.99746951  0.65972694  0.92624441  1
  Al  Al4  1  0.99897019  0.66340637  0.57177079  1
  Al  Al5  1  0.33659363  0.00102981  0.42822921  1
  Al  Al6  1  0.00102981  0.33659363  0.42822921  1
  Al  Al7  1  0.66340637  0.99897019  0.57177079  1
  Al  Al8  1  0.65972694  0.99746951  0.92624441  1
  Al  Al9  1  0.34027306  0.00253049  0.07375559  1
  Al  Al10  1  0.33347279  0.33347279  0.53726764  1
  Al  Al11  1  0.66652721  0.66652721  0.46273236  1
  Al  Al12  1  0.66346553  0.66346553  0.03963508  1
  Al  Al13  1  0.33653447  0.33653447  0.96036492  1
  Al  Al14  1  0.33775475  0.54835431  0.25007512  1
  Al  Al15  1  0.66224525  0.45164569  0.74992488  1
  Al  Al16  1  0.54835431  0.33775475  0.25007512  1
  Al  Al17  1  0.45164569  0.66224525  0.74992488  1
  Pd  Pd0  1  0.00000000  0.00000000  0.00000000  1
  Rh  Rh0  1  0.67173872  0.32826128  1.00000000  1
  Rh  Rh1  1  0.32826128  0.67173872  0.00000000  1
  Rh  Rh2  1  0.32864269  0.67135731  0.50000000  1
  Rh  Rh3  1  0.67135731  0.32864269  0.50000000  1
  Rh  Rh4  1  0.00000000  0.00000000  0.50000000  1
loop_
_geom_bond_atom_site_label_1
_geom_bond_atom_site_label_2
_geom_bond_distance
_geom_bond_site_symmetry_2
Al0 Rh4 2.578865 1_555
Al0 Pd0 2.631223 1_555
Al0 Al16 2.714453 1_555
Al0 Al14 2.714453 1_555
Al0 Al6 2.753413 1_555
Al0 Al5 2.753413 1_555
Al0 Al9 2.790837 1_555
Al0 Al2 2.790837 1_555
Al0 Ca2 3.096823 1_445
Al0 Ca0 3.096824 1_445
Al1 Rh4 2.578865 1_665
Al1 Pd0 2.631223 1_666
Al1 Al17 2.714453 1_555
Al1 Al15 2.714453 1_555
Al1 Al4 2.753413 1_555
Al1 Al7 2.753413 1_555
Al1 Al8 2.790837 1_555
Al1 Al3 2.790837 1_555
Al1 Ca3 3.096823 1_665
Al1 Ca1 3.096824 1_665
Al2 Rh0 2.544379 1_454
Al2 Rh1 2.610748 1_555
Al2 Pd0 2.644962 1_555
Al2 Al3 2.801432 1_454
Al2 Al8 2.975416 1_444
Al2 Ca0 3.057771 1_455
Al2 Ca2 3.085700 1_445
Al2 Ca1 3.100494 1_554
Al3 Rh1 2.544379 1_656
Al3 Rh0 2.610748 1_555
Al3 Pd0 2.644962 1_666
Al3 Al9 2.975416 1_666
Al3 Ca1 3.057771 1_655
Al3 Ca3 3.085700 1_665
Al3 Ca0 3.100494 1_556
Al4 Rh2 2.545120 1_655
Al4 Rh4 2.618987 1_665
Al4 Rh3 2.623969 1_555
Al4 Al6 2.820253 1_655
Al4 Al5 2.924414 1_665
Al4 Ca0 3.069605 1_555
Al4 Ca3 3.070791 1_665
Al4 Ca1 3.081396 1_655
Al5 Rh2 2.545120 1_545
Al5 Rh4 2.618987 1_555
Al5 Rh3 2.623969 1_555
Al5 Al7 2.820253 1_545
Al5 Ca3 3.069605 1_555
Al5 Ca0 3.070791 1_445
Al5 Ca2 3.081396 1_545
Al6 Rh3 2.545120 1_455
Al6 Rh4 2.618987 1_555
Al6 Rh2 2.623969 1_555
Al6 Al7 2.924414 1_445
Al6 Ca1 3.069605 1_555
Al6 Ca2 3.070791 1_445
Al6 Ca0 3.081396 1_455
Al7 Rh3 2.545120 1_565
Al7 Rh4 2.618987 1_665
Al7 Rh2 2.623969 1_555
Al7 Ca2 3.069605 1_555
Al7 Ca1 3.070791 1_665
Al7 Ca3 3.081396 1_565
Al8 Rh0 2.544379 1_565
Al8 Rh1 2.610748 1_556
Al8 Pd0 2.644962 1_666
Al8 Al9 2.801432 1_566
Al8 Ca3 3.057771 1_565
Al8 Ca1 3.085700 1_665
Al8 Ca2 3.100494 1_556
Al9 Rh1 2.544379 1_545
Al9 Rh0 2.610748 1_554
Al9 Pd0 2.644962 1_555
Al9 Ca2 3.057771 1_545
Al9 Ca0 3.085700 1_445
Al9 Ca3 3.100494 1_554
Al10 Rh4 2.574864 1_555
Al10 Rh3 2.583374 1_555
Al10 Rh2 2.583374 1_555
Al10 Al11 2.645316 1_555
Al10 Al6 2.718374 1_555
Al10 Al5 2.718374 1_555
Al10 Al15 2.983404 1_555
Al10 Al17 2.983404 1_555
Al10 Ca1 3.164419 1_555
Al10 Ca3 3.164419 1_555
Al11 Rh4 2.574864 1_665
Al11 Rh2 2.583374 1_555
Al11 Rh3 2.583374 1_555
Al11 Al4 2.718374 1_555
Al11 Al7 2.718374 1_555
Al11 Al14 2.983404 1_555
Al11 Al16 2.983404 1_555
Al11 Ca0 3.164419 1_555
Al11 Ca2 3.164419 1_555
Al12 Rh1 2.579130 1_555
Al12 Rh0 2.579130 1_554
Al12 Pd0 2.601787 1_665
Al12 Al13 2.611949 1_554
Al12 Al3 2.748165 1_554
Al12 Al8 2.748166 1_554
Al12 Al14 2.957320 1_555
Al12 Al16 2.957320 1_555
Al12 Ca0 3.165532 1_555
Al12 Ca2 3.165532 1_555
Al13 Rh0 2.579130 1_555
Al13 Rh1 2.579130 1_556
Al13 Pd0 2.601787 1_556
Al13 Al2 2.748165 1_556
Al13 Al9 2.748166 1_556
Al13 Al15 2.957320 1_555
Al13 Al17 2.957320 1_555
Al13 Ca1 3.165532 1_555
Al13 Ca3 3.165532 1_555
Al14 Rh2 2.572485 1_555
Al14 Rh1 2.576057 1_555
Al14 Al16 2.727290 1_555
Al14 Al2 2.797302 1_555
Al14 Al6 2.820338 1_555
Al14 Ca2 3.072914 1_555
Al14 Ca0 3.159335 1_455
Al15 Rh3 2.572485 1_555
Al15 Rh0 2.576057 1_555
Al15 Al17 2.727290 1_555
Al15 Al3 2.797302 1_555
Al15 Al4 2.820338 1_555
Al15 Ca3 3.072914 1_555
Al15 Ca1 3.159335 1_655
Al16 Rh3 2.572485 1_555
Al16 Rh0 2.576057 1_554
Al16 Al9 2.797302 1_555
Al16 Al5 2.820338 1_555
Al16 Ca0 3.072914 1_555
Al16 Ca2 3.159335 1_545
Al17 Rh2 2.572485 1_555
Al17 Rh1 2.576057 1_556
Al17 Al8 2.797302 1_555
Al17 Al7 2.820338 1_555
Al17 Ca1 3.072914 1_555
Al17 Ca3 3.159335 1_565
