# generated using pymatgen
data_Zr13Ta3(Ir2N)4
_symmetry_space_group_name_H-M   'P 1'
_cell_length_a   8.74354440
_cell_length_b   8.69162274
_cell_length_c   8.74354437
_cell_angle_alpha   59.80219973
_cell_angle_beta   60.00000753
_cell_angle_gamma   59.80219718
_symmetry_Int_Tables_number   1
_chemical_formula_structural   Zr13Ta3(Ir2N)4
_chemical_formula_sum   'Zr13 Ta3 Ir8 N4'
_cell_volume   468.44218827
_cell_formula_units_Z   1
loop_
 _symmetry_equiv_pos_site_id
 _symmetry_equiv_pos_as_xyz
  1  'x, y, z'
loop_
 _atom_site_type_symbol
 _atom_site_label
 _atom_site_symmetry_multiplicity
 _atom_site_fract_x
 _atom_site_fract_y
 _atom_site_fract_z
 _atom_site_occupancy
  Zr  Zr0  1  0.62500000  0.12500000  0.62500000  1
  Zr  Zr1  1  0.81343996  0.81291014  0.18682495  1
  Zr  Zr2  1  0.18448844  0.18522777  0.81514189  1
  Zr  Zr3  1  0.81514189  0.18522777  0.81514189  1
  Zr  Zr4  1  0.18682495  0.81291014  0.18682495  1
  Zr  Zr5  1  0.18682495  0.81291014  0.81343996  1
  Zr  Zr6  1  0.81514189  0.18522777  0.18448844  1
  Zr  Zr7  1  0.43656004  0.43708986  0.06317505  1
  Zr  Zr8  1  0.06551156  0.06477223  0.43485811  1
  Zr  Zr9  1  0.43485811  0.06477223  0.43485811  1
  Zr  Zr10  1  0.06317505  0.43708986  0.06317505  1
  Zr  Zr11  1  0.06317505  0.43708986  0.43656004  1
  Zr  Zr12  1  0.43485811  0.06477223  0.06551156  1
  Ta  Ta0  1  0.12500000  0.62500000  0.62500000  1
  Ta  Ta1  1  0.62500000  0.62500000  0.12500000  1
  Ta  Ta2  1  0.62500000  0.62500000  0.62500000  1
  Ir  Ir0  1  0.76365397  0.42171325  0.40731789  1
  Ir  Ir1  1  0.41525821  0.75422537  0.41525821  1
  Ir  Ir2  1  0.40731789  0.42171325  0.76365397  1
  Ir  Ir3  1  0.40731789  0.42171325  0.40731789  1
  Ir  Ir4  1  0.48634603  0.82828675  0.84268211  1
  Ir  Ir5  1  0.83474179  0.49577463  0.83474179  1
  Ir  Ir6  1  0.84268211  0.82828675  0.48634603  1
  Ir  Ir7  1  0.84268211  0.82828675  0.84268211  1
  N  N0  1  0.62500000  0.12500000  0.12500000  1
  N  N1  1  0.12500000  0.62500000  0.12500000  1
  N  N2  1  0.12500000  0.12500000  0.62500000  1
  N  N3  1  0.12500000  0.12500000  0.12500000  1
loop_
_geom_bond_atom_site_label_1
_geom_bond_atom_site_label_2
_geom_bond_distance
_geom_bond_site_symmetry_2
Ir0 Ta2 2.671142 1_555
Ir0 Ta1 2.671163 1_555
Ir0 Zr0 2.764613 1_555
Ir0 Zr11 2.828040 1_655
Ir0 Zr10 2.828056 1_655
Ir0 Zr8 2.880230 1_655
Ir0 Zr1 3.085879 1_555
Ir0 Zr3 3.231707 1_555
Ir0 Zr6 3.231729 1_555
Ir1 Ta2 2.684544 1_555
Ir1 Ta1 2.684544 1_555
Ir1 Ta0 2.684544 1_555
Ir1 Zr9 2.881701 1_565
Ir1 Zr8 2.881701 1_565
Ir1 Zr12 2.881701 1_565
Ir2 Ta2 2.671142 1_555
Ir2 Ta0 2.671163 1_555
Ir2 Zr0 2.764613 1_555
Ir2 Zr7 2.828040 1_556
Ir2 Zr10 2.828056 1_556
Ir2 Zr12 2.880230 1_556
Ir2 Zr5 3.085879 1_555
Ir2 Zr3 3.231707 1_555
Ir2 Zr2 3.231729 1_555
Ir3 Ta0 2.671148 1_555
Ir3 Ta1 2.671148 1_555
Ir3 Zr0 2.764598 1_555
Ir3 Zr7 2.828066 1_555
Ir3 Zr11 2.828066 1_555
Ir3 Zr9 2.880240 1_555
Ir3 Zr4 3.085889 1_555
Ir3 Zr6 3.231717 1_555
Ir3 Zr2 3.231717 1_555
Ir4 Ta2 2.671142 1_555
Ir4 Ta1 2.671163 1_556
Ir4 Zr0 2.764613 1_565
Ir4 Zr5 2.828040 1_555
Ir4 Zr4 2.828056 1_556
Ir4 Zr2 2.880230 1_565
Ir4 Zr7 3.085879 1_556
Ir4 Zr9 3.231707 1_565
Ir4 Zr12 3.231729 1_566
Ir5 Ta2 2.684544 1_555
Ir5 Ta1 2.684544 1_556
Ir5 Ta0 2.684544 1_655
Ir5 Zr3 2.881701 1_555
Ir5 Zr2 2.881701 1_655
Ir5 Zr6 2.881701 1_556
Ir6 Ta2 2.671142 1_555
Ir6 Ta0 2.671163 1_655
Ir6 Zr0 2.764613 1_565
Ir6 Zr1 2.828040 1_555
Ir6 Zr4 2.828056 1_655
Ir6 Zr6 2.880230 1_565
Ir6 Zr11 3.085879 1_655
Ir6 Zr9 3.231707 1_565
Ir6 Zr8 3.231729 1_665
Ir7 Ta0 2.671148 1_655
Ir7 Ta1 2.671148 1_556
Ir7 Zr0 2.764598 1_565
Ir7 Zr1 2.828066 1_556
Ir7 Zr5 2.828066 1_655
Ir7 Zr3 2.880240 1_565
Ir7 Zr10 3.085889 1_656
Ir7 Zr12 3.231717 1_566
Ir7 Zr8 3.231717 1_665
N0 Zr7 2.298801 1_555
N0 Zr1 2.298801 1_545
N0 Zr6 2.307089 1_555
N0 Zr12 2.307089 1_555
N0 Zr9 2.307090 1_555
N0 Zr3 2.307090 1_554
N1 Zr4 2.306608 1_555
N1 Zr10 2.306608 1_555
N1 Zr1 2.306609 1_455
N1 Zr7 2.306609 1_555
N1 Zr5 2.306609 1_554
N1 Zr11 2.306609 1_555
N2 Zr11 2.298801 1_555
N2 Zr5 2.298801 1_545
N2 Zr2 2.307089 1_555
N2 Zr8 2.307089 1_555
N2 Zr3 2.307090 1_455
N2 Zr9 2.307090 1_555
N3 Zr10 2.298801 1_555
N3 Zr4 2.298801 1_545
N3 Zr12 2.307089 1_555
N3 Zr6 2.307089 1_455
N3 Zr8 2.307089 1_555
N3 Zr2 2.307089 1_554
