# generated using pymatgen
data_Hf2Ni2BRh4
_symmetry_space_group_name_H-M   'P 1'
_cell_length_a   5.56970170
_cell_length_b   5.56970210
_cell_length_c   5.47448474
_cell_angle_alpha   60.56391879
_cell_angle_beta   60.56391646
_cell_angle_gamma   59.77754053
_symmetry_Int_Tables_number   1
_chemical_formula_structural   Hf2Ni2BRh4
_chemical_formula_sum   'Hf2 Ni2 B1 Rh4'
_cell_volume   120.89106565
_cell_formula_units_Z   1
loop_
 _symmetry_equiv_pos_site_id
 _symmetry_equiv_pos_as_xyz
  1  'x, y, z'
loop_
 _atom_site_type_symbol
 _atom_site_label
 _atom_site_symmetry_multiplicity
 _atom_site_fract_x
 _atom_site_fract_y
 _atom_site_fract_z
 _atom_site_occupancy
  Hf  Hf0  1  0.25173456  0.25173456  0.25040482  1
  Hf  Hf1  1  0.74826644  0.74826644  0.75387095  1
  Ni  Ni0  1  0.76541395  0.23458605  0.24581561  1
  Ni  Ni1  1  0.23458605  0.76541395  0.24581561  1
  B  B0  1  0.50000000  0.50000000  0.48046052  1
  Rh  Rh0  1  0.75726361  0.75726361  0.24704471  1
  Rh  Rh1  1  0.24273639  0.24273639  0.76157094  1
  Rh  Rh2  1  0.75482754  0.24517246  0.75750892  1
  Rh  Rh3  1  0.24517246  0.75482754  0.75750892  1
loop_
_geom_bond_atom_site_label_1
_geom_bond_atom_site_label_2
_geom_bond_distance
_geom_bond_site_symmetry_2
Hf0 Rh1 2.726314 1_554
Hf0 Rh1 2.750043 1_555
Hf0 Ni0 2.770612 1_455
Hf0 Ni1 2.770612 1_545
Hf0 Rh2 2.774199 1_554
Hf0 Rh3 2.774199 1_554
Hf0 Rh0 2.775856 1_545
Hf0 Rh0 2.775856 1_455
Hf0 Rh2 2.796096 1_455
Hf0 Rh3 2.796096 1_545
Hf0 Ni0 2.802127 1_555
Hf0 Ni1 2.802127 1_555
Hf1 Rh0 2.726298 1_555
Hf1 Rh0 2.750059 1_556
Hf1 Ni1 2.770600 1_655
Hf1 Ni0 2.770601 1_565
Hf1 Rh3 2.774199 1_555
Hf1 Rh2 2.774199 1_555
Hf1 Rh1 2.775856 1_565
Hf1 Rh1 2.775856 1_655
Hf1 Rh3 2.796096 1_655
Hf1 Rh2 2.796096 1_565
Hf1 Ni1 2.802138 1_556
Hf1 Ni0 2.802138 1_556
Ni0 Rh2 2.673873 1_554
Ni0 Rh0 2.678353 1_545
Ni0 Rh1 2.678355 1_654
Ni1 Rh3 2.673873 1_554
Ni1 Rh0 2.678352 1_455
Ni1 Rh1 2.678355 1_564
B0 Ni1 1.954665 1_555
B0 Ni0 1.954665 1_555
B0 Rh1 2.051032 1_555
B0 Rh0 2.051033 1_555
B0 Rh3 2.073955 1_555
B0 Rh2 2.073955 1_555
