# generated using pymatgen
data_Zn8PdPt3O16
_symmetry_space_group_name_H-M   'P 1'
_cell_length_a   6.06185797
_cell_length_b   6.05104849
_cell_length_c   8.50144221
_cell_angle_alpha   89.73590502
_cell_angle_beta   90.00000000
_cell_angle_gamma   90.00000000
_symmetry_Int_Tables_number   1
_chemical_formula_structural   Zn8PdPt3O16
_chemical_formula_sum   'Zn8 Pd1 Pt3 O16'
_cell_volume   311.83465928
_cell_formula_units_Z   1
loop_
 _symmetry_equiv_pos_site_id
 _symmetry_equiv_pos_as_xyz
  1  'x, y, z'
loop_
 _atom_site_type_symbol
 _atom_site_label
 _atom_site_symmetry_multiplicity
 _atom_site_fract_x
 _atom_site_fract_y
 _atom_site_fract_z
 _atom_site_occupancy
  Zn  Zn0  1  0.99977660  0.23279851  0.99881772  1
  Zn  Zn1  1  0.99977660  0.76720149  0.50118228  1
  Zn  Zn2  1  0.25280925  0.25084374  0.62575140  1
  Zn  Zn3  1  0.25280925  0.74915626  0.87424860  1
  Zn  Zn4  1  0.23079428  0.00000000  0.25000000  1
  Zn  Zn5  1  0.76892747  0.00000000  0.75000000  1
  Zn  Zn6  1  0.74716353  0.25202075  0.37533074  1
  Zn  Zn7  1  0.74716353  0.74797925  0.12466926  1
  Pd  Pd0  1  0.75529462  0.50000000  0.75000000  1
  Pt  Pt0  1  0.24490087  0.50000000  0.25000000  1
  Pt  Pt1  1  0.50063086  0.75276124  0.50102992  1
  Pt  Pt2  1  0.50063086  0.24723876  0.99897008  1
  O  O0  1  0.52283102  0.74378733  0.73845620  1
  O  O1  1  0.52283102  0.25621267  0.76154380  1
  O  O2  1  0.73978478  0.98320321  0.50582715  1
  O  O3  1  0.73978478  0.01679679  0.99417285  1
  O  O4  1  0.74488773  0.51997995  0.51350474  1
  O  O5  1  0.74488773  0.48002005  0.98649526  1
  O  O6  1  0.98390037  0.73831666  0.74541747  1
  O  O7  1  0.98390037  0.26168334  0.75458253  1
  O  O8  1  0.01444058  0.73940978  0.25607299  1
  O  O9  1  0.01444058  0.26059022  0.24392701  1
  O  O10  1  0.25511150  0.52109159  0.48775712  1
  O  O11  1  0.25511150  0.47890841  0.01224288  1
  O  O12  1  0.26092158  0.98326137  0.49498862  1
  O  O13  1  0.26092158  0.01673863  0.00501138  1
  O  O14  1  0.47778359  0.74464308  0.26288869  1
  O  O15  1  0.47778359  0.25535692  0.23711131  1
loop_
_geom_bond_atom_site_label_1
_geom_bond_atom_site_label_2
_geom_bond_distance
_geom_bond_site_symmetry_2
O0 Zn3 2.003331 1_555
O0 Pt1 2.023426 1_555
O0 Pd0 2.042096 1_555
O0 Zn5 2.154091 1_565
O1 Zn2 2.003331 1_555
O1 Pt2 2.023426 1_555
O1 Pd0 2.042096 1_555
O1 Zn5 2.154091 1_555
O2 Zn6 1.965215 1_565
O2 Pt1 2.012029 1_555
O2 Zn1 2.047990 1_555
O2 Zn5 2.086269 1_565
O3 Zn7 1.965215 1_546
O3 Pt2 2.012029 1_555
O3 Zn0 2.047990 1_555
O3 Zn5 2.086269 1_555
O4 Zn6 2.006655 1_555
O4 Pd0 2.014614 1_555
O4 Pt1 2.046037 1_555
O4 Zn1 2.152842 1_555
O5 Zn7 2.006655 1_556
O5 Pd0 2.014614 1_555
O5 Pt2 2.046037 1_555
O5 Zn0 2.152842 1_555
O6 Zn3 1.965127 1_655
O6 Pd0 2.000232 1_555
O6 Zn5 2.051241 1_565
O6 Zn1 2.085114 1_555
O7 Zn2 1.965127 1_655
O7 Pd0 2.000232 1_555
O7 Zn5 2.051241 1_555
O7 Zn0 2.085114 1_555
O8 Zn7 1.968540 1_455
O8 Pt0 2.013377 1_555
O8 Zn4 2.051438 1_565
O8 Zn1 2.093218 1_455
O9 Zn6 1.968540 1_455
O9 Pt0 2.013377 1_555
O9 Zn4 2.051438 1_555
O9 Zn0 2.093218 1_454
O10 Zn2 2.008218 1_555
O10 Pt0 2.026836 1_555
O10 Pt1 2.048025 1_555
O10 Zn1 2.151296 1_455
O11 Zn3 2.008218 1_554
O11 Pt0 2.026836 1_555
O11 Pt2 2.048025 1_554
O11 Zn0 2.151296 1_454
O12 Zn2 1.968879 1_565
O12 Pt1 2.014648 1_555
O12 Zn1 2.053623 1_455
O12 Zn4 2.092736 1_565
O13 Zn3 1.968879 1_544
O13 Pt2 2.014648 1_554
O13 Zn0 2.053623 1_454
O13 Zn4 2.092736 1_555
O14 Zn7 2.011832 1_555
O14 Pt1 2.030096 1_555
O14 Pt0 2.048861 1_555
O14 Zn4 2.153989 1_565
O15 Zn6 2.011832 1_555
O15 Pt2 2.030096 1_554
O15 Pt0 2.048861 1_555
O15 Zn4 2.153989 1_555
