# generated using pymatgen
data_Rb2MoCl5O
_symmetry_space_group_name_H-M   'P 1'
_cell_length_a   7.03808993
_cell_length_b   10.05510493
_cell_length_c   13.87103789
_cell_angle_alpha   90.00000000
_cell_angle_beta   90.00000000
_cell_angle_gamma   90.00000000
_symmetry_Int_Tables_number   1
_chemical_formula_structural   Rb2MoCl5O
_chemical_formula_sum   'Rb8 Mo4 Cl20 O4'
_cell_volume   981.63577467
_cell_formula_units_Z   4
loop_
 _symmetry_equiv_pos_site_id
 _symmetry_equiv_pos_as_xyz
  1  'x, y, z'
loop_
 _atom_site_type_symbol
 _atom_site_label
 _atom_site_symmetry_multiplicity
 _atom_site_fract_x
 _atom_site_fract_y
 _atom_site_fract_z
 _atom_site_occupancy
  Rb  Rb0  1  0.69965724  0.99908860  0.13956600  1
  Rb  Rb1  1  0.80034276  0.50091140  0.63956600  1
  Rb  Rb2  1  0.30034276  0.49908860  0.86043400  1
  Rb  Rb3  1  0.19965724  0.00091140  0.36043400  1
  Rb  Rb4  1  0.30034276  0.00091140  0.86043400  1
  Rb  Rb5  1  0.19965724  0.49908860  0.36043400  1
  Rb  Rb6  1  0.69965724  0.50091140  0.13956600  1
  Rb  Rb7  1  0.80034276  0.99908860  0.63956600  1
  Mo  Mo0  1  0.68925485  0.75000000  0.39991704  1
  Mo  Mo1  1  0.81074515  0.75000000  0.89991704  1
  Mo  Mo2  1  0.31074515  0.25000000  0.60008296  1
  Mo  Mo3  1  0.18925485  0.25000000  0.10008296  1
  Cl  Cl0  1  0.97198055  0.75000000  0.49779849  1
  Cl  Cl1  1  0.52801945  0.75000000  0.99779849  1
  Cl  Cl2  1  0.02801945  0.25000000  0.50220151  1
  Cl  Cl3  1  0.47198055  0.25000000  0.00220151  1
  Cl  Cl4  1  0.93069005  0.75000000  0.25765629  1
  Cl  Cl5  1  0.56930995  0.75000000  0.75765629  1
  Cl  Cl6  1  0.06930995  0.25000000  0.74234371  1
  Cl  Cl7  1  0.43069005  0.25000000  0.24234371  1
  Cl  Cl8  1  0.46026558  0.75000000  0.27096748  1
  Cl  Cl9  1  0.03973442  0.75000000  0.77096748  1
  Cl  Cl10  1  0.53973442  0.25000000  0.72903252  1
  Cl  Cl11  1  0.96026558  0.25000000  0.22903252  1
  Cl  Cl12  1  0.70761897  0.98864061  0.38936563  1
  Cl  Cl13  1  0.79238103  0.51135939  0.88936663  1
  Cl  Cl14  1  0.29238103  0.48864061  0.61063337  1
  Cl  Cl15  1  0.20761897  0.01135939  0.11063437  1
  Cl  Cl16  1  0.29238103  0.01135939  0.61063337  1
  Cl  Cl17  1  0.20761897  0.48864061  0.11063437  1
  Cl  Cl18  1  0.70761897  0.51135939  0.38936563  1
  Cl  Cl19  1  0.79238103  0.98864061  0.88936663  1
  O  O0  1  0.53272344  0.75000000  0.48956355  1
  O  O1  1  0.96727656  0.75000000  0.98956355  1
  O  O2  1  0.46727656  0.25000000  0.51043645  1
  O  O3  1  0.03272344  0.25000000  0.01043645  1
loop_
_geom_bond_atom_site_label_1
_geom_bond_atom_site_label_2
_geom_bond_distance
_geom_bond_site_symmetry_2
Mo0 O0 1.661316 1_555
Mo1 O1 1.661316 1_555
Mo2 O2 1.661316 1_555
Mo3 O3 1.661316 1_555
Cl0 Mo0 2.408920 1_555
Cl0 Rb7 3.405778 1_555
Cl0 Rb1 3.405778 1_555
Cl0 Rb3 3.544495 1_665
Cl0 Rb5 3.544495 1_655
Cl1 Mo1 2.408920 1_555
Cl1 Rb0 3.405778 1_556
Cl1 Rb6 3.405778 1_556
Cl1 Rb4 3.544495 1_565
Cl1 Rb2 3.544495 1_555
Cl2 Mo2 2.408920 1_555
Cl2 Rb5 3.405778 1_555
Cl2 Rb3 3.405778 1_555
Cl2 Rb1 3.544495 1_455
Cl2 Rb7 3.544495 1_445
Cl3 Mo3 2.408920 1_555
Cl3 Rb2 3.405778 1_554
Cl3 Rb4 3.405778 1_554
Cl3 Rb6 3.544495 1_555
Cl3 Rb0 3.544495 1_545
Cl4 Mo0 2.604104 1_555
Cl4 Rb0 3.405908 1_555
Cl4 Rb6 3.405908 1_555
Cl4 Rb3 3.461382 1_665
Cl4 Rb5 3.461382 1_655
Cl5 Mo1 2.604104 1_555
Cl5 Rb7 3.405908 1_555
Cl5 Rb1 3.405908 1_555
Cl5 Rb4 3.461382 1_565
Cl5 Rb2 3.461382 1_555
Cl6 Mo2 2.604104 1_555
Cl6 Rb2 3.405908 1_555
Cl6 Rb4 3.405908 1_555
Cl6 Rb1 3.461382 1_455
Cl6 Rb7 3.461382 1_445
Cl7 Mo3 2.604104 1_555
Cl7 Rb5 3.405908 1_555
Cl7 Rb3 3.405908 1_555
Cl7 Rb6 3.461382 1_555
Cl7 Rb0 3.461382 1_545
Cl8 Mo0 2.407639 1_555
Cl8 Rb3 3.357012 1_565
Cl8 Rb5 3.357012 1_555
Cl8 Rb0 3.526185 1_555
Cl8 Rb6 3.526185 1_555
Cl9 Mo1 2.407639 1_455
Cl9 Rb4 3.357012 1_565
Cl9 Rb2 3.357012 1_555
Cl9 Rb7 3.526185 1_455
Cl9 Rb1 3.526185 1_455
Cl10 Mo2 2.407639 1_555
Cl10 Rb1 3.357012 1_555
Cl10 Rb7 3.357012 1_545
Cl10 Rb2 3.526185 1_555
Cl10 Rb4 3.526185 1_555
Cl11 Mo3 2.407639 1_655
Cl11 Rb6 3.357012 1_555
Cl11 Rb0 3.357012 1_545
Cl11 Rb5 3.526185 1_655
Cl11 Rb3 3.526185 1_655
Cl12 Mo0 2.407488 1_555
Cl12 Rb0 3.467025 1_555
Cl12 Rb3 3.488368 1_665
Cl12 Rb7 3.532925 1_555
Cl12 Rb3 3.599649 1_565
Cl13 Mo1 2.407487 1_555
Cl13 Rb1 3.467039 1_555
Cl13 Rb2 3.488369 1_555
Cl13 Rb6 3.532912 1_556
Cl13 Rb2 3.599651 1_655
Cl14 Mo2 2.407487 1_555
Cl14 Rb2 3.467039 1_555
Cl14 Rb1 3.488369 1_455
Cl14 Rb5 3.532912 1_555
Cl14 Rb1 3.599651 1_555
Cl15 Mo3 2.407488 1_555
Cl15 Rb3 3.467025 1_555
Cl15 Rb0 3.488368 1_545
Cl15 Rb4 3.532925 1_554
Cl15 Rb0 3.599649 1_445
Cl16 Mo2 2.407487 1_555
Cl16 Rb4 3.467039 1_555
Cl16 Rb7 3.488369 1_445
Cl16 Rb3 3.532912 1_555
Cl16 Rb7 3.599651 1_545
Cl17 Mo3 2.407488 1_555
Cl17 Rb5 3.467025 1_555
Cl17 Rb6 3.488368 1_555
Cl17 Rb2 3.532925 1_554
Cl17 Rb6 3.599649 1_455
Cl18 Mo0 2.407488 1_555
Cl18 Rb6 3.467025 1_555
Cl18 Rb5 3.488368 1_655
Cl18 Rb1 3.532925 1_555
Cl18 Rb5 3.599649 1_555
Cl19 Mo1 2.407487 1_555
Cl19 Rb7 3.467039 1_555
Cl19 Rb4 3.488369 1_565
Cl19 Rb0 3.532912 1_556
Cl19 Rb4 3.599651 1_665
