# generated using pymatgen
data_Zr2Nb2ReTc
_symmetry_space_group_name_H-M   'P 1'
_cell_length_a   5.42908185
_cell_length_b   5.38498965
_cell_length_c   5.42908118
_cell_angle_alpha   120.63944614
_cell_angle_beta   118.33279774
_cell_angle_gamma   91.15034470
_symmetry_Int_Tables_number   1
_chemical_formula_structural   Zr2Nb2ReTc
_chemical_formula_sum   'Zr2 Nb2 Re1 Tc1'
_cell_volume   112.78448277
_cell_formula_units_Z   1
loop_
 _symmetry_equiv_pos_site_id
 _symmetry_equiv_pos_as_xyz
  1  'x, y, z'
loop_
 _atom_site_type_symbol
 _atom_site_label
 _atom_site_symmetry_multiplicity
 _atom_site_fract_x
 _atom_site_fract_y
 _atom_site_fract_z
 _atom_site_occupancy
  Zr  Zr0  1  0.12894701  0.87867110  0.24972409  1
  Zr  Zr1  1  0.87105299  0.12132890  0.75027591  1
  Nb  Nb0  1  0.00000000  0.50000000  0.50000000  1
  Nb  Nb1  1  0.50000000  0.50000000  0.00000000  1
  Re  Re0  1  0.50000000  0.50000000  0.50000000  1
  Tc  Tc0  1  0.50000000  0.00000000  0.00000000  1
loop_
_geom_bond_atom_site_label_1
_geom_bond_atom_site_label_2
_geom_bond_distance
_geom_bond_site_symmetry_2
Zr0 Zr1 3.292542 1_454
Zr0 Zr1 3.331917 1_464
Zr0 Zr1 3.331917 1_565
Zr0 Zr1 3.334428 1_465
Nb0 Tc0 2.692495 1_566
Nb0 Tc0 2.692495 1_455
Nb0 Re0 2.714541 1_555
Nb0 Re0 2.714541 1_455
Nb0 Nb1 2.782657 1_455
Nb0 Nb1 2.782657 1_556
Nb0 Zr1 3.145498 1_465
Nb0 Zr0 3.145498 1_545
Nb0 Zr1 3.161293 1_454
Nb0 Zr0 3.161293 1_556
Nb0 Zr0 3.188120 1_555
Nb0 Zr1 3.188120 1_455
Nb1 Tc0 2.692495 1_565
Nb1 Tc0 2.692495 1_555
Nb1 Re0 2.714541 1_555
Nb1 Re0 2.714541 1_554
Nb1 Zr0 3.145498 1_544
Nb1 Zr1 3.145498 1_565
Nb1 Zr1 3.161293 1_554
Nb1 Zr0 3.161293 1_555
Nb1 Zr0 3.188120 1_655
Nb1 Zr1 3.188120 1_454
Re0 Tc0 2.677414 1_566
Re0 Tc0 2.677414 1_555
Re0 Zr1 3.097823 1_565
Re0 Zr0 3.097823 1_545
Re0 Zr0 3.233170 1_555
Re0 Zr1 3.233170 1_555
Re0 Zr1 3.233170 1_454
Re0 Zr0 3.233170 1_656
Tc0 Zr1 3.124983 1_554
Tc0 Zr0 3.124983 1_545
Tc0 Zr0 3.243884 1_544
Tc0 Zr1 3.243884 1_555
Tc0 Zr0 3.243884 1_645
Tc0 Zr1 3.243884 1_454
