# generated using pymatgen
data_Pr2CdS4
_symmetry_space_group_name_H-M   'P 1'
_cell_length_a   7.49654631
_cell_length_b   7.49654631
_cell_length_c   7.49654631
_cell_angle_alpha   110.79182760
_cell_angle_beta   110.79182760
_cell_angle_gamma   106.86111475
_symmetry_Int_Tables_number   1
_chemical_formula_structural   Pr2CdS4
_chemical_formula_sum   'Pr4 Cd2 S8'
_cell_volume   323.80920984
_cell_formula_units_Z   2
loop_
 _symmetry_equiv_pos_site_id
 _symmetry_equiv_pos_as_xyz
  1  'x, y, z'
loop_
 _atom_site_type_symbol
 _atom_site_label
 _atom_site_symmetry_multiplicity
 _atom_site_fract_x
 _atom_site_fract_y
 _atom_site_fract_z
 _atom_site_occupancy
  Pr  Pr0  1  0.37500000  0.98655700  0.11155700  1
  Pr  Pr1  1  0.73655700  0.62500000  0.61155700  1
  Pr  Pr2  1  0.87500000  0.26344300  0.88844300  1
  Pr  Pr3  1  0.01344300  0.12500000  0.38844300  1
  Cd  Cd0  1  0.25000000  0.75000000  0.50000000  1
  Cd  Cd1  1  0.50000000  0.50000000  0.00000000  1
  S  S0  1  0.11783200  0.99276200  0.73473100  1
  S  S1  1  0.49197000  0.25723800  0.62507100  1
  S  S2  1  0.63216800  0.86689900  0.37492900  1
  S  S3  1  0.25803000  0.38310100  0.26526900  1
  S  S4  1  0.00723800  0.74197000  0.12507100  1
  S  S5  1  0.61689900  0.88216800  0.87492900  1
  S  S6  1  0.13310100  0.50803000  0.76526900  1
  S  S7  1  0.74276200  0.36783200  0.23473100  1
loop_
_geom_bond_atom_site_label_1
_geom_bond_atom_site_label_2
_geom_bond_distance
_geom_bond_site_symmetry_2
Pr0 S2 2.824494 1_555
Pr0 S0 2.824499 1_554
Pr0 S7 2.893208 1_565
Pr0 S4 2.893210 1_555
Pr0 S5 3.028033 1_554
Pr0 S6 3.028033 1_554
Pr0 S1 3.275868 1_565
Pr0 S3 3.275869 1_565
Pr1 S5 2.824494 1_555
Pr1 S7 2.824499 1_555
Pr1 S0 2.893208 1_655
Pr1 S1 2.893210 1_555
Pr1 S2 3.028033 1_555
Pr1 S3 3.028033 1_555
Pr1 S4 3.275868 1_656
Pr1 S6 3.275869 1_655
Pr2 S1 2.824490 1_555
Pr2 S3 2.824494 1_656
Pr2 S6 2.893204 1_655
Pr2 S5 2.893204 1_545
Pr2 S7 3.028027 1_556
Pr2 S4 3.028034 1_656
Pr2 S0 3.275864 1_645
Pr2 S2 3.275869 1_545
Pr3 S4 2.824490 1_545
Pr3 S6 2.824494 1_555
Pr3 S3 2.893204 1_555
Pr3 S2 2.893204 1_445
Pr3 S0 3.028027 1_545
Pr3 S1 3.028034 1_555
Pr3 S7 3.275864 1_455
Pr3 S5 3.275869 1_444
Cd0 S3 2.720356 1_555
Cd0 S5 2.720356 1_555
Cd0 S4 2.720358 1_555
Cd0 S0 2.720360 1_555
Cd1 S2 2.720356 1_555
Cd1 S6 2.720356 1_554
Cd1 S1 2.720358 1_554
Cd1 S7 2.720360 1_555
