# generated using pymatgen
data_Rb2WCl6
_symmetry_space_group_name_H-M   'P 1'
_cell_length_a   7.09456768
_cell_length_b   7.12934227
_cell_length_c   7.09439465
_cell_angle_alpha   60.16097165
_cell_angle_beta   60.00125632
_cell_angle_gamma   60.15340098
_symmetry_Int_Tables_number   1
_chemical_formula_structural   Rb2WCl6
_chemical_formula_sum   'Rb2 W1 Cl6'
_cell_volume   254.33588374
_cell_formula_units_Z   1
loop_
 _symmetry_equiv_pos_site_id
 _symmetry_equiv_pos_as_xyz
  1  'x, y, z'
loop_
 _atom_site_type_symbol
 _atom_site_label
 _atom_site_symmetry_multiplicity
 _atom_site_fract_x
 _atom_site_fract_y
 _atom_site_fract_z
 _atom_site_occupancy
  Rb  Rb0  1  0.25005251  0.24984527  0.25005105  1
  Rb  Rb1  1  0.74994773  0.75015453  0.74994895  1
  W  W0  1  0.00000030  -0.00000056  -0.00000022  1
  Cl  Cl0  1  0.23685754  0.23797667  0.76258275  1
  Cl  Cl1  1  0.23742776  0.76202083  0.23742962  1
  Cl  Cl2  1  0.76257222  0.23797971  0.76257239  1
  Cl  Cl3  1  0.76314238  0.76202305  0.23741613  1
  Cl  Cl4  1  0.76257329  0.23797988  0.23687433  1
  Cl  Cl5  1  0.23742625  0.76202061  0.76312501  1
loop_
_geom_bond_atom_site_label_1
_geom_bond_atom_site_label_2
_geom_bond_distance
_geom_bond_site_symmetry_2
Cl0 W0 2.388098 1_556
Cl0 Rb0 3.549437 1_555
Cl0 Rb0 3.549440 1_556
Cl0 Rb1 3.564140 1_455
Cl0 Rb1 3.568891 1_545
Cl1 W0 2.387855 1_565
Cl1 Rb1 3.549540 1_554
Cl1 Rb1 3.549548 1_455
Cl1 Rb0 3.564608 1_555
Cl1 Rb0 3.569254 1_565
Cl2 W0 2.387846 1_656
Cl2 Rb0 3.549532 1_556
Cl2 Rb0 3.549556 1_655
Cl2 Rb1 3.564597 1_555
Cl2 Rb1 3.569266 1_545
Cl3 W0 2.388097 1_665
Cl3 Rb1 3.549430 1_554
Cl3 Rb1 3.549446 1_555
Cl3 Rb0 3.564141 1_655
Cl3 Rb0 3.568891 1_565
Cl4 W0 2.387898 1_655
Cl4 Rb0 3.549511 1_555
Cl4 Rb0 3.549529 1_655
Cl4 Rb1 3.564535 1_554
Cl4 Rb1 3.569215 1_545
Cl5 W0 2.387891 1_566
Cl5 Rb1 3.549516 1_555
Cl5 Rb1 3.549524 1_455
Cl5 Rb0 3.564540 1_556
Cl5 Rb0 3.569210 1_565
