# generated using pymatgen
data_Y3Pb4F17
_symmetry_space_group_name_H-M   'P 1'
_cell_length_a   9.05285826
_cell_length_b   9.08304829
_cell_length_c   9.13224121
_cell_angle_alpha   72.85534527
_cell_angle_beta   72.87365146
_cell_angle_gamma   73.00891681
_symmetry_Int_Tables_number   1
_chemical_formula_structural   Y3Pb4F17
_chemical_formula_sum   'Y6 Pb8 F34'
_cell_volume   668.16171236
_cell_formula_units_Z   2
loop_
 _symmetry_equiv_pos_site_id
 _symmetry_equiv_pos_as_xyz
  1  'x, y, z'
loop_
 _atom_site_type_symbol
 _atom_site_label
 _atom_site_symmetry_multiplicity
 _atom_site_fract_x
 _atom_site_fract_y
 _atom_site_fract_z
 _atom_site_occupancy
  Y  Y0  1  0.46860469  0.15763361  0.61172687  1
  Y  Y1  1  0.60803215  0.47091282  0.16632286  1
  Y  Y2  1  0.84312482  0.38812372  0.53270673  1
  Y  Y3  1  0.18377083  0.60853249  0.46604828  1
  Y  Y4  1  0.38909435  0.53309208  0.83643813  1
  Y  Y5  1  0.52448861  0.81930639  0.39542762  1
  Pb  Pb0  1  0.89858226  0.03654665  0.30658004  1
  Pb  Pb1  1  0.26760741  0.25818009  0.26254708  1
  Pb  Pb2  1  0.04915269  0.30853139  0.89420759  1
  Pb  Pb3  1  0.70338206  0.09561436  0.96260226  1
  Pb  Pb4  1  0.31878075  0.89088146  0.04797175  1
  Pb  Pb5  1  0.95642892  0.68590768  0.11022749  1
  Pb  Pb6  1  0.74265638  0.73388829  0.73436851  1
  Pb  Pb7  1  0.11190509  0.94483367  0.68334053  1
  F  F0  1  0.98264068  0.00058304  0.01341990  1
  F  F1  1  0.45500759  0.02213778  0.17790092  1
  F  F2  1  0.14042903  0.13643217  0.13430367  1
  F  F3  1  0.35627261  0.04272603  0.49029248  1
  F  F4  1  0.02511800  0.17336276  0.45333759  1
  F  F5  1  0.25495105  0.07288348  0.79467161  1
  F  F6  1  0.54347678  0.26147024  0.34988592  1
  F  F7  1  0.78982977  0.25839979  0.08437371  1
  F  F8  1  0.49333841  0.35457511  0.04119004  1
  F  F9  1  0.17590348  0.45077713  0.02312209  1
  F  F10  1  0.25852761  0.34412252  0.54842706  1
  F  F11  1  0.69887265  0.20846000  0.59078998  1
  F  F12  1  0.04968924  0.48863401  0.35714650  1
  F  F13  1  0.39813328  0.30380510  0.79159962  1
  F  F14  1  0.34184831  0.55319991  0.23923983  1
  F  F15  1  0.92327383  0.20605378  0.74466728  1
  F  F16  1  0.79569656  0.41635630  0.29897808  1
  F  F17  1  0.19153446  0.60651795  0.70936189  1
  F  F18  1  0.45756065  0.56617706  0.46976083  1
  F  F19  1  0.07823985  0.78637047  0.25847794  1
  F  F20  1  0.65119517  0.45615184  0.73688980  1
  F  F21  1  0.59213449  0.71563044  0.18185539  1
  F  F22  1  0.96353856  0.50803924  0.64378577  1
  F  F23  1  0.27166383  0.83522517  0.39629903  1
  F  F24  1  0.74439124  0.65018934  0.45564862  1
  F  F25  1  0.82594446  0.54389938  0.97597874  1
  F  F26  1  0.51220361  0.64382515  0.95243924  1
  F  F27  1  0.20663831  0.74361516  0.92859338  1
  F  F28  1  0.44109455  0.75384907  0.66108151  1
  F  F29  1  0.73925906  0.91300649  0.21930484  1
  F  F30  1  0.97746532  0.82057683  0.54692653  1
  F  F31  1  0.64365052  0.95181641  0.51080142  1
  F  F32  1  0.86696016  0.85790360  0.86139331  1
  F  F33  1  0.54890389  0.97624457  0.82554672  1
loop_
_geom_bond_atom_site_label_1
_geom_bond_atom_site_label_2
_geom_bond_distance
_geom_bond_site_symmetry_2
F0 Pb3 2.555606 1_554
F0 Pb0 2.650222 1_555
F1 Y5 2.374228 1_545
F1 Pb1 2.480179 1_555
F1 Pb3 2.620421 1_554
F1 Pb4 2.627787 1_545
F2 Pb1 2.494362 1_555
F2 Pb2 2.495060 1_554
F2 Pb0 2.526362 1_455
F2 Pb4 2.526913 1_545
F3 Y0 2.306553 1_555
F3 Y5 2.375102 1_545
F3 Pb1 2.542684 1_555
F3 Pb7 2.592495 1_545
F4 Y2 2.301502 1_455
F4 Pb1 2.528367 1_555
F4 Pb7 2.605018 1_545
F4 Pb0 2.714927 1_455
F5 Y0 2.309461 1_555
F5 Pb4 2.528251 1_546
F5 Pb7 2.533036 1_545
F5 Pb2 2.587981 1_555
F6 Y1 2.227851 1_555
F6 Y0 2.270725 1_555
F7 Y1 2.294388 1_555
F7 Pb3 2.488692 1_554
F7 Pb2 2.547927 1_654
F7 Pb0 2.598859 1_555
F8 Y4 2.318084 1_554
F8 Y1 2.356383 1_555
F8 Pb1 2.568696 1_555
F8 Pb3 2.690892 1_554
F9 Y4 2.311781 1_554
F9 Pb1 2.548609 1_555
F9 Pb5 2.594687 1_455
F9 Pb2 2.632646 1_554
F10 Y0 2.237787 1_555
F10 Y3 2.253131 1_555
F11 Y0 2.206998 1_555
F11 Y2 2.230918 1_555
F12 Y2 2.295617 1_455
F12 Y3 2.402196 1_555
F12 Pb1 2.582386 1_555
F12 Pb5 2.619759 1_455
F13 Y4 2.212495 1_555
F13 Y0 2.245345 1_555
F14 Y3 2.244620 1_555
F14 Y1 2.259329 1_555
F15 Y2 2.290588 1_555
F15 Pb2 2.513145 1_655
F15 Pb3 2.566441 1_555
F15 Pb7 2.590653 1_645
F16 Y2 2.226827 1_555
F16 Y1 2.228361 1_555
F17 Y3 2.238260 1_555
F17 Y4 2.249259 1_555
F18 Y5 2.401233 1_555
F18 Y3 2.403543 1_555
F19 Y3 2.339786 1_555
F19 Pb0 2.451439 1_465
F19 Pb5 2.465235 1_455
F19 Pb4 2.646759 1_555
F20 Y2 2.240836 1_555
F20 Y4 2.253854 1_555
F21 Y1 2.229012 1_555
F21 Y5 2.260132 1_555
F22 Y2 2.323844 1_555
F22 Y3 2.393094 1_655
F22 Pb6 2.553401 1_555
F22 Pb2 2.625697 1_655
F23 Y5 2.248566 1_555
F23 Y3 2.272520 1_555
F24 Y5 2.232631 1_555
F24 Y2 2.258232 1_555
F25 Y1 2.327669 1_556
F25 Pb6 2.527722 1_555
F25 Pb2 2.595950 1_655
F25 Pb5 2.690344 1_556
F26 Y4 2.313999 1_555
F26 Y1 2.329692 1_556
F26 Pb6 2.564691 1_555
F26 Pb4 2.611684 1_556
F27 Y4 2.318866 1_555
F27 Pb5 2.474936 1_456
F27 Pb4 2.512702 1_556
F27 Pb7 2.625641 1_555
F28 Y4 2.240813 1_555
F28 Y5 2.267652 1_555
F29 Y5 2.325899 1_555
F29 Pb0 2.474863 1_565
F29 Pb3 2.488640 1_564
F29 Pb5 2.607727 1_555
F30 Y3 2.380568 1_655
F30 Pb6 2.471687 1_555
F30 Pb0 2.596462 1_565
F30 Pb7 2.613752 1_655
F31 Y0 2.297767 1_565
F31 Y5 2.428657 1_555
F31 Pb6 2.558933 1_555
F31 Pb0 2.655863 1_565
F32 Pb6 2.482107 1_555
F32 Pb3 2.492152 1_565
F32 Pb7 2.515407 1_655
F32 Pb5 2.551854 1_556
F33 Y0 2.301103 1_565
F33 Pb6 2.565074 1_555
F33 Pb4 2.567175 1_556
F33 Pb3 2.723053 1_565
