# generated using pymatgen
data_Rb9Ba3(NbAs4)2
_symmetry_space_group_name_H-M   'P 1'
_cell_length_a   10.75795390
_cell_length_b   10.87213358
_cell_length_c   8.18281938
_cell_angle_alpha   90.06480634
_cell_angle_beta   91.38166015
_cell_angle_gamma   118.87169899
_symmetry_Int_Tables_number   1
_chemical_formula_structural   Rb9Ba3(NbAs4)2
_chemical_formula_sum   'Rb9 Ba3 Nb2 As8'
_cell_volume   837.78351093
_cell_formula_units_Z   1
loop_
 _symmetry_equiv_pos_site_id
 _symmetry_equiv_pos_as_xyz
  1  'x, y, z'
loop_
 _atom_site_type_symbol
 _atom_site_label
 _atom_site_symmetry_multiplicity
 _atom_site_fract_x
 _atom_site_fract_y
 _atom_site_fract_z
 _atom_site_occupancy
  Rb  Rb0  1  0.53192798  0.05986724  0.10448005  1
  Rb  Rb1  1  0.85123268  0.13549102  0.81876787  1
  Rb  Rb2  1  0.27202877  0.12656003  0.78453775  1
  Rb  Rb3  1  0.87038565  0.73584778  0.80841867  1
  Rb  Rb4  1  0.14358515  0.86432190  0.27906478  1
  Rb  Rb5  1  0.72626459  0.87285419  0.30235500  1
  Rb  Rb6  1  0.12499290  0.26119839  0.27248558  1
  Rb  Rb7  1  0.47458782  0.94458713  0.60190562  1
  Rb  Rb8  1  0.94134003  0.46897770  0.10694438  1
  Ba  Ba0  1  0.47442600  0.53031355  0.60979855  1
  Ba  Ba1  1  0.06231160  0.53052090  0.59765433  1
  Ba  Ba2  1  0.53201575  0.47206781  0.11156819  1
  Nb  Nb0  1  0.66730285  0.33981750  0.50665526  1
  Nb  Nb1  1  0.33148309  0.65904148  0.99732590  1
  As  As0  1  0.65667948  0.35198189  0.81120646  1
  As  As1  1  0.32761075  0.64255407  0.30818037  1
  As  As2  1  0.20508265  0.78096033  0.88706277  1
  As  As3  1  0.58162493  0.77604565  0.90531076  1
  As  As4  1  0.21451330  0.41500354  0.87662478  1
  As  As5  1  0.80207207  0.21841406  0.42410180  1
  As  As6  1  0.41771997  0.22340310  0.39289753  1
  As  As7  1  0.79081096  0.59017072  0.40705158  1
loop_
_geom_bond_atom_site_label_1
_geom_bond_atom_site_label_2
_geom_bond_distance
_geom_bond_site_symmetry_2
Nb1 Rb8 3.807998 1_456
As0 Nb0 2.503725 1_555
As0 Ba2 3.374404 1_556
As0 Rb8 3.567388 1_556
As0 Rb2 3.652274 1_555
As0 Rb3 3.666151 1_555
As0 Rb0 3.701767 1_556
As0 Ba0 3.720484 1_555
As0 Rb1 3.830910 1_555
As1 Nb1 2.550105 1_554
As1 Ba0 3.428595 1_555
As1 Ba1 3.495080 1_555
As1 Rb6 3.642274 1_555
As1 Rb7 3.720846 1_555
As1 Rb5 3.782153 1_555
As1 Rb4 3.791785 1_555
As1 Ba2 3.867752 1_555
As1 Rb8 3.953589 1_455
As2 Nb1 2.470694 1_555
As2 Ba1 3.339527 1_555
As2 Rb3 3.435333 1_455
As2 Rb4 3.496160 1_556
As2 Rb7 3.517139 1_555
As2 Rb2 3.572620 1_565
As2 Rb8 3.709307 1_456
As2 Rb0 3.756767 1_566
As3 Nb1 2.494149 1_555
As3 Ba0 3.345213 1_555
As3 Rb3 3.449473 1_555
As3 Rb5 3.500218 1_556
As3 Ba2 3.522560 1_556
As3 Rb7 3.571775 1_555
As3 Rb1 3.653130 1_565
As3 Rb0 3.753347 1_566
As4 Nb1 2.511667 1_555
As4 Ba0 3.327558 1_555
As4 Ba1 3.358791 1_555
As4 Rb2 3.560353 1_555
As4 Rb6 3.581062 1_556
As4 Rb1 3.629204 1_455
As4 Ba2 3.658136 1_556
As4 Rb8 3.802990 1_456
As5 Nb0 2.488731 1_555
As5 Rb1 3.450610 1_555
As5 Ba1 3.463000 1_655
As5 Rb6 3.531666 1_655
As5 Rb8 3.558526 1_555
As5 Rb5 3.572944 1_545
As5 Rb0 3.611533 1_555
As5 Rb7 3.676971 1_545
As6 Nb0 2.504534 1_555
As6 Ba2 3.325777 1_555
As6 Rb6 3.486793 1_555
As6 Rb0 3.532795 1_555
As6 Rb2 3.534345 1_555
As6 Ba0 3.553163 1_555
As6 Rb4 3.680615 1_545
As6 Rb7 3.773648 1_545
As7 Nb0 2.530428 1_555
As7 Ba2 3.385595 1_555
As7 Rb3 3.545611 1_555
As7 Rb8 3.554453 1_555
As7 Rb5 3.563696 1_555
As7 Ba0 3.591171 1_555
As7 Ba1 3.604995 1_655
As7 Rb4 3.695780 1_655
