# generated using pymatgen
data_Hf3Zr7Sn6Cl
_symmetry_space_group_name_H-M   'P 1'
_cell_length_a   5.81502632
_cell_length_b   8.53472467
_cell_length_c   8.53465850
_cell_angle_alpha   120.00025289
_cell_angle_beta   90.00249615
_cell_angle_gamma   89.99744166
_symmetry_Int_Tables_number   1
_chemical_formula_structural   Hf3Zr7Sn6Cl
_chemical_formula_sum   'Hf3 Zr7 Sn6 Cl1'
_cell_volume   366.82326560
_cell_formula_units_Z   1
loop_
 _symmetry_equiv_pos_site_id
 _symmetry_equiv_pos_as_xyz
  1  'x, y, z'
loop_
 _atom_site_type_symbol
 _atom_site_label
 _atom_site_symmetry_multiplicity
 _atom_site_fract_x
 _atom_site_fract_y
 _atom_site_fract_z
 _atom_site_occupancy
  Hf  Hf0  1  0.50000003  0.33331988  0.66665213  1
  Hf  Hf1  1  0.50000072  0.66667271  0.33334551  1
  Hf  Hf2  1  0.99999984  0.66665006  0.33331603  1
  Zr  Zr0  1  0.99999989  0.33334399  0.66668527  1
  Zr  Zr1  1  0.76544172  0.25615704  0.00011451  1
  Zr  Zr2  1  0.76538926  0.74394329  0.74382631  1
  Zr  Zr3  1  0.76537812  0.99988499  0.25606129  1
  Zr  Zr4  1  0.23455929  0.74395958  0.00011823  1
  Zr  Zr5  1  0.23461026  0.25618033  0.25605203  1
  Zr  Zr6  1  0.23462220  0.99989544  0.74382885  1
  Sn  Sn0  1  0.74697012  0.60721083  0.00077945  1
  Sn  Sn1  1  0.74701169  0.39353911  0.39274721  1
  Sn  Sn2  1  0.74702928  0.99923161  0.60646655  1
  Sn  Sn3  1  0.25303152  0.39353395  0.00078340  1
  Sn  Sn4  1  0.25298615  0.60723228  0.60643832  1
  Sn  Sn5  1  0.25297038  0.99923728  0.39278209  1
  Cl  Cl0  1  0.50000053  0.00000863  0.00000179  1
loop_
_geom_bond_atom_site_label_1
_geom_bond_atom_site_label_2
_geom_bond_distance
_geom_bond_site_symmetry_2
Hf0 Zr0 2.907512 1_555
Hf0 Zr0 2.907514 1_455
Hf0 Sn5 2.998703 1_545
Hf0 Sn2 2.998764 1_545
Hf0 Sn0 2.998777 1_556
Hf0 Sn3 2.998917 1_556
Hf0 Sn4 2.998918 1_555
Hf0 Sn1 2.998989 1_555
Hf1 Sn1 2.989277 1_555
Hf1 Sn4 2.989278 1_555
Hf1 Sn0 2.989320 1_555
Hf1 Sn3 2.989333 1_555
Hf1 Sn2 2.989466 1_555
Hf1 Sn5 2.989467 1_555
Hf2 Sn4 3.006107 1_655
Hf2 Sn0 3.006154 1_555
Hf2 Sn1 3.006229 1_555
Hf2 Sn3 3.006249 1_655
Hf2 Sn2 3.006381 1_555
Hf2 Sn5 3.006409 1_655
Sn0 Zr3 2.947579 1_555
Sn0 Zr2 2.956656 1_554
Sn0 Zr1 2.995236 1_555
Sn0 Zr0 3.015610 1_554
Sn0 Zr4 3.067286 1_655
Sn0 Zr4 3.201088 1_555
Sn1 Zr1 2.947251 1_555
Sn1 Zr3 2.956462 1_545
Sn1 Zr2 2.995371 1_555
Sn1 Zr0 3.015797 1_555
Sn1 Zr5 3.067113 1_655
Sn1 Zr5 3.200921 1_555
Sn2 Zr2 2.947409 1_555
Sn2 Zr1 2.956344 1_566
Sn2 Zr3 2.995287 1_555
Sn2 Zr0 3.015659 1_565
Sn2 Zr6 3.067048 1_655
Sn2 Zr6 3.201008 1_555
Sn3 Zr5 2.947226 1_555
Sn3 Zr6 2.956345 1_544
Sn3 Zr4 2.995551 1_555
Sn3 Zr0 3.015681 1_454
Sn3 Zr1 3.067169 1_455
Sn3 Zr1 3.200970 1_555
Sn4 Zr6 2.947488 1_555
Sn4 Zr4 2.956601 1_556
Sn4 Zr5 2.995179 1_555
Sn4 Zr0 3.015809 1_455
Sn4 Zr2 3.067178 1_455
Sn4 Zr2 3.201000 1_555
Sn5 Zr4 2.947486 1_555
Sn5 Zr5 2.956545 1_565
Sn5 Zr6 2.995165 1_555
Sn5 Zr0 3.015580 1_465
Sn5 Zr3 3.067090 1_455
Sn5 Zr3 3.201056 1_555
Cl0 Zr6 2.675654 1_544
Cl0 Zr3 2.675687 1_545
Cl0 Zr5 2.675710 1_555
Cl0 Zr2 2.675771 1_544
Cl0 Zr1 2.675821 1_555
Cl0 Zr4 2.675927 1_545
