# generated using pymatgen
data_BeV2Si5W8
_symmetry_space_group_name_H-M   'P 1'
_cell_length_a   7.17834888
_cell_length_b   7.17804979
_cell_length_c   7.17834823
_cell_angle_alpha   96.37412641
_cell_angle_beta   96.37826261
_cell_angle_gamma   141.07097438
_symmetry_Int_Tables_number   1
_chemical_formula_structural   BeV2Si5W8
_chemical_formula_sum   'Be1 V2 Si5 W8'
_cell_volume   219.12647052
_cell_formula_units_Z   1
loop_
 _symmetry_equiv_pos_site_id
 _symmetry_equiv_pos_as_xyz
  1  'x, y, z'
loop_
 _atom_site_type_symbol
 _atom_site_label
 _atom_site_symmetry_multiplicity
 _atom_site_fract_x
 _atom_site_fract_y
 _atom_site_fract_z
 _atom_site_occupancy
  Be  Be0  1  0.24999580  0.25000000  0.99999580  1
  V  V0  1  0.24994195  0.75000000  0.49994195  1
  V  V1  1  0.75006945  0.25000000  0.50006945  1
  Si  Si0  1  0.74995424  0.75000000  0.99995424  1
  Si  Si1  1  0.16432433  0.66432700  0.82841335  1
  Si  Si2  1  0.83568256  0.33568913  0.17159699  1
  Si  Si3  1  0.33590686  0.16431087  0.49999243  1
  Si  Si4  1  0.66408835  0.83567300  0.49999733  1
  W  W0  1  0.07896602  0.22673794  0.29912512  1
  W  W1  1  0.92757289  0.77991492  0.70097346  1
  W  W2  1  0.78001716  0.07915025  0.85236908  1
  W  W3  1  0.42105754  0.72008508  0.14765697  1
  W  W4  1  0.22655984  0.92754203  0.14780201  1
  W  W5  1  0.57238718  0.27326206  0.85222708  1
  W  W6  1  0.72025998  0.57245797  0.29901681  1
  W  W7  1  0.27321883  0.42084975  0.70086891  1
loop_
_geom_bond_atom_site_label_1
_geom_bond_atom_site_label_2
_geom_bond_distance
_geom_bond_site_symmetry_2
Be0 Si0 2.391941 1_555
Be0 Si0 2.391941 1_445
Be0 W1 2.547019 1_445
Be0 W3 2.547021 1_556
Be0 W7 2.547263 1_555
Be0 W2 2.547276 1_455
Be0 W6 2.547663 1_556
Be0 W4 2.547668 1_546
Be0 W0 2.547988 1_556
Be0 W5 2.547992 1_555
V0 V1 2.391941 1_455
V0 V1 2.391941 1_565
V0 W5 2.987364 1_565
V0 W0 2.987368 1_555
V0 W1 2.988275 1_455
V0 W3 2.988277 1_555
V0 W4 2.999298 1_555
V0 W6 2.999300 1_455
V0 W2 3.001272 1_565
V0 W7 3.001280 1_555
V1 W2 2.987257 1_555
V1 W7 2.987261 1_655
V1 W4 2.988283 1_545
V1 W6 2.988287 1_555
V1 W5 2.999838 1_555
V1 W0 2.999845 1_655
V1 W1 3.000818 1_555
V1 W3 3.000821 1_545
Si0 W1 2.561684 1_555
Si0 W3 2.561687 1_556
Si0 W7 2.562096 1_555
Si0 W2 2.562105 1_565
Si0 W6 2.562165 1_556
Si0 W4 2.562172 1_656
Si0 W0 2.562644 1_666
Si0 W5 2.562645 1_555
Si1 V1 2.523806 1_455
Si1 V0 2.524166 1_555
Si1 W1 2.535834 1_455
Si1 W7 2.536323 1_555
Si1 W3 2.553148 1_556
Si1 W4 2.554028 1_556
Si1 W5 2.741784 1_565
Si1 W2 2.742377 1_455
Si1 W2 2.769753 1_565
Si1 W5 2.770258 1_455
Si2 V0 2.523798 1_655
Si2 V1 2.524186 1_555
Si2 W6 2.534877 1_555
Si2 W0 2.535379 1_655
Si2 W2 2.552742 1_554
Si2 W5 2.553480 1_554
Si2 W4 2.742880 1_545
Si2 W3 2.743460 1_655
Si2 W3 2.769392 1_545
Si2 W4 2.769830 1_655
Si3 V0 2.523804 1_545
Si3 V1 2.524193 1_555
Si3 W4 2.534875 1_545
Si3 W5 2.535382 1_555
Si3 W7 2.552747 1_555
Si3 W0 2.553465 1_555
Si3 W6 2.742881 1_555
Si3 W1 2.743466 1_445
Si3 W1 2.769398 1_555
Si3 W6 2.769828 1_445
Si4 V1 2.523816 1_565
Si4 V0 2.524180 1_555
Si4 W3 2.535847 1_555
Si4 W2 2.536332 1_565
Si4 W1 2.553146 1_555
Si4 W6 2.554020 1_555
Si4 W0 2.741786 1_555
Si4 W7 2.742375 1_665
Si4 W7 2.769767 1_555
Si4 W0 2.770256 1_665
