# generated using pymatgen
data_TbNiC2
_symmetry_space_group_name_H-M   'P 1'
_cell_length_a   3.62166012
_cell_length_b   3.74270449
_cell_length_c   3.74270368
_cell_angle_alpha   106.39743581
_cell_angle_beta   90.00000000
_cell_angle_gamma   90.00000000
_symmetry_Int_Tables_number   1
_chemical_formula_structural   TbNiC2
_chemical_formula_sum   'Tb1 Ni1 C2'
_cell_volume   48.66818650
_cell_formula_units_Z   1
loop_
 _symmetry_equiv_pos_site_id
 _symmetry_equiv_pos_as_xyz
  1  'x, y, z'
loop_
 _atom_site_type_symbol
 _atom_site_label
 _atom_site_symmetry_multiplicity
 _atom_site_fract_x
 _atom_site_fract_y
 _atom_site_fract_z
 _atom_site_occupancy
  Tb  Tb0  1  0.00000000  0.00024931  0.99975069  1
  Ni  Ni0  1  0.50000000  0.61053035  0.38946965  1
  C  C0  1  0.50000000  0.45311659  0.85189426  1
  C  C1  1  0.50000000  0.14810574  0.54688341  1
loop_
_geom_bond_atom_site_label_1
_geom_bond_atom_site_label_2
_geom_bond_distance
_geom_bond_site_symmetry_2
C0 C1 1.367690 1_555
C0 Ni0 1.930267 1_556
C0 Ni0 1.979440 1_555
C0 Tb0 2.643436 1_555
C0 Tb0 2.643436 1_655
C0 Tb0 2.671862 1_665
C0 Tb0 2.671862 1_565
C1 Ni0 1.930268 1_545
C1 Ni0 1.979440 1_555
C1 Tb0 2.643436 1_555
C1 Tb0 2.643436 1_655
C1 Tb0 2.671862 1_654
C1 Tb0 2.671862 1_554
