# generated using pymatgen
data_Ti3Si2B4Mo7
_symmetry_space_group_name_H-M   'P 1'
_cell_length_a   6.99744914
_cell_length_b   6.97958753
_cell_length_c   6.99277698
_cell_angle_alpha   128.99803943
_cell_angle_beta   129.06773178
_cell_angle_gamma   74.91213288
_symmetry_Int_Tables_number   1
_chemical_formula_structural   Ti3Si2B4Mo7
_chemical_formula_sum   'Ti3 Si2 B4 Mo7'
_cell_volume   200.74580325
_cell_formula_units_Z   1
loop_
 _symmetry_equiv_pos_site_id
 _symmetry_equiv_pos_as_xyz
  1  'x, y, z'
loop_
 _atom_site_type_symbol
 _atom_site_label
 _atom_site_symmetry_multiplicity
 _atom_site_fract_x
 _atom_site_fract_y
 _atom_site_fract_z
 _atom_site_occupancy
  Ti  Ti0  1  0.00017340  0.99900029  0.99991802  1
  Ti  Ti1  1  0.80611185  0.97977286  0.50000000  1
  Ti  Ti2  1  0.50025538  0.49908327  0.00008198  1
  Si  Si0  1  0.74870866  0.74810380  0.99824869  1
  Si  Si1  1  0.25045997  0.24985511  0.00175131  1
  B  B0  1  0.38305550  0.88291162  0.26490421  1
  B  B1  1  0.88164347  0.61747063  0.50000000  1
  B  B2  1  0.61815129  0.11800841  0.73509579  1
  B  B3  1  0.11692343  0.38021649  0.50000000  1
  Mo  Mo0  1  0.30493987  0.80409958  0.83225663  1
  Mo  Mo1  1  0.19602958  0.02660221  0.50000000  1
  Mo  Mo2  1  0.52995968  0.69598220  0.50000000  1
  Mo  Mo3  1  0.02756660  0.52741785  0.83400685  1
  Mo  Mo4  1  0.69355975  0.19341000  0.16599315  1
  Mo  Mo5  1  0.97268425  0.47184295  0.16774337  1
  Mo  Mo6  1  0.46977635  0.30622173  0.50000000  1
loop_
_geom_bond_atom_site_label_1
_geom_bond_atom_site_label_2
_geom_bond_distance
_geom_bond_site_symmetry_2
Si0 Ti1 2.551029 1_556
Si0 Ti2 2.769975 1_556
Si0 Ti0 2.777669 1_655
Si1 Ti1 2.551029 1_444
Si1 Ti0 2.769981 1_544
Si1 Ti2 2.777674 1_555
B0 B2 2.001645 1_565
B0 Mo2 2.309272 1_555
B0 Mo6 2.315789 1_565
B0 Mo1 2.318334 1_565
B0 Ti1 2.330645 1_555
B0 Mo0 2.394154 1_554
B0 Ti0 2.402083 1_554
B0 Mo3 2.404001 1_554
B0 Ti2 2.409433 1_555
B1 B3 2.008315 1_655
B1 Mo0 2.322380 1_655
B1 Mo5 2.322385 1_555
B1 Mo3 2.323851 1_655
B1 Mo4 2.323857 1_555
B1 Mo2 2.377860 1_555
B1 Ti0 2.403876 1_655
B1 Ti2 2.403878 1_555
B1 Ti1 2.444992 1_555
B2 Mo2 2.309279 1_545
B2 Mo6 2.315782 1_555
B2 Mo1 2.318335 1_555
B2 Ti1 2.330644 1_545
B2 Mo5 2.394154 1_556
B2 Ti2 2.402083 1_556
B2 Mo4 2.404008 1_556
B2 Ti0 2.409440 1_645
B3 Mo3 2.321190 1_555
B3 Mo4 2.321192 1_455
B3 Mo0 2.324659 1_555
B3 Mo5 2.324660 1_455
B3 Mo1 2.384659 1_555
B3 Mo6 2.387297 1_555
B3 Ti2 2.407439 1_556
B3 Ti0 2.407441 1_544
Mo0 Si0 2.557055 1_555
Mo0 Si1 2.557469 1_566
Mo0 Ti2 2.717595 1_556
Mo0 Ti0 2.721577 1_555
Mo1 Si0 2.574333 1_444
Mo1 Si1 2.574333 1_556
Mo1 Ti0 2.718960 1_544
Mo1 Ti2 2.718965 1_556
Mo1 Ti1 2.831152 1_445
Mo2 Si0 2.566506 1_555
Mo2 Si1 2.566506 1_555
Mo2 Ti0 2.709031 1_655
Mo2 Ti2 2.709033 1_555
Mo3 Si0 2.555926 1_455
Mo3 Si1 2.557840 1_556
Mo3 Ti0 2.713325 1_555
Mo3 Ti2 2.726694 1_556
Mo4 Si1 2.555927 1_555
Mo4 Si0 2.557834 1_544
Mo4 Ti2 2.713337 1_555
Mo4 Ti0 2.726694 1_644
Mo5 Si1 2.557049 1_655
Mo5 Si0 2.557470 1_554
Mo5 Ti0 2.717602 1_644
Mo5 Ti2 2.721584 1_555
Mo6 Si1 2.549239 1_555
Mo6 Si0 2.549239 1_555
Mo6 Ti2 2.714977 1_556
Mo6 Ti0 2.714979 1_544
Mo6 Ti1 2.817575 1_545
