# generated using pymatgen
data_LuZr(Ga2Ni)2
_symmetry_space_group_name_H-M   'P 1'
_cell_length_a   5.22250603
_cell_length_b   5.22251160
_cell_length_c   6.39395536
_cell_angle_alpha   90.00000000
_cell_angle_beta   90.00000000
_cell_angle_gamma   134.04727486
_symmetry_Int_Tables_number   1
_chemical_formula_structural   LuZr(Ga2Ni)2
_chemical_formula_sum   'Lu1 Zr1 Ga4 Ni2'
_cell_volume   125.34751398
_cell_formula_units_Z   1
loop_
 _symmetry_equiv_pos_site_id
 _symmetry_equiv_pos_as_xyz
  1  'x, y, z'
loop_
 _atom_site_type_symbol
 _atom_site_label
 _atom_site_symmetry_multiplicity
 _atom_site_fract_x
 _atom_site_fract_y
 _atom_site_fract_z
 _atom_site_occupancy
  Lu  Lu0  1  0.42411084  0.57588893  0.75000000  1
  Zr  Zr0  1  0.57619835  0.42380808  0.25000000  1
  Ga  Ga0  1  0.86252487  0.13747044  0.05315237  1
  Ga  Ga1  1  0.13566482  0.86434571  0.95318312  1
  Ga  Ga2  1  0.13566482  0.86434571  0.54681688  1
  Ga  Ga3  1  0.86252487  0.13747044  0.44684763  1
  Ni  Ni0  1  0.29610613  0.70387889  0.25000000  1
  Ni  Ni1  1  0.70720631  0.29279079  0.75000000  1
loop_
_geom_bond_atom_site_label_1
_geom_bond_atom_site_label_2
_geom_bond_distance
_geom_bond_site_symmetry_2
Lu0 Ni1 2.722364 1_555
Lu0 Ni1 2.916605 1_565
Lu0 Ni1 2.916609 1_455
Ga0 Ni1 2.447048 1_554
Ga0 Ni0 2.479498 1_655
Ga0 Ni0 2.479531 1_545
Ga0 Ga3 2.517270 1_555
Ga0 Ga1 2.703202 1_644
Ga0 Lu0 2.874682 1_544
Ga0 Lu0 2.874694 1_654
Ga0 Zr0 3.027506 1_555
Ga0 Ga1 3.053514 1_544
Ga0 Ga1 3.053560 1_654
Ga0 Zr0 3.156242 1_545
Ga0 Zr0 3.156267 1_655
Ga1 Ni0 2.445931 1_556
Ga1 Ni1 2.513363 1_565
Ga1 Ni1 2.513409 1_455
Ga1 Ga2 2.598288 1_555
Ga1 Zr0 2.843357 1_566
Ga1 Zr0 2.843368 1_456
Ga1 Lu0 3.063014 1_555
Ga1 Lu0 3.159453 1_565
Ga1 Lu0 3.159477 1_455
Ga2 Ni0 2.445931 1_555
Ga2 Ni1 2.513363 1_565
Ga2 Ni1 2.513409 1_455
Ga2 Ga3 2.703202 1_465
Ga2 Zr0 2.843357 1_565
Ga2 Zr0 2.843368 1_455
Ga2 Ga3 3.053514 1_565
Ga2 Ga3 3.053560 1_455
Ga2 Lu0 3.063014 1_555
Ga2 Lu0 3.159453 1_565
Ga2 Lu0 3.159477 1_455
Ga3 Ni1 2.447048 1_555
Ga3 Ni0 2.479498 1_655
Ga3 Ni0 2.479531 1_545
Ga3 Lu0 2.874682 1_545
Ga3 Lu0 2.874694 1_655
Ga3 Zr0 3.027506 1_555
Ga3 Zr0 3.156242 1_545
Ga3 Zr0 3.156267 1_655
Ni0 Zr0 2.693368 1_555
Ni0 Zr0 2.937381 1_455
Ni0 Zr0 2.937446 1_565
