# generated using pymatgen
data_Zr6CBr15
_symmetry_space_group_name_H-M   'P 1'
_cell_length_a   9.18689186
_cell_length_b   9.18689330
_cell_length_c   9.18689235
_cell_angle_alpha   109.47121427
_cell_angle_beta   109.47121743
_cell_angle_gamma   109.47122673
_symmetry_Int_Tables_number   1
_chemical_formula_structural   Zr6CBr15
_chemical_formula_sum   'Zr6 C1 Br15'
_cell_volume   596.87588365
_cell_formula_units_Z   1
loop_
 _symmetry_equiv_pos_site_id
 _symmetry_equiv_pos_as_xyz
  1  'x, y, z'
loop_
 _atom_site_type_symbol
 _atom_site_label
 _atom_site_symmetry_multiplicity
 _atom_site_fract_x
 _atom_site_fract_y
 _atom_site_fract_z
 _atom_site_occupancy
  Zr  Zr0  1  0.22157743  1.00000000  0.22157743  1
  Zr  Zr1  1  0.22157743  0.22157743  0.00000000  1
  Zr  Zr2  1  0.77842257  0.00000000  0.77842257  1
  Zr  Zr3  1  0.00000000  0.22157743  0.22157743  1
  Zr  Zr4  1  1.00000000  0.77842257  0.77842257  1
  Zr  Zr5  1  0.77842257  0.77842257  1.00000000  1
  C  C0  1  0.00000000  0.00000000  0.00000000  1
  Br  Br0  1  0.00000000  0.75080985  0.24919015  1
  Br  Br1  1  0.24919015  0.75080985  1.00000000  1
  Br  Br2  1  0.50161970  0.75080985  0.75080985  1
  Br  Br3  1  1.00000000  0.24919015  0.75080985  1
  Br  Br4  1  0.75080985  0.00000000  0.24919015  1
  Br  Br5  1  0.24919015  0.49838030  0.24919015  1
  Br  Br6  1  0.75080985  0.24919015  0.00000000  1
  Br  Br7  1  0.50000000  0.50000000  0.00000000  1
  Br  Br8  1  0.24919015  0.24919015  0.49838030  1
  Br  Br9  1  0.75080985  0.50161970  0.75080985  1
  Br  Br10  1  0.75080985  0.75080985  0.50161970  1
  Br  Br11  1  0.49838030  0.24919015  0.24919015  1
  Br  Br12  1  0.24919015  1.00000000  0.75080985  1
  Br  Br13  1  0.00000000  0.50000000  0.50000000  1
  Br  Br14  1  0.50000000  0.00000000  0.50000000  1
loop_
_geom_bond_atom_site_label_1
_geom_bond_atom_site_label_2
_geom_bond_distance
_geom_bond_site_symmetry_2
C0 Zr1 2.350518 1_555
C0 Zr5 2.350518 1_444
C0 Zr0 2.350518 1_545
C0 Zr2 2.350518 1_454
C0 Zr3 2.350518 1_555
C0 Zr4 2.350518 1_444
Br0 Zr0 2.659616 1_555
Br0 Zr5 2.659616 1_454
Br1 Zr4 2.659616 1_455
Br1 Zr0 2.659616 1_556
Br2 Zr2 2.659616 1_565
Br2 Zr5 2.659616 1_555
Br3 Zr2 2.659616 1_555
Br3 Zr1 2.659616 1_656
Br4 Zr3 2.659616 1_655
Br4 Zr5 2.659616 1_544
Br5 Zr3 2.659616 1_555
Br5 Zr1 2.659616 1_555
Br6 Zr3 2.659616 1_655
Br6 Zr2 2.659616 1_554
Br7 Zr5 2.953537 1_554
Br7 Zr1 2.953537 1_555
Br8 Zr3 2.659616 1_555
Br8 Zr0 2.659616 1_545
Br9 Zr4 2.659616 1_555
Br9 Zr5 2.659616 1_555
Br10 Zr4 2.659616 1_555
Br10 Zr2 2.659616 1_565
Br11 Zr0 2.659616 1_545
Br11 Zr1 2.659616 1_555
Br12 Zr4 2.659616 1_455
Br12 Zr1 2.659616 1_566
Br13 Zr4 2.953538 1_455
Br13 Zr3 2.953538 1_555
Br14 Zr2 2.953537 1_555
Br14 Zr0 2.953537 1_545
