# generated using pymatgen
data_Hf12Cu9Sn3N4
_symmetry_space_group_name_H-M   'P 1'
_cell_length_a   8.52231004
_cell_length_b   8.38464402
_cell_length_c   8.38464332
_cell_angle_alpha   59.99999506
_cell_angle_beta   60.53292876
_cell_angle_gamma   60.53291834
_symmetry_Int_Tables_number   1
_chemical_formula_structural   Hf12Cu9Sn3N4
_chemical_formula_sum   'Hf12 Cu9 Sn3 N4'
_cell_volume   427.03480236
_cell_formula_units_Z   1
loop_
 _symmetry_equiv_pos_site_id
 _symmetry_equiv_pos_as_xyz
  1  'x, y, z'
loop_
 _atom_site_type_symbol
 _atom_site_label
 _atom_site_symmetry_multiplicity
 _atom_site_fract_x
 _atom_site_fract_y
 _atom_site_fract_z
 _atom_site_occupancy
  Hf  Hf0  1  0.81772428  0.18449739  0.18449739  1
  Hf  Hf1  1  0.18588325  0.81063774  0.19284027  1
  Hf  Hf2  1  0.81772428  0.81327994  0.18449739  1
  Hf  Hf3  1  0.18588325  0.81063774  0.81063774  1
  Hf  Hf4  1  0.81772428  0.18449739  0.81327994  1
  Hf  Hf5  1  0.18588325  0.19284027  0.81063774  1
  Hf  Hf6  1  0.43227572  0.06550261  0.06550261  1
  Hf  Hf7  1  0.06411675  0.43936226  0.05715973  1
  Hf  Hf8  1  0.43227572  0.43672006  0.06550261  1
  Hf  Hf9  1  0.06411675  0.43936226  0.43936226  1
  Hf  Hf10  1  0.43227572  0.06550261  0.43672006  1
  Hf  Hf11  1  0.06411675  0.05715973  0.43936226  1
  Cu  Cu0  1  0.39884720  0.42273554  0.75568072  1
  Cu  Cu1  1  0.39884720  0.42273554  0.42273554  1
  Cu  Cu2  1  0.76829628  0.41056757  0.41056757  1
  Cu  Cu3  1  0.39884720  0.75568072  0.42273554  1
  Cu  Cu4  1  0.85115280  0.82726446  0.49431928  1
  Cu  Cu5  1  0.85115280  0.82726446  0.82726446  1
  Cu  Cu6  1  0.48170372  0.83943243  0.83943243  1
  Cu  Cu7  1  0.85115280  0.49431928  0.82726446  1
  Cu  Cu8  1  0.12500000  0.62500000  0.62500000  1
  Sn  Sn0  1  0.62500000  0.62500000  0.12500000  1
  Sn  Sn1  1  0.62500000  0.62500000  0.62500000  1
  Sn  Sn2  1  0.62500000  0.12500000  0.62500000  1
  N  N0  1  0.12500000  0.12500000  0.62500000  1
  N  N1  1  0.12500000  0.12500000  0.12500000  1
  N  N2  1  0.62500000  0.12500000  0.12500000  1
  N  N3  1  0.12500000  0.62500000  0.12500000  1
loop_
_geom_bond_atom_site_label_1
_geom_bond_atom_site_label_2
_geom_bond_distance
_geom_bond_site_symmetry_2
Hf0 N1 2.243576 1_655
Hf0 N2 2.248669 1_555
Hf0 Sn0 3.095706 1_555
Hf0 Sn2 3.095706 1_555
Hf1 N3 2.232890 1_555
Hf1 N1 2.232897 1_565
Hf1 Sn0 3.132293 1_555
Hf2 N3 2.243574 1_655
Hf2 N2 2.248675 1_565
Hf2 Sn0 3.095700 1_555
Hf2 Sn1 3.095705 1_555
Hf3 N0 2.232896 1_565
Hf3 N3 2.232896 1_556
Hf3 Sn1 3.132292 1_555
Hf4 N0 2.243574 1_655
Hf4 N2 2.248675 1_556
Hf4 Sn2 3.095700 1_555
Hf4 Sn1 3.095705 1_555
Hf5 N0 2.232890 1_555
Hf5 N1 2.232897 1_556
Hf5 Sn2 3.132294 1_555
Hf6 N1 2.243576 1_555
Hf6 N2 2.248669 1_555
Hf6 Sn0 3.095706 1_545
Hf6 Sn2 3.095706 1_554
Hf7 N3 2.232890 1_555
Hf7 N1 2.232897 1_555
Hf7 Sn0 3.132293 1_455
Hf8 N3 2.243574 1_555
Hf8 N2 2.248675 1_555
Hf8 Sn0 3.095700 1_555
Hf8 Sn1 3.095705 1_554
Hf9 N0 2.232896 1_555
Hf9 N3 2.232896 1_555
Hf9 Sn1 3.132292 1_455
Hf10 N0 2.243574 1_555
Hf10 N2 2.248675 1_555
Hf10 Sn2 3.095700 1_555
Hf10 Sn1 3.095705 1_545
Hf11 N0 2.232890 1_555
Hf11 N1 2.232897 1_555
Hf11 Sn2 3.132294 1_455
Cu0 Cu8 2.507392 1_555
Cu0 Sn2 2.659175 1_555
Cu0 Sn1 2.659182 1_555
Cu0 Hf7 2.722788 1_556
Cu0 Cu3 2.791626 1_555
Cu0 Cu1 2.791627 1_555
Cu0 Hf6 2.812244 1_556
Cu0 Hf8 2.812254 1_556
Cu0 Hf3 2.992137 1_555
Cu0 Hf5 2.992137 1_555
Cu0 Cu2 3.051651 1_555
Cu0 Hf4 3.268443 1_555
Cu1 Cu8 2.507396 1_555
Cu1 Sn2 2.659179 1_555
Cu1 Sn0 2.659180 1_555
Cu1 Hf9 2.722781 1_555
Cu1 Cu3 2.791627 1_555
Cu1 Hf8 2.812237 1_555
Cu1 Hf10 2.812237 1_555
Cu1 Hf1 2.992137 1_555
Cu1 Hf5 2.992137 1_555
Cu1 Cu2 3.051651 1_555
Cu1 Hf0 3.268443 1_555
Cu2 Sn0 2.620817 1_555
Cu2 Sn2 2.620818 1_555
Cu2 Sn1 2.620824 1_555
Cu2 Hf11 2.779983 1_655
Cu2 Hf7 2.779983 1_655
Cu2 Hf9 2.779993 1_655
Cu2 Cu3 3.051650 1_555
Cu2 Hf4 3.063538 1_555
Cu2 Hf0 3.063538 1_555
Cu2 Hf2 3.063538 1_555
Cu3 Cu8 2.507392 1_555
Cu3 Sn0 2.659175 1_555
Cu3 Sn1 2.659182 1_555
Cu3 Hf11 2.722788 1_565
Cu3 Hf6 2.812244 1_565
Cu3 Hf10 2.812254 1_565
Cu3 Hf3 2.992137 1_555
Cu3 Hf1 2.992137 1_555
Cu3 Hf2 3.268443 1_555
Cu4 Cu8 2.507392 1_655
Cu4 Sn2 2.659175 1_565
Cu4 Sn1 2.659182 1_555
Cu4 Hf1 2.722788 1_655
Cu4 Cu7 2.791626 1_555
Cu4 Cu5 2.791627 1_555
Cu4 Hf0 2.812244 1_565
Cu4 Hf2 2.812254 1_555
Cu4 Hf9 2.992137 1_655
Cu4 Hf11 2.992137 1_665
Cu4 Cu6 3.051651 1_555
Cu4 Hf10 3.268443 1_565
Cu5 Cu8 2.507396 1_655
Cu5 Sn2 2.659179 1_565
Cu5 Sn0 2.659180 1_556
Cu5 Hf3 2.722781 1_655
Cu5 Cu7 2.791627 1_555
Cu5 Hf2 2.812237 1_556
Cu5 Hf4 2.812237 1_565
Cu5 Hf7 2.992137 1_656
Cu5 Hf11 2.992137 1_665
Cu5 Cu6 3.051651 1_555
Cu5 Hf6 3.268443 1_566
Cu6 Sn0 2.620817 1_556
Cu6 Sn2 2.620818 1_565
Cu6 Sn1 2.620824 1_555
Cu6 Hf5 2.779983 1_565
Cu6 Hf1 2.779983 1_556
Cu6 Hf3 2.779993 1_555
Cu6 Cu7 3.051650 1_555
Cu6 Hf10 3.063538 1_565
Cu6 Hf6 3.063538 1_566
Cu6 Hf8 3.063538 1_556
Cu7 Cu8 2.507392 1_655
Cu7 Sn0 2.659175 1_556
Cu7 Sn1 2.659182 1_555
Cu7 Hf5 2.722788 1_655
Cu7 Hf0 2.812244 1_556
Cu7 Hf4 2.812254 1_555
Cu7 Hf9 2.992137 1_655
Cu7 Hf7 2.992137 1_656
Cu7 Hf8 3.268443 1_556
Cu8 Hf9 3.021010 1_555
Cu8 Hf3 3.021010 1_555
Cu8 Hf7 3.021017 1_556
Cu8 Hf1 3.021017 1_555
Cu8 Hf11 3.021017 1_565
Cu8 Hf5 3.021017 1_555
