# generated using pymatgen
data_Pt4(I3Cl)3
_symmetry_space_group_name_H-M   'P 1'
_cell_length_a   6.76148235
_cell_length_b   6.93391238
_cell_length_c   13.22111310
_cell_angle_alpha   83.42797102
_cell_angle_beta   85.62083298
_cell_angle_gamma   120.36685424
_symmetry_Int_Tables_number   1
_chemical_formula_structural   Pt4(I3Cl)3
_chemical_formula_sum   'Pt4 I9 Cl3'
_cell_volume   524.74418882
_cell_formula_units_Z   1
loop_
 _symmetry_equiv_pos_site_id
 _symmetry_equiv_pos_as_xyz
  1  'x, y, z'
loop_
 _atom_site_type_symbol
 _atom_site_label
 _atom_site_symmetry_multiplicity
 _atom_site_fract_x
 _atom_site_fract_y
 _atom_site_fract_z
 _atom_site_occupancy
  Pt  Pt0  1  0.91580135  0.09703715  0.25184781  1
  Pt  Pt1  1  0.08425720  0.89916885  0.74790213  1
  Pt  Pt2  1  0.50074341  0.99989316  0.49739352  1
  Pt  Pt3  1  0.00103118  0.49282754  0.99720896  1
  I  I0  1  0.04953003  0.18066654  0.86316298  1
  I  I1  1  0.14709283  0.64389914  0.61464646  1
  I  I2  1  0.35141833  0.84419567  0.87321034  1
  I  I3  1  0.85903807  0.34858515  0.37695811  1
  I  I4  1  0.64765505  0.15601656  0.12623801  1
  I  I5  1  0.73492138  0.54282849  0.87691396  1
  I  I6  1  0.44484598  0.24457664  0.61864996  1
  I  I7  1  0.26461628  0.45973037  0.12421707  1
  I  I8  1  0.55669121  0.74885328  0.37918042  1
  Cl  Cl0  1  0.17578379  0.06895719  0.35273665  1
  Cl  Cl1  1  0.94172878  0.84694044  0.15247470  1
  Cl  Cl2  1  0.82484613  0.92582483  0.64725692  1
loop_
_geom_bond_atom_site_label_1
_geom_bond_atom_site_label_2
_geom_bond_distance
_geom_bond_site_symmetry_2
I0 Pt1 2.697550 1_545
I0 Pt3 3.072520 1_555
I1 Pt2 2.608505 1_555
I1 Pt1 2.788765 1_555
I2 Pt3 2.625434 1_555
I2 Pt1 2.676145 1_555
I3 Pt2 2.618704 1_545
I3 Pt0 2.676925 1_555
I4 Pt3 2.626208 1_654
I4 Pt0 2.695628 1_555
I5 Pt3 2.613172 1_655
I5 Pt1 2.666981 1_655
I6 Pt2 2.601888 1_545
I6 Pt1 2.669017 1_545
I7 Pt3 2.613622 1_554
I7 Pt0 2.675517 1_455
I8 Pt2 2.610366 1_555
I8 Pt0 2.660254 1_565
Cl0 Pt0 2.356241 1_455
Cl1 Pt0 2.357512 1_565
Cl2 Pt1 2.347170 1_655
