# generated using pymatgen
data_Y2Si14Ir5Ru
_symmetry_space_group_name_H-M   'P 1'
_cell_length_a   7.97901380
_cell_length_b   7.97901423
_cell_length_c   8.00945370
_cell_angle_alpha   56.76147596
_cell_angle_beta   56.76147005
_cell_angle_gamma   56.82214813
_symmetry_Int_Tables_number   1
_chemical_formula_structural   Y2Si14Ir5Ru
_chemical_formula_sum   'Y2 Si14 Ir5 Ru1'
_cell_volume   333.78190221
_cell_formula_units_Z   1
loop_
 _symmetry_equiv_pos_site_id
 _symmetry_equiv_pos_as_xyz
  1  'x, y, z'
loop_
 _atom_site_type_symbol
 _atom_site_label
 _atom_site_symmetry_multiplicity
 _atom_site_fract_x
 _atom_site_fract_y
 _atom_site_fract_z
 _atom_site_occupancy
  Y  Y0  1  0.00091693  0.00130559  0.99809195  1
  Y  Y1  1  0.49869441  0.49908307  0.50190805  1
  Si  Si0  1  0.75381969  0.74618031  0.75000000  1
  Si  Si1  1  0.24945512  0.25054488  0.25000000  1
  Si  Si2  1  0.84985865  0.06344512  0.67329895  1
  Si  Si3  1  0.67261845  0.85159461  0.06253770  1
  Si  Si4  1  0.06170429  0.67115803  0.85010606  1
  Si  Si5  1  0.64840539  0.82738155  0.43746230  1
  Si  Si6  1  0.43655488  0.65014135  0.82670105  1
  Si  Si7  1  0.82884197  0.43829571  0.64989394  1
  Si  Si8  1  0.17263082  0.56123242  0.35468953  1
  Si  Si9  1  0.56427806  0.35061933  0.17264729  1
  Si  Si10  1  0.34874139  0.17592848  0.56400652  1
  Si  Si11  1  0.93876758  0.32736918  0.14531047  1
  Si  Si12  1  0.32407152  0.15125861  0.93599348  1
  Si  Si13  1  0.14938067  0.93572194  0.32735271  1
  Ir  Ir0  1  0.25012113  0.92830163  0.57126982  1
  Ir  Ir1  1  0.57169837  0.24987887  0.92873018  1
  Ir  Ir2  1  0.92680405  0.57319595  0.25000000  1
  Ir  Ir3  1  0.42849851  0.74997440  0.07157779  1
  Ir  Ir4  1  0.75002560  0.07150149  0.42842221  1
  Ru  Ru0  1  0.07411354  0.42588646  0.75000000  1
loop_
_geom_bond_atom_site_label_1
_geom_bond_atom_site_label_2
_geom_bond_distance
_geom_bond_site_symmetry_2
Si2 Y0 3.136108 1_655
Si2 Y1 3.184917 1_555
Si3 Y0 3.133957 1_664
Si3 Y1 3.207606 1_555
Si4 Y0 3.158116 1_565
Si4 Y1 3.180937 1_555
Si5 Y1 3.133957 1_555
Si5 Y0 3.207606 1_664
Si6 Y1 3.136108 1_555
Si6 Y0 3.184917 1_565
Si7 Y1 3.158116 1_555
Si7 Y0 3.180938 1_655
Si8 Y1 3.116875 1_555
Si8 Y0 3.224059 1_564
Si9 Y1 3.140908 1_555
Si9 Y0 3.188290 1_654
Si10 Y1 3.105742 1_555
Si10 Y0 3.174188 1_555
Si11 Y0 3.116875 1_654
Si11 Y1 3.224059 1_555
Si12 Y0 3.105742 1_555
Si12 Y1 3.174188 1_555
Si13 Y0 3.140908 1_564
Si13 Y1 3.188290 1_555
Ir0 Si1 2.445284 1_565
Ir0 Si13 2.451316 1_555
Ir0 Si10 2.460061 1_565
Ir0 Si6 2.463611 1_555
Ir0 Si4 2.475801 1_555
Ir0 Si5 2.511531 1_555
Ir0 Si2 2.523100 1_465
Ir0 Y1 3.068352 1_555
Ir0 Y0 3.073018 1_565
Ir1 Si1 2.445283 1_556
Ir1 Si9 2.451316 1_556
Ir1 Si12 2.460061 1_555
Ir1 Si2 2.463611 1_555
Ir1 Si7 2.475801 1_555
Ir1 Si3 2.511531 1_546
Ir1 Si6 2.523100 1_555
Ir1 Y0 3.068352 1_655
Ir1 Y1 3.073018 1_555
Ir2 Si1 2.449805 1_655
Ir2 Si5 2.460348 1_555
Ir2 Si3 2.460348 1_555
Ir2 Si8 2.463704 1_655
Ir2 Si11 2.463704 1_555
Ir2 Si4 2.534807 1_654
Ir2 Si7 2.534807 1_555
Ir2 Y1 3.071861 1_555
Ir2 Y0 3.071862 1_664
Ir3 Si3 2.442614 1_555
Ir3 Si6 2.450290 1_554
Ir3 Si0 2.458258 1_554
Ir3 Si13 2.463251 1_555
Ir3 Si8 2.474732 1_555
Ir3 Si9 2.517520 1_555
Ir3 Si12 2.526994 1_564
Ir3 Y0 3.070311 1_564
Ir3 Y1 3.086444 1_555
Ir4 Si5 2.442614 1_545
Ir4 Si2 2.450290 1_555
Ir4 Si0 2.458258 1_545
Ir4 Si9 2.463252 1_555
Ir4 Si11 2.474732 1_555
Ir4 Si13 2.517520 1_645
Ir4 Si10 2.526993 1_555
Ir4 Y1 3.070311 1_555
Ir4 Y0 3.086444 1_654
Ru0 Si10 2.427735 1_555
Ru0 Si12 2.427735 1_555
Ru0 Si7 2.429749 1_455
Ru0 Si4 2.429749 1_555
Ru0 Si0 2.431907 1_455
Ru0 Si11 2.502274 1_456
Ru0 Si8 2.502274 1_555
Ru0 Y1 3.046304 1_555
Ru0 Y0 3.046305 1_555
