# generated using pymatgen
data_Cs4NbSbBr12
_symmetry_space_group_name_H-M   'P 1'
_cell_length_a   7.81468016
_cell_length_b   7.81468016
_cell_length_c   10.97569844
_cell_angle_alpha   90.00000000
_cell_angle_beta   90.00000000
_cell_angle_gamma   90.00000000
_symmetry_Int_Tables_number   1
_chemical_formula_structural   Cs4NbSbBr12
_chemical_formula_sum   'Cs4 Nb1 Sb1 Br12'
_cell_volume   670.27740807
_cell_formula_units_Z   1
loop_
 _symmetry_equiv_pos_site_id
 _symmetry_equiv_pos_as_xyz
  1  'x, y, z'
loop_
 _atom_site_type_symbol
 _atom_site_label
 _atom_site_symmetry_multiplicity
 _atom_site_fract_x
 _atom_site_fract_y
 _atom_site_fract_z
 _atom_site_occupancy
  Cs  Cs0  1  0.50000000  0.00000000  0.72951466  1
  Cs  Cs1  1  0.00000000  0.50000000  0.27048534  1
  Cs  Cs2  1  0.50000000  0.00000000  0.27048534  1
  Cs  Cs3  1  0.00000000  0.50000000  0.72951466  1
  Nb  Nb0  1  0.00000000  0.00000000  0.00000000  1
  Sb  Sb0  1  0.50000000  0.50000000  0.50000000  1
  Br  Br0  1  0.00000000  0.00000000  0.76778070  1
  Br  Br1  1  0.50000000  0.50000000  0.24413447  1
  Br  Br2  1  0.75334287  0.75334287  0.50000000  1
  Br  Br3  1  0.23080907  0.23080907  0.00000000  1
  Br  Br4  1  0.75334287  0.24665713  0.50000000  1
  Br  Br5  1  0.23080907  0.76919093  0.00000000  1
  Br  Br6  1  0.00000000  0.00000000  0.23221930  1
  Br  Br7  1  0.50000000  0.50000000  0.75586553  1
  Br  Br8  1  0.24665713  0.24665713  0.50000000  1
  Br  Br9  1  0.76919093  0.76919093  0.00000000  1
  Br  Br10  1  0.24665713  0.75334287  0.50000000  1
  Br  Br11  1  0.76919093  0.23080907  0.00000000  1
loop_
_geom_bond_atom_site_label_1
_geom_bond_atom_site_label_2
_geom_bond_distance
_geom_bond_site_symmetry_2
Br0 Nb0 2.548769 1_556
Br0 Cs0 3.929848 1_555
Br0 Cs0 3.929848 1_455
Br0 Cs3 3.929848 1_545
Br0 Cs3 3.929848 1_555
Br1 Sb0 2.808303 1_555
Br1 Cs1 3.918029 1_655
Br1 Cs2 3.918029 1_555
Br1 Cs1 3.918029 1_555
Br1 Cs2 3.918029 1_565
Br2 Sb0 2.799851 1_555
Br2 Cs0 3.739091 1_565
Br2 Cs3 3.739091 1_655
Br2 Cs2 3.739091 1_565
Br2 Cs1 3.739091 1_655
Br3 Nb0 2.550816 1_555
Br3 Cs1 4.061060 1_555
Br3 Cs2 4.061060 1_555
Br3 Cs3 4.061060 1_554
Br3 Cs0 4.061060 1_554
Br4 Sb0 2.799851 1_555
Br4 Cs0 3.739091 1_555
Br4 Cs2 3.739091 1_555
Br4 Cs3 3.739091 1_655
Br4 Cs1 3.739091 1_655
Br5 Nb0 2.550816 1_565
Br5 Cs1 4.061060 1_555
Br5 Cs2 4.061060 1_565
Br5 Cs3 4.061060 1_554
Br5 Cs0 4.061060 1_564
Br6 Nb0 2.548769 1_555
Br6 Cs2 3.929848 1_555
Br6 Cs1 3.929848 1_555
Br6 Cs2 3.929848 1_455
Br6 Cs1 3.929848 1_545
Br7 Sb0 2.808303 1_555
Br7 Cs3 3.918029 1_555
Br7 Cs0 3.918029 1_565
Br7 Cs0 3.918029 1_555
Br7 Cs3 3.918029 1_655
Br8 Sb0 2.799851 1_555
Br8 Cs0 3.739091 1_555
Br8 Cs3 3.739091 1_555
Br8 Cs2 3.739091 1_555
Br8 Cs1 3.739091 1_555
Br9 Nb0 2.550816 1_665
Br9 Cs2 4.061060 1_565
Br9 Cs1 4.061060 1_655
Br9 Cs0 4.061060 1_564
Br9 Cs3 4.061060 1_654
Br10 Sb0 2.799851 1_555
Br10 Cs3 3.739091 1_555
Br10 Cs1 3.739091 1_555
Br10 Cs0 3.739091 1_565
Br10 Cs2 3.739091 1_565
Br11 Nb0 2.550816 1_655
Br11 Cs2 4.061060 1_555
Br11 Cs1 4.061060 1_655
Br11 Cs0 4.061060 1_554
Br11 Cs3 4.061060 1_654
