# generated using pymatgen
data_ScP6RhO18
_symmetry_space_group_name_H-M   'P 1'
_cell_length_a   5.13676926
_cell_length_b   6.94353114
_cell_length_c   10.50689026
_cell_angle_alpha   98.60808888
_cell_angle_beta   92.94484248
_cell_angle_gamma   92.13230654
_symmetry_Int_Tables_number   1
_chemical_formula_structural   ScP6RhO18
_chemical_formula_sum   'Sc1 P6 Rh1 O18'
_cell_volume   369.65909279
_cell_formula_units_Z   1
loop_
 _symmetry_equiv_pos_site_id
 _symmetry_equiv_pos_as_xyz
  1  'x, y, z'
loop_
 _atom_site_type_symbol
 _atom_site_label
 _atom_site_symmetry_multiplicity
 _atom_site_fract_x
 _atom_site_fract_y
 _atom_site_fract_z
 _atom_site_occupancy
  Sc  Sc0  1  0.49999941  0.49999585  0.50000234  1
  P  P0  1  0.02627382  0.96577719  0.17484520  1
  P  P1  1  0.74061852  0.31870057  0.22118762  1
  P  P2  1  0.98895045  0.67731769  0.35136515  1
  P  P3  1  0.01105367  0.32268093  0.64863642  1
  P  P4  1  0.25938309  0.68130007  0.77881174  1
  P  P5  1  0.97372682  0.03422316  0.82515362  1
  Rh  Rh0  1  0.50000076  0.99999958  0.99999864  1
  O  O0  1  0.59235254  0.27310021  0.09377537  1
  O  O1  1  0.82827347  0.88700218  0.06863626  1
  O  O2  1  0.30637202  0.93086607  0.15190732  1
  O  O3  1  0.99243892  0.18998166  0.22171878  1
  O  O4  1  0.87148610  0.53017522  0.22771256  1
  O  O5  1  0.60396510  0.30530993  0.34123978  1
  O  O6  1  0.96281082  0.87969516  0.30213302  1
  O  O7  1  0.26774913  0.63759363  0.37454957  1
  O  O8  1  0.81659400  0.67516419  0.46071100  1
  O  O9  1  0.18340395  0.32483508  0.53928967  1
  O  O10  1  0.73225355  0.36240500  0.62545497  1
  O  O11  1  0.03719311  0.12030409  0.69786585  1
  O  O12  1  0.39603191  0.69469056  0.65875900  1
  O  O13  1  0.12851358  0.46982793  0.77228826  1
  O  O14  1  0.00756003  0.81001797  0.77828086  1
  O  O15  1  0.69362697  0.06913337  0.84809282  1
  O  O16  1  0.17172999  0.11299997  0.93135994  1
  O  O17  1  0.40764630  0.72689972  0.90622222  1
loop_
_geom_bond_atom_site_label_1
_geom_bond_atom_site_label_2
_geom_bond_distance
_geom_bond_site_symmetry_2
O0 P1 1.490921 1_555
O0 Rh0 2.029157 1_544
O1 P0 1.496059 1_655
O1 Rh0 2.030281 1_554
O2 P0 1.493681 1_555
O2 Rh0 2.030799 1_554
O3 P0 1.579782 1_645
O3 P1 1.599651 1_555
O4 P1 1.582536 1_555
O4 P2 1.603771 1_555
O5 P1 1.487845 1_555
O5 Sc0 2.089351 1_555
O6 P2 1.576302 1_555
O6 P0 1.588006 1_655
O7 P2 1.483261 1_455
O7 Sc0 2.091356 1_555
O8 P2 1.487510 1_555
O8 Sc0 2.089652 1_555
O9 P3 1.487498 1_555
O9 Sc0 2.089611 1_555
O10 P3 1.483263 1_655
O10 Sc0 2.091338 1_555
O11 P3 1.576285 1_555
O11 P5 1.588005 1_455
O12 P4 1.487838 1_555
O12 Sc0 2.089342 1_555
O13 P4 1.582526 1_555
O13 P3 1.603774 1_555
O14 P5 1.579784 1_465
O14 P4 1.599658 1_555
O15 P5 1.493691 1_555
O15 Rh0 2.030768 1_545
O16 P5 1.496053 1_455
O16 Rh0 2.030287 1_545
O17 P4 1.490898 1_555
O17 Rh0 2.029153 1_555
