# generated using pymatgen
data_CuSnIrS4
_symmetry_space_group_name_H-M   'P 1'
_cell_length_a   7.18880620
_cell_length_b   7.18880771
_cell_length_c   7.18880687
_cell_angle_alpha   119.64985845
_cell_angle_beta   119.91547460
_cell_angle_gamma   90.37700203
_symmetry_Int_Tables_number   1
_chemical_formula_structural   CuSnIrS4
_chemical_formula_sum   'Cu2 Sn2 Ir2 S8'
_cell_volume   263.55222922
_cell_formula_units_Z   2
loop_
 _symmetry_equiv_pos_site_id
 _symmetry_equiv_pos_as_xyz
  1  'x, y, z'
loop_
 _atom_site_type_symbol
 _atom_site_label
 _atom_site_symmetry_multiplicity
 _atom_site_fract_x
 _atom_site_fract_y
 _atom_site_fract_z
 _atom_site_occupancy
  Cu  Cu0  1  0.37588217  0.62588217  0.75000000  1
  Cu  Cu1  1  0.62411783  0.37411783  0.25000000  1
  Sn  Sn0  1  0.00000000  0.00000000  0.00000000  1
  Sn  Sn1  1  0.50000000  0.00000000  0.50000000  1
  Ir  Ir0  1  0.00000000  0.00000000  0.50000000  1
  Ir  Ir1  1  0.00000000  0.50000000  0.00000000  1
  S  S0  1  0.23521086  0.73428247  0.99907161  1
  S  S1  1  0.23521086  0.23613826  0.50092839  1
  S  S2  1  0.22145286  0.75032386  0.47113001  1
  S  S3  1  0.77919385  0.75032386  0.02886999  1
  S  S4  1  0.76478914  0.26571753  0.00092839  1
  S  S5  1  0.76478914  0.76386174  0.49907161  1
  S  S6  1  0.77854714  0.24967614  0.52886999  1
  S  S7  1  0.22080615  0.24967614  0.97113001  1
loop_
_geom_bond_atom_site_label_1
_geom_bond_atom_site_label_2
_geom_bond_distance
_geom_bond_site_symmetry_2
Cu0 S0 2.296043 1_555
Cu0 S1 2.296050 1_555
Cu0 S3 2.370508 1_556
Cu0 S2 2.370508 1_555
Cu1 S4 2.296043 1_555
Cu1 S5 2.296050 1_555
Cu1 S7 2.370508 1_554
Cu1 S6 2.370508 1_555
Ir0 S1 2.383397 1_555
Ir0 S5 2.383397 1_445
Ir0 S2 2.407831 1_545
Ir0 S6 2.407831 1_455
Ir0 S7 2.407836 1_555
Ir0 S3 2.407836 1_445
Ir1 S0 2.383403 1_554
Ir1 S4 2.383403 1_455
Ir1 S3 2.407836 1_455
Ir1 S7 2.407836 1_554
Ir1 S6 2.407836 1_454
Ir1 S2 2.407836 1_555
S0 Sn1 2.559125 1_566
S0 Sn0 2.559125 1_566
S1 Sn1 2.559120 1_555
S1 Sn0 2.559125 1_555
S2 Sn1 2.538495 1_565
S3 Sn0 2.538490 1_665
S4 Sn1 2.559125 1_554
S4 Sn0 2.559125 1_655
S5 Sn1 2.559120 1_565
S5 Sn0 2.559125 1_666
S6 Sn1 2.538495 1_555
S7 Sn0 2.538490 1_556
