# generated using pymatgen
data_Na3LiOsO5
_symmetry_space_group_name_H-M   'P 1'
_cell_length_a   5.59611225
_cell_length_b   6.02927943
_cell_length_c   7.29480390
_cell_angle_alpha   76.90991242
_cell_angle_beta   72.61808218
_cell_angle_gamma   73.00012394
_symmetry_Int_Tables_number   1
_chemical_formula_structural   Na3LiOsO5
_chemical_formula_sum   'Na6 Li2 Os2 O10'
_cell_volume   222.00143400
_cell_formula_units_Z   2
loop_
 _symmetry_equiv_pos_site_id
 _symmetry_equiv_pos_as_xyz
  1  'x, y, z'
loop_
 _atom_site_type_symbol
 _atom_site_label
 _atom_site_symmetry_multiplicity
 _atom_site_fract_x
 _atom_site_fract_y
 _atom_site_fract_z
 _atom_site_occupancy
  Na  Na0  1  0.69890762  0.05052629  0.60310403  1
  Na  Na1  1  0.32336481  0.44580599  0.39176362  1
  Na  Na2  1  0.51700108  0.74350543  0.99590246  1
  Na  Na3  1  0.67663519  0.55419401  0.60823638  1
  Na  Na4  1  0.30109238  0.94947371  0.39689597  1
  Na  Na5  1  0.48299892  0.25649457  0.00409754  1
  Li  Li0  1  0.88907315  0.36224244  0.16456773  1
  Li  Li1  1  0.11092685  0.63775756  0.83543227  1
  Os  Os0  1  0.10041738  0.15822044  0.79930729  1
  Os  Os1  1  0.89958262  0.84177956  0.20069271  1
  O  O0  1  0.01640663  0.23153622  0.56252588  1
  O  O1  1  0.84292174  0.94424664  0.92435777  1
  O  O2  1  0.84578915  0.42258117  0.89511029  1
  O  O3  1  0.64816466  0.65425453  0.28163256  1
  O  O4  1  0.98359337  0.76846378  0.43747412  1
  O  O5  1  0.35076392  0.87978800  0.72792991  1
  O  O6  1  0.64923608  0.12021200  0.27207009  1
  O  O7  1  0.15707826  0.05575336  0.07564223  1
  O  O8  1  0.15421085  0.57741883  0.10488971  1
  O  O9  1  0.35183534  0.34574547  0.71836744  1
loop_
_geom_bond_atom_site_label_1
_geom_bond_atom_site_label_2
_geom_bond_distance
_geom_bond_site_symmetry_2
Na0 O4 2.255321 1_545
Na0 O0 2.260277 1_655
Na0 O9 2.308301 1_555
Na0 O5 2.317921 1_545
Na0 O6 2.440978 1_555
Na0 O1 2.588104 1_545
Na1 O4 2.294156 1_455
Na1 O0 2.337017 1_555
Na1 O3 2.352579 1_555
Na1 O9 2.363308 1_555
Na1 O6 2.381895 1_555
Na1 O8 2.428423 1_555
Na2 O5 2.296486 1_555
Na2 O3 2.312555 1_556
Na2 O2 2.329021 1_555
Na2 O1 2.345162 1_555
Na2 O7 2.349099 1_566
Na2 O8 2.370738 1_556
Na3 O0 2.294156 1_655
Na3 O4 2.337017 1_555
Na3 O9 2.352579 1_555
Na3 O3 2.363308 1_555
Na3 O5 2.381895 1_555
Na3 O2 2.428423 1_555
Na4 O0 2.255321 1_565
Na4 O4 2.260277 1_455
Na4 O3 2.308301 1_555
Na4 O6 2.317921 1_565
Na4 O5 2.440978 1_555
Na4 O7 2.588104 1_565
Na5 O6 2.296486 1_555
Na5 O9 2.312555 1_554
Na5 O8 2.329021 1_555
Na5 O7 2.345162 1_555
Na5 O1 2.349099 1_544
Na5 O2 2.370738 1_554
Li0 O2 1.990927 1_554
Li0 O3 2.061991 1_555
Li0 O7 2.103815 1_655
Li0 O6 2.131632 1_555
Li0 O8 2.134941 1_655
Li1 O8 1.990927 1_556
Li1 O9 2.061991 1_555
Li1 O1 2.103815 1_455
Li1 O5 2.131632 1_555
Li1 O2 2.134941 1_455
O0 Os0 1.848706 1_555
O1 Os1 2.061296 1_556
O1 Os0 2.083630 1_665
O2 Os0 1.908110 1_655
O3 Os1 1.933382 1_555
O4 Os1 1.848706 1_555
O5 Os0 1.907061 1_565
O6 Os1 1.907061 1_545
O7 Os0 2.061296 1_554
O7 Os1 2.083630 1_445
O8 Os1 1.908110 1_455
O9 Os0 1.933382 1_555
