# generated using pymatgen
data_KRb(Zn12Cu)2
_symmetry_space_group_name_H-M   'P 1'
_cell_length_a   8.58074501
_cell_length_b   8.58074418
_cell_length_c   8.58074368
_cell_angle_alpha   59.99999827
_cell_angle_beta   60.00000147
_cell_angle_gamma   59.99999566
_symmetry_Int_Tables_number   1
_chemical_formula_structural   KRb(Zn12Cu)2
_chemical_formula_sum   'K1 Rb1 Zn24 Cu2'
_cell_volume   446.74517155
_cell_formula_units_Z   1
loop_
 _symmetry_equiv_pos_site_id
 _symmetry_equiv_pos_as_xyz
  1  'x, y, z'
loop_
 _atom_site_type_symbol
 _atom_site_label
 _atom_site_symmetry_multiplicity
 _atom_site_fract_x
 _atom_site_fract_y
 _atom_site_fract_z
 _atom_site_occupancy
  K  K0  1  0.75000000  0.75000000  0.75000000  1
  Rb  Rb0  1  0.25000000  0.25000000  0.25000000  1
  Zn  Zn0  1  0.29661731  0.93836780  0.06058090  1
  Zn  Zn1  1  0.79556601  0.20338269  0.56163220  1
  Zn  Zn2  1  0.56163220  0.43941910  0.79556601  1
  Zn  Zn3  1  0.79556601  0.43941910  0.20338269  1
  Zn  Zn4  1  0.43941910  0.79556601  0.56163220  1
  Zn  Zn5  1  0.43941910  0.20338269  0.79556601  1
  Zn  Zn6  1  0.56163220  0.79556601  0.20338269  1
  Zn  Zn7  1  0.06058090  0.93836780  0.70443399  1
  Zn  Zn8  1  0.70443399  0.93836780  0.29661731  1
  Zn  Zn9  1  0.93836780  0.70443399  0.06058090  1
  Zn  Zn10  1  0.70443399  0.29661731  0.06058090  1
  Zn  Zn11  1  0.93836780  0.06058090  0.29661731  1
  Zn  Zn12  1  0.06058090  0.29661731  0.93836780  1
  Zn  Zn13  1  0.29661731  0.70443399  0.93836780  1
  Zn  Zn14  1  0.29661731  0.06058090  0.70443399  1
  Zn  Zn15  1  0.56163220  0.20338269  0.43941910  1
  Zn  Zn16  1  0.20338269  0.79556601  0.43941910  1
  Zn  Zn17  1  0.20338269  0.43941910  0.56163220  1
  Zn  Zn18  1  0.79556601  0.56163220  0.43941910  1
  Zn  Zn19  1  0.43941910  0.56163220  0.20338269  1
  Zn  Zn20  1  0.20338269  0.56163220  0.79556601  1
  Zn  Zn21  1  0.06058090  0.70443399  0.29661731  1
  Zn  Zn22  1  0.93836780  0.29661731  0.70443399  1
  Zn  Zn23  1  0.70443399  0.06058090  0.93836780  1
  Cu  Cu0  1  0.00000000  0.00000000  0.00000000  1
  Cu  Cu1  1  0.50000000  0.50000000  0.50000000  1
loop_
_geom_bond_atom_site_label_1
_geom_bond_atom_site_label_2
_geom_bond_distance
_geom_bond_site_symmetry_2
K0 Zn3 3.535720 1_556
K0 Zn8 3.535720 1_555
K0 Zn15 3.535720 1_565
K0 Zn6 3.535720 1_556
K0 Zn12 3.535720 1_655
K0 Zn5 3.535720 1_565
K0 Zn18 3.535720 1_555
K0 Zn22 3.535720 1_555
K0 Zn21 3.535720 1_655
K0 Zn23 3.535720 1_565
K0 Zn9 3.535720 1_556
K0 Zn10 3.535720 1_556
K0 Zn11 3.535720 1_565
K0 Zn1 3.535720 1_565
K0 Zn17 3.535720 1_655
K0 Zn14 3.535720 1_565
K0 Zn19 3.535720 1_556
K0 Zn0 3.535720 1_556
K0 Zn4 3.535720 1_555
K0 Zn20 3.535720 1_655
K0 Zn2 3.535720 1_555
K0 Zn7 3.535720 1_655
K0 Zn16 3.535720 1_655
K0 Zn13 3.535720 1_555
Rb0 Zn20 3.546649 1_554
Rb0 Zn14 3.546649 1_555
Rb0 Zn4 3.546649 1_545
Rb0 Zn5 3.546649 1_554
Rb0 Zn9 3.546649 1_455
Rb0 Zn6 3.546649 1_545
Rb0 Zn17 3.546649 1_555
Rb0 Zn21 3.546649 1_555
Rb0 Zn22 3.546649 1_455
Rb0 Zn0 3.546649 1_545
Rb0 Zn12 3.546649 1_554
Rb0 Zn13 3.546649 1_554
Rb0 Zn7 3.546649 1_545
Rb0 Zn16 3.546649 1_545
Rb0 Zn18 3.546649 1_455
Rb0 Zn8 3.546649 1_545
Rb0 Zn2 3.546649 1_554
Rb0 Zn23 3.546649 1_554
Rb0 Zn15 3.546649 1_555
Rb0 Zn3 3.546649 1_455
Rb0 Zn19 3.546649 1_555
Rb0 Zn11 3.546650 1_455
Rb0 Zn1 3.546650 1_455
Rb0 Zn10 3.546650 1_555
Zn0 Zn6 2.583150 1_555
Zn0 Zn5 2.583150 1_564
Zn0 Zn19 2.651849 1_555
Zn0 Zn16 2.665532 1_555
Zn0 Zn14 2.689633 1_564
Zn0 Zn13 2.689633 1_554
Zn0 Zn12 2.706622 1_564
Zn0 Zn11 2.706623 1_465
Zn0 Zn21 2.851574 1_555
Zn1 Zn11 2.583149 1_555
Zn1 Zn7 2.583149 1_645
Zn1 Zn23 2.651849 1_555
Zn1 Zn22 2.665532 1_555
Zn1 Zn15 2.689634 1_555
Zn1 Zn5 2.689634 1_555
Zn1 Zn3 2.706622 1_555
Zn1 Zn18 2.706623 1_555
Zn1 Zn2 2.851574 1_555
Zn2 Zn22 2.651849 1_555
Zn2 Zn23 2.665532 1_555
Zn2 Zn4 2.689633 1_555
Zn2 Zn5 2.706623 1_555
Zn2 Zn20 2.706623 1_555
Zn3 Zn9 2.583150 1_555
Zn3 Zn6 2.689633 1_555
Zn4 Zn8 2.583150 1_555
Zn4 Zn7 2.665532 1_555
Zn4 Zn6 2.706622 1_555
Zn6 Zn9 2.651849 1_555
Zn6 Zn8 2.665532 1_555
Zn7 Zn9 2.689633 1_456
Zn8 Zn9 2.851574 1_555
Zn10 Zn2 2.583149 1_554
Zn10 Zn19 2.583149 1_555
Zn10 Zn3 2.651849 1_555
Zn10 Zn15 2.665532 1_555
Zn10 Zn22 2.689633 1_554
Zn10 Zn12 2.689634 1_654
Zn10 Zn8 2.706623 1_545
Zn10 Zn23 2.706623 1_554
Zn10 Zn11 2.851574 1_555
Zn11 Zn16 2.583149 1_645
Zn11 Zn15 2.651849 1_555
Zn11 Zn3 2.665532 1_555
Zn11 Zn21 2.689633 1_645
Zn11 Zn8 2.689634 1_545
Zn11 Zn12 2.706623 1_654
Zn12 Zn3 2.583150 1_456
Zn12 Zn20 2.583150 1_555
Zn12 Zn17 2.651849 1_555
Zn12 Zn5 2.665532 1_555
Zn12 Zn22 2.689633 1_455
Zn12 Zn14 2.851574 1_555
Zn13 Zn19 2.583149 1_556
Zn13 Zn2 2.583149 1_555
Zn13 Zn4 2.651849 1_555
Zn13 Zn20 2.665532 1_555
Zn13 Zn14 2.689633 1_565
Zn13 Zn21 2.706623 1_556
Zn13 Zn9 2.706623 1_456
Zn13 Zn7 2.851574 1_555
Zn14 Zn4 2.583149 1_545
Zn14 Zn15 2.583150 1_555
Zn14 Zn5 2.651849 1_555
Zn14 Zn17 2.665532 1_555
Zn14 Zn22 2.706623 1_455
Zn14 Zn7 2.706623 1_545
Zn15 Zn8 2.583149 1_545
Zn15 Zn5 2.689633 1_555
Zn15 Zn19 2.706622 1_555
Zn15 Zn17 2.706623 1_555
Zn15 Zn3 2.851574 1_555
Zn16 Zn7 2.583149 1_555
Zn16 Zn21 2.651849 1_555
Zn16 Zn20 2.689633 1_555
Zn16 Zn17 2.689633 1_555
Zn16 Zn4 2.706623 1_555
Zn16 Zn6 2.706623 1_555
Zn16 Zn19 2.851574 1_555
Zn17 Zn21 2.583149 1_555
Zn17 Zn22 2.583150 1_455
Zn17 Zn20 2.689633 1_555
Zn17 Zn19 2.706623 1_555
Zn17 Zn5 2.851574 1_555
Zn18 Zn22 2.583149 1_555
Zn18 Zn21 2.583150 1_655
Zn18 Zn8 2.651849 1_555
Zn18 Zn9 2.665532 1_555
Zn18 Zn2 2.689633 1_555
Zn18 Zn4 2.689634 1_555
Zn18 Zn3 2.706623 1_555
Zn18 Zn6 2.851574 1_555
Zn19 Zn21 2.665532 1_555
Zn19 Zn6 2.689634 1_555
Zn19 Zn3 2.689634 1_555
Zn20 Zn9 2.583150 1_456
Zn20 Zn7 2.651849 1_555
Zn20 Zn5 2.706622 1_555
Zn20 Zn4 2.851574 1_555
Zn21 Zn8 2.689634 1_455
Zn21 Zn9 2.706623 1_455
Zn22 Zn7 2.706623 1_645
Zn22 Zn23 2.851574 1_555
Zn23 Zn5 2.583150 1_555
Zn23 Zn6 2.583150 1_546
Zn23 Zn9 2.689633 1_546
Zn23 Zn7 2.689634 1_645
Zn23 Zn8 2.706622 1_546
Cu0 Zn21 2.594236 1_545
Cu0 Zn22 2.594236 1_454
Cu0 Zn11 2.594236 1_455
Cu0 Zn7 2.594236 1_544
Cu0 Zn10 2.594236 1_455
Cu0 Zn13 2.594236 1_544
Cu0 Zn12 2.594236 1_554
Cu0 Zn9 2.594236 1_445
Cu0 Zn8 2.594236 1_445
Cu0 Zn14 2.594236 1_554
Cu0 Zn23 2.594237 1_454
Cu0 Zn0 2.594237 1_545
Cu1 Zn19 2.594236 1_555
Cu1 Zn2 2.594236 1_555
Cu1 Zn5 2.594236 1_555
Cu1 Zn6 2.594236 1_555
Cu1 Zn15 2.594236 1_555
Cu1 Zn4 2.594236 1_555
Cu1 Zn1 2.594236 1_555
Cu1 Zn16 2.594236 1_555
Cu1 Zn3 2.594236 1_555
Cu1 Zn20 2.594236 1_555
Cu1 Zn18 2.594237 1_555
Cu1 Zn17 2.594237 1_555
