# generated using pymatgen
data_VTc5P2
_symmetry_space_group_name_H-M   'P 1'
_cell_length_a   7.07995745
_cell_length_b   7.08029410
_cell_length_c   7.07204289
_cell_angle_alpha   96.48970791
_cell_angle_beta   96.48197674
_cell_angle_gamma   140.19775846
_symmetry_Int_Tables_number   1
_chemical_formula_structural   VTc5P2
_chemical_formula_sum   'V2 Tc10 P4'
_cell_volume   214.07594559
_cell_formula_units_Z   2
loop_
 _symmetry_equiv_pos_site_id
 _symmetry_equiv_pos_as_xyz
  1  'x, y, z'
loop_
 _atom_site_type_symbol
 _atom_site_label
 _atom_site_symmetry_multiplicity
 _atom_site_fract_x
 _atom_site_fract_y
 _atom_site_fract_z
 _atom_site_occupancy
  V  V0  1  0.35093447  0.00216394  0.35163227  1
  V  V1  1  0.00196306  0.35042753  0.35185402  1
  Tc  Tc0  1  0.00004906  0.64041114  0.64215079  1
  Tc  Tc1  1  0.64040428  0.00045694  0.64254404  1
  Tc  Tc2  1  0.48550818  0.08380893  0.00102594  1
  Tc  Tc3  1  0.91685162  0.91641355  0.40170458  1
  Tc  Tc4  1  0.51470246  0.51509258  0.59863273  1
  Tc  Tc5  1  0.08414076  0.48592727  0.00186215  1
  Tc  Tc6  1  0.70044223  0.89959852  0.00370871  1
  Tc  Tc7  1  0.09592856  0.09621569  0.80241294  1
  Tc  Tc8  1  0.31033848  0.30993063  0.19746008  1
  Tc  Tc9  1  0.89930170  0.70024929  0.00310159  1
  P  P0  1  0.21080147  0.49812169  0.71158991  1
  P  P1  1  0.49728565  0.21067837  0.71091193  1
  P  P2  1  0.50025671  0.79052685  0.29006432  1
  P  P3  1  0.79109131  0.49997608  0.28934300  1
loop_
_geom_bond_atom_site_label_1
_geom_bond_atom_site_label_2
_geom_bond_distance
_geom_bond_site_symmetry_2
P0 Tc4 2.300981 1_555
P0 Tc5 2.315689 1_556
P0 Tc0 2.395553 1_555
P0 V1 2.434253 1_555
P0 Tc7 2.479239 1_555
P0 Tc1 2.499118 1_565
P0 Tc1 2.502898 1_455
P0 Tc6 2.506017 1_556
P1 Tc4 2.300395 1_555
P1 Tc2 2.315914 1_556
P1 Tc1 2.396082 1_555
P1 V0 2.432339 1_555
P1 Tc7 2.478997 1_555
P1 Tc0 2.499728 1_655
P1 Tc0 2.502342 1_545
P1 Tc9 2.506004 1_556
P2 Tc5 2.317935 1_555
P2 Tc3 2.322278 1_555
P2 Tc1 2.396985 1_565
P2 V0 2.437855 1_565
P2 Tc6 2.454801 1_555
P2 Tc8 2.466360 1_555
P2 V1 2.472153 1_555
P2 V1 2.478964 1_665
P3 Tc2 2.317596 1_555
P3 Tc3 2.322650 1_555
P3 Tc0 2.397554 1_655
P3 V1 2.435423 1_655
P3 Tc9 2.454649 1_555
P3 Tc8 2.466549 1_555
P3 V0 2.472360 1_555
P3 V0 2.478767 1_665
