# generated using pymatgen
data_Zn3SbRh4
_symmetry_space_group_name_H-M   'P 1'
_cell_length_a   7.50213157
_cell_length_b   7.50213210
_cell_length_c   7.50213179
_cell_angle_alpha   33.40207560
_cell_angle_beta   33.40208496
_cell_angle_gamma   33.40206894
_symmetry_Int_Tables_number   1
_chemical_formula_structural   Zn3SbRh4
_chemical_formula_sum   'Zn3 Sb1 Rh4'
_cell_volume   113.95105957
_cell_formula_units_Z   1
loop_
 _symmetry_equiv_pos_site_id
 _symmetry_equiv_pos_as_xyz
  1  'x, y, z'
loop_
 _atom_site_type_symbol
 _atom_site_label
 _atom_site_symmetry_multiplicity
 _atom_site_fract_x
 _atom_site_fract_y
 _atom_site_fract_z
 _atom_site_occupancy
  Zn  Zn0  1  0.24266412  0.24266412  0.24266412  1
  Zn  Zn1  1  0.75733588  0.75733588  0.75733588  1
  Zn  Zn2  1  0.50000000  0.50000000  0.50000000  1
  Sb  Sb0  1  0.00000000  0.00000000  0.00000000  1
  Rh  Rh0  1  0.87712784  0.87712784  0.87712784  1
  Rh  Rh1  1  0.37388195  0.37388195  0.37388195  1
  Rh  Rh2  1  0.12287216  0.12287216  0.12287216  1
  Rh  Rh3  1  0.62611805  0.62611805  0.62611805  1
loop_
_geom_bond_atom_site_label_1
_geom_bond_atom_site_label_2
_geom_bond_distance
_geom_bond_site_symmetry_2
Rh0 Zn1 2.543318 1_555
Rh0 Zn0 2.581651 1_656
Rh0 Zn0 2.581652 1_566
Rh0 Zn0 2.581653 1_665
Rh0 Sb0 2.608714 1_666
Rh0 Zn2 2.657445 1_565
Rh0 Zn2 2.657445 1_655
Rh0 Zn2 2.657446 1_556
Rh1 Sb0 2.634124 1_565
Rh1 Sb0 2.634124 1_655
Rh1 Sb0 2.634125 1_556
Rh1 Zn2 2.677628 1_555
Rh1 Zn1 2.707363 1_545
Rh1 Zn1 2.707364 1_455
Rh1 Zn1 2.707364 1_554
Rh1 Zn0 2.785902 1_555
Rh2 Zn0 2.543318 1_555
Rh2 Zn1 2.581651 1_454
Rh2 Zn1 2.581652 1_544
Rh2 Zn1 2.581653 1_445
Rh2 Sb0 2.608714 1_555
Rh2 Zn2 2.657445 1_545
Rh2 Zn2 2.657445 1_455
Rh2 Zn2 2.657446 1_554
Rh3 Sb0 2.634124 1_656
Rh3 Sb0 2.634124 1_566
Rh3 Sb0 2.634125 1_665
Rh3 Zn2 2.677628 1_555
Rh3 Zn0 2.707363 1_565
Rh3 Zn0 2.707364 1_655
Rh3 Zn0 2.707364 1_556
Rh3 Zn1 2.785902 1_555
