# generated using pymatgen
data_NaZrCrS4
_symmetry_space_group_name_H-M   'P 1'
_cell_length_a   7.17814891
_cell_length_b   13.86965596
_cell_length_c   6.17526727
_cell_angle_alpha   90.06741074
_cell_angle_beta   89.97584605
_cell_angle_gamma   89.68371051
_symmetry_Int_Tables_number   1
_chemical_formula_structural   NaZrCrS4
_chemical_formula_sum   'Na4 Zr4 Cr4 S16'
_cell_volume   614.79022477
_cell_formula_units_Z   4
loop_
 _symmetry_equiv_pos_site_id
 _symmetry_equiv_pos_as_xyz
  1  'x, y, z'
loop_
 _atom_site_type_symbol
 _atom_site_label
 _atom_site_symmetry_multiplicity
 _atom_site_fract_x
 _atom_site_fract_y
 _atom_site_fract_z
 _atom_site_occupancy
  Na  Na0  1  0.00083545  0.00094507  0.34094739  1
  Na  Na1  1  0.50034560  0.49809529  0.66737011  1
  Na  Na2  1  0.99588894  0.49989731  0.00898576  1
  Na  Na3  1  0.50496029  0.00017855  0.98956656  1
  Zr  Zr0  1  0.51523496  0.74540501  0.00139449  1
  Zr  Zr1  1  0.25032233  0.24995549  0.49988798  1
  Zr  Zr2  1  0.75030509  0.24987995  0.49987769  1
  Zr  Zr3  1  0.23434543  0.75181569  0.50118673  1
  Cr  Cr0  1  0.00027577  0.24823979  0.99951500  1
  Cr  Cr1  1  0.99880551  0.75266283  0.99900894  1
  Cr  Cr2  1  0.49998835  0.25152148  0.00139877  1
  Cr  Cr3  1  0.75074096  0.75038705  0.49795942  1
  S  S0  1  0.24955136  0.34963036  0.84957219  1
  S  S1  1  0.76659621  0.64901685  0.81892951  1
  S  S2  1  0.75163104  0.15001863  0.15114392  1
  S  S3  1  0.24235943  0.85391416  0.15510630  1
  S  S4  1  0.25087308  0.14997897  0.15123545  1
  S  S5  1  0.76029742  0.85110357  0.17514319  1
  S  S6  1  0.74851600  0.34955613  0.84960917  1
  S  S7  1  0.24165128  0.64629918  0.84207279  1
  S  S8  1  0.00125843  0.14578559  0.67764149  1
  S  S9  1  0.98289521  0.85131661  0.67479082  1
  S  S10  1  0.49917550  0.35435758  0.32330953  1
  S  S11  1  0.50869528  0.64661995  0.34357130  1
  S  S12  1  0.99914202  0.35266860  0.32131425  1
  S  S13  1  0.98710497  0.65244257  0.31940564  1
  S  S14  1  0.50119161  0.14730360  0.67919848  1
  S  S15  1  0.50701247  0.85100216  0.66086014  1
loop_
_geom_bond_atom_site_label_1
_geom_bond_atom_site_label_2
_geom_bond_distance
_geom_bond_site_symmetry_2
Na0 S8 2.889439 1_555
Na0 S5 2.895647 1_445
Na0 S3 2.904328 1_545
Na0 S9 2.930240 1_445
Na0 S2 2.969055 1_455
Na0 S4 2.985192 1_555
Na1 S11 2.873372 1_555
Na1 S10 2.911859 1_555
Na1 S6 2.941236 1_555
Na1 S7 2.964510 1_555
Na1 S0 2.965066 1_555
Na1 S1 2.991865 1_555
Na2 S12 2.810528 1_555
Na2 S13 2.853745 1_555
Na2 S1 2.886830 1_554
Na2 S7 2.888005 1_654
Na2 S6 2.916706 1_554
Na2 S0 2.929154 1_654
Na3 S14 2.801194 1_555
Na3 S15 2.896745 1_545
Na3 S2 2.913248 1_556
Na3 S4 2.931164 1_556
Na3 S3 2.959564 1_546
Na3 S5 2.985493 1_546
Cr0 S2 2.438560 1_456
Cr0 S4 2.438910 1_556
Cr0 S8 2.441988 1_555
Cr0 S12 2.457628 1_456
Cr0 S0 2.462941 1_555
Cr0 S6 2.464525 1_455
Cr1 S13 2.421040 1_556
Cr1 S9 2.428729 1_555
Cr1 S5 2.438734 1_556
Cr1 S3 2.446034 1_656
Cr1 S1 2.470976 1_555
Cr1 S7 2.474066 1_655
Cr2 S6 2.436868 1_554
Cr2 S0 2.437148 1_554
Cr2 S10 2.445257 1_555
Cr2 S14 2.457911 1_554
Cr2 S4 2.463069 1_555
Cr2 S2 2.465005 1_555
Cr3 S13 2.430897 1_555
Cr3 S1 2.433785 1_555
Cr3 S5 2.436696 1_555
Cr3 S9 2.439822 1_555
Cr3 S15 2.447128 1_555
Cr3 S11 2.454538 1_555
S0 Zr1 2.562631 1_555
S1 Zr0 2.506087 1_556
S2 Zr2 2.559085 1_555
S3 Zr3 2.565901 1_555
S3 Zr0 2.639161 1_555
S4 Zr1 2.559531 1_555
S5 Zr0 2.533999 1_555
S6 Zr2 2.562888 1_555
S7 Zr3 2.565599 1_555
S7 Zr0 2.596584 1_556
S8 Zr2 2.551687 1_455
S8 Zr1 2.553278 1_555
S9 Zr3 2.505800 1_655
S10 Zr1 2.550940 1_555
S10 Zr2 2.552399 1_555
S11 Zr0 2.520271 1_555
S11 Zr3 2.630146 1_555
S12 Zr2 2.543418 1_555
S12 Zr1 2.544281 1_655
S13 Zr3 2.516833 1_655
S14 Zr1 2.544215 1_555
S14 Zr2 2.545190 1_555
S15 Zr0 2.564580 1_556
S15 Zr3 2.593013 1_555
