# generated using pymatgen
data_Rb2Zn(IBr)2
_symmetry_space_group_name_H-M   'P 1'
_cell_length_a   7.19355527
_cell_length_b   7.19355649
_cell_length_c   11.59710971
_cell_angle_alpha   90.00000000
_cell_angle_beta   90.00000000
_cell_angle_gamma   108.96277632
_symmetry_Int_Tables_number   1
_chemical_formula_structural   Rb2Zn(IBr)2
_chemical_formula_sum   'Rb4 Zn2 I4 Br4'
_cell_volume   567.54999518
_cell_formula_units_Z   2
loop_
 _symmetry_equiv_pos_site_id
 _symmetry_equiv_pos_as_xyz
  1  'x, y, z'
loop_
 _atom_site_type_symbol
 _atom_site_label
 _atom_site_symmetry_multiplicity
 _atom_site_fract_x
 _atom_site_fract_y
 _atom_site_fract_z
 _atom_site_occupancy
  Rb  Rb0  1  0.62211293  0.62211293  0.50000000  1
  Rb  Rb1  1  0.62211293  0.62211293  0.00000000  1
  Rb  Rb2  1  0.24505799  0.89967231  0.25000000  1
  Rb  Rb3  1  0.89967231  0.24505799  0.75000000  1
  Zn  Zn0  1  0.85133759  0.29137995  0.25000000  1
  Zn  Zn1  1  0.29137995  0.85133759  0.75000000  1
  I  I0  1  0.05045946  0.44711118  0.43488323  1
  I  I1  1  0.44711118  0.05045946  0.56511677  1
  I  I2  1  0.05045946  0.44711118  0.06511677  1
  I  I3  1  0.44711118  0.05045946  0.93488323  1
  Br  Br0  1  0.54411524  0.36315035  0.25000000  1
  Br  Br1  1  0.36315035  0.54411524  0.75000000  1
  Br  Br2  1  0.76932490  0.93459055  0.25000000  1
  Br  Br3  1  0.93459055  0.76932490  0.75000000  1
loop_
_geom_bond_atom_site_label_1
_geom_bond_atom_site_label_2
_geom_bond_distance
_geom_bond_site_symmetry_2
I0 Zn0 2.619365 1_455
I0 Rb0 3.764400 1_455
I0 Rb2 3.767419 1_555
I0 Rb3 3.952151 1_455
I0 Rb0 3.962446 1_555
I1 Zn1 2.619365 1_545
I1 Rb0 3.764401 1_545
I1 Rb3 3.767418 1_555
I1 Rb2 3.952151 1_545
I1 Rb0 3.962447 1_555
I2 Zn0 2.619365 1_455
I2 Rb1 3.764400 1_455
I2 Rb2 3.767419 1_555
I2 Rb3 3.952151 1_454
I2 Rb1 3.962446 1_555
I3 Zn1 2.619365 1_545
I3 Rb1 3.764401 1_546
I3 Rb3 3.767418 1_555
I3 Rb2 3.952151 1_546
I3 Rb1 3.962447 1_556
Br0 Zn0 2.427403 1_555
Br0 Rb2 3.329037 1_545
Br0 Rb0 3.392872 1_555
Br0 Rb1 3.392872 1_555
Br1 Zn1 2.427404 1_555
Br1 Rb3 3.329037 1_455
Br1 Rb0 3.392872 1_555
Br1 Rb1 3.392872 1_556
Br2 Zn0 2.439535 1_565
Br2 Rb2 3.511880 1_655
Br2 Rb0 3.610114 1_555
Br2 Rb1 3.610114 1_555
Br2 Rb2 3.697358 1_555
Br3 Zn1 2.439534 1_655
Br3 Rb3 3.511881 1_565
Br3 Rb1 3.610114 1_556
Br3 Rb0 3.610114 1_555
Br3 Rb3 3.697359 1_555
