# generated using pymatgen
data_NaNi(Sb4Ru)3
_symmetry_space_group_name_H-M   'P 1'
_cell_length_a   8.04852244
_cell_length_b   8.04852299
_cell_length_c   8.07383574
_cell_angle_alpha   109.53494465
_cell_angle_beta   109.53494604
_cell_angle_gamma   109.40742224
_symmetry_Int_Tables_number   1
_chemical_formula_structural   NaNi(Sb4Ru)3
_chemical_formula_sum   'Na1 Ni1 Sb12 Ru3'
_cell_volume   402.29830707
_cell_formula_units_Z   1
loop_
 _symmetry_equiv_pos_site_id
 _symmetry_equiv_pos_as_xyz
  1  'x, y, z'
loop_
 _atom_site_type_symbol
 _atom_site_label
 _atom_site_symmetry_multiplicity
 _atom_site_fract_x
 _atom_site_fract_y
 _atom_site_fract_z
 _atom_site_occupancy
  Na  Na0  1  0.00000000  0.00000000  0.00000000  1
  Ni  Ni0  1  0.00000000  0.00000000  0.50000000  1
  Sb  Sb0  1  0.15568925  0.81664896  0.65762383  1
  Sb  Sb1  1  0.84431075  0.18335104  0.34237617  1
  Sb  Sb2  1  0.84193360  0.50146404  0.65851363  1
  Sb  Sb3  1  0.15806640  0.49853596  0.34148637  1
  Sb  Sb4  1  0.81664896  0.66096072  0.15902613  1
  Sb  Sb5  1  0.18335104  0.33903928  0.84097387  1
  Sb  Sb6  1  0.50146404  0.65953144  0.84295141  1
  Sb  Sb7  1  0.49853596  0.34046856  0.15704859  1
  Sb  Sb8  1  0.65953144  0.15806640  0.81658003  1
  Sb  Sb9  1  0.34046856  0.84193360  0.18341997  1
  Sb  Sb10  1  0.66096072  0.84431075  0.50193559  1
  Sb  Sb11  1  0.33903928  0.15568925  0.49806441  1
  Ru  Ru0  1  0.50000000  0.00000000  0.00000000  1
  Ru  Ru1  1  0.00000000  0.50000000  0.00000000  1
  Ru  Ru2  1  0.50000000  0.50000000  0.50000000  1
loop_
_geom_bond_atom_site_label_1
_geom_bond_atom_site_label_2
_geom_bond_distance
_geom_bond_site_symmetry_2
Na0 Sb9 3.490487 1_545
Na0 Sb8 3.490487 1_454
Na0 Sb6 3.490493 1_444
Na0 Sb7 3.490493 1_555
Na0 Sb3 3.490493 1_555
Na0 Sb2 3.490493 1_444
Na0 Sb11 3.493770 1_555
Na0 Sb10 3.493770 1_444
Na0 Sb1 3.493779 1_455
Na0 Sb0 3.493779 1_544
Na0 Sb4 3.493779 1_445
Na0 Sb5 3.493779 1_554
Ni0 Sb5 2.604957 1_555
Ni0 Sb4 2.604957 1_445
Ni0 Sb11 2.604962 1_555
Ni0 Sb10 2.604962 1_445
Ni0 Sb0 2.604965 1_545
Ni0 Sb1 2.604965 1_455
Sb0 Sb2 2.929051 1_455
Sb0 Sb3 2.960647 1_555
Sb1 Sb3 2.929051 1_655
Sb1 Sb2 2.960647 1_555
Sb4 Sb6 2.929050 1_554
Sb4 Sb7 2.960647 1_555
Sb5 Sb7 2.929050 1_556
Sb5 Sb6 2.960647 1_555
Sb10 Sb8 2.929046 1_565
Sb10 Sb9 2.960661 1_555
Sb11 Sb9 2.929046 1_545
Sb11 Sb8 2.960661 1_555
Ru0 Sb7 2.612422 1_555
Ru0 Sb6 2.612422 1_544
Ru0 Sb8 2.627970 1_554
Ru0 Sb9 2.627970 1_545
Ru0 Sb1 2.632439 1_555
Ru0 Sb0 2.632439 1_544
Ru1 Sb9 2.612426 1_555
Ru1 Sb8 2.612426 1_454
Ru1 Sb3 2.627965 1_555
Ru1 Sb2 2.627965 1_454
Ru1 Sb4 2.632448 1_455
Ru1 Sb5 2.632448 1_554
Ru2 Sb2 2.612430 1_555
Ru2 Sb3 2.612430 1_555
Ru2 Sb6 2.627974 1_555
Ru2 Sb7 2.627974 1_555
Ru2 Sb10 2.632437 1_555
Ru2 Sb11 2.632437 1_555
