# generated using pymatgen
data_LiV(PO4)2
_symmetry_space_group_name_H-M   'P 1'
_cell_length_a   13.65816500
_cell_length_b   6.22781400
_cell_length_c   7.55703584
_cell_angle_alpha   80.09865599
_cell_angle_beta   90.00000000
_cell_angle_gamma   90.00000000
_symmetry_Int_Tables_number   1
_chemical_formula_structural   LiV(PO4)2
_chemical_formula_sum   'Li4 V4 P8 O32'
_cell_volume   633.23093419
_cell_formula_units_Z   4
loop_
 _symmetry_equiv_pos_site_id
 _symmetry_equiv_pos_as_xyz
  1  'x, y, z'
loop_
 _atom_site_type_symbol
 _atom_site_label
 _atom_site_symmetry_multiplicity
 _atom_site_fract_x
 _atom_site_fract_y
 _atom_site_fract_z
 _atom_site_occupancy
  Li  Li0  1  0.76108100  0.66824200  0.88323800  1
  Li  Li1  1  0.23891900  0.33175800  0.11676200  1
  Li  Li2  1  0.73891900  0.16824200  0.88323800  1
  Li  Li3  1  0.26108100  0.83175800  0.11676200  1
  V  V0  1  0.91108800  0.22518700  0.22339500  1
  V  V1  1  0.08891200  0.77481300  0.77660500  1
  V  V2  1  0.41108800  0.27481300  0.77660500  1
  V  V3  1  0.58891200  0.72518700  0.22339500  1
  P  P0  1  0.97737600  0.73485100  0.17527200  1
  P  P1  1  0.87724200  0.02837400  0.63887700  1
  P  P2  1  0.52262400  0.23485100  0.17527200  1
  P  P3  1  0.62275800  0.52837400  0.63887700  1
  P  P4  1  0.02262400  0.26514900  0.82472800  1
  P  P5  1  0.37724200  0.47162600  0.36112300  1
  P  P6  1  0.47737600  0.76514900  0.82472800  1
  P  P7  1  0.12275800  0.97162600  0.36112300  1
  O  O0  1  0.49311300  0.76847100  0.02479900  1
  O  O1  1  0.68403600  0.78163200  0.08983200  1
  O  O2  1  0.95544400  0.85794600  0.63702400  1
  O  O3  1  0.59308100  0.41680200  0.20128600  1
  O  O4  1  0.41995600  0.27166600  0.26553300  1
  O  O5  1  0.56252200  0.01411000  0.26774200  1
  O  O6  1  0.65147600  0.64897300  0.44749000  1
  O  O7  1  0.58004400  0.72833400  0.73446700  1
  O  O8  1  0.91995600  0.22833400  0.73446700  1
  O  O9  1  0.84852400  0.14897300  0.44749000  1
  O  O10  1  0.54455600  0.35794600  0.63702400  1
  O  O11  1  0.15147600  0.85102700  0.55251000  1
  O  O12  1  0.08004400  0.77166600  0.26553300  1
  O  O13  1  0.81596400  0.28163200  0.08983200  1
  O  O14  1  0.71359200  0.45408800  0.74758300  1
  O  O15  1  0.34852400  0.35102700  0.55251000  1
  O  O16  1  0.40691900  0.58319800  0.79871400  1
  O  O17  1  0.31596400  0.21836800  0.91016800  1
  O  O18  1  0.50688700  0.23152900  0.97520100  1
  O  O19  1  0.06252200  0.48589000  0.73225800  1
  O  O20  1  0.99311300  0.73152900  0.97520100  1
  O  O21  1  0.18403600  0.71836800  0.91016800  1
  O  O22  1  0.09308100  0.08319800  0.79871400  1
  O  O23  1  0.93747800  0.51411000  0.26774200  1
  O  O24  1  0.90691900  0.91680200  0.20128600  1
  O  O25  1  0.00688700  0.26847100  0.02479900  1
  O  O26  1  0.43747800  0.98589000  0.73225800  1
  O  O27  1  0.45544400  0.64205400  0.36297600  1
  O  O28  1  0.04455600  0.14205400  0.36297600  1
  O  O29  1  0.78640800  0.95408800  0.74758300  1
  O  O30  1  0.21359200  0.04591200  0.25241700  1
  O  O31  1  0.28640800  0.54591200  0.25241700  1
loop_
_geom_bond_atom_site_label_1
_geom_bond_atom_site_label_2
_geom_bond_distance
_geom_bond_site_symmetry_2
Li0 O29 1.926675 1_555
Li0 O14 1.928891 1_555
Li0 O1 2.103003 1_556
Li1 O30 1.926675 1_555
Li1 O31 1.928891 1_555
Li1 O17 2.103003 1_554
Li2 O14 1.926675 1_555
Li2 O29 1.928891 1_545
Li2 O13 2.103003 1_556
Li3 O31 1.926675 1_555
Li3 O30 1.928891 1_565
Li3 O21 2.103003 1_554
O0 P6 1.530803 1_554
O0 V3 1.974320 1_555
O1 V3 1.645688 1_555
O2 P1 1.507545 1_565
O2 V1 2.125076 1_655
O3 P2 1.524910 1_555
O3 V3 1.957059 1_555
O4 P2 1.593092 1_555
O4 P5 1.649956 1_555
O5 P2 1.531271 1_555
O5 V3 1.920235 1_545
O6 P3 1.560837 1_555
O6 V3 1.883338 1_555
O7 P6 1.593092 1_555
O7 P3 1.649956 1_555
O8 P4 1.593092 1_655
O8 P1 1.649956 1_555
O9 P1 1.560837 1_555
O9 V0 1.883338 1_555
O10 P3 1.507545 1_555
O10 V2 2.125076 1_555
O11 P7 1.560837 1_555
O11 V1 1.883338 1_555
O12 P0 1.593092 1_455
O12 P7 1.649956 1_555
O13 V0 1.645688 1_555
O14 P3 1.515697 1_555
O15 P5 1.560837 1_555
O15 V2 1.883338 1_555
O16 P6 1.524910 1_555
O16 V2 1.957059 1_555
O17 V2 1.645688 1_555
O18 P2 1.530803 1_556
O18 V2 1.974320 1_555
O19 P4 1.531271 1_555
O19 V1 1.920235 1_555
O20 P0 1.530803 1_556
O20 V1 1.974320 1_655
O21 V1 1.645688 1_555
O22 P4 1.524910 1_555
O22 V1 1.957059 1_545
O23 P0 1.531271 1_555
O23 V0 1.920235 1_555
O24 P0 1.524910 1_555
O24 V0 1.957059 1_565
O25 P4 1.530803 1_554
O25 V0 1.974320 1_455
O26 P6 1.531271 1_555
O26 V2 1.920235 1_565
O27 P5 1.507545 1_555
O27 V3 2.125076 1_555
O28 P7 1.507545 1_545
O28 V0 2.125076 1_455
O29 P1 1.515697 1_565
O30 P7 1.515697 1_545
O31 P5 1.515697 1_555
