# generated using pymatgen
data_Mg4Ni(GeIr)6
_symmetry_space_group_name_H-M   'P 1'
_cell_length_a   6.98164262
_cell_length_b   6.98163384
_cell_length_c   6.98164302
_cell_angle_alpha   109.16102986
_cell_angle_beta   109.16134054
_cell_angle_gamma   110.09311654
_symmetry_Int_Tables_number   1
_chemical_formula_structural   Mg4Ni(GeIr)6
_chemical_formula_sum   'Mg4 Ni1 Ge6 Ir6'
_cell_volume   261.94604751
_cell_formula_units_Z   1
loop_
 _symmetry_equiv_pos_site_id
 _symmetry_equiv_pos_as_xyz
  1  'x, y, z'
loop_
 _atom_site_type_symbol
 _atom_site_label
 _atom_site_symmetry_multiplicity
 _atom_site_fract_x
 _atom_site_fract_y
 _atom_site_fract_z
 _atom_site_occupancy
  Mg  Mg0  1  0.00264541  0.99735559  0.50000000  1
  Mg  Mg1  1  0.00264441  0.50264441  0.00528983  1
  Mg  Mg2  1  0.49735559  0.99735559  0.99471117  1
  Mg  Mg3  1  0.49735359  0.50264441  0.50000000  1
  Ni  Ni0  1  0.74999900  0.24999900  0.50000000  1
  Ge  Ge0  1  0.68801524  0.68801524  0.00000000  1
  Ge  Ge1  1  0.31720758  0.00568160  0.31152597  1
  Ge  Ge2  1  0.99431840  0.30584637  0.31152797  1
  Ge  Ge3  1  0.31198576  0.31198576  0.00000000  1
  Ge  Ge4  1  0.69415563  0.00568160  0.68847403  1
  Ge  Ge5  1  0.99431740  0.68278942  0.68847203  1
  Ir  Ir0  1  0.74506889  0.49168823  0.25338166  1
  Ir  Ir1  1  0.50831277  0.25493011  0.74661734  1
  Ir  Ir2  1  0.23830557  0.49168823  0.74661834  1
  Ir  Ir3  1  0.25000000  0.75000000  0.50000000  1
  Ir  Ir4  1  0.50831277  0.76169543  0.25338266  1
  Ir  Ir5  1  0.00000100  0.00000100  0.00000000  1
loop_
_geom_bond_atom_site_label_1
_geom_bond_atom_site_label_2
_geom_bond_distance
_geom_bond_site_symmetry_2
Mg0 Ni0 2.891408 1_465
Mg1 Ni0 2.891408 1_454
Mg2 Ni0 2.891403 1_566
Mg3 Ni0 2.891413 1_555
Ge0 Ir5 2.495795 1_665
Ge0 Ir1 2.504231 1_554
Ge0 Ir4 2.504235 1_555
Ge0 Ir0 2.582861 1_555
Ge0 Ir2 2.582868 1_554
Ge0 Mg2 2.903945 1_554
Ge0 Mg1 2.903946 1_655
Ge0 Mg3 2.903946 1_554
Ge0 Mg0 2.903947 1_655
Ge1 Ni0 2.479166 1_555
Ge1 Ir4 2.511934 1_545
Ge1 Ir1 2.511935 1_555
Ge1 Ir5 2.521436 1_555
Ge1 Ir3 2.551449 1_545
Ge1 Mg3 2.875719 1_555
Ge1 Mg2 2.875722 1_544
Ge1 Mg0 2.901299 1_545
Ge1 Mg1 2.901301 1_545
Ge2 Ni0 2.479174 1_555
Ge2 Ir2 2.511929 1_655
Ge2 Ir0 2.511935 1_555
Ge2 Ir5 2.521460 1_655
Ge2 Ir3 2.551440 1_655
Ge2 Mg0 2.875718 1_645
Ge2 Mg2 2.875718 1_544
Ge2 Mg3 2.901290 1_655
Ge2 Mg1 2.901296 1_655
Ge3 Ir5 2.495787 1_555
Ge3 Ir0 2.504216 1_555
Ge3 Ir2 2.504222 1_554
Ge3 Ir4 2.582872 1_555
Ge3 Ir1 2.582876 1_554
Ge3 Mg2 2.903947 1_544
Ge3 Mg0 2.903947 1_544
Ge3 Mg1 2.903949 1_555
Ge3 Mg3 2.903950 1_555
Ge4 Ni0 2.479166 1_555
Ge4 Ir1 2.511934 1_555
Ge4 Ir4 2.511935 1_545
Ge4 Ir5 2.521436 1_656
Ge4 Ir3 2.551449 1_545
Ge4 Mg1 2.875719 1_656
Ge4 Mg0 2.875729 1_645
Ge4 Mg3 2.901300 1_545
Ge4 Mg2 2.901306 1_545
Ge5 Ni0 2.479163 1_555
Ge5 Ir2 2.511923 1_655
Ge5 Ir0 2.511930 1_555
Ge5 Ir5 2.521460 1_666
Ge5 Ir3 2.551451 1_655
Ge5 Mg1 2.875720 1_656
Ge5 Mg3 2.875727 1_555
Ge5 Mg0 2.901306 1_655
Ge5 Mg2 2.901307 1_655
Ir0 Ni0 2.778716 1_555
Ir0 Mg2 2.814366 1_544
Ir0 Mg3 2.814376 1_555
Ir0 Mg0 2.876986 1_655
Ir0 Mg1 2.876990 1_655
Ir1 Ni0 2.778701 1_555
Ir1 Mg3 2.814358 1_555
Ir1 Mg1 2.814359 1_656
Ir1 Mg0 2.876984 1_545
Ir1 Mg2 2.876989 1_545
Ir2 Ni0 2.778711 1_455
Ir2 Mg0 2.814366 1_545
Ir2 Mg1 2.814371 1_556
Ir2 Mg3 2.876985 1_555
Ir2 Mg2 2.876986 1_555
Ir3 Mg3 2.830862 1_555
Ir3 Mg0 2.830868 1_555
Ir3 Mg1 2.830869 1_555
Ir3 Mg2 2.830874 1_555
Ir4 Ni0 2.778696 1_565
Ir4 Mg2 2.814358 1_554
Ir4 Mg0 2.814364 1_655
Ir4 Mg3 2.876989 1_555
Ir4 Mg1 2.876990 1_555
