# generated using pymatgen
data_Ti5Al16AsRh7
_symmetry_space_group_name_H-M   'P 1'
_cell_length_a   8.55114083
_cell_length_b   8.55114149
_cell_length_c   8.46997814
_cell_angle_alpha   60.31348725
_cell_angle_beta   60.31348472
_cell_angle_gamma   59.37304170
_symmetry_Int_Tables_number   1
_chemical_formula_structural   Ti5Al16AsRh7
_chemical_formula_sum   'Ti5 Al16 As1 Rh7'
_cell_volume   437.86271512
_cell_formula_units_Z   1
loop_
 _symmetry_equiv_pos_site_id
 _symmetry_equiv_pos_as_xyz
  1  'x, y, z'
loop_
 _atom_site_type_symbol
 _atom_site_label
 _atom_site_symmetry_multiplicity
 _atom_site_fract_x
 _atom_site_fract_y
 _atom_site_fract_z
 _atom_site_occupancy
  Ti  Ti0  1  0.29058073  0.70779641  0.29220359  1
  Ti  Ti1  1  0.70779641  0.29058073  0.29220359  1
  Ti  Ti2  1  0.31337319  0.31337319  0.68662681  1
  Ti  Ti3  1  0.70779641  0.29058073  0.70941927  1
  Ti  Ti4  1  0.29058073  0.70779641  0.70941927  1
  Al  Al0  1  0.88430392  0.88430392  0.35117167  1
  Al  Al1  1  0.88271018  0.37474328  0.87127377  1
  Al  Al2  1  0.37474328  0.88271018  0.87127377  1
  Al  Al3  1  0.88430392  0.88430392  0.88022249  1
  Al  Al4  1  0.12872623  0.12872623  0.62525672  1
  Al  Al5  1  0.11977751  0.64882833  0.11569608  1
  Al  Al6  1  0.64882833  0.11977751  0.11569608  1
  Al  Al7  1  0.12872623  0.12872623  0.11728982  1
  Al  Al8  1  0.66209779  0.66209779  0.05384028  1
  Al  Al9  1  0.67135339  0.02744517  0.65059972  1
  Al  Al10  1  0.02744517  0.67135339  0.65059972  1
  Al  Al11  1  0.66209779  0.66209779  0.62196215  1
  Al  Al12  1  0.34940028  0.34940028  0.97255483  1
  Al  Al13  1  0.37803785  0.94615972  0.33790221  1
  Al  Al14  1  0.94615972  0.37803785  0.33790221  1
  Al  Al15  1  0.34940028  0.34940028  0.32864661  1
  As  As0  1  0.52720549  0.52720549  0.47279451  1
  Rh  Rh0  1  0.01212979  0.01212979  0.98787021  1
  Rh  Rh1  1  0.01138346  0.01138346  0.48861654  1
  Rh  Rh2  1  0.50416907  0.01065915  0.49583093  1
  Rh  Rh3  1  0.01065915  0.50416907  0.49583093  1
  Rh  Rh4  1  0.51138346  0.51138346  0.98861654  1
  Rh  Rh5  1  0.01065915  0.50416907  0.98934085  1
  Rh  Rh6  1  0.50416907  0.01065915  0.98934085  1
loop_
_geom_bond_atom_site_label_1
_geom_bond_atom_site_label_2
_geom_bond_distance
_geom_bond_site_symmetry_2
Al0 Rh0 2.532314 1_664
Al0 Rh2 2.650048 1_565
Al0 Rh3 2.650049 1_655
Al0 Rh1 2.725116 1_665
Al1 Rh0 2.523443 1_655
Al1 Rh4 2.584483 1_555
Al1 Rh5 2.614533 1_655
Al1 Rh3 2.614540 1_655
Al2 Rh0 2.523442 1_565
Al2 Rh4 2.584483 1_555
Al2 Rh6 2.614533 1_565
Al2 Rh2 2.614540 1_565
Al3 Rh0 2.532301 1_665
Al3 Rh6 2.650049 1_565
Al3 Rh5 2.650050 1_655
Al3 Rh1 2.725130 1_665
Al4 Rh0 2.523443 1_555
Al4 Rh1 2.584476 1_555
Al4 Rh2 2.614540 1_555
Al4 Rh3 2.614540 1_555
Al5 Rh0 2.532315 1_564
Al5 Rh5 2.650035 1_554
Al5 Rh3 2.650049 1_555
Al5 Rh4 2.725130 1_554
Al6 Rh0 2.532315 1_654
Al6 Rh6 2.650035 1_554
Al6 Rh2 2.650049 1_555
Al6 Rh4 2.725130 1_554
Al7 Rh0 2.523435 1_554
Al7 Rh1 2.584483 1_555
Al7 Rh6 2.614540 1_554
Al7 Rh5 2.614540 1_554
Al8 Rh5 2.454145 1_654
Al8 Rh6 2.454145 1_564
Al8 Rh4 2.594200 1_554
Al8 As0 2.915502 1_555
Al9 Rh2 2.456538 1_555
Al9 Rh6 2.456552 1_555
Al9 Rh1 2.486760 1_655
Al10 Rh3 2.456538 1_555
Al10 Rh5 2.456552 1_555
Al10 Rh1 2.486760 1_565
Al11 Rh3 2.454143 1_655
Al11 Rh2 2.454144 1_565
Al11 Rh4 2.594212 1_555
Al11 As0 2.915488 1_555
Al12 Rh5 2.456553 1_555
Al12 Rh6 2.456553 1_555
Al12 Rh4 2.486745 1_555
Al13 Rh2 2.454131 1_565
Al13 Rh6 2.454146 1_564
Al13 Rh1 2.594214 1_565
Al13 As0 2.915502 1_555
Al14 Rh3 2.454131 1_655
Al14 Rh5 2.454146 1_654
Al14 Rh1 2.594215 1_655
Al14 As0 2.915502 1_555
Al15 Rh3 2.456548 1_555
Al15 Rh2 2.456549 1_555
Al15 Rh4 2.486756 1_554
As0 Ti0 2.522075 1_555
As0 Ti4 2.522075 1_555
As0 Ti1 2.522075 1_555
As0 Ti3 2.522075 1_555
As0 Ti2 2.610217 1_555
Rh1 Ti1 3.039006 1_455
Rh1 Ti3 3.039006 1_455
Rh1 Ti0 3.039006 1_545
Rh1 Ti4 3.039006 1_545
Rh4 Ti4 3.039005 1_555
Rh4 Ti3 3.039005 1_555
Rh4 Ti0 3.039005 1_556
Rh4 Ti1 3.039005 1_556
