# generated using pymatgen
data_Na2LiVB28
_symmetry_space_group_name_H-M   'P 1'
_cell_length_a   7.21544700
_cell_length_b   7.21544714
_cell_length_c   7.20370391
_cell_angle_alpha   132.19163016
_cell_angle_beta   111.00927375
_cell_angle_gamma   88.36942617
_symmetry_Int_Tables_number   1
_chemical_formula_structural   Na2LiVB28
_chemical_formula_sum   'Na2 Li1 V1 B28'
_cell_volume   246.87315619
_cell_formula_units_Z   1
loop_
 _symmetry_equiv_pos_site_id
 _symmetry_equiv_pos_as_xyz
  1  'x, y, z'
loop_
 _atom_site_type_symbol
 _atom_site_label
 _atom_site_symmetry_multiplicity
 _atom_site_fract_x
 _atom_site_fract_y
 _atom_site_fract_z
 _atom_site_occupancy
  Na  Na0  1  0.59625171  0.25006155  0.34631326  1
  Na  Na1  1  0.40374829  0.74993845  0.65368674  1
  Li  Li0  1  0.00000000  0.50000000  0.00000000  1
  V  V0  1  0.00000000  0.00000000  0.50000000  1
  B  B0  1  0.63664472  0.66481880  0.96905523  1
  B  B1  1  0.36335528  0.33518120  0.03094477  1
  B  B2  1  0.19576358  0.16758949  0.03094477  1
  B  B3  1  0.80423642  0.83241051  0.96905523  1
  B  B4  1  0.77234082  0.14990688  0.62323644  1
  B  B5  1  0.22765918  0.85009312  0.37676356  1
  B  B6  1  0.02667244  0.64910538  0.37676356  1
  B  B7  1  0.97332756  0.35089462  0.62323644  1
  B  B8  1  0.91792917  0.08681417  0.83192126  1
  B  B9  1  0.08207083  0.91318583  0.16807874  1
  B  B10  1  0.75489392  0.58600791  0.16807874  1
  B  B11  1  0.24510608  0.41399209  0.83192126  1
  B  B12  1  0.39799079  0.40109219  0.67731518  1
  B  B13  1  0.60257447  0.27956921  0.00435007  1
  B  B14  1  0.22477886  0.90177560  0.00435007  1
  B  B15  1  0.77622299  0.77932539  0.67731518  1
  B  B16  1  0.60200921  0.59890781  0.32268482  1
  B  B17  1  0.39742553  0.72043079  0.99564993  1
  B  B18  1  0.77522114  0.09822440  0.99564993  1
  B  B19  1  0.22377701  0.22067461  0.32268482  1
  B  B20  1  0.03383991  0.83408643  0.70920286  1
  B  B21  1  0.96374239  0.66714235  0.79229778  1
  B  B22  1  0.62515444  0.32855539  0.79229778  1
  B  B23  1  0.37511643  0.17536296  0.70920286  1
  B  B24  1  0.96616009  0.16591357  0.29079714  1
  B  B25  1  0.03625761  0.33285765  0.20770222  1
  B  B26  1  0.37484556  0.67144461  0.20770222  1
  B  B27  1  0.62488357  0.82463704  0.29079714  1
loop_
_geom_bond_atom_site_label_1
_geom_bond_atom_site_label_2
_geom_bond_distance
_geom_bond_site_symmetry_2
B0 B3 1.734297 1_555
B0 B12 1.795230 1_555
B0 B27 1.803960 1_556
B0 B17 1.808724 1_555
B0 B10 1.815830 1_556
B0 B22 1.816878 1_555
B0 Na1 2.727699 1_555
B1 B2 1.734297 1_555
B1 B16 1.795230 1_555
B1 B23 1.803960 1_554
B1 B13 1.808724 1_555
B1 B11 1.815830 1_554
B1 B26 1.816878 1_555
B1 Na0 2.727699 1_555
B2 B20 1.803960 1_544
B2 B8 1.815829 1_454
B2 B25 1.816879 1_555
B2 Na0 2.727699 1_555
B3 B9 1.815829 1_656
B3 Na1 2.727699 1_555
B4 B8 1.824934 1_555
B4 Li0 2.067825 1_656
B4 V0 2.076325 1_655
B4 B7 2.079885 1_555
B4 Na0 2.486530 1_555
B5 B9 1.824934 1_555
B5 Li0 2.067825 1_555
B5 V0 2.076325 1_565
B5 B6 2.079885 1_555
B5 Na1 2.486530 1_555
B6 Li0 2.067816 1_555
B6 V0 2.076322 1_565
B6 Na1 2.486520 1_555
B7 Li0 2.067816 1_656
B7 V0 2.076322 1_655
B7 Na0 2.486520 1_555
B8 V0 2.332930 1_655
B8 Li0 2.332939 1_656
B9 V0 2.332930 1_565
B9 Li0 2.332939 1_555
B10 B27 1.756217 1_555
B10 B22 1.783923 1_554
B10 B13 1.787121 1_555
B10 B16 1.789367 1_555
B10 B6 1.824938 1_655
B10 V0 2.332927 1_665
B10 Li0 2.332932 1_655
B11 B23 1.756217 1_555
B11 B26 1.783923 1_556
B11 B17 1.787121 1_555
B11 B12 1.789367 1_555
B11 B7 1.824938 1_455
B11 V0 2.332927 1_555
B11 Li0 2.332932 1_556
B12 B19 1.767623 1_555
B12 B22 1.790705 1_555
B12 B23 1.810477 1_555
B12 B17 1.864576 1_555
B12 Na1 2.636837 1_555
B12 Na0 2.790410 1_555
B13 B18 1.766620 1_554
B13 B23 1.788926 1_554
B13 B22 1.841711 1_554
B13 B16 1.864576 1_555
B13 Na0 2.627051 1_555
B13 Na1 2.791050 1_544
B14 B17 1.766620 1_554
B14 B9 1.787106 1_555
B14 B20 1.788921 1_554
B14 B2 1.808722 1_565
B14 B21 1.841703 1_454
B14 B19 1.864567 1_565
B14 Na0 2.627062 1_565
B14 Na1 2.791060 1_554
B15 B16 1.767623 1_555
B15 B8 1.789355 1_565
B15 B21 1.790715 1_555
B15 B3 1.795234 1_555
B15 B20 1.810476 1_655
B15 B18 1.864567 1_565
B15 Na1 2.636837 1_555
B15 Na0 2.790416 1_555
B16 B26 1.790705 1_555
B16 B27 1.810477 1_555
B16 Na0 2.636837 1_555
B16 Na1 2.790410 1_555
B17 B27 1.788926 1_556
B17 B26 1.841711 1_556
B17 Na1 2.627051 1_555
B17 Na0 2.791050 1_566
B18 B8 1.787106 1_555
B18 B24 1.788921 1_556
B18 B3 1.808722 1_545
B18 B25 1.841703 1_656
B18 Na1 2.627062 1_545
B18 Na0 2.791060 1_556
B19 B9 1.789355 1_545
B19 B25 1.790715 1_555
B19 B2 1.795234 1_555
B19 B24 1.810476 1_455
B19 Na0 2.636837 1_555
B19 Na1 2.790416 1_555
B20 B8 1.756212 1_465
B20 B6 1.772247 1_555
B20 B21 1.812575 1_455
B20 V0 2.430389 1_565
B20 Na1 2.828326 1_555
B21 B7 1.735939 1_555
B21 B9 1.783923 1_656
B21 B3 1.816879 1_555
B21 Li0 2.426262 1_656
B21 Na0 2.787137 1_555
B22 B4 1.735942 1_555
B22 B23 1.812568 1_555
B22 Li0 2.426269 1_656
B22 Na0 2.787139 1_555
B23 B5 1.772239 1_545
B23 V0 2.430389 1_555
B23 Na1 2.828326 1_545
B24 B9 1.756212 1_645
B24 B7 1.772247 1_555
B24 B3 1.803960 1_544
B24 B25 1.812575 1_655
B24 V0 2.430389 1_655
B24 Na0 2.828326 1_555
B25 B6 1.735939 1_555
B25 B8 1.783923 1_454
B25 Li0 2.426262 1_555
B25 Na1 2.787137 1_555
B26 B5 1.735942 1_555
B26 B27 1.812568 1_555
B26 Li0 2.426269 1_555
B26 Na1 2.787139 1_555
B27 B4 1.772239 1_565
B27 V0 2.430389 1_665
B27 Na0 2.828326 1_565
