# generated using pymatgen
data_K3Cu(PAu)2
_symmetry_space_group_name_H-M   'P 1'
_cell_length_a   7.53730338
_cell_length_b   7.53730260
_cell_length_c   7.27971060
_cell_angle_alpha   46.32809868
_cell_angle_beta   46.32810822
_cell_angle_gamma   48.88912504
_symmetry_Int_Tables_number   1
_chemical_formula_structural   K3Cu(PAu)2
_chemical_formula_sum   'K3 Cu1 P2 Au2'
_cell_volume   203.05247512
_cell_formula_units_Z   1
loop_
 _symmetry_equiv_pos_site_id
 _symmetry_equiv_pos_as_xyz
  1  'x, y, z'
loop_
 _atom_site_type_symbol
 _atom_site_label
 _atom_site_symmetry_multiplicity
 _atom_site_fract_x
 _atom_site_fract_y
 _atom_site_fract_z
 _atom_site_occupancy
  K  K0  1  0.91450314  0.91450314  0.90181264  1
  K  K1  1  0.50000000  0.50000000  0.50000000  1
  K  K2  1  0.08549686  0.08549686  0.09818736  1
  Cu  Cu0  1  0.50000000  0.50000000  0.00000000  1
  P  P0  1  0.26662581  0.26662581  0.22510277  1
  P  P1  1  0.73337419  0.73337419  0.77489723  1
  Au  Au0  1  0.00000000  0.50000000  0.50000000  1
  Au  Au1  1  0.50000000  0.00000000  0.50000000  1
loop_
_geom_bond_atom_site_label_1
_geom_bond_atom_site_label_2
_geom_bond_distance
_geom_bond_site_symmetry_2
K0 P1 3.242877 1_555
K0 P0 3.392015 1_665
K0 P0 3.484254 1_656
K0 P0 3.484254 1_566
K1 P0 3.531836 1_556
K1 P1 3.531836 1_554
K2 P0 3.242877 1_555
K2 P1 3.392015 1_445
K2 P1 3.484254 1_454
K2 P1 3.484254 1_544
Cu0 P1 2.231755 1_554
Cu0 P0 2.231755 1_555
Cu0 K1 3.639855 1_555
Cu0 K1 3.639855 1_554
Au0 P1 2.407524 1_455
Au0 P0 2.407524 1_555
Au0 K1 3.768652 1_555
Au0 K1 3.768652 1_455
Au1 P1 2.407524 1_545
Au1 P0 2.407524 1_555
Au1 K1 3.768651 1_555
Au1 K1 3.768651 1_545
