# generated using pymatgen
data_AgBiI4
_symmetry_space_group_name_H-M   'P 1'
_cell_length_a   8.98545763
_cell_length_b   8.98545763
_cell_length_c   8.98545763
_cell_angle_alpha   121.32595021
_cell_angle_beta   120.42061014
_cell_angle_gamma   88.49581029
_symmetry_Int_Tables_number   1
_chemical_formula_structural   AgBiI4
_chemical_formula_sum   'Ag2 Bi2 I8'
_cell_volume   505.98485989
_cell_formula_units_Z   2
loop_
 _symmetry_equiv_pos_site_id
 _symmetry_equiv_pos_as_xyz
  1  'x, y, z'
loop_
 _atom_site_type_symbol
 _atom_site_label
 _atom_site_symmetry_multiplicity
 _atom_site_fract_x
 _atom_site_fract_y
 _atom_site_fract_z
 _atom_site_occupancy
  Ag  Ag0  1  0.00000000  0.00000000  0.50000000  1
  Ag  Ag1  1  0.00000000  0.50000000  0.00000000  1
  Bi  Bi0  1  0.50000000  0.00000000  0.50000000  1
  Bi  Bi1  1  0.00000000  0.00000000  0.00000000  1
  I  I0  1  0.22420200  0.24082400  0.98337800  1
  I  I1  1  0.75744500  0.24082400  0.51662200  1
  I  I2  1  0.74524000  0.24551200  0.00027200  1
  I  I3  1  0.74524000  0.74496800  0.49972800  1
  I  I4  1  0.25476000  0.25503200  0.50027200  1
  I  I5  1  0.24255500  0.75917600  0.48337800  1
  I  I6  1  0.25476000  0.75448800  0.99972800  1
  I  I7  1  0.77579800  0.75917600  0.01662200  1
loop_
_geom_bond_atom_site_label_1
_geom_bond_atom_site_label_2
_geom_bond_distance
_geom_bond_site_symmetry_2
Ag0 I7 3.033291 1_445
Ag0 I0 3.033291 1_555
Ag0 I1 3.033298 1_455
Ag0 I5 3.033298 1_545
Ag0 I4 3.279542 1_555
Ag0 I3 3.279542 1_445
Ag1 I7 3.033291 1_455
Ag1 I0 3.033291 1_554
Ag1 I5 3.033291 1_555
Ag1 I1 3.033291 1_454
Ag1 I2 3.279542 1_455
Ag1 I6 3.279542 1_554
Bi0 I5 3.103685 1_545
Bi0 I1 3.103685 1_555
Bi0 I4 3.137146 1_555
Bi0 I3 3.137146 1_545
Bi0 I6 3.137146 1_544
Bi0 I2 3.137146 1_556
Bi1 I7 3.103692 1_445
Bi1 I0 3.103692 1_554
Bi1 I2 3.137146 1_455
Bi1 I6 3.137146 1_544
Bi1 I4 3.137146 1_555
Bi1 I3 3.137146 1_444
