# generated using pymatgen
data_BaCrNiAs2
_symmetry_space_group_name_H-M   'P 1'
_cell_length_a   7.21303211
_cell_length_b   7.21303266
_cell_length_c   7.21303216
_cell_angle_alpha   147.75231164
_cell_angle_beta   147.75231808
_cell_angle_gamma   46.25113281
_symmetry_Int_Tables_number   1
_chemical_formula_structural   BaCrNiAs2
_chemical_formula_sum   'Ba1 Cr1 Ni1 As2'
_cell_volume   106.47101447
_cell_formula_units_Z   1
loop_
 _symmetry_equiv_pos_site_id
 _symmetry_equiv_pos_as_xyz
  1  'x, y, z'
loop_
 _atom_site_type_symbol
 _atom_site_label
 _atom_site_symmetry_multiplicity
 _atom_site_fract_x
 _atom_site_fract_y
 _atom_site_fract_z
 _atom_site_occupancy
  Ba  Ba0  1  0.00000000  0.00000000  0.00000000  1
  Cr  Cr0  1  0.25000000  0.75000000  0.50000000  1
  Ni  Ni0  1  0.75000000  0.25000000  0.50000000  1
  As  As0  1  0.35344429  0.35344429  0.00000000  1
  As  As1  1  0.64655571  0.64655571  1.00000000  1
loop_
_geom_bond_atom_site_label_1
_geom_bond_atom_site_label_2
_geom_bond_distance
_geom_bond_site_symmetry_2
As0 Ni0 2.428188 1_454
As0 Ni0 2.428188 1_555
As0 Cr0 2.428188 1_555
As0 Cr0 2.428188 1_544
As0 Ba0 3.435953 1_655
As0 Ba0 3.435953 1_554
As0 Ba0 3.435953 1_565
As0 Ba0 3.435953 1_666
As1 Cr0 2.428188 1_656
As1 Cr0 2.428188 1_555
As1 Ni0 2.428188 1_555
As1 Ni0 2.428188 1_566
As1 Ba0 3.435953 1_566
As1 Ba0 3.435953 1_667
As1 Ba0 3.435953 1_656
As1 Ba0 3.435953 1_555
