# generated using pymatgen
data_Zn2In(Ni10B3)2
_symmetry_space_group_name_H-M   'P 1'
_cell_length_a   7.39127604
_cell_length_b   7.39127567
_cell_length_c   7.39127652
_cell_angle_alpha   60.00000494
_cell_angle_beta   60.00000658
_cell_angle_gamma   60.00000526
_symmetry_Int_Tables_number   1
_chemical_formula_structural   Zn2In(Ni10B3)2
_chemical_formula_sum   'Zn2 In1 Ni20 B6'
_cell_volume   285.52446751
_cell_formula_units_Z   1
loop_
 _symmetry_equiv_pos_site_id
 _symmetry_equiv_pos_as_xyz
  1  'x, y, z'
loop_
 _atom_site_type_symbol
 _atom_site_label
 _atom_site_symmetry_multiplicity
 _atom_site_fract_x
 _atom_site_fract_y
 _atom_site_fract_z
 _atom_site_occupancy
  Zn  Zn0  1  0.75000000  0.75000000  0.75000000  1
  Zn  Zn1  1  0.00000000  0.00000000  0.00000000  1
  In  In0  1  0.25000000  0.25000000  0.25000000  1
  Ni  Ni0  1  0.99898850  0.99898850  0.66357055  1
  Ni  Ni1  1  0.38772659  0.83681924  0.38772659  1
  Ni  Ni2  1  0.66357055  0.33845245  0.99898850  1
  Ni  Ni3  1  0.99898850  0.33845245  0.66357055  1
  Ni  Ni4  1  0.66357055  0.99898850  0.99898850  1
  Ni  Ni5  1  0.99898850  0.99898850  0.33845245  1
  Ni  Ni6  1  0.66357055  0.99898850  0.33845245  1
  Ni  Ni7  1  0.99898850  0.33845245  0.99898850  1
  Ni  Ni8  1  0.99898850  0.66357055  0.33845245  1
  Ni  Ni9  1  0.33845245  0.99898850  0.99898850  1
  Ni  Ni10  1  0.99898850  0.66357055  0.99898850  1
  Ni  Ni11  1  0.33845245  0.99898850  0.66357055  1
  Ni  Ni12  1  0.38772659  0.38772659  0.38772659  1
  Ni  Ni13  1  0.33845245  0.66357055  0.99898850  1
  Ni  Ni14  1  0.61831619  0.14505244  0.61831619  1
  Ni  Ni15  1  0.38772659  0.38772659  0.83681924  1
  Ni  Ni16  1  0.83681924  0.38772659  0.38772659  1
  Ni  Ni17  1  0.61831619  0.61831619  0.61831619  1
  Ni  Ni18  1  0.14505244  0.61831619  0.61831619  1
  Ni  Ni19  1  0.61831619  0.61831619  0.14505244  1
  B  B0  1  0.72602323  0.72602323  0.27397677  1
  B  B1  1  0.72602323  0.27397677  0.72602323  1
  B  B2  1  0.27397677  0.72602323  0.27397677  1
  B  B3  1  0.72602323  0.27397677  0.27397677  1
  B  B4  1  0.27397677  0.72602323  0.72602323  1
  B  B5  1  0.27397677  0.27397677  0.72602323  1
loop_
_geom_bond_atom_site_label_1
_geom_bond_atom_site_label_2
_geom_bond_distance
_geom_bond_site_symmetry_2
In0 Ni12 2.493520 1_555
In0 Ni1 2.493526 1_545
In0 Ni16 2.493526 1_455
In0 Ni15 2.493526 1_554
In0 Ni5 2.885808 1_445
In0 Ni13 2.885808 1_554
In0 Ni9 2.885808 1_544
In0 Ni8 2.885808 1_455
In0 Ni7 2.885808 1_454
In0 Ni6 2.885808 1_545
In0 Ni2 2.885808 1_554
In0 Ni10 2.885808 1_454
In0 Ni4 2.885808 1_544
In0 Ni11 2.885808 1_545
In0 Ni0 2.885808 1_445
In0 Ni3 2.885808 1_455
Ni0 Zn1 2.494142 1_666
Ni2 Zn1 2.494142 1_656
Ni3 Zn1 2.494142 1_656
Ni4 Zn1 2.494142 1_666
Ni5 Zn1 2.494142 1_665
Ni6 Zn1 2.494142 1_665
Ni7 Zn1 2.494141 1_656
Ni8 Zn1 2.494142 1_665
Ni9 Zn1 2.494142 1_566
Ni10 Zn1 2.494141 1_666
Ni11 Zn1 2.494142 1_566
Ni13 Zn1 2.494142 1_566
Ni14 Zn0 2.384122 1_545
Ni17 Zn0 2.384116 1_555
Ni18 Zn0 2.384123 1_455
Ni19 Zn0 2.384123 1_554
B0 Ni16 2.041643 1_555
B0 Ni1 2.041643 1_555
B0 Ni6 2.078684 1_555
B0 Ni8 2.078684 1_555
B0 Ni4 2.078684 1_554
B0 Ni10 2.078684 1_554
B0 Ni19 2.080037 1_555
B0 Ni17 2.080044 1_555
B1 Ni15 2.041643 1_555
B1 Ni16 2.041643 1_555
B1 Ni3 2.078684 1_555
B1 Ni0 2.078684 1_545
B1 Ni2 2.078684 1_555
B1 Ni4 2.078684 1_545
B1 Ni14 2.080037 1_555
B1 Ni17 2.080043 1_555
B2 Ni1 2.041637 1_555
B2 Ni12 2.041643 1_555
B2 Ni8 2.078684 1_455
B2 Ni5 2.078684 1_455
B2 Ni13 2.078684 1_554
B2 Ni9 2.078684 1_554
B2 Ni19 2.080043 1_555
B2 Ni18 2.080043 1_555
B3 Ni16 2.041637 1_555
B3 Ni12 2.041643 1_555
B3 Ni6 2.078684 1_545
B3 Ni5 2.078684 1_545
B3 Ni2 2.078684 1_554
B3 Ni7 2.078684 1_554
B3 Ni19 2.080043 1_555
B3 Ni14 2.080043 1_555
B4 Ni15 2.041643 1_555
B4 Ni1 2.041643 1_555
B4 Ni11 2.078684 1_555
B4 Ni0 2.078684 1_455
B4 Ni13 2.078684 1_555
B4 Ni10 2.078684 1_455
B4 Ni18 2.080037 1_555
B4 Ni17 2.080044 1_555
B5 Ni15 2.041637 1_555
B5 Ni12 2.041643 1_555
B5 Ni11 2.078684 1_545
B5 Ni3 2.078684 1_455
B5 Ni9 2.078684 1_545
B5 Ni7 2.078684 1_455
B5 Ni18 2.080043 1_555
B5 Ni14 2.080043 1_555
