# generated using pymatgen
data_LiHf6Si6Tc5
_symmetry_space_group_name_H-M   'P 1'
_cell_length_a   7.70720188
_cell_length_b   7.70702585
_cell_length_c   7.70702569
_cell_angle_alpha   126.61558706
_cell_angle_beta   127.71023684
_cell_angle_gamma   77.98775260
_symmetry_Int_Tables_number   1
_chemical_formula_structural   LiHf6Si6Tc5
_chemical_formula_sum   'Li1 Hf6 Si6 Tc5'
_cell_volume   281.70477199
_cell_formula_units_Z   1
loop_
 _symmetry_equiv_pos_site_id
 _symmetry_equiv_pos_as_xyz
  1  'x, y, z'
loop_
 _atom_site_type_symbol
 _atom_site_label
 _atom_site_symmetry_multiplicity
 _atom_site_fract_x
 _atom_site_fract_y
 _atom_site_fract_z
 _atom_site_occupancy
  Li  Li0  1  1.00000000  0.24362073  0.24362073  1
  Hf  Hf0  1  0.54872526  0.09492294  0.04730429  1
  Hf  Hf1  1  0.45127474  0.49857803  0.54619668  1
  Hf  Hf2  1  0.95250414  0.49862082  0.04732896  1
  Hf  Hf3  1  0.04749586  0.09482481  0.54611768  1
  Hf  Hf4  1  0.74874311  0.89613200  0.64495190  1
  Hf  Hf5  1  0.25125689  0.89620879  0.14738789  1
  Si  Si0  1  0.33534013  0.83584706  0.50055972  1
  Si  Si1  1  0.66465987  0.16521959  0.50050593  1
  Si  Si2  1  0.83161090  0.82542020  0.99386427  1
  Si  Si3  1  0.16838910  0.16225336  0.99380730  1
  Si  Si4  1  0.74903195  0.49386858  0.24285817  1
  Si  Si5  1  0.25096805  0.49382522  0.74483664  1
  Tc  Tc0  1  0.12797039  0.74818841  0.62029796  1
  Tc  Tc1  1  0.87202961  0.49232758  0.62021802  1
  Tc  Tc2  1  0.62689104  0.75588404  0.12902334  1
  Tc  Tc3  1  0.37310896  0.50213130  0.12899300  1
  Tc  Tc4  1  0.50000000  0.24612953  0.74612953  1
loop_
_geom_bond_atom_site_label_1
_geom_bond_atom_site_label_2
_geom_bond_distance
_geom_bond_site_symmetry_2
Li0 Si5 2.430630 1_655
Li0 Si4 2.430630 1_555
Li0 Si2 2.657456 1_544
Li0 Si3 2.657470 1_654
Li0 Tc0 3.024840 1_655
Li0 Tc1 3.024840 1_555
Hf0 Si3 2.678712 1_554
Hf0 Si0 2.701859 1_544
Hf0 Si1 2.723600 1_555
Hf0 Si2 2.725881 1_544
Hf0 Si4 2.776703 1_555
Hf0 Tc2 2.903616 1_545
Hf0 Tc0 2.923767 1_544
Hf0 Tc1 2.944639 1_555
Hf0 Li0 2.975328 1_555
Hf0 Tc4 2.977428 1_554
Hf0 Tc3 2.999179 1_555
Hf1 Si2 2.678722 1_555
Hf1 Si1 2.701853 1_555
Hf1 Si0 2.723611 1_555
Hf1 Si3 2.725883 1_554
Hf1 Si5 2.776711 1_555
Hf1 Tc3 2.903609 1_555
Hf1 Tc1 2.923765 1_555
Hf1 Tc0 2.944645 1_555
Hf1 Li0 2.975327 1_455
Hf1 Tc4 2.977427 1_555
Hf1 Tc2 2.999191 1_556
Hf2 Si2 2.678257 1_554
Hf2 Si1 2.702323 1_554
Hf2 Si0 2.723282 1_655
Hf2 Si3 2.725382 1_654
Hf2 Si4 2.777089 1_555
Hf2 Tc3 2.902695 1_655
Hf2 Tc1 2.923547 1_554
Hf2 Tc0 2.945112 1_655
Hf2 Li0 2.975689 1_555
Hf2 Tc4 2.978382 1_554
Hf2 Tc2 2.999707 1_555
Hf3 Si3 2.678234 1_555
Hf3 Si0 2.702321 1_545
Hf3 Si1 2.723276 1_455
Hf3 Si2 2.725388 1_444
Hf3 Si5 2.777086 1_555
Hf3 Tc2 2.902695 1_445
Hf3 Tc0 2.923543 1_545
Hf3 Tc1 2.945113 1_455
Hf3 Li0 2.975696 1_455
Hf3 Tc4 2.978386 1_555
Hf3 Tc3 2.999701 1_556
Hf4 Si0 2.695896 1_555
Hf4 Si1 2.696717 1_565
Hf4 Si2 2.727324 1_555
Hf4 Si3 2.727858 1_665
Hf4 Si4 2.785666 1_555
Hf4 Tc3 2.930298 1_555
Hf4 Tc2 2.930595 1_555
Hf4 Li0 2.949416 1_566
Hf4 Tc4 2.954103 1_565
Hf4 Tc1 2.984559 1_555
Hf4 Tc0 2.985400 1_655
Hf5 Si1 2.695895 1_565
Hf5 Si0 2.696718 1_555
Hf5 Si3 2.727330 1_564
Hf5 Si2 2.727858 1_454
Hf5 Si5 2.785666 1_554
Hf5 Tc2 2.930292 1_555
Hf5 Tc3 2.930605 1_555
Hf5 Li0 2.949417 1_465
Hf5 Tc4 2.954107 1_565
Hf5 Tc0 2.984551 1_554
Hf5 Tc1 2.985399 1_454
Si0 Tc4 2.604665 1_565
Si0 Tc3 2.612002 1_555
Si0 Tc0 2.619129 1_555
Si1 Tc4 2.604672 1_555
Si1 Tc2 2.611998 1_545
Si1 Tc1 2.619124 1_555
Si2 Tc2 2.624945 1_556
Si2 Tc1 2.631724 1_555
Si3 Tc3 2.624930 1_556
Si3 Tc0 2.631719 1_545
Si4 Tc4 2.408824 1_554
Si4 Tc1 2.453753 1_555
Si4 Tc0 2.453884 1_655
Si4 Tc2 2.458752 1_555
Si4 Tc3 2.459277 1_555
Si5 Tc4 2.408820 1_555
Si5 Tc0 2.453761 1_555
Si5 Tc1 2.453884 1_455
Si5 Tc3 2.458752 1_556
Si5 Tc2 2.459279 1_556
