# generated using pymatgen
data_LiScH6Os
_symmetry_space_group_name_H-M   'P 1'
_cell_length_a   4.65785266
_cell_length_b   4.65785345
_cell_length_c   4.65785319
_cell_angle_alpha   60.00000902
_cell_angle_beta   60.00000339
_cell_angle_gamma   59.99999967
_symmetry_Int_Tables_number   1
_chemical_formula_structural   LiScH6Os
_chemical_formula_sum   'Li1 Sc1 H6 Os1'
_cell_volume   71.45660932
_cell_formula_units_Z   1
loop_
 _symmetry_equiv_pos_site_id
 _symmetry_equiv_pos_as_xyz
  1  'x, y, z'
loop_
 _atom_site_type_symbol
 _atom_site_label
 _atom_site_symmetry_multiplicity
 _atom_site_fract_x
 _atom_site_fract_y
 _atom_site_fract_z
 _atom_site_occupancy
  Li  Li0  1  0.25000100  0.25000100  0.25000100  1
  Sc  Sc0  1  0.75000000  0.75000000  0.75000000  1
  H  H0  1  0.25704594  0.74295406  0.25704594  1
  H  H1  1  0.74295406  0.25704594  0.25704594  1
  H  H2  1  0.74295406  0.74295406  0.25704594  1
  H  H3  1  0.25704594  0.25704594  0.74295406  1
  H  H4  1  0.74295406  0.25704594  0.74295406  1
  H  H5  1  0.25704594  0.74295406  0.74295406  1
  Os  Os0  1  0.00000000  0.00000000  0.00000000  1
loop_
_geom_bond_atom_site_label_1
_geom_bond_atom_site_label_2
_geom_bond_distance
_geom_bond_site_symmetry_2
H0 Os0 1.693213 1_565
H0 Li0 2.329380 1_555
H0 Sc0 2.329389 1_455
H0 Sc0 2.329389 1_554
H0 Li0 2.329398 1_565
H1 Os0 1.693213 1_655
H1 Li0 2.329379 1_555
H1 Sc0 2.329389 1_554
H1 Sc0 2.329389 1_545
H1 Li0 2.329398 1_655
H2 Os0 1.693213 1_665
H2 Sc0 2.329389 1_555
H2 Sc0 2.329389 1_554
H2 Li0 2.329389 1_655
H2 Li0 2.329389 1_565
H3 Os0 1.693213 1_556
H3 Li0 2.329380 1_555
H3 Sc0 2.329389 1_455
H3 Sc0 2.329389 1_545
H3 Li0 2.329398 1_556
H4 Os0 1.693213 1_656
H4 Li0 2.329389 1_655
H4 Sc0 2.329389 1_555
H4 Li0 2.329389 1_556
H4 Sc0 2.329389 1_545
H5 Os0 1.693213 1_566
H5 Sc0 2.329389 1_455
H5 Sc0 2.329389 1_555
H5 Li0 2.329390 1_556
H5 Li0 2.329390 1_565
