# generated using pymatgen
data_Zr6Zn22CoRh
_symmetry_space_group_name_H-M   'P 1'
_cell_length_a   8.67195484
_cell_length_b   8.67195442
_cell_length_c   8.67195440
_cell_angle_alpha   60.00000373
_cell_angle_beta   60.00000534
_cell_angle_gamma   59.99999558
_symmetry_Int_Tables_number   1
_chemical_formula_structural   Zr6Zn22CoRh
_chemical_formula_sum   'Zr6 Zn22 Co1 Rh1'
_cell_volume   461.14340013
_cell_formula_units_Z   1
loop_
 _symmetry_equiv_pos_site_id
 _symmetry_equiv_pos_as_xyz
  1  'x, y, z'
loop_
 _atom_site_type_symbol
 _atom_site_label
 _atom_site_symmetry_multiplicity
 _atom_site_fract_x
 _atom_site_fract_y
 _atom_site_fract_z
 _atom_site_occupancy
  Zr  Zr0  1  0.70089426  0.29910574  0.29910574  1
  Zr  Zr1  1  0.29910574  0.70089426  0.70089426  1
  Zr  Zr2  1  0.29910574  0.70089426  0.29910574  1
  Zr  Zr3  1  0.70089426  0.29910574  0.70089426  1
  Zr  Zr4  1  0.29910574  0.29910574  0.70089426  1
  Zr  Zr5  1  0.70089426  0.70089426  0.29910574  1
  Zn  Zn0  1  0.12007411  0.12007411  0.12007411  1
  Zn  Zn1  1  0.87992589  0.87992589  0.87992589  1
  Zn  Zn2  1  0.12007411  0.12007411  0.63977666  1
  Zn  Zn3  1  0.12007411  0.63977666  0.12007411  1
  Zn  Zn4  1  0.87992589  0.87992589  0.36022334  1
  Zn  Zn5  1  0.87992589  0.36022334  0.87992589  1
  Zn  Zn6  1  0.63977666  0.12007411  0.12007411  1
  Zn  Zn7  1  0.36022334  0.87992589  0.87992589  1
  Zn  Zn8  1  0.50000000  0.00000000  0.00000000  1
  Zn  Zn9  1  0.00000000  0.50000000  0.50000000  1
  Zn  Zn10  1  0.00000000  0.50000000  0.00000000  1
  Zn  Zn11  1  0.50000000  0.00000000  0.50000000  1
  Zn  Zn12  1  0.00000000  0.00000000  0.50000000  1
  Zn  Zn13  1  0.50000000  0.50000000  0.00000000  1
  Zn  Zn14  1  0.33102473  0.33102473  0.33102473  1
  Zn  Zn15  1  0.66897527  0.66897527  0.66897527  1
  Zn  Zn16  1  0.33102473  0.33102473  0.00692681  1
  Zn  Zn17  1  0.33102473  0.00692681  0.33102473  1
  Zn  Zn18  1  0.66897527  0.66897527  0.99307319  1
  Zn  Zn19  1  0.66897527  0.99307319  0.66897527  1
  Zn  Zn20  1  0.00692681  0.33102473  0.33102473  1
  Zn  Zn21  1  0.99307319  0.66897527  0.66897527  1
  Co  Co0  1  0.50000000  0.50000000  0.50000000  1
  Rh  Rh0  1  0.00000000  0.00000000  0.00000000  1
loop_
_geom_bond_atom_site_label_1
_geom_bond_atom_site_label_2
_geom_bond_distance
_geom_bond_site_symmetry_2
Zn0 Zn10 2.691919 1_555
Zn0 Zn8 2.691920 1_555
Zn0 Zn12 2.691920 1_555
Zn0 Zn20 2.722577 1_555
Zn0 Zn17 2.722577 1_555
Zn0 Zn16 2.722577 1_555
Zn0 Zn5 2.945177 1_454
Zn0 Zn7 2.945177 1_544
Zn0 Zn4 2.945177 1_445
Zn0 Zr2 3.026199 1_545
Zn0 Zr0 3.026199 1_455
Zn0 Zr4 3.026199 1_554
Zn1 Zn10 2.691919 1_656
Zn1 Zn8 2.691920 1_566
Zn1 Zn12 2.691920 1_665
Zn1 Zn21 2.722577 1_555
Zn1 Zn19 2.722577 1_555
Zn1 Zn18 2.722577 1_555
Zn1 Zn3 2.945177 1_656
Zn1 Zn6 2.945177 1_566
Zn1 Zn2 2.945177 1_665
Zn1 Zr3 3.026199 1_565
Zn1 Zr1 3.026199 1_655
Zn1 Zr5 3.026199 1_556
Zn2 Zn9 2.691919 1_555
Zn2 Zn20 2.722562 1_555
Zn2 Zn5 2.945189 1_455
Zn2 Zn7 2.945189 1_545
Zn2 Zr1 3.026198 1_545
Zn2 Zr3 3.026198 1_455
Zn2 Zr4 3.026205 1_555
Zn3 Zn9 2.691919 1_555
Zn3 Zn4 2.945189 1_455
Zn3 Zn7 2.945189 1_554
Zn3 Zr1 3.026198 1_554
Zn3 Zr5 3.026198 1_455
Zn3 Zr2 3.026205 1_555
Zn4 Zn9 2.691919 1_655
Zn4 Zn6 2.945189 1_565
Zn4 Zr0 3.026198 1_565
Zn4 Zr2 3.026198 1_655
Zn4 Zr5 3.026205 1_555
Zn5 Zn9 2.691919 1_655
Zn5 Zn6 2.945189 1_556
Zn5 Zr0 3.026198 1_556
Zn5 Zr4 3.026198 1_655
Zn5 Zr3 3.026205 1_555
Zn6 Zn8 2.691912 1_555
Zn6 Zr5 3.026198 1_545
Zn6 Zr3 3.026198 1_554
Zn6 Zr0 3.026205 1_555
Zn7 Zn8 2.691912 1_566
Zn7 Zr4 3.026198 1_565
Zn7 Zr2 3.026198 1_556
Zn7 Zr1 3.026205 1_555
Zn8 Zr5 3.124585 1_545
Zn8 Zr4 3.124585 1_554
Zn8 Zr3 3.124586 1_554
Zn8 Zr2 3.124586 1_545
Zn9 Zr4 3.124585 1_555
Zn9 Zr5 3.124585 1_455
Zn9 Zr2 3.124586 1_555
Zn9 Zr3 3.124586 1_455
Zn10 Zn16 2.503861 1_555
Zn10 Zn18 2.503861 1_454
Zn10 Zn20 2.503861 1_555
Zn10 Zn21 2.503861 1_454
Zn10 Zn3 2.691912 1_555
Zn10 Zn5 2.691912 1_454
Zn10 Zr5 3.124585 1_455
Zn10 Zr4 3.124585 1_554
Zn10 Zr1 3.124586 1_554
Zn10 Zr0 3.124586 1_455
Zn11 Zn19 2.503853 1_545
Zn11 Zn17 2.503853 1_555
Zn11 Zn15 2.503858 1_545
Zn11 Zn14 2.503858 1_555
Zn11 Zn4 2.691919 1_545
Zn11 Zn2 2.691919 1_555
Zn11 Zn7 2.691919 1_545
Zn11 Zn6 2.691919 1_555
Zn11 Zr4 3.124585 1_555
Zn11 Zr5 3.124585 1_545
Zn11 Zr0 3.124586 1_555
Zn11 Zr1 3.124586 1_545
Zn12 Zn20 2.503861 1_555
Zn12 Zn21 2.503861 1_445
Zn12 Zn17 2.503861 1_555
Zn12 Zn19 2.503861 1_445
Zn12 Zn2 2.691912 1_555
Zn12 Zn4 2.691912 1_445
Zn12 Zr1 3.124585 1_545
Zn12 Zr0 3.124585 1_455
Zn12 Zr3 3.124585 1_455
Zn12 Zr2 3.124585 1_545
Zn13 Zn18 2.503853 1_554
Zn13 Zn16 2.503853 1_555
Zn13 Zn14 2.503858 1_555
Zn13 Zn15 2.503858 1_554
Zn13 Zn7 2.691919 1_554
Zn13 Zn6 2.691919 1_555
Zn13 Zn5 2.691919 1_554
Zn13 Zn3 2.691919 1_555
Zn13 Zr2 3.124585 1_555
Zn13 Zr3 3.124585 1_554
Zn13 Zr0 3.124585 1_555
Zn13 Zr1 3.124585 1_554
Zn14 Zn9 2.503858 1_555
Zn14 Zn3 2.722571 1_555
Zn14 Zn6 2.722571 1_555
Zn14 Zn2 2.722572 1_555
Zn14 Zn16 2.810562 1_555
Zn14 Zn17 2.810562 1_555
Zn14 Zn20 2.810563 1_555
Zn14 Zr2 2.956720 1_555
Zn14 Zr4 2.956720 1_555
Zn14 Zr0 2.956720 1_555
Zn15 Zn9 2.503858 1_655
Zn15 Zn5 2.722571 1_555
Zn15 Zn7 2.722571 1_555
Zn15 Zn4 2.722572 1_555
Zn15 Zn18 2.810562 1_555
Zn15 Zn19 2.810562 1_555
Zn15 Zn21 2.810563 1_555
Zn15 Zr3 2.956720 1_555
Zn15 Zr5 2.956720 1_555
Zn15 Zr1 2.956720 1_555
Zn16 Zn8 2.503860 1_555
Zn16 Zn3 2.722562 1_555
Zn16 Zn6 2.722562 1_555
Zn16 Zn17 2.810563 1_555
Zn16 Zn20 2.810563 1_555
Zn16 Zr1 2.956723 1_554
Zn16 Zr3 2.956723 1_554
Zn16 Zr4 2.956728 1_554
Zn17 Zn8 2.503861 1_555
Zn17 Zn2 2.722563 1_555
Zn17 Zn6 2.722563 1_555
Zn17 Zn20 2.810562 1_555
Zn17 Zr5 2.956723 1_545
Zn17 Zr1 2.956723 1_545
Zn17 Zr2 2.956728 1_545
Zn18 Zn8 2.503860 1_566
Zn18 Zn5 2.722562 1_555
Zn18 Zn7 2.722562 1_555
Zn18 Zn19 2.810563 1_555
Zn18 Zn21 2.810563 1_555
Zn18 Zr0 2.956723 1_556
Zn18 Zr2 2.956723 1_556
Zn18 Zr5 2.956728 1_556
Zn19 Zn8 2.503861 1_566
Zn19 Zn4 2.722563 1_555
Zn19 Zn7 2.722563 1_555
Zn19 Zn21 2.810562 1_555
Zn19 Zr4 2.956723 1_565
Zn19 Zr0 2.956723 1_565
Zn19 Zr3 2.956728 1_565
Zn20 Zn9 2.503853 1_555
Zn20 Zn3 2.722563 1_555
Zn20 Zr5 2.956723 1_455
Zn20 Zr3 2.956723 1_455
Zn20 Zr0 2.956728 1_455
Zn21 Zn9 2.503853 1_655
Zn21 Zn4 2.722562 1_555
Zn21 Zn5 2.722563 1_555
Zn21 Zr4 2.956723 1_655
Zn21 Zr2 2.956723 1_655
Zn21 Zr1 2.956728 1_655
Co0 Zr3 2.463766 1_555
Co0 Zr1 2.463766 1_555
Co0 Zr2 2.463766 1_555
Co0 Zr0 2.463766 1_555
Co0 Zr5 2.463767 1_555
Co0 Zr4 2.463767 1_555
Rh0 Zn0 2.550598 1_555
Rh0 Zn1 2.550598 1_444
Rh0 Zn5 2.550605 1_454
Rh0 Zn3 2.550605 1_545
Rh0 Zn7 2.550605 1_544
Rh0 Zn6 2.550605 1_455
Rh0 Zn4 2.550605 1_445
Rh0 Zn2 2.550605 1_554
