# generated using pymatgen
data_Na3AlF6
_symmetry_space_group_name_H-M   'P 1'
_cell_length_a   5.33880368
_cell_length_b   5.54932288
_cell_length_c   7.67853953
_cell_angle_alpha   90.00000000
_cell_angle_beta   90.27105088
_cell_angle_gamma   90.00000000
_symmetry_Int_Tables_number   1
_chemical_formula_structural   Na3AlF6
_chemical_formula_sum   'Na6 Al2 F12'
_cell_volume   227.48759049
_cell_formula_units_Z   2
loop_
 _symmetry_equiv_pos_site_id
 _symmetry_equiv_pos_as_xyz
  1  'x, y, z'
loop_
 _atom_site_type_symbol
 _atom_site_label
 _atom_site_symmetry_multiplicity
 _atom_site_fract_x
 _atom_site_fract_y
 _atom_site_fract_z
 _atom_site_occupancy
  Na  Na0  1  0.01655349  0.55540027  0.74574114  1
  Na  Na1  1  0.48344651  0.05540027  0.75425886  1
  Na  Na2  1  0.98344651  0.44459973  0.25425886  1
  Na  Na3  1  0.51655349  0.94459973  0.24574114  1
  Na  Na4  1  0.50000000  0.50000000  0.00000000  1
  Na  Na5  1  0.00000000  0.00000000  0.50000000  1
  Al  Al0  1  0.50000000  0.50000000  0.50000000  1
  Al  Al1  1  0.00000000  -0.00000000  0.00000000  1
  F  F0  1  0.66542403  0.22994976  0.43220055  1
  F  F1  1  0.83457597  0.72994976  0.06779945  1
  F  F2  1  0.33457597  0.77005024  0.56779945  1
  F  F3  1  0.16542403  0.27005024  0.93220055  1
  F  F4  1  0.22441550  0.32381444  0.54775265  1
  F  F5  1  0.27558450  0.82381444  0.95224735  1
  F  F6  1  0.77558450  0.67618556  0.45224735  1
  F  F7  1  0.72441550  0.17618556  0.04775265  1
  F  F8  1  0.10922512  0.04979072  0.22088245  1
  F  F9  1  0.39077488  0.54979072  0.27911755  1
  F  F10  1  0.89077488  0.95020928  0.77911755  1
  F  F11  1  0.60922512  0.45020928  0.72088245  1
loop_
_geom_bond_atom_site_label_1
_geom_bond_atom_site_label_2
_geom_bond_distance
_geom_bond_site_symmetry_2
Al0 F6 1.805594 1_555
Al0 F4 1.805594 1_555
Al0 F9 1.812079 1_555
Al0 F11 1.812079 1_555
Al0 F0 1.816906 1_555
Al0 F2 1.816906 1_555
Al1 F5 1.805594 1_544
Al1 F7 1.805594 1_455
Al1 F10 1.812079 1_444
Al1 F8 1.812079 1_555
Al1 F1 1.816906 1_445
Al1 F3 1.816906 1_554
F0 Na5 2.254153 1_655
F0 Na3 2.275580 1_545
F0 Na2 2.488053 1_555
F0 Na1 2.832012 1_555
F1 Na4 2.254153 1_555
F1 Na2 2.275580 1_555
F1 Na3 2.488053 1_555
F1 Na0 2.832012 1_654
F2 Na5 2.254153 1_565
F2 Na1 2.275580 1_565
F2 Na0 2.488053 1_555
F2 Na3 2.832012 1_555
F3 Na4 2.254153 1_556
F3 Na0 2.275580 1_555
F3 Na1 2.488053 1_555
F3 Na2 2.832012 1_456
F4 Na5 2.189701 1_555
F4 Na0 2.282601 1_555
F4 Na1 2.573850 1_555
F4 Na2 2.674998 1_455
F5 Na4 2.189701 1_556
F5 Na1 2.282601 1_565
F5 Na0 2.573850 1_555
F5 Na3 2.674998 1_556
F6 Na5 2.189701 1_665
F6 Na2 2.282601 1_555
F6 Na3 2.573850 1_555
F6 Na0 2.674998 1_655
F7 Na4 2.189701 1_555
F7 Na3 2.282601 1_545
F7 Na2 2.573850 1_555
F7 Na1 2.674998 1_554
F8 Na5 2.240889 1_555
F8 Na3 2.258837 1_545
F8 Na2 2.306160 1_455
F9 Na4 2.240889 1_555
F9 Na2 2.258837 1_455
F9 Na3 2.306160 1_555
F10 Na5 2.240889 1_665
F10 Na1 2.258837 1_565
F10 Na0 2.306160 1_655
F11 Na4 2.240889 1_556
F11 Na0 2.258837 1_655
F11 Na1 2.306160 1_555
