# generated using pymatgen
data_CdBi3(Rh2O7)2
_symmetry_space_group_name_H-M   'P 1'
_cell_length_a   7.28603539
_cell_length_b   7.10442309
_cell_length_c   7.28603612
_cell_angle_alpha   59.15070967
_cell_angle_beta   60.00000100
_cell_angle_gamma   59.15070674
_symmetry_Int_Tables_number   1
_chemical_formula_structural   CdBi3(Rh2O7)2
_chemical_formula_sum   'Cd1 Bi3 Rh4 O14'
_cell_volume   263.20880547
_cell_formula_units_Z   1
loop_
 _symmetry_equiv_pos_site_id
 _symmetry_equiv_pos_as_xyz
  1  'x, y, z'
loop_
 _atom_site_type_symbol
 _atom_site_label
 _atom_site_symmetry_multiplicity
 _atom_site_fract_x
 _atom_site_fract_y
 _atom_site_fract_z
 _atom_site_occupancy
  Cd  Cd0  1  0.12500000  0.62500000  0.12500000  1
  Bi  Bi0  1  0.12500000  0.12500000  0.12500000  1
  Bi  Bi1  1  0.62500000  0.12500000  0.12500000  1
  Bi  Bi2  1  0.12500000  0.12500000  0.62500000  1
  Rh  Rh0  1  0.62500000  0.62500000  0.62500000  1
  Rh  Rh1  1  0.62500000  0.62500000  0.12500000  1
  Rh  Rh2  1  0.12500000  0.62500000  0.62500000  1
  Rh  Rh3  1  0.62500000  0.12500000  0.62500000  1
  O  O0  1  0.25100823  0.24697430  0.25100823  1
  O  O1  1  0.29314005  0.70881220  0.29314005  1
  O  O2  1  0.95681719  0.96077236  0.54120522  1
  O  O3  1  0.54120522  0.96077236  0.54120522  1
  O  O4  1  0.70490769  0.70881220  0.29314005  1
  O  O5  1  0.95685995  0.54118780  0.54509231  1
  O  O6  1  0.70879478  0.28922764  0.70879478  1
  O  O7  1  0.29318281  0.28922764  0.70879478  1
  O  O8  1  0.70879478  0.28922764  0.29318281  1
  O  O9  1  0.29314005  0.70881220  0.70490769  1
  O  O10  1  0.95685995  0.54118780  0.95685995  1
  O  O11  1  0.54509231  0.54118780  0.95685995  1
  O  O12  1  0.99899177  0.00302570  0.99899177  1
  O  O13  1  0.54120522  0.96077236  0.95681719  1
loop_
_geom_bond_atom_site_label_1
_geom_bond_atom_site_label_2
_geom_bond_distance
_geom_bond_site_symmetry_2
Cd0 O12 2.164255 1_464
Cd0 O0 2.164255 1_555
Cd0 O11 2.520550 1_554
Cd0 O4 2.520550 1_455
Cd0 O1 2.520550 1_555
Cd0 O10 2.520550 1_454
Cd0 O5 2.520550 1_455
Cd0 O9 2.520550 1_554
Bi0 O0 2.216189 1_555
Bi0 O12 2.216189 1_454
Bi0 O10 2.411474 1_454
Bi0 O1 2.411474 1_545
Bi0 O13 2.486070 1_544
Bi0 O8 2.486070 1_455
Bi0 O2 2.486071 1_445
Bi0 O7 2.486071 1_554
Bi1 O12 2.216195 1_554
Bi1 O0 2.216195 1_555
Bi1 O11 2.411474 1_554
Bi1 O4 2.411474 1_545
Bi1 O8 2.486070 1_555
Bi1 O13 2.486070 1_544
Bi1 O3 2.486071 1_545
Bi1 O6 2.486071 1_554
Bi2 O12 2.216196 1_455
Bi2 O0 2.216196 1_555
Bi2 O5 2.411474 1_455
Bi2 O9 2.411474 1_545
Bi2 O3 2.486070 1_545
Bi2 O6 2.486070 1_455
Bi2 O7 2.486070 1_555
Bi2 O2 2.486070 1_445
O1 Rh1 2.002800 1_555
O1 Rh2 2.002800 1_555
O2 Rh2 1.954850 1_655
O2 Rh3 1.985100 1_565
O3 Rh0 1.954850 1_555
O3 Rh3 1.985100 1_565
O4 Rh1 2.002800 1_555
O4 Rh0 2.002800 1_555
O5 Rh0 2.002800 1_555
O5 Rh2 2.002800 1_655
O6 Rh0 1.954850 1_555
O6 Rh3 1.985100 1_555
O7 Rh2 1.954850 1_555
O7 Rh3 1.985100 1_555
O8 Rh1 1.954850 1_555
O8 Rh3 1.985100 1_555
O9 Rh0 2.002800 1_555
O9 Rh2 2.002800 1_555
O10 Rh1 2.002800 1_556
O10 Rh2 2.002800 1_655
O11 Rh1 2.002800 1_556
O11 Rh0 2.002800 1_555
O13 Rh1 1.954850 1_556
O13 Rh3 1.985100 1_565
