# generated using pymatgen
data_Y3Be2Rh5
_symmetry_space_group_name_H-M   'P 1'
_cell_length_a   9.78529993
_cell_length_b   9.78529993
_cell_length_c   3.36444895
_cell_angle_alpha   90.00000000
_cell_angle_beta   90.00000000
_cell_angle_gamma   90.00000000
_symmetry_Int_Tables_number   1
_chemical_formula_structural   Y3Be2Rh5
_chemical_formula_sum   'Y6 Be4 Rh10'
_cell_volume   322.15303511
_cell_formula_units_Z   2
loop_
 _symmetry_equiv_pos_site_id
 _symmetry_equiv_pos_as_xyz
  1  'x, y, z'
loop_
 _atom_site_type_symbol
 _atom_site_label
 _atom_site_symmetry_multiplicity
 _atom_site_fract_x
 _atom_site_fract_y
 _atom_site_fract_z
 _atom_site_occupancy
  Y  Y0  1  0.82508007  0.32508007  0.00000000  1
  Y  Y1  1  0.32508007  0.17491993  0.00000000  1
  Y  Y2  1  0.67491993  0.82508007  0.00000000  1
  Y  Y3  1  0.17491993  0.67491993  0.00000000  1
  Y  Y4  1  0.00000000  0.00000000  0.00000000  1
  Y  Y5  1  0.50000000  0.50000000  0.00000000  1
  Be  Be0  1  0.61902917  0.11902917  0.00000000  1
  Be  Be1  1  0.11902917  0.38097083  0.00000000  1
  Be  Be2  1  0.88097083  0.61902917  0.00000000  1
  Be  Be3  1  0.38097083  0.88097083  0.00000000  1
  Rh  Rh0  1  0.07123689  0.22348675  0.50000000  1
  Rh  Rh1  1  0.22348675  0.92876311  0.50000000  1
  Rh  Rh2  1  0.77651325  0.07123689  0.50000000  1
  Rh  Rh3  1  0.92876311  0.77651325  0.50000000  1
  Rh  Rh4  1  0.42876311  0.72348675  0.50000000  1
  Rh  Rh5  1  0.57123689  0.27651325  0.50000000  1
  Rh  Rh6  1  0.72348675  0.57123689  0.50000000  1
  Rh  Rh7  1  0.27651325  0.42876311  0.50000000  1
  Rh  Rh8  1  0.50000000  0.00000000  0.50000000  1
  Rh  Rh9  1  0.00000000  0.50000000  0.50000000  1
loop_
_geom_bond_atom_site_label_1
_geom_bond_atom_site_label_2
_geom_bond_distance
_geom_bond_site_symmetry_2
Be0 Rh5 2.328810 1_554
Be0 Rh5 2.328810 1_555
Be0 Rh2 2.328810 1_555
Be0 Rh2 2.328810 1_554
Be0 Rh8 2.354379 1_554
Be0 Rh8 2.354379 1_555
Be0 Y0 2.851436 1_555
Be0 Y1 2.927912 1_555
Be0 Y2 2.927912 1_545
Be1 Rh7 2.328810 1_554
Be1 Rh0 2.328810 1_555
Be1 Rh0 2.328810 1_554
Be1 Rh7 2.328810 1_555
Be1 Rh9 2.354379 1_554
Be1 Rh9 2.354379 1_555
Be1 Y1 2.851436 1_555
Be1 Y0 2.927912 1_455
Be1 Y3 2.927912 1_555
Be2 Rh3 2.328810 1_555
Be2 Rh6 2.328810 1_555
Be2 Rh6 2.328810 1_554
Be2 Rh3 2.328810 1_554
Be2 Rh9 2.354379 1_655
Be2 Rh9 2.354379 1_654
Be2 Y2 2.851436 1_555
Be2 Y3 2.927912 1_655
Be2 Y0 2.927912 1_555
Be3 Rh1 2.328810 1_554
Be3 Rh1 2.328810 1_555
Be3 Rh4 2.328810 1_555
Be3 Rh4 2.328810 1_554
Be3 Rh8 2.354379 1_565
Be3 Rh8 2.354379 1_564
Be3 Y3 2.851436 1_555
Be3 Y1 2.927912 1_565
Be3 Y2 2.927912 1_555
Rh0 Y4 2.845744 1_555
Rh0 Y4 2.845744 1_556
Rh0 Y1 3.037375 1_556
Rh0 Y1 3.037375 1_555
Rh0 Y0 3.101625 1_455
Rh0 Y0 3.101625 1_456
Rh1 Y4 2.845744 1_565
Rh1 Y4 2.845744 1_566
Rh1 Y3 3.037375 1_556
Rh1 Y3 3.037375 1_555
Rh1 Y1 3.101625 1_566
Rh1 Y1 3.101625 1_565
Rh2 Y4 2.845744 1_656
Rh2 Y4 2.845744 1_655
Rh2 Y0 3.037375 1_556
Rh2 Y0 3.037375 1_555
Rh2 Y2 3.101625 1_545
Rh2 Y2 3.101625 1_546
Rh3 Y4 2.845744 1_665
Rh3 Y4 2.845744 1_666
Rh3 Y2 3.037375 1_556
Rh3 Y2 3.037375 1_555
Rh3 Y3 3.101625 1_656
Rh3 Y3 3.101625 1_655
Rh4 Y5 2.845744 1_556
Rh4 Y5 2.845744 1_555
Rh4 Y3 3.037375 1_555
Rh4 Y3 3.037375 1_556
Rh4 Y2 3.101625 1_556
Rh4 Y2 3.101625 1_555
Rh5 Y5 2.845744 1_555
Rh5 Y5 2.845744 1_556
Rh5 Y0 3.037375 1_556
Rh5 Y0 3.037375 1_555
Rh5 Y1 3.101625 1_556
Rh5 Y1 3.101625 1_555
Rh6 Y5 2.845744 1_556
Rh6 Y5 2.845744 1_555
Rh6 Y2 3.037375 1_556
Rh6 Y2 3.037375 1_555
Rh6 Y0 3.101625 1_556
Rh6 Y0 3.101625 1_555
Rh7 Y5 2.845744 1_555
Rh7 Y5 2.845744 1_556
Rh7 Y1 3.037375 1_555
Rh7 Y1 3.037375 1_556
Rh7 Y3 3.101625 1_555
Rh7 Y3 3.101625 1_556
Rh8 Y1 2.947767 1_556
Rh8 Y1 2.947767 1_555
Rh8 Y2 2.947767 1_546
Rh8 Y2 2.947767 1_545
Rh9 Y3 2.947767 1_555
Rh9 Y3 2.947767 1_556
Rh9 Y0 2.947767 1_456
Rh9 Y0 2.947767 1_455
