# generated using pymatgen
data_Sr2AlIn11Te20
_symmetry_space_group_name_H-M   'P 1'
_cell_length_a   10.90907223
_cell_length_b   10.97764669
_cell_length_c   10.86735802
_cell_angle_alpha   90.24441220
_cell_angle_beta   90.14320403
_cell_angle_gamma   89.64008899
_symmetry_Int_Tables_number   1
_chemical_formula_structural   Sr2AlIn11Te20
_chemical_formula_sum   'Sr2 Al1 In11 Te20'
_cell_volume   1301.38918573
_cell_formula_units_Z   1
loop_
 _symmetry_equiv_pos_site_id
 _symmetry_equiv_pos_as_xyz
  1  'x, y, z'
loop_
 _atom_site_type_symbol
 _atom_site_label
 _atom_site_symmetry_multiplicity
 _atom_site_fract_x
 _atom_site_fract_y
 _atom_site_fract_z
 _atom_site_occupancy
  Sr  Sr0  1  0.99872447  0.74192612  0.74834211  1
  Sr  Sr1  1  0.25491897  0.99909208  0.25394751  1
  Al  Al0  1  0.90443301  0.99847462  0.16684514  1
  In  In0  1  0.82497560  0.61669260  0.15621282  1
  In  In1  1  0.68211133  0.90097412  0.87709382  1
  In  In2  1  0.60025034  0.91765882  0.25675025  1
  In  In3  1  0.51048792  0.57495750  0.33281552  1
  In  In4  1  0.42964217  0.49223181  0.66758018  1
  In  In5  1  0.41825575  0.87199356  0.57773999  1
  In  In6  1  0.38598974  0.17812778  0.84300416  1
  In  In7  1  0.12931736  0.58325595  0.42405729  1
  In  In8  1  0.09287055  0.31378013  0.12330203  1
  In  In9  1  0.08598720  0.40399219  0.74422385  1
  In  In10  1  0.99545329  0.09367800  0.83107521  1
  Te  Te0  1  0.93240642  0.50189241  0.56445921  1
  Te  Te1  1  0.91874086  0.32022246  0.92866384  1
  Te  Te2  1  0.83515148  0.82222076  0.32029514  1
  Te  Te3  1  0.82193553  0.98683541  0.67876456  1
  Te  Te4  1  0.75040376  0.65766148  0.91222794  1
  Te  Te5  1  0.69898054  0.42631442  0.25830557  1
  Te  Te6  1  0.69431105  0.07642713  0.07020765  1
  Te  Te7  1  0.58483707  0.67665670  0.56853331  1
  Te  Te8  1  0.57819855  0.30460182  0.74394831  1
  Te  Te9  1  0.49808489  0.06832682  0.43634796  1
  Te  Te10  1  0.42339478  0.91810432  0.83548949  1
  Te  Te11  1  0.43103446  0.75167144  0.16418359  1
  Te  Te12  1  0.33785349  0.24459743  0.08847658  1
  Te  Te13  1  0.32691797  0.41869959  0.43199295  1
  Te  Te14  1  0.25242057  0.57222961  0.83678948  1
  Te  Te15  1  0.18531532  0.17428858  0.67263088  1
  Te  Te16  1  0.17262140  0.82755978  0.50139935  1
  Te  Te17  1  0.06967367  0.91883226  0.00726393  1
  Te  Te18  1  0.08543166  0.57196630  0.16630119  1
  Te  Te19  1  0.99805782  0.16486599  0.31072917  1
loop_
_geom_bond_atom_site_label_1
_geom_bond_atom_site_label_2
_geom_bond_distance
_geom_bond_site_symmetry_2
Sr0 Te0 3.381087 1_555
Sr0 Te4 3.381673 1_555
Sr0 Te3 3.385901 1_555
Sr0 Te16 3.428365 1_655
Sr0 Te14 3.462791 1_655
Sr0 Te17 3.499900 1_656
Sr1 Te12 3.375753 1_565
Sr1 Te19 3.388116 1_465
Sr1 Te9 3.395570 1_565
Sr1 Te16 3.414648 1_555
Sr1 Te11 3.455605 1_555
Sr1 Te17 3.467268 1_555
Al0 Te19 2.610679 1_565
Al0 Te17 2.646555 1_655
Al0 Te6 2.657165 1_565
Al0 Te2 2.673567 1_555
In0 Te5 2.747973 1_555
In0 Te4 2.808765 1_554
In0 Te2 2.872326 1_555
In0 Te18 2.882298 1_655
In1 Te4 2.795951 1_555
In1 Te3 2.812885 1_555
In1 Te6 2.845881 1_566
In1 Te10 2.862370 1_555
In2 Te9 2.783404 1_565
In2 Te11 2.785173 1_555
In2 Te2 2.846894 1_555
In2 Te6 2.874591 1_565
In3 Te5 2.738878 1_555
In3 Te11 2.806088 1_555
In3 Te13 2.860784 1_555
In3 Te7 2.905646 1_555
In4 Te8 2.742916 1_555
In4 Te14 2.805889 1_555
In4 Te7 2.862607 1_555
In4 Te13 2.905419 1_555
In5 Te9 2.796990 1_565
In5 Te7 2.803696 1_555
In5 Te10 2.844777 1_555
In5 Te16 2.847550 1_555
In6 Te8 2.746576 1_555
In6 Te12 2.812482 1_556
In6 Te15 2.864011 1_555
In6 Te10 2.881767 1_545
In7 Te0 2.791477 1_455
In7 Te13 2.805161 1_555
In7 Te18 2.842879 1_555
In7 Te16 2.849000 1_555
In8 Te12 2.799924 1_555
In8 Te19 2.819758 1_455
In8 Te1 2.840254 1_454
In8 Te18 2.871248 1_555
In9 Te14 2.781448 1_555
In9 Te0 2.785212 1_455
In9 Te15 2.844487 1_555
In9 Te1 2.871771 1_455
In10 Te3 2.773840 1_545
In10 Te1 2.822348 1_555
In10 Te17 2.830164 1_646
In10 Te15 2.844594 1_655
