# generated using pymatgen
data_Ba5ScMo4O15
_symmetry_space_group_name_H-M   'P 1'
_cell_length_a   9.10412839
_cell_length_b   9.10412797
_cell_length_c   7.05652343
_cell_angle_alpha   75.13770887
_cell_angle_beta   75.13770986
_cell_angle_gamma   36.94082056
_symmetry_Int_Tables_number   1
_chemical_formula_structural   Ba5ScMo4O15
_chemical_formula_sum   'Ba5 Sc1 Mo4 O15'
_cell_volume   338.41051092
_cell_formula_units_Z   1
loop_
 _symmetry_equiv_pos_site_id
 _symmetry_equiv_pos_as_xyz
  1  'x, y, z'
loop_
 _atom_site_type_symbol
 _atom_site_label
 _atom_site_symmetry_multiplicity
 _atom_site_fract_x
 _atom_site_fract_y
 _atom_site_fract_z
 _atom_site_occupancy
  Ba  Ba0  1  0.80177430  0.80177430  0.29975189  1
  Ba  Ba1  1  0.59798493  0.59798493  0.09794684  1
  Ba  Ba2  1  0.19822570  0.19822570  0.70024811  1
  Ba  Ba3  1  0.40201507  0.40201507  0.90205316  1
  Ba  Ba4  1  0.00000000  0.00000000  0.50000000  1
  Sc  Sc0  1  0.00000000  0.00000000  0.00000000  1
  Mo  Mo0  1  0.60073295  0.60073295  0.59479894  1
  Mo  Mo1  1  0.20148797  0.20148797  0.19699068  1
  Mo  Mo2  1  0.79851203  0.79851203  0.80300932  1
  Mo  Mo3  1  0.39926705  0.39926705  0.40520106  1
  O  O0  1  0.20498497  0.69122451  0.20879932  1
  O  O1  1  0.00000000  0.50000000  0.00000000  1
  O  O2  1  0.60063960  0.09521991  0.60602618  1
  O  O3  1  0.79501503  0.30877549  0.79120068  1
  O  O4  1  0.39936040  0.90478009  0.39397382  1
  O  O5  1  0.30097475  0.30097475  0.30374045  1
  O  O6  1  0.10400386  0.10400386  0.10202278  1
  O  O7  1  0.69902525  0.69902525  0.69625955  1
  O  O8  1  0.89599614  0.89599614  0.89797722  1
  O  O9  1  0.50000000  0.50000000  0.50000000  1
  O  O10  1  0.09521991  0.60063960  0.60602618  1
  O  O11  1  0.90478009  0.39936040  0.39397382  1
  O  O12  1  0.50000000  0.00000000  0.00000000  1
  O  O13  1  0.69122451  0.20498497  0.20879932  1
  O  O14  1  0.30877549  0.79501503  0.79120068  1
loop_
_geom_bond_atom_site_label_1
_geom_bond_atom_site_label_2
_geom_bond_distance
_geom_bond_site_symmetry_2
Ba0 O13 2.849061 1_565
Ba0 O0 2.849061 1_655
Ba0 O8 2.861937 1_554
Ba0 O2 2.876294 1_565
Ba0 O10 2.876294 1_655
Ba0 O7 2.879608 1_555
Ba0 O5 2.884457 1_655
Ba0 O5 2.884457 1_565
Ba0 O11 2.884782 1_555
Ba0 O4 2.884782 1_555
Ba0 O1 2.894197 1_655
Ba0 O12 2.894197 1_565
Ba1 O13 2.860753 1_555
Ba1 O0 2.860753 1_555
Ba1 O3 2.866655 1_554
Ba1 O14 2.866655 1_554
Ba1 O9 2.883767 1_555
Ba1 O6 2.886619 1_565
Ba1 O6 2.886619 1_655
Ba1 O7 2.899019 1_554
Ba1 O4 2.901130 1_555
Ba1 O11 2.901130 1_555
Ba1 O12 2.910082 1_565
Ba1 O1 2.910082 1_655
Ba2 O14 2.849061 1_545
Ba2 O3 2.849061 1_455
Ba2 O6 2.861937 1_556
Ba2 O4 2.876294 1_545
Ba2 O11 2.876294 1_455
Ba2 O5 2.879608 1_555
Ba2 O7 2.884457 1_455
Ba2 O7 2.884457 1_545
Ba2 O10 2.884782 1_555
Ba2 O2 2.884782 1_555
Ba2 O1 2.894197 1_556
Ba2 O12 2.894197 1_556
Ba3 O14 2.860753 1_555
Ba3 O3 2.860753 1_555
Ba3 O0 2.866655 1_556
Ba3 O13 2.866655 1_556
Ba3 O9 2.883767 1_555
Ba3 O8 2.886619 1_545
Ba3 O8 2.886619 1_455
Ba3 O5 2.899019 1_556
Ba3 O2 2.901130 1_555
Ba3 O10 2.901130 1_555
Ba3 O12 2.910082 1_556
Ba3 O1 2.910082 1_556
Ba4 O3 2.866650 1_455
Ba4 O0 2.866650 1_545
Ba4 O14 2.866650 1_545
Ba4 O13 2.866650 1_455
Ba4 O9 2.884323 1_545
Ba4 O9 2.884323 1_455
Ba4 O6 2.895650 1_555
Ba4 O8 2.895650 1_445
Ba4 O11 2.903353 1_455
Ba4 O10 2.903353 1_545
Ba4 O4 2.903353 1_545
Ba4 O2 2.903353 1_455
Mo0 O3 1.991696 1_555
Mo0 O14 1.991696 1_555
Mo0 O7 2.012851 1_555
Mo0 O9 2.025695 1_555
Mo0 O4 2.059111 1_555
Mo0 O11 2.059111 1_555
Mo1 O6 1.973258 1_555
Mo1 O4 2.013429 1_545
Mo1 O11 2.013429 1_455
Mo1 O1 2.020933 1_555
Mo1 O12 2.020933 1_555
Mo1 O5 2.054152 1_555
Mo2 O8 1.973258 1_555
Mo2 O2 2.013429 1_565
Mo2 O10 2.013429 1_655
Mo2 O1 2.020933 1_656
Mo2 O12 2.020933 1_566
Mo2 O7 2.054152 1_555
Mo3 O0 1.991696 1_555
Mo3 O13 1.991696 1_555
Mo3 O5 2.012851 1_555
Mo3 O9 2.025695 1_555
Mo3 O2 2.059111 1_555
Mo3 O10 2.059111 1_555
O0 Sc0 2.110883 1_565
O3 Sc0 2.110883 1_656
O6 Sc0 2.108065 1_555
O8 Sc0 2.108065 1_666
O13 Sc0 2.110883 1_655
O14 Sc0 2.110883 1_566
