# generated using pymatgen
data_TaNi4Pd
_symmetry_space_group_name_H-M   'P 1'
_cell_length_a   4.68213415
_cell_length_b   4.68213447
_cell_length_c   4.68213229
_cell_angle_alpha   59.99999470
_cell_angle_beta   59.99999247
_cell_angle_gamma   59.99999721
_symmetry_Int_Tables_number   1
_chemical_formula_structural   TaNi4Pd
_chemical_formula_sum   'Ta1 Ni4 Pd1'
_cell_volume   72.57990017
_cell_formula_units_Z   1
loop_
 _symmetry_equiv_pos_site_id
 _symmetry_equiv_pos_as_xyz
  1  'x, y, z'
loop_
 _atom_site_type_symbol
 _atom_site_label
 _atom_site_symmetry_multiplicity
 _atom_site_fract_x
 _atom_site_fract_y
 _atom_site_fract_z
 _atom_site_occupancy
  Ta  Ta0  1  0.00000000  0.00000000  0.00000000  1
  Ni  Ni0  1  0.62464730  0.62464730  0.12605810  1
  Ni  Ni1  1  0.62464730  0.12605810  0.62464730  1
  Ni  Ni2  1  0.12605810  0.62464730  0.62464730  1
  Ni  Ni3  1  0.62464730  0.62464730  0.62464730  1
  Pd  Pd0  1  0.25000000  0.25000000  0.25000000  1
loop_
_geom_bond_atom_site_label_1
_geom_bond_atom_site_label_2
_geom_bond_distance
_geom_bond_site_symmetry_2
Ni0 Ni3 2.334461 1_555
Ni0 Ni2 2.334461 1_555
Ni0 Ni1 2.334461 1_555
Ni0 Ni3 2.347672 1_554
Ni0 Ni2 2.347672 1_654
Ni0 Ni1 2.347672 1_564
Ni0 Pd0 2.744443 1_655
Ni0 Pd0 2.744443 1_565
Ni0 Pd0 2.744443 1_555
Ni0 Ta0 2.745851 1_565
Ni0 Ta0 2.745852 1_655
Ni0 Ta0 2.745852 1_665
Ni1 Ni2 2.334461 1_555
Ni1 Ni3 2.334462 1_555
Ni1 Ni2 2.347673 1_645
Ni1 Ni3 2.347673 1_545
Ni1 Pd0 2.744442 1_556
Ni1 Pd0 2.744443 1_555
Ni1 Pd0 2.744443 1_655
Ni1 Ta0 2.745850 1_655
Ni1 Ta0 2.745851 1_656
Ni1 Ta0 2.745851 1_556
Ni2 Ni3 2.334462 1_555
Ni2 Ni3 2.347673 1_455
Ni2 Pd0 2.744442 1_556
Ni2 Pd0 2.744443 1_555
Ni2 Pd0 2.744443 1_565
Ni2 Ta0 2.745850 1_565
Ni2 Ta0 2.745851 1_566
Ni2 Ta0 2.745852 1_556
Ni3 Pd0 2.744442 1_556
Ni3 Pd0 2.744443 1_655
Ni3 Pd0 2.744443 1_565
Ni3 Ta0 2.745851 1_665
Ni3 Ta0 2.745851 1_566
Ni3 Ta0 2.745851 1_656
Pd0 Ta0 2.867208 1_556
Pd0 Ta0 2.867210 1_555
Pd0 Ta0 2.867210 1_655
Pd0 Ta0 2.867210 1_565
