# generated using pymatgen
data_Ca4Si10NiPt5
_symmetry_space_group_name_H-M   'P 1'
_cell_length_a   8.17356914
_cell_length_b   8.17356902
_cell_length_c   8.17356838
_cell_angle_alpha   137.96394147
_cell_angle_beta   104.54737241
_cell_angle_gamma   90.34927810
_symmetry_Int_Tables_number   1
_chemical_formula_structural   Ca4Si10NiPt5
_chemical_formula_sum   'Ca4 Si10 Ni1 Pt5'
_cell_volume   337.91774372
_cell_formula_units_Z   1
loop_
 _symmetry_equiv_pos_site_id
 _symmetry_equiv_pos_as_xyz
  1  'x, y, z'
loop_
 _atom_site_type_symbol
 _atom_site_label
 _atom_site_symmetry_multiplicity
 _atom_site_fract_x
 _atom_site_fract_y
 _atom_site_fract_z
 _atom_site_occupancy
  Ca  Ca0  1  0.63641511  0.37524684  0.27191881  1
  Ca  Ca1  1  0.36358489  0.63550370  0.73883173  1
  Ca  Ca2  1  0.10332803  0.86449630  0.22808119  1
  Ca  Ca3  1  0.89667197  0.12475316  0.76116827  1
  Si  Si0  1  0.45968595  0.12183556  0.36808724  1
  Si  Si1  1  0.54031405  0.90840029  0.66214860  1
  Si  Si2  1  0.75374832  0.59159971  0.13191276  1
  Si  Si3  1  0.24625168  0.37816444  0.83785140  1
  Si  Si4  1  0.27459001  0.52459001  0.25000000  1
  Si  Si5  1  0.72695318  0.47695318  0.75000000  1
  Si  Si6  1  0.72540999  0.97540999  0.25000000  1
  Si  Si7  1  0.27304682  0.02304682  0.75000000  1
  Si  Si8  1  0.00000000  0.25000000  0.25000000  1
  Si  Si9  1  0.00000000  0.75000000  0.75000000  1
  Ni  Ni0  1  0.50000000  0.25000000  0.75000000  1
  Pt  Pt0  1  0.50000000  0.75000000  0.25000000  1
  Pt  Pt1  1  0.25258868  0.13970247  0.11836823  1
  Pt  Pt2  1  0.74741132  0.86577955  0.88711379  1
  Pt  Pt3  1  0.02133524  0.63422045  0.38163177  1
  Pt  Pt4  1  0.97866476  0.36029753  0.61288621  1
loop_
_geom_bond_atom_site_label_1
_geom_bond_atom_site_label_2
_geom_bond_distance
_geom_bond_site_symmetry_2
Ca0 Si2 2.982127 1_555
Ca0 Pt1 3.079454 1_555
Ca0 Si9 3.123930 1_655
Ca0 Si1 3.124771 1_544
Ca0 Pt2 3.146261 1_555
Ca0 Si8 3.153366 1_655
Ca0 Si0 3.153890 1_555
Ca0 Pt2 3.174912 1_544
Ca0 Si5 3.197297 1_555
Ca0 Si4 3.220411 1_555
Ca0 Si1 3.230168 1_555
Ca0 Si6 3.235179 1_545
Ca0 Si7 3.255026 1_554
Ca0 Pt3 3.296206 1_655
Ca0 Pt0 3.378486 1_555
Ca0 Ni0 3.405723 1_554
Ca0 Pt4 3.492971 1_555
Ca1 Si3 2.982127 1_555
Ca1 Pt2 3.079454 1_555
Ca1 Si9 3.123930 1_555
Ca1 Si0 3.124766 1_555
Ca1 Pt1 3.146261 1_566
Ca1 Si8 3.153366 1_555
Ca1 Si1 3.153890 1_555
Ca1 Pt1 3.174912 1_555
Ca1 Si7 3.197297 1_565
Ca1 Si6 3.220411 1_556
Ca1 Si0 3.230173 1_566
Ca1 Si4 3.235179 1_555
Ca1 Si5 3.255027 1_555
Ca1 Pt4 3.296206 1_455
Ca1 Pt0 3.378486 1_556
Ca1 Ni0 3.405723 1_555
Ca1 Pt3 3.492971 1_555
Ca2 Si0 2.982120 1_565
Ca2 Pt3 3.079451 1_555
Ca2 Si9 3.123930 1_554
Ca2 Si3 3.124770 1_565
Ca2 Pt4 3.146260 1_454
Ca2 Si8 3.153366 1_565
Ca2 Si2 3.153886 1_455
Ca2 Pt4 3.174917 1_465
Ca2 Si5 3.197297 1_454
Ca2 Si4 3.220411 1_555
Ca2 Si3 3.230172 1_554
Ca2 Si6 3.235179 1_455
Ca2 Si7 3.255026 1_565
Ca2 Pt1 3.296199 1_565
Ca2 Pt0 3.378486 1_555
Ca2 Ni0 3.405723 1_565
Ca2 Pt2 3.492976 1_454
Ca3 Si1 2.982120 1_545
Ca3 Pt4 3.079451 1_555
Ca3 Si9 3.123930 1_645
Ca3 Si2 3.124770 1_556
Ca3 Pt3 3.146266 1_645
Ca3 Si8 3.153366 1_656
Ca3 Si3 3.153886 1_655
Ca3 Pt3 3.174911 1_656
Ca3 Si7 3.197297 1_655
Ca3 Si6 3.220411 1_545
Ca3 Si2 3.230172 1_545
Ca3 Si4 3.235179 1_656
Ca3 Si5 3.255026 1_555
Ca3 Pt2 3.296199 1_545
Ca3 Pt0 3.378486 1_545
Ca3 Ni0 3.405723 1_555
Ca3 Pt1 3.492976 1_656
Si0 Si5 2.445263 1_555
Si0 Si6 2.539695 1_545
Si1 Si7 2.445266 1_565
Si1 Si4 2.539692 1_555
Si2 Si5 2.445258 1_554
Si2 Si6 2.539688 1_555
Si3 Si7 2.445258 1_555
Si3 Si4 2.539687 1_556
Ni0 Si0 2.360478 1_555
Ni0 Si3 2.360480 1_555
Ni0 Si2 2.360480 1_556
Ni0 Si1 2.360482 1_545
Ni0 Si5 2.615383 1_555
Ni0 Si7 2.615383 1_555
Ni0 Pt0 2.931546 1_545
Ni0 Pt0 2.931546 1_556
Pt0 Si1 2.468106 1_555
Pt0 Si2 2.468108 1_555
Pt0 Si3 2.468108 1_554
Pt0 Si0 2.468110 1_565
Pt0 Si4 2.597599 1_555
Pt0 Si6 2.597599 1_555
Pt1 Si0 2.400591 1_555
Pt1 Si8 2.435248 1_555
Pt1 Si4 2.440237 1_555
Pt1 Si7 2.448038 1_554
Pt1 Si9 2.454518 1_544
Pt2 Si1 2.400591 1_555
Pt2 Si8 2.435248 1_666
Pt2 Si6 2.440237 1_556
Pt2 Si5 2.448038 1_555
Pt2 Si9 2.454518 1_655
Pt3 Si2 2.400601 1_455
Pt3 Si8 2.435248 1_555
Pt3 Si4 2.440229 1_555
Pt3 Si7 2.448034 1_565
Pt3 Si9 2.454521 1_555
Pt4 Si3 2.400601 1_655
Pt4 Si8 2.435251 1_655
Pt4 Si6 2.440233 1_545
Pt4 Si5 2.448030 1_555
Pt4 Si9 2.454517 1_655
