# generated using pymatgen
data_Ti4PdRhO
_symmetry_space_group_name_H-M   'P 1'
_cell_length_a   8.21932376
_cell_length_b   8.21932377
_cell_length_c   8.21932329
_cell_angle_alpha   60.00000191
_cell_angle_beta   60.00000187
_cell_angle_gamma   59.99999672
_symmetry_Int_Tables_number   1
_chemical_formula_structural   Ti4PdRhO
_chemical_formula_sum   'Ti16 Pd4 Rh4 O4'
_cell_volume   392.63882588
_cell_formula_units_Z   4
loop_
 _symmetry_equiv_pos_site_id
 _symmetry_equiv_pos_as_xyz
  1  'x, y, z'
loop_
 _atom_site_type_symbol
 _atom_site_label
 _atom_site_symmetry_multiplicity
 _atom_site_fract_x
 _atom_site_fract_y
 _atom_site_fract_z
 _atom_site_occupancy
  Ti  Ti0  1  0.11286172  0.62904576  0.62904576  1
  Ti  Ti1  1  0.62904576  0.11286172  0.62904576  1
  Ti  Ti2  1  0.62904576  0.62904576  0.11286172  1
  Ti  Ti3  1  0.62904576  0.62904576  0.62904576  1
  Ti  Ti4  1  0.81914473  0.81914473  0.18085527  1
  Ti  Ti5  1  0.18085527  0.18085527  0.81914473  1
  Ti  Ti6  1  0.81914473  0.18085527  0.81914473  1
  Ti  Ti7  1  0.18085527  0.81914473  0.18085527  1
  Ti  Ti8  1  0.18085527  0.81914473  0.81914473  1
  Ti  Ti9  1  0.81914473  0.18085527  0.18085527  1
  Ti  Ti10  1  0.43172372  0.43172372  0.06827628  1
  Ti  Ti11  1  0.06827628  0.06827628  0.43172372  1
  Ti  Ti12  1  0.43172372  0.06827628  0.43172372  1
  Ti  Ti13  1  0.06827628  0.43172372  0.06827628  1
  Ti  Ti14  1  0.06827628  0.43172372  0.43172372  1
  Ti  Ti15  1  0.43172372  0.06827628  0.06827628  1
  Pd  Pd0  1  0.76691899  0.41102634  0.41102634  1
  Pd  Pd1  1  0.41102634  0.76691899  0.41102634  1
  Pd  Pd2  1  0.41102634  0.41102634  0.76691899  1
  Pd  Pd3  1  0.41102634  0.41102634  0.41102634  1
  Rh  Rh0  1  0.46895020  0.84368360  0.84368360  1
  Rh  Rh1  1  0.84368360  0.46895020  0.84368360  1
  Rh  Rh2  1  0.84368360  0.84368360  0.46895020  1
  Rh  Rh3  1  0.84368360  0.84368360  0.84368360  1
  O  O0  1  0.62417588  0.12527504  0.12527504  1
  O  O1  1  0.12527504  0.62417588  0.12527504  1
  O  O2  1  0.12527504  0.12527504  0.62417588  1
  O  O3  1  0.12527504  0.12527504  0.12527504  1
loop_
_geom_bond_atom_site_label_1
_geom_bond_atom_site_label_2
_geom_bond_distance
_geom_bond_site_symmetry_2
Pd0 Ti2 2.618443 1_555
Pd0 Ti1 2.618443 1_555
Pd0 Ti3 2.618449 1_555
Pd0 Ti11 2.657973 1_655
Pd0 Ti13 2.657973 1_655
Pd0 Ti14 2.657982 1_655
Pd1 Ti2 2.618443 1_555
Pd1 Ti0 2.618443 1_555
Pd1 Ti3 2.618449 1_555
Pd1 Ti11 2.657973 1_565
Pd1 Ti15 2.657973 1_565
Pd1 Ti12 2.657982 1_565
Pd2 Ti0 2.618443 1_555
Pd2 Ti1 2.618443 1_555
Pd2 Ti3 2.618450 1_555
Pd2 Ti13 2.657973 1_556
Pd2 Ti15 2.657973 1_556
Pd2 Ti10 2.657982 1_556
Pd3 Ti0 2.618447 1_555
Pd3 Ti1 2.618447 1_555
Pd3 Ti2 2.618447 1_555
Pd3 Ti10 2.657966 1_555
Pd3 Ti14 2.657966 1_555
Pd3 Ti12 2.657966 1_555
Rh0 Ti2 2.534868 1_556
Rh0 Ti1 2.534868 1_565
Rh0 Ti3 2.534881 1_555
Rh0 Ti5 2.585416 1_565
Rh0 Ti7 2.585416 1_556
Rh0 Ti8 2.585421 1_555
Rh1 Ti2 2.534868 1_556
Rh1 Ti0 2.534868 1_655
Rh1 Ti3 2.534881 1_555
Rh1 Ti5 2.585416 1_655
Rh1 Ti9 2.585416 1_556
Rh1 Ti6 2.585421 1_555
Rh2 Ti0 2.534868 1_655
Rh2 Ti1 2.534868 1_565
Rh2 Ti3 2.534881 1_555
Rh2 Ti7 2.585416 1_655
Rh2 Ti9 2.585416 1_565
Rh2 Ti4 2.585421 1_555
Rh3 Ti0 2.534878 1_655
Rh3 Ti1 2.534878 1_565
Rh3 Ti2 2.534878 1_556
Rh3 Ti4 2.585413 1_556
Rh3 Ti8 2.585413 1_655
Rh3 Ti6 2.585413 1_565
O0 Ti10 2.154703 1_555
O0 Ti12 2.154703 1_555
O0 Ti15 2.154709 1_555
O0 Ti9 2.158307 1_555
O0 Ti4 2.158312 1_545
O0 Ti6 2.158313 1_554
O1 Ti10 2.154703 1_555
O1 Ti14 2.154703 1_555
O1 Ti13 2.154709 1_555
O1 Ti7 2.158307 1_555
O1 Ti4 2.158312 1_455
O1 Ti8 2.158313 1_554
O2 Ti12 2.154703 1_555
O2 Ti14 2.154703 1_555
O2 Ti11 2.154709 1_555
O2 Ti5 2.158307 1_555
O2 Ti6 2.158313 1_455
O2 Ti8 2.158313 1_545
O3 Ti11 2.154701 1_555
O3 Ti15 2.154701 1_555
O3 Ti13 2.154701 1_555
O3 Ti5 2.158315 1_554
O3 Ti9 2.158315 1_455
O3 Ti7 2.158315 1_545
