# generated using pymatgen
data_RbYBi2Se5
_symmetry_space_group_name_H-M   'P 1'
_cell_length_a   4.14739732
_cell_length_b   12.34984103
_cell_length_c   22.17304191
_cell_angle_alpha   90.00000000
_cell_angle_beta   90.00000000
_cell_angle_gamma   90.00000000
_symmetry_Int_Tables_number   1
_chemical_formula_structural   RbYBi2Se5
_chemical_formula_sum   'Rb4 Y4 Bi8 Se20'
_cell_volume   1135.69650057
_cell_formula_units_Z   4
loop_
 _symmetry_equiv_pos_site_id
 _symmetry_equiv_pos_as_xyz
  1  'x, y, z'
loop_
 _atom_site_type_symbol
 _atom_site_label
 _atom_site_symmetry_multiplicity
 _atom_site_fract_x
 _atom_site_fract_y
 _atom_site_fract_z
 _atom_site_occupancy
  Rb  Rb0  1  0.25000000  0.48855881  0.21079937  1
  Rb  Rb1  1  0.75000000  0.51144119  0.78920063  1
  Rb  Rb2  1  0.75000000  0.98855881  0.28920063  1
  Rb  Rb3  1  0.25000000  0.01144119  0.71079937  1
  Y  Y0  1  0.25000000  0.36362354  0.02406574  1
  Y  Y1  1  0.75000000  0.63637646  0.97593426  1
  Y  Y2  1  0.75000000  0.86362354  0.47593426  1
  Y  Y3  1  0.25000000  0.13637646  0.52406574  1
  Bi  Bi0  1  0.25000000  0.80282749  0.12552760  1
  Bi  Bi1  1  0.75000000  0.19717251  0.87447240  1
  Bi  Bi2  1  0.75000000  0.30282749  0.37447240  1
  Bi  Bi3  1  0.25000000  0.69717251  0.62552760  1
  Bi  Bi4  1  0.25000000  0.59574276  0.42269266  1
  Bi  Bi5  1  0.75000000  0.40425724  0.57730734  1
  Bi  Bi6  1  0.75000000  0.09574276  0.07730734  1
  Bi  Bi7  1  0.25000000  0.90425724  0.92269266  1
  Se  Se0  1  0.25000000  0.81136830  0.38973981  1
  Se  Se1  1  0.75000000  0.18863170  0.61026019  1
  Se  Se2  1  0.75000000  0.31136830  0.11026019  1
  Se  Se3  1  0.25000000  0.68863170  0.88973981  1
  Se  Se4  1  0.25000000  0.24633233  0.29700932  1
  Se  Se5  1  0.75000000  0.75366767  0.70299068  1
  Se  Se6  1  0.75000000  0.74633233  0.20299068  1
  Se  Se7  1  0.25000000  0.25366767  0.79700932  1
  Se  Se8  1  0.25000000  0.35623745  0.48212268  1
  Se  Se9  1  0.75000000  0.64376255  0.51787732  1
  Se  Se10  1  0.75000000  0.85623745  0.01787732  1
  Se  Se11  1  0.25000000  0.14376255  0.98212268  1
  Se  Se12  1  0.25000000  0.02621184  0.16004632  1
  Se  Se13  1  0.75000000  0.97378816  0.83995368  1
  Se  Se14  1  0.75000000  0.52621184  0.33995368  1
  Se  Se15  1  0.25000000  0.47378816  0.66004632  1
  Se  Se16  1  0.25000000  0.58307616  0.06023518  1
  Se  Se17  1  0.75000000  0.41692384  0.93976482  1
  Se  Se18  1  0.75000000  0.08307616  0.43976482  1
  Se  Se19  1  0.25000000  0.91692384  0.56023518  1
loop_
_geom_bond_atom_site_label_1
_geom_bond_atom_site_label_2
_geom_bond_distance
_geom_bond_site_symmetry_2
Rb0 Se16 3.536649 1_555
Rb0 Se4 3.550042 1_555
Rb0 Se14 3.566159 1_455
Rb0 Se14 3.566159 1_555
Rb0 Se2 3.749449 1_555
Rb0 Se2 3.749449 1_455
Rb0 Se6 3.803240 1_455
Rb0 Se6 3.803240 1_555
Rb1 Se17 3.536649 1_555
Rb1 Se5 3.550042 1_555
Rb1 Se15 3.566159 1_555
Rb1 Se15 3.566159 1_655
Rb1 Se3 3.749449 1_655
Rb1 Se3 3.749449 1_555
Rb1 Se7 3.803240 1_655
Rb1 Se7 3.803240 1_555
Rb2 Se18 3.536649 1_565
Rb2 Se6 3.550042 1_555
Rb2 Se12 3.566159 1_665
Rb2 Se12 3.566159 1_565
Rb2 Se0 3.749449 1_655
Rb2 Se0 3.749449 1_555
Rb2 Se4 3.803240 1_665
Rb2 Se4 3.803240 1_565
Rb3 Se19 3.536649 1_545
Rb3 Se7 3.550042 1_555
Rb3 Se13 3.566159 1_445
Rb3 Se13 3.566159 1_545
Rb3 Se1 3.749449 1_555
Rb3 Se1 3.749449 1_455
Rb3 Se5 3.803240 1_545
Rb3 Se5 3.803240 1_445
Bi0 Se6 2.781572 1_455
Bi0 Se6 2.781572 1_555
Bi0 Se12 2.862967 1_565
Bi0 Se16 3.075898 1_555
Bi0 Se10 3.229978 1_555
Bi0 Se10 3.229978 1_455
Bi1 Se7 2.781572 1_655
Bi1 Se7 2.781572 1_555
Bi1 Se13 2.862967 1_545
Bi1 Se17 3.075898 1_555
Bi1 Se11 3.229978 1_555
Bi1 Se11 3.229978 1_655
Bi2 Se4 2.781572 1_655
Bi2 Se4 2.781572 1_555
Bi2 Se14 2.862967 1_555
Bi2 Se18 3.075898 1_555
Bi2 Se8 3.229978 1_655
Bi2 Se8 3.229978 1_555
Bi3 Se5 2.781572 1_455
Bi3 Se5 2.781572 1_555
Bi3 Se15 2.862967 1_555
Bi3 Se19 3.075898 1_555
Bi3 Se9 3.229978 1_555
Bi3 Se9 3.229978 1_455
Bi4 Se0 2.761363 1_555
Bi4 Se14 2.898836 1_455
Bi4 Se14 2.898836 1_555
Bi4 Se9 3.017660 1_455
Bi4 Se9 3.017660 1_555
Bi4 Se8 3.238108 1_555
Bi5 Se1 2.761363 1_555
Bi5 Se15 2.898836 1_655
Bi5 Se15 2.898836 1_555
Bi5 Se8 3.017660 1_555
Bi5 Se8 3.017660 1_655
Bi5 Se9 3.238108 1_555
Bi6 Se2 2.761363 1_555
Bi6 Se12 2.898836 1_555
Bi6 Se12 2.898836 1_655
Bi6 Se11 3.017660 1_654
Bi6 Se11 3.017660 1_554
Bi6 Se10 3.238108 1_545
Bi7 Se3 2.761363 1_555
Bi7 Se13 2.898836 1_455
Bi7 Se13 2.898836 1_555
Bi7 Se10 3.017660 1_456
Bi7 Se10 3.017660 1_556
Bi7 Se11 3.238108 1_565
Se0 Y2 2.892984 1_455
Se0 Y2 2.892984 1_555
Se1 Y3 2.892984 1_655
Se1 Y3 2.892984 1_555
Se2 Y0 2.892984 1_555
Se2 Y0 2.892984 1_655
Se3 Y1 2.892984 1_555
Se3 Y1 2.892984 1_455
Se8 Y3 2.870101 1_555
Se9 Y2 2.870101 1_555
Se10 Y1 2.870101 1_554
Se11 Y0 2.870101 1_556
Se16 Y0 2.826375 1_555
Se16 Y1 2.868354 1_554
Se16 Y1 2.868354 1_454
Se17 Y1 2.826375 1_555
Se17 Y0 2.868354 1_656
Se17 Y0 2.868354 1_556
Se18 Y2 2.826375 1_545
Se18 Y3 2.868354 1_655
Se18 Y3 2.868354 1_555
Se19 Y3 2.826375 1_565
Se19 Y2 2.868354 1_455
Se19 Y2 2.868354 1_555
