# generated using pymatgen
data_Zr6Zn22CoGe
_symmetry_space_group_name_H-M   'P 1'
_cell_length_a   8.66188363
_cell_length_b   8.66188311
_cell_length_c   8.66188430
_cell_angle_alpha   60.00000286
_cell_angle_beta   60.00000484
_cell_angle_gamma   60.00000125
_symmetry_Int_Tables_number   1
_chemical_formula_structural   Zr6Zn22CoGe
_chemical_formula_sum   'Zr6 Zn22 Co1 Ge1'
_cell_volume   459.53868130
_cell_formula_units_Z   1
loop_
 _symmetry_equiv_pos_site_id
 _symmetry_equiv_pos_as_xyz
  1  'x, y, z'
loop_
 _atom_site_type_symbol
 _atom_site_label
 _atom_site_symmetry_multiplicity
 _atom_site_fract_x
 _atom_site_fract_y
 _atom_site_fract_z
 _atom_site_occupancy
  Zr  Zr0  1  0.71388063  0.28611937  0.28611937  1
  Zr  Zr1  1  0.28611937  0.71388063  0.71388063  1
  Zr  Zr2  1  0.28611937  0.71388063  0.28611937  1
  Zr  Zr3  1  0.71388063  0.28611937  0.71388063  1
  Zr  Zr4  1  0.28611937  0.28611937  0.71388063  1
  Zr  Zr5  1  0.71388063  0.71388063  0.28611937  1
  Zn  Zn0  1  0.11889752  0.11889752  0.11889752  1
  Zn  Zn1  1  0.88110248  0.88110248  0.88110248  1
  Zn  Zn2  1  0.11889752  0.11889752  0.64330844  1
  Zn  Zn3  1  0.11889752  0.64330844  0.11889752  1
  Zn  Zn4  1  0.88110248  0.88110248  0.35669156  1
  Zn  Zn5  1  0.88110248  0.35669156  0.88110248  1
  Zn  Zn6  1  0.64330844  0.11889752  0.11889752  1
  Zn  Zn7  1  0.35669156  0.88110248  0.88110248  1
  Zn  Zn8  1  0.50000000  0.00000000  0.00000000  1
  Zn  Zn9  1  0.00000000  0.50000000  0.50000000  1
  Zn  Zn10  1  0.00000000  0.50000000  0.00000000  1
  Zn  Zn11  1  0.50000000  0.00000000  0.50000000  1
  Zn  Zn12  1  0.00000000  0.00000000  0.50000000  1
  Zn  Zn13  1  0.50000000  0.50000000  0.00000000  1
  Zn  Zn14  1  0.33326902  0.33326902  0.33326902  1
  Zn  Zn15  1  0.66673098  0.66673098  0.66673098  1
  Zn  Zn16  1  0.33326902  0.33326902  0.00019493  1
  Zn  Zn17  1  0.33326902  0.00019493  0.33326902  1
  Zn  Zn18  1  0.66673098  0.66673098  0.99980507  1
  Zn  Zn19  1  0.66673098  0.99980507  0.66673098  1
  Zn  Zn20  1  0.00019493  0.33326902  0.33326902  1
  Zn  Zn21  1  0.99980507  0.66673098  0.66673098  1
  Co  Co0  1  0.00000000  0.00000000  0.00000000  1
  Ge  Ge0  1  0.50000000  0.50000000  0.50000000  1
loop_
_geom_bond_atom_site_label_1
_geom_bond_atom_site_label_2
_geom_bond_distance
_geom_bond_site_symmetry_2
Zn0 Zn10 2.698071 1_555
Zn0 Zn8 2.698072 1_555
Zn0 Zn12 2.698072 1_555
Zn0 Zn16 2.753646 1_555
Zn0 Zn20 2.753646 1_555
Zn0 Zn17 2.753646 1_555
Zn0 Zr2 2.904932 1_545
Zn0 Zr0 2.904933 1_455
Zn0 Zr4 2.904933 1_554
Zn0 Zn4 2.912931 1_445
Zn0 Zn7 2.912931 1_544
Zn0 Zn5 2.912931 1_454
Zn1 Zn10 2.698071 1_656
Zn1 Zn8 2.698072 1_566
Zn1 Zn12 2.698072 1_665
Zn1 Zn18 2.753646 1_555
Zn1 Zn21 2.753646 1_555
Zn1 Zn19 2.753646 1_555
Zn1 Zr3 2.904932 1_565
Zn1 Zr1 2.904933 1_655
Zn1 Zr5 2.904933 1_556
Zn1 Zn2 2.912931 1_665
Zn1 Zn6 2.912931 1_566
Zn1 Zn3 2.912931 1_656
Zn2 Zn9 2.698072 1_555
Zn2 Zn20 2.753639 1_555
Zn2 Zr4 2.904926 1_555
Zn2 Zr1 2.904934 1_545
Zn2 Zr3 2.904934 1_455
Zn2 Zn7 2.912918 1_545
Zn2 Zn5 2.912918 1_455
Zn3 Zn9 2.698072 1_555
Zn3 Zr2 2.904926 1_555
Zn3 Zr5 2.904934 1_455
Zn3 Zr1 2.904934 1_554
Zn3 Zn7 2.912918 1_554
Zn3 Zn4 2.912918 1_455
Zn4 Zn9 2.698072 1_655
Zn4 Zr5 2.904926 1_555
Zn4 Zr0 2.904934 1_565
Zn4 Zr2 2.904934 1_655
Zn4 Zn6 2.912918 1_565
Zn5 Zn9 2.698072 1_655
Zn5 Zr3 2.904926 1_555
Zn5 Zr4 2.904934 1_655
Zn5 Zr0 2.904934 1_556
Zn5 Zn6 2.912918 1_556
Zn6 Zn8 2.698079 1_555
Zn6 Zr0 2.904926 1_555
Zn6 Zr5 2.904934 1_545
Zn6 Zr3 2.904934 1_554
Zn7 Zn8 2.698079 1_566
Zn7 Zr1 2.904926 1_555
Zn7 Zr4 2.904934 1_565
Zn7 Zr2 2.904934 1_556
Zn8 Zr3 3.094236 1_554
Zn8 Zr2 3.094236 1_545
Zn8 Zr5 3.094236 1_545
Zn8 Zr4 3.094236 1_554
Zn9 Zr2 3.094236 1_555
Zn9 Zr3 3.094236 1_455
Zn9 Zr4 3.094236 1_555
Zn9 Zr5 3.094236 1_455
Zn10 Zn16 2.500476 1_555
Zn10 Zn18 2.500476 1_454
Zn10 Zn20 2.500476 1_555
Zn10 Zn21 2.500476 1_454
Zn10 Zn5 2.698079 1_454
Zn10 Zn3 2.698079 1_555
Zn10 Zr1 3.094236 1_554
Zn10 Zr0 3.094236 1_455
Zn10 Zr5 3.094236 1_455
Zn10 Zr4 3.094236 1_554
Zn11 Zn19 2.500461 1_545
Zn11 Zn17 2.500461 1_555
Zn11 Zn14 2.500471 1_555
Zn11 Zn15 2.500471 1_545
Zn11 Zn2 2.698072 1_555
Zn11 Zn4 2.698072 1_545
Zn11 Zn6 2.698072 1_555
Zn11 Zn7 2.698072 1_545
Zn11 Zr0 3.094236 1_555
Zn11 Zr1 3.094236 1_545
Zn11 Zr4 3.094236 1_555
Zn11 Zr5 3.094236 1_545
Zn12 Zn20 2.500476 1_555
Zn12 Zn21 2.500476 1_445
Zn12 Zn17 2.500476 1_555
Zn12 Zn19 2.500476 1_445
Zn12 Zn4 2.698079 1_445
Zn12 Zn2 2.698079 1_555
Zn12 Zr3 3.094236 1_455
Zn12 Zr1 3.094236 1_545
Zn12 Zr2 3.094236 1_545
Zn12 Zr0 3.094236 1_455
Zn13 Zn18 2.500461 1_554
Zn13 Zn16 2.500461 1_555
Zn13 Zn14 2.500471 1_555
Zn13 Zn15 2.500471 1_554
Zn13 Zn7 2.698072 1_554
Zn13 Zn6 2.698072 1_555
Zn13 Zn5 2.698072 1_554
Zn13 Zn3 2.698072 1_555
Zn13 Zr2 3.094236 1_555
Zn13 Zr0 3.094236 1_555
Zn13 Zr1 3.094236 1_554
Zn13 Zr3 3.094236 1_554
Zn14 Zn9 2.500471 1_555
Zn14 Zn3 2.753643 1_555
Zn14 Zn6 2.753643 1_555
Zn14 Zn2 2.753643 1_555
Zn14 Zn17 2.885049 1_555
Zn14 Zn20 2.885049 1_555
Zn14 Zn16 2.885049 1_555
Zn14 Zr2 2.945589 1_555
Zn14 Zr0 2.945589 1_555
Zn14 Zr4 2.945589 1_555
Zn15 Zn9 2.500471 1_655
Zn15 Zn5 2.753643 1_555
Zn15 Zn7 2.753643 1_555
Zn15 Zn4 2.753643 1_555
Zn15 Zn19 2.885049 1_555
Zn15 Zn21 2.885049 1_555
Zn15 Zn18 2.885049 1_555
Zn15 Zr3 2.945589 1_555
Zn15 Zr1 2.945589 1_555
Zn15 Zr5 2.945589 1_555
Zn16 Zn8 2.500476 1_555
Zn16 Zn3 2.753638 1_555
Zn16 Zn6 2.753639 1_555
Zn16 Zn17 2.885049 1_555
Zn16 Zn20 2.885049 1_555
Zn16 Zr1 2.945595 1_554
Zn16 Zr3 2.945595 1_554
Zn16 Zr4 2.945606 1_554
Zn17 Zn8 2.500476 1_555
Zn17 Zn6 2.753639 1_555
Zn17 Zn2 2.753639 1_555
Zn17 Zn20 2.885049 1_555
Zn17 Zr5 2.945595 1_545
Zn17 Zr1 2.945595 1_545
Zn17 Zr2 2.945606 1_545
Zn18 Zn8 2.500476 1_566
Zn18 Zn5 2.753638 1_555
Zn18 Zn7 2.753639 1_555
Zn18 Zn19 2.885049 1_555
Zn18 Zn21 2.885049 1_555
Zn18 Zr0 2.945595 1_556
Zn18 Zr2 2.945595 1_556
Zn18 Zr5 2.945606 1_556
Zn19 Zn8 2.500476 1_566
Zn19 Zn7 2.753639 1_555
Zn19 Zn4 2.753639 1_555
Zn19 Zn21 2.885049 1_555
Zn19 Zr4 2.945595 1_565
Zn19 Zr0 2.945595 1_565
Zn19 Zr3 2.945606 1_565
Zn20 Zn9 2.500461 1_555
Zn20 Zn3 2.753639 1_555
Zn20 Zr5 2.945595 1_455
Zn20 Zr3 2.945595 1_455
Zn20 Zr0 2.945606 1_455
Zn21 Zn9 2.500461 1_655
Zn21 Zn5 2.753639 1_555
Zn21 Zn4 2.753639 1_555
Zn21 Zr4 2.945595 1_655
Zn21 Zr2 2.945595 1_655
Zn21 Zr1 2.945606 1_655
Co0 Zn5 2.522665 1_454
Co0 Zn3 2.522665 1_545
Co0 Zn7 2.522665 1_544
Co0 Zn6 2.522665 1_455
Co0 Zn2 2.522665 1_554
Co0 Zn4 2.522665 1_445
Co0 Zn0 2.522672 1_555
Co0 Zn1 2.522672 1_444
Ge0 Zr5 2.619985 1_555
Ge0 Zr4 2.619985 1_555
Ge0 Zr1 2.619985 1_555
Ge0 Zr3 2.619985 1_555
Ge0 Zr0 2.619985 1_555
Ge0 Zr2 2.619985 1_555
