# generated using pymatgen
data_Ta5SiNi4P3
_symmetry_space_group_name_H-M   'P 1'
_cell_length_a   7.22991899
_cell_length_b   7.22991882
_cell_length_c   7.24356608
_cell_angle_alpha   93.24466534
_cell_angle_beta   93.53581823
_cell_angle_gamma   151.82438820
_symmetry_Int_Tables_number   1
_chemical_formula_structural   Ta5SiNi4P3
_chemical_formula_sum   'Ta5 Si1 Ni4 P3'
_cell_volume   173.42444809
_cell_formula_units_Z   1
loop_
 _symmetry_equiv_pos_site_id
 _symmetry_equiv_pos_as_xyz
  1  'x, y, z'
loop_
 _atom_site_type_symbol
 _atom_site_label
 _atom_site_symmetry_multiplicity
 _atom_site_fract_x
 _atom_site_fract_y
 _atom_site_fract_z
 _atom_site_occupancy
  Ta  Ta0  1  0.86823920  0.19363335  0.06187255  1
  Ta  Ta1  1  0.12943005  0.80453919  0.93396924  1
  Ta  Ta2  1  0.19482944  0.13172415  0.32655459  1
  Ta  Ta3  1  0.80342949  0.86941667  0.67284516  1
  Ta  Ta4  1  0.49884546  0.50009919  0.99894465  1
  Si  Si0  1  0.76166743  0.44450657  0.20617399  1
  Ni  Ni0  1  0.61045683  0.08590551  0.69636234  1
  Ni  Ni1  1  0.39431329  0.91300135  0.30731364  1
  Ni  Ni2  1  0.08501947  0.38929770  0.47431617  1
  Ni  Ni3  1  0.91520373  0.61382877  0.52903449  1
  P  P0  1  0.23899185  0.55468402  0.79367486  1
  P  P1  1  0.44435636  0.24114558  0.68550194  1
  P  P2  1  0.55521840  0.75821897  0.31343638  1
loop_
_geom_bond_atom_site_label_1
_geom_bond_atom_site_label_2
_geom_bond_distance
_geom_bond_site_symmetry_2
Si0 Ta1 2.599757 1_544
Si0 Ta1 2.599758 1_654
Si0 Ta2 2.644716 1_665
Si0 Ta2 2.644719 1_555
Si0 Ta4 2.662411 1_554
Si0 Ta0 2.706415 1_555
Ni0 P0 2.194409 1_545
Ni0 P0 2.194412 1_655
Ni0 P1 2.254477 1_555
Ni0 Ni1 2.749618 1_545
Ni1 P2 2.214051 1_555
Ni1 Si0 2.218704 1_565
Ni1 Si0 2.218707 1_455
Ni1 Ni2 2.593279 1_665
Ni1 Ni2 2.593279 1_555
Ni1 Ni3 2.669617 1_565
Ni1 Ni3 2.669624 1_455
Ni1 Ta0 2.814449 1_565
Ni1 Ta0 2.814451 1_455
Ni1 Ta1 2.840682 1_554
Ni1 Ta2 2.936141 1_565
Ni2 P2 2.209880 1_445
Ni2 P2 2.209881 1_555
Ni2 P0 2.245629 1_555
Ni3 P1 2.187154 1_555
Ni3 P1 2.187159 1_665
Ni3 Si0 2.271589 1_555
P0 Ta0 2.579465 1_566
P0 Ta0 2.579468 1_456
P0 Ta3 2.625261 1_445
P0 Ta3 2.625261 1_555
P0 Ta4 2.631572 1_555
P0 Ta1 2.708798 1_555
P1 Ta3 2.582161 1_445
P1 Ta3 2.582163 1_555
P1 Ta1 2.620129 1_655
P1 Ta1 2.620130 1_545
P1 Ta4 2.631246 1_555
P1 Ta2 2.704293 1_555
P2 Ta2 2.566460 1_665
P2 Ta2 2.566465 1_555
P2 Ta4 2.627075 1_554
P2 Ta0 2.636273 1_565
P2 Ta0 2.636275 1_455
P2 Ta3 2.699575 1_555
