# generated using pymatgen
data_Y20Al5CdCo2
_symmetry_space_group_name_H-M   'P 1'
_cell_length_a   9.58806635
_cell_length_b   9.63897554
_cell_length_c   9.59956450
_cell_angle_alpha   90.00000000
_cell_angle_beta   90.00000000
_cell_angle_gamma   120.17579387
_symmetry_Int_Tables_number   1
_chemical_formula_structural   Y20Al5CdCo2
_chemical_formula_sum   'Y20 Al5 Cd1 Co2'
_cell_volume   766.95878559
_cell_formula_units_Z   1
loop_
 _symmetry_equiv_pos_site_id
 _symmetry_equiv_pos_as_xyz
  1  'x, y, z'
loop_
 _atom_site_type_symbol
 _atom_site_label
 _atom_site_symmetry_multiplicity
 _atom_site_fract_x
 _atom_site_fract_y
 _atom_site_fract_z
 _atom_site_occupancy
  Y  Y0  1  0.99789307  0.99894704  0.50166639  1
  Y  Y1  1  0.99789307  0.99894704  0.99833361  1
  Y  Y2  1  0.54397651  0.45644901  0.25000000  1
  Y  Y3  1  0.54397651  0.08752750  0.25000000  1
  Y  Y4  1  0.91814192  0.45906996  0.25000000  1
  Y  Y5  1  0.45884503  0.54399641  0.75000000  1
  Y  Y6  1  0.45884503  0.91484962  0.75000000  1
  Y  Y7  1  0.08684245  0.54342173  0.75000000  1
  Y  Y8  1  0.21030342  0.79151588  0.43635583  1
  Y  Y9  1  0.21030342  0.41878854  0.43635583  1
  Y  Y10  1  0.57762511  0.78881355  0.43185877  1
  Y  Y11  1  0.79061575  0.21143076  0.56341435  1
  Y  Y12  1  0.79061575  0.57918399  0.56341435  1
  Y  Y13  1  0.41923064  0.20961432  0.56570482  1
  Y  Y14  1  0.79061575  0.21143076  0.93658565  1
  Y  Y15  1  0.79061575  0.57918399  0.93658565  1
  Y  Y16  1  0.41923064  0.20961432  0.93429518  1
  Y  Y17  1  0.21030342  0.79151588  0.06364417  1
  Y  Y18  1  0.21030342  0.41878854  0.06364417  1
  Y  Y19  1  0.57762511  0.78881355  0.06814123  1
  Al  Al0  1  0.88655807  0.11238239  0.25000000  1
  Al  Al1  1  0.88655807  0.77417468  0.25000000  1
  Al  Al2  1  0.22424225  0.11212113  0.25000000  1
  Al  Al3  1  0.11658429  0.88671497  0.75000000  1
  Al  Al4  1  0.11658429  0.22986832  0.75000000  1
  Cd  Cd0  1  0.77182979  0.88591439  0.75000000  1
  Co  Co0  1  0.32542385  0.66271242  0.25000000  1
  Co  Co1  1  0.66842161  0.33421030  0.75000000  1
loop_
_geom_bond_atom_site_label_1
_geom_bond_atom_site_label_2
_geom_bond_distance
_geom_bond_site_symmetry_2
Y0 Y13 3.546058 1_665
Y0 Y10 3.547371 1_555
Y0 Y11 3.547946 1_565
Y0 Y12 3.547963 1_555
Y0 Y8 3.554178 1_655
Y0 Y9 3.554178 1_665
Y1 Y16 3.546058 1_665
Y1 Y19 3.547371 1_556
Y1 Y14 3.547946 1_565
Y1 Y15 3.547963 1_555
Y1 Y17 3.554178 1_656
Y1 Y18 3.554178 1_666
Y2 Y9 3.521352 1_555
Y2 Y3 3.556025 1_555
Y2 Y4 3.574891 1_555
Y3 Y8 3.521349 1_545
Y3 Y4 3.574881 1_555
Y4 Y9 3.505930 1_655
Y4 Y8 3.505945 1_655
Y5 Y7 3.564004 1_555
Y5 Y6 3.574645 1_555
Y5 Y9 3.648192 1_555
Y6 Y7 3.564004 1_555
Y6 Y8 3.648192 1_555
Y7 Y9 3.652303 1_555
Y7 Y8 3.652303 1_555
Y10 Y3 3.517953 1_565
Y10 Y2 3.517970 1_555
Y10 Y6 3.672988 1_555
Y10 Y5 3.672993 1_555
Y11 Y6 3.515329 1_545
Y11 Y7 3.518283 1_655
Y11 Y3 3.637479 1_555
Y11 Y4 3.648365 1_555
Y12 Y5 3.515336 1_555
Y12 Y7 3.518273 1_655
Y12 Y2 3.637479 1_555
Y12 Y4 3.648369 1_555
Y13 Y6 3.525856 1_545
Y13 Y5 3.525881 1_555
Y13 Y3 3.662668 1_555
Y13 Y2 3.662678 1_555
Y14 Y6 3.515329 1_545
Y14 Y7 3.518283 1_655
Y14 Y3 3.637479 1_556
Y14 Y4 3.648365 1_556
Y15 Y5 3.515336 1_555
Y15 Y7 3.518273 1_655
Y15 Y2 3.637479 1_556
Y15 Y4 3.648369 1_556
Y16 Y6 3.525856 1_545
Y16 Y5 3.525881 1_555
Y16 Y3 3.662668 1_556
Y16 Y2 3.662678 1_556
Y17 Y4 3.505945 1_455
Y17 Y3 3.521349 1_565
Y17 Y6 3.648192 1_554
Y17 Y7 3.652303 1_554
Y18 Y4 3.505930 1_455
Y18 Y2 3.521352 1_555
Y18 Y5 3.648192 1_554
Y18 Y7 3.652303 1_554
Y19 Y3 3.517953 1_565
Y19 Y2 3.517970 1_555
Y19 Y6 3.672988 1_554
Y19 Y5 3.672993 1_554
Al0 Y1 3.056952 1_544
Al0 Y0 3.056952 1_545
Al0 Y3 3.171042 1_555
Al0 Y4 3.200221 1_555
Al0 Y11 3.419438 1_555
Al0 Y14 3.419438 1_554
Al0 Y10 3.501649 1_545
Al0 Y19 3.501649 1_545
Al0 Y9 3.513127 1_655
Al0 Y18 3.513127 1_655
Al1 Y1 3.056963 1_554
Al1 Y0 3.056963 1_555
Al1 Y2 3.171037 1_555
Al1 Y4 3.200230 1_555
Al1 Y12 3.419438 1_555
Al1 Y15 3.419438 1_554
Al1 Y10 3.501663 1_555
Al1 Y19 3.501663 1_555
Al1 Y8 3.513119 1_655
Al1 Y17 3.513119 1_655
Al2 Y1 3.058835 1_444
Al2 Y0 3.058835 1_445
Al2 Y3 3.191378 1_555
Al2 Y2 3.191378 1_555
Al2 Y13 3.434655 1_555
Al2 Y16 3.434655 1_554
Al2 Y8 3.514675 1_545
Al2 Y17 3.514675 1_545
Al2 Y9 3.514683 1_555
Al2 Y18 3.514683 1_555
Al3 Y0 3.063655 1_455
Al3 Y1 3.063655 1_455
Al3 Y6 3.154029 1_555
Al3 Y7 3.175239 1_555
Al3 Cd0 3.301657 1_455
Al3 Y17 3.397591 1_556
Al3 Y8 3.397591 1_555
Al3 Y16 3.486819 1_565
Al3 Y13 3.486819 1_565
Al3 Y15 3.528392 1_455
Al3 Y12 3.528392 1_455
Al4 Y0 3.063645 1_445
Al4 Y1 3.063645 1_445
Al4 Y5 3.154038 1_555
Al4 Y7 3.175258 1_555
Al4 Cd0 3.301657 1_445
Al4 Y18 3.397599 1_556
Al4 Y9 3.397599 1_555
Al4 Y16 3.486824 1_555
Al4 Y13 3.486824 1_555
Al4 Y11 3.528392 1_455
Al4 Y14 3.528392 1_455
Cd0 Y0 3.032164 1_555
Cd0 Y1 3.032164 1_555
Cd0 Y5 3.150341 1_555
Cd0 Y6 3.150352 1_555
Cd0 Y19 3.452276 1_556
Cd0 Y10 3.452276 1_555
Cd0 Y12 3.537977 1_555
Cd0 Y15 3.537977 1_555
Cd0 Y11 3.537977 1_565
Cd0 Y14 3.537977 1_565
Co0 Y8 2.708816 1_555
Co0 Y17 2.708816 1_555
Co0 Y9 2.708817 1_555
Co0 Y18 2.708817 1_555
Co0 Y10 2.723530 1_555
Co0 Y19 2.723530 1_555
Co0 Y4 3.375863 1_455
Co0 Y3 3.540083 1_565
Co0 Y2 3.540091 1_555
Co1 Y14 2.715762 1_555
Co1 Y11 2.715762 1_555
Co1 Y12 2.715762 1_555
Co1 Y15 2.715762 1_555
Co1 Y16 2.719583 1_555
Co1 Y13 2.719583 1_555
Co1 Y7 3.468190 1_655
Co1 Y6 3.494508 1_545
Co1 Y5 3.494525 1_555
