# generated using pymatgen
data_Zr3AlCu2N
_symmetry_space_group_name_H-M   'P 1'
_cell_length_a   8.46791297
_cell_length_b   8.46791260
_cell_length_c   8.46791425
_cell_angle_alpha   60.00000125
_cell_angle_beta   60.00000270
_cell_angle_gamma   60.00000704
_symmetry_Int_Tables_number   1
_chemical_formula_structural   Zr3AlCu2N
_chemical_formula_sum   'Zr12 Al4 Cu8 N4'
_cell_volume   429.35274382
_cell_formula_units_Z   4
loop_
 _symmetry_equiv_pos_site_id
 _symmetry_equiv_pos_as_xyz
  1  'x, y, z'
loop_
 _atom_site_type_symbol
 _atom_site_label
 _atom_site_symmetry_multiplicity
 _atom_site_fract_x
 _atom_site_fract_y
 _atom_site_fract_z
 _atom_site_occupancy
  Zr  Zr0  1  0.81070537  0.18929463  0.18929463  1
  Zr  Zr1  1  0.18929463  0.81070537  0.18929463  1
  Zr  Zr2  1  0.81070537  0.81070537  0.18929463  1
  Zr  Zr3  1  0.18929463  0.81070537  0.81070537  1
  Zr  Zr4  1  0.81070537  0.18929463  0.81070537  1
  Zr  Zr5  1  0.18929463  0.18929463  0.81070537  1
  Zr  Zr6  1  0.43929463  0.06070537  0.06070537  1
  Zr  Zr7  1  0.06070537  0.43929463  0.06070537  1
  Zr  Zr8  1  0.43929463  0.43929463  0.06070537  1
  Zr  Zr9  1  0.06070537  0.43929463  0.43929463  1
  Zr  Zr10  1  0.43929463  0.06070537  0.43929463  1
  Zr  Zr11  1  0.06070537  0.06070537  0.43929463  1
  Al  Al0  1  0.62500000  0.62500000  0.12500000  1
  Al  Al1  1  0.62500000  0.62500000  0.62500000  1
  Al  Al2  1  0.12500000  0.62500000  0.62500000  1
  Al  Al3  1  0.62500000  0.12500000  0.62500000  1
  Cu  Cu0  1  0.41993686  0.41993686  0.74019042  1
  Cu  Cu1  1  0.41993686  0.41993686  0.41993686  1
  Cu  Cu2  1  0.74019042  0.41993686  0.41993686  1
  Cu  Cu3  1  0.41993686  0.74019042  0.41993686  1
  Cu  Cu4  1  0.83006314  0.83006314  0.50980958  1
  Cu  Cu5  1  0.83006314  0.83006314  0.83006314  1
  Cu  Cu6  1  0.50980958  0.83006314  0.83006314  1
  Cu  Cu7  1  0.83006314  0.50980958  0.83006314  1
  N  N0  1  0.12500000  0.12500000  0.62500000  1
  N  N1  1  0.12500000  0.12500000  0.12500000  1
  N  N2  1  0.62500000  0.12500000  0.12500000  1
  N  N3  1  0.12500000  0.62500000  0.12500000  1
loop_
_geom_bond_atom_site_label_1
_geom_bond_atom_site_label_2
_geom_bond_distance
_geom_bond_site_symmetry_2
Al0 Cu5 2.570944 1_554
Al0 Cu1 2.570944 1_555
Al0 Cu2 2.570948 1_555
Al0 Cu6 2.570948 1_554
Al0 Cu3 2.570948 1_555
Al0 Cu7 2.570948 1_554
Al0 Zr2 3.070398 1_555
Al0 Zr8 3.070398 1_555
Al0 Zr6 3.070398 1_565
Al0 Zr0 3.070398 1_555
Al0 Zr7 3.070398 1_655
Al0 Zr1 3.070398 1_555
Al1 Cu4 2.570941 1_555
Al1 Cu0 2.570941 1_555
Al1 Cu6 2.570941 1_555
Al1 Cu2 2.570941 1_555
Al1 Cu7 2.570941 1_555
Al1 Cu3 2.570941 1_555
Al1 Zr10 3.070398 1_565
Al1 Zr4 3.070398 1_555
Al1 Zr9 3.070398 1_655
Al1 Zr3 3.070398 1_555
Al1 Zr2 3.070398 1_555
Al1 Zr8 3.070398 1_556
Al2 Cu5 2.570944 1_455
Al2 Cu1 2.570944 1_555
Al2 Cu3 2.570948 1_555
Al2 Cu7 2.570948 1_455
Al2 Cu0 2.570948 1_555
Al2 Cu4 2.570948 1_455
Al2 Zr11 3.070398 1_565
Al2 Zr5 3.070398 1_555
Al2 Zr3 3.070398 1_555
Al2 Zr9 3.070398 1_555
Al2 Zr7 3.070398 1_556
Al2 Zr1 3.070398 1_555
Al3 Cu5 2.570944 1_545
Al3 Cu1 2.570944 1_555
Al3 Cu2 2.570948 1_555
Al3 Cu6 2.570948 1_545
Al3 Cu0 2.570948 1_555
Al3 Cu4 2.570948 1_545
Al3 Zr4 3.070398 1_555
Al3 Zr10 3.070398 1_555
Al3 Zr11 3.070398 1_655
Al3 Zr5 3.070398 1_555
Al3 Zr6 3.070398 1_556
Al3 Zr0 3.070398 1_555
Cu0 Cu3 2.711880 1_555
Cu0 Cu2 2.711880 1_555
Cu0 Cu1 2.711880 1_555
Cu0 Zr8 2.887334 1_556
Cu0 Zr6 2.887339 1_556
Cu0 Zr7 2.887339 1_556
Cu0 Zr3 3.076916 1_555
Cu0 Zr4 3.076916 1_555
Cu0 Zr5 3.076923 1_555
Cu1 Cu3 2.711879 1_555
Cu1 Cu2 2.711879 1_555
Cu1 Zr10 2.887342 1_555
Cu1 Zr9 2.887342 1_555
Cu1 Zr8 2.887343 1_555
Cu1 Zr5 3.076920 1_555
Cu1 Zr1 3.076920 1_555
Cu1 Zr0 3.076920 1_555
Cu2 Cu3 2.711880 1_555
Cu2 Zr9 2.887334 1_655
Cu2 Zr11 2.887339 1_655
Cu2 Zr7 2.887339 1_655
Cu2 Zr2 3.076916 1_555
Cu2 Zr4 3.076917 1_555
Cu2 Zr0 3.076924 1_555
Cu3 Zr10 2.887334 1_565
Cu3 Zr6 2.887339 1_565
Cu3 Zr11 2.887339 1_565
Cu3 Zr2 3.076916 1_555
Cu3 Zr3 3.076917 1_555
Cu3 Zr1 3.076924 1_555
Cu4 Cu7 2.711880 1_555
Cu4 Cu6 2.711880 1_555
Cu4 Cu5 2.711880 1_555
Cu4 Zr2 2.887334 1_555
Cu4 Zr0 2.887339 1_565
Cu4 Zr1 2.887339 1_655
Cu4 Zr9 3.076916 1_655
Cu4 Zr10 3.076916 1_565
Cu4 Zr11 3.076923 1_665
Cu5 Cu7 2.711879 1_555
Cu5 Cu6 2.711879 1_555
Cu5 Zr4 2.887342 1_565
Cu5 Zr3 2.887342 1_655
Cu5 Zr2 2.887343 1_556
Cu5 Zr11 3.076920 1_665
Cu5 Zr7 3.076920 1_656
Cu5 Zr6 3.076920 1_566
Cu6 Cu7 2.711880 1_555
Cu6 Zr3 2.887334 1_555
Cu6 Zr5 2.887339 1_565
Cu6 Zr1 2.887339 1_556
Cu6 Zr8 3.076916 1_556
Cu6 Zr10 3.076917 1_565
Cu6 Zr6 3.076924 1_566
Cu7 Zr4 2.887334 1_555
Cu7 Zr0 2.887339 1_556
Cu7 Zr5 2.887339 1_655
Cu7 Zr8 3.076916 1_556
Cu7 Zr9 3.076917 1_655
Cu7 Zr7 3.076924 1_656
N0 Zr9 2.252650 1_555
N0 Zr3 2.252650 1_545
N0 Zr5 2.252650 1_555
N0 Zr11 2.252650 1_555
N0 Zr10 2.252650 1_555
N0 Zr4 2.252650 1_455
N1 Zr7 2.252649 1_555
N1 Zr1 2.252649 1_545
N1 Zr6 2.252650 1_555
N1 Zr0 2.252650 1_455
N1 Zr11 2.252650 1_555
N1 Zr5 2.252650 1_554
N2 Zr0 2.252649 1_555
N2 Zr6 2.252649 1_555
N2 Zr2 2.252650 1_545
N2 Zr8 2.252650 1_555
N2 Zr10 2.252650 1_555
N2 Zr4 2.252650 1_554
N3 Zr1 2.252649 1_555
N3 Zr7 2.252649 1_555
N3 Zr8 2.252650 1_555
N3 Zr2 2.252650 1_455
N3 Zr3 2.252650 1_554
N3 Zr9 2.252650 1_555
