# generated using pymatgen
data_Sr3Au2
_symmetry_space_group_name_H-M   'P 1'
_cell_length_a   8.33780221
_cell_length_b   8.33780164
_cell_length_c   8.33780240
_cell_angle_alpha   70.63211259
_cell_angle_beta   70.63211416
_cell_angle_gamma   70.63210817
_symmetry_Int_Tables_number   1
_chemical_formula_structural   Sr3Au2
_chemical_formula_sum   'Sr9 Au6'
_cell_volume   499.63265446
_cell_formula_units_Z   3
loop_
 _symmetry_equiv_pos_site_id
 _symmetry_equiv_pos_as_xyz
  1  'x, y, z'
loop_
 _atom_site_type_symbol
 _atom_site_label
 _atom_site_symmetry_multiplicity
 _atom_site_fract_x
 _atom_site_fract_y
 _atom_site_fract_z
 _atom_site_occupancy
  Sr  Sr0  1  0.16946143  0.89688867  0.65431641  1
  Sr  Sr1  1  0.89688867  0.65431641  0.16946143  1
  Sr  Sr2  1  0.65431641  0.16946143  0.89688867  1
  Sr  Sr3  1  0.83053857  0.10311133  0.34568359  1
  Sr  Sr4  1  0.10311133  0.34568359  0.83053857  1
  Sr  Sr5  1  0.34568359  0.83053857  0.10311133  1
  Sr  Sr6  1  0.50000000  0.50000000  0.50000000  1
  Sr  Sr7  1  0.30067125  0.30067225  0.30067125  1
  Sr  Sr8  1  0.69932875  0.69932775  0.69932875  1
  Au  Au0  1  0.54564716  0.90886446  0.34179441  1
  Au  Au1  1  0.90886446  0.34179441  0.54564716  1
  Au  Au2  1  0.34179441  0.54564716  0.90886446  1
  Au  Au3  1  0.45435284  0.09113554  0.65820559  1
  Au  Au4  1  0.09113554  0.65820559  0.45435284  1
  Au  Au5  1  0.65820559  0.45435284  0.09113554  1
loop_
_geom_bond_atom_site_label_1
_geom_bond_atom_site_label_2
_geom_bond_distance
_geom_bond_site_symmetry_2
Sr0 Sr6 3.824219 1_555
Sr1 Sr6 3.824219 1_555
Sr2 Sr6 3.824219 1_555
Sr3 Sr6 3.824219 1_555
Sr4 Sr6 3.824219 1_555
Sr5 Sr6 3.824219 1_555
Sr6 Sr7 3.712463 1_555
Sr6 Sr8 3.712463 1_555
Au0 Sr1 3.202308 1_555
Au0 Sr7 3.202739 1_565
Au0 Au3 3.226302 1_565
Au0 Sr3 3.302134 1_565
Au0 Sr5 3.309323 1_555
Au0 Sr6 3.324355 1_555
Au0 Sr8 3.342934 1_555
Au0 Sr0 3.354421 1_555
Au0 Sr2 3.610152 1_564
Au1 Sr2 3.202309 1_555
Au1 Sr7 3.202733 1_655
Au1 Au4 3.226302 1_655
Au1 Sr4 3.302134 1_655
Au1 Sr3 3.309323 1_555
Au1 Sr6 3.324356 1_555
Au1 Sr8 3.342926 1_555
Au1 Sr1 3.354421 1_555
Au1 Sr0 3.610152 1_645
Au2 Sr0 3.202308 1_555
Au2 Sr7 3.202730 1_556
Au2 Au5 3.226302 1_556
Au2 Sr5 3.302134 1_556
Au2 Sr4 3.309323 1_555
Au2 Sr6 3.324356 1_555
Au2 Sr8 3.342929 1_555
Au2 Sr2 3.354421 1_555
Au2 Sr1 3.610152 1_456
Au3 Sr4 3.202308 1_555
Au3 Sr8 3.202739 1_545
Au3 Sr0 3.302134 1_545
Au3 Sr2 3.309323 1_555
Au3 Sr6 3.324355 1_555
Au3 Sr7 3.342934 1_555
Au3 Sr3 3.354421 1_555
Au3 Sr5 3.610152 1_546
Au4 Sr5 3.202309 1_555
Au4 Sr8 3.202733 1_455
Au4 Sr1 3.302134 1_455
Au4 Sr0 3.309323 1_555
Au4 Sr6 3.324356 1_555
Au4 Sr7 3.342926 1_555
Au4 Sr4 3.354421 1_555
Au4 Sr3 3.610152 1_465
Au5 Sr3 3.202308 1_555
Au5 Sr8 3.202730 1_554
Au5 Sr2 3.302134 1_554
Au5 Sr1 3.309323 1_555
Au5 Sr6 3.324356 1_555
Au5 Sr7 3.342929 1_555
Au5 Sr5 3.354421 1_555
Au5 Sr4 3.610152 1_654
