# generated using pymatgen
data_Ba3AgSbO6
_symmetry_space_group_name_H-M   'P 1'
_cell_length_a   7.20878843
_cell_length_b   7.20878882
_cell_length_c   7.20878874
_cell_angle_alpha   90.65827595
_cell_angle_beta   90.65827792
_cell_angle_gamma   90.65826522
_symmetry_Int_Tables_number   1
_chemical_formula_structural   Ba3AgSbO6
_chemical_formula_sum   'Ba6 Ag2 Sb2 O12'
_cell_volume   374.54173643
_cell_formula_units_Z   2
loop_
 _symmetry_equiv_pos_site_id
 _symmetry_equiv_pos_as_xyz
  1  'x, y, z'
loop_
 _atom_site_type_symbol
 _atom_site_label
 _atom_site_symmetry_multiplicity
 _atom_site_fract_x
 _atom_site_fract_y
 _atom_site_fract_z
 _atom_site_occupancy
  Ba  Ba0  1  0.40210398  0.75000000  0.09789602  1
  Ba  Ba1  1  0.09789602  0.40210398  0.75000000  1
  Ba  Ba2  1  0.59789602  0.25000000  0.90210398  1
  Ba  Ba3  1  0.90210398  0.59789602  0.25000000  1
  Ba  Ba4  1  0.75000000  0.09789602  0.40210398  1
  Ba  Ba5  1  0.25000000  0.90210398  0.59789602  1
  Ag  Ag0  1  0.25000000  0.25000000  0.25000000  1
  Ag  Ag1  1  0.75000000  0.75000000  0.75000000  1
  Sb  Sb0  1  0.00000000  0.00000000  0.00000000  1
  Sb  Sb1  1  0.50000000  0.50000000  0.50000000  1
  O  O0  1  0.57937205  0.76267235  0.44287685  1
  O  O1  1  0.44287685  0.57937205  0.76267235  1
  O  O2  1  0.76267235  0.44287685  0.57937205  1
  O  O3  1  0.92062795  0.05712315  0.73732765  1
  O  O4  1  0.73732765  0.92062795  0.05712315  1
  O  O5  1  0.05712315  0.73732765  0.92062795  1
  O  O6  1  0.42062795  0.23732765  0.55712315  1
  O  O7  1  0.55712315  0.42062795  0.23732765  1
  O  O8  1  0.23732765  0.55712315  0.42062795  1
  O  O9  1  0.07937205  0.94287685  0.26267235  1
  O  O10  1  0.94287685  0.26267235  0.07937205  1
  O  O11  1  0.26267235  0.07937205  0.94287685  1
loop_
_geom_bond_atom_site_label_1
_geom_bond_atom_site_label_2
_geom_bond_distance
_geom_bond_site_symmetry_2
Ba0 O1 2.719451 1_554
Ba0 O4 2.719452 1_555
Ba0 O5 2.782995 1_554
Ba0 O0 2.782995 1_555
Ba0 O7 2.826083 1_555
Ba0 O11 2.826083 1_564
Ba0 O9 2.976021 1_555
Ba0 O8 2.976022 1_555
Ba1 O2 2.719451 1_455
Ba1 O5 2.719451 1_555
Ba1 O1 2.782995 1_555
Ba1 O3 2.782995 1_455
Ba1 O10 2.826083 1_456
Ba1 O8 2.826083 1_555
Ba1 O6 2.976021 1_555
Ba1 O11 2.976021 1_555
Ba2 O7 2.719451 1_556
Ba2 O11 2.719452 1_555
Ba2 O10 2.782995 1_556
Ba2 O6 2.782995 1_555
Ba2 O1 2.826083 1_555
Ba2 O4 2.826083 1_546
Ba2 O3 2.976021 1_555
Ba2 O2 2.976022 1_555
Ba3 O8 2.719451 1_655
Ba3 O10 2.719451 1_555
Ba3 O7 2.782995 1_555
Ba3 O9 2.782995 1_655
Ba3 O5 2.826083 1_654
Ba3 O2 2.826083 1_555
Ba3 O0 2.976021 1_555
Ba3 O4 2.976021 1_555
Ba4 O3 2.719451 1_555
Ba4 O0 2.719452 1_545
Ba4 O4 2.782995 1_545
Ba4 O2 2.782995 1_555
Ba4 O9 2.826083 1_645
Ba4 O6 2.826083 1_555
Ba4 O7 2.976021 1_555
Ba4 O10 2.976022 1_555
Ba5 O9 2.719451 1_555
Ba5 O6 2.719452 1_565
Ba5 O11 2.782995 1_565
Ba5 O8 2.782995 1_555
Ba5 O3 2.826083 1_465
Ba5 O0 2.826083 1_555
Ba5 O1 2.976021 1_555
Ba5 O5 2.976022 1_555
Ag0 O10 2.523427 1_455
Ag0 O6 2.523427 1_555
Ag0 O11 2.523427 1_554
Ag0 O8 2.523427 1_555
Ag0 O7 2.523427 1_555
Ag0 O9 2.523427 1_545
Ag1 O5 2.523427 1_655
Ag1 O0 2.523427 1_555
Ag1 O4 2.523427 1_556
Ag1 O2 2.523427 1_555
Ag1 O1 2.523427 1_555
Ag1 O3 2.523427 1_565
O0 Sb1 2.020129 1_555
O1 Sb1 2.020129 1_555
O2 Sb1 2.020129 1_555
O3 Sb0 2.020129 1_656
O4 Sb0 2.020129 1_665
O5 Sb0 2.020129 1_566
O6 Sb1 2.020129 1_555
O7 Sb1 2.020129 1_555
O8 Sb1 2.020129 1_555
O9 Sb0 2.020129 1_565
O10 Sb0 2.020129 1_655
O11 Sb0 2.020129 1_556
