# generated using pymatgen
data_Li4B4Ru3Rh
_symmetry_space_group_name_H-M   'P 1'
_cell_length_a   6.75120264
_cell_length_b   5.96066963
_cell_length_c   5.54065803
_cell_angle_alpha   71.79145186
_cell_angle_beta   57.02807302
_cell_angle_gamma   50.74206103
_symmetry_Int_Tables_number   1
_chemical_formula_structural   Li4B4Ru3Rh
_chemical_formula_sum   'Li4 B4 Ru3 Rh1'
_cell_volume   144.66191934
_cell_formula_units_Z   1
loop_
 _symmetry_equiv_pos_site_id
 _symmetry_equiv_pos_as_xyz
  1  'x, y, z'
loop_
 _atom_site_type_symbol
 _atom_site_label
 _atom_site_symmetry_multiplicity
 _atom_site_fract_x
 _atom_site_fract_y
 _atom_site_fract_z
 _atom_site_occupancy
  Li  Li0  1  0.12327327  0.62535142  0.62065058  1
  Li  Li1  1  0.62238904  0.62388215  0.62921109  1
  Li  Li2  1  0.62384291  0.62284492  0.12468889  1
  Li  Li3  1  0.62520615  0.12222262  0.63116213  1
  B  B0  1  0.43047965  0.06958081  0.43317871  1
  B  B1  1  0.17282177  0.82888037  0.17978080  1
  B  B2  1  0.06955902  0.43055655  0.06665342  1
  B  B3  1  0.82884295  0.17279554  0.81849945  1
  Ru  Ru0  1  0.86355161  0.86362262  0.13644690  1
  Ru  Ru1  1  0.13633447  0.13640122  0.86358793  1
  Ru  Ru2  1  0.11602537  0.11623850  0.38386496  1
  Rh  Rh0  1  0.38767379  0.38762327  0.11227414  1
loop_
_geom_bond_atom_site_label_1
_geom_bond_atom_site_label_2
_geom_bond_distance
_geom_bond_site_symmetry_2
Li0 Rh0 2.636041 1_555
Li0 Ru0 2.681315 1_456
Li0 Ru1 2.768750 1_555
Li0 Ru2 2.788329 1_565
Li1 Ru1 2.634504 1_565
Li1 Ru2 2.643329 1_655
Li1 Rh0 2.740466 1_556
Li1 Ru0 2.795543 1_555
Li2 Ru1 2.635834 1_654
Li2 Ru2 2.642886 1_565
Li2 Rh0 2.742574 1_555
Li2 Ru0 2.792085 1_555
Li3 Rh0 2.636641 1_556
Li3 Ru0 2.679387 1_545
Li3 Ru1 2.765387 1_555
Li3 Ru2 2.792458 1_655
B0 Ru1 2.056003 1_555
B0 Ru0 2.060340 1_545
B0 Ru2 2.120265 1_555
B0 Rh0 2.144323 1_555
B0 Li1 2.299627 1_545
B0 Li3 2.310175 1_555
B1 Ru2 2.065609 1_565
B1 Rh0 2.087474 1_555
B1 Ru1 2.093137 1_564
B1 Ru0 2.104137 1_455
B1 Li0 2.307103 1_555
B1 Li2 2.315782 1_555
B1 Li3 2.732710 1_465
B1 Li1 2.751135 1_554
B2 Ru1 2.055184 1_554
B2 Ru0 2.059599 1_455
B2 Ru2 2.120373 1_555
B2 Rh0 2.143984 1_555
B2 Li2 2.298686 1_455
B2 Li0 2.313137 1_554
B3 Ru2 2.066412 1_655
B3 Rh0 2.087802 1_556
B3 Ru1 2.092759 1_655
B3 Ru0 2.104364 1_546
B3 Li3 2.309025 1_555
B3 Li1 2.314701 1_555
B3 Li0 2.730461 1_645
B3 Li2 2.753088 1_556
