# generated using pymatgen
data_Cs2Te3RhO12
_symmetry_space_group_name_H-M   'P 1'
_cell_length_a   7.12014967
_cell_length_b   7.23336057
_cell_length_c   7.14269351
_cell_angle_alpha   90.00000311
_cell_angle_beta   61.17392558
_cell_angle_gamma   120.52737214
_symmetry_Int_Tables_number   1
_chemical_formula_structural   Cs2Te3RhO12
_chemical_formula_sum   'Cs2 Te3 Rh1 O12'
_cell_volume   262.58513599
_cell_formula_units_Z   1
loop_
 _symmetry_equiv_pos_site_id
 _symmetry_equiv_pos_as_xyz
  1  'x, y, z'
loop_
 _atom_site_type_symbol
 _atom_site_label
 _atom_site_symmetry_multiplicity
 _atom_site_fract_x
 _atom_site_fract_y
 _atom_site_fract_z
 _atom_site_occupancy
  Cs  Cs0  1  0.25432388  0.12428838  0.62055665  1
  Cs  Cs1  1  0.74567612  0.86996450  0.37944335  1
  Te  Te0  1  0.49994671  0.49738973  0.00006065  1
  Te  Te1  1  0.50005329  0.99744302  0.99993935  1
  Te  Te2  1  1.00000000  0.49742784  0.50000000  1
  Rh  Rh0  1  1.00000000  0.49732349  0.00000000  1
  O  O0  1  0.64142711  0.81809204  0.93427796  1
  O  O1  1  0.84960799  0.42214724  0.33253851  1
  O  O2  1  0.26125131  0.43161280  0.91796024  1
  O  O3  1  0.24785785  0.81711082  0.31690664  1
  O  O4  1  0.26144161  0.82427870  0.91783781  1
  O  O5  1  0.24789436  0.42558154  0.31705504  1
  O  O6  1  0.35857289  0.17666393  0.06572204  1
  O  O7  1  0.15039201  0.57253924  0.66746149  1
  O  O8  1  0.73855839  0.56283709  0.08216219  1
  O  O9  1  0.75210564  0.17768718  0.68294496  1
  O  O10  1  0.73874869  0.17036149  0.08203976  1
  O  O11  1  0.75214215  0.56925297  0.68309336  1
loop_
_geom_bond_atom_site_label_1
_geom_bond_atom_site_label_2
_geom_bond_distance
_geom_bond_site_symmetry_2
Cs0 O1 3.025497 1_555
Cs0 O4 3.071821 1_545
Cs0 O2 3.073475 1_555
Cs0 O3 3.104107 1_545
Cs0 O5 3.106157 1_555
Cs0 O0 3.117981 1_445
Cs1 O7 3.025497 1_555
Cs1 O8 3.071821 1_555
Cs1 O10 3.073475 1_565
Cs1 O11 3.104107 1_555
Cs1 O9 3.106156 1_565
Cs1 O6 3.117981 1_665
O0 Te0 1.945867 1_556
O0 Te1 1.946180 1_555
O1 Te2 1.875265 1_555
O1 Rh0 2.009934 1_555
O2 Te0 1.896921 1_556
O2 Rh0 1.968894 1_456
O3 Te1 1.936956 1_554
O3 Te2 1.949501 1_455
O4 Te1 1.896868 1_555
O4 Rh0 1.968980 1_456
O5 Te0 1.936945 1_555
O5 Te2 1.949551 1_455
O6 Te1 1.945860 1_544
O6 Te0 1.946187 1_555
O7 Te2 1.875265 1_455
O7 Rh0 2.009934 1_456
O8 Te0 1.896868 1_555
O8 Rh0 1.968979 1_555
O9 Te1 1.936945 1_545
O9 Te2 1.949551 1_555
O10 Te1 1.896921 1_544
O10 Rh0 1.968894 1_555
O11 Te0 1.936956 1_556
O11 Te2 1.949501 1_555
