# generated using pymatgen
data_Cs6Nb2Se3S5
_symmetry_space_group_name_H-M   'P 1'
_cell_length_a   10.20701579
_cell_length_b   10.14221435
_cell_length_c   11.79649285
_cell_angle_alpha   89.82531243
_cell_angle_beta   90.00000000
_cell_angle_gamma   90.00000000
_symmetry_Int_Tables_number   1
_chemical_formula_structural   Cs6Nb2Se3S5
_chemical_formula_sum   'Cs12 Nb4 Se6 S10'
_cell_volume   1221.18781365
_cell_formula_units_Z   2
loop_
 _symmetry_equiv_pos_site_id
 _symmetry_equiv_pos_as_xyz
  1  'x, y, z'
loop_
 _atom_site_type_symbol
 _atom_site_label
 _atom_site_symmetry_multiplicity
 _atom_site_fract_x
 _atom_site_fract_y
 _atom_site_fract_z
 _atom_site_occupancy
  Cs  Cs0  1  0.84780787  0.91181954  0.74636593  1
  Cs  Cs1  1  0.34780787  0.58818046  0.75363407  1
  Cs  Cs2  1  0.14966970  0.08584849  0.24750347  1
  Cs  Cs3  1  0.64966970  0.41415151  0.25249653  1
  Cs  Cs4  1  0.05263609  0.29809689  0.54309536  1
  Cs  Cs5  1  0.55263609  0.20190311  0.95690464  1
  Cs  Cs6  1  0.95198988  0.70725480  0.04564739  1
  Cs  Cs7  1  0.45198988  0.79274520  0.45435261  1
  Cs  Cs8  1  0.95263788  0.70637036  0.45473735  1
  Cs  Cs9  1  0.45263788  0.79362964  0.04526265  1
  Cs  Cs10  1  0.04218659  0.29165837  0.95887672  1
  Cs  Cs11  1  0.54218659  0.20834163  0.54112328  1
  Nb  Nb0  1  0.78155666  0.47992949  0.74944725  1
  Nb  Nb1  1  0.28155666  0.02007051  0.75055275  1
  Nb  Nb2  1  0.22068407  0.51667088  0.25182189  1
  Nb  Nb3  1  0.72068407  0.98332912  0.24817811  1
  Se  Se0  1  0.83324879  0.05208597  0.41857719  1
  Se  Se1  1  0.33324879  0.44791403  0.08142281  1
  Se  Se2  1  0.16548097  0.95048250  0.91887298  1
  Se  Se3  1  0.66548097  0.54951750  0.58112702  1
  Se  Se4  1  0.16815579  0.95464364  0.57991798  1
  Se  Se5  1  0.66815579  0.54535636  0.92008202  1
  S  S0  1  0.79638196  0.25570020  0.74734185  1
  S  S1  1  0.29638196  0.24429980  0.75265815  1
  S  S2  1  0.20584292  0.74159924  0.25053291  1
  S  S3  1  0.70584292  0.75840076  0.24946709  1
  S  S4  1  0.98726994  0.56967894  0.74915835  1
  S  S5  1  0.48726994  0.93032106  0.75084165  1
  S  S6  1  0.01359779  0.42901576  0.25288454  1
  S  S7  1  0.51359779  0.07098424  0.24711546  1
  S  S8  1  0.83085408  0.04736099  0.08889996  1
  S  S9  1  0.33085408  0.45263901  0.41110004  1
loop_
_geom_bond_atom_site_label_1
_geom_bond_atom_site_label_2
_geom_bond_distance
_geom_bond_site_symmetry_2
Cs0 S0 3.527043 1_565
Cs0 S5 3.685184 1_555
Cs0 S4 3.750741 1_555
Cs0 Se4 3.838014 1_655
Cs0 Se2 3.848836 1_655
Cs0 Se0 4.118759 1_565
Cs1 S1 3.527043 1_555
Cs1 S4 3.685184 1_455
Cs1 S5 3.750741 1_555
Cs1 Se5 3.838014 1_555
Cs1 Se3 3.848836 1_555
Cs1 Se1 4.118759 1_556
Cs2 S2 3.538288 1_545
Cs2 S7 3.717681 1_555
Cs2 S6 3.748080 1_555
Cs2 S8 3.774502 1_455
Cs2 Se0 3.823179 1_455
Cs2 Se2 4.119719 1_544
Cs2 Se4 4.141420 1_545
Cs3 S3 3.538288 1_555
Cs3 S6 3.717681 1_655
Cs3 S7 3.748080 1_555
Cs3 S9 3.774502 1_555
Cs3 Se1 3.823179 1_555
Cs3 Se3 4.119719 1_555
Cs3 Se5 4.141420 1_554
Cs4 S1 3.548313 1_555
Cs4 S0 3.581209 1_455
Cs4 S9 3.595926 1_555
Cs4 Se0 3.663314 1_455
Cs4 S6 3.689753 1_555
Cs4 Se4 3.701847 1_545
Cs4 S4 3.739227 1_455
Cs5 S0 3.548313 1_555
Cs5 S1 3.581209 1_555
Cs5 S8 3.595926 1_556
Cs5 Se1 3.663314 1_556
Cs5 S7 3.689753 1_556
Cs5 Se5 3.701847 1_555
Cs5 S5 3.739227 1_545
Cs6 S3 3.517088 1_555
Cs6 S2 3.561141 1_655
Cs6 Se2 3.612194 1_654
Cs6 Se5 3.646677 1_554
Cs6 S8 3.701135 1_565
Cs6 S6 3.780640 1_655
Cs6 S4 3.786698 1_554
Cs7 S2 3.517088 1_555
Cs7 S3 3.561141 1_555
Cs7 Se3 3.612194 1_555
Cs7 Se4 3.646677 1_555
Cs7 S9 3.701135 1_555
Cs7 S7 3.780640 1_565
Cs7 S5 3.786698 1_555
Cs8 S3 3.532670 1_555
Cs8 S2 3.550305 1_655
Cs8 Se3 3.651040 1_555
Cs8 Se4 3.658267 1_655
Cs8 Se0 3.735255 1_565
Cs8 S6 3.743102 1_655
Cs8 S4 3.752365 1_555
Cs9 S2 3.532670 1_555
Cs9 S3 3.550305 1_555
Cs9 Se2 3.651040 1_554
Cs9 Se5 3.658267 1_554
Cs9 Se1 3.735255 1_555
Cs9 S7 3.743102 1_565
Cs9 S5 3.752365 1_554
Cs10 S0 3.558112 1_455
Cs10 S1 3.589913 1_555
Cs10 S8 3.622357 1_456
Cs10 Se1 3.666251 1_556
Cs10 Se2 3.713478 1_545
Cs10 S6 3.752892 1_556
Cs10 S4 3.787216 1_455
Cs11 S1 3.558112 1_555
Cs11 S0 3.589913 1_555
Cs11 S9 3.622357 1_555
Cs11 Se0 3.666251 1_555
Cs11 Se3 3.713478 1_555
Cs11 S7 3.752892 1_555
Cs11 S5 3.787216 1_545
Nb0 S0 2.279421 1_555
Nb0 S4 2.288533 1_555
Nb0 Se3 2.415751 1_555
Nb0 Se5 2.416605 1_555
Nb1 S1 2.279421 1_555
Nb1 S5 2.288533 1_545
Nb1 Se2 2.415751 1_545
Nb1 Se4 2.416605 1_545
Nb2 S9 2.282363 1_555
Nb2 S2 2.286300 1_555
Nb2 S6 2.293100 1_555
Nb2 Se1 2.419809 1_555
Nb3 S8 2.282363 1_565
Nb3 S3 2.286300 1_555
Nb3 S7 2.293100 1_565
Nb3 Se0 2.419809 1_565
