# generated using pymatgen
data_Hf2Mn5CoP4
_symmetry_space_group_name_H-M   'P 1'
_cell_length_a   3.54257435
_cell_length_b   10.64321984
_cell_length_c   12.34754217
_cell_angle_alpha   90.00000000
_cell_angle_beta   90.00000000
_cell_angle_gamma   90.00000000
_symmetry_Int_Tables_number   1
_chemical_formula_structural   Hf2Mn5CoP4
_chemical_formula_sum   'Hf6 Mn15 Co3 P12'
_cell_volume   465.55663861
_cell_formula_units_Z   3
loop_
 _symmetry_equiv_pos_site_id
 _symmetry_equiv_pos_as_xyz
  1  'x, y, z'
loop_
 _atom_site_type_symbol
 _atom_site_label
 _atom_site_symmetry_multiplicity
 _atom_site_fract_x
 _atom_site_fract_y
 _atom_site_fract_z
 _atom_site_occupancy
  Hf  Hf0  1  0.00000000  0.50000000  0.53659645  1
  Hf  Hf1  1  0.50000000  0.00000000  0.46378870  1
  Hf  Hf2  1  0.50000000  0.82727806  0.20528161  1
  Hf  Hf3  1  0.50000000  0.17272194  0.20528161  1
  Hf  Hf4  1  0.00000000  0.67357876  0.79364939  1
  Hf  Hf5  1  0.00000000  0.32642124  0.79364939  1
  Mn  Mn0  1  0.50000000  0.50000000  0.17220735  1
  Mn  Mn1  1  0.00000000  0.00000000  0.83036182  1
  Mn  Mn2  1  0.00000000  0.50000000  0.99325128  1
  Mn  Mn3  1  0.50000000  0.33294268  0.99669546  1
  Mn  Mn4  1  0.50000000  0.66705732  0.99669546  1
  Mn  Mn5  1  0.00000000  0.16813039  0.00304080  1
  Mn  Mn6  1  0.00000000  0.83186961  0.00304080  1
  Mn  Mn7  1  0.50000000  0.29443222  0.43630961  1
  Mn  Mn8  1  0.50000000  0.70556778  0.43630961  1
  Mn  Mn9  1  0.00000000  0.20450504  0.56326278  1
  Mn  Mn10  1  0.00000000  0.79549496  0.56326278  1
  Mn  Mn11  1  0.50000000  0.87519722  0.69627001  1
  Mn  Mn12  1  0.50000000  0.12480278  0.69627001  1
  Mn  Mn13  1  0.00000000  0.62494701  0.30533329  1
  Mn  Mn14  1  0.00000000  0.37505299  0.30533329  1
  Co  Co0  1  0.50000000  0.50000000  0.70648512  1
  Co  Co1  1  0.00000000  0.00000000  0.29050736  1
  Co  Co2  1  0.50000000  0.00000000  0.00710136  1
  P  P0  1  0.50000000  0.50000000  0.87595926  1
  P  P1  1  0.00000000  0.00000000  0.11956010  1
  P  P2  1  0.50000000  0.50000000  0.37025298  1
  P  P3  1  0.00000000  0.00000000  0.63051973  1
  P  P4  1  0.50000000  0.32678380  0.62228856  1
  P  P5  1  0.50000000  0.67321620  0.62228856  1
  P  P6  1  0.00000000  0.17196163  0.37665416  1
  P  P7  1  0.00000000  0.82803837  0.37665416  1
  P  P8  1  0.50000000  0.84061921  0.88209843  1
  P  P9  1  0.50000000  0.15938079  0.88209843  1
  P  P10  1  0.00000000  0.66077049  0.12082165  1
  P  P11  1  0.00000000  0.33922951  0.12082165  1
loop_
_geom_bond_atom_site_label_1
_geom_bond_atom_site_label_2
_geom_bond_distance
_geom_bond_site_symmetry_2
Hf0 P2 2.712213 1_455
Hf0 P2 2.712213 1_555
Hf0 P5 2.766909 1_555
Hf0 P5 2.766909 1_455
Hf0 P4 2.766909 1_555
Hf0 P4 2.766909 1_455
Hf1 P3 2.715839 1_555
Hf1 P3 2.715839 1_655
Hf1 P6 2.764912 1_655
Hf1 P6 2.764912 1_555
Hf1 P7 2.764912 1_545
Hf1 P7 2.764912 1_645
Hf2 P10 2.713974 1_555
Hf2 P10 2.713974 1_655
Hf2 P7 2.759548 1_555
Hf2 P7 2.759548 1_655
Hf2 P1 2.763546 1_565
Hf2 P1 2.763546 1_665
Hf3 P11 2.713974 1_655
Hf3 P11 2.713974 1_555
Hf3 P6 2.759548 1_655
Hf3 P6 2.759548 1_555
Hf3 P1 2.763546 1_555
Hf3 P1 2.763546 1_655
Hf4 P8 2.736959 1_455
Hf4 P8 2.736959 1_555
Hf4 P0 2.753797 1_555
Hf4 P0 2.753797 1_455
Hf4 P5 2.759428 1_555
Hf4 P5 2.759428 1_455
Hf5 P9 2.736959 1_455
Hf5 P9 2.736959 1_555
Hf5 P0 2.753797 1_555
Hf5 P0 2.753797 1_455
Hf5 P4 2.759428 1_555
Hf5 P4 2.759428 1_455
Mn0 P2 2.445377 1_555
Mn0 P10 2.543216 1_655
Mn0 P10 2.543216 1_555
Mn0 P11 2.543216 1_655
Mn0 P11 2.543216 1_555
Mn1 P3 2.467559 1_555
Mn1 P9 2.534377 1_555
Mn1 P9 2.534377 1_455
Mn1 P8 2.534377 1_445
Mn1 P8 2.534377 1_545
Mn2 P0 2.287999 1_455
Mn2 P0 2.287999 1_555
Mn2 P10 2.325749 1_556
Mn2 P11 2.325749 1_556
Mn3 P0 2.320313 1_555
Mn3 P9 2.326921 1_555
Mn3 P11 2.343280 1_556
Mn3 P11 2.343280 1_656
Mn4 P0 2.320313 1_555
Mn4 P8 2.326921 1_555
Mn4 P10 2.343280 1_556
Mn4 P10 2.343280 1_656
Mn5 P1 2.296097 1_555
Mn5 P9 2.318663 1_554
Mn5 P9 2.318663 1_454
Mn5 P11 2.330495 1_555
Mn6 P1 2.296097 1_565
Mn6 P8 2.318663 1_554
Mn6 P8 2.318663 1_454
Mn6 P10 2.330495 1_555
Mn7 P6 2.319288 1_655
Mn7 P6 2.319288 1_555
Mn7 P4 2.322054 1_555
Mn7 P2 2.334991 1_555
Mn8 P7 2.319288 1_655
Mn8 P7 2.319288 1_555
Mn8 P5 2.322054 1_555
Mn8 P2 2.334991 1_555
Mn9 P4 2.315683 1_555
Mn9 P4 2.315683 1_455
Mn9 P3 2.329638 1_555
Mn9 P6 2.330046 1_555
Mn10 P5 2.315683 1_555
Mn10 P5 2.315683 1_455
Mn10 P3 2.329638 1_565
Mn10 P7 2.330046 1_555
Mn11 P8 2.323851 1_555
Mn11 P5 2.335764 1_555
Mn11 P3 2.358168 1_565
Mn11 P3 2.358168 1_665
Mn12 P9 2.323851 1_555
Mn12 P4 2.335764 1_555
Mn12 P3 2.358168 1_555
Mn12 P3 2.358168 1_655
Mn13 P10 2.309949 1_555
Mn13 P7 2.334053 1_555
Mn13 P2 2.355523 1_455
Mn13 P2 2.355523 1_555
Mn14 P11 2.309949 1_555
Mn14 P6 2.334053 1_555
Mn14 P2 2.355523 1_555
Mn14 P2 2.355523 1_455
Co0 P0 2.092589 1_555
Co0 P5 2.116505 1_555
Co0 P4 2.116505 1_555
Co0 Hf0 2.745512 1_655
Co0 Hf0 2.745512 1_555
Co0 Hf4 2.776477 1_655
Co0 Hf4 2.776477 1_555
Co0 Hf5 2.776477 1_555
Co0 Hf5 2.776477 1_655
Co1 P1 2.110779 1_555
Co1 P6 2.116881 1_555
Co1 P7 2.116881 1_545
Co1 Hf3 2.761207 1_555
Co1 Hf3 2.761207 1_455
Co1 Hf2 2.761207 1_545
Co1 Hf2 2.761207 1_445
Co1 Hf1 2.777650 1_455
Co1 Hf1 2.777650 1_555
Co2 P1 2.250697 1_655
Co2 P1 2.250697 1_555
Co2 P9 2.293435 1_554
Co2 P8 2.293435 1_544
Co2 Mn5 2.518352 1_555
Co2 Mn5 2.518352 1_655
Co2 Mn6 2.518352 1_545
Co2 Mn6 2.518352 1_645
Co2 Mn1 2.810674 1_654
Co2 Mn1 2.810674 1_554
Co2 Hf3 3.060623 1_555
Co2 Hf2 3.060623 1_545
