# generated using pymatgen
data_Ca2Y(B3Rh4)2
_symmetry_space_group_name_H-M   'P 1'
_cell_length_a   9.85101910
_cell_length_b   9.00603003
_cell_length_c   5.56534432
_cell_angle_alpha   81.37159778
_cell_angle_beta   64.67234051
_cell_angle_gamma   33.95606277
_symmetry_Int_Tables_number   1
_chemical_formula_structural   Ca2Y(B3Rh4)2
_chemical_formula_sum   'Ca2 Y1 B6 Rh8'
_cell_volume   227.84311138
_cell_formula_units_Z   1
loop_
 _symmetry_equiv_pos_site_id
 _symmetry_equiv_pos_as_xyz
  1  'x, y, z'
loop_
 _atom_site_type_symbol
 _atom_site_label
 _atom_site_symmetry_multiplicity
 _atom_site_fract_x
 _atom_site_fract_y
 _atom_site_fract_z
 _atom_site_occupancy
  Ca  Ca0  1  0.31562728  0.31562728  0.68437272  1
  Ca  Ca1  1  0.68437272  0.68437272  0.31562728  1
  Y  Y0  1  0.50000000  0.50000000  0.50000000  1
  B  B0  1  0.66905614  0.98801432  0.01198568  1
  B  B1  1  0.98801432  0.66905614  0.33094386  1
  B  B2  1  0.33094386  0.01198568  0.98801432  1
  B  B3  1  0.01198568  0.33094386  0.66905614  1
  B  B4  1  0.16635004  0.83364996  0.16635004  1
  B  B5  1  0.83364996  0.16635004  0.83364996  1
  Rh  Rh0  1  0.58499196  0.58499196  0.91500804  1
  Rh  Rh1  1  0.91374412  0.91374412  0.08625588  1
  Rh  Rh2  1  0.41500804  0.41500804  0.08499196  1
  Rh  Rh3  1  0.08499196  0.08499196  0.41500804  1
  Rh  Rh4  1  0.91500804  0.91500804  0.58499196  1
  Rh  Rh5  1  0.25000000  0.25000000  0.25000000  1
  Rh  Rh6  1  0.08625588  0.08625588  0.91374412  1
  Rh  Rh7  1  0.75000000  0.75000000  0.75000000  1
loop_
_geom_bond_atom_site_label_1
_geom_bond_atom_site_label_2
_geom_bond_distance
_geom_bond_site_symmetry_2
Ca0 Rh7 3.001839 1_455
Ca0 Rh7 3.001839 1_545
Ca0 Rh5 3.001839 1_555
Ca0 Rh5 3.001839 1_556
Ca0 Y0 3.163248 1_555
Ca0 Rh1 3.217649 1_456
Ca0 Rh1 3.217649 1_545
Ca0 Rh4 3.263508 1_545
Ca0 Rh4 3.263508 1_455
Ca0 Rh2 3.263508 1_556
Ca0 Rh2 3.263508 1_555
Ca1 Rh5 3.001839 1_655
Ca1 Rh5 3.001839 1_565
Ca1 Rh7 3.001839 1_555
Ca1 Rh7 3.001839 1_554
Ca1 Y0 3.163248 1_555
Ca1 Rh6 3.217649 1_654
Ca1 Rh6 3.217649 1_565
Ca1 Rh3 3.263508 1_565
Ca1 Rh3 3.263508 1_655
Ca1 Rh0 3.263508 1_554
Ca1 Rh0 3.263508 1_555
B0 Rh5 2.112847 1_565
B0 Rh7 2.112847 1_554
B0 Rh1 2.126786 1_555
B0 Rh2 2.202194 1_565
B0 Rh4 2.202195 1_554
B0 Ca1 2.916091 1_555
B0 Ca0 3.155091 1_654
B0 Ca0 3.155091 1_565
B1 Rh5 2.112847 1_655
B1 Rh7 2.112847 1_555
B1 Rh1 2.126786 1_555
B1 Rh2 2.202194 1_655
B1 Rh4 2.202194 1_555
B1 Ca1 2.916090 1_555
B1 Ca0 3.155091 1_565
B1 Ca0 3.155091 1_654
B2 Rh7 2.112847 1_545
B2 Rh5 2.112847 1_556
B2 Rh6 2.126786 1_555
B2 Rh0 2.202194 1_545
B2 Rh3 2.202195 1_556
B2 Ca0 2.916091 1_555
B2 Ca1 3.155091 1_456
B2 Ca1 3.155091 1_545
B3 Rh7 2.112847 1_455
B3 Rh5 2.112847 1_555
B3 Rh6 2.126786 1_555
B3 Rh0 2.202194 1_455
B3 Rh3 2.202194 1_555
B3 Ca0 2.916090 1_555
B3 Ca1 3.155091 1_545
B3 Ca1 3.155091 1_456
B4 Rh2 2.159317 1_555
B4 Rh0 2.159317 1_554
B4 Rh3 2.159317 1_565
B4 Rh4 2.159317 1_455
B4 Rh1 2.187713 1_455
B4 Rh6 2.187713 1_564
B4 Y0 3.180500 1_465
B4 Y0 3.180500 1_554
B4 Y0 3.231656 1_555
B5 Rh0 2.159317 1_555
B5 Rh2 2.159317 1_556
B5 Rh4 2.159317 1_545
B5 Rh3 2.159317 1_655
B5 Rh6 2.187713 1_655
B5 Rh1 2.187713 1_546
B5 Y0 3.180500 1_645
B5 Y0 3.180500 1_556
B5 Y0 3.231656 1_555
Rh0 Y0 3.141590 1_555
Rh0 Y0 3.141590 1_556
Rh1 Y0 3.116016 1_565
Rh1 Y0 3.116017 1_654
Rh2 Y0 3.141590 1_555
Rh2 Y0 3.141590 1_554
Rh3 Y0 3.141589 1_455
Rh3 Y0 3.141589 1_545
Rh4 Y0 3.141589 1_655
Rh4 Y0 3.141589 1_565
Rh6 Y0 3.116016 1_545
Rh6 Y0 3.116017 1_456
