# generated using pymatgen
data_Sc4Ni2Hg5
_symmetry_space_group_name_H-M   'P 1'
_cell_length_a   14.54415973
_cell_length_b   6.63473329
_cell_length_c   18.08581124
_cell_angle_alpha   90.00000000
_cell_angle_beta   93.40408414
_cell_angle_gamma   90.00000000
_symmetry_Int_Tables_number   1
_chemical_formula_structural   Sc4Ni2Hg5
_chemical_formula_sum   'Sc32 Ni16 Hg40'
_cell_volume   1742.14039887
_cell_formula_units_Z   8
loop_
 _symmetry_equiv_pos_site_id
 _symmetry_equiv_pos_as_xyz
  1  'x, y, z'
loop_
 _atom_site_type_symbol
 _atom_site_label
 _atom_site_symmetry_multiplicity
 _atom_site_fract_x
 _atom_site_fract_y
 _atom_site_fract_z
 _atom_site_occupancy
  Sc  Sc0_0  1  0.14508295  0.25000050  0.03265087  1
  Sc  Sc0_1  1  0.14508295  0.25000050  0.53265087  1
  Sc  Sc0_2  1  0.14508295  0.75000050  0.03265087  1
  Sc  Sc0_3  1  0.14508295  0.75000050  0.53265087  1
  Sc  Sc0_4  1  0.64508295  0.25000050  0.03265087  1
  Sc  Sc0_5  1  0.64508295  0.25000050  0.53265087  1
  Sc  Sc0_6  1  0.64508295  0.75000050  0.03265087  1
  Sc  Sc0_7  1  0.64508295  0.75000050  0.53265087  1
  Sc  Sc1_0  1  0.34009319  0.25000050  0.16925597  1
  Sc  Sc1_1  1  0.34009319  0.25000050  0.66925597  1
  Sc  Sc1_2  1  0.34009319  0.75000050  0.16925597  1
  Sc  Sc1_3  1  0.34009319  0.75000050  0.66925597  1
  Sc  Sc1_4  1  0.84009319  0.25000050  0.16925597  1
  Sc  Sc1_5  1  0.84009319  0.25000050  0.66925597  1
  Sc  Sc1_6  1  0.84009319  0.75000050  0.16925597  1
  Sc  Sc1_7  1  0.84009319  0.75000050  0.66925597  1
  Sc  Sc2_0  1  0.15990631  0.25000050  0.33074403  1
  Sc  Sc2_1  1  0.15990631  0.25000050  0.83074403  1
  Sc  Sc2_2  1  0.15990631  0.75000050  0.33074403  1
  Sc  Sc2_3  1  0.15990631  0.75000050  0.83074403  1
  Sc  Sc2_4  1  0.65990631  0.25000050  0.33074403  1
  Sc  Sc2_5  1  0.65990631  0.25000050  0.83074403  1
  Sc  Sc2_6  1  0.65990631  0.75000050  0.33074403  1
  Sc  Sc2_7  1  0.65990631  0.75000050  0.83074403  1
  Sc  Sc3_0  1  0.35491705  0.25000050  0.46734913  1
  Sc  Sc3_1  1  0.35491705  0.25000050  0.96734913  1
  Sc  Sc3_2  1  0.35491705  0.75000050  0.46734913  1
  Sc  Sc3_3  1  0.35491705  0.75000050  0.96734913  1
  Sc  Sc3_4  1  0.85491705  0.25000050  0.46734913  1
  Sc  Sc3_5  1  0.85491705  0.25000050  0.96734913  1
  Sc  Sc3_6  1  0.85491705  0.75000050  0.46734913  1
  Sc  Sc3_7  1  0.85491705  0.75000050  0.96734913  1
  Ni  Ni0_0  1  0.28521820  0.00000000  0.06530769  1
  Ni  Ni0_1  1  0.28521820  0.00000000  0.56530769  1
  Ni  Ni0_2  1  0.28521820  0.50000000  0.06530769  1
  Ni  Ni0_3  1  0.28521820  0.50000000  0.56530769  1
  Ni  Ni0_4  1  0.78521820  0.00000000  0.06530769  1
  Ni  Ni0_5  1  0.78521820  0.00000000  0.56530769  1
  Ni  Ni0_6  1  0.78521820  0.50000000  0.06530769  1
  Ni  Ni0_7  1  0.78521820  0.50000000  0.56530769  1
  Ni  Ni1_0  1  0.21478180  0.00000000  0.43469181  1
  Ni  Ni1_1  1  0.21478180  0.00000000  0.93469181  1
  Ni  Ni1_2  1  0.21478180  0.50000000  0.43469181  1
  Ni  Ni1_3  1  0.21478180  0.50000000  0.93469181  1
  Ni  Ni1_4  1  0.71478180  0.00000000  0.43469181  1
  Ni  Ni1_5  1  0.71478180  0.00000000  0.93469181  1
  Ni  Ni1_6  1  0.71478180  0.50000000  0.43469181  1
  Ni  Ni1_7  1  0.71478180  0.50000000  0.93469181  1
  Hg  Hg0_0  1  0.47415058  0.00000000  0.08070803  1
  Hg  Hg0_1  1  0.47415058  0.00000000  0.58070803  1
  Hg  Hg0_2  1  0.47415058  0.50000000  0.08070803  1
  Hg  Hg0_3  1  0.47415058  0.50000000  0.58070803  1
  Hg  Hg0_4  1  0.97415058  0.00000000  0.08070803  1
  Hg  Hg0_5  1  0.97415058  0.00000000  0.58070803  1
  Hg  Hg0_6  1  0.97415058  0.50000000  0.08070803  1
  Hg  Hg0_7  1  0.97415058  0.50000000  0.58070803  1
  Hg  Hg1_0  1  0.16989106  0.00000000  0.17958354  1
  Hg  Hg1_1  1  0.16989106  0.00000000  0.67958354  1
  Hg  Hg1_2  1  0.16989106  0.50000000  0.17958354  1
  Hg  Hg1_3  1  0.16989106  0.50000000  0.67958354  1
  Hg  Hg1_4  1  0.66989106  0.00000000  0.17958354  1
  Hg  Hg1_5  1  0.66989106  0.00000000  0.67958354  1
  Hg  Hg1_6  1  0.66989106  0.50000000  0.17958354  1
  Hg  Hg1_7  1  0.66989106  0.50000000  0.67958354  1
  Hg  Hg2_0  1  0.00000000  0.00000000  0.25000000  1
  Hg  Hg2_1  1  0.00000000  0.00000000  0.75000000  1
  Hg  Hg2_2  1  0.00000000  0.50000000  0.25000000  1
  Hg  Hg2_3  1  0.00000000  0.50000000  0.75000000  1
  Hg  Hg2_4  1  0.50000000  0.00000000  0.25000000  1
  Hg  Hg2_5  1  0.50000000  0.00000000  0.75000000  1
  Hg  Hg2_6  1  0.50000000  0.50000000  0.25000000  1
  Hg  Hg2_7  1  0.50000000  0.50000000  0.75000000  1
  Hg  Hg3_0  1  0.33010944  0.00000000  0.32041596  1
  Hg  Hg3_1  1  0.33010944  0.00000000  0.82041596  1
  Hg  Hg3_2  1  0.33010944  0.50000000  0.32041596  1
  Hg  Hg3_3  1  0.33010944  0.50000000  0.82041596  1
  Hg  Hg3_4  1  0.83010944  0.00000000  0.32041596  1
  Hg  Hg3_5  1  0.83010944  0.00000000  0.82041596  1
  Hg  Hg3_6  1  0.83010944  0.50000000  0.32041596  1
  Hg  Hg3_7  1  0.83010944  0.50000000  0.82041596  1
  Hg  Hg4_0  1  0.02584942  0.00000000  0.41929197  1
  Hg  Hg4_1  1  0.02584942  0.00000000  0.91929197  1
  Hg  Hg4_2  1  0.02584942  0.50000000  0.41929197  1
  Hg  Hg4_3  1  0.02584942  0.50000000  0.91929197  1
  Hg  Hg4_4  1  0.52584942  0.00000000  0.41929197  1
  Hg  Hg4_5  1  0.52584942  0.00000000  0.91929197  1
  Hg  Hg4_6  1  0.52584942  0.50000000  0.41929197  1
  Hg  Hg4_7  1  0.52584942  0.50000000  0.91929197  1
loop_
_geom_bond_atom_site_label_1
_geom_bond_atom_site_label_2
_geom_bond_distance
_geom_bond_site_symmetry_2
Ni0_0 Ni1_1 2.518436 1_554
Ni0_0 Sc1_2 2.596993 1_545
Ni0_0 Sc1_0 2.596997 1_555
Ni0_0 Sc0_2 2.666675 1_545
Ni0_0 Sc0_0 2.666679 1_555
Ni0_0 Sc3_3 2.670372 1_544
Ni0_0 Sc3_1 2.670376 1_554
Ni0_1 Ni1_0 2.518436 1_555
Ni0_1 Sc1_3 2.596993 1_545
Ni0_1 Sc1_1 2.596997 1_555
Ni0_1 Sc0_3 2.666675 1_545
Ni0_1 Sc0_1 2.666679 1_555
Ni0_1 Sc3_2 2.670372 1_545
Ni0_1 Sc3_0 2.670376 1_555
Ni0_2 Ni1_3 2.518436 1_554
Ni0_2 Sc1_0 2.596993 1_555
Ni0_2 Sc1_2 2.596997 1_555
Ni0_2 Sc0_0 2.666675 1_555
Ni0_2 Sc0_2 2.666679 1_555
Ni0_2 Sc3_1 2.670372 1_554
Ni0_2 Sc3_3 2.670376 1_554
Ni0_3 Ni1_2 2.518436 1_555
Ni0_3 Sc1_1 2.596993 1_555
Ni0_3 Sc1_3 2.596997 1_555
Ni0_3 Sc0_1 2.666675 1_555
Ni0_3 Sc0_3 2.666679 1_555
Ni0_3 Sc3_0 2.670372 1_555
Ni0_3 Sc3_2 2.670376 1_555
Ni0_4 Ni1_5 2.518436 1_554
Ni0_4 Sc1_6 2.596993 1_545
Ni0_4 Sc1_4 2.596997 1_555
Ni0_4 Sc0_6 2.666675 1_545
Ni0_4 Sc0_4 2.666679 1_555
Ni0_4 Sc3_7 2.670372 1_544
Ni0_4 Sc3_5 2.670376 1_554
Ni0_5 Ni1_4 2.518436 1_555
Ni0_5 Sc1_7 2.596993 1_545
Ni0_5 Sc1_5 2.596997 1_555
Ni0_5 Sc0_7 2.666675 1_545
Ni0_5 Sc0_5 2.666679 1_555
Ni0_5 Sc3_6 2.670372 1_545
Ni0_5 Sc3_4 2.670376 1_555
Ni0_6 Ni1_7 2.518436 1_554
Ni0_6 Sc1_4 2.596993 1_555
Ni0_6 Sc1_6 2.596997 1_555
Ni0_6 Sc0_4 2.666675 1_555
Ni0_6 Sc0_6 2.666679 1_555
Ni0_6 Sc3_5 2.670372 1_554
Ni0_6 Sc3_7 2.670376 1_554
Ni0_7 Ni1_6 2.518436 1_555
Ni0_7 Sc1_5 2.596993 1_555
Ni0_7 Sc1_7 2.596997 1_555
Ni0_7 Sc0_5 2.666675 1_555
Ni0_7 Sc0_7 2.666679 1_555
Ni0_7 Sc3_4 2.670372 1_555
Ni0_7 Sc3_6 2.670376 1_555
Ni1_0 Sc2_2 2.596989 1_545
Ni1_0 Sc2_0 2.596993 1_555
Ni1_0 Sc3_2 2.666677 1_545
Ni1_0 Sc3_0 2.666681 1_555
Ni1_0 Sc0_3 2.670378 1_545
Ni1_0 Sc0_1 2.670383 1_555
Ni1_1 Sc2_3 2.596989 1_545
Ni1_1 Sc2_1 2.596993 1_555
Ni1_1 Sc3_3 2.666677 1_545
Ni1_1 Sc3_1 2.666681 1_555
Ni1_1 Sc0_2 2.670378 1_546
Ni1_1 Sc0_0 2.670383 1_556
Ni1_2 Sc2_0 2.596989 1_555
Ni1_2 Sc2_2 2.596993 1_555
Ni1_2 Sc3_0 2.666677 1_555
Ni1_2 Sc3_2 2.666681 1_555
Ni1_2 Sc0_1 2.670378 1_555
Ni1_2 Sc0_3 2.670383 1_555
Ni1_3 Sc2_1 2.596989 1_555
Ni1_3 Sc2_3 2.596993 1_555
Ni1_3 Sc3_1 2.666677 1_555
Ni1_3 Sc3_3 2.666681 1_555
Ni1_3 Sc0_0 2.670378 1_556
Ni1_3 Sc0_2 2.670383 1_556
Ni1_4 Sc2_6 2.596989 1_545
Ni1_4 Sc2_4 2.596993 1_555
Ni1_4 Sc3_6 2.666677 1_545
Ni1_4 Sc3_4 2.666681 1_555
Ni1_4 Sc0_7 2.670378 1_545
Ni1_4 Sc0_5 2.670383 1_555
Ni1_5 Sc2_7 2.596989 1_545
Ni1_5 Sc2_5 2.596993 1_555
Ni1_5 Sc3_7 2.666677 1_545
Ni1_5 Sc3_5 2.666681 1_555
Ni1_5 Sc0_6 2.670378 1_546
Ni1_5 Sc0_4 2.670383 1_556
Ni1_6 Sc2_4 2.596989 1_555
Ni1_6 Sc2_6 2.596993 1_555
Ni1_6 Sc3_4 2.666677 1_555
Ni1_6 Sc3_6 2.666681 1_555
Ni1_6 Sc0_5 2.670378 1_555
Ni1_6 Sc0_7 2.670383 1_555
Ni1_7 Sc2_5 2.596989 1_555
Ni1_7 Sc2_7 2.596993 1_555
Ni1_7 Sc3_5 2.666677 1_555
Ni1_7 Sc3_7 2.666681 1_555
Ni1_7 Sc0_4 2.670378 1_556
Ni1_7 Sc0_6 2.670383 1_556
Hg0_0 Ni0_0 2.745439 1_555
Hg0_0 Hg2_4 3.062541 1_555
Hg0_0 Sc1_2 3.080298 1_545
Hg0_0 Sc1_0 3.080302 1_555
Hg0_0 Sc3_3 3.088617 1_544
Hg0_0 Sc3_1 3.088621 1_554
Hg0_0 Sc0_6 3.153376 1_545
Hg0_0 Sc0_4 3.153380 1_555
Hg0_1 Ni0_1 2.745439 1_555
Hg0_1 Hg2_5 3.062541 1_555
Hg0_1 Sc1_3 3.080298 1_545
Hg0_1 Sc1_1 3.080302 1_555
Hg0_1 Sc3_2 3.088617 1_545
Hg0_1 Sc3_0 3.088621 1_555
Hg0_1 Sc0_7 3.153376 1_545
Hg0_1 Sc0_5 3.153380 1_555
Hg0_2 Ni0_2 2.745439 1_555
Hg0_2 Hg2_6 3.062541 1_555
Hg0_2 Sc1_0 3.080298 1_555
Hg0_2 Sc1_2 3.080302 1_555
Hg0_2 Sc3_1 3.088617 1_554
Hg0_2 Sc3_3 3.088621 1_554
Hg0_2 Sc0_4 3.153376 1_555
Hg0_2 Sc0_6 3.153380 1_555
Hg0_3 Ni0_3 2.745439 1_555
Hg0_3 Hg2_7 3.062541 1_555
Hg0_3 Sc1_1 3.080298 1_555
Hg0_3 Sc1_3 3.080302 1_555
Hg0_3 Sc3_0 3.088617 1_555
Hg0_3 Sc3_2 3.088621 1_555
Hg0_3 Sc0_5 3.153376 1_555
Hg0_3 Sc0_7 3.153380 1_555
Hg0_4 Ni0_4 2.745439 1_555
Hg0_4 Hg2_0 3.062541 1_655
Hg0_4 Sc1_6 3.080298 1_545
Hg0_4 Sc1_4 3.080302 1_555
Hg0_4 Sc3_7 3.088617 1_544
Hg0_4 Sc3_5 3.088621 1_554
Hg0_4 Sc0_2 3.153376 1_645
Hg0_4 Sc0_0 3.153380 1_655
Hg0_5 Ni0_5 2.745439 1_555
Hg0_5 Hg2_1 3.062541 1_655
Hg0_5 Sc1_7 3.080298 1_545
Hg0_5 Sc1_5 3.080302 1_555
Hg0_5 Sc3_6 3.088617 1_545
Hg0_5 Sc3_4 3.088621 1_555
Hg0_5 Sc0_3 3.153376 1_645
Hg0_5 Sc0_1 3.153380 1_655
Hg0_6 Ni0_6 2.745439 1_555
Hg0_6 Hg2_2 3.062541 1_655
Hg0_6 Sc1_4 3.080298 1_555
Hg0_6 Sc1_6 3.080302 1_555
Hg0_6 Sc3_5 3.088617 1_554
Hg0_6 Sc3_7 3.088621 1_554
Hg0_6 Sc0_0 3.153376 1_655
Hg0_6 Sc0_2 3.153380 1_655
Hg0_7 Ni0_7 2.745439 1_555
Hg0_7 Hg2_3 3.062541 1_655
Hg0_7 Sc1_5 3.080298 1_555
Hg0_7 Sc1_7 3.080302 1_555
Hg0_7 Sc3_4 3.088617 1_555
Hg0_7 Sc3_6 3.088621 1_555
Hg0_7 Sc0_1 3.153376 1_655
Hg0_7 Sc0_3 3.153380 1_655
Hg1_0 Ni0_0 2.738008 1_555
Hg1_0 Hg2_0 2.846236 1_555
Hg1_0 Sc1_2 2.994804 1_545
Hg1_0 Sc1_0 2.994808 1_555
Hg1_0 Sc0_2 3.135171 1_545
Hg1_0 Sc0_0 3.135174 1_555
Hg1_0 Sc2_2 3.208340 1_545
Hg1_0 Sc2_0 3.208344 1_555
Hg1_1 Ni0_1 2.738008 1_555
Hg1_1 Hg2_1 2.846236 1_555
Hg1_1 Sc1_3 2.994804 1_545
Hg1_1 Sc1_1 2.994808 1_555
Hg1_1 Sc0_3 3.135171 1_545
Hg1_1 Sc0_1 3.135174 1_555
Hg1_1 Sc2_3 3.208340 1_545
Hg1_1 Sc2_1 3.208344 1_555
Hg1_2 Ni0_2 2.738008 1_555
Hg1_2 Hg2_2 2.846236 1_555
Hg1_2 Sc1_0 2.994804 1_555
Hg1_2 Sc1_2 2.994808 1_555
Hg1_2 Sc0_0 3.135171 1_555
Hg1_2 Sc0_2 3.135174 1_555
Hg1_2 Sc2_0 3.208340 1_555
Hg1_2 Sc2_2 3.208344 1_555
Hg1_3 Ni0_3 2.738008 1_555
Hg1_3 Hg2_3 2.846236 1_555
Hg1_3 Sc1_1 2.994804 1_555
Hg1_3 Sc1_3 2.994808 1_555
Hg1_3 Sc0_1 3.135171 1_555
Hg1_3 Sc0_3 3.135174 1_555
Hg1_3 Sc2_1 3.208340 1_555
Hg1_3 Sc2_3 3.208344 1_555
Hg1_4 Ni0_4 2.738008 1_555
Hg1_4 Hg2_4 2.846236 1_555
Hg1_4 Sc1_6 2.994804 1_545
Hg1_4 Sc1_4 2.994808 1_555
Hg1_4 Sc0_6 3.135171 1_545
Hg1_4 Sc0_4 3.135174 1_555
Hg1_4 Sc2_6 3.208340 1_545
Hg1_4 Sc2_4 3.208344 1_555
Hg1_5 Ni0_5 2.738008 1_555
Hg1_5 Hg2_5 2.846236 1_555
Hg1_5 Sc1_7 2.994804 1_545
Hg1_5 Sc1_5 2.994808 1_555
Hg1_5 Sc0_7 3.135171 1_545
Hg1_5 Sc0_5 3.135174 1_555
Hg1_5 Sc2_7 3.208340 1_545
Hg1_5 Sc2_5 3.208344 1_555
Hg1_6 Ni0_6 2.738008 1_555
Hg1_6 Hg2_6 2.846236 1_555
Hg1_6 Sc1_4 2.994804 1_555
Hg1_6 Sc1_6 2.994808 1_555
Hg1_6 Sc0_4 3.135171 1_555
Hg1_6 Sc0_6 3.135174 1_555
Hg1_6 Sc2_4 3.208340 1_555
Hg1_6 Sc2_6 3.208344 1_555
Hg1_7 Ni0_7 2.738008 1_555
Hg1_7 Hg2_7 2.846236 1_555
Hg1_7 Sc1_5 2.994804 1_555
Hg1_7 Sc1_7 2.994808 1_555
Hg1_7 Sc0_5 3.135171 1_555
Hg1_7 Sc0_7 3.135174 1_555
Hg1_7 Sc2_5 3.208340 1_555
Hg1_7 Sc2_7 3.208344 1_555
Hg2_0 Hg3_4 2.846225 1_455
Hg2_0 Hg4_0 3.062541 1_555
Hg2_0 Sc2_2 3.144730 1_545
Hg2_0 Sc2_0 3.144734 1_555
Hg2_0 Sc1_6 3.144735 1_445
Hg2_0 Sc1_4 3.144739 1_455
Hg2_0 Hg2_2 3.317367 1_555
Hg2_0 Hg2_2 3.317367 1_545
Hg2_1 Hg3_5 2.846225 1_455
Hg2_1 Hg4_1 3.062541 1_555
Hg2_1 Sc2_3 3.144730 1_545
Hg2_1 Sc2_1 3.144734 1_555
Hg2_1 Sc1_7 3.144735 1_445
Hg2_1 Sc1_5 3.144739 1_455
Hg2_1 Hg2_3 3.317367 1_545
Hg2_1 Hg2_3 3.317367 1_555
Hg2_2 Hg3_6 2.846225 1_455
Hg2_2 Hg4_2 3.062541 1_555
Hg2_2 Sc2_0 3.144730 1_555
Hg2_2 Sc2_2 3.144734 1_555
Hg2_2 Sc1_4 3.144735 1_455
Hg2_2 Sc1_6 3.144739 1_455
Hg2_3 Hg3_7 2.846225 1_455
Hg2_3 Hg4_3 3.062541 1_555
Hg2_3 Sc2_1 3.144730 1_555
Hg2_3 Sc2_3 3.144734 1_555
Hg2_3 Sc1_5 3.144735 1_455
Hg2_3 Sc1_7 3.144739 1_455
Hg2_4 Hg3_0 2.846225 1_555
Hg2_4 Hg4_4 3.062541 1_555
Hg2_4 Sc2_6 3.144730 1_545
Hg2_4 Sc2_4 3.144734 1_555
Hg2_4 Sc1_2 3.144735 1_545
Hg2_4 Sc1_0 3.144739 1_555
Hg2_4 Hg2_6 3.317367 1_545
Hg2_4 Hg2_6 3.317367 1_555
Hg2_5 Hg3_1 2.846225 1_555
Hg2_5 Hg4_5 3.062541 1_555
Hg2_5 Sc2_7 3.144730 1_545
Hg2_5 Sc2_5 3.144734 1_555
Hg2_5 Sc1_3 3.144735 1_545
Hg2_5 Sc1_1 3.144739 1_555
Hg2_5 Hg2_7 3.317367 1_555
Hg2_5 Hg2_7 3.317367 1_545
Hg2_6 Hg3_2 2.846225 1_555
Hg2_6 Hg4_6 3.062541 1_555
Hg2_6 Sc2_4 3.144730 1_555
Hg2_6 Sc2_6 3.144734 1_555
Hg2_6 Sc1_0 3.144735 1_555
Hg2_6 Sc1_2 3.144739 1_555
Hg2_7 Hg3_3 2.846225 1_555
Hg2_7 Hg4_7 3.062541 1_555
Hg2_7 Sc2_5 3.144730 1_555
Hg2_7 Sc2_7 3.144734 1_555
Hg2_7 Sc1_1 3.144735 1_555
Hg2_7 Sc1_3 3.144739 1_555
Hg3_0 Ni1_0 2.738012 1_555
Hg3_0 Sc2_2 2.994818 1_545
Hg3_0 Sc2_0 2.994821 1_555
Hg3_0 Sc3_2 3.135178 1_545
Hg3_0 Sc3_0 3.135181 1_555
Hg3_0 Sc1_2 3.208331 1_545
Hg3_0 Sc1_0 3.208335 1_555
Hg3_1 Ni1_1 2.738012 1_555
Hg3_1 Sc2_3 2.994818 1_545
Hg3_1 Sc2_1 2.994821 1_555
Hg3_1 Sc3_3 3.135178 1_545
Hg3_1 Sc3_1 3.135181 1_555
Hg3_1 Sc1_3 3.208331 1_545
Hg3_1 Sc1_1 3.208335 1_555
Hg3_2 Ni1_2 2.738012 1_555
Hg3_2 Sc2_0 2.994818 1_555
Hg3_2 Sc2_2 2.994821 1_555
Hg3_2 Sc3_0 3.135178 1_555
Hg3_2 Sc3_2 3.135181 1_555
Hg3_2 Sc1_0 3.208331 1_555
Hg3_2 Sc1_2 3.208335 1_555
Hg3_3 Ni1_3 2.738012 1_555
Hg3_3 Sc2_1 2.994818 1_555
Hg3_3 Sc2_3 2.994821 1_555
Hg3_3 Sc3_1 3.135178 1_555
Hg3_3 Sc3_3 3.135181 1_555
Hg3_3 Sc1_1 3.208331 1_555
Hg3_3 Sc1_3 3.208335 1_555
Hg3_4 Ni1_4 2.738012 1_555
Hg3_4 Sc2_6 2.994818 1_545
Hg3_4 Sc2_4 2.994821 1_555
Hg3_4 Sc3_6 3.135178 1_545
Hg3_4 Sc3_4 3.135181 1_555
Hg3_4 Sc1_6 3.208331 1_545
Hg3_4 Sc1_4 3.208335 1_555
Hg3_5 Ni1_5 2.738012 1_555
Hg3_5 Sc2_7 2.994818 1_545
Hg3_5 Sc2_5 2.994821 1_555
Hg3_5 Sc3_7 3.135178 1_545
Hg3_5 Sc3_5 3.135181 1_555
Hg3_5 Sc1_7 3.208331 1_545
Hg3_5 Sc1_5 3.208335 1_555
Hg3_6 Ni1_6 2.738012 1_555
Hg3_6 Sc2_4 2.994818 1_555
Hg3_6 Sc2_6 2.994821 1_555
Hg3_6 Sc3_4 3.135178 1_555
Hg3_6 Sc3_6 3.135181 1_555
Hg3_6 Sc1_4 3.208331 1_555
Hg3_6 Sc1_6 3.208335 1_555
Hg3_7 Ni1_7 2.738012 1_555
Hg3_7 Sc2_5 2.994818 1_555
Hg3_7 Sc2_7 2.994821 1_555
Hg3_7 Sc3_5 3.135178 1_555
Hg3_7 Sc3_7 3.135181 1_555
Hg3_7 Sc1_5 3.208331 1_555
Hg3_7 Sc1_7 3.208335 1_555
Hg4_0 Ni1_0 2.745439 1_555
Hg4_0 Sc2_2 3.080293 1_545
Hg4_0 Sc2_0 3.080297 1_555
Hg4_0 Sc0_3 3.088617 1_545
Hg4_0 Sc0_1 3.088621 1_555
Hg4_0 Sc3_6 3.153376 1_445
Hg4_0 Sc3_4 3.153380 1_455
Hg4_1 Ni1_1 2.745439 1_555
Hg4_1 Sc2_3 3.080293 1_545
Hg4_1 Sc2_1 3.080297 1_555
Hg4_1 Sc0_2 3.088617 1_546
Hg4_1 Sc0_0 3.088621 1_556
Hg4_1 Sc3_7 3.153376 1_445
Hg4_1 Sc3_5 3.153380 1_455
Hg4_2 Ni1_2 2.745439 1_555
Hg4_2 Sc2_0 3.080293 1_555
Hg4_2 Sc2_2 3.080297 1_555
Hg4_2 Sc0_1 3.088617 1_555
Hg4_2 Sc0_3 3.088621 1_555
Hg4_2 Sc3_4 3.153376 1_455
Hg4_2 Sc3_6 3.153380 1_455
Hg4_3 Ni1_3 2.745439 1_555
Hg4_3 Sc2_1 3.080293 1_555
Hg4_3 Sc2_3 3.080297 1_555
Hg4_3 Sc0_0 3.088617 1_556
Hg4_3 Sc0_2 3.088621 1_556
Hg4_3 Sc3_5 3.153376 1_455
Hg4_3 Sc3_7 3.153380 1_455
Hg4_4 Ni1_4 2.745439 1_555
Hg4_4 Sc2_6 3.080293 1_545
Hg4_4 Sc2_4 3.080297 1_555
Hg4_4 Sc0_7 3.088617 1_545
Hg4_4 Sc0_5 3.088621 1_555
Hg4_4 Sc3_2 3.153376 1_545
Hg4_4 Sc3_0 3.153380 1_555
Hg4_5 Ni1_5 2.745439 1_555
Hg4_5 Sc2_7 3.080293 1_545
Hg4_5 Sc2_5 3.080297 1_555
Hg4_5 Sc0_6 3.088617 1_546
Hg4_5 Sc0_4 3.088621 1_556
Hg4_5 Sc3_3 3.153376 1_545
Hg4_5 Sc3_1 3.153380 1_555
Hg4_6 Ni1_6 2.745439 1_555
Hg4_6 Sc2_4 3.080293 1_555
Hg4_6 Sc2_6 3.080297 1_555
Hg4_6 Sc0_5 3.088617 1_555
Hg4_6 Sc0_7 3.088621 1_555
Hg4_6 Sc3_0 3.153376 1_555
Hg4_6 Sc3_2 3.153380 1_555
Hg4_7 Ni1_7 2.745439 1_555
Hg4_7 Sc2_5 3.080293 1_555
Hg4_7 Sc2_7 3.080297 1_555
Hg4_7 Sc0_4 3.088617 1_556
Hg4_7 Sc0_6 3.088621 1_556
Hg4_7 Sc3_1 3.153376 1_555
Hg4_7 Sc3_3 3.153380 1_555
