# generated using pymatgen
data_BaGaPb2Au
_symmetry_space_group_name_H-M   'P 1'
_cell_length_a   6.82530639
_cell_length_b   6.82530691
_cell_length_c   6.82530691
_cell_angle_alpha   137.79195700
_cell_angle_beta   137.79194568
_cell_angle_gamma   61.22178270
_symmetry_Int_Tables_number   1
_chemical_formula_structural   BaGaPb2Au
_chemical_formula_sum   'Ba1 Ga1 Pb2 Au1'
_cell_volume   141.90773795
_cell_formula_units_Z   1
loop_
 _symmetry_equiv_pos_site_id
 _symmetry_equiv_pos_as_xyz
  1  'x, y, z'
loop_
 _atom_site_type_symbol
 _atom_site_label
 _atom_site_symmetry_multiplicity
 _atom_site_fract_x
 _atom_site_fract_y
 _atom_site_fract_z
 _atom_site_occupancy
  Ba  Ba0  1  0.99048374  0.99048374  1.00000000  1
  Ga  Ga0  1  0.59841770  0.59841770  1.00000000  1
  Pb  Pb0  1  0.74181942  0.24181942  0.50000000  1
  Pb  Pb1  1  0.24181942  0.74181942  0.50000000  1
  Au  Au0  1  0.38534873  0.38534873  0.00000000  1
loop_
_geom_bond_atom_site_label_1
_geom_bond_atom_site_label_2
_geom_bond_distance
_geom_bond_site_symmetry_2
Ba0 Ga0 3.699581 1_655
Ba0 Ga0 3.699581 1_565
Ba0 Ga0 3.699581 1_666
Ba0 Ga0 3.699582 1_554
Ba0 Pb0 3.817592 1_566
Ba0 Pb0 3.817592 1_555
Ba0 Pb1 3.817593 1_555
Ba0 Pb1 3.817593 1_656
Ba0 Pb1 3.841662 1_655
Ba0 Pb1 3.841662 1_666
Ba0 Pb0 3.841662 1_666
Ba0 Pb0 3.841662 1_565
Ga0 Pb0 2.979564 1_555
Ga0 Pb0 2.979564 1_566
Ga0 Pb1 2.979564 1_656
Ga0 Pb1 2.979565 1_555
Au0 Ga0 2.503206 1_554
Au0 Pb1 2.980412 1_555
Au0 Pb1 2.980412 1_544
Au0 Pb0 2.980412 1_454
Au0 Pb0 2.980412 1_555
Au0 Ba0 3.688440 1_544
Au0 Ba0 3.688440 1_454
Au0 Ba0 3.688440 1_555
Au0 Ba0 3.688440 1_443
