# generated using pymatgen
data_Gd2Zr2O7
_symmetry_space_group_name_H-M   'P 1'
_cell_length_a   7.56035200
_cell_length_b   7.58168000
_cell_length_c   10.59337200
_cell_angle_alpha   90.00000000
_cell_angle_beta   90.00000000
_cell_angle_gamma   90.00000000
_symmetry_Int_Tables_number   1
_chemical_formula_structural   Gd2Zr2O7
_chemical_formula_sum   'Gd8 Zr8 O28'
_cell_volume   607.21387916
_cell_formula_units_Z   4
loop_
 _symmetry_equiv_pos_site_id
 _symmetry_equiv_pos_as_xyz
  1  'x, y, z'
loop_
 _atom_site_type_symbol
 _atom_site_label
 _atom_site_symmetry_multiplicity
 _atom_site_fract_x
 _atom_site_fract_y
 _atom_site_fract_z
 _atom_site_occupancy
  Gd  Gd0  1  0.50000000  0.00000000  0.50000000  1
  Gd  Gd1  1  0.50000000  0.50000000  0.00000000  1
  Gd  Gd2  1  0.73933700  0.75000000  0.25000000  1
  Gd  Gd3  1  0.00000000  0.00000000  0.00000000  1
  Gd  Gd4  1  0.73933700  0.25000000  0.25000000  1
  Gd  Gd5  1  0.26066300  0.25000000  0.75000000  1
  Gd  Gd6  1  0.00000000  0.50000000  0.50000000  1
  Gd  Gd7  1  0.26066300  0.75000000  0.75000000  1
  Zr  Zr0  1  0.25381300  0.75000000  0.25000000  1
  Zr  Zr1  1  0.74618700  0.25000000  0.75000000  1
  Zr  Zr2  1  0.25381300  0.25000000  0.25000000  1
  Zr  Zr3  1  0.50000000  0.50000000  0.50000000  1
  Zr  Zr4  1  0.00000000  0.50000000  0.00000000  1
  Zr  Zr5  1  0.74618700  0.75000000  0.75000000  1
  Zr  Zr6  1  0.50000000  0.00000000  0.00000000  1
  Zr  Zr7  1  0.00000000  0.00000000  0.50000000  1
  O  O0  1  0.47674200  0.74913500  0.37727700  1
  O  O1  1  0.52325800  0.25086500  0.62272300  1
  O  O2  1  0.47674200  0.25086500  0.37727700  1
  O  O3  1  0.94885200  0.28732000  0.87906100  1
  O  O4  1  0.52325800  0.24913500  0.87727700  1
  O  O5  1  0.24138100  0.50000000  0.89297500  1
  O  O6  1  0.75295100  0.50000000  0.66796800  1
  O  O7  1  0.75861900  0.50000000  0.10702500  1
  O  O8  1  0.25909600  0.50000000  0.61071300  1
  O  O9  1  0.52325800  0.75086500  0.87727700  1
  O  O10  1  0.47674200  0.75086500  0.12272300  1
  O  O11  1  0.94885200  0.71268000  0.87906100  1
  O  O12  1  0.05114800  0.71268000  0.12093900  1
  O  O13  1  0.52325800  0.74913500  0.62272300  1
  O  O14  1  0.05114800  0.78732000  0.37906100  1
  O  O15  1  0.75295100  0.00000000  0.83203200  1
  O  O16  1  0.24704900  0.00000000  0.16796800  1
  O  O17  1  0.75861900  0.00000000  0.39297500  1
  O  O18  1  0.24138100  0.00000000  0.60702500  1
  O  O19  1  0.74090400  0.00000000  0.11071300  1
  O  O20  1  0.05114800  0.21268000  0.37906100  1
  O  O21  1  0.94885200  0.21268000  0.62093900  1
  O  O22  1  0.47674200  0.24913500  0.12272300  1
  O  O23  1  0.05114800  0.28732000  0.12093900  1
  O  O24  1  0.24704900  0.50000000  0.33203200  1
  O  O25  1  0.74090400  0.50000000  0.38928700  1
  O  O26  1  0.94885200  0.78732000  0.62093900  1
  O  O27  1  0.25909600  0.00000000  0.88928700  1
loop_
_geom_bond_atom_site_label_1
_geom_bond_atom_site_label_2
_geom_bond_distance
_geom_bond_site_symmetry_2
Gd0 O17 2.260179 1_555
Gd0 O18 2.260179 1_555
Gd0 O2 2.310535 1_555
Gd0 O1 2.310535 1_555
Gd0 O0 2.310535 1_545
Gd0 O13 2.310535 1_545
Gd1 O7 2.260179 1_555
Gd1 O5 2.260179 1_554
Gd1 O4 2.310535 1_554
Gd1 O22 2.310535 1_555
Gd1 O9 2.310535 1_554
Gd1 O10 2.310535 1_555
Gd2 O0 2.399874 1_555
Gd2 O10 2.399874 1_555
Gd2 O25 2.402064 1_555
Gd2 O19 2.402064 1_565
Gd2 O17 2.430606 1_565
Gd2 O7 2.430606 1_555
Gd2 O14 2.739819 1_655
Gd2 O12 2.739819 1_655
Gd3 O19 2.283120 1_455
Gd3 O27 2.283120 1_554
Gd3 O12 2.556594 1_545
Gd3 O23 2.556594 1_555
Gd3 O11 2.556594 1_444
Gd3 O3 2.556594 1_454
Gd3 O16 2.579665 1_555
Gd3 O15 2.579665 1_454
Gd4 O2 2.399874 1_555
Gd4 O22 2.399874 1_555
Gd4 O25 2.402064 1_555
Gd4 O19 2.402064 1_555
Gd4 O17 2.430606 1_555
Gd4 O7 2.430606 1_555
Gd4 O20 2.739819 1_655
Gd4 O23 2.739819 1_655
Gd5 O4 2.399874 1_555
Gd5 O1 2.399874 1_555
Gd5 O27 2.402064 1_555
Gd5 O8 2.402064 1_555
Gd5 O5 2.430606 1_555
Gd5 O18 2.430606 1_555
Gd5 O21 2.739819 1_455
Gd5 O3 2.739819 1_455
Gd6 O8 2.283120 1_555
Gd6 O25 2.283120 1_455
Gd6 O20 2.556594 1_555
Gd6 O14 2.556594 1_555
Gd6 O21 2.556594 1_455
Gd6 O26 2.556594 1_455
Gd6 O24 2.579665 1_555
Gd6 O6 2.579665 1_455
Gd7 O9 2.399874 1_555
Gd7 O13 2.399874 1_555
Gd7 O27 2.402064 1_565
Gd7 O8 2.402064 1_555
Gd7 O5 2.430606 1_555
Gd7 O18 2.430606 1_565
Gd7 O26 2.739819 1_455
Gd7 O11 2.739819 1_455
O0 Zr0 2.158375 1_555
O0 Zr3 2.299750 1_555
O1 Zr1 2.158375 1_555
O1 Zr3 2.299750 1_555
O2 Zr2 2.158375 1_555
O2 Zr3 2.299750 1_555
O3 Zr1 2.072912 1_555
O3 Zr4 2.095459 1_656
O4 Zr1 2.158375 1_555
O4 Zr6 2.299750 1_556
O5 Zr4 2.148431 1_556
O6 Zr5 2.085758 1_555
O6 Zr1 2.085758 1_555
O6 Zr3 2.612154 1_555
O7 Zr4 2.148431 1_655
O8 Zr3 2.166268 1_555
O9 Zr5 2.158375 1_555
O9 Zr6 2.299750 1_566
O10 Zr0 2.158375 1_555
O10 Zr6 2.299750 1_565
O11 Zr5 2.072912 1_555
O11 Zr4 2.095459 1_656
O12 Zr0 2.072912 1_555
O12 Zr4 2.095459 1_555
O13 Zr5 2.158375 1_555
O13 Zr3 2.299750 1_555
O14 Zr0 2.072912 1_555
O14 Zr7 2.095459 1_565
O15 Zr5 2.085758 1_545
O15 Zr1 2.085758 1_555
O15 Zr6 2.612154 1_556
O16 Zr2 2.085758 1_555
O16 Zr0 2.085758 1_545
O16 Zr6 2.612154 1_555
O17 Zr7 2.148431 1_655
O18 Zr7 2.148431 1_555
O19 Zr6 2.166268 1_555
O20 Zr2 2.072912 1_555
O20 Zr7 2.095459 1_555
O21 Zr1 2.072912 1_555
O21 Zr7 2.095459 1_655
O22 Zr2 2.158375 1_555
O22 Zr6 2.299750 1_555
O23 Zr2 2.072912 1_555
O23 Zr4 2.095459 1_555
O24 Zr2 2.085758 1_555
O24 Zr0 2.085758 1_555
O24 Zr3 2.612154 1_555
O25 Zr3 2.166268 1_555
O26 Zr5 2.072912 1_555
O26 Zr7 2.095459 1_665
O27 Zr6 2.166268 1_556
