# generated using pymatgen
data_Cs2PAuSe4
_symmetry_space_group_name_H-M   'P 1'
_cell_length_a   7.27638471
_cell_length_b   7.45473238
_cell_length_c   21.17809305
_cell_angle_alpha   90.00000000
_cell_angle_beta   90.00000000
_cell_angle_gamma   90.00000000
_symmetry_Int_Tables_number   1
_chemical_formula_structural   Cs2PAuSe4
_chemical_formula_sum   'Cs8 P4 Au4 Se16'
_cell_volume   1148.77390399
_cell_formula_units_Z   4
loop_
 _symmetry_equiv_pos_site_id
 _symmetry_equiv_pos_as_xyz
  1  'x, y, z'
loop_
 _atom_site_type_symbol
 _atom_site_label
 _atom_site_symmetry_multiplicity
 _atom_site_fract_x
 _atom_site_fract_y
 _atom_site_fract_z
 _atom_site_occupancy
  Cs  Cs0  1  0.79288829  0.25000000  0.51542664  1
  Cs  Cs1  1  0.20711171  0.75000000  0.48457336  1
  Cs  Cs2  1  0.79288829  0.75000000  0.98457336  1
  Cs  Cs3  1  0.20711171  0.25000000  0.01542664  1
  Cs  Cs4  1  0.42952640  0.25000000  0.33378215  1
  Cs  Cs5  1  0.57047360  0.75000000  0.66621785  1
  Cs  Cs6  1  0.42952640  0.75000000  0.16621785  1
  Cs  Cs7  1  0.57047360  0.25000000  0.83378215  1
  P  P0  1  0.27755866  0.25000000  0.61259124  1
  P  P1  1  0.72244134  0.75000000  0.38740876  1
  P  P2  1  0.27755866  0.75000000  0.88740876  1
  P  P3  1  0.72244134  0.25000000  0.11259124  1
  Au  Au0  1  0.11398534  0.00000000  0.75000000  1
  Au  Au1  1  0.88601466  0.50000000  0.25000000  1
  Au  Au2  1  0.88601466  0.00000000  0.25000000  1
  Au  Au3  1  0.11398534  0.50000000  0.75000000  1
  Se  Se0  1  0.54097728  0.25000000  0.66055241  1
  Se  Se1  1  0.45902272  0.75000000  0.33944759  1
  Se  Se2  1  0.54097728  0.75000000  0.83944759  1
  Se  Se3  1  0.45902272  0.25000000  0.16055241  1
  Se  Se4  1  0.11279125  0.00201383  0.63602986  1
  Se  Se5  1  0.88720875  0.50201383  0.36397014  1
  Se  Se6  1  0.11279125  0.99798617  0.86397014  1
  Se  Se7  1  0.88720875  0.49798617  0.13602986  1
  Se  Se8  1  0.88720875  0.99798617  0.36397014  1
  Se  Se9  1  0.11279125  0.49798617  0.63602986  1
  Se  Se10  1  0.88720875  0.00201383  0.13602986  1
  Se  Se11  1  0.11279125  0.50201383  0.86397014  1
  Se  Se12  1  0.29300353  0.25000000  0.50982025  1
  Se  Se13  1  0.70699647  0.75000000  0.49017975  1
  Se  Se14  1  0.29300353  0.75000000  0.99017975  1
  Se  Se15  1  0.70699647  0.25000000  0.00982025  1
loop_
_geom_bond_atom_site_label_1
_geom_bond_atom_site_label_2
_geom_bond_distance
_geom_bond_site_symmetry_2
Cs0 Se0 3.578578 1_555
Cs0 Se12 3.639291 1_555
Cs0 Se12 3.640967 1_655
Cs0 Se5 3.780074 1_555
Cs0 Se8 3.780074 1_545
Cs0 Se13 3.817034 1_555
Cs0 Se13 3.817034 1_545
Cs0 Se9 3.919133 1_655
Cs0 Se4 3.919133 1_655
Cs1 Se1 3.578578 1_555
Cs1 Se13 3.639291 1_555
Cs1 Se13 3.640967 1_455
Cs1 Se4 3.780074 1_565
Cs1 Se9 3.780074 1_555
Cs1 Se12 3.817034 1_565
Cs1 Se12 3.817034 1_555
Cs1 Se8 3.919133 1_455
Cs1 Se5 3.919133 1_455
Cs2 Se2 3.578578 1_555
Cs2 Se14 3.639291 1_555
Cs2 Se14 3.640967 1_655
Cs2 Se10 3.780074 1_566
Cs2 Se7 3.780074 1_556
Cs2 Se15 3.817034 1_566
Cs2 Se15 3.817034 1_556
Cs2 Se6 3.919133 1_655
Cs2 Se11 3.919133 1_655
Cs3 Se3 3.578578 1_555
Cs3 Se15 3.639291 1_555
Cs3 Se15 3.640967 1_455
Cs3 Se11 3.780074 1_554
Cs3 Se6 3.780074 1_544
Cs3 Se14 3.817034 1_554
Cs3 Se14 3.817034 1_544
Cs3 Se7 3.919133 1_455
Cs3 Se10 3.919133 1_455
Cs4 Se3 3.674948 1_555
Cs4 Se1 3.735468 1_545
Cs4 Se1 3.735468 1_555
Cs4 Se12 3.858230 1_555
Cs4 Se5 3.876719 1_555
Cs4 Se8 3.876719 1_545
Cs5 Se2 3.674948 1_555
Cs5 Se0 3.735468 1_565
Cs5 Se0 3.735468 1_555
Cs5 Se13 3.858230 1_555
Cs5 Se4 3.876719 1_565
Cs5 Se9 3.876719 1_555
Cs6 Se1 3.674948 1_555
Cs6 Se3 3.735468 1_565
Cs6 Se3 3.735468 1_555
Cs6 Se14 3.858230 1_554
Cs6 Se10 3.876719 1_565
Cs6 Se7 3.876719 1_555
Cs7 Se0 3.674948 1_555
Cs7 Se2 3.735468 1_555
Cs7 Se2 3.735468 1_545
Cs7 Se15 3.858230 1_556
Cs7 Se11 3.876719 1_555
Cs7 Se6 3.876719 1_545
P0 Se0 2.169233 1_555
P0 Se12 2.179393 1_555
P0 Se9 2.258621 1_555
P0 Se4 2.258621 1_555
P1 Se1 2.169233 1_555
P1 Se13 2.179393 1_555
P1 Se8 2.258621 1_555
P1 Se5 2.258621 1_555
P2 Se2 2.169233 1_555
P2 Se14 2.179393 1_555
P2 Se6 2.258621 1_555
P2 Se11 2.258621 1_555
P3 Se3 2.169233 1_555
P3 Se15 2.179393 1_555
P3 Se7 2.258621 1_555
P3 Se10 2.258621 1_555
Au0 Se6 2.413732 1_545
Au0 Se4 2.413732 1_555
Au1 Se5 2.413732 1_555
Au1 Se7 2.413732 1_555
Au2 Se8 2.413732 1_545
Au2 Se10 2.413732 1_555
Au3 Se11 2.413732 1_555
Au3 Se9 2.413732 1_555
