# generated using pymatgen
data_Sc4TcCl4
_symmetry_space_group_name_H-M   'P 1'
_cell_length_a   8.01845180
_cell_length_b   8.01845286
_cell_length_c   6.23515425
_cell_angle_alpha   89.40527275
_cell_angle_beta   89.40527599
_cell_angle_gamma   89.58089602
_symmetry_Int_Tables_number   1
_chemical_formula_structural   Sc4TcCl4
_chemical_formula_sum   'Sc8 Tc2 Cl8'
_cell_volume   400.83924057
_cell_formula_units_Z   2
loop_
 _symmetry_equiv_pos_site_id
 _symmetry_equiv_pos_as_xyz
  1  'x, y, z'
loop_
 _atom_site_type_symbol
 _atom_site_label
 _atom_site_symmetry_multiplicity
 _atom_site_fract_x
 _atom_site_fract_y
 _atom_site_fract_z
 _atom_site_occupancy
  Sc  Sc0  1  0.10449016  0.74059479  0.98305539  1
  Sc  Sc1  1  0.25940521  0.89550984  0.51694461  1
  Sc  Sc2  1  0.89550984  0.25940521  0.01694461  1
  Sc  Sc3  1  0.74059479  0.10449016  0.48305539  1
  Sc  Sc4  1  0.74224707  0.89772305  0.01364327  1
  Sc  Sc5  1  0.10227695  0.25775293  0.48635673  1
  Sc  Sc6  1  0.25775293  0.10227695  0.98635673  1
  Sc  Sc7  1  0.89772305  0.74224707  0.51364327  1
  Tc  Tc0  1  0.01092760  0.98907240  0.25000000  1
  Tc  Tc1  1  0.98907240  0.01092760  0.75000000  1
  Cl  Cl0  1  0.42423315  0.81717691  0.89818429  1
  Cl  Cl1  1  0.18282309  0.57576685  0.60181571  1
  Cl  Cl2  1  0.57576685  0.18282309  0.10181571  1
  Cl  Cl3  1  0.81717691  0.42423315  0.39818429  1
  Cl  Cl4  1  0.80754213  0.58029105  0.89671808  1
  Cl  Cl5  1  0.41970895  0.19245787  0.60328192  1
  Cl  Cl6  1  0.19245787  0.41970895  0.10328192  1
  Cl  Cl7  1  0.58029105  0.80754213  0.39671808  1
loop_
_geom_bond_atom_site_label_1
_geom_bond_atom_site_label_2
_geom_bond_distance
_geom_bond_site_symmetry_2
Sc0 Tc0 2.706278 1_556
Sc0 Tc1 2.756809 1_465
Sc1 Tc0 2.706277 1_555
Sc1 Tc1 2.756808 1_465
Sc2 Tc1 2.706278 1_554
Sc2 Tc0 2.756809 1_645
Sc3 Tc1 2.706277 1_555
Sc3 Tc0 2.756808 1_645
Sc4 Tc1 2.714969 1_564
Sc4 Tc0 2.731526 1_655
Sc5 Tc1 2.714969 1_455
Sc5 Tc0 2.731526 1_545
Sc6 Tc0 2.714969 1_546
Sc6 Tc1 2.731526 1_455
Sc7 Tc0 2.714969 1_655
Sc7 Tc1 2.731526 1_565
Cl0 Sc0 2.686733 1_555
Cl0 Sc6 2.697504 1_565
Cl0 Sc4 2.740372 1_556
Cl0 Sc1 2.795344 1_555
Cl1 Sc1 2.686733 1_555
Cl1 Sc7 2.697504 1_455
Cl1 Sc5 2.740373 1_555
Cl1 Sc0 2.795344 1_555
Cl2 Sc2 2.686733 1_555
Cl2 Sc4 2.697504 1_545
Cl2 Sc6 2.740372 1_554
Cl2 Sc3 2.795344 1_555
Cl3 Sc3 2.686733 1_555
Cl3 Sc5 2.697504 1_655
Cl3 Sc7 2.740373 1_555
Cl3 Sc2 2.795344 1_555
Cl4 Sc4 2.700991 1_556
Cl4 Sc2 2.761203 1_556
Cl4 Sc0 2.774388 1_655
Cl4 Sc7 2.797841 1_555
Cl5 Sc5 2.700991 1_555
Cl5 Sc3 2.761203 1_555
Cl5 Sc1 2.774388 1_545
Cl5 Sc6 2.797841 1_555
Cl6 Sc6 2.700991 1_554
Cl6 Sc0 2.761203 1_554
Cl6 Sc2 2.774388 1_455
Cl6 Sc5 2.797841 1_555
Cl7 Sc7 2.700991 1_555
Cl7 Sc1 2.761203 1_555
Cl7 Sc3 2.774388 1_565
Cl7 Sc4 2.797841 1_555
