# generated using pymatgen
data_Ta5TiIr2
_symmetry_space_group_name_H-M   'P 1'
_cell_length_a   5.13563571
_cell_length_b   5.13563571
_cell_length_c   5.08999855
_cell_angle_alpha   90.00000000
_cell_angle_beta   90.00000000
_cell_angle_gamma   90.00000000
_symmetry_Int_Tables_number   1
_chemical_formula_structural   Ta5TiIr2
_chemical_formula_sum   'Ta5 Ti1 Ir2'
_cell_volume   134.24746051
_cell_formula_units_Z   1
loop_
 _symmetry_equiv_pos_site_id
 _symmetry_equiv_pos_as_xyz
  1  'x, y, z'
loop_
 _atom_site_type_symbol
 _atom_site_label
 _atom_site_symmetry_multiplicity
 _atom_site_fract_x
 _atom_site_fract_y
 _atom_site_fract_z
 _atom_site_occupancy
  Ta  Ta0  1  0.50000000  0.24980045  0.99719723  1
  Ta  Ta1  1  0.50000000  0.75019955  0.99719723  1
  Ta  Ta2  1  0.25019955  0.00000000  0.50280277  1
  Ta  Ta3  1  0.74980045  0.00000000  0.50280277  1
  Ta  Ta4  1  0.00000000  0.50000000  0.25000000  1
  Ti  Ti0  1  0.00000000  0.50000000  0.75000000  1
  Ir  Ir0  1  0.50000000  0.50000000  0.49928949  1
  Ir  Ir1  1  0.00000000  0.00000000  0.00071051  1
loop_
_geom_bond_atom_site_label_1
_geom_bond_atom_site_label_2
_geom_bond_distance
_geom_bond_site_symmetry_2
Ta0 Ta1 2.565768 1_545
Ta0 Ta1 2.569868 1_555
Ta2 Ta3 2.565768 1_555
Ta2 Ta3 2.569868 1_455
Ta4 Ti0 2.544999 1_555
Ta4 Ti0 2.544999 1_554
Ir0 Ta1 2.841476 1_555
Ir0 Ta0 2.841476 1_555
Ir0 Ta1 2.860489 1_554
Ir0 Ta0 2.860489 1_554
Ir0 Ta4 2.864219 1_555
Ir0 Ta4 2.864219 1_655
Ir0 Ti0 2.867431 1_555
Ir0 Ti0 2.867431 1_655
Ir0 Ta3 2.870505 1_555
Ir0 Ta3 2.870505 1_565
Ir0 Ta2 2.870505 1_555
Ir0 Ta2 2.870505 1_565
Ir1 Ta2 2.841476 1_554
Ir1 Ta3 2.841476 1_454
Ir1 Ta2 2.860489 1_555
Ir1 Ta3 2.860489 1_455
Ir1 Ta4 2.864219 1_555
Ir1 Ta4 2.864219 1_545
Ir1 Ti0 2.867431 1_544
Ir1 Ti0 2.867431 1_554
Ir1 Ta0 2.870505 1_454
Ir1 Ta0 2.870505 1_554
Ir1 Ta1 2.870505 1_444
Ir1 Ta1 2.870505 1_544
