# generated using pymatgen
data_Cs(RuS)2
_symmetry_space_group_name_H-M   'P 1'
_cell_length_a   7.50715192
_cell_length_b   7.50715243
_cell_length_c   7.50715166
_cell_angle_alpha   149.54041394
_cell_angle_beta   149.54042191
_cell_angle_gamma   43.61644298
_symmetry_Int_Tables_number   1
_chemical_formula_structural   Cs(RuS)2
_chemical_formula_sum   'Cs1 Ru2 S2'
_cell_volume   108.42415392
_cell_formula_units_Z   1
loop_
 _symmetry_equiv_pos_site_id
 _symmetry_equiv_pos_as_xyz
  1  'x, y, z'
loop_
 _atom_site_type_symbol
 _atom_site_label
 _atom_site_symmetry_multiplicity
 _atom_site_fract_x
 _atom_site_fract_y
 _atom_site_fract_z
 _atom_site_occupancy
  Cs  Cs0  1  0.00000000  0.00000000  0.00000000  1
  Ru  Ru0  1  0.75000000  0.25000000  0.50000000  1
  Ru  Ru1  1  0.25000000  0.75000000  0.50000000  1
  S  S0  1  0.33655001  0.33655001  0.00000000  1
  S  S1  1  0.66345099  0.66345099  1.00000000  1
loop_
_geom_bond_atom_site_label_1
_geom_bond_atom_site_label_2
_geom_bond_distance
_geom_bond_site_symmetry_2
Cs0 S0 3.601305 1_556
Cs0 S0 3.601306 1_444
Cs0 S0 3.601306 1_455
Cs0 S0 3.601306 1_545
Cs0 S1 3.601314 1_443
Cs0 S1 3.601315 1_555
Cs0 S1 3.601315 1_544
Cs0 S1 3.601315 1_454
Ru0 S1 2.311839 1_555
Ru0 S1 2.311840 1_544
Ru0 S0 2.311846 1_555
Ru0 S0 2.311846 1_656
Ru1 S1 2.311839 1_555
Ru1 S1 2.311839 1_454
Ru1 S0 2.311847 1_555
Ru1 S0 2.311847 1_566
