# generated using pymatgen
data_Hf10Ga2Sn5Sb
_symmetry_space_group_name_H-M   'P 1'
_cell_length_a   8.58358520
_cell_length_b   8.58358578
_cell_length_c   5.78538961
_cell_angle_alpha   90.00000000
_cell_angle_beta   90.00000000
_cell_angle_gamma   119.90922365
_symmetry_Int_Tables_number   1
_chemical_formula_structural   Hf10Ga2Sn5Sb
_chemical_formula_sum   'Hf10 Ga2 Sn5 Sb1'
_cell_volume   369.48537188
_cell_formula_units_Z   1
loop_
 _symmetry_equiv_pos_site_id
 _symmetry_equiv_pos_as_xyz
  1  'x, y, z'
loop_
 _atom_site_type_symbol
 _atom_site_label
 _atom_site_symmetry_multiplicity
 _atom_site_fract_x
 _atom_site_fract_y
 _atom_site_fract_z
 _atom_site_occupancy
  Hf  Hf0  1  0.73494849  0.73494849  0.75000000  1
  Hf  Hf1  1  0.26410745  0.99977916  0.75000000  1
  Hf  Hf2  1  0.99977916  0.26410745  0.75000000  1
  Hf  Hf3  1  0.26736340  0.26736340  0.25000000  1
  Hf  Hf4  1  0.73349879  0.00032058  0.25000000  1
  Hf  Hf5  1  0.00032058  0.73349879  0.25000000  1
  Hf  Hf6  1  0.66629207  0.33340705  0.00063626  1
  Hf  Hf7  1  0.33340705  0.66629207  0.00063626  1
  Hf  Hf8  1  0.33340705  0.66629207  0.49936374  1
  Hf  Hf9  1  0.66629207  0.33340705  0.49936374  1
  Ga  Ga0  1  0.99942236  0.99942236  0.00276751  1
  Ga  Ga1  1  0.99942236  0.99942236  0.49723249  1
  Sn  Sn0  1  0.60921045  0.99990675  0.75000000  1
  Sn  Sn1  1  0.99990675  0.60921045  0.75000000  1
  Sn  Sn2  1  0.61223979  0.61223979  0.25000000  1
  Sn  Sn3  1  0.38944577  0.99964704  0.25000000  1
  Sn  Sn4  1  0.99964704  0.38944577  0.25000000  1
  Sb  Sb0  1  0.39129038  0.39129038  0.75000000  1
loop_
_geom_bond_atom_site_label_1
_geom_bond_atom_site_label_2
_geom_bond_distance
_geom_bond_site_symmetry_2
Hf0 Sb0 2.953865 1_555
Hf0 Sn1 2.963971 1_555
Hf0 Sn0 2.963971 1_555
Hf0 Sn2 3.078982 1_555
Hf0 Sn2 3.078982 1_556
Hf1 Sn0 2.961675 1_555
Hf1 Sn1 2.966504 1_455
Hf1 Sb0 2.970959 1_565
Hf1 Sn3 3.086480 1_556
Hf1 Sn3 3.086480 1_555
Hf2 Sn1 2.961675 1_555
Hf2 Sn0 2.966504 1_545
Hf2 Sb0 2.970958 1_655
Hf2 Sn4 3.086480 1_555
Hf2 Sn4 3.086480 1_556
Hf3 Sn4 2.963139 1_455
Hf3 Sn3 2.963139 1_545
Hf3 Sn2 2.964337 1_555
Hf3 Sb0 3.082585 1_554
Hf3 Sb0 3.082585 1_555
Hf4 Sn3 2.950330 1_545
Hf4 Sn2 2.953319 1_545
Hf4 Sn4 2.960686 1_555
Hf4 Sn0 3.082542 1_545
Hf4 Sn0 3.082542 1_544
Hf5 Sn4 2.950330 1_455
Hf5 Sn2 2.953319 1_455
Hf5 Sn3 2.960686 1_555
Hf5 Sn1 3.082542 1_454
Hf5 Sn1 3.082542 1_455
Hf6 Sb0 3.015126 1_554
Hf6 Sn4 3.021188 1_555
Hf6 Sn2 3.021958 1_555
Hf6 Sn0 3.023004 1_544
Hf6 Sn3 3.024317 1_545
Hf6 Sn1 3.024350 1_554
Hf7 Sb0 3.015127 1_554
Hf7 Sn3 3.021188 1_555
Hf7 Sn2 3.021958 1_555
Hf7 Sn1 3.023004 1_454
Hf7 Sn4 3.024316 1_455
Hf7 Sn0 3.024351 1_554
Hf8 Sb0 3.015127 1_555
Hf8 Sn3 3.021188 1_555
Hf8 Sn2 3.021958 1_555
Hf8 Sn1 3.023004 1_455
Hf8 Sn4 3.024316 1_455
Hf8 Sn0 3.024351 1_555
Hf9 Sb0 3.015126 1_555
Hf9 Sn4 3.021188 1_555
Hf9 Sn2 3.021958 1_555
Hf9 Sn0 3.023004 1_545
Hf9 Sn3 3.024317 1_545
Hf9 Sn1 3.024350 1_555
Ga0 Hf4 2.696967 1_565
Ga0 Hf5 2.696967 1_655
Ga0 Hf1 2.700612 1_654
Ga0 Hf2 2.700612 1_564
Ga0 Hf0 2.702989 1_554
Ga0 Hf3 2.711070 1_665
Ga1 Hf4 2.696967 1_565
Ga1 Hf5 2.696967 1_655
Ga1 Hf1 2.700612 1_655
Ga1 Hf2 2.700612 1_565
Ga1 Hf0 2.702989 1_555
Ga1 Hf3 2.711070 1_665
