# generated using pymatgen
data_Sr6Sn2HN
_symmetry_space_group_name_H-M   'P 1'
_cell_length_a   7.41967978
_cell_length_b   7.41967927
_cell_length_c   7.41967903
_cell_angle_alpha   59.99999670
_cell_angle_beta   59.99999894
_cell_angle_gamma   59.99999959
_symmetry_Int_Tables_number   1
_chemical_formula_structural   Sr6Sn2HN
_chemical_formula_sum   'Sr6 Sn2 H1 N1'
_cell_volume   288.82873586
_cell_formula_units_Z   1
loop_
 _symmetry_equiv_pos_site_id
 _symmetry_equiv_pos_as_xyz
  1  'x, y, z'
loop_
 _atom_site_type_symbol
 _atom_site_label
 _atom_site_symmetry_multiplicity
 _atom_site_fract_x
 _atom_site_fract_y
 _atom_site_fract_z
 _atom_site_occupancy
  Sr  Sr0  1  0.25901509  0.74098491  0.74098491  1
  Sr  Sr1  1  0.25901509  0.74098491  0.25901509  1
  Sr  Sr2  1  0.74098491  0.25901509  0.74098491  1
  Sr  Sr3  1  0.74098491  0.74098491  0.25901509  1
  Sr  Sr4  1  0.25901509  0.25901509  0.74098491  1
  Sr  Sr5  1  0.74098491  0.25901509  0.25901509  1
  Sn  Sn0  1  0.25000000  0.25000000  0.25000000  1
  Sn  Sn1  1  0.75000000  0.75000000  0.75000000  1
  H  H0  1  0.00000000  0.00000000  0.00000000  1
  N  N0  1  0.50000000  0.50000000  0.50000000  1
loop_
_geom_bond_atom_site_label_1
_geom_bond_atom_site_label_2
_geom_bond_distance
_geom_bond_site_symmetry_2
Sn0 Sr0 3.711045 1_554
Sn0 Sr0 3.711045 1_545
Sn0 Sr4 3.711045 1_554
Sn0 Sr4 3.711045 1_555
Sn0 Sr2 3.711045 1_554
Sn0 Sr1 3.711045 1_545
Sn0 Sr1 3.711045 1_555
Sn0 Sr2 3.711045 1_455
Sn0 Sr3 3.711046 1_545
Sn0 Sr3 3.711046 1_455
Sn0 Sr5 3.711046 1_555
Sn0 Sr5 3.711046 1_455
Sn1 Sr5 3.711045 1_556
Sn1 Sr5 3.711045 1_565
Sn1 Sr3 3.711045 1_556
Sn1 Sr3 3.711045 1_555
Sn1 Sr1 3.711045 1_556
Sn1 Sr2 3.711045 1_565
Sn1 Sr2 3.711045 1_555
Sn1 Sr1 3.711045 1_655
Sn1 Sr4 3.711046 1_565
Sn1 Sr4 3.711046 1_655
Sn1 Sr0 3.711046 1_555
Sn1 Sr0 3.711046 1_655
H0 Sr1 2.717848 1_545
H0 Sr5 2.717848 1_455
H0 Sr2 2.717848 1_454
H0 Sr0 2.717848 1_544
H0 Sr4 2.717848 1_554
H0 Sr3 2.717848 1_445
N0 Sr2 2.528657 1_555
N0 Sr0 2.528657 1_555
N0 Sr5 2.528657 1_555
N0 Sr1 2.528657 1_555
N0 Sr3 2.528657 1_555
N0 Sr4 2.528657 1_555
