# generated using pymatgen
data_K2RbSb2Au3
_symmetry_space_group_name_H-M   'P 1'
_cell_length_a   8.09539260
_cell_length_b   8.09539217
_cell_length_c   8.09539189
_cell_angle_alpha   46.08919841
_cell_angle_beta   46.08920130
_cell_angle_gamma   46.08919033
_symmetry_Int_Tables_number   1
_chemical_formula_structural   K2RbSb2Au3
_chemical_formula_sum   'K2 Rb1 Sb2 Au3'
_cell_volume   251.20243050
_cell_formula_units_Z   1
loop_
 _symmetry_equiv_pos_site_id
 _symmetry_equiv_pos_as_xyz
  1  'x, y, z'
loop_
 _atom_site_type_symbol
 _atom_site_label
 _atom_site_symmetry_multiplicity
 _atom_site_fract_x
 _atom_site_fract_y
 _atom_site_fract_z
 _atom_site_occupancy
  K  K0  1  0.91964915  0.91964915  0.91964915  1
  K  K1  1  0.08035085  0.08035085  0.08035085  1
  Rb  Rb0  1  0.50000000  0.50000000  0.50000000  1
  Sb  Sb0  1  0.24337488  0.24337488  0.24337488  1
  Sb  Sb1  1  0.75662512  0.75662512  0.75662512  1
  Au  Au0  1  0.00000000  0.50000000  0.50000000  1
  Au  Au1  1  0.50000000  0.00000000  0.50000000  1
  Au  Au2  1  0.50000000  0.50000000  0.00000000  1
loop_
_geom_bond_atom_site_label_1
_geom_bond_atom_site_label_2
_geom_bond_distance
_geom_bond_site_symmetry_2
K0 Sb1 3.531695 1_555
K0 Sb0 3.665069 1_656
K0 Sb0 3.665070 1_566
K0 Sb0 3.665070 1_665
K1 Sb0 3.531695 1_555
K1 Sb1 3.665069 1_454
K1 Sb1 3.665070 1_544
K1 Sb1 3.665070 1_445
Rb0 Sb0 4.018821 1_565
Rb0 Sb1 4.018821 1_545
Rb0 Sb0 4.018822 1_556
Rb0 Sb1 4.018822 1_554
Rb0 Sb0 4.018822 1_655
Rb0 Sb1 4.018822 1_455
Au0 Sb1 2.673067 1_455
Au0 Sb0 2.673067 1_555
Au0 K1 3.615532 1_556
Au0 K0 3.615532 1_454
Au0 K1 3.615532 1_565
Au0 K0 3.615532 1_445
Au0 Rb0 4.047696 1_555
Au0 Rb0 4.047696 1_455
Au1 Sb1 2.673067 1_545
Au1 Sb0 2.673067 1_555
Au1 K1 3.615532 1_556
Au1 K0 3.615532 1_544
Au1 K1 3.615533 1_655
Au1 K0 3.615533 1_445
Au1 Rb0 4.047696 1_545
Au1 Rb0 4.047696 1_555
Au2 Sb1 2.673067 1_554
Au2 Sb0 2.673067 1_555
Au2 K1 3.615532 1_565
Au2 K0 3.615532 1_544
Au2 K1 3.615532 1_655
Au2 K0 3.615532 1_454
Au2 Rb0 4.047696 1_554
Au2 Rb0 4.047696 1_555
