# generated using pymatgen
data_Sr2GeSe4
_symmetry_space_group_name_H-M   'P 1'
_cell_length_a   6.50904168
_cell_length_b   6.50904304
_cell_length_c   10.36699117
_cell_angle_alpha   90.00000000
_cell_angle_beta   90.00000000
_cell_angle_gamma   109.98928448
_symmetry_Int_Tables_number   1
_chemical_formula_structural   Sr2GeSe4
_chemical_formula_sum   'Sr4 Ge2 Se8'
_cell_volume   412.76445797
_cell_formula_units_Z   2
loop_
 _symmetry_equiv_pos_site_id
 _symmetry_equiv_pos_as_xyz
  1  'x, y, z'
loop_
 _atom_site_type_symbol
 _atom_site_label
 _atom_site_symmetry_multiplicity
 _atom_site_fract_x
 _atom_site_fract_y
 _atom_site_fract_z
 _atom_site_occupancy
  Sr  Sr0  1  0.74490859  0.36472971  0.25000000  1
  Sr  Sr1  1  0.36472971  0.74490859  0.75000000  1
  Sr  Sr2  1  0.00059243  0.00059243  0.50000000  1
  Sr  Sr3  1  0.00059243  0.00059243  -0.00000000  1
  Ge  Ge0  1  0.76361522  0.31097409  0.75000000  1
  Ge  Ge1  1  0.31097409  0.76361522  0.25000000  1
  Se  Se0  1  0.26433350  0.11079022  0.25000000  1
  Se  Se1  1  0.11079022  0.26433350  0.75000000  1
  Se  Se2  1  0.69428194  0.83667095  0.25000000  1
  Se  Se3  1  0.83667095  0.69428194  0.75000000  1
  Se  Se4  1  0.13740695  0.57674802  0.43743592  1
  Se  Se5  1  0.57674802  0.13740695  0.56256408  1
  Se  Se6  1  0.13740695  0.57674802  0.06256408  1
  Se  Se7  1  0.57674802  0.13740695  0.93743592  1
loop_
_geom_bond_atom_site_label_1
_geom_bond_atom_site_label_2
_geom_bond_distance
_geom_bond_site_symmetry_2
Ge0 Se5 2.364767 1_555
Ge0 Se7 2.364767 1_555
Ge0 Se3 2.374836 1_555
Ge0 Se1 2.380712 1_655
Ge1 Se6 2.364767 1_555
Ge1 Se4 2.364767 1_555
Ge1 Se2 2.374835 1_555
Ge1 Se0 2.380712 1_565
Se0 Sr0 2.997005 1_555
Se0 Sr2 3.055626 1_555
Se0 Sr3 3.055626 1_555
Se1 Sr1 2.997005 1_555
Se1 Sr2 3.055626 1_555
Se1 Sr3 3.055626 1_556
Se2 Sr0 3.199556 1_555
Se2 Sr2 3.221235 1_665
Se2 Sr3 3.221235 1_665
Se2 Sr0 3.338901 1_565
Se3 Sr1 3.199555 1_555
Se3 Sr3 3.221235 1_666
Se3 Sr2 3.221235 1_665
Se3 Sr1 3.338900 1_655
Se4 Sr0 3.129981 1_455
Se4 Sr2 3.241068 1_565
Se4 Sr1 3.574916 1_555
Se4 Sr2 3.604800 1_555
Se5 Sr1 3.129981 1_545
Se5 Sr2 3.241068 1_655
Se5 Sr0 3.574916 1_555
Se5 Sr2 3.604799 1_555
Se6 Sr0 3.129981 1_455
Se6 Sr3 3.241068 1_565
Se6 Sr1 3.574916 1_554
Se6 Sr3 3.604800 1_555
Se7 Sr1 3.129981 1_545
Se7 Sr3 3.241068 1_656
Se7 Sr0 3.574916 1_556
Se7 Sr3 3.604799 1_556
