# generated using pymatgen
data_Hf5Sn2GeSb
_symmetry_space_group_name_H-M   'P 1'
_cell_length_a   8.58482188
_cell_length_b   8.58482311
_cell_length_c   5.79067127
_cell_angle_alpha   90.00000000
_cell_angle_beta   90.00000000
_cell_angle_gamma   120.02262704
_symmetry_Int_Tables_number   1
_chemical_formula_structural   Hf5Sn2GeSb
_chemical_formula_sum   'Hf10 Sn4 Ge2 Sb2'
_cell_volume   369.50737930
_cell_formula_units_Z   2
loop_
 _symmetry_equiv_pos_site_id
 _symmetry_equiv_pos_as_xyz
  1  'x, y, z'
loop_
 _atom_site_type_symbol
 _atom_site_label
 _atom_site_symmetry_multiplicity
 _atom_site_fract_x
 _atom_site_fract_y
 _atom_site_fract_z
 _atom_site_occupancy
  Hf  Hf0  1  0.66663478  0.33252303  0.99846471  1
  Hf  Hf1  1  0.33252303  0.66663478  0.99846471  1
  Hf  Hf2  1  0.33252303  0.66663478  0.50153529  1
  Hf  Hf3  1  0.66663478  0.33252303  0.50153529  1
  Hf  Hf4  1  0.73364908  0.73364908  0.75000000  1
  Hf  Hf5  1  0.26685254  0.99940623  0.75000000  1
  Hf  Hf6  1  0.99940623  0.26685254  0.75000000  1
  Hf  Hf7  1  0.26090916  0.26090916  0.25000000  1
  Hf  Hf8  1  0.73852662  0.00065913  0.25000000  1
  Hf  Hf9  1  0.00065913  0.73852662  0.25000000  1
  Sn  Sn0  1  0.39207805  0.39207805  0.75000000  1
  Sn  Sn1  1  0.60900782  0.99932101  0.75000000  1
  Sn  Sn2  1  0.99932101  0.60900782  0.75000000  1
  Sn  Sn3  1  0.60452532  0.60452532  0.25000000  1
  Ge  Ge0  1  0.99990912  0.99990912  0.50393187  1
  Ge  Ge1  1  0.99990912  0.99990912  0.99606813  1
  Sb  Sb0  1  0.39717537  0.99974979  0.25000000  1
  Sb  Sb1  1  0.99974979  0.39717537  0.25000000  1
loop_
_geom_bond_atom_site_label_1
_geom_bond_atom_site_label_2
_geom_bond_distance
_geom_bond_site_symmetry_2
Hf0 Sb1 3.003227 1_556
Hf0 Sb0 3.003498 1_546
Hf0 Sn2 3.012852 1_555
Hf0 Sn1 3.013483 1_545
Hf0 Sn0 3.015447 1_555
Hf0 Sn3 3.017355 1_556
Hf1 Sb0 3.003227 1_556
Hf1 Sb1 3.003498 1_456
Hf1 Sn1 3.012852 1_555
Hf1 Sn2 3.013482 1_455
Hf1 Sn0 3.015447 1_555
Hf1 Sn3 3.017355 1_556
Hf2 Sb0 3.003227 1_555
Hf2 Sb1 3.003498 1_455
Hf2 Sn1 3.012852 1_555
Hf2 Sn2 3.013482 1_455
Hf2 Sn0 3.015447 1_555
Hf2 Sn3 3.017355 1_555
Hf3 Sb1 3.003227 1_555
Hf3 Sb0 3.003498 1_545
Hf3 Sn2 3.012852 1_555
Hf3 Sn1 3.013483 1_545
Hf3 Sn0 3.015447 1_555
Hf3 Sn3 3.017355 1_555
Hf4 Sn0 2.931324 1_555
Hf4 Sn2 2.964603 1_555
Hf4 Sn1 2.964604 1_555
Hf4 Sn3 3.100147 1_555
Hf4 Sn3 3.100147 1_556
Hf5 Sn1 2.937708 1_555
Hf5 Sn2 2.967279 1_455
Hf5 Sn0 2.982116 1_565
Hf5 Sb0 3.103447 1_555
Hf5 Sb0 3.103447 1_556
Hf6 Sn2 2.937709 1_555
Hf6 Sn1 2.967279 1_545
Hf6 Sn0 2.982116 1_655
Hf6 Sb1 3.103447 1_555
Hf6 Sb1 3.103447 1_556
Hf7 Sn3 2.948875 1_555
Hf7 Sb1 3.003268 1_455
Hf7 Sb0 3.003268 1_545
Hf7 Sn0 3.106464 1_554
Hf7 Sn0 3.106464 1_555
Hf8 Sb0 2.926542 1_545
Hf8 Sn3 2.995594 1_545
Hf8 Sb1 2.996246 1_555
Hf8 Sn1 3.099457 1_544
Hf8 Sn1 3.099457 1_545
Hf9 Sb1 2.926542 1_455
Hf9 Sn3 2.995594 1_455
Hf9 Sb0 2.996246 1_555
Hf9 Sn2 3.099457 1_454
Hf9 Sn2 3.099457 1_455
Ge0 Hf7 2.679405 1_665
Ge0 Hf8 2.685492 1_565
Ge0 Hf9 2.685492 1_655
Ge0 Hf4 2.692884 1_555
Ge0 Hf5 2.700365 1_655
Ge0 Hf6 2.700365 1_565
Ge1 Hf7 2.679405 1_666
Ge1 Hf8 2.685492 1_566
Ge1 Hf9 2.685492 1_656
Ge1 Hf4 2.692884 1_555
Ge1 Hf5 2.700365 1_655
Ge1 Hf6 2.700365 1_565
