# generated using pymatgen
data_Nb4VB4Mo
_symmetry_space_group_name_H-M   'P 1'
_cell_length_a   6.08662592
_cell_length_b   6.08662592
_cell_length_c   3.26806302
_cell_angle_alpha   90.00000000
_cell_angle_beta   90.00000000
_cell_angle_gamma   90.00000000
_symmetry_Int_Tables_number   1
_chemical_formula_structural   Nb4VB4Mo
_chemical_formula_sum   'Nb4 V1 B4 Mo1'
_cell_volume   121.07198022
_cell_formula_units_Z   1
loop_
 _symmetry_equiv_pos_site_id
 _symmetry_equiv_pos_as_xyz
  1  'x, y, z'
loop_
 _atom_site_type_symbol
 _atom_site_label
 _atom_site_symmetry_multiplicity
 _atom_site_fract_x
 _atom_site_fract_y
 _atom_site_fract_z
 _atom_site_occupancy
  Nb  Nb0  1  0.68219511  0.17789294  0.50000000  1
  Nb  Nb1  1  0.31780489  0.82210706  0.50000000  1
  Nb  Nb2  1  0.17789294  0.31780489  0.50000000  1
  Nb  Nb3  1  0.82210706  0.68219511  0.50000000  1
  V  V0  1  0.00000000  0.00000000  0.00000000  1
  B  B0  1  0.10725305  0.60918816  0.00000000  1
  B  B1  1  0.89274695  0.39081184  0.00000000  1
  B  B2  1  0.60918816  0.89274695  0.00000000  1
  B  B3  1  0.39081184  0.10725305  0.00000000  1
  Mo  Mo0  1  0.50000000  0.50000000  0.00000000  1
loop_
_geom_bond_atom_site_label_1
_geom_bond_atom_site_label_2
_geom_bond_distance
_geom_bond_site_symmetry_2
Nb0 V0 2.753941 1_656
Nb0 V0 2.753941 1_655
Nb1 V0 2.753941 1_565
Nb1 V0 2.753941 1_566
Nb2 V0 2.753941 1_556
Nb2 V0 2.753941 1_555
Nb3 V0 2.753941 1_665
Nb3 V0 2.753941 1_666
B0 B1 1.863155 1_455
B0 Nb3 2.424819 1_455
B0 Nb3 2.424819 1_454
B0 Nb1 2.447843 1_555
B0 Nb1 2.447843 1_554
B0 Nb2 2.449565 1_554
B0 Nb2 2.449565 1_555
B0 V0 2.466677 1_565
B0 Mo0 2.481166 1_555
B1 Nb2 2.424819 1_655
B1 Nb2 2.424819 1_654
B1 Nb0 2.447843 1_555
B1 Nb0 2.447843 1_554
B1 Nb3 2.449565 1_554
B1 Nb3 2.449565 1_555
B1 V0 2.466677 1_655
B1 Mo0 2.481166 1_555
B2 B3 1.863155 1_565
B2 Nb0 2.424819 1_565
B2 Nb0 2.424819 1_564
B2 Nb3 2.447843 1_555
B2 Nb3 2.447843 1_554
B2 Nb1 2.449565 1_554
B2 Nb1 2.449565 1_555
B2 V0 2.466677 1_665
B2 Mo0 2.481166 1_555
B3 Nb1 2.424819 1_544
B3 Nb1 2.424819 1_545
B3 Nb2 2.447843 1_555
B3 Nb2 2.447843 1_554
B3 Nb0 2.449565 1_555
B3 Nb0 2.449565 1_554
B3 V0 2.466677 1_555
B3 Mo0 2.481166 1_555
Mo0 Nb3 2.782728 1_554
Mo0 Nb3 2.782728 1_555
Mo0 Nb1 2.782728 1_555
Mo0 Nb1 2.782728 1_554
Mo0 Nb0 2.782728 1_555
Mo0 Nb0 2.782728 1_554
Mo0 Nb2 2.782728 1_554
Mo0 Nb2 2.782728 1_555
