# generated using pymatgen
data_V5Si2B4W5
_symmetry_space_group_name_H-M   'P 1'
_cell_length_a   6.85539336
_cell_length_b   6.85539301
_cell_length_c   6.85960589
_cell_angle_alpha   129.15583739
_cell_angle_beta   129.15583189
_cell_angle_gamma   74.96282644
_symmetry_Int_Tables_number   1
_chemical_formula_structural   V5Si2B4W5
_chemical_formula_sum   'V5 Si2 B4 W5'
_cell_volume   188.57282685
_cell_formula_units_Z   1
loop_
 _symmetry_equiv_pos_site_id
 _symmetry_equiv_pos_as_xyz
  1  'x, y, z'
loop_
 _atom_site_type_symbol
 _atom_site_label
 _atom_site_symmetry_multiplicity
 _atom_site_fract_x
 _atom_site_fract_y
 _atom_site_fract_z
 _atom_site_occupancy
  V  V0  1  0.47226926  0.30334695  0.49974887  1
  V  V1  1  0.80334695  0.97226926  0.49974887  1
  V  V2  1  0.30383162  0.80383162  0.83441884  1
  V  V3  1  0.00386934  0.00113839  0.00008973  1
  V  V4  1  0.50113839  0.50386934  0.00008973  1
  Si  Si0  1  0.24651756  0.23877682  0.99666540  1
  Si  Si1  1  0.73877682  0.74651756  0.99666540  1
  B  B0  1  0.62100918  0.12100918  0.73657393  1
  B  B1  1  0.12713390  0.38071125  0.50352108  1
  B  B2  1  0.88071125  0.62713390  0.50352108  1
  B  B3  1  0.38484276  0.88484276  0.26198626  1
  W  W0  1  0.52860653  0.69172362  0.49854303  1
  W  W1  1  0.02923617  0.52923617  0.83615384  1
  W  W2  1  0.69276558  0.19276558  0.16359323  1
  W  W3  1  0.97422008  0.47422008  0.17013769  1
  W  W4  1  0.19172362  0.02860653  0.49854303  1
loop_
_geom_bond_atom_site_label_1
_geom_bond_atom_site_label_2
_geom_bond_distance
_geom_bond_site_symmetry_2
V0 W0 2.793459 1_555
V1 W4 2.793460 1_665
V2 W3 2.760214 1_455
V2 W2 2.792767 1_566
V3 W3 2.664575 1_455
V3 W1 2.668583 1_544
V3 W4 2.671478 1_555
V3 W0 2.676826 1_444
V3 W2 2.690457 1_455
V4 W3 2.664575 1_555
V4 W1 2.668583 1_554
V4 W0 2.671478 1_555
V4 W4 2.676825 1_554
V4 W2 2.690457 1_555
Si0 V2 2.457072 1_545
Si0 V1 2.474768 1_445
Si0 V0 2.486333 1_556
Si0 W2 2.510186 1_556
Si0 W3 2.514363 1_456
Si0 W4 2.516961 1_555
Si0 W0 2.538080 1_556
Si0 W1 2.560176 1_555
Si0 V3 2.631621 1_556
Si0 V4 2.808979 1_556
Si1 V2 2.457073 1_555
Si1 V0 2.474768 1_555
Si1 V1 2.486333 1_556
Si1 W2 2.510186 1_566
Si1 W3 2.514363 1_556
Si1 W0 2.516961 1_555
Si1 W4 2.538080 1_666
Si1 W1 2.560176 1_655
Si1 V4 2.631621 1_556
Si1 V3 2.808979 1_666
B0 B3 1.971909 1_545
B0 V1 2.247769 1_545
B0 V0 2.247769 1_555
B0 W0 2.306710 1_545
B0 W4 2.306710 1_555
B0 W3 2.329162 1_556
B0 W2 2.355903 1_556
B0 V4 2.365760 1_556
B0 V3 2.365761 1_656
B1 B2 2.055921 1_455
B1 V2 2.251558 1_555
B1 W3 2.283600 1_455
B1 V0 2.299770 1_555
B1 W1 2.310576 1_555
B1 V4 2.313331 1_556
B1 W4 2.320376 1_555
B1 W2 2.322156 1_455
B1 V3 2.349103 1_555
B2 V2 2.251558 1_655
B2 W3 2.283599 1_555
B2 V1 2.299770 1_555
B2 W1 2.310576 1_655
B2 V3 2.313331 1_666
B2 W0 2.320376 1_555
B2 W2 2.322156 1_555
B2 V4 2.349104 1_555
B3 V0 2.235847 1_565
B3 V1 2.235848 1_555
B3 V2 2.294565 1_554
B3 W4 2.318077 1_565
B3 W0 2.318077 1_555
B3 V4 2.342464 1_555
B3 V3 2.342465 1_565
B3 W1 2.348733 1_554
