# generated using pymatgen
data_Zr2FeCo2Si5
_symmetry_space_group_name_H-M   'P 1'
_cell_length_a   7.59478204
_cell_length_b   7.59478221
_cell_length_c   7.59478184
_cell_angle_alpha   137.90104204
_cell_angle_beta   104.81642083
_cell_angle_gamma   90.13115321
_symmetry_Int_Tables_number   1
_chemical_formula_structural   Zr2FeCo2Si5
_chemical_formula_sum   'Zr4 Fe2 Co4 Si10'
_cell_volume   271.17558128
_cell_formula_units_Z   2
loop_
 _symmetry_equiv_pos_site_id
 _symmetry_equiv_pos_as_xyz
  1  'x, y, z'
loop_
 _atom_site_type_symbol
 _atom_site_label
 _atom_site_symmetry_multiplicity
 _atom_site_fract_x
 _atom_site_fract_y
 _atom_site_fract_z
 _atom_site_occupancy
  Zr  Zr0  1  0.86768341  0.63557059  0.23211282  1
  Zr  Zr1  1  0.13231659  0.36442941  0.76788718  1
  Zr  Zr2  1  0.40345777  0.13557059  0.26788718  1
  Zr  Zr3  1  0.59654223  0.86442941  0.73211282  1
  Fe  Fe0  1  0.00000000  0.75000000  0.75000000  1
  Fe  Fe1  1  0.00000000  0.25000000  0.25000000  1
  Co  Co0  1  0.25076384  0.86137340  0.38938944  1
  Co  Co1  1  0.74923616  0.13862660  0.61061056  1
  Co  Co2  1  0.47198496  0.36137340  0.11061056  1
  Co  Co3  1  0.52801504  0.63862660  0.88938944  1
  Si  Si0  1  0.50000000  0.75000000  0.25000000  1
  Si  Si1  1  0.50000000  0.25000000  0.75000000  1
  Si  Si2  1  0.22624432  0.97624432  0.75000000  1
  Si  Si3  1  0.77375568  0.52375568  0.75000000  1
  Si  Si4  1  0.77375568  0.02375568  0.25000000  1
  Si  Si5  1  0.22624432  0.47624432  0.25000000  1
  Si  Si6  1  0.06183515  0.90167769  0.16015646  1
  Si  Si7  1  0.93816485  0.09832231  0.83984354  1
  Si  Si8  1  0.74152123  0.40167769  0.33984354  1
  Si  Si9  1  0.25847877  0.59832231  0.66015646  1
loop_
_geom_bond_atom_site_label_1
_geom_bond_atom_site_label_2
_geom_bond_distance
_geom_bond_site_symmetry_2
Fe0 Si6 2.274929 1_556
Fe0 Si9 2.274930 1_555
Fe0 Si8 2.274930 1_455
Fe0 Si7 2.274932 1_465
Fe0 Si2 2.427227 1_555
Fe0 Si3 2.427227 1_455
Fe1 Si7 2.274929 1_454
Fe1 Si8 2.274930 1_455
Fe1 Si9 2.274930 1_555
Fe1 Si6 2.274932 1_545
Fe1 Si5 2.427227 1_555
Fe1 Si4 2.427227 1_455
Co0 Si6 2.167663 1_555
Co0 Si5 2.238846 1_555
Co0 Si2 2.238849 1_555
Co0 Si0 2.263317 1_555
Co0 Si1 2.263320 1_565
Co0 Zr0 2.827074 1_455
Co0 Zr1 2.951233 1_554
Co0 Zr1 2.951238 1_565
Co1 Si7 2.167663 1_555
Co1 Si3 2.238846 1_555
Co1 Si4 2.238849 1_555
Co1 Si1 2.263317 1_555
Co1 Si0 2.263320 1_545
Co1 Zr1 2.827074 1_655
Co1 Zr0 2.951233 1_556
Co1 Zr0 2.951238 1_545
Co2 Si8 2.167658 1_555
Co2 Si2 2.238851 1_544
Co2 Si5 2.238854 1_555
Co2 Si1 2.263321 1_554
Co2 Si0 2.263324 1_555
Co2 Zr2 2.827069 1_555
Co2 Zr3 2.951229 1_544
Co2 Zr3 2.951234 1_555
Co3 Si9 2.167658 1_555
Co3 Si4 2.238851 1_566
Co3 Si3 2.238854 1_555
Co3 Si0 2.263321 1_556
Co3 Si1 2.263324 1_555
Co3 Zr3 2.827069 1_555
Co3 Zr2 2.951229 1_566
Co3 Zr2 2.951234 1_555
Si0 Zr3 2.932845 1_555
Si0 Zr0 2.932845 1_555
Si0 Zr2 2.932845 1_565
Si0 Zr1 2.932845 1_554
Si1 Zr2 2.932845 1_555
Si1 Zr1 2.932845 1_555
Si1 Zr3 2.932845 1_545
Si1 Zr0 2.932845 1_556
Si2 Si9 2.438460 1_555
Si2 Si7 2.438467 1_465
Si2 Zr3 2.946856 1_555
Si2 Zr1 2.946856 1_565
Si2 Zr2 2.994707 1_566
Si2 Zr0 2.994707 1_455
Si3 Si8 2.438460 1_555
Si3 Si6 2.438464 1_656
Si3 Zr0 2.946856 1_556
Si3 Zr2 2.946856 1_555
Si3 Zr1 2.994707 1_655
Si3 Zr3 2.994707 1_555
Si4 Si8 2.438460 1_555
Si4 Si6 2.438467 1_645
Si4 Zr2 2.946856 1_555
Si4 Zr0 2.946856 1_545
Si4 Zr3 2.994707 1_544
Si4 Zr1 2.994707 1_655
Si5 Si9 2.438460 1_555
Si5 Si7 2.438464 1_454
Si5 Zr1 2.946856 1_554
Si5 Zr3 2.946856 1_555
Si5 Zr0 2.994707 1_455
Si5 Zr2 2.994707 1_555
Si6 Zr2 2.700548 1_565
Si6 Zr0 2.931719 1_455
Si6 Zr1 2.932119 1_554
Si6 Zr1 2.932124 1_565
Si7 Zr3 2.700548 1_545
Si7 Zr1 2.931719 1_655
Si7 Zr0 2.932119 1_556
Si7 Zr0 2.932124 1_545
Si8 Zr0 2.700555 1_555
Si8 Zr2 2.931715 1_555
Si8 Zr3 2.932122 1_555
Si8 Zr3 2.932122 1_544
Si9 Zr1 2.700555 1_555
Si9 Zr3 2.931715 1_555
Si9 Zr2 2.932122 1_555
Si9 Zr2 2.932122 1_566
