# generated using pymatgen
data_Lu4MgNi2Sb
_symmetry_space_group_name_H-M   'P 1'
_cell_length_a   8.41350178
_cell_length_b   8.41350232
_cell_length_c   8.41350186
_cell_angle_alpha   128.72860146
_cell_angle_beta   128.72860872
_cell_angle_gamma   75.44765428
_symmetry_Int_Tables_number   1
_chemical_formula_structural   Lu4MgNi2Sb
_chemical_formula_sum   'Lu8 Mg2 Ni4 Sb2'
_cell_volume   352.71052790
_cell_formula_units_Z   2
loop_
 _symmetry_equiv_pos_site_id
 _symmetry_equiv_pos_as_xyz
  1  'x, y, z'
loop_
 _atom_site_type_symbol
 _atom_site_label
 _atom_site_symmetry_multiplicity
 _atom_site_fract_x
 _atom_site_fract_y
 _atom_site_fract_z
 _atom_site_occupancy
  Lu  Lu0  1  0.79342659  0.29342659  0.83261781  1
  Lu  Lu1  1  0.20657341  0.70657341  0.16738219  1
  Lu  Lu2  1  0.46080878  0.96080878  0.16738219  1
  Lu  Lu3  1  0.29342659  0.46080878  0.50000000  1
  Lu  Lu4  1  0.03919122  0.20657341  0.50000000  1
  Lu  Lu5  1  0.53919122  0.03919122  0.83261781  1
  Lu  Lu6  1  0.70657341  0.53919122  0.50000000  1
  Lu  Lu7  1  0.96080878  0.79342659  0.50000000  1
  Mg  Mg0  1  0.00000000  0.00000000  0.00000000  1
  Mg  Mg1  1  0.50000000  0.50000000  0.00000000  1
  Ni  Ni0  1  0.12583443  0.62583443  0.75166985  1
  Ni  Ni1  1  0.87416557  0.37416557  0.24833015  1
  Ni  Ni2  1  0.62583443  0.87416557  0.50000000  1
  Ni  Ni3  1  0.37416557  0.12583443  0.50000000  1
  Sb  Sb0  1  0.25000000  0.25000000  0.00000000  1
  Sb  Sb1  1  0.75000000  0.75000000  0.00000000  1
loop_
_geom_bond_atom_site_label_1
_geom_bond_atom_site_label_2
_geom_bond_distance
_geom_bond_site_symmetry_2
Lu0 Ni1 2.728036 1_556
Lu0 Ni3 2.733645 1_555
Lu0 Ni2 2.733645 1_545
Lu0 Sb0 3.168986 1_656
Lu0 Sb1 3.168987 1_556
Lu0 Mg0 3.198444 1_656
Lu0 Mg1 3.198444 1_556
Lu1 Ni0 2.728036 1_554
Lu1 Ni2 2.733645 1_555
Lu1 Ni3 2.733645 1_565
Lu1 Sb1 3.168986 1_455
Lu1 Sb0 3.168987 1_555
Lu1 Mg0 3.198444 1_565
Lu1 Mg1 3.198444 1_555
Lu2 Ni0 2.728044 1_554
Lu2 Ni2 2.733645 1_555
Lu2 Ni3 2.733645 1_565
Lu2 Sb0 3.168986 1_565
Lu2 Sb1 3.168986 1_555
Lu2 Mg0 3.198444 1_565
Lu2 Mg1 3.198444 1_555
Lu3 Ni3 2.728044 1_555
Lu3 Ni1 2.733643 1_455
Lu3 Ni0 2.733651 1_555
Lu3 Sb1 3.168986 1_556
Lu3 Sb0 3.168986 1_555
Lu3 Mg1 3.198444 1_556
Lu3 Mg0 3.198444 1_555
Lu4 Ni3 2.728044 1_555
Lu4 Ni0 2.733643 1_555
Lu4 Ni1 2.733651 1_455
Lu4 Sb0 3.168986 1_556
Lu4 Sb1 3.168986 1_445
Lu4 Mg1 3.198444 1_556
Lu4 Mg0 3.198444 1_555
Lu5 Ni1 2.728044 1_556
Lu5 Ni3 2.733645 1_555
Lu5 Ni2 2.733645 1_545
Lu5 Sb1 3.168986 1_546
Lu5 Sb0 3.168986 1_556
Lu5 Mg0 3.198444 1_656
Lu5 Mg1 3.198444 1_556
Lu6 Ni2 2.728044 1_555
Lu6 Ni0 2.733643 1_655
Lu6 Ni1 2.733651 1_555
Lu6 Sb0 3.168986 1_555
Lu6 Sb1 3.168986 1_556
Lu6 Mg1 3.198444 1_555
Lu6 Mg0 3.198444 1_666
Lu7 Ni2 2.728044 1_555
Lu7 Ni1 2.733643 1_555
Lu7 Ni0 2.733651 1_655
Lu7 Sb1 3.168986 1_555
Lu7 Sb0 3.168986 1_666
Lu7 Mg1 3.198444 1_555
Lu7 Mg0 3.198444 1_666
Mg0 Ni0 2.873903 1_544
Mg0 Ni1 2.873903 1_455
Mg0 Ni3 2.873905 1_555
Mg0 Ni2 2.873905 1_444
Mg0 Sb1 3.327410 1_445
Mg0 Sb0 3.327410 1_555
Mg1 Ni0 2.873902 1_554
Mg1 Ni1 2.873902 1_555
Mg1 Ni2 2.873905 1_555
Mg1 Ni3 2.873905 1_554
Mg1 Sb0 3.327410 1_555
Mg1 Sb1 3.327410 1_555
Ni0 Ni1 2.591118 1_455
Ni2 Ni3 2.591108 1_565
