# generated using pymatgen
data_Y4Cu(GeIr)6
_symmetry_space_group_name_H-M   'P 1'
_cell_length_a   7.22809961
_cell_length_b   7.22810017
_cell_length_c   7.22809972
_cell_angle_alpha   109.45747145
_cell_angle_beta   109.45746072
_cell_angle_gamma   109.49872731
_symmetry_Int_Tables_number   1
_chemical_formula_structural   Y4Cu(GeIr)6
_chemical_formula_sum   'Y4 Cu1 Ge6 Ir6'
_cell_volume   290.70365582
_cell_formula_units_Z   1
loop_
 _symmetry_equiv_pos_site_id
 _symmetry_equiv_pos_as_xyz
  1  'x, y, z'
loop_
 _atom_site_type_symbol
 _atom_site_label
 _atom_site_symmetry_multiplicity
 _atom_site_fract_x
 _atom_site_fract_y
 _atom_site_fract_z
 _atom_site_occupancy
  Y  Y0  1  0.00164909  0.99835091  0.50000000  1
  Y  Y1  1  0.00164909  0.50164909  0.00329718  1
  Y  Y2  1  0.49835091  0.99835091  0.99670282  1
  Y  Y3  1  0.49835091  0.50164909  0.50000000  1
  Cu  Cu0  1  0.75000000  0.25000000  0.50000000  1
  Ge  Ge0  1  0.68016062  0.68016062  0.00000000  1
  Ge  Ge1  1  0.31665208  0.99783593  0.31881514  1
  Ge  Ge2  1  0.00216407  0.32097921  0.31881514  1
  Ge  Ge3  1  0.31983938  0.31983938  1.00000000  1
  Ge  Ge4  1  0.67902079  0.99783593  0.68118486  1
  Ge  Ge5  1  0.00216407  0.68334792  0.68118486  1
  Ir  Ir0  1  0.74837148  0.49579249  0.25257898  1
  Ir  Ir1  1  0.50420751  0.25162852  0.74742102  1
  Ir  Ir2  1  0.24321251  0.49579249  0.74742102  1
  Ir  Ir3  1  0.25000000  0.75000000  0.50000000  1
  Ir  Ir4  1  0.50420751  0.75678749  0.25257898  1
  Ir  Ir5  1  0.00000000  0.00000000  0.00000000  1
loop_
_geom_bond_atom_site_label_1
_geom_bond_atom_site_label_2
_geom_bond_distance
_geom_bond_site_symmetry_2
Cu0 Ge1 2.591147 1_545
Cu0 Ge5 2.591147 1_655
Cu0 Ge2 2.591152 1_655
Cu0 Ge4 2.591152 1_545
Cu0 Ir2 2.910575 1_655
Cu0 Ir4 2.910575 1_545
Cu0 Ir1 2.910581 1_555
Cu0 Ir0 2.910581 1_555
Cu0 Y2 2.970823 1_544
Cu0 Y1 2.970823 1_656
Cu0 Y0 2.970828 1_645
Cu0 Y3 2.970828 1_555
Ge0 Ir1 2.569198 1_554
Ge0 Ir4 2.569198 1_555
Ge0 Ir0 2.609952 1_555
Ge0 Ir2 2.609958 1_554
Ge0 Ir5 2.668566 1_665
Ge0 Y2 3.008395 1_554
Ge0 Y3 3.008396 1_554
Ge0 Y0 3.008396 1_655
Ge0 Y1 3.008397 1_655
Ge1 Ir4 2.560513 1_555
Ge1 Ir1 2.560525 1_565
Ge1 Ir3 2.561919 1_555
Ge1 Ir5 2.661441 1_565
Ge1 Y1 2.981309 1_555
Ge1 Y0 2.981313 1_555
Ge1 Y2 3.030729 1_554
Ge1 Y3 3.030741 1_565
Ge2 Ir2 2.560524 1_555
Ge2 Ir0 2.560525 1_455
Ge2 Ir3 2.561918 1_555
Ge2 Ir5 2.661437 1_555
Ge2 Y3 2.981307 1_555
Ge2 Y1 2.981314 1_555
Ge2 Y2 3.030740 1_444
Ge2 Y0 3.030740 1_545
Ge3 Ir0 2.569198 1_556
Ge3 Ir2 2.569199 1_555
Ge3 Ir1 2.609952 1_555
Ge3 Ir4 2.609958 1_556
Ge3 Ir5 2.668566 1_556
Ge3 Y1 3.008395 1_556
Ge3 Y3 3.008396 1_556
Ge3 Y0 3.008396 1_545
Ge3 Y2 3.008397 1_545
Ge4 Ir4 2.560524 1_555
Ge4 Ir1 2.560525 1_565
Ge4 Ir3 2.561918 1_555
Ge4 Ir5 2.661437 1_666
Ge4 Y3 2.981307 1_555
Ge4 Y2 2.981314 1_555
Ge4 Y1 3.030740 1_666
Ge4 Y0 3.030740 1_655
Ge5 Ir2 2.560513 1_555
Ge5 Ir0 2.560526 1_455
Ge5 Ir3 2.561918 1_555
Ge5 Ir5 2.661441 1_566
Ge5 Y2 2.981309 1_555
Ge5 Y0 2.981314 1_555
Ge5 Y1 3.030729 1_556
Ge5 Y3 3.030741 1_455
Ir0 Y3 2.935944 1_555
Ir0 Y2 2.935944 1_544
Ir0 Y0 2.965901 1_655
Ir0 Y1 2.965906 1_655
Ir1 Y1 2.935944 1_656
Ir1 Y3 2.935944 1_555
Ir1 Y0 2.965901 1_545
Ir1 Y2 2.965907 1_545
Ir2 Y1 2.935932 1_556
Ir2 Y0 2.935945 1_545
Ir2 Y2 2.965901 1_555
Ir2 Y3 2.965906 1_555
Ir3 Y3 2.931892 1_555
Ir3 Y0 2.931892 1_555
Ir3 Y1 2.931898 1_555
Ir3 Y2 2.931898 1_555
Ir4 Y2 2.935933 1_554
Ir4 Y0 2.935945 1_655
Ir4 Y1 2.965901 1_555
Ir4 Y3 2.965907 1_555
