# generated using pymatgen
data_KLi2YBi2
_symmetry_space_group_name_H-M   'P 1'
_cell_length_a   4.79609279
_cell_length_b   4.79609293
_cell_length_c   8.79125223
_cell_angle_alpha   90.00000000
_cell_angle_beta   90.00000000
_cell_angle_gamma   120.00000580
_symmetry_Int_Tables_number   1
_chemical_formula_structural   KLi2YBi2
_chemical_formula_sum   'K1 Li2 Y1 Bi2'
_cell_volume   175.12837328
_cell_formula_units_Z   1
loop_
 _symmetry_equiv_pos_site_id
 _symmetry_equiv_pos_as_xyz
  1  'x, y, z'
loop_
 _atom_site_type_symbol
 _atom_site_label
 _atom_site_symmetry_multiplicity
 _atom_site_fract_x
 _atom_site_fract_y
 _atom_site_fract_z
 _atom_site_occupancy
  K  K0  1  0.00000000  0.00000000  0.50000000  1
  Li  Li0  1  0.66666700  0.33333300  0.20066571  1
  Li  Li1  1  0.33333300  0.66666700  0.79933429  1
  Y  Y0  1  0.00000000  0.00000000  0.00000000  1
  Bi  Bi0  1  0.66666700  0.33333300  0.79667717  1
  Bi  Bi1  1  0.33333300  0.66666700  0.20332283  1
loop_
_geom_bond_atom_site_label_1
_geom_bond_atom_site_label_2
_geom_bond_distance
_geom_bond_site_symmetry_2
K0 Li1 3.820000 1_545
K0 Li0 3.820000 1_455
K0 Li1 3.820003 1_445
K0 Li0 3.820003 1_555
K0 Li1 3.820003 1_555
K0 Li0 3.820003 1_445
Li0 Y0 3.283222 1_655
Li0 Y0 3.283225 1_555
Li0 Y0 3.283225 1_665
Li1 Y0 3.283222 1_566
Li1 Y0 3.283225 1_666
Li1 Y0 3.283225 1_556
Bi0 Li1 2.769121 1_655
Bi0 Li1 2.769121 1_545
Bi0 Li1 2.769130 1_555
Bi0 Y0 3.295832 1_656
Bi0 Y0 3.295835 1_556
Bi0 Y0 3.295835 1_666
Bi0 K0 3.803946 1_655
Bi0 K0 3.803949 1_555
Bi0 K0 3.803949 1_665
Bi1 Li0 2.769121 1_455
Bi1 Li0 2.769121 1_565
Bi1 Li0 2.769130 1_555
Bi1 Y0 3.295832 1_565
Bi1 Y0 3.295835 1_665
Bi1 Y0 3.295835 1_555
Bi1 K0 3.803946 1_565
Bi1 K0 3.803949 1_665
Bi1 K0 3.803949 1_555
