# generated using pymatgen
data_Rb8Sc6GaBr20
_symmetry_space_group_name_H-M   'P 1'
_cell_length_a   11.92552102
_cell_length_b   11.92552206
_cell_length_c   11.92552166
_cell_angle_alpha   60.00000110
_cell_angle_beta   59.99999821
_cell_angle_gamma   60.00000169
_symmetry_Int_Tables_number   1
_chemical_formula_structural   Rb8Sc6GaBr20
_chemical_formula_sum   'Rb8 Sc6 Ga1 Br20'
_cell_volume   1199.27050658
_cell_formula_units_Z   1
loop_
 _symmetry_equiv_pos_site_id
 _symmetry_equiv_pos_as_xyz
  1  'x, y, z'
loop_
 _atom_site_type_symbol
 _atom_site_label
 _atom_site_symmetry_multiplicity
 _atom_site_fract_x
 _atom_site_fract_y
 _atom_site_fract_z
 _atom_site_occupancy
  Rb  Rb0  1  0.35933233  0.35933233  0.35933233  1
  Rb  Rb1  1  0.64066767  0.64066767  0.64066767  1
  Rb  Rb2  1  0.35933233  0.35933233  0.92200400  1
  Rb  Rb3  1  0.35933233  0.92200400  0.35933233  1
  Rb  Rb4  1  0.64066767  0.64066767  0.07799600  1
  Rb  Rb5  1  0.64066767  0.07799600  0.64066767  1
  Rb  Rb6  1  0.92200400  0.35933233  0.35933233  1
  Rb  Rb7  1  0.07799600  0.64066767  0.64066767  1
  Sc  Sc0  1  0.84312391  0.15687609  0.15687609  1
  Sc  Sc1  1  0.15687609  0.84312391  0.84312391  1
  Sc  Sc2  1  0.15687609  0.84312391  0.15687609  1
  Sc  Sc3  1  0.84312391  0.15687609  0.84312391  1
  Sc  Sc4  1  0.15687609  0.15687609  0.84312391  1
  Sc  Sc5  1  0.84312391  0.84312391  0.15687609  1
  Ga  Ga0  1  0.00000000  0.00000000  0.00000000  1
  Br  Br0  1  0.32543546  0.00000000  0.00000000  1
  Br  Br1  1  0.67456454  0.00000000  1.00000000  1
  Br  Br2  1  1.00000000  0.32543546  0.67456454  1
  Br  Br3  1  0.00000000  0.67456454  0.32543546  1
  Br  Br4  1  1.00000000  0.32543546  1.00000000  1
  Br  Br5  1  0.67456454  0.00000000  0.32543546  1
  Br  Br6  1  0.00000000  0.67456454  0.00000000  1
  Br  Br7  1  0.32543546  0.00000000  0.67456454  1
  Br  Br8  1  0.00000000  0.00000000  0.32543546  1
  Br  Br9  1  0.00000000  0.00000000  0.67456454  1
  Br  Br10  1  0.67456454  0.32543546  1.00000000  1
  Br  Br11  1  0.32543546  0.67456454  0.00000000  1
  Br  Br12  1  0.68175399  0.31824601  0.31824601  1
  Br  Br13  1  0.31824601  0.68175399  0.68175399  1
  Br  Br14  1  0.31824601  0.68175399  0.31824601  1
  Br  Br15  1  0.68175399  0.31824601  0.68175399  1
  Br  Br16  1  0.31824601  0.31824601  0.68175399  1
  Br  Br17  1  0.68175399  0.68175399  0.31824601  1
  Br  Br18  1  0.25000000  0.25000000  0.25000000  1
  Br  Br19  1  0.75000000  0.75000000  0.75000000  1
loop_
_geom_bond_atom_site_label_1
_geom_bond_atom_site_label_2
_geom_bond_distance
_geom_bond_site_symmetry_2
Ga0 Sc4 2.645752 1_554
Ga0 Sc5 2.645752 1_445
Ga0 Sc0 2.645752 1_455
Ga0 Sc2 2.645752 1_545
Ga0 Sc3 2.645752 1_454
Ga0 Sc1 2.645752 1_544
Br0 Sc2 2.746040 1_545
Br0 Sc4 2.746041 1_554
Br1 Sc3 2.746040 1_555
Br1 Sc5 2.746041 1_546
Br2 Sc3 2.746040 1_555
Br2 Sc4 2.746041 1_655
Br3 Sc2 2.746040 1_555
Br3 Sc5 2.746041 1_455
Br4 Sc0 2.746040 1_556
Br4 Sc4 2.746041 1_655
Br5 Sc0 2.746040 1_555
Br5 Sc5 2.746041 1_545
Br6 Sc1 2.746040 1_554
Br6 Sc5 2.746041 1_455
Br7 Sc1 2.746040 1_545
Br7 Sc4 2.746041 1_555
Br8 Sc2 2.746041 1_545
Br8 Sc0 2.746041 1_455
Br9 Sc1 2.746041 1_545
Br9 Sc3 2.746041 1_455
Br10 Sc3 2.746041 1_555
Br10 Sc0 2.746041 1_556
Br11 Sc2 2.746041 1_555
Br11 Sc1 2.746041 1_554
Br12 Sc0 2.721541 1_555
Br12 Rb0 3.425879 1_555
Br12 Rb5 3.425884 1_555
Br12 Rb4 3.425884 1_555
Br12 Rb6 3.425891 1_555
Br13 Sc1 2.721541 1_555
Br13 Rb1 3.425879 1_555
Br13 Rb3 3.425884 1_555
Br13 Rb2 3.425884 1_555
Br13 Rb7 3.425891 1_555
Br14 Sc2 2.721541 1_555
Br14 Rb0 3.425880 1_555
Br14 Rb4 3.425884 1_555
Br14 Rb7 3.425884 1_555
Br14 Rb3 3.425891 1_555
Br15 Sc3 2.721541 1_555
Br15 Rb1 3.425880 1_555
Br15 Rb2 3.425884 1_555
Br15 Rb6 3.425884 1_555
Br15 Rb5 3.425891 1_555
Br16 Sc4 2.721541 1_555
Br16 Rb0 3.425880 1_555
Br16 Rb5 3.425884 1_555
Br16 Rb7 3.425884 1_555
Br16 Rb2 3.425891 1_555
Br17 Sc5 2.721541 1_555
Br17 Rb1 3.425880 1_555
Br17 Rb3 3.425884 1_555
Br17 Rb6 3.425884 1_555
Br17 Rb4 3.425891 1_555
Br18 Rb6 3.193745 1_455
Br18 Rb2 3.193745 1_554
Br18 Rb3 3.193746 1_545
Br18 Rb0 3.193755 1_555
Br19 Rb7 3.193745 1_655
Br19 Rb4 3.193745 1_556
Br19 Rb5 3.193746 1_565
Br19 Rb1 3.193755 1_555
