# generated using pymatgen
data_Ca3BN3
_symmetry_space_group_name_H-M   'P 1'
_cell_length_a   3.55636632
_cell_length_b   3.55636632
_cell_length_c   8.12197555
_cell_angle_alpha   90.00000000
_cell_angle_beta   90.00000000
_cell_angle_gamma   90.00000000
_symmetry_Int_Tables_number   1
_chemical_formula_structural   Ca3BN3
_chemical_formula_sum   'Ca3 B1 N3'
_cell_volume   102.72464643
_cell_formula_units_Z   1
loop_
 _symmetry_equiv_pos_site_id
 _symmetry_equiv_pos_as_xyz
  1  'x, y, z'
loop_
 _atom_site_type_symbol
 _atom_site_label
 _atom_site_symmetry_multiplicity
 _atom_site_fract_x
 _atom_site_fract_y
 _atom_site_fract_z
 _atom_site_occupancy
  Ca  Ca0  1  -0.00000000  -0.00000000  0.00000000  1
  Ca  Ca1  1  0.50000000  0.50000000  0.72246180  1
  Ca  Ca2  1  0.50000000  0.50000000  0.27753820  1
  B  B0  1  -0.00000000  -0.00000000  0.50000000  1
  N  N0  1  -0.00000000  0.00000000  0.66575438  1
  N  N1  1  0.00000000  -0.00000000  0.33424562  1
  N  N2  1  0.50000000  0.50000000  0.00000000  1
loop_
_geom_bond_atom_site_label_1
_geom_bond_atom_site_label_2
_geom_bond_distance
_geom_bond_site_symmetry_2
Ca0 N2 2.514731 1_455
Ca0 N2 2.514731 1_445
Ca0 N2 2.514731 1_545
Ca0 N2 2.514731 1_555
Ca0 N1 2.714735 1_555
Ca0 N0 2.714735 1_554
Ca1 N2 2.254158 1_556
Ca1 N0 2.556560 1_565
Ca1 N0 2.556560 1_665
Ca1 N0 2.556560 1_555
Ca1 N0 2.556560 1_655
Ca2 N2 2.254158 1_555
Ca2 N1 2.556560 1_655
Ca2 N1 2.556560 1_565
Ca2 N1 2.556560 1_665
Ca2 N1 2.556560 1_555
B0 N1 1.346253 1_555
B0 N0 1.346253 1_555
