# generated using pymatgen
data_KLiMnTe2
_symmetry_space_group_name_H-M   'P 1'
_cell_length_a   8.12800820
_cell_length_b   8.12800853
_cell_length_c   8.12800750
_cell_angle_alpha   147.89202920
_cell_angle_beta   147.89203187
_cell_angle_gamma   46.04477410
_symmetry_Int_Tables_number   1
_chemical_formula_structural   KLiMnTe2
_chemical_formula_sum   'K1 Li1 Mn1 Te2'
_cell_volume   151.17902906
_cell_formula_units_Z   1
loop_
 _symmetry_equiv_pos_site_id
 _symmetry_equiv_pos_as_xyz
  1  'x, y, z'
loop_
 _atom_site_type_symbol
 _atom_site_label
 _atom_site_symmetry_multiplicity
 _atom_site_fract_x
 _atom_site_fract_y
 _atom_site_fract_z
 _atom_site_occupancy
  K  K0  1  0.00000000  0.00000000  0.00000000  1
  Li  Li0  1  0.75000000  0.25000000  0.50000000  1
  Mn  Mn0  1  0.25000000  0.75000000  0.50000000  1
  Te  Te0  1  0.64167524  0.64167524  1.00000000  1
  Te  Te1  1  0.35832476  0.35832476  0.00000000  1
loop_
_geom_bond_atom_site_label_1
_geom_bond_atom_site_label_2
_geom_bond_distance
_geom_bond_site_symmetry_2
K0 Te0 3.820677 1_443
K0 Te1 3.820677 1_556
K0 Te0 3.820677 1_544
K0 Te1 3.820677 1_455
K0 Te0 3.820677 1_454
K0 Te1 3.820677 1_545
K0 Te0 3.820678 1_555
K0 Te1 3.820678 1_444
Li0 Te1 2.771089 1_555
Li0 Te0 2.771089 1_555
Li0 Te1 2.771090 1_656
Li0 Te0 2.771090 1_544
Li0 Mn0 3.178789 1_656
Li0 Mn0 3.178789 1_544
Li0 Mn0 3.178789 1_645
Li0 Mn0 3.178789 1_555
Mn0 Te0 2.771089 1_555
Mn0 Te1 2.771089 1_555
Mn0 Te0 2.771090 1_454
Mn0 Te1 2.771090 1_566
