# generated using pymatgen
data_Ti5Si2B4Mo5
_symmetry_space_group_name_H-M   'P 1'
_cell_length_a   7.08421404
_cell_length_b   7.06047003
_cell_length_c   7.06182817
_cell_angle_alpha   129.34259491
_cell_angle_beta   129.54923807
_cell_angle_gamma   74.39422704
_symmetry_Int_Tables_number   1
_chemical_formula_structural   Ti5Si2B4Mo5
_chemical_formula_sum   'Ti5 Si2 B4 Mo5'
_cell_volume   205.19373732
_cell_formula_units_Z   1
loop_
 _symmetry_equiv_pos_site_id
 _symmetry_equiv_pos_as_xyz
  1  'x, y, z'
loop_
 _atom_site_type_symbol
 _atom_site_label
 _atom_site_symmetry_multiplicity
 _atom_site_fract_x
 _atom_site_fract_y
 _atom_site_fract_z
 _atom_site_occupancy
  Ti  Ti0  1  0.80583638  0.96670032  0.50026990  1
  Ti  Ti1  1  0.30897248  0.80990895  0.84061699  1
  Ti  Ti2  1  0.19289982  0.03430338  0.50044843  1
  Ti  Ti3  1  0.53376963  0.69145829  0.50043765  1
  Ti  Ti4  1  0.03102325  0.53064628  0.83908447  1
  Si  Si0  1  0.74922035  0.74866699  0.99829606  1
  Si  Si1  1  0.25034323  0.25021482  0.00081122  1
  B  B0  1  0.38685636  0.88684395  0.27498760  1
  B  B1  1  0.88797426  0.61284962  0.49916351  1
  B  B2  1  0.61426613  0.11285671  0.72741625  1
  B  B3  1  0.11354833  0.38746795  0.50029646  1
  Mo  Mo0  1  0.00192620  0.00009224  0.00086391  1
  Mo  Mo1  1  0.69450271  0.19323492  0.15817755  1
  Mo  Mo2  1  0.96571247  0.46691668  0.15885385  1
  Mo  Mo3  1  0.50113526  0.50055716  0.00048292  1
  Mo  Mo4  1  0.46201216  0.30728072  0.49979122  1
loop_
_geom_bond_atom_site_label_1
_geom_bond_atom_site_label_2
_geom_bond_distance
_geom_bond_site_symmetry_2
Si0 Ti3 2.559486 1_555
Si0 Ti1 2.572193 1_555
Si0 Ti4 2.574815 1_655
Si0 Ti2 2.582678 1_666
Si0 Ti0 2.588290 1_556
Si1 Ti1 2.561505 1_544
Si1 Ti4 2.567277 1_554
Si1 Ti3 2.567659 1_555
Si1 Ti2 2.578350 1_554
Si1 Ti0 2.581223 1_444
B0 B2 1.927098 1_565
B0 Ti0 2.325603 1_555
B0 Mo4 2.326901 1_565
B0 Ti2 2.328398 1_565
B0 Ti3 2.328755 1_555
B0 Ti4 2.422481 1_554
B0 Mo0 2.426883 1_565
B0 Ti1 2.429413 1_554
B0 Mo3 2.441076 1_555
B1 B3 1.928117 1_655
B1 Mo2 2.319679 1_555
B1 Mo1 2.321805 1_555
B1 Ti1 2.337879 1_655
B1 Ti4 2.340552 1_655
B1 Ti0 2.404015 1_555
B1 Ti3 2.424382 1_555
B1 Mo3 2.424697 1_555
B1 Mo0 2.437761 1_666
B2 Ti0 2.323730 1_545
B2 Mo4 2.329124 1_555
B2 Ti3 2.334268 1_545
B2 Ti2 2.336201 1_555
B2 Mo1 2.383577 1_556
B2 Mo2 2.400471 1_556
B2 Mo0 2.433977 1_656
B2 Mo3 2.439042 1_556
B3 Mo1 2.320827 1_455
B3 Mo2 2.325595 1_455
B3 Ti4 2.341861 1_555
B3 Ti1 2.341910 1_555
B3 Mo4 2.381426 1_555
B3 Ti2 2.404589 1_555
B3 Mo3 2.430211 1_556
B3 Mo0 2.434389 1_555
Mo0 Mo4 2.689119 1_555
Mo0 Ti0 2.710718 1_444
Mo0 Ti2 2.711519 1_555
Mo0 Mo1 2.720146 1_455
Mo0 Mo2 2.724193 1_455
Mo0 Ti3 2.726767 1_444
Mo0 Ti1 2.729770 1_544
Mo0 Ti4 2.732176 1_544
Mo0 Si1 2.808830 1_555
Mo0 Si0 2.825630 1_444
Mo1 Si0 2.585877 1_544
Mo1 Si1 2.594263 1_555
Mo1 Mo3 2.710472 1_555
Mo1 Ti1 2.880117 1_544
Mo1 Ti4 2.900550 1_655
Mo2 Si0 2.568815 1_554
Mo2 Si1 2.587135 1_655
Mo2 Mo3 2.714361 1_555
Mo2 Ti4 2.871697 1_654
Mo2 Ti1 2.904042 1_655
Mo3 Mo4 2.697904 1_554
Mo3 Ti0 2.709319 1_555
Mo3 Ti2 2.717293 1_554
Mo3 Ti3 2.725768 1_555
Mo3 Ti1 2.732729 1_554
Mo3 Ti4 2.743717 1_554
Mo3 Si0 2.807673 1_554
Mo3 Si1 2.825023 1_555
Mo4 Si1 2.573613 1_555
Mo4 Si0 2.573824 1_555
Mo4 Ti3 2.887763 1_555
Mo4 Ti0 2.926372 1_545
