# generated using pymatgen
data_CsRb2Sb2Au3
_symmetry_space_group_name_H-M   'P 1'
_cell_length_a   8.25378892
_cell_length_b   8.25378893
_cell_length_c   8.25378899
_cell_angle_alpha   47.28874808
_cell_angle_beta   47.28874815
_cell_angle_gamma   47.28874566
_symmetry_Int_Tables_number   1
_chemical_formula_structural   CsRb2Sb2Au3
_chemical_formula_sum   'Cs1 Rb2 Sb2 Au3'
_cell_volume   277.68308338
_cell_formula_units_Z   1
loop_
 _symmetry_equiv_pos_site_id
 _symmetry_equiv_pos_as_xyz
  1  'x, y, z'
loop_
 _atom_site_type_symbol
 _atom_site_label
 _atom_site_symmetry_multiplicity
 _atom_site_fract_x
 _atom_site_fract_y
 _atom_site_fract_z
 _atom_site_occupancy
  Cs  Cs0  1  0.50000000  0.50000000  0.50000000  1
  Rb  Rb0  1  0.91896225  0.91896225  0.91896225  1
  Rb  Rb1  1  0.08103775  0.08103775  0.08103775  1
  Sb  Sb0  1  0.24878534  0.24878534  0.24878534  1
  Sb  Sb1  1  0.75121466  0.75121466  0.75121466  1
  Au  Au0  1  0.00000000  0.50000000  0.50000000  1
  Au  Au1  1  0.50000000  0.00000000  0.50000000  1
  Au  Au2  1  0.50000000  0.50000000  0.00000000  1
loop_
_geom_bond_atom_site_label_1
_geom_bond_atom_site_label_2
_geom_bond_distance
_geom_bond_site_symmetry_2
Cs0 Sb0 4.225901 1_655
Cs0 Sb1 4.225901 1_455
Cs0 Sb0 4.225901 1_565
Cs0 Sb1 4.225901 1_545
Cs0 Sb0 4.225901 1_556
Cs0 Sb1 4.225901 1_554
Cs0 Rb0 4.259324 1_545
Cs0 Rb1 4.259324 1_565
Cs0 Rb0 4.259324 1_455
Cs0 Rb1 4.259324 1_655
Cs0 Rb0 4.259324 1_554
Cs0 Rb1 4.259324 1_556
Rb0 Sb1 3.681408 1_555
Rb0 Sb0 3.823127 1_656
Rb0 Sb0 3.823127 1_566
Rb0 Sb0 3.823127 1_665
Rb1 Sb0 3.681408 1_555
Rb1 Sb1 3.823127 1_454
Rb1 Sb1 3.823127 1_544
Rb1 Sb1 3.823127 1_445
Au0 Sb1 2.663733 1_455
Au0 Sb0 2.663733 1_555
Au0 Rb1 3.757753 1_556
Au0 Rb0 3.757753 1_454
Au0 Rb1 3.757753 1_565
Au0 Rb0 3.757753 1_445
Au0 Cs0 4.126894 1_555
Au0 Cs0 4.126894 1_455
Au1 Sb1 2.663733 1_545
Au1 Sb0 2.663733 1_555
Au1 Rb1 3.757753 1_556
Au1 Rb0 3.757753 1_544
Au1 Rb1 3.757753 1_655
Au1 Rb0 3.757753 1_445
Au1 Cs0 4.126894 1_555
Au1 Cs0 4.126894 1_545
Au2 Sb1 2.663733 1_554
Au2 Sb0 2.663733 1_555
Au2 Rb1 3.757753 1_655
Au2 Rb0 3.757753 1_454
Au2 Rb1 3.757753 1_565
Au2 Rb0 3.757753 1_544
Au2 Cs0 4.126894 1_555
Au2 Cs0 4.126894 1_554
