# generated using pymatgen
data_Mg2Ni(SnRh)2
_symmetry_space_group_name_H-M   'P 1'
_cell_length_a   7.55911201
_cell_length_b   7.55911213
_cell_length_c   7.55911208
_cell_angle_alpha   33.76958442
_cell_angle_beta   33.76958113
_cell_angle_gamma   33.76958875
_symmetry_Int_Tables_number   1
_chemical_formula_structural   Mg2Ni(SnRh)2
_chemical_formula_sum   'Mg2 Ni1 Sn2 Rh2'
_cell_volume   118.91302935
_cell_formula_units_Z   1
loop_
 _symmetry_equiv_pos_site_id
 _symmetry_equiv_pos_as_xyz
  1  'x, y, z'
loop_
 _atom_site_type_symbol
 _atom_site_label
 _atom_site_symmetry_multiplicity
 _atom_site_fract_x
 _atom_site_fract_y
 _atom_site_fract_z
 _atom_site_occupancy
  Mg  Mg0  1  0.24348462  0.24348462  0.24348462  1
  Mg  Mg1  1  0.75551708  0.75551708  0.75551708  1
  Ni  Ni0  1  0.88013345  0.88013345  0.88013345  1
  Sn  Sn0  1  0.00302398  0.00302398  0.00302398  1
  Sn  Sn1  1  0.49789529  0.49789529  0.49789529  1
  Rh  Rh0  1  0.37164983  0.37164983  0.37164983  1
  Rh  Rh1  1  0.62329374  0.62329374  0.62329374  1
loop_
_geom_bond_atom_site_label_1
_geom_bond_atom_site_label_2
_geom_bond_distance
_geom_bond_site_symmetry_2
Mg0 Ni0 2.615034 1_445
Mg0 Ni0 2.615034 1_544
Mg0 Ni0 2.615035 1_454
Mg0 Rh1 2.722682 1_554
Mg0 Rh1 2.722683 1_455
Mg0 Rh1 2.722683 1_545
Mg0 Rh0 2.738112 1_555
Mg0 Sn1 3.044678 1_554
Mg0 Sn1 3.044678 1_455
Mg0 Sn1 3.044679 1_545
Mg1 Ni0 2.662295 1_555
Mg1 Rh0 2.755482 1_556
Mg1 Rh0 2.755482 1_655
Mg1 Rh0 2.755482 1_565
Mg1 Rh1 2.824810 1_555
Mg1 Sn1 3.007230 1_556
Mg1 Sn1 3.007230 1_655
Mg1 Sn1 3.007230 1_565
Mg1 Sn0 3.128768 1_665
Mg1 Sn0 3.128768 1_566
Mg1 Sn0 3.128768 1_656
Ni0 Sn0 2.625424 1_666
Ni0 Sn1 2.742033 1_556
Ni0 Sn1 2.742033 1_655
Ni0 Sn1 2.742033 1_565
Ni0 Rh1 3.016250 1_556
Ni0 Rh1 3.016250 1_655
Ni0 Rh1 3.016250 1_565
Rh0 Sn0 2.644926 1_556
Rh0 Sn0 2.644926 1_655
Rh0 Sn0 2.644927 1_565
Rh0 Sn1 2.697099 1_555
Rh0 Rh1 3.077805 1_554
Rh0 Rh1 3.077805 1_455
Rh0 Rh1 3.077806 1_545
Rh1 Sn1 2.679003 1_555
Rh1 Sn0 2.722068 1_665
Rh1 Sn0 2.722069 1_566
Rh1 Sn0 2.722069 1_656
