# generated using pymatgen
data_Hf6Ti2MoOs3
_symmetry_space_group_name_H-M   'P 1'
_cell_length_a   8.56159249
_cell_length_b   8.56159177
_cell_length_c   8.56514668
_cell_angle_alpha   59.98626382
_cell_angle_beta   59.98626658
_cell_angle_gamma   60.07814408
_symmetry_Int_Tables_number   1
_chemical_formula_structural   Hf6Ti2MoOs3
_chemical_formula_sum   'Hf12 Ti4 Mo2 Os6'
_cell_volume   444.11393936
_cell_formula_units_Z   2
loop_
 _symmetry_equiv_pos_site_id
 _symmetry_equiv_pos_as_xyz
  1  'x, y, z'
loop_
 _atom_site_type_symbol
 _atom_site_label
 _atom_site_symmetry_multiplicity
 _atom_site_fract_x
 _atom_site_fract_y
 _atom_site_fract_z
 _atom_site_occupancy
  Hf  Hf0  1  0.80773295  0.80773295  0.19226705  1
  Hf  Hf1  1  0.19257802  0.19257802  0.80742198  1
  Hf  Hf2  1  0.80998781  0.19153582  0.80790653  1
  Hf  Hf3  1  0.19153582  0.80998781  0.19057084  1
  Hf  Hf4  1  0.19153582  0.80998781  0.80790653  1
  Hf  Hf5  1  0.80998781  0.19153582  0.19057084  1
  Hf  Hf6  1  0.44382888  0.44382888  0.05617112  1
  Hf  Hf7  1  0.05711237  0.05711237  0.44288763  1
  Hf  Hf8  1  0.44388650  0.05699048  0.44362221  1
  Hf  Hf9  1  0.05699048  0.44388650  0.05549982  1
  Hf  Hf10  1  0.05699048  0.44388650  0.44362221  1
  Hf  Hf11  1  0.44388650  0.05699048  0.05549982  1
  Ti  Ti0  1  0.12364818  0.62368974  0.62633104  1
  Ti  Ti1  1  0.62368974  0.12364818  0.62633104  1
  Ti  Ti2  1  0.62555155  0.62555155  0.12122483  1
  Ti  Ti3  1  0.62555155  0.62555155  0.62767107  1
  Mo  Mo0  1  0.75300766  0.41335364  0.41681785  1
  Mo  Mo1  1  0.41335364  0.75300766  0.41681785  1
  Os  Os0  1  0.41207537  0.41207537  0.76158950  1
  Os  Os1  1  0.41207537  0.41207537  0.41425776  1
  Os  Os2  1  0.49486149  0.83666017  0.83423967  1
  Os  Os3  1  0.83666017  0.49486149  0.83423967  1
  Os  Os4  1  0.83673543  0.83673543  0.49224768  1
  Os  Os5  1  0.83673543  0.83673543  0.83428347  1
loop_
_geom_bond_atom_site_label_1
_geom_bond_atom_site_label_2
_geom_bond_distance
_geom_bond_site_symmetry_2
Hf0 Os5 2.839534 1_554
Hf0 Os4 2.839551 1_555
Hf0 Mo0 3.082123 1_555
Hf0 Mo1 3.082123 1_555
Hf0 Ti3 3.092253 1_555
Hf0 Ti2 3.092259 1_555
Hf0 Hf10 3.185578 1_655
Hf0 Hf8 3.185578 1_565
Hf0 Hf9 3.185582 1_655
Hf0 Hf11 3.185583 1_565
Hf0 Hf2 3.288367 1_564
Hf0 Hf4 3.288367 1_654
Hf0 Hf5 3.288371 1_565
Hf0 Hf3 3.288372 1_655
Hf1 Os2 2.839549 1_545
Hf1 Os3 2.839549 1_455
Hf1 Os0 3.043749 1_555
Hf1 Os1 3.043758 1_555
Hf1 Ti0 3.064778 1_555
Hf1 Ti1 3.064778 1_555
Hf1 Hf9 3.179009 1_556
Hf1 Hf11 3.179010 1_556
Hf1 Hf10 3.179017 1_555
Hf1 Hf8 3.179017 1_555
Hf1 Hf4 3.277964 1_545
Hf1 Hf2 3.277965 1_455
Hf1 Hf3 3.277969 1_546
Hf1 Hf5 3.277969 1_456
Hf2 Os5 2.828790 1_545
Hf2 Os3 2.841885 1_555
Hf2 Mo0 3.067850 1_555
Hf2 Os0 3.084470 1_555
Hf2 Ti3 3.087148 1_555
Hf2 Ti1 3.100224 1_555
Hf2 Hf7 3.182525 1_655
Hf2 Hf6 3.191502 1_556
Hf2 Hf4 3.270516 1_645
Hf2 Hf5 3.277576 1_556
Hf3 Os4 2.828793 1_455
Hf3 Os2 2.841885 1_554
Hf3 Mo1 3.067820 1_555
Hf3 Os1 3.084460 1_555
Hf3 Ti2 3.087145 1_555
Hf3 Ti0 3.100216 1_555
Hf3 Hf7 3.182518 1_565
Hf3 Hf6 3.191507 1_555
Hf3 Hf5 3.270516 1_465
Hf3 Hf4 3.277576 1_554
Hf4 Os5 2.828790 1_455
Hf4 Os2 2.841885 1_555
Hf4 Mo1 3.067850 1_555
Hf4 Os0 3.084470 1_555
Hf4 Ti3 3.087148 1_555
Hf4 Ti0 3.100224 1_555
Hf4 Hf8 3.176233 1_565
Hf4 Hf7 3.182525 1_565
Hf4 Hf9 3.187018 1_556
Hf4 Hf6 3.191502 1_556
Hf5 Os4 2.828793 1_545
Hf5 Os3 2.841885 1_554
Hf5 Mo0 3.067820 1_555
Hf5 Os1 3.084460 1_555
Hf5 Ti2 3.087145 1_555
Hf5 Ti1 3.100216 1_555
Hf5 Hf9 3.176227 1_655
Hf5 Hf7 3.182518 1_655
Hf5 Hf8 3.187018 1_555
Hf5 Hf6 3.191507 1_555
Hf6 Os1 2.821368 1_555
Hf6 Os0 2.821384 1_554
Hf6 Ti2 3.049777 1_555
Hf6 Ti3 3.049783 1_554
Hf6 Os2 3.058609 1_554
Hf6 Os3 3.058609 1_554
Hf6 Hf8 3.314582 1_555
Hf6 Hf9 3.314586 1_555
Hf7 Mo0 2.847663 1_455
Hf7 Mo1 2.847663 1_545
Hf7 Os4 3.042053 1_445
Hf7 Os5 3.042061 1_445
Hf7 Ti0 3.084940 1_545
Hf7 Ti1 3.084940 1_455
Hf7 Hf8 3.314033 1_555
Hf7 Hf9 3.314037 1_555
Hf8 Os1 2.803063 1_555
Hf8 Mo1 2.868968 1_545
Hf8 Os2 3.044362 1_545
Hf8 Ti1 3.053593 1_555
Hf8 Os4 3.054532 1_545
Hf8 Ti3 3.073157 1_545
Hf9 Os0 2.803067 1_554
Hf9 Mo0 2.868958 1_455
Hf9 Os3 3.044348 1_454
Hf9 Ti0 3.053585 1_554
Hf9 Os5 3.054522 1_454
Hf9 Ti2 3.073158 1_455
Hf10 Os1 2.803064 1_555
Hf10 Mo0 2.868968 1_455
Hf10 Os3 3.044362 1_455
Hf10 Ti0 3.053593 1_555
Hf10 Os4 3.054532 1_455
Hf10 Ti3 3.073158 1_455
Hf10 Hf2 3.176233 1_455
Hf10 Hf3 3.187018 1_555
Hf10 Hf7 3.314033 1_555
Hf10 Hf6 3.314582 1_555
Hf10 Hf8 3.316358 1_555
Hf10 Hf9 3.324325 1_555
Hf11 Os0 2.803067 1_554
Hf11 Mo1 2.868958 1_545
Hf11 Os2 3.044347 1_544
Hf11 Ti1 3.053585 1_554
Hf11 Os5 3.054523 1_544
Hf11 Ti2 3.073157 1_545
Hf11 Hf3 3.176227 1_545
Hf11 Hf2 3.187019 1_554
Hf11 Hf7 3.314037 1_555
Hf11 Hf6 3.314586 1_555
Hf11 Hf9 3.316358 1_555
Hf11 Hf8 3.324325 1_555
Mo0 Ti1 2.626279 1_555
Mo0 Ti2 2.661938 1_555
Mo0 Ti3 2.661952 1_555
Mo0 Mo1 2.911413 1_555
Mo0 Os1 2.935448 1_555
Mo0 Os0 2.935452 1_555
Mo1 Ti0 2.626279 1_555
Mo1 Ti2 2.661938 1_555
Mo1 Ti3 2.661952 1_555
Mo1 Os1 2.935448 1_555
Mo1 Os0 2.935452 1_555
Os0 Ti1 2.649782 1_555
Os0 Ti0 2.649782 1_555
Os0 Ti3 2.671070 1_555
Os0 Os1 2.974947 1_555
Os1 Ti1 2.649792 1_555
Os1 Ti0 2.649792 1_555
Os1 Ti2 2.671068 1_555
Os2 Ti1 2.605059 1_565
Os2 Ti2 2.617285 1_556
Os2 Ti3 2.617299 1_555
Os2 Os4 2.927490 1_555
Os2 Os5 2.927494 1_555
Os2 Os3 2.929797 1_555
Os3 Ti0 2.605060 1_655
Os3 Ti2 2.617285 1_556
Os3 Ti3 2.617299 1_555
Os3 Os4 2.927490 1_555
Os3 Os5 2.927494 1_555
Os4 Ti1 2.633746 1_565
Os4 Ti0 2.633746 1_655
Os4 Ti3 2.636070 1_555
Os4 Os5 2.929587 1_555
Os5 Ti1 2.633756 1_565
Os5 Ti0 2.633756 1_655
Os5 Ti2 2.636064 1_556
