# generated using pymatgen
data_Rb3Al2Sb2As
_symmetry_space_group_name_H-M   'P 1'
_cell_length_a   6.24180738
_cell_length_b   8.24723051
_cell_length_c   11.19577334
_cell_angle_alpha   70.15781525
_cell_angle_beta   90.00000000
_cell_angle_gamma   90.00000000
_symmetry_Int_Tables_number   1
_chemical_formula_structural   Rb3Al2Sb2As
_chemical_formula_sum   'Rb6 Al4 Sb4 As2'
_cell_volume   542.11563510
_cell_formula_units_Z   2
loop_
 _symmetry_equiv_pos_site_id
 _symmetry_equiv_pos_as_xyz
  1  'x, y, z'
loop_
 _atom_site_type_symbol
 _atom_site_label
 _atom_site_symmetry_multiplicity
 _atom_site_fract_x
 _atom_site_fract_y
 _atom_site_fract_z
 _atom_site_occupancy
  Rb  Rb0  1  0.25000000  0.48102622  0.40478444  1
  Rb  Rb1  1  0.75000000  0.13679888  0.94053979  1
  Rb  Rb2  1  0.75000000  0.45989460  0.15554563  1
  Rb  Rb3  1  0.25000000  0.54010540  0.84445437  1
  Rb  Rb4  1  0.75000000  0.51897378  0.59521556  1
  Rb  Rb5  1  0.25000000  0.86320112  0.05946021  1
  Al  Al0  1  0.99957367  0.01344522  0.35802667  1
  Al  Al1  1  0.49957367  0.98655478  0.64197333  1
  Al  Al2  1  0.50042633  0.01344522  0.35802667  1
  Al  Al3  1  0.00042633  0.98655478  0.64197333  1
  Sb  Sb0  1  0.25000000  0.23576466  0.18115111  1
  Sb  Sb1  1  0.75000000  0.76423534  0.81884889  1
  Sb  Sb2  1  0.25000000  0.18539371  0.72930103  1
  Sb  Sb3  1  0.75000000  0.81460629  0.27069897  1
  As  As0  1  0.25000000  0.82950248  0.53383895  1
  As  As1  1  0.75000000  0.17049752  0.46616105  1
loop_
_geom_bond_atom_site_label_1
_geom_bond_atom_site_label_2
_geom_bond_distance
_geom_bond_site_symmetry_2
Rb0 Sb2 3.623707 1_555
Rb0 Sb0 3.714594 1_555
Rb0 Sb3 4.093723 1_455
Rb0 Sb3 4.093723 1_555
Rb1 Sb3 3.749157 1_546
Rb1 Sb1 3.760190 1_545
Rb1 Sb2 3.853616 1_555
Rb1 Sb2 3.853616 1_655
Rb2 Sb3 3.574961 1_555
Rb2 Sb0 3.588769 1_555
Rb2 Sb0 3.588769 1_655
Rb2 Sb1 3.753214 1_554
Rb3 Sb2 3.574961 1_555
Rb3 Sb1 3.588769 1_555
Rb3 Sb1 3.588769 1_455
Rb3 Sb0 3.753214 1_556
Rb4 Sb3 3.623707 1_555
Rb4 Sb1 3.714594 1_555
Rb4 Sb2 4.093723 1_555
Rb4 Sb2 4.093723 1_655
Rb5 Sb2 3.749157 1_564
Rb5 Sb0 3.760190 1_565
Rb5 Sb3 3.853616 1_555
Rb5 Sb3 3.853616 1_455
Al0 As0 2.567486 1_645
Al0 As1 2.575764 1_555
Al0 Sb3 2.675856 1_545
Al0 Sb0 2.694755 1_655
Al1 As1 2.567486 1_565
Al1 As0 2.575764 1_555
Al1 Sb2 2.675856 1_565
Al1 Sb1 2.694755 1_555
Al2 As0 2.567486 1_545
Al2 As1 2.575764 1_555
Al2 Sb3 2.675856 1_545
Al2 Sb0 2.694755 1_555
Al3 As1 2.567486 1_465
Al3 As0 2.575764 1_555
Al3 Sb2 2.675856 1_565
Al3 Sb1 2.694755 1_455
As0 Rb3 3.486467 1_555
As0 Rb0 3.628535 1_555
As0 Rb4 3.946681 1_455
As0 Rb4 3.946681 1_555
As1 Rb2 3.486467 1_555
As1 Rb4 3.628535 1_555
As1 Rb0 3.946681 1_555
As1 Rb0 3.946681 1_655
