# generated using pymatgen
data_Zr3Ti2BeBi3
_symmetry_space_group_name_H-M   'P 1'
_cell_length_a   8.58445823
_cell_length_b   8.58445754
_cell_length_c   5.73021885
_cell_angle_alpha   90.00000000
_cell_angle_beta   90.00000000
_cell_angle_gamma   119.99999504
_symmetry_Int_Tables_number   1
_chemical_formula_structural   Zr3Ti2BeBi3
_chemical_formula_sum   'Zr6 Ti4 Be2 Bi6'
_cell_volume   365.70223196
_cell_formula_units_Z   2
loop_
 _symmetry_equiv_pos_site_id
 _symmetry_equiv_pos_as_xyz
  1  'x, y, z'
loop_
 _atom_site_type_symbol
 _atom_site_label
 _atom_site_symmetry_multiplicity
 _atom_site_fract_x
 _atom_site_fract_y
 _atom_site_fract_z
 _atom_site_occupancy
  Zr  Zr0  1  0.75241158  0.00000000  0.25000000  1
  Zr  Zr1  1  0.00000000  0.75241158  0.25000000  1
  Zr  Zr2  1  0.24758842  0.24758842  0.25000000  1
  Zr  Zr3  1  0.24758842  0.00000000  0.75000000  1
  Zr  Zr4  1  0.00000000  0.24758842  0.75000000  1
  Zr  Zr5  1  0.75241158  0.75241158  0.75000000  1
  Ti  Ti0  1  0.33333300  0.66666700  0.50000000  1
  Ti  Ti1  1  0.66666700  0.33333300  0.50000000  1
  Ti  Ti2  1  0.66666700  0.33333300  0.00000000  1
  Ti  Ti3  1  0.33333300  0.66666700  0.00000000  1
  Be  Be0  1  0.00000000  0.00000000  0.50000000  1
  Be  Be1  1  0.00000000  0.00000000  0.00000000  1
  Bi  Bi0  1  0.39594988  1.00000000  0.25000000  1
  Bi  Bi1  1  0.00000000  0.39594988  0.25000000  1
  Bi  Bi2  1  0.60405012  0.60405012  0.25000000  1
  Bi  Bi3  1  0.60405012  0.00000000  0.75000000  1
  Bi  Bi4  1  0.00000000  0.60405012  0.75000000  1
  Bi  Bi5  1  0.39594988  0.39594988  0.75000000  1
loop_
_geom_bond_atom_site_label_1
_geom_bond_atom_site_label_2
_geom_bond_distance
_geom_bond_site_symmetry_2
Ti0 Ti3 2.865109 1_555
Ti0 Ti3 2.865109 1_556
Ti1 Ti2 2.865109 1_556
Ti1 Ti2 2.865109 1_555
Be0 Zr1 2.563121 1_545
Be0 Zr4 2.563121 1_555
Be0 Zr3 2.563121 1_555
Be0 Zr0 2.563121 1_455
Be0 Zr2 2.563121 1_555
Be0 Zr5 2.563121 1_445
Be1 Zr1 2.563121 1_545
Be1 Zr4 2.563121 1_554
Be1 Zr3 2.563121 1_554
Be1 Zr0 2.563121 1_455
Be1 Zr2 2.563121 1_555
Be1 Zr5 2.563121 1_444
Bi0 Zr2 2.974285 1_565
Bi0 Zr1 2.974285 1_555
Bi0 Ti0 2.998516 1_555
Bi0 Ti3 2.998516 1_555
Bi0 Ti2 2.998519 1_565
Bi0 Ti1 2.998519 1_565
Bi0 Zr0 3.060031 1_565
Bi0 Zr3 3.135429 1_565
Bi0 Zr3 3.135429 1_564
Bi0 Bi3 3.376415 1_564
Bi0 Bi3 3.376415 1_565
Bi1 Zr2 2.974285 1_555
Bi1 Zr0 2.974285 1_455
Bi1 Ti2 2.998517 1_455
Bi1 Ti1 2.998517 1_455
Bi1 Ti0 2.998519 1_555
Bi1 Ti3 2.998519 1_555
Bi1 Zr1 3.060030 1_555
Bi1 Zr4 3.135429 1_555
Bi1 Zr4 3.135429 1_554
Bi1 Bi4 3.376415 1_555
Bi1 Bi4 3.376415 1_554
Bi2 Zr0 2.974285 1_565
Bi2 Zr1 2.974285 1_655
Bi2 Ti1 2.998524 1_555
Bi2 Ti2 2.998524 1_555
Bi2 Ti3 2.998524 1_555
Bi2 Ti0 2.998524 1_555
Bi2 Zr2 3.060031 1_555
Bi2 Zr5 3.135429 1_555
Bi2 Zr5 3.135429 1_554
Bi2 Bi5 3.376415 1_554
Bi2 Bi5 3.376415 1_555
Bi3 Zr5 2.974285 1_545
Bi3 Zr4 2.974285 1_655
Bi3 Ti1 2.998516 1_555
Bi3 Ti2 2.998516 1_556
Bi3 Ti0 2.998519 1_545
Bi3 Ti3 2.998519 1_546
Bi3 Zr3 3.060031 1_555
Bi3 Zr0 3.135429 1_555
Bi3 Zr0 3.135429 1_556
Bi4 Zr5 2.974285 1_455
Bi4 Zr3 2.974285 1_565
Bi4 Ti3 2.998517 1_556
Bi4 Ti0 2.998517 1_555
Bi4 Ti2 2.998519 1_456
Bi4 Ti1 2.998519 1_455
Bi4 Zr4 3.060030 1_555
Bi4 Zr1 3.135429 1_555
Bi4 Zr1 3.135429 1_556
Bi5 Zr3 2.974285 1_555
Bi5 Zr4 2.974285 1_555
Bi5 Ti0 2.998524 1_555
Bi5 Ti3 2.998524 1_556
Bi5 Ti2 2.998524 1_556
Bi5 Ti1 2.998524 1_555
Bi5 Zr5 3.060031 1_555
Bi5 Zr2 3.135429 1_555
Bi5 Zr2 3.135429 1_556
