# generated using pymatgen
data_Be8TcMo3
_symmetry_space_group_name_H-M   'P 1'
_cell_length_a   4.41106985
_cell_length_b   4.41106998
_cell_length_c   7.25380566
_cell_angle_alpha   90.00000000
_cell_angle_beta   90.00000000
_cell_angle_gamma   120.00000642
_symmetry_Int_Tables_number   1
_chemical_formula_structural   Be8TcMo3
_chemical_formula_sum   'Be8 Tc1 Mo3'
_cell_volume   122.23185474
_cell_formula_units_Z   1
loop_
 _symmetry_equiv_pos_site_id
 _symmetry_equiv_pos_as_xyz
  1  'x, y, z'
loop_
 _atom_site_type_symbol
 _atom_site_label
 _atom_site_symmetry_multiplicity
 _atom_site_fract_x
 _atom_site_fract_y
 _atom_site_fract_z
 _atom_site_occupancy
  Be  Be0  1  0.00000000  0.00000000  0.49994535  1
  Be  Be1  1  0.00000000  0.00000000  0.00159180  1
  Be  Be2  1  0.83057998  0.16942002  0.25126270  1
  Be  Be3  1  0.83057998  0.66115895  0.25126270  1
  Be  Be4  1  0.33884105  0.16942002  0.25126270  1
  Be  Be5  1  0.16946757  0.83053243  0.74887407  1
  Be  Be6  1  0.16946757  0.33893715  0.74887407  1
  Be  Be7  1  0.66106285  0.83053243  0.74887407  1
  Tc  Tc0  1  0.33333300  0.66666700  0.43690846  1
  Mo  Mo0  1  0.66666700  0.33333300  0.56057967  1
  Mo  Mo1  1  0.66666700  0.33333300  0.93664486  1
  Mo  Mo2  1  0.33333300  0.66666700  0.06391955  1
loop_
_geom_bond_atom_site_label_1
_geom_bond_atom_site_label_2
_geom_bond_distance
_geom_bond_site_symmetry_2
Be0 Be2 2.220252 1_455
Be0 Be4 2.220254 1_555
Be0 Be3 2.220254 1_445
Be0 Be5 2.221914 1_545
Be0 Be7 2.221918 1_445
Be0 Be6 2.221918 1_555
Be0 Mo0 2.584431 1_455
Be0 Mo0 2.584434 1_555
Be0 Mo0 2.584435 1_445
Be0 Tc0 2.587454 1_545
Be0 Tc0 2.587457 1_445
Be0 Tc0 2.587457 1_555
Be1 Be2 2.226080 1_455
Be1 Be4 2.226082 1_555
Be1 Be3 2.226082 1_445
Be1 Be5 2.244307 1_544
Be1 Be7 2.244311 1_444
Be1 Be6 2.244311 1_554
Be1 Mo2 2.586550 1_545
Be1 Mo2 2.586553 1_445
Be1 Mo2 2.586553 1_555
Be1 Mo1 2.589938 1_454
Be1 Mo1 2.589942 1_554
Be1 Mo1 2.589942 1_444
Be2 Be4 2.169095 1_555
Be2 Be3 2.169095 1_555
Be2 Be4 2.241975 1_655
Be2 Be3 2.241975 1_545
Be2 Mo0 2.569558 1_555
Be2 Tc0 2.584233 1_655
Be2 Tc0 2.584233 1_545
Be2 Mo2 2.590670 1_655
Be2 Mo2 2.590670 1_545
Be2 Mo1 2.603201 1_554
Be3 Be4 2.169095 1_555
Be3 Be4 2.241975 1_665
Be3 Mo0 2.569558 1_555
Be3 Tc0 2.584230 1_655
Be3 Tc0 2.584237 1_555
Be3 Mo2 2.590667 1_655
Be3 Mo2 2.590674 1_555
Be3 Mo1 2.603201 1_554
Be4 Mo0 2.569558 1_555
Be4 Tc0 2.584230 1_545
Be4 Tc0 2.584237 1_555
Be4 Mo2 2.590667 1_545
Be4 Mo2 2.590674 1_555
Be4 Mo1 2.603201 1_554
Be5 Be7 2.168461 1_555
Be5 Be6 2.168461 1_555
Be5 Be7 2.242609 1_455
Be5 Be6 2.242609 1_565
Be5 Tc0 2.586175 1_555
Be5 Mo1 2.592302 1_455
Be5 Mo1 2.592302 1_565
Be5 Mo0 2.594300 1_455
Be5 Mo0 2.594300 1_565
Be5 Mo2 2.605746 1_556
Be6 Be7 2.168461 1_555
Be6 Be7 2.242609 1_445
Be6 Tc0 2.586173 1_555
Be6 Mo1 2.592297 1_455
Be6 Mo1 2.592308 1_555
Be6 Mo0 2.594294 1_455
Be6 Mo0 2.594305 1_555
Be6 Mo2 2.605744 1_556
Be7 Tc0 2.586173 1_555
Be7 Mo1 2.592297 1_565
Be7 Mo1 2.592308 1_555
Be7 Mo0 2.594294 1_565
Be7 Mo0 2.594305 1_555
Be7 Mo2 2.605744 1_556
Mo0 Tc0 2.700111 1_655
Mo0 Tc0 2.700111 1_545
Mo0 Tc0 2.700118 1_555
Mo0 Mo1 2.727904 1_555
Mo1 Mo2 2.708907 1_656
Mo1 Mo2 2.708907 1_546
Mo1 Mo2 2.708915 1_556
Mo2 Tc0 2.705589 1_555
