# generated using pymatgen
data_LiAl2AgTe4
_symmetry_space_group_name_H-M   'P 1'
_cell_length_a   7.48918409
_cell_length_b   7.48918401
_cell_length_c   7.48918459
_cell_angle_alpha   129.69990459
_cell_angle_beta   129.69990658
_cell_angle_gamma   73.88696890
_symmetry_Int_Tables_number   1
_chemical_formula_structural   LiAl2AgTe4
_chemical_formula_sum   'Li1 Al2 Ag1 Te4'
_cell_volume   242.54514769
_cell_formula_units_Z   1
loop_
 _symmetry_equiv_pos_site_id
 _symmetry_equiv_pos_as_xyz
  1  'x, y, z'
loop_
 _atom_site_type_symbol
 _atom_site_label
 _atom_site_symmetry_multiplicity
 _atom_site_fract_x
 _atom_site_fract_y
 _atom_site_fract_z
 _atom_site_occupancy
  Li  Li0  1  0.50000000  0.50000000  0.00000000  1
  Al  Al0  1  0.75000000  0.25000000  0.50000000  1
  Al  Al1  1  0.00000000  0.00000000  0.00000000  1
  Ag  Ag0  1  0.25000000  0.75000000  0.50000000  1
  Te  Te0  1  0.86997421  0.89266645  0.51652888  1
  Te  Te1  1  0.10733355  0.62386242  0.97730876  1
  Te  Te2  1  0.64655367  0.13002579  0.02269124  1
  Te  Te3  1  0.37613758  0.35344633  0.48347112  1
loop_
_geom_bond_atom_site_label_1
_geom_bond_atom_site_label_2
_geom_bond_distance
_geom_bond_site_symmetry_2
Li0 Te2 2.754291 1_555
Li0 Te0 2.754296 1_555
Li0 Te1 2.754298 1_554
Li0 Te3 2.754299 1_554
Al0 Te0 2.632640 1_545
Al0 Te3 2.632640 1_555
Al0 Te1 2.632641 1_655
Al0 Te2 2.632644 1_555
Al1 Te0 2.629899 1_444
Al1 Te1 2.629901 1_544
Al1 Te3 2.629902 1_555
Al1 Te2 2.629902 1_455
Ag0 Te3 2.801835 1_555
Ag0 Te1 2.801836 1_554
Ag0 Te2 2.801839 1_566
Ag0 Te0 2.801842 1_455
