# generated using pymatgen
data_K12Al(GaTe4)3
_symmetry_space_group_name_H-M   'P 1'
_cell_length_a   14.01243788
_cell_length_b   8.68256849
_cell_length_c   11.18281225
_cell_angle_alpha   52.64047939
_cell_angle_beta   90.08824040
_cell_angle_gamma   90.00865593
_symmetry_Int_Tables_number   1
_chemical_formula_structural   K12Al(GaTe4)3
_chemical_formula_sum   'K12 Al1 Ga3 Te12'
_cell_volume   1081.41868850
_cell_formula_units_Z   1
loop_
 _symmetry_equiv_pos_site_id
 _symmetry_equiv_pos_as_xyz
  1  'x, y, z'
loop_
 _atom_site_type_symbol
 _atom_site_label
 _atom_site_symmetry_multiplicity
 _atom_site_fract_x
 _atom_site_fract_y
 _atom_site_fract_z
 _atom_site_occupancy
  K  K0  1  0.30953072  0.14523604  0.07324176  1
  K  K1  1  0.68827584  0.85433989  0.92599605  1
  K  K2  1  0.80959827  0.85297162  0.42660310  1
  K  K3  1  0.89571858  0.31951407  0.40263802  1
  K  K4  1  0.61024055  0.35467658  0.47481086  1
  K  K5  1  0.11121437  0.64312504  0.02610987  1
  K  K6  1  0.39020378  0.64565934  0.52564890  1
  K  K7  1  0.88976593  0.35785673  0.97405626  1
  K  K8  1  0.60538819  0.31831540  0.90313045  1
  K  K9  1  0.10317054  0.68146493  0.59668497  1
  K  K10  1  0.39563724  0.68110095  0.09677750  1
  K  K11  1  0.19038226  0.14484617  0.57490669  1
  Al  Al0  1  0.93292497  0.05554654  0.83970010  1
  Ga  Ga0  1  0.06778119  0.94408378  0.16147841  1
  Ga  Ga1  1  0.56792821  0.05594812  0.33804036  1
  Ga  Ga2  1  0.43183783  0.94436757  0.66154096  1
  Te  Te0  1  0.39815637  0.17720868  0.36062354  1
  Te  Te1  1  0.89760739  0.82407103  0.13744895  1
  Te  Te2  1  0.60140172  0.82244128  0.63906844  1
  Te  Te3  1  0.10201100  0.17731664  0.86097413  1
  Te  Te4  1  0.69512180  0.33270998  0.19326907  1
  Te  Te5  1  0.19481606  0.66677197  0.30712843  1
  Te  Te6  1  0.30479747  0.66739844  0.80667660  1
  Te  Te7  1  0.80605662  0.33148380  0.69366456  1
  Te  Te8  1  0.55713914  0.85839601  0.23399805  1
  Te  Te9  1  0.05674463  0.14170290  0.26520881  1
  Te  Te10  1  0.44280526  0.14172491  0.76575372  1
  Te  Te11  1  0.94374308  0.85972258  0.73482044  1
loop_
_geom_bond_atom_site_label_1
_geom_bond_atom_site_label_2
_geom_bond_distance
_geom_bond_site_symmetry_2
K0 Te0 3.608008 1_555
K0 Te6 3.611449 1_554
K0 Te3 3.653006 1_554
K0 Te5 3.675192 1_545
K0 Te10 3.931838 1_554
K0 Te8 4.002777 1_545
K0 Te9 4.135177 1_555
K1 Te2 3.594502 1_555
K1 Te4 3.609115 1_556
K1 Te1 3.672760 1_556
K1 Te7 3.685819 1_565
K1 Te8 3.925295 1_556
K1 Te10 3.978128 1_565
K2 Te7 3.607253 1_555
K2 Te1 3.610652 1_555
K2 Te2 3.671931 1_555
K2 Te4 3.678368 1_565
K2 Te11 3.954983 1_555
K2 Te9 4.007593 1_665
K2 Te8 4.124223 1_555
K3 Te11 3.490659 1_545
K3 Te1 3.495745 1_555
K3 Te7 3.550234 1_555
K3 Te9 3.567612 1_655
K3 Te4 3.612494 1_555
K4 Te4 3.479082 1_555
K4 Te10 3.497173 1_555
K4 Te8 3.554536 1_555
K4 Te7 3.597283 1_555
K4 Te2 3.800435 1_545
K4 Te0 3.900183 1_555
K5 Te5 3.473028 1_555
K5 Te11 3.492510 1_454
K5 Te9 3.544519 1_555
K5 Te6 3.580038 1_554
K5 Te3 3.813637 1_564
K5 Te1 3.919744 1_455
K6 Te6 3.475030 1_555
K6 Te8 3.497384 1_555
K6 Te10 3.554449 1_555
K6 Te5 3.596791 1_555
K6 Te0 3.792378 1_565
K6 Te2 3.882333 1_555
K7 Te7 3.481387 1_555
K7 Te9 3.487065 1_656
K7 Te11 3.546017 1_555
K7 Te4 3.587041 1_556
K7 Te1 3.814787 1_546
K7 Te3 3.914106 1_655
K8 Te8 3.488383 1_546
K8 Te2 3.492143 1_555
K8 Te4 3.550123 1_556
K8 Te10 3.570425 1_555
K8 Te7 3.619623 1_555
K9 Te9 3.485467 1_565
K9 Te3 3.492175 1_555
K9 Te5 3.558734 1_555
K9 Te11 3.561685 1_455
K9 Te6 3.625361 1_555
K10 Te10 3.489167 1_564
K10 Te0 3.490190 1_555
K10 Te6 3.551692 1_554
K10 Te8 3.563820 1_555
K10 Te5 3.623884 1_555
K11 Te3 3.599109 1_555
K11 Te5 3.610858 1_555
K11 Te6 3.663664 1_545
K11 Te0 3.674452 1_555
K11 Te9 3.949235 1_555
K11 Te11 3.989266 1_445
K11 Te10 4.119825 1_555
Al0 Te11 2.590405 1_545
Al0 Te7 2.609839 1_555
Al0 Te3 2.662860 1_655
Al0 Te1 2.693346 1_546
Al0 K1 3.701036 1_545
Ga0 Te9 2.594191 1_565
Ga0 Te5 2.617592 1_555
Ga0 Te1 2.679774 1_455
Ga0 Te3 2.714679 1_564
Ga0 K0 3.662804 1_565
Ga1 Te8 2.596164 1_545
Ga1 Te4 2.618808 1_555
Ga1 Te0 2.675225 1_555
Ga1 Te2 2.715715 1_545
Ga1 K2 3.664365 1_545
Ga2 Te10 2.596350 1_565
Ga2 Te6 2.618578 1_555
Ga2 Te2 2.674832 1_555
Ga2 Te0 2.715279 1_565
Ga2 K11 3.655248 1_565
