# generated using pymatgen
data_Sr6HfTc3O14
_symmetry_space_group_name_H-M   'P 1'
_cell_length_a   10.77457298
_cell_length_b   10.77457343
_cell_length_c   5.60926329
_cell_angle_alpha   90.00003080
_cell_angle_beta   90.00003743
_cell_angle_gamma   149.82178662
_symmetry_Int_Tables_number   1
_chemical_formula_structural   Sr6HfTc3O14
_chemical_formula_sum   'Sr6 Hf1 Tc3 O14'
_cell_volume   327.34621384
_cell_formula_units_Z   1
loop_
 _symmetry_equiv_pos_site_id
 _symmetry_equiv_pos_as_xyz
  1  'x, y, z'
loop_
 _atom_site_type_symbol
 _atom_site_label
 _atom_site_symmetry_multiplicity
 _atom_site_fract_x
 _atom_site_fract_y
 _atom_site_fract_z
 _atom_site_occupancy
  Sr  Sr0  1  0.18408074  0.81591926  0.50000000  1
  Sr  Sr1  1  0.81198846  0.18801154  0.50000000  1
  Sr  Sr2  1  0.68500545  0.31499455  1.00000000  1
  Sr  Sr3  1  0.00214836  0.99785164  0.50000000  1
  Sr  Sr4  1  0.50218865  0.49781135  0.00000000  1
  Sr  Sr5  1  0.31157125  0.68842875  1.00000000  1
  Hf  Hf0  1  0.40207183  0.59792817  0.50000000  1
  Tc  Tc0  1  0.09723638  0.90276362  0.00000000  1
  Tc  Tc1  1  0.59861472  0.40138528  0.50000000  1
  Tc  Tc2  1  0.90266083  0.09733917  1.00000000  1
  O  O0  1  0.19423571  0.80576429  1.00000000  1
  O  O1  1  0.61421853  0.80685926  0.20491937  1
  O  O2  1  0.33804574  0.14371367  0.74078248  1
  O  O3  1  0.69884732  0.89111646  0.71063345  1
  O  O4  1  0.35698197  0.16244735  0.24038679  1
  O  O5  1  0.00001350  0.99998650  0.00000000  1
  O  O6  1  0.69554066  0.30445934  0.50000000  1
  O  O7  1  0.80490413  0.19509587  0.00000000  1
  O  O8  1  0.10888354  0.30115268  0.28936655  1
  O  O9  1  0.83755265  0.64301803  0.75961321  1
  O  O10  1  0.85628633  0.66195426  0.25921752  1
  O  O11  1  0.19314074  0.38578147  0.79508063  1
  O  O12  1  0.50147945  0.49852055  0.50000000  1
  O  O13  1  0.30230605  0.69769395  0.50000000  1
loop_
_geom_bond_atom_site_label_1
_geom_bond_atom_site_label_2
_geom_bond_distance
_geom_bond_site_symmetry_2
Hf0 O3 2.033604 1_555
Hf0 O8 2.033604 1_555
Hf0 O11 2.033633 1_555
Hf0 O1 2.033633 1_555
Hf0 O12 2.068293 1_555
Hf0 O13 2.075744 1_555
O0 Tc0 2.018185 1_556
O0 Sr5 2.441304 1_555
O0 Sr2 2.811414 1_455
O0 Sr2 2.811414 1_565
O0 Sr0 2.812579 1_555
O0 Sr0 2.812579 1_556
O1 Tc2 1.989566 1_564
O1 Sr5 2.527607 1_554
O1 Sr4 2.630013 1_555
O1 Sr1 3.002632 1_565
O1 Sr3 3.094143 1_655
O2 Tc1 1.984435 1_555
O2 Tc0 1.984966 1_546
O2 Sr0 2.630633 1_545
O2 Sr3 2.749255 1_545
O2 Sr2 2.750855 1_555
O2 Sr4 2.851686 1_556
O3 Tc2 1.989443 1_565
O3 Sr1 2.524460 1_565
O3 Sr3 2.626829 1_655
O3 Sr5 3.010035 1_555
O3 Sr4 3.091571 1_556
O4 Tc1 1.984519 1_555
O4 Tc0 1.985137 1_545
O4 Sr2 2.639605 1_554
O4 Sr0 2.739674 1_545
O4 Sr4 2.747444 1_555
O4 Sr3 2.856561 1_545
O5 Tc0 2.022837 1_555
O5 Tc2 2.025537 1_464
O5 Sr3 2.804983 1_555
O5 Sr3 2.804983 1_554
O5 Sr4 2.805212 1_565
O5 Sr4 2.805212 1_455
O6 Tc1 2.016658 1_555
O6 Sr1 2.422834 1_555
O6 Sr2 2.813184 1_554
O6 Sr2 2.813184 1_555
O6 Sr0 2.814963 1_545
O6 Sr0 2.814963 1_655
O7 Tc2 2.033943 1_554
O7 Sr2 2.494633 1_554
O7 Sr5 2.808275 1_654
O7 Sr5 2.808275 1_544
O7 Sr1 2.808502 1_555
O7 Sr1 2.808502 1_554
O8 Tc2 1.989443 1_454
O8 Sr1 2.524460 1_455
O8 Sr3 2.626829 1_545
O8 Sr5 3.010035 1_554
O8 Sr4 3.091571 1_555
O9 Tc1 1.984519 1_555
O9 Tc0 1.985137 1_656
O9 Sr2 2.639605 1_555
O9 Sr0 2.739674 1_655
O9 Sr4 2.747444 1_556
O9 Sr3 2.856561 1_655
O10 Tc1 1.984435 1_555
O10 Tc0 1.984966 1_655
O10 Sr0 2.630633 1_655
O10 Sr3 2.749255 1_655
O10 Sr2 2.750855 1_554
O10 Sr4 2.851685 1_555
O11 Tc2 1.989566 1_455
O11 Sr5 2.527608 1_555
O11 Sr4 2.630012 1_556
O11 Sr1 3.002631 1_455
O11 Sr3 3.094143 1_545
O12 Tc1 2.021014 1_555
O12 Sr4 2.804670 1_556
O12 Sr4 2.804670 1_555
O12 Sr3 2.804882 1_655
O12 Sr3 2.804882 1_545
O13 Sr0 2.459817 1_555
O13 Sr5 2.811249 1_555
O13 Sr5 2.811249 1_554
O13 Sr1 2.812072 1_565
O13 Sr1 2.812072 1_455
