# generated using pymatgen
data_Hg2SeO3
_symmetry_space_group_name_H-M   'P 1'
_cell_length_a   5.28005200
_cell_length_b   8.99567800
_cell_length_c   12.28809473
_cell_angle_alpha   57.39676462
_cell_angle_beta   90.00000000
_cell_angle_gamma   90.00000000
_symmetry_Int_Tables_number   1
_chemical_formula_structural   Hg2SeO3
_chemical_formula_sum   'Hg8 Se4 O12'
_cell_volume   491.68429618
_cell_formula_units_Z   4
loop_
 _symmetry_equiv_pos_site_id
 _symmetry_equiv_pos_as_xyz
  1  'x, y, z'
loop_
 _atom_site_type_symbol
 _atom_site_label
 _atom_site_symmetry_multiplicity
 _atom_site_fract_x
 _atom_site_fract_y
 _atom_site_fract_z
 _atom_site_occupancy
  Hg  Hg0  1  0.70346500  0.77497800  0.84270700  1
  Hg  Hg1  1  0.79653500  0.77497800  0.34270700  1
  Hg  Hg2  1  0.29653500  0.22502200  0.15729300  1
  Hg  Hg3  1  0.20346500  0.22502200  0.65729300  1
  Hg  Hg4  1  0.23916500  0.42284800  0.90640600  1
  Hg  Hg5  1  0.73916500  0.57715200  0.59359400  1
  Hg  Hg6  1  0.76083500  0.57715200  0.09359400  1
  Hg  Hg7  1  0.26083500  0.42284800  0.40640600  1
  Se  Se0  1  0.74753600  0.15873800  0.87038200  1
  Se  Se1  1  0.25246400  0.84126200  0.12961800  1
  Se  Se2  1  0.24753600  0.84126200  0.62961800  1
  Se  Se3  1  0.75246400  0.15873800  0.37038200  1
  O  O0  1  0.84138200  0.38031100  0.29911900  1
  O  O1  1  0.34138200  0.61968900  0.20088100  1
  O  O2  1  0.15861800  0.61968900  0.70088100  1
  O  O3  1  0.65861800  0.38031100  0.79911900  1
  O  O4  1  0.42452800  0.17253200  0.34975100  1
  O  O5  1  0.92452800  0.82746800  0.15024900  1
  O  O6  1  0.57547200  0.82746800  0.65024900  1
  O  O7  1  0.65410100  0.11076800  0.75924000  1
  O  O8  1  0.84589900  0.11076800  0.25924000  1
  O  O9  1  0.34589900  0.88923200  0.24076000  1
  O  O10  1  0.15410100  0.88923200  0.74076000  1
  O  O11  1  0.07547200  0.17253200  0.84975100  1
loop_
_geom_bond_atom_site_label_1
_geom_bond_atom_site_label_2
_geom_bond_distance
_geom_bond_site_symmetry_2
Hg0 O6 2.251498 1_555
Hg0 O10 2.626717 1_655
Hg0 O7 2.627852 1_565
Hg1 O5 2.251498 1_555
Hg1 O9 2.626717 1_555
Hg1 O8 2.627852 1_565
Hg2 O4 2.251498 1_555
Hg2 O8 2.626717 1_455
Hg2 O9 2.627852 1_545
Hg3 O11 2.251498 1_555
Hg3 O7 2.626717 1_555
Hg3 O10 2.627852 1_545
Hg4 O2 2.208023 1_555
Hg5 O3 2.208023 1_555
Hg6 O0 2.208023 1_555
Hg7 O1 2.208023 1_555
O0 Se3 1.754755 1_555
O1 Se1 1.754755 1_555
O2 Se2 1.754755 1_555
O3 Se0 1.754755 1_555
O4 Se3 1.744685 1_555
O5 Se1 1.744685 1_655
O6 Se2 1.744685 1_555
O7 Se0 1.711693 1_555
O8 Se3 1.711693 1_555
O9 Se1 1.711693 1_555
O10 Se2 1.711693 1_555
O11 Se0 1.744685 1_455
