# generated using pymatgen
data_Ca(MoC)4
_symmetry_space_group_name_H-M   'P 1'
_cell_length_a   6.12732982
_cell_length_b   6.12733098
_cell_length_c   6.12733122
_cell_angle_alpha   94.24396447
_cell_angle_beta   94.24397656
_cell_angle_gamma   148.42909240
_symmetry_Int_Tables_number   1
_chemical_formula_structural   Ca(MoC)4
_chemical_formula_sum   'Ca1 Mo4 C4'
_cell_volume   115.89897028
_cell_formula_units_Z   1
loop_
 _symmetry_equiv_pos_site_id
 _symmetry_equiv_pos_as_xyz
  1  'x, y, z'
loop_
 _atom_site_type_symbol
 _atom_site_label
 _atom_site_symmetry_multiplicity
 _atom_site_fract_x
 _atom_site_fract_y
 _atom_site_fract_z
 _atom_site_occupancy
  Ca  Ca0  1  0.00000000  0.00000000  0.00000000  1
  Mo  Mo0  1  0.62921366  0.81827675  0.44749140  1
  Mo  Mo1  1  0.37078634  0.18172325  0.55250860  1
  Mo  Mo2  1  0.81827675  0.37078634  0.18906209  1
  Mo  Mo3  1  0.18172325  0.62921366  0.81093791  1
  C  C0  1  0.25939154  0.39920850  0.65860004  1
  C  C1  1  0.74060846  0.60079150  0.34139996  1
  C  C2  1  0.39920850  0.74060846  0.13981596  1
  C  C3  1  0.60079150  0.25939154  0.86018404  1
loop_
_geom_bond_atom_site_label_1
_geom_bond_atom_site_label_2
_geom_bond_distance
_geom_bond_site_symmetry_2
C0 Mo3 2.024311 1_555
C0 Mo1 2.037558 1_555
C0 Mo0 2.100503 1_555
C0 Mo0 2.100505 1_445
C0 Ca0 2.740460 1_666
C0 Ca0 2.740460 1_556
C1 Mo2 2.024311 1_555
C1 Mo0 2.037558 1_555
C1 Mo1 2.100503 1_555
C1 Mo1 2.100505 1_665
C1 Ca0 2.740460 1_555
C1 Ca0 2.740460 1_665
C2 Mo0 2.024319 1_555
C2 Mo3 2.037545 1_554
C2 Mo2 2.100507 1_455
C2 Mo2 2.100508 1_565
C2 Ca0 2.740457 1_665
C2 Ca0 2.740460 1_555
C3 Mo1 2.024319 1_555
C3 Mo2 2.037545 1_556
C3 Mo3 2.100507 1_655
C3 Mo3 2.100508 1_545
C3 Ca0 2.740457 1_556
C3 Ca0 2.740460 1_666
