# generated using pymatgen
data_AlAgI4
_symmetry_space_group_name_H-M   'P 1'
_cell_length_a   8.18962000
_cell_length_b   7.75902533
_cell_length_c   15.74765878
_cell_angle_alpha   91.29805192
_cell_angle_beta   90.00000000
_cell_angle_gamma   90.00000000
_symmetry_Int_Tables_number   1
_chemical_formula_structural   AlAgI4
_chemical_formula_sum   'Al4 Ag4 I16'
_cell_volume   1000.40407779
_cell_formula_units_Z   4
loop_
 _symmetry_equiv_pos_site_id
 _symmetry_equiv_pos_as_xyz
  1  'x, y, z'
loop_
 _atom_site_type_symbol
 _atom_site_label
 _atom_site_symmetry_multiplicity
 _atom_site_fract_x
 _atom_site_fract_y
 _atom_site_fract_z
 _atom_site_occupancy
  Al  Al0  1  0.20085521  0.70177947  0.59853287  1
  Al  Al1  1  0.79914479  0.29822053  0.40146713  1
  Al  Al2  1  0.70085521  0.29822053  0.90146713  1
  Al  Al3  1  0.29914479  0.70177947  0.09853287  1
  Ag  Ag0  1  0.43893755  0.81479607  0.85837132  1
  Ag  Ag1  1  0.56106245  0.18520393  0.14162868  1
  Ag  Ag2  1  0.93893755  0.18520393  0.64162868  1
  Ag  Ag3  1  0.06106245  0.81479607  0.35837132  1
  I  I0  1  0.20227840  0.41762209  0.67786017  1
  I  I1  1  0.79772160  0.58237791  0.32213983  1
  I  I2  1  0.70227840  0.58237791  0.82213983  1
  I  I3  1  0.29772160  0.41762209  0.17786017  1
  I  I4  1  0.38542977  0.91220680  0.68023861  1
  I  I5  1  0.61457023  0.08779320  0.31976139  1
  I  I6  1  0.88542977  0.08779320  0.81976139  1
  I  I7  1  0.11457023  0.91220680  0.18023861  1
  I  I8  1  0.17919323  0.66394394  0.94880476  1
  I  I9  1  0.82080677  0.33605606  0.05119524  1
  I  I10  1  0.67919323  0.33605606  0.55119524  1
  I  I11  1  0.32080677  0.66394394  0.44880476  1
  I  I12  1  0.91130827  0.82298662  0.58881073  1
  I  I13  1  0.08869173  0.17701338  0.41118927  1
  I  I14  1  0.41130827  0.17701338  0.91118927  1
  I  I15  1  0.58869173  0.82298662  0.08881073  1
loop_
_geom_bond_atom_site_label_1
_geom_bond_atom_site_label_2
_geom_bond_distance
_geom_bond_site_symmetry_2
Al0 I4 2.551670 1_555
Al0 I12 2.556829 1_455
Al0 I0 2.558622 1_555
Al0 I11 2.565031 1_555
Al1 I5 2.551670 1_555
Al1 I13 2.556829 1_655
Al1 I1 2.558622 1_555
Al1 I10 2.565031 1_555
Al2 I6 2.551670 1_555
Al2 I14 2.556829 1_555
Al2 I2 2.558622 1_555
Al2 I9 2.565031 1_556
Al3 I7 2.551670 1_555
Al3 I15 2.556829 1_555
Al3 I3 2.558622 1_555
Al3 I8 2.565031 1_554
Ag0 I8 2.828184 1_555
Ag0 I2 2.860444 1_555
Ag0 I14 2.921602 1_565
Ag0 I4 2.954375 1_555
Ag1 I9 2.828184 1_555
Ag1 I3 2.860444 1_555
Ag1 I15 2.921602 1_545
Ag1 I5 2.954375 1_555
Ag2 I10 2.828184 1_555
Ag2 I0 2.860444 1_655
Ag2 I12 2.921602 1_545
Ag2 I6 2.954375 1_555
Ag3 I11 2.828184 1_555
Ag3 I1 2.860444 1_455
Ag3 I13 2.921602 1_565
Ag3 I7 2.954375 1_555
