# generated using pymatgen
data_MgMn3P6N13
_symmetry_space_group_name_H-M   'P 1'
_cell_length_a   6.99165078
_cell_length_b   7.03066418
_cell_length_c   7.02831741
_cell_angle_alpha   108.81927359
_cell_angle_beta   109.90316798
_cell_angle_gamma   109.91606921
_symmetry_Int_Tables_number   1
_chemical_formula_structural   MgMn3P6N13
_chemical_formula_sum   'Mg1 Mn3 P6 N13'
_cell_volume   265.18891590
_cell_formula_units_Z   1
loop_
 _symmetry_equiv_pos_site_id
 _symmetry_equiv_pos_as_xyz
  1  'x, y, z'
loop_
 _atom_site_type_symbol
 _atom_site_label
 _atom_site_symmetry_multiplicity
 _atom_site_fract_x
 _atom_site_fract_y
 _atom_site_fract_z
 _atom_site_occupancy
  Mg  Mg0  1  0.00000337  0.99672100  0.69788485  1
  Mn  Mn0  1  0.27739598  0.29086310  0.29019947  1
  Mn  Mn1  1  0.00002560  0.71420008  0.00515048  1
  Mn  Mn2  1  0.72261928  0.01348616  0.01283352  1
  P  P0  1  0.49990907  0.24932348  0.74884280  1
  P  P1  1  0.50009372  0.74941192  0.24892069  1
  P  P2  1  0.74831917  0.24831689  0.50005274  1
  P  P3  1  0.25166107  0.49997970  0.75172540  1
  P  P4  1  0.74846618  0.49911786  0.24898215  1
  P  P5  1  0.25154367  0.75066022  0.50051874  1
  N  N0  1  0.99999591  0.99663132  0.99830275  1
  N  N1  1  0.99999411  0.73150119  0.45227709  1
  N  N2  1  0.26623393  0.71922658  0.26641587  1
  N  N3  1  0.28090511  0.54838295  0.54882520  1
  N  N4  1  0.54274680  0.54322867  0.27599051  1
  N  N5  1  0.54198821  0.27499539  0.54263922  1
  N  N6  1  0.73139815  0.99961199  0.45339294  1
  N  N7  1  0.45727242  0.00047712  0.73325193  1
  N  N8  1  0.73376862  0.45298264  0.00014221  1
  N  N9  1  0.26860187  0.26821445  0.72201831  1
  N  N10  1  0.71907664  0.26748720  0.26791267  1
  N  N11  1  0.99999592  0.45215574  0.73305895  1
  N  N12  1  0.45798519  0.73302438  0.00065950  1
loop_
_geom_bond_atom_site_label_1
_geom_bond_atom_site_label_2
_geom_bond_distance
_geom_bond_site_symmetry_2
Mg0 N9 2.081107 1_565
Mg0 N6 2.081201 1_455
Mg0 N1 2.092836 1_455
Mg0 N0 2.111654 1_455
Mn0 N0 2.017220 1_444
Mn0 N3 2.097332 1_555
Mn0 N4 2.144262 1_555
Mn0 N5 2.148526 1_555
Mn1 N0 2.001791 1_454
Mn1 N2 2.103239 1_555
Mn1 N8 2.103335 1_455
Mn1 N11 2.185799 1_454
Mn2 N0 2.017187 1_544
Mn2 N10 2.097277 1_555
Mn2 N7 2.144234 1_554
Mn2 N12 2.148625 1_545
N1 P4 1.621459 1_555
N1 P5 1.621548 1_655
N2 P1 1.628164 1_555
N2 P5 1.631715 1_555
N3 P5 1.625687 1_555
N3 P3 1.629552 1_555
N4 P4 1.628736 1_555
N4 P1 1.631044 1_555
N5 P0 1.625543 1_555
N5 P2 1.627255 1_555
N6 P1 1.619716 1_555
N6 P2 1.625331 1_565
N7 P5 1.628732 1_545
N7 P0 1.631125 1_555
N8 P0 1.627972 1_554
N8 P4 1.632007 1_555
N9 P0 1.619716 1_555
N9 P3 1.625301 1_555
N10 P4 1.625552 1_555
N10 P2 1.629559 1_555
N11 P3 1.624070 1_655
N11 P2 1.624129 1_555
N12 P1 1.625396 1_555
N12 P3 1.627399 1_554
