# generated using pymatgen
data_Zr3AlAu2C
_symmetry_space_group_name_H-M   'P 1'
_cell_length_a   8.76939453
_cell_length_b   8.76939514
_cell_length_c   8.76939571
_cell_angle_alpha   60.00000155
_cell_angle_beta   59.99999923
_cell_angle_gamma   59.99999967
_symmetry_Int_Tables_number   1
_chemical_formula_structural   Zr3AlAu2C
_chemical_formula_sum   'Zr12 Al4 Au8 C4'
_cell_volume   476.86332136
_cell_formula_units_Z   4
loop_
 _symmetry_equiv_pos_site_id
 _symmetry_equiv_pos_as_xyz
  1  'x, y, z'
loop_
 _atom_site_type_symbol
 _atom_site_label
 _atom_site_symmetry_multiplicity
 _atom_site_fract_x
 _atom_site_fract_y
 _atom_site_fract_z
 _atom_site_occupancy
  Zr  Zr0  1  0.43830976  0.43830976  0.06169024  1
  Zr  Zr1  1  0.06169024  0.43830976  0.06169024  1
  Zr  Zr2  1  0.43830976  0.06169024  0.06169024  1
  Zr  Zr3  1  0.06169024  0.06169024  0.43830976  1
  Zr  Zr4  1  0.43830976  0.06169024  0.43830976  1
  Zr  Zr5  1  0.06169024  0.43830976  0.43830976  1
  Zr  Zr6  1  0.81169024  0.81169024  0.18830976  1
  Zr  Zr7  1  0.18830976  0.81169024  0.18830976  1
  Zr  Zr8  1  0.81169024  0.18830976  0.18830976  1
  Zr  Zr9  1  0.18830976  0.18830976  0.81169024  1
  Zr  Zr10  1  0.81169024  0.18830976  0.81169024  1
  Zr  Zr11  1  0.18830976  0.81169024  0.81169024  1
  Al  Al0  1  0.62500000  0.62500000  0.12500000  1
  Al  Al1  1  0.62500000  0.12500000  0.62500000  1
  Al  Al2  1  0.12500000  0.62500000  0.62500000  1
  Al  Al3  1  0.62500000  0.62500000  0.62500000  1
  Au  Au0  1  0.83699438  0.83699438  0.48901687  1
  Au  Au1  1  0.83699438  0.48901687  0.83699438  1
  Au  Au2  1  0.48901687  0.83699438  0.83699438  1
  Au  Au3  1  0.83699438  0.83699438  0.83699438  1
  Au  Au4  1  0.41300562  0.41300562  0.76098313  1
  Au  Au5  1  0.41300562  0.76098313  0.41300562  1
  Au  Au6  1  0.76098313  0.41300562  0.41300562  1
  Au  Au7  1  0.41300562  0.41300562  0.41300562  1
  C  C0  1  0.12500000  0.12500000  0.62500000  1
  C  C1  1  0.12500000  0.62500000  0.12500000  1
  C  C2  1  0.62500000  0.12500000  0.12500000  1
  C  C3  1  0.12500000  0.12500000  0.12500000  1
loop_
_geom_bond_atom_site_label_1
_geom_bond_atom_site_label_2
_geom_bond_distance
_geom_bond_site_symmetry_2
Al0 Au3 2.712295 1_554
Al0 Au7 2.712295 1_555
Al0 Au5 2.712295 1_555
Al0 Au1 2.712295 1_554
Al0 Au6 2.712295 1_555
Al0 Au2 2.712295 1_554
Al1 Au6 2.712295 1_555
Al1 Au2 2.712295 1_545
Al1 Au4 2.712295 1_555
Al1 Au0 2.712295 1_545
Al1 Au3 2.712295 1_545
Al1 Au7 2.712295 1_555
Al2 Au5 2.712295 1_555
Al2 Au1 2.712295 1_455
Al2 Au4 2.712295 1_555
Al2 Au0 2.712295 1_455
Al2 Au7 2.712295 1_555
Al2 Au3 2.712295 1_455
Al3 Au0 2.712295 1_555
Al3 Au4 2.712295 1_555
Al3 Au1 2.712295 1_555
Al3 Au5 2.712295 1_555
Al3 Au2 2.712295 1_555
Al3 Au6 2.712295 1_555
Au0 Zr7 2.876093 1_655
Au0 Zr8 2.876093 1_565
Au0 Zr6 2.876093 1_555
Au0 Zr4 3.176997 1_565
Au0 Zr3 3.176998 1_665
Au0 Zr5 3.176998 1_655
Au1 Zr9 2.876093 1_655
Au1 Zr10 2.876093 1_555
Au1 Zr8 2.876093 1_556
Au1 Zr0 3.176997 1_556
Au1 Zr1 3.176998 1_656
Au1 Zr5 3.176998 1_655
Au2 Zr11 2.876093 1_555
Au2 Zr9 2.876093 1_565
Au2 Zr7 2.876093 1_556
Au2 Zr0 3.176998 1_556
Au2 Zr2 3.176998 1_566
Au2 Zr4 3.176998 1_565
Au3 Zr11 2.876093 1_655
Au3 Zr10 2.876093 1_565
Au3 Zr6 2.876094 1_556
Au3 Zr2 3.176998 1_566
Au3 Zr1 3.176998 1_656
Au3 Zr3 3.176998 1_665
Au4 Zr1 2.876093 1_556
Au4 Zr2 2.876093 1_556
Au4 Zr0 2.876093 1_556
Au4 Zr10 3.176997 1_555
Au4 Zr9 3.176998 1_555
Au4 Zr11 3.176998 1_555
Au5 Zr3 2.876093 1_565
Au5 Zr4 2.876093 1_565
Au5 Zr2 2.876093 1_565
Au5 Zr6 3.176997 1_555
Au5 Zr7 3.176998 1_555
Au5 Zr11 3.176998 1_555
Au6 Zr5 2.876093 1_655
Au6 Zr3 2.876093 1_655
Au6 Zr1 2.876093 1_655
Au6 Zr6 3.176998 1_555
Au6 Zr8 3.176998 1_555
Au6 Zr10 3.176998 1_555
Au7 Zr5 2.876093 1_555
Au7 Zr4 2.876093 1_555
Au7 Zr0 2.876094 1_555
Au7 Zr8 3.176998 1_555
Au7 Zr7 3.176998 1_555
Au7 Zr9 3.176998 1_555
C0 Zr10 2.328704 1_455
C0 Zr4 2.328704 1_555
C0 Zr9 2.328704 1_555
C0 Zr3 2.328704 1_555
C0 Zr5 2.328704 1_555
C0 Zr11 2.328704 1_545
C1 Zr6 2.328704 1_455
C1 Zr0 2.328704 1_555
C1 Zr7 2.328704 1_555
C1 Zr1 2.328704 1_555
C1 Zr5 2.328704 1_555
C1 Zr11 2.328704 1_554
C2 Zr8 2.328704 1_555
C2 Zr2 2.328704 1_555
C2 Zr0 2.328704 1_555
C2 Zr6 2.328704 1_545
C2 Zr4 2.328704 1_555
C2 Zr10 2.328704 1_554
C3 Zr2 2.328704 1_555
C3 Zr8 2.328704 1_455
C3 Zr1 2.328704 1_555
C3 Zr7 2.328704 1_545
C3 Zr3 2.328704 1_555
C3 Zr9 2.328704 1_554
