# generated using pymatgen
data_Sr2BHN2
_symmetry_space_group_name_H-M   'P 1'
_cell_length_a   3.92016102
_cell_length_b   9.89745627
_cell_length_c   10.21426066
_cell_angle_alpha   90.00000000
_cell_angle_beta   90.00000000
_cell_angle_gamma   90.00000000
_symmetry_Int_Tables_number   1
_chemical_formula_structural   Sr2BHN2
_chemical_formula_sum   'Sr8 B4 H4 N8'
_cell_volume   396.30945502
_cell_formula_units_Z   4
loop_
 _symmetry_equiv_pos_site_id
 _symmetry_equiv_pos_as_xyz
  1  'x, y, z'
loop_
 _atom_site_type_symbol
 _atom_site_label
 _atom_site_symmetry_multiplicity
 _atom_site_fract_x
 _atom_site_fract_y
 _atom_site_fract_z
 _atom_site_occupancy
  Sr  Sr0  1  0.25000000  0.67810884  0.51845742  1
  Sr  Sr1  1  0.75000000  0.32189116  0.48154258  1
  Sr  Sr2  1  0.25000000  0.17810884  0.98154258  1
  Sr  Sr3  1  0.75000000  0.82189116  0.01845742  1
  Sr  Sr4  1  0.25000000  0.52716024  0.16082766  1
  Sr  Sr5  1  0.75000000  0.47283976  0.83917234  1
  Sr  Sr6  1  0.25000000  0.02716024  0.33917234  1
  Sr  Sr7  1  0.75000000  0.97283976  0.66082766  1
  B  B0  1  0.25000000  0.72800837  0.82684713  1
  B  B1  1  0.75000000  0.27199163  0.17315287  1
  B  B2  1  0.25000000  0.22800837  0.67315287  1
  B  B3  1  0.75000000  0.77199163  0.32684713  1
  H  H0  1  0.25000000  0.95393984  0.10055056  1
  H  H1  1  0.75000000  0.04606016  0.89944944  1
  H  H2  1  0.25000000  0.45393984  0.39944944  1
  H  H3  1  0.75000000  0.54606016  0.60055056  1
  N  N0  1  0.75000000  0.68322335  0.22916606  1
  N  N1  1  0.25000000  0.31677665  0.77083394  1
  N  N2  1  0.75000000  0.18322335  0.27083394  1
  N  N3  1  0.25000000  0.81677665  0.72916606  1
  N  N4  1  0.75000000  0.85344709  0.43278592  1
  N  N5  1  0.25000000  0.14655291  0.56721408  1
  N  N6  1  0.75000000  0.35344709  0.06721408  1
  N  N7  1  0.25000000  0.64655291  0.93278592  1
loop_
_geom_bond_atom_site_label_1
_geom_bond_atom_site_label_2
_geom_bond_distance
_geom_bond_site_symmetry_2
B0 N3 1.329431 1_555
B0 N7 1.349397 1_555
B1 N2 1.329431 1_555
B1 N6 1.349397 1_555
B2 N1 1.329431 1_555
B2 N5 1.349397 1_555
B3 N0 1.329431 1_555
B3 N4 1.349397 1_555
H0 Sr3 2.500628 1_455
H0 Sr3 2.500628 1_555
H0 Sr2 2.529876 1_564
H0 Sr6 2.542801 1_565
H1 Sr2 2.500628 1_555
H1 Sr2 2.500628 1_655
H1 Sr3 2.529876 1_546
H1 Sr7 2.542801 1_545
H2 Sr1 2.500628 1_455
H2 Sr1 2.500628 1_555
H2 Sr0 2.529876 1_555
H2 Sr4 2.542801 1_555
H3 Sr0 2.500628 1_655
H3 Sr0 2.500628 1_555
H3 Sr1 2.529876 1_555
H3 Sr5 2.542801 1_555
N0 Sr3 2.552597 1_555
N0 Sr4 2.591338 1_555
N0 Sr4 2.591338 1_655
N1 Sr2 2.552597 1_555
N1 Sr5 2.591338 1_555
N1 Sr5 2.591338 1_455
N2 Sr1 2.552597 1_555
N2 Sr6 2.591338 1_655
N2 Sr6 2.591338 1_555
N3 Sr0 2.552597 1_555
N3 Sr7 2.591338 1_455
N3 Sr7 2.591338 1_555
N4 Sr7 2.611879 1_555
N4 Sr0 2.760306 1_655
N4 Sr0 2.760306 1_555
N4 Sr6 2.777099 1_565
N4 Sr6 2.777099 1_665
N5 Sr6 2.611879 1_555
N5 Sr1 2.760306 1_455
N5 Sr1 2.760306 1_555
N5 Sr7 2.777099 1_545
N5 Sr7 2.777099 1_445
N6 Sr5 2.611879 1_554
N6 Sr2 2.760306 1_554
N6 Sr2 2.760306 1_654
N6 Sr4 2.777099 1_655
N6 Sr4 2.777099 1_555
N7 Sr4 2.611879 1_556
N7 Sr3 2.760306 1_556
N7 Sr3 2.760306 1_456
N7 Sr5 2.777099 1_455
N7 Sr5 2.777099 1_555
