# generated using pymatgen
data_TbP5O14
_symmetry_space_group_name_H-M   'P 1'
_cell_length_a   8.85300654
_cell_length_b   8.71312424
_cell_length_c   12.87327906
_cell_angle_alpha   89.49795458
_cell_angle_beta   90.00000000
_cell_angle_gamma   90.00000000
_symmetry_Int_Tables_number   1
_chemical_formula_structural   TbP5O14
_chemical_formula_sum   'Tb4 P20 O56'
_cell_volume   992.97245868
_cell_formula_units_Z   4
loop_
 _symmetry_equiv_pos_site_id
 _symmetry_equiv_pos_as_xyz
  1  'x, y, z'
loop_
 _atom_site_type_symbol
 _atom_site_label
 _atom_site_symmetry_multiplicity
 _atom_site_fract_x
 _atom_site_fract_y
 _atom_site_fract_z
 _atom_site_occupancy
  Tb  Tb0  1  0.69124770  0.77741237  0.50123214  1
  Tb  Tb1  1  0.19124770  0.22258763  0.99876786  1
  Tb  Tb2  1  0.30875230  0.22258763  0.49876786  1
  Tb  Tb3  1  0.80875230  0.77741237  0.00123214  1
  P  P0  1  0.50295901  0.50646396  0.32993100  1
  P  P1  1  0.00295901  0.49353604  0.17006900  1
  P  P2  1  0.49704099  0.49353604  0.67006900  1
  P  P3  1  0.99704099  0.50646396  0.82993100  1
  P  P4  1  0.45297945  0.74541976  0.16564903  1
  P  P5  1  0.95297945  0.25458024  0.33435097  1
  P  P6  1  0.54702055  0.25458024  0.83435097  1
  P  P7  1  0.04702055  0.74541976  0.66564903  1
  P  P8  1  0.24357952  0.81607761  0.00010337  1
  P  P9  1  0.74357952  0.18392239  0.49989663  1
  P  P10  1  0.75642048  0.18392239  0.99989663  1
  P  P11  1  0.25642048  0.81607761  0.50010337  1
  P  P12  1  0.44861373  0.72740920  0.83530066  1
  P  P13  1  0.94861373  0.27259080  0.66469934  1
  P  P14  1  0.55138627  0.27259080  0.16469934  1
  P  P15  1  0.05138627  0.72740920  0.33530066  1
  P  P16  1  0.49463986  0.99215083  0.70049569  1
  P  P17  1  0.99463986  0.00784917  0.79950431  1
  P  P18  1  0.50536014  0.00784917  0.29950431  1
  P  P19  1  0.00536014  0.99215083  0.20049569  1
  O  O0  1  0.38313279  0.41619333  0.38071146  1
  O  O1  1  0.88313279  0.58380667  0.11928854  1
  O  O2  1  0.61686721  0.58380667  0.61928854  1
  O  O3  1  0.11686721  0.41619333  0.88071146  1
  O  O4  1  0.62497538  0.57950978  0.38940739  1
  O  O5  1  0.12497538  0.42049022  0.11059261  1
  O  O6  1  0.37502462  0.42049022  0.61059261  1
  O  O7  1  0.87502462  0.57950978  0.88940739  1
  O  O8  1  0.42055499  0.63421546  0.25800831  1
  O  O9  1  0.92055499  0.36578454  0.24199169  1
  O  O10  1  0.57944501  0.36578454  0.74199169  1
  O  O11  1  0.07944501  0.63421546  0.75800831  1
  O  O12  1  0.59472001  0.72258652  0.10958446  1
  O  O13  1  0.09472001  0.27741348  0.39041554  1
  O  O14  1  0.40527999  0.27741348  0.89041554  1
  O  O15  1  0.90527999  0.72258652  0.60958446  1
  O  O16  1  0.30700941  0.72236823  0.09987248  1
  O  O17  1  0.80700941  0.27763177  0.40012752  1
  O  O18  1  0.69299059  0.27763177  0.90012752  1
  O  O19  1  0.07927360  0.79165281  0.99945595  1
  O  O20  1  0.19299059  0.72236823  0.59987248  1
  O  O21  1  0.81342097  0.03004409  0.50496095  1
  O  O22  1  0.68657903  0.03004409  0.00496095  1
  O  O23  1  0.18657903  0.96995591  0.49503905  1
  O  O24  1  0.11865191  0.08660042  0.14590609  1
  O  O25  1  0.61865191  0.91339958  0.35409391  1
  O  O26  1  0.88134809  0.91339958  0.85409391  1
  O  O27  1  0.38134809  0.08660042  0.64590609  1
  O  O28  1  0.88240440  0.91085037  0.14726991  1
  O  O29  1  0.38240440  0.08914963  0.35273009  1
  O  O30  1  0.11759560  0.08914963  0.85273009  1
  O  O31  1  0.61759560  0.91085037  0.64726991  1
  O  O32  1  0.09881513  0.87278333  0.27098496  1
  O  O33  1  0.59881513  0.12721667  0.22901504  1
  O  O34  1  0.90118487  0.12721667  0.72901504  1
  O  O35  1  0.40118487  0.87278333  0.77098496  1
  O  O36  1  0.92706993  0.09140961  0.28960253  1
  O  O37  1  0.42706993  0.90859039  0.21039747  1
  O  O38  1  0.07293007  0.90859039  0.71039747  1
  O  O39  1  0.57293007  0.09140961  0.78960253  1
  O  O40  1  0.90301801  0.73329380  0.38463443  1
  O  O41  1  0.40301801  0.26670620  0.11536557  1
  O  O42  1  0.09698199  0.26670620  0.61536557  1
  O  O43  1  0.59698199  0.73329380  0.88463443  1
  O  O44  1  0.18748922  0.70749472  0.41081278  1
  O  O45  1  0.68748922  0.29250528  0.08918722  1
  O  O46  1  0.81251078  0.29250528  0.58918722  1
  O  O47  1  0.31251078  0.70749472  0.91081278  1
  O  O48  1  0.08207528  0.59134281  0.26090441  1
  O  O49  1  0.58207528  0.40865719  0.23909559  1
  O  O50  1  0.91792472  0.40865719  0.73909559  1
  O  O51  1  0.41792472  0.59134281  0.76090441  1
  O  O52  1  0.42072640  0.79165281  0.49945595  1
  O  O53  1  0.92072640  0.20834719  0.00054405  1
  O  O54  1  0.57927360  0.20834719  0.50054405  1
  O  O55  1  0.31342097  0.96995591  0.99503905  1
loop_
_geom_bond_atom_site_label_1
_geom_bond_atom_site_label_2
_geom_bond_distance
_geom_bond_site_symmetry_2
O0 P0 1.470481 1_555
O0 Tb2 2.354583 1_555
O1 P1 1.470481 1_655
O1 Tb3 2.354583 1_555
O2 P2 1.470481 1_555
O2 Tb0 2.354583 1_555
O3 P3 1.470481 1_455
O3 Tb1 2.354583 1_555
O4 P0 1.471973 1_555
O4 Tb0 2.330969 1_555
O5 P1 1.471973 1_555
O5 Tb1 2.330969 1_554
O6 P2 1.471973 1_555
O6 Tb2 2.330969 1_555
O7 P3 1.471973 1_555
O7 Tb3 2.330969 1_556
O8 P4 1.553928 1_555
O8 P0 1.615680 1_555
O9 P5 1.553928 1_555
O9 P1 1.615680 1_655
O10 P6 1.553928 1_555
O10 P2 1.615680 1_555
O11 P7 1.553928 1_555
O11 P3 1.615680 1_455
O12 P4 1.462052 1_555
O12 Tb3 2.398439 1_555
O13 P5 1.462052 1_455
O13 Tb2 2.398439 1_555
O14 P6 1.462052 1_555
O14 Tb1 2.398439 1_555
O15 P7 1.462052 1_655
O15 Tb0 2.398439 1_555
O16 P4 1.558940 1_555
O16 P8 1.616539 1_555
O17 P5 1.558940 1_555
O17 P9 1.616539 1_555
O18 P6 1.558940 1_555
O18 P10 1.616539 1_555
O19 P8 1.470121 1_556
O19 Tb3 2.398238 1_456
O20 P7 1.558940 1_555
O20 P11 1.616539 1_555
O21 P9 1.477383 1_555
O21 Tb0 2.453436 1_545
O22 P10 1.477383 1_554
O22 Tb3 2.453436 1_545
O23 P11 1.477383 1_555
O23 Tb2 2.453436 1_565
O24 P19 1.472047 1_545
O24 Tb1 2.316345 1_554
O25 P18 1.472047 1_565
O25 Tb0 2.316345 1_555
O26 P17 1.472047 1_565
O26 Tb3 2.316345 1_556
O27 P16 1.472047 1_545
O27 Tb2 2.316345 1_555
O28 P19 1.471288 1_655
O28 Tb3 2.312918 1_555
O29 P18 1.471288 1_555
O29 Tb2 2.312918 1_555
O30 P17 1.471288 1_455
O30 Tb1 2.312918 1_555
O31 P16 1.471288 1_555
O31 Tb0 2.312918 1_555
O32 P15 1.564567 1_555
O32 P19 1.604101 1_555
O33 P14 1.564567 1_555
O33 P18 1.604101 1_555
O34 P13 1.564567 1_555
O34 P17 1.604101 1_555
O35 P12 1.564567 1_555
O35 P16 1.604101 1_555
O36 P5 1.555672 1_555
O36 P19 1.600495 1_645
O37 P4 1.555672 1_555
O37 P18 1.600495 1_565
O38 P7 1.555672 1_555
O38 P17 1.600495 1_465
O39 P6 1.555672 1_555
O39 P16 1.600495 1_545
O40 P15 1.460079 1_655
O40 Tb0 2.434288 1_555
O41 P14 1.460079 1_555
O41 Tb1 2.434288 1_554
O42 P13 1.460079 1_455
O42 Tb2 2.434288 1_555
O43 P12 1.460079 1_555
O43 Tb3 2.434288 1_556
O44 P15 1.556901 1_555
O44 P11 1.614876 1_555
O45 P14 1.556901 1_555
O45 P10 1.614876 1_554
O46 P13 1.556901 1_555
O46 P9 1.614876 1_555
O47 P12 1.556901 1_555
O47 P8 1.614876 1_556
O48 P15 1.554512 1_555
O48 P1 1.612971 1_555
O49 P14 1.554512 1_555
O49 P0 1.612971 1_555
O50 P13 1.554512 1_555
O50 P3 1.612971 1_555
O51 P12 1.554512 1_555
O51 P2 1.612971 1_555
O52 P11 1.470121 1_555
O52 Tb0 2.398238 1_555
O53 P10 1.470121 1_554
O53 Tb1 2.398238 1_654
O54 P9 1.470121 1_555
O54 Tb2 2.398238 1_555
O55 P8 1.477383 1_556
O55 Tb1 2.453436 1_565
