# generated using pymatgen
data_BaReCl6
_symmetry_space_group_name_H-M   'P 1'
_cell_length_a   6.56199517
_cell_length_b   6.56199665
_cell_length_c   10.71729153
_cell_angle_alpha   88.10937129
_cell_angle_beta   88.10937989
_cell_angle_gamma   83.00147224
_symmetry_Int_Tables_number   1
_chemical_formula_structural   BaReCl6
_chemical_formula_sum   'Ba2 Re2 Cl12'
_cell_volume   457.60131064
_cell_formula_units_Z   2
loop_
 _symmetry_equiv_pos_site_id
 _symmetry_equiv_pos_as_xyz
  1  'x, y, z'
loop_
 _atom_site_type_symbol
 _atom_site_label
 _atom_site_symmetry_multiplicity
 _atom_site_fract_x
 _atom_site_fract_y
 _atom_site_fract_z
 _atom_site_occupancy
  Ba  Ba0  1  0.97395677  0.02604323  0.25000000  1
  Ba  Ba1  1  0.02604323  0.97395677  0.75000000  1
  Re  Re0  1  0.00000000  0.50000000  0.00000000  1
  Re  Re1  1  0.50000000  0.00000000  0.50000000  1
  Cl  Cl0  1  0.09053144  0.52755627  0.21149839  1
  Cl  Cl1  1  0.47244373  0.90946856  0.28850161  1
  Cl  Cl2  1  0.90946856  0.47244373  0.78850161  1
  Cl  Cl3  1  0.52755627  0.09053144  0.71149839  1
  Cl  Cl4  1  0.79717535  0.82592571  0.00448912  1
  Cl  Cl5  1  0.17407429  0.20282465  0.49551088  1
  Cl  Cl6  1  0.20282465  0.17407429  0.99551088  1
  Cl  Cl7  1  0.82592571  0.79717535  0.50448912  1
  Cl  Cl8  1  0.71242972  0.34119583  0.07078599  1
  Cl  Cl9  1  0.65880417  0.28757028  0.42921401  1
  Cl  Cl10  1  0.28757028  0.65880417  0.92921401  1
  Cl  Cl11  1  0.34119583  0.71242972  0.57078599  1
loop_
_geom_bond_atom_site_label_1
_geom_bond_atom_site_label_2
_geom_bond_distance
_geom_bond_site_symmetry_2
Ba0 Cl8 3.162511 1_555
Ba0 Cl9 3.162511 1_555
Ba0 Cl6 3.247827 1_654
Ba0 Cl7 3.247827 1_545
Ba0 Cl5 3.285420 1_655
Ba0 Cl4 3.285420 1_545
Ba0 Cl1 3.303603 1_645
Ba0 Cl0 3.303604 1_645
Ba0 Cl1 3.476876 1_545
Ba0 Cl0 3.476877 1_655
Ba1 Cl10 3.162511 1_555
Ba1 Cl11 3.162511 1_555
Ba1 Cl4 3.247827 1_456
Ba1 Cl5 3.247827 1_565
Ba1 Cl7 3.285420 1_455
Ba1 Cl6 3.285420 1_565
Ba1 Cl3 3.303603 1_465
Ba1 Cl2 3.303604 1_465
Ba1 Cl3 3.476876 1_565
Ba1 Cl2 3.476877 1_455
Cl0 Re0 2.380246 1_555
Cl1 Re1 2.380246 1_565
Cl2 Re0 2.380246 1_656
Cl3 Re1 2.380246 1_555
Cl4 Re0 2.378391 1_655
Cl5 Re1 2.378391 1_555
Cl6 Re0 2.378391 1_556
Cl7 Re1 2.378391 1_565
Cl8 Re0 2.356886 1_655
Cl9 Re1 2.356886 1_555
Cl10 Re0 2.356886 1_556
Cl11 Re1 2.356886 1_565
