# generated using pymatgen
data_Ca20Ge4Bi7Sb
_symmetry_space_group_name_H-M   'P 1'
_cell_length_a   8.13395373
_cell_length_b   9.49298069
_cell_length_c   13.05371627
_cell_angle_alpha   89.98844057
_cell_angle_beta   90.01062425
_cell_angle_gamma   90.05944567
_symmetry_Int_Tables_number   1
_chemical_formula_structural   Ca20Ge4Bi7Sb
_chemical_formula_sum   'Ca20 Ge4 Bi7 Sb1'
_cell_volume   1007.94820047
_cell_formula_units_Z   1
loop_
 _symmetry_equiv_pos_site_id
 _symmetry_equiv_pos_as_xyz
  1  'x, y, z'
loop_
 _atom_site_type_symbol
 _atom_site_label
 _atom_site_symmetry_multiplicity
 _atom_site_fract_x
 _atom_site_fract_y
 _atom_site_fract_z
 _atom_site_occupancy
  Ca  Ca0  1  0.33292147  0.97445947  0.08128143  1
  Ca  Ca1  1  0.83323126  0.02537142  0.41878019  1
  Ca  Ca2  1  0.66602758  0.47451642  0.91896562  1
  Ca  Ca3  1  0.16524940  0.52572535  0.58102508  1
  Ca  Ca4  1  0.66734727  0.02604911  0.92013451  1
  Ca  Ca5  1  0.16797750  0.97415940  0.57940881  1
  Ca  Ca6  1  0.33559054  0.52557819  0.08378508  1
  Ca  Ca7  1  0.83028519  0.47381388  0.41900460  1
  Ca  Ca8  1  0.67553808  0.74830160  0.21461867  1
  Ca  Ca9  1  0.17756091  0.25251444  0.28653379  1
  Ca  Ca10  1  0.32397401  0.24950417  0.78641902  1
  Ca  Ca11  1  0.82378354  0.75079463  0.71286516  1
  Ca  Ca12  1  0.15448899  0.74688468  0.30867007  1
  Ca  Ca13  1  0.65178889  0.25174468  0.19227602  1
  Ca  Ca14  1  0.84768041  0.24928305  0.69112999  1
  Ca  Ca15  1  0.34742453  0.75028080  0.80895326  1
  Ca  Ca16  1  0.55514738  0.74768076  0.49816718  1
  Ca  Ca17  1  0.05679754  0.25054734  0.00052639  1
  Ca  Ca18  1  0.44338280  0.25278683  0.49943316  1
  Ca  Ca19  1  0.94384132  0.74995989  0.99970223  1
  Ge  Ge0  1  0.55274325  0.74997742  0.99508314  1
  Ge  Ge1  1  0.05287683  0.25045710  0.50510665  1
  Ge  Ge2  1  0.44671160  0.25045867  0.00631307  1
  Ge  Ge3  1  0.94637722  0.74928321  0.49325267  1
  Bi  Bi0  1  0.95234560  0.00558525  0.16955576  1
  Bi  Bi1  1  0.45189706  0.99474709  0.33108663  1
  Bi  Bi2  1  0.04662204  0.50525424  0.83018204  1
  Bi  Bi3  1  0.54702838  0.49490016  0.66920081  1
  Bi  Bi4  1  0.04763071  0.99470390  0.83030667  1
  Bi  Bi5  1  0.54739251  0.00521183  0.66883623  1
  Bi  Bi6  1  0.95306391  0.49490374  0.16951874  1
  Sb  Sb0  1  0.45527328  0.50456125  0.32987533  1
loop_
_geom_bond_atom_site_label_1
_geom_bond_atom_site_label_2
_geom_bond_distance
_geom_bond_site_symmetry_2
Ca0 Ge2 2.945049 1_565
Ca0 Ge0 3.002317 1_554
Ca1 Ge3 2.943607 1_545
Ca1 Ge1 3.003280 1_655
Ca2 Ge0 2.946298 1_555
Ca2 Ge2 2.999721 1_556
Ca3 Ge1 2.939677 1_555
Ca3 Ge3 2.998696 1_455
Ca4 Ge0 2.947657 1_545
Ca4 Ge2 3.005685 1_556
Ca5 Ge1 2.949667 1_565
Ca5 Ge3 3.010512 1_455
Ca6 Ge2 2.943973 1_555
Ca6 Ge0 2.998390 1_554
Ca6 Sb0 3.362431 1_555
Ca7 Ge3 2.943632 1_555
Ca7 Ge1 3.007220 1_655
Ca7 Sb0 3.277767 1_555
Ca8 Ge0 3.034695 1_554
Ca8 Sb0 3.289116 1_555
Ca9 Ge1 3.028304 1_555
Ca9 Sb0 3.337136 1_555
Ca10 Ge2 3.038929 1_556
Ca11 Ge3 3.035452 1_555
Ca12 Ge3 2.945037 1_455
Ca12 Sb0 3.371229 1_555
Ca13 Ge2 2.945154 1_555
Ca13 Sb0 3.398822 1_555
Ca14 Ge1 2.946855 1_655
Ca15 Ge0 2.948044 1_555
Ca16 Ge3 3.182924 1_555
Ca16 Sb0 3.287865 1_555
Ca17 Ge2 3.172429 1_555
Ca18 Ge1 3.177288 1_555
Ca18 Sb0 3.258575 1_555
Ca19 Ge0 3.181734 1_555
Bi0 Ca19 3.288043 1_544
Bi0 Ca17 3.315480 1_655
Bi0 Ca0 3.316796 1_645
Bi0 Ca9 3.342727 1_655
Bi0 Ca8 3.371827 1_545
Bi0 Ca13 3.396699 1_555
Bi0 Ca1 3.399967 1_555
Bi0 Ca12 3.469554 1_645
Bi1 Ca18 3.291955 1_565
Bi1 Ca16 3.311254 1_555
Bi1 Ca1 3.318546 1_565
Bi1 Ca8 3.332427 1_555
Bi1 Ca9 3.363857 1_565
Bi1 Ca12 3.385599 1_555
Bi1 Ca0 3.406713 1_555
Bi1 Ca13 3.445286 1_565
Bi2 Ca17 3.285714 1_556
Bi2 Ca19 3.316438 1_455
Bi2 Ca2 3.318318 1_455
Bi2 Ca11 3.327170 1_455
Bi2 Ca10 3.364893 1_555
Bi2 Ca15 3.385529 1_555
Bi2 Ca3 3.398176 1_555
Bi2 Ca14 3.436620 1_455
Bi3 Ca16 3.277929 1_555
Bi3 Ca18 3.301773 1_555
Bi3 Ca10 3.324247 1_555
Bi3 Ca3 3.324792 1_555
Bi3 Ca11 3.358891 1_555
Bi3 Ca14 3.392669 1_555
Bi3 Ca2 3.406354 1_555
Bi3 Ca15 3.442731 1_555
Bi4 Ca17 3.292909 1_566
Bi4 Ca19 3.315841 1_455
Bi4 Ca11 3.319376 1_455
Bi4 Ca4 3.321872 1_465
Bi4 Ca10 3.349619 1_565
Bi4 Ca15 3.379362 1_555
Bi4 Ca5 3.424138 1_555
Bi4 Ca14 3.433889 1_465
Bi5 Ca16 3.308576 1_545
Bi5 Ca5 3.312224 1_545
Bi5 Ca10 3.323801 1_555
Bi5 Ca18 3.336262 1_555
Bi5 Ca11 3.350795 1_545
Bi5 Ca14 3.377457 1_555
Bi5 Ca4 3.427926 1_555
Bi5 Ca15 3.440761 1_545
Bi6 Ca19 3.283309 1_554
Bi6 Ca17 3.311490 1_655
Bi6 Ca9 3.311873 1_655
Bi6 Ca6 3.319292 1_655
Bi6 Ca8 3.352780 1_555
Bi6 Ca13 3.377870 1_555
Bi6 Ca7 3.412356 1_555
Bi6 Ca12 3.420260 1_655
