# generated using pymatgen
data_Rb2TcN3
_symmetry_space_group_name_H-M   'P 1'
_cell_length_a   6.82267482
_cell_length_b   6.82267344
_cell_length_c   13.53088781
_cell_angle_alpha   90.00000000
_cell_angle_beta   90.00000000
_cell_angle_gamma   127.15412333
_symmetry_Int_Tables_number   1
_chemical_formula_structural   Rb2TcN3
_chemical_formula_sum   'Rb8 Tc4 N12'
_cell_volume   501.99728983
_cell_formula_units_Z   4
loop_
 _symmetry_equiv_pos_site_id
 _symmetry_equiv_pos_as_xyz
  1  'x, y, z'
loop_
 _atom_site_type_symbol
 _atom_site_label
 _atom_site_symmetry_multiplicity
 _atom_site_fract_x
 _atom_site_fract_y
 _atom_site_fract_z
 _atom_site_occupancy
  Rb  Rb0  1  0.86596391  0.13403609  0.42503563  1
  Rb  Rb1  1  0.36596391  0.63403609  0.07496437  1
  Rb  Rb2  1  0.63403609  0.36596391  0.92503563  1
  Rb  Rb3  1  0.13403609  0.86596391  0.57496437  1
  Rb  Rb4  1  0.44480341  0.55519659  0.63751738  1
  Rb  Rb5  1  0.55519659  0.44480341  0.36248262  1
  Rb  Rb6  1  0.05519659  0.94480341  0.13751738  1
  Rb  Rb7  1  0.94480341  0.05519659  0.86248262  1
  Tc  Tc0  1  0.75639821  0.24360179  0.67381356  1
  Tc  Tc1  1  0.74360179  0.25639821  0.17381356  1
  Tc  Tc2  1  0.24360179  0.75639821  0.32618644  1
  Tc  Tc3  1  0.25639821  0.74360179  0.82618644  1
  N  N0  1  0.97127909  0.52872091  0.75000000  1
  N  N1  1  0.52872091  0.97127909  0.25000000  1
  N  N2  1  0.02872091  0.47127909  0.25000000  1
  N  N3  1  0.47127909  0.02872091  0.75000000  1
  N  N4  1  0.39366767  0.60633233  0.85769388  1
  N  N5  1  0.60633233  0.39366767  0.14230612  1
  N  N6  1  0.10633233  0.89366767  0.35769388  1
  N  N7  1  0.67802446  0.32197554  0.56725969  1
  N  N8  1  0.17802446  0.82197554  0.93274031  1
  N  N9  1  0.82197554  0.17802446  0.06725969  1
  N  N10  1  0.32197554  0.67802446  0.43274031  1
  N  N11  1  0.89366767  0.10633233  0.64230612  1
loop_
_geom_bond_atom_site_label_1
_geom_bond_atom_site_label_2
_geom_bond_distance
_geom_bond_site_symmetry_2
N0 Tc0 1.884479 1_555
N0 Tc3 1.884479 1_655
N0 Rb3 3.008358 1_655
N0 Rb2 3.008358 1_555
N1 Tc1 1.884479 1_565
N1 Tc2 1.884479 1_555
N1 Rb1 3.008358 1_555
N1 Rb0 3.008358 1_565
N2 Tc2 1.884479 1_555
N2 Tc1 1.884479 1_455
N2 Rb0 3.008358 1_455
N2 Rb1 3.008358 1_555
N3 Tc3 1.884479 1_545
N3 Tc0 1.884479 1_555
N3 Rb2 3.008358 1_555
N3 Rb3 3.008358 1_545
N4 Tc3 1.730743 1_555
N4 Rb1 2.959290 1_556
N4 Rb4 3.044010 1_555
N4 Rb2 3.075359 1_555
N4 Rb7 3.100362 1_455
N4 Rb7 3.100363 1_565
N5 Tc1 1.730743 1_555
N5 Rb2 2.959290 1_554
N5 Rb5 3.044010 1_555
N5 Rb1 3.075359 1_555
N5 Rb6 3.100362 1_655
N5 Rb6 3.100363 1_545
N6 Tc2 1.730743 1_555
N6 Rb3 2.959290 1_555
N6 Rb6 3.044010 1_555
N6 Rb0 3.075359 1_465
N6 Rb5 3.100362 1_565
N6 Rb5 3.100363 1_455
N7 Tc0 1.730872 1_555
N7 Rb0 2.996287 1_555
N7 Rb4 3.004303 1_555
N7 Rb3 3.085027 1_655
N7 Rb3 3.085027 1_545
N7 Rb5 3.151229 1_555
N8 Tc3 1.730872 1_555
N8 Rb1 2.996287 1_556
N8 Rb7 3.004303 1_465
N8 Rb2 3.085027 1_565
N8 Rb2 3.085027 1_455
N8 Rb6 3.151229 1_556
N9 Tc1 1.730872 1_555
N9 Rb2 2.996287 1_554
N9 Rb6 3.004303 1_645
N9 Rb1 3.085027 1_545
N9 Rb1 3.085027 1_655
N9 Rb7 3.151229 1_554
N10 Tc2 1.730872 1_555
N10 Rb3 2.996287 1_555
N10 Rb5 3.004303 1_555
N10 Rb0 3.085027 1_455
N10 Rb0 3.085027 1_565
N10 Rb4 3.151229 1_555
N11 Tc0 1.730743 1_555
N11 Rb0 2.959290 1_555
N11 Rb7 3.044010 1_555
N11 Rb3 3.075359 1_645
N11 Rb4 3.100362 1_545
N11 Rb4 3.100363 1_655
