# generated using pymatgen
data_LiPd2Pb
_symmetry_space_group_name_H-M   'P 1'
_cell_length_a   4.55289536
_cell_length_b   4.55289536
_cell_length_c   4.55289536
_cell_angle_alpha   60.00000000
_cell_angle_beta   60.00000000
_cell_angle_gamma   60.00000000
_symmetry_Int_Tables_number   1
_chemical_formula_structural   LiPd2Pb
_chemical_formula_sum   'Li1 Pd2 Pb1'
_cell_volume   66.73413073
_cell_formula_units_Z   1
loop_
 _symmetry_equiv_pos_site_id
 _symmetry_equiv_pos_as_xyz
  1  'x, y, z'
loop_
 _atom_site_type_symbol
 _atom_site_label
 _atom_site_symmetry_multiplicity
 _atom_site_fract_x
 _atom_site_fract_y
 _atom_site_fract_z
 _atom_site_occupancy
  Li  Li0  1  0.50000000  0.50000000  0.50000000  1
  Pd  Pd0  1  0.25000000  0.25000000  0.25000000  1
  Pd  Pd1  1  0.75000000  0.75000000  0.75000000  1
  Pb  Pb0  1  -0.00000000  0.00000000  -0.00000000  1
loop_
_geom_bond_atom_site_label_1
_geom_bond_atom_site_label_2
_geom_bond_distance
_geom_bond_site_symmetry_2
Li0 Pd1 2.788068 1_554
Li0 Pd1 2.788068 1_555
Li0 Pd0 2.788068 1_555
Li0 Pd0 2.788068 1_556
Li0 Pd1 2.788068 1_545
Li0 Pd0 2.788068 1_565
Li0 Pd0 2.788068 1_655
Li0 Pd1 2.788068 1_455
Li0 Pb0 3.219383 1_566
Li0 Pb0 3.219383 1_556
Li0 Pb0 3.219383 1_665
Li0 Pb0 3.219383 1_655
Li0 Pb0 3.219383 1_656
Li0 Pb0 3.219383 1_565
Pb0 Pd1 2.788068 1_444
Pb0 Pd0 2.788068 1_555
Pb0 Pd1 2.788068 1_445
Pb0 Pd0 2.788068 1_554
Pb0 Pd0 2.788068 1_455
Pb0 Pd0 2.788068 1_545
Pb0 Pd1 2.788068 1_544
Pb0 Pd1 2.788068 1_454
