# generated using pymatgen
data_AgSbS2
_symmetry_space_group_name_H-M   'P 1'
_cell_length_a   6.90924741
_cell_length_b   6.90924741
_cell_length_c   6.90924741
_cell_angle_alpha   133.15687838
_cell_angle_beta   133.15687838
_cell_angle_gamma   68.40788711
_symmetry_Int_Tables_number   1
_chemical_formula_structural   AgSbS2
_chemical_formula_sum   'Ag2 Sb2 S4'
_cell_volume   172.40076139
_cell_formula_units_Z   2
loop_
 _symmetry_equiv_pos_site_id
 _symmetry_equiv_pos_as_xyz
  1  'x, y, z'
loop_
 _atom_site_type_symbol
 _atom_site_label
 _atom_site_symmetry_multiplicity
 _atom_site_fract_x
 _atom_site_fract_y
 _atom_site_fract_z
 _atom_site_occupancy
  Ag  Ag0  1  0.50000000  0.50000000  0.00000000  1
  Ag  Ag1  1  0.25000000  0.75000000  0.50000000  1
  Sb  Sb0  1  0.00000000  0.00000000  0.00000000  1
  Sb  Sb1  1  0.75000000  0.25000000  0.50000000  1
  S  S0  1  0.75780500  0.75780500  0.00000000  1
  S  S1  1  0.24219500  0.24219500  0.00000000  1
  S  S2  1  0.99219500  0.49219500  0.50000000  1
  S  S3  1  0.50780500  0.00780500  0.50000000  1
loop_
_geom_bond_atom_site_label_1
_geom_bond_atom_site_label_2
_geom_bond_distance
_geom_bond_site_symmetry_2
Ag0 S3 2.747827 1_565
Ag0 S2 2.747827 1_555
Ag0 S3 2.747827 1_554
Ag0 S2 2.747827 1_454
Ag0 S0 2.946318 1_555
Ag0 S1 2.946318 1_555
Ag1 S0 2.747827 1_556
Ag1 S1 2.747827 1_555
Ag1 S0 2.747827 1_455
Ag1 S1 2.747827 1_566
Ag1 S3 2.946318 1_565
Ag1 S2 2.946318 1_455
S0 Sb1 2.747827 1_565
S0 Sb1 2.747827 1_554
S0 Sb0 2.767919 1_665
S1 Sb1 2.747827 1_454
S1 Sb1 2.747827 1_555
S1 Sb0 2.767919 1_555
S2 Sb0 2.747827 1_666
S2 Sb0 2.747827 1_655
S2 Sb1 2.767919 1_555
S3 Sb0 2.747827 1_656
S3 Sb0 2.747827 1_555
S3 Sb1 2.767919 1_555
