# generated using pymatgen
data_Mg3InP7N12
_symmetry_space_group_name_H-M   'P 1'
_cell_length_a   7.21416396
_cell_length_b   7.21416441
_cell_length_c   7.21416394
_cell_angle_alpha   109.46675599
_cell_angle_beta   109.46675152
_cell_angle_gamma   109.46674158
_symmetry_Int_Tables_number   1
_chemical_formula_structural   Mg3InP7N12
_chemical_formula_sum   'Mg3 In1 P7 N12'
_cell_volume   289.07333293
_cell_formula_units_Z   1
loop_
 _symmetry_equiv_pos_site_id
 _symmetry_equiv_pos_as_xyz
  1  'x, y, z'
loop_
 _atom_site_type_symbol
 _atom_site_label
 _atom_site_symmetry_multiplicity
 _atom_site_fract_x
 _atom_site_fract_y
 _atom_site_fract_z
 _atom_site_occupancy
  Mg  Mg0  1  0.00320458  0.65355627  0.00320458  1
  Mg  Mg1  1  0.65355627  0.00320458  0.00320458  1
  Mg  Mg2  1  0.00320458  0.00320458  0.65355627  1
  In  In0  1  0.31407446  0.31407446  0.31407446  1
  P  P0  1  0.50233506  0.25224192  0.75398380  1
  P  P1  1  0.50233506  0.75398380  0.25224192  1
  P  P2  1  0.75398380  0.25224192  0.50233506  1
  P  P3  1  0.25224192  0.50233506  0.75398380  1
  P  P4  1  0.75398380  0.50233506  0.25224192  1
  P  P5  1  0.25224192  0.75398380  0.50233506  1
  P  P6  1  0.98159742  0.98159742  0.98159742  1
  N  N0  1  0.00228534  0.72520378  0.43672035  1
  N  N1  1  0.28024169  0.71470535  0.28024169  1
  N  N2  1  0.28946006  0.56708770  0.56708770  1
  N  N3  1  0.56708770  0.56708770  0.28946006  1
  N  N4  1  0.56708770  0.28946006  0.56708770  1
  N  N5  1  0.72520378  0.00228534  0.43672035  1
  N  N6  1  0.43672035  0.00228534  0.72520378  1
  N  N7  1  0.72520378  0.43672035  0.00228534  1
  N  N8  1  0.28024169  0.28024169  0.71470535  1
  N  N9  1  0.71470535  0.28024169  0.28024169  1
  N  N10  1  0.00228534  0.43672035  0.72520378  1
  N  N11  1  0.43672035  0.72520378  0.00228534  1
loop_
_geom_bond_atom_site_label_1
_geom_bond_atom_site_label_2
_geom_bond_distance
_geom_bond_site_symmetry_2
Mg0 N1 2.084641 1_555
Mg0 N10 2.088644 1_554
Mg0 N7 2.088644 1_455
Mg0 P6 2.474807 1_454
Mg1 N9 2.084641 1_555
Mg1 N6 2.088644 1_554
Mg1 N11 2.088644 1_545
Mg1 P6 2.474807 1_544
Mg2 N8 2.084642 1_555
Mg2 N0 2.088644 1_545
Mg2 N5 2.088644 1_455
Mg2 P6 2.474807 1_445
In0 N2 2.215012 1_555
In0 N4 2.215012 1_555
In0 N3 2.215012 1_555
In0 P6 2.399073 1_444
N0 P4 1.621788 1_455
N0 P5 1.623218 1_555
N1 P5 1.624640 1_555
N1 P1 1.624640 1_555
N2 P3 1.638814 1_555
N2 P5 1.638814 1_555
N3 P4 1.638814 1_555
N3 P1 1.638814 1_555
N4 P2 1.638814 1_555
N4 P0 1.638814 1_555
N5 P1 1.621788 1_545
N5 P2 1.623219 1_555
N6 P5 1.621788 1_545
N6 P0 1.623219 1_555
N7 P0 1.621787 1_554
N7 P4 1.623218 1_555
N8 P0 1.624640 1_555
N8 P3 1.624640 1_555
N9 P2 1.624640 1_555
N9 P4 1.624640 1_555
N10 P2 1.621788 1_455
N10 P3 1.623218 1_555
N11 P3 1.621787 1_554
N11 P1 1.623218 1_555
