# generated using pymatgen
data_MnB2MoW
_symmetry_space_group_name_H-M   'P 1'
_cell_length_a   5.81735231
_cell_length_b   5.81735210
_cell_length_c   3.15358054
_cell_angle_alpha   90.00000000
_cell_angle_beta   90.00000000
_cell_angle_gamma   90.11553306
_symmetry_Int_Tables_number   1
_chemical_formula_structural   MnB2MoW
_chemical_formula_sum   'Mn2 B4 Mo2 W2'
_cell_volume   106.72195208
_cell_formula_units_Z   2
loop_
 _symmetry_equiv_pos_site_id
 _symmetry_equiv_pos_as_xyz
  1  'x, y, z'
loop_
 _atom_site_type_symbol
 _atom_site_label
 _atom_site_symmetry_multiplicity
 _atom_site_fract_x
 _atom_site_fract_y
 _atom_site_fract_z
 _atom_site_occupancy
  Mn  Mn0  1  0.00000000  0.00000000  0.00000000  1
  Mn  Mn1  1  0.50000000  0.50000000  0.00000000  1
  B  B0  1  0.11239330  0.61239330  0.00000000  1
  B  B1  1  0.88760670  0.38760670  0.00000000  1
  B  B2  1  0.61217391  0.88782609  0.00000000  1
  B  B3  1  0.38782609  0.11217391  0.00000000  1
  Mo  Mo0  1  0.17766272  0.32233728  0.50000000  1
  Mo  Mo1  1  0.82233728  0.67766272  0.50000000  1
  W  W0  1  0.67786708  0.17786708  0.50000000  1
  W  W1  1  0.32213292  0.82213292  0.50000000  1
loop_
_geom_bond_atom_site_label_1
_geom_bond_atom_site_label_2
_geom_bond_distance
_geom_bond_site_symmetry_2
Mn0 Mo0 2.657596 1_554
Mn0 Mo0 2.657596 1_555
Mn0 Mo1 2.657596 1_444
Mn0 Mo1 2.657596 1_445
Mn0 W0 2.660160 1_455
Mn0 W0 2.660160 1_454
Mn0 W1 2.660160 1_544
Mn0 W1 2.660160 1_545
Mn1 Mo1 2.657596 1_555
Mn1 Mo1 2.657596 1_554
Mn1 Mo0 2.657596 1_554
Mn1 Mo0 2.657596 1_555
Mn1 W1 2.660160 1_555
Mn1 W1 2.660160 1_554
Mn1 W0 2.660160 1_555
Mn1 W0 2.660160 1_554
B0 B1 1.847449 1_455
B0 W1 2.336171 1_555
B0 W1 2.336171 1_554
B0 Mo0 2.340982 1_555
B0 Mo0 2.340982 1_554
B0 Mo1 2.340982 1_454
B0 Mo1 2.340982 1_455
B0 Mn0 2.348992 1_565
B0 Mn1 2.348993 1_555
B1 W0 2.336171 1_555
B1 W0 2.336171 1_554
B1 Mo1 2.340982 1_555
B1 Mo1 2.340982 1_554
B1 Mo0 2.340982 1_654
B1 Mo0 2.340982 1_655
B1 Mn0 2.348992 1_655
B1 Mn1 2.348993 1_555
B2 B3 1.847565 1_565
B2 W0 2.340213 1_564
B2 W0 2.340213 1_565
B2 W1 2.340213 1_555
B2 W1 2.340213 1_554
B2 Mo1 2.341318 1_555
B2 Mo1 2.341318 1_554
B2 Mn1 2.347333 1_555
B2 Mn0 2.347333 1_665
B3 W1 2.340213 1_544
B3 W1 2.340213 1_545
B3 W0 2.340213 1_555
B3 W0 2.340213 1_554
B3 Mo0 2.341318 1_555
B3 Mo0 2.341318 1_554
B3 Mn1 2.347333 1_555
B3 Mn0 2.347333 1_555
