# generated using pymatgen
data_Ba8(CoO3)7
_symmetry_space_group_name_H-M   'P 1'
_cell_length_a   13.38539147
_cell_length_b   11.63777178
_cell_length_c   10.56717092
_cell_angle_alpha   73.96624211
_cell_angle_beta   56.68007409
_cell_angle_gamma   49.35368380
_symmetry_Int_Tables_number   1
_chemical_formula_structural   Ba8(CoO3)7
_chemical_formula_sum   'Ba16 Co14 O42'
_cell_volume   1034.98554678
_cell_formula_units_Z   2
loop_
 _symmetry_equiv_pos_site_id
 _symmetry_equiv_pos_as_xyz
  1  'x, y, z'
loop_
 _atom_site_type_symbol
 _atom_site_label
 _atom_site_symmetry_multiplicity
 _atom_site_fract_x
 _atom_site_fract_y
 _atom_site_fract_z
 _atom_site_occupancy
  Ba  Ba0  1  0.29804200  0.03221700  0.46925100  1
  Ba  Ba1  1  0.03221700  0.29804200  0.20049000  1
  Ba  Ba2  1  0.04951000  0.78074900  0.21778300  1
  Ba  Ba3  1  0.78074900  0.04951000  0.95195800  1
  Ba  Ba4  1  0.78321500  0.55067600  0.96190000  1
  Ba  Ba5  1  0.55067600  0.78321500  0.70421000  1
  Ba  Ba6  1  0.54579000  0.28810000  0.69932400  1
  Ba  Ba7  1  0.28810000  0.54579000  0.46678500  1
  Ba  Ba8  1  0.60388300  0.07620500  0.38849000  1
  Ba  Ba9  1  0.07620500  0.60388300  0.93142300  1
  Ba  Ba10  1  0.31857700  0.86151000  0.17379500  1
  Ba  Ba11  1  0.86151000  0.31857700  0.64611700  1
  Ba  Ba12  1  0.58274500  0.58274500  0.41725500  1
  Ba  Ba13  1  0.83274500  0.83274500  0.66725500  1
  Ba  Ba14  1  0.07112000  0.07112000  0.92888000  1
  Ba  Ba15  1  0.32112000  0.32112000  0.17888000  1
  Co  Co0  1  0.81928900  0.67971900  0.31933400  1
  Co  Co1  1  0.67971900  0.81928900  0.18165800  1
  Co  Co2  1  0.06834200  0.93066600  0.57028100  1
  Co  Co3  1  0.93066600  0.06834200  0.43071100  1
  Co  Co4  1  0.95957900  0.54126000  0.45783000  1
  Co  Co5  1  0.54126000  0.95957900  0.04133100  1
  Co  Co6  1  0.20866900  0.79217000  0.70874000  1
  Co  Co7  1  0.79217000  0.20866900  0.29042100  1
  Co  Co8  1  0.09993300  0.40092000  0.60136400  1
  Co  Co9  1  0.40092000  0.09993300  0.89778300  1
  Co  Co10  1  0.35221700  0.64863600  0.84908000  1
  Co  Co11  1  0.64863600  0.35221700  0.15006700  1
  Co  Co12  1  0.24923900  0.24923900  0.75076100  1
  Co  Co13  1  0.49923900  0.49923900  0.00076100  1
  O  O0  1  0.06460200  0.00697400  0.71042400  1
  O  O1  1  0.00697400  0.06460200  0.21799900  1
  O  O2  1  0.03200100  0.53957600  0.24302600  1
  O  O3  1  0.53957600  0.03200100  0.18539800  1
  O  O4  1  0.27857800  0.79350700  0.49188500  1
  O  O5  1  0.79350700  0.27857800  0.43603000  1
  O  O6  1  0.81397000  0.75811500  0.45649300  1
  O  O7  1  0.75811500  0.81397000  0.97142200  1
  O  O8  1  0.50865100  0.56421600  0.15769500  1
  O  O9  1  0.56421600  0.50865100  0.76943800  1
  O  O10  1  0.48056200  0.09230500  0.68578400  1
  O  O11  1  0.09230500  0.48056200  0.74134900  1
  O  O12  1  0.72823300  0.34422700  0.93917700  1
  O  O13  1  0.34422700  0.72823300  0.98836300  1
  O  O14  1  0.26163700  0.31082300  0.90577300  1
  O  O15  1  0.31082300  0.26163700  0.52176700  1
  O  O16  1  0.54004000  0.81521900  0.18716500  1
  O  O17  1  0.55005300  0.09727200  0.89957900  1
  O  O18  1  0.81521900  0.54004000  0.45757600  1
  O  O19  1  0.06283500  0.79242400  0.70996000  1
  O  O20  1  0.09309400  0.26198800  0.73873200  1
  O  O21  1  0.26198800  0.09309400  0.90618600  1
  O  O22  1  0.34381400  0.51126800  0.98801200  1
  O  O23  1  0.51126800  0.34381400  0.15690600  1
  O  O24  1  0.82446200  0.60166800  0.17949800  1
  O  O25  1  0.60166800  0.82446200  0.39437300  1
  O  O26  1  0.85562700  0.07050200  0.64833200  1
  O  O27  1  0.07050200  0.85562700  0.42553800  1
  O  O28  1  0.79690300  0.35042100  0.15272800  1
  O  O29  1  0.35042100  0.79690300  0.69994700  1
  O  O30  1  0.07242000  0.07242000  0.42758000  1
  O  O31  1  0.82242000  0.82242000  0.17758000  1
  O  O32  1  0.10197300  0.32612700  0.45651500  1
  O  O33  1  0.32612700  0.10197300  0.11538500  1
  O  O34  1  0.13461500  0.79348500  0.92387300  1
  O  O35  1  0.79348500  0.13461500  0.14802700  1
  O  O36  1  0.87984200  0.54891400  0.67027500  1
  O  O37  1  0.54891400  0.87984200  0.90096900  1
  O  O38  1  0.34903100  0.57972500  0.70108600  1
  O  O39  1  0.57972500  0.34903100  0.37015800  1
  O  O40  1  0.09727200  0.55005300  0.45309700  1
  O  O41  1  0.79242400  0.06283500  0.43478100  1
loop_
_geom_bond_atom_site_label_1
_geom_bond_atom_site_label_2
_geom_bond_distance
_geom_bond_site_symmetry_2
Ba0 O32 2.654121 1_555
Ba0 O25 2.776973 1_545
Ba0 O4 2.889649 1_545
Ba0 O0 2.894562 1_555
Ba0 O16 2.940912 1_545
Ba0 O3 2.964660 1_555
Ba0 O20 2.975311 1_555
Ba0 O15 2.997275 1_555
Ba0 O30 3.006632 1_555
Ba0 O29 3.102019 1_545
Ba1 O33 2.654121 1_555
Ba1 O24 2.776970 1_455
Ba1 O5 2.889649 1_455
Ba1 O1 2.894565 1_555
Ba1 O18 2.940912 1_455
Ba1 O2 2.964664 1_555
Ba1 O21 2.975311 1_554
Ba1 O14 2.997275 1_554
Ba1 O30 3.006632 1_555
Ba1 O28 3.102026 1_455
Ba2 O34 2.654121 1_554
Ba2 O27 2.776963 1_555
Ba2 O6 2.889649 1_455
Ba2 O2 2.894553 1_555
Ba2 O41 2.940912 1_465
Ba2 O1 2.964653 1_565
Ba2 O22 2.975311 1_554
Ba2 O13 2.997275 1_554
Ba2 O31 3.006632 1_455
Ba2 O40 3.102020 1_555
Ba3 O35 2.654121 1_556
Ba3 O26 2.776973 1_555
Ba3 O7 2.889649 1_545
Ba3 O3 2.894555 1_556
Ba3 O19 2.940912 1_645
Ba3 O0 2.964655 1_655
Ba3 O23 2.975311 1_556
Ba3 O12 2.997275 1_555
Ba3 O31 3.006632 1_546
Ba3 O17 3.102012 1_555
Ba4 O28 2.604763 1_556
Ba4 O36 2.606017 1_555
Ba4 O16 2.867116 1_556
Ba4 O7 2.881676 1_555
Ba4 O24 2.918826 1_556
Ba4 O8 2.980623 1_556
Ba4 O12 3.031208 1_555
Ba4 O11 3.045287 1_655
Ba4 O20 3.086910 1_655
Ba4 O37 3.182674 1_555
Ba5 O29 2.604775 1_555
Ba5 O37 2.606008 1_555
Ba5 O18 2.867122 1_555
Ba5 O6 2.881678 1_555
Ba5 O25 2.918826 1_555
Ba5 O9 2.980623 1_555
Ba5 O13 3.031203 1_555
Ba5 O10 3.045286 1_565
Ba5 O21 3.086907 1_565
Ba5 O36 3.182670 1_555
Ba6 O17 2.604761 1_555
Ba6 O38 2.606015 1_555
Ba6 O41 2.867117 1_555
Ba6 O5 2.881683 1_555
Ba6 O26 2.918826 1_555
Ba6 O10 2.980612 1_555
Ba6 O14 3.031197 1_555
Ba6 O9 3.045298 1_555
Ba6 O22 3.086913 1_555
Ba6 O39 3.182670 1_555
Ba7 O40 2.604749 1_555
Ba7 O39 2.606017 1_555
Ba7 O19 2.867123 1_555
Ba7 O4 2.881687 1_555
Ba7 O27 2.918826 1_555
Ba7 O11 2.980616 1_555
Ba7 O15 3.031197 1_555
Ba7 O8 3.045292 1_555
Ba7 O23 3.086906 1_555
Ba7 O38 3.182680 1_555
Ba8 O15 2.570858 1_555
Ba8 O10 2.618072 1_555
Ba8 O41 2.726751 1_555
Ba8 O31 2.732304 1_545
Ba8 O35 2.751041 1_555
Ba8 O25 2.932333 1_545
Ba8 O39 2.935089 1_555
Ba8 O3 2.971133 1_555
Ba8 O6 3.052334 1_545
Ba8 O23 3.364203 1_555
Ba9 O14 2.570858 1_555
Ba9 O11 2.618081 1_555
Ba9 O19 2.726758 1_555
Ba9 O31 2.732299 1_456
Ba9 O34 2.751038 1_555
Ba9 O24 2.932333 1_456
Ba9 O38 2.935090 1_555
Ba9 O2 2.971133 1_556
Ba9 O7 3.052338 1_455
Ba9 O22 3.364196 1_555
Ba10 O13 2.570849 1_554
Ba10 O8 2.618073 1_555
Ba10 O16 2.726764 1_555
Ba10 O30 2.732303 1_565
Ba10 O33 2.751049 1_565
Ba10 O27 2.932333 1_555
Ba10 O37 2.935096 1_554
Ba10 O1 2.971133 1_565
Ba10 O4 3.052337 1_555
Ba10 O21 3.364201 1_564
Ba11 O12 2.570858 1_555
Ba11 O9 2.618072 1_555
Ba11 O18 2.726758 1_555
Ba11 O30 2.732297 1_655
Ba11 O32 2.751048 1_655
Ba11 O26 2.932333 1_555
Ba11 O36 2.935100 1_555
Ba11 O0 2.971133 1_655
Ba11 O5 3.052328 1_555
Ba11 O20 3.364208 1_655
Ba12 O4 2.783082 1_555
Ba12 O5 2.783082 1_555
Ba12 O24 2.919088 1_555
Ba12 O25 2.919090 1_555
Ba12 O39 2.925806 1_555
Ba12 O38 2.925806 1_555
Ba12 O29 2.935253 1_555
Ba12 O28 2.935260 1_555
Ba12 O18 3.071880 1_555
Ba12 O16 3.071880 1_555
Ba13 O7 2.783082 1_555
Ba13 O6 2.783082 1_555
Ba13 O26 2.919078 1_565
Ba13 O27 2.919081 1_655
Ba13 O37 2.925806 1_555
Ba13 O36 2.925806 1_555
Ba13 O40 2.935253 1_655
Ba13 O17 2.935258 1_565
Ba13 O41 3.071880 1_565
Ba13 O19 3.071880 1_655
Ba14 O21 2.606589 1_555
Ba14 O20 2.606589 1_555
Ba14 O1 2.674308 1_556
Ba14 O0 2.674319 1_555
Ba14 O35 2.762668 1_456
Ba14 O34 2.762668 1_545
Ba14 O28 2.966279 1_456
Ba14 O29 2.966283 1_545
Ba15 O23 2.606589 1_555
Ba15 O22 2.606589 1_554
Ba15 O2 2.674309 1_555
Ba15 O3 2.674312 1_555
Ba15 O32 2.762668 1_555
Ba15 O33 2.762668 1_555
Ba15 O17 2.966278 1_554
Ba15 O40 2.966285 1_555
Co0 O6 1.862969 1_555
Co0 O18 1.869644 1_555
Co0 O24 1.886927 1_555
Co0 O2 1.889819 1_655
Co0 O31 1.910779 1_555
Co0 O25 1.938879 1_555
Co1 O7 1.862969 1_554
Co1 O16 1.869644 1_555
Co1 O25 1.886937 1_555
Co1 O3 1.889818 1_565
Co1 O31 1.910779 1_555
Co1 O24 1.938881 1_555
Co2 O4 1.862969 1_555
Co2 O19 1.869644 1_555
Co2 O26 1.886937 1_465
Co2 O0 1.889810 1_565
Co2 O30 1.910779 1_565
Co2 O27 1.938889 1_555
Co3 O5 1.862969 1_555
Co3 O41 1.869644 1_555
Co3 O27 1.886935 1_645
Co3 O1 1.889819 1_655
Co3 O30 1.910779 1_655
Co3 O26 1.938879 1_555
Co4 O36 1.881780 1_555
Co4 O40 1.884544 1_655
Co4 O32 1.916943 1_655
Co4 O2 1.916983 1_655
Co4 O6 1.941780 1_555
Co4 O18 1.943068 1_555
Co5 O37 1.881780 1_554
Co5 O17 1.884539 1_564
Co5 O33 1.916943 1_565
Co5 O3 1.916993 1_565
Co5 O7 1.941780 1_554
Co5 O16 1.943068 1_555
Co6 O38 1.881780 1_555
Co6 O29 1.884531 1_555
Co6 O34 1.916943 1_555
Co6 O0 1.916985 1_565
Co6 O4 1.941780 1_555
Co6 O19 1.943068 1_555
Co7 O39 1.881780 1_555
Co7 O28 1.884536 1_555
Co7 O35 1.916943 1_555
Co7 O1 1.916984 1_655
Co7 O5 1.941780 1_555
Co7 O41 1.943068 1_555
Co8 O20 1.865491 1_555
Co8 O15 1.867339 1_555
Co8 O11 1.877713 1_555
Co8 O32 1.939162 1_555
Co8 O36 1.975180 1_455
Co8 O40 1.986677 1_555
Co9 O21 1.865491 1_555
Co9 O14 1.867339 1_555
Co9 O10 1.877713 1_555
Co9 O33 1.939162 1_556
Co9 O37 1.975180 1_545
Co9 O17 1.986683 1_555
Co10 O22 1.865491 1_555
Co10 O13 1.867339 1_555
Co10 O9 1.877713 1_555
Co10 O34 1.939162 1_555
Co10 O38 1.975180 1_555
Co10 O29 1.986675 1_555
Co11 O23 1.865491 1_555
Co11 O12 1.867339 1_554
Co11 O8 1.877713 1_555
Co11 O35 1.939162 1_555
Co11 O39 1.975180 1_555
Co11 O28 1.986670 1_555
Co12 O20 2.069781 1_555
Co12 O21 2.069781 1_555
Co12 O15 2.080020 1_555
Co12 O14 2.080020 1_555
Co12 O10 2.093844 1_555
Co12 O11 2.093844 1_555
Co13 O22 2.069781 1_554
Co13 O23 2.069781 1_555
Co13 O13 2.080020 1_554
Co13 O12 2.080020 1_554
Co13 O8 2.093844 1_555
Co13 O9 2.093844 1_554
