# generated using pymatgen
data_Ce(AlZn)2
_symmetry_space_group_name_H-M   'P 1'
_cell_length_a   4.20135206
_cell_length_b   4.20135189
_cell_length_c   6.20765488
_cell_angle_alpha   109.77946947
_cell_angle_beta   109.77947313
_cell_angle_gamma   90.00000538
_symmetry_Int_Tables_number   1
_chemical_formula_structural   Ce(AlZn)2
_chemical_formula_sum   'Ce1 Al2 Zn2'
_cell_volume   96.21092241
_cell_formula_units_Z   1
loop_
 _symmetry_equiv_pos_site_id
 _symmetry_equiv_pos_as_xyz
  1  'x, y, z'
loop_
 _atom_site_type_symbol
 _atom_site_label
 _atom_site_symmetry_multiplicity
 _atom_site_fract_x
 _atom_site_fract_y
 _atom_site_fract_z
 _atom_site_occupancy
  Ce  Ce0  1  -0.00000000  0.00000000  0.00000000  1
  Al  Al0  1  0.25000000  0.75000000  0.50000000  1
  Al  Al1  1  0.75000000  0.25000000  0.50000000  1
  Zn  Zn0  1  0.61227286  0.61227286  0.22454572  1
  Zn  Zn1  1  0.38772714  0.38772714  0.77545428  1
loop_
_geom_bond_atom_site_label_1
_geom_bond_atom_site_label_2
_geom_bond_distance
_geom_bond_site_symmetry_2
Ce0 Zn1 3.213043 1_554
Ce0 Zn0 3.213043 1_445
Ce0 Zn1 3.213043 1_444
Ce0 Zn0 3.213043 1_555
Ce0 Zn1 3.213043 1_454
Ce0 Zn0 3.213043 1_545
Ce0 Zn1 3.213043 1_544
Ce0 Zn0 3.213043 1_455
Al0 Zn1 2.582060 1_555
Al0 Zn0 2.582060 1_555
Al0 Zn1 2.582060 1_565
Al0 Zn0 2.582060 1_455
Al0 Ce0 3.440954 1_565
Al0 Ce0 3.440954 1_566
Al0 Ce0 3.440954 1_666
Al0 Ce0 3.440954 1_555
Al1 Zn0 2.582060 1_555
Al1 Zn1 2.582060 1_555
Al1 Zn0 2.582060 1_545
Al1 Zn1 2.582060 1_655
Al1 Ce0 3.440954 1_656
Al1 Ce0 3.440954 1_655
Al1 Ce0 3.440954 1_555
Al1 Ce0 3.440954 1_666
Zn0 Zn1 2.447829 1_554
