# generated using pymatgen
data_Ca6NbIO12
_symmetry_space_group_name_H-M   'P 1'
_cell_length_a   5.86233943
_cell_length_b   5.59173398
_cell_length_c   9.79914697
_cell_angle_alpha   55.31495418
_cell_angle_beta   90.13541890
_cell_angle_gamma   89.86684416
_symmetry_Int_Tables_number   1
_chemical_formula_structural   Ca6NbIO12
_chemical_formula_sum   'Ca6 Nb1 I1 O12'
_cell_volume   264.13537998
_cell_formula_units_Z   1
loop_
 _symmetry_equiv_pos_site_id
 _symmetry_equiv_pos_as_xyz
  1  'x, y, z'
loop_
 _atom_site_type_symbol
 _atom_site_label
 _atom_site_symmetry_multiplicity
 _atom_site_fract_x
 _atom_site_fract_y
 _atom_site_fract_z
 _atom_site_occupancy
  Ca  Ca0  1  0.05346319  0.72031108  0.77210283  1
  Ca  Ca1  1  0.94653681  0.27968892  0.22789717  1
  Ca  Ca2  1  0.56263299  0.26152253  0.76164220  1
  Ca  Ca3  1  0.43736701  0.73847747  0.23835780  1
  Ca  Ca4  1  0.50000000  0.50000000  0.00000000  1
  Ca  Ca5  1  0.00000000  0.50000000  0.50000000  1
  Nb  Nb0  1  0.00000000  0.00000000  0.00000000  1
  I  I0  1  0.50000000  0.00000000  0.50000000  1
  O  O0  1  0.44598951  0.90887621  0.71435041  1
  O  O1  1  0.55401049  0.09112379  0.28564959  1
  O  O2  1  0.94278331  0.12403009  0.76489310  1
  O  O3  1  0.05721669  0.87596991  0.23510690  1
  O  O4  1  0.76237522  0.75863934  0.57683932  1
  O  O5  1  0.23762478  0.24136066  0.42316068  1
  O  O6  1  0.28702193  0.24030455  0.93342948  1
  O  O7  1  0.71297807  0.75969545  0.06657052  1
  O  O8  1  0.32394131  0.67553000  0.55692729  1
  O  O9  1  0.67605869  0.32447000  0.44307271  1
  O  O10  1  0.82081599  0.34295588  0.95407878  1
  O  O11  1  0.17918401  0.65704412  0.04592122  1
loop_
_geom_bond_atom_site_label_1
_geom_bond_atom_site_label_2
_geom_bond_distance
_geom_bond_site_symmetry_2
Ca0 O10 2.287962 1_455
Ca0 O2 2.309481 1_465
Ca0 O0 2.462824 1_555
Ca0 O4 2.476938 1_455
Ca0 O6 2.592586 1_555
Ca0 O11 2.603253 1_556
Ca0 O8 2.763646 1_555
Ca1 O11 2.287962 1_655
Ca1 O3 2.309481 1_645
Ca1 O1 2.462824 1_555
Ca1 O5 2.476938 1_655
Ca1 O7 2.592586 1_555
Ca1 O10 2.603253 1_554
Ca1 O9 2.763646 1_555
Ca2 O6 2.290156 1_555
Ca2 O2 2.349990 1_555
Ca2 O0 2.369718 1_545
Ca2 O8 2.455136 1_555
Ca2 O4 2.583307 1_555
Ca2 O10 2.649737 1_555
Ca2 O7 2.830634 1_546
Ca2 O9 3.011882 1_555
Ca3 O7 2.290156 1_555
Ca3 O3 2.349990 1_555
Ca3 O1 2.369718 1_565
Ca3 O9 2.455136 1_555
Ca3 O5 2.583307 1_555
Ca3 O11 2.649737 1_555
Ca3 O6 2.830634 1_564
Ca3 O8 3.011882 1_555
Ca4 O10 2.226399 1_554
Ca4 O11 2.226399 1_555
Ca4 O7 2.275052 1_555
Ca4 O6 2.275052 1_554
Ca4 O1 2.423092 1_555
Ca4 O0 2.423092 1_554
Ca5 O2 2.250916 1_455
Ca5 O3 2.250916 1_555
Ca5 O8 2.346866 1_555
Ca5 O9 2.346866 1_455
Ca5 O4 2.415387 1_455
Ca5 O5 2.415387 1_555
Nb0 O10 1.997449 1_454
Nb0 O11 1.997449 1_545
Nb0 O3 2.019397 1_545
Nb0 O2 2.019397 1_454
Nb0 O6 2.019999 1_554
Nb0 O7 2.019999 1_445
I0 O9 1.878249 1_555
I0 O8 1.878249 1_545
I0 O0 1.886153 1_545
I0 O1 1.886153 1_555
I0 O4 1.892771 1_545
I0 O5 1.892771 1_555
