# generated using pymatgen
data_Zr6ZnAgC2
_symmetry_space_group_name_H-M   'P 1'
_cell_length_a   6.09373731
_cell_length_b   6.09373728
_cell_length_c   9.09601043
_cell_angle_alpha   90.00000000
_cell_angle_beta   90.00000000
_cell_angle_gamma   147.76024505
_symmetry_Int_Tables_number   1
_chemical_formula_structural   Zr6ZnAgC2
_chemical_formula_sum   'Zr6 Zn1 Ag1 C2'
_cell_volume   180.18678563
_cell_formula_units_Z   1
loop_
 _symmetry_equiv_pos_site_id
 _symmetry_equiv_pos_as_xyz
  1  'x, y, z'
loop_
 _atom_site_type_symbol
 _atom_site_label
 _atom_site_symmetry_multiplicity
 _atom_site_fract_x
 _atom_site_fract_y
 _atom_site_fract_z
 _atom_site_occupancy
  Zr  Zr0  1  0.62692839  0.37307161  0.95345847  1
  Zr  Zr1  1  0.37422731  0.62577269  0.44719461  1
  Zr  Zr2  1  0.37422731  0.62577269  0.05280539  1
  Zr  Zr3  1  0.62692839  0.37307161  0.54654153  1
  Zr  Zr4  1  0.95207912  0.04792088  0.75000000  1
  Zr  Zr5  1  0.05050721  0.94949279  0.25000000  1
  Zn  Zn0  1  0.74597420  0.25402580  0.25000000  1
  Ag  Ag0  1  0.25013238  0.74986762  0.75000000  1
  C  C0  1  0.99949684  0.00050316  0.00081252  1
  C  C1  1  0.99949684  0.00050316  0.49918748  1
loop_
_geom_bond_atom_site_label_1
_geom_bond_atom_site_label_2
_geom_bond_distance
_geom_bond_site_symmetry_2
Zn0 Zr5 2.846085 1_655
Zn0 Zr5 2.846085 1_545
Zn0 Zr1 2.886998 1_545
Zn0 Zr2 2.886998 1_545
Zn0 Zr1 2.886998 1_655
Zn0 Zr2 2.886998 1_655
Zn0 Zr0 3.036184 1_554
Zn0 Zr3 3.036184 1_555
Ag0 Zr3 2.892810 1_565
Ag0 Zr0 2.892810 1_565
Ag0 Zr3 2.892810 1_455
Ag0 Zr0 2.892810 1_455
Ag0 Zr4 2.907440 1_455
Ag0 Zr4 2.907440 1_565
Ag0 Zr2 3.114052 1_556
Ag0 Zr1 3.114052 1_555
C0 Zr2 2.288541 1_655
C0 Zr2 2.288541 1_545
C0 Zr0 2.296560 1_544
C0 Zr0 2.296560 1_654
C0 Zr5 2.343978 1_645
C0 Zr4 2.347974 1_554
C1 Zr1 2.288541 1_655
C1 Zr1 2.288541 1_545
C1 Zr3 2.296560 1_545
C1 Zr3 2.296560 1_655
C1 Zr5 2.343978 1_645
C1 Zr4 2.347974 1_555
