# generated using pymatgen
data_Mn5(P3O11)2
_symmetry_space_group_name_H-M   'P 1'
_cell_length_a   6.78180800
_cell_length_b   10.71651200
_cell_length_c   12.72649940
_cell_angle_alpha   74.36790831
_cell_angle_beta   90.00000000
_cell_angle_gamma   90.00000000
_symmetry_Int_Tables_number   1
_chemical_formula_structural   Mn5(P3O11)2
_chemical_formula_sum   'Mn10 P12 O44'
_cell_volume   890.71652897
_cell_formula_units_Z   2
loop_
 _symmetry_equiv_pos_site_id
 _symmetry_equiv_pos_as_xyz
  1  'x, y, z'
loop_
 _atom_site_type_symbol
 _atom_site_label
 _atom_site_symmetry_multiplicity
 _atom_site_fract_x
 _atom_site_fract_y
 _atom_site_fract_z
 _atom_site_occupancy
  Mn  Mn0  1  0.99725400  0.20611200  0.33926400  1
  Mn  Mn1  1  0.00274600  0.79388800  0.66073600  1
  Mn  Mn2  1  0.25256100  0.20952300  0.13778000  1
  Mn  Mn3  1  0.49725400  0.29388800  0.66073600  1
  Mn  Mn4  1  0.75256100  0.29047700  0.86222000  1
  Mn  Mn5  1  0.74743900  0.79047700  0.86222000  1
  Mn  Mn6  1  0.24743900  0.70952300  0.13778000  1
  Mn  Mn7  1  0.50000000  0.50000000  0.00000000  1
  Mn  Mn8  1  0.00000000  0.00000000  0.00000000  1
  Mn  Mn9  1  0.50274600  0.70611200  0.33926400  1
  P  P0  1  0.70047500  0.41689500  0.41513400  1
  P  P1  1  0.61563400  0.57163400  0.74704200  1
  P  P2  1  0.29952500  0.58310500  0.58486600  1
  P  P3  1  0.11563400  0.92836600  0.25295800  1
  P  P4  1  0.20047500  0.08310500  0.58486600  1
  P  P5  1  0.38436600  0.42836600  0.25295800  1
  P  P6  1  0.73694900  0.22978800  0.08484100  1
  P  P7  1  0.23694900  0.27021200  0.91515900  1
  P  P8  1  0.26305100  0.77021200  0.91515900  1
  P  P9  1  0.88436600  0.07163400  0.74704200  1
  P  P10  1  0.76305100  0.72978800  0.08484100  1
  P  P11  1  0.79952500  0.91689500  0.41513400  1
  O  O0  1  0.72710700  0.17229300  0.75589900  1
  O  O1  1  0.29504300  0.63334100  0.00543100  1
  O  O2  1  0.47147400  0.55015900  0.84343600  1
  O  O3  1  0.81668900  0.85192200  0.53612300  1
  O  O4  1  0.52852600  0.44984100  0.15656400  1
  O  O5  1  0.05234900  0.31870600  0.85124900  1
  O  O6  1  0.70364200  0.44124300  0.73868600  1
  O  O7  1  0.91842200  0.23362500  0.15476200  1
  O  O8  1  0.55234900  0.18129400  0.14875100  1
  O  O9  1  0.22048000  0.84940500  0.00358200  1
  O  O10  1  0.69732600  0.56530000  0.38349400  1
  O  O11  1  0.68331100  0.35192200  0.53612300  1
  O  O12  1  0.79504300  0.86665900  0.99456900  1
  O  O13  1  0.27952000  0.34940500  0.00358200  1
  O  O14  1  0.44765100  0.81870600  0.85124900  1
  O  O15  1  0.49882200  0.36895300  0.36260400  1
  O  O16  1  0.19732600  0.93470000  0.61650600  1
  O  O17  1  0.77952000  0.15059500  0.99641800  1
  O  O18  1  0.41842200  0.26637500  0.84523800  1
  O  O19  1  0.77289300  0.67229300  0.75589900  1
  O  O20  1  0.94765100  0.68129400  0.14875100  1
  O  O21  1  0.37220100  0.13239800  0.63764400  1
  O  O22  1  0.97147400  0.94984100  0.15656400  1
  O  O23  1  0.27289300  0.82770700  0.24410100  1
  O  O24  1  0.22710700  0.32770700  0.24410100  1
  O  O25  1  0.30267400  0.43470000  0.61650600  1
  O  O26  1  0.50117800  0.63104700  0.63739600  1
  O  O27  1  0.00117800  0.86895300  0.36260400  1
  O  O28  1  0.87220100  0.36760200  0.36235600  1
  O  O29  1  0.20364200  0.05875700  0.26131400  1
  O  O30  1  0.08157800  0.76637500  0.84523800  1
  O  O31  1  0.72048000  0.65059500  0.99641800  1
  O  O32  1  0.02852600  0.05015900  0.84343600  1
  O  O33  1  0.20495700  0.13334100  0.00543100  1
  O  O34  1  0.12779900  0.63239800  0.63764400  1
  O  O35  1  0.70495700  0.36665900  0.99456900  1
  O  O36  1  0.29635800  0.55875700  0.26131400  1
  O  O37  1  0.80267400  0.06530000  0.38349400  1
  O  O38  1  0.18331100  0.14807800  0.46387700  1
  O  O39  1  0.79635800  0.94124300  0.73868600  1
  O  O40  1  0.62779900  0.86760200  0.36235600  1
  O  O41  1  0.31668900  0.64807800  0.46387700  1
  O  O42  1  0.58157800  0.73362500  0.15476200  1
  O  O43  1  0.99882200  0.13104700  0.63739600  1
loop_
_geom_bond_atom_site_label_1
_geom_bond_atom_site_label_2
_geom_bond_distance
_geom_bond_site_symmetry_2
Mn0 O37 1.969152 1_555
Mn0 O38 1.990587 1_655
Mn0 O28 2.018592 1_555
Mn0 O24 2.178112 1_655
Mn0 O7 2.347991 1_555
Mn0 O29 2.506220 1_655
Mn1 O16 1.969152 1_555
Mn1 O3 1.990587 1_455
Mn1 O34 2.018592 1_555
Mn1 O19 2.178112 1_455
Mn1 O30 2.347991 1_555
Mn1 O39 2.506220 1_455
Mn2 O13 1.953884 1_555
Mn2 O29 1.955317 1_555
Mn2 O8 2.054693 1_555
Mn2 O33 2.085381 1_555
Mn2 O24 2.094825 1_555
Mn2 O7 2.297512 1_455
Mn3 O25 1.969152 1_555
Mn3 O11 1.990587 1_555
Mn3 O21 2.018592 1_555
Mn3 O0 2.178112 1_555
Mn3 O18 2.347991 1_555
Mn3 O6 2.506220 1_555
Mn4 O17 1.953884 1_555
Mn4 O6 1.955317 1_555
Mn4 O5 2.054693 1_655
Mn4 O35 2.085381 1_555
Mn4 O0 2.094825 1_555
Mn4 O18 2.297512 1_555
Mn5 O31 1.953884 1_555
Mn5 O39 1.955317 1_555
Mn5 O14 2.054693 1_555
Mn5 O12 2.085381 1_555
Mn5 O19 2.094825 1_555
Mn5 O30 2.297512 1_655
Mn6 O9 1.953884 1_555
Mn6 O36 1.955317 1_555
Mn6 O20 2.054693 1_455
Mn6 O1 2.085381 1_555
Mn6 O23 2.094825 1_555
Mn6 O42 2.297512 1_555
Mn7 O4 1.928540 1_555
Mn7 O2 1.928540 1_554
Mn7 O1 2.007970 1_555
Mn7 O35 2.007970 1_554
Mn7 O31 2.191514 1_554
Mn7 O13 2.191514 1_555
Mn8 O22 1.928540 1_445
Mn8 O32 1.928540 1_554
Mn8 O33 2.007970 1_555
Mn8 O12 2.007970 1_444
Mn8 O17 2.191514 1_454
Mn8 O9 2.191514 1_545
Mn9 O10 1.969152 1_555
Mn9 O41 1.990587 1_555
Mn9 O40 2.018592 1_555
Mn9 O23 2.178112 1_555
Mn9 O42 2.347991 1_555
Mn9 O36 2.506220 1_555
O0 P9 1.542491 1_555
O1 P8 1.615621 1_554
O2 P1 1.536743 1_555
O3 P11 1.513757 1_555
O4 P5 1.536743 1_555
O5 P7 1.507026 1_555
O6 P1 1.549249 1_555
O7 P6 1.525746 1_555
O8 P6 1.507026 1_555
O9 P8 1.607673 1_554
O10 P0 1.531926 1_555
O11 P0 1.513757 1_555
O12 P10 1.615621 1_556
O13 P7 1.607673 1_554
O14 P8 1.507026 1_555
O15 P5 1.573615 1_555
O15 P0 1.663201 1_555
O16 P4 1.531926 1_565
O17 P6 1.607673 1_556
O18 P7 1.525746 1_555
O19 P1 1.542491 1_555
O20 P10 1.507026 1_555
O21 P4 1.509218 1_555
O22 P3 1.536743 1_655
O23 P3 1.542491 1_555
O24 P5 1.542491 1_555
O25 P2 1.531926 1_555
O26 P1 1.573615 1_555
O26 P2 1.663201 1_555
O27 P3 1.573615 1_555
O27 P11 1.663201 1_455
O28 P0 1.509218 1_555
O29 P3 1.549249 1_545
O30 P8 1.525746 1_555
O31 P10 1.607673 1_556
O32 P9 1.536743 1_455
O33 P7 1.615621 1_554
O34 P2 1.509218 1_555
O35 P6 1.615621 1_556
O36 P5 1.549249 1_555
O37 P11 1.531926 1_545
O38 P4 1.513757 1_555
O39 P9 1.549249 1_565
O40 P11 1.509218 1_555
O41 P2 1.513757 1_555
O42 P10 1.525746 1_555
O43 P9 1.573615 1_555
O43 P4 1.663201 1_655
