# generated using pymatgen
data_Zr24P7Se
_symmetry_space_group_name_H-M   'P 1'
_cell_length_a   10.86081384
_cell_length_b   10.85907133
_cell_length_c   5.38412918
_cell_angle_alpha   89.94006145
_cell_angle_beta   90.03066294
_cell_angle_gamma   90.02724563
_symmetry_Int_Tables_number   1
_chemical_formula_structural   Zr24P7Se
_chemical_formula_sum   'Zr24 P7 Se1'
_cell_volume   634.99481416
_cell_formula_units_Z   1
loop_
 _symmetry_equiv_pos_site_id
 _symmetry_equiv_pos_as_xyz
  1  'x, y, z'
loop_
 _atom_site_type_symbol
 _atom_site_label
 _atom_site_symmetry_multiplicity
 _atom_site_fract_x
 _atom_site_fract_y
 _atom_site_fract_z
 _atom_site_occupancy
  Zr  Zr0  1  0.02758675  0.86248190  0.27933710  1
  Zr  Zr1  1  0.35993228  0.47648100  0.78120821  1
  Zr  Zr2  1  0.63793451  0.53197712  0.77987042  1
  Zr  Zr3  1  0.97316603  0.13716013  0.27946450  1
  Zr  Zr4  1  0.47216389  0.63744670  0.22198267  1
  Zr  Zr5  1  0.13678282  0.02736627  0.72167193  1
  Zr  Zr6  1  0.86337860  0.97227183  0.71990667  1
  Zr  Zr7  1  0.52683936  0.36587467  0.21857285  1
  Zr  Zr8  1  0.28441130  0.82012095  0.98443846  1
  Zr  Zr9  1  0.31724120  0.21450149  0.48119822  1
  Zr  Zr10  1  0.67981813  0.78494597  0.48395088  1
  Zr  Zr11  1  0.71855575  0.17844973  0.98775130  1
  Zr  Zr12  1  0.21485341  0.68000983  0.51478276  1
  Zr  Zr13  1  0.17970165  0.28471223  0.01483956  1
  Zr  Zr14  1  0.82105120  0.71545132  0.01588505  1
  Zr  Zr15  1  0.78745945  0.32070255  0.51363443  1
  Zr  Zr16  1  0.89316445  0.41485955  0.03854959  1
  Zr  Zr17  1  0.91512850  0.60705309  0.53872249  1
  Zr  Zr18  1  0.08505985  0.39294260  0.53884392  1
  Zr  Zr19  1  0.10670940  0.58503562  0.03811341  1
  Zr  Zr20  1  0.60866522  0.08136580  0.45585284  1
  Zr  Zr21  1  0.58543058  0.89302146  0.96110809  1
  Zr  Zr22  1  0.41268066  0.10312822  0.96729834  1
  Zr  Zr23  1  0.39303895  0.91488924  0.46157082  1
  P  P0  1  0.79500774  0.95815774  0.21130665  1
  P  P1  1  0.20511638  0.03960992  0.21352126  1
  P  P2  1  0.45889398  0.70700970  0.71339516  1
  P  P3  1  0.95954949  0.20592724  0.78780530  1
  P  P4  1  0.70669533  0.54120527  0.28787758  1
  P  P5  1  0.29324369  0.45956669  0.28748958  1
  P  P6  1  0.04099242  0.79367776  0.78730679  1
  Se  Se0  1  0.53974500  0.29259843  0.71274517  1
loop_
_geom_bond_atom_site_label_1
_geom_bond_atom_site_label_2
_geom_bond_distance
_geom_bond_site_symmetry_2
P0 Zr10 2.692921 1_555
P0 Zr21 2.737362 1_554
P0 Zr6 2.752469 1_554
P0 Zr0 2.755895 1_655
P0 Zr20 2.762004 1_565
P0 Zr3 2.766620 1_565
P0 Zr11 2.802763 1_564
P0 Zr6 2.841152 1_555
P0 Zr14 2.853089 1_555
P1 Zr9 2.677404 1_555
P1 Zr22 2.704621 1_554
P1 Zr0 2.745656 1_545
P1 Zr5 2.753157 1_554
P1 Zr3 2.756571 1_455
P1 Zr23 2.789173 1_545
P1 Zr8 2.820113 1_544
P1 Zr5 2.838170 1_555
P1 Zr13 2.880792 1_555
P2 Zr8 2.690422 1_555
P2 Zr23 2.727593 1_555
P2 Zr2 2.742855 1_555
P2 Zr1 2.747929 1_555
P2 Zr4 2.756172 1_555
P2 Zr21 2.783625 1_555
P2 Zr10 2.828181 1_555
P2 Zr4 2.843419 1_556
P2 Zr12 2.872526 1_555
P3 Zr15 2.687228 1_555
P3 Zr16 2.738421 1_556
P3 Zr3 2.753632 1_556
P3 Zr5 2.756355 1_655
P3 Zr6 2.767927 1_545
P3 Zr18 2.787969 1_655
P3 Zr13 2.817854 1_656
P3 Zr3 2.841713 1_555
P3 Zr11 2.846099 1_555
P4 Zr14 2.694680 1_555
P4 Zr17 2.730779 1_555
P4 Zr7 2.752644 1_555
P4 Zr2 2.754304 1_555
P4 Zr4 2.776170 1_555
P4 Zr16 2.792010 1_555
P4 Zr15 2.824013 1_555
P4 Zr2 2.836768 1_554
P4 Zr10 2.865681 1_555
P5 Zr13 2.698629 1_555
P5 Zr18 2.732563 1_555
P5 Zr7 2.759279 1_555
P5 Zr1 2.761057 1_555
P5 Zr4 2.761767 1_555
P5 Zr19 2.785557 1_555
P5 Zr12 2.821698 1_555
P5 Zr1 2.826609 1_554
P5 Zr9 2.869167 1_555
P6 Zr12 2.692785 1_555
P6 Zr19 2.731347 1_556
P6 Zr0 2.757192 1_556
P6 Zr6 2.759588 1_455
P6 Zr5 2.764572 1_565
P6 Zr17 2.787124 1_455
P6 Zr14 2.818034 1_456
P6 Zr0 2.838119 1_555
P6 Zr8 2.862725 1_555
Se0 Zr11 2.737830 1_555
Se0 Zr7 2.779809 1_555
Se0 Zr20 2.782846 1_555
Se0 Zr1 2.818324 1_555
Se0 Zr22 2.830101 1_555
Se0 Zr2 2.832635 1_555
Se0 Zr7 2.841652 1_556
Se0 Zr9 2.847854 1_555
Se0 Zr15 2.912417 1_555
