# generated using pymatgen
data_Zn5Cu(SnPt)4
_symmetry_space_group_name_H-M   'P 1'
_cell_length_a   4.30465395
_cell_length_b   4.30465313
_cell_length_c   15.68664113
_cell_angle_alpha   90.00000000
_cell_angle_beta   90.00000000
_cell_angle_gamma   119.99997711
_symmetry_Int_Tables_number   1
_chemical_formula_structural   Zn5Cu(SnPt)4
_chemical_formula_sum   'Zn5 Cu1 Sn4 Pt4'
_cell_volume   251.73123048
_cell_formula_units_Z   1
loop_
 _symmetry_equiv_pos_site_id
 _symmetry_equiv_pos_as_xyz
  1  'x, y, z'
loop_
 _atom_site_type_symbol
 _atom_site_label
 _atom_site_symmetry_multiplicity
 _atom_site_fract_x
 _atom_site_fract_y
 _atom_site_fract_z
 _atom_site_occupancy
  Zn  Zn0  1  0.00000000  0.00000000  0.83262223  1
  Zn  Zn1  1  0.00000000  0.00000000  0.66905596  1
  Zn  Zn2  1  0.00000000  0.00000000  0.32858401  1
  Zn  Zn3  1  0.33333300  0.66666700  0.75098288  1
  Zn  Zn4  1  0.66666700  0.33333300  0.23398370  1
  Cu  Cu0  1  0.00000000  0.00000000  0.16890758  1
  Sn  Sn0  1  0.33333300  0.66666700  0.08088670  1
  Sn  Sn1  1  0.66666700  0.33333300  0.92789364  1
  Sn  Sn2  1  0.66666700  0.33333300  0.57371986  1
  Sn  Sn3  1  0.33333300  0.66666700  0.42727213  1
  Pt  Pt0  1  0.00000000  0.00000000  0.00036151  1
  Pt  Pt1  1  0.00000000  0.00000000  0.49980632  1
  Pt  Pt2  1  0.33333300  0.66666700  0.25519371  1
  Pt  Pt3  1  0.66666700  0.33333300  0.75072978  1
loop_
_geom_bond_atom_site_label_1
_geom_bond_atom_site_label_2
_geom_bond_distance
_geom_bond_site_symmetry_2
Zn0 Zn1 2.565805 1_555
Zn0 Zn3 2.795841 1_545
Zn0 Zn3 2.795844 1_555
Zn0 Zn3 2.795845 1_445
Zn1 Zn3 2.797910 1_545
Zn1 Zn3 2.797914 1_555
Zn1 Zn3 2.797914 1_445
Zn2 Zn4 2.894617 1_455
Zn2 Zn4 2.894621 1_445
Zn2 Zn4 2.894621 1_555
Cu0 Zn2 2.504787 1_555
Cu0 Pt0 2.643922 1_555
Cu0 Zn4 2.686774 1_455
Cu0 Zn4 2.686778 1_445
Cu0 Zn4 2.686778 1_555
Cu0 Pt2 2.829971 1_545
Cu0 Pt2 2.829975 1_555
Cu0 Pt2 2.829975 1_445
Cu0 Sn0 2.843087 1_545
Cu0 Sn0 2.843091 1_555
Cu0 Sn0 2.843091 1_445
Sn1 Zn0 2.900028 1_655
Sn1 Zn0 2.900032 1_665
Sn1 Zn0 2.900032 1_555
Sn2 Zn1 2.900551 1_655
Sn2 Zn1 2.900555 1_665
Sn2 Zn1 2.900555 1_555
Sn3 Zn2 2.928009 1_565
Sn3 Zn2 2.928012 1_555
Sn3 Zn2 2.928013 1_665
Pt0 Zn0 2.631266 1_554
Pt0 Sn1 2.732934 1_454
Pt0 Sn1 2.732938 1_444
Pt0 Sn1 2.732939 1_554
Pt0 Sn0 2.787878 1_545
Pt0 Sn0 2.787882 1_555
Pt0 Sn0 2.787882 1_445
Pt1 Zn1 2.654958 1_555
Pt1 Zn2 2.685903 1_555
Pt1 Sn3 2.733367 1_545
Pt1 Sn3 2.733371 1_555
Pt1 Sn3 2.733372 1_445
Pt1 Sn2 2.742445 1_455
Pt1 Sn2 2.742449 1_445
Pt1 Sn2 2.742449 1_555
Pt2 Zn4 2.507463 1_565
Pt2 Zn4 2.507463 1_455
Pt2 Zn4 2.507469 1_555
Pt2 Sn3 2.699332 1_555
Pt2 Sn0 2.734291 1_555
Pt2 Zn2 2.738985 1_565
Pt2 Zn2 2.738989 1_555
Pt2 Zn2 2.738989 1_665
Pt3 Zn3 2.485294 1_545
Pt3 Zn3 2.485294 1_655
Pt3 Zn3 2.485301 1_555
Pt3 Sn2 2.776691 1_555
Pt3 Sn1 2.779106 1_555
Pt3 Zn1 2.796088 1_655
Pt3 Zn1 2.796092 1_665
Pt3 Zn1 2.796092 1_555
Pt3 Zn0 2.797661 1_655
Pt3 Zn0 2.797665 1_665
Pt3 Zn0 2.797666 1_555
