# generated using pymatgen
data_Sr21Ga8Sn6Bi
_symmetry_space_group_name_H-M   'P 1'
_cell_length_a   12.06355318
_cell_length_b   12.06355406
_cell_length_c   12.06355275
_cell_angle_alpha   60.00000361
_cell_angle_beta   60.00000119
_cell_angle_gamma   60.00000166
_symmetry_Int_Tables_number   1
_chemical_formula_structural   Sr21Ga8Sn6Bi
_chemical_formula_sum   'Sr21 Ga8 Sn6 Bi1'
_cell_volume   1241.39722113
_cell_formula_units_Z   1
loop_
 _symmetry_equiv_pos_site_id
 _symmetry_equiv_pos_as_xyz
  1  'x, y, z'
loop_
 _atom_site_type_symbol
 _atom_site_label
 _atom_site_symmetry_multiplicity
 _atom_site_fract_x
 _atom_site_fract_y
 _atom_site_fract_z
 _atom_site_occupancy
  Sr  Sr0  1  0.86931084  0.86931084  0.39206547  1
  Sr  Sr1  1  0.60793453  0.13068916  0.13068916  1
  Sr  Sr2  1  0.86931084  0.39206547  0.86931084  1
  Sr  Sr3  1  0.13068916  0.13068916  0.13068916  1
  Sr  Sr4  1  0.39206547  0.86931084  0.86931084  1
  Sr  Sr5  1  0.86931084  0.86931084  0.86931084  1
  Sr  Sr6  1  0.17779782  0.82220218  0.50000000  1
  Sr  Sr7  1  0.82220218  0.50000000  0.50000000  1
  Sr  Sr8  1  0.13068916  0.13068916  0.60793453  1
  Sr  Sr9  1  0.82220218  0.17779782  0.50000000  1
  Sr  Sr10  1  0.17779782  0.50000000  0.50000000  1
  Sr  Sr11  1  0.13068916  0.60793453  0.13068916  1
  Sr  Sr12  1  0.50000000  0.50000000  0.17779782  1
  Sr  Sr13  1  0.50000000  0.17779782  0.82220218  1
  Sr  Sr14  1  0.50000000  0.82220218  0.17779782  1
  Sr  Sr15  1  0.50000000  0.50000000  0.82220218  1
  Sr  Sr16  1  0.50000000  0.17779782  0.50000000  1
  Sr  Sr17  1  0.17779782  0.50000000  0.82220218  1
  Sr  Sr18  1  0.00000000  0.00000000  0.00000000  1
  Sr  Sr19  1  0.50000000  0.82220218  0.50000000  1
  Sr  Sr20  1  0.82220218  0.50000000  0.17779782  1
  Ga  Ga0  1  0.69384304  0.91847287  0.69384304  1
  Ga  Ga1  1  0.69384304  0.69384304  0.91847287  1
  Ga  Ga2  1  0.69384304  0.69384304  0.69384304  1
  Ga  Ga3  1  0.30615696  0.08152713  0.30615696  1
  Ga  Ga4  1  0.91847287  0.69384304  0.69384304  1
  Ga  Ga5  1  0.30615696  0.30615696  0.08152713  1
  Ga  Ga6  1  0.08152713  0.30615696  0.30615696  1
  Ga  Ga7  1  0.30615696  0.30615696  0.30615696  1
  Sn  Sn0  1  0.78672396  0.21327604  0.78672396  1
  Sn  Sn1  1  0.78672396  0.21327604  0.21327604  1
  Sn  Sn2  1  0.21327604  0.78672396  0.21327604  1
  Sn  Sn3  1  0.21327604  0.78672396  0.78672396  1
  Sn  Sn4  1  0.78672396  0.78672396  0.21327604  1
  Sn  Sn5  1  0.21327604  0.21327604  0.78672396  1
  Bi  Bi0  1  0.50000000  0.50000000  0.50000000  1
loop_
_geom_bond_atom_site_label_1
_geom_bond_atom_site_label_2
_geom_bond_distance
_geom_bond_site_symmetry_2
Sr0 Sr18 3.861786 1_665
Sr0 Sr19 4.225883 1_555
Sr0 Sr7 4.225884 1_555
Sr0 Sr16 4.225896 1_565
Sr0 Sr10 4.225896 1_655
Sr0 Sr6 4.225907 1_655
Sr0 Sr9 4.225907 1_565
Sr1 Sr18 3.861786 1_655
Sr1 Sr16 4.225883 1_555
Sr1 Sr12 4.225884 1_555
Sr1 Sr19 4.225896 1_545
Sr1 Sr15 4.225896 1_554
Sr1 Sr13 4.225906 1_554
Sr1 Sr14 4.225907 1_545
Sr2 Sr7 4.225883 1_555
Sr2 Sr20 4.225906 1_556
Sr3 Sr9 4.225890 1_455
Sr3 Sr6 4.225890 1_545
Sr5 Sr6 4.225890 1_655
Sr5 Sr9 4.225890 1_565
Sr6 Sr8 4.225907 1_565
Sr6 Sr9 4.289747 1_465
Sr7 Sr9 3.886903 1_555
Sr7 Sr8 4.225896 1_655
Sr8 Sr9 4.225907 1_455
Sr10 Sr17 3.886903 1_555
Sr10 Sr12 3.886903 1_555
Sr10 Sr16 3.886903 1_555
Sr10 Sr6 3.886903 1_555
Sr10 Sr11 4.225883 1_555
Sr10 Sr8 4.225884 1_555
Sr10 Sr2 4.225896 1_455
Sr10 Sr7 4.289747 1_455
Sr11 Sr18 3.861786 1_565
Sr11 Sr12 4.225883 1_555
Sr11 Sr15 4.225896 1_554
Sr11 Sr7 4.225896 1_455
Sr11 Sr17 4.225906 1_554
Sr11 Sr20 4.225907 1_455
Sr12 Sr20 3.886903 1_555
Sr12 Sr14 3.886903 1_555
Sr12 Sr16 3.886903 1_555
Sr12 Sr2 4.225896 1_554
Sr12 Sr4 4.225896 1_554
Sr12 Sr15 4.289747 1_554
Sr13 Sr16 3.886903 1_555
Sr13 Sr9 3.886903 1_555
Sr13 Sr17 3.886903 1_555
Sr13 Sr15 3.886903 1_555
Sr13 Sr3 4.225890 1_556
Sr13 Sr5 4.225890 1_545
Sr13 Sr4 4.225907 1_545
Sr13 Sr14 4.289747 1_546
Sr14 Sr19 3.886903 1_555
Sr14 Sr6 3.886903 1_555
Sr14 Sr20 3.886903 1_555
Sr14 Sr5 4.225890 1_554
Sr14 Sr3 4.225890 1_565
Sr14 Sr4 4.225906 1_554
Sr15 Sr17 3.886903 1_555
Sr15 Sr7 3.886903 1_555
Sr15 Sr19 3.886903 1_555
Sr15 Sr2 4.225883 1_555
Sr15 Sr4 4.225884 1_555
Sr16 Sr9 3.886903 1_555
Sr16 Sr8 4.225883 1_555
Sr16 Sr4 4.225896 1_545
Sr16 Sr19 4.289747 1_545
Sr17 Sr6 3.886903 1_555
Sr17 Sr5 4.225890 1_455
Sr17 Sr3 4.225891 1_556
Sr17 Sr2 4.225907 1_455
Sr17 Sr20 4.289747 1_456
Sr18 Sr8 3.861786 1_554
Sr18 Sr4 3.861786 1_544
Sr18 Sr2 3.861786 1_454
Sr18 Sr3 3.861806 1_555
Sr18 Sr5 3.861806 1_444
Sr19 Sr6 3.886903 1_555
Sr19 Sr7 3.886903 1_555
Sr19 Sr4 4.225883 1_555
Sr19 Sr8 4.225896 1_565
Sr20 Sr7 3.886903 1_555
Sr20 Sr9 3.886903 1_555
Sr20 Sr3 4.225890 1_655
Sr20 Sr5 4.225891 1_554
Ga0 Ga4 2.709834 1_555
Ga0 Ga1 2.709834 1_555
Ga0 Ga2 2.709834 1_555
Ga0 Sr5 3.359024 1_555
Ga0 Sr0 3.359065 1_555
Ga0 Sr4 3.359065 1_555
Ga0 Sr13 3.400071 1_565
Ga0 Sr9 3.400071 1_565
Ga0 Sr16 3.400085 1_565
Ga1 Ga2 2.709834 1_555
Ga1 Ga4 2.709834 1_555
Ga1 Sr5 3.359024 1_555
Ga1 Sr4 3.359065 1_555
Ga1 Sr2 3.359065 1_555
Ga1 Sr14 3.400071 1_556
Ga1 Sr20 3.400071 1_556
Ga1 Sr12 3.400085 1_556
Ga2 Ga4 2.709834 1_555
Ga2 Sr4 3.359046 1_555
Ga2 Sr0 3.359046 1_555
Ga2 Sr2 3.359046 1_555
Ga2 Sr19 3.400090 1_555
Ga2 Sr7 3.400090 1_555
Ga2 Sr15 3.400091 1_555
Ga3 Ga6 2.709834 1_555
Ga3 Ga5 2.709834 1_555
Ga3 Ga7 2.709834 1_555
Ga3 Sr3 3.359024 1_555
Ga3 Sr8 3.359065 1_555
Ga3 Sr1 3.359065 1_555
Ga3 Sr14 3.400071 1_545
Ga3 Sr6 3.400071 1_545
Ga3 Sr19 3.400085 1_545
Ga4 Sr5 3.359024 1_555
Ga4 Sr0 3.359065 1_555
Ga4 Sr2 3.359065 1_555
Ga4 Sr17 3.400071 1_655
Ga4 Sr6 3.400071 1_655
Ga4 Sr10 3.400085 1_655
Ga5 Ga7 2.709834 1_555
Ga5 Ga6 2.709834 1_555
Ga5 Sr3 3.359024 1_555
Ga5 Sr1 3.359065 1_555
Ga5 Sr11 3.359065 1_555
Ga5 Sr13 3.400071 1_554
Ga5 Sr17 3.400071 1_554
Ga5 Sr15 3.400085 1_554
Ga6 Ga7 2.709834 1_555
Ga6 Sr3 3.359024 1_555
Ga6 Sr8 3.359065 1_555
Ga6 Sr11 3.359065 1_555
Ga6 Sr20 3.400071 1_455
Ga6 Sr9 3.400071 1_455
Ga6 Sr7 3.400085 1_455
Ga7 Sr1 3.359046 1_555
Ga7 Sr8 3.359046 1_555
Ga7 Sr11 3.359046 1_555
Ga7 Sr16 3.400090 1_555
Ga7 Sr10 3.400090 1_555
Ga7 Sr12 3.400091 1_555
Sn0 Sr2 3.453607 1_555
Sn0 Sr1 3.453625 1_556
Sn0 Sr8 3.453625 1_655
Sn0 Sr5 3.453630 1_545
Sn0 Sr9 3.485288 1_555
Sn0 Sr13 3.485288 1_555
Sn0 Sr15 3.485289 1_555
Sn0 Sr7 3.485289 1_555
Sn0 Sr18 3.638583 1_656
Sn1 Sr1 3.453607 1_555
Sn1 Sr2 3.453625 1_554
Sn1 Sr0 3.453626 1_545
Sn1 Sr3 3.453629 1_655
Sn1 Sr9 3.485288 1_555
Sn1 Sr16 3.485288 1_555
Sn1 Sr12 3.485289 1_555
Sn1 Sr20 3.485289 1_555
Sn1 Sr18 3.638583 1_655
Sn2 Sr11 3.453607 1_555
Sn2 Sr4 3.453625 1_554
Sn2 Sr0 3.453625 1_455
Sn2 Sr3 3.453630 1_565
Sn2 Sr6 3.485288 1_555
Sn2 Sr14 3.485288 1_555
Sn2 Sr12 3.485289 1_555
Sn2 Sr10 3.485289 1_555
Sn2 Sr18 3.638583 1_565
Sn3 Sr4 3.453607 1_555
Sn3 Sr11 3.453625 1_556
Sn3 Sr8 3.453626 1_565
Sn3 Sr5 3.453629 1_455
Sn3 Sr6 3.485288 1_555
Sn3 Sr19 3.485288 1_555
Sn3 Sr15 3.485289 1_555
Sn3 Sr17 3.485289 1_555
Sn3 Sr18 3.638583 1_566
Sn4 Sr0 3.453607 1_555
Sn4 Sr11 3.453625 1_655
Sn4 Sr1 3.453626 1_565
Sn4 Sr5 3.453629 1_554
Sn4 Sr14 3.485288 1_555
Sn4 Sr19 3.485288 1_555
Sn4 Sr20 3.485289 1_555
Sn4 Sr7 3.485289 1_555
Sn4 Sr18 3.638583 1_665
Sn5 Sr8 3.453607 1_555
Sn5 Sr2 3.453625 1_455
Sn5 Sr4 3.453626 1_545
Sn5 Sr3 3.453629 1_556
Sn5 Sr13 3.485288 1_555
Sn5 Sr16 3.485288 1_555
Sn5 Sr17 3.485289 1_555
Sn5 Sr10 3.485289 1_555
Sn5 Sr18 3.638583 1_556
Bi0 Sr12 3.886903 1_555
Bi0 Sr15 3.886903 1_555
Bi0 Sr10 3.886903 1_555
Bi0 Sr20 3.886903 1_555
Bi0 Sr17 3.886903 1_555
Bi0 Sr7 3.886903 1_555
Bi0 Sr9 3.886903 1_555
Bi0 Sr6 3.886903 1_555
Bi0 Sr19 3.886903 1_555
Bi0 Sr14 3.886903 1_555
Bi0 Sr13 3.886903 1_555
Bi0 Sr16 3.886903 1_555
