# generated using pymatgen
data_CaTiFe(PO4)3
_symmetry_space_group_name_H-M   'P 1'
_cell_length_a   8.86057240
_cell_length_b   8.86057240
_cell_length_c   8.86057176
_cell_angle_alpha   58.53616708
_cell_angle_beta   58.53616708
_cell_angle_gamma   58.53617230
_symmetry_Int_Tables_number   1
_chemical_formula_structural   CaTiFe(PO4)3
_chemical_formula_sum   'Ca2 Ti2 Fe2 P6 O24'
_cell_volume   475.42425655
_cell_formula_units_Z   2
loop_
 _symmetry_equiv_pos_site_id
 _symmetry_equiv_pos_as_xyz
  1  'x, y, z'
loop_
 _atom_site_type_symbol
 _atom_site_label
 _atom_site_symmetry_multiplicity
 _atom_site_fract_x
 _atom_site_fract_y
 _atom_site_fract_z
 _atom_site_occupancy
  Ca  Ca0  1  0.99778100  0.99778100  0.99778100  1
  Ca  Ca1  1  0.49778100  0.49778100  0.49778100  1
  Ti  Ti0  1  0.14748900  0.14748900  0.14748900  1
  Ti  Ti1  1  0.64748900  0.64748900  0.64748900  1
  Fe  Fe0  1  0.35222800  0.35222800  0.35222800  1
  Fe  Fe1  1  0.85222800  0.85222800  0.85222800  1
  P  P0  1  0.45976300  0.04154100  0.75086600  1
  P  P1  1  0.75086600  0.45976300  0.04154100  1
  P  P2  1  0.04154100  0.75086600  0.45976300  1
  P  P3  1  0.95976300  0.25086600  0.54154100  1
  P  P4  1  0.25086600  0.54154100  0.95976300  1
  P  P5  1  0.54154100  0.95976300  0.25086600  1
  O  O0  1  0.50708700  0.12075700  0.29679000  1
  O  O1  1  0.12075700  0.29679000  0.50708700  1
  O  O2  1  0.27179700  0.05831800  0.92157200  1
  O  O3  1  0.29679000  0.50708700  0.12075700  1
  O  O4  1  0.62075700  0.00708700  0.79679000  1
  O  O5  1  0.43693500  0.22675000  0.58299800  1
  O  O6  1  0.92157200  0.27179700  0.05831800  1
  O  O7  1  0.58299800  0.43693500  0.22675000  1
  O  O8  1  0.99863100  0.20642900  0.37226900  1
  O  O9  1  0.22675000  0.58299800  0.43693500  1
  O  O10  1  0.93693500  0.08299800  0.72675000  1
  O  O11  1  0.20642900  0.37226900  0.99863100  1
  O  O12  1  0.79679000  0.62075700  0.00708700  1
  O  O13  1  0.05831800  0.92157200  0.27179700  1
  O  O14  1  0.77179700  0.42157200  0.55831800  1
  O  O15  1  0.00708700  0.79679000  0.62075700  1
  O  O16  1  0.42157200  0.55831800  0.77179700  1
  O  O17  1  0.08299800  0.72675000  0.93693500  1
  O  O18  1  0.55831800  0.77179700  0.42157200  1
  O  O19  1  0.37226900  0.99863100  0.20642900  1
  O  O20  1  0.70642900  0.49863100  0.87226900  1
  O  O21  1  0.72675000  0.93693500  0.08299800  1
  O  O22  1  0.87226900  0.70642900  0.49863100  1
  O  O23  1  0.49863100  0.87226900  0.70642900  1
loop_
_geom_bond_atom_site_label_1
_geom_bond_atom_site_label_2
_geom_bond_distance
_geom_bond_site_symmetry_2
Ca0 O10 2.379418 1_565
Ca0 O21 2.379418 1_556
Ca0 O17 2.379418 1_655
Ca0 O13 2.430741 1_656
Ca0 O2 2.430741 1_665
Ca0 O6 2.430742 1_566
Ca1 O7 2.379418 1_555
Ca1 O5 2.379418 1_555
Ca1 O9 2.379418 1_555
Ca1 O16 2.430741 1_555
Ca1 O18 2.430741 1_555
Ca1 O14 2.430742 1_555
Fe0 O3 1.934114 1_555
Fe0 O1 1.934114 1_555
Fe0 O0 1.934114 1_555
Fe0 O5 2.082840 1_555
Fe0 O7 2.082840 1_555
Fe0 O9 2.082841 1_555
Fe1 O15 1.934114 1_655
Fe1 O12 1.934114 1_556
Fe1 O4 1.934114 1_565
Fe1 O21 2.082840 1_556
Fe1 O10 2.082840 1_565
Fe1 O17 2.082841 1_655
O0 P5 1.521624 1_545
O1 P3 1.521624 1_455
O2 P0 1.558925 1_555
O2 Ti0 2.070119 1_556
O3 P4 1.521624 1_554
O4 P0 1.521624 1_555
O5 P0 1.538113 1_555
O6 P1 1.558926 1_555
O6 Ti0 2.070119 1_655
O7 P1 1.538113 1_555
O8 P3 1.568081 1_555
O8 Ti0 1.898318 1_655
O9 P2 1.538113 1_555
O10 P3 1.538113 1_555
O11 P4 1.568082 1_555
O11 Ti0 1.898318 1_556
O12 P1 1.521624 1_555
O13 P2 1.558925 1_555
O13 Ti0 2.070119 1_565
O14 P3 1.558926 1_555
O14 Ti1 2.070119 1_555
O15 P2 1.521624 1_555
O16 P4 1.558925 1_555
O16 Ti1 2.070119 1_555
O17 P4 1.538113 1_555
O18 P5 1.558925 1_555
O18 Ti1 2.070119 1_555
O19 P5 1.568082 1_555
O19 Ti0 1.898318 1_565
O20 P1 1.568081 1_556
O20 Ti1 1.898318 1_555
O21 P5 1.538113 1_555
O22 P2 1.568082 1_655
O22 Ti1 1.898318 1_555
O23 P0 1.568082 1_565
O23 Ti1 1.898318 1_555
