# generated using pymatgen
data_Y20MgIn5Ru2
_symmetry_space_group_name_H-M   'P 1'
_cell_length_a   9.80021080
_cell_length_b   9.82820967
_cell_length_c   9.73459086
_cell_angle_alpha   90.00000000
_cell_angle_beta   90.00000000
_cell_angle_gamma   120.09484456
_symmetry_Int_Tables_number   1
_chemical_formula_structural   Y20MgIn5Ru2
_chemical_formula_sum   'Y20 Mg1 In5 Ru2'
_cell_volume   811.22683504
_cell_formula_units_Z   1
loop_
 _symmetry_equiv_pos_site_id
 _symmetry_equiv_pos_as_xyz
  1  'x, y, z'
loop_
 _atom_site_type_symbol
 _atom_site_label
 _atom_site_symmetry_multiplicity
 _atom_site_fract_x
 _atom_site_fract_y
 _atom_site_fract_z
 _atom_site_occupancy
  Y  Y0  1  0.99971349  0.00007828  0.49810530  1
  Y  Y1  1  0.99971349  0.00007828  0.00189470  1
  Y  Y2  1  0.21092750  0.78999926  0.43806129  1
  Y  Y3  1  0.21126103  0.42109892  0.43796657  1
  Y  Y4  1  0.57936782  0.78950502  0.43715112  1
  Y  Y5  1  0.78924903  0.21201885  0.56125386  1
  Y  Y6  1  0.78930674  0.57756013  0.56119329  1
  Y  Y7  1  0.41978310  0.20972952  0.56216026  1
  Y  Y8  1  0.78924903  0.21201885  0.93874614  1
  Y  Y9  1  0.78930674  0.57756013  0.93880671  1
  Y  Y10  1  0.41978310  0.20972952  0.93783974  1
  Y  Y11  1  0.21092750  0.78999926  0.06193871  1
  Y  Y12  1  0.21126103  0.42109892  0.06203343  1
  Y  Y13  1  0.57936782  0.78950502  0.06284888  1
  Y  Y14  1  0.54098266  0.45879306  0.25000000  1
  Y  Y15  1  0.54062784  0.08108393  0.25000000  1
  Y  Y16  1  0.92308137  0.46150057  0.25000000  1
  Y  Y17  1  0.45856262  0.53886770  0.75000000  1
  Y  Y18  1  0.45855252  0.91912928  0.75000000  1
  Y  Y19  1  0.08371902  0.54195270  0.75000000  1
  Mg  Mg0  1  0.77372592  0.88686397  0.75000000  1
  In  In0  1  0.88393821  0.11987979  0.25000000  1
  In  In1  1  0.88391770  0.76421226  0.25000000  1
  In  In2  1  0.23515277  0.11737778  0.25000000  1
  In  In3  1  0.11169503  0.88034790  0.75000000  1
  In  In4  1  0.11143647  0.23155700  0.75000000  1
  Ru  Ru0  1  0.33064817  0.66568998  0.25000000  1
  Ru  Ru1  1  0.66474228  0.33276314  0.75000000  1
loop_
_geom_bond_atom_site_label_1
_geom_bond_atom_site_label_2
_geom_bond_distance
_geom_bond_site_symmetry_2
Y0 Y4 3.613213 1_545
Y0 Y7 3.615987 1_655
Y0 Y3 3.627629 1_655
Y0 Y2 3.629787 1_645
Y0 Y5 3.644140 1_555
Y0 Y6 3.644979 1_545
Y1 Y13 3.613213 1_545
Y1 Y10 3.615987 1_654
Y1 Y12 3.627629 1_655
Y1 Y11 3.629787 1_645
Y1 Y8 3.644140 1_554
Y1 Y9 3.644979 1_544
Y10 Y17 3.566409 1_555
Y10 Y18 3.568389 1_545
Y10 Y14 3.704182 1_556
Y10 Y15 3.706327 1_556
Y11 Y16 3.549521 1_455
Y11 Y15 3.564526 1_565
Y11 Y18 3.692171 1_554
Y11 Y19 3.697340 1_554
Y12 Y16 3.550581 1_455
Y12 Y14 3.567403 1_555
Y12 Y17 3.691454 1_554
Y12 Y19 3.699807 1_554
Y13 Y15 3.573035 1_565
Y13 Y14 3.577554 1_555
Y13 Y18 3.716508 1_554
Y13 Y17 3.717481 1_554
Y14 Y3 3.567403 1_555
Y14 Y4 3.577554 1_555
Y14 Y6 3.689596 1_555
Y14 Y9 3.689596 1_554
Y14 Y7 3.704182 1_555
Y14 Y15 3.710462 1_555
Y14 Y16 3.731376 1_555
Y15 Y2 3.564526 1_545
Y15 Y4 3.573035 1_545
Y15 Y5 3.691712 1_555
Y15 Y8 3.691712 1_554
Y15 Y7 3.706327 1_555
Y15 Y16 3.738111 1_555
Y16 Y2 3.549521 1_655
Y16 Y3 3.550581 1_655
Y16 Y5 3.699683 1_555
Y16 Y8 3.699683 1_554
Y16 Y6 3.700875 1_555
Y16 Y9 3.700875 1_554
Y17 Y7 3.566409 1_555
Y17 Y9 3.576727 1_555
Y17 Y6 3.576727 1_555
Y17 Y19 3.688843 1_555
Y17 Y3 3.691454 1_555
Y17 Y4 3.717481 1_555
Y17 Y18 3.737340 1_555
Y18 Y7 3.568389 1_565
Y18 Y8 3.579054 1_565
Y18 Y5 3.579054 1_565
Y18 Y19 3.685032 1_555
Y18 Y2 3.692171 1_555
Y18 Y4 3.716508 1_555
Y19 Y8 3.582497 1_455
Y19 Y5 3.582497 1_455
Y19 Y9 3.583036 1_455
Y19 Y6 3.583036 1_455
Y19 Y2 3.697340 1_555
Y19 Y3 3.699807 1_555
Mg0 Y1 3.111989 1_566
Mg0 Y0 3.111989 1_565
Mg0 Y18 3.259343 1_555
Mg0 Y17 3.262426 1_555
Mg0 Y13 3.462752 1_556
Mg0 Y4 3.462752 1_555
Mg0 Y9 3.620486 1_555
Mg0 Y6 3.620486 1_555
Mg0 Y8 3.622698 1_565
Mg0 Y5 3.622698 1_565
In0 Y0 3.137945 1_555
In0 Y1 3.137945 1_555
In0 Y16 3.182519 1_555
In0 Y15 3.190422 1_555
In0 Y5 3.421169 1_555
In0 Y8 3.421169 1_554
In0 In2 3.454373 1_655
In0 In1 3.495474 1_545
In0 Y3 3.588688 1_655
In0 Y12 3.588688 1_655
In0 Y4 3.612733 1_545
In0 Y13 3.612733 1_545
In1 Y0 3.139521 1_565
In1 Y1 3.139521 1_565
In1 Y16 3.184929 1_555
In1 Y14 3.191920 1_555
In1 Y6 3.419948 1_555
In1 Y9 3.419948 1_554
In1 In2 3.451715 1_665
In1 Y2 3.587711 1_655
In1 Y11 3.587711 1_655
In1 Y4 3.610139 1_555
In1 Y13 3.610139 1_555
In2 Y0 3.133449 1_455
In2 Y1 3.133449 1_455
In2 Y14 3.186951 1_555
In2 Y15 3.187558 1_555
In2 Y7 3.418305 1_555
In2 Y10 3.418305 1_554
In2 Y2 3.604767 1_545
In2 Y11 3.604767 1_545
In2 Y12 3.607530 1_555
In2 Y3 3.607530 1_555
In3 Y1 3.145940 1_466
In3 Y0 3.145940 1_465
In3 Y19 3.197153 1_555
In3 Y18 3.225059 1_555
In3 Mg0 3.344740 1_455
In3 Y11 3.438193 1_556
In3 Y2 3.438193 1_555
In3 In4 3.453028 1_565
In3 Y9 3.575892 1_455
In3 Y6 3.575892 1_455
In3 Y10 3.624542 1_565
In3 Y7 3.624542 1_565
In4 Y1 3.144713 1_456
In4 Y0 3.144713 1_455
In4 Y19 3.195496 1_555
In4 Y17 3.223508 1_555
In4 Mg0 3.344558 1_445
In4 Y12 3.438920 1_556
In4 Y3 3.438920 1_555
In4 Y8 3.574153 1_455
In4 Y5 3.574153 1_455
In4 Y10 3.629237 1_555
In4 Y7 3.629237 1_555
Ru0 Y2 2.767357 1_555
Ru0 Y11 2.767357 1_555
Ru0 Y12 2.770391 1_555
Ru0 Y3 2.770391 1_555
Ru0 Y4 2.786876 1_555
Ru0 Y13 2.786876 1_555
Ru0 Y16 3.455805 1_455
Ru0 Y15 3.532249 1_565
Ru0 Y14 3.547877 1_555
Ru1 Y10 2.767251 1_555
Ru1 Y7 2.767251 1_555
Ru1 Y9 2.776924 1_555
Ru1 Y6 2.776924 1_555
Ru1 Y8 2.779423 1_555
Ru1 Y5 2.779423 1_555
Ru1 Y17 3.505823 1_555
Ru1 Y18 3.517311 1_545
Ru1 Y19 3.552550 1_655
