# generated using pymatgen
data_Sr3Sn4IrRh3
_symmetry_space_group_name_H-M   'P 1'
_cell_length_a   7.04058392
_cell_length_b   7.02924381
_cell_length_c   7.02924263
_cell_angle_alpha   109.43851142
_cell_angle_beta   109.50390571
_cell_angle_gamma   109.50391319
_symmetry_Int_Tables_number   1
_chemical_formula_structural   Sr3Sn4IrRh3
_chemical_formula_sum   'Sr3 Sn4 Ir1 Rh3'
_cell_volume   267.68779411
_cell_formula_units_Z   1
loop_
 _symmetry_equiv_pos_site_id
 _symmetry_equiv_pos_as_xyz
  1  'x, y, z'
loop_
 _atom_site_type_symbol
 _atom_site_label
 _atom_site_symmetry_multiplicity
 _atom_site_fract_x
 _atom_site_fract_y
 _atom_site_fract_z
 _atom_site_occupancy
  Sr  Sr0  1  0.50002068  0.50165337  1.00000000  1
  Sr  Sr1  1  0.99836731  0.49834663  0.49834663  1
  Sr  Sr2  1  0.50002068  0.00000000  0.50165337  1
  Sn  Sn0  1  0.38179895  1.00000000  1.00000000  1
  Sn  Sn1  1  0.00052365  1.00000000  0.38270847  1
  Sn  Sn2  1  0.00052365  0.38270847  0.00000000  1
  Sn  Sn3  1  0.61781418  0.61729053  0.61729153  1
  Ir  Ir0  1  0.74791391  0.00000000  0.00000000  1
  Rh  Rh0  1  0.00042137  0.74824911  1.00000000  1
  Rh  Rh1  1  0.00042137  1.00000000  0.74824911  1
  Rh  Rh2  1  0.25217326  0.25175089  0.25175089  1
loop_
_geom_bond_atom_site_label_1
_geom_bond_atom_site_label_2
_geom_bond_distance
_geom_bond_site_symmetry_2
Sn0 Sr2 3.341755 1_566
Sn0 Sr1 3.341756 1_455
Sn0 Sr0 3.341756 1_565
Sn1 Sr0 3.328739 1_454
Sn1 Sr1 3.328740 1_465
Sn1 Sr2 3.332147 1_565
Sn2 Sr1 3.328739 1_455
Sn2 Sr2 3.328739 1_454
Sn2 Sr0 3.332147 1_554
Sn3 Sr0 3.328733 1_555
Sn3 Sr2 3.328743 1_565
Sn3 Sr1 3.332151 1_555
Ir0 Sn0 2.577663 1_544
Ir0 Sn1 2.684258 1_645
Ir0 Sn2 2.684258 1_655
Ir0 Sn3 2.684260 1_544
Ir0 Rh1 2.897043 1_644
Ir0 Rh0 2.897043 1_644
Ir0 Rh2 2.897048 1_655
Ir0 Sr2 3.351814 1_554
Ir0 Sr1 3.351815 1_555
Ir0 Sr0 3.351815 1_544
Rh0 Sn2 2.569715 1_556
Rh0 Sn0 2.677415 1_555
Rh0 Sn1 2.682862 1_556
Rh0 Sn3 2.682863 1_455
Rh0 Rh1 2.889191 1_555
Rh0 Rh2 2.889191 1_566
Rh0 Sr0 3.367358 1_455
Rh0 Sr2 3.368451 1_566
Rh0 Sr1 3.368451 1_455
Rh1 Sn1 2.569714 1_555
Rh1 Sn0 2.677415 1_555
Rh1 Sn2 2.682862 1_566
Rh1 Sn3 2.682870 1_455
Rh1 Rh2 2.889191 1_566
Rh1 Sr2 3.367358 1_465
Rh1 Sr0 3.368451 1_565
Rh1 Sr1 3.368451 1_455
Rh2 Sn3 2.569707 1_555
Rh2 Sn0 2.677410 1_544
Rh2 Sn1 2.682866 1_545
Rh2 Sn2 2.682866 1_555
Rh2 Sr1 3.367365 1_455
Rh2 Sr0 3.368447 1_554
Rh2 Sr2 3.368447 1_555
