# generated using pymatgen
data_LiCa2(As3Pd10)2
_symmetry_space_group_name_H-M   'P 1'
_cell_length_a   8.78003988
_cell_length_b   8.78003968
_cell_length_c   8.78003985
_cell_angle_alpha   60.00000303
_cell_angle_beta   60.00000376
_cell_angle_gamma   60.00000178
_symmetry_Int_Tables_number   1
_chemical_formula_structural   LiCa2(As3Pd10)2
_chemical_formula_sum   'Li1 Ca2 As6 Pd20'
_cell_volume   478.60197317
_cell_formula_units_Z   1
loop_
 _symmetry_equiv_pos_site_id
 _symmetry_equiv_pos_as_xyz
  1  'x, y, z'
loop_
 _atom_site_type_symbol
 _atom_site_label
 _atom_site_symmetry_multiplicity
 _atom_site_fract_x
 _atom_site_fract_y
 _atom_site_fract_z
 _atom_site_occupancy
  Li  Li0  1  0.00000000  0.00000000  0.00000000  1
  Ca  Ca0  1  0.25000000  0.25000000  0.25000000  1
  Ca  Ca1  1  0.75000000  0.75000000  0.75000000  1
  As  As0  1  0.73772045  0.26227955  0.26227955  1
  As  As1  1  0.26227955  0.73772045  0.73772045  1
  As  As2  1  0.26227955  0.73772045  0.26227955  1
  As  As3  1  0.73772045  0.26227955  0.73772045  1
  As  As4  1  0.26227955  0.26227955  0.73772045  1
  As  As5  1  0.73772045  0.73772045  0.26227955  1
  Pd  Pd0  1  0.38433524  0.38433524  0.38433524  1
  Pd  Pd1  1  0.61566476  0.61566476  0.61566476  1
  Pd  Pd2  1  0.38433524  0.38433524  0.84699327  1
  Pd  Pd3  1  0.38433524  0.84699327  0.38433524  1
  Pd  Pd4  1  0.61566476  0.61566476  0.15300673  1
  Pd  Pd5  1  0.61566476  0.15300673  0.61566476  1
  Pd  Pd6  1  0.84699327  0.38433524  0.38433524  1
  Pd  Pd7  1  0.15300673  0.61566476  0.61566476  1
  Pd  Pd8  1  0.34782462  0.00000000  0.00000000  1
  Pd  Pd9  1  0.65217538  1.00000000  1.00000000  1
  Pd  Pd10  1  1.00000000  0.34782462  0.65217538  1
  Pd  Pd11  1  0.00000000  0.65217538  0.34782462  1
  Pd  Pd12  1  0.00000000  0.34782462  0.00000000  1
  Pd  Pd13  1  0.65217538  0.00000000  0.34782462  1
  Pd  Pd14  1  1.00000000  0.65217538  1.00000000  1
  Pd  Pd15  1  0.34782462  1.00000000  0.65217538  1
  Pd  Pd16  1  0.00000000  0.00000000  0.34782462  1
  Pd  Pd17  1  1.00000000  1.00000000  0.65217538  1
  Pd  Pd18  1  0.65217538  0.34782462  1.00000000  1
  Pd  Pd19  1  0.34782462  0.65217538  0.00000000  1
loop_
_geom_bond_atom_site_label_1
_geom_bond_atom_site_label_2
_geom_bond_distance
_geom_bond_site_symmetry_2
Li0 Pd12 3.053914 1_555
Li0 Pd14 3.053914 1_444
Li0 Pd16 3.053914 1_555
Li0 Pd17 3.053914 1_444
Li0 Pd8 3.053914 1_555
Li0 Pd9 3.053914 1_444
Li0 Pd19 3.053914 1_545
Li0 Pd18 3.053914 1_454
Li0 Pd11 3.053914 1_545
Li0 Pd10 3.053914 1_454
Li0 Pd15 3.053914 1_544
Li0 Pd13 3.053914 1_455
Ca0 Pd0 2.889097 1_555
Ca0 Pd3 2.889104 1_545
Ca0 Pd6 2.889104 1_455
Ca0 Pd2 2.889104 1_554
Ca0 Pd8 3.379544 1_555
Ca0 Pd12 3.379544 1_555
Ca0 Pd16 3.379544 1_555
Ca0 Pd11 3.379544 1_555
Ca0 Pd13 3.379544 1_555
Ca0 Pd19 3.379544 1_555
Ca0 Pd14 3.379544 1_454
Ca0 Pd15 3.379544 1_545
Ca0 Pd10 3.379544 1_455
Ca0 Pd9 3.379544 1_544
Ca0 Pd18 3.379544 1_554
Ca0 Pd17 3.379544 1_445
Ca1 Pd1 2.889097 1_555
Ca1 Pd5 2.889104 1_565
Ca1 Pd7 2.889104 1_655
Ca1 Pd4 2.889104 1_556
Ca1 Pd9 3.379544 1_555
Ca1 Pd14 3.379544 1_555
Ca1 Pd17 3.379544 1_555
Ca1 Pd10 3.379544 1_555
Ca1 Pd15 3.379544 1_555
Ca1 Pd18 3.379544 1_555
Ca1 Pd12 3.379544 1_656
Ca1 Pd13 3.379544 1_565
Ca1 Pd11 3.379544 1_655
Ca1 Pd8 3.379544 1_566
Ca1 Pd19 3.379544 1_556
Ca1 Pd16 3.379544 1_665
As0 Pd13 2.422217 1_555
As0 Pd18 2.422217 1_554
As0 Pd16 2.422218 1_655
As0 Pd12 2.422218 1_655
As0 Pd6 2.534195 1_555
As0 Pd0 2.534202 1_555
As0 Pd4 2.534202 1_555
As0 Pd5 2.534202 1_555
As1 Pd15 2.422217 1_555
As1 Pd19 2.422217 1_556
As1 Pd17 2.422218 1_455
As1 Pd14 2.422218 1_455
As1 Pd7 2.534195 1_555
As1 Pd1 2.534202 1_555
As1 Pd2 2.534202 1_555
As1 Pd3 2.534202 1_555
As2 Pd19 2.422217 1_555
As2 Pd11 2.422217 1_555
As2 Pd16 2.422218 1_565
As2 Pd8 2.422218 1_565
As2 Pd3 2.534195 1_555
As2 Pd0 2.534202 1_555
As2 Pd4 2.534202 1_555
As2 Pd7 2.534202 1_555
As3 Pd18 2.422217 1_555
As3 Pd10 2.422217 1_555
As3 Pd17 2.422218 1_545
As3 Pd9 2.422218 1_545
As3 Pd5 2.534195 1_555
As3 Pd1 2.534202 1_555
As3 Pd2 2.534202 1_555
As3 Pd6 2.534202 1_555
As4 Pd15 2.422217 1_545
As4 Pd10 2.422217 1_455
As4 Pd8 2.422218 1_556
As4 Pd12 2.422218 1_556
As4 Pd2 2.534195 1_555
As4 Pd0 2.534202 1_555
As4 Pd7 2.534202 1_555
As4 Pd5 2.534202 1_555
As5 Pd13 2.422217 1_565
As5 Pd11 2.422217 1_655
As5 Pd9 2.422218 1_554
As5 Pd14 2.422218 1_554
As5 Pd4 2.534195 1_555
As5 Pd1 2.534202 1_555
As5 Pd6 2.534202 1_555
As5 Pd3 2.534202 1_555
Pd0 Pd13 3.067966 1_555
Pd0 Pd11 3.067966 1_555
Pd0 Pd15 3.067966 1_545
Pd0 Pd19 3.067966 1_555
Pd0 Pd18 3.067966 1_554
Pd0 Pd10 3.067966 1_455
Pd1 Pd15 3.067966 1_555
Pd1 Pd10 3.067966 1_555
Pd1 Pd13 3.067966 1_565
Pd1 Pd18 3.067966 1_555
Pd1 Pd19 3.067966 1_556
Pd1 Pd11 3.067966 1_655
Pd2 Pd8 3.067964 1_556
Pd2 Pd9 3.067968 1_545
Pd3 Pd8 3.067964 1_565
Pd3 Pd9 3.067968 1_554
Pd4 Pd9 3.067964 1_554
Pd4 Pd8 3.067968 1_565
Pd5 Pd9 3.067964 1_545
Pd5 Pd8 3.067968 1_556
Pd8 Pd9 2.672212 1_544
Pd10 Pd11 2.672212 1_655
Pd10 Pd17 3.053914 1_545
Pd10 Pd12 3.053914 1_656
Pd10 Pd15 3.053914 1_645
Pd10 Pd18 3.053914 1_555
Pd10 Pd7 3.067972 1_655
Pd10 Pd6 3.067972 1_555
Pd11 Pd16 3.053914 1_565
Pd11 Pd14 3.053914 1_454
Pd11 Pd13 3.053914 1_465
Pd11 Pd19 3.053914 1_555
Pd11 Pd6 3.067972 1_455
Pd11 Pd7 3.067972 1_555
Pd12 Pd14 2.672212 1_454
Pd12 Pd18 3.053914 1_454
Pd12 Pd8 3.053914 1_555
Pd12 Pd16 3.053914 1_555
Pd12 Pd6 3.067964 1_455
Pd12 Pd2 3.067964 1_554
Pd12 Pd4 3.067968 1_455
Pd12 Pd7 3.067968 1_554
Pd13 Pd15 2.672212 1_545
Pd13 Pd9 3.053914 1_544
Pd13 Pd16 3.053914 1_655
Pd13 Pd18 3.053914 1_554
Pd13 Pd5 3.067972 1_555
Pd13 Pd3 3.067972 1_545
Pd14 Pd19 3.053914 1_656
Pd14 Pd9 3.053914 1_555
Pd14 Pd17 3.053914 1_555
Pd14 Pd7 3.067964 1_655
Pd14 Pd4 3.067964 1_556
Pd14 Pd2 3.067968 1_655
Pd14 Pd6 3.067968 1_556
Pd15 Pd8 3.053914 1_566
Pd15 Pd17 3.053914 1_455
Pd15 Pd19 3.053914 1_556
Pd15 Pd3 3.067972 1_555
Pd15 Pd5 3.067972 1_565
Pd16 Pd17 2.672212 1_445
Pd16 Pd8 3.053914 1_555
Pd16 Pd6 3.067964 1_455
Pd16 Pd3 3.067964 1_545
Pd16 Pd7 3.067968 1_545
Pd16 Pd5 3.067968 1_455
Pd17 Pd9 3.053914 1_555
Pd17 Pd7 3.067964 1_655
Pd17 Pd5 3.067964 1_565
Pd17 Pd6 3.067968 1_565
Pd17 Pd3 3.067968 1_655
Pd18 Pd19 2.672212 1_556
Pd18 Pd9 3.053914 1_545
Pd18 Pd4 3.067972 1_556
Pd18 Pd2 3.067972 1_555
Pd19 Pd8 3.053914 1_565
Pd19 Pd2 3.067972 1_554
Pd19 Pd4 3.067972 1_555
