# generated using pymatgen
data_Y6Ni7B4Ir7
_symmetry_space_group_name_H-M   'P 1'
_cell_length_a   5.18587932
_cell_length_b   5.18587921
_cell_length_c   14.71813117
_cell_angle_alpha   89.06191538
_cell_angle_beta   90.93808607
_cell_angle_gamma   118.15777435
_symmetry_Int_Tables_number   1
_chemical_formula_structural   Y6Ni7B4Ir7
_chemical_formula_sum   'Y6 Ni7 B4 Ir7'
_cell_volume   348.91151904
_cell_formula_units_Z   1
loop_
 _symmetry_equiv_pos_site_id
 _symmetry_equiv_pos_as_xyz
  1  'x, y, z'
loop_
 _atom_site_type_symbol
 _atom_site_label
 _atom_site_symmetry_multiplicity
 _atom_site_fract_x
 _atom_site_fract_y
 _atom_site_fract_z
 _atom_site_occupancy
  Y  Y0  1  0.33187863  0.66812137  0.46598116  1
  Y  Y1  1  0.66559248  0.33440752  0.96845139  1
  Y  Y2  1  0.66809548  0.33190452  0.53622969  1
  Y  Y3  1  0.32850569  0.67149431  0.03110012  1
  Y  Y4  1  0.66805806  0.33194194  0.75345230  1
  Y  Y5  1  0.33173127  0.66826873  0.24720646  1
  Ni  Ni0  1  0.83426713  0.67461013  0.14853759  1
  Ni  Ni1  1  0.32538987  0.16573287  0.14853759  1
  Ni  Ni2  1  0.67684878  0.83421709  0.84949150  1
  Ni  Ni3  1  0.16578291  0.32315122  0.84949150  1
  Ni  Ni4  1  0.16449416  0.83550584  0.65579615  1
  Ni  Ni5  1  0.16828979  0.83171021  0.84899790  1
  Ni  Ni6  1  0.83502517  0.16497483  0.34690386  1
  B  B0  1  0.66472428  0.33527572  0.24496884  1
  B  B1  1  0.33285792  0.66714208  0.75654498  1
  B  B2  1  0.00261367  0.99738633  0.75503932  1
  B  B3  1  0.00117013  0.99882987  0.24624394  1
  Ir  Ir0  1  0.83278136  0.66824278  0.34855812  1
  Ir  Ir1  1  0.33175722  0.16721864  0.34855812  1
  Ir  Ir2  1  0.00430227  0.99569773  0.99605243  1
  Ir  Ir3  1  0.00020677  0.99979323  0.50081018  1
  Ir  Ir4  1  0.83134663  0.16865337  0.14530833  1
  Ir  Ir5  1  0.66846153  0.83418318  0.65386776  1
  Ir  Ir6  1  0.16581682  0.33153847  0.65386776  1
loop_
_geom_bond_atom_site_label_1
_geom_bond_atom_site_label_2
_geom_bond_distance
_geom_bond_site_symmetry_2
Y0 Y2 3.146477 1_555
Y0 Y2 3.217356 1_565
Y0 Y2 3.217356 1_455
Y0 Y5 3.219930 1_555
Y1 Y3 3.154602 1_556
Y1 Y3 3.162525 1_546
Y1 Y3 3.162525 1_656
Y1 Y4 3.164879 1_555
Y2 Y4 3.197117 1_555
Y3 Y5 3.180263 1_555
Ni0 Y5 2.953163 1_655
Ni0 Y5 2.990520 1_555
Ni0 Y1 3.086055 1_554
Ni0 Y3 3.111187 1_555
Ni0 Y3 3.121247 1_655
Ni1 Y5 2.953163 1_545
Ni1 Y5 2.990520 1_555
Ni1 Y1 3.086055 1_554
Ni1 Y3 3.111187 1_555
Ni1 Y3 3.121247 1_545
Ni2 Y4 2.941407 1_565
Ni2 Y4 2.964987 1_555
Ni2 Y1 3.082063 1_555
Ni2 Y3 3.124986 1_556
Ni2 Y1 3.176849 1_565
Ni3 Y4 2.941408 1_455
Ni3 Y4 2.964987 1_555
Ni3 Y1 3.082063 1_555
Ni3 Y3 3.124986 1_556
Ni3 Y1 3.176849 1_455
Ni4 Y4 3.027592 1_565
Ni4 Y4 3.027592 1_455
Ni4 Y0 3.190894 1_555
Ni4 Y2 3.193936 1_455
Ni4 Y2 3.193936 1_565
Ni5 Y3 3.011620 1_556
Ni5 Y4 3.013073 1_455
Ni5 Y4 3.013074 1_565
Ni5 Y1 3.192865 1_565
Ni5 Y1 3.192865 1_455
Ni6 Y5 3.041962 1_545
Ni6 Y5 3.041962 1_655
Ni6 Y2 3.182571 1_555
Ni6 Y0 3.189893 1_655
Ni6 Y0 3.189893 1_545
B0 Ni1 2.093547 1_555
B0 Ni0 2.093547 1_555
B0 Ir4 2.105354 1_555
B0 Ni6 2.111916 1_555
B0 Ir0 2.165191 1_555
B0 Ir1 2.165191 1_555
B0 Y5 2.963676 1_555
B0 Y5 3.050985 1_545
B0 Y5 3.050985 1_655
B1 Ni5 2.017857 1_555
B1 Ni2 2.074740 1_555
B1 Ni3 2.074740 1_555
B1 Ni4 2.087620 1_555
B1 Ir6 2.164143 1_555
B1 Ir5 2.164143 1_555
B1 Y4 2.983719 1_555
B1 Y4 3.041519 1_565
B1 Y4 3.041519 1_455
B2 Ni5 2.001913 1_555
B2 Ni3 2.047379 1_565
B2 Ni2 2.047379 1_455
B2 Ni4 2.070872 1_555
B2 Ir5 2.123446 1_455
B2 Ir6 2.123446 1_565
B2 Y4 2.976414 1_465
B2 Y4 3.044671 1_455
B2 Y4 3.044671 1_565
B3 Ni0 2.075827 1_455
B3 Ni1 2.075827 1_565
B3 Ir4 2.098691 1_465
B3 Ni6 2.112794 1_465
B3 Ir1 2.124831 1_565
B3 Ir0 2.124831 1_455
B3 Y5 2.940991 1_555
B3 Y5 3.061876 1_565
B3 Y5 3.061876 1_455
Ir0 Ni6 2.570239 1_565
Ir0 Ni6 2.615911 1_555
Ir0 Ir3 2.717554 1_655
Ir0 Y5 2.974929 1_555
Ir0 Y5 3.007717 1_655
Ir0 Y0 3.088844 1_655
Ir0 Y0 3.143230 1_555
Ir0 Y2 3.148784 1_555
Ir1 Ni6 2.570239 1_455
Ir1 Ni6 2.615911 1_555
Ir1 Ir3 2.717554 1_545
Ir1 Y5 2.974929 1_555
Ir1 Y5 3.007717 1_545
Ir1 Y0 3.088844 1_545
Ir1 Y0 3.143230 1_555
Ir1 Y2 3.148784 1_555
Ir2 Ni2 2.614402 1_455
Ir2 Ni3 2.614402 1_565
Ir2 Ni5 2.633253 1_555
Ir2 Ni1 2.672772 1_566
Ir2 Ni0 2.672772 1_456
Ir2 Ir4 2.706113 1_466
Ir2 Y3 2.920709 1_556
Ir2 Y1 3.033294 1_465
Ir2 Y1 3.057448 1_455
Ir2 Y1 3.057448 1_565
Ir2 Y3 3.137630 1_566
Ir2 Y3 3.137630 1_456
Ir3 Ni6 2.676609 1_465
Ir3 Ni4 2.685694 1_555
Ir3 Ir6 2.727847 1_565
Ir3 Ir5 2.727847 1_455
Ir3 Y0 3.004924 1_555
Ir3 Y2 3.010432 1_465
Ir3 Y2 3.094303 1_455
Ir3 Y2 3.094303 1_565
Ir3 Y0 3.094808 1_565
Ir3 Y0 3.094808 1_455
Ir4 Ni0 2.568889 1_545
Ir4 Ni1 2.568889 1_655
Ir4 Ni0 2.617925 1_555
Ir4 Ni1 2.617925 1_555
Ir4 Y1 2.967190 1_554
Ir4 Y5 3.057816 1_655
Ir4 Y5 3.057816 1_545
Ir4 Y3 3.150511 1_545
Ir4 Y3 3.150511 1_655
Ir5 Ni4 2.568828 1_655
Ir5 Ni4 2.617377 1_555
Ir5 Y4 2.966813 1_555
Ir5 Y4 2.990076 1_565
Ir5 Y2 3.085154 1_565
Ir5 Y2 3.150468 1_555
Ir5 Y0 3.152247 1_555
Ir6 Ni4 2.568828 1_545
Ir6 Ni4 2.617377 1_555
Ir6 Y4 2.966813 1_555
Ir6 Y4 2.990076 1_455
Ir6 Y2 3.085154 1_455
Ir6 Y2 3.150468 1_555
Ir6 Y0 3.152247 1_555
