# generated using pymatgen
data_Hf3Al2CoN
_symmetry_space_group_name_H-M   'P 1'
_cell_length_a   8.35944413
_cell_length_b   8.35944472
_cell_length_c   8.35944410
_cell_angle_alpha   60.00000247
_cell_angle_beta   60.00000013
_cell_angle_gamma   60.00000467
_symmetry_Int_Tables_number   1
_chemical_formula_structural   Hf3Al2CoN
_chemical_formula_sum   'Hf12 Al8 Co4 N4'
_cell_volume   413.06391159
_cell_formula_units_Z   4
loop_
 _symmetry_equiv_pos_site_id
 _symmetry_equiv_pos_as_xyz
  1  'x, y, z'
loop_
 _atom_site_type_symbol
 _atom_site_label
 _atom_site_symmetry_multiplicity
 _atom_site_fract_x
 _atom_site_fract_y
 _atom_site_fract_z
 _atom_site_occupancy
  Hf  Hf0  1  0.55753418  0.94246582  0.55753418  1
  Hf  Hf1  1  0.30753418  0.69246582  0.69246582  1
  Hf  Hf2  1  0.69246582  0.30753418  0.30753418  1
  Hf  Hf3  1  0.30753418  0.69246582  0.30753418  1
  Hf  Hf4  1  0.69246582  0.69246582  0.30753418  1
  Hf  Hf5  1  0.30753418  0.30753418  0.69246582  1
  Hf  Hf6  1  0.55753418  0.55753418  0.94246582  1
  Hf  Hf7  1  0.94246582  0.55753418  0.55753418  1
  Hf  Hf8  1  0.55753418  0.94246582  0.94246582  1
  Hf  Hf9  1  0.94246582  0.94246582  0.55753418  1
  Hf  Hf10  1  0.69246582  0.30753418  0.69246582  1
  Hf  Hf11  1  0.94246582  0.55753418  0.94246582  1
  Al  Al0  1  0.92058701  0.92058701  0.92058701  1
  Al  Al1  1  0.01175802  0.32941299  0.32941299  1
  Al  Al2  1  0.32941299  0.01175802  0.32941299  1
  Al  Al3  1  0.32941299  0.32941299  0.01175802  1
  Al  Al4  1  0.92058701  0.23824198  0.92058701  1
  Al  Al5  1  0.92058701  0.92058701  0.23824198  1
  Al  Al6  1  0.23824198  0.92058701  0.92058701  1
  Al  Al7  1  0.32941299  0.32941299  0.32941299  1
  Co  Co0  1  0.12500000  0.12500000  0.12500000  1
  Co  Co1  1  0.62500000  0.12500000  0.12500000  1
  Co  Co2  1  0.12500000  0.62500000  0.12500000  1
  Co  Co3  1  0.12500000  0.12500000  0.62500000  1
  N  N0  1  0.62500000  0.62500000  0.62500000  1
  N  N1  1  0.12500000  0.62500000  0.62500000  1
  N  N2  1  0.62500000  0.12500000  0.62500000  1
  N  N3  1  0.62500000  0.62500000  0.12500000  1
loop_
_geom_bond_atom_site_label_1
_geom_bond_atom_site_label_2
_geom_bond_distance
_geom_bond_site_symmetry_2
Hf0 N2 2.236886 1_565
Hf0 N0 2.236886 1_555
Hf1 N1 2.236886 1_555
Hf1 N0 2.236886 1_555
Hf2 N2 2.236886 1_555
Hf2 N3 2.236886 1_555
Hf3 N1 2.236886 1_555
Hf3 N3 2.236886 1_555
Hf4 N3 2.236886 1_555
Hf4 N0 2.236886 1_555
Hf5 N2 2.236886 1_555
Hf5 N1 2.236886 1_555
Hf6 N0 2.236886 1_555
Hf6 N3 2.236886 1_556
Hf7 N1 2.236886 1_655
Hf7 N0 2.236886 1_555
Hf8 N2 2.236886 1_565
Hf8 N3 2.236886 1_556
Hf9 N2 2.236886 1_565
Hf9 N1 2.236886 1_655
Hf10 N2 2.236886 1_555
Hf10 N0 2.236886 1_555
Hf11 N1 2.236886 1_655
Hf11 N3 2.236886 1_556
Al0 Co3 2.533919 1_665
Al0 Co1 2.533919 1_566
Al0 Co2 2.533919 1_656
Al0 Al5 2.655419 1_556
Al0 Al6 2.655419 1_655
Al0 Al4 2.655419 1_565
Al0 Hf9 2.863730 1_555
Al0 Hf8 2.863730 1_555
Al0 Hf11 2.863730 1_555
Al0 Hf4 3.005964 1_556
Al0 Hf1 3.005964 1_655
Al0 Hf10 3.005964 1_565
Al1 Co0 2.533912 1_555
Al1 Co3 2.533932 1_555
Al1 Co2 2.533932 1_555
Al1 Al3 2.655419 1_555
Al1 Al7 2.655419 1_555
Al1 Al2 2.655419 1_555
Al1 Hf2 2.863705 1_455
Al1 Hf10 2.863719 1_455
Al1 Hf4 2.863719 1_455
Al1 Hf11 3.005954 1_454
Al1 Hf9 3.005954 1_445
Al1 Hf7 3.005975 1_455
Al2 Co0 2.533911 1_555
Al2 Co1 2.533932 1_555
Al2 Co3 2.533932 1_555
Al2 Al3 2.655419 1_555
Al2 Al7 2.655419 1_555
Al2 Hf3 2.863705 1_545
Al2 Hf1 2.863719 1_545
Al2 Hf4 2.863719 1_545
Al2 Hf9 3.005954 1_445
Al2 Hf8 3.005954 1_544
Al2 Hf0 3.005975 1_545
Al3 Co0 2.533911 1_555
Al3 Co1 2.533932 1_555
Al3 Co2 2.533932 1_555
Al3 Al7 2.655419 1_555
Al3 Hf5 2.863705 1_554
Al3 Hf10 2.863719 1_554
Al3 Hf1 2.863719 1_554
Al3 Hf11 3.005954 1_454
Al3 Hf8 3.005954 1_544
Al3 Hf6 3.005975 1_554
Al4 Co0 2.533911 1_656
Al4 Co1 2.533932 1_556
Al4 Co3 2.533932 1_655
Al4 Al5 2.655419 1_546
Al4 Al6 2.655419 1_645
Al4 Hf11 2.863705 1_555
Al4 Hf7 2.863719 1_555
Al4 Hf6 2.863719 1_555
Al4 Hf5 3.005954 1_655
Al4 Hf2 3.005954 1_556
Al4 Hf10 3.005975 1_555
Al5 Co0 2.533911 1_665
Al5 Co1 2.533932 1_565
Al5 Co2 2.533932 1_655
Al5 Al6 2.655419 1_654
Al5 Hf9 2.863705 1_555
Al5 Hf0 2.863719 1_555
Al5 Hf7 2.863719 1_555
Al5 Hf3 3.005954 1_655
Al5 Hf2 3.005954 1_565
Al5 Hf4 3.005975 1_555
Al6 Co0 2.533912 1_566
Al6 Co3 2.533932 1_565
Al6 Co2 2.533932 1_556
Al6 Hf8 2.863705 1_555
Al6 Hf0 2.863719 1_555
Al6 Hf6 2.863719 1_555
Al6 Hf3 3.005954 1_556
Al6 Hf5 3.005954 1_565
Al6 Hf1 3.005975 1_555
Al7 Co3 2.533919 1_555
Al7 Co1 2.533919 1_555
Al7 Co2 2.533919 1_555
Al7 Hf5 2.863730 1_555
Al7 Hf2 2.863730 1_555
Al7 Hf3 2.863730 1_555
Al7 Hf6 3.005964 1_554
Al7 Hf7 3.005964 1_455
Al7 Hf0 3.005964 1_545
Co0 Hf9 3.004025 1_445
Co0 Hf5 3.004025 1_554
Co0 Hf8 3.004025 1_544
Co0 Hf2 3.004025 1_455
Co0 Hf11 3.004025 1_454
Co0 Hf3 3.004025 1_545
Co1 Hf0 3.004025 1_545
Co1 Hf10 3.004025 1_554
Co1 Hf2 3.004025 1_555
Co1 Hf8 3.004025 1_544
Co1 Hf6 3.004025 1_554
Co1 Hf4 3.004025 1_545
Co2 Hf3 3.004025 1_555
Co2 Hf11 3.004025 1_454
Co2 Hf7 3.004025 1_455
Co2 Hf1 3.004025 1_554
Co2 Hf6 3.004025 1_554
Co2 Hf4 3.004025 1_455
Co3 Hf5 3.004025 1_555
Co3 Hf9 3.004025 1_445
Co3 Hf0 3.004025 1_545
Co3 Hf10 3.004025 1_455
Co3 Hf7 3.004025 1_455
Co3 Hf1 3.004025 1_545
