# generated using pymatgen
data_Ca4Si10RuPt5
_symmetry_space_group_name_H-M   'P 1'
_cell_length_a   8.22444595
_cell_length_b   8.22444607
_cell_length_c   8.22444582
_cell_angle_alpha   138.62637061
_cell_angle_beta   104.46680477
_cell_angle_gamma   89.98656342
_symmetry_Int_Tables_number   1
_chemical_formula_structural   Ca4Si10RuPt5
_chemical_formula_sum   'Ca4 Si10 Ru1 Pt5'
_cell_volume   340.46918365
_cell_formula_units_Z   1
loop_
 _symmetry_equiv_pos_site_id
 _symmetry_equiv_pos_as_xyz
  1  'x, y, z'
loop_
 _atom_site_type_symbol
 _atom_site_label
 _atom_site_symmetry_multiplicity
 _atom_site_fract_x
 _atom_site_fract_y
 _atom_site_fract_z
 _atom_site_occupancy
  Ca  Ca0  1  0.63824241  0.37089954  0.26916385  1
  Ca  Ca1  1  0.36175759  0.63092044  0.73265713  1
  Ca  Ca2  1  0.10173668  0.86907956  0.23083615  1
  Ca  Ca3  1  0.89826332  0.12910046  0.76734287  1
  Si  Si0  1  0.45706668  0.11555423  0.35772343  1
  Si  Si1  1  0.54293332  0.90065674  0.65848755  1
  Si  Si2  1  0.75783081  0.59934326  0.14227657  1
  Si  Si3  1  0.24216919  0.38444577  0.84151245  1
  Si  Si4  1  0.27323993  0.52323993  0.25000000  1
  Si  Si5  1  0.72461709  0.47461709  0.75000000  1
  Si  Si6  1  0.72676007  0.97676007  0.25000000  1
  Si  Si7  1  0.27538291  0.02538291  0.75000000  1
  Si  Si8  1  0.00000000  0.25000000  0.25000000  1
  Si  Si9  1  0.00000000  0.75000000  0.75000000  1
  Ru  Ru0  1  0.50000000  0.25000000  0.75000000  1
  Pt  Pt0  1  0.50000000  0.75000000  0.25000000  1
  Pt  Pt1  1  0.25288878  0.13687582  0.11339412  1
  Pt  Pt2  1  0.74711122  0.86050534  0.88398604  1
  Pt  Pt3  1  0.02348170  0.63949466  0.38660588  1
  Pt  Pt4  1  0.97651830  0.36312418  0.61601396  1
loop_
_geom_bond_atom_site_label_1
_geom_bond_atom_site_label_2
_geom_bond_distance
_geom_bond_site_symmetry_2
Ca0 Si2 3.007120 1_555
Ca0 Pt1 3.108672 1_555
Ca0 Si1 3.111086 1_544
Ca0 Pt2 3.125003 1_555
Ca0 Si9 3.135705 1_655
Ca0 Si8 3.140603 1_655
Ca0 Pt2 3.148902 1_544
Ca0 Si0 3.162357 1_555
Ca0 Si1 3.188217 1_555
Ca0 Si6 3.217468 1_545
Ca0 Si5 3.225686 1_555
Ca0 Si7 3.261866 1_554
Ca0 Si4 3.265657 1_555
Ca0 Pt3 3.335171 1_655
Ca0 Pt0 3.418350 1_555
Ca0 Ru0 3.422844 1_554
Ca0 Pt4 3.491462 1_555
Ca1 Si3 3.007113 1_555
Ca1 Pt2 3.108677 1_555
Ca1 Si0 3.111081 1_555
Ca1 Pt1 3.125012 1_566
Ca1 Si9 3.135707 1_555
Ca1 Si8 3.140603 1_555
Ca1 Pt1 3.148901 1_555
Ca1 Si1 3.162364 1_555
Ca1 Si0 3.188217 1_566
Ca1 Si4 3.217474 1_555
Ca1 Si7 3.225694 1_565
Ca1 Si5 3.261862 1_555
Ca1 Si6 3.265656 1_556
Ca1 Pt4 3.335171 1_455
Ca1 Pt0 3.418345 1_556
Ca1 Ru0 3.422836 1_555
Ca1 Pt3 3.491462 1_555
Ca2 Si0 3.007110 1_565
Ca2 Pt3 3.108682 1_555
Ca2 Si3 3.111085 1_565
Ca2 Pt4 3.125003 1_454
Ca2 Si9 3.135699 1_554
Ca2 Si8 3.140597 1_565
Ca2 Pt4 3.148902 1_465
Ca2 Si2 3.162369 1_455
Ca2 Si3 3.188216 1_554
Ca2 Si6 3.217474 1_455
Ca2 Si5 3.225692 1_454
Ca2 Si7 3.261870 1_565
Ca2 Si4 3.265661 1_555
Ca2 Pt1 3.335160 1_565
Ca2 Pt0 3.418345 1_555
Ca2 Ru0 3.422839 1_565
Ca2 Pt2 3.491462 1_454
Ca3 Si1 3.007113 1_545
Ca3 Pt4 3.108667 1_555
Ca3 Si2 3.111081 1_556
Ca3 Pt3 3.125012 1_645
Ca3 Si9 3.135707 1_645
Ca3 Si8 3.140603 1_656
Ca3 Pt3 3.148901 1_656
Ca3 Si3 3.162365 1_655
Ca3 Si2 3.188218 1_545
Ca3 Si4 3.217474 1_656
Ca3 Si7 3.225694 1_655
Ca3 Si5 3.261862 1_555
Ca3 Si6 3.265656 1_545
Ca3 Pt2 3.335160 1_545
Ca3 Pt0 3.418345 1_545
Ca3 Ru0 3.422836 1_555
Ca3 Pt1 3.491462 1_656
Si0 Si5 2.475565 1_555
Si0 Si6 2.543752 1_545
Si1 Si7 2.475565 1_565
Si1 Si4 2.543752 1_555
Si2 Si5 2.475565 1_554
Si2 Si6 2.543752 1_555
Si3 Si7 2.475565 1_555
Si3 Si4 2.543752 1_556
Ru0 Si3 2.415161 1_555
Ru0 Si0 2.415161 1_555
Ru0 Si1 2.415161 1_545
Ru0 Si2 2.415161 1_556
Ru0 Si5 2.612855 1_555
Ru0 Si7 2.612855 1_555
Pt0 Si2 2.471170 1_555
Pt0 Si1 2.471170 1_555
Pt0 Si0 2.471170 1_565
Pt0 Si3 2.471170 1_554
Pt0 Si6 2.637784 1_555
Pt0 Si4 2.637784 1_555
Pt1 Si0 2.394024 1_555
Pt1 Si4 2.436352 1_555
Pt1 Si7 2.443470 1_554
Pt1 Si9 2.450989 1_544
Pt1 Si8 2.459991 1_555
Pt2 Si1 2.394018 1_555
Pt2 Si6 2.436360 1_556
Pt2 Si5 2.443474 1_555
Pt2 Si9 2.450985 1_655
Pt2 Si8 2.459992 1_666
Pt3 Si2 2.394024 1_455
Pt3 Si4 2.436352 1_555
Pt3 Si7 2.443470 1_565
Pt3 Si9 2.450988 1_555
Pt3 Si8 2.459991 1_555
Pt4 Si3 2.394020 1_655
Pt4 Si6 2.436352 1_545
Pt4 Si5 2.443467 1_555
Pt4 Si9 2.450993 1_655
Pt4 Si8 2.459999 1_655
