# generated using pymatgen
data_VB6(SbRh10)2
_symmetry_space_group_name_H-M   'P 1'
_cell_length_a   8.03418767
_cell_length_b   8.03418851
_cell_length_c   8.03418782
_cell_angle_alpha   59.99999884
_cell_angle_beta   59.99999536
_cell_angle_gamma   59.99999808
_symmetry_Int_Tables_number   1
_chemical_formula_structural   VB6(SbRh10)2
_chemical_formula_sum   'V1 B6 Sb2 Rh20'
_cell_volume   366.70003135
_cell_formula_units_Z   1
loop_
 _symmetry_equiv_pos_site_id
 _symmetry_equiv_pos_as_xyz
  1  'x, y, z'
loop_
 _atom_site_type_symbol
 _atom_site_label
 _atom_site_symmetry_multiplicity
 _atom_site_fract_x
 _atom_site_fract_y
 _atom_site_fract_z
 _atom_site_occupancy
  V  V0  1  0.00000000  0.00000000  0.00000000  1
  B  B0  1  0.72096930  0.72096930  0.27903070  1
  B  B1  1  0.72096930  0.27903070  0.72096930  1
  B  B2  1  0.27903070  0.72096930  0.27903070  1
  B  B3  1  0.72096930  0.27903070  0.27903070  1
  B  B4  1  0.27903070  0.72096930  0.72096930  1
  B  B5  1  0.27903070  0.27903070  0.72096930  1
  Sb  Sb0  1  0.25000000  0.25000000  0.25000000  1
  Sb  Sb1  1  0.75000000  0.75000000  0.75000000  1
  Rh  Rh0  1  1.00000000  1.00000000  0.67188742  1
  Rh  Rh1  1  0.61916506  0.61916506  0.14250582  1
  Rh  Rh2  1  0.38083494  0.85749418  0.38083494  1
  Rh  Rh3  1  0.67188742  0.32811258  1.00000000  1
  Rh  Rh4  1  1.00000000  0.32811258  0.67188742  1
  Rh  Rh5  1  0.67188742  1.00000000  1.00000000  1
  Rh  Rh6  1  0.00000000  0.00000000  0.32811258  1
  Rh  Rh7  1  1.00000000  0.32811258  1.00000000  1
  Rh  Rh8  1  0.32811258  0.00000000  0.67188742  1
  Rh  Rh9  1  0.67188742  1.00000000  0.32811258  1
  Rh  Rh10  1  0.32811258  0.00000000  0.00000000  1
  Rh  Rh11  1  0.00000000  0.67188742  0.00000000  1
  Rh  Rh12  1  0.38083494  0.38083494  0.85749418  1
  Rh  Rh13  1  0.00000000  0.67188742  0.32811258  1
  Rh  Rh14  1  0.32811258  0.67188742  0.00000000  1
  Rh  Rh15  1  0.61916506  0.14250582  0.61916506  1
  Rh  Rh16  1  0.14250582  0.61916506  0.61916506  1
  Rh  Rh17  1  0.38083494  0.38083494  0.38083494  1
  Rh  Rh18  1  0.85749418  0.38083494  0.38083494  1
  Rh  Rh19  1  0.61916506  0.61916506  0.61916506  1
loop_
_geom_bond_atom_site_label_1
_geom_bond_atom_site_label_2
_geom_bond_distance
_geom_bond_site_symmetry_2
B0 Rh1 2.237041 1_555
B0 Rh2 2.237048 1_555
B0 Rh18 2.237048 1_555
B0 Rh19 2.237048 1_555
B0 Rh11 2.276203 1_655
B0 Rh13 2.276203 1_655
B0 Rh5 2.276203 1_554
B0 Rh9 2.276203 1_555
B1 Rh15 2.237041 1_555
B1 Rh12 2.237048 1_555
B1 Rh18 2.237048 1_555
B1 Rh19 2.237048 1_555
B1 Rh4 2.276203 1_555
B1 Rh3 2.276203 1_555
B1 Rh0 2.276203 1_545
B1 Rh5 2.276203 1_545
B2 Rh2 2.237041 1_555
B2 Rh1 2.237048 1_555
B2 Rh16 2.237048 1_555
B2 Rh17 2.237048 1_555
B2 Rh13 2.276203 1_555
B2 Rh14 2.276203 1_555
B2 Rh6 2.276203 1_565
B2 Rh10 2.276203 1_565
B3 Rh18 2.237041 1_555
B3 Rh15 2.237048 1_555
B3 Rh1 2.237048 1_555
B3 Rh17 2.237048 1_555
B3 Rh7 2.276203 1_554
B3 Rh3 2.276203 1_554
B3 Rh6 2.276203 1_655
B3 Rh9 2.276203 1_545
B4 Rh16 2.237041 1_555
B4 Rh2 2.237048 1_555
B4 Rh12 2.237048 1_555
B4 Rh19 2.237048 1_555
B4 Rh11 2.276203 1_556
B4 Rh14 2.276203 1_556
B4 Rh0 2.276203 1_455
B4 Rh8 2.276203 1_565
B5 Rh12 2.237041 1_555
B5 Rh15 2.237048 1_555
B5 Rh16 2.237048 1_555
B5 Rh17 2.237048 1_555
B5 Rh7 2.276203 1_455
B5 Rh4 2.276203 1_455
B5 Rh10 2.276203 1_556
B5 Rh8 2.276203 1_555
Rh0 V0 2.636118 1_666
Rh1 Sb1 2.574794 1_554
Rh2 Sb0 2.574794 1_565
Rh3 V0 2.636118 1_656
Rh4 V0 2.636118 1_656
Rh5 V0 2.636118 1_666
Rh6 V0 2.636118 1_555
Rh7 V0 2.636118 1_656
Rh8 V0 2.636118 1_556
Rh9 V0 2.636118 1_665
Rh10 V0 2.636118 1_555
Rh11 V0 2.636118 1_565
Rh12 Sb0 2.574794 1_556
Rh13 V0 2.636118 1_565
Rh14 V0 2.636118 1_565
Rh15 Sb1 2.574794 1_545
Rh16 Sb1 2.574794 1_455
Rh17 Sb0 2.574787 1_555
Rh18 Sb0 2.574794 1_655
Rh19 Sb1 2.574787 1_555
