# generated using pymatgen
data_Nb15Co8RuN4
_symmetry_space_group_name_H-M   'P 1'
_cell_length_a   8.26111070
_cell_length_b   8.26111093
_cell_length_c   8.26111116
_cell_angle_alpha   58.95952593
_cell_angle_beta   58.95952643
_cell_angle_gamma   58.95952492
_symmetry_Int_Tables_number   1
_chemical_formula_structural   Nb15Co8RuN4
_chemical_formula_sum   'Nb15 Co8 Ru1 N4'
_cell_volume   389.19402840
_cell_formula_units_Z   1
loop_
 _symmetry_equiv_pos_site_id
 _symmetry_equiv_pos_as_xyz
  1  'x, y, z'
loop_
 _atom_site_type_symbol
 _atom_site_label
 _atom_site_symmetry_multiplicity
 _atom_site_fract_x
 _atom_site_fract_y
 _atom_site_fract_z
 _atom_site_occupancy
  Nb  Nb0  1  0.12500000  0.62500000  0.62500000  1
  Nb  Nb1  1  0.62500000  0.12500000  0.62500000  1
  Nb  Nb2  1  0.62500000  0.62500000  0.12500000  1
  Nb  Nb3  1  0.80845763  0.80845763  0.19445015  1
  Nb  Nb4  1  0.18625147  0.18625147  0.81305734  1
  Nb  Nb5  1  0.80845763  0.19445015  0.80845763  1
  Nb  Nb6  1  0.18625147  0.81305734  0.18625147  1
  Nb  Nb7  1  0.19445015  0.80845763  0.80845763  1
  Nb  Nb8  1  0.81305734  0.18625147  0.18625147  1
  Nb  Nb9  1  0.44154237  0.44154237  0.05554985  1
  Nb  Nb10  1  0.06374853  0.06374853  0.43694266  1
  Nb  Nb11  1  0.44154237  0.05554985  0.44154237  1
  Nb  Nb12  1  0.06374853  0.43694266  0.06374853  1
  Nb  Nb13  1  0.05554985  0.44154237  0.44154237  1
  Nb  Nb14  1  0.43694266  0.06374853  0.06374853  1
  Co  Co0  1  0.73888156  0.42287459  0.42287459  1
  Co  Co1  1  0.42287459  0.73888156  0.42287459  1
  Co  Co2  1  0.42287459  0.42287459  0.73888156  1
  Co  Co3  1  0.41738810  0.41738810  0.41738810  1
  Co  Co4  1  0.51111844  0.82712541  0.82712541  1
  Co  Co5  1  0.82712541  0.51111844  0.82712541  1
  Co  Co6  1  0.82712541  0.82712541  0.51111844  1
  Co  Co7  1  0.83261190  0.83261190  0.83261190  1
  Ru  Ru0  1  0.62500000  0.62500000  0.62500000  1
  N  N0  1  0.62500000  0.12500000  0.12500000  1
  N  N1  1  0.12500000  0.62500000  0.12500000  1
  N  N2  1  0.12500000  0.12500000  0.62500000  1
  N  N3  1  0.12500000  0.12500000  0.12500000  1
loop_
_geom_bond_atom_site_label_1
_geom_bond_atom_site_label_2
_geom_bond_distance
_geom_bond_site_symmetry_2
Nb3 Ru0 2.914644 1_555
Nb5 Ru0 2.914644 1_555
Nb7 Ru0 2.914644 1_555
Nb9 Ru0 2.914644 1_554
Nb11 Ru0 2.914644 1_545
Nb13 Ru0 2.914644 1_455
Co0 Ru0 2.469149 1_555
Co0 Nb1 2.501718 1_555
Co0 Nb2 2.501718 1_555
Co0 Co1 2.569406 1_555
Co0 Co2 2.569406 1_555
Co0 Co3 2.703383 1_555
Co0 Nb13 2.783492 1_655
Co0 Nb10 2.787957 1_655
Co0 Nb12 2.787958 1_655
Co0 Nb3 2.933999 1_555
Co0 Nb5 2.933999 1_555
Co0 Nb8 3.080227 1_555
Co1 Ru0 2.469149 1_555
Co1 Nb0 2.501718 1_555
Co1 Nb2 2.501718 1_555
Co1 Co2 2.569406 1_555
Co1 Co3 2.703383 1_555
Co1 Nb11 2.783493 1_565
Co1 Nb10 2.787957 1_565
Co1 Nb14 2.787958 1_565
Co1 Nb3 2.933999 1_555
Co1 Nb7 2.934000 1_555
Co1 Nb6 3.080227 1_555
Co2 Ru0 2.469149 1_555
Co2 Nb0 2.501718 1_555
Co2 Nb1 2.501718 1_555
Co2 Co3 2.703384 1_555
Co2 Nb9 2.783493 1_556
Co2 Nb12 2.787958 1_556
Co2 Nb14 2.787958 1_556
Co2 Nb5 2.933999 1_555
Co2 Nb7 2.933999 1_555
Co2 Nb4 3.080227 1_555
Co3 Nb1 2.491277 1_555
Co3 Nb0 2.491277 1_555
Co3 Nb2 2.491277 1_555
Co3 Nb13 2.797441 1_555
Co3 Nb11 2.797441 1_555
Co3 Nb9 2.797441 1_555
Co3 Nb6 2.977075 1_555
Co3 Nb8 2.977075 1_555
Co3 Nb4 2.977075 1_555
Co4 Ru0 2.469149 1_555
Co4 Nb1 2.501718 1_565
Co4 Nb2 2.501718 1_556
Co4 Co5 2.569406 1_555
Co4 Co6 2.569406 1_555
Co4 Co7 2.703383 1_555
Co4 Nb7 2.783492 1_555
Co4 Nb4 2.787957 1_565
Co4 Nb6 2.787958 1_556
Co4 Nb9 2.933999 1_556
Co4 Nb11 2.933999 1_565
Co4 Nb14 3.080227 1_566
Co5 Ru0 2.469149 1_555
Co5 Nb0 2.501718 1_655
Co5 Nb2 2.501718 1_556
Co5 Co6 2.569406 1_555
Co5 Co7 2.703383 1_555
Co5 Nb5 2.783493 1_555
Co5 Nb4 2.787957 1_655
Co5 Nb8 2.787958 1_556
Co5 Nb9 2.933999 1_556
Co5 Nb13 2.934000 1_655
Co5 Nb12 3.080227 1_656
Co6 Ru0 2.469149 1_555
Co6 Nb0 2.501718 1_655
Co6 Nb1 2.501718 1_565
Co6 Co7 2.703384 1_555
Co6 Nb3 2.783493 1_555
Co6 Nb6 2.787958 1_655
Co6 Nb8 2.787958 1_565
Co6 Nb11 2.933999 1_565
Co6 Nb13 2.933999 1_655
Co6 Nb10 3.080227 1_665
Co7 Nb1 2.491277 1_565
Co7 Nb0 2.491277 1_655
Co7 Nb2 2.491277 1_556
Co7 Nb7 2.797441 1_655
Co7 Nb5 2.797441 1_565
Co7 Nb3 2.797441 1_556
Co7 Nb12 2.977075 1_656
Co7 Nb14 2.977075 1_566
Co7 Nb10 2.977075 1_665
N0 Nb9 2.174072 1_555
N0 Nb3 2.174072 1_545
N0 Nb11 2.174072 1_555
N0 Nb5 2.174072 1_554
N0 Nb8 2.193423 1_555
N0 Nb14 2.193423 1_555
N1 Nb9 2.174072 1_555
N1 Nb3 2.174072 1_455
N1 Nb7 2.174072 1_554
N1 Nb13 2.174072 1_555
N1 Nb6 2.193423 1_555
N1 Nb12 2.193423 1_555
N2 Nb11 2.174072 1_555
N2 Nb5 2.174072 1_455
N2 Nb13 2.174072 1_555
N2 Nb7 2.174072 1_545
N2 Nb4 2.193423 1_555
N2 Nb10 2.193423 1_555
N3 Nb14 2.174279 1_555
N3 Nb8 2.174279 1_455
N3 Nb12 2.174279 1_555
N3 Nb6 2.174279 1_545
N3 Nb10 2.174279 1_555
N3 Nb4 2.174279 1_554
