# generated using pymatgen
data_CaBe(Cu2Si)4
_symmetry_space_group_name_H-M   'P 1'
_cell_length_a   8.01047009
_cell_length_b   8.01047287
_cell_length_c   8.01174811
_cell_angle_alpha   120.46651541
_cell_angle_beta   120.46715469
_cell_angle_gamma   89.20908514
_symmetry_Int_Tables_number   1
_chemical_formula_structural   CaBe(Cu2Si)4
_chemical_formula_sum   'Ca2 Be2 Cu16 Si8'
_cell_volume   360.86720788
_cell_formula_units_Z   2
loop_
 _symmetry_equiv_pos_site_id
 _symmetry_equiv_pos_as_xyz
  1  'x, y, z'
loop_
 _atom_site_type_symbol
 _atom_site_label
 _atom_site_symmetry_multiplicity
 _atom_site_fract_x
 _atom_site_fract_y
 _atom_site_fract_z
 _atom_site_occupancy
  Ca  Ca0  1  0.24998982  0.25000925  0.00000047  1
  Ca  Ca1  1  0.75001018  0.74999075  0.99999953  1
  Be  Be0  1  0.50000000  0.00000000  0.50000000  1
  Be  Be1  1  0.00000000  0.50000000  0.50000000  1
  Cu  Cu0  1  0.94218517  0.21018872  0.15232465  1
  Cu  Cu1  1  0.20974682  0.05777176  0.26767226  1
  Cu  Cu2  1  0.79025318  0.94222824  0.73232774  1
  Cu  Cu3  1  0.44221990  0.29024923  0.73231386  1
  Cu  Cu4  1  0.05781483  0.78981128  0.84767535  1
  Cu  Cu5  1  0.79863473  0.05939096  0.49990403  1
  Cu  Cu6  1  0.55938703  0.29863034  0.49989415  1
  Cu  Cu7  1  0.20136527  0.94060904  0.50009597  1
  Cu  Cu8  1  0.44061297  0.70136966  0.50010585  1
  Cu  Cu9  1  0.94066924  0.44066297  0.73961548  1
  Cu  Cu10  1  0.70114670  0.20114759  0.26055916  1
  Cu  Cu11  1  0.05933076  0.55933703  0.26038452  1
  Cu  Cu12  1  0.71018066  0.44218282  0.15231783  1
  Cu  Cu13  1  0.55778010  0.70975077  0.26768614  1
  Cu  Cu14  1  0.29885330  0.79885241  0.73944084  1
  Cu  Cu15  1  0.28981934  0.55781718  0.84768217  1
  Si  Si0  1  0.79338958  0.29339373  0.85485257  1
  Si  Si1  1  0.56114136  0.06114796  0.85414396  1
  Si  Si2  1  0.06108532  0.20633301  0.49970098  1
  Si  Si3  1  0.29366630  0.43891512  0.50029739  1
  Si  Si4  1  0.93891468  0.79366699  0.50029902  1
  Si  Si5  1  0.43885864  0.93885204  0.14585604  1
  Si  Si6  1  0.20661042  0.70660627  0.14514743  1
  Si  Si7  1  0.70633370  0.56108488  0.49970261  1
loop_
_geom_bond_atom_site_label_1
_geom_bond_atom_site_label_2
_geom_bond_distance
_geom_bond_site_symmetry_2
Ca0 Cu9 3.272369 1_454
Ca0 Cu11 3.272448 1_555
Ca0 Cu10 3.272729 1_555
Ca0 Cu14 3.272762 1_544
Ca0 Cu6 3.273121 1_555
Ca0 Cu7 3.273203 1_544
Ca0 Cu5 3.273396 1_454
Ca0 Cu8 3.273467 1_555
Ca0 Si7 3.300623 1_555
Ca0 Si4 3.300628 1_444
Ca0 Si6 3.303380 1_555
Ca0 Si0 3.303399 1_454
Ca0 Si3 3.304560 1_555
Ca0 Si2 3.304569 1_554
Ca0 Si1 3.305074 1_554
Ca0 Si5 3.305115 1_545
Ca0 Cu2 3.334658 1_444
Ca0 Cu13 3.334699 1_555
Ca0 Cu1 3.337336 1_555
Ca0 Cu12 3.337338 1_555
Ca0 Cu4 3.337376 1_544
Ca0 Cu3 3.337396 1_554
Ca0 Cu0 3.337435 1_455
Ca0 Cu15 3.337437 1_554
Ca1 Cu11 3.272369 1_656
Ca1 Cu9 3.272448 1_555
Ca1 Cu14 3.272729 1_555
Ca1 Cu10 3.272762 1_566
Ca1 Cu8 3.273121 1_555
Ca1 Cu5 3.273203 1_566
Ca1 Cu7 3.273396 1_656
Ca1 Cu6 3.273467 1_555
Ca1 Si3 3.300623 1_555
Ca1 Si2 3.300628 1_666
Ca1 Si0 3.303380 1_555
Ca1 Si6 3.303399 1_656
Ca1 Si7 3.304560 1_555
Ca1 Si4 3.304569 1_556
Ca1 Si5 3.305074 1_556
Ca1 Si1 3.305115 1_565
Ca1 Cu1 3.334658 1_666
Ca1 Cu3 3.334699 1_555
Ca1 Cu2 3.337336 1_555
Ca1 Cu15 3.337338 1_555
Ca1 Cu0 3.337376 1_566
Ca1 Cu13 3.337396 1_556
Ca1 Cu4 3.337435 1_655
Ca1 Cu12 3.337437 1_556
Be0 Cu3 2.353675 1_555
Be0 Cu13 2.353675 1_545
Be0 Cu2 2.353676 1_545
Be0 Cu1 2.353676 1_555
Be0 Si1 2.391280 1_555
Be0 Si5 2.391280 1_545
Be0 Si0 2.393877 1_555
Be0 Si6 2.393877 1_545
Be0 Cu5 2.445943 1_555
Be0 Cu7 2.445943 1_545
Be0 Cu6 2.445950 1_555
Be0 Cu8 2.445950 1_545
Be1 Cu4 2.350920 1_555
Be1 Cu0 2.350920 1_455
Be1 Cu15 2.350948 1_555
Be1 Cu12 2.350948 1_455
Be1 Si3 2.395197 1_555
Be1 Si7 2.395197 1_455
Be1 Si4 2.395199 1_455
Be1 Si2 2.395199 1_555
Be1 Cu14 2.446655 1_555
Be1 Cu10 2.446655 1_455
Be1 Cu11 2.448266 1_555
Be1 Cu9 2.448266 1_455
Cu0 Cu1 2.449847 1_655
Cu0 Cu2 2.450723 1_544
Cu0 Si2 2.460076 1_655
Cu0 Si3 2.461521 1_655
Cu0 Cu11 2.499120 1_655
Cu0 Cu10 2.500150 1_555
Cu0 Si0 2.500620 1_554
Cu0 Si1 2.502588 1_554
Cu0 Cu12 2.610006 1_555
Cu1 Cu4 2.450723 1_544
Cu1 Si5 2.460409 1_545
Cu1 Si6 2.460480 1_545
Cu1 Si2 2.500495 1_555
Cu1 Cu6 2.500633 1_555
Cu1 Cu7 2.500720 1_545
Cu1 Si3 2.502580 1_555
Cu1 Cu3 2.613309 1_555
Cu2 Cu4 2.449847 1_655
Cu2 Si1 2.460409 1_565
Cu2 Si0 2.460480 1_565
Cu2 Si4 2.500495 1_555
Cu2 Cu8 2.500633 1_555
Cu2 Cu5 2.500720 1_565
Cu2 Si7 2.502580 1_555
Cu3 Si1 2.460387 1_555
Cu3 Si0 2.460468 1_555
Cu3 Si3 2.500430 1_555
Cu3 Cu7 2.500634 1_545
Cu3 Cu6 2.500721 1_555
Cu3 Si2 2.502506 1_555
Cu4 Si4 2.460076 1_455
Cu4 Si7 2.461521 1_455
Cu4 Cu9 2.499120 1_455
Cu4 Si6 2.500620 1_556
Cu4 Si5 2.502588 1_556
Cu5 Si4 2.393899 1_545
Cu5 Si2 2.424690 1_655
Cu5 Cu9 2.498557 1_555
Cu5 Si5 2.508679 1_545
Cu5 Si0 2.513130 1_555
Cu5 Cu6 2.691504 1_555
Cu6 Si3 2.393907 1_555
Cu6 Si7 2.424674 1_555
Cu6 Cu9 2.498603 1_555
Cu6 Si5 2.508697 1_545
Cu6 Si0 2.513129 1_555
Cu7 Si2 2.393899 1_565
Cu7 Si4 2.424690 1_455
Cu7 Si1 2.508679 1_565
Cu7 Si6 2.513130 1_555
Cu7 Cu8 2.691504 1_555
Cu8 Si7 2.393907 1_555
Cu8 Si3 2.424674 1_555
Cu8 Si1 2.508697 1_565
Cu8 Si6 2.513129 1_555
Cu9 Si6 2.391684 1_656
Cu9 Si0 2.425579 1_555
Cu9 Si2 2.513947 1_655
Cu9 Si7 2.513970 1_555
Cu10 Si1 2.397121 1_554
Cu10 Si5 2.424753 1_545
Cu10 Cu6 2.498255 1_555
Cu10 Cu5 2.498283 1_555
Cu10 Cu12 2.500149 1_555
Cu10 Si2 2.511261 1_655
Cu10 Si7 2.511272 1_555
Cu10 Cu9 2.694383 1_555
Cu11 Si0 2.391684 1_454
Cu11 Si6 2.425579 1_555
Cu11 Cu7 2.498557 1_555
Cu11 Cu8 2.498603 1_555
Cu11 Cu12 2.499119 1_455
Cu11 Si4 2.513947 1_455
Cu11 Si3 2.513970 1_555
Cu11 Cu14 2.694383 1_555
Cu12 Cu13 2.449836 1_555
Cu12 Cu3 2.450747 1_554
Cu12 Si7 2.460106 1_555
Cu12 Si4 2.461569 1_555
Cu12 Si0 2.500614 1_554
Cu12 Si1 2.502547 1_554
Cu13 Cu15 2.450747 1_554
Cu13 Si5 2.460387 1_555
Cu13 Si6 2.460468 1_555
Cu13 Si7 2.500430 1_555
Cu13 Cu5 2.500634 1_565
Cu13 Cu8 2.500721 1_555
Cu13 Si4 2.502506 1_555
Cu13 Cu2 2.613309 1_555
Cu14 Si5 2.397121 1_556
Cu14 Si1 2.424753 1_565
Cu14 Cu8 2.498255 1_555
Cu14 Cu7 2.498283 1_555
Cu14 Cu15 2.500149 1_555
Cu14 Cu4 2.500150 1_555
Cu14 Si4 2.511261 1_455
Cu14 Si3 2.511272 1_555
Cu15 Cu3 2.449836 1_555
Cu15 Si3 2.460106 1_555
Cu15 Si2 2.461569 1_555
Cu15 Cu9 2.499119 1_455
Cu15 Si6 2.500614 1_556
Cu15 Si5 2.502547 1_556
Cu15 Cu4 2.610006 1_555
Si0 Si1 2.645071 1_555
Si2 Si3 2.649526 1_555
Si4 Si7 2.649526 1_555
Si5 Si6 2.645071 1_555
