# generated using pymatgen
data_Ta6Si5PW6
_symmetry_space_group_name_H-M   'P 1'
_cell_length_a   7.65909665
_cell_length_b   7.66071761
_cell_length_c   7.65909728
_cell_angle_alpha   126.38381928
_cell_angle_beta   128.84824221
_cell_angle_gamma   77.25982666
_symmetry_Int_Tables_number   1
_chemical_formula_structural   Ta6Si5PW6
_chemical_formula_sum   'Ta6 Si5 P1 W6'
_cell_volume   273.40845938
_cell_formula_units_Z   1
loop_
 _symmetry_equiv_pos_site_id
 _symmetry_equiv_pos_as_xyz
  1  'x, y, z'
loop_
 _atom_site_type_symbol
 _atom_site_label
 _atom_site_symmetry_multiplicity
 _atom_site_fract_x
 _atom_site_fract_y
 _atom_site_fract_z
 _atom_site_occupancy
  Ta  Ta0  1  0.54844260  0.09317621  0.04473361  1
  Ta  Ta1  1  0.44913959  0.49712439  0.54798380  1
  Ta  Ta2  1  0.95154628  0.49652403  0.04497875  1
  Ta  Ta3  1  0.05076049  0.09847001  0.54770952  1
  Ta  Ta4  1  0.75010013  0.89918537  0.64908524  1
  Ta  Ta5  1  0.24999647  0.89591172  0.14591425  1
  Si  Si0  1  0.24997475  0.49701008  0.74703533  1
  Si  Si1  1  0.33290567  0.83003691  0.49623405  1
  Si  Si2  1  0.66616858  0.16355318  0.49630788  1
  Si  Si3  1  0.83380286  0.83003691  0.99713124  1
  Si  Si4  1  0.16724529  0.16355318  0.99738560  1
  P  P0  1  0.75005406  0.49677649  0.24672342  1
  W  W0  1  0.50414559  0.24079408  0.74504938  1
  W  W1  1  0.99574370  0.24079408  0.23664849  1
  W  W2  1  0.12388085  0.75295598  0.62069924  1
  W  W3  1  0.86764303  0.49667020  0.62047988  1
  W  W4  1  0.63225674  0.75295598  0.12907513  1
  W  W5  1  0.37619132  0.49667020  0.12902718  1
loop_
_geom_bond_atom_site_label_1
_geom_bond_atom_site_label_2
_geom_bond_distance
_geom_bond_site_symmetry_2
Ta0 W2 2.891645 1_544
Ta0 W4 2.891645 1_545
Ta0 W1 2.931834 1_555
Ta0 W0 2.931841 1_554
Ta0 W5 2.935008 1_555
Ta0 W3 2.935011 1_555
Ta1 W3 2.889158 1_555
Ta1 W5 2.889158 1_555
Ta1 W2 2.940988 1_555
Ta1 W4 2.940992 1_556
Ta1 W0 2.943687 1_555
Ta1 W1 2.943689 1_455
Ta2 W3 2.892516 1_554
Ta2 W5 2.892520 1_655
Ta2 W1 2.933207 1_555
Ta2 W0 2.933208 1_554
Ta2 W2 2.934328 1_655
Ta2 W4 2.934331 1_555
Ta3 W4 2.888094 1_445
Ta3 W2 2.888094 1_545
Ta3 W3 2.942749 1_455
Ta3 W5 2.942750 1_556
Ta3 W1 2.943136 1_455
Ta3 W0 2.943139 1_555
Ta4 W0 2.866719 1_565
Ta4 W1 2.866720 1_566
Ta4 W2 2.928365 1_655
Ta4 W4 2.928365 1_555
Ta4 W5 2.930586 1_555
Ta4 W3 2.930589 1_555
Ta5 W0 2.916455 1_565
Ta5 W1 2.916456 1_465
Ta5 W2 2.946139 1_554
Ta5 W4 2.946143 1_555
Ta5 W3 2.947687 1_454
Ta5 W5 2.947692 1_555
Si0 W5 2.440100 1_556
Si0 W3 2.440103 1_455
Si0 W4 2.440650 1_556
Si0 W2 2.440650 1_555
Si0 W1 2.441096 1_455
Si0 W0 2.441097 1_555
Si0 Ta1 2.751519 1_555
Si0 Ta3 2.753691 1_555
Si0 Ta5 2.755974 1_556
Si1 W5 2.610934 1_555
Si1 W2 2.611484 1_555
Si1 W0 2.612260 1_565
Si1 Ta2 2.674935 1_455
Si1 Ta0 2.675420 1_566
Si1 Ta4 2.679411 1_555
Si1 Ta5 2.680431 1_555
Si1 Ta3 2.683464 1_565
Si1 Ta1 2.684977 1_555
Si2 W3 2.610435 1_555
Si2 W4 2.611566 1_545
Si2 W0 2.612326 1_555
Si2 Ta0 2.675035 1_555
Si2 Ta2 2.676278 1_556
Si2 Ta4 2.679126 1_545
Si2 Ta5 2.681269 1_545
Si2 Ta1 2.683599 1_555
Si2 Ta3 2.685253 1_655
Si3 W3 2.610929 1_555
Si3 W4 2.611484 1_556
Si3 W1 2.612258 1_566
Si3 Ta2 2.674940 1_556
Si3 Ta0 2.675420 1_566
Si3 Ta4 2.679411 1_555
Si3 Ta5 2.680427 1_656
Si3 Ta3 2.683465 1_666
Si3 Ta1 2.684981 1_555
Si4 W5 2.610444 1_556
Si4 W2 2.611569 1_545
Si4 W1 2.612326 1_456
Si4 Ta0 2.675038 1_556
Si4 Ta2 2.676274 1_456
Si4 Ta4 2.679124 1_445
Si4 Ta5 2.681260 1_546
Si4 Ta1 2.683592 1_556
Si4 Ta3 2.685261 1_555
P0 W1 2.401582 1_555
P0 W0 2.401591 1_554
P0 W5 2.402892 1_555
P0 W3 2.402895 1_555
P0 W2 2.403028 1_655
P0 W4 2.403033 1_555
P0 Ta4 2.780039 1_555
P0 Ta2 2.784937 1_555
P0 Ta0 2.787738 1_555
