# generated using pymatgen
data_Ca10Ir3Pd
_symmetry_space_group_name_H-M   'P 1'
_cell_length_a   8.63506864
_cell_length_b   8.60136444
_cell_length_c   7.65880415
_cell_angle_alpha   82.79762709
_cell_angle_beta   83.09190388
_cell_angle_gamma   44.42286253
_symmetry_Int_Tables_number   1
_chemical_formula_structural   Ca10Ir3Pd
_chemical_formula_sum   'Ca10 Ir3 Pd1'
_cell_volume   394.63347799
_cell_formula_units_Z   1
loop_
 _symmetry_equiv_pos_site_id
 _symmetry_equiv_pos_as_xyz
  1  'x, y, z'
loop_
 _atom_site_type_symbol
 _atom_site_label
 _atom_site_symmetry_multiplicity
 _atom_site_fract_x
 _atom_site_fract_y
 _atom_site_fract_z
 _atom_site_occupancy
  Ca  Ca0  1  0.03795172  0.79039659  0.91585237  1
  Ca  Ca1  1  0.19878226  0.97736567  0.58407598  1
  Ca  Ca2  1  0.98105862  0.20225300  0.08226617  1
  Ca  Ca3  1  0.80501238  0.02437401  0.42278282  1
  Ca  Ca4  1  0.36132713  0.19976951  0.81610493  1
  Ca  Ca5  1  0.79562859  0.63773119  0.67594674  1
  Ca  Ca6  1  0.63372533  0.79339307  0.17691385  1
  Ca  Ca7  1  0.19234139  0.36969505  0.33006472  1
  Ca  Ca8  1  0.57408190  0.43047139  0.74178922  1
  Ca  Ca9  1  0.42417580  0.57847626  0.25571629  1
  Ir  Ir0  1  0.17636511  0.60072969  0.58494146  1
  Ir  Ir1  1  0.39611430  0.82276614  0.91740598  1
  Ir  Ir2  1  0.82461362  0.39461298  0.41471302  1
  Pd  Pd0  1  0.59882085  0.17796543  0.08142745  1
loop_
_geom_bond_atom_site_label_1
_geom_bond_atom_site_label_2
_geom_bond_distance
_geom_bond_site_symmetry_2
Ca0 Ir0 2.834781 1_555
Ca0 Pd0 2.991170 1_466
Ca0 Ir1 3.298859 1_555
Ca1 Ir1 2.854433 1_555
Ca1 Ir2 2.877446 1_465
Ca1 Ir0 3.379713 1_555
Ca2 Ir2 2.842821 1_555
Ca2 Ir1 2.885922 1_644
Ca2 Pd0 3.453740 1_555
Ca3 Ir0 2.869849 1_645
Ca3 Pd0 2.940105 1_555
Ca3 Ir2 3.300294 1_555
Ca4 Pd0 2.954253 1_556
Ca4 Ir0 2.976711 1_555
Ca4 Ir1 3.039966 1_545
Ca5 Ir2 2.935903 1_555
Ca5 Ir1 3.035607 1_555
Ca5 Ir0 3.066883 1_655
Ca6 Ir1 2.887648 1_554
Ca6 Ir2 2.979774 1_555
Ca6 Pd0 3.096751 1_565
Ca7 Ir0 2.880082 1_555
Ca7 Ir2 3.019377 1_455
Ca7 Pd0 3.094721 1_555
Ca8 Ir0 2.957963 1_555
Ca8 Ir1 2.964854 1_555
Ca8 Ir2 2.997893 1_555
Ca8 Pd0 3.095715 1_556
Ca9 Ir2 2.942670 1_555
Ca9 Pd0 3.028487 1_555
Ca9 Ir0 3.035045 1_555
Ca9 Ir1 3.040725 1_554
