# generated using pymatgen
data_Hf6Al9(FeSi)7
_symmetry_space_group_name_H-M   'P 1'
_cell_length_a   8.29289476
_cell_length_b   8.32308434
_cell_length_c   8.32308501
_cell_angle_alpha   59.99999735
_cell_angle_beta   59.87950013
_cell_angle_gamma   59.87950372
_symmetry_Int_Tables_number   1
_chemical_formula_structural   Hf6Al9(FeSi)7
_chemical_formula_sum   'Hf6 Al9 Fe7 Si7'
_cell_volume   405.47714084
_cell_formula_units_Z   1
loop_
 _symmetry_equiv_pos_site_id
 _symmetry_equiv_pos_as_xyz
  1  'x, y, z'
loop_
 _atom_site_type_symbol
 _atom_site_label
 _atom_site_symmetry_multiplicity
 _atom_site_fract_x
 _atom_site_fract_y
 _atom_site_fract_z
 _atom_site_occupancy
  Hf  Hf0  1  0.69543091  0.30422957  0.30422957  1
  Hf  Hf1  1  0.30581858  0.69621814  0.69621814  1
  Hf  Hf2  1  0.30581858  0.69621814  0.30174415  1
  Hf  Hf3  1  0.69543091  0.30422957  0.69610896  1
  Hf  Hf4  1  0.30581858  0.30174415  0.69621814  1
  Hf  Hf5  1  0.69543091  0.69610896  0.30422957  1
  Al  Al0  1  0.99930234  0.66689955  0.66689955  1
  Al  Al1  1  0.12085611  0.12129257  0.12129257  1
  Al  Al2  1  0.88084962  0.88021463  0.88021463  1
  Al  Al3  1  0.12085611  0.12129257  0.63655974  1
  Al  Al4  1  0.12085611  0.63655974  0.12129257  1
  Al  Al5  1  0.88084962  0.88021463  0.35872112  1
  Al  Al6  1  0.88084962  0.35872112  0.88021463  1
  Al  Al7  1  0.63603520  0.12132127  0.12132127  1
  Al  Al8  1  0.36407249  0.87864250  0.87864250  1
  Fe  Fe0  1  0.49973079  0.00043247  0.00043247  1
  Fe  Fe1  1  0.99941232  0.49667396  0.49667396  1
  Fe  Fe2  1  0.99941232  0.49667396  0.00723977  1
  Fe  Fe3  1  0.49973079  0.00043247  0.49940527  1
  Fe  Fe4  1  0.99941232  0.00723977  0.49667396  1
  Fe  Fe5  1  0.49973079  0.49940527  0.00043247  1
  Fe  Fe6  1  0.00181404  0.99939465  0.99939465  1
  Si  Si0  1  0.33760202  0.33936916  0.33936916  1
  Si  Si1  1  0.66541631  0.66115137  0.66115137  1
  Si  Si2  1  0.33760202  0.33936916  0.98365966  1
  Si  Si3  1  0.33760202  0.98365966  0.33936916  1
  Si  Si4  1  0.66541631  0.66115137  0.01228196  1
  Si  Si5  1  0.66541631  0.01228196  0.66115137  1
  Si  Si6  1  0.98342497  0.33885768  0.33885768  1
loop_
_geom_bond_atom_site_label_1
_geom_bond_atom_site_label_2
_geom_bond_distance
_geom_bond_site_symmetry_2
Hf0 Si0 2.705589 1_555
Hf0 Si6 2.708300 1_555
Hf0 Si4 2.727233 1_555
Hf0 Si5 2.727233 1_555
Hf1 Si2 2.712195 1_555
Hf1 Si3 2.712195 1_555
Hf1 Si1 2.720558 1_555
Hf2 Si0 2.712192 1_555
Hf2 Si3 2.712200 1_555
Hf2 Si4 2.720552 1_555
Hf3 Si2 2.705592 1_555
Hf3 Si6 2.708305 1_555
Hf3 Si5 2.727223 1_555
Hf3 Si1 2.727240 1_555
Hf4 Si0 2.712192 1_555
Hf4 Si2 2.712200 1_555
Hf4 Si5 2.720552 1_555
Hf5 Si3 2.705592 1_555
Hf5 Si6 2.708305 1_555
Hf5 Si4 2.727224 1_555
Hf5 Si1 2.727240 1_555
Al0 Fe4 2.453437 1_565
Al0 Fe2 2.453438 1_556
Al0 Fe1 2.453445 1_555
Al0 Al2 2.630726 1_555
Al0 Al6 2.630732 1_555
Al0 Al5 2.630733 1_555
Al0 Hf1 2.808025 1_655
Al0 Hf2 2.808035 1_655
Al0 Hf4 2.808035 1_655
Al0 Si4 2.817708 1_556
Al0 Si1 2.817708 1_555
Al0 Si5 2.817708 1_565
Al1 Fe6 2.464359 1_544
Al1 Fe2 2.551958 1_455
Al1 Fe4 2.551959 1_455
Al1 Fe0 2.561920 1_555
Al1 Si2 2.639351 1_554
Al1 Si3 2.639352 1_545
Al1 Si6 2.644513 1_455
Al1 Al5 2.826346 1_445
Al1 Al6 2.826346 1_454
Al1 Al8 2.850946 1_544
Al1 Hf0 2.935842 1_455
Al1 Hf2 2.945749 1_545
Al1 Hf4 2.945749 1_554
Al2 Fe6 2.440398 1_655
Al2 Fe0 2.577768 1_566
Al2 Fe2 2.606357 1_556
Al2 Fe4 2.606357 1_565
Al2 Si4 2.649261 1_556
Al2 Si5 2.649261 1_565
Al2 Al3 2.826345 1_665
Al2 Al4 2.826346 1_656
Al2 Al7 2.832841 1_566
Al2 Hf1 2.936402 1_655
Al2 Hf3 2.945801 1_565
Al2 Hf5 2.945802 1_556
Al3 Fe6 2.464339 1_545
Al3 Fe1 2.551959 1_455
Al3 Fe4 2.551966 1_455
Al3 Fe3 2.561920 1_555
Al3 Si0 2.639353 1_555
Al3 Si3 2.639358 1_545
Al3 Si6 2.644533 1_455
Al3 Al6 2.826340 1_455
Al3 Al8 2.850940 1_545
Al3 Hf3 2.935845 1_455
Al3 Hf4 2.945738 1_555
Al3 Hf1 2.945752 1_545
Al4 Fe6 2.464339 1_554
Al4 Fe1 2.551959 1_455
Al4 Fe2 2.551966 1_455
Al4 Fe5 2.561920 1_555
Al4 Si0 2.639354 1_555
Al4 Si2 2.639358 1_554
Al4 Si6 2.644533 1_455
Al4 Al5 2.826340 1_455
Al4 Al8 2.850940 1_554
Al4 Hf5 2.935844 1_455
Al4 Hf2 2.945738 1_555
Al4 Hf1 2.945752 1_554
Al5 Fe6 2.440412 1_654
Al5 Fe3 2.577768 1_565
Al5 Fe1 2.606357 1_555
Al5 Fe4 2.606357 1_565
Al5 Si1 2.649263 1_555
Al5 Si5 2.649268 1_565
Al5 Al7 2.832847 1_565
Al5 Hf2 2.936401 1_655
Al5 Hf0 2.945800 1_565
Al5 Hf5 2.945807 1_555
Al6 Fe6 2.440412 1_645
Al6 Fe5 2.577768 1_556
Al6 Fe1 2.606357 1_555
Al6 Fe2 2.606357 1_556
Al6 Si1 2.649263 1_555
Al6 Si4 2.649268 1_556
Al6 Al7 2.832846 1_556
Al6 Hf4 2.936401 1_655
Al6 Hf0 2.945800 1_556
Al6 Hf3 2.945807 1_555
Al7 Fe6 2.472212 1_644
Al7 Fe0 2.568613 1_555
Al7 Fe5 2.568626 1_555
Al7 Fe3 2.568626 1_555
Al7 Si3 2.643890 1_545
Al7 Si2 2.643890 1_554
Al7 Si0 2.643895 1_555
Al7 Hf5 2.949668 1_545
Al7 Hf3 2.949669 1_554
Al7 Hf0 2.949669 1_555
Al8 Fe6 2.448419 1_555
Al8 Fe5 2.576279 1_556
Al8 Fe3 2.576280 1_565
Al8 Fe0 2.576286 1_566
Al8 Si1 2.644836 1_555
Al8 Si5 2.644840 1_565
Al8 Si4 2.644841 1_556
Al8 Hf4 2.936270 1_565
Al8 Hf2 2.936270 1_556
Al8 Hf1 2.936277 1_555
Fe0 Si2 2.402733 1_554
Fe0 Si3 2.402733 1_545
Fe0 Si4 2.415617 1_545
Fe0 Si5 2.415617 1_554
Fe0 Hf2 2.995897 1_545
Fe0 Hf4 2.995898 1_554
Fe0 Hf3 3.005210 1_554
Fe0 Hf5 3.005211 1_545
Fe1 Si6 2.354386 1_555
Fe1 Si0 2.374352 1_655
Fe1 Si1 2.383869 1_555
Fe1 Hf3 2.978217 1_555
Fe1 Hf5 2.978218 1_555
Fe1 Hf2 3.041483 1_655
Fe1 Hf4 3.041484 1_655
Fe2 Si6 2.354371 1_555
Fe2 Si2 2.374352 1_654
Fe2 Si4 2.383866 1_555
Fe2 Hf5 2.978212 1_555
Fe2 Hf0 2.978216 1_555
Fe2 Hf1 3.041485 1_654
Fe2 Hf4 3.041489 1_654
Fe3 Si0 2.402735 1_555
Fe3 Si3 2.402740 1_545
Fe3 Si1 2.415617 1_545
Fe3 Si5 2.415617 1_555
Fe3 Hf4 2.995886 1_555
Fe3 Hf1 2.995900 1_545
Fe3 Hf0 3.005208 1_555
Fe3 Hf5 3.005222 1_545
Fe4 Si6 2.354371 1_555
Fe4 Si3 2.374352 1_645
Fe4 Si5 2.383866 1_555
Fe4 Hf3 2.978212 1_555
Fe4 Hf0 2.978216 1_555
Fe4 Hf1 3.041485 1_645
Fe4 Hf2 3.041489 1_645
Fe5 Si0 2.402735 1_555
Fe5 Si2 2.402740 1_554
Fe5 Si4 2.415617 1_555
Fe5 Si1 2.415617 1_554
Fe5 Hf2 2.995886 1_555
Fe5 Hf1 2.995900 1_554
Fe5 Hf0 3.005208 1_555
Fe5 Hf3 3.005222 1_554
