# generated using pymatgen
data_Rb2BaAs2Pt3
_symmetry_space_group_name_H-M   'P 1'
_cell_length_a   7.95698293
_cell_length_b   7.95698275
_cell_length_c   7.95698369
_cell_angle_alpha   42.41582563
_cell_angle_beta   42.41582820
_cell_angle_gamma   42.41582205
_symmetry_Int_Tables_number   1
_chemical_formula_structural   Rb2BaAs2Pt3
_chemical_formula_sum   'Rb2 Ba1 As2 Pt3'
_cell_volume   207.50227983
_cell_formula_units_Z   1
loop_
 _symmetry_equiv_pos_site_id
 _symmetry_equiv_pos_as_xyz
  1  'x, y, z'
loop_
 _atom_site_type_symbol
 _atom_site_label
 _atom_site_symmetry_multiplicity
 _atom_site_fract_x
 _atom_site_fract_y
 _atom_site_fract_z
 _atom_site_occupancy
  Rb  Rb0  1  0.50953591  0.50953591  0.50953591  1
  Rb  Rb1  1  0.91002700  0.91002700  0.91002700  1
  Ba  Ba0  1  0.07926307  0.07926307  0.07926307  1
  As  As0  1  0.24861192  0.24861192  0.24861192  1
  As  As1  1  0.75291354  0.75291354  0.75291354  1
  Pt  Pt0  1  0.49950372  0.49950372  0.00064211  1
  Pt  Pt1  1  0.49950372  0.00064211  0.49950372  1
  Pt  Pt2  1  0.00064211  0.49950372  0.49950372  1
loop_
_geom_bond_atom_site_label_1
_geom_bond_atom_site_label_2
_geom_bond_distance
_geom_bond_site_symmetry_2
Rb0 Rb1 3.628908 1_545
Rb0 Rb1 3.628908 1_455
Rb0 Rb1 3.628908 1_554
Ba0 Pt0 3.354044 1_545
Ba0 Pt0 3.354044 1_455
Ba0 Pt2 3.354045 1_545
Ba0 Pt1 3.354045 1_455
Ba0 Pt2 3.354045 1_554
Ba0 Pt1 3.354045 1_554
Ba0 Rb0 3.932918 1_545
Ba0 Rb0 3.932918 1_455
Ba0 Rb0 3.932919 1_554
As0 Pt0 2.473126 1_555
As0 Pt1 2.473126 1_555
As0 Pt2 2.473126 1_555
As0 Rb1 3.325716 1_454
As0 Rb1 3.325716 1_544
As0 Rb1 3.325717 1_445
As0 Ba0 3.672940 1_555
As0 Rb0 3.676105 1_545
As0 Rb0 3.676105 1_455
As0 Rb0 3.676106 1_554
As1 Pt0 2.506587 1_556
As1 Pt1 2.506587 1_565
As1 Pt2 2.506587 1_655
As1 Ba0 3.327214 1_656
As1 Ba0 3.327215 1_566
As1 Ba0 3.327215 1_665
As1 Rb1 3.407571 1_555
As1 Rb0 3.854071 1_565
As1 Rb0 3.854072 1_655
As1 Rb0 3.854072 1_556
Pt0 Pt1 2.871912 1_555
Pt0 Pt2 2.871912 1_555
Pt0 Pt1 2.885019 1_564
Pt0 Pt2 2.885019 1_654
Pt0 Rb1 3.476149 1_544
Pt0 Rb1 3.476149 1_454
Pt0 Rb0 3.790948 1_554
Pt0 Rb0 4.168117 1_555
Pt1 Pt2 2.871911 1_555
Pt1 Pt2 2.885018 1_645
Pt1 Rb1 3.476149 1_445
Pt1 Rb1 3.476149 1_544
Pt1 Rb0 3.790947 1_545
Pt1 Rb0 4.168116 1_555
Pt2 Rb1 3.476149 1_445
Pt2 Rb1 3.476149 1_454
Pt2 Rb0 3.790947 1_455
Pt2 Rb0 4.168116 1_555
