# generated using pymatgen
data_Ti4MnB2As
_symmetry_space_group_name_H-M   'P 1'
_cell_length_a   7.12553535
_cell_length_b   7.12553509
_cell_length_c   7.12553513
_cell_angle_alpha   131.26389687
_cell_angle_beta   131.26388750
_cell_angle_gamma   71.39413873
_symmetry_Int_Tables_number   1
_chemical_formula_structural   Ti4MnB2As
_chemical_formula_sum   'Ti8 Mn2 B4 As2'
_cell_volume   200.06928154
_cell_formula_units_Z   2
loop_
 _symmetry_equiv_pos_site_id
 _symmetry_equiv_pos_as_xyz
  1  'x, y, z'
loop_
 _atom_site_type_symbol
 _atom_site_label
 _atom_site_symmetry_multiplicity
 _atom_site_fract_x
 _atom_site_fract_y
 _atom_site_fract_z
 _atom_site_occupancy
  Ti  Ti0  1  0.19573980  0.69573980  0.15177792  1
  Ti  Ti1  1  0.45603812  0.95603812  0.15177792  1
  Ti  Ti2  1  0.54396188  0.04396188  0.84822208  1
  Ti  Ti3  1  0.04396188  0.19573980  0.50000000  1
  Ti  Ti4  1  0.69573980  0.54396188  0.50000000  1
  Ti  Ti5  1  0.95603812  0.80426020  0.50000000  1
  Ti  Ti6  1  0.30426020  0.45603812  0.50000000  1
  Ti  Ti7  1  0.80426020  0.30426020  0.84822208  1
  Mn  Mn0  1  0.00000000  0.00000000  0.00000000  1
  Mn  Mn1  1  0.50000000  0.50000000  0.00000000  1
  B  B0  1  0.88537426  0.38537426  0.27074853  1
  B  B1  1  0.38537426  0.11462574  0.50000000  1
  B  B2  1  0.61462574  0.88537426  0.50000000  1
  B  B3  1  0.11462574  0.61462574  0.72925147  1
  As  As0  1  0.75000000  0.75000000  0.00000000  1
  As  As1  1  0.25000000  0.25000000  0.00000000  1
loop_
_geom_bond_atom_site_label_1
_geom_bond_atom_site_label_2
_geom_bond_distance
_geom_bond_site_symmetry_2
B0 B3 1.906340 1_655
B0 Ti4 2.296430 1_555
B0 Ti5 2.296430 1_555
B0 Ti3 2.296430 1_655
B0 Ti6 2.296430 1_655
B0 Ti7 2.314104 1_554
B0 Ti2 2.314104 1_554
B0 Mn0 2.364091 1_655
B0 Mn1 2.364091 1_555
B1 B2 1.906339 1_545
B1 Ti1 2.296430 1_545
B1 Ti0 2.296430 1_545
B1 Ti2 2.296430 1_555
B1 Ti7 2.296430 1_555
B1 Ti6 2.314104 1_555
B1 Ti3 2.314104 1_555
B1 Mn1 2.364091 1_556
B1 Mn0 2.364091 1_555
B2 Ti2 2.296430 1_565
B2 Ti7 2.296430 1_565
B2 Ti1 2.296430 1_555
B2 Ti0 2.296430 1_555
B2 Ti4 2.314104 1_555
B2 Ti5 2.314104 1_555
B2 Mn1 2.364091 1_555
B2 Mn0 2.364091 1_666
B3 Ti6 2.296430 1_555
B3 Ti3 2.296430 1_555
B3 Ti5 2.296430 1_455
B3 Ti4 2.296430 1_455
B3 Ti0 2.314104 1_556
B3 Ti1 2.314104 1_556
B3 Mn0 2.364091 1_566
B3 Mn1 2.364091 1_556
As0 Ti7 2.577590 1_554
As0 Ti1 2.577590 1_555
As0 Ti4 2.577590 1_554
As0 Ti2 2.577590 1_564
As0 Ti5 2.577590 1_555
As0 Ti3 2.577590 1_665
As0 Ti0 2.577590 1_655
As0 Ti6 2.577590 1_554
As0 Mn0 2.893371 1_665
As0 Mn1 2.893371 1_555
As1 Ti0 2.577590 1_555
As1 Ti2 2.577590 1_554
As1 Ti6 2.577590 1_555
As1 Ti1 2.577590 1_545
As1 Ti3 2.577590 1_554
As1 Ti5 2.577590 1_444
As1 Ti7 2.577590 1_454
As1 Ti4 2.577590 1_555
As1 Mn0 2.893371 1_555
As1 Mn1 2.893371 1_555
