# generated using pymatgen
data_Cs16LuSnBi8
_symmetry_space_group_name_H-M   'P 1'
_cell_length_a   12.74694295
_cell_length_b   12.74694222
_cell_length_c   12.74694295
_cell_angle_alpha   59.99999810
_cell_angle_beta   59.99999998
_cell_angle_gamma   60.00000102
_symmetry_Int_Tables_number   1
_chemical_formula_structural   Cs16LuSnBi8
_chemical_formula_sum   'Cs16 Lu1 Sn1 Bi8'
_cell_volume   1464.54628176
_cell_formula_units_Z   1
loop_
 _symmetry_equiv_pos_site_id
 _symmetry_equiv_pos_as_xyz
  1  'x, y, z'
loop_
 _atom_site_type_symbol
 _atom_site_label
 _atom_site_symmetry_multiplicity
 _atom_site_fract_x
 _atom_site_fract_y
 _atom_site_fract_z
 _atom_site_occupancy
  Cs  Cs0  1  0.62216763  0.13349610  0.62216763  1
  Cs  Cs1  1  0.62216763  0.62216763  0.13349610  1
  Cs  Cs2  1  0.13349610  0.62216763  0.62216763  1
  Cs  Cs3  1  0.62216763  0.62216763  0.62216763  1
  Cs  Cs4  1  0.02130443  0.02130443  0.47869557  1
  Cs  Cs5  1  0.77875908  0.22124092  0.22124092  1
  Cs  Cs6  1  0.22124092  0.77875908  0.77875908  1
  Cs  Cs7  1  0.77875908  0.77875908  0.22124092  1
  Cs  Cs8  1  0.77875908  0.22124092  0.77875908  1
  Cs  Cs9  1  0.22124092  0.77875908  0.22124092  1
  Cs  Cs10  1  0.47869557  0.02130443  0.47869557  1
  Cs  Cs11  1  0.47869557  0.02130443  0.02130443  1
  Cs  Cs12  1  0.02130443  0.47869557  0.47869557  1
  Cs  Cs13  1  0.02130443  0.47869557  0.02130443  1
  Cs  Cs14  1  0.22124092  0.22124092  0.77875908  1
  Cs  Cs15  1  0.47869557  0.47869557  0.02130443  1
  Lu  Lu0  1  0.75000000  0.75000000  0.75000000  1
  Sn  Sn0  1  0.50000000  0.50000000  0.50000000  1
  Bi  Bi0  1  0.40190014  0.79429959  0.40190014  1
  Bi  Bi1  1  0.84926230  0.84926230  0.45221310  1
  Bi  Bi2  1  0.45221310  0.84926230  0.84926230  1
  Bi  Bi3  1  0.84926230  0.84926230  0.84926230  1
  Bi  Bi4  1  0.79429959  0.40190014  0.40190014  1
  Bi  Bi5  1  0.40190014  0.40190014  0.40190014  1
  Bi  Bi6  1  0.40190014  0.40190014  0.79429959  1
  Bi  Bi7  1  0.84926230  0.45221310  0.84926230  1
loop_
_geom_bond_atom_site_label_1
_geom_bond_atom_site_label_2
_geom_bond_distance
_geom_bond_site_symmetry_2
Cs0 Sn0 3.814512 1_555
Cs0 Lu0 3.991364 1_545
Cs1 Sn0 3.814512 1_555
Cs1 Lu0 3.991364 1_554
Cs2 Sn0 3.814512 1_555
Cs2 Lu0 3.991364 1_455
Cs3 Sn0 3.814502 1_555
Cs3 Lu0 3.991375 1_555
Bi0 Sn0 3.063021 1_555
Bi0 Cs3 4.017867 1_555
Bi0 Cs2 4.017877 1_555
Bi0 Cs1 4.017877 1_555
Bi0 Cs6 4.106214 1_555
Bi0 Cs9 4.106214 1_555
Bi0 Cs7 4.106214 1_555
Bi0 Cs10 4.112537 1_565
Bi0 Cs11 4.112537 1_565
Bi0 Cs4 4.112538 1_565
Bi1 Lu0 3.099317 1_555
Bi1 Cs12 4.002804 1_655
Bi1 Cs4 4.002804 1_665
Bi1 Cs10 4.002804 1_565
Bi1 Cs5 4.047607 1_565
Bi1 Cs7 4.047607 1_555
Bi1 Cs9 4.047608 1_655
Bi1 Cs0 4.158092 1_565
Bi1 Cs2 4.158092 1_655
Bi1 Cs3 4.158102 1_555
Bi2 Lu0 3.099317 1_555
Bi2 Cs15 4.002804 1_556
Bi2 Cs11 4.002804 1_566
Bi2 Cs10 4.002804 1_565
Bi2 Cs14 4.047607 1_565
Bi2 Cs9 4.047607 1_556
Bi2 Cs6 4.047607 1_555
Bi2 Cs0 4.158092 1_565
Bi2 Cs1 4.158092 1_556
Bi2 Cs3 4.158102 1_555
Bi3 Lu0 3.099317 1_555
Bi3 Cs13 4.002804 1_656
Bi3 Cs4 4.002804 1_665
Bi3 Cs11 4.002804 1_566
Bi3 Cs8 4.047607 1_565
Bi3 Cs7 4.047607 1_556
Bi3 Cs6 4.047608 1_655
Bi3 Cs1 4.158100 1_556
Bi3 Cs0 4.158100 1_565
Bi3 Cs2 4.158100 1_655
Bi4 Sn0 3.063022 1_555
Bi4 Cs3 4.017867 1_555
Bi4 Cs0 4.017877 1_555
Bi4 Cs1 4.017877 1_555
Bi4 Cs7 4.106214 1_555
Bi4 Cs5 4.106214 1_555
Bi4 Cs8 4.106214 1_555
Bi4 Cs4 4.112537 1_655
Bi4 Cs13 4.112538 1_655
Bi4 Cs12 4.112538 1_655
Bi5 Sn0 3.063022 1_555
Bi5 Cs1 4.017869 1_555
Bi5 Cs0 4.017869 1_555
Bi5 Cs2 4.017869 1_555
Bi5 Cs9 4.106214 1_555
Bi5 Cs14 4.106214 1_555
Bi5 Cs5 4.106214 1_555
Bi5 Cs10 4.112537 1_555
Bi5 Cs15 4.112538 1_555
Bi5 Cs12 4.112538 1_555
Bi6 Sn0 3.063022 1_555
Bi6 Cs3 4.017867 1_555
Bi6 Cs0 4.017877 1_555
Bi6 Cs2 4.017877 1_555
Bi6 Cs6 4.106214 1_555
Bi6 Cs14 4.106214 1_555
Bi6 Cs8 4.106214 1_555
Bi6 Cs11 4.112537 1_556
Bi6 Cs15 4.112538 1_556
Bi6 Cs13 4.112538 1_556
Bi7 Lu0 3.099317 1_555
Bi7 Cs12 4.002804 1_655
Bi7 Cs13 4.002804 1_656
Bi7 Cs15 4.002804 1_556
Bi7 Cs5 4.047607 1_556
Bi7 Cs8 4.047607 1_555
Bi7 Cs14 4.047608 1_655
Bi7 Cs2 4.158092 1_655
Bi7 Cs1 4.158092 1_556
Bi7 Cs3 4.158102 1_555
