# generated using pymatgen
data_MgReF6
_symmetry_space_group_name_H-M   'P 1'
_cell_length_a   5.45940604
_cell_length_b   5.45940660
_cell_length_c   5.45940683
_cell_angle_alpha   56.23341519
_cell_angle_beta   56.23340778
_cell_angle_gamma   56.23341596
_symmetry_Int_Tables_number   1
_chemical_formula_structural   MgReF6
_chemical_formula_sum   'Mg1 Re1 F6'
_cell_volume   105.02972925
_cell_formula_units_Z   1
loop_
 _symmetry_equiv_pos_site_id
 _symmetry_equiv_pos_as_xyz
  1  'x, y, z'
loop_
 _atom_site_type_symbol
 _atom_site_label
 _atom_site_symmetry_multiplicity
 _atom_site_fract_x
 _atom_site_fract_y
 _atom_site_fract_z
 _atom_site_occupancy
  Mg  Mg0  1  0.50000000  0.50000000  0.50000000  1
  Re  Re0  1  0.00000000  0.00000000  0.00000000  1
  F  F0  1  0.63147954  0.86968764  0.24926940  1
  F  F1  1  0.86968764  0.24926940  0.63147954  1
  F  F2  1  0.75073060  0.36852046  0.13031236  1
  F  F3  1  0.13031236  0.75073060  0.36852046  1
  F  F4  1  0.36852046  0.13031236  0.75073060  1
  F  F5  1  0.24926940  0.63147954  0.86968764  1
loop_
_geom_bond_atom_site_label_1
_geom_bond_atom_site_label_2
_geom_bond_distance
_geom_bond_site_symmetry_2
F0 Re0 1.969051 1_665
F0 Mg0 1.977251 1_555
F1 Re0 1.969052 1_656
F1 Mg0 1.977251 1_555
F2 Re0 1.969051 1_655
F2 Mg0 1.977251 1_555
F3 Re0 1.969052 1_565
F3 Mg0 1.977251 1_555
F4 Re0 1.969051 1_556
F4 Mg0 1.977251 1_555
F5 Re0 1.969051 1_566
F5 Mg0 1.977251 1_555
