# generated using pymatgen
data_KInGa2Se5
_symmetry_space_group_name_H-M   'P 1'
_cell_length_a   10.15356370
_cell_length_b   10.22324548
_cell_length_c   10.15788891
_cell_angle_alpha   91.01851635
_cell_angle_beta   90.33773801
_cell_angle_gamma   90.88456322
_symmetry_Int_Tables_number   1
_chemical_formula_structural   KInGa2Se5
_chemical_formula_sum   'K4 In4 Ga8 Se20'
_cell_volume   1054.10068556
_cell_formula_units_Z   4
loop_
 _symmetry_equiv_pos_site_id
 _symmetry_equiv_pos_as_xyz
  1  'x, y, z'
loop_
 _atom_site_type_symbol
 _atom_site_label
 _atom_site_symmetry_multiplicity
 _atom_site_fract_x
 _atom_site_fract_y
 _atom_site_fract_z
 _atom_site_occupancy
  K  K0  1  0.24895565  0.00098751  0.74651918  1
  K  K1  1  0.73869576  0.25174072  0.99602698  1
  K  K2  1  0.99935950  0.74819848  0.25015345  1
  K  K3  1  0.49957913  0.49785000  0.49826694  1
  In  In0  1  0.84094098  0.89341595  0.57820836  1
  In  In1  1  0.57722429  0.84221578  0.89395317  1
  In  In2  1  0.89059930  0.57975578  0.84018776  1
  In  In3  1  0.16708919  0.41760551  0.11401285  1
  Ga  Ga0  1  0.11149538  0.16520607  0.42026365  1
  Ga  Ga1  1  0.42160910  0.10678147  0.17463817  1
  Ga  Ga2  1  0.73286304  0.15991258  0.35215047  1
  Ga  Ga3  1  0.35379068  0.73384693  0.16477150  1
  Ga  Ga4  1  0.16307110  0.35469373  0.72809174  1
  Ga  Ga5  1  0.27115857  0.64413742  0.83364817  1
  Ga  Ga6  1  0.83771125  0.26829137  0.64275003  1
  Ga  Ga7  1  0.64571641  0.83628602  0.26776676  1
  Se  Se0  1  0.20023924  0.79507791  0.99912936  1
  Se  Se1  1  0.80000522  0.99782072  0.19671935  1
  Se  Se2  1  0.18206806  0.16570514  0.18374382  1
  Se  Se3  1  0.83416472  0.83521020  0.83404569  1
  Se  Se4  1  0.99847833  0.20321238  0.79956781  1
  Se  Se5  1  0.92740455  0.49398689  0.07542027  1
  Se  Se6  1  0.07514221  0.94330038  0.48881420  1
  Se  Se7  1  0.48404060  0.07225644  0.94791755  1
  Se  Se8  1  0.73540777  0.70665532  0.43641188  1
  Se  Se9  1  0.43897158  0.73933855  0.70305126  1
  Se  Se10  1  0.70592764  0.43796875  0.72999552  1
  Se  Se11  1  0.26449386  0.56803764  0.29918403  1
  Se  Se12  1  0.28545650  0.26293366  0.55208159  1
  Se  Se13  1  0.55616798  0.28268072  0.26564148  1
  Se  Se14  1  0.67868104  0.09129513  0.57892048  1
  Se  Se15  1  0.57849875  0.67840717  0.09063096  1
  Se  Se16  1  0.09172730  0.57937444  0.67777563  1
  Se  Se17  1  0.32208148  0.41973043  0.90534831  1
  Se  Se18  1  0.91937053  0.30964022  0.41673023  1
  Se  Se19  1  0.42181432  0.91644262  0.31746439  1
loop_
_geom_bond_atom_site_label_1
_geom_bond_atom_site_label_2
_geom_bond_distance
_geom_bond_site_symmetry_2
K0 Se6 3.189590 1_545
K0 Se7 3.201462 1_555
K0 Se4 3.342371 1_455
K0 Se9 3.346611 1_545
K0 Se12 3.372782 1_555
K0 Se0 3.381582 1_545
K1 Se7 3.177748 1_555
K1 Se5 3.196753 1_556
K1 Se13 3.329038 1_556
K1 Se10 3.351081 1_555
K1 Se4 3.354611 1_555
K1 Se1 3.391924 1_546
K2 Se5 3.193795 1_555
K2 Se6 3.194730 1_655
K2 Se0 3.311538 1_654
K2 Se8 3.316004 1_555
K2 Se11 3.325276 1_655
K2 Se1 3.331673 1_555
K3 Se10 3.215264 1_555
K3 Se11 3.217068 1_555
K3 Se8 3.254662 1_555
K3 Se13 3.259275 1_555
K3 Se9 3.268060 1_555
K3 Se12 3.269977 1_555
In0 Se8 2.586330 1_555
In0 Se6 2.596901 1_655
In0 Se14 2.628552 1_565
In0 Se3 2.677355 1_555
In1 Se9 2.585895 1_555
In1 Se7 2.599124 1_565
In1 Se15 2.629691 1_556
In1 Se3 2.684126 1_555
In2 Se5 2.586913 1_556
In2 Se10 2.589124 1_555
In2 Se16 2.632853 1_655
In2 Se3 2.684050 1_555
In3 Se11 2.590273 1_555
In3 Se5 2.597000 1_455
In3 Se17 2.647575 1_554
In3 Se2 2.689308 1_555
Ga0 Se12 2.404384 1_555
Ga0 Se6 2.408523 1_545
Ga0 Se18 2.465162 1_455
Ga0 Se2 2.511238 1_555
Ga1 Se13 2.409370 1_555
Ga1 Se7 2.413598 1_554
Ga1 Se19 2.447809 1_545
Ga1 Se2 2.516528 1_555
Ga2 Se13 2.378305 1_555
Ga2 Se1 2.378673 1_545
Ga2 Se14 2.482207 1_555
Ga2 Se18 2.493931 1_555
Ga3 Se11 2.368345 1_555
Ga3 Se0 2.385442 1_554
Ga3 Se15 2.477713 1_555
Ga3 Se19 2.492395 1_555
Ga4 Se12 2.371348 1_555
Ga4 Se4 2.385936 1_455
Ga4 Se16 2.480076 1_555
Ga4 Se17 2.486115 1_555
Ga5 Se9 2.373121 1_555
Ga5 Se0 2.383612 1_555
Ga5 Se17 2.480441 1_555
Ga5 Se16 2.481127 1_555
Ga6 Se10 2.369780 1_555
Ga6 Se4 2.384376 1_555
Ga6 Se14 2.481463 1_555
Ga6 Se18 2.486636 1_555
Ga7 Se8 2.370622 1_555
Ga7 Se1 2.382853 1_555
Ga7 Se19 2.480135 1_555
Ga7 Se15 2.481280 1_555
