# generated using pymatgen
data_SrTiTeO6
_symmetry_space_group_name_H-M   'P 1'
_cell_length_a   5.19932262
_cell_length_b   5.19932226
_cell_length_c   5.35643064
_cell_angle_alpha   90.00000000
_cell_angle_beta   90.00000000
_cell_angle_gamma   119.99999613
_symmetry_Int_Tables_number   1
_chemical_formula_structural   SrTiTeO6
_chemical_formula_sum   'Sr1 Ti1 Te1 O6'
_cell_volume   125.40060638
_cell_formula_units_Z   1
loop_
 _symmetry_equiv_pos_site_id
 _symmetry_equiv_pos_as_xyz
  1  'x, y, z'
loop_
 _atom_site_type_symbol
 _atom_site_label
 _atom_site_symmetry_multiplicity
 _atom_site_fract_x
 _atom_site_fract_y
 _atom_site_fract_z
 _atom_site_occupancy
  Sr  Sr0  1  0.33333300  0.66666700  0.00000000  1
  Ti  Ti0  1  0.00000000  0.00000000  0.50000000  1
  Te  Te0  1  0.66666700  0.33333300  0.50000000  1
  O  O0  1  0.71237243  0.05246141  0.70190703  1
  O  O1  1  0.94753859  0.65991102  0.70190703  1
  O  O2  1  0.34008898  0.28762757  0.70190703  1
  O  O3  1  0.71237243  0.65991102  0.29809297  1
  O  O4  1  0.34008898  0.05246141  0.29809297  1
  O  O5  1  0.94753859  0.28762757  0.29809297  1
loop_
_geom_bond_atom_site_label_1
_geom_bond_atom_site_label_2
_geom_bond_distance
_geom_bond_site_symmetry_2
O0 Te0 1.925031 1_555
O0 Ti0 1.971898 1_655
O0 Sr0 2.550254 1_546
O1 Te0 1.925034 1_555
O1 Ti0 1.971898 1_665
O1 Sr0 2.550252 1_656
O2 Te0 1.925036 1_555
O2 Ti0 1.971898 1_555
O2 Sr0 2.550256 1_556
O3 Te0 1.925036 1_555
O3 Ti0 1.971898 1_665
O3 Sr0 2.550256 1_555
O4 Te0 1.925034 1_555
O4 Ti0 1.971898 1_555
O4 Sr0 2.550252 1_545
O5 Te0 1.925032 1_555
O5 Ti0 1.971898 1_655
O5 Sr0 2.550254 1_655
