# generated using pymatgen
data_Ca2GaPdRh
_symmetry_space_group_name_H-M   'P 1'
_cell_length_a   5.74713558
_cell_length_b   5.74713582
_cell_length_c   7.66940684
_cell_angle_alpha   78.43238330
_cell_angle_beta   78.43238276
_cell_angle_gamma   58.89466943
_symmetry_Int_Tables_number   1
_chemical_formula_structural   Ca2GaPdRh
_chemical_formula_sum   'Ca4 Ga2 Pd2 Rh2'
_cell_volume   211.06614477
_cell_formula_units_Z   2
loop_
 _symmetry_equiv_pos_site_id
 _symmetry_equiv_pos_as_xyz
  1  'x, y, z'
loop_
 _atom_site_type_symbol
 _atom_site_label
 _atom_site_symmetry_multiplicity
 _atom_site_fract_x
 _atom_site_fract_y
 _atom_site_fract_z
 _atom_site_occupancy
  Ca  Ca0  1  0.78693208  0.51407226  0.35337518  1
  Ca  Ca1  1  0.48592774  0.21306792  0.14662482  1
  Ca  Ca2  1  0.21732854  0.49138147  0.64776569  1
  Ca  Ca3  1  0.50861853  0.78267146  0.85223431  1
  Ga  Ga0  1  0.11945959  0.88054041  0.25000000  1
  Ga  Ga1  1  0.89892209  0.10107791  0.75000000  1
  Pd  Pd0  1  0.99468308  0.27440895  0.99461850  1
  Pd  Pd1  1  0.72559105  0.00531692  0.50538150  1
  Rh  Rh0  1  0.00335788  0.74082157  0.00946233  1
  Rh  Rh1  1  0.25917843  0.99664212  0.49053767  1
loop_
_geom_bond_atom_site_label_1
_geom_bond_atom_site_label_2
_geom_bond_distance
_geom_bond_site_symmetry_2
Ca0 Rh1 2.977792 1_645
Ca0 Rh0 3.030321 1_655
Ca0 Rh1 3.032639 1_555
Ca0 Pd0 3.065356 1_554
Ca0 Pd1 3.092836 1_555
Ca0 Pd1 3.095303 1_565
Ca0 Ca2 3.608532 1_655
Ca0 Ca2 3.631785 1_555
Ca1 Rh0 2.977792 1_645
Ca1 Rh1 3.030321 1_545
Ca1 Rh0 3.032639 1_555
Ca1 Pd1 3.065356 1_555
Ca1 Pd0 3.092836 1_554
Ca1 Pd0 3.095303 1_454
Ca1 Ca3 3.608532 1_544
Ca1 Ca3 3.631785 1_554
Ca2 Pd1 3.006934 1_555
Ca2 Rh1 3.024069 1_555
Ca2 Pd0 3.036747 1_455
Ca2 Pd1 3.036907 1_465
Ca2 Rh0 3.109295 1_556
Ca2 Ga1 3.184772 1_465
Ca2 Rh1 3.185686 1_545
Ca2 Ga0 3.358111 1_555
Ca2 Ga1 3.457655 1_455
Ca2 Ga1 3.526840 1_555
Ca2 Ca3 3.614632 1_555
Ca2 Ca3 3.646575 1_455
Ca2 Ca3 3.646575 1_545
Ca3 Pd0 3.006934 1_555
Ca3 Rh0 3.024069 1_556
Ca3 Pd1 3.036747 1_565
Ca3 Pd0 3.036907 1_465
Ca3 Rh1 3.109295 1_555
Ca3 Ga1 3.184772 1_465
Ca3 Rh0 3.185686 1_656
Ca3 Ga0 3.358111 1_556
Ca3 Ga1 3.457655 1_565
Ca3 Ga1 3.526840 1_555
Ga0 Rh1 2.476806 1_555
Ga0 Rh0 2.476806 1_555
Ga0 Pd1 2.565625 1_465
Ga0 Pd0 2.565625 1_464
Ga1 Rh1 2.479810 1_645
Ga1 Rh0 2.479810 1_646
Ga1 Pd1 2.558306 1_555
Ga1 Pd0 2.558306 1_555
Pd0 Rh0 2.731934 1_656
Pd0 Rh0 3.020559 1_646
Pd1 Rh1 2.731934 1_545
Pd1 Rh1 3.020559 1_645
