# generated using pymatgen
data_Sr5Cd2Rh
_symmetry_space_group_name_H-M   'P 1'
_cell_length_a   9.96029173
_cell_length_b   9.96029189
_cell_length_c   9.96029113
_cell_angle_alpha   129.55275583
_cell_angle_beta   129.25526880
_cell_angle_gamma   74.36161827
_symmetry_Int_Tables_number   1
_chemical_formula_structural   Sr5Cd2Rh
_chemical_formula_sum   'Sr10 Cd4 Rh2'
_cell_volume   575.04742921
_cell_formula_units_Z   2
loop_
 _symmetry_equiv_pos_site_id
 _symmetry_equiv_pos_as_xyz
  1  'x, y, z'
loop_
 _atom_site_type_symbol
 _atom_site_label
 _atom_site_symmetry_multiplicity
 _atom_site_fract_x
 _atom_site_fract_y
 _atom_site_fract_z
 _atom_site_occupancy
  Sr  Sr0  1  0.98537511  0.46765576  0.17436244  1
  Sr  Sr1  1  0.45160877  0.30798782  0.48762001  1
  Sr  Sr2  1  0.70670668  0.18898732  0.17436244  1
  Sr  Sr3  1  0.01523369  0.00545266  0.02068635  1
  Sr  Sr4  1  0.17963219  0.03601224  0.48762001  1
  Sr  Sr5  1  0.79329332  0.96765576  0.48228064  1
  Sr  Sr6  1  0.32036781  0.80798782  0.85637905  1
  Sr  Sr7  1  0.51462489  0.68898732  0.48228064  1
  Sr  Sr8  1  0.48476631  0.50545266  0.99021896  1
  Sr  Sr9  1  0.04839123  0.53601224  0.85637905  1
  Cd  Cd0  1  0.61247563  0.11592291  0.72839853  1
  Cd  Cd1  1  0.75000000  0.74228462  0.99228462  1
  Cd  Cd2  1  0.88752437  0.61592291  0.50344828  1
  Cd  Cd3  1  0.25000000  0.24228462  0.99228462  1
  Rh  Rh0  1  0.11550872  0.38569667  0.50120539  1
  Rh  Rh1  1  0.38449128  0.88569667  0.27018696  1
loop_
_geom_bond_atom_site_label_1
_geom_bond_atom_site_label_2
_geom_bond_distance
_geom_bond_site_symmetry_2
Cd0 Rh1 2.758084 1_545
Cd0 Sr5 3.313117 1_545
Cd0 Sr7 3.313117 1_545
Cd0 Sr4 3.362414 1_555
Cd0 Sr1 3.362415 1_555
Cd0 Sr2 3.480863 1_556
Cd0 Sr0 3.480863 1_556
Cd0 Sr8 3.481849 1_555
Cd0 Sr3 3.563539 1_656
Cd1 Sr6 3.586117 1_555
Cd1 Sr4 3.586120 1_666
Cd1 Sr5 3.598598 1_556
Cd1 Sr2 3.598598 1_566
Cd1 Sr9 3.625487 1_655
Cd1 Sr1 3.625488 1_555
Cd1 Sr7 3.707737 1_555
Cd1 Sr0 3.707737 1_556
Cd1 Sr8 3.971547 1_555
Cd1 Sr3 3.971547 1_666
Cd2 Rh0 2.758078 1_655
Cd2 Sr2 3.313115 1_555
Cd2 Sr0 3.313126 1_555
Cd2 Sr9 3.362398 1_655
Cd2 Sr6 3.362417 1_655
Cd2 Sr7 3.480858 1_555
Cd2 Sr5 3.480868 1_555
Cd2 Sr3 3.481843 1_666
Cd2 Sr8 3.563544 1_554
Cd3 Sr1 3.586117 1_556
Cd3 Sr9 3.586126 1_555
Cd3 Sr0 3.598598 1_456
Cd3 Sr7 3.598598 1_556
Cd3 Sr6 3.625488 1_545
Cd3 Sr4 3.625491 1_555
Cd3 Sr5 3.707737 1_445
Cd3 Sr2 3.707737 1_556
Cd3 Sr3 3.971547 1_556
Cd3 Sr8 3.971547 1_555
Rh0 Sr0 3.227755 1_455
Rh0 Sr2 3.227755 1_455
Rh0 Sr4 3.296524 1_555
Rh0 Sr1 3.296534 1_555
Rh0 Sr9 3.303207 1_555
Rh0 Sr6 3.303210 1_555
Rh0 Sr8 3.311863 1_555
Rh0 Sr3 3.339524 1_555
Rh1 Sr5 3.227752 1_555
Rh1 Sr7 3.227763 1_555
Rh1 Sr6 3.296524 1_554
Rh1 Sr9 3.296529 1_554
Rh1 Sr1 3.303207 1_565
Rh1 Sr4 3.303216 1_565
Rh1 Sr3 3.311861 1_565
Rh1 Sr8 3.339521 1_554
