# generated using pymatgen
data_Hf5Ti6NbSi6
_symmetry_space_group_name_H-M   'P 1'
_cell_length_a   7.83636002
_cell_length_b   7.83656490
_cell_length_c   7.83635956
_cell_angle_alpha   127.47005290
_cell_angle_beta   124.64821406
_cell_angle_gamma   79.81109178
_symmetry_Int_Tables_number   1
_chemical_formula_structural   Hf5Ti6NbSi6
_chemical_formula_sum   'Hf5 Ti6 Nb1 Si6'
_cell_volume   303.50179560
_cell_formula_units_Z   1
loop_
 _symmetry_equiv_pos_site_id
 _symmetry_equiv_pos_as_xyz
  1  'x, y, z'
loop_
 _atom_site_type_symbol
 _atom_site_label
 _atom_site_symmetry_multiplicity
 _atom_site_fract_x
 _atom_site_fract_y
 _atom_site_fract_z
 _atom_site_occupancy
  Hf  Hf0  1  0.54767935  0.09013503  0.04245568  1
  Hf  Hf1  1  0.45448649  0.49937428  0.54488879  1
  Hf  Hf2  1  0.95229891  0.49476247  0.04246356  1
  Hf  Hf3  1  0.04547488  0.09038431  0.54490943  1
  Hf  Hf4  1  0.74998904  0.90364678  0.65365775  1
  Ti  Ti0  1  0.49592014  0.24632236  0.74223058  1
  Ti  Ti1  1  0.00409179  0.24632236  0.25040222  1
  Ti  Ti2  1  0.12508893  0.74722751  0.62236174  1
  Ti  Ti3  1  0.87511918  0.49727573  0.62236780  1
  Ti  Ti4  1  0.62486677  0.74722751  0.12213858  1
  Ti  Ti5  1  0.37490793  0.49727573  0.12215555  1
  Nb  Nb0  1  0.24998821  0.90239494  0.15240773  1
  Si  Si0  1  0.74995736  0.49508578  0.24512842  1
  Si  Si1  1  0.24995266  0.50156925  0.75161659  1
  Si  Si2  1  0.33175162  0.83044755  0.49284694  1
  Si  Si3  1  0.66249268  0.16115043  0.49281497  1
  Si  Si4  1  0.83759861  0.83044755  0.99869493  1
  Si  Si5  1  0.16833646  0.16115043  0.99865875  1
loop_
_geom_bond_atom_site_label_1
_geom_bond_atom_site_label_2
_geom_bond_distance
_geom_bond_site_symmetry_2
Hf0 Si5 2.784110 1_554
Hf0 Si3 2.784114 1_555
Hf0 Si4 2.796730 1_544
Hf0 Si2 2.796741 1_544
Hf0 Si0 2.808999 1_555
Hf0 Ti4 3.002325 1_545
Hf0 Ti2 3.002326 1_544
Hf0 Ti3 3.067842 1_555
Hf0 Ti5 3.067843 1_555
Hf0 Ti0 3.072555 1_554
Hf0 Ti1 3.072555 1_655
Hf1 Si3 2.785776 1_555
Hf1 Si5 2.785776 1_554
Hf1 Si4 2.789467 1_555
Hf1 Si2 2.789480 1_555
Hf1 Si1 2.846476 1_555
Hf1 Ti3 2.991883 1_555
Hf1 Ti5 2.991895 1_555
Hf1 Ti0 3.059722 1_555
Hf1 Ti1 3.059726 1_555
Hf1 Ti4 3.062279 1_556
Hf1 Ti2 3.062286 1_555
Hf2 Si2 2.785026 1_655
Hf2 Si4 2.785031 1_554
Hf2 Si3 2.796757 1_554
Hf2 Si5 2.796762 1_654
Hf2 Si0 2.809539 1_555
Hf2 Ti3 3.002383 1_554
Hf2 Ti5 3.002386 1_655
Hf2 Ti4 3.067658 1_555
Hf2 Ti2 3.067665 1_655
Hf2 Ti1 3.072259 1_655
Hf2 Ti0 3.072260 1_554
Hf3 Si2 2.785927 1_545
Hf3 Si4 2.785931 1_444
Hf3 Si3 2.788336 1_455
Hf3 Si5 2.788341 1_555
Hf3 Si1 2.845921 1_555
Hf3 Ti4 2.991814 1_445
Hf3 Ti2 2.991819 1_545
Hf3 Ti1 3.060213 1_555
Hf3 Ti0 3.060213 1_555
Hf3 Ti5 3.062427 1_556
Hf3 Ti3 3.062430 1_455
Hf4 Si4 2.783549 1_555
Hf4 Si2 2.783551 1_555
Hf4 Si3 2.784478 1_565
Hf4 Si5 2.784483 1_665
Hf4 Si0 2.833409 1_555
Hf4 Ti1 3.011494 1_666
Hf4 Ti0 3.011494 1_565
Hf4 Ti3 3.062937 1_555
Hf4 Ti5 3.062939 1_555
Hf4 Ti2 3.063018 1_655
Hf4 Ti4 3.063021 1_555
Nb0 Si2 2.757583 1_555
Nb0 Si4 2.757600 1_454
Nb0 Si5 2.758571 1_564
Nb0 Si3 2.758571 1_565
Nb0 Si1 2.779736 1_554
Nb0 Ti0 2.982259 1_565
Nb0 Ti1 2.982263 1_565
Nb0 Ti5 3.056489 1_555
Nb0 Ti3 3.056497 1_454
Nb0 Ti2 3.056542 1_554
Nb0 Ti4 3.056545 1_555
Si0 Ti5 2.519648 1_555
Si0 Ti3 2.519650 1_555
Si0 Ti4 2.520239 1_555
Si0 Ti2 2.520239 1_655
Si0 Ti0 2.529628 1_554
Si0 Ti1 2.529628 1_655
Si1 Ti5 2.503099 1_556
Si1 Ti3 2.503107 1_455
Si1 Ti2 2.503704 1_555
Si1 Ti4 2.503709 1_556
Si1 Ti1 2.517904 1_555
Si1 Ti0 2.517904 1_555
Si2 Ti5 2.635592 1_555
Si2 Ti0 2.640250 1_565
Si2 Ti2 2.669464 1_555
Si3 Ti4 2.635689 1_545
Si3 Ti0 2.641018 1_555
Si3 Ti3 2.668508 1_555
Si4 Ti3 2.635592 1_555
Si4 Ti1 2.640253 1_666
Si4 Ti4 2.669451 1_556
Si5 Ti2 2.635687 1_545
Si5 Ti1 2.641018 1_556
Si5 Ti5 2.668513 1_556
