# generated using pymatgen
data_Cs2TiBe3As4
_symmetry_space_group_name_H-M   'P 1'
_cell_length_a   8.12685696
_cell_length_b   8.12685760
_cell_length_c   5.59967986
_cell_angle_alpha   90.00000000
_cell_angle_beta   90.00000000
_cell_angle_gamma   139.66993041
_symmetry_Int_Tables_number   1
_chemical_formula_structural   Cs2TiBe3As4
_chemical_formula_sum   'Cs2 Ti1 Be3 As4'
_cell_volume   239.35374609
_cell_formula_units_Z   1
loop_
 _symmetry_equiv_pos_site_id
 _symmetry_equiv_pos_as_xyz
  1  'x, y, z'
loop_
 _atom_site_type_symbol
 _atom_site_label
 _atom_site_symmetry_multiplicity
 _atom_site_fract_x
 _atom_site_fract_y
 _atom_site_fract_z
 _atom_site_occupancy
  Cs  Cs0  1  0.50000000  0.00000000  0.25077453  1
  Cs  Cs1  1  0.00000000  0.50000000  0.74922547  1
  Ti  Ti0  1  0.00000000  0.00000000  0.00000000  1
  Be  Be0  1  0.50000000  0.50000000  0.50000000  1
  Be  Be1  1  0.50000000  0.50000000  0.00000000  1
  Be  Be2  1  0.00000000  0.00000000  0.50000000  1
  As  As0  1  0.65550411  0.82926810  0.74251219  1
  As  As1  1  0.17073190  0.34449589  0.25748781  1
  As  As2  1  0.82926810  0.65550411  0.25748781  1
  As  As3  1  0.34449589  0.17073190  0.74251219  1
loop_
_geom_bond_atom_site_label_1
_geom_bond_atom_site_label_2
_geom_bond_distance
_geom_bond_site_symmetry_2
As0 Be0 2.333622 1_555
As0 Be1 2.383398 1_556
As0 Be2 2.384287 1_665
As0 Ti0 2.433026 1_666
As0 Cs0 3.711861 1_565
As0 Cs1 3.715739 1_555
As0 Cs1 3.779522 1_665
As0 Cs0 3.781014 1_566
As1 Be0 2.333622 1_555
As1 Be1 2.383397 1_555
As1 Be2 2.384287 1_555
As1 Ti0 2.433026 1_555
As1 Cs1 3.711861 1_555
As1 Cs0 3.715740 1_565
As1 Cs0 3.779522 1_455
As1 Cs1 3.781014 1_554
As2 Be0 2.333622 1_555
As2 Be1 2.383397 1_555
As2 Be2 2.384287 1_665
As2 Ti0 2.433026 1_665
As2 Cs1 3.711861 1_655
As2 Cs0 3.715740 1_555
As2 Cs0 3.779522 1_665
As2 Cs1 3.781014 1_654
As3 Be0 2.333622 1_555
As3 Be1 2.383398 1_556
As3 Be2 2.384287 1_555
As3 Ti0 2.433026 1_556
As3 Cs0 3.711861 1_555
As3 Cs1 3.715739 1_655
As3 Cs1 3.779522 1_545
As3 Cs0 3.781014 1_556
