# generated using pymatgen
data_Zr6GaSiO2
_symmetry_space_group_name_H-M   'P 1'
_cell_length_a   5.82777257
_cell_length_b   5.82777144
_cell_length_c   8.59396475
_cell_angle_alpha   90.00000000
_cell_angle_beta   90.00000000
_cell_angle_gamma   145.07258403
_symmetry_Int_Tables_number   1
_chemical_formula_structural   Zr6GaSiO2
_chemical_formula_sum   'Zr6 Ga1 Si1 O2'
_cell_volume   167.11028495
_cell_formula_units_Z   1
loop_
 _symmetry_equiv_pos_site_id
 _symmetry_equiv_pos_as_xyz
  1  'x, y, z'
loop_
 _atom_site_type_symbol
 _atom_site_label
 _atom_site_symmetry_multiplicity
 _atom_site_fract_x
 _atom_site_fract_y
 _atom_site_fract_z
 _atom_site_occupancy
  Zr  Zr0  1  0.94552065  0.05447935  0.75000000  1
  Zr  Zr1  1  0.06057495  0.93942505  0.25000000  1
  Zr  Zr2  1  0.63366722  0.36633278  0.54852337  1
  Zr  Zr3  1  0.36366305  0.63633695  0.44241773  1
  Zr  Zr4  1  0.36366305  0.63633695  0.05758227  1
  Zr  Zr5  1  0.63366722  0.36633278  0.95147663  1
  Ga  Ga0  1  0.25344746  0.74655254  0.75000000  1
  Si  Si0  1  0.74516744  0.25483256  0.25000000  1
  O  O0  1  0.00031397  0.99968603  0.49957819  1
  O  O1  1  0.00031397  0.99968603  0.00042181  1
loop_
_geom_bond_atom_site_label_1
_geom_bond_atom_site_label_2
_geom_bond_distance
_geom_bond_site_symmetry_2
Ga0 Zr0 2.760293 1_455
Ga0 Zr0 2.760294 1_565
Ga0 Zr5 2.798273 1_565
Ga0 Zr2 2.798273 1_565
Ga0 Zr5 2.798274 1_455
Ga0 Zr2 2.798274 1_455
Ga0 Zr4 2.913578 1_556
Ga0 Zr3 2.913578 1_555
Si0 Zr1 2.696460 1_655
Si0 Zr1 2.696461 1_545
Si0 Zr3 2.743895 1_545
Si0 Zr4 2.743895 1_545
Si0 Zr3 2.743895 1_655
Si0 Zr4 2.743895 1_655
Si0 Zr2 2.849321 1_555
Si0 Zr5 2.849321 1_554
O0 Zr0 2.236680 1_465
O0 Zr1 2.247076 1_555
O0 Zr2 2.331084 1_455
O0 Zr2 2.331085 1_565
O0 Zr3 2.368206 1_565
O0 Zr3 2.368207 1_455
O1 Zr0 2.236680 1_464
O1 Zr1 2.247076 1_555
O1 Zr5 2.331084 1_454
O1 Zr5 2.331085 1_564
O1 Zr4 2.368206 1_565
O1 Zr4 2.368207 1_455
