# generated using pymatgen
data_CsTi2CrSe6
_symmetry_space_group_name_H-M   'P 1'
_cell_length_a   9.68272512
_cell_length_b   9.68272421
_cell_length_c   9.68272395
_cell_angle_alpha   37.66039043
_cell_angle_beta   37.66039831
_cell_angle_gamma   37.66039809
_symmetry_Int_Tables_number   1
_chemical_formula_structural   CsTi2CrSe6
_chemical_formula_sum   'Cs1 Ti2 Cr1 Se6'
_cell_volume   304.00534262
_cell_formula_units_Z   1
loop_
 _symmetry_equiv_pos_site_id
 _symmetry_equiv_pos_as_xyz
  1  'x, y, z'
loop_
 _atom_site_type_symbol
 _atom_site_label
 _atom_site_symmetry_multiplicity
 _atom_site_fract_x
 _atom_site_fract_y
 _atom_site_fract_z
 _atom_site_occupancy
  Cs  Cs0  1  0.99958537  0.99958537  0.99958537  1
  Ti  Ti0  1  0.50007814  0.50007814  0.50007814  1
  Ti  Ti1  1  0.83368522  0.83368522  0.83368522  1
  Cr  Cr0  1  0.16644031  0.16644031  0.16644031  1
  Se  Se0  1  0.54998521  0.22341349  0.89127843  1
  Se  Se1  1  0.89127843  0.54998521  0.22341349  1
  Se  Se2  1  0.22341349  0.89127843  0.54998521  1
  Se  Se3  1  0.77904427  0.11148790  0.44500267  1
  Se  Se4  1  0.11148790  0.44500267  0.77904427  1
  Se  Se5  1  0.44500267  0.77904427  0.11148790  1
loop_
_geom_bond_atom_site_label_1
_geom_bond_atom_site_label_2
_geom_bond_distance
_geom_bond_site_symmetry_2
Cs0 Se2 3.666082 1_655
Cs0 Se1 3.666082 1_556
Cs0 Se0 3.666082 1_565
Cs0 Se3 3.672653 1_566
Cs0 Se4 3.672653 1_665
Cs0 Se5 3.672654 1_656
Cr0 Se2 2.538787 1_545
Cr0 Se1 2.538788 1_455
Cr0 Se0 2.538788 1_554
Cr0 Se4 2.549009 1_554
Cr0 Se5 2.549009 1_545
Cr0 Se3 2.549009 1_455
Se0 Ti0 2.557417 1_555
Se0 Ti1 2.567311 1_545
Se1 Ti0 2.557418 1_555
Se1 Ti1 2.567311 1_554
Se2 Ti0 2.557418 1_555
Se2 Ti1 2.567311 1_455
Se3 Ti0 2.557828 1_555
Se3 Ti1 2.559380 1_545
Se4 Ti0 2.557828 1_555
Se4 Ti1 2.559380 1_455
Se5 Ti0 2.557827 1_555
Se5 Ti1 2.559380 1_554
