# generated using pymatgen
data_Lu2ScBe2Rh5
_symmetry_space_group_name_H-M   'P 1'
_cell_length_a   9.66925063
_cell_length_b   9.66925063
_cell_length_c   3.18177351
_cell_angle_alpha   90.00000000
_cell_angle_beta   90.00000000
_cell_angle_gamma   90.00000000
_symmetry_Int_Tables_number   1
_chemical_formula_structural   Lu2ScBe2Rh5
_chemical_formula_sum   'Lu4 Sc2 Be4 Rh10'
_cell_volume   297.47803014
_cell_formula_units_Z   2
loop_
 _symmetry_equiv_pos_site_id
 _symmetry_equiv_pos_as_xyz
  1  'x, y, z'
loop_
 _atom_site_type_symbol
 _atom_site_label
 _atom_site_symmetry_multiplicity
 _atom_site_fract_x
 _atom_site_fract_y
 _atom_site_fract_z
 _atom_site_occupancy
  Lu  Lu0  1  0.82499978  0.32499978  0.00000000  1
  Lu  Lu1  1  0.32499978  0.17500022  0.00000000  1
  Lu  Lu2  1  0.67500022  0.82499978  0.00000000  1
  Lu  Lu3  1  0.17500022  0.67500022  0.00000000  1
  Sc  Sc0  1  0.00000000  0.00000000  0.00000000  1
  Sc  Sc1  1  0.50000000  0.50000000  0.00000000  1
  Be  Be0  1  0.62164775  0.12164775  0.00000000  1
  Be  Be1  1  0.12164775  0.37835225  0.00000000  1
  Be  Be2  1  0.87835225  0.62164775  0.00000000  1
  Be  Be3  1  0.37835225  0.87835225  0.00000000  1
  Rh  Rh0  1  0.07069075  0.21581769  0.50000000  1
  Rh  Rh1  1  0.21581769  0.92930925  0.50000000  1
  Rh  Rh2  1  0.78418231  0.07069075  0.50000000  1
  Rh  Rh3  1  0.92930925  0.78418231  0.50000000  1
  Rh  Rh4  1  0.42930925  0.71581769  0.50000000  1
  Rh  Rh5  1  0.57069075  0.28418231  0.50000000  1
  Rh  Rh6  1  0.71581769  0.57069075  0.50000000  1
  Rh  Rh7  1  0.28418231  0.42930925  0.50000000  1
  Rh  Rh8  1  0.50000000  0.00000000  0.50000000  1
  Rh  Rh9  1  0.00000000  0.50000000  0.50000000  1
loop_
_geom_bond_atom_site_label_1
_geom_bond_atom_site_label_2
_geom_bond_distance
_geom_bond_site_symmetry_2
Lu0 Rh9 2.873581 1_654
Lu0 Rh9 2.873581 1_655
Lu0 Rh5 2.955209 1_554
Lu0 Rh5 2.955209 1_555
Lu0 Rh2 2.955209 1_555
Lu0 Rh2 2.955209 1_554
Lu0 Rh0 3.047810 1_654
Lu0 Rh0 3.047810 1_655
Lu0 Rh6 3.047810 1_555
Lu0 Rh6 3.047810 1_554
Lu1 Rh8 2.873581 1_555
Lu1 Rh8 2.873581 1_554
Lu1 Rh7 2.955209 1_554
Lu1 Rh7 2.955209 1_555
Lu1 Rh0 2.955209 1_555
Lu1 Rh0 2.955209 1_554
Lu1 Rh5 3.047810 1_554
Lu1 Rh5 3.047810 1_555
Lu1 Rh1 3.047810 1_544
Lu1 Rh1 3.047810 1_545
Lu2 Rh8 2.873581 1_565
Lu2 Rh8 2.873581 1_564
Lu2 Rh3 2.955209 1_555
Lu2 Rh3 2.955209 1_554
Lu2 Rh6 2.955209 1_555
Lu2 Rh6 2.955209 1_554
Lu2 Rh2 3.047810 1_565
Lu2 Rh2 3.047810 1_564
Lu2 Rh4 3.047810 1_555
Lu2 Rh4 3.047810 1_554
Lu3 Rh9 2.873581 1_554
Lu3 Rh9 2.873581 1_555
Lu3 Rh1 2.955209 1_554
Lu3 Rh1 2.955209 1_555
Lu3 Rh4 2.955209 1_555
Lu3 Rh4 2.955209 1_554
Lu3 Rh3 3.047810 1_454
Lu3 Rh3 3.047810 1_455
Lu3 Rh7 3.047810 1_555
Lu3 Rh7 3.047810 1_554
Be0 Rh2 2.289886 1_554
Be0 Rh2 2.289886 1_555
Be0 Rh5 2.289886 1_554
Be0 Rh5 2.289886 1_555
Be0 Rh8 2.301741 1_555
Be0 Rh8 2.301741 1_554
Be0 Lu0 2.780714 1_555
Be0 Lu2 2.914385 1_545
Be0 Lu1 2.914385 1_555
Be1 Rh7 2.289886 1_555
Be1 Rh7 2.289886 1_554
Be1 Rh0 2.289886 1_555
Be1 Rh0 2.289886 1_554
Be1 Rh9 2.301741 1_554
Be1 Rh9 2.301741 1_555
Be1 Lu1 2.780714 1_555
Be1 Lu0 2.914385 1_455
Be1 Lu3 2.914385 1_555
Be2 Rh6 2.289886 1_555
Be2 Rh6 2.289886 1_554
Be2 Rh3 2.289886 1_554
Be2 Rh3 2.289886 1_555
Be2 Rh9 2.301741 1_655
Be2 Rh9 2.301741 1_654
Be2 Lu2 2.780714 1_555
Be2 Lu0 2.914385 1_555
Be2 Lu3 2.914385 1_655
Be3 Rh1 2.289886 1_555
Be3 Rh4 2.289886 1_555
Be3 Rh4 2.289886 1_554
Be3 Rh1 2.289886 1_554
Be3 Rh8 2.301741 1_565
Be3 Rh8 2.301741 1_564
Be3 Lu3 2.780714 1_555
Be3 Lu1 2.914385 1_565
Be3 Lu2 2.914385 1_555
Rh0 Sc0 2.711613 1_555
Rh0 Sc0 2.711613 1_556
Rh1 Sc0 2.711613 1_565
Rh1 Sc0 2.711613 1_566
Rh2 Sc0 2.711613 1_656
Rh2 Sc0 2.711613 1_655
Rh3 Sc0 2.711613 1_665
Rh3 Sc0 2.711613 1_666
Rh4 Sc1 2.711613 1_555
Rh4 Sc1 2.711613 1_556
Rh5 Sc1 2.711613 1_555
Rh5 Sc1 2.711613 1_556
Rh6 Sc1 2.711613 1_555
Rh6 Sc1 2.711613 1_556
Rh7 Sc1 2.711613 1_555
Rh7 Sc1 2.711613 1_556
