# generated using pymatgen
data_LiYS2
_symmetry_space_group_name_H-M   'P 1'
_cell_length_a   6.75141750
_cell_length_b   6.75141750
_cell_length_c   6.75141750
_cell_angle_alpha   132.57059470
_cell_angle_beta   132.57059470
_cell_angle_gamma   69.32931385
_symmetry_Int_Tables_number   1
_chemical_formula_structural   LiYS2
_chemical_formula_sum   'Li2 Y2 S4'
_cell_volume   163.76648056
_cell_formula_units_Z   2
loop_
 _symmetry_equiv_pos_site_id
 _symmetry_equiv_pos_as_xyz
  1  'x, y, z'
loop_
 _atom_site_type_symbol
 _atom_site_label
 _atom_site_symmetry_multiplicity
 _atom_site_fract_x
 _atom_site_fract_y
 _atom_site_fract_z
 _atom_site_occupancy
  Li  Li0  1  0.50000000  0.50000000  0.00000000  1
  Li  Li1  1  0.25000000  0.75000000  0.50000000  1
  Y  Y0  1  0.00000000  0.00000000  0.00000000  1
  Y  Y1  1  0.75000000  0.25000000  0.50000000  1
  S  S0  1  0.75496606  0.75496606  -0.00000000  1
  S  S1  1  0.50496606  0.00496606  0.50000000  1
  S  S2  1  0.24503394  0.24503394  0.00000000  1
  S  S3  1  0.99503394  0.49503394  0.50000000  1
loop_
_geom_bond_atom_site_label_1
_geom_bond_atom_site_label_2
_geom_bond_distance
_geom_bond_site_symmetry_2
Li0 S1 2.715864 1_554
Li0 S1 2.715864 1_565
Li0 S3 2.715864 1_454
Li0 S3 2.715864 1_555
Li0 S2 2.831657 1_555
Li0 S0 2.831657 1_555
Li1 S0 2.715864 1_556
Li1 S2 2.715864 1_555
Li1 S0 2.715864 1_455
Li1 S2 2.715864 1_566
Li1 S3 2.831657 1_455
Li1 S1 2.831657 1_565
S0 Y1 2.715864 1_554
S0 Y1 2.715864 1_565
S0 Y0 2.721351 1_665
S1 Y0 2.715864 1_656
S1 Y0 2.715864 1_555
S1 Y1 2.721351 1_555
S2 Y1 2.715864 1_454
S2 Y1 2.715864 1_555
S2 Y0 2.721351 1_555
S3 Y0 2.715864 1_666
S3 Y0 2.715864 1_655
S3 Y1 2.721351 1_555
