# generated using pymatgen
data_Rb4Ba2HfAs4
_symmetry_space_group_name_H-M   'P 1'
_cell_length_a   10.83396640
_cell_length_b   10.83396788
_cell_length_c   8.20065349
_cell_angle_alpha   88.32626886
_cell_angle_beta   88.32626239
_cell_angle_gamma   119.73737996
_symmetry_Int_Tables_number   1
_chemical_formula_structural   Rb4Ba2HfAs4
_chemical_formula_sum   'Rb8 Ba4 Hf2 As8'
_cell_volume   834.37432826
_cell_formula_units_Z   2
loop_
 _symmetry_equiv_pos_site_id
 _symmetry_equiv_pos_as_xyz
  1  'x, y, z'
loop_
 _atom_site_type_symbol
 _atom_site_label
 _atom_site_symmetry_multiplicity
 _atom_site_fract_x
 _atom_site_fract_y
 _atom_site_fract_z
 _atom_site_occupancy
  Rb  Rb0  1  0.47417043  0.94305995  0.38517848  1
  Rb  Rb1  1  0.94305995  0.47417043  0.88517848  1
  Rb  Rb2  1  0.86601459  0.72083011  0.16937292  1
  Rb  Rb3  1  0.26464636  0.12551484  0.23769605  1
  Rb  Rb4  1  0.85466471  0.14097907  0.19816664  1
  Rb  Rb5  1  0.12551484  0.26464636  0.73769605  1
  Rb  Rb6  1  0.72083011  0.86601459  0.66937292  1
  Rb  Rb7  1  0.14097907  0.85466471  0.69816664  1
  Ba  Ba0  1  0.06851715  0.53410896  0.39561926  1
  Ba  Ba1  1  0.47583257  0.53289060  0.37885904  1
  Ba  Ba2  1  0.53410896  0.06851715  0.89561926  1
  Ba  Ba3  1  0.53289060  0.47583257  0.87885904  1
  Hf  Hf0  1  0.66453474  0.33456841  0.48923089  1
  Hf  Hf1  1  0.33456841  0.66453474  0.98923089  1
  As  As0  1  0.64322663  0.32983564  0.17135253  1
  As  As1  1  0.32983564  0.64322663  0.67135253  1
  As  As2  1  0.21196907  0.40839463  0.12471826  1
  As  As3  1  0.59862943  0.79518532  0.07401049  1
  As  As4  1  0.21122669  0.80100910  0.09346246  1
  As  As5  1  0.79518532  0.59862943  0.57401049  1
  As  As6  1  0.40839463  0.21196907  0.62471826  1
  As  As7  1  0.80100910  0.21122669  0.59346246  1
loop_
_geom_bond_atom_site_label_1
_geom_bond_atom_site_label_2
_geom_bond_distance
_geom_bond_site_symmetry_2
As0 Hf0 2.623471 1_555
As0 Ba3 3.392026 1_554
As0 Ba2 3.425726 1_554
As0 Rb1 3.578530 1_554
As0 Rb3 3.579228 1_555
As0 Rb2 3.690605 1_555
As0 Rb4 3.759646 1_555
As0 Ba1 3.875627 1_555
As0 Rb0 3.969575 1_545
As1 Hf1 2.623471 1_555
As1 Ba1 3.392026 1_555
As1 Ba0 3.425725 1_555
As1 Rb0 3.578530 1_555
As1 Rb5 3.579229 1_555
As1 Rb6 3.690604 1_555
As1 Rb7 3.759646 1_555
As1 Ba3 3.875627 1_555
As1 Rb1 3.969574 1_455
As2 Hf1 2.603176 1_554
As2 Ba1 3.319942 1_555
As2 Ba0 3.358678 1_555
As2 Rb3 3.489513 1_555
As2 Rb4 3.518126 1_455
As2 Rb5 3.520115 1_554
As2 Ba3 3.697537 1_554
As2 Rb1 3.894402 1_454
As3 Hf1 2.612989 1_554
As3 Ba1 3.425662 1_555
As3 Rb6 3.455350 1_554
As3 Rb2 3.473150 1_555
As3 Rb4 3.583927 1_565
As3 Ba3 3.603403 1_554
As3 Rb0 3.616241 1_555
As3 Ba2 3.641162 1_564
As4 Hf1 2.582552 1_554
As4 Rb2 3.426259 1_455
As4 Ba0 3.437167 1_555
As4 Rb7 3.449431 1_554
As4 Rb3 3.515453 1_565
As4 Rb0 3.531358 1_555
As4 Ba2 3.550309 1_564
As4 Rb1 3.786040 1_454
As5 Hf0 2.612990 1_555
As5 Ba3 3.425661 1_555
As5 Rb2 3.455350 1_555
As5 Rb6 3.473150 1_555
As5 Rb7 3.583927 1_655
As5 Ba1 3.603403 1_555
As5 Rb1 3.616241 1_555
As5 Ba0 3.641161 1_655
As6 Hf0 2.603176 1_555
As6 Ba3 3.319942 1_555
As6 Ba2 3.358678 1_555
As6 Rb5 3.489512 1_555
As6 Rb7 3.518127 1_545
As6 Rb3 3.520115 1_555
As6 Ba1 3.697538 1_555
As6 Rb0 3.894402 1_545
As7 Hf0 2.582552 1_555
As7 Rb6 3.426260 1_545
As7 Ba2 3.437167 1_555
As7 Rb4 3.449430 1_555
As7 Rb5 3.515453 1_655
As7 Rb1 3.531358 1_555
As7 Ba0 3.550309 1_655
As7 Rb0 3.786040 1_545
