# generated using pymatgen
data_Ba4Al4Si3Ge
_symmetry_space_group_name_H-M   'P 1'
_cell_length_a   4.31665316
_cell_length_b   4.31665343
_cell_length_c   20.90294229
_cell_angle_alpha   90.00000000
_cell_angle_beta   90.00000000
_cell_angle_gamma   120.00001309
_symmetry_Int_Tables_number   1
_chemical_formula_structural   Ba4Al4Si3Ge
_chemical_formula_sum   'Ba4 Al4 Si3 Ge1'
_cell_volume   337.31242053
_cell_formula_units_Z   1
loop_
 _symmetry_equiv_pos_site_id
 _symmetry_equiv_pos_as_xyz
  1  'x, y, z'
loop_
 _atom_site_type_symbol
 _atom_site_label
 _atom_site_symmetry_multiplicity
 _atom_site_fract_x
 _atom_site_fract_y
 _atom_site_fract_z
 _atom_site_occupancy
  Ba  Ba0  1  0.00000000  0.00000000  0.49907147  1
  Ba  Ba1  1  0.00000000  0.00000000  0.00002744  1
  Ba  Ba2  1  0.00000000  0.00000000  0.24998456  1
  Ba  Ba3  1  0.00000000  0.00000000  0.75099844  1
  Al  Al0  1  0.33333300  0.66666700  0.37413595  1
  Al  Al1  1  0.66666700  0.33333300  0.62837490  1
  Al  Al2  1  0.66666700  0.33333300  0.87354906  1
  Al  Al3  1  0.33333300  0.66666700  0.12596550  1
  Si  Si0  1  0.33333300  0.66666700  0.87685317  1
  Si  Si1  1  0.66666700  0.33333300  0.12418470  1
  Si  Si2  1  0.66666700  0.33333300  0.37520450  1
  Ge  Ge0  1  0.33333300  0.66666700  0.62164832  1
loop_
_geom_bond_atom_site_label_1
_geom_bond_atom_site_label_2
_geom_bond_distance
_geom_bond_site_symmetry_2
Ba0 Ge0 3.574368 1_545
Ba0 Ge0 3.574370 1_445
Ba0 Ge0 3.574371 1_555
Ba0 Si2 3.593748 1_455
Ba0 Si2 3.593751 1_555
Ba0 Si2 3.593751 1_445
Ba1 Si0 3.583330 1_544
Ba1 Si0 3.583333 1_444
Ba1 Si0 3.583333 1_554
Ba1 Si1 3.598123 1_455
Ba1 Si1 3.598125 1_555
Ba1 Si1 3.598125 1_445
Ba2 Si2 3.614177 1_455
Ba2 Si2 3.614179 1_555
Ba2 Si2 3.614180 1_445
Ba2 Si1 3.622966 1_455
Ba2 Si1 3.622968 1_555
Ba2 Si1 3.622968 1_445
Ba3 Si0 3.623799 1_545
Ba3 Si0 3.623801 1_445
Ba3 Si0 3.623801 1_555
Ba3 Ge0 3.677183 1_545
Ba3 Ge0 3.677185 1_445
Ba3 Ge0 3.677186 1_555
Al0 Si2 2.492318 1_455
Al0 Si2 2.492318 1_565
Al0 Si2 2.492326 1_555
Al0 Ba2 3.598034 1_565
Al0 Ba2 3.598036 1_665
Al0 Ba2 3.598036 1_555
Al0 Ba0 3.609874 1_565
Al0 Ba0 3.609876 1_665
Al0 Ba0 3.609876 1_555
Al1 Ge0 2.496181 1_655
Al1 Ge0 2.496181 1_545
Al1 Ge0 2.496189 1_555
Al1 Ba3 3.575068 1_655
Al1 Ba3 3.575070 1_555
Al1 Ba3 3.575070 1_665
Al1 Ba0 3.676466 1_655
Al1 Ba0 3.676468 1_555
Al1 Ba0 3.676468 1_665
Al2 Si0 2.493175 1_655
Al2 Si0 2.493175 1_545
Al2 Si0 2.493183 1_555
Al2 Ba3 3.573975 1_655
Al2 Ba3 3.573978 1_555
Al2 Ba3 3.573978 1_665
Al2 Ba1 3.633273 1_656
Al2 Ba1 3.633275 1_556
Al2 Ba1 3.633275 1_666
Al3 Si1 2.492496 1_455
Al3 Si1 2.492496 1_565
Al3 Si1 2.492504 1_555
Al3 Ba2 3.596040 1_565
Al3 Ba2 3.596042 1_665
Al3 Ba2 3.596042 1_555
Al3 Ba1 3.625063 1_565
Al3 Ba1 3.625065 1_665
Al3 Ba1 3.625066 1_555
