# generated using pymatgen
data_NaLi3(Mo3S4)2
_symmetry_space_group_name_H-M   'P 1'
_cell_length_a   6.71600930
_cell_length_b   6.77121654
_cell_length_c   6.72895553
_cell_angle_alpha   95.27100724
_cell_angle_beta   94.10913144
_cell_angle_gamma   91.56960412
_symmetry_Int_Tables_number   1
_chemical_formula_structural   NaLi3(Mo3S4)2
_chemical_formula_sum   'Na1 Li3 Mo6 S8'
_cell_volume   303.74783187
_cell_formula_units_Z   1
loop_
 _symmetry_equiv_pos_site_id
 _symmetry_equiv_pos_as_xyz
  1  'x, y, z'
loop_
 _atom_site_type_symbol
 _atom_site_label
 _atom_site_symmetry_multiplicity
 _atom_site_fract_x
 _atom_site_fract_y
 _atom_site_fract_z
 _atom_site_occupancy
  Na  Na0  1  0.99312638  0.91372886  0.11346392  1
  Li  Li0  1  0.97393726  0.40612282  0.01323174  1
  Li  Li1  1  0.96372600  0.03716006  0.62159380  1
  Li  Li2  1  0.46281983  0.00462214  0.96996044  1
  Mo  Mo0  1  0.57942177  0.75909539  0.44779844  1
  Mo  Mo1  1  0.23687478  0.55197375  0.40892966  1
  Mo  Mo2  1  0.44689563  0.58869925  0.75620980  1
  Mo  Mo3  1  0.54917742  0.41147042  0.23285394  1
  Mo  Mo4  1  0.75926535  0.44956164  0.58143754  1
  Mo  Mo5  1  0.41522376  0.24100146  0.53905223  1
  S  S0  1  0.28145818  0.87848647  0.61954574  1
  S  S1  1  0.37112489  0.70933888  0.12567161  1
  S  S2  1  0.76896777  0.77692263  0.77693150  1
  S  S3  1  0.86651458  0.60981620  0.29121329  1
  S  S4  1  0.12840900  0.38467134  0.70297863  1
  S  S5  1  0.22990724  0.22737738  0.20717174  1
  S  S6  1  0.62613717  0.29173520  0.86490093  1
  S  S7  1  0.71401498  0.12121612  0.36805406  1
loop_
_geom_bond_atom_site_label_1
_geom_bond_atom_site_label_2
_geom_bond_distance
_geom_bond_site_symmetry_2
Na0 S5 2.619559 1_665
Na0 S3 2.624983 1_555
Na0 S2 2.702244 1_554
Na0 S1 2.924089 1_655
Na0 S7 2.929973 1_565
Li0 S3 2.386543 1_555
Li0 S4 2.391381 1_654
Li0 S5 2.491167 1_655
Li0 S6 2.544988 1_554
Li1 S0 2.415604 1_645
Li1 S7 2.422349 1_555
Li1 S2 2.513284 1_545
Li1 S4 2.567876 1_655
Li2 S6 2.393573 1_555
Li2 S1 2.425841 1_546
Li2 S0 2.633300 1_545
Li2 S5 2.704521 1_556
Li2 S2 2.912082 1_545
Mo0 S3 2.460037 1_555
Mo0 S2 2.465459 1_555
Mo0 S1 2.484819 1_555
Mo0 S0 2.498410 1_555
Mo0 S7 2.703175 1_565
Mo1 S5 2.472479 1_555
Mo1 S1 2.479536 1_555
Mo1 S4 2.510418 1_555
Mo1 S0 2.512655 1_555
Mo1 S3 2.606860 1_455
Mo2 S2 2.468934 1_555
Mo2 S0 2.496997 1_555
Mo2 S4 2.499887 1_555
Mo2 S6 2.510778 1_555
Mo2 S1 2.633979 1_556
Mo3 S5 2.437681 1_555
Mo3 S3 2.475177 1_555
Mo3 S7 2.493850 1_555
Mo3 S1 2.508769 1_555
Mo3 S6 2.625315 1_554
Mo4 S3 2.461355 1_555
Mo4 S2 2.468242 1_555
Mo4 S6 2.479168 1_555
Mo4 S7 2.531993 1_555
Mo4 S4 2.615979 1_655
Mo5 S4 2.466485 1_555
Mo5 S5 2.470276 1_555
Mo5 S7 2.501444 1_555
Mo5 S6 2.514340 1_555
Mo5 S0 2.705373 1_545
