# generated using pymatgen
data_Hg(AsO3)2
_symmetry_space_group_name_H-M   'P 1'
_cell_length_a   4.87428355
_cell_length_b   4.87428268
_cell_length_c   5.04585867
_cell_angle_alpha   90.00000000
_cell_angle_beta   90.00000000
_cell_angle_gamma   119.99999919
_symmetry_Int_Tables_number   1
_chemical_formula_structural   Hg(AsO3)2
_chemical_formula_sum   'Hg1 As2 O6'
_cell_volume   103.82148085
_cell_formula_units_Z   1
loop_
 _symmetry_equiv_pos_site_id
 _symmetry_equiv_pos_as_xyz
  1  'x, y, z'
loop_
 _atom_site_type_symbol
 _atom_site_label
 _atom_site_symmetry_multiplicity
 _atom_site_fract_x
 _atom_site_fract_y
 _atom_site_fract_z
 _atom_site_occupancy
  Hg  Hg0  1  -0.00000000  0.00000000  0.00000000  1
  As  As0  1  0.66666700  0.33333300  0.50000000  1
  As  As1  1  0.33333300  0.66666700  0.50000000  1
  O  O0  1  0.37919847  0.37919847  0.70315739  1
  O  O1  1  0.62080153  0.00000000  0.70315739  1
  O  O2  1  -0.00000000  0.62080153  0.70315739  1
  O  O3  1  0.37919847  -0.00000000  0.29684261  1
  O  O4  1  0.00000000  0.37919847  0.29684261  1
  O  O5  1  0.62080153  0.62080153  0.29684261  1
loop_
_geom_bond_atom_site_label_1
_geom_bond_atom_site_label_2
_geom_bond_distance
_geom_bond_site_symmetry_2
Hg0 O2 2.379027 1_544
Hg0 O4 2.379027 1_555
Hg0 O5 2.379027 1_445
Hg0 O0 2.379027 1_554
Hg0 O3 2.379028 1_555
Hg0 O1 2.379028 1_454
As0 O1 1.837778 1_555
As0 O4 1.837778 1_655
As0 O3 1.837779 1_555
As0 O2 1.837779 1_655
As0 O5 1.837782 1_555
As0 O0 1.837782 1_555
As1 O3 1.837778 1_565
As1 O2 1.837778 1_555
As1 O1 1.837779 1_565
As1 O4 1.837779 1_555
As1 O0 1.837782 1_555
As1 O5 1.837782 1_555
