# generated using pymatgen
data_SrLiH6Ir
_symmetry_space_group_name_H-M   'P 1'
_cell_length_a   5.18164367
_cell_length_b   5.18164358
_cell_length_c   5.18164422
_cell_angle_alpha   60.00000219
_cell_angle_beta   60.00000278
_cell_angle_gamma   59.99999762
_symmetry_Int_Tables_number   1
_chemical_formula_structural   SrLiH6Ir
_chemical_formula_sum   'Sr1 Li1 H6 Ir1'
_cell_volume   98.37566523
_cell_formula_units_Z   1
loop_
 _symmetry_equiv_pos_site_id
 _symmetry_equiv_pos_as_xyz
  1  'x, y, z'
loop_
 _atom_site_type_symbol
 _atom_site_label
 _atom_site_symmetry_multiplicity
 _atom_site_fract_x
 _atom_site_fract_y
 _atom_site_fract_z
 _atom_site_occupancy
  Sr  Sr0  1  0.75000000  0.75000000  0.75000000  1
  Li  Li0  1  0.25000000  0.25000000  0.25000000  1
  H  H0  1  0.77193864  0.22806136  0.22806136  1
  H  H1  1  0.22806136  0.77193864  0.22806136  1
  H  H2  1  0.77193864  0.77193864  0.22806136  1
  H  H3  1  0.22806136  0.77193864  0.77193864  1
  H  H4  1  0.77193864  0.22806136  0.77193864  1
  H  H5  1  0.22806136  0.22806136  0.77193864  1
  Ir  Ir0  1  0.00000000  0.00000000  0.00000000  1
loop_
_geom_bond_atom_site_label_1
_geom_bond_atom_site_label_2
_geom_bond_distance
_geom_bond_site_symmetry_2
H0 Ir0 1.671222 1_655
H0 Sr0 2.595805 1_554
H0 Sr0 2.595805 1_545
H1 Ir0 1.671222 1_565
H1 Sr0 2.595805 1_554
H1 Sr0 2.595805 1_455
H2 Ir0 1.671222 1_665
H2 Sr0 2.595805 1_554
H2 Sr0 2.595805 1_555
H3 Ir0 1.671222 1_566
H3 Sr0 2.595805 1_555
H3 Sr0 2.595805 1_455
H4 Ir0 1.671222 1_656
H4 Sr0 2.595805 1_555
H4 Sr0 2.595805 1_545
H5 Ir0 1.671222 1_556
H5 Sr0 2.595805 1_455
H5 Sr0 2.595805 1_545
