# generated using pymatgen
data_Lu6Ta4Al12Os7
_symmetry_space_group_name_H-M   'P 1'
_cell_length_a   8.92811530
_cell_length_b   8.92811523
_cell_length_c   8.92811571
_cell_angle_alpha   60.00000553
_cell_angle_beta   60.00000577
_cell_angle_gamma   60.00000360
_symmetry_Int_Tables_number   1
_chemical_formula_structural   Lu6Ta4Al12Os7
_chemical_formula_sum   'Lu6 Ta4 Al12 Os7'
_cell_volume   503.22758375
_cell_formula_units_Z   1
loop_
 _symmetry_equiv_pos_site_id
 _symmetry_equiv_pos_as_xyz
  1  'x, y, z'
loop_
 _atom_site_type_symbol
 _atom_site_label
 _atom_site_symmetry_multiplicity
 _atom_site_fract_x
 _atom_site_fract_y
 _atom_site_fract_z
 _atom_site_occupancy
  Lu  Lu0  1  0.70726682  0.70726682  0.29273318  1
  Lu  Lu1  1  0.29273318  0.70726682  0.29273318  1
  Lu  Lu2  1  0.70726682  0.29273318  0.29273318  1
  Lu  Lu3  1  0.29273318  0.29273318  0.70726682  1
  Lu  Lu4  1  0.70726682  0.29273318  0.70726682  1
  Lu  Lu5  1  0.29273318  0.70726682  0.70726682  1
  Ta  Ta0  1  0.87948298  0.87948298  0.36155007  1
  Ta  Ta1  1  0.87948298  0.36155007  0.87948298  1
  Ta  Ta2  1  0.36155007  0.87948298  0.87948298  1
  Ta  Ta3  1  0.87948298  0.87948298  0.87948298  1
  Al  Al0  1  0.12111375  0.12111375  0.63665876  1
  Al  Al1  1  0.12111375  0.63665876  0.12111375  1
  Al  Al2  1  0.63665876  0.12111375  0.12111375  1
  Al  Al3  1  0.12111375  0.12111375  0.12111375  1
  Al  Al4  1  0.66591485  0.66591485  0.00225745  1
  Al  Al5  1  0.66591485  0.00225745  0.66591485  1
  Al  Al6  1  0.00225745  0.66591485  0.66591485  1
  Al  Al7  1  0.66591485  0.66591485  0.66591485  1
  Al  Al8  1  0.33093659  0.33093659  0.00718923  1
  Al  Al9  1  0.33093659  0.00718923  0.33093659  1
  Al  Al10  1  0.00718923  0.33093659  0.33093659  1
  Al  Al11  1  0.33093659  0.33093659  0.33093659  1
  Os  Os0  1  0.00000000  0.00000000  0.00000000  1
  Os  Os1  1  0.99551340  0.99551340  0.50448660  1
  Os  Os2  1  0.50448660  0.99551340  0.50448660  1
  Os  Os3  1  0.99551340  0.50448660  0.50448660  1
  Os  Os4  1  0.50448660  0.50448660  0.99551340  1
  Os  Os5  1  0.99551340  0.50448660  0.99551340  1
  Os  Os6  1  0.50448660  0.99551340  0.99551340  1
loop_
_geom_bond_atom_site_label_1
_geom_bond_atom_site_label_2
_geom_bond_distance
_geom_bond_site_symmetry_2
Lu0 Ta0 3.059280 1_555
Lu0 Ta3 3.059287 1_554
Lu0 Os2 3.202849 1_555
Lu0 Os3 3.202849 1_555
Lu0 Os6 3.202849 1_554
Lu0 Os5 3.202849 1_554
Lu0 Lu2 3.701004 1_555
Lu0 Lu1 3.701004 1_555
Lu0 Lu4 3.701005 1_555
Lu0 Lu5 3.701005 1_555
Lu1 Ta0 3.059288 1_455
Lu1 Ta2 3.059288 1_554
Lu1 Os3 3.202849 1_455
Lu1 Os4 3.202849 1_554
Lu1 Os1 3.202849 1_455
Lu1 Os6 3.202849 1_554
Lu1 Lu5 3.701004 1_555
Lu1 Lu2 3.701004 1_555
Lu1 Lu3 3.701005 1_555
Lu2 Ta0 3.059288 1_545
Lu2 Ta1 3.059288 1_554
Lu2 Os2 3.202849 1_545
Lu2 Os4 3.202849 1_554
Lu2 Os1 3.202849 1_545
Lu2 Os5 3.202849 1_554
Lu2 Lu4 3.701004 1_555
Lu2 Lu3 3.701005 1_555
Lu3 Ta2 3.059288 1_545
Lu3 Ta1 3.059288 1_455
Lu3 Os2 3.202849 1_545
Lu3 Os3 3.202849 1_455
Lu3 Os6 3.202849 1_545
Lu3 Os5 3.202849 1_455
Lu3 Lu5 3.701004 1_555
Lu3 Lu4 3.701004 1_555
Lu4 Ta1 3.059280 1_555
Lu4 Ta3 3.059287 1_545
Lu4 Os3 3.202849 1_555
Lu4 Os4 3.202849 1_555
Lu4 Os1 3.202849 1_545
Lu4 Os6 3.202849 1_545
Lu4 Lu5 3.701004 1_555
Lu5 Ta2 3.059280 1_555
Lu5 Ta3 3.059287 1_455
Lu5 Os2 3.202849 1_555
Lu5 Os4 3.202849 1_555
Lu5 Os1 3.202849 1_455
Lu5 Os5 3.202849 1_455
Al0 Os0 2.648676 1_556
Al0 Al11 2.784197 1_555
Al0 Al10 2.784202 1_555
Al0 Al9 2.784202 1_555
Al0 Os1 2.794907 1_445
Al0 Os3 2.794908 1_455
Al0 Os2 2.794908 1_545
Al0 Ta2 3.050906 1_545
Al0 Ta1 3.050906 1_455
Al0 Ta3 3.050912 1_445
Al0 Lu3 3.061453 1_555
Al0 Lu5 3.061454 1_545
Al0 Lu4 3.061454 1_455
Al1 Os0 2.648676 1_565
Al1 Al11 2.784197 1_555
Al1 Al8 2.784202 1_555
Al1 Al10 2.784202 1_555
Al1 Os5 2.794907 1_454
Al1 Os4 2.794908 1_554
Al1 Os3 2.794908 1_455
Al1 Ta0 3.050906 1_455
Al1 Ta2 3.050906 1_554
Al1 Ta3 3.050912 1_454
Al1 Lu1 3.061453 1_555
Al1 Lu0 3.061454 1_455
Al1 Lu5 3.061454 1_554
Al2 Os0 2.648676 1_655
Al2 Al8 2.784202 1_555
Al2 Al9 2.784202 1_555
Al2 Os6 2.794907 1_544
Al2 Os4 2.794908 1_554
Al2 Os2 2.794908 1_545
Al2 Ta0 3.050906 1_545
Al2 Ta1 3.050906 1_554
Al2 Ta3 3.050912 1_544
Al2 Lu2 3.061453 1_555
Al2 Lu0 3.061454 1_545
Al2 Lu4 3.061454 1_554
Al3 Os0 2.648676 1_555
Al3 Al8 2.784194 1_555
Al3 Al9 2.784194 1_555
Al3 Os5 2.794908 1_454
Al3 Os6 2.794908 1_544
Al3 Os1 2.794908 1_445
Al3 Ta2 3.050912 1_544
Al3 Ta1 3.050912 1_454
Al3 Ta0 3.050912 1_445
Al3 Lu1 3.061454 1_545
Al3 Lu2 3.061454 1_455
Al3 Lu3 3.061454 1_554
Al4 Os6 2.531543 1_554
Al4 Os5 2.531544 1_554
Al4 Os4 2.531559 1_554
Al4 Ta3 2.815772 1_554
Al4 Ta1 2.815794 1_554
Al4 Ta2 2.815794 1_554
Al4 Al7 3.002906 1_554
Al4 Al5 3.002906 1_564
Al4 Al6 3.002906 1_654
Al4 Lu0 3.008253 1_555
Al4 Lu2 3.008264 1_555
Al4 Lu1 3.008264 1_555
Al5 Os1 2.531544 1_545
Al5 Os6 2.531544 1_545
Al5 Os2 2.531559 1_545
Al5 Ta3 2.815772 1_545
Al5 Ta2 2.815794 1_545
Al5 Ta0 2.815794 1_545
Al5 Al7 3.002906 1_545
Al5 Al6 3.002906 1_645
Al5 Lu4 3.008253 1_555
Al5 Lu3 3.008264 1_555
Al5 Lu2 3.008264 1_555
Al6 Os1 2.531544 1_455
Al6 Os5 2.531544 1_455
Al6 Os3 2.531559 1_455
Al6 Ta3 2.815772 1_455
Al6 Ta1 2.815794 1_455
Al6 Ta0 2.815794 1_455
Al6 Al7 3.002906 1_455
Al6 Lu5 3.008253 1_555
Al6 Lu3 3.008264 1_555
Al6 Lu1 3.008264 1_555
Al7 Os2 2.531548 1_555
Al7 Os3 2.531548 1_555
Al7 Os4 2.531549 1_555
Al7 Ta1 2.815780 1_555
Al7 Ta2 2.815780 1_555
Al7 Ta0 2.815780 1_555
Al7 Lu4 3.008270 1_555
Al7 Lu5 3.008270 1_555
Al7 Lu0 3.008271 1_555
Al8 Os6 2.624956 1_544
Al8 Os5 2.624956 1_454
Al8 Os4 2.624964 1_554
Al8 Al9 2.890454 1_555
Al8 Lu3 3.057121 1_554
Al8 Lu5 3.057127 1_554
Al8 Lu4 3.057127 1_554
Al9 Os1 2.624956 1_445
Al9 Os6 2.624957 1_544
Al9 Os2 2.624964 1_545
Al9 Lu1 3.057121 1_545
Al9 Lu0 3.057127 1_545
Al9 Lu5 3.057127 1_545
Al10 Os1 2.624956 1_445
Al10 Os5 2.624957 1_454
Al10 Os3 2.624964 1_455
Al10 Al3 2.784194 1_555
Al10 Al11 2.890454 1_555
Al10 Al9 2.890454 1_555
Al10 Al8 2.890454 1_555
Al10 Lu2 3.057121 1_455
Al10 Lu0 3.057127 1_455
Al10 Lu4 3.057127 1_455
Al11 Os2 2.624959 1_545
Al11 Os3 2.624959 1_455
Al11 Os4 2.624959 1_554
Al11 Al2 2.784197 1_555
Al11 Al9 2.890454 1_555
Al11 Al8 2.890454 1_555
Al11 Lu1 3.057130 1_555
Al11 Lu2 3.057130 1_555
Al11 Lu3 3.057130 1_555
Os0 Ta1 2.635619 1_454
Os0 Ta2 2.635619 1_544
Os0 Ta0 2.635619 1_445
Os0 Ta3 2.635626 1_444
Os1 Ta3 2.737155 1_555
Os1 Ta0 2.737163 1_555
Os2 Ta0 2.737156 1_555
Os2 Ta2 2.737156 1_555
Os3 Ta0 2.737156 1_555
Os3 Ta1 2.737156 1_555
Os4 Ta2 2.737156 1_555
Os4 Ta1 2.737156 1_555
Os5 Ta3 2.737155 1_555
Os5 Ta1 2.737163 1_555
Os6 Ta3 2.737155 1_555
Os6 Ta2 2.737163 1_555
