# generated using pymatgen
data_FeSi12(P4Ir)3
_symmetry_space_group_name_H-M   'P 1'
_cell_length_a   5.85942679
_cell_length_b   6.04492988
_cell_length_c   12.98892696
_cell_angle_alpha   89.81489522
_cell_angle_beta   89.91410711
_cell_angle_gamma   90.20549921
_symmetry_Int_Tables_number   1
_chemical_formula_structural   FeSi12(P4Ir)3
_chemical_formula_sum   'Fe1 Si12 P12 Ir3'
_cell_volume   460.05962312
_cell_formula_units_Z   1
loop_
 _symmetry_equiv_pos_site_id
 _symmetry_equiv_pos_as_xyz
  1  'x, y, z'
loop_
 _atom_site_type_symbol
 _atom_site_label
 _atom_site_symmetry_multiplicity
 _atom_site_fract_x
 _atom_site_fract_y
 _atom_site_fract_z
 _atom_site_occupancy
  Fe  Fe0  1  0.03426329  0.51861952  0.38443221  1
  Si  Si0  1  0.97468048  0.17115656  0.31656655  1
  Si  Si1  1  0.46752685  0.84114349  0.68095402  1
  Si  Si2  1  0.92749872  0.62255452  0.22101420  1
  Si  Si3  1  0.43072460  0.37020267  0.78472049  1
  Si  Si4  1  0.34008486  0.91436156  0.95120142  1
  Si  Si5  1  0.84030190  0.08195737  0.04920804  1
  Si  Si6  1  0.91850784  0.52955521  0.67168230  1
  Si  Si7  1  0.40670647  0.47012866  0.33000564  1
  Si  Si8  1  0.00000636  0.06209020  0.56757714  1
  Si  Si9  1  0.49939033  0.93763685  0.42838578  1
  Si  Si10  1  0.90547320  0.62302921  0.92852226  1
  Si  Si11  1  0.40394865  0.37482298  0.07313155  1
  P  P0  1  0.57832062  0.02828610  0.82507364  1
  P  P1  1  0.07777642  0.96755593  0.17559672  1
  P  P2  1  0.51529529  0.55854965  0.92969935  1
  P  P3  1  0.01390877  0.43974741  0.07285856  1
  P  P4  1  0.61278963  0.11331635  0.57168931  1
  P  P5  1  0.11169722  0.88063498  0.42419553  1
  P  P6  1  0.54127417  0.64191532  0.18282378  1
  P  P7  1  0.04496266  0.35673123  0.81894189  1
  P  P8  1  0.58263621  0.13653463  0.28852865  1
  P  P9  1  0.08057953  0.86995967  0.71005586  1
  P  P10  1  0.15440101  0.40804364  0.54842494  1
  P  P11  1  0.66142543  0.59870494  0.44539533  1
  Ir  Ir0  1  0.96542522  0.98623744  0.87910298  1
  Ir  Ir1  1  0.46544083  0.01139746  0.12156450  1
  Ir  Ir2  1  0.53875545  0.48512445  0.61864436  1
loop_
_geom_bond_atom_site_label_1
_geom_bond_atom_site_label_2
_geom_bond_distance
_geom_bond_site_symmetry_2
Fe0 P5 2.293994 1_555
Fe0 Si2 2.299957 1_455
Fe0 Si0 2.306121 1_455
Fe0 Si7 2.312886 1_555
Fe0 P10 2.340571 1_555
Fe0 P11 2.374617 1_455
P0 Si4 2.255158 1_545
P0 Si1 2.284183 1_545
P0 Si3 2.302554 1_555
P1 Si5 2.261826 1_465
P1 Si0 2.291064 1_465
P1 Si2 2.334531 1_455
P2 Si3 2.258447 1_555
P2 Si11 2.260044 1_556
P2 Si10 2.317848 1_555
P2 Si4 2.403545 1_555
P3 Si10 2.267415 1_454
P3 Si2 2.279382 1_455
P3 Si11 2.320256 1_555
P3 Si5 2.407563 1_455
P4 Si9 2.246187 1_545
P4 Si8 2.291569 1_655
P4 Si1 2.327409 1_545
P5 Si8 2.261544 1_565
P5 Si9 2.297173 1_555
P5 Si0 2.383423 1_465
P6 Si11 2.300704 1_555
P6 Si7 2.309021 1_555
P6 Si2 2.320791 1_555
P7 Si6 2.301284 1_455
P7 Si10 2.303466 1_455
P7 Si3 2.304083 1_555
P8 Si9 2.227676 1_545
P8 Si7 2.332303 1_555
P8 Si0 2.335145 1_555
P9 Si8 2.233681 1_565
P9 Si1 2.305324 1_555
P9 Si6 2.319161 1_455
P10 Si6 2.240846 1_455
P10 Si8 2.288248 1_555
P11 Si7 2.254762 1_555
P11 Si9 2.271465 1_555
Ir0 Si10 2.310984 1_555
Ir0 P0 2.389486 1_565
Ir0 Si5 2.400119 1_566
Ir0 P9 2.404067 1_655
Ir0 P7 2.413253 1_665
Ir0 Si4 2.428055 1_655
Ir1 Si11 2.312855 1_555
Ir1 P1 2.390012 1_545
Ir1 P8 2.399645 1_555
Ir1 Si4 2.406322 1_544
Ir1 P6 2.411587 1_545
Ir1 Si5 2.423675 1_555
Ir2 Si1 2.340401 1_555
Ir2 Si6 2.345089 1_555
Ir2 Si3 2.349395 1_555
Ir2 P4 2.372069 1_555
Ir2 P11 2.456339 1_555
Ir2 P10 2.474329 1_555
