# generated using pymatgen
data_TiCu2Ir3S8
_symmetry_space_group_name_H-M   'P 1'
_cell_length_a   6.76501661
_cell_length_b   6.76501604
_cell_length_c   6.76501742
_cell_angle_alpha   64.03762270
_cell_angle_beta   64.03762661
_cell_angle_gamma   64.03762622
_symmetry_Int_Tables_number   1
_chemical_formula_structural   TiCu2Ir3S8
_chemical_formula_sum   'Ti1 Cu2 Ir3 S8'
_cell_volume   238.38445942
_cell_formula_units_Z   1
loop_
 _symmetry_equiv_pos_site_id
 _symmetry_equiv_pos_as_xyz
  1  'x, y, z'
loop_
 _atom_site_type_symbol
 _atom_site_label
 _atom_site_symmetry_multiplicity
 _atom_site_fract_x
 _atom_site_fract_y
 _atom_site_fract_z
 _atom_site_occupancy
  Ti  Ti0  1  0.50000000  0.50000000  0.50000000  1
  Cu  Cu0  1  0.11704215  0.11704215  0.11704215  1
  Cu  Cu1  1  0.88295785  0.88295785  0.88295785  1
  Ir  Ir0  1  0.00000000  0.50000000  0.50000000  1
  Ir  Ir1  1  0.50000000  0.50000000  0.00000000  1
  Ir  Ir2  1  0.50000000  0.00000000  0.50000000  1
  S  S0  1  0.25296631  0.73007888  0.25296631  1
  S  S1  1  0.25296631  0.25296631  0.73007888  1
  S  S2  1  0.73007888  0.25296631  0.25296631  1
  S  S3  1  0.25901739  0.25901739  0.25901739  1
  S  S4  1  0.74703369  0.26992112  0.74703369  1
  S  S5  1  0.74703369  0.74703369  0.26992112  1
  S  S6  1  0.26992112  0.74703369  0.74703369  1
  S  S7  1  0.74098261  0.74098261  0.74098261  1
loop_
_geom_bond_atom_site_label_1
_geom_bond_atom_site_label_2
_geom_bond_distance
_geom_bond_site_symmetry_2
Cu0 S0 2.251467 1_545
Cu0 S2 2.251467 1_455
Cu0 S1 2.251467 1_554
Cu0 S3 2.278284 1_555
Cu1 S4 2.251467 1_565
Cu1 S6 2.251467 1_655
Cu1 S5 2.251467 1_556
Cu1 S7 2.278284 1_555
Ir0 S0 2.386374 1_555
Ir0 S4 2.386374 1_455
Ir0 S1 2.386374 1_555
Ir0 S5 2.386374 1_455
Ir0 S7 2.389675 1_455
Ir0 S3 2.389675 1_555
Ir1 S2 2.386374 1_555
Ir1 S6 2.386374 1_554
Ir1 S0 2.386375 1_555
Ir1 S4 2.386375 1_554
Ir1 S7 2.389675 1_554
Ir1 S3 2.389675 1_555
Ir2 S2 2.386374 1_555
Ir2 S6 2.386374 1_545
Ir2 S1 2.386374 1_555
Ir2 S5 2.386374 1_545
Ir2 S7 2.389675 1_545
Ir2 S3 2.389675 1_555
S0 Ti0 2.428729 1_555
S1 Ti0 2.428728 1_555
S2 Ti0 2.428729 1_555
S4 Ti0 2.428729 1_555
S5 Ti0 2.428728 1_555
S6 Ti0 2.428729 1_555
