# generated using pymatgen
data_Na3LiSnSe4
_symmetry_space_group_name_H-M   'P 1'
_cell_length_a   10.26531412
_cell_length_b   6.92520951
_cell_length_c   14.70889821
_cell_angle_alpha   62.30075574
_cell_angle_beta   90.00000000
_cell_angle_gamma   90.00000000
_symmetry_Int_Tables_number   1
_chemical_formula_structural   Na3LiSnSe4
_chemical_formula_sum   'Na12 Li4 Sn4 Se16'
_cell_volume   925.81604107
_cell_formula_units_Z   4
loop_
 _symmetry_equiv_pos_site_id
 _symmetry_equiv_pos_as_xyz
  1  'x, y, z'
loop_
 _atom_site_type_symbol
 _atom_site_label
 _atom_site_symmetry_multiplicity
 _atom_site_fract_x
 _atom_site_fract_y
 _atom_site_fract_z
 _atom_site_occupancy
  Na  Na0  1  0.89409802  0.74481506  0.48553690  1
  Na  Na1  1  0.35749152  0.82563306  0.62244295  1
  Na  Na2  1  0.39409802  0.25518494  0.01446310  1
  Na  Na3  1  0.64250848  0.17436694  0.37755705  1
  Na  Na4  1  0.88352678  0.40096803  0.12494217  1
  Na  Na5  1  0.61647322  0.40096803  0.62494217  1
  Na  Na6  1  0.60590198  0.74481506  0.98553690  1
  Na  Na7  1  0.38352678  0.59903197  0.37505783  1
  Na  Na8  1  0.14250848  0.82563306  0.12244295  1
  Na  Na9  1  0.85749152  0.17436694  0.87755705  1
  Na  Na10  1  0.11647322  0.59903197  0.87505783  1
  Na  Na11  1  0.10590198  0.25518494  0.51446310  1
  Li  Li0  1  0.60521762  0.62164764  0.79108821  1
  Li  Li1  1  0.10521762  0.37835236  0.70891179  1
  Li  Li2  1  0.39478238  0.37835236  0.20891179  1
  Li  Li3  1  0.89478238  0.62164764  0.29108821  1
  Sn  Sn0  1  0.86069809  0.89169724  0.69332247  1
  Sn  Sn1  1  0.63930191  0.89169724  0.19332247  1
  Sn  Sn2  1  0.36069809  0.10830276  0.80667753  1
  Sn  Sn3  1  0.13930191  0.10830276  0.30667753  1
  Se  Se0  1  0.16142219  0.14188619  0.90146044  1
  Se  Se1  1  0.93006386  0.21872055  0.35902428  1
  Se  Se2  1  0.88932276  0.28304872  0.65680848  1
  Se  Se3  1  0.67602204  0.62469147  0.38163803  1
  Se  Se4  1  0.56993614  0.21872055  0.85902428  1
  Se  Se5  1  0.66142219  0.85811381  0.59853956  1
  Se  Se6  1  0.11067724  0.71695128  0.34319152  1
  Se  Se7  1  0.06993614  0.78127945  0.64097572  1
  Se  Se8  1  0.32397796  0.37530853  0.61836197  1
  Se  Se9  1  0.43006386  0.78127945  0.14097572  1
  Se  Se10  1  0.61067724  0.28304872  0.15680848  1
  Se  Se11  1  0.38932276  0.71695128  0.84319152  1
  Se  Se12  1  0.33857781  0.14188619  0.40146044  1
  Se  Se13  1  0.17602204  0.37530853  0.11836197  1
  Se  Se14  1  0.83857781  0.85811381  0.09853956  1
  Se  Se15  1  0.82397796  0.62469147  0.88163803  1
loop_
_geom_bond_atom_site_label_1
_geom_bond_atom_site_label_2
_geom_bond_distance
_geom_bond_site_symmetry_2
Na0 Se1 2.948282 1_565
Na0 Se2 3.014232 1_555
Na0 Se7 3.014296 1_655
Na0 Se3 3.036583 1_555
Na0 Se6 3.120809 1_655
Na0 Se5 3.208684 1_555
Na1 Se12 2.963347 1_565
Na1 Se7 2.967189 1_555
Na1 Se11 2.990674 1_555
Na1 Se5 3.136039 1_555
Na1 Se8 3.165692 1_555
Na2 Se9 2.948282 1_545
Na2 Se11 3.014232 1_554
Na2 Se4 3.014296 1_554
Na2 Se13 3.036583 1_555
Na2 Se10 3.120809 1_555
Na2 Se0 3.208684 1_554
Na3 Se5 2.963347 1_545
Na3 Se1 2.967189 1_555
Na3 Se10 2.990674 1_555
Na3 Se12 3.136039 1_555
Na3 Se3 3.165692 1_555
Na4 Se10 2.894077 1_555
Na4 Se13 3.012022 1_655
Na4 Se14 3.040267 1_555
Na4 Se1 3.104209 1_555
Na4 Se15 3.229057 1_554
Na5 Se2 2.894077 1_555
Na5 Se8 3.012022 1_555
Na5 Se5 3.040267 1_555
Na5 Se4 3.104209 1_555
Na5 Se3 3.229057 1_555
Na6 Se4 2.948282 1_565
Na6 Se10 3.014232 1_556
Na6 Se9 3.014296 1_556
Na6 Se15 3.036583 1_555
Na6 Se11 3.120809 1_555
Na6 Se14 3.208684 1_556
Na7 Se6 2.894077 1_555
Na7 Se3 3.012022 1_555
Na7 Se12 3.040267 1_555
Na7 Se9 3.104209 1_555
Na7 Se8 3.229057 1_555
Na8 Se0 2.963347 1_564
Na8 Se9 2.967189 1_555
Na8 Se6 2.990674 1_555
Na8 Se14 3.136039 1_455
Na8 Se13 3.165692 1_555
Na9 Se14 2.963347 1_546
Na9 Se4 2.967189 1_555
Na9 Se2 2.990674 1_555
Na9 Se0 3.136039 1_655
Na9 Se15 3.165692 1_555
Na10 Se11 2.894077 1_555
Na10 Se15 3.012022 1_455
Na10 Se0 3.040267 1_555
Na10 Se7 3.104209 1_555
Na10 Se13 3.229057 1_556
Na11 Se7 2.948282 1_545
Na11 Se6 3.014232 1_555
Na11 Se1 3.014296 1_455
Na11 Se8 3.036583 1_555
Na11 Se2 3.120809 1_455
Na11 Se12 3.208684 1_555
Li0 Se4 2.514678 1_555
Li0 Se11 2.530779 1_555
Li0 Se5 2.593085 1_555
Li0 Se15 2.615987 1_555
Li1 Se7 2.514678 1_555
Li1 Se2 2.530779 1_455
Li1 Se0 2.593085 1_555
Li1 Se8 2.615987 1_555
Li2 Se9 2.514678 1_555
Li2 Se10 2.530779 1_555
Li2 Se12 2.593085 1_555
Li2 Se13 2.615987 1_555
Li3 Se1 2.514678 1_555
Li3 Se6 2.530779 1_655
Li3 Se14 2.593085 1_555
Li3 Se3 2.615987 1_555
Se0 Sn2 2.546328 1_555
Se1 Sn3 2.517610 1_655
Se2 Sn0 2.523238 1_545
Se3 Sn1 2.544026 1_555
Se4 Sn2 2.517610 1_555
Se5 Sn0 2.546328 1_555
Se6 Sn3 2.523238 1_565
Se7 Sn0 2.517610 1_455
Se8 Sn2 2.544026 1_555
Se9 Sn1 2.517610 1_555
Se10 Sn1 2.523238 1_545
Se11 Sn2 2.523238 1_565
Se12 Sn3 2.546328 1_555
Se13 Sn3 2.544026 1_555
Se14 Sn1 2.546328 1_555
Se15 Sn0 2.544026 1_555
