# generated using pymatgen
data_ScTcF7
_symmetry_space_group_name_H-M   'P 1'
_cell_length_a   5.32777781
_cell_length_b   8.40824293
_cell_length_c   11.45305696
_cell_angle_alpha   63.42437177
_cell_angle_beta   90.00000000
_cell_angle_gamma   90.00000000
_symmetry_Int_Tables_number   1
_chemical_formula_structural   ScTcF7
_chemical_formula_sum   'Sc4 Tc4 F28'
_cell_volume   458.85732955
_cell_formula_units_Z   4
loop_
 _symmetry_equiv_pos_site_id
 _symmetry_equiv_pos_as_xyz
  1  'x, y, z'
loop_
 _atom_site_type_symbol
 _atom_site_label
 _atom_site_symmetry_multiplicity
 _atom_site_fract_x
 _atom_site_fract_y
 _atom_site_fract_z
 _atom_site_occupancy
  Sc  Sc0  1  0.26004094  0.81642128  0.26529768  1
  Sc  Sc1  1  0.73995906  0.18357872  0.73470232  1
  Sc  Sc2  1  0.76004094  0.18357872  0.23470232  1
  Sc  Sc3  1  0.23995906  0.81642128  0.76529768  1
  Tc  Tc0  1  0.75992420  0.72868030  0.04419038  1
  Tc  Tc1  1  0.24007580  0.27131970  0.95580962  1
  Tc  Tc2  1  0.25992420  0.27131970  0.45580962  1
  Tc  Tc3  1  0.74007580  0.72868030  0.54419038  1
  F  F0  1  0.94959280  0.70531860  0.41615685  1
  F  F1  1  0.05040720  0.29468140  0.58384315  1
  F  F2  1  0.44959280  0.29468140  0.08384315  1
  F  F3  1  0.55040720  0.70531860  0.91615685  1
  F  F4  1  0.47082120  0.72649557  0.14704635  1
  F  F5  1  0.52917880  0.27350443  0.85295365  1
  F  F6  1  0.97082120  0.27350443  0.35295365  1
  F  F7  1  0.02917880  0.72649557  0.64704635  1
  F  F8  1  0.96252480  0.74888304  0.17903379  1
  F  F9  1  0.03747520  0.25111696  0.82096621  1
  F  F10  1  0.46252480  0.25111696  0.32096621  1
  F  F11  1  0.53747520  0.74888304  0.67903379  1
  F  F12  1  0.77830276  0.47252394  0.14272593  1
  F  F13  1  0.22169724  0.52747606  0.85727407  1
  F  F14  1  0.27830276  0.52747606  0.35727407  1
  F  F15  1  0.72169724  0.47252394  0.64272593  1
  F  F16  1  0.93376059  0.27040177  0.04930410  1
  F  F17  1  0.06623941  0.72959823  0.95069590  1
  F  F18  1  0.43376059  0.72959823  0.45069590  1
  F  F19  1  0.56623941  0.27040177  0.54930410  1
  F  F20  1  0.74624271  0.98326446  0.44647570  1
  F  F21  1  0.25375729  0.01673554  0.55352430  1
  F  F22  1  0.24624271  0.01673554  0.05352430  1
  F  F23  1  0.75375729  0.98326446  0.94647570  1
  F  F24  1  0.57938625  0.97252646  0.23333004  1
  F  F25  1  0.42061375  0.02747354  0.76666996  1
  F  F26  1  0.07938625  0.02747354  0.26666996  1
  F  F27  1  0.92061375  0.97252646  0.73333004  1
loop_
_geom_bond_atom_site_label_1
_geom_bond_atom_site_label_2
_geom_bond_distance
_geom_bond_site_symmetry_2
F0 Tc3 1.921615 1_555
F0 Sc0 2.269248 1_655
F1 Tc2 1.921615 1_555
F1 Sc1 2.269248 1_455
F2 Tc1 1.921615 1_554
F2 Sc2 2.269248 1_555
F3 Tc0 1.921615 1_556
F3 Sc3 2.269248 1_555
F4 Tc0 1.934205 1_555
F4 Sc0 2.140869 1_555
F5 Tc1 1.934205 1_555
F5 Sc1 2.140869 1_555
F6 Tc2 1.934205 1_655
F6 Sc2 2.140869 1_555
F7 Tc3 1.934205 1_455
F7 Sc3 2.140869 1_555
F8 Tc0 1.952893 1_555
F8 Sc0 2.076812 1_655
F9 Tc1 1.952893 1_555
F9 Sc1 2.076812 1_455
F10 Tc2 1.952893 1_555
F10 Sc2 2.076812 1_555
F11 Tc3 1.952893 1_555
F11 Sc3 2.076812 1_555
F12 Tc0 1.935790 1_555
F12 Sc2 2.175265 1_555
F13 Tc1 1.935790 1_555
F13 Sc3 2.175265 1_555
F14 Tc2 1.935790 1_555
F14 Sc0 2.175265 1_555
F15 Tc3 1.935790 1_555
F15 Sc1 2.175265 1_555
F16 Tc1 1.950033 1_654
F16 Sc2 2.123984 1_555
F17 Tc0 1.950033 1_456
F17 Sc3 2.123984 1_555
F18 Tc3 1.950033 1_555
F18 Sc0 2.123984 1_555
F19 Tc2 1.950033 1_555
F19 Sc1 2.123984 1_555
F20 Tc3 1.921517 1_555
F20 Sc2 2.251628 1_565
F21 Tc2 1.921517 1_555
F21 Sc3 2.251628 1_545
F22 Tc1 1.921517 1_554
F22 Sc0 2.251628 1_545
F23 Tc0 1.921517 1_556
F23 Sc1 2.251628 1_565
F24 Sc2 2.025022 1_565
F24 Sc0 2.078861 1_555
F25 Sc3 2.025022 1_545
F25 Sc1 2.078861 1_555
F26 Sc0 2.025022 1_545
F26 Sc2 2.078861 1_455
F27 Sc1 2.025022 1_565
F27 Sc3 2.078861 1_655
