# generated using pymatgen
data_Nb5Si2B4W5
_symmetry_space_group_name_H-M   'P 1'
_cell_length_a   7.16609794
_cell_length_b   7.13757635
_cell_length_c   7.16193046
_cell_angle_alpha   129.11290270
_cell_angle_beta   129.24324314
_cell_angle_gamma   74.62045734
_symmetry_Int_Tables_number   1
_chemical_formula_structural   Nb5Si2B4W5
_chemical_formula_sum   'Nb5 Si2 B4 W5'
_cell_volume   214.59555101
_cell_formula_units_Z   1
loop_
 _symmetry_equiv_pos_site_id
 _symmetry_equiv_pos_as_xyz
  1  'x, y, z'
loop_
 _atom_site_type_symbol
 _atom_site_label
 _atom_site_symmetry_multiplicity
 _atom_site_fract_x
 _atom_site_fract_y
 _atom_site_fract_z
 _atom_site_occupancy
  Nb  Nb0  1  0.80428308  0.97722709  0.50153745  1
  Nb  Nb1  1  0.30666141  0.80648810  0.82960087  1
  Nb  Nb2  1  0.19471247  0.02711115  0.50172712  1
  Nb  Nb3  1  0.52784754  0.69251741  0.50151404  1
  Nb  Nb4  1  0.02371830  0.52261451  0.82883087  1
  Si  Si0  1  0.74966907  0.74719417  0.99965017  1
  Si  Si1  1  0.25375771  0.25200350  0.00846584  1
  B  B0  1  0.37583398  0.87908572  0.25330605  1
  B  B1  1  0.87868207  0.61584732  0.49352241  1
  B  B2  1  0.62587556  0.12841760  0.75294828  1
  B  B3  1  0.11878862  0.37856839  0.49413348  1
  W  W0  1  0.00120031  0.00190204  0.00137354  1
  W  W1  1  0.69702172  0.19508601  0.16584211  1
  W  W2  1  0.97039020  0.47051439  0.16577794  1
  W  W3  1  0.50192082  0.50089349  0.00048450  1
  W  W4  1  0.46963715  0.30452910  0.50128433  1
loop_
_geom_bond_atom_site_label_1
_geom_bond_atom_site_label_2
_geom_bond_distance
_geom_bond_site_symmetry_2
Nb0 Si0 2.623739 1_554
Nb0 Si1 2.640750 1_666
Nb0 W0 2.789661 1_666
Nb0 W3 2.794241 1_555
Nb0 W4 2.869968 1_565
Nb1 Si1 2.594602 1_566
Nb1 Si0 2.605097 1_555
Nb1 W3 2.792116 1_556
Nb1 W0 2.805920 1_566
Nb1 W2 2.888925 1_455
Nb1 W1 2.912481 1_566
Nb2 Si0 2.626557 1_444
Nb2 Si1 2.644647 1_556
Nb2 W3 2.792909 1_556
Nb2 W0 2.797915 1_555
Nb3 Si1 2.589437 1_555
Nb3 Si0 2.608486 1_555
Nb3 W0 2.798802 1_666
Nb3 W3 2.807201 1_555
Nb3 W4 2.906739 1_555
Nb4 Si0 2.611267 1_455
Nb4 Si1 2.620384 1_556
Nb4 W0 2.807448 1_566
Nb4 W3 2.811956 1_556
Nb4 W1 2.885336 1_455
Nb4 W2 2.912430 1_456
Si0 W2 2.596922 1_556
Si0 W4 2.611833 1_555
Si0 W1 2.628024 1_566
Si0 W3 2.815094 1_556
Si0 W0 2.869837 1_666
Si1 W4 2.592501 1_555
Si1 W2 2.612095 1_455
Si1 W1 2.624655 1_555
Si1 W0 2.819178 1_555
Si1 W3 2.873002 1_555
B0 B2 2.174122 1_565
B0 W4 2.365374 1_565
B0 Nb0 2.396138 1_555
B0 Nb2 2.406037 1_565
B0 W0 2.418676 1_565
B0 Nb3 2.426347 1_555
B0 Nb1 2.443735 1_554
B0 W3 2.447659 1_555
B0 Nb4 2.454245 1_554
B1 B3 2.069538 1_655
B1 W2 2.352812 1_555
B1 W1 2.353172 1_555
B1 Nb4 2.404484 1_655
B1 Nb1 2.406757 1_655
B1 W3 2.426669 1_555
B1 Nb3 2.456887 1_555
B1 Nb0 2.462356 1_555
B1 W0 2.488083 1_666
B2 W4 2.375096 1_555
B2 W2 2.377463 1_556
B2 W1 2.382576 1_556
B2 Nb0 2.402160 1_545
B2 W3 2.406894 1_556
B2 Nb2 2.411768 1_555
B2 W0 2.428842 1_656
B2 Nb3 2.430255 1_545
B3 W2 2.346229 1_455
B3 W1 2.366792 1_455
B3 Nb1 2.396601 1_555
B3 W4 2.402009 1_555
B3 Nb4 2.419173 1_555
B3 W0 2.420904 1_555
B3 Nb2 2.450013 1_555
B3 W3 2.476038 1_556
