# generated using pymatgen
data_Zr10Be2(InTe)3
_symmetry_space_group_name_H-M   'P 1'
_cell_length_a   8.59635398
_cell_length_b   8.59635463
_cell_length_c   5.80702644
_cell_angle_alpha   90.00000000
_cell_angle_beta   90.00000000
_cell_angle_gamma   119.99999747
_symmetry_Int_Tables_number   1
_chemical_formula_structural   Zr10Be2(InTe)3
_chemical_formula_sum   'Zr10 Be2 In3 Te3'
_cell_volume   371.63196360
_cell_formula_units_Z   1
loop_
 _symmetry_equiv_pos_site_id
 _symmetry_equiv_pos_as_xyz
  1  'x, y, z'
loop_
 _atom_site_type_symbol
 _atom_site_label
 _atom_site_symmetry_multiplicity
 _atom_site_fract_x
 _atom_site_fract_y
 _atom_site_fract_z
 _atom_site_occupancy
  Zr  Zr0  1  0.76007607  0.76007607  0.25000000  1
  Zr  Zr1  1  0.23992393  0.00000000  0.25000000  1
  Zr  Zr2  1  0.00000000  0.23992393  0.25000000  1
  Zr  Zr3  1  0.26439122  0.26439122  0.75000000  1
  Zr  Zr4  1  0.73560878  0.00000000  0.75000000  1
  Zr  Zr5  1  0.00000000  0.73560878  0.75000000  1
  Zr  Zr6  1  0.66666700  0.33333300  0.50470239  1
  Zr  Zr7  1  0.33333300  0.66666700  0.50470239  1
  Zr  Zr8  1  0.33333300  0.66666700  0.99529761  1
  Zr  Zr9  1  0.66666700  0.33333300  0.99529761  1
  Be  Be0  1  0.00000000  0.00000000  0.53568636  1
  Be  Be1  1  0.00000000  0.00000000  0.96431364  1
  In  In0  1  0.61927599  0.61927599  0.75000000  1
  In  In1  1  0.38072401  0.00000000  0.75000000  1
  In  In2  1  0.00000000  0.38072401  0.75000000  1
  Te  Te0  1  0.39704925  0.39704925  0.25000000  1
  Te  Te1  1  0.60295075  0.00000000  0.25000000  1
  Te  Te2  1  0.00000000  0.60295075  0.25000000  1
loop_
_geom_bond_atom_site_label_1
_geom_bond_atom_site_label_2
_geom_bond_distance
_geom_bond_site_symmetry_2
Zr6 Zr9 2.848899 1_555
Zr6 Zr9 2.958127 1_554
Zr7 Zr8 2.848899 1_555
Zr7 Zr8 2.958127 1_554
Be0 Be1 2.489050 1_555
Be0 Zr4 2.591228 1_455
Be0 Zr3 2.591229 1_555
Be0 Zr5 2.591229 1_545
Be0 Zr1 2.646890 1_555
Be0 Zr2 2.646891 1_555
Be0 Zr0 2.646891 1_445
Be1 Zr4 2.591228 1_455
Be1 Zr3 2.591229 1_555
Be1 Zr5 2.591229 1_545
Be1 Zr1 2.646890 1_556
Be1 Zr2 2.646891 1_556
Be1 Zr0 2.646891 1_446
In0 Zr5 2.904924 1_655
In0 Zr4 2.904924 1_565
In0 Zr8 3.039492 1_555
In0 Zr7 3.039492 1_555
In0 Zr9 3.039492 1_555
In0 Zr6 3.039492 1_555
In0 Zr3 3.050715 1_555
In0 Zr0 3.145692 1_555
In0 Zr0 3.145692 1_556
In1 Zr3 2.904924 1_555
In1 Zr5 2.904924 1_545
In1 Zr8 3.039484 1_545
In1 Zr7 3.039484 1_545
In1 Zr9 3.039487 1_555
In1 Zr6 3.039487 1_555
In1 Zr4 3.050715 1_555
In1 Zr1 3.145692 1_555
In1 Zr1 3.145692 1_556
In2 Zr3 2.904924 1_555
In2 Zr4 2.904924 1_455
In2 Zr9 3.039484 1_455
In2 Zr6 3.039484 1_455
In2 Zr8 3.039487 1_555
In2 Zr7 3.039487 1_555
In2 Zr5 3.050715 1_555
In2 Zr2 3.145692 1_556
In2 Zr2 3.145692 1_555
Te0 Zr2 2.977244 1_555
Te0 Zr1 2.977244 1_555
Te0 Zr6 3.021422 1_555
Te0 Zr9 3.021422 1_554
Te0 Zr7 3.021422 1_555
Te0 Zr8 3.021422 1_554
Te0 Zr3 3.119430 1_554
Te0 Zr3 3.119430 1_555
Te0 Zr0 3.120707 1_555
Te1 Zr0 2.977244 1_545
Te1 Zr2 2.977244 1_655
Te1 Zr6 3.021415 1_555
Te1 Zr9 3.021415 1_554
Te1 Zr7 3.021417 1_545
Te1 Zr8 3.021417 1_544
Te1 Zr4 3.119430 1_554
Te1 Zr4 3.119430 1_555
Te1 Zr1 3.120707 1_555
Te2 Zr0 2.977244 1_455
Te2 Zr1 2.977244 1_565
Te2 Zr7 3.021414 1_555
Te2 Zr8 3.021414 1_554
Te2 Zr6 3.021417 1_455
Te2 Zr9 3.021417 1_454
Te2 Zr5 3.119430 1_554
Te2 Zr5 3.119430 1_555
Te2 Zr2 3.120707 1_555
