# generated using pymatgen
data_SrP12(IrRu)2
_symmetry_space_group_name_H-M   'P 1'
_cell_length_a   7.00754943
_cell_length_b   7.02057144
_cell_length_c   7.00755075
_cell_angle_alpha   109.47331969
_cell_angle_beta   109.39927593
_cell_angle_gamma   109.46581182
_symmetry_Int_Tables_number   1
_chemical_formula_structural   SrP12(IrRu)2
_chemical_formula_sum   'Sr1 P12 Ir2 Ru2'
_cell_volume   265.63513726
_cell_formula_units_Z   1
loop_
 _symmetry_equiv_pos_site_id
 _symmetry_equiv_pos_as_xyz
  1  'x, y, z'
loop_
 _atom_site_type_symbol
 _atom_site_label
 _atom_site_symmetry_multiplicity
 _atom_site_fract_x
 _atom_site_fract_y
 _atom_site_fract_z
 _atom_site_occupancy
  Sr  Sr0  1  0.00000000  0.00000000  0.00000000  1
  P  P0  1  0.35620471  0.21295429  0.85674958  1
  P  P1  1  0.64379529  0.78704571  0.14325042  1
  P  P2  1  0.64170375  0.50078237  0.85907862  1
  P  P3  1  0.35829625  0.49921763  0.14092138  1
  P  P4  1  0.21512242  0.86011708  0.35940006  1
  P  P5  1  0.78487758  0.13988292  0.64059994  1
  P  P6  1  0.50071902  0.86011708  0.64499466  1
  P  P7  1  0.49928098  0.13988292  0.35500534  1
  P  P8  1  0.85516248  0.35457102  0.21515565  1
  P  P9  1  0.14483752  0.64542898  0.78484435  1
  P  P10  1  0.86058463  0.64542898  0.50059146  1
  P  P11  1  0.13941537  0.35457102  0.49940854  1
  Ir  Ir0  1  0.00000000  0.50000000  0.00000000  1
  Ir  Ir1  1  0.50000000  0.50000000  0.50000000  1
  Ru  Ru0  1  0.00000000  0.00000000  0.50000000  1
  Ru  Ru1  1  0.50000000  0.00000000  0.00000000  1
loop_
_geom_bond_atom_site_label_1
_geom_bond_atom_site_label_2
_geom_bond_distance
_geom_bond_site_symmetry_2
P0 P3 2.301599 1_556
P0 P2 2.312582 1_555
P0 Ru0 2.364530 1_555
P0 Ru1 2.364531 1_556
P0 Sr0 3.106677 1_556
P1 P2 2.301599 1_554
P1 P3 2.312582 1_555
P1 Ru0 2.364530 1_665
P1 Ru1 2.364531 1_565
P1 Sr0 3.106677 1_665
P2 Sr0 3.121403 1_666
P3 Sr0 3.121403 1_555
P4 P7 2.301779 1_565
P4 P6 2.312983 1_555
P4 Ru0 2.352850 1_565
P4 Sr0 3.113441 1_565
P5 P6 2.301779 1_545
P5 P7 2.312983 1_555
P5 Ru0 2.352850 1_655
P5 Sr0 3.113441 1_656
P6 Ru1 2.352857 1_566
P6 Sr0 3.113430 1_666
P7 Ru1 2.352857 1_555
P7 Sr0 3.113430 1_555
P8 Ru1 2.353667 1_555
P8 Sr0 3.114162 1_655
P9 Ru1 2.353667 1_566
P9 Sr0 3.114162 1_566
P10 P9 2.302109 1_655
P10 P8 2.312266 1_555
P10 Ru0 2.353667 1_665
P10 Sr0 3.114162 1_666
P11 P8 2.302109 1_455
P11 P9 2.312266 1_555
P11 Ru0 2.353667 1_555
P11 Sr0 3.114162 1_555
Ir0 P3 2.375910 1_555
Ir0 P2 2.375910 1_454
Ir0 P8 2.387051 1_455
Ir0 P9 2.387051 1_554
Ir0 P4 2.387414 1_555
Ir0 P5 2.387414 1_454
Ir1 P2 2.375911 1_555
Ir1 P3 2.375911 1_555
Ir1 P10 2.387051 1_555
Ir1 P11 2.387051 1_555
Ir1 P6 2.387408 1_555
Ir1 P7 2.387408 1_555
