# generated using pymatgen
data_Hg4As2O7
_symmetry_space_group_name_H-M   'P 1'
_cell_length_a   7.53944700
_cell_length_b   10.27488900
_cell_length_c   12.48559600
_cell_angle_alpha   90.00000000
_cell_angle_beta   90.00000000
_cell_angle_gamma   90.00000000
_symmetry_Int_Tables_number   1
_chemical_formula_structural   Hg4As2O7
_chemical_formula_sum   'Hg16 As8 O28'
_cell_volume   967.22142868
_cell_formula_units_Z   4
loop_
 _symmetry_equiv_pos_site_id
 _symmetry_equiv_pos_as_xyz
  1  'x, y, z'
loop_
 _atom_site_type_symbol
 _atom_site_label
 _atom_site_symmetry_multiplicity
 _atom_site_fract_x
 _atom_site_fract_y
 _atom_site_fract_z
 _atom_site_occupancy
  Hg  Hg0  1  0.05378900  0.10463300  0.45115500  1
  Hg  Hg1  1  0.55378900  0.39536700  0.54884500  1
  Hg  Hg2  1  0.44621100  0.60463300  0.04884500  1
  Hg  Hg3  1  0.94621100  0.89536700  0.95115500  1
  Hg  Hg4  1  0.94621100  0.89536700  0.54884500  1
  Hg  Hg5  1  0.44621100  0.60463300  0.45115500  1
  Hg  Hg6  1  0.55378900  0.39536700  0.95115500  1
  Hg  Hg7  1  0.05378900  0.10463300  0.04884500  1
  Hg  Hg8  1  0.55809000  0.01013100  0.40219500  1
  Hg  Hg9  1  0.05809000  0.48986900  0.59780500  1
  Hg  Hg10  1  0.94191000  0.51013100  0.09780500  1
  Hg  Hg11  1  0.44191000  0.98986900  0.90219500  1
  Hg  Hg12  1  0.44191000  0.98986900  0.59780500  1
  Hg  Hg13  1  0.94191000  0.51013100  0.40219500  1
  Hg  Hg14  1  0.05809000  0.48986900  0.90219500  1
  Hg  Hg15  1  0.55809000  0.01013100  0.09780500  1
  As  As0  1  0.31857400  0.69676600  0.75000000  1
  As  As1  1  0.81857400  0.80323400  0.25000000  1
  As  As2  1  0.18142600  0.19676600  0.75000000  1
  As  As3  1  0.68142600  0.30323400  0.25000000  1
  As  As4  1  0.72277800  0.76193300  0.75000000  1
  As  As5  1  0.22277800  0.73806700  0.25000000  1
  As  As6  1  0.77722200  0.26193300  0.75000000  1
  As  As7  1  0.27722200  0.23806700  0.25000000  1
  O  O0  1  0.21468100  0.54536900  0.75000000  1
  O  O1  1  0.71468100  0.95463100  0.25000000  1
  O  O2  1  0.28531900  0.04536900  0.75000000  1
  O  O3  1  0.78531900  0.45463100  0.25000000  1
  O  O4  1  0.55102800  0.64188200  0.75000000  1
  O  O5  1  0.05102800  0.85811800  0.25000000  1
  O  O6  1  0.94897200  0.14188200  0.75000000  1
  O  O7  1  0.44897200  0.35811800  0.25000000  1
  O  O8  1  0.63475900  0.91478600  0.75000000  1
  O  O9  1  0.13475900  0.58521400  0.25000000  1
  O  O10  1  0.86524100  0.41478600  0.75000000  1
  O  O11  1  0.36524100  0.08521400  0.25000000  1
  O  O12  1  0.15668400  0.27095500  0.36426500  1
  O  O13  1  0.65668400  0.22904500  0.63573500  1
  O  O14  1  0.34331600  0.77095500  0.13573500  1
  O  O15  1  0.84331600  0.72904500  0.86426500  1
  O  O16  1  0.84331600  0.72904500  0.63573500  1
  O  O17  1  0.34331600  0.77095500  0.36426500  1
  O  O18  1  0.65668400  0.22904500  0.86426500  1
  O  O19  1  0.15668400  0.27095500  0.13573500  1
  O  O20  1  0.21364100  0.27186700  0.86948700  1
  O  O21  1  0.71364100  0.22813300  0.13051300  1
  O  O22  1  0.28635900  0.77186700  0.63051300  1
  O  O23  1  0.78635900  0.72813300  0.36948700  1
  O  O24  1  0.21364100  0.27186700  0.63051300  1
  O  O25  1  0.71364100  0.22813300  0.36948700  1
  O  O26  1  0.28635900  0.77186700  0.86948700  1
  O  O27  1  0.78635900  0.72813300  0.13051300  1
loop_
_geom_bond_atom_site_label_1
_geom_bond_atom_site_label_2
_geom_bond_distance
_geom_bond_site_symmetry_2
Hg0 O12 2.167775 1_555
Hg1 O13 2.167775 1_555
Hg2 O14 2.167775 1_555
Hg3 O15 2.167775 1_555
Hg4 O16 2.167775 1_555
Hg5 O17 2.167775 1_555
Hg6 O18 2.167775 1_555
Hg7 O19 2.167775 1_555
Hg8 O1 2.308671 1_545
Hg8 O11 2.513989 1_555
Hg8 O25 2.561156 1_555
Hg9 O0 2.308671 1_555
Hg9 O10 2.513989 1_455
Hg9 O24 2.561156 1_555
Hg10 O3 2.308671 1_555
Hg10 O9 2.513989 1_655
Hg10 O27 2.561156 1_555
Hg11 O2 2.308671 1_565
Hg11 O8 2.513989 1_555
Hg11 O26 2.561156 1_555
Hg12 O2 2.308671 1_565
Hg12 O8 2.513989 1_555
Hg12 O22 2.561156 1_555
Hg13 O3 2.308671 1_555
Hg13 O9 2.513989 1_655
Hg13 O23 2.561156 1_555
Hg14 O0 2.308671 1_555
Hg14 O10 2.513989 1_455
Hg14 O20 2.561156 1_555
Hg15 O1 2.308671 1_545
Hg15 O11 2.513989 1_555
Hg15 O21 2.561156 1_555
As0 O22 1.697088 1_555
As0 O26 1.697088 1_555
As0 O0 1.741667 1_555
As0 O4 1.841068 1_555
As1 O27 1.697088 1_555
As1 O23 1.697088 1_555
As1 O1 1.741667 1_555
As1 O5 1.841068 1_655
As2 O20 1.697088 1_555
As2 O24 1.697088 1_555
As2 O2 1.741667 1_555
As2 O6 1.841068 1_455
As3 O25 1.697088 1_555
As3 O21 1.697088 1_555
As3 O3 1.741667 1_555
As3 O7 1.841068 1_555
As4 O8 1.704994 1_555
As4 O16 1.724954 1_555
As4 O15 1.724954 1_555
As4 O4 1.788383 1_555
As5 O9 1.704994 1_555
As5 O17 1.724954 1_555
As5 O14 1.724954 1_555
As5 O5 1.788383 1_555
As6 O10 1.704994 1_555
As6 O18 1.724954 1_555
As6 O13 1.724954 1_555
As6 O6 1.788383 1_555
As7 O11 1.704994 1_555
As7 O12 1.724954 1_555
As7 O19 1.724954 1_555
As7 O7 1.788383 1_555
