# generated using pymatgen
data_NbTc5Te8
_symmetry_space_group_name_H-M   'P 1'
_cell_length_a   7.14869457
_cell_length_b   7.15541483
_cell_length_c   7.12846723
_cell_angle_alpha   93.65962191
_cell_angle_beta   94.47526696
_cell_angle_gamma   93.75540250
_symmetry_Int_Tables_number   1
_chemical_formula_structural   NbTc5Te8
_chemical_formula_sum   'Nb1 Tc5 Te8'
_cell_volume   361.87009747
_cell_formula_units_Z   1
loop_
 _symmetry_equiv_pos_site_id
 _symmetry_equiv_pos_as_xyz
  1  'x, y, z'
loop_
 _atom_site_type_symbol
 _atom_site_label
 _atom_site_symmetry_multiplicity
 _atom_site_fract_x
 _atom_site_fract_y
 _atom_site_fract_z
 _atom_site_occupancy
  Nb  Nb0  1  0.91122401  0.04399984  0.74575813  1
  Tc  Tc0  1  0.74926033  0.91031915  0.04231665  1
  Tc  Tc1  1  0.05068342  0.75258341  0.91477175  1
  Tc  Tc2  1  0.08549511  0.95618824  0.24997055  1
  Tc  Tc3  1  0.25033749  0.09062625  0.95680845  1
  Tc  Tc4  1  0.95044761  0.25239896  0.08619010  1
  Te  Te0  1  0.71135759  0.69751452  0.71569345  1
  Te  Te1  1  0.28290419  0.28795921  0.28863996  1
  Te  Te2  1  0.77351329  0.11812003  0.36800961  1
  Te  Te3  1  0.38138883  0.78151901  0.12342501  1
  Te  Te4  1  0.11891690  0.38887290  0.78184081  1
  Te  Te5  1  0.23943162  0.87776985  0.62201816  1
  Te  Te6  1  0.61158320  0.22129337  0.88264981  1
  Te  Te7  1  0.88345743  0.62083526  0.22190857  1
loop_
_geom_bond_atom_site_label_1
_geom_bond_atom_site_label_2
_geom_bond_distance
_geom_bond_site_symmetry_2
Nb0 Tc1 2.683122 1_645
Nb0 Tc0 2.686932 1_546
Nb0 Tc3 2.740871 1_655
Nb0 Tc4 2.751087 1_556
Nb0 Te0 2.766655 1_545
Nb0 Te6 2.770213 1_555
Nb0 Te4 2.782015 1_655
Nb0 Te5 2.872692 1_645
Nb0 Te2 2.887636 1_555
Tc0 Te2 2.663439 1_565
Tc0 Te0 2.684780 1_554
Tc0 Tc1 2.690154 1_654
Tc0 Te7 2.693890 1_555
Tc0 Tc2 2.712148 1_655
Tc0 Tc4 2.743827 1_565
Tc0 Te6 2.766006 1_564
Tc0 Te3 2.843826 1_555
Tc1 Te3 2.681791 1_556
Tc1 Tc2 2.703558 1_556
Tc1 Te0 2.705470 1_455
Tc1 Tc3 2.714064 1_565
Tc1 Te5 2.738218 1_555
Tc1 Te7 2.763268 1_456
Tc1 Te4 2.798655 1_555
Tc2 Te1 2.668352 1_565
Tc2 Tc3 2.678378 1_564
Tc2 Tc4 2.682434 1_465
Tc2 Te7 2.706235 1_455
Tc2 Te3 2.711139 1_555
Tc2 Te2 2.744369 1_465
Tc2 Te5 2.893963 1_555
Tc3 Te1 2.662314 1_556
Tc3 Tc4 2.698864 1_456
Tc3 Te4 2.722521 1_555
Tc3 Te5 2.740950 1_545
Tc3 Te3 2.759261 1_546
Tc3 Te6 2.789707 1_555
Tc4 Te2 2.653794 1_555
Tc4 Te1 2.671043 1_655
Tc4 Te6 2.713408 1_554
Tc4 Te4 2.763170 1_654
Tc4 Te7 2.833296 1_555
