# generated using pymatgen
data_Sc10Si5Ge
_symmetry_space_group_name_H-M   'P 1'
_cell_length_a   7.90537129
_cell_length_b   7.90376851
_cell_length_c   5.85738127
_cell_angle_alpha   90.00000000
_cell_angle_beta   90.00000000
_cell_angle_gamma   120.00672089
_symmetry_Int_Tables_number   1
_chemical_formula_structural   Sc10Si5Ge
_chemical_formula_sum   'Sc10 Si5 Ge1'
_cell_volume   316.92842606
_cell_formula_units_Z   1
loop_
 _symmetry_equiv_pos_site_id
 _symmetry_equiv_pos_as_xyz
  1  'x, y, z'
loop_
 _atom_site_type_symbol
 _atom_site_label
 _atom_site_symmetry_multiplicity
 _atom_site_fract_x
 _atom_site_fract_y
 _atom_site_fract_z
 _atom_site_occupancy
  Sc  Sc0  1  0.33321296  0.66546868  0.00099585  1
  Sc  Sc1  1  0.66774528  0.33453132  0.49900415  1
  Sc  Sc2  1  0.66774528  0.33453132  0.00099585  1
  Sc  Sc3  1  0.33321296  0.66546868  0.49900415  1
  Sc  Sc4  1  0.24146612  1.00000000  0.25000000  1
  Sc  Sc5  1  0.24127626  0.24290229  0.75000000  1
  Sc  Sc6  1  0.99837397  0.75709771  0.75000000  1
  Sc  Sc7  1  0.99980861  0.24161316  0.25000000  1
  Sc  Sc8  1  0.75819545  0.75838684  0.25000000  1
  Sc  Sc9  1  0.75938329  0.00000000  0.75000000  1
  Si  Si0  1  0.60616917  1.00000000  0.25000000  1
  Si  Si1  1  0.60523701  0.60538077  0.75000000  1
  Si  Si2  1  0.99985624  0.39461923  0.75000000  1
  Si  Si3  1  0.00020143  0.60574685  0.25000000  1
  Si  Si4  1  0.39445558  0.39425315  0.25000000  1
  Ge  Ge0  1  0.39365838  0.00000000  0.75000000  1
loop_
_geom_bond_atom_site_label_1
_geom_bond_atom_site_label_2
_geom_bond_distance
_geom_bond_site_symmetry_2
Sc0 Si4 2.827511 1_555
Sc0 Si1 2.834240 1_554
Sc0 Si3 2.835074 1_555
Sc0 Si2 2.836613 1_454
Sc0 Si0 2.840410 1_555
Sc1 Si3 2.827502 1_655
Sc1 Si2 2.834233 1_555
Sc1 Si4 2.835074 1_555
Sc1 Si1 2.836618 1_555
Sc1 Si0 2.840408 1_545
Sc2 Si3 2.827502 1_655
Sc2 Si2 2.834233 1_554
Sc2 Si4 2.835074 1_555
Sc2 Si1 2.836618 1_554
Sc2 Si0 2.840408 1_545
Sc3 Si4 2.827511 1_555
Sc3 Si1 2.834240 1_555
Sc3 Si3 2.835074 1_555
Sc3 Si2 2.836613 1_455
Sc3 Si0 2.840410 1_555
Sc4 Si4 2.720892 1_565
Sc4 Si3 2.720893 1_555
Sc4 Si0 2.883113 1_555
Sc5 Si2 2.714662 1_455
Sc5 Si1 2.870824 1_555
Sc5 Si4 3.166343 1_555
Sc5 Si4 3.166343 1_556
Sc6 Si1 2.714661 1_555
Sc6 Si2 2.870824 1_555
Sc6 Si3 3.166341 1_656
Sc6 Si3 3.166341 1_655
Sc7 Si0 2.717847 1_545
Sc7 Si4 2.724737 1_655
Sc7 Si3 2.876477 1_655
Sc7 Si2 3.168476 1_555
Sc7 Si2 3.168476 1_554
Sc8 Si0 2.717848 1_555
Sc8 Si3 2.724731 1_655
Sc8 Si4 2.876472 1_555
Sc8 Si1 3.168476 1_554
Sc8 Si1 3.168476 1_555
Sc9 Si2 2.722401 1_555
Sc9 Si1 2.722401 1_545
Sc9 Si0 3.169270 1_546
Sc9 Si0 3.169270 1_545
Ge0 Sc6 2.729493 1_445
Ge0 Sc5 2.729493 1_555
Ge0 Sc0 2.849052 1_546
Ge0 Sc3 2.849052 1_545
Ge0 Sc2 2.849054 1_556
Ge0 Sc1 2.849054 1_555
Ge0 Sc9 2.891191 1_555
Ge0 Sc4 3.166191 1_546
Ge0 Sc4 3.166191 1_545
