# generated using pymatgen
data_Y5FeRuO12
_symmetry_space_group_name_H-M   'P 1'
_cell_length_a   6.75421894
_cell_length_b   6.75421739
_cell_length_c   7.23955834
_cell_angle_alpha   74.31099703
_cell_angle_beta   74.31100082
_cell_angle_gamma   50.28849574
_symmetry_Int_Tables_number   1
_chemical_formula_structural   Y5FeRuO12
_chemical_formula_sum   'Y5 Fe1 Ru1 O12'
_cell_volume   242.46269454
_cell_formula_units_Z   1
loop_
 _symmetry_equiv_pos_site_id
 _symmetry_equiv_pos_as_xyz
  1  'x, y, z'
loop_
 _atom_site_type_symbol
 _atom_site_label
 _atom_site_symmetry_multiplicity
 _atom_site_fract_x
 _atom_site_fract_y
 _atom_site_fract_z
 _atom_site_occupancy
  Y  Y0  1  0.68856055  0.69227324  0.66869542  1
  Y  Y1  1  0.69087342  0.70029414  0.14178063  1
  Y  Y2  1  0.00319426  0.99680574  0.00000000  1
  Y  Y3  1  0.29970586  0.30912658  0.85821937  1
  Y  Y4  1  0.30772676  0.31143945  0.33130458  1
  Fe  Fe0  1  0.24345387  0.75654613  0.50000000  1
  Ru  Ru0  1  0.76749537  0.23250463  0.50000000  1
  O  O0  1  0.40225395  0.90496217  0.92515907  1
  O  O1  1  0.57599143  0.09433451  0.58073528  1
  O  O2  1  0.90566549  0.42400857  0.41926472  1
  O  O3  1  0.09503783  0.59774605  0.07484093  1
  O  O4  1  0.01076128  0.99039923  0.31502846  1
  O  O5  1  0.49615058  0.50271706  0.67816822  1
  O  O6  1  0.90047847  0.40436872  0.92401224  1
  O  O7  1  0.09890174  0.58876484  0.57849952  1
  O  O8  1  0.41123516  0.90109826  0.42150048  1
  O  O9  1  0.59563128  0.09952153  0.07598776  1
  O  O10  1  0.49728294  0.50384942  0.32183178  1
  O  O11  1  0.00960077  0.98923872  0.68497154  1
loop_
_geom_bond_atom_site_label_1
_geom_bond_atom_site_label_2
_geom_bond_distance
_geom_bond_site_symmetry_2
Fe0 O7 1.823692 1_555
Fe0 O8 1.823692 1_555
Fe0 O4 1.892169 1_555
Fe0 O11 1.892169 1_555
Fe0 O5 1.942053 1_555
Fe0 O10 1.942053 1_555
O0 Y2 2.280047 1_556
O0 Y0 2.280644 1_555
O0 Y1 2.282082 1_556
O0 Y3 2.283954 1_565
O1 Ru0 1.929816 1_555
O1 Y0 2.246403 1_545
O1 Y4 2.374109 1_555
O1 Y3 2.389944 1_555
O2 Ru0 1.929815 1_555
O2 Y4 2.246404 1_655
O2 Y0 2.374109 1_555
O2 Y1 2.389944 1_555
O3 Y2 2.280046 1_555
O3 Y4 2.280644 1_555
O3 Y3 2.282082 1_554
O3 Y1 2.283955 1_455
O4 Ru0 1.930776 1_465
O4 Y2 2.283149 1_555
O5 Ru0 2.018406 1_555
O5 Y0 2.315869 1_555
O5 Y3 2.351390 1_555
O6 Y3 2.272923 1_655
O6 Y0 2.275272 1_555
O6 Y2 2.304058 1_646
O6 Y1 2.316461 1_556
O7 Y0 2.321354 1_455
O7 Y3 2.377201 1_555
O7 Y4 2.402572 1_555
O8 Y4 2.321353 1_565
O8 Y1 2.377201 1_555
O8 Y0 2.402572 1_555
O9 Y1 2.272922 1_545
O9 Y4 2.275273 1_555
O9 Y2 2.304059 1_645
O9 Y3 2.316461 1_554
O10 Ru0 2.018406 1_555
O10 Y4 2.315869 1_555
O10 Y1 2.351390 1_555
O11 Ru0 1.930776 1_465
O11 Y2 2.283149 1_556
