# generated using pymatgen
data_Y2B4IrOs3
_symmetry_space_group_name_H-M   'P 1'
_cell_length_a   6.68677063
_cell_length_b   5.94713679
_cell_length_c   5.55893105
_cell_angle_alpha   70.97171050
_cell_angle_beta   57.22366425
_cell_angle_gamma   51.93751600
_symmetry_Int_Tables_number   1
_chemical_formula_structural   Y2B4IrOs3
_chemical_formula_sum   'Y2 B4 Ir1 Os3'
_cell_volume   146.33069613
_cell_formula_units_Z   1
loop_
 _symmetry_equiv_pos_site_id
 _symmetry_equiv_pos_as_xyz
  1  'x, y, z'
loop_
 _atom_site_type_symbol
 _atom_site_label
 _atom_site_symmetry_multiplicity
 _atom_site_fract_x
 _atom_site_fract_y
 _atom_site_fract_z
 _atom_site_occupancy
  Y  Y0  1  0.74714736  0.74714736  0.75285264  1
  Y  Y1  1  0.49938863  0.49938863  0.50061137  1
  B  B0  1  0.06446394  0.44134249  0.05276258  1
  B  B1  1  0.81435359  0.18354793  0.81556551  1
  B  B2  1  0.44134249  0.06446394  0.44143099  1
  B  B3  1  0.18354793  0.81435359  0.18653397  1
  Ir  Ir0  1  0.11276586  0.11276586  0.38723414  1
  Os  Os0  1  0.38733020  0.38733020  0.11266980  1
  Os  Os1  1  0.13778352  0.13778352  0.86221648  1
  Os  Os2  1  0.86187647  0.86187647  0.13812353  1
loop_
_geom_bond_atom_site_label_1
_geom_bond_atom_site_label_2
_geom_bond_distance
_geom_bond_site_symmetry_2
B0 Os1 2.052989 1_554
B0 Os2 2.053168 1_455
B0 Os0 2.174549 1_555
B0 Ir0 2.209672 1_555
B0 Y0 2.771999 1_454
B0 Y1 2.979963 1_554
B0 Y1 3.059637 1_455
B1 Os0 2.069294 1_556
B1 Ir0 2.074118 1_655
B1 Os2 2.146250 1_546
B1 Os1 2.157323 1_655
B1 Y1 2.828297 1_555
B1 Y0 3.018022 1_555
B1 Y0 3.042527 1_545
B2 Os1 2.052989 1_555
B2 Os2 2.053168 1_545
B2 Os0 2.174549 1_555
B2 Ir0 2.209672 1_555
B2 Y0 2.771999 1_545
B2 Y1 2.979963 1_555
B2 Y1 3.059637 1_545
B3 Os0 2.069295 1_555
B3 Ir0 2.074114 1_565
B3 Os2 2.146254 1_455
B3 Os1 2.157326 1_564
B3 Y1 2.828293 1_555
B3 Y0 3.018023 1_554
B3 Y0 3.042525 1_455
Ir0 Y1 3.004029 1_545
Ir0 Y1 3.004029 1_455
Os0 Y1 2.993111 1_554
Os0 Y1 2.993111 1_555
Os1 Y0 2.989380 1_455
Os1 Y0 2.989380 1_545
Os2 Y0 3.003032 1_555
Os2 Y0 3.003032 1_554
