# generated using pymatgen
data_VAu2
_symmetry_space_group_name_H-M   'P 1'
_cell_length_a   4.98246253
_cell_length_b   4.98246253
_cell_length_c   4.81207900
_cell_angle_alpha   90.00000000
_cell_angle_beta   90.00000000
_cell_angle_gamma   121.92608900
_symmetry_Int_Tables_number   1
_chemical_formula_structural   VAu2
_chemical_formula_sum   'V2 Au4'
_cell_volume   101.38901111
_cell_formula_units_Z   2
loop_
 _symmetry_equiv_pos_site_id
 _symmetry_equiv_pos_as_xyz
  1  'x, y, z'
loop_
 _atom_site_type_symbol
 _atom_site_label
 _atom_site_symmetry_multiplicity
 _atom_site_fract_x
 _atom_site_fract_y
 _atom_site_fract_z
 _atom_site_occupancy
  V  V0  1  0.78165600  0.78165600  0.25000000  1
  V  V1  1  0.21834400  0.21834400  0.75000000  1
  Au  Au0  1  0.44031300  0.11744400  0.25000000  1
  Au  Au1  1  0.11744400  0.44031300  0.25000000  1
  Au  Au2  1  0.55968700  0.88255600  0.75000000  1
  Au  Au3  1  0.88255600  0.55968700  0.75000000  1
loop_
_geom_bond_atom_site_label_1
_geom_bond_atom_site_label_2
_geom_bond_distance
_geom_bond_site_symmetry_2
Au0 V0 2.786008 1_445
Au0 V1 2.802310 1_555
Au0 V1 2.802310 1_554
Au0 V0 2.809234 1_555
Au0 V0 2.949749 1_545
Au1 V0 2.786008 1_445
Au1 V1 2.802310 1_555
Au1 V1 2.802310 1_554
Au1 V0 2.809234 1_555
Au1 V0 2.949749 1_455
Au2 V1 2.786008 1_665
Au2 V0 2.802310 1_556
Au2 V0 2.802310 1_555
Au2 V1 2.809234 1_555
Au2 V1 2.949749 1_565
Au3 V1 2.786008 1_665
Au3 V0 2.802310 1_556
Au3 V0 2.802310 1_555
Au3 V1 2.809234 1_555
Au3 V1 2.949749 1_655
