# generated using pymatgen
data_Cs2Ge(WO4)3
_symmetry_space_group_name_H-M   'P 1'
_cell_length_a   7.12434162
_cell_length_b   7.12434172
_cell_length_c   7.12434184
_cell_angle_alpha   61.45213162
_cell_angle_beta   61.45212904
_cell_angle_gamma   61.45213309
_symmetry_Int_Tables_number   1
_chemical_formula_structural   Cs2Ge(WO4)3
_chemical_formula_sum   'Cs2 Ge1 W3 O12'
_cell_volume   264.03075759
_cell_formula_units_Z   1
loop_
 _symmetry_equiv_pos_site_id
 _symmetry_equiv_pos_as_xyz
  1  'x, y, z'
loop_
 _atom_site_type_symbol
 _atom_site_label
 _atom_site_symmetry_multiplicity
 _atom_site_fract_x
 _atom_site_fract_y
 _atom_site_fract_z
 _atom_site_occupancy
  Cs  Cs0  1  0.62968341  0.62968341  0.62968341  1
  Cs  Cs1  1  0.37031659  0.37031659  0.37031659  1
  Ge  Ge0  1  0.00000000  0.00000000  0.00000000  1
  W  W0  1  0.50000000  0.00000000  0.00000000  1
  W  W1  1  0.00000000  0.00000000  0.50000000  1
  W  W2  1  0.00000000  0.50000000  0.00000000  1
  O  O0  1  0.94397549  0.31397536  0.31397536  1
  O  O1  1  0.30584599  0.94186711  0.94186711  1
  O  O2  1  0.31397536  0.31397536  0.94397549  1
  O  O3  1  0.94186711  0.94186711  0.30584599  1
  O  O4  1  0.94186711  0.30584599  0.94186711  1
  O  O5  1  0.31397536  0.94397549  0.31397536  1
  O  O6  1  0.05602451  0.68602464  0.68602464  1
  O  O7  1  0.69415401  0.05813289  0.05813289  1
  O  O8  1  0.68602464  0.68602464  0.05602451  1
  O  O9  1  0.05813289  0.05813289  0.69415401  1
  O  O10  1  0.05813289  0.69415401  0.05813289  1
  O  O11  1  0.68602464  0.05602451  0.68602464  1
loop_
_geom_bond_atom_site_label_1
_geom_bond_atom_site_label_2
_geom_bond_distance
_geom_bond_site_symmetry_2
Cs0 O3 3.183584 1_555
Cs0 O1 3.183584 1_555
Cs0 O4 3.183584 1_555
Cs0 O2 3.215538 1_555
Cs0 O0 3.215538 1_555
Cs0 O5 3.215538 1_555
Cs1 O9 3.183584 1_555
Cs1 O7 3.183584 1_555
Cs1 O10 3.183584 1_555
Cs1 O8 3.215538 1_555
Cs1 O6 3.215538 1_555
Cs1 O11 3.215538 1_555
Ge0 O1 1.878767 1_544
Ge0 O7 1.878767 1_455
Ge0 O3 1.878767 1_445
Ge0 O9 1.878767 1_554
Ge0 O4 1.878767 1_454
Ge0 O10 1.878767 1_545
O0 W2 1.933419 1_655
O0 W1 1.933419 1_655
O1 W0 1.874935 1_566
O2 W2 1.933419 1_556
O2 W0 1.933419 1_556
O3 W1 1.874935 1_665
O4 W2 1.874935 1_656
O5 W1 1.933419 1_565
O5 W0 1.933419 1_565
O6 W2 1.933419 1_556
O6 W1 1.933419 1_565
O7 W0 1.874935 1_555
O8 W2 1.933419 1_655
O8 W0 1.933419 1_565
O9 W1 1.874935 1_555
O10 W2 1.874935 1_555
O11 W1 1.933419 1_655
O11 W0 1.933419 1_556
