# generated using pymatgen
data_Zr10Zn2HgBi5
_symmetry_space_group_name_H-M   'P 1'
_cell_length_a   8.79105282
_cell_length_b   8.80514213
_cell_length_c   5.89064581
_cell_angle_alpha   90.00000000
_cell_angle_beta   90.00000000
_cell_angle_gamma   119.94708990
_symmetry_Int_Tables_number   1
_chemical_formula_structural   Zr10Zn2HgBi5
_chemical_formula_sum   'Zr10 Zn2 Hg1 Bi5'
_cell_volume   395.09551781
_cell_formula_units_Z   1
loop_
 _symmetry_equiv_pos_site_id
 _symmetry_equiv_pos_as_xyz
  1  'x, y, z'
loop_
 _atom_site_type_symbol
 _atom_site_label
 _atom_site_symmetry_multiplicity
 _atom_site_fract_x
 _atom_site_fract_y
 _atom_site_fract_z
 _atom_site_occupancy
  Zr  Zr0  1  0.72844785  0.00000000  0.25000000  1
  Zr  Zr1  1  0.00776312  0.73908807  0.25000000  1
  Zr  Zr2  1  0.26867605  0.26091193  0.25000000  1
  Zr  Zr3  1  0.26326414  1.00000000  0.75000000  1
  Zr  Zr4  1  0.99857939  0.26384580  0.75000000  1
  Zr  Zr5  1  0.73473258  0.73615420  0.75000000  1
  Zr  Zr6  1  0.33369186  0.66742801  0.49803667  1
  Zr  Zr7  1  0.66626485  0.33257199  0.49803667  1
  Zr  Zr8  1  0.66626485  0.33257199  0.00196333  1
  Zr  Zr9  1  0.33369186  0.66742801  0.00196333  1
  Zn  Zn0  1  0.99938049  0.00000000  0.49562352  1
  Zn  Zn1  1  0.99938049  0.00000000  0.00437648  1
  Hg  Hg0  1  0.38526112  1.00000000  0.25000000  1
  Bi  Bi0  1  0.00154887  0.38413822  0.25000000  1
  Bi  Bi1  1  0.61741065  0.61586178  0.25000000  1
  Bi  Bi2  1  0.60974272  1.00000000  0.75000000  1
  Bi  Bi3  1  0.00052966  0.61516119  0.75000000  1
  Bi  Bi4  1  0.38536747  0.38483881  0.75000000  1
loop_
_geom_bond_atom_site_label_1
_geom_bond_atom_site_label_2
_geom_bond_distance
_geom_bond_site_symmetry_2
Zr6 Zr9 2.922192 1_555
Zr6 Zr9 2.968453 1_556
Zr7 Zr8 2.922192 1_555
Zr7 Zr8 2.968453 1_556
Zn0 Zr1 2.746965 1_645
Zn0 Zr2 2.746969 1_655
Zn0 Zr3 2.761679 1_645
Zn0 Zr4 2.767484 1_555
Zn0 Zr5 2.767488 1_545
Zn0 Zr0 2.786818 1_555
Zn1 Zr1 2.746965 1_645
Zn1 Zr2 2.746969 1_655
Zn1 Zr3 2.761679 1_644
Zn1 Zr4 2.767484 1_554
Zn1 Zr5 2.767488 1_544
Zn1 Zr0 2.786818 1_555
Hg0 Zr2 2.946038 1_565
Hg0 Zr1 2.946044 1_555
Hg0 Zr0 3.016973 1_565
Hg0 Zr6 3.096787 1_555
Hg0 Zr9 3.096787 1_555
Hg0 Zr7 3.096789 1_565
Hg0 Zr8 3.096789 1_565
Hg0 Zr3 3.134509 1_554
Hg0 Zr3 3.134509 1_555
Bi0 Zr0 3.016127 1_455
Bi0 Zr2 3.039054 1_555
Bi0 Zr1 3.098474 1_555
Bi0 Zr6 3.100141 1_555
Bi0 Zr9 3.100141 1_555
Bi0 Zr7 3.113286 1_455
Bi0 Zr8 3.113286 1_455
Bi0 Zr4 3.125682 1_455
Bi0 Zr4 3.125682 1_454
Bi1 Zr0 3.016128 1_565
Bi1 Zr1 3.039045 1_655
Bi1 Zr2 3.098470 1_555
Bi1 Zr7 3.100146 1_555
Bi1 Zr8 3.100146 1_555
Bi1 Zr6 3.113294 1_555
Bi1 Zr9 3.113294 1_555
Bi1 Zr5 3.125681 1_555
Bi1 Zr5 3.125681 1_554
Bi2 Zr5 3.025431 1_555
Bi2 Zr4 3.025437 1_565
Bi2 Zr3 3.045911 1_555
Bi2 Zr8 3.093912 1_566
Bi2 Zr7 3.093912 1_565
Bi2 Zr9 3.093914 1_556
Bi2 Zr6 3.093914 1_555
Bi2 Zr0 3.124725 1_566
Bi2 Zr0 3.124725 1_565
Bi3 Zr3 3.000506 1_555
Bi3 Zr5 3.013343 1_455
Bi3 Zr4 3.084859 1_455
Bi3 Zr9 3.105982 1_556
Bi3 Zr6 3.105982 1_555
Bi3 Zr8 3.119164 1_456
Bi3 Zr7 3.119164 1_455
Bi3 Zr1 3.130559 1_556
Bi3 Zr1 3.130559 1_555
Bi4 Zr3 3.000508 1_545
Bi4 Zr4 3.013326 1_455
Bi4 Zr5 3.084859 1_555
Bi4 Zr8 3.105997 1_556
Bi4 Zr7 3.105997 1_555
Bi4 Zr9 3.119164 1_556
Bi4 Zr6 3.119164 1_555
Bi4 Zr2 3.130556 1_556
Bi4 Zr2 3.130556 1_555
