# generated using pymatgen
data_Sr4CdSi6Pd
_symmetry_space_group_name_H-M   'P 1'
_cell_length_a   11.86846344
_cell_length_b   10.26497881
_cell_length_c   8.42235945
_cell_angle_alpha   78.16872072
_cell_angle_beta   57.83392416
_cell_angle_gamma   43.99624789
_symmetry_Int_Tables_number   1
_chemical_formula_structural   Sr4CdSi6Pd
_chemical_formula_sum   'Sr8 Cd2 Si12 Pd2'
_cell_volume   575.04224769
_cell_formula_units_Z   2
loop_
 _symmetry_equiv_pos_site_id
 _symmetry_equiv_pos_as_xyz
  1  'x, y, z'
loop_
 _atom_site_type_symbol
 _atom_site_label
 _atom_site_symmetry_multiplicity
 _atom_site_fract_x
 _atom_site_fract_y
 _atom_site_fract_z
 _atom_site_occupancy
  Sr  Sr0  1  0.11560379  0.13301927  0.88041275  1
  Sr  Sr1  1  0.88041685  0.87095591  0.11558537  1
  Sr  Sr2  1  0.11695442  0.13441025  0.37903759  1
  Sr  Sr3  1  0.37906924  0.36955307  0.11693156  1
  Sr  Sr4  1  0.63177044  0.61721216  0.37185949  1
  Sr  Sr5  1  0.37188948  0.37913904  0.63176301  1
  Sr  Sr6  1  0.63279075  0.61823705  0.87085532  1
  Sr  Sr7  1  0.87085438  0.87812090  0.63279495  1
  Cd  Cd0  1  0.16756295  0.83243087  0.16751798  1
  Cd  Cd1  1  0.41749410  0.08247913  0.41761786  1
  Si  Si0  1  0.92094954  0.58550142  0.41042079  1
  Si  Si1  1  0.06373088  0.43799723  0.59264975  1
  Si  Si2  1  0.41040889  0.08309700  0.92101143  1
  Si  Si3  1  0.59267834  0.90560915  0.06376538  1
  Si  Si4  1  0.34434656  0.65735478  0.81199486  1
  Si  Si5  1  0.66451917  0.32902651  0.16683785  1
  Si  Si6  1  0.81200328  0.18629235  0.34436915  1
  Si  Si7  1  0.16683061  0.83967246  0.66450668  1
  Si  Si8  1  0.91837309  0.58163012  0.91831548  1
  Si  Si9  1  0.59368157  0.90631857  0.59374957  1
  Si  Si10  1  0.34371973  0.65628745  0.34369970  1
  Si  Si11  1  0.66830043  0.33171138  0.66828194  1
  Pd  Pd0  1  0.08305771  0.41694130  0.08304296  1
  Pd  Pd1  1  0.83299581  0.16701062  0.83297258  1
loop_
_geom_bond_atom_site_label_1
_geom_bond_atom_site_label_2
_geom_bond_distance
_geom_bond_site_symmetry_2
Cd0 Si10 2.570276 1_555
Cd0 Si4 2.586541 1_554
Cd0 Si6 2.587010 1_465
Cd0 Sr0 3.396851 1_564
Cd0 Sr1 3.396943 1_455
Cd0 Sr2 3.404357 1_565
Cd0 Sr3 3.404365 1_555
Cd0 Sr6 3.414826 1_554
Cd0 Sr7 3.414870 1_455
Cd1 Si9 2.570135 1_545
Cd1 Si1 2.586507 1_555
Cd1 Si3 2.586727 1_545
Cd1 Sr2 3.397081 1_555
Cd1 Sr3 3.397226 1_555
Cd1 Sr0 3.403613 1_555
Cd1 Sr1 3.404638 1_545
Cd1 Sr5 3.414760 1_555
Cd1 Sr4 3.414946 1_545
Si0 Si9 2.368883 1_555
Si0 Si1 2.375822 1_655
Si0 Sr3 3.344027 1_655
Si0 Sr1 3.353186 1_555
Si0 Sr2 3.357322 1_655
Si0 Sr7 3.381641 1_555
Si0 Sr4 3.395136 1_555
Si0 Sr6 3.406954 1_555
Si1 Si8 2.373555 1_455
Si1 Sr6 3.236536 1_455
Si1 Sr7 3.269254 1_455
Si1 Sr2 3.406466 1_555
Si1 Sr0 3.429006 1_555
Si1 Sr5 3.445559 1_555
Si1 Sr3 3.458155 1_555
Si2 Si9 2.368512 1_545
Si2 Si3 2.375954 1_546
Si2 Sr2 3.343261 1_556
Si2 Sr0 3.353207 1_555
Si2 Sr3 3.357095 1_556
Si2 Sr6 3.381349 1_545
Si2 Sr5 3.395558 1_555
Si2 Sr7 3.407347 1_545
Si3 Si8 2.373923 1_554
Si3 Sr7 3.236495 1_554
Si3 Sr6 3.269469 1_554
Si3 Sr3 3.406254 1_565
Si3 Sr1 3.428539 1_555
Si3 Sr4 3.445033 1_555
Si3 Sr2 3.458418 1_565
Si4 Si7 2.375840 1_555
Si4 Sr5 3.236249 1_555
Si4 Sr4 3.269238 1_555
Si4 Sr1 3.406094 1_456
Si4 Sr3 3.428943 1_556
Si4 Sr6 3.445895 1_555
Si4 Sr0 3.458206 1_565
Si5 Si6 2.375885 1_555
Si5 Sr1 3.343841 1_545
Si5 Sr3 3.353214 1_555
Si5 Sr0 3.357182 1_654
Si5 Sr5 3.381605 1_555
Si5 Sr6 3.394992 1_554
Si5 Sr4 3.407287 1_555
Si6 Sr4 3.236448 1_555
Si6 Sr5 3.269210 1_555
Si6 Sr0 3.406079 1_654
Si6 Sr2 3.428764 1_655
Si6 Sr7 3.445636 1_545
Si6 Sr1 3.458350 1_545
Si7 Sr0 3.343326 1_565
Si7 Sr2 3.352680 1_565
Si7 Sr1 3.357219 1_456
Si7 Sr4 3.381712 1_555
Si7 Sr7 3.395259 1_455
Si7 Sr5 3.407902 1_555
Si8 Sr0 3.329447 1_655
Si8 Sr1 3.329483 1_556
Si8 Sr4 3.353394 1_556
Si8 Sr5 3.353425 1_655
Si8 Sr7 3.367040 1_555
Si8 Sr6 3.367146 1_555
Si9 Sr6 3.279588 1_555
Si9 Sr7 3.279688 1_555
Si9 Sr5 3.456324 1_565
Si9 Sr4 3.456661 1_555
Si9 Sr0 3.487041 1_565
Si9 Sr1 3.487304 1_555
Si10 Si5 2.368796 1_555
Si10 Si7 2.368860 1_555
Si10 Sr4 3.279657 1_555
Si10 Sr5 3.279712 1_555
Si10 Sr6 3.456178 1_554
Si10 Sr7 3.456500 1_455
Si10 Sr2 3.487277 1_565
Si10 Sr3 3.487446 1_555
Si11 Si6 2.373276 1_555
Si11 Si4 2.373652 1_555
Si11 Sr3 3.329460 1_556
Si11 Sr2 3.329483 1_655
Si11 Sr6 3.353771 1_555
Si11 Sr7 3.353932 1_545
Si11 Sr4 3.366564 1_555
Si11 Sr5 3.366610 1_555
Pd0 Si8 2.403030 1_454
Pd0 Si0 2.411720 1_455
Pd0 Si2 2.411843 1_554
Pd0 Sr5 3.341577 1_554
Pd0 Sr4 3.341713 1_455
Pd0 Sr2 3.348463 1_555
Pd0 Sr3 3.348525 1_555
Pd0 Sr0 3.357644 1_554
Pd0 Sr1 3.357754 1_455
Pd1 Si11 2.402840 1_555
Pd1 Si7 2.411760 1_645
Pd1 Si5 2.411944 1_556
Pd1 Sr7 3.341368 1_545
Pd1 Sr6 3.341492 1_555
Pd1 Sr1 3.349213 1_546
Pd1 Sr0 3.349251 1_655
Pd1 Sr2 3.357041 1_655
Pd1 Sr3 3.357256 1_556
