# generated using pymatgen
data_Ba2TcH6
_symmetry_space_group_name_H-M   'P 1'
_cell_length_a   5.75775816
_cell_length_b   5.75775713
_cell_length_c   5.75775730
_cell_angle_alpha   59.99999331
_cell_angle_beta   59.99999919
_cell_angle_gamma   59.99999358
_symmetry_Int_Tables_number   1
_chemical_formula_structural   Ba2TcH6
_chemical_formula_sum   'Ba2 Tc1 H6'
_cell_volume   134.97243175
_cell_formula_units_Z   1
loop_
 _symmetry_equiv_pos_site_id
 _symmetry_equiv_pos_as_xyz
  1  'x, y, z'
loop_
 _atom_site_type_symbol
 _atom_site_label
 _atom_site_symmetry_multiplicity
 _atom_site_fract_x
 _atom_site_fract_y
 _atom_site_fract_z
 _atom_site_occupancy
  Ba  Ba0  1  0.75000000  0.75000000  0.75000000  1
  Ba  Ba1  1  0.25000000  0.25000000  0.25000000  1
  Tc  Tc0  1  0.00000000  0.00000000  0.00000000  1
  H  H0  1  0.78040305  0.78040305  0.21959695  1
  H  H1  1  0.21959695  0.78040305  0.21959695  1
  H  H2  1  0.78040305  0.21959695  0.21959695  1
  H  H3  1  0.21959695  0.21959695  0.78040305  1
  H  H4  1  0.78040305  0.21959695  0.78040305  1
  H  H5  1  0.21959695  0.78040305  0.78040305  1
loop_
_geom_bond_atom_site_label_1
_geom_bond_atom_site_label_2
_geom_bond_distance
_geom_bond_site_symmetry_2
Ba0 H2 2.889503 1_556
Ba0 H2 2.889503 1_565
Ba0 H3 2.889503 1_655
Ba0 H4 2.889503 1_555
Ba0 H3 2.889503 1_565
Ba0 H4 2.889503 1_565
Ba0 H0 2.889503 1_555
Ba0 H0 2.889503 1_556
Ba0 H1 2.889503 1_655
Ba0 H1 2.889504 1_556
Ba0 H5 2.889504 1_655
Ba0 H5 2.889504 1_555
Ba1 H5 2.889503 1_554
Ba1 H5 2.889503 1_545
Ba1 H0 2.889503 1_455
Ba1 H1 2.889503 1_555
Ba1 H0 2.889503 1_545
Ba1 H1 2.889503 1_545
Ba1 H3 2.889503 1_555
Ba1 H3 2.889503 1_554
Ba1 H4 2.889503 1_455
Ba1 H4 2.889504 1_554
Ba1 H2 2.889504 1_455
Ba1 H2 2.889504 1_555
H0 Tc0 1.788112 1_665
H1 Tc0 1.788112 1_565
H2 Tc0 1.788112 1_655
H3 Tc0 1.788112 1_556
H4 Tc0 1.788112 1_656
H5 Tc0 1.788112 1_566
