# generated using pymatgen
data_Sc2Nb(Ni10B3)2
_symmetry_space_group_name_H-M   'P 1'
_cell_length_a   7.45558976
_cell_length_b   7.45558935
_cell_length_c   7.45558884
_cell_angle_alpha   59.99999795
_cell_angle_beta   59.99999974
_cell_angle_gamma   59.99999803
_symmetry_Int_Tables_number   1
_chemical_formula_structural   Sc2Nb(Ni10B3)2
_chemical_formula_sum   'Sc2 Nb1 Ni20 B6'
_cell_volume   293.04270874
_cell_formula_units_Z   1
loop_
 _symmetry_equiv_pos_site_id
 _symmetry_equiv_pos_as_xyz
  1  'x, y, z'
loop_
 _atom_site_type_symbol
 _atom_site_label
 _atom_site_symmetry_multiplicity
 _atom_site_fract_x
 _atom_site_fract_y
 _atom_site_fract_z
 _atom_site_occupancy
  Sc  Sc0  1  0.25000000  0.25000000  0.25000000  1
  Sc  Sc1  1  0.75000000  0.75000000  0.75000000  1
  Nb  Nb0  1  0.00000000  0.00000000  0.00000000  1
  Ni  Ni0  1  0.38570888  0.38570888  0.38570888  1
  Ni  Ni1  1  0.61429112  0.61429112  0.61429112  1
  Ni  Ni2  1  0.38570888  0.38570888  0.84287235  1
  Ni  Ni3  1  0.38570888  0.84287235  0.38570888  1
  Ni  Ni4  1  0.61429112  0.61429112  0.15712765  1
  Ni  Ni5  1  0.61429112  0.15712765  0.61429112  1
  Ni  Ni6  1  0.84287235  0.38570888  0.38570888  1
  Ni  Ni7  1  0.15712765  0.61429112  0.61429112  1
  Ni  Ni8  1  0.34246367  0.00000000  0.00000000  1
  Ni  Ni9  1  0.65753633  0.00000000  1.00000000  1
  Ni  Ni10  1  0.00000000  0.34246367  0.65753633  1
  Ni  Ni11  1  0.00000000  0.65753633  0.34246367  1
  Ni  Ni12  1  1.00000000  0.34246367  0.00000000  1
  Ni  Ni13  1  0.65753633  0.00000000  0.34246367  1
  Ni  Ni14  1  0.00000000  0.65753633  0.00000000  1
  Ni  Ni15  1  0.34246367  0.00000000  0.65753633  1
  Ni  Ni16  1  1.00000000  1.00000000  0.34246367  1
  Ni  Ni17  1  0.00000000  0.00000000  0.65753633  1
  Ni  Ni18  1  0.65753633  0.34246367  0.00000000  1
  Ni  Ni19  1  0.34246367  0.65753633  0.00000000  1
  B  B0  1  0.73119724  0.26880276  0.26880276  1
  B  B1  1  0.26880276  0.73119724  0.73119724  1
  B  B2  1  0.26880276  0.73119724  0.26880276  1
  B  B3  1  0.73119724  0.26880276  0.73119724  1
  B  B4  1  0.26880276  0.26880276  0.73119724  1
  B  B5  1  0.73119724  0.73119724  0.26880276  1
loop_
_geom_bond_atom_site_label_1
_geom_bond_atom_site_label_2
_geom_bond_distance
_geom_bond_site_symmetry_2
Nb0 Ni16 2.553268 1_445
Nb0 Ni17 2.553268 1_554
Nb0 Ni10 2.553268 1_554
Nb0 Ni11 2.553268 1_545
Nb0 Ni13 2.553268 1_455
Nb0 Ni15 2.553268 1_554
Nb0 Ni18 2.553268 1_455
Nb0 Ni19 2.553268 1_545
Nb0 Ni12 2.553269 1_455
Nb0 Ni14 2.553269 1_545
Nb0 Ni8 2.553269 1_555
Nb0 Ni9 2.553269 1_454
Ni0 Sc0 2.478368 1_555
Ni1 Sc1 2.478368 1_555
Ni2 Sc0 2.478374 1_556
Ni3 Sc0 2.478374 1_565
Ni4 Sc1 2.478374 1_554
Ni5 Sc1 2.478374 1_545
Ni6 Sc0 2.478375 1_655
Ni7 Sc1 2.478375 1_455
Ni8 Sc0 2.885782 1_555
Ni8 Sc1 2.885782 1_544
Ni9 Sc1 2.885782 1_545
Ni9 Sc0 2.885782 1_556
Ni10 Sc0 2.885782 1_555
Ni10 Sc1 2.885782 1_455
Ni11 Sc1 2.885782 1_455
Ni11 Sc0 2.885782 1_555
Ni12 Sc1 2.885782 1_554
Ni12 Sc0 2.885782 1_655
Ni13 Sc1 2.885782 1_545
Ni13 Sc0 2.885782 1_555
Ni14 Sc0 2.885782 1_555
Ni14 Sc1 2.885782 1_454
Ni15 Sc0 2.885782 1_555
Ni15 Sc1 2.885782 1_545
Ni16 Sc1 2.885782 1_555
Ni16 Sc0 2.885782 1_665
Ni17 Sc0 2.885782 1_555
Ni17 Sc1 2.885782 1_445
Ni18 Sc1 2.885782 1_554
Ni18 Sc0 2.885782 1_555
Ni19 Sc0 2.885782 1_555
Ni19 Sc1 2.885782 1_554
B0 Ni18 2.077968 1_555
B0 Ni16 2.077969 1_545
B0 Ni12 2.077969 1_555
B0 Ni13 2.077969 1_555
B0 Ni6 2.103262 1_555
B0 Ni5 2.103268 1_555
B0 Ni4 2.103268 1_555
B0 Ni0 2.103268 1_555
B1 Ni19 2.077968 1_556
B1 Ni17 2.077969 1_565
B1 Ni14 2.077969 1_556
B1 Ni15 2.077969 1_565
B1 Ni7 2.103262 1_555
B1 Ni3 2.103268 1_555
B1 Ni2 2.103268 1_555
B1 Ni1 2.103268 1_555
B2 Ni19 2.077968 1_555
B2 Ni8 2.077968 1_565
B2 Ni16 2.077969 1_455
B2 Ni11 2.077969 1_555
B2 Ni3 2.103262 1_555
B2 Ni7 2.103268 1_555
B2 Ni0 2.103268 1_555
B2 Ni4 2.103268 1_555
B3 Ni18 2.077968 1_556
B3 Ni9 2.077968 1_555
B3 Ni17 2.077969 1_655
B3 Ni10 2.077969 1_655
B3 Ni5 2.103262 1_555
B3 Ni6 2.103268 1_555
B3 Ni1 2.103268 1_555
B3 Ni2 2.103268 1_555
B4 Ni8 2.077968 1_556
B4 Ni12 2.077968 1_456
B4 Ni15 2.077969 1_555
B4 Ni10 2.077969 1_555
B4 Ni2 2.103262 1_555
B4 Ni0 2.103268 1_555
B4 Ni7 2.103268 1_555
B4 Ni5 2.103268 1_555
B5 Ni9 2.077968 1_564
B5 Ni14 2.077968 1_655
B5 Ni13 2.077969 1_565
B5 Ni11 2.077969 1_655
B5 Ni4 2.103262 1_555
B5 Ni1 2.103268 1_555
B5 Ni6 2.103268 1_555
B5 Ni3 2.103268 1_555
