# generated using pymatgen
data_Ti16Pd5Rh3O4
_symmetry_space_group_name_H-M   'P 1'
_cell_length_a   8.22707634
_cell_length_b   8.23588669
_cell_length_c   8.23588716
_cell_angle_alpha   60.00000208
_cell_angle_beta   59.96457075
_cell_angle_gamma   59.96457059
_symmetry_Int_Tables_number   1
_chemical_formula_structural   Ti16Pd5Rh3O4
_chemical_formula_sum   'Ti16 Pd5 Rh3 O4'
_cell_volume   394.38329203
_cell_formula_units_Z   1
loop_
 _symmetry_equiv_pos_site_id
 _symmetry_equiv_pos_as_xyz
  1  'x, y, z'
loop_
 _atom_site_type_symbol
 _atom_site_label
 _atom_site_symmetry_multiplicity
 _atom_site_fract_x
 _atom_site_fract_y
 _atom_site_fract_z
 _atom_site_occupancy
  Ti  Ti0  1  0.11051741  0.62982720  0.62982720  1
  Ti  Ti1  1  0.63019663  0.11726348  0.62627094  1
  Ti  Ti2  1  0.63019663  0.62627094  0.11726348  1
  Ti  Ti3  1  0.63019663  0.62627094  0.62627094  1
  Ti  Ti4  1  0.81888995  0.81833839  0.18138583  1
  Ti  Ti5  1  0.17695262  0.18429183  0.81937778  1
  Ti  Ti6  1  0.81888995  0.18138583  0.81833839  1
  Ti  Ti7  1  0.17695262  0.81937778  0.18429183  1
  Ti  Ti8  1  0.17695262  0.81937778  0.81937778  1
  Ti  Ti9  1  0.81888995  0.18138583  0.18138583  1
  Ti  Ti10  1  0.42910801  0.42946742  0.07071179  1
  Ti  Ti11  1  0.07041570  0.06756024  0.43101253  1
  Ti  Ti12  1  0.42910801  0.07071179  0.42946742  1
  Ti  Ti13  1  0.07041570  0.43101253  0.06756024  1
  Ti  Ti14  1  0.07041570  0.43101253  0.43101253  1
  Ti  Ti15  1  0.42910801  0.07071179  0.07071179  1
  Pd  Pd0  1  0.77175648  0.40941417  0.40941417  1
  Pd  Pd1  1  0.41104575  0.76254462  0.41320432  1
  Pd  Pd2  1  0.41104575  0.41320432  0.76254462  1
  Pd  Pd3  1  0.41104575  0.41320432  0.41320432  1
  Pd  Pd4  1  0.47600915  0.84133062  0.84133062  1
  Rh  Rh0  1  0.84371729  0.46809316  0.84409478  1
  Rh  Rh1  1  0.84371729  0.84409478  0.46809316  1
  Rh  Rh2  1  0.84371729  0.84409478  0.84409478  1
  O  O0  1  0.62351236  0.12549521  0.12549521  1
  O  O1  1  0.12574025  0.62326195  0.12549890  1
  O  O2  1  0.12574025  0.12549890  0.62326195  1
  O  O3  1  0.12574025  0.12549890  0.12549890  1
loop_
_geom_bond_atom_site_label_1
_geom_bond_atom_site_label_2
_geom_bond_distance
_geom_bond_site_symmetry_2
Pd0 Ti1 2.600232 1_555
Pd0 Ti2 2.600232 1_555
Pd0 Ti3 2.600252 1_555
Pd0 Ti11 2.647123 1_655
Pd0 Ti13 2.647123 1_655
Pd0 Ti14 2.647132 1_655
Pd1 Ti2 2.600307 1_555
Pd1 Ti3 2.600326 1_555
Pd1 Ti0 2.613489 1_555
Pd1 Ti11 2.663653 1_565
Pd1 Ti12 2.686828 1_565
Pd1 Ti15 2.686828 1_565
Pd2 Ti1 2.600306 1_555
Pd2 Ti3 2.600326 1_555
Pd2 Ti0 2.613489 1_555
Pd2 Ti13 2.663653 1_556
Pd2 Ti10 2.686828 1_556
Pd2 Ti15 2.686828 1_556
Pd3 Ti2 2.600320 1_555
Pd3 Ti1 2.600320 1_555
Pd3 Ti0 2.613489 1_555
Pd3 Ti14 2.663645 1_555
Pd3 Ti12 2.686828 1_555
Pd3 Ti10 2.686828 1_555
Pd4 Ti3 2.553868 1_555
Pd4 Ti1 2.553874 1_565
Pd4 Ti2 2.553874 1_556
Pd4 Ti5 2.653685 1_565
Pd4 Ti7 2.653685 1_556
Pd4 Ti8 2.653689 1_555
Rh0 Ti0 2.530821 1_655
Rh0 Ti5 2.554028 1_655
Rh0 Ti3 2.555008 1_555
Rh0 Ti2 2.555021 1_556
Rh0 Ti6 2.586406 1_555
Rh0 Ti9 2.586406 1_556
Rh1 Ti0 2.530821 1_655
Rh1 Ti7 2.554028 1_655
Rh1 Ti3 2.555008 1_555
Rh1 Ti1 2.555021 1_565
Rh1 Ti4 2.586406 1_555
Rh1 Ti9 2.586406 1_565
Rh2 Ti0 2.530826 1_655
Rh2 Ti8 2.554028 1_655
Rh2 Ti2 2.555011 1_556
Rh2 Ti1 2.555011 1_565
Rh2 Ti6 2.586406 1_565
Rh2 Ti4 2.586406 1_556
O0 Ti15 2.147912 1_555
O0 Ti10 2.147918 1_555
O0 Ti12 2.147918 1_555
O0 Ti4 2.168102 1_545
O0 Ti6 2.168102 1_554
O0 Ti9 2.168114 1_555
O1 Ti10 2.141314 1_555
O1 Ti13 2.153195 1_555
O1 Ti14 2.153201 1_555
O1 Ti4 2.163829 1_455
O1 Ti7 2.165268 1_555
O1 Ti8 2.165268 1_554
O2 Ti12 2.141314 1_555
O2 Ti11 2.153195 1_555
O2 Ti14 2.153201 1_555
O2 Ti6 2.163829 1_455
O2 Ti5 2.165268 1_555
O2 Ti8 2.165268 1_545
O3 Ti15 2.141311 1_555
O3 Ti13 2.153203 1_555
O3 Ti11 2.153203 1_555
O3 Ti9 2.163829 1_455
O3 Ti7 2.165268 1_545
O3 Ti5 2.165268 1_554
