# generated using pymatgen
data_BaGe6(Sb3Pt2)2
_symmetry_space_group_name_H-M   'P 1'
_cell_length_a   7.87305715
_cell_length_b   7.88784065
_cell_length_c   7.87305779
_cell_angle_alpha   109.43863452
_cell_angle_beta   109.54155069
_cell_angle_gamma   109.35773297
_symmetry_Int_Tables_number   1
_chemical_formula_structural   BaGe6(Sb3Pt2)2
_chemical_formula_sum   'Ba1 Ge6 Sb6 Pt4'
_cell_volume   376.72769198
_cell_formula_units_Z   1
loop_
 _symmetry_equiv_pos_site_id
 _symmetry_equiv_pos_as_xyz
  1  'x, y, z'
loop_
 _atom_site_type_symbol
 _atom_site_label
 _atom_site_symmetry_multiplicity
 _atom_site_fract_x
 _atom_site_fract_y
 _atom_site_fract_z
 _atom_site_occupancy
  Ba  Ba0  1  0.01072677  0.00181341  0.99108664  1
  Ge  Ge0  1  0.14537050  0.33994761  0.49121508  1
  Ge  Ge1  1  0.51663715  0.16356453  0.36125205  1
  Ge  Ge2  1  0.84873353  0.33994761  0.19457710  1
  Ge  Ge3  1  0.63714835  0.47774623  0.84059988  1
  Ge  Ge4  1  0.35690314  0.20404630  0.84714316  1
  Ge  Ge5  1  0.80231248  0.16356453  0.64692838  1
  Sb  Sb0  1  0.84001894  0.64030238  0.48624768  1
  Sb  Sb1  1  0.34220017  0.49097187  0.14877069  1
  Sb  Sb2  1  0.19831393  0.85838896  0.34785231  1
  Sb  Sb3  1  0.15405370  0.64030238  0.80028344  1
  Sb  Sb4  1  0.65759891  0.80782091  0.15022201  1
  Sb  Sb5  1  0.51053564  0.85838896  0.66007503  1
  Pt  Pt0  1  0.00626377  0.01795106  0.51787176  1
  Pt  Pt1  1  0.49260637  0.48864511  0.50814876  1
  Pt  Pt2  1  0.98049634  0.48864511  0.99603874  1
  Pt  Pt3  1  0.50007930  0.01795106  0.01168828  1
loop_
_geom_bond_atom_site_label_1
_geom_bond_atom_site_label_2
_geom_bond_distance
_geom_bond_site_symmetry_2
Ba0 Sb1 3.347867 1_556
Ba0 Ge4 3.412396 1_555
Ba0 Sb2 3.434840 1_546
Ba0 Sb5 3.434846 1_445
Ba0 Sb3 3.475233 1_545
Ba0 Sb0 3.475239 1_445
Ba0 Ge2 3.476327 1_456
Ba0 Ge0 3.476333 1_556
Ba0 Ge5 3.518040 1_455
Ba0 Ge1 3.518046 1_556
Ba0 Sb4 3.525150 1_446
Ba0 Ge3 3.673046 1_445
Ge0 Pt0 2.521684 1_555
Ge0 Pt1 2.528556 1_555
Ge0 Ge2 2.694397 1_455
Ge0 Sb3 2.735477 1_555
Ge1 Pt1 2.538213 1_555
Ge1 Pt3 2.543075 1_555
Ge1 Ge5 2.594831 1_555
Ge1 Sb2 2.782322 1_545
Ge2 Pt3 2.521690 1_555
Ge2 Pt2 2.528553 1_554
Ge2 Sb0 2.735477 1_555
Ge3 Pt2 2.524907 1_555
Ge3 Pt1 2.524923 1_555
Ge3 Ge4 2.554199 1_555
Ge3 Sb4 2.825246 1_556
Ge4 Pt0 2.547410 1_555
Ge4 Pt3 2.547414 1_556
Ge4 Sb1 2.748679 1_556
Ge5 Pt2 2.538209 1_555
Ge5 Pt0 2.543086 1_655
Ge5 Sb5 2.782321 1_545
Sb0 Sb3 2.852423 1_655
Sb1 Sb4 2.874073 1_555
Sb2 Sb5 2.835955 1_555
Pt0 Sb4 2.671305 1_445
Pt0 Sb2 2.675122 1_545
Pt0 Sb0 2.711496 1_445
Pt1 Sb1 2.686200 1_555
Pt1 Sb0 2.688078 1_555
Pt1 Sb5 2.692345 1_555
Pt2 Sb1 2.686192 1_656
Pt2 Sb3 2.688073 1_655
Pt2 Sb2 2.692341 1_656
Pt3 Sb4 2.671301 1_545
Pt3 Sb5 2.675125 1_544
Pt3 Sb3 2.711499 1_544
