# generated using pymatgen
data_CsP2RuO8
_symmetry_space_group_name_H-M   'P 1'
_cell_length_a   4.83574040
_cell_length_b   4.83574081
_cell_length_c   9.13025092
_cell_angle_alpha   89.99997693
_cell_angle_beta   89.99995944
_cell_angle_gamma   120.00020478
_symmetry_Int_Tables_number   1
_chemical_formula_structural   CsP2RuO8
_chemical_formula_sum   'Cs1 P2 Ru1 O8'
_cell_volume   184.90065151
_cell_formula_units_Z   1
loop_
 _symmetry_equiv_pos_site_id
 _symmetry_equiv_pos_as_xyz
  1  'x, y, z'
loop_
 _atom_site_type_symbol
 _atom_site_label
 _atom_site_symmetry_multiplicity
 _atom_site_fract_x
 _atom_site_fract_y
 _atom_site_fract_z
 _atom_site_occupancy
  Cs  Cs0  1  0.00000000  0.00000000  0.00000000  1
  P  P0  1  0.33333200  0.66666600  0.68553558  1
  P  P1  1  0.66666800  0.33333400  0.31446442  1
  Ru  Ru0  1  0.00000000  0.00000000  0.50000000  1
  O  O0  1  0.66666900  0.33333400  0.15228188  1
  O  O1  1  0.65119976  0.94467983  0.62378470  1
  O  O2  1  0.29348107  0.34880224  0.62378470  1
  O  O3  1  0.33333100  0.66666600  0.84771812  1
  O  O4  1  0.70651893  0.65119776  0.37621530  1
  O  O5  1  0.34880024  0.05532017  0.37621530  1
  O  O6  1  0.94468083  0.29348107  0.37621530  1
  O  O7  1  0.05531917  0.70651893  0.62378470  1
loop_
_geom_bond_atom_site_label_1
_geom_bond_atom_site_label_2
_geom_bond_distance
_geom_bond_site_symmetry_2
Cs0 O3 3.118954 1_554
Cs0 O0 3.118954 1_445
Cs0 O0 3.118959 1_455
Cs0 O3 3.118959 1_544
Cs0 O0 3.118968 1_555
Cs0 O3 3.118968 1_444
O0 P1 1.480767 1_555
O1 P0 1.556122 1_555
O1 Ru0 1.934591 1_665
O2 P0 1.556114 1_555
O2 Ru0 1.934596 1_555
O3 P0 1.480767 1_555
O4 P1 1.556114 1_555
O4 Ru0 1.934596 1_665
O5 P1 1.556122 1_555
O5 Ru0 1.934591 1_555
O6 P1 1.556120 1_555
O6 Ru0 1.934594 1_655
O7 P0 1.556120 1_555
O7 Ru0 1.934594 1_565
