# generated using pymatgen
data_CaAl2GaAg
_symmetry_space_group_name_H-M   'P 1'
_cell_length_a   6.53620765
_cell_length_b   6.53620773
_cell_length_c   6.53620733
_cell_angle_alpha   143.17806143
_cell_angle_beta   143.17805959
_cell_angle_gamma   53.05816966
_symmetry_Int_Tables_number   1
_chemical_formula_structural   CaAl2GaAg
_chemical_formula_sum   'Ca1 Al2 Ga1 Ag1'
_cell_volume   99.68444235
_cell_formula_units_Z   1
loop_
 _symmetry_equiv_pos_site_id
 _symmetry_equiv_pos_as_xyz
  1  'x, y, z'
loop_
 _atom_site_type_symbol
 _atom_site_label
 _atom_site_symmetry_multiplicity
 _atom_site_fract_x
 _atom_site_fract_y
 _atom_site_fract_z
 _atom_site_occupancy
  Ca  Ca0  1  0.00531120  0.00531120  1.00000000  1
  Al  Al0  1  0.74808856  0.24808856  0.50000000  1
  Al  Al1  1  0.24808856  0.74808856  0.50000000  1
  Ga  Ga0  1  0.61000803  0.61000803  1.00000000  1
  Ag  Ag0  1  0.38850464  0.38850464  0.00000000  1
loop_
_geom_bond_atom_site_label_1
_geom_bond_atom_site_label_2
_geom_bond_distance
_geom_bond_site_symmetry_2
Ca0 Ga0 3.165824 1_444
Ca0 Ga0 3.165824 1_545
Ca0 Ga0 3.165824 1_455
Ca0 Ga0 3.165824 1_556
Al0 Ga0 2.621005 1_555
Al0 Ga0 2.621005 1_544
Al1 Ga0 2.621005 1_555
Al1 Ga0 2.621005 1_454
Ag0 Ga0 2.590702 1_554
Ag0 Al1 2.637924 1_555
Ag0 Al0 2.637924 1_555
Ag0 Al1 2.637925 1_544
Ag0 Al0 2.637925 1_454
Ag0 Ca0 3.223255 1_553
Ag0 Ca0 3.223255 1_654
Ag0 Ca0 3.223255 1_564
Ag0 Ca0 3.223255 1_665
