# generated using pymatgen
data_MgZr(TcSn4)2
_symmetry_space_group_name_H-M   'P 1'
_cell_length_a   7.45206366
_cell_length_b   7.45206373
_cell_length_c   7.45206350
_cell_angle_alpha   125.32237721
_cell_angle_beta   125.32239126
_cell_angle_gamma   81.00473709
_symmetry_Int_Tables_number   1
_chemical_formula_structural   MgZr(TcSn4)2
_chemical_formula_sum   'Mg1 Zr1 Tc2 Sn8'
_cell_volume   265.47320050
_cell_formula_units_Z   1
loop_
 _symmetry_equiv_pos_site_id
 _symmetry_equiv_pos_as_xyz
  1  'x, y, z'
loop_
 _atom_site_type_symbol
 _atom_site_label
 _atom_site_symmetry_multiplicity
 _atom_site_fract_x
 _atom_site_fract_y
 _atom_site_fract_z
 _atom_site_occupancy
  Mg  Mg0  1  0.50000000  0.50000000  0.00000000  1
  Zr  Zr0  1  0.00000000  0.00000000  0.00000000  1
  Tc  Tc0  1  0.74757730  0.74757730  1.00000000  1
  Tc  Tc1  1  0.25242270  0.25242270  0.00000000  1
  Sn  Sn0  1  0.70549129  0.51374839  0.50058870  1
  Sn  Sn1  1  0.51374839  0.01315969  0.80825710  1
  Sn  Sn2  1  0.20490259  0.70549129  0.19174290  1
  Sn  Sn3  1  0.79509741  0.29450871  0.80825710  1
  Sn  Sn4  1  0.48625161  0.98684031  0.19174290  1
  Sn  Sn5  1  0.29450871  0.48625161  0.49941130  1
  Sn  Sn6  1  0.98684031  0.79509741  0.50058870  1
  Sn  Sn7  1  0.01315969  0.20490259  0.49941130  1
loop_
_geom_bond_atom_site_label_1
_geom_bond_atom_site_label_2
_geom_bond_distance
_geom_bond_site_symmetry_2
Mg0 Tc0 2.805741 1_554
Mg0 Tc1 2.805741 1_555
Mg0 Sn6 3.045148 1_555
Mg0 Sn7 3.045148 1_554
Mg0 Sn0 3.045148 1_555
Mg0 Sn5 3.045148 1_554
Mg0 Sn3 3.045148 1_554
Mg0 Sn2 3.045148 1_555
Mg0 Sn4 3.045148 1_555
Mg0 Sn1 3.045148 1_554
Tc0 Zr0 2.860653 1_666
Tc1 Zr0 2.860653 1_555
Sn0 Tc1 2.863405 1_555
Sn0 Tc0 2.882287 1_555
Sn0 Sn7 2.983911 1_655
Sn0 Zr0 3.040616 1_666
Sn0 Sn5 3.095980 1_555
Sn0 Sn6 3.188469 1_555
Sn0 Sn3 3.254531 1_555
Sn0 Sn4 3.254532 1_545
Sn1 Tc1 2.863406 1_556
Sn1 Tc0 2.882287 1_545
Sn1 Sn2 2.983911 1_545
Sn1 Zr0 3.040616 1_656
Sn1 Sn4 3.095980 1_546
Sn1 Sn3 3.188469 1_555
Sn1 Sn6 3.254531 1_445
Sn1 Sn5 3.254532 1_545
Sn2 Tc1 2.863406 1_555
Sn2 Tc0 2.882287 1_454
Sn2 Zr0 3.040616 1_565
Sn2 Sn3 3.095980 1_454
Sn2 Sn4 3.188469 1_555
Sn2 Sn5 3.254531 1_555
Sn2 Sn6 3.254532 1_455
Sn3 Tc0 2.863406 1_555
Sn3 Tc1 2.882287 1_656
Sn3 Sn4 2.983911 1_545
Sn3 Zr0 3.040616 1_656
Sn3 Sn7 3.254532 1_655
Sn4 Tc0 2.863406 1_554
Sn4 Tc1 2.882287 1_565
Sn4 Zr0 3.040616 1_565
Sn4 Sn7 3.254531 1_665
Sn5 Tc0 2.863405 1_555
Sn5 Tc1 2.882287 1_555
Sn5 Sn6 2.983911 1_455
Sn5 Zr0 3.040616 1_555
Sn5 Sn7 3.188469 1_555
Sn6 Tc0 2.863405 1_554
Sn6 Tc1 2.882287 1_666
Sn6 Zr0 3.040616 1_666
Sn6 Sn7 3.095980 1_665
Sn7 Tc1 2.863405 1_556
Sn7 Tc0 2.882287 1_444
Sn7 Zr0 3.040616 1_555
