# generated using pymatgen
data_Hf3Tc(SeO3)8
_symmetry_space_group_name_H-M   'P 1'
_cell_length_a   8.40600647
_cell_length_b   8.40600578
_cell_length_c   8.40600538
_cell_angle_alpha   90.30668654
_cell_angle_beta   89.69331490
_cell_angle_gamma   90.30668541
_symmetry_Int_Tables_number   1
_chemical_formula_structural   Hf3Tc(SeO3)8
_chemical_formula_sum   'Hf3 Tc1 Se8 O24'
_cell_volume   593.95079607
_cell_formula_units_Z   1
loop_
 _symmetry_equiv_pos_site_id
 _symmetry_equiv_pos_as_xyz
  1  'x, y, z'
loop_
 _atom_site_type_symbol
 _atom_site_label
 _atom_site_symmetry_multiplicity
 _atom_site_fract_x
 _atom_site_fract_y
 _atom_site_fract_z
 _atom_site_occupancy
  Hf  Hf0  1  0.50000000  0.50000000  0.00000000  1
  Hf  Hf1  1  0.50000000  0.00000000  0.50000000  1
  Hf  Hf2  1  0.00000000  0.00000000  0.00000000  1
  Tc  Tc0  1  0.00000000  0.50000000  0.50000000  1
  Se  Se0  1  0.83143803  0.19964031  0.68132850  1
  Se  Se1  1  0.16856197  0.80035969  0.31867150  1
  Se  Se2  1  0.69964031  0.68132850  0.66856197  1
  Se  Se3  1  0.18132850  0.66856197  0.80035969  1
  Se  Se4  1  0.31855648  0.18144352  0.81855648  1
  Se  Se5  1  0.81867150  0.33143803  0.19964031  1
  Se  Se6  1  0.68144352  0.81855648  0.18144352  1
  Se  Se7  1  0.30035969  0.31867150  0.33143803  1
  O  O0  1  0.23221113  0.46233388  0.46230834  1
  O  O1  1  0.93341207  0.22255905  0.07467025  1
  O  O2  1  0.03769166  0.73221113  0.46233388  1
  O  O3  1  0.47152902  0.27016498  0.91772319  1
  O  O4  1  0.27744095  0.92532975  0.43341207  1
  O  O5  1  0.57467025  0.56658793  0.77744095  1
  O  O6  1  0.95263524  0.06526981  0.76958282  1
  O  O7  1  0.52847098  0.72983502  0.08227681  1
  O  O8  1  0.58227681  0.97152902  0.27016498  1
  O  O9  1  0.41772319  0.02847098  0.72983502  1
  O  O10  1  0.77016498  0.91772319  0.02847098  1
  O  O11  1  0.26958282  0.54736476  0.93473019  1
  O  O12  1  0.03766612  0.53769166  0.73221113  1
  O  O13  1  0.04736476  0.93473019  0.23041718  1
  O  O14  1  0.22983502  0.08227681  0.97152902  1
  O  O15  1  0.42532975  0.43341207  0.22255905  1
  O  O16  1  0.76778887  0.53766612  0.53769166  1
  O  O17  1  0.96233388  0.46230834  0.26778887  1
  O  O18  1  0.06658793  0.77744095  0.92532975  1
  O  O19  1  0.43473019  0.23041718  0.45263524  1
  O  O20  1  0.56526981  0.76958282  0.54736476  1
  O  O21  1  0.96230834  0.26778887  0.53766612  1
  O  O22  1  0.72255905  0.07467025  0.56658793  1
  O  O23  1  0.73041718  0.45263524  0.06526981  1
loop_
_geom_bond_atom_site_label_1
_geom_bond_atom_site_label_2
_geom_bond_distance
_geom_bond_site_symmetry_2
Hf0 O15 2.049922 1_555
Hf0 O5 2.049922 1_554
Hf0 O23 2.057439 1_555
Hf0 O11 2.057439 1_554
Hf0 O7 2.061731 1_555
Hf0 O3 2.061731 1_554
Hf1 O22 2.049922 1_555
Hf1 O4 2.049922 1_545
Hf1 O19 2.057439 1_555
Hf1 O20 2.057439 1_545
Hf1 O9 2.061731 1_555
Hf1 O8 2.061731 1_545
Hf2 O1 2.049922 1_455
Hf2 O18 2.049922 1_544
Hf2 O13 2.057439 1_545
Hf2 O6 2.057439 1_454
Hf2 O14 2.061731 1_554
Hf2 O10 2.061731 1_445
O0 Se7 1.727188 1_555
O0 Tc0 2.002433 1_555
O1 Se5 1.691094 1_555
O2 Se1 1.727188 1_555
O2 Tc0 2.002432 1_555
O3 Se4 1.702689 1_555
O4 Se1 1.691094 1_555
O5 Se2 1.691094 1_555
O6 Se0 1.701024 1_555
O7 Se6 1.702689 1_555
O8 Se6 1.702689 1_555
O9 Se4 1.702689 1_555
O10 Se6 1.702689 1_555
O11 Se3 1.701024 1_555
O12 Se3 1.727188 1_555
O12 Tc0 2.002432 1_555
O13 Se1 1.701024 1_555
O14 Se4 1.702689 1_555
O15 Se7 1.691094 1_555
O16 Se2 1.727188 1_555
O16 Tc0 2.002433 1_655
O17 Se5 1.727188 1_555
O17 Tc0 2.002432 1_655
O18 Se3 1.691094 1_555
O19 Se7 1.701024 1_555
O20 Se2 1.701024 1_555
O21 Se0 1.727188 1_555
O21 Tc0 2.002432 1_655
O22 Se0 1.691094 1_555
O23 Se5 1.701024 1_555
