# generated using pymatgen
data_Rb5V(MoH9)3
_symmetry_space_group_name_H-M   'P 1'
_cell_length_a   9.59564899
_cell_length_b   9.18227043
_cell_length_c   5.42491595
_cell_angle_alpha   90.00000000
_cell_angle_beta   90.00000000
_cell_angle_gamma   118.58489526
_symmetry_Int_Tables_number   1
_chemical_formula_structural   Rb5V(MoH9)3
_chemical_formula_sum   'Rb5 V1 Mo3 H27'
_cell_volume   419.72606968
_cell_formula_units_Z   1
loop_
 _symmetry_equiv_pos_site_id
 _symmetry_equiv_pos_as_xyz
  1  'x, y, z'
loop_
 _atom_site_type_symbol
 _atom_site_label
 _atom_site_symmetry_multiplicity
 _atom_site_fract_x
 _atom_site_fract_y
 _atom_site_fract_z
 _atom_site_occupancy
  Rb  Rb0  1  0.73241331  0.76445515  0.50000000  1
  Rb  Rb1  1  0.26758669  0.03204084  0.50000000  1
  Rb  Rb2  1  0.00000000  0.63747517  0.00000000  1
  Rb  Rb3  1  0.43396769  0.38832905  0.00000000  1
  Rb  Rb4  1  0.56603231  0.95436136  0.00000000  1
  V  V0  1  0.00000000  0.27891536  0.50000000  1
  Mo  Mo0  1  0.72919036  0.32505921  0.50000000  1
  Mo  Mo1  1  0.27080964  0.59586986  0.50000000  1
  Mo  Mo2  1  0.00000000  0.06610231  0.00000000  1
  H  H0  1  0.89494064  0.34733548  0.69582804  1
  H  H1  1  0.71635533  0.40855133  0.77096813  1
  H  H2  1  0.57676188  0.18868184  0.68649994  1
  H  H3  1  0.10505936  0.45239584  0.30417196  1
  H  H4  1  0.57676188  0.18868184  0.31350006  1
  H  H5  1  0.89494064  0.34733548  0.30417196  1
  H  H6  1  0.71635533  0.40855133  0.22903187  1
  H  H7  1  0.28364467  0.69219700  0.77096813  1
  H  H8  1  0.42323812  0.61192096  0.68649994  1
  H  H9  1  0.18186727  0.06915286  0.00000000  1
  H  H10  1  0.81813273  0.88728559  0.00000000  1
  H  H11  1  1.00000000  0.25224875  0.00000000  1
  H  H12  1  0.88265149  0.07761118  0.24613285  1
  H  H13  1  0.11734851  0.19495969  0.75386715  1
  H  H14  1  0.00000000  0.92533275  0.78217635  1
  H  H15  1  0.00000000  0.92533275  0.21782365  1
  H  H16  1  0.11734851  0.19495969  0.24613285  1
  H  H17  1  0.88265149  0.07761118  0.75386715  1
  H  H18  1  0.16423451  0.70214753  0.50000000  1
  H  H19  1  0.42211798  0.80168058  0.50000000  1
  H  H20  1  0.22729246  0.37835755  0.50000000  1
  H  H21  1  0.57788202  0.37956360  0.50000000  1
  H  H22  1  0.83576549  0.53791402  0.50000000  1
  H  H23  1  0.77270754  0.15106508  0.50000000  1
  H  H24  1  0.10505936  0.45239584  0.69582804  1
  H  H25  1  0.28364467  0.69219700  0.22903187  1
  H  H26  1  0.42323812  0.61192096  0.31350006  1
loop_
_geom_bond_atom_site_label_1
_geom_bond_atom_site_label_2
_geom_bond_distance
_geom_bond_site_symmetry_2
H0 V0 1.773597 1_655
H0 Mo0 1.840855 1_555
H0 Rb2 2.875194 1_656
H1 Mo0 1.689411 1_555
H1 Rb2 2.809894 1_656
H1 Rb3 2.905028 1_556
H2 Mo0 1.725807 1_555
H2 Rb4 2.705623 1_546
H2 Rb1 2.794750 1_555
H3 V0 1.773602 1_555
H3 Mo1 1.840855 1_555
H3 Rb2 2.875187 1_555
H4 Mo0 1.725807 1_555
H4 Rb4 2.705623 1_545
H4 Rb1 2.794750 1_555
H5 V0 1.773597 1_655
H5 Mo0 1.840855 1_555
H5 Rb2 2.875194 1_655
H6 Mo0 1.689411 1_555
H6 Rb2 2.809894 1_655
H6 Rb3 2.905028 1_555
H7 Mo1 1.689411 1_555
H7 Rb2 2.809892 1_556
H7 Rb4 2.905024 1_556
H8 Mo1 1.725808 1_555
H8 Rb3 2.705631 1_556
H8 Rb0 2.794750 1_555
H9 Mo2 1.731907 1_555
H9 Rb3 2.767121 1_555
H9 Rb1 2.901437 1_554
H9 Rb1 2.901437 1_555
H10 Mo2 1.731907 1_665
H10 Rb4 2.767122 1_555
H10 Rb0 2.901435 1_555
H10 Rb0 2.901435 1_554
H11 Mo2 1.709247 1_655
H12 Mo2 1.782102 1_655
H12 V0 2.142339 1_655
H12 Rb0 2.876908 1_545
H12 Rb4 3.000652 1_545
H13 Mo2 1.782101 1_556
H13 V0 2.142339 1_555
H13 Rb1 2.876916 1_555
H13 Rb3 3.000652 1_556
H14 Mo2 1.751322 1_566
H14 Rb0 2.736564 1_455
H14 Rb1 2.736565 1_565
H14 Rb2 2.895305 1_556
H15 Mo2 1.751322 1_565
H15 Rb0 2.736564 1_455
H15 Rb1 2.736565 1_565
H15 Rb2 2.895305 1_555
H16 Mo2 1.782101 1_555
H16 V0 2.142339 1_555
H16 Rb1 2.876916 1_555
H16 Rb3 3.000652 1_555
H17 Mo2 1.782102 1_656
H17 V0 2.142339 1_655
H17 Rb0 2.876908 1_545
H17 Rb4 3.000652 1_546
H18 Mo1 1.718470 1_555
H18 Rb1 2.699017 1_565
H18 Rb2 3.049281 1_556
H18 Rb2 3.049281 1_555
H19 Mo1 1.747508 1_555
H19 Rb4 3.062239 1_555
H19 Rb4 3.062239 1_556
H19 Rb1 3.110367 1_565
H19 Rb0 3.155338 1_555
H20 Mo1 1.834483 1_555
H20 V0 1.919608 1_555
H21 Mo0 1.747521 1_555
H21 Rb3 3.062237 1_555
H21 Rb3 3.062237 1_556
H21 Rb0 3.110366 1_555
H21 Rb1 3.155347 1_555
H22 Mo0 1.718486 1_555
H22 Rb0 2.699017 1_555
H22 Rb2 3.049280 1_655
H22 Rb2 3.049280 1_656
H23 Mo0 1.834474 1_555
H23 V0 1.919608 1_655
H24 V0 1.773602 1_555
H24 Mo1 1.840855 1_555
H24 Rb2 2.875187 1_556
H25 Mo1 1.689411 1_555
H25 Rb2 2.809892 1_555
H25 Rb4 2.905024 1_555
H26 Mo1 1.725808 1_555
H26 Rb3 2.705631 1_555
H26 Rb0 2.794750 1_555
