# generated using pymatgen
data_BeB2W5
_symmetry_space_group_name_H-M   'P 1'
_cell_length_a   6.91162674
_cell_length_b   6.91162669
_cell_length_c   6.91162689
_cell_angle_alpha   128.89276067
_cell_angle_beta   128.89275924
_cell_angle_gamma   75.18319070
_symmetry_Int_Tables_number   1
_chemical_formula_structural   BeB2W5
_chemical_formula_sum   'Be2 B4 W10'
_cell_volume   194.71737981
_cell_formula_units_Z   2
loop_
 _symmetry_equiv_pos_site_id
 _symmetry_equiv_pos_as_xyz
  1  'x, y, z'
loop_
 _atom_site_type_symbol
 _atom_site_label
 _atom_site_symmetry_multiplicity
 _atom_site_fract_x
 _atom_site_fract_y
 _atom_site_fract_z
 _atom_site_occupancy
  Be  Be0  1  0.75000000  0.75000000  0.00000000  1
  Be  Be1  1  0.25000000  0.25000000  0.00000000  1
  B  B0  1  0.37797059  0.87797059  0.25594319  1
  B  B1  1  0.87797059  0.62202941  0.50000000  1
  B  B2  1  0.62202941  0.12202941  0.74405681  1
  B  B3  1  0.12202941  0.37797059  0.50000000  1
  W  W0  1  0.00000000  0.00000000  0.00000000  1
  W  W1  1  0.80947112  0.97852355  0.50000000  1
  W  W2  1  0.30947112  0.80947112  0.83094757  1
  W  W3  1  0.19052888  0.02147645  0.50000000  1
  W  W4  1  0.52147645  0.69052888  0.50000000  1
  W  W5  1  0.02147645  0.52147645  0.83094757  1
  W  W6  1  0.69052888  0.19052888  0.16905243  1
  W  W7  1  0.97852355  0.47852355  0.16905243  1
  W  W8  1  0.50000000  0.50000000  0.00000000  1
  W  W9  1  0.47852355  0.30947112  0.50000000  1
loop_
_geom_bond_atom_site_label_1
_geom_bond_atom_site_label_2
_geom_bond_distance
_geom_bond_site_symmetry_2
Be0 W9 2.510064 1_554
Be0 W3 2.510064 1_665
Be0 W6 2.510064 1_565
Be0 W2 2.510064 1_554
Be0 W5 2.510064 1_654
Be0 W1 2.510064 1_555
Be0 W7 2.510064 1_555
Be0 W4 2.510064 1_554
Be0 W0 2.738314 1_665
Be0 W8 2.738314 1_555
Be1 W4 2.510064 1_555
Be1 W1 2.510064 1_444
Be1 W2 2.510064 1_544
Be1 W6 2.510064 1_555
Be1 W7 2.510064 1_455
Be1 W3 2.510064 1_554
Be1 W5 2.510064 1_554
Be1 W9 2.510064 1_555
Be1 W0 2.738314 1_555
Be1 W8 2.738314 1_555
B0 B2 2.058030 1_565
B0 W3 2.343840 1_565
B0 W4 2.343840 1_555
B0 W9 2.343854 1_565
B0 W1 2.343854 1_555
B0 W8 2.368291 1_555
B0 W0 2.368292 1_565
B0 W5 2.387169 1_554
B0 W2 2.387184 1_554
B1 B3 2.058047 1_655
B1 W6 2.343851 1_555
B1 W2 2.343851 1_655
B1 W7 2.343851 1_555
B1 W5 2.343851 1_655
B1 W0 2.368288 1_666
B1 W8 2.368288 1_555
B1 W1 2.387170 1_555
B1 W4 2.387170 1_555
B2 W1 2.343840 1_545
B2 W9 2.343840 1_555
B2 W4 2.343854 1_545
B2 W3 2.343854 1_555
B2 W8 2.368291 1_556
B2 W0 2.368292 1_656
B2 W7 2.387169 1_556
B2 W6 2.387184 1_556
B3 W2 2.343851 1_555
B3 W6 2.343851 1_455
B3 W5 2.343851 1_555
B3 W7 2.343851 1_455
B3 W0 2.368288 1_555
B3 W8 2.368288 1_556
B3 W3 2.387170 1_555
B3 W9 2.387170 1_555
