# generated using pymatgen
data_K3B2Pt6Au
_symmetry_space_group_name_H-M   'P 1'
_cell_length_a   8.36712885
_cell_length_b   8.36712840
_cell_length_c   8.36712723
_cell_angle_alpha   39.40690407
_cell_angle_beta   39.40690641
_cell_angle_gamma   39.40690567
_symmetry_Int_Tables_number   1
_chemical_formula_structural   K3B2Pt6Au
_chemical_formula_sum   'K3 B2 Pt6 Au1'
_cell_volume   212.46207228
_cell_formula_units_Z   1
loop_
 _symmetry_equiv_pos_site_id
 _symmetry_equiv_pos_as_xyz
  1  'x, y, z'
loop_
 _atom_site_type_symbol
 _atom_site_label
 _atom_site_symmetry_multiplicity
 _atom_site_fract_x
 _atom_site_fract_y
 _atom_site_fract_z
 _atom_site_occupancy
  K  K0  1  0.85827213  0.85827213  0.85827213  1
  K  K1  1  0.14172787  0.14172787  0.14172787  1
  K  K2  1  0.00000000  0.00000000  0.00000000  1
  B  B0  1  0.66874260  0.66874260  0.66874260  1
  B  B1  1  0.33125740  0.33125740  0.33125740  1
  Pt  Pt0  1  0.43940883  0.93291794  0.43940883  1
  Pt  Pt1  1  0.43940883  0.43940883  0.93291794  1
  Pt  Pt2  1  0.93291794  0.43940883  0.43940883  1
  Pt  Pt3  1  0.56059117  0.06708206  0.56059117  1
  Pt  Pt4  1  0.56059117  0.56059117  0.06708206  1
  Pt  Pt5  1  0.06708206  0.56059117  0.56059117  1
  Au  Au0  1  0.50000000  0.50000000  0.50000000  1
loop_
_geom_bond_atom_site_label_1
_geom_bond_atom_site_label_2
_geom_bond_distance
_geom_bond_site_symmetry_2
K0 K2 3.276899 1_666
K0 Pt2 3.360433 1_556
K0 Pt0 3.360433 1_556
K0 Pt1 3.360434 1_565
K0 Pt2 3.360434 1_565
K0 Pt1 3.360434 1_655
K0 Pt0 3.360434 1_655
K0 Pt5 3.405496 1_655
K0 Pt3 3.405496 1_565
K0 Pt4 3.405497 1_556
K1 K2 3.276899 1_555
K1 Pt5 3.360433 1_554
K1 Pt3 3.360433 1_554
K1 Pt4 3.360434 1_545
K1 Pt5 3.360434 1_545
K1 Pt4 3.360434 1_455
K1 Pt3 3.360434 1_455
K1 Pt2 3.405496 1_455
K1 Pt0 3.405496 1_545
K1 Pt1 3.405497 1_554
K2 Pt5 3.172338 1_545
K2 Pt2 3.172338 1_454
K2 Pt3 3.172338 1_455
K2 Pt0 3.172338 1_544
K2 Pt4 3.172339 1_455
K2 Pt1 3.172339 1_544
K2 Pt5 3.172339 1_554
K2 Pt2 3.172339 1_445
K2 Pt4 3.172339 1_545
K2 Pt1 3.172339 1_454
K2 Pt3 3.172339 1_554
K2 Pt0 3.172339 1_445
B0 Pt4 2.165706 1_556
B0 Pt3 2.165707 1_565
B0 Pt5 2.165707 1_655
B0 Pt2 2.197979 1_555
B0 Pt0 2.197979 1_555
B0 Pt1 2.197979 1_555
B0 K2 3.257757 1_665
B0 K2 3.257757 1_656
B0 K2 3.257757 1_566
B1 Pt1 2.165706 1_554
B1 Pt0 2.165707 1_545
B1 Pt2 2.165707 1_455
B1 Pt5 2.197979 1_555
B1 Pt3 2.197979 1_555
B1 Pt4 2.197979 1_555
B1 K2 3.257757 1_556
B1 K2 3.257757 1_565
B1 K2 3.257757 1_655
Au0 Pt1 2.890761 1_555
Au0 Pt4 2.890761 1_555
Au0 Pt0 2.890762 1_555
Au0 Pt3 2.890762 1_555
Au0 Pt2 2.890762 1_555
Au0 Pt5 2.890762 1_555
Au0 K0 3.308044 1_545
Au0 K1 3.308044 1_565
Au0 K0 3.308044 1_554
Au0 K1 3.308044 1_556
Au0 K0 3.308044 1_455
Au0 K1 3.308044 1_655
