# generated using pymatgen
data_SrRuO3
_symmetry_space_group_name_H-M   'P 1'
_cell_length_a   5.55479829
_cell_length_b   5.55479829
_cell_length_c   5.55479829
_cell_angle_alpha   120.29846350
_cell_angle_beta   119.16261957
_cell_angle_gamma   90.47014460
_symmetry_Int_Tables_number   1
_chemical_formula_structural   SrRuO3
_chemical_formula_sum   'Sr2 Ru2 O6'
_cell_volume   121.67083064
_cell_formula_units_Z   2
loop_
 _symmetry_equiv_pos_site_id
 _symmetry_equiv_pos_as_xyz
  1  'x, y, z'
loop_
 _atom_site_type_symbol
 _atom_site_label
 _atom_site_symmetry_multiplicity
 _atom_site_fract_x
 _atom_site_fract_y
 _atom_site_fract_z
 _atom_site_occupancy
  Sr  Sr0  1  0.24670135  0.25000000  0.99670135  1
  Sr  Sr1  1  0.75329865  0.75000000  0.00329865  1
  Ru  Ru0  1  0.50000000  0.00000000  0.50000000  1
  Ru  Ru1  1  0.00000000  0.50000000  0.50000000  1
  O  O0  1  0.78385507  0.78385507  0.50000000  1
  O  O1  1  0.68751321  0.25000000  0.43751321  1
  O  O2  1  0.21614493  0.71614493  0.00000000  1
  O  O3  1  0.78385507  0.28385507  0.00000000  1
  O  O4  1  0.31248679  0.75000000  0.56248679  1
  O  O5  1  0.21614493  0.21614493  0.50000000  1
loop_
_geom_bond_atom_site_label_1
_geom_bond_atom_site_label_2
_geom_bond_distance
_geom_bond_site_symmetry_2
O0 Ru1 1.989666 1_655
O0 Ru0 1.989666 1_565
O0 Sr1 2.587702 1_555
O0 Sr0 2.587702 1_665
O0 Sr0 2.978704 1_554
O0 Sr1 2.978704 1_556
O1 Ru1 1.987176 1_655
O1 Ru0 1.987176 1_555
O1 Sr0 2.479548 1_554
O1 Sr1 2.789513 1_545
O1 Sr1 2.789513 1_556
O1 Sr0 3.145409 1_655
O2 Ru1 1.989666 1_554
O2 Ru0 1.989666 1_565
O2 Sr0 2.587702 1_554
O2 Sr1 2.587702 1_455
O2 Sr0 2.978704 1_564
O2 Sr1 2.978704 1_555
O3 Ru0 1.989666 1_554
O3 Ru1 1.989666 1_655
O3 Sr0 2.587702 1_654
O3 Sr1 2.587702 1_555
O3 Sr1 2.978704 1_545
O3 Sr0 2.978704 1_554
O4 Ru1 1.987176 1_555
O4 Ru0 1.987176 1_565
O4 Sr1 2.479548 1_556
O4 Sr0 2.789513 1_565
O4 Sr0 2.789513 1_554
O4 Sr1 3.145409 1_455
O5 Ru1 1.989666 1_555
O5 Ru0 1.989666 1_555
O5 Sr1 2.587702 1_445
O5 Sr0 2.587702 1_555
O5 Sr0 2.978704 1_554
O5 Sr1 2.978704 1_556
