# generated using pymatgen
data_Cd2CuAg3O8
_symmetry_space_group_name_H-M   'P 1'
_cell_length_a   6.36337670
_cell_length_b   6.55536249
_cell_length_c   6.43934397
_cell_angle_alpha   126.45239160
_cell_angle_beta   126.12630303
_cell_angle_gamma   80.02574272
_symmetry_Int_Tables_number   1
_chemical_formula_structural   Cd2CuAg3O8
_chemical_formula_sum   'Cd2 Cu1 Ag3 O8'
_cell_volume   167.90665496
_cell_formula_units_Z   1
loop_
 _symmetry_equiv_pos_site_id
 _symmetry_equiv_pos_as_xyz
  1  'x, y, z'
loop_
 _atom_site_type_symbol
 _atom_site_label
 _atom_site_symmetry_multiplicity
 _atom_site_fract_x
 _atom_site_fract_y
 _atom_site_fract_z
 _atom_site_occupancy
  Cd  Cd0  1  0.75155009  0.25584978  0.50492114  1
  Cd  Cd1  1  0.99844991  0.99415022  0.99507886  1
  Cu  Cu0  1  0.37500000  0.62500000  0.25000000  1
  Ag  Ag0  1  0.37500000  0.62500000  0.75000000  1
  Ag  Ag1  1  0.87500000  0.62500000  0.25000000  1
  Ag  Ag2  1  0.37500000  0.12500000  0.75000000  1
  O  O0  1  0.16760454  0.60282305  0.88167981  1
  O  O1  1  0.75820827  0.29620053  0.15323310  1
  O  O2  1  0.34458676  0.99502184  0.94698441  1
  O  O3  1  0.68297658  0.83555870  0.43657652  1
  O  O4  1  0.06702342  0.41444130  0.06342348  1
  O  O5  1  0.40541324  0.25497816  0.55301559  1
  O  O6  1  0.99179173  0.95379947  0.34676690  1
  O  O7  1  0.58239546  0.64717695  0.61832019  1
loop_
_geom_bond_atom_site_label_1
_geom_bond_atom_site_label_2
_geom_bond_distance
_geom_bond_site_symmetry_2
Cd0 O6 2.384491 1_545
Cd0 O5 2.399621 1_555
Cd0 O2 2.408553 1_544
Cd0 O4 2.410776 1_656
Cd0 O7 2.452930 1_555
Cd0 O0 2.454329 1_655
Cd0 O1 2.455445 1_555
Cd0 O3 2.593100 1_545
Cd1 O1 2.384491 1_566
Cd1 O2 2.399621 1_655
Cd1 O5 2.408553 1_666
Cd1 O3 2.410776 1_555
Cd1 O0 2.452930 1_655
Cd1 O7 2.454329 1_555
Cd1 O6 2.455445 1_556
Cd1 O4 2.593100 1_666
Cu0 O7 1.831379 1_555
Cu0 O0 1.831379 1_554
Cu0 O3 1.838339 1_555
Cu0 O4 1.838339 1_555
Ag0 O2 2.000189 1_555
Ag0 O5 2.000189 1_555
Ag0 O7 2.003566 1_555
Ag0 O0 2.003566 1_555
Ag1 O6 1.999809 1_555
Ag1 O1 1.999809 1_555
Ag1 O4 2.004466 1_655
Ag1 O3 2.004466 1_555
Ag2 O1 1.991777 1_556
Ag2 O6 1.991777 1_445
Ag2 O5 2.000827 1_555
Ag2 O2 2.000827 1_545
