# generated using pymatgen
data_Zr6Ti2(Al2Pt)7
_symmetry_space_group_name_H-M   'P 1'
_cell_length_a   8.77236525
_cell_length_b   8.75931676
_cell_length_c   8.75931676
_cell_angle_alpha   59.98175375
_cell_angle_beta   59.95070927
_cell_angle_gamma   59.95070519
_symmetry_Int_Tables_number   1
_chemical_formula_structural   Zr6Ti2(Al2Pt)7
_chemical_formula_sum   'Zr6 Ti2 Al14 Pt7'
_cell_volume   475.50858291
_cell_formula_units_Z   1
loop_
 _symmetry_equiv_pos_site_id
 _symmetry_equiv_pos_as_xyz
  1  'x, y, z'
loop_
 _atom_site_type_symbol
 _atom_site_label
 _atom_site_symmetry_multiplicity
 _atom_site_fract_x
 _atom_site_fract_y
 _atom_site_fract_z
 _atom_site_occupancy
  Zr  Zr0  1  0.68820539  0.68647341  0.31176494  1
  Zr  Zr1  1  0.31355626  0.68647341  0.31176494  1
  Zr  Zr2  1  0.68720469  0.31279531  0.31279531  1
  Zr  Zr3  1  0.31355626  0.31176494  0.68647341  1
  Zr  Zr4  1  0.68820539  0.31176494  0.68647341  1
  Zr  Zr5  1  0.31200532  0.68799468  0.68799468  1
  Ti  Ti0  1  0.88005235  0.87787223  0.36202206  1
  Ti  Ti1  1  0.88005235  0.36202206  0.87787223  1
  Al  Al0  1  0.35651685  0.88094829  0.88094829  1
  Al  Al1  1  0.88158657  0.88094829  0.88094829  1
  Al  Al2  1  0.11952096  0.12037856  0.64057853  1
  Al  Al3  1  0.11952096  0.64057853  0.12037856  1
  Al  Al4  1  0.63799781  0.12024973  0.12024973  1
  Al  Al5  1  0.12150373  0.12024973  0.12024973  1
  Al  Al6  1  0.66649159  0.66597622  0.00104161  1
  Al  Al7  1  0.66649159  0.00104161  0.66597622  1
  Al  Al8  1  0.00486047  0.66570071  0.66570071  1
  Al  Al9  1  0.66373911  0.66570071  0.66570071  1
  Al  Al10  1  0.33409080  0.33509488  0.99672352  1
  Al  Al11  1  0.33409080  0.99672352  0.33509488  1
  Al  Al12  1  0.99817459  0.33424038  0.33424038  1
  Al  Al13  1  0.33334265  0.33424038  0.33424038  1
  Pt  Pt0  1  0.99644799  0.00355201  0.00355201  1
  Pt  Pt1  1  0.99946750  0.99995605  0.49919274  1
  Pt  Pt2  1  0.50138371  0.99995605  0.49919274  1
  Pt  Pt3  1  0.99946199  0.50053801  0.50053801  1
  Pt  Pt4  1  0.50138371  0.49919274  0.99995605  1
  Pt  Pt5  1  0.99946750  0.49919274  0.99995605  1
  Pt  Pt6  1  0.50162213  0.99837787  0.99837787  1
loop_
_geom_bond_atom_site_label_1
_geom_bond_atom_site_label_2
_geom_bond_distance
_geom_bond_site_symmetry_2
Zr0 Zr2 3.273058 1_555
Zr0 Zr4 3.281285 1_555
Zr0 Zr1 3.286559 1_555
Zr0 Zr5 3.295396 1_555
Zr1 Zr2 3.273057 1_555
Zr1 Zr3 3.281285 1_555
Zr1 Zr5 3.295396 1_555
Zr2 Zr3 3.273058 1_555
Zr2 Zr4 3.273058 1_555
Zr3 Zr4 3.286559 1_555
Zr3 Zr5 3.295396 1_555
Zr4 Zr5 3.295396 1_555
Ti0 Zr0 3.184803 1_555
Ti0 Zr1 3.184810 1_655
Ti0 Zr2 3.192749 1_565
Ti1 Zr4 3.184803 1_555
Ti1 Zr3 3.184810 1_655
Ti1 Zr2 3.192749 1_556
Al0 Pt0 2.577452 1_466
Al0 Pt6 2.723513 1_555
Al0 Pt4 2.732503 1_555
Al0 Pt2 2.732503 1_555
Al0 Zr5 3.169488 1_555
Al0 Zr3 3.173505 1_565
Al0 Zr1 3.173505 1_556
Al1 Pt0 2.577452 1_566
Al1 Pt6 2.723513 1_555
Al1 Pt5 2.732503 1_555
Al1 Pt1 2.732503 1_555
Al1 Zr5 3.169487 1_655
Al1 Zr4 3.173505 1_565
Al1 Zr0 3.173505 1_556
Al2 Pt0 2.595148 1_456
Al2 Pt3 2.719739 1_455
Al2 Pt1 2.735200 1_445
Al2 Pt2 2.735207 1_545
Al2 Zr4 3.175939 1_455
Al2 Zr3 3.175947 1_555
Al2 Zr5 3.176751 1_545
Al3 Pt0 2.595148 1_465
Al3 Pt3 2.719739 1_455
Al3 Pt5 2.735200 1_454
Al3 Pt4 2.735207 1_554
Al3 Zr0 3.175939 1_455
Al3 Zr1 3.175947 1_555
Al3 Zr5 3.176751 1_554
Al4 Pt0 2.566078 1_555
Al4 Pt4 2.710260 1_554
Al4 Pt2 2.710260 1_545
Al4 Pt6 2.721880 1_544
Al4 Zr0 3.182998 1_545
Al4 Zr4 3.182998 1_554
Al4 Zr2 3.190557 1_555
Al5 Pt0 2.566085 1_455
Al5 Pt5 2.710259 1_454
Al5 Pt1 2.710260 1_445
Al5 Pt6 2.721873 1_544
Al5 Zr1 3.182996 1_545
Al5 Zr3 3.182996 1_554
Al5 Zr2 3.190562 1_455
Al6 Pt6 2.513622 1_554
Al6 Pt5 2.525656 1_554
Al6 Pt4 2.525663 1_554
Al6 Zr0 2.918680 1_555
Al6 Zr1 2.918685 1_555
Al6 Zr2 2.922655 1_555
Al7 Pt6 2.513622 1_545
Al7 Pt1 2.525656 1_545
Al7 Pt2 2.525663 1_545
Al7 Zr4 2.918680 1_555
Al7 Zr3 2.918685 1_555
Al7 Zr2 2.922655 1_555
Al8 Pt1 2.521808 1_455
Al8 Pt5 2.521808 1_455
Al8 Pt3 2.533684 1_455
Al8 Zr5 2.903107 1_555
Al8 Zr3 2.915291 1_555
Al8 Zr1 2.915291 1_555
Al9 Pt2 2.521811 1_555
Al9 Pt4 2.521811 1_555
Al9 Pt3 2.533679 1_555
Al9 Zr5 2.903116 1_555
Al9 Zr4 2.915295 1_555
Al9 Zr0 2.915295 1_555
Al10 Pt5 2.532886 1_455
Al10 Pt4 2.532887 1_555
Al10 Pt6 2.548845 1_545
Al10 Zr5 2.909783 1_555
Al10 Zr4 2.922710 1_555
Al10 Zr3 2.922710 1_555
Al11 Pt1 2.532887 1_455
Al11 Pt2 2.532887 1_555
Al11 Pt6 2.548845 1_554
Al11 Zr5 2.909783 1_555
Al11 Zr0 2.922709 1_555
Al11 Zr1 2.922710 1_555
Al12 Pt3 2.529776 1_555
Al12 Pt1 2.532124 1_545
Al12 Pt5 2.532124 1_554
Al12 Zr0 2.911734 1_555
Al12 Zr4 2.911735 1_555
Al12 Zr2 2.928126 1_555
Al13 Pt3 2.529766 1_455
Al13 Pt2 2.532129 1_545
Al13 Pt4 2.532129 1_554
Al13 Zr1 2.911742 1_555
Al13 Zr3 2.911742 1_555
Al13 Zr2 2.928144 1_555
Pt0 Ti1 2.563214 1_554
Pt0 Ti0 2.563214 1_545
Pt1 Ti0 2.711564 1_555
Pt1 Zr4 3.183490 1_565
Pt1 Zr2 3.188028 1_565
Pt1 Zr1 3.198467 1_655
Pt1 Zr5 3.199238 1_655
Pt2 Ti0 2.711557 1_555
Pt2 Zr3 3.183490 1_565
Pt2 Zr2 3.188028 1_565
Pt2 Zr0 3.198467 1_555
Pt2 Zr5 3.199239 1_555
Pt3 Ti0 2.699392 1_555
Pt3 Ti1 2.699392 1_555
Pt3 Zr3 3.196175 1_655
Pt3 Zr0 3.196175 1_555
Pt3 Zr1 3.196175 1_655
Pt3 Zr4 3.196175 1_555
Pt4 Ti1 2.711557 1_555
Pt4 Zr1 3.183490 1_556
Pt4 Zr2 3.188028 1_556
Pt4 Zr4 3.198467 1_555
Pt4 Zr5 3.199238 1_555
Pt5 Ti1 2.711564 1_555
Pt5 Zr0 3.183490 1_556
Pt5 Zr2 3.188028 1_556
Pt5 Zr3 3.198467 1_655
Pt5 Zr5 3.199238 1_655
Pt6 Zr3 3.193124 1_565
Pt6 Zr0 3.193124 1_556
Pt6 Zr4 3.193125 1_565
Pt6 Zr1 3.193125 1_556
