# generated using pymatgen
data_Zr3Ti(AuN)2
_symmetry_space_group_name_H-M   'P 1'
_cell_length_a   17.40707154
_cell_length_b   17.40707223
_cell_length_c   8.96942235
_cell_angle_alpha   90.00000000
_cell_angle_beta   90.00000000
_cell_angle_gamma   158.77864172
_symmetry_Int_Tables_number   1
_chemical_formula_structural   Zr3Ti(AuN)2
_chemical_formula_sum   'Zr24 Ti8 Au16 N16'
_cell_volume   983.76417867
_cell_formula_units_Z   8
loop_
 _symmetry_equiv_pos_site_id
 _symmetry_equiv_pos_as_xyz
  1  'x, y, z'
loop_
 _atom_site_type_symbol
 _atom_site_label
 _atom_site_symmetry_multiplicity
 _atom_site_fract_x
 _atom_site_fract_y
 _atom_site_fract_z
 _atom_site_occupancy
  Zr  Zr0_0  1  0.30399755  0.19600295  0.12500000  1
  Zr  Zr0_1  1  0.30399755  0.19600295  0.62500000  1
  Zr  Zr0_2  1  0.30399755  0.69600295  0.12500000  1
  Zr  Zr0_3  1  0.30399755  0.69600295  0.62500000  1
  Zr  Zr0_4  1  0.80399755  0.19600295  0.12500000  1
  Zr  Zr0_5  1  0.80399755  0.19600295  0.62500000  1
  Zr  Zr0_6  1  0.80399755  0.69600295  0.12500000  1
  Zr  Zr0_7  1  0.80399755  0.69600295  0.62500000  1
  Zr  Zr1_0  1  0.19621723  0.30378327  0.37500000  1
  Zr  Zr1_1  1  0.19621723  0.30378327  0.87500000  1
  Zr  Zr1_2  1  0.19621723  0.80378327  0.37500000  1
  Zr  Zr1_3  1  0.19621723  0.80378327  0.87500000  1
  Zr  Zr1_4  1  0.69621723  0.30378327  0.37500000  1
  Zr  Zr1_5  1  0.69621723  0.30378327  0.87500000  1
  Zr  Zr1_6  1  0.69621723  0.80378327  0.37500000  1
  Zr  Zr1_7  1  0.69621723  0.80378327  0.87500000  1
  Zr  Zr2_0  1  0.10682235  0.39317865  0.37500000  1
  Zr  Zr2_1  1  0.10682235  0.39317865  0.87500000  1
  Zr  Zr2_2  1  0.10682235  0.89317865  0.37500000  1
  Zr  Zr2_3  1  0.10682235  0.89317865  0.87500000  1
  Zr  Zr2_4  1  0.60682235  0.39317865  0.37500000  1
  Zr  Zr2_5  1  0.60682235  0.39317865  0.87500000  1
  Zr  Zr2_6  1  0.60682235  0.89317865  0.37500000  1
  Zr  Zr2_7  1  0.60682235  0.89317865  0.87500000  1
  Ti  Ti0_0  1  0.39187887  0.10812213  0.12500000  1
  Ti  Ti0_1  1  0.39187887  0.10812213  0.62500000  1
  Ti  Ti0_2  1  0.39187887  0.60812213  0.12500000  1
  Ti  Ti0_3  1  0.39187887  0.60812213  0.62500000  1
  Ti  Ti0_4  1  0.89187887  0.10812213  0.12500000  1
  Ti  Ti0_5  1  0.89187887  0.10812213  0.62500000  1
  Ti  Ti0_6  1  0.89187887  0.60812213  0.12500000  1
  Ti  Ti0_7  1  0.89187887  0.60812213  0.62500000  1
  Au  Au0_0  1  0.47524633  0.02475417  0.12500000  1
  Au  Au0_1  1  0.47524633  0.02475417  0.62500000  1
  Au  Au0_2  1  0.47524633  0.52475417  0.12500000  1
  Au  Au0_3  1  0.47524633  0.52475417  0.62500000  1
  Au  Au0_4  1  0.97524633  0.02475417  0.12500000  1
  Au  Au0_5  1  0.97524633  0.02475417  0.62500000  1
  Au  Au0_6  1  0.97524633  0.52475417  0.12500000  1
  Au  Au0_7  1  0.97524633  0.52475417  0.62500000  1
  Au  Au1_0  1  0.02309495  0.47690555  0.37500000  1
  Au  Au1_1  1  0.02309495  0.47690555  0.87500000  1
  Au  Au1_2  1  0.02309495  0.97690555  0.37500000  1
  Au  Au1_3  1  0.02309495  0.97690555  0.87500000  1
  Au  Au1_4  1  0.52309495  0.47690555  0.37500000  1
  Au  Au1_5  1  0.52309495  0.47690555  0.87500000  1
  Au  Au1_6  1  0.52309495  0.97690555  0.37500000  1
  Au  Au1_7  1  0.52309495  0.97690555  0.87500000  1
  N  N0_0  1  0.10141753  0.39858347  0.12500000  1
  N  N0_1  1  0.10141753  0.39858347  0.62500000  1
  N  N0_2  1  0.10141753  0.89858347  0.12500000  1
  N  N0_3  1  0.10141753  0.89858347  0.62500000  1
  N  N0_4  1  0.60141753  0.39858347  0.12500000  1
  N  N0_5  1  0.60141753  0.39858347  0.62500000  1
  N  N0_6  1  0.60141753  0.89858347  0.12500000  1
  N  N0_7  1  0.60141753  0.89858347  0.62500000  1
  N  N1_0  1  0.40132869  0.09867231  0.37500000  1
  N  N1_1  1  0.40132869  0.09867231  0.87500000  1
  N  N1_2  1  0.40132869  0.59867231  0.37500000  1
  N  N1_3  1  0.40132869  0.59867231  0.87500000  1
  N  N1_4  1  0.90132869  0.09867231  0.37500000  1
  N  N1_5  1  0.90132869  0.09867231  0.87500000  1
  N  N1_6  1  0.90132869  0.59867231  0.37500000  1
  N  N1_7  1  0.90132869  0.59867231  0.87500000  1
loop_
_geom_bond_atom_site_label_1
_geom_bond_atom_site_label_2
_geom_bond_distance
_geom_bond_site_symmetry_2
Au0_0 Au1_7 2.776507 1_544
Au0_0 Au1_6 2.776507 1_545
Au0_0 Ti0_0 2.852748 1_555
Au0_0 Zr1_3 2.929724 1_544
Au0_0 Zr1_2 2.929724 1_545
Au0_0 Zr1_5 2.929724 1_554
Au0_0 Zr1_4 2.929724 1_555
Au0_0 Zr0_4 3.135318 1_555
Au0_0 Zr0_2 3.135318 1_545
Au0_0 Au0_6 3.205243 1_555
Au0_0 Au0_6 3.205243 1_445
Au0_1 Au1_6 2.776507 1_545
Au0_1 Au1_7 2.776507 1_545
Au0_1 Ti0_1 2.852748 1_555
Au0_1 Zr1_2 2.929724 1_545
Au0_1 Zr1_3 2.929724 1_545
Au0_1 Zr1_4 2.929724 1_555
Au0_1 Zr1_5 2.929724 1_555
Au0_1 Zr0_5 3.135318 1_555
Au0_1 Zr0_3 3.135318 1_545
Au0_1 Au0_7 3.205243 1_555
Au0_1 Au0_7 3.205243 1_445
Au0_2 Au1_5 2.776507 1_554
Au0_2 Au1_4 2.776507 1_555
Au0_2 Ti0_2 2.852748 1_555
Au0_2 Zr1_1 2.929724 1_554
Au0_2 Zr1_0 2.929724 1_555
Au0_2 Zr1_7 2.929724 1_554
Au0_2 Zr1_6 2.929724 1_555
Au0_2 Zr0_6 3.135318 1_555
Au0_2 Zr0_0 3.135318 1_555
Au0_2 Au0_4 3.205243 1_455
Au0_2 Au0_4 3.205243 1_565
Au0_3 Au1_4 2.776507 1_555
Au0_3 Au1_5 2.776507 1_555
Au0_3 Ti0_3 2.852748 1_555
Au0_3 Zr1_0 2.929724 1_555
Au0_3 Zr1_1 2.929724 1_555
Au0_3 Zr1_6 2.929724 1_555
Au0_3 Zr1_7 2.929724 1_555
Au0_3 Zr0_7 3.135318 1_555
Au0_3 Zr0_1 3.135318 1_555
Au0_3 Au0_5 3.205243 1_455
Au0_3 Au0_5 3.205243 1_565
Au0_4 Au1_3 2.776507 1_644
Au0_4 Au1_2 2.776507 1_645
Au0_4 Ti0_4 2.852748 1_555
Au0_4 Zr1_7 2.929724 1_544
Au0_4 Zr1_6 2.929724 1_545
Au0_4 Zr1_1 2.929724 1_654
Au0_4 Zr1_0 2.929724 1_655
Au0_4 Zr0_0 3.135318 1_655
Au0_4 Zr0_6 3.135318 1_545
Au0_5 Au1_2 2.776507 1_645
Au0_5 Au1_3 2.776507 1_645
Au0_5 Ti0_5 2.852748 1_555
Au0_5 Zr1_6 2.929724 1_545
Au0_5 Zr1_7 2.929724 1_545
Au0_5 Zr1_0 2.929724 1_655
Au0_5 Zr1_1 2.929724 1_655
Au0_5 Zr0_1 3.135318 1_655
Au0_5 Zr0_7 3.135318 1_545
Au0_6 Au1_1 2.776507 1_654
Au0_6 Au1_0 2.776507 1_655
Au0_6 Ti0_6 2.852748 1_555
Au0_6 Zr1_5 2.929724 1_554
Au0_6 Zr1_4 2.929724 1_555
Au0_6 Zr1_3 2.929724 1_654
Au0_6 Zr1_2 2.929724 1_655
Au0_6 Zr0_2 3.135318 1_655
Au0_6 Zr0_4 3.135318 1_555
Au0_7 Au1_0 2.776507 1_655
Au0_7 Au1_1 2.776507 1_655
Au0_7 Ti0_7 2.852748 1_555
Au0_7 Zr1_4 2.929724 1_555
Au0_7 Zr1_5 2.929724 1_555
Au0_7 Zr1_2 2.929724 1_655
Au0_7 Zr1_3 2.929724 1_655
Au0_7 Zr0_3 3.135318 1_655
Au0_7 Zr0_5 3.135318 1_555
Au1_0 Zr2_0 2.865048 1_555
Au1_0 Zr0_3 2.952077 1_555
Au1_0 Zr0_2 2.952077 1_555
Au1_0 Zr0_5 2.952077 1_455
Au1_0 Zr0_4 2.952077 1_455
Au1_0 Zr1_4 3.080391 1_455
Au1_0 Zr1_2 3.080391 1_555
Au1_1 Zr2_1 2.865048 1_555
Au1_1 Zr0_2 2.952077 1_556
Au1_1 Zr0_3 2.952077 1_555
Au1_1 Zr0_4 2.952077 1_456
Au1_1 Zr0_5 2.952077 1_455
Au1_1 Zr1_5 3.080391 1_455
Au1_1 Zr1_3 3.080391 1_555
Au1_2 Zr2_2 2.865048 1_555
Au1_2 Zr0_1 2.952077 1_565
Au1_2 Zr0_0 2.952077 1_565
Au1_2 Zr0_7 2.952077 1_455
Au1_2 Zr0_6 2.952077 1_455
Au1_2 Zr1_6 3.080391 1_455
Au1_2 Zr1_0 3.080391 1_565
Au1_3 Zr2_3 2.865048 1_555
Au1_3 Zr0_0 2.952077 1_566
Au1_3 Zr0_1 2.952077 1_565
Au1_3 Zr0_6 2.952077 1_456
Au1_3 Zr0_7 2.952077 1_455
Au1_3 Zr1_7 3.080391 1_455
Au1_3 Zr1_1 3.080391 1_565
Au1_4 Zr2_4 2.865048 1_555
Au1_4 Zr0_7 2.952077 1_555
Au1_4 Zr0_6 2.952077 1_555
Au1_4 Zr0_1 2.952077 1_555
Au1_4 Zr0_0 2.952077 1_555
Au1_4 Zr1_0 3.080391 1_555
Au1_4 Zr1_6 3.080391 1_555
Au1_5 Zr2_5 2.865048 1_555
Au1_5 Zr0_6 2.952077 1_556
Au1_5 Zr0_7 2.952077 1_555
Au1_5 Zr0_0 2.952077 1_556
Au1_5 Zr0_1 2.952077 1_555
Au1_5 Zr1_1 3.080391 1_555
Au1_5 Zr1_7 3.080391 1_555
Au1_6 Zr2_6 2.865048 1_555
Au1_6 Zr0_5 2.952077 1_565
Au1_6 Zr0_4 2.952077 1_565
Au1_6 Zr0_3 2.952077 1_555
Au1_6 Zr0_2 2.952077 1_555
Au1_6 Zr1_2 3.080391 1_555
Au1_6 Zr1_4 3.080391 1_565
Au1_7 Zr2_7 2.865048 1_555
Au1_7 Zr0_4 2.952077 1_566
Au1_7 Zr0_5 2.952077 1_565
Au1_7 Zr0_2 2.952077 1_556
Au1_7 Zr0_3 2.952077 1_555
Au1_7 Zr1_3 3.080391 1_555
Au1_7 Zr1_5 3.080391 1_565
N0_0 Ti0_2 2.117864 1_555
N0_0 Ti0_4 2.117864 1_455
N0_0 Zr2_1 2.249970 1_554
N0_0 Zr2_0 2.249970 1_555
N0_0 Zr0_2 2.280654 1_555
N0_0 Zr0_4 2.280656 1_455
N0_1 Ti0_3 2.117864 1_555
N0_1 Ti0_5 2.117864 1_455
N0_1 Zr2_0 2.249970 1_555
N0_1 Zr2_1 2.249970 1_555
N0_1 Zr0_3 2.280654 1_555
N0_1 Zr0_5 2.280656 1_455
N0_2 Ti0_0 2.117864 1_565
N0_2 Ti0_6 2.117864 1_455
N0_2 Zr2_3 2.249970 1_554
N0_2 Zr2_2 2.249970 1_555
N0_2 Zr0_0 2.280654 1_565
N0_2 Zr0_6 2.280656 1_455
N0_3 Ti0_1 2.117864 1_565
N0_3 Ti0_7 2.117864 1_455
N0_3 Zr2_2 2.249970 1_555
N0_3 Zr2_3 2.249970 1_555
N0_3 Zr0_1 2.280654 1_565
N0_3 Zr0_7 2.280656 1_455
N0_4 Ti0_6 2.117864 1_555
N0_4 Ti0_0 2.117864 1_555
N0_4 Zr2_5 2.249970 1_554
N0_4 Zr2_4 2.249970 1_555
N0_4 Zr0_6 2.280654 1_555
N0_4 Zr0_0 2.280656 1_555
N0_5 Ti0_7 2.117864 1_555
N0_5 Ti0_1 2.117864 1_555
N0_5 Zr2_4 2.249970 1_555
N0_5 Zr2_5 2.249970 1_555
N0_5 Zr0_7 2.280654 1_555
N0_5 Zr0_1 2.280656 1_555
N0_6 Ti0_4 2.117864 1_565
N0_6 Ti0_2 2.117864 1_555
N0_6 Zr2_7 2.249970 1_554
N0_6 Zr2_6 2.249970 1_555
N0_6 Zr0_4 2.280654 1_565
N0_6 Zr0_2 2.280656 1_555
N0_7 Ti0_5 2.117864 1_565
N0_7 Ti0_3 2.117864 1_555
N0_7 Zr2_6 2.249970 1_555
N0_7 Zr2_7 2.249970 1_555
N0_7 Zr0_5 2.280654 1_565
N0_7 Zr0_3 2.280656 1_555
N1_0 Zr2_2 2.210835 1_545
N1_0 Zr2_4 2.210835 1_555
N1_0 Zr1_4 2.219869 1_555
N1_0 Zr1_2 2.219872 1_545
N1_0 Ti0_1 2.265551 1_555
N1_0 Ti0_0 2.265551 1_555
N1_1 Zr2_3 2.210835 1_545
N1_1 Zr2_5 2.210835 1_555
N1_1 Zr1_5 2.219869 1_555
N1_1 Zr1_3 2.219872 1_545
N1_1 Ti0_0 2.265551 1_556
N1_1 Ti0_1 2.265551 1_555
N1_2 Zr2_0 2.210835 1_555
N1_2 Zr2_6 2.210835 1_555
N1_2 Zr1_6 2.219869 1_555
N1_2 Zr1_0 2.219872 1_555
N1_2 Ti0_3 2.265551 1_555
N1_2 Ti0_2 2.265551 1_555
N1_3 Zr2_1 2.210835 1_555
N1_3 Zr2_7 2.210835 1_555
N1_3 Zr1_7 2.219869 1_555
N1_3 Zr1_1 2.219872 1_555
N1_3 Ti0_2 2.265551 1_556
N1_3 Ti0_3 2.265551 1_555
N1_4 Zr2_6 2.210835 1_545
N1_4 Zr2_0 2.210835 1_655
N1_4 Zr1_0 2.219869 1_655
N1_4 Zr1_6 2.219872 1_545
N1_4 Ti0_5 2.265551 1_555
N1_4 Ti0_4 2.265551 1_555
N1_5 Zr2_7 2.210835 1_545
N1_5 Zr2_1 2.210835 1_655
N1_5 Zr1_1 2.219869 1_655
N1_5 Zr1_7 2.219872 1_545
N1_5 Ti0_4 2.265551 1_556
N1_5 Ti0_5 2.265551 1_555
N1_6 Zr2_4 2.210835 1_555
N1_6 Zr2_2 2.210835 1_655
N1_6 Zr1_2 2.219869 1_655
N1_6 Zr1_4 2.219872 1_555
N1_6 Ti0_7 2.265551 1_555
N1_6 Ti0_6 2.265551 1_555
N1_7 Zr2_5 2.210835 1_555
N1_7 Zr2_3 2.210835 1_655
N1_7 Zr1_3 2.219869 1_655
N1_7 Zr1_5 2.219872 1_555
N1_7 Ti0_6 2.265551 1_556
N1_7 Ti0_7 2.265551 1_555
