# generated using pymatgen
data_KSr2Hg2Sb3
_symmetry_space_group_name_H-M   'P 1'
_cell_length_a   4.85306075
_cell_length_b   12.83296472
_cell_length_c   16.47832913
_cell_angle_alpha   90.00000000
_cell_angle_beta   90.00000000
_cell_angle_gamma   90.00000000
_symmetry_Int_Tables_number   1
_chemical_formula_structural   KSr2Hg2Sb3
_chemical_formula_sum   'K4 Sr8 Hg8 Sb12'
_cell_volume   1026.25645418
_cell_formula_units_Z   4
loop_
 _symmetry_equiv_pos_site_id
 _symmetry_equiv_pos_as_xyz
  1  'x, y, z'
loop_
 _atom_site_type_symbol
 _atom_site_label
 _atom_site_symmetry_multiplicity
 _atom_site_fract_x
 _atom_site_fract_y
 _atom_site_fract_z
 _atom_site_occupancy
  K  K0  1  0.25000000  0.40075118  0.55059156  1
  K  K1  1  0.75000000  0.09924882  0.05059156  1
  K  K2  1  0.25000000  0.90075118  0.94940844  1
  K  K3  1  0.75000000  0.59924882  0.44940844  1
  Sr  Sr0  1  0.25000000  0.36193386  0.28014103  1
  Sr  Sr1  1  0.75000000  0.13806614  0.78014103  1
  Sr  Sr2  1  0.25000000  0.86193386  0.21985897  1
  Sr  Sr3  1  0.75000000  0.63806614  0.71985897  1
  Sr  Sr4  1  0.25000000  0.10123885  0.42583244  1
  Sr  Sr5  1  0.75000000  0.39876115  0.92583244  1
  Sr  Sr6  1  0.25000000  0.60123885  0.07416756  1
  Sr  Sr7  1  0.75000000  0.89876115  0.57416756  1
  Hg  Hg0  1  0.25000000  0.30391726  0.07672527  1
  Hg  Hg1  1  0.75000000  0.19608274  0.57672527  1
  Hg  Hg2  1  0.25000000  0.80391726  0.42327473  1
  Hg  Hg3  1  0.75000000  0.69608274  0.92327473  1
  Hg  Hg4  1  0.25000000  0.36071368  0.78338395  1
  Hg  Hg5  1  0.75000000  0.13928632  0.28338395  1
  Hg  Hg6  1  0.25000000  0.86071368  0.71661605  1
  Hg  Hg7  1  0.75000000  0.63928632  0.21661605  1
  Sb  Sb0  1  0.25000000  0.12154729  0.19428938  1
  Sb  Sb1  1  0.75000000  0.37845271  0.69428938  1
  Sb  Sb2  1  0.25000000  0.62154729  0.30571062  1
  Sb  Sb3  1  0.75000000  0.87845271  0.80571062  1
  Sb  Sb4  1  0.25000000  0.70639565  0.58251268  1
  Sb  Sb5  1  0.75000000  0.79360435  0.08251268  1
  Sb  Sb6  1  0.25000000  0.20639565  0.91748732  1
  Sb  Sb7  1  0.75000000  0.29360435  0.41748732  1
  Sb  Sb8  1  0.25000000  0.07922798  0.62996245  1
  Sb  Sb9  1  0.75000000  0.42077202  0.12996245  1
  Sb  Sb10  1  0.25000000  0.57922798  0.87003755  1
  Sb  Sb11  1  0.75000000  0.92077202  0.37003755  1
loop_
_geom_bond_atom_site_label_1
_geom_bond_atom_site_label_2
_geom_bond_distance
_geom_bond_site_symmetry_2
K0 Sb1 3.402482 1_455
K0 Sb1 3.402482 1_555
K0 Sb7 3.548158 1_455
K0 Sb7 3.548158 1_555
K0 Sb4 3.957438 1_555
K1 Sb0 3.402482 1_555
K1 Sb0 3.402482 1_655
K1 Sb6 3.548158 1_654
K1 Sb6 3.548158 1_554
K1 Sb5 3.957438 1_545
K2 Sb3 3.402482 1_555
K2 Sb3 3.402482 1_455
K2 Sb5 3.548158 1_556
K2 Sb5 3.548158 1_456
K2 Sb6 3.957438 1_565
K3 Sb2 3.402482 1_555
K3 Sb2 3.402482 1_655
K3 Sb4 3.548158 1_555
K3 Sb4 3.548158 1_655
K3 Sb7 3.957438 1_555
Hg0 Sb6 2.907143 1_554
Hg0 Sb9 2.984362 1_455
Hg0 Sb9 2.984362 1_555
Hg0 Sb0 3.038125 1_555
Hg0 Sr0 3.433642 1_555
Hg0 K1 3.601669 1_455
Hg0 K1 3.601669 1_555
Hg0 Sr5 3.681296 1_554
Hg0 Sr5 3.681296 1_454
Hg0 Sr6 3.815750 1_555
Hg1 Sb7 2.907143 1_555
Hg1 Sb8 2.984362 1_655
Hg1 Sb8 2.984362 1_555
Hg1 Sb1 3.038125 1_555
Hg1 Sr1 3.433642 1_555
Hg1 K0 3.601669 1_555
Hg1 K0 3.601669 1_655
Hg1 Sr4 3.681296 1_555
Hg1 Sr4 3.681296 1_655
Hg1 Sr7 3.815750 1_545
Hg2 Sb4 2.907143 1_555
Hg2 Sb11 2.984362 1_455
Hg2 Sb11 2.984362 1_555
Hg2 Sb2 3.038125 1_555
Hg2 Sr2 3.433642 1_555
Hg2 K3 3.601669 1_455
Hg2 K3 3.601669 1_555
Hg2 Sr7 3.681296 1_455
Hg2 Sr7 3.681296 1_555
Hg2 Sr4 3.815750 1_565
Hg3 Sb5 2.907143 1_556
Hg3 Sb10 2.984362 1_555
Hg3 Sb10 2.984362 1_655
Hg3 Sb3 3.038125 1_555
Hg3 Sr3 3.433642 1_555
Hg3 K2 3.601669 1_555
Hg3 K2 3.601669 1_655
Hg3 Sr6 3.681296 1_556
Hg3 Sr6 3.681296 1_656
Hg3 Sr5 3.815750 1_555
Hg4 Sb1 2.845220 1_555
Hg4 Sb1 2.845220 1_455
Hg4 Sb6 2.967327 1_555
Hg4 Sb10 3.146804 1_555
Hg4 Sr5 3.411206 1_455
Hg4 Sr5 3.411206 1_555
Hg4 Sr1 3.748954 1_555
Hg4 Sr1 3.748954 1_455
Hg4 K0 3.870286 1_555
Hg5 Sb0 2.845220 1_655
Hg5 Sb0 2.845220 1_555
Hg5 Sb7 2.967327 1_555
Hg5 Sb11 3.146804 1_545
Hg5 Sr4 3.411206 1_555
Hg5 Sr4 3.411206 1_655
Hg5 Sr0 3.748954 1_555
Hg5 Sr0 3.748954 1_655
Hg5 K1 3.870286 1_555
Hg6 Sb3 2.845220 1_455
Hg6 Sb3 2.845220 1_555
Hg6 Sb4 2.967327 1_555
Hg6 Sb8 3.146804 1_565
Hg6 Sr7 3.411206 1_455
Hg6 Sr7 3.411206 1_555
Hg6 Sr3 3.748954 1_455
Hg6 Sr3 3.748954 1_555
Hg6 K2 3.870286 1_555
Hg7 Sb2 2.845220 1_555
Hg7 Sb2 2.845220 1_655
Hg7 Sb5 2.967327 1_555
Hg7 Sb9 3.146804 1_555
Hg7 Sr6 3.411206 1_655
Hg7 Sr6 3.411206 1_555
Hg7 Sr2 3.748954 1_555
Hg7 Sr2 3.748954 1_655
Hg7 K3 3.870286 1_555
Sb0 Sr2 3.358148 1_545
Sb0 Sr0 3.393787 1_555
Sb0 Sr4 3.824333 1_555
Sb1 Sr3 3.358148 1_555
Sb1 Sr1 3.393787 1_555
Sb1 Sr5 3.824333 1_555
Sb2 Sr0 3.358148 1_555
Sb2 Sr2 3.393787 1_555
Sb2 Sr6 3.824333 1_555
Sb3 Sr1 3.358148 1_565
Sb3 Sr3 3.393787 1_555
Sb3 Sr7 3.824333 1_555
Sb4 Sr3 3.432083 1_455
Sb4 Sr3 3.432083 1_555
Sb4 Sr7 3.464252 1_555
Sb4 Sr7 3.464252 1_455
Sb5 Sr2 3.432083 1_655
Sb5 Sr2 3.432083 1_555
Sb5 Sr6 3.464252 1_655
Sb5 Sr6 3.464252 1_555
Sb6 Sr1 3.432083 1_455
Sb6 Sr1 3.432083 1_555
Sb6 Sr5 3.464252 1_455
Sb6 Sr5 3.464252 1_555
Sb7 Sr0 3.432083 1_655
Sb7 Sr0 3.432083 1_555
Sb7 Sr4 3.464252 1_655
Sb7 Sr4 3.464252 1_555
Sb8 Sr4 3.375561 1_555
Sb8 Sr7 3.478055 1_445
Sb8 Sr7 3.478055 1_545
Sb8 Sr1 3.547151 1_555
Sb8 Sr1 3.547151 1_455
Sb9 Sr5 3.375561 1_554
Sb9 Sr6 3.478055 1_555
Sb9 Sr6 3.478055 1_655
Sb9 Sr0 3.547151 1_555
Sb9 Sr0 3.547151 1_655
Sb10 Sr6 3.375561 1_556
Sb10 Sr5 3.478055 1_455
Sb10 Sr5 3.478055 1_555
Sb10 Sr3 3.547151 1_455
Sb10 Sr3 3.547151 1_555
Sb11 Sr7 3.375561 1_555
Sb11 Sr4 3.478055 1_565
Sb11 Sr4 3.478055 1_665
Sb11 Sr2 3.547151 1_555
Sb11 Sr2 3.547151 1_655
