# generated using pymatgen
data_Li14FeSnN8
_symmetry_space_group_name_H-M   'P 1'
_cell_length_a   6.83595131
_cell_length_b   6.83595131
_cell_length_c   4.85256975
_cell_angle_alpha   90.00000000
_cell_angle_beta   90.00000000
_cell_angle_gamma   90.00000000
_symmetry_Int_Tables_number   1
_chemical_formula_structural   Li14FeSnN8
_chemical_formula_sum   'Li14 Fe1 Sn1 N8'
_cell_volume   226.76170161
_cell_formula_units_Z   1
loop_
 _symmetry_equiv_pos_site_id
 _symmetry_equiv_pos_as_xyz
  1  'x, y, z'
loop_
 _atom_site_type_symbol
 _atom_site_label
 _atom_site_symmetry_multiplicity
 _atom_site_fract_x
 _atom_site_fract_y
 _atom_site_fract_z
 _atom_site_occupancy
  Li  Li0  1  0.50000000  0.00000000  0.52794508  1
  Li  Li1  1  0.24022501  0.75977499  0.00000000  1
  Li  Li2  1  0.00000000  0.50000000  0.94412869  1
  Li  Li3  1  0.75977499  0.24022501  0.00000000  1
  Li  Li4  1  0.26634653  0.73365347  0.50000000  1
  Li  Li5  1  0.00000000  0.00000000  0.00000000  1
  Li  Li6  1  0.50000000  0.00000000  0.05587131  1
  Li  Li7  1  0.73365347  0.73365347  0.50000000  1
  Li  Li8  1  0.26634653  0.26634653  0.50000000  1
  Li  Li9  1  0.24022501  0.24022501  0.00000000  1
  Li  Li10  1  0.75977499  0.75977499  0.00000000  1
  Li  Li11  1  0.73365347  0.26634653  0.50000000  1
  Li  Li12  1  0.00000000  0.50000000  0.47205492  1
  Li  Li13  1  0.50000000  0.50000000  0.50000000  1
  Fe  Fe0  1  0.50000000  0.50000000  0.00000000  1
  Sn  Sn0  1  0.00000000  0.00000000  0.50000000  1
  N  N0  1  0.00000000  0.25461108  0.73213424  1
  N  N1  1  0.28926658  0.50000000  0.21017920  1
  N  N2  1  0.50000000  0.28926658  0.78982080  1
  N  N3  1  0.00000000  0.74538892  0.73213424  1
  N  N4  1  0.50000000  0.71073342  0.78982080  1
  N  N5  1  0.74538892  0.00000000  0.26786576  1
  N  N6  1  0.71073342  0.50000000  0.21017920  1
  N  N7  1  0.25461108  0.00000000  0.26786576  1
loop_
_geom_bond_atom_site_label_1
_geom_bond_atom_site_label_2
_geom_bond_distance
_geom_bond_site_symmetry_2
Li0 N5 2.099208 1_555
Li0 N7 2.099208 1_555
Li0 N2 2.350535 1_555
Li0 N4 2.350535 1_545
Li1 N1 2.075115 1_555
Li1 N4 2.075115 1_554
Li1 N3 2.096654 1_554
Li1 N7 2.096654 1_565
Li2 N3 1.967779 1_555
Li2 N0 1.967779 1_555
Li2 N1 2.361549 1_556
Li2 N6 2.361549 1_456
Li3 N2 2.075115 1_554
Li3 N6 2.075115 1_555
Li3 N5 2.096654 1_555
Li3 N0 2.096654 1_654
Li4 N1 2.133923 1_555
Li4 N4 2.133923 1_555
Li4 N3 2.142518 1_555
Li4 N7 2.142518 1_565
Li5 N0 2.172314 1_554
Li5 N7 2.172314 1_555
Li5 N5 2.172314 1_455
Li5 N3 2.172314 1_544
Li6 N5 1.967779 1_555
Li6 N7 1.967779 1_555
Li6 N2 2.361549 1_554
Li6 N4 2.361549 1_544
Li7 N4 2.133923 1_555
Li7 N6 2.133923 1_555
Li7 N5 2.142518 1_565
Li7 N3 2.142518 1_655
Li8 N2 2.133923 1_555
Li8 N1 2.133923 1_555
Li8 N7 2.142518 1_555
Li8 N0 2.142518 1_555
Li9 N1 2.075115 1_555
Li9 N2 2.075115 1_554
Li9 N0 2.096654 1_554
Li9 N7 2.096654 1_555
Li10 N6 2.075115 1_555
Li10 N4 2.075115 1_554
Li10 N3 2.096654 1_654
Li10 N5 2.096654 1_565
Li11 N2 2.133923 1_555
Li11 N6 2.133923 1_555
Li11 N5 2.142518 1_555
Li11 N0 2.142518 1_655
Li12 N3 2.099208 1_555
Li12 N0 2.099208 1_555
Li12 N1 2.350535 1_555
Li12 N6 2.350535 1_455
Li13 N4 2.013235 1_555
Li13 N6 2.013235 1_555
Li13 N2 2.013235 1_555
Li13 N1 2.013235 1_555
Fe0 N6 1.765060 1_555
Fe0 N4 1.765060 1_554
Fe0 N1 1.765060 1_555
Fe0 N2 1.765060 1_554
N0 Sn0 2.073223 1_555
N3 Sn0 2.073223 1_565
N5 Sn0 2.073223 1_655
N7 Sn0 2.073223 1_555
