# generated using pymatgen
data_V10SiGeB4
_symmetry_space_group_name_H-M   'P 1'
_cell_length_a   6.75664669
_cell_length_b   6.75664628
_cell_length_c   6.75664734
_cell_angle_alpha   129.37917255
_cell_angle_beta   129.37917460
_cell_angle_gamma   74.40122799
_symmetry_Int_Tables_number   1
_chemical_formula_structural   V10SiGeB4
_chemical_formula_sum   'V10 Si1 Ge1 B4'
_cell_volume   179.62611438
_cell_formula_units_Z   1
loop_
 _symmetry_equiv_pos_site_id
 _symmetry_equiv_pos_as_xyz
  1  'x, y, z'
loop_
 _atom_site_type_symbol
 _atom_site_label
 _atom_site_symmetry_multiplicity
 _atom_site_fract_x
 _atom_site_fract_y
 _atom_site_fract_z
 _atom_site_occupancy
  V  V0  1  0.53548680  0.69731718  0.50513673  1
  V  V1  1  0.03035007  0.53548680  0.83816961  1
  V  V2  1  0.69731718  0.19217945  0.16183039  1
  V  V3  1  0.96451320  0.46964993  0.16183039  1
  V  V4  1  0.19217945  0.03035007  0.49486327  1
  V  V5  1  0.46964993  0.30782055  0.50513673  1
  V  V6  1  0.80268282  0.96451320  0.49486327  1
  V  V7  1  0.30782055  0.80268282  0.83816961  1
  V  V8  1  0.99955243  0.99955243  0.00000000  1
  V  V9  1  0.50044757  0.50044757  1.00000000  1
  Si  Si0  1  0.75000000  0.75000000  0.00000000  1
  Ge  Ge0  1  0.25000000  0.25000000  0.00000000  1
  B  B0  1  0.61541424  0.11541424  0.73082848  1
  B  B1  1  0.11541424  0.38458576  0.50000000  1
  B  B2  1  0.88458576  0.61541424  0.50000000  1
  B  B3  1  0.38458576  0.88458576  0.26917152  1
loop_
_geom_bond_atom_site_label_1
_geom_bond_atom_site_label_2
_geom_bond_distance
_geom_bond_site_symmetry_2
Si0 V2 2.454601 1_565
Si0 V7 2.454601 1_554
Si0 V5 2.454603 1_554
Si0 V4 2.454603 1_665
Si0 V3 2.454607 1_555
Si0 V1 2.454607 1_654
Si0 V0 2.454607 1_554
Si0 V6 2.454607 1_555
Si0 V8 2.686096 1_555
Si0 V9 2.686096 1_554
Ge0 V5 2.489282 1_555
Ge0 V4 2.489282 1_554
Ge0 V1 2.489285 1_554
Ge0 V0 2.489285 1_555
Ge0 V6 2.489285 1_444
Ge0 V3 2.489285 1_455
Ge0 V7 2.489286 1_544
Ge0 V2 2.489286 1_555
Ge0 V9 2.695731 1_554
Ge0 V8 2.695731 1_445
B0 B3 1.885924 1_545
B0 V0 2.215086 1_545
B0 V5 2.215093 1_555
B0 V6 2.232881 1_545
B0 V4 2.232887 1_555
B0 V3 2.290984 1_556
B0 V2 2.290988 1_556
B0 V8 2.319739 1_546
B0 V9 2.319739 1_555
B1 B2 1.885924 1_455
B1 V7 2.215088 1_555
B1 V2 2.215088 1_455
B1 V3 2.232881 1_455
B1 V1 2.232881 1_555
B1 V4 2.290985 1_555
B1 V5 2.290985 1_555
B1 V9 2.319740 1_555
B1 V8 2.319740 1_445
B2 V1 2.215087 1_655
B2 V3 2.215087 1_555
B2 V2 2.232886 1_555
B2 V7 2.232886 1_655
B2 V6 2.290984 1_555
B2 V0 2.290984 1_555
B2 V9 2.319740 1_554
B2 V8 2.319740 1_556
B3 V6 2.215087 1_555
B3 V4 2.215093 1_565
B3 V0 2.232881 1_555
B3 V5 2.232887 1_565
B3 V1 2.290984 1_554
B3 V7 2.290988 1_554
B3 V8 2.319739 1_455
B3 V9 2.319739 1_554
