# generated using pymatgen
data_Mg2Rh6C
_symmetry_space_group_name_H-M   'P 1'
_cell_length_a   5.56105789
_cell_length_b   5.56105819
_cell_length_c   5.56105774
_cell_angle_alpha   60.00000268
_cell_angle_beta   60.00000088
_cell_angle_gamma   60.00000238
_symmetry_Int_Tables_number   1
_chemical_formula_structural   Mg2Rh6C
_chemical_formula_sum   'Mg2 Rh6 C1'
_cell_volume   121.60663780
_cell_formula_units_Z   1
loop_
 _symmetry_equiv_pos_site_id
 _symmetry_equiv_pos_as_xyz
  1  'x, y, z'
loop_
 _atom_site_type_symbol
 _atom_site_label
 _atom_site_symmetry_multiplicity
 _atom_site_fract_x
 _atom_site_fract_y
 _atom_site_fract_z
 _atom_site_occupancy
  Mg  Mg0  1  0.25000000  0.25000000  0.25000000  1
  Mg  Mg1  1  0.75000000  0.75000000  0.75000000  1
  Rh  Rh0  1  0.75684517  0.75684517  0.24315383  1
  Rh  Rh1  1  0.75684517  0.24315383  0.24315383  1
  Rh  Rh2  1  0.24315383  0.75684517  0.24315383  1
  Rh  Rh3  1  0.24315383  0.24315383  0.75684517  1
  Rh  Rh4  1  0.75684517  0.24315383  0.75684517  1
  Rh  Rh5  1  0.24315383  0.75684517  0.75684517  1
  C  C0  1  0.50000000  0.50000000  0.50000000  1
loop_
_geom_bond_atom_site_label_1
_geom_bond_atom_site_label_2
_geom_bond_distance
_geom_bond_site_symmetry_2
Mg0 Rh3 2.781045 1_555
Mg0 Rh1 2.781045 1_555
Mg0 Rh2 2.781045 1_555
Mg0 Rh4 2.781050 1_455
Mg0 Rh4 2.781050 1_554
Mg0 Rh5 2.781050 1_545
Mg0 Rh5 2.781050 1_554
Mg0 Rh0 2.781050 1_545
Mg0 Rh0 2.781050 1_455
Mg0 Rh3 2.781056 1_554
Mg0 Rh1 2.781056 1_455
Mg0 Rh2 2.781056 1_545
Mg1 Rh0 2.781044 1_556
Mg1 Rh5 2.781044 1_655
Mg1 Rh4 2.781045 1_565
Mg1 Rh2 2.781050 1_655
Mg1 Rh2 2.781050 1_556
Mg1 Rh1 2.781050 1_565
Mg1 Rh1 2.781050 1_556
Mg1 Rh3 2.781050 1_565
Mg1 Rh3 2.781050 1_655
Mg1 Rh0 2.781056 1_555
Mg1 Rh5 2.781056 1_555
Mg1 Rh4 2.781056 1_555
C0 Rh5 2.019965 1_555
C0 Rh4 2.019965 1_555
C0 Rh0 2.019965 1_555
C0 Rh2 2.019973 1_555
C0 Rh1 2.019973 1_555
C0 Rh3 2.019973 1_555
