# generated using pymatgen
data_Hf5Nb(ReSi)6
_symmetry_space_group_name_H-M   'P 1'
_cell_length_a   7.68679874
_cell_length_b   7.68704464
_cell_length_c   7.68679885
_cell_angle_alpha   126.36676711
_cell_angle_beta   128.07779842
_cell_angle_gamma   77.89551513
_symmetry_Int_Tables_number   1
_chemical_formula_structural   Hf5Nb(ReSi)6
_chemical_formula_sum   'Hf5 Nb1 Re6 Si6'
_cell_volume   279.04750400
_cell_formula_units_Z   1
loop_
 _symmetry_equiv_pos_site_id
 _symmetry_equiv_pos_as_xyz
  1  'x, y, z'
loop_
 _atom_site_type_symbol
 _atom_site_label
 _atom_site_symmetry_multiplicity
 _atom_site_fract_x
 _atom_site_fract_y
 _atom_site_fract_z
 _atom_site_occupancy
  Hf  Hf0  1  0.55020097  0.09162741  0.04142643  1
  Hf  Hf1  1  0.45207391  0.49937989  0.54730698  1
  Hf  Hf2  1  0.94982450  0.49133016  0.04150566  1
  Hf  Hf3  1  0.04794419  0.09513197  0.54718879  1
  Hf  Hf4  1  0.75000492  0.89998458  0.64997966  1
  Nb  Nb0  1  0.25001706  0.90212600  0.15210894  1
  Re  Re0  1  0.49755643  0.24104351  0.73856573  1
  Re  Re1  1  0.00247778  0.24104351  0.24348708  1
  Re  Re2  1  0.12759706  0.75303012  0.62554204  1
  Re  Re3  1  0.87243706  0.49791421  0.62552518  1
  Re  Re4  1  0.62748908  0.75303012  0.12543307  1
  Re  Re5  1  0.37238903  0.49791421  0.12547715  1
  Si  Si0  1  0.74999639  0.49701432  0.24701793  1
  Si  Si1  1  0.24996264  0.49964111  0.74967847  1
  Si  Si2  1  0.33032134  0.82963538  0.49164689  1
  Si  Si3  1  0.66204112  0.16135755  0.49167853  1
  Si  Si4  1  0.83798749  0.82963538  0.99931404  1
  Si  Si5  1  0.16968002  0.16135755  0.99931743  1
loop_
_geom_bond_atom_site_label_1
_geom_bond_atom_site_label_2
_geom_bond_distance
_geom_bond_site_symmetry_2
Hf0 Si4 2.701128 1_544
Hf0 Si2 2.701134 1_544
Hf0 Si5 2.707037 1_554
Hf0 Si3 2.707042 1_555
Hf0 Si0 2.782125 1_555
Hf0 Re4 2.901044 1_545
Hf0 Re2 2.901045 1_544
Hf0 Re1 2.952411 1_655
Hf0 Re0 2.952411 1_554
Hf0 Re5 2.990928 1_555
Hf0 Re3 2.990928 1_555
Hf1 Si4 2.702146 1_555
Hf1 Si2 2.702154 1_555
Hf1 Si3 2.704481 1_555
Hf1 Si5 2.704481 1_554
Hf1 Si1 2.794539 1_555
Hf1 Re3 2.898103 1_555
Hf1 Re5 2.898107 1_555
Hf1 Re0 2.960457 1_555
Hf1 Re1 2.960461 1_555
Hf1 Re4 2.967216 1_556
Hf1 Re2 2.967222 1_555
Hf2 Si3 2.701447 1_554
Hf2 Si5 2.701451 1_654
Hf2 Si2 2.706634 1_655
Hf2 Si4 2.706635 1_554
Hf2 Si0 2.782067 1_555
Hf2 Re5 2.900676 1_655
Hf2 Re3 2.900676 1_554
Hf2 Re0 2.952417 1_554
Hf2 Re1 2.952417 1_655
Hf2 Re4 2.990719 1_555
Hf2 Re2 2.990725 1_655
Hf3 Si3 2.702510 1_455
Hf3 Si5 2.702510 1_555
Hf3 Si2 2.703843 1_545
Hf3 Si4 2.703846 1_444
Hf3 Si1 2.794113 1_555
Hf3 Re4 2.898517 1_445
Hf3 Re2 2.898517 1_545
Hf3 Re0 2.960487 1_555
Hf3 Re1 2.960491 1_555
Hf3 Re5 2.967878 1_556
Hf3 Re3 2.967881 1_455
Hf4 Si2 2.699836 1_555
Hf4 Si4 2.699840 1_555
Hf4 Si3 2.699893 1_565
Hf4 Si5 2.699897 1_665
Hf4 Si0 2.794822 1_555
Hf4 Re0 2.912366 1_565
Hf4 Re1 2.912367 1_666
Hf4 Re2 2.963363 1_655
Hf4 Re4 2.963367 1_555
Hf4 Re3 2.963609 1_555
Hf4 Re5 2.963609 1_555
Nb0 Si5 2.663926 1_564
Nb0 Si3 2.663930 1_565
Nb0 Si2 2.663967 1_555
Nb0 Si4 2.663974 1_454
Nb0 Si1 2.791137 1_554
Nb0 Re1 2.881108 1_565
Nb0 Re0 2.881108 1_565
Nb0 Re2 2.972383 1_554
Nb0 Re4 2.972390 1_555
Nb0 Re5 2.973009 1_555
Nb0 Re3 2.973009 1_454
Re0 Si1 2.448166 1_555
Re0 Si0 2.457458 1_556
Re0 Si3 2.613736 1_555
Re0 Si2 2.614106 1_545
Re1 Si1 2.448166 1_555
Re1 Si0 2.457458 1_455
Re1 Si5 2.613736 1_554
Re1 Si4 2.614108 1_444
Re2 Si1 2.432680 1_555
Re2 Si0 2.439614 1_455
Re2 Si5 2.606996 1_565
Re2 Si2 2.629876 1_555
Re3 Si1 2.432579 1_655
Re3 Si0 2.439734 1_555
Re3 Si4 2.606629 1_555
Re3 Si3 2.629275 1_555
Re4 Si1 2.432685 1_554
Re4 Si0 2.439614 1_555
Re4 Si3 2.606998 1_565
Re4 Si4 2.629862 1_554
Re5 Si1 2.432579 1_554
Re5 Si0 2.439734 1_555
Re5 Si2 2.606624 1_555
Re5 Si5 2.629275 1_554
