# generated using pymatgen
data_K2Te3PdO12
_symmetry_space_group_name_H-M   'P 1'
_cell_length_a   7.03554404
_cell_length_b   7.03554421
_cell_length_c   7.03735731
_cell_angle_alpha   61.47080084
_cell_angle_beta   61.47080003
_cell_angle_gamma   61.48171617
_symmetry_Int_Tables_number   1
_chemical_formula_structural   K2Te3PdO12
_chemical_formula_sum   'K2 Te3 Pd1 O12'
_cell_volume   254.46832082
_cell_formula_units_Z   1
loop_
 _symmetry_equiv_pos_site_id
 _symmetry_equiv_pos_as_xyz
  1  'x, y, z'
loop_
 _atom_site_type_symbol
 _atom_site_label
 _atom_site_symmetry_multiplicity
 _atom_site_fract_x
 _atom_site_fract_y
 _atom_site_fract_z
 _atom_site_occupancy
  K  K0  1  0.86549126  0.87716761  0.36941320  1
  K  K1  1  0.12283239  0.13450874  0.63058680  1
  Te  Te0  1  0.99611614  0.50395125  0.99998497  1
  Te  Te1  1  0.49604875  0.00388386  0.00001503  1
  Te  Te2  1  0.49609918  0.50390082  0.50000000  1
  Pd  Pd0  1  0.49624668  0.50375332  0.00000000  1
  O  O0  1  0.17485233  0.18263639  0.07241005  1
  O  O1  1  0.57651927  0.58358285  0.66561470  1
  O  O2  1  0.16186587  0.58390776  0.07999111  1
  O  O3  1  0.56870886  0.18251217  0.67878919  1
  O  O4  1  0.57650183  0.16941828  0.07971619  1
  O  O5  1  0.17489237  0.57611650  0.67880199  1
  O  O6  1  0.81736361  0.82514767  0.92758995  1
  O  O7  1  0.41641715  0.42348073  0.33438530  1
  O  O8  1  0.83058172  0.42349817  0.92028381  1
  O  O9  1  0.42388350  0.82510763  0.32119801  1
  O  O10  1  0.41609224  0.83813413  0.92000889  1
  O  O11  1  0.81748783  0.43129114  0.32121081  1
loop_
_geom_bond_atom_site_label_1
_geom_bond_atom_site_label_2
_geom_bond_distance
_geom_bond_site_symmetry_2
K0 O4 2.912271 1_565
K0 O1 2.931540 1_555
K0 O2 2.933014 1_655
K0 O0 3.091119 1_665
K0 O3 3.091455 1_565
K0 O5 3.112044 1_655
K1 O8 2.912271 1_455
K1 O7 2.931540 1_555
K1 O10 2.933014 1_545
K1 O6 3.091119 1_445
K1 O11 3.091455 1_455
K1 O9 3.112044 1_545
O0 Te1 1.935560 1_555
O0 Te0 1.936148 1_454
O1 Te2 1.884057 1_555
O1 Pd0 1.985661 1_556
O2 Te0 1.883996 1_454
O2 Pd0 1.985150 1_555
O3 Te1 1.935674 1_556
O3 Te2 1.936553 1_555
O4 Te1 1.883621 1_555
O4 Pd0 1.985036 1_555
O5 Te2 1.935592 1_555
O5 Te0 1.935625 1_455
O6 Te0 1.935560 1_555
O6 Te1 1.936148 1_566
O7 Te2 1.884057 1_555
O7 Pd0 1.985661 1_555
O8 Te0 1.883621 1_555
O8 Pd0 1.985036 1_556
O9 Te2 1.935592 1_555
O9 Te1 1.935625 1_565
O10 Te1 1.883996 1_566
O10 Pd0 1.985150 1_556
O11 Te0 1.935674 1_554
O11 Te2 1.936552 1_555
