# generated using pymatgen
data_NdCo4B
_symmetry_space_group_name_H-M   'P 1'
_cell_length_a   5.09960570
_cell_length_b   5.09960570
_cell_length_c   6.83572500
_cell_angle_alpha   90.00000000
_cell_angle_beta   90.00000000
_cell_angle_gamma   119.99999612
_symmetry_Int_Tables_number   1
_chemical_formula_structural   NdCo4B
_chemical_formula_sum   'Nd2 Co8 B2'
_cell_volume   153.95309614
_cell_formula_units_Z   2
loop_
 _symmetry_equiv_pos_site_id
 _symmetry_equiv_pos_as_xyz
  1  'x, y, z'
loop_
 _atom_site_type_symbol
 _atom_site_label
 _atom_site_symmetry_multiplicity
 _atom_site_fract_x
 _atom_site_fract_y
 _atom_site_fract_z
 _atom_site_occupancy
  Nd  Nd0  1  0.00000000  0.00000000  0.00000000  1
  Nd  Nd1  1  0.00000000  0.00000000  0.50000000  1
  Co  Co0  1  0.33333300  0.66666700  0.00000000  1
  Co  Co1  1  0.50000000  0.00000000  0.71052800  1
  Co  Co2  1  0.00000000  0.50000000  0.28947200  1
  Co  Co3  1  0.66666700  0.33333300  0.00000000  1
  Co  Co4  1  0.50000000  0.00000000  0.28947200  1
  Co  Co5  1  0.50000000  0.50000000  0.71052800  1
  Co  Co6  1  0.50000000  0.50000000  0.28947200  1
  Co  Co7  1  0.00000000  0.50000000  0.71052800  1
  B  B0  1  0.33333300  0.66666700  0.50000000  1
  B  B1  1  0.66666700  0.33333300  0.50000000  1
loop_
_geom_bond_atom_site_label_1
_geom_bond_atom_site_label_2
_geom_bond_distance
_geom_bond_site_symmetry_2
Co0 Co1 2.466296 1_564
Co0 Co7 2.466296 1_554
Co0 Co4 2.466296 1_565
Co0 Co2 2.466296 1_555
Co0 Co6 2.466299 1_555
Co0 Co5 2.466299 1_554
Co0 Nd0 2.944256 1_565
Co0 Nd0 2.944260 1_665
Co0 Nd0 2.944260 1_555
Co1 Co3 2.466296 1_556
Co1 Nd1 2.927889 1_655
Co1 Nd1 2.927889 1_555
Co1 Nd0 3.227530 1_556
Co1 Nd0 3.227530 1_656
Co2 Co3 2.466296 1_455
Co2 Nd1 2.927889 1_565
Co2 Nd1 2.927889 1_555
Co2 Nd0 3.227530 1_565
Co2 Nd0 3.227530 1_555
Co3 Co7 2.466296 1_654
Co3 Co4 2.466296 1_555
Co3 Co6 2.466299 1_555
Co3 Co5 2.466299 1_554
Co3 Nd0 2.944256 1_655
Co3 Nd0 2.944260 1_665
Co3 Nd0 2.944260 1_555
Co4 Nd1 2.927889 1_655
Co4 Nd1 2.927889 1_555
Co4 Nd0 3.227530 1_655
Co4 Nd0 3.227530 1_555
Co5 Nd1 2.927890 1_555
Co5 Nd1 2.927890 1_665
Co5 Nd0 3.227530 1_666
Co5 Nd0 3.227530 1_556
Co6 Nd1 2.927890 1_555
Co6 Nd1 2.927890 1_665
Co6 Nd0 3.227530 1_665
Co6 Nd0 3.227530 1_555
Co7 Nd1 2.927889 1_565
Co7 Nd1 2.927889 1_555
Co7 Nd0 3.227530 1_556
Co7 Nd0 3.227530 1_566
B0 Co4 2.058690 1_565
B0 Co2 2.058690 1_555
B0 Co1 2.058690 1_565
B0 Co7 2.058690 1_555
B0 Co5 2.058693 1_555
B0 Co6 2.058693 1_555
B0 Nd1 2.944256 1_565
B0 Nd1 2.944260 1_665
B0 Nd1 2.944260 1_555
B1 Co2 2.058690 1_655
B1 Co4 2.058690 1_555
B1 Co1 2.058690 1_555
B1 Co7 2.058690 1_655
B1 Co5 2.058693 1_555
B1 Co6 2.058693 1_555
B1 Nd1 2.944256 1_655
B1 Nd1 2.944260 1_665
B1 Nd1 2.944260 1_555
