# generated using pymatgen
data_CsLi6BiO6
_symmetry_space_group_name_H-M   'P 1'
_cell_length_a   5.50830501
_cell_length_b   5.50830598
_cell_length_c   5.50830578
_cell_angle_alpha   101.46434368
_cell_angle_beta   101.46432462
_cell_angle_gamma   101.46433852
_symmetry_Int_Tables_number   1
_chemical_formula_structural   CsLi6BiO6
_chemical_formula_sum   'Cs1 Li6 Bi1 O6'
_cell_volume   155.51002109
_cell_formula_units_Z   1
loop_
 _symmetry_equiv_pos_site_id
 _symmetry_equiv_pos_as_xyz
  1  'x, y, z'
loop_
 _atom_site_type_symbol
 _atom_site_label
 _atom_site_symmetry_multiplicity
 _atom_site_fract_x
 _atom_site_fract_y
 _atom_site_fract_z
 _atom_site_occupancy
  Cs  Cs0  1  0.50000000  0.50000000  0.50000000  1
  Li  Li0  1  0.65614149  0.34385651  0.99999800  1
  Li  Li1  1  0.34385451  0.65614349  0.99999900  1
  Li  Li2  1  0.65614249  1.00000000  0.34385451  1
  Li  Li3  1  0.99999900  0.65614349  0.34385451  1
  Li  Li4  1  0.99999800  0.34385651  0.65614149  1
  Li  Li5  1  0.34385451  0.00000000  0.65614249  1
  Bi  Bi0  1  0.00000000  0.00000000  0.00000000  1
  O  O0  1  0.72362289  0.72362289  0.09555705  1
  O  O1  1  0.27637611  0.90444295  0.27637611  1
  O  O2  1  0.90444295  0.27637711  0.27637611  1
  O  O3  1  0.09555705  0.72362289  0.72362289  1
  O  O4  1  0.72362289  0.09555605  0.72362289  1
  O  O5  1  0.27637611  0.27637711  0.90444295  1
loop_
_geom_bond_atom_site_label_1
_geom_bond_atom_site_label_2
_geom_bond_distance
_geom_bond_site_symmetry_2
Cs0 Li4 3.059223 1_555
Cs0 Li0 3.059223 1_555
Cs0 Li2 3.059233 1_545
Cs0 Li5 3.059234 1_555
Cs0 Li3 3.059235 1_555
Cs0 Li1 3.059235 1_555
Cs0 Li4 3.059238 1_455
Cs0 Li0 3.059238 1_554
Cs0 Li5 3.059239 1_565
Cs0 Li2 3.059239 1_555
Cs0 Li3 3.059241 1_455
Cs0 Li1 3.059241 1_554
Cs0 O3 3.094543 1_555
Cs0 O0 3.094544 1_555
Cs0 O2 3.094546 1_555
Cs0 O5 3.094546 1_555
Cs0 O4 3.094549 1_555
Cs0 O1 3.094549 1_555
Cs0 O4 3.159197 1_565
Cs0 O3 3.159201 1_655
Cs0 O0 3.159202 1_556
Cs0 O2 3.159202 1_455
Cs0 O5 3.159202 1_554
Cs0 O1 3.159203 1_545
Li0 O4 1.981347 1_555
Li0 O2 1.981356 1_556
Li0 O5 1.991621 1_555
Li0 O0 1.991626 1_556
Li1 O3 1.981336 1_555
Li1 O1 1.981343 1_556
Li1 O5 1.991627 1_555
Li1 O0 1.991637 1_556
Li2 O0 1.981342 1_555
Li2 O2 1.981346 1_565
Li2 O1 1.991627 1_555
Li2 O4 1.991637 1_565
Li3 O0 1.981336 1_555
Li3 O1 1.981343 1_655
Li3 O2 1.991627 1_555
Li3 O3 1.991638 1_655
Li4 O4 1.981347 1_555
Li4 O5 1.981356 1_655
Li4 O2 1.991621 1_555
Li4 O3 1.991626 1_655
Li5 O3 1.981342 1_545
Li5 O5 1.981346 1_555
Li5 O1 1.991627 1_545
Li5 O4 1.991637 1_555
Bi0 O1 2.151284 1_545
Bi0 O2 2.151287 1_455
Bi0 O5 2.151287 1_554
Bi0 O4 2.151288 1_454
Bi0 O3 2.151290 1_544
Bi0 O0 2.151291 1_445
