# generated using pymatgen
data_Cs2As2WO9
_symmetry_space_group_name_H-M   'P 1'
_cell_length_a   8.02115933
_cell_length_b   7.61017350
_cell_length_c   9.08806344
_cell_angle_alpha   109.75125694
_cell_angle_beta   102.48473927
_cell_angle_gamma   87.89340277
_symmetry_Int_Tables_number   1
_chemical_formula_structural   Cs2As2WO9
_chemical_formula_sum   'Cs4 As4 W2 O18'
_cell_volume   509.37610419
_cell_formula_units_Z   2
loop_
 _symmetry_equiv_pos_site_id
 _symmetry_equiv_pos_as_xyz
  1  'x, y, z'
loop_
 _atom_site_type_symbol
 _atom_site_label
 _atom_site_symmetry_multiplicity
 _atom_site_fract_x
 _atom_site_fract_y
 _atom_site_fract_z
 _atom_site_occupancy
  Cs  Cs0  1  0.93110718  0.25860146  0.65408890  1
  Cs  Cs1  1  0.18527802  0.82443189  0.87189445  1
  Cs  Cs2  1  0.06889282  0.74139854  0.34591110  1
  Cs  Cs3  1  0.81472198  0.17556811  0.12810555  1
  As  As0  1  0.32438011  0.35275933  0.09680598  1
  As  As1  1  0.67561989  0.64724067  0.90319402  1
  As  As2  1  0.66165842  0.82658179  0.63820090  1
  As  As3  1  0.33834158  0.17341821  0.36179910  1
  W  W0  1  0.43061469  0.23064103  0.74564113  1
  W  W1  1  0.56938531  0.76935897  0.25435887  1
  O  O0  1  0.71966364  0.95706531  0.34250839  1
  O  O1  1  0.48468637  0.22896059  0.54112260  1
  O  O2  1  0.29780534  0.42048110  0.77208080  1
  O  O3  1  0.70219466  0.57951890  0.22791920  1
  O  O4  1  0.64228616  0.05122604  0.75238657  1
  O  O5  1  0.34551746  0.58644458  0.14911515  1
  O  O6  1  0.51531363  0.77103941  0.45887740  1
  O  O7  1  0.57090472  0.68998032  0.72620726  1
  O  O8  1  0.35771384  0.94877396  0.24761343  1
  O  O9  1  0.12619390  0.26758085  0.03106103  1
  O  O10  1  0.87380610  0.73241915  0.96893897  1
  O  O11  1  0.85894645  0.77455914  0.62069040  1
  O  O12  1  0.45406830  0.23309011  0.97062418  1
  O  O13  1  0.42909528  0.31001968  0.27379274  1
  O  O14  1  0.28033636  0.04293469  0.65749161  1
  O  O15  1  0.65448254  0.41355542  0.85088485  1
  O  O16  1  0.14105355  0.22544086  0.37930960  1
  O  O17  1  0.54593170  0.76690989  0.02937582  1
loop_
_geom_bond_atom_site_label_1
_geom_bond_atom_site_label_2
_geom_bond_distance
_geom_bond_site_symmetry_2
Cs0 O2 3.054323 1_655
Cs0 O15 3.100089 1_555
Cs0 O0 3.158885 1_545
Cs0 O14 3.193806 1_655
Cs0 O16 3.239860 1_655
Cs0 O4 3.282088 1_555
Cs0 O9 3.423770 1_656
Cs0 O1 3.498644 1_555
Cs0 O11 3.649864 1_545
Cs1 O10 3.001445 1_455
Cs1 O11 3.018491 1_455
Cs1 O17 3.024710 1_556
Cs1 O2 3.058287 1_555
Cs1 O14 3.173097 1_565
Cs1 O8 3.215301 1_556
Cs1 O9 3.251484 1_566
Cs2 O3 3.054323 1_455
Cs2 O5 3.100089 1_555
Cs2 O14 3.158885 1_565
Cs2 O0 3.193806 1_455
Cs2 O11 3.239860 1_455
Cs2 O8 3.282088 1_555
Cs2 O10 3.423770 1_454
Cs2 O6 3.498644 1_555
Cs2 O16 3.649864 1_565
Cs3 O9 3.001445 1_655
Cs3 O16 3.018491 1_655
Cs3 O12 3.024710 1_554
Cs3 O3 3.058287 1_555
Cs3 O0 3.173097 1_545
Cs3 O4 3.215301 1_554
Cs3 O10 3.251484 1_544
As0 O9 1.645480 1_555
As0 O5 1.683245 1_555
As0 O12 1.722440 1_554
As0 O13 1.774215 1_555
As1 O10 1.645480 1_555
As1 O15 1.683245 1_555
As1 O17 1.722440 1_556
As1 O7 1.774215 1_555
As2 O11 1.645157 1_555
As2 O4 1.695531 1_565
As2 O6 1.719393 1_555
As2 O7 1.766241 1_555
As3 O16 1.645157 1_555
As3 O8 1.695531 1_545
As3 O1 1.719393 1_555
As3 O13 1.766241 1_555
O0 W1 1.752415 1_555
O1 W0 1.993747 1_555
O2 W0 1.744326 1_555
O3 W1 1.744326 1_555
O4 W0 2.142862 1_555
O5 W1 2.149024 1_555
O6 W1 1.993747 1_555
O8 W1 2.142862 1_555
O12 W0 2.006132 1_555
O14 W0 1.752415 1_555
O15 W0 2.149024 1_555
O17 W1 2.006132 1_555
