# generated using pymatgen
data_Nd(ClO4)3
_symmetry_space_group_name_H-M   'P 1'
_cell_length_a   9.26303705
_cell_length_b   9.26304418
_cell_length_c   5.84173558
_cell_angle_alpha   90.00003511
_cell_angle_beta   89.99996294
_cell_angle_gamma   120.00015394
_symmetry_Int_Tables_number   1
_chemical_formula_structural   Nd(ClO4)3
_chemical_formula_sum   'Nd2 Cl6 O24'
_cell_volume   434.08920878
_cell_formula_units_Z   2
loop_
 _symmetry_equiv_pos_site_id
 _symmetry_equiv_pos_as_xyz
  1  'x, y, z'
loop_
 _atom_site_type_symbol
 _atom_site_label
 _atom_site_symmetry_multiplicity
 _atom_site_fract_x
 _atom_site_fract_y
 _atom_site_fract_z
 _atom_site_occupancy
  Nd  Nd0  1  0.66666635  0.33333424  0.75000012  1
  Nd  Nd1  1  0.33333365  0.66666590  0.25000013  1
  Cl  Cl0  1  0.61568224  0.70878721  0.74999996  1
  Cl  Cl1  1  0.90689769  0.61568586  0.25000022  1
  Cl  Cl2  1  0.70878565  0.09310376  0.24999964  1
  Cl  Cl3  1  0.29121313  0.90689410  0.74999918  1
  Cl  Cl4  1  0.09310585  0.38432075  0.74999978  1
  Cl  Cl5  1  0.38431878  0.29121318  0.25000060  1
  O  O0  1  0.79012375  0.80513570  0.74999976  1
  O  O1  1  0.98498720  0.79012204  0.25000034  1
  O  O2  1  0.80513566  0.01501396  0.24999902  1
  O  O3  1  0.19486300  0.98498483  0.75000024  1
  O  O4  1  0.01501155  0.20987532  0.75000047  1
  O  O5  1  0.20987666  0.19486384  0.25000075  1
  O  O6  1  0.45311527  0.25387733  0.05008598  1
  O  O7  1  0.19923748  0.45311568  0.55008585  1
  O  O8  1  0.44361005  0.46920101  0.25000050  1
  O  O9  1  0.97440886  0.44360967  0.75000060  1
  O  O10  1  0.46920189  0.02559348  0.74999940  1
  O  O11  1  0.53079668  0.97440529  0.24999972  1
  O  O12  1  0.02559258  0.55639172  0.25000012  1
  O  O13  1  0.55639086  0.53079916  0.75000067  1
  O  O14  1  0.45311526  0.25387745  0.44991460  1
  O  O15  1  0.19923816  0.45311634  0.94991359  1
  O  O16  1  0.25388110  0.80076230  0.94991359  1
  O  O17  1  0.74611786  0.19923683  0.44991423  1
  O  O18  1  0.80076280  0.54688519  0.44991470  1
  O  O19  1  0.54688612  0.74612263  0.94991479  1
  O  O20  1  0.54688485  0.74612199  0.55008639  1
  O  O21  1  0.80076262  0.54688509  0.05008583  1
  O  O22  1  0.74611757  0.19923634  0.05008429  1
  O  O23  1  0.25387881  0.80076182  0.55008495  1
loop_
_geom_bond_atom_site_label_1
_geom_bond_atom_site_label_2
_geom_bond_distance
_geom_bond_site_symmetry_2
Nd0 O22 2.464107 1_556
Nd0 O17 2.464111 1_555
Nd0 O14 2.464116 1_555
Nd0 O6 2.464116 1_556
Nd0 O21 2.464116 1_556
Nd0 O18 2.464116 1_555
Nd0 O10 2.501510 1_555
Nd0 O13 2.501514 1_555
Nd0 O9 2.501526 1_555
Nd1 O15 2.464112 1_554
Nd1 O7 2.464114 1_555
Nd1 O23 2.464114 1_555
Nd1 O16 2.464114 1_554
Nd1 O20 2.464120 1_555
Nd1 O19 2.464122 1_554
Nd1 O11 2.501498 1_555
Nd1 O12 2.501516 1_555
Nd1 O8 2.501520 1_555
Cl0 O0 1.401924 1_555
Cl0 O20 1.452572 1_555
Cl0 O19 1.452573 1_555
Cl0 O13 1.454092 1_555
Cl1 O1 1.401883 1_555
Cl1 O18 1.452589 1_555
Cl1 O21 1.452590 1_555
Cl1 O12 1.454097 1_655
Cl2 O2 1.401915 1_555
Cl2 O17 1.452583 1_555
Cl2 O22 1.452585 1_555
Cl2 O11 1.454099 1_545
Cl3 O3 1.401924 1_555
Cl3 O23 1.452575 1_555
Cl3 O16 1.452576 1_555
Cl3 O10 1.454099 1_565
Cl4 O4 1.401957 1_555
Cl4 O7 1.452567 1_555
Cl4 O15 1.452570 1_555
Cl4 O9 1.454079 1_455
Cl5 O5 1.401929 1_555
Cl5 O14 1.452574 1_555
Cl5 O6 1.452576 1_555
Cl5 O8 1.454090 1_555
