# generated using pymatgen
data_Sr2Zn25Ni
_symmetry_space_group_name_H-M   'P 1'
_cell_length_a   8.53338437
_cell_length_b   8.53338727
_cell_length_c   8.53339305
_cell_angle_alpha   59.99996786
_cell_angle_beta   59.99997008
_cell_angle_gamma   60.00001249
_symmetry_Int_Tables_number   1
_chemical_formula_structural   Sr2Zn25Ni
_chemical_formula_sum   'Sr2 Zn25 Ni1'
_cell_volume   439.38917443
_cell_formula_units_Z   1
loop_
 _symmetry_equiv_pos_site_id
 _symmetry_equiv_pos_as_xyz
  1  'x, y, z'
loop_
 _atom_site_type_symbol
 _atom_site_label
 _atom_site_symmetry_multiplicity
 _atom_site_fract_x
 _atom_site_fract_y
 _atom_site_fract_z
 _atom_site_occupancy
  Sr  Sr0  1  0.25000000  0.25000000  0.25000000  1
  Sr  Sr1  1  0.75000000  0.75000000  0.75000000  1
  Zn  Zn0  1  0.93812868  0.29142187  0.06187132  1
  Zn  Zn1  1  0.55636385  0.44363615  0.19755291  1
  Zn  Zn2  1  0.06187132  0.93812868  0.29142187  1
  Zn  Zn3  1  0.29142187  0.06187032  0.93812868  1
  Zn  Zn4  1  0.70857713  0.29142187  0.93812968  1
  Zn  Zn5  1  0.19755291  0.55636385  0.44363615  1
  Zn  Zn6  1  0.93812868  0.06187132  0.70857813  1
  Zn  Zn7  1  0.19755291  0.44363615  0.80244709  1
  Zn  Zn8  1  0.93812868  0.70857813  0.29142187  1
  Zn  Zn9  1  0.44363615  0.19755291  0.55636385  1
  Zn  Zn10  1  0.55636385  0.80244709  0.44363615  1
  Zn  Zn11  1  0.44363615  0.80244709  0.19755291  1
  Zn  Zn12  1  0.19755291  0.80244709  0.55636385  1
  Zn  Zn13  1  0.70857813  0.93812968  0.06187132  1
  Zn  Zn14  1  0.29142287  0.93812868  0.70857713  1
  Zn  Zn15  1  0.80244709  0.19755291  0.44363615  1
  Zn  Zn16  1  0.55636385  0.19755291  0.80244709  1
  Zn  Zn17  1  0.06187132  0.29142187  0.70857813  1
  Zn  Zn18  1  0.80244709  0.44363615  0.55636385  1
  Zn  Zn19  1  0.70857713  0.06187132  0.29142287  1
  Zn  Zn20  1  0.80244709  0.55636385  0.19755291  1
  Zn  Zn21  1  0.29142287  0.70857813  0.06187032  1
  Zn  Zn22  1  0.44363615  0.55636385  0.80244709  1
  Zn  Zn23  1  0.06187132  0.70857813  0.93812868  1
  Zn  Zn24  1  0.50000000  0.50000000  0.50000000  1
  Ni  Ni0  1  0.00000000  0.00000000  0.00000000  1
loop_
_geom_bond_atom_site_label_1
_geom_bond_atom_site_label_2
_geom_bond_distance
_geom_bond_site_symmetry_2
Sr0 Zn15 3.489350 1_455
Sr0 Zn1 3.489351 1_555
Sr0 Zn12 3.489351 1_545
Sr0 Zn22 3.489351 1_554
Sr0 Zn20 3.489352 1_455
Sr0 Zn18 3.489352 1_455
Sr0 Zn10 3.489353 1_545
Sr0 Zn11 3.489353 1_545
Sr0 Zn16 3.489353 1_554
Sr0 Zn5 3.489354 1_555
Sr0 Zn9 3.489354 1_555
Sr0 Zn7 3.489354 1_554
Sr0 Zn4 3.542455 1_554
Sr0 Zn19 3.542460 1_555
Sr0 Zn13 3.542461 1_545
Sr0 Zn14 3.542461 1_545
Sr0 Zn6 3.542463 1_455
Sr0 Zn2 3.542464 1_545
Sr0 Zn23 3.542465 1_554
Sr0 Zn0 3.542465 1_455
Sr0 Zn8 3.542465 1_455
Sr0 Zn21 3.542466 1_555
Sr0 Zn17 3.542467 1_555
Sr0 Zn3 3.542474 1_554
Sr1 Zn12 3.489350 1_655
Sr1 Zn22 3.489351 1_555
Sr1 Zn15 3.489351 1_565
Sr1 Zn1 3.489351 1_556
Sr1 Zn7 3.489352 1_655
Sr1 Zn5 3.489352 1_655
Sr1 Zn9 3.489353 1_565
Sr1 Zn16 3.489353 1_565
Sr1 Zn11 3.489353 1_556
Sr1 Zn18 3.489354 1_555
Sr1 Zn10 3.489354 1_555
Sr1 Zn20 3.489354 1_556
Sr1 Zn21 3.542455 1_556
Sr1 Zn14 3.542460 1_555
Sr1 Zn3 3.542461 1_565
Sr1 Zn19 3.542461 1_565
Sr1 Zn2 3.542463 1_655
Sr1 Zn6 3.542464 1_565
Sr1 Zn0 3.542465 1_556
Sr1 Zn23 3.542465 1_655
Sr1 Zn17 3.542465 1_655
Sr1 Zn4 3.542466 1_555
Sr1 Zn8 3.542467 1_555
Sr1 Zn13 3.542474 1_556
Zn0 Zn20 2.540082 1_555
Zn0 Zn7 2.566692 1_654
Zn0 Zn2 2.649625 1_645
Zn0 Zn17 2.649627 1_654
Zn0 Zn4 2.649627 1_554
Zn0 Zn3 2.649628 1_654
Zn0 Zn1 2.672288 1_555
Zn0 Zn15 2.672290 1_555
Zn0 Zn19 2.770227 1_555
Zn1 Zn21 2.540079 1_555
Zn1 Zn4 2.566689 1_554
Zn1 Zn24 2.625334 1_555
Zn1 Zn19 2.672288 1_555
Zn1 Zn20 2.712018 1_555
Zn1 Zn9 2.712018 1_555
Zn1 Zn5 2.712018 1_555
Zn1 Zn11 2.712019 1_555
Zn1 Zn15 2.969741 1_555
Zn2 Zn3 2.649623 1_564
Zn2 Zn8 2.649625 1_455
Zn2 Zn5 2.672289 1_555
Zn2 Zn21 2.770231 1_555
Zn3 Zn9 2.672289 1_555
Zn3 Zn7 2.672296 1_555
Zn4 Zn6 2.770231 1_555
Zn5 Zn8 2.566694 1_455
Zn5 Zn9 2.712019 1_555
Zn5 Zn7 2.712020 1_555
Zn7 Zn9 2.969742 1_555
Zn10 Zn14 2.540074 1_555
Zn10 Zn19 2.566688 1_565
Zn10 Zn24 2.625332 1_555
Zn10 Zn8 2.672288 1_555
Zn10 Zn13 2.672289 1_555
Zn10 Zn12 2.712017 1_555
Zn10 Zn22 2.712018 1_555
Zn10 Zn18 2.712019 1_555
Zn10 Zn11 2.712020 1_555
Zn10 Zn20 2.969742 1_555
Zn11 Zn13 2.540085 1_555
Zn11 Zn3 2.566693 1_564
Zn11 Zn24 2.625333 1_555
Zn11 Zn2 2.672288 1_555
Zn11 Zn21 2.672289 1_555
Zn11 Zn20 2.712018 1_555
Zn11 Zn12 2.712019 1_555
Zn11 Zn5 2.969738 1_555
Zn12 Zn2 2.540082 1_555
Zn12 Zn6 2.566694 1_465
Zn12 Zn24 2.625333 1_555
Zn12 Zn14 2.672289 1_555
Zn12 Zn23 2.672290 1_555
Zn12 Zn7 2.712018 1_555
Zn12 Zn5 2.712019 1_555
Zn12 Zn22 2.969741 1_555
Zn13 Zn16 2.566693 1_564
Zn13 Zn4 2.649615 1_564
Zn13 Zn6 2.649623 1_564
Zn13 Zn19 2.649624 1_565
Zn13 Zn23 2.649628 1_654
Zn13 Zn20 2.672296 1_555
Zn13 Zn8 2.770224 1_555
Zn14 Zn9 2.566688 1_565
Zn14 Zn3 2.649624 1_565
Zn14 Zn21 2.649626 1_556
Zn14 Zn17 2.649629 1_565
Zn14 Zn6 2.649630 1_465
Zn14 Zn22 2.672288 1_555
Zn14 Zn23 2.770227 1_555
Zn15 Zn6 2.540082 1_555
Zn15 Zn2 2.566694 1_645
Zn15 Zn24 2.625333 1_555
Zn15 Zn19 2.672289 1_555
Zn15 Zn9 2.712017 1_555
Zn15 Zn20 2.712018 1_555
Zn15 Zn16 2.712019 1_555
Zn15 Zn18 2.712019 1_555
Zn16 Zn3 2.540085 1_555
Zn16 Zn24 2.625333 1_555
Zn16 Zn6 2.672288 1_555
Zn16 Zn4 2.672289 1_555
Zn16 Zn7 2.712018 1_555
Zn16 Zn22 2.712019 1_555
Zn16 Zn9 2.712020 1_555
Zn16 Zn18 2.969738 1_555
Zn17 Zn5 2.540079 1_555
Zn17 Zn18 2.566694 1_455
Zn17 Zn6 2.649625 1_455
Zn17 Zn4 2.649632 1_455
Zn17 Zn9 2.672288 1_555
Zn17 Zn7 2.672289 1_555
Zn17 Zn3 2.770224 1_555
Zn18 Zn8 2.540079 1_555
Zn18 Zn24 2.625332 1_555
Zn18 Zn6 2.672289 1_555
Zn18 Zn4 2.672296 1_555
Zn18 Zn22 2.712018 1_555
Zn18 Zn20 2.712020 1_555
Zn19 Zn9 2.540074 1_555
Zn19 Zn4 2.649626 1_554
Zn19 Zn8 2.649629 1_545
Zn19 Zn2 2.649630 1_645
Zn20 Zn23 2.566692 1_654
Zn20 Zn24 2.625331 1_555
Zn20 Zn8 2.672289 1_555
Zn21 Zn22 2.566689 1_554
Zn21 Zn3 2.649615 1_564
Zn21 Zn23 2.649627 1_554
Zn21 Zn8 2.649632 1_455
Zn21 Zn5 2.672296 1_555
Zn22 Zn4 2.540079 1_555
Zn22 Zn24 2.625334 1_555
Zn22 Zn23 2.672288 1_555
Zn22 Zn7 2.712018 1_555
Zn23 Zn7 2.540082 1_555
Zn23 Zn6 2.649625 1_465
Zn23 Zn8 2.649627 1_456
Zn24 Zn7 2.625331 1_555
Zn24 Zn9 2.625332 1_555
Zn24 Zn5 2.625332 1_555
Ni0 Zn3 2.542238 1_554
Ni0 Zn13 2.542238 1_445
Ni0 Zn17 2.542244 1_554
Ni0 Zn8 2.542244 1_445
Ni0 Zn0 2.542245 1_455
Ni0 Zn23 2.542245 1_544
Ni0 Zn2 2.542246 1_545
Ni0 Zn6 2.542246 1_454
Ni0 Zn21 2.542248 1_545
Ni0 Zn4 2.542248 1_454
Ni0 Zn19 2.542253 1_455
Ni0 Zn14 2.542253 1_544
