# generated using pymatgen
data_ScNiSb
_symmetry_space_group_name_H-M   'P 1'
_cell_length_a   4.30119025
_cell_length_b   4.30118933
_cell_length_c   4.30118992
_cell_angle_alpha   60.00000327
_cell_angle_beta   60.00001036
_cell_angle_gamma   59.99999986
_symmetry_Int_Tables_number   1
_chemical_formula_structural   ScNiSb
_chemical_formula_sum   'Sc1 Ni1 Sb1'
_cell_volume   56.26662651
_cell_formula_units_Z   1
loop_
 _symmetry_equiv_pos_site_id
 _symmetry_equiv_pos_as_xyz
  1  'x, y, z'
loop_
 _atom_site_type_symbol
 _atom_site_label
 _atom_site_symmetry_multiplicity
 _atom_site_fract_x
 _atom_site_fract_y
 _atom_site_fract_z
 _atom_site_occupancy
  Sc  Sc0  1  0.50000000  0.50000000  0.50000000  1
  Ni  Ni0  1  0.25000000  0.25000000  0.25000000  1
  Sb  Sb0  1  -0.00000000  -0.00000000  -0.00000000  1
loop_
_geom_bond_atom_site_label_1
_geom_bond_atom_site_label_2
_geom_bond_distance
_geom_bond_site_symmetry_2
Ni0 Sb0 2.633930 1_565
Ni0 Sc0 2.633930 1_545
Ni0 Sb0 2.633930 1_555
Ni0 Sc0 2.633930 1_555
Ni0 Sc0 2.633930 1_554
Ni0 Sb0 2.633930 1_556
Ni0 Sc0 2.633931 1_455
Ni0 Sb0 2.633931 1_655
Sb0 Sc0 3.041401 1_454
Sb0 Sc0 3.041401 1_544
Sb0 Sc0 3.041401 1_545
Sb0 Sc0 3.041401 1_455
Sb0 Sc0 3.041401 1_554
Sb0 Sc0 3.041401 1_445
