# generated using pymatgen
data_Ba4Si3Br2
_symmetry_space_group_name_H-M   'P 1'
_cell_length_a   8.94887462
_cell_length_b   8.90012166
_cell_length_c   15.20728866
_cell_angle_alpha   78.02265050
_cell_angle_beta   90.00000000
_cell_angle_gamma   90.00000000
_symmetry_Int_Tables_number   1
_chemical_formula_structural   Ba4Si3Br2
_chemical_formula_sum   'Ba16 Si12 Br8'
_cell_volume   1184.83263534
_cell_formula_units_Z   4
loop_
 _symmetry_equiv_pos_site_id
 _symmetry_equiv_pos_as_xyz
  1  'x, y, z'
loop_
 _atom_site_type_symbol
 _atom_site_label
 _atom_site_symmetry_multiplicity
 _atom_site_fract_x
 _atom_site_fract_y
 _atom_site_fract_z
 _atom_site_occupancy
  Ba  Ba0  1  0.71091512  0.52095046  0.95581907  1
  Ba  Ba1  1  0.21091512  0.97904954  0.04418093  1
  Ba  Ba2  1  0.28908488  0.47904954  0.04418093  1
  Ba  Ba3  1  0.78908488  0.02095046  0.95581907  1
  Ba  Ba4  1  0.66206488  0.73392022  0.33152450  1
  Ba  Ba5  1  0.16206488  0.76607978  0.66847550  1
  Ba  Ba6  1  0.33793512  0.26607978  0.66847550  1
  Ba  Ba7  1  0.83793512  0.23392022  0.33152450  1
  Ba  Ba8  1  0.06039565  0.37163464  0.85294592  1
  Ba  Ba9  1  0.56039565  0.12836536  0.14705408  1
  Ba  Ba10  1  0.93960435  0.62836536  0.14705408  1
  Ba  Ba11  1  0.43960435  0.87163464  0.85294592  1
  Ba  Ba12  1  0.67767262  0.61932417  0.65156293  1
  Ba  Ba13  1  0.17767262  0.88067583  0.34843707  1
  Ba  Ba14  1  0.32232738  0.38067583  0.34843707  1
  Ba  Ba15  1  0.82232738  0.11932417  0.65156293  1
  Si  Si0  1  0.06285821  0.74086731  0.91158985  1
  Si  Si1  1  0.56285821  0.75913269  0.08841015  1
  Si  Si2  1  0.93714179  0.25913269  0.08841015  1
  Si  Si3  1  0.43714179  0.24086731  0.91158985  1
  Si  Si4  1  0.43298519  0.49154609  0.81430428  1
  Si  Si5  1  0.93298519  0.00845391  0.18569572  1
  Si  Si6  1  0.56701481  0.50845391  0.18569572  1
  Si  Si7  1  0.06701481  0.99154609  0.81430428  1
  Si  Si8  1  0.63032014  0.30403210  0.80125295  1
  Si  Si9  1  0.13032014  0.19596790  0.19874705  1
  Si  Si10  1  0.36967986  0.69596790  0.19874705  1
  Si  Si11  1  0.86967986  0.80403210  0.80125295  1
  Br  Br0  1  0.36023200  0.63391684  0.50749351  1
  Br  Br1  1  0.86023200  0.86608316  0.49250649  1
  Br  Br2  1  0.63976800  0.36608316  0.49250649  1
  Br  Br3  1  0.13976800  0.13391684  0.50749351  1
  Br  Br4  1  0.49348739  0.94808695  0.63483903  1
  Br  Br5  1  0.99348739  0.55191305  0.36516097  1
  Br  Br6  1  0.50651261  0.05191305  0.36516097  1
  Br  Br7  1  0.00651261  0.44808695  0.63483903  1
loop_
_geom_bond_atom_site_label_1
_geom_bond_atom_site_label_2
_geom_bond_distance
_geom_bond_site_symmetry_2
Ba0 Si4 3.334600 1_555
Ba0 Si11 3.381317 1_555
Ba0 Si2 3.412319 1_556
Ba0 Si8 3.414068 1_555
Ba0 Si1 3.476922 1_556
Ba0 Si3 3.655754 1_555
Ba0 Si0 3.695440 1_655
Ba0 Si6 3.705389 1_556
Ba1 Si5 3.334600 1_465
Ba1 Si10 3.381317 1_555
Ba1 Si3 3.412319 1_564
Ba1 Si9 3.414068 1_565
Ba1 Si0 3.476922 1_554
Ba1 Si2 3.655754 1_465
Ba1 Si1 3.695440 1_555
Ba1 Si7 3.705389 1_554
Ba2 Si6 3.334600 1_555
Ba2 Si9 3.381317 1_555
Ba2 Si0 3.412319 1_554
Ba2 Si10 3.414068 1_555
Ba2 Si3 3.476922 1_554
Ba2 Si1 3.655754 1_555
Ba2 Si2 3.695440 1_455
Ba2 Si4 3.705389 1_554
Ba3 Si7 3.334600 1_645
Ba3 Si8 3.381317 1_555
Ba3 Si1 3.412319 1_546
Ba3 Si11 3.414068 1_545
Ba3 Si2 3.476922 1_556
Ba3 Si0 3.655754 1_645
Ba3 Si3 3.695440 1_555
Ba3 Si5 3.705389 1_556
Ba4 Br6 3.287875 1_565
Ba4 Si10 3.364587 1_555
Ba4 Br5 3.367208 1_555
Ba4 Si6 3.393421 1_555
Ba4 Br1 3.422985 1_555
Ba4 Br2 3.663917 1_555
Ba4 Si1 3.763351 1_555
Ba4 Br0 3.776296 1_555
Ba4 Si5 3.810121 1_565
Ba5 Br7 3.287875 1_555
Ba5 Si11 3.364587 1_455
Ba5 Br4 3.367208 1_555
Ba5 Si7 3.393421 1_555
Ba5 Br0 3.422985 1_555
Ba5 Br3 3.663917 1_565
Ba5 Si0 3.763351 1_555
Ba5 Br1 3.776296 1_455
Ba5 Si4 3.810121 1_555
Ba6 Br4 3.287875 1_545
Ba6 Si8 3.364587 1_555
Ba6 Br7 3.367208 1_555
Ba6 Si4 3.393421 1_555
Ba6 Br3 3.422985 1_555
Ba6 Br0 3.663917 1_555
Ba6 Si3 3.763351 1_555
Ba6 Br2 3.776296 1_555
Ba6 Si7 3.810121 1_545
Ba7 Br5 3.287875 1_555
Ba7 Si9 3.364587 1_655
Ba7 Br6 3.367208 1_555
Ba7 Si5 3.393421 1_555
Ba7 Br2 3.422985 1_555
Ba7 Br1 3.663917 1_545
Ba7 Si2 3.763351 1_555
Ba7 Br3 3.776296 1_655
Ba7 Si6 3.810121 1_555
Ba8 Br7 3.280250 1_555
Ba8 Si4 3.513013 1_555
Ba8 Si7 3.552106 1_545
Ba8 Si0 3.579304 1_555
Ba8 Si3 3.617427 1_555
Ba8 Si2 3.681435 1_456
Ba9 Br6 3.280250 1_555
Ba9 Si5 3.513013 1_555
Ba9 Si6 3.552106 1_555
Ba9 Si1 3.579304 1_545
Ba9 Si2 3.617427 1_555
Ba9 Si3 3.681435 1_554
Ba10 Br5 3.280250 1_555
Ba10 Si6 3.513013 1_555
Ba10 Si5 3.552106 1_565
Ba10 Si2 3.579304 1_555
Ba10 Si1 3.617427 1_555
Ba10 Si0 3.681435 1_654
Ba11 Br4 3.280250 1_555
Ba11 Si7 3.513013 1_555
Ba11 Si4 3.552106 1_555
Ba11 Si3 3.579304 1_565
Ba11 Si0 3.617427 1_555
Ba11 Si1 3.681435 1_556
Ba12 Si8 3.253399 1_555
Ba12 Br4 3.321775 1_555
Ba12 Si4 3.323364 1_555
Ba12 Br1 3.337374 1_555
Ba12 Br7 3.347834 1_655
Ba12 Si11 3.519938 1_555
Ba12 Br0 3.573320 1_555
Ba12 Br2 3.648071 1_555
Ba13 Si9 3.253399 1_565
Ba13 Br5 3.321775 1_455
Ba13 Si5 3.323364 1_465
Ba13 Br0 3.337374 1_555
Ba13 Br6 3.347834 1_565
Ba13 Si10 3.519938 1_555
Ba13 Br1 3.573320 1_455
Ba13 Br3 3.648071 1_565
Ba14 Si10 3.253399 1_555
Ba14 Br6 3.321775 1_555
Ba14 Si6 3.323364 1_555
Ba14 Br3 3.337374 1_555
Ba14 Br5 3.347834 1_455
Ba14 Si9 3.519938 1_555
Ba14 Br2 3.573320 1_555
Ba14 Br0 3.648071 1_555
Ba15 Si11 3.253399 1_545
Ba15 Br7 3.321775 1_655
Ba15 Si7 3.323364 1_645
Ba15 Br2 3.337374 1_555
Ba15 Br4 3.347834 1_545
Ba15 Si8 3.519938 1_555
Ba15 Br3 3.573320 1_655
Ba15 Br1 3.648071 1_545
Si0 Si11 2.393421 1_455
Si0 Si7 2.407874 1_555
Si1 Si10 2.393421 1_555
Si1 Si6 2.407874 1_555
Si2 Si9 2.393421 1_655
Si2 Si5 2.407874 1_555
Si3 Si8 2.393421 1_555
Si3 Si4 2.407874 1_555
Si4 Si8 2.465884 1_555
Si5 Si9 2.465884 1_655
Si10 Si6 2.465884 1_555
Si11 Si7 2.465884 1_655
