# generated using pymatgen
data_PPtCl9
_symmetry_space_group_name_H-M   'P 1'
_cell_length_a   6.91998068
_cell_length_b   9.05205713
_cell_length_c   9.50113953
_cell_angle_alpha   101.44135701
_cell_angle_beta   95.61150904
_cell_angle_gamma   95.43384716
_symmetry_Int_Tables_number   1
_chemical_formula_structural   PPtCl9
_chemical_formula_sum   'P2 Pt2 Cl18'
_cell_volume   576.54495884
_cell_formula_units_Z   2
loop_
 _symmetry_equiv_pos_site_id
 _symmetry_equiv_pos_as_xyz
  1  'x, y, z'
loop_
 _atom_site_type_symbol
 _atom_site_label
 _atom_site_symmetry_multiplicity
 _atom_site_fract_x
 _atom_site_fract_y
 _atom_site_fract_z
 _atom_site_occupancy
  P  P0  1  0.55143949  0.18789065  0.77934964  1
  P  P1  1  0.44856051  0.81210935  0.22065036  1
  Pt  Pt0  1  0.89219699  0.37380019  0.33722166  1
  Pt  Pt1  1  0.10780301  0.62619981  0.66277934  1
  Cl  Cl0  1  0.65935828  0.89406201  0.12681821  1
  Cl  Cl1  1  0.34064172  0.10593799  0.87318179  1
  Cl  Cl2  1  0.21124935  0.48221591  0.45053146  1
  Cl  Cl3  1  0.78875065  0.51778409  0.54946854  1
  Cl  Cl4  1  0.08252755  0.83459930  0.55449692  1
  Cl  Cl5  1  0.91747245  0.16540070  0.44550308  1
  Cl  Cl6  1  0.99057893  0.75992931  0.86248492  1
  Cl  Cl7  1  0.00942107  0.24007069  0.13751508  1
  Cl  Cl8  1  0.13068386  0.42307943  0.77959086  1
  Cl  Cl9  1  0.86931614  0.57692057  0.22040914  1
  Cl  Cl10  1  0.42586116  0.71647804  0.75404270  1
  Cl  Cl11  1  0.57413884  0.28352196  0.24595730  1
  Cl  Cl12  1  0.45062029  0.19972416  0.58503905  1
  Cl  Cl13  1  0.54937971  0.80027584  0.41496095  1
  Cl  Cl14  1  0.75392497  0.05169065  0.76905581  1
  Cl  Cl15  1  0.24607503  0.94830935  0.23094419  1
  Cl  Cl16  1  0.66110430  0.38529043  0.89065751  1
  Cl  Cl17  1  0.33889570  0.61470957  0.10934249  1
loop_
_geom_bond_atom_site_label_1
_geom_bond_atom_site_label_2
_geom_bond_distance
_geom_bond_site_symmetry_2
Cl0 P1 1.945439 1_555
Cl1 P0 1.945439 1_555
Cl2 Pt1 2.386231 1_555
Cl2 Pt0 2.387950 1_455
Cl3 Pt0 2.386224 1_555
Cl3 Pt1 2.387952 1_655
Cl4 Pt1 2.333446 1_555
Cl5 Pt0 2.333441 1_555
Cl6 Pt1 2.302040 1_655
Cl7 Pt0 2.302047 1_455
Cl8 Pt1 2.338338 1_555
Cl9 Pt0 2.338344 1_555
Cl10 Pt1 2.295409 1_555
Cl11 Pt0 2.295411 1_555
Cl12 P0 1.935790 1_555
Cl13 P1 1.935790 1_555
Cl14 P0 1.949122 1_555
Cl15 P1 1.949122 1_555
Cl16 P0 1.929703 1_555
Cl17 P1 1.929703 1_555
