# generated using pymatgen
data_Lu12TcNi4Sn
_symmetry_space_group_name_H-M   'P 1'
_cell_length_a   8.07715987
_cell_length_b   8.07716014
_cell_length_c   8.07716012
_cell_angle_alpha   111.84373089
_cell_angle_beta   110.04621199
_cell_angle_gamma   106.56755191
_symmetry_Int_Tables_number   1
_chemical_formula_structural   Lu12TcNi4Sn
_chemical_formula_sum   'Lu12 Tc1 Ni4 Sn1'
_cell_volume   404.77094498
_cell_formula_units_Z   1
loop_
 _symmetry_equiv_pos_site_id
 _symmetry_equiv_pos_as_xyz
  1  'x, y, z'
loop_
 _atom_site_type_symbol
 _atom_site_label
 _atom_site_symmetry_multiplicity
 _atom_site_fract_x
 _atom_site_fract_y
 _atom_site_fract_z
 _atom_site_occupancy
  Lu  Lu0  1  0.67942154  0.87320283  0.19378128  1
  Lu  Lu1  1  0.32057846  0.51435874  0.19378128  1
  Lu  Lu2  1  0.81979207  0.77817534  0.59796841  1
  Lu  Lu3  1  0.18020793  0.77817534  0.95838326  1
  Lu  Lu4  1  0.81979207  0.22182466  0.04161674  1
  Lu  Lu5  1  0.18020793  0.22182466  0.40203159  1
  Lu  Lu6  1  0.67942154  0.48564126  0.80621872  1
  Lu  Lu7  1  0.32057846  0.12679717  0.80621872  1
  Lu  Lu8  1  0.58315284  0.27598189  0.30716995  1
  Lu  Lu9  1  0.41684716  0.72401811  0.69283005  1
  Lu  Lu10  1  0.03118806  0.72401811  0.30716995  1
  Lu  Lu11  1  0.96881194  0.27598189  0.69283005  1
  Tc  Tc0  1  0.00000000  0.50000000  0.50000000  1
  Ni  Ni0  1  0.35559320  0.50000000  0.85559320  1
  Ni  Ni1  1  0.64440680  0.50000000  0.14440680  1
  Ni  Ni2  1  0.88152712  0.88152712  1.00000000  1
  Ni  Ni3  1  0.11847288  0.11847288  0.00000000  1
  Sn  Sn0  1  0.50000000  0.00000000  0.50000000  1
loop_
_geom_bond_atom_site_label_1
_geom_bond_atom_site_label_2
_geom_bond_distance
_geom_bond_site_symmetry_2
Lu0 Ni2 2.624237 1_554
Lu0 Ni1 2.804931 1_555
Lu0 Ni0 2.804932 1_554
Lu0 Sn0 3.268865 1_565
Lu0 Lu10 3.369486 1_655
Lu0 Lu9 3.369487 1_554
Lu0 Lu8 3.426527 1_565
Lu0 Lu11 3.426532 1_565
Lu0 Lu3 3.515134 1_554
Lu0 Lu2 3.515142 1_555
Lu0 Lu4 3.526363 1_565
Lu0 Lu5 3.526365 1_665
Lu1 Ni3 2.624230 1_555
Lu1 Ni1 2.804929 1_555
Lu1 Ni0 2.804934 1_554
Lu1 Sn0 3.268872 1_565
Lu1 Lu8 3.369484 1_555
Lu1 Lu11 3.369487 1_454
Lu1 Lu9 3.426534 1_555
Lu1 Lu10 3.426536 1_555
Lu1 Lu2 3.515136 1_555
Lu1 Lu3 3.515142 1_554
Lu1 Lu5 3.526350 1_555
Lu1 Lu4 3.526361 1_455
Lu2 Ni2 2.850543 1_555
Lu2 Ni3 2.850547 1_666
Lu2 Ni1 2.996313 1_555
Lu2 Tc0 3.020749 1_655
Lu2 Lu8 3.321840 1_555
Lu2 Lu3 3.337590 1_655
Lu2 Lu6 3.526350 1_555
Lu2 Lu7 3.526365 1_665
Lu2 Lu9 3.538118 1_555
Lu2 Sn0 3.577916 1_565
Lu3 Ni2 2.850551 1_455
Lu3 Ni3 2.850551 1_566
Lu3 Ni0 2.996307 1_555
Lu3 Tc0 3.020748 1_555
Lu3 Lu9 3.321832 1_555
Lu3 Lu6 3.526361 1_455
Lu3 Lu7 3.526363 1_565
Lu3 Lu8 3.538118 1_566
Lu3 Sn0 3.577915 1_566
Lu4 Ni3 2.850551 1_655
Lu4 Ni2 2.850551 1_544
Lu4 Ni1 2.996307 1_555
Lu4 Tc0 3.020748 1_655
Lu4 Lu8 3.321832 1_555
Lu4 Lu5 3.337590 1_655
Lu4 Lu7 3.515134 1_554
Lu4 Lu6 3.515142 1_554
Lu4 Lu9 3.538118 1_544
Lu4 Sn0 3.577915 1_554
Lu5 Ni3 2.850543 1_555
Lu5 Ni2 2.850547 1_444
Lu5 Ni0 2.996313 1_555
Lu5 Tc0 3.020749 1_555
Lu5 Lu9 3.321840 1_555
Lu5 Lu6 3.515136 1_555
Lu5 Lu7 3.515142 1_555
Lu5 Lu8 3.538118 1_555
Lu5 Sn0 3.577916 1_555
Lu6 Ni2 2.624230 1_555
Lu6 Ni0 2.804929 1_555
Lu6 Ni1 2.804934 1_556
Lu6 Sn0 3.268872 1_555
Lu6 Lu9 3.369484 1_555
Lu6 Lu8 3.426534 1_555
Lu7 Ni3 2.624237 1_556
Lu7 Ni0 2.804931 1_555
Lu7 Ni1 2.804932 1_556
Lu7 Sn0 3.268865 1_555
Lu7 Lu8 3.369487 1_556
Lu7 Lu9 3.426527 1_545
Lu8 Ni1 2.636801 1_555
Lu8 Tc0 2.805271 1_655
Lu8 Sn0 3.208279 1_555
Lu8 Ni3 3.225737 1_555
Lu9 Ni0 2.636801 1_555
Lu9 Tc0 2.805271 1_555
Lu9 Sn0 3.208279 1_565
Lu9 Ni2 3.225737 1_555
Lu10 Ni1 2.636803 1_455
Lu10 Tc0 2.805278 1_555
Lu10 Sn0 3.208277 1_565
Lu10 Ni2 3.225731 1_454
Lu10 Lu4 3.321839 1_455
Lu10 Lu2 3.321846 1_455
Lu10 Lu6 3.369487 1_454
Lu10 Lu7 3.426532 1_565
Lu10 Lu3 3.538115 1_554
Lu10 Lu5 3.538118 1_565
Lu10 Lu9 3.571362 1_555
Lu11 Ni0 2.636803 1_655
Lu11 Tc0 2.805278 1_655
Lu11 Sn0 3.208277 1_555
Lu11 Ni3 3.225731 1_656
Lu11 Lu3 3.321839 1_655
Lu11 Lu5 3.321846 1_655
Lu11 Lu7 3.369486 1_655
Lu11 Lu6 3.426536 1_555
Lu11 Lu4 3.538115 1_556
Lu11 Lu2 3.538118 1_545
Lu11 Lu8 3.571362 1_555
Ni0 Ni1 2.674530 1_556
Ni2 Ni3 2.288397 1_666
