# generated using pymatgen
data_YTaNb5Br18
_symmetry_space_group_name_H-M   'P 1'
_cell_length_a   10.63777760
_cell_length_b   10.64101866
_cell_length_c   10.64258033
_cell_angle_alpha   55.65386461
_cell_angle_beta   55.64923308
_cell_angle_gamma   55.66922095
_symmetry_Int_Tables_number   1
_chemical_formula_structural   YTaNb5Br18
_chemical_formula_sum   'Y1 Ta1 Nb5 Br18'
_cell_volume   766.02470975
_cell_formula_units_Z   1
loop_
 _symmetry_equiv_pos_site_id
 _symmetry_equiv_pos_as_xyz
  1  'x, y, z'
loop_
 _atom_site_type_symbol
 _atom_site_label
 _atom_site_symmetry_multiplicity
 _atom_site_fract_x
 _atom_site_fract_y
 _atom_site_fract_z
 _atom_site_occupancy
  Y  Y0  1  0.99979756  0.99957792  0.00016048  1
  Ta  Ta0  1  0.41357246  0.30559634  0.64477739  1
  Nb  Nb0  1  0.35495308  0.58683651  0.69513491  1
  Nb  Nb1  1  0.69549279  0.35506476  0.58638915  1
  Nb  Nb2  1  0.30478881  0.64522709  0.41325233  1
  Nb  Nb3  1  0.64534654  0.41339443  0.30465164  1
  Nb  Nb4  1  0.58717454  0.69622268  0.35392519  1
  Br  Br0  1  0.56984392  0.15955304  0.44242093  1
  Br  Br1  1  0.22276371  0.36520159  0.91094921  1
  Br  Br2  1  0.91298758  0.22147405  0.36654027  1
  Br  Br3  1  0.36644172  0.91290805  0.22169229  1
  Br  Br4  1  0.77830105  0.63368639  0.08683806  1
  Br  Br5  1  0.08706079  0.77809331  0.63360095  1
  Br  Br6  1  0.69559974  0.96814928  0.15768248  1
  Br  Br7  1  0.96710607  0.15722317  0.69632932  1
  Br  Br8  1  0.15814533  0.69567111  0.96725985  1
  Br  Br9  1  0.30458115  0.03536031  0.84043745  1
  Br  Br10  1  0.03280024  0.84137144  0.30410342  1
  Br  Br11  1  0.84199017  0.30298384  0.03358136  1
  Br  Br12  1  0.56103439  0.42826297  0.84041728  1
  Br  Br13  1  0.16126375  0.43665539  0.57373398  1
  Br  Br14  1  0.43905964  0.57122804  0.15975254  1
  Br  Br15  1  0.42829765  0.84065311  0.56064689  1
  Br  Br16  1  0.84090614  0.56101489  0.42763786  1
  Br  Br17  1  0.63069118  0.08859227  0.77808278  1
loop_
_geom_bond_atom_site_label_1
_geom_bond_atom_site_label_2
_geom_bond_distance
_geom_bond_site_symmetry_2
Br0 Ta0 2.576601 1_555
Br0 Nb3 2.596185 1_555
Br1 Ta0 2.575505 1_555
Br1 Nb0 2.607390 1_555
Br2 Nb3 2.598200 1_555
Br2 Nb1 2.604320 1_555
Br3 Nb2 2.597204 1_555
Br3 Nb4 2.602201 1_555
Br4 Nb4 2.596669 1_555
Br4 Nb3 2.603264 1_555
Br5 Nb0 2.598543 1_555
Br5 Nb2 2.604010 1_555
Br6 Y0 2.803539 1_555
Br6 Nb4 2.879558 1_555
Br7 Y0 2.807336 1_546
Br7 Nb1 2.885156 1_555
Br8 Y0 2.808167 1_456
Br8 Nb0 2.884286 1_555
Br9 Y0 2.826482 1_446
Br9 Ta0 2.868571 1_555
Br10 Y0 2.809108 1_455
Br10 Nb2 2.884921 1_555
Br11 Y0 2.806570 1_545
Br11 Nb3 2.884593 1_555
Br12 Nb1 2.591744 1_555
Br12 Nb0 2.598601 1_555
Br13 Ta0 2.568808 1_555
Br13 Nb2 2.603073 1_555
Br14 Nb2 2.592023 1_555
Br14 Nb3 2.598793 1_555
Br15 Nb0 2.589718 1_555
Br15 Nb4 2.597697 1_555
Br16 Nb4 2.589702 1_555
Br16 Nb1 2.597395 1_555
Br17 Ta0 2.581667 1_555
Br17 Nb1 2.601483 1_555
