# generated using pymatgen
data_NaY6RhI12
_symmetry_space_group_name_H-M   'P 1'
_cell_length_a   9.70799200
_cell_length_b   9.70799169
_cell_length_c   9.70799214
_cell_angle_alpha   106.96776752
_cell_angle_beta   106.96776524
_cell_angle_gamma   106.96776447
_symmetry_Int_Tables_number   1
_chemical_formula_structural   NaY6RhI12
_chemical_formula_sum   'Na1 Y6 Rh1 I12'
_cell_volume   762.63209502
_cell_formula_units_Z   1
loop_
 _symmetry_equiv_pos_site_id
 _symmetry_equiv_pos_as_xyz
  1  'x, y, z'
loop_
 _atom_site_type_symbol
 _atom_site_label
 _atom_site_symmetry_multiplicity
 _atom_site_fract_x
 _atom_site_fract_y
 _atom_site_fract_z
 _atom_site_occupancy
  Na  Na0  1  0.50000000  0.50000000  0.50000000  1
  Y  Y0  1  0.89947801  0.97206981  0.69451154  1
  Y  Y1  1  0.97206981  0.69451154  0.89947801  1
  Y  Y2  1  0.69451154  0.89947801  0.97206981  1
  Y  Y3  1  0.10052199  0.02793019  0.30548846  1
  Y  Y4  1  0.02793019  0.30548846  0.10052199  1
  Y  Y5  1  0.30548846  0.10052199  0.02793019  1
  Rh  Rh0  1  0.00000000  0.00000000  0.00000000  1
  I  I0  1  0.54556943  0.85715949  0.62603286  1
  I  I1  1  0.85715949  0.62603286  0.54556943  1
  I  I2  1  0.62603286  0.54556943  0.85715949  1
  I  I3  1  0.45443057  0.14284051  0.37396714  1
  I  I4  1  0.14284051  0.37396714  0.45443057  1
  I  I5  1  0.37396714  0.45443057  0.14284051  1
  I  I6  1  0.67878779  0.22635161  0.07506872  1
  I  I7  1  0.22635161  0.07506872  0.67878779  1
  I  I8  1  0.07506872  0.67878779  0.22635161  1
  I  I9  1  0.32121221  0.77364839  0.92493128  1
  I  I10  1  0.77364839  0.92493128  0.32121221  1
  I  I11  1  0.92493128  0.32121221  0.77364839  1
loop_
_geom_bond_atom_site_label_1
_geom_bond_atom_site_label_2
_geom_bond_distance
_geom_bond_site_symmetry_2
Rh0 Y4 2.740093 1_555
Rh0 Y1 2.740093 1_444
Rh0 Y5 2.740093 1_555
Rh0 Y2 2.740093 1_444
Rh0 Y3 2.740093 1_555
Rh0 Y0 2.740093 1_444
I0 Y0 3.080211 1_555
I0 Y2 3.091478 1_555
I0 Na0 3.166636 1_555
I1 Y1 3.080211 1_555
I1 Y0 3.091478 1_555
I1 Na0 3.166636 1_555
I2 Y2 3.080210 1_555
I2 Y1 3.091478 1_555
I2 Na0 3.166636 1_555
I3 Y3 3.080211 1_555
I3 Y5 3.091478 1_555
I3 Na0 3.166636 1_555
I4 Y4 3.080211 1_555
I4 Y3 3.091478 1_555
I4 Na0 3.166636 1_555
I5 Y5 3.080210 1_555
I5 Y4 3.091478 1_555
I5 Na0 3.166636 1_555
I6 Y2 3.100435 1_544
I6 Y4 3.165484 1_655
I6 Y5 3.310109 1_555
I7 Y0 3.100435 1_445
I7 Y5 3.165484 1_556
I7 Y3 3.310109 1_555
I8 Y1 3.100435 1_454
I8 Y3 3.165484 1_565
I8 Y4 3.310109 1_555
I9 Y5 3.100435 1_566
I9 Y1 3.165484 1_455
I9 Y2 3.310109 1_555
I10 Y3 3.100435 1_665
I10 Y2 3.165484 1_554
I10 Y0 3.310109 1_555
I11 Y4 3.100435 1_656
I11 Y0 3.165484 1_545
I11 Y1 3.310109 1_555
