# generated using pymatgen
data_FeIrRhS8
_symmetry_space_group_name_H-M   'P 1'
_cell_length_a   5.57810368
_cell_length_b   5.59615627
_cell_length_c   5.59003831
_cell_angle_alpha   89.87684326
_cell_angle_beta   89.94611093
_cell_angle_gamma   89.43687918
_symmetry_Int_Tables_number   1
_chemical_formula_structural   FeIrRhS8
_chemical_formula_sum   'Fe1 Ir1 Rh1 S8'
_cell_volume   174.48939510
_cell_formula_units_Z   1
loop_
 _symmetry_equiv_pos_site_id
 _symmetry_equiv_pos_as_xyz
  1  'x, y, z'
loop_
 _atom_site_type_symbol
 _atom_site_label
 _atom_site_symmetry_multiplicity
 _atom_site_fract_x
 _atom_site_fract_y
 _atom_site_fract_z
 _atom_site_occupancy
  Fe  Fe0  1  0.00000000  0.50000000  0.50000000  1
  Ir  Ir0  1  0.50000000  0.00000000  0.50000000  1
  Rh  Rh0  1  0.50000000  0.50000000  0.00000000  1
  S  S0  1  0.38965448  0.89493323  0.10584727  1
  S  S1  1  0.10248776  0.39754075  0.88189756  1
  S  S2  1  0.89579647  0.11847332  0.39714391  1
  S  S3  1  0.61034552  0.10506677  0.89415273  1
  S  S4  1  0.89751224  0.60245925  0.11810244  1
  S  S5  1  0.10420353  0.88152668  0.60285609  1
  S  S6  1  0.62420845  0.60837526  0.60691176  1
  S  S7  1  0.37579155  0.39162474  0.39308824  1
loop_
_geom_bond_atom_site_label_1
_geom_bond_atom_site_label_2
_geom_bond_distance
_geom_bond_site_symmetry_2
Fe0 S7 2.256830 1_555
Fe0 S6 2.256830 1_455
Fe0 S1 2.281150 1_555
Fe0 S4 2.281150 1_455
Fe0 S5 2.292887 1_555
Fe0 S2 2.292887 1_455
Ir0 S3 2.365262 1_555
Ir0 S0 2.365262 1_545
Ir0 S7 2.367614 1_555
Ir0 S6 2.367614 1_545
Ir0 S2 2.381019 1_555
Ir0 S5 2.381019 1_545
Rh0 S0 2.364685 1_555
Rh0 S3 2.364685 1_554
Rh0 S6 2.382436 1_554
Rh0 S7 2.382436 1_555
Rh0 S4 2.389707 1_555
Rh0 S1 2.389707 1_554
S0 S3 2.078079 1_564
S1 S4 2.084153 1_456
S2 S5 2.097073 1_645
S6 S7 2.205115 1_555
