# generated using pymatgen
data_Ca2NiB4Ru3
_symmetry_space_group_name_H-M   'P 1'
_cell_length_a   6.75623354
_cell_length_b   5.89126313
_cell_length_c   5.36981310
_cell_angle_alpha   73.57030879
_cell_angle_beta   56.75872011
_cell_angle_gamma   51.84813343
_symmetry_Int_Tables_number   1
_chemical_formula_structural   Ca2NiB4Ru3
_chemical_formula_sum   'Ca2 Ni1 B4 Ru3'
_cell_volume   140.06599100
_cell_formula_units_Z   1
loop_
 _symmetry_equiv_pos_site_id
 _symmetry_equiv_pos_as_xyz
  1  'x, y, z'
loop_
 _atom_site_type_symbol
 _atom_site_label
 _atom_site_symmetry_multiplicity
 _atom_site_fract_x
 _atom_site_fract_y
 _atom_site_fract_z
 _atom_site_occupancy
  Ca  Ca0  1  0.00520794  0.00520794  0.99479206  1
  Ca  Ca1  1  0.24604665  0.24604665  0.25395335  1
  Ni  Ni0  1  0.61959846  0.61959846  0.88040154  1
  B  B0  1  0.67483464  0.32385130  0.68157802  1
  B  B1  1  0.32385130  0.67483464  0.31973604  1
  B  B2  1  0.93770618  0.56273502  0.92724880  1
  B  B3  1  0.56273502  0.93770618  0.57231100  1
  Ru  Ru0  1  0.63428259  0.63428259  0.36571641  1
  Ru  Ru1  1  0.36589106  0.36589206  0.63410794  1
  Ru  Ru2  1  0.87984617  0.87984517  0.62015383  1
loop_
_geom_bond_atom_site_label_1
_geom_bond_atom_site_label_2
_geom_bond_distance
_geom_bond_site_symmetry_2
Ca0 Ru2 2.964997 1_446
Ca0 Ru2 2.965000 1_445
Ca0 Ni0 3.018608 1_455
Ca0 Ni0 3.018608 1_545
Ca1 Ru1 2.941932 1_555
Ca1 Ru1 2.941939 1_554
Ca1 Ru0 3.008683 1_545
Ca1 Ru0 3.008687 1_455
B0 Ni0 2.031487 1_555
B0 Ru2 2.092929 1_545
B0 Ru1 2.095713 1_555
B0 Ru0 2.105287 1_555
B0 Ca0 2.913389 1_655
B0 Ca1 3.011814 1_655
B0 Ca1 3.021794 1_556
B1 Ni0 2.031487 1_554
B1 Ru2 2.092924 1_455
B1 Ru1 2.095706 1_555
B1 Ru0 2.105280 1_555
B1 Ca0 2.913389 1_564
B1 Ca1 3.011814 1_565
B1 Ca1 3.021794 1_555
B2 Ru1 2.021615 1_655
B2 Ru0 2.031241 1_556
B2 Ru2 2.103335 1_555
B2 Ni0 2.109537 1_555
B2 Ca1 2.872567 1_656
B2 Ca0 2.963865 1_655
B2 Ca0 3.052783 1_665
B3 Ru1 2.021617 1_565
B3 Ru0 2.031251 1_555
B3 Ru2 2.103332 1_555
B3 Ni0 2.109534 1_555
B3 Ca1 2.872571 1_565
B3 Ca0 2.963864 1_565
B3 Ca0 3.052786 1_664
