# generated using pymatgen
data_Sc4Nb2Si7Ni16
_symmetry_space_group_name_H-M   'P 1'
_cell_length_a   7.97356711
_cell_length_b   7.98389912
_cell_length_c   7.97356646
_cell_angle_alpha   59.95712204
_cell_angle_beta   60.18381836
_cell_angle_gamma   59.95712328
_symmetry_Int_Tables_number   1
_chemical_formula_structural   Sc4Nb2Si7Ni16
_chemical_formula_sum   'Sc4 Nb2 Si7 Ni16'
_cell_volume   359.18852830
_cell_formula_units_Z   1
loop_
 _symmetry_equiv_pos_site_id
 _symmetry_equiv_pos_as_xyz
  1  'x, y, z'
loop_
 _atom_site_type_symbol
 _atom_site_label
 _atom_site_symmetry_multiplicity
 _atom_site_fract_x
 _atom_site_fract_y
 _atom_site_fract_z
 _atom_site_occupancy
  Sc  Sc0  1  0.79361365  0.79119832  0.20638635  1
  Sc  Sc1  1  0.79902568  0.20282367  0.79532697  1
  Sc  Sc2  1  0.20467303  0.79717633  0.20097432  1
  Sc  Sc3  1  0.79361365  0.20880168  0.20638635  1
  Nb  Nb0  1  0.20652032  0.79787695  0.79347968  1
  Nb  Nb1  1  0.20652032  0.20212305  0.79347968  1
  Si  Si0  1  0.50664960  0.50000000  0.49335040  1
  Si  Si1  1  0.49823581  0.00000000  0.50176419  1
  Si  Si2  1  0.00422547  0.50000000  0.99577453  1
  Si  Si3  1  0.00112548  0.99743711  0.50263650  1
  Si  Si4  1  0.49736350  0.00256289  0.99887452  1
  Si  Si5  1  0.00112548  0.49880091  0.50263650  1
  Si  Si6  1  0.49736350  0.50119909  0.99887452  1
  Ni  Ni0  1  0.16835389  0.16946176  0.49272359  1
  Ni  Ni1  1  0.49099149  0.16971211  0.16958629  1
  Ni  Ni2  1  0.16781510  0.16904129  0.16914728  1
  Ni  Ni3  1  0.50727641  0.83053824  0.83164611  1
  Ni  Ni4  1  0.83085272  0.83095871  0.83218490  1
  Ni  Ni5  1  0.83041371  0.83028789  0.50900851  1
  Ni  Ni6  1  0.16781510  0.49399733  0.16914728  1
  Ni  Ni7  1  0.61444063  0.14502730  0.62067154  1
  Ni  Ni8  1  0.38034103  0.38445673  0.85074451  1
  Ni  Ni9  1  0.85952190  0.37969893  0.38108124  1
  Ni  Ni10  1  0.37932846  0.38013946  0.38555937  1
  Ni  Ni11  1  0.14925549  0.61554327  0.61965897  1
  Ni  Ni12  1  0.61444063  0.61986054  0.62067154  1
  Ni  Ni13  1  0.61891876  0.62030107  0.14047810  1
  Ni  Ni14  1  0.37932846  0.85497270  0.38555937  1
  Ni  Ni15  1  0.83085272  0.50600267  0.83218490  1
loop_
_geom_bond_atom_site_label_1
_geom_bond_atom_site_label_2
_geom_bond_distance
_geom_bond_site_symmetry_2
Sc0 Si2 2.870710 1_654
Sc0 Si5 2.874867 1_655
Sc0 Si4 2.874867 1_564
Sc0 Si1 2.890839 1_565
Sc1 Si3 2.859786 1_645
Sc1 Si5 2.859786 1_655
Sc1 Si6 2.889012 1_555
Sc1 Si4 2.889012 1_555
Sc2 Si6 2.859786 1_554
Sc2 Si4 2.859786 1_564
Sc2 Si3 2.889012 1_555
Sc2 Si5 2.889012 1_555
Sc3 Si2 2.870710 1_654
Sc3 Si3 2.874867 1_645
Sc3 Si6 2.874867 1_554
Sc3 Si1 2.890839 1_555
Nb0 Ni3 2.709766 1_555
Nb0 Ni0 2.709771 1_565
Nb0 Ni14 2.715364 1_555
Nb0 Ni12 2.715364 1_555
Nb0 Ni6 2.740003 1_556
Nb0 Ni4 2.740006 1_455
Nb0 Ni11 2.750211 1_555
Nb0 Ni8 2.750218 1_555
Nb0 Si1 2.836292 1_565
Nb0 Si3 2.839571 1_555
Nb0 Si6 2.839571 1_555
Nb0 Si2 2.876144 1_555
Nb0 Nb1 3.227460 1_565
Nb0 Sc2 3.239097 1_556
Nb0 Sc1 3.239097 1_465
Nb0 Sc0 3.301913 1_456
Nb1 Ni0 2.709766 1_555
Nb1 Ni3 2.709771 1_545
Nb1 Ni10 2.715364 1_555
Nb1 Ni7 2.715365 1_555
Nb1 Ni15 2.740003 1_455
Nb1 Ni2 2.740006 1_556
Nb1 Ni8 2.750211 1_555
Nb1 Ni11 2.750218 1_555
Nb1 Si1 2.836292 1_555
Nb1 Si5 2.839571 1_555
Nb1 Si4 2.839571 1_555
Nb1 Si2 2.876144 1_555
Nb1 Sc2 3.239096 1_546
Nb1 Sc1 3.239097 1_455
Nb1 Sc3 3.301913 1_456
Ni0 Si1 2.298241 1_555
Ni0 Si5 2.300152 1_555
Ni0 Si3 2.300159 1_545
Ni0 Ni9 2.493750 1_455
Ni0 Ni10 2.520690 1_555
Ni0 Ni14 2.520697 1_545
Ni0 Ni1 2.581716 1_555
Ni0 Ni6 2.583880 1_555
Ni0 Ni2 2.583880 1_555
Ni0 Sc1 2.712394 1_455
Ni1 Si6 2.306170 1_554
Ni1 Si4 2.306184 1_554
Ni1 Si1 2.309736 1_555
Ni1 Ni10 2.540705 1_555
Ni1 Ni14 2.540718 1_545
Ni1 Ni8 2.555921 1_554
Ni1 Ni6 2.581294 1_555
Ni1 Ni2 2.581298 1_555
Ni1 Sc3 2.748779 1_555
Ni1 Sc0 2.748789 1_545
Ni1 Sc1 2.753045 1_554
Ni2 Si4 2.297109 1_554
Ni2 Si2 2.297602 1_554
Ni2 Si3 2.318473 1_545
Ni2 Ni9 2.510428 1_455
Ni2 Ni8 2.557920 1_554
Ni2 Ni6 2.594416 1_555
Ni2 Sc3 2.712285 1_455
Ni2 Sc2 2.722391 1_545
Ni3 Si1 2.298241 1_565
Ni3 Si6 2.300151 1_555
Ni3 Si4 2.300158 1_565
Ni3 Ni7 2.520697 1_565
Ni3 Ni5 2.581716 1_555
Ni3 Ni4 2.583880 1_555
Ni3 Sc2 2.712394 1_556
Ni4 Si3 2.297109 1_655
Ni4 Si2 2.297602 1_655
Ni4 Si4 2.318473 1_565
Ni4 Ni7 2.537047 1_565
Ni4 Ni5 2.581298 1_555
Ni4 Sc0 2.712285 1_556
Ni4 Sc1 2.722391 1_565
Ni5 Si5 2.306170 1_655
Ni5 Si3 2.306184 1_655
Ni5 Si1 2.309736 1_565
Ni5 Ni7 2.540718 1_565
Ni5 Sc0 2.748779 1_555
Ni5 Sc3 2.748789 1_565
Ni5 Sc2 2.753045 1_655
Ni6 Si6 2.297107 1_554
Ni6 Si2 2.297607 1_554
Ni6 Si5 2.318470 1_555
Ni6 Ni9 2.510428 1_455
Ni6 Ni8 2.557928 1_554
Ni6 Sc0 2.712282 1_455
Ni6 Sc2 2.722383 1_555
Ni7 Si0 2.312814 1_555
Ni7 Si4 2.467468 1_555
Ni7 Si1 2.478957 1_555
Ni7 Si3 2.523422 1_645
Ni7 Ni8 2.652746 1_555
Ni7 Ni9 2.710794 1_555
Ni7 Sc3 2.750176 1_555
Ni7 Sc1 2.771332 1_555
Ni8 Si0 2.330257 1_555
Ni8 Si2 2.455900 1_555
Ni8 Si4 2.490681 1_555
Ni8 Si6 2.490688 1_555
Ni8 Sc1 2.787537 1_555
Ni9 Si0 2.300162 1_555
Ni9 Si5 2.490898 1_655
Ni9 Si3 2.490904 1_645
Ni9 Si2 2.514459 1_654
Ni9 Sc0 2.725258 1_555
Ni9 Sc3 2.725265 1_555
Ni9 Sc1 2.750275 1_555
Ni10 Si0 2.312814 1_555
Ni10 Si5 2.467468 1_555
Ni10 Si1 2.478957 1_555
Ni10 Si6 2.523421 1_554
Ni10 Ni6 2.537045 1_555
Ni10 Ni7 2.645791 1_555
Ni10 Ni11 2.652752 1_555
Ni10 Ni13 2.710788 1_555
Ni10 Sc3 2.750176 1_555
Ni10 Sc2 2.771332 1_555
Ni11 Si0 2.330258 1_555
Ni11 Si2 2.455900 1_555
Ni11 Si3 2.490681 1_555
Ni11 Si5 2.490688 1_555
Ni11 Ni5 2.555922 1_455
Ni11 Ni4 2.557920 1_455
Ni11 Ni15 2.557928 1_455
Ni11 Ni8 2.600478 1_555
Ni11 Ni14 2.652746 1_555
Ni11 Sc2 2.787537 1_555
Ni12 Si0 2.312814 1_555
Ni12 Si6 2.467468 1_555
Ni12 Si1 2.478957 1_565
Ni12 Ni3 2.520690 1_555
Ni12 Si5 2.523422 1_655
Ni12 Ni15 2.537045 1_555
Ni12 Ni5 2.540705 1_555
Ni12 Ni14 2.645791 1_555
Ni12 Ni8 2.652752 1_555
Ni12 Ni9 2.710788 1_555
Ni12 Sc0 2.750176 1_555
Ni12 Sc1 2.771332 1_555
Ni13 Si0 2.300162 1_555
Ni13 Si6 2.490898 1_554
Ni13 Si4 2.490904 1_564
Ni13 Ni3 2.493750 1_554
Ni13 Ni15 2.510428 1_554
Ni13 Ni4 2.510428 1_554
Ni13 Si2 2.514459 1_654
Ni13 Ni9 2.707582 1_555
Ni13 Ni14 2.710794 1_555
Ni13 Sc3 2.725258 1_555
Ni13 Sc0 2.725265 1_555
Ni13 Sc2 2.750275 1_555
Ni14 Si0 2.312814 1_555
Ni14 Si3 2.467468 1_555
Ni14 Si1 2.478957 1_565
Ni14 Si4 2.523421 1_564
Ni14 Ni2 2.537047 1_565
Ni14 Sc0 2.750176 1_555
Ni14 Sc2 2.771332 1_555
Ni15 Si5 2.297107 1_655
Ni15 Si2 2.297607 1_655
Ni15 Si6 2.318470 1_555
Ni15 Ni5 2.581294 1_555
Ni15 Ni3 2.583880 1_555
Ni15 Ni4 2.594416 1_555
Ni15 Sc3 2.712282 1_556
Ni15 Sc1 2.722383 1_555
