# generated using pymatgen
data_TiCu6MoS8
_symmetry_space_group_name_H-M   'P 1'
_cell_length_a   7.66785801
_cell_length_b   7.66785801
_cell_length_c   5.40852335
_cell_angle_alpha   90.00000000
_cell_angle_beta   90.00000000
_cell_angle_gamma   90.00000000
_symmetry_Int_Tables_number   1
_chemical_formula_structural   TiCu6MoS8
_chemical_formula_sum   'Ti1 Cu6 Mo1 S8'
_cell_volume   317.99979015
_cell_formula_units_Z   1
loop_
 _symmetry_equiv_pos_site_id
 _symmetry_equiv_pos_as_xyz
  1  'x, y, z'
loop_
 _atom_site_type_symbol
 _atom_site_label
 _atom_site_symmetry_multiplicity
 _atom_site_fract_x
 _atom_site_fract_y
 _atom_site_fract_z
 _atom_site_occupancy
  Ti  Ti0  1  0.00000000  0.00000000  0.00000000  1
  Cu  Cu0  1  0.25116357  0.74883643  0.00000000  1
  Cu  Cu1  1  0.74883643  0.25116357  0.00000000  1
  Cu  Cu2  1  0.25116357  0.25116357  0.00000000  1
  Cu  Cu3  1  0.74883643  0.74883643  0.00000000  1
  Cu  Cu4  1  0.00000000  0.00000000  0.50000000  1
  Cu  Cu5  1  0.50000000  0.50000000  0.50000000  1
  Mo  Mo0  1  0.50000000  0.50000000  0.00000000  1
  S  S0  1  0.50000000  0.25942634  0.76001875  1
  S  S1  1  0.00000000  0.75645313  0.75738919  1
  S  S2  1  0.50000000  0.74057366  0.76001875  1
  S  S3  1  0.00000000  0.24354687  0.75738919  1
  S  S4  1  0.75645313  0.00000000  0.24261081  1
  S  S5  1  0.25942634  0.50000000  0.23998125  1
  S  S6  1  0.24354687  0.00000000  0.24261081  1
  S  S7  1  0.74057366  0.50000000  0.23998125  1
loop_
_geom_bond_atom_site_label_1
_geom_bond_atom_site_label_2
_geom_bond_distance
_geom_bond_site_symmetry_2
Cu0 S5 2.308527 1_555
Cu0 S2 2.308527 1_554
Cu0 S1 2.331144 1_554
Cu0 S6 2.331144 1_565
Cu1 S0 2.308527 1_554
Cu1 S7 2.308527 1_555
Cu1 S4 2.331144 1_555
Cu1 S3 2.331144 1_654
Cu2 S5 2.308527 1_555
Cu2 S0 2.308527 1_554
Cu2 S6 2.331144 1_555
Cu2 S3 2.331144 1_554
Cu3 S7 2.308527 1_555
Cu3 S2 2.308527 1_554
Cu3 S4 2.331144 1_565
Cu3 S1 2.331144 1_654
Cu4 S3 2.329253 1_555
Cu4 S6 2.329253 1_555
Cu4 S1 2.329253 1_545
Cu4 S4 2.329253 1_455
Cu5 S2 2.319610 1_555
Cu5 S7 2.319610 1_555
Cu5 S0 2.319610 1_555
Cu5 S5 2.319610 1_555
Mo0 S7 2.255553 1_555
Mo0 S2 2.255553 1_554
Mo0 S5 2.255553 1_555
Mo0 S0 2.255553 1_554
S1 Ti0 2.282383 1_566
S3 Ti0 2.282383 1_556
S4 Ti0 2.282383 1_655
S6 Ti0 2.282383 1_555
