# generated using pymatgen
data_Cd2AsBrO4
_symmetry_space_group_name_H-M   'P 1'
_cell_length_a   5.25151537
_cell_length_b   8.70965996
_cell_length_c   12.05968179
_cell_angle_alpha   90.00000000
_cell_angle_beta   90.00000000
_cell_angle_gamma   90.00000000
_symmetry_Int_Tables_number   1
_chemical_formula_structural   Cd2AsBrO4
_chemical_formula_sum   'Cd8 As4 Br4 O16'
_cell_volume   551.59673821
_cell_formula_units_Z   4
loop_
 _symmetry_equiv_pos_site_id
 _symmetry_equiv_pos_as_xyz
  1  'x, y, z'
loop_
 _atom_site_type_symbol
 _atom_site_label
 _atom_site_symmetry_multiplicity
 _atom_site_fract_x
 _atom_site_fract_y
 _atom_site_fract_z
 _atom_site_occupancy
  Cd  Cd0  1  0.50311634  0.15832037  0.62278731  1
  Cd  Cd1  1  0.00311634  0.84167963  0.37721269  1
  Cd  Cd2  1  0.00016131  0.39705907  0.38286577  1
  Cd  Cd3  1  0.00311634  0.65832037  0.87721269  1
  Cd  Cd4  1  0.50311634  0.34167963  0.12278731  1
  Cd  Cd5  1  0.50016131  0.89705907  0.11713423  1
  Cd  Cd6  1  0.00016131  0.10294093  0.88286577  1
  Cd  Cd7  1  0.50016131  0.60294093  0.61713423  1
  As  As0  1  0.95319798  0.12044772  0.16564785  1
  As  As1  1  0.45319798  0.87955228  0.83435215  1
  As  As2  1  0.95319798  0.37955228  0.66564785  1
  As  As3  1  0.45319798  0.62044772  0.33435215  1
  Br  Br0  1  0.27307506  0.37651393  0.92762106  1
  Br  Br1  1  0.77307506  0.62348607  0.07237894  1
  Br  Br2  1  0.77307506  0.87651393  0.57237894  1
  Br  Br3  1  0.27307506  0.12348607  0.42762106  1
  O  O0  1  0.34452187  0.45863765  0.27162114  1
  O  O1  1  0.34741848  0.78190338  0.26992805  1
  O  O2  1  0.77252036  0.61900201  0.35221690  1
  O  O3  1  0.84741848  0.21809662  0.73007195  1
  O  O4  1  0.78488861  0.12211849  0.04331182  1
  O  O5  1  0.27252036  0.38099799  0.64778310  1
  O  O6  1  0.77252036  0.88099799  0.85221690  1
  O  O7  1  0.84452187  0.54136235  0.72837886  1
  O  O8  1  0.78488861  0.37788151  0.54331182  1
  O  O9  1  0.34741848  0.71809662  0.76992805  1
  O  O10  1  0.28488861  0.62211849  0.45668818  1
  O  O11  1  0.27252036  0.11900201  0.14778310  1
  O  O12  1  0.28488861  0.87788151  0.95668818  1
  O  O13  1  0.84452187  0.95863765  0.22837886  1
  O  O14  1  0.84741848  0.28190338  0.23007195  1
  O  O15  1  0.34452187  0.04136235  0.77162114  1
loop_
_geom_bond_atom_site_label_1
_geom_bond_atom_site_label_2
_geom_bond_distance
_geom_bond_site_symmetry_2
Cd0 O15 2.225525 1_555
Cd0 O3 2.283479 1_555
Cd0 O5 2.306250 1_555
Cd0 O8 2.600987 1_555
Cd1 O13 2.225525 1_455
Cd1 O1 2.283479 1_555
Cd1 O2 2.306250 1_455
Cd1 O10 2.600987 1_555
Cd2 O14 2.246040 1_455
Cd2 O8 2.247197 1_455
Cd2 O2 2.302697 1_455
Cd2 O0 2.314700 1_555
Cd2 O10 2.621204 1_555
Cd3 O7 2.225525 1_455
Cd3 O9 2.283479 1_555
Cd3 O6 2.306250 1_455
Cd3 O12 2.600987 1_555
Cd4 O0 2.225525 1_555
Cd4 O14 2.283479 1_555
Cd4 O11 2.306250 1_555
Cd4 O4 2.600987 1_555
Cd5 O1 2.246040 1_555
Cd5 O12 2.247197 1_554
Cd5 O11 2.302697 1_565
Cd5 O13 2.314700 1_555
Cd5 O4 2.621204 1_565
Cd6 O3 2.246040 1_455
Cd6 O4 2.247197 1_456
Cd6 O6 2.302697 1_445
Cd6 O15 2.314700 1_555
Cd6 O12 2.621204 1_545
Cd7 O9 2.246040 1_555
Cd7 O10 2.247197 1_555
Cd7 O5 2.302697 1_555
Cd7 O7 2.314700 1_555
Cd7 O8 2.621204 1_555
As0 O11 1.690756 1_655
As0 O13 1.698290 1_545
As0 O14 1.699905 1_555
As0 O4 1.719902 1_555
As1 O6 1.690756 1_555
As1 O15 1.698290 1_565
As1 O9 1.699905 1_555
As1 O12 1.719902 1_555
As2 O5 1.690756 1_655
As2 O7 1.698290 1_555
As2 O3 1.699905 1_555
As2 O8 1.719902 1_555
As3 O2 1.690756 1_555
As3 O0 1.698290 1_555
As3 O1 1.699905 1_555
As3 O10 1.719902 1_555
Br0 Cd4 2.662913 1_556
Br0 Cd6 2.832454 1_555
Br0 Cd3 2.898909 1_555
Br1 Cd3 2.662913 1_654
Br1 Cd5 2.832454 1_555
Br1 Cd4 2.898909 1_555
Br2 Cd1 2.662913 1_655
Br2 Cd7 2.832454 1_555
Br2 Cd0 2.898909 1_565
Br3 Cd0 2.662913 1_555
Br3 Cd2 2.832454 1_555
Br3 Cd1 2.898909 1_545
