# generated using pymatgen
data_RbCd12Ag
_symmetry_space_group_name_H-M   'P 1'
_cell_length_a   9.77415826
_cell_length_b   9.77415781
_cell_length_c   9.77415825
_cell_angle_alpha   59.99999849
_cell_angle_beta   60.00000003
_cell_angle_gamma   59.99999848
_symmetry_Int_Tables_number   1
_chemical_formula_structural   RbCd12Ag
_chemical_formula_sum   'Rb2 Cd24 Ag2'
_cell_volume   660.27229136
_cell_formula_units_Z   2
loop_
 _symmetry_equiv_pos_site_id
 _symmetry_equiv_pos_as_xyz
  1  'x, y, z'
loop_
 _atom_site_type_symbol
 _atom_site_label
 _atom_site_symmetry_multiplicity
 _atom_site_fract_x
 _atom_site_fract_y
 _atom_site_fract_z
 _atom_site_occupancy
  Rb  Rb0  1  0.25000000  0.25000000  0.25000000  1
  Rb  Rb1  1  0.75000000  0.75000000  0.75000000  1
  Cd  Cd0  1  0.44140568  0.20108712  0.79891288  1
  Cd  Cd1  1  0.94140568  0.70108712  0.05859432  1
  Cd  Cd2  1  0.70108712  0.94140568  0.29891288  1
  Cd  Cd3  1  0.29891288  0.70108712  0.94140568  1
  Cd  Cd4  1  0.94140568  0.05859432  0.29891288  1
  Cd  Cd5  1  0.70108712  0.05859432  0.94140568  1
  Cd  Cd6  1  0.29891288  0.94140568  0.05859432  1
  Cd  Cd7  1  0.79891288  0.44140568  0.20108712  1
  Cd  Cd8  1  0.20108712  0.79891288  0.44140568  1
  Cd  Cd9  1  0.44140568  0.55859432  0.20108712  1
  Cd  Cd10  1  0.44140568  0.79891288  0.55859432  1
  Cd  Cd11  1  0.20108712  0.55859432  0.79891288  1
  Cd  Cd12  1  0.55859432  0.44140568  0.79891288  1
  Cd  Cd13  1  0.55859432  0.20108712  0.44140568  1
  Cd  Cd14  1  0.79891288  0.20108712  0.55859432  1
  Cd  Cd15  1  0.05859432  0.94140568  0.70108712  1
  Cd  Cd16  1  0.05859432  0.29891288  0.94140568  1
  Cd  Cd17  1  0.94140568  0.29891288  0.70108712  1
  Cd  Cd18  1  0.05859432  0.70108712  0.29891288  1
  Cd  Cd19  1  0.29891288  0.05859432  0.70108712  1
  Cd  Cd20  1  0.70108712  0.29891288  0.05859432  1
  Cd  Cd21  1  0.20108712  0.44140568  0.55859432  1
  Cd  Cd22  1  0.79891288  0.55859432  0.44140568  1
  Cd  Cd23  1  0.55859432  0.79891288  0.20108712  1
  Ag  Ag0  1  0.00000000  0.00000000  0.00000000  1
  Ag  Ag1  1  0.50000000  0.50000000  0.50000000  1
loop_
_geom_bond_atom_site_label_1
_geom_bond_atom_site_label_2
_geom_bond_distance
_geom_bond_site_symmetry_2
Cd0 Cd6 2.895175 1_546
Cd0 Cd5 2.895175 1_555
Cd0 Cd19 3.065432 1_555
Cd0 Cd16 3.065432 1_555
Cd0 Cd11 3.085428 1_555
Cd0 Cd12 3.085428 1_555
Cd0 Cd13 3.085428 1_555
Cd0 Cd14 3.085428 1_555
Cd0 Cd21 3.321863 1_555
Cd0 Rb1 4.016564 1_545
Cd0 Rb0 4.016565 1_556
Cd1 Cd7 2.895175 1_555
Cd1 Cd11 2.895175 1_654
Cd1 Cd22 3.065432 1_555
Cd1 Cd23 3.065432 1_555
Cd1 Cd5 3.085428 1_564
Cd1 Cd15 3.085428 1_654
Cd1 Cd18 3.085428 1_655
Cd1 Cd3 3.085428 1_654
Cd1 Cd2 3.321863 1_555
Cd1 Rb0 4.016564 1_655
Cd1 Rb1 4.016565 1_554
Cd2 Cd22 3.065432 1_555
Cd2 Cd23 3.065432 1_555
Cd2 Cd20 3.085428 1_565
Cd2 Cd5 3.085428 1_564
Cd2 Cd4 3.085428 1_565
Cd2 Rb0 4.016564 1_565
Cd2 Rb1 4.016565 1_555
Cd3 Cd9 2.895175 1_556
Cd3 Cd6 3.085428 1_556
Cd3 Rb0 4.016564 1_556
Cd3 Rb1 4.016565 1_555
Cd4 Cd8 2.895175 1_645
Cd4 Cd7 3.065432 1_555
Cd4 Cd6 3.085428 1_645
Cd4 Rb1 4.016564 1_545
Cd4 Rb0 4.016565 1_655
Cd5 Rb1 4.016564 1_545
Cd5 Rb0 4.016565 1_556
Cd6 Cd9 3.065432 1_555
Cd6 Cd8 3.065432 1_555
Cd6 Rb0 4.016564 1_565
Cd6 Rb1 4.016565 1_554
Cd7 Cd9 3.085428 1_555
Cd7 Rb1 4.016564 1_554
Cd7 Rb0 4.016565 1_655
Cd8 Cd9 3.321863 1_555
Cd8 Rb0 4.016564 1_565
Cd8 Rb1 4.016565 1_455
Cd9 Rb0 4.016564 1_555
Cd9 Rb1 4.016565 1_554
Cd10 Cd19 2.895175 1_565
Cd10 Cd2 2.895175 1_555
Cd10 Cd15 3.065432 1_555
Cd10 Cd3 3.065432 1_555
Cd10 Cd12 3.085428 1_555
Cd10 Cd22 3.085428 1_555
Cd10 Cd23 3.085428 1_555
Cd10 Cd8 3.085428 1_555
Cd10 Cd11 3.321863 1_555
Cd10 Rb0 4.016564 1_565
Cd10 Rb1 4.016565 1_555
Cd11 Cd16 2.895175 1_555
Cd11 Cd15 3.065432 1_555
Cd11 Cd3 3.065432 1_555
Cd11 Cd8 3.085428 1_555
Cd11 Cd21 3.085428 1_555
Cd11 Cd12 3.085428 1_555
Cd11 Rb0 4.016564 1_556
Cd11 Rb1 4.016565 1_455
Cd12 Cd3 2.895175 1_555
Cd12 Cd20 2.895175 1_556
Cd12 Cd5 3.065432 1_555
Cd12 Cd17 3.065432 1_555
Cd12 Cd22 3.085428 1_555
Cd12 Cd14 3.321863 1_555
Cd12 Rb1 4.016564 1_555
Cd12 Rb0 4.016565 1_556
Cd13 Cd2 2.895175 1_545
Cd13 Cd19 2.895175 1_555
Cd13 Cd4 3.065432 1_555
Cd13 Cd20 3.065432 1_555
Cd13 Cd9 3.085428 1_555
Cd13 Cd21 3.085428 1_555
Cd13 Cd14 3.085428 1_555
Cd13 Cd7 3.321863 1_555
Cd13 Rb1 4.016564 1_545
Cd13 Rb0 4.016565 1_555
Cd14 Cd15 2.895175 1_645
Cd14 Cd4 2.895175 1_555
Cd14 Cd5 3.065432 1_555
Cd14 Cd17 3.065432 1_555
Cd14 Cd22 3.085428 1_555
Cd14 Cd7 3.085428 1_555
Cd14 Rb1 4.016564 1_545
Cd14 Rb0 4.016565 1_655
Cd15 Cd8 2.895175 1_555
Cd15 Cd17 3.085428 1_465
Cd15 Cd19 3.085428 1_565
Cd15 Cd5 3.085428 1_465
Cd15 Cd3 3.321863 1_555
Cd15 Rb0 4.016564 1_565
Cd15 Rb1 4.016565 1_455
Cd16 Cd7 2.895175 1_456
Cd16 Cd21 3.065432 1_555
Cd16 Cd6 3.085428 1_546
Cd16 Cd4 3.085428 1_456
Cd16 Cd17 3.085428 1_455
Cd16 Cd20 3.085428 1_456
Cd16 Cd19 3.321863 1_555
Cd16 Rb1 4.016564 1_455
Cd16 Rb0 4.016565 1_556
Cd17 Cd22 2.895175 1_555
Cd17 Cd21 2.895175 1_655
Cd17 Cd19 3.085428 1_655
Cd17 Cd20 3.085428 1_556
Cd17 Cd5 3.321863 1_555
Cd17 Rb1 4.016564 1_555
Cd17 Rb0 4.016565 1_655
Cd18 Cd21 2.895175 1_555
Cd18 Cd22 2.895175 1_455
Cd18 Cd9 3.065432 1_555
Cd18 Cd8 3.065432 1_555
Cd18 Cd4 3.085428 1_465
Cd18 Cd2 3.085428 1_455
Cd18 Cd3 3.085428 1_554
Cd18 Cd6 3.321863 1_555
Cd18 Rb0 4.016564 1_555
Cd18 Rb1 4.016565 1_455
Cd19 Cd21 3.065432 1_555
Cd19 Cd3 3.085428 1_545
Cd19 Cd6 3.085428 1_546
Cd19 Rb1 4.016564 1_545
Cd19 Rb0 4.016565 1_555
Cd20 Cd9 2.895175 1_555
Cd20 Cd7 3.065432 1_555
Cd20 Cd5 3.085428 1_554
Cd20 Cd4 3.321863 1_555
Cd20 Rb1 4.016564 1_554
Cd20 Rb0 4.016565 1_555
Cd21 Cd8 3.085428 1_555
Cd21 Cd9 3.085428 1_555
Cd21 Rb1 4.016564 1_455
Cd21 Rb0 4.016565 1_555
Cd22 Cd7 3.085428 1_555
Cd22 Cd23 3.321863 1_555
Cd22 Rb0 4.016564 1_655
Cd22 Rb1 4.016565 1_555
Cd23 Cd5 2.895175 1_564
Cd23 Cd6 2.895175 1_555
Cd23 Cd7 3.085428 1_555
Cd23 Cd9 3.085428 1_555
Cd23 Cd8 3.085428 1_555
Cd23 Rb0 4.016564 1_565
Cd23 Rb1 4.016565 1_554
Ag0 Cd18 2.977225 1_545
Ag0 Cd17 2.977225 1_454
Ag0 Cd16 2.977225 1_554
Ag0 Cd1 2.977225 1_445
Ag0 Cd3 2.977225 1_544
Ag0 Cd20 2.977225 1_455
Ag0 Cd4 2.977225 1_455
Ag0 Cd15 2.977225 1_544
Ag0 Cd6 2.977225 1_545
Ag0 Cd5 2.977225 1_454
Ag0 Cd19 2.977225 1_554
Ag0 Cd2 2.977225 1_445
Ag1 Cd13 2.977225 1_555
Ag1 Cd10 2.977225 1_555
Ag1 Cd0 2.977225 1_555
Ag1 Cd23 2.977225 1_555
Ag1 Cd14 2.977225 1_555
Ag1 Cd8 2.977225 1_555
Ag1 Cd12 2.977225 1_555
Ag1 Cd9 2.977225 1_555
Ag1 Cd11 2.977225 1_555
Ag1 Cd7 2.977225 1_555
Ag1 Cd22 2.977225 1_555
Ag1 Cd21 2.977225 1_555
