# generated using pymatgen
data_K6MoAs4
_symmetry_space_group_name_H-M   'P 1'
_cell_length_a   10.26840306
_cell_length_b   10.26840350
_cell_length_c   8.15594460
_cell_angle_alpha   89.97983041
_cell_angle_beta   89.97983513
_cell_angle_gamma   119.97158859
_symmetry_Int_Tables_number   1
_chemical_formula_structural   K6MoAs4
_chemical_formula_sum   'K12 Mo2 As8'
_cell_volume   744.96331854
_cell_formula_units_Z   2
loop_
 _symmetry_equiv_pos_site_id
 _symmetry_equiv_pos_as_xyz
  1  'x, y, z'
loop_
 _atom_site_type_symbol
 _atom_site_label
 _atom_site_symmetry_multiplicity
 _atom_site_fract_x
 _atom_site_fract_y
 _atom_site_fract_z
 _atom_site_occupancy
  K  K0  1  0.46871309  0.53121878  0.50101901  1
  K  K1  1  0.06210960  0.53110611  0.50143213  1
  K  K2  1  0.53121878  0.46871309  0.00101901  1
  K  K3  1  0.53110611  0.06210960  0.00143213  1
  K  K4  1  0.85380146  0.14570743  0.68131254  1
  K  K5  1  0.29304153  0.14641671  0.68240653  1
  K  K6  1  0.85399514  0.70818366  0.68077163  1
  K  K7  1  0.14570743  0.85380146  0.18131254  1
  K  K8  1  0.70818366  0.85399514  0.18077163  1
  K  K9  1  0.14641671  0.29304153  0.18240653  1
  K  K10  1  0.46847684  0.93708114  0.50043529  1
  K  K11  1  0.93708114  0.46847684  0.00043529  1
  Mo  Mo0  1  0.66666310  0.33330312  0.39110703  1
  Mo  Mo1  1  0.33330312  0.66666310  0.89110703  1
  As  As0  1  0.66688527  0.33349326  0.68486777  1
  As  As1  1  0.33349326  0.66688527  0.18486777  1
  As  As2  1  0.79561788  0.20445104  0.29687775  1
  As  As3  1  0.40888380  0.20445106  0.29736189  1
  As  As4  1  0.79543200  0.59096798  0.29670041  1
  As  As5  1  0.20445104  0.79561788  0.79687775  1
  As  As6  1  0.59096798  0.79543200  0.79670041  1
  As  As7  1  0.20445106  0.40888380  0.79736189  1
loop_
_geom_bond_atom_site_label_1
_geom_bond_atom_site_label_2
_geom_bond_distance
_geom_bond_site_symmetry_2
As0 Mo0 2.395899 1_555
As0 K5 3.325505 1_555
As0 K4 3.331764 1_555
As0 K6 3.333109 1_555
As0 K11 3.522548 1_556
As0 K2 3.528443 1_556
As0 K3 3.533557 1_556
As1 Mo1 2.395899 1_554
As1 K9 3.325505 1_555
As1 K7 3.331764 1_555
As1 K8 3.333109 1_555
As1 K10 3.522548 1_555
As1 K0 3.528443 1_555
As1 K1 3.533557 1_555
As2 Mo0 2.417672 1_555
As2 K4 3.303298 1_555
As2 K3 3.370539 1_555
As2 K11 3.371047 1_555
As2 K9 3.376041 1_655
As2 K8 3.380498 1_545
As2 K10 3.515161 1_545
As2 K1 3.515492 1_655
As3 Mo0 2.417563 1_555
As3 K5 3.304543 1_555
As3 K3 3.371940 1_555
As3 K2 3.372014 1_555
As3 K9 3.379496 1_555
As3 K7 3.383117 1_545
As3 K10 3.511593 1_545
As3 K0 3.512837 1_555
As4 Mo0 2.417424 1_555
As4 K6 3.302038 1_555
As4 K2 3.369866 1_555
As4 K11 3.371024 1_555
As4 K7 3.376875 1_655
As4 K8 3.377536 1_555
As4 K0 3.513883 1_555
As4 K1 3.514095 1_655
As5 Mo1 2.417672 1_555
As5 K7 3.303298 1_556
As5 K1 3.370539 1_555
As5 K10 3.371047 1_555
As5 K5 3.376041 1_565
As5 K6 3.380498 1_455
As5 K11 3.515161 1_456
As5 K3 3.515492 1_566
As6 Mo1 2.417423 1_555
As6 K8 3.302038 1_556
As6 K0 3.369866 1_555
As6 K10 3.371024 1_555
As6 K4 3.376875 1_565
As6 K6 3.377536 1_555
As6 K2 3.513883 1_556
As6 K3 3.514095 1_566
As7 Mo1 2.417563 1_555
As7 K9 3.304543 1_556
As7 K1 3.371939 1_555
As7 K0 3.372014 1_555
As7 K5 3.379496 1_555
As7 K4 3.383117 1_455
As7 K11 3.511593 1_456
As7 K2 3.512837 1_556
