# generated using pymatgen
data_Y3Be2Ir6Ru
_symmetry_space_group_name_H-M   'P 1'
_cell_length_a   5.36703573
_cell_length_b   5.36703607
_cell_length_c   15.56367989
_cell_angle_alpha   90.00000000
_cell_angle_beta   90.00000000
_cell_angle_gamma   119.99999792
_symmetry_Int_Tables_number   1
_chemical_formula_structural   Y3Be2Ir6Ru
_chemical_formula_sum   'Y6 Be4 Ir12 Ru2'
_cell_volume   388.25041749
_cell_formula_units_Z   2
loop_
 _symmetry_equiv_pos_site_id
 _symmetry_equiv_pos_as_xyz
  1  'x, y, z'
loop_
 _atom_site_type_symbol
 _atom_site_label
 _atom_site_symmetry_multiplicity
 _atom_site_fract_x
 _atom_site_fract_y
 _atom_site_fract_z
 _atom_site_occupancy
  Y  Y0  1  0.33333300  0.66666700  0.53670472  1
  Y  Y1  1  0.66666700  0.33333300  0.46329528  1
  Y  Y2  1  0.66666700  0.33333300  0.03670472  1
  Y  Y3  1  0.33333300  0.66666700  0.96329528  1
  Y  Y4  1  0.33333300  0.66666700  0.75000000  1
  Y  Y5  1  0.66666700  0.33333300  0.25000000  1
  Be  Be0  1  0.00000000  0.00000000  0.25000000  1
  Be  Be1  1  0.00000000  0.00000000  0.75000000  1
  Be  Be2  1  0.33333300  0.66666700  0.25000000  1
  Be  Be3  1  0.66666700  0.33333300  0.75000000  1
  Ir  Ir0  1  0.16728468  0.33457037  0.13561347  1
  Ir  Ir1  1  0.83271532  0.66542963  0.86438653  1
  Ir  Ir2  1  0.66542963  0.83271532  0.13561347  1
  Ir  Ir3  1  0.83271532  0.66542963  0.63561347  1
  Ir  Ir4  1  0.33457037  0.16728468  0.86438653  1
  Ir  Ir5  1  0.16728468  0.33457037  0.36438653  1
  Ir  Ir6  1  0.16728468  0.83271532  0.13561347  1
  Ir  Ir7  1  0.33457037  0.16728468  0.63561347  1
  Ir  Ir8  1  0.83271532  0.16728468  0.86438653  1
  Ir  Ir9  1  0.66542963  0.83271532  0.36438653  1
  Ir  Ir10  1  0.83271532  0.16728468  0.63561347  1
  Ir  Ir11  1  0.16728468  0.83271532  0.36438653  1
  Ru  Ru0  1  0.00000000  0.00000000  0.00000000  1
  Ru  Ru1  1  0.00000000  0.00000000  0.50000000  1
loop_
_geom_bond_atom_site_label_1
_geom_bond_atom_site_label_2
_geom_bond_distance
_geom_bond_site_symmetry_2
Y0 Y1 3.302579 1_455
Y0 Y1 3.302579 1_565
Y0 Y1 3.302587 1_555
Y0 Y4 3.319659 1_555
Y1 Y5 3.319659 1_555
Y2 Y3 3.302579 1_654
Y2 Y3 3.302579 1_544
Y2 Y3 3.302587 1_554
Y2 Y5 3.319659 1_555
Y3 Y4 3.319659 1_555
Be0 Ir11 2.363819 1_545
Be0 Ir6 2.363819 1_545
Be0 Ir9 2.363822 1_445
Be0 Ir2 2.363822 1_445
Be0 Ir5 2.363822 1_555
Be0 Ir0 2.363822 1_555
Be0 Y5 3.098656 1_455
Be0 Y5 3.098661 1_555
Be0 Y5 3.098661 1_445
Be1 Ir8 2.363819 1_455
Be1 Ir10 2.363819 1_455
Be1 Ir4 2.363822 1_555
Be1 Ir7 2.363822 1_555
Be1 Ir1 2.363822 1_445
Be1 Ir3 2.363822 1_445
Be1 Y4 3.098656 1_545
Be1 Y4 3.098661 1_445
Be1 Y4 3.098661 1_555
Be2 Ir9 2.356273 1_555
Be2 Ir2 2.356273 1_555
Be2 Ir11 2.356273 1_555
Be2 Ir6 2.356273 1_555
Be2 Ir5 2.356274 1_555
Be2 Ir0 2.356274 1_555
Be2 Y5 3.098656 1_455
Be2 Y5 3.098657 1_565
Be2 Y5 3.098666 1_555
Be3 Ir4 2.356273 1_555
Be3 Ir7 2.356273 1_555
Be3 Ir8 2.356273 1_555
Be3 Ir10 2.356273 1_555
Be3 Ir1 2.356274 1_555
Be3 Ir3 2.356274 1_555
Be3 Y4 3.098656 1_655
Be3 Y4 3.098657 1_545
Be3 Y4 3.098666 1_555
Ir0 Ru0 2.621658 1_555
Ir0 Ir2 2.673562 1_555
Ir0 Ir6 2.673562 1_555
Ir0 Ir6 2.693474 1_545
Ir0 Ir2 2.693474 1_445
Ir0 Y2 3.093699 1_455
Ir0 Y2 3.093709 1_555
Ir0 Y3 3.094392 1_554
Ir0 Y5 3.220350 1_455
Ir0 Y5 3.220359 1_555
Ir1 Ru0 2.621658 1_666
Ir1 Ir4 2.673562 1_555
Ir1 Ir8 2.673562 1_555
Ir1 Ir8 2.693474 1_565
Ir1 Ir4 2.693474 1_665
Ir1 Y3 3.093699 1_655
Ir1 Y3 3.093709 1_555
Ir1 Y2 3.094392 1_556
Ir1 Y4 3.220350 1_655
Ir1 Y4 3.220359 1_555
Ir2 Ru0 2.621658 1_665
Ir2 Ir6 2.673562 1_555
Ir2 Ir6 2.693474 1_655
Ir2 Y2 3.093700 1_565
Ir2 Y2 3.093709 1_555
Ir2 Y3 3.094392 1_554
Ir2 Y5 3.220350 1_565
Ir2 Y5 3.220359 1_555
Ir3 Ru1 2.621658 1_665
Ir3 Ir7 2.673562 1_555
Ir3 Ir7 2.693474 1_665
Ir3 Y0 3.093699 1_655
Ir3 Y0 3.093709 1_555
Ir3 Y1 3.094392 1_555
Ir3 Y4 3.220350 1_655
Ir3 Y4 3.220359 1_555
Ir4 Ru0 2.621658 1_556
Ir4 Ir8 2.673562 1_555
Ir4 Ir8 2.693474 1_455
Ir4 Y3 3.093700 1_545
Ir4 Y3 3.093709 1_555
Ir4 Y2 3.094392 1_556
Ir4 Y4 3.220350 1_545
Ir4 Y4 3.220359 1_555
Ir5 Ru1 2.621658 1_555
Ir5 Ir9 2.673562 1_555
Ir5 Ir9 2.693474 1_445
Ir5 Y1 3.093699 1_455
Ir5 Y1 3.093709 1_555
Ir5 Y0 3.094392 1_555
Ir5 Y5 3.220350 1_455
Ir5 Y5 3.220359 1_555
Ir6 Ru0 2.621656 1_565
Ir6 Y2 3.093704 1_455
Ir6 Y2 3.093704 1_565
Ir6 Y3 3.094392 1_554
Ir6 Y5 3.220354 1_455
Ir6 Y5 3.220354 1_565
Ir7 Ru1 2.621658 1_555
Ir7 Y0 3.093700 1_545
Ir7 Y0 3.093709 1_555
Ir7 Y1 3.094392 1_555
Ir7 Y4 3.220350 1_545
Ir7 Y4 3.220359 1_555
Ir8 Ru0 2.621656 1_656
Ir8 Y3 3.093704 1_655
Ir8 Y3 3.093704 1_545
Ir8 Y2 3.094392 1_556
Ir8 Y4 3.220354 1_655
Ir8 Y4 3.220354 1_545
Ir9 Ru1 2.621658 1_665
Ir9 Y1 3.093700 1_565
Ir9 Y1 3.093709 1_555
Ir9 Y0 3.094392 1_555
Ir9 Y5 3.220350 1_565
Ir9 Y5 3.220359 1_555
Ir10 Ru1 2.621656 1_655
Ir10 Ir7 2.673562 1_555
Ir10 Ir3 2.673562 1_555
Ir10 Ir7 2.693474 1_655
Ir10 Ir3 2.693474 1_545
Ir10 Y0 3.093704 1_655
Ir10 Y0 3.093704 1_545
Ir10 Y1 3.094392 1_555
Ir10 Y4 3.220354 1_655
Ir10 Y4 3.220354 1_545
Ir11 Ru1 2.621656 1_565
Ir11 Ir9 2.673562 1_555
Ir11 Ir5 2.673562 1_555
Ir11 Ir9 2.693474 1_455
Ir11 Ir5 2.693474 1_565
Ir11 Y1 3.093704 1_455
Ir11 Y1 3.093704 1_565
Ir11 Y0 3.094392 1_555
Ir11 Y5 3.220354 1_455
Ir11 Y5 3.220354 1_565
Ru0 Y2 3.150875 1_455
Ru0 Y3 3.150875 1_544
Ru0 Y2 3.150879 1_555
Ru0 Y3 3.150879 1_444
Ru0 Y3 3.150879 1_554
Ru0 Y2 3.150879 1_445
Ru1 Y0 3.150875 1_545
Ru1 Y1 3.150875 1_455
Ru1 Y1 3.150879 1_555
Ru1 Y0 3.150879 1_445
Ru1 Y0 3.150879 1_555
Ru1 Y1 3.150879 1_445
