# generated using pymatgen
data_Zr10SnBi5B2
_symmetry_space_group_name_H-M   'P 1'
_cell_length_a   8.67891656
_cell_length_b   8.63836636
_cell_length_c   5.86605634
_cell_angle_alpha   90.00000000
_cell_angle_beta   90.00000000
_cell_angle_gamma   119.84556822
_symmetry_Int_Tables_number   1
_chemical_formula_structural   Zr10SnBi5B2
_chemical_formula_sum   'Zr10 Sn1 Bi5 B2'
_cell_volume   381.45887403
_cell_formula_units_Z   1
loop_
 _symmetry_equiv_pos_site_id
 _symmetry_equiv_pos_as_xyz
  1  'x, y, z'
loop_
 _atom_site_type_symbol
 _atom_site_label
 _atom_site_symmetry_multiplicity
 _atom_site_fract_x
 _atom_site_fract_y
 _atom_site_fract_z
 _atom_site_occupancy
  Zr  Zr0  1  0.66879370  0.33379908  0.00157534  1
  Zr  Zr1  1  0.33120630  0.66500738  0.00157534  1
  Zr  Zr2  1  0.33120630  0.66500738  0.49842466  1
  Zr  Zr3  1  0.66879370  0.33379908  0.49842466  1
  Zr  Zr4  1  0.77496799  0.77328327  0.75000000  1
  Zr  Zr5  1  0.22503201  0.99831528  0.75000000  1
  Zr  Zr6  1  0.00000000  0.22776141  0.75000000  1
  Zr  Zr7  1  0.22346374  0.22895348  0.25000000  1
  Zr  Zr8  1  0.77653626  0.00548974  0.25000000  1
  Zr  Zr9  1  1.00000000  0.77030551  0.25000000  1
  Sn  Sn0  1  1.00000000  0.40091824  0.25000000  1
  Bi  Bi0  1  0.39907613  0.39839476  0.75000000  1
  Bi  Bi1  1  0.60092387  0.99931863  0.75000000  1
  Bi  Bi2  1  0.00000000  0.59644394  0.75000000  1
  Bi  Bi3  1  0.60223499  0.60306024  0.25000000  1
  Bi  Bi4  1  0.39776501  0.00082525  0.25000000  1
  B  B0  1  0.00000000  0.99965965  0.00011429  1
  B  B1  1  0.00000000  0.99965965  0.49988571  1
loop_
_geom_bond_atom_site_label_1
_geom_bond_atom_site_label_2
_geom_bond_distance
_geom_bond_site_symmetry_2
Sn0 Zr8 2.972473 1_555
Sn0 Zr7 2.972473 1_655
Sn0 Zr0 3.010611 1_555
Sn0 Zr3 3.010611 1_555
Sn0 Zr1 3.010615 1_655
Sn0 Zr2 3.010615 1_655
Sn0 Zr9 3.190903 1_555
Sn0 Zr6 3.292423 1_654
Sn0 Zr6 3.292423 1_655
Bi0 Zr5 3.004966 1_545
Bi0 Zr6 3.014536 1_555
Bi0 Zr2 3.029744 1_555
Bi0 Zr1 3.029744 1_556
Bi0 Zr3 3.044491 1_555
Bi0 Zr0 3.044491 1_556
Bi0 Zr4 3.258029 1_555
Bi0 Zr7 3.293567 1_555
Bi0 Zr7 3.293567 1_556
Bi1 Zr4 3.004966 1_555
Bi1 Zr6 3.014536 1_665
Bi1 Zr0 3.029729 1_566
Bi1 Zr3 3.029729 1_565
Bi1 Zr2 3.044481 1_555
Bi1 Zr1 3.044481 1_556
Bi1 Zr5 3.258029 1_555
Bi1 Zr8 3.293567 1_566
Bi1 Zr8 3.293567 1_565
Bi2 Zr2 3.016109 1_555
Bi2 Zr1 3.016109 1_556
Bi2 Zr0 3.016113 1_456
Bi2 Zr3 3.016113 1_455
Bi2 Zr5 3.019509 1_555
Bi2 Zr4 3.019509 1_455
Bi2 Zr6 3.184815 1_555
Bi2 Zr9 3.295193 1_456
Bi2 Zr9 3.295193 1_455
Bi3 Zr9 3.006754 1_555
Bi3 Zr8 3.023087 1_565
Bi3 Zr1 3.032468 1_555
Bi3 Zr2 3.032468 1_555
Bi3 Zr3 3.033948 1_555
Bi3 Zr0 3.033948 1_555
Bi3 Zr7 3.267458 1_555
Bi3 Zr4 3.289100 1_555
Bi3 Zr4 3.289100 1_554
Bi4 Zr9 3.006754 1_445
Bi4 Zr7 3.023087 1_555
Bi4 Zr3 3.032458 1_555
Bi4 Zr0 3.032458 1_555
Bi4 Zr2 3.033933 1_545
Bi4 Zr1 3.033933 1_545
Bi4 Zr8 3.267458 1_555
Bi4 Zr5 3.289100 1_544
Bi4 Zr5 3.289100 1_545
B0 Zr4 2.447383 1_454
B0 Zr5 2.447383 1_554
B0 Zr7 2.451492 1_565
B0 Zr8 2.451492 1_465
B0 Zr6 2.456667 1_564
B0 Zr9 2.464555 1_455
B1 Zr4 2.447383 1_455
B1 Zr5 2.447383 1_555
B1 Zr7 2.451492 1_565
B1 Zr8 2.451492 1_465
B1 Zr6 2.456667 1_565
B1 Zr9 2.464555 1_455
