# generated using pymatgen
data_Ba2Li2Si2Bi
_symmetry_space_group_name_H-M   'P 1'
_cell_length_a   10.69323707
_cell_length_b   10.69323677
_cell_length_c   7.33771466
_cell_angle_alpha   90.00000000
_cell_angle_beta   90.00000000
_cell_angle_gamma   152.83855548
_symmetry_Int_Tables_number   1
_chemical_formula_structural   Ba2Li2Si2Bi
_chemical_formula_sum   'Ba4 Li4 Si4 Bi2'
_cell_volume   383.01812884
_cell_formula_units_Z   2
loop_
 _symmetry_equiv_pos_site_id
 _symmetry_equiv_pos_as_xyz
  1  'x, y, z'
loop_
 _atom_site_type_symbol
 _atom_site_label
 _atom_site_symmetry_multiplicity
 _atom_site_fract_x
 _atom_site_fract_y
 _atom_site_fract_z
 _atom_site_occupancy
  Ba  Ba0  1  0.55254307  0.44745693  0.75000000  1
  Ba  Ba1  1  0.44745693  0.55254307  0.25000000  1
  Ba  Ba2  1  0.34498819  0.65501181  0.75000000  1
  Ba  Ba3  1  0.65501181  0.34498819  0.25000000  1
  Li  Li0  1  0.81648896  0.18351104  0.44566684  1
  Li  Li1  1  0.18351104  0.81648896  0.55433316  1
  Li  Li2  1  0.81648896  0.18351104  0.05433316  1
  Li  Li3  1  0.18351104  0.81648896  0.94566684  1
  Si  Si0  1  0.95070952  0.04929048  0.91318807  1
  Si  Si1  1  0.04929048  0.95070952  0.08681193  1
  Si  Si2  1  0.95070952  0.04929048  0.58681193  1
  Si  Si3  1  0.04929048  0.95070952  0.41318807  1
  Bi  Bi0  1  0.71948764  0.28051236  0.75000000  1
  Bi  Bi1  1  0.28051236  0.71948764  0.25000000  1
loop_
_geom_bond_atom_site_label_1
_geom_bond_atom_site_label_2
_geom_bond_distance
_geom_bond_site_symmetry_2
Ba0 Bi0 3.470529 1_555
Ba0 Si0 3.495736 1_565
Ba0 Si2 3.495736 1_565
Ba0 Si0 3.495736 1_455
Ba0 Si2 3.495736 1_455
Ba0 Si1 3.523822 1_656
Ba0 Si3 3.523822 1_655
Ba0 Si1 3.523822 1_546
Ba0 Si3 3.523822 1_545
Ba1 Bi1 3.470529 1_555
Ba1 Si3 3.495736 1_545
Ba1 Si1 3.495736 1_545
Ba1 Si3 3.495736 1_655
Ba1 Si1 3.495736 1_655
Ba1 Si2 3.523822 1_455
Ba1 Si0 3.523822 1_454
Ba1 Si2 3.523822 1_565
Ba1 Si0 3.523822 1_564
Ba2 Li2 3.412121 1_566
Ba2 Li0 3.412121 1_565
Ba2 Li2 3.412121 1_456
Ba2 Li0 3.412121 1_455
Ba2 Si0 3.545264 1_455
Ba2 Si2 3.545264 1_455
Ba2 Si0 3.545264 1_565
Ba2 Si2 3.545264 1_565
Ba2 Bi0 3.620981 1_565
Ba2 Bi0 3.620982 1_455
Ba2 Li3 3.651019 1_555
Ba2 Li1 3.651019 1_555
Ba2 Bi1 3.906030 1_556
Ba2 Bi1 3.906030 1_555
Ba3 Li1 3.412121 1_545
Ba3 Li3 3.412121 1_544
Ba3 Li1 3.412121 1_655
Ba3 Li3 3.412121 1_654
Ba3 Si3 3.545264 1_655
Ba3 Si1 3.545264 1_655
Ba3 Si3 3.545264 1_545
Ba3 Si1 3.545264 1_545
Ba3 Bi1 3.620981 1_545
Ba3 Bi1 3.620982 1_655
Ba3 Li0 3.651019 1_555
Ba3 Li2 3.651019 1_555
Ba3 Bi0 3.906030 1_555
Ba3 Bi0 3.906030 1_554
Li0 Si2 2.976257 1_555
Li1 Si3 2.976257 1_555
Li2 Si0 2.976257 1_554
Li3 Si1 2.976257 1_556
Si0 Si2 2.394855 1_555
Si0 Si1 2.413073 1_646
Si1 Si3 2.394855 1_555
Si2 Si3 2.413073 1_645
Bi0 Li3 2.987559 1_655
Bi0 Li1 2.987559 1_655
Bi0 Li3 2.987559 1_545
Bi0 Li1 2.987559 1_545
Bi0 Li2 3.008838 1_556
Bi0 Li0 3.008838 1_555
Bi1 Li0 2.987559 1_455
Bi1 Li2 2.987559 1_455
Bi1 Li0 2.987559 1_565
Bi1 Li2 2.987559 1_565
Bi1 Li1 3.008838 1_555
Bi1 Li3 3.008838 1_554
