# generated using pymatgen
data_CaZrNiSb2
_symmetry_space_group_name_H-M   'P 1'
_cell_length_a   7.93781996
_cell_length_b   7.93781992
_cell_length_c   7.93781925
_cell_angle_alpha   31.34095762
_cell_angle_beta   31.34096031
_cell_angle_gamma   31.34095440
_symmetry_Int_Tables_number   1
_chemical_formula_structural   CaZrNiSb2
_chemical_formula_sum   'Ca1 Zr1 Ni1 Sb2'
_cell_volume   120.09786623
_cell_formula_units_Z   1
loop_
 _symmetry_equiv_pos_site_id
 _symmetry_equiv_pos_as_xyz
  1  'x, y, z'
loop_
 _atom_site_type_symbol
 _atom_site_label
 _atom_site_symmetry_multiplicity
 _atom_site_fract_x
 _atom_site_fract_y
 _atom_site_fract_z
 _atom_site_occupancy
  Ca  Ca0  1  0.50541163  0.50541163  0.50541163  1
  Zr  Zr0  1  0.99522196  0.99522196  0.99522196  1
  Ni  Ni0  1  0.37174081  0.37174081  0.37174081  1
  Sb  Sb0  1  0.74555171  0.74555171  0.74555171  1
  Sb  Sb1  1  0.25707588  0.25707588  0.25707588  1
loop_
_geom_bond_atom_site_label_1
_geom_bond_atom_site_label_2
_geom_bond_distance
_geom_bond_site_symmetry_2
Ca0 Ni0 3.024383 1_555
Ca0 Sb1 3.134901 1_556
Ca0 Sb1 3.134901 1_565
Ca0 Sb1 3.134902 1_655
Ca0 Sb0 3.251954 1_554
Ca0 Sb0 3.251954 1_545
Ca0 Sb0 3.251955 1_455
Ni0 Sb1 2.594363 1_555
Ni0 Sb0 2.639688 1_545
Ni0 Sb0 2.639688 1_455
Ni0 Sb0 2.639688 1_554
Ni0 Zr0 2.661565 1_454
Ni0 Zr0 2.661565 1_544
Ni0 Zr0 2.661566 1_445
Sb0 Zr0 3.116470 1_554
Sb0 Zr0 3.116470 1_545
Sb0 Zr0 3.116470 1_455
Sb1 Zr0 2.957153 1_445
Sb1 Zr0 2.957153 1_454
Sb1 Zr0 2.957153 1_544
