# generated using pymatgen
data_BiPbF5
_symmetry_space_group_name_H-M   'P 1'
_cell_length_a   4.24826000
_cell_length_b   4.34090972
_cell_length_c   7.25509161
_cell_angle_alpha   90.30017650
_cell_angle_beta   106.05627422
_cell_angle_gamma   118.47458924
_symmetry_Int_Tables_number   1
_chemical_formula_structural   BiPbF5
_chemical_formula_sum   'Bi1 Pb1 F5'
_cell_volume   111.52184678
_cell_formula_units_Z   1
loop_
 _symmetry_equiv_pos_site_id
 _symmetry_equiv_pos_as_xyz
  1  'x, y, z'
loop_
 _atom_site_type_symbol
 _atom_site_label
 _atom_site_symmetry_multiplicity
 _atom_site_fract_x
 _atom_site_fract_y
 _atom_site_fract_z
 _atom_site_occupancy
  Bi  Bi0  1  0.88136400  0.90357200  0.96018200  1
  Pb  Pb0  1  0.96489700  0.52980500  0.44505300  1
  F  F0  1  0.79223700  0.87008200  0.63206000  1
  F  F1  1  0.58175400  0.74049500  0.18135700  1
  F  F2  1  0.30081100  0.14537200  0.37307500  1
  F  F3  1  0.70265900  0.31610100  0.97471400  1
  F  F4  1  0.27227800  0.61957200  0.80855900  1
loop_
_geom_bond_atom_site_label_1
_geom_bond_atom_site_label_2
_geom_bond_distance
_geom_bond_site_symmetry_2
Bi0 F4 2.189717 1_555
Bi0 F1 2.231280 1_556
Bi0 F3 2.265593 1_565
Bi0 F0 2.297135 1_555
Bi0 F3 2.300389 1_555
F0 Pb0 2.474529 1_555
F1 Pb0 2.619395 1_555
F2 Pb0 2.388188 1_555
F2 Pb0 2.498033 1_445
F2 Pb0 2.787099 1_455
F4 Pb0 2.532047 1_455
