# generated using pymatgen
data_Cs2Fe(WO4)3
_symmetry_space_group_name_H-M   'P 1'
_cell_length_a   7.28501829
_cell_length_b   7.28535300
_cell_length_c   7.16531573
_cell_angle_alpha   90.00000207
_cell_angle_beta   59.42849902
_cell_angle_gamma   120.00152382
_symmetry_Int_Tables_number   1
_chemical_formula_structural   Cs2Fe(WO4)3
_chemical_formula_sum   'Cs2 Fe1 W3 O12'
_cell_volume   266.55409270
_cell_formula_units_Z   1
loop_
 _symmetry_equiv_pos_site_id
 _symmetry_equiv_pos_as_xyz
  1  'x, y, z'
loop_
 _atom_site_type_symbol
 _atom_site_label
 _atom_site_symmetry_multiplicity
 _atom_site_fract_x
 _atom_site_fract_y
 _atom_site_fract_z
 _atom_site_occupancy
  Cs  Cs0  1  0.25820520  0.13299604  0.11263360  1
  Cs  Cs1  1  0.74179480  0.87479084  0.88736640  1
  Fe  Fe0  1  0.00000000  0.50367493  1.00000000  1
  W  W0  1  0.49996890  0.00400154  0.50015758  1
  W  W1  1  0.50003110  0.50403164  0.49984242  1
  W  W2  1  1.00000000  0.50391072  0.50000000  1
  O  O0  1  0.62714014  0.81732631  0.43000174  1
  O  O1  1  0.88334358  0.44535889  0.80832410  1
  O  O2  1  0.24981416  0.81181164  0.80843387  1
  O  O3  1  0.25640800  0.44653028  0.43003725  1
  O  O4  1  0.24978703  0.44537556  0.80837146  1
  O  O5  1  0.25637686  0.81732936  0.43014570  1
  O  O6  1  0.37285986  0.19018517  0.56999826  1
  O  O7  1  0.11665642  0.56201630  0.19167590  1
  O  O8  1  0.75021297  0.19558753  0.19162854  1
  O  O9  1  0.74362314  0.56095250  0.56985430  1
  O  O10  1  0.75018584  0.56199748  0.19156613  1
  O  O11  1  0.74359200  0.19012128  0.56996275  1
loop_
_geom_bond_atom_site_label_1
_geom_bond_atom_site_label_2
_geom_bond_distance
_geom_bond_site_symmetry_2
Cs0 O1 3.194982 1_554
Cs0 O4 3.195554 1_554
Cs0 O2 3.197279 1_544
Cs0 O0 3.222996 1_445
Cs0 O3 3.223325 1_555
Cs0 O5 3.225446 1_545
Cs1 O7 3.194982 1_556
Cs1 O8 3.195549 1_566
Cs1 O10 3.197279 1_556
Cs1 O6 3.222996 1_665
Cs1 O11 3.223320 1_565
Cs1 O9 3.225446 1_555
Fe0 O4 1.899564 1_555
Fe0 O8 1.899569 1_456
Fe0 O2 1.899716 1_555
Fe0 O10 1.899717 1_456
Fe0 O1 1.901377 1_455
Fe0 O7 1.901377 1_556
O0 W1 1.931970 1_555
O0 W0 1.935682 1_565
O1 W2 1.874180 1_555
O2 W0 1.874625 1_565
O3 W1 1.932629 1_555
O3 W2 1.934842 1_455
O4 W1 1.874726 1_555
O5 W2 1.933086 1_455
O5 W0 1.934522 1_565
O6 W0 1.931957 1_555
O6 W1 1.935682 1_555
O7 W2 1.874180 1_455
O8 W0 1.874722 1_555
O9 W2 1.933086 1_555
O9 W1 1.934520 1_555
O10 W1 1.874623 1_555
O11 W0 1.932625 1_555
O11 W2 1.934847 1_555
