# generated using pymatgen
data_Mn7NiPbO16
_symmetry_space_group_name_H-M   'P 1'
_cell_length_a   5.72757886
_cell_length_b   6.97294884
_cell_length_c   7.08087438
_cell_angle_alpha   88.48079942
_cell_angle_beta   78.33428212
_cell_angle_gamma   78.03553850
_symmetry_Int_Tables_number   1
_chemical_formula_structural   Mn7NiPbO16
_chemical_formula_sum   'Mn7 Ni1 Pb1 O16'
_cell_volume   270.90380966
_cell_formula_units_Z   1
loop_
 _symmetry_equiv_pos_site_id
 _symmetry_equiv_pos_as_xyz
  1  'x, y, z'
loop_
 _atom_site_type_symbol
 _atom_site_label
 _atom_site_symmetry_multiplicity
 _atom_site_fract_x
 _atom_site_fract_y
 _atom_site_fract_z
 _atom_site_occupancy
  Mn  Mn0  1  0.08053312  0.50852319  0.18319692  1
  Mn  Mn1  1  0.17395864  0.81810505  0.51647798  1
  Mn  Mn2  1  0.66626121  0.82023213  0.52485046  1
  Mn  Mn3  1  0.33712056  0.18741064  0.47705347  1
  Mn  Mn4  1  0.83960800  0.18587249  0.48288340  1
  Mn  Mn5  1  0.42888904  0.48496641  0.82157906  1
  Mn  Mn6  1  0.92533856  0.48832489  0.82152422  1
  Ni  Ni0  1  0.57938190  0.52007586  0.18240566  1
  Pb  Pb0  1  0.00731472  0.95853211  0.98771379  1
  O  O0  1  0.84649054  0.65361627  0.04292816  1
  O  O1  1  0.31223418  0.65165828  0.04298149  1
  O  O2  1  0.98111371  0.70660029  0.38098519  1
  O  O3  1  0.48350668  0.70670651  0.39225745  1
  O  O4  1  0.85711839  0.95825019  0.65137960  1
  O  O5  1  0.34914704  0.95861896  0.64914132  1
  O  O6  1  0.33182594  0.37146120  0.29091319  1
  O  O7  1  0.84862613  0.36620373  0.28930305  1
  O  O8  1  0.16776623  0.63236298  0.71479360  1
  O  O9  1  0.66714765  0.62990234  0.71633777  1
  O  O10  1  0.15334767  0.04270361  0.35619897  1
  O  O11  1  0.65718861  0.04291756  0.35883811  1
  O  O12  1  0.02728903  0.29821442  0.61871715  1
  O  O13  1  0.52431839  0.30312720  0.61250236  1
  O  O14  1  0.17729388  0.35263807  0.94791540  1
  O  O15  1  0.68427822  0.35297462  0.93711720  1
loop_
_geom_bond_atom_site_label_1
_geom_bond_atom_site_label_2
_geom_bond_distance
_geom_bond_site_symmetry_2
Mn0 O6 1.844374 1_555
Mn0 O7 1.848517 1_455
Mn0 O2 1.909797 1_455
Mn0 O1 1.925315 1_555
Mn0 O0 1.931286 1_455
Mn0 O14 1.933155 1_554
Mn1 O3 1.831672 1_555
Mn1 O8 1.884968 1_555
Mn1 O2 1.889221 1_455
Mn1 O10 1.907345 1_565
Mn1 O5 1.920115 1_555
Mn1 O4 1.942643 1_455
Mn2 O3 1.839615 1_555
Mn2 O9 1.872007 1_555
Mn2 O2 1.903959 1_555
Mn2 O5 1.917437 1_555
Mn2 O11 1.920964 1_565
Mn2 O4 1.949834 1_555
Mn3 O6 1.815358 1_555
Mn3 O12 1.872184 1_555
Mn3 O13 1.880455 1_555
Mn3 O10 1.925819 1_555
Mn3 O11 1.932577 1_555
Mn3 O5 1.979904 1_545
Mn4 O7 1.835646 1_555
Mn4 O12 1.871225 1_655
Mn4 O13 1.878646 1_555
Mn4 O10 1.918911 1_655
Mn4 O11 1.925139 1_555
Mn4 O4 1.958246 1_545
Mn5 O15 1.881994 1_555
Mn5 O9 1.886685 1_555
Mn5 O13 1.892918 1_555
Mn5 O1 1.899007 1_556
Mn5 O8 1.908851 1_555
Mn5 O14 1.927290 1_555
Mn6 O15 1.873310 1_555
Mn6 O9 1.875461 1_555
Mn6 O0 1.893102 1_556
Mn6 O12 1.897736 1_655
Mn6 O8 1.903025 1_655
Mn6 O14 1.920924 1_655
Ni0 O3 1.918167 1_555
Ni0 O6 1.949632 1_555
Ni0 O7 1.960928 1_555
Ni0 O0 2.028270 1_555
Ni0 O15 2.032329 1_554
Ni0 O1 2.034334 1_555
O0 Pb0 2.478749 1_654
O1 Pb0 2.542560 1_554
O4 Pb0 2.690958 1_655
O5 Pb0 2.771818 1_555
