# generated using pymatgen
data_Cs2FeCoS4
_symmetry_space_group_name_H-M   'P 1'
_cell_length_a   7.48759690
_cell_length_b   7.48759618
_cell_length_c   7.48759636
_cell_angle_alpha   137.40128592
_cell_angle_beta   122.97823193
_cell_angle_gamma   73.71396984
_symmetry_Int_Tables_number   1
_chemical_formula_structural   Cs2FeCoS4
_chemical_formula_sum   'Cs2 Fe1 Co1 S4'
_cell_volume   232.94858096
_cell_formula_units_Z   1
loop_
 _symmetry_equiv_pos_site_id
 _symmetry_equiv_pos_as_xyz
  1  'x, y, z'
loop_
 _atom_site_type_symbol
 _atom_site_label
 _atom_site_symmetry_multiplicity
 _atom_site_fract_x
 _atom_site_fract_y
 _atom_site_fract_z
 _atom_site_occupancy
  Cs  Cs0  1  0.32874390  0.82721928  0.49847539  1
  Cs  Cs1  1  0.67125610  0.16973149  0.49847539  1
  Fe  Fe0  1  1.00000000  0.25212457  0.25212457  1
  Co  Co0  1  0.00000000  0.74811754  0.74811754  1
  S  S0  1  0.24385592  0.50306917  0.74692509  1
  S  S1  1  0.75614408  0.50306917  0.25921425  1
  S  S2  1  0.14533930  0.14367318  0.99833389  1
  S  S3  1  0.85466070  0.85299459  0.99833389  1
loop_
_geom_bond_atom_site_label_1
_geom_bond_atom_site_label_2
_geom_bond_distance
_geom_bond_site_symmetry_2
Cs0 S2 3.496071 1_565
Cs0 S2 3.497269 1_554
Cs0 S3 3.587488 1_454
Cs0 S3 3.587488 1_555
Cs0 S1 3.850335 1_555
Cs0 S0 3.850338 1_554
Cs0 S0 3.885480 1_565
Cs0 S1 3.885481 1_566
Cs1 S3 3.496071 1_555
Cs1 S3 3.497269 1_544
Cs1 S2 3.587488 1_655
Cs1 S2 3.587488 1_554
Cs1 S0 3.850338 1_544
Cs1 S1 3.850341 1_545
Cs1 S0 3.885480 1_555
Cs1 S1 3.885487 1_556
Fe0 S1 2.213978 1_555
Fe0 S0 2.213979 1_655
Fe0 S3 2.222295 1_544
Fe0 S2 2.222295 1_654
Co0 S1 2.194345 1_455
Co0 S0 2.194349 1_555
Co0 S2 2.210269 1_565
Co0 S3 2.210269 1_455
