# generated using pymatgen
data_Li4B4Ir3Ru
_symmetry_space_group_name_H-M   'P 1'
_cell_length_a   6.89295007
_cell_length_b   6.03451997
_cell_length_c   5.51561086
_cell_angle_alpha   73.12416306
_cell_angle_beta   56.90452303
_cell_angle_gamma   50.10344244
_symmetry_Int_Tables_number   1
_chemical_formula_structural   Li4B4Ir3Ru
_chemical_formula_sum   'Li4 B4 Ir3 Ru1'
_cell_volume   146.81706106
_cell_formula_units_Z   1
loop_
 _symmetry_equiv_pos_site_id
 _symmetry_equiv_pos_as_xyz
  1  'x, y, z'
loop_
 _atom_site_type_symbol
 _atom_site_label
 _atom_site_symmetry_multiplicity
 _atom_site_fract_x
 _atom_site_fract_y
 _atom_site_fract_z
 _atom_site_occupancy
  Li  Li0  1  0.12656750  0.62379161  0.62604231  1
  Li  Li1  1  0.62703893  0.62590554  0.62333230  1
  Li  Li2  1  0.62590554  0.62703893  0.12372223  1
  Li  Li3  1  0.62379161  0.12656750  0.62359858  1
  B  B0  1  0.42619956  0.07681904  0.42623684  1
  B  B1  1  0.17762570  0.81859586  0.18185171  1
  B  B2  1  0.07681904  0.42619956  0.07074457  1
  B  B3  1  0.81859586  0.17762570  0.82192673  1
  Ir  Ir0  1  0.86559508  0.86559508  0.13440492  1
  Ir  Ir1  1  0.13298177  0.13298177  0.86701823  1
  Ir  Ir2  1  0.11561173  0.11561173  0.38438827  1
  Ru  Ru0  1  0.38326768  0.38326768  0.11673232  1
loop_
_geom_bond_atom_site_label_1
_geom_bond_atom_site_label_2
_geom_bond_distance
_geom_bond_site_symmetry_2
Li0 Ru0 2.602582 1_555
Li3 Ru0 2.602582 1_556
B0 Ir0 2.074539 1_545
B0 Ir1 2.084227 1_555
B0 Ru0 2.106745 1_555
B0 Ir2 2.134659 1_555
B0 Li3 2.337417 1_555
B0 Li1 2.365627 1_545
B0 Li0 2.693718 1_555
B0 Li2 2.715521 1_545
B1 Ru0 2.062615 1_555
B1 Ir2 2.073973 1_565
B1 Ir0 2.136349 1_455
B1 Ir1 2.152042 1_564
B1 Li0 2.329189 1_555
B1 Li2 2.353337 1_555
B1 Li3 2.708146 1_465
B1 Li1 2.734167 1_554
B2 Ir0 2.074539 1_455
B2 Ir1 2.084226 1_554
B2 Ru0 2.106745 1_555
B2 Ir2 2.134659 1_555
B2 Li0 2.337417 1_554
B2 Li2 2.365630 1_455
B2 Li3 2.693718 1_554
B2 Li1 2.715518 1_455
B3 Ru0 2.062616 1_556
B3 Ir2 2.073973 1_655
B3 Ir0 2.136349 1_546
B3 Ir1 2.152042 1_655
B3 Li3 2.329189 1_555
B3 Li1 2.353339 1_555
B3 Li0 2.708145 1_645
B3 Li2 2.734163 1_556
Ir0 Li3 2.593666 1_565
Ir0 Li0 2.593666 1_654
Ir0 Li1 2.830563 1_555
Ir0 Li2 2.830566 1_555
Ir1 Li2 2.605534 1_456
Ir1 Li1 2.605535 1_545
Ir2 Li1 2.601331 1_455
Ir2 Li2 2.601332 1_545
