# generated using pymatgen
data_Nb6Al2Cu4O
_symmetry_space_group_name_H-M   'P 1'
_cell_length_a   8.07104069
_cell_length_b   8.07104024
_cell_length_c   8.07104021
_cell_angle_alpha   59.99999607
_cell_angle_beta   59.99999793
_cell_angle_gamma   59.99999442
_symmetry_Int_Tables_number   1
_chemical_formula_structural   Nb6Al2Cu4O
_chemical_formula_sum   'Nb12 Al4 Cu8 O2'
_cell_volume   371.76930030
_cell_formula_units_Z   2
loop_
 _symmetry_equiv_pos_site_id
 _symmetry_equiv_pos_as_xyz
  1  'x, y, z'
loop_
 _atom_site_type_symbol
 _atom_site_label
 _atom_site_symmetry_multiplicity
 _atom_site_fract_x
 _atom_site_fract_y
 _atom_site_fract_z
 _atom_site_occupancy
  Nb  Nb0  1  0.05519291  0.05519291  0.44480709  1
  Nb  Nb1  1  0.44480709  0.05519291  0.44480709  1
  Nb  Nb2  1  0.05519291  0.44480709  0.44480709  1
  Nb  Nb3  1  0.44480709  0.44480709  0.05519291  1
  Nb  Nb4  1  0.05519291  0.44480709  0.05519291  1
  Nb  Nb5  1  0.44480709  0.05519291  0.05519291  1
  Nb  Nb6  1  0.19480709  0.19480709  0.80519291  1
  Nb  Nb7  1  0.80519291  0.19480709  0.80519291  1
  Nb  Nb8  1  0.19480709  0.80519291  0.80519291  1
  Nb  Nb9  1  0.80519291  0.80519291  0.19480709  1
  Nb  Nb10  1  0.19480709  0.80519291  0.19480709  1
  Nb  Nb11  1  0.80519291  0.19480709  0.19480709  1
  Al  Al0  1  0.62500000  0.62500000  0.12500000  1
  Al  Al1  1  0.62500000  0.12500000  0.62500000  1
  Al  Al2  1  0.12500000  0.62500000  0.62500000  1
  Al  Al3  1  0.62500000  0.62500000  0.62500000  1
  Cu  Cu0  1  0.41905042  0.41905042  0.74284875  1
  Cu  Cu1  1  0.41905042  0.74284875  0.41905042  1
  Cu  Cu2  1  0.74284875  0.41905042  0.41905042  1
  Cu  Cu3  1  0.41905042  0.41905042  0.41905042  1
  Cu  Cu4  1  0.83094958  0.83094958  0.50715125  1
  Cu  Cu5  1  0.83094958  0.50715125  0.83094958  1
  Cu  Cu6  1  0.50715125  0.83094958  0.83094958  1
  Cu  Cu7  1  0.83094958  0.83094958  0.83094958  1
  O  O0  1  0.25000000  0.25000000  0.25000000  1
  O  O1  1  0.00000000  0.00000000  0.00000000  1
loop_
_geom_bond_atom_site_label_1
_geom_bond_atom_site_label_2
_geom_bond_distance
_geom_bond_site_symmetry_2
Nb0 O0 2.223562 1_555
Nb1 O0 2.223562 1_555
Nb2 O0 2.223562 1_555
Nb3 O0 2.223562 1_555
Nb4 O0 2.223562 1_555
Nb5 O0 2.223562 1_555
Nb6 O1 2.223562 1_556
Nb7 O1 2.223562 1_656
Nb8 O1 2.223562 1_566
Nb9 O1 2.223562 1_665
Nb10 O1 2.223562 1_565
Nb11 O1 2.223562 1_655
Al0 Cu2 2.455934 1_555
Al0 Cu6 2.455934 1_554
Al0 Cu1 2.455934 1_555
Al0 Cu5 2.455934 1_554
Al0 Cu7 2.455934 1_554
Al0 Cu3 2.455934 1_555
Al1 Cu7 2.455934 1_545
Al1 Cu3 2.455934 1_555
Al1 Cu0 2.455934 1_555
Al1 Cu4 2.455934 1_545
Al1 Cu2 2.455934 1_555
Al1 Cu6 2.455934 1_545
Al2 Cu7 2.455934 1_455
Al2 Cu3 2.455934 1_555
Al2 Cu0 2.455934 1_555
Al2 Cu4 2.455934 1_455
Al2 Cu1 2.455934 1_555
Al2 Cu5 2.455934 1_455
Al3 Cu6 2.455934 1_555
Al3 Cu2 2.455934 1_555
Al3 Cu5 2.455934 1_555
Al3 Cu1 2.455934 1_555
Al3 Cu4 2.455934 1_555
Al3 Cu0 2.455934 1_555
Cu0 Cu1 2.613389 1_555
Cu0 Cu2 2.613389 1_555
Cu0 Cu3 2.613389 1_555
Cu0 Nb5 2.744616 1_556
Cu0 Nb4 2.744616 1_556
Cu0 Nb3 2.744616 1_556
Cu0 Nb8 2.873806 1_555
Cu0 Nb7 2.873806 1_555
Cu0 Nb6 2.873806 1_555
Cu1 Cu2 2.613389 1_555
Cu1 Cu3 2.613389 1_555
Cu1 Nb5 2.744616 1_565
Cu1 Nb0 2.744616 1_565
Cu1 Nb1 2.744616 1_565
Cu1 Nb8 2.873806 1_555
Cu1 Nb10 2.873806 1_555
Cu1 Nb9 2.873806 1_555
Cu2 Cu3 2.613390 1_555
Cu2 Nb0 2.744616 1_655
Cu2 Nb4 2.744616 1_655
Cu2 Nb2 2.744617 1_655
Cu2 Nb7 2.873806 1_555
Cu2 Nb9 2.873806 1_555
Cu2 Nb11 2.873806 1_555
Cu3 Nb1 2.744616 1_555
Cu3 Nb3 2.744616 1_555
Cu3 Nb2 2.744616 1_555
Cu3 Nb10 2.873806 1_555
Cu3 Nb11 2.873806 1_555
Cu3 Nb6 2.873806 1_555
Cu4 Cu5 2.613389 1_555
Cu4 Cu6 2.613389 1_555
Cu4 Cu7 2.613389 1_555
Cu4 Nb11 2.744616 1_565
Cu4 Nb10 2.744616 1_655
Cu4 Nb9 2.744616 1_555
Cu4 Nb2 2.873806 1_655
Cu4 Nb1 2.873806 1_565
Cu4 Nb0 2.873806 1_665
Cu5 Cu6 2.613389 1_555
Cu5 Cu7 2.613389 1_555
Cu5 Nb11 2.744616 1_556
Cu5 Nb6 2.744616 1_655
Cu5 Nb7 2.744616 1_555
Cu5 Nb2 2.873806 1_655
Cu5 Nb4 2.873806 1_656
Cu5 Nb3 2.873806 1_556
Cu6 Cu7 2.613390 1_555
Cu6 Nb6 2.744616 1_565
Cu6 Nb10 2.744616 1_556
Cu6 Nb8 2.744617 1_555
Cu6 Nb1 2.873806 1_565
Cu6 Nb3 2.873806 1_556
Cu6 Nb5 2.873806 1_566
Cu7 Nb7 2.744616 1_565
Cu7 Nb9 2.744616 1_556
Cu7 Nb8 2.744616 1_655
Cu7 Nb4 2.873806 1_656
Cu7 Nb5 2.873806 1_566
Cu7 Nb0 2.873806 1_665
