# generated using pymatgen
data_K2SbPd3
_symmetry_space_group_name_H-M   'P 1'
_cell_length_a   5.46679407
_cell_length_b   5.92629898
_cell_length_c   5.92629898
_cell_angle_alpha   60.00000540
_cell_angle_beta   57.17827987
_cell_angle_gamma   57.17827391
_symmetry_Int_Tables_number   1
_chemical_formula_structural   K2SbPd3
_chemical_formula_sum   'K2 Sb1 Pd3'
_cell_volume   129.68231710
_cell_formula_units_Z   1
loop_
 _symmetry_equiv_pos_site_id
 _symmetry_equiv_pos_as_xyz
  1  'x, y, z'
loop_
 _atom_site_type_symbol
 _atom_site_label
 _atom_site_symmetry_multiplicity
 _atom_site_fract_x
 _atom_site_fract_y
 _atom_site_fract_z
 _atom_site_occupancy
  K  K0  1  0.48995628  0.50334791  0.50334791  1
  K  K1  1  0.76004372  0.74665209  0.74665209  1
  Sb  Sb0  1  0.62500000  0.12500000  0.12500000  1
  Pd  Pd0  1  0.12500000  0.62500000  0.12500000  1
  Pd  Pd1  1  0.12500000  0.12500000  0.62500000  1
  Pd  Pd2  1  0.12500000  0.12500000  0.12500000  1
loop_
_geom_bond_atom_site_label_1
_geom_bond_atom_site_label_2
_geom_bond_distance
_geom_bond_site_symmetry_2
K0 K1 3.112102 1_455
K0 Pd1 3.202799 1_655
K0 Pd2 3.202799 1_655
K0 Pd0 3.202799 1_655
K0 Pd0 3.346872 1_555
K0 Pd1 3.346872 1_565
K0 Pd1 3.346872 1_555
K0 Pd2 3.346872 1_565
K0 Pd0 3.346872 1_556
K0 Pd2 3.346872 1_556
K0 Sb0 3.469658 1_555
K0 Sb0 3.469659 1_556
K0 Sb0 3.469659 1_565
K1 Pd1 3.202799 1_565
K1 Pd2 3.202799 1_566
K1 Pd0 3.202799 1_556
K1 Pd0 3.346872 1_656
K1 Pd1 3.346872 1_655
K1 Pd1 3.346872 1_665
K1 Pd2 3.346872 1_656
K1 Pd0 3.346872 1_655
K1 Pd2 3.346872 1_665
K1 Sb0 3.469658 1_566
K1 Sb0 3.469659 1_565
K1 Sb0 3.469659 1_556
Pd0 Sb0 2.733397 1_465
Pd0 Sb0 2.733397 1_555
Pd0 Pd2 2.963149 1_565
Pd0 Pd2 2.963149 1_555
Pd0 Pd1 2.963150 1_564
Pd0 Pd1 2.963150 1_555
Pd1 Sb0 2.733397 1_555
Pd1 Sb0 2.733397 1_456
Pd1 Pd2 2.963149 1_556
Pd1 Pd2 2.963149 1_555
Pd2 Sb0 2.733397 1_455
Pd2 Sb0 2.733397 1_555
