# generated using pymatgen
data_NaZr8(In2Co)7
_symmetry_space_group_name_H-M   'P 1'
_cell_length_a   9.41580809
_cell_length_b   9.41580766
_cell_length_c   9.41580790
_cell_angle_alpha   59.99999917
_cell_angle_beta   60.00000068
_cell_angle_gamma   60.00000092
_symmetry_Int_Tables_number   1
_chemical_formula_structural   NaZr8(In2Co)7
_chemical_formula_sum   'Na1 Zr8 In14 Co7'
_cell_volume   590.27959580
_cell_formula_units_Z   1
loop_
 _symmetry_equiv_pos_site_id
 _symmetry_equiv_pos_as_xyz
  1  'x, y, z'
loop_
 _atom_site_type_symbol
 _atom_site_label
 _atom_site_symmetry_multiplicity
 _atom_site_fract_x
 _atom_site_fract_y
 _atom_site_fract_z
 _atom_site_occupancy
  Na  Na0  1  0.50000000  0.50000000  0.50000000  1
  Zr  Zr0  1  0.12076293  0.63771222  0.12076293  1
  Zr  Zr1  1  0.36228778  0.87923707  0.87923707  1
  Zr  Zr2  1  0.87923707  0.87923707  0.87923707  1
  Zr  Zr3  1  0.63771222  0.12076293  0.12076293  1
  Zr  Zr4  1  0.87923707  0.87923707  0.36228778  1
  Zr  Zr5  1  0.12076293  0.12076293  0.12076293  1
  Zr  Zr6  1  0.87923707  0.36228778  0.87923707  1
  Zr  Zr7  1  0.12076293  0.12076293  0.63771222  1
  In  In0  1  0.50000000  0.84137484  0.15862516  1
  In  In1  1  0.50000000  0.84137484  0.50000000  1
  In  In2  1  0.50000000  0.15862516  0.50000000  1
  In  In3  1  0.50000000  0.50000000  0.84137484  1
  In  In4  1  0.15862516  0.50000000  0.50000000  1
  In  In5  1  0.84137484  0.15862516  0.50000000  1
  In  In6  1  0.15862516  0.84137484  0.50000000  1
  In  In7  1  0.50000000  0.15862516  0.84137484  1
  In  In8  1  0.15862516  0.50000000  0.84137484  1
  In  In9  1  0.50000000  0.50000000  0.15862516  1
  In  In10  1  0.84137484  0.50000000  0.50000000  1
  In  In11  1  0.84137484  0.50000000  0.15862516  1
  In  In12  1  0.25000000  0.25000000  0.25000000  1
  In  In13  1  0.75000000  0.75000000  0.75000000  1
  Co  Co0  1  0.78175040  0.78175040  0.21824960  1
  Co  Co1  1  0.00000000  0.00000000  0.00000000  1
  Co  Co2  1  0.21824960  0.78175040  0.21824960  1
  Co  Co3  1  0.21824960  0.78175040  0.78175040  1
  Co  Co4  1  0.21824960  0.21824960  0.78175040  1
  Co  Co5  1  0.78175040  0.21824960  0.78175040  1
  Co  Co6  1  0.78175040  0.21824960  0.21824960  1
loop_
_geom_bond_atom_site_label_1
_geom_bond_atom_site_label_2
_geom_bond_distance
_geom_bond_site_symmetry_2
In0 In7 2.987168 1_564
In0 Na0 3.214320 1_555
In0 In9 3.214320 1_555
In0 In1 3.214320 1_555
In0 In11 3.214320 1_555
In0 In6 3.214320 1_555
In0 Zr2 3.277164 1_554
In0 Zr5 3.277164 1_565
In0 Zr3 3.277171 1_565
In0 Zr1 3.277171 1_554
In1 In2 2.987168 1_565
In1 In3 3.214320 1_555
In1 Na0 3.214320 1_555
In1 In10 3.214320 1_555
In1 In6 3.214320 1_555
In1 Zr1 3.277162 1_555
In1 Zr4 3.277162 1_555
In1 Zr3 3.277166 1_565
In1 Zr7 3.277166 1_565
In2 In9 3.214320 1_555
In2 Na0 3.214320 1_555
In2 In7 3.214320 1_555
In2 In4 3.214320 1_555
In2 In5 3.214320 1_555
In2 Zr3 3.277162 1_555
In2 Zr7 3.277162 1_555
In2 Zr1 3.277166 1_545
In2 Zr4 3.277166 1_545
In3 In9 2.987168 1_556
In3 In7 3.214320 1_555
In3 Na0 3.214320 1_555
In3 In8 3.214320 1_555
In3 Zr1 3.277162 1_555
In3 Zr6 3.277162 1_555
In3 Zr3 3.277166 1_556
In3 Zr0 3.277166 1_556
In4 In6 3.214320 1_555
In4 In8 3.214320 1_555
In4 In9 3.214320 1_555
In4 Na0 3.214320 1_555
In4 Zr7 3.277162 1_555
In4 Zr0 3.277162 1_555
In4 Zr4 3.277166 1_455
In4 Zr6 3.277166 1_455
In5 In6 2.987168 1_645
In5 Na0 3.214320 1_555
In5 In7 3.214320 1_555
In5 Zr2 3.277164 1_545
In5 Zr5 3.277164 1_655
In5 Zr4 3.277171 1_545
In5 Zr7 3.277171 1_655
In6 In8 3.214320 1_555
In6 Na0 3.214320 1_555
In6 Zr5 3.277164 1_565
In6 Zr2 3.277164 1_455
In6 Zr7 3.277171 1_565
In6 Zr4 3.277171 1_455
In7 Na0 3.214320 1_555
In7 In8 3.214320 1_555
In7 Zr5 3.277164 1_556
In7 Zr2 3.277164 1_545
In7 Zr1 3.277171 1_545
In7 Zr3 3.277171 1_556
In8 Na0 3.214320 1_555
In8 Zr5 3.277164 1_556
In8 Zr2 3.277164 1_455
In8 Zr0 3.277171 1_556
In8 Zr6 3.277171 1_455
In9 Na0 3.214320 1_555
In9 Zr3 3.277162 1_555
In9 Zr0 3.277162 1_555
In9 Zr1 3.277166 1_554
In9 Zr6 3.277166 1_554
In10 In4 2.987168 1_655
In10 In5 3.214320 1_555
In10 In11 3.214320 1_555
In10 Na0 3.214320 1_555
In10 In3 3.214320 1_555
In10 Zr4 3.277162 1_555
In10 Zr6 3.277162 1_555
In10 Zr7 3.277166 1_655
In10 Zr0 3.277166 1_655
In11 In8 2.987168 1_654
In11 In5 3.214320 1_555
In11 In9 3.214320 1_555
In11 Na0 3.214320 1_555
In11 Zr2 3.277164 1_554
In11 Zr5 3.277164 1_655
In11 Zr6 3.277171 1_554
In11 Zr0 3.277171 1_655
In12 Zr5 2.980714 1_555
In12 Zr0 2.980722 1_555
In12 Zr7 2.980722 1_555
In12 Zr3 2.980722 1_555
In13 Zr2 2.980714 1_555
In13 Zr6 2.980722 1_555
In13 Zr4 2.980722 1_555
In13 Zr1 2.980722 1_555
Co0 Zr4 2.618569 1_555
Co0 Zr3 2.618577 1_565
Co0 Zr0 2.618577 1_655
Co0 Zr2 2.618577 1_554
Co0 In10 2.711660 1_555
Co0 In11 2.711660 1_555
Co0 In1 2.711661 1_555
Co0 In0 2.711661 1_555
Co1 Zr6 2.785259 1_454
Co1 Zr0 2.785259 1_545
Co1 Zr4 2.785259 1_445
Co1 Zr7 2.785259 1_554
Co1 Zr1 2.785259 1_544
Co1 Zr3 2.785259 1_455
Co1 Zr5 2.785267 1_555
Co1 Zr2 2.785267 1_444
Co2 Zr0 2.618569 1_555
Co2 Zr1 2.618577 1_554
Co2 Zr4 2.618577 1_455
Co2 Zr5 2.618577 1_565
Co2 In4 2.711660 1_555
Co2 In6 2.711660 1_555
Co2 In9 2.711661 1_555
Co2 In0 2.711661 1_555
Co3 Zr1 2.618569 1_555
Co3 Zr7 2.618576 1_565
Co3 Zr0 2.618577 1_556
Co3 Zr2 2.618577 1_455
Co3 In8 2.711660 1_555
Co3 In6 2.711660 1_555
Co3 In3 2.711661 1_555
Co3 In1 2.711661 1_555
Co4 Zr7 2.618569 1_555
Co4 Zr1 2.618577 1_545
Co4 Zr6 2.618577 1_455
Co4 Zr5 2.618577 1_556
Co4 In4 2.711660 1_555
Co4 In8 2.711660 1_555
Co4 In2 2.711661 1_555
Co4 In7 2.711661 1_555
Co5 Zr6 2.618569 1_555
Co5 Zr3 2.618577 1_556
Co5 Zr7 2.618577 1_655
Co5 Zr2 2.618577 1_545
Co5 In10 2.711660 1_555
Co5 In5 2.711660 1_555
Co5 In3 2.711661 1_555
Co5 In7 2.711661 1_555
Co6 Zr3 2.618569 1_555
Co6 Zr4 2.618576 1_545
Co6 Zr6 2.618577 1_554
Co6 Zr5 2.618577 1_655
Co6 In11 2.711660 1_555
Co6 In5 2.711660 1_555
Co6 In9 2.711661 1_555
Co6 In2 2.711661 1_555
