# generated using pymatgen
data_Be7VSiMo3
_symmetry_space_group_name_H-M   'P 1'
_cell_length_a   4.43515671
_cell_length_b   4.43515766
_cell_length_c   7.36592531
_cell_angle_alpha   90.00000000
_cell_angle_beta   90.00000000
_cell_angle_gamma   119.99999292
_symmetry_Int_Tables_number   1
_chemical_formula_structural   Be7VSiMo3
_chemical_formula_sum   'Be7 V1 Si1 Mo3'
_cell_volume   125.48043191
_cell_formula_units_Z   1
loop_
 _symmetry_equiv_pos_site_id
 _symmetry_equiv_pos_as_xyz
  1  'x, y, z'
loop_
 _atom_site_type_symbol
 _atom_site_label
 _atom_site_symmetry_multiplicity
 _atom_site_fract_x
 _atom_site_fract_y
 _atom_site_fract_z
 _atom_site_occupancy
  Be  Be0  1  0.00000000  0.00000000  0.00096653  1
  Be  Be1  1  0.82870179  0.17129821  0.24521274  1
  Be  Be2  1  0.82870179  0.65740259  0.24521274  1
  Be  Be3  1  0.34259741  0.17129821  0.24521274  1
  Be  Be4  1  0.17125171  0.82874829  0.75499114  1
  Be  Be5  1  0.17125171  0.34250442  0.75499114  1
  Be  Be6  1  0.65749558  0.82874829  0.75499114  1
  V  V0  1  0.33333300  0.66666700  0.43605977  1
  Si  Si0  1  0.00000000  0.00000000  0.49857364  1
  Mo  Mo0  1  0.66666700  0.33333300  0.56180755  1
  Mo  Mo1  1  0.66666700  0.33333300  0.93832583  1
  Mo  Mo2  1  0.33333300  0.66666700  0.06365703  1
loop_
_geom_bond_atom_site_label_1
_geom_bond_atom_site_label_2
_geom_bond_distance
_geom_bond_site_symmetry_2
Be0 Be1 2.228979 1_455
Be0 Be3 2.228981 1_555
Be0 Be2 2.228981 1_445
Be0 Be4 2.239062 1_544
Be0 Be6 2.239065 1_444
Be0 Be5 2.239065 1_554
Be0 Mo1 2.601875 1_454
Be0 Mo1 2.601879 1_554
Be0 Mo1 2.601880 1_444
Be0 Mo2 2.601940 1_545
Be0 Mo2 2.601944 1_445
Be0 Mo2 2.601945 1_555
Be1 Be3 2.155949 1_555
Be1 Be2 2.155950 1_555
Be1 Be3 2.279208 1_655
Be1 Be2 2.279208 1_545
Be1 Si0 2.283513 1_655
Be1 Mo1 2.580554 1_554
Be1 Mo2 2.589857 1_655
Be1 Mo2 2.589858 1_545
Be1 V0 2.625852 1_655
Be1 V0 2.625852 1_545
Be1 Mo0 2.643418 1_555
Be2 Be3 2.155950 1_555
Be2 Be3 2.279208 1_665
Be2 Si0 2.283515 1_665
Be2 Mo1 2.580554 1_554
Be2 Mo2 2.589853 1_655
Be2 Mo2 2.589861 1_555
Be2 V0 2.625848 1_655
Be2 V0 2.625855 1_555
Be2 Mo0 2.643418 1_555
Be3 Si0 2.283515 1_555
Be3 Mo1 2.580554 1_554
Be3 Mo2 2.589854 1_545
Be3 Mo2 2.589861 1_555
Be3 V0 2.625848 1_545
Be3 V0 2.625855 1_555
Be3 Mo0 2.643418 1_555
Be4 Be6 2.156568 1_555
Be4 Be5 2.156568 1_555
Be4 Be6 2.278589 1_455
Be4 Be5 2.278589 1_565
Be4 Si0 2.301746 1_565
Be4 Mo2 2.592212 1_556
Be4 Mo1 2.596643 1_455
Be4 Mo1 2.596643 1_565
Be4 Mo0 2.635101 1_455
Be4 Mo0 2.635101 1_565
Be4 V0 2.658781 1_555
Be5 Be6 2.156568 1_555
Be5 Be6 2.278589 1_445
Be5 Si0 2.301748 1_555
Be5 Mo2 2.592212 1_556
Be5 Mo1 2.596639 1_455
Be5 Mo1 2.596647 1_555
Be5 Mo0 2.635097 1_455
Be5 Mo0 2.635104 1_555
Be5 V0 2.658781 1_555
Be6 Si0 2.301748 1_665
Be6 Mo2 2.592212 1_556
Be6 Mo1 2.596640 1_565
Be6 Mo1 2.596647 1_555
Be6 Mo0 2.635097 1_565
Be6 Mo0 2.635105 1_555
Be6 V0 2.658781 1_555
Si0 V0 2.601710 1_545
Si0 V0 2.601714 1_445
Si0 V0 2.601714 1_555
Mo0 Si0 2.602654 1_655
Mo0 Si0 2.602658 1_555
Mo0 Si0 2.602658 1_665
Mo0 V0 2.723012 1_655
Mo0 V0 2.723013 1_545
Mo0 V0 2.723020 1_555
Mo1 Mo2 2.721970 1_656
Mo1 Mo2 2.721971 1_546
Mo1 Mo2 2.721977 1_556
Mo2 V0 2.743091 1_555
