# generated using pymatgen
data_Nd2TeO6
_symmetry_space_group_name_H-M   'P 1'
_cell_length_a   5.43924828
_cell_length_b   9.33458112
_cell_length_c   10.21135645
_cell_angle_alpha   90.00000000
_cell_angle_beta   90.00000000
_cell_angle_gamma   90.00000000
_symmetry_Int_Tables_number   1
_chemical_formula_structural   Nd2TeO6
_chemical_formula_sum   'Nd8 Te4 O24'
_cell_volume   518.46226610
_cell_formula_units_Z   4
loop_
 _symmetry_equiv_pos_site_id
 _symmetry_equiv_pos_as_xyz
  1  'x, y, z'
loop_
 _atom_site_type_symbol
 _atom_site_label
 _atom_site_symmetry_multiplicity
 _atom_site_fract_x
 _atom_site_fract_y
 _atom_site_fract_z
 _atom_site_occupancy
  Nd  Nd0  1  0.02590326  0.10432613  0.45926487  1
  Nd  Nd1  1  0.52590326  0.39567387  0.54073513  1
  Nd  Nd2  1  0.97409674  0.60432613  0.04073513  1
  Nd  Nd3  1  0.47409674  0.89567387  0.95926487  1
  Nd  Nd4  1  0.03305283  0.21723843  0.86241068  1
  Nd  Nd5  1  0.53305283  0.28276157  0.13758932  1
  Nd  Nd6  1  0.96694717  0.71723843  0.63758932  1
  Nd  Nd7  1  0.46694717  0.78276157  0.36241068  1
  Te  Te0  1  0.54181870  0.00440160  0.64341791  1
  Te  Te1  1  0.04181870  0.49559840  0.35658209  1
  Te  Te2  1  0.45818130  0.50440160  0.85658209  1
  Te  Te3  1  0.95818130  0.99559840  0.14341791  1
  O  O0  1  0.25252999  0.41443786  0.99070064  1
  O  O1  1  0.75252999  0.08556214  0.00929936  1
  O  O2  1  0.74747001  0.91443786  0.50929936  1
  O  O3  1  0.24747001  0.58556214  0.49070064  1
  O  O4  1  0.21999518  0.11141922  0.06626955  1
  O  O5  1  0.71999518  0.38858078  0.93373045  1
  O  O6  1  0.78000482  0.61141922  0.43373045  1
  O  O7  1  0.28000482  0.88858078  0.56626955  1
  O  O8  1  0.30655280  0.36195079  0.32341400  1
  O  O9  1  0.80655280  0.13804921  0.67658600  1
  O  O10  1  0.69344720  0.86195079  0.17658600  1
  O  O11  1  0.19344720  0.63804921  0.82341400  1
  O  O12  1  0.16586745  0.94638630  0.28612528  1
  O  O13  1  0.66586745  0.55361370  0.71387472  1
  O  O14  1  0.83413255  0.44638630  0.21387472  1
  O  O15  1  0.33413255  0.05361370  0.78612528  1
  O  O16  1  0.17964497  0.63619411  0.24290979  1
  O  O17  1  0.67964497  0.86380589  0.75709021  1
  O  O18  1  0.82035503  0.13619411  0.25709021  1
  O  O19  1  0.32035503  0.36380589  0.74290979  1
  O  O20  1  0.06930591  0.85122564  0.02308369  1
  O  O21  1  0.56930591  0.64877436  0.97691631  1
  O  O22  1  0.93069409  0.35122564  0.47691631  1
  O  O23  1  0.43069409  0.14877436  0.52308369  1
loop_
_geom_bond_atom_site_label_1
_geom_bond_atom_site_label_2
_geom_bond_distance
_geom_bond_site_symmetry_2
Nd0 O23 2.333360 1_555
Nd0 O18 2.366547 1_455
Nd0 O22 2.369036 1_455
Nd0 O2 2.386735 1_445
Nd0 O12 2.424651 1_545
Nd0 O9 2.539130 1_455
Nd0 O7 2.675805 1_545
Nd1 O22 2.333360 1_555
Nd1 O19 2.366547 1_555
Nd1 O23 2.369036 1_555
Nd1 O3 2.386735 1_555
Nd1 O13 2.424651 1_555
Nd1 O8 2.539130 1_555
Nd1 O6 2.675805 1_555
Nd2 O21 2.333360 1_554
Nd2 O16 2.366547 1_655
Nd2 O20 2.369036 1_655
Nd2 O0 2.386735 1_654
Nd2 O14 2.424651 1_555
Nd2 O11 2.539130 1_654
Nd2 O5 2.675805 1_554
Nd3 O20 2.333360 1_556
Nd3 O17 2.366547 1_555
Nd3 O21 2.369036 1_555
Nd3 O1 2.386735 1_566
Nd3 O15 2.424651 1_565
Nd3 O10 2.539130 1_556
Nd3 O4 2.675805 1_566
Nd4 O15 2.370981 1_555
Nd4 O9 2.380085 1_455
Nd4 O19 2.408927 1_555
Nd4 O5 2.447041 1_455
Nd4 O1 2.467541 1_456
Nd4 O4 2.518534 1_556
Nd4 O0 2.555332 1_555
Nd5 O14 2.370981 1_555
Nd5 O8 2.380085 1_555
Nd5 O18 2.408927 1_555
Nd5 O4 2.447041 1_555
Nd5 O0 2.467541 1_554
Nd5 O5 2.518534 1_554
Nd5 O1 2.555332 1_555
Nd6 O13 2.370981 1_555
Nd6 O11 2.380085 1_655
Nd6 O17 2.408927 1_555
Nd6 O7 2.447041 1_655
Nd6 O3 2.467541 1_655
Nd6 O6 2.518534 1_555
Nd6 O2 2.555332 1_555
Nd7 O12 2.370981 1_555
Nd7 O10 2.380085 1_555
Nd7 O16 2.408927 1_555
Nd7 O6 2.447041 1_555
Nd7 O2 2.467541 1_555
Nd7 O7 2.518534 1_555
Nd7 O3 2.555332 1_555
O0 Te2 1.957570 1_555
O1 Te3 1.957570 1_545
O2 Te0 1.957570 1_565
O3 Te1 1.957570 1_555
O4 Te3 1.953830 1_445
O5 Te2 1.953830 1_555
O6 Te1 1.953830 1_655
O7 Te0 1.953830 1_565
O8 Te1 1.935083 1_555
O9 Te0 1.935083 1_555
O10 Te3 1.935083 1_555
O11 Te2 1.935083 1_555
O12 Te3 1.900180 1_455
O13 Te2 1.900180 1_555
O14 Te1 1.900180 1_655
O15 Te0 1.900180 1_555
O16 Te1 1.905713 1_555
O17 Te0 1.905713 1_565
O18 Te3 1.905713 1_545
O19 Te2 1.905713 1_555
O20 Te3 1.921306 1_455
O21 Te2 1.921306 1_555
O22 Te1 1.921306 1_655
O23 Te0 1.921306 1_555
