# generated using pymatgen
data_Cd2GeB2Rh5
_symmetry_space_group_name_H-M   'P 1'
_cell_length_a   19.08043491
_cell_length_b   19.08043491
_cell_length_c   5.81443702
_cell_angle_alpha   90.00000000
_cell_angle_beta   90.00000000
_cell_angle_gamma   90.00000000
_symmetry_Int_Tables_number   1
_chemical_formula_structural   Cd2GeB2Rh5
_chemical_formula_sum   'Cd32 Ge16 B32 Rh80'
_cell_volume   2116.82136356
_cell_formula_units_Z   16
loop_
 _symmetry_equiv_pos_site_id
 _symmetry_equiv_pos_as_xyz
  1  'x, y, z'
loop_
 _atom_site_type_symbol
 _atom_site_label
 _atom_site_symmetry_multiplicity
 _atom_site_fract_x
 _atom_site_fract_y
 _atom_site_fract_z
 _atom_site_occupancy
  Cd  Cd0_0  1  0.41197435  0.16197435  0.00000000  1
  Cd  Cd0_1  1  0.41197435  0.16197435  0.50000000  1
  Cd  Cd0_2  1  0.41197435  0.66197435  0.00000000  1
  Cd  Cd0_3  1  0.41197435  0.66197435  0.50000000  1
  Cd  Cd0_4  1  0.91197435  0.16197435  0.00000000  1
  Cd  Cd0_5  1  0.91197435  0.16197435  0.50000000  1
  Cd  Cd0_6  1  0.91197435  0.66197435  0.00000000  1
  Cd  Cd0_7  1  0.91197435  0.66197435  0.50000000  1
  Cd  Cd1_0  1  0.16197435  0.08802565  0.00000000  1
  Cd  Cd1_1  1  0.16197435  0.08802565  0.50000000  1
  Cd  Cd1_2  1  0.16197435  0.58802565  0.00000000  1
  Cd  Cd1_3  1  0.16197435  0.58802565  0.50000000  1
  Cd  Cd1_4  1  0.66197435  0.08802565  0.00000000  1
  Cd  Cd1_5  1  0.66197435  0.08802565  0.50000000  1
  Cd  Cd1_6  1  0.66197435  0.58802565  0.00000000  1
  Cd  Cd1_7  1  0.66197435  0.58802565  0.50000000  1
  Cd  Cd2_0  1  0.33802565  0.41197435  0.00000000  1
  Cd  Cd2_1  1  0.33802565  0.41197435  0.50000000  1
  Cd  Cd2_2  1  0.33802565  0.91197435  0.00000000  1
  Cd  Cd2_3  1  0.33802565  0.91197435  0.50000000  1
  Cd  Cd2_4  1  0.83802565  0.41197435  0.00000000  1
  Cd  Cd2_5  1  0.83802565  0.41197435  0.50000000  1
  Cd  Cd2_6  1  0.83802565  0.91197435  0.00000000  1
  Cd  Cd2_7  1  0.83802565  0.91197435  0.50000000  1
  Cd  Cd3_0  1  0.08802565  0.33802565  0.00000000  1
  Cd  Cd3_1  1  0.08802565  0.33802565  0.50000000  1
  Cd  Cd3_2  1  0.08802565  0.83802565  0.00000000  1
  Cd  Cd3_3  1  0.08802565  0.83802565  0.50000000  1
  Cd  Cd3_4  1  0.58802565  0.33802565  0.00000000  1
  Cd  Cd3_5  1  0.58802565  0.33802565  0.50000000  1
  Cd  Cd3_6  1  0.58802565  0.83802565  0.00000000  1
  Cd  Cd3_7  1  0.58802565  0.83802565  0.50000000  1
  Ge  Ge0_0  1  0.00000000  0.00000000  0.00000000  1
  Ge  Ge0_1  1  0.00000000  0.00000000  0.50000000  1
  Ge  Ge0_2  1  0.00000000  0.50000000  0.00000000  1
  Ge  Ge0_3  1  0.00000000  0.50000000  0.50000000  1
  Ge  Ge0_4  1  0.50000000  0.00000000  0.00000000  1
  Ge  Ge0_5  1  0.50000000  0.00000000  0.50000000  1
  Ge  Ge0_6  1  0.50000000  0.50000000  0.00000000  1
  Ge  Ge0_7  1  0.50000000  0.50000000  0.50000000  1
  Ge  Ge1_0  1  0.25000000  0.25000000  0.00000000  1
  Ge  Ge1_1  1  0.25000000  0.25000000  0.50000000  1
  Ge  Ge1_2  1  0.25000000  0.75000000  0.00000000  1
  Ge  Ge1_3  1  0.25000000  0.75000000  0.50000000  1
  Ge  Ge1_4  1  0.75000000  0.25000000  0.00000000  1
  Ge  Ge1_5  1  0.75000000  0.25000000  0.50000000  1
  Ge  Ge1_6  1  0.75000000  0.75000000  0.00000000  1
  Ge  Ge1_7  1  0.75000000  0.75000000  0.50000000  1
  B  B0_0  1  0.31222004  0.06222004  0.00000000  1
  B  B0_1  1  0.31222004  0.06222004  0.50000000  1
  B  B0_2  1  0.31222004  0.56222004  0.00000000  1
  B  B0_3  1  0.31222004  0.56222004  0.50000000  1
  B  B0_4  1  0.81222004  0.06222004  0.00000000  1
  B  B0_5  1  0.81222004  0.06222004  0.50000000  1
  B  B0_6  1  0.81222004  0.56222004  0.00000000  1
  B  B0_7  1  0.81222004  0.56222004  0.50000000  1
  B  B1_0  1  0.06222004  0.18777996  0.00000000  1
  B  B1_1  1  0.06222004  0.18777996  0.50000000  1
  B  B1_2  1  0.06222004  0.68777996  0.00000000  1
  B  B1_3  1  0.06222004  0.68777996  0.50000000  1
  B  B1_4  1  0.56222004  0.18777996  0.00000000  1
  B  B1_5  1  0.56222004  0.18777996  0.50000000  1
  B  B1_6  1  0.56222004  0.68777996  0.00000000  1
  B  B1_7  1  0.56222004  0.68777996  0.50000000  1
  B  B2_0  1  0.43777996  0.31222004  0.00000000  1
  B  B2_1  1  0.43777996  0.31222004  0.50000000  1
  B  B2_2  1  0.43777996  0.81222004  0.00000000  1
  B  B2_3  1  0.43777996  0.81222004  0.50000000  1
  B  B2_4  1  0.93777996  0.31222004  0.00000000  1
  B  B2_5  1  0.93777996  0.31222004  0.50000000  1
  B  B2_6  1  0.93777996  0.81222004  0.00000000  1
  B  B2_7  1  0.93777996  0.81222004  0.50000000  1
  B  B3_0  1  0.18777996  0.43777996  0.00000000  1
  B  B3_1  1  0.18777996  0.43777996  0.50000000  1
  B  B3_2  1  0.18777996  0.93777996  0.00000000  1
  B  B3_3  1  0.18777996  0.93777996  0.50000000  1
  B  B3_4  1  0.68777996  0.43777996  0.00000000  1
  B  B3_5  1  0.68777996  0.43777996  0.50000000  1
  B  B3_6  1  0.68777996  0.93777996  0.00000000  1
  B  B3_7  1  0.68777996  0.93777996  0.50000000  1
  Rh  Rh0_0  1  0.03511252  0.10724946  0.25000000  1
  Rh  Rh0_1  1  0.03511252  0.10724946  0.75000000  1
  Rh  Rh0_2  1  0.03511252  0.60724946  0.25000000  1
  Rh  Rh0_3  1  0.03511252  0.60724946  0.75000000  1
  Rh  Rh0_4  1  0.53511252  0.10724946  0.25000000  1
  Rh  Rh0_5  1  0.53511252  0.10724946  0.75000000  1
  Rh  Rh0_6  1  0.53511252  0.60724946  0.25000000  1
  Rh  Rh0_7  1  0.53511252  0.60724946  0.75000000  1
  Rh  Rh1_0  1  0.10724946  0.46488748  0.25000000  1
  Rh  Rh1_1  1  0.10724946  0.46488748  0.75000000  1
  Rh  Rh1_2  1  0.10724946  0.96488748  0.25000000  1
  Rh  Rh1_3  1  0.10724946  0.96488748  0.75000000  1
  Rh  Rh1_4  1  0.60724946  0.46488748  0.25000000  1
  Rh  Rh1_5  1  0.60724946  0.46488748  0.75000000  1
  Rh  Rh1_6  1  0.60724946  0.96488748  0.25000000  1
  Rh  Rh1_7  1  0.60724946  0.96488748  0.75000000  1
  Rh  Rh2_0  1  0.39275054  0.03511252  0.25000000  1
  Rh  Rh2_1  1  0.39275054  0.03511252  0.75000000  1
  Rh  Rh2_2  1  0.39275054  0.53511252  0.25000000  1
  Rh  Rh2_3  1  0.39275054  0.53511252  0.75000000  1
  Rh  Rh2_4  1  0.89275054  0.03511252  0.25000000  1
  Rh  Rh2_5  1  0.89275054  0.03511252  0.75000000  1
  Rh  Rh2_6  1  0.89275054  0.53511252  0.25000000  1
  Rh  Rh2_7  1  0.89275054  0.53511252  0.75000000  1
  Rh  Rh3_0  1  0.46488748  0.39275054  0.25000000  1
  Rh  Rh3_1  1  0.46488748  0.39275054  0.75000000  1
  Rh  Rh3_2  1  0.46488748  0.89275054  0.25000000  1
  Rh  Rh3_3  1  0.46488748  0.89275054  0.75000000  1
  Rh  Rh3_4  1  0.96488748  0.39275054  0.25000000  1
  Rh  Rh3_5  1  0.96488748  0.39275054  0.75000000  1
  Rh  Rh3_6  1  0.96488748  0.89275054  0.25000000  1
  Rh  Rh3_7  1  0.96488748  0.89275054  0.75000000  1
  Rh  Rh4_0  1  0.21488748  0.35724946  0.25000000  1
  Rh  Rh4_1  1  0.21488748  0.35724946  0.75000000  1
  Rh  Rh4_2  1  0.21488748  0.85724946  0.25000000  1
  Rh  Rh4_3  1  0.21488748  0.85724946  0.75000000  1
  Rh  Rh4_4  1  0.71488748  0.35724946  0.25000000  1
  Rh  Rh4_5  1  0.71488748  0.35724946  0.75000000  1
  Rh  Rh4_6  1  0.71488748  0.85724946  0.25000000  1
  Rh  Rh4_7  1  0.71488748  0.85724946  0.75000000  1
  Rh  Rh5_0  1  0.28511252  0.14275054  0.25000000  1
  Rh  Rh5_1  1  0.28511252  0.14275054  0.75000000  1
  Rh  Rh5_2  1  0.28511252  0.64275054  0.25000000  1
  Rh  Rh5_3  1  0.28511252  0.64275054  0.75000000  1
  Rh  Rh5_4  1  0.78511252  0.14275054  0.25000000  1
  Rh  Rh5_5  1  0.78511252  0.14275054  0.75000000  1
  Rh  Rh5_6  1  0.78511252  0.64275054  0.25000000  1
  Rh  Rh5_7  1  0.78511252  0.64275054  0.75000000  1
  Rh  Rh6_0  1  0.35724946  0.28511252  0.25000000  1
  Rh  Rh6_1  1  0.35724946  0.28511252  0.75000000  1
  Rh  Rh6_2  1  0.35724946  0.78511252  0.25000000  1
  Rh  Rh6_3  1  0.35724946  0.78511252  0.75000000  1
  Rh  Rh6_4  1  0.85724946  0.28511252  0.25000000  1
  Rh  Rh6_5  1  0.85724946  0.28511252  0.75000000  1
  Rh  Rh6_6  1  0.85724946  0.78511252  0.25000000  1
  Rh  Rh6_7  1  0.85724946  0.78511252  0.75000000  1
  Rh  Rh7_0  1  0.14275054  0.21488748  0.25000000  1
  Rh  Rh7_1  1  0.14275054  0.21488748  0.75000000  1
  Rh  Rh7_2  1  0.14275054  0.71488748  0.25000000  1
  Rh  Rh7_3  1  0.14275054  0.71488748  0.75000000  1
  Rh  Rh7_4  1  0.64275054  0.21488748  0.25000000  1
  Rh  Rh7_5  1  0.64275054  0.21488748  0.75000000  1
  Rh  Rh7_6  1  0.64275054  0.71488748  0.25000000  1
  Rh  Rh7_7  1  0.64275054  0.71488748  0.75000000  1
  Rh  Rh8_0  1  0.25000000  0.00000000  0.25000000  1
  Rh  Rh8_1  1  0.25000000  0.00000000  0.75000000  1
  Rh  Rh8_2  1  0.25000000  0.50000000  0.25000000  1
  Rh  Rh8_3  1  0.25000000  0.50000000  0.75000000  1
  Rh  Rh8_4  1  0.75000000  0.00000000  0.25000000  1
  Rh  Rh8_5  1  0.75000000  0.00000000  0.75000000  1
  Rh  Rh8_6  1  0.75000000  0.50000000  0.25000000  1
  Rh  Rh8_7  1  0.75000000  0.50000000  0.75000000  1
  Rh  Rh9_0  1  0.00000000  0.25000000  0.25000000  1
  Rh  Rh9_1  1  0.00000000  0.25000000  0.75000000  1
  Rh  Rh9_2  1  0.00000000  0.75000000  0.25000000  1
  Rh  Rh9_3  1  0.00000000  0.75000000  0.75000000  1
  Rh  Rh9_4  1  0.50000000  0.25000000  0.25000000  1
  Rh  Rh9_5  1  0.50000000  0.25000000  0.75000000  1
  Rh  Rh9_6  1  0.50000000  0.75000000  0.25000000  1
  Rh  Rh9_7  1  0.50000000  0.75000000  0.75000000  1
loop_
_geom_bond_atom_site_label_1
_geom_bond_atom_site_label_2
_geom_bond_distance
_geom_bond_site_symmetry_2
Cd0_0 Rh9_5 2.784758 1_554
Cd0_0 Rh9_4 2.784758 1_555
Cd0_0 Rh5_1 2.847231 1_554
Cd0_0 Rh2_1 2.847231 1_554
Cd0_0 Rh5_0 2.847231 1_555
Cd0_0 Rh2_0 2.847231 1_555
Cd0_0 Cd0_1 2.907219 1_554
Cd0_0 Cd0_1 2.907219 1_555
Cd0_0 Rh0_5 2.953569 1_554
Cd0_0 Rh0_4 2.953569 1_555
Cd0_0 Rh6_0 2.953569 1_555
Cd0_0 Rh6_1 2.953569 1_554
Cd0_1 Rh9_4 2.784758 1_555
Cd0_1 Rh9_5 2.784758 1_555
Cd0_1 Rh5_0 2.847231 1_555
Cd0_1 Rh2_1 2.847231 1_555
Cd0_1 Rh2_0 2.847231 1_555
Cd0_1 Rh5_1 2.847231 1_555
Cd0_1 Rh6_0 2.953569 1_555
Cd0_1 Rh0_5 2.953569 1_555
Cd0_1 Rh0_4 2.953569 1_555
Cd0_1 Rh6_1 2.953569 1_555
Cd0_2 Rh9_7 2.784758 1_554
Cd0_2 Rh9_6 2.784758 1_555
Cd0_2 Rh5_3 2.847231 1_554
Cd0_2 Rh5_2 2.847231 1_555
Cd0_2 Rh2_2 2.847231 1_555
Cd0_2 Rh2_3 2.847231 1_554
Cd0_2 Cd0_3 2.907219 1_555
Cd0_2 Cd0_3 2.907219 1_554
Cd0_2 Rh6_3 2.953569 1_554
Cd0_2 Rh6_2 2.953569 1_555
Cd0_2 Rh0_6 2.953569 1_555
Cd0_2 Rh0_7 2.953569 1_554
Cd0_3 Rh9_6 2.784758 1_555
Cd0_3 Rh9_7 2.784758 1_555
Cd0_3 Rh5_3 2.847231 1_555
Cd0_3 Rh5_2 2.847231 1_555
Cd0_3 Rh2_2 2.847231 1_555
Cd0_3 Rh2_3 2.847231 1_555
Cd0_3 Rh6_2 2.953569 1_555
Cd0_3 Rh0_6 2.953569 1_555
Cd0_3 Rh6_3 2.953569 1_555
Cd0_3 Rh0_7 2.953569 1_555
Cd0_4 Rh9_1 2.784758 1_654
Cd0_4 Rh9_0 2.784758 1_655
Cd0_4 Rh2_5 2.847231 1_554
Cd0_4 Rh2_4 2.847231 1_555
Cd0_4 Rh5_4 2.847231 1_555
Cd0_4 Rh5_5 2.847231 1_554
Cd0_4 Cd0_5 2.907219 1_555
Cd0_4 Cd0_5 2.907219 1_554
Cd0_4 Rh0_1 2.953569 1_654
Cd0_4 Rh6_5 2.953569 1_554
Cd0_4 Rh0_0 2.953569 1_655
Cd0_4 Rh6_4 2.953569 1_555
Cd0_5 Rh9_0 2.784758 1_655
Cd0_5 Rh9_1 2.784758 1_655
Cd0_5 Rh2_4 2.847231 1_555
Cd0_5 Rh2_5 2.847231 1_555
Cd0_5 Rh5_4 2.847231 1_555
Cd0_5 Rh5_5 2.847231 1_555
Cd0_5 Rh0_0 2.953569 1_655
Cd0_5 Rh6_4 2.953569 1_555
Cd0_5 Rh6_5 2.953569 1_555
Cd0_5 Rh0_1 2.953569 1_655
Cd0_6 Rh9_3 2.784758 1_654
Cd0_6 Rh9_2 2.784758 1_655
Cd0_6 Rh5_6 2.847231 1_555
Cd0_6 Rh5_7 2.847231 1_554
Cd0_6 Rh2_6 2.847231 1_555
Cd0_6 Rh2_7 2.847231 1_554
Cd0_6 Cd0_7 2.907219 1_554
Cd0_6 Cd0_7 2.907219 1_555
Cd0_6 Rh6_7 2.953569 1_554
Cd0_6 Rh6_6 2.953569 1_555
Cd0_6 Rh0_3 2.953569 1_654
Cd0_6 Rh0_2 2.953569 1_655
Cd0_7 Rh9_2 2.784758 1_655
Cd0_7 Rh9_3 2.784758 1_655
Cd0_7 Rh5_6 2.847231 1_555
Cd0_7 Rh2_6 2.847231 1_555
Cd0_7 Rh2_7 2.847231 1_555
Cd0_7 Rh5_7 2.847231 1_555
Cd0_7 Rh6_6 2.953569 1_555
Cd0_7 Rh6_7 2.953569 1_555
Cd0_7 Rh0_2 2.953569 1_655
Cd0_7 Rh0_3 2.953569 1_655
Cd1_0 Rh8_1 2.784758 1_554
Cd1_0 Rh8_0 2.784758 1_555
Cd1_0 Rh7_1 2.847231 1_554
Cd1_0 Rh7_0 2.847231 1_555
Cd1_0 Rh0_1 2.847231 1_554
Cd1_0 Rh0_0 2.847231 1_555
Cd1_0 Cd1_1 2.907219 1_554
Cd1_0 Cd1_1 2.907219 1_555
Cd1_0 Rh1_3 2.953569 1_544
Cd1_0 Rh1_2 2.953569 1_545
Cd1_0 Rh5_1 2.953569 1_554
Cd1_0 Rh5_0 2.953569 1_555
Cd1_1 Rh8_0 2.784758 1_555
Cd1_1 Rh8_1 2.784758 1_555
Cd1_1 Rh7_0 2.847231 1_555
Cd1_1 Rh0_0 2.847231 1_555
Cd1_1 Rh0_1 2.847231 1_555
Cd1_1 Rh7_1 2.847231 1_555
Cd1_1 Rh1_3 2.953569 1_545
Cd1_1 Rh1_2 2.953569 1_545
Cd1_1 Rh5_0 2.953569 1_555
Cd1_1 Rh5_1 2.953569 1_555
Cd1_2 Rh8_2 2.784758 1_555
Cd1_2 Rh8_3 2.784758 1_554
Cd1_2 Rh7_3 2.847231 1_554
Cd1_2 Rh7_2 2.847231 1_555
Cd1_2 Rh0_3 2.847231 1_554
Cd1_2 Rh0_2 2.847231 1_555
Cd1_2 Cd1_3 2.907219 1_555
Cd1_2 Cd1_3 2.907219 1_554
Cd1_2 Rh5_3 2.953569 1_554
Cd1_2 Rh1_1 2.953569 1_554
Cd1_2 Rh5_2 2.953569 1_555
Cd1_2 Rh1_0 2.953569 1_555
Cd1_3 Rh8_2 2.784758 1_555
Cd1_3 Rh8_3 2.784758 1_555
Cd1_3 Rh7_3 2.847231 1_555
Cd1_3 Rh7_2 2.847231 1_555
Cd1_3 Rh0_2 2.847231 1_555
Cd1_3 Rh0_3 2.847231 1_555
Cd1_3 Rh5_2 2.953569 1_555
Cd1_3 Rh5_3 2.953569 1_555
Cd1_3 Rh1_0 2.953569 1_555
Cd1_3 Rh1_1 2.953569 1_555
Cd1_4 Rh8_5 2.784758 1_554
Cd1_4 Rh8_4 2.784758 1_555
Cd1_4 Rh7_5 2.847231 1_554
Cd1_4 Rh7_4 2.847231 1_555
Cd1_4 Rh0_4 2.847231 1_555
Cd1_4 Rh0_5 2.847231 1_554
Cd1_4 Cd1_5 2.907219 1_554
Cd1_4 Cd1_5 2.907219 1_555
Cd1_4 Rh5_5 2.953569 1_554
Cd1_4 Rh1_6 2.953569 1_545
Cd1_4 Rh5_4 2.953569 1_555
Cd1_4 Rh1_7 2.953569 1_544
Cd1_5 Rh8_4 2.784758 1_555
Cd1_5 Rh8_5 2.784758 1_555
Cd1_5 Rh7_5 2.847231 1_555
Cd1_5 Rh7_4 2.847231 1_555
Cd1_5 Rh0_4 2.847231 1_555
Cd1_5 Rh0_5 2.847231 1_555
Cd1_5 Rh1_6 2.953569 1_545
Cd1_5 Rh5_4 2.953569 1_555
Cd1_5 Rh5_5 2.953569 1_555
Cd1_5 Rh1_7 2.953569 1_545
Cd1_6 Rh8_7 2.784758 1_554
Cd1_6 Rh8_6 2.784758 1_555
Cd1_6 Rh7_6 2.847231 1_555
Cd1_6 Rh7_7 2.847231 1_554
Cd1_6 Rh0_6 2.847231 1_555
Cd1_6 Rh0_7 2.847231 1_554
Cd1_6 Cd1_7 2.907219 1_555
Cd1_6 Cd1_7 2.907219 1_554
Cd1_6 Rh5_7 2.953569 1_554
Cd1_6 Rh5_6 2.953569 1_555
Cd1_6 Rh1_4 2.953569 1_555
Cd1_6 Rh1_5 2.953569 1_554
Cd1_7 Rh8_6 2.784758 1_555
Cd1_7 Rh8_7 2.784758 1_555
Cd1_7 Rh7_6 2.847231 1_555
Cd1_7 Rh7_7 2.847231 1_555
Cd1_7 Rh0_6 2.847231 1_555
Cd1_7 Rh0_7 2.847231 1_555
Cd1_7 Rh5_6 2.953569 1_555
Cd1_7 Rh5_7 2.953569 1_555
Cd1_7 Rh1_4 2.953569 1_555
Cd1_7 Rh1_5 2.953569 1_555
Cd2_0 Rh8_3 2.784758 1_554
Cd2_0 Rh8_2 2.784758 1_555
Cd2_0 Rh6_1 2.847231 1_554
Cd2_0 Rh3_0 2.847231 1_555
Cd2_0 Rh3_1 2.847231 1_554
Cd2_0 Rh6_0 2.847231 1_555
Cd2_0 Cd2_1 2.907219 1_554
Cd2_0 Cd2_1 2.907219 1_555
Cd2_0 Rh4_1 2.953569 1_554
Cd2_0 Rh2_2 2.953569 1_555
Cd2_0 Rh4_0 2.953569 1_555
Cd2_0 Rh2_3 2.953569 1_554
Cd2_1 Rh8_2 2.784758 1_555
Cd2_1 Rh8_3 2.784758 1_555
Cd2_1 Rh6_1 2.847231 1_555
Cd2_1 Rh3_0 2.847231 1_555
Cd2_1 Rh6_0 2.847231 1_555
Cd2_1 Rh3_1 2.847231 1_555
Cd2_1 Rh2_2 2.953569 1_555
Cd2_1 Rh4_0 2.953569 1_555
Cd2_1 Rh4_1 2.953569 1_555
Cd2_1 Rh2_3 2.953569 1_555
Cd2_2 Rh8_0 2.784758 1_565
Cd2_2 Rh8_1 2.784758 1_564
Cd2_2 Rh3_3 2.847231 1_554
Cd2_2 Rh3_2 2.847231 1_555
Cd2_2 Rh6_3 2.847231 1_554
Cd2_2 Rh6_2 2.847231 1_555
Cd2_2 Cd2_3 2.907219 1_554
Cd2_2 Cd2_3 2.907219 1_555
Cd2_2 Rh2_1 2.953569 1_564
Cd2_2 Rh4_3 2.953569 1_554
Cd2_2 Rh2_0 2.953569 1_565
Cd2_2 Rh4_2 2.953569 1_555
Cd2_3 Rh8_0 2.784758 1_565
Cd2_3 Rh8_1 2.784758 1_565
Cd2_3 Rh3_2 2.847231 1_555
Cd2_3 Rh3_3 2.847231 1_555
Cd2_3 Rh6_2 2.847231 1_555
Cd2_3 Rh6_3 2.847231 1_555
Cd2_3 Rh4_3 2.953569 1_555
Cd2_3 Rh2_0 2.953569 1_565
Cd2_3 Rh2_1 2.953569 1_565
Cd2_3 Rh4_2 2.953569 1_555
Cd2_4 Rh8_7 2.784758 1_554
Cd2_4 Rh8_6 2.784758 1_555
Cd2_4 Rh3_5 2.847231 1_554
Cd2_4 Rh6_5 2.847231 1_554
Cd2_4 Rh3_4 2.847231 1_555
Cd2_4 Rh6_4 2.847231 1_555
Cd2_4 Cd2_5 2.907219 1_555
Cd2_4 Cd2_5 2.907219 1_554
Cd2_4 Rh2_6 2.953569 1_555
Cd2_4 Rh2_7 2.953569 1_554
Cd2_4 Rh4_5 2.953569 1_554
Cd2_4 Rh4_4 2.953569 1_555
Cd2_5 Rh8_6 2.784758 1_555
Cd2_5 Rh8_7 2.784758 1_555
Cd2_5 Rh3_4 2.847231 1_555
Cd2_5 Rh6_4 2.847231 1_555
Cd2_5 Rh6_5 2.847231 1_555
Cd2_5 Rh3_5 2.847231 1_555
Cd2_5 Rh2_6 2.953569 1_555
Cd2_5 Rh2_7 2.953569 1_555
Cd2_5 Rh4_4 2.953569 1_555
Cd2_5 Rh4_5 2.953569 1_555
Cd2_6 Rh8_5 2.784758 1_564
Cd2_6 Rh8_4 2.784758 1_565
Cd2_6 Rh3_7 2.847231 1_554
Cd2_6 Rh3_6 2.847231 1_555
Cd2_6 Rh6_6 2.847231 1_555
Cd2_6 Rh6_7 2.847231 1_554
Cd2_6 Cd2_7 2.907219 1_554
Cd2_6 Cd2_7 2.907219 1_555
Cd2_6 Rh2_5 2.953569 1_564
Cd2_6 Rh2_4 2.953569 1_565
Cd2_6 Rh4_7 2.953569 1_554
Cd2_6 Rh4_6 2.953569 1_555
Cd2_7 Rh8_4 2.784758 1_565
Cd2_7 Rh8_5 2.784758 1_565
Cd2_7 Rh3_6 2.847231 1_555
Cd2_7 Rh3_7 2.847231 1_555
Cd2_7 Rh6_6 2.847231 1_555
Cd2_7 Rh6_7 2.847231 1_555
Cd2_7 Rh2_5 2.953569 1_565
Cd2_7 Rh2_4 2.953569 1_565
Cd2_7 Rh4_6 2.953569 1_555
Cd2_7 Rh4_7 2.953569 1_555
Cd3_0 Rh9_1 2.784758 1_554
Cd3_0 Rh9_0 2.784758 1_555
Cd3_0 Rh4_1 2.847231 1_554
Cd3_0 Rh1_1 2.847231 1_554
Cd3_0 Rh4_0 2.847231 1_555
Cd3_0 Rh1_0 2.847231 1_555
Cd3_0 Cd3_1 2.907219 1_555
Cd3_0 Cd3_1 2.907219 1_554
Cd3_0 Rh3_5 2.953569 1_454
Cd3_0 Rh7_1 2.953569 1_554
Cd3_0 Rh3_4 2.953569 1_455
Cd3_0 Rh7_0 2.953569 1_555
Cd3_1 Rh9_0 2.784758 1_555
Cd3_1 Rh9_1 2.784758 1_555
Cd3_1 Rh4_0 2.847231 1_555
Cd3_1 Rh4_1 2.847231 1_555
Cd3_1 Rh1_0 2.847231 1_555
Cd3_1 Rh1_1 2.847231 1_555
Cd3_1 Rh3_4 2.953569 1_455
Cd3_1 Rh7_0 2.953569 1_555
Cd3_1 Rh3_5 2.953569 1_455
Cd3_1 Rh7_1 2.953569 1_555
Cd3_2 Rh9_3 2.784758 1_554
Cd3_2 Rh9_2 2.784758 1_555
Cd3_2 Rh1_3 2.847231 1_554
Cd3_2 Rh4_3 2.847231 1_554
Cd3_2 Rh1_2 2.847231 1_555
Cd3_2 Rh4_2 2.847231 1_555
Cd3_2 Cd3_3 2.907219 1_554
Cd3_2 Cd3_3 2.907219 1_555
Cd3_2 Rh3_6 2.953569 1_455
Cd3_2 Rh3_7 2.953569 1_454
Cd3_2 Rh7_3 2.953569 1_554
Cd3_2 Rh7_2 2.953569 1_555
Cd3_3 Rh9_2 2.784758 1_555
Cd3_3 Rh9_3 2.784758 1_555
Cd3_3 Rh1_2 2.847231 1_555
Cd3_3 Rh4_2 2.847231 1_555
Cd3_3 Rh1_3 2.847231 1_555
Cd3_3 Rh4_3 2.847231 1_555
Cd3_3 Rh3_6 2.953569 1_455
Cd3_3 Rh3_7 2.953569 1_455
Cd3_3 Rh7_2 2.953569 1_555
Cd3_3 Rh7_3 2.953569 1_555
Cd3_4 Rh9_5 2.784758 1_554
Cd3_4 Rh9_4 2.784758 1_555
Cd3_4 Rh4_5 2.847231 1_554
Cd3_4 Rh4_4 2.847231 1_555
Cd3_4 Rh1_5 2.847231 1_554
Cd3_4 Rh1_4 2.847231 1_555
Cd3_4 Cd3_5 2.907219 1_555
Cd3_4 Cd3_5 2.907219 1_554
Cd3_4 Rh7_5 2.953569 1_554
Cd3_4 Rh7_4 2.953569 1_555
Cd3_4 Rh3_1 2.953569 1_554
Cd3_4 Rh3_0 2.953569 1_555
Cd3_5 Rh9_4 2.784758 1_555
Cd3_5 Rh9_5 2.784758 1_555
Cd3_5 Rh4_4 2.847231 1_555
Cd3_5 Rh4_5 2.847231 1_555
Cd3_5 Rh1_4 2.847231 1_555
Cd3_5 Rh1_5 2.847231 1_555
Cd3_5 Rh7_4 2.953569 1_555
Cd3_5 Rh7_5 2.953569 1_555
Cd3_5 Rh3_1 2.953569 1_555
Cd3_5 Rh3_0 2.953569 1_555
Cd3_6 Rh9_7 2.784758 1_554
Cd3_6 Rh9_6 2.784758 1_555
Cd3_6 Rh4_7 2.847231 1_554
Cd3_6 Rh4_6 2.847231 1_555
Cd3_6 Rh1_7 2.847231 1_554
Cd3_6 Rh1_6 2.847231 1_555
Cd3_6 Cd3_7 2.907219 1_554
Cd3_6 Cd3_7 2.907219 1_555
Cd3_6 Rh3_3 2.953569 1_554
Cd3_6 Rh3_2 2.953569 1_555
Cd3_6 Rh7_7 2.953569 1_554
Cd3_6 Rh7_6 2.953569 1_555
Cd3_7 Rh9_6 2.784758 1_555
Cd3_7 Rh9_7 2.784758 1_555
Cd3_7 Rh4_6 2.847231 1_555
Cd3_7 Rh4_7 2.847231 1_555
Cd3_7 Rh1_6 2.847231 1_555
Cd3_7 Rh1_7 2.847231 1_555
Cd3_7 Rh3_3 2.953569 1_555
Cd3_7 Rh3_2 2.953569 1_555
Cd3_7 Rh7_6 2.953569 1_555
Cd3_7 Rh7_7 2.953569 1_555
Ge0_0 Rh0_1 2.597969 1_554
Ge0_0 Rh0_0 2.597969 1_555
Ge0_0 Rh1_2 2.597969 1_545
Ge0_0 Rh1_3 2.597969 1_544
Ge0_0 Rh2_4 2.597969 1_455
Ge0_0 Rh2_5 2.597969 1_454
Ge0_0 Rh3_7 2.597969 1_444
Ge0_0 Rh3_6 2.597969 1_445
Ge0_1 Rh0_0 2.597969 1_555
Ge0_1 Rh0_1 2.597969 1_555
Ge0_1 Rh1_2 2.597969 1_545
Ge0_1 Rh1_3 2.597969 1_545
Ge0_1 Rh2_4 2.597969 1_455
Ge0_1 Rh2_5 2.597969 1_455
Ge0_1 Rh3_6 2.597969 1_445
Ge0_1 Rh3_7 2.597969 1_445
Ge0_2 Rh0_2 2.597969 1_555
Ge0_2 Rh1_1 2.597969 1_554
Ge0_2 Rh0_3 2.597969 1_554
Ge0_2 Rh1_0 2.597969 1_555
Ge0_2 Rh2_7 2.597969 1_454
Ge0_2 Rh2_6 2.597969 1_455
Ge0_2 Rh3_5 2.597969 1_454
Ge0_2 Rh3_4 2.597969 1_455
Ge0_3 Rh0_2 2.597969 1_555
Ge0_3 Rh1_0 2.597969 1_555
Ge0_3 Rh0_3 2.597969 1_555
Ge0_3 Rh1_1 2.597969 1_555
Ge0_3 Rh2_6 2.597969 1_455
Ge0_3 Rh2_7 2.597969 1_455
Ge0_3 Rh3_4 2.597969 1_455
Ge0_3 Rh3_5 2.597969 1_455
Ge0_4 Rh0_4 2.597969 1_555
Ge0_4 Rh0_5 2.597969 1_554
Ge0_4 Rh1_7 2.597969 1_544
Ge0_4 Rh1_6 2.597969 1_545
Ge0_4 Rh2_1 2.597969 1_554
Ge0_4 Rh2_0 2.597969 1_555
Ge0_4 Rh3_3 2.597969 1_544
Ge0_4 Rh3_2 2.597969 1_545
Ge0_5 Rh0_4 2.597969 1_555
Ge0_5 Rh0_5 2.597969 1_555
Ge0_5 Rh1_6 2.597969 1_545
Ge0_5 Rh1_7 2.597969 1_545
Ge0_5 Rh2_0 2.597969 1_555
Ge0_5 Rh2_1 2.597969 1_555
Ge0_5 Rh3_2 2.597969 1_545
Ge0_5 Rh3_3 2.597969 1_545
Ge0_6 Rh0_7 2.597969 1_554
Ge0_6 Rh0_6 2.597969 1_555
Ge0_6 Rh1_5 2.597969 1_554
Ge0_6 Rh1_4 2.597969 1_555
Ge0_6 Rh2_3 2.597969 1_554
Ge0_6 Rh2_2 2.597969 1_555
Ge0_6 Rh3_1 2.597969 1_554
Ge0_6 Rh3_0 2.597969 1_555
Ge0_7 Rh0_6 2.597969 1_555
Ge0_7 Rh0_7 2.597969 1_555
Ge0_7 Rh1_4 2.597969 1_555
Ge0_7 Rh1_5 2.597969 1_555
Ge0_7 Rh2_2 2.597969 1_555
Ge0_7 Rh2_3 2.597969 1_555
Ge0_7 Rh3_0 2.597969 1_555
Ge0_7 Rh3_1 2.597969 1_555
Ge1_0 Rh6_1 2.597969 1_554
Ge1_0 Rh6_0 2.597969 1_555
Ge1_0 Rh4_1 2.597969 1_554
Ge1_0 Rh4_0 2.597969 1_555
Ge1_0 Rh5_1 2.597969 1_554
Ge1_0 Rh5_0 2.597969 1_555
Ge1_0 Rh7_1 2.597969 1_554
Ge1_0 Rh7_0 2.597969 1_555
Ge1_1 Rh6_0 2.597969 1_555
Ge1_1 Rh6_1 2.597969 1_555
Ge1_1 Rh4_0 2.597969 1_555
Ge1_1 Rh4_1 2.597969 1_555
Ge1_1 Rh5_0 2.597969 1_555
Ge1_1 Rh5_1 2.597969 1_555
Ge1_1 Rh7_0 2.597969 1_555
Ge1_1 Rh7_1 2.597969 1_555
Ge1_2 Rh6_3 2.597969 1_554
Ge1_2 Rh6_2 2.597969 1_555
Ge1_2 Rh4_3 2.597969 1_554
Ge1_2 Rh4_2 2.597969 1_555
Ge1_2 Rh5_3 2.597969 1_554
Ge1_2 Rh5_2 2.597969 1_555
Ge1_2 Rh7_3 2.597969 1_554
Ge1_2 Rh7_2 2.597969 1_555
Ge1_3 Rh6_2 2.597969 1_555
Ge1_3 Rh6_3 2.597969 1_555
Ge1_3 Rh4_2 2.597969 1_555
Ge1_3 Rh4_3 2.597969 1_555
Ge1_3 Rh5_2 2.597969 1_555
Ge1_3 Rh5_3 2.597969 1_555
Ge1_3 Rh7_2 2.597969 1_555
Ge1_3 Rh7_3 2.597969 1_555
Ge1_4 Rh6_5 2.597969 1_554
Ge1_4 Rh6_4 2.597969 1_555
Ge1_4 Rh4_5 2.597969 1_554
Ge1_4 Rh4_4 2.597969 1_555
Ge1_4 Rh5_5 2.597969 1_554
Ge1_4 Rh5_4 2.597969 1_555
Ge1_4 Rh7_5 2.597969 1_554
Ge1_4 Rh7_4 2.597969 1_555
Ge1_5 Rh6_4 2.597969 1_555
Ge1_5 Rh6_5 2.597969 1_555
Ge1_5 Rh4_4 2.597969 1_555
Ge1_5 Rh4_5 2.597969 1_555
Ge1_5 Rh5_4 2.597969 1_555
Ge1_5 Rh5_5 2.597969 1_555
Ge1_5 Rh7_4 2.597969 1_555
Ge1_5 Rh7_5 2.597969 1_555
Ge1_6 Rh6_7 2.597969 1_554
Ge1_6 Rh6_6 2.597969 1_555
Ge1_6 Rh4_6 2.597969 1_555
Ge1_6 Rh4_7 2.597969 1_554
Ge1_6 Rh5_7 2.597969 1_554
Ge1_6 Rh5_6 2.597969 1_555
Ge1_6 Rh7_7 2.597969 1_554
Ge1_6 Rh7_6 2.597969 1_555
Ge1_7 Rh6_6 2.597969 1_555
Ge1_7 Rh6_7 2.597969 1_555
Ge1_7 Rh4_6 2.597969 1_555
Ge1_7 Rh4_7 2.597969 1_555
Ge1_7 Rh5_6 2.597969 1_555
Ge1_7 Rh5_7 2.597969 1_555
Ge1_7 Rh7_6 2.597969 1_555
Ge1_7 Rh7_7 2.597969 1_555
B0_0 Rh5_1 2.177500 1_554
B0_0 Rh5_0 2.177500 1_555
B0_0 Rh2_1 2.177500 1_554
B0_0 Rh2_0 2.177500 1_555
B0_0 Rh8_1 2.220765 1_554
B0_0 Rh8_0 2.220765 1_555
B0_0 Cd0_0 2.691751 1_555
B0_0 Cd2_2 2.908731 1_545
B0_0 Cd1_0 2.908731 1_555
B0_1 Rh5_0 2.177500 1_555
B0_1 Rh5_1 2.177500 1_555
B0_1 Rh2_0 2.177500 1_555
B0_1 Rh2_1 2.177500 1_555
B0_1 Rh8_0 2.220765 1_555
B0_1 Rh8_1 2.220765 1_555
B0_1 Cd0_1 2.691751 1_555
B0_1 Cd2_3 2.908731 1_545
B0_1 Cd1_1 2.908731 1_555
B0_2 Rh5_3 2.177500 1_554
B0_2 Rh5_2 2.177500 1_555
B0_2 Rh2_3 2.177500 1_554
B0_2 Rh2_2 2.177500 1_555
B0_2 Rh8_3 2.220765 1_554
B0_2 Rh8_2 2.220765 1_555
B0_2 Cd0_2 2.691751 1_555
B0_2 Cd1_2 2.908731 1_555
B0_2 Cd2_0 2.908731 1_555
B0_3 Rh5_2 2.177500 1_555
B0_3 Rh5_3 2.177500 1_555
B0_3 Rh2_2 2.177500 1_555
B0_3 Rh2_3 2.177500 1_555
B0_3 Rh8_3 2.220765 1_555
B0_3 Rh8_2 2.220765 1_555
B0_3 Cd0_3 2.691751 1_555
B0_3 Cd2_1 2.908731 1_555
B0_3 Cd1_3 2.908731 1_555
B0_4 Rh5_5 2.177500 1_554
B0_4 Rh5_4 2.177500 1_555
B0_4 Rh2_5 2.177500 1_554
B0_4 Rh2_4 2.177500 1_555
B0_4 Rh8_5 2.220765 1_554
B0_4 Rh8_4 2.220765 1_555
B0_4 Cd0_4 2.691751 1_555
B0_4 Cd2_6 2.908731 1_545
B0_4 Cd1_4 2.908731 1_555
B0_5 Rh5_4 2.177500 1_555
B0_5 Rh5_5 2.177500 1_555
B0_5 Rh2_4 2.177500 1_555
B0_5 Rh2_5 2.177500 1_555
B0_5 Rh8_4 2.220765 1_555
B0_5 Rh8_5 2.220765 1_555
B0_5 Cd0_5 2.691751 1_555
B0_5 Cd1_5 2.908731 1_555
B0_5 Cd2_7 2.908731 1_545
B0_6 Rh5_7 2.177500 1_554
B0_6 Rh5_6 2.177500 1_555
B0_6 Rh2_7 2.177500 1_554
B0_6 Rh2_6 2.177500 1_555
B0_6 Rh8_7 2.220765 1_554
B0_6 Rh8_6 2.220765 1_555
B0_6 Cd0_6 2.691751 1_555
B0_6 Cd1_6 2.908731 1_555
B0_6 Cd2_4 2.908731 1_555
B0_7 Rh5_6 2.177500 1_555
B0_7 Rh5_7 2.177500 1_555
B0_7 Rh2_6 2.177500 1_555
B0_7 Rh2_7 2.177500 1_555
B0_7 Rh8_6 2.220765 1_555
B0_7 Rh8_7 2.220765 1_555
B0_7 Cd0_7 2.691751 1_555
B0_7 Cd1_7 2.908731 1_555
B0_7 Cd2_5 2.908731 1_555
B1_0 Rh7_1 2.177500 1_554
B1_0 Rh7_0 2.177500 1_555
B1_0 Rh0_1 2.177500 1_554
B1_0 Rh0_0 2.177500 1_555
B1_0 Rh9_1 2.220765 1_554
B1_0 Rh9_0 2.220765 1_555
B1_0 Cd1_0 2.691751 1_555
B1_0 Cd3_0 2.908731 1_555
B1_0 Cd0_4 2.908731 1_455
B1_1 Rh7_0 2.177500 1_555
B1_1 Rh7_1 2.177500 1_555
B1_1 Rh0_0 2.177500 1_555
B1_1 Rh0_1 2.177500 1_555
B1_1 Rh9_0 2.220765 1_555
B1_1 Rh9_1 2.220765 1_555
B1_1 Cd1_1 2.691751 1_555
B1_1 Cd3_1 2.908731 1_555
B1_1 Cd0_5 2.908731 1_455
B1_2 Rh7_3 2.177500 1_554
B1_2 Rh7_2 2.177500 1_555
B1_2 Rh0_3 2.177500 1_554
B1_2 Rh0_2 2.177500 1_555
B1_2 Rh9_3 2.220765 1_554
B1_2 Rh9_2 2.220765 1_555
B1_2 Cd1_2 2.691751 1_555
B1_2 Cd3_2 2.908731 1_555
B1_2 Cd0_6 2.908731 1_455
B1_3 Rh7_2 2.177500 1_555
B1_3 Rh7_3 2.177500 1_555
B1_3 Rh0_2 2.177500 1_555
B1_3 Rh0_3 2.177500 1_555
B1_3 Rh9_2 2.220765 1_555
B1_3 Rh9_3 2.220765 1_555
B1_3 Cd1_3 2.691751 1_555
B1_3 Cd3_3 2.908731 1_555
B1_3 Cd0_7 2.908731 1_455
B1_4 Rh7_5 2.177500 1_554
B1_4 Rh7_4 2.177500 1_555
B1_4 Rh0_5 2.177500 1_554
B1_4 Rh0_4 2.177500 1_555
B1_4 Rh9_5 2.220765 1_554
B1_4 Rh9_4 2.220765 1_555
B1_4 Cd1_4 2.691751 1_555
B1_4 Cd3_4 2.908731 1_555
B1_4 Cd0_0 2.908731 1_555
B1_5 Rh7_4 2.177500 1_555
B1_5 Rh7_5 2.177500 1_555
B1_5 Rh0_4 2.177500 1_555
B1_5 Rh0_5 2.177500 1_555
B1_5 Rh9_4 2.220765 1_555
B1_5 Rh9_5 2.220765 1_555
B1_5 Cd1_5 2.691751 1_555
B1_5 Cd3_5 2.908731 1_555
B1_5 Cd0_1 2.908731 1_555
B1_6 Rh7_7 2.177500 1_554
B1_6 Rh7_6 2.177500 1_555
B1_6 Rh0_7 2.177500 1_554
B1_6 Rh0_6 2.177500 1_555
B1_6 Rh9_7 2.220765 1_554
B1_6 Rh9_6 2.220765 1_555
B1_6 Cd1_6 2.691751 1_555
B1_6 Cd3_6 2.908731 1_555
B1_6 Cd0_2 2.908731 1_555
B1_7 Rh7_6 2.177500 1_555
B1_7 Rh7_7 2.177500 1_555
B1_7 Rh0_6 2.177500 1_555
B1_7 Rh0_7 2.177500 1_555
B1_7 Rh9_7 2.220765 1_555
B1_7 Rh9_6 2.220765 1_555
B1_7 Cd1_7 2.691751 1_555
B1_7 Cd3_7 2.908731 1_555
B1_7 Cd0_3 2.908731 1_555
B2_0 Rh3_1 2.177500 1_554
B2_0 Rh3_0 2.177500 1_555
B2_0 Rh6_1 2.177500 1_554
B2_0 Rh6_0 2.177500 1_555
B2_0 Rh9_5 2.220765 1_554
B2_0 Rh9_4 2.220765 1_555
B2_0 Cd2_0 2.691751 1_555
B2_0 Cd3_4 2.908731 1_555
B2_0 Cd0_0 2.908731 1_555
B2_1 Rh3_0 2.177500 1_555
B2_1 Rh3_1 2.177500 1_555
B2_1 Rh6_0 2.177500 1_555
B2_1 Rh6_1 2.177500 1_555
B2_1 Rh9_4 2.220765 1_555
B2_1 Rh9_5 2.220765 1_555
B2_1 Cd2_1 2.691751 1_555
B2_1 Cd3_5 2.908731 1_555
B2_1 Cd0_1 2.908731 1_555
B2_2 Rh3_3 2.177500 1_554
B2_2 Rh3_2 2.177500 1_555
B2_2 Rh6_3 2.177500 1_554
B2_2 Rh6_2 2.177500 1_555
B2_2 Rh9_7 2.220765 1_554
B2_2 Rh9_6 2.220765 1_555
B2_2 Cd2_2 2.691751 1_555
B2_2 Cd3_6 2.908731 1_555
B2_2 Cd0_2 2.908731 1_555
B2_3 Rh3_2 2.177500 1_555
B2_3 Rh3_3 2.177500 1_555
B2_3 Rh6_2 2.177500 1_555
B2_3 Rh6_3 2.177500 1_555
B2_3 Rh9_6 2.220765 1_555
B2_3 Rh9_7 2.220765 1_555
B2_3 Cd2_3 2.691751 1_555
B2_3 Cd3_7 2.908731 1_555
B2_3 Cd0_3 2.908731 1_555
B2_4 Rh3_5 2.177500 1_554
B2_4 Rh3_4 2.177500 1_555
B2_4 Rh6_5 2.177500 1_554
B2_4 Rh6_4 2.177500 1_555
B2_4 Rh9_1 2.220765 1_654
B2_4 Rh9_0 2.220765 1_655
B2_4 Cd2_4 2.691751 1_555
B2_4 Cd3_0 2.908731 1_655
B2_4 Cd0_4 2.908731 1_555
B2_5 Rh3_4 2.177500 1_555
B2_5 Rh3_5 2.177500 1_555
B2_5 Rh6_4 2.177500 1_555
B2_5 Rh6_5 2.177500 1_555
B2_5 Rh9_0 2.220765 1_655
B2_5 Rh9_1 2.220765 1_655
B2_5 Cd2_5 2.691751 1_555
B2_5 Cd3_1 2.908731 1_655
B2_5 Cd0_5 2.908731 1_555
B2_6 Rh3_7 2.177500 1_554
B2_6 Rh3_6 2.177500 1_555
B2_6 Rh6_7 2.177500 1_554
B2_6 Rh6_6 2.177500 1_555
B2_6 Rh9_3 2.220765 1_654
B2_6 Rh9_2 2.220765 1_655
B2_6 Cd2_6 2.691751 1_555
B2_6 Cd3_2 2.908731 1_655
B2_6 Cd0_6 2.908731 1_555
B2_7 Rh3_6 2.177500 1_555
B2_7 Rh3_7 2.177500 1_555
B2_7 Rh6_6 2.177500 1_555
B2_7 Rh6_7 2.177500 1_555
B2_7 Rh9_2 2.220765 1_655
B2_7 Rh9_3 2.220765 1_655
B2_7 Cd2_7 2.691751 1_555
B2_7 Cd3_3 2.908731 1_655
B2_7 Cd0_7 2.908731 1_555
B3_0 Rh1_1 2.177500 1_554
B3_0 Rh4_1 2.177500 1_554
B3_0 Rh1_0 2.177500 1_555
B3_0 Rh4_0 2.177500 1_555
B3_0 Rh8_3 2.220765 1_554
B3_0 Rh8_2 2.220765 1_555
B3_0 Cd3_0 2.691751 1_555
B3_0 Cd1_2 2.908731 1_555
B3_0 Cd2_0 2.908731 1_555
B3_1 Rh1_0 2.177500 1_555
B3_1 Rh1_1 2.177500 1_555
B3_1 Rh4_0 2.177500 1_555
B3_1 Rh4_1 2.177500 1_555
B3_1 Rh8_2 2.220765 1_555
B3_1 Rh8_3 2.220765 1_555
B3_1 Cd3_1 2.691751 1_555
B3_1 Cd1_3 2.908731 1_555
B3_1 Cd2_1 2.908731 1_555
B3_2 Rh1_3 2.177500 1_554
B3_2 Rh1_2 2.177500 1_555
B3_2 Rh4_3 2.177500 1_554
B3_2 Rh4_2 2.177500 1_555
B3_2 Rh8_1 2.220765 1_564
B3_2 Rh8_0 2.220765 1_565
B3_2 Cd3_2 2.691751 1_555
B3_2 Cd1_0 2.908731 1_565
B3_2 Cd2_2 2.908731 1_555
B3_3 Rh1_2 2.177500 1_555
B3_3 Rh1_3 2.177500 1_555
B3_3 Rh4_2 2.177500 1_555
B3_3 Rh4_3 2.177500 1_555
B3_3 Rh8_0 2.220765 1_565
B3_3 Rh8_1 2.220765 1_565
B3_3 Cd3_3 2.691751 1_555
B3_3 Cd1_1 2.908731 1_565
B3_3 Cd2_3 2.908731 1_555
B3_4 Rh1_5 2.177500 1_554
B3_4 Rh1_4 2.177500 1_555
B3_4 Rh4_5 2.177500 1_554
B3_4 Rh4_4 2.177500 1_555
B3_4 Rh8_7 2.220765 1_554
B3_4 Rh8_6 2.220765 1_555
B3_4 Cd3_4 2.691751 1_555
B3_4 Cd1_6 2.908731 1_555
B3_4 Cd2_4 2.908731 1_555
B3_5 Rh1_4 2.177500 1_555
B3_5 Rh1_5 2.177500 1_555
B3_5 Rh4_4 2.177500 1_555
B3_5 Rh4_5 2.177500 1_555
B3_5 Rh8_6 2.220765 1_555
B3_5 Rh8_7 2.220765 1_555
B3_5 Cd3_5 2.691751 1_555
B3_5 Cd1_7 2.908731 1_555
B3_5 Cd2_5 2.908731 1_555
B3_6 Rh1_7 2.177500 1_554
B3_6 Rh1_6 2.177500 1_555
B3_6 Rh4_7 2.177500 1_554
B3_6 Rh4_6 2.177500 1_555
B3_6 Rh8_5 2.220765 1_564
B3_6 Rh8_4 2.220765 1_565
B3_6 Cd3_6 2.691751 1_555
B3_6 Cd1_4 2.908731 1_565
B3_6 Cd2_6 2.908731 1_555
B3_7 Rh1_6 2.177500 1_555
B3_7 Rh1_7 2.177500 1_555
B3_7 Rh4_6 2.177500 1_555
B3_7 Rh4_7 2.177500 1_555
B3_7 Rh8_4 2.220765 1_565
B3_7 Rh8_5 2.220765 1_565
B3_7 Cd3_7 2.691751 1_555
B3_7 Cd1_5 2.908731 1_565
B3_7 Cd2_7 2.908731 1_555
