# generated using pymatgen
data_TiNiO6
_symmetry_space_group_name_H-M   'P 1'
_cell_length_a   5.61493643
_cell_length_b   5.61493643
_cell_length_c   5.61493634
_cell_angle_alpha   52.47920532
_cell_angle_beta   52.47920532
_cell_angle_gamma   52.47920562
_symmetry_Int_Tables_number   1
_chemical_formula_structural   TiNiO6
_chemical_formula_sum   'Ti1 Ni1 O6'
_cell_volume   103.07347570
_cell_formula_units_Z   1
loop_
 _symmetry_equiv_pos_site_id
 _symmetry_equiv_pos_as_xyz
  1  'x, y, z'
loop_
 _atom_site_type_symbol
 _atom_site_label
 _atom_site_symmetry_multiplicity
 _atom_site_fract_x
 _atom_site_fract_y
 _atom_site_fract_z
 _atom_site_occupancy
  Ti  Ti0  1  0.13791100  0.13791100  0.13791100  1
  Ni  Ni0  1  0.34779300  0.34779300  0.34779300  1
  O  O0  1  0.99923400  0.25427300  0.51435500  1
  O  O1  1  0.51435500  0.99923400  0.25427300  1
  O  O2  1  0.25427300  0.51435500  0.99923400  1
  O  O3  1  0.73287100  0.40189100  0.11887200  1
  O  O4  1  0.40189100  0.11887200  0.73287100  1
  O  O5  1  0.11887200  0.73287100  0.40189100  1
loop_
_geom_bond_atom_site_label_1
_geom_bond_atom_site_label_2
_geom_bond_distance
_geom_bond_site_symmetry_2
Ni0 O4 1.832641 1_555
Ni0 O3 1.832641 1_555
Ni0 O5 1.832641 1_555
Ni0 O2 1.845222 1_554
Ni0 O1 1.845222 1_545
Ni0 O0 1.845222 1_455
O0 Ti0 2.135101 1_655
O1 Ti0 2.135101 1_565
O2 Ti0 2.135101 1_556
O3 Ti0 1.837849 1_655
O4 Ti0 1.837849 1_556
O5 Ti0 1.837849 1_565
