# generated using pymatgen
data_Zr4MnS8
_symmetry_space_group_name_H-M   'P 1'
_cell_length_a   7.05258458
_cell_length_b   7.05258438
_cell_length_c   8.74313002
_cell_angle_alpha   53.52601630
_cell_angle_beta   53.52601419
_cell_angle_gamma   62.23243527
_symmetry_Int_Tables_number   1
_chemical_formula_structural   Zr4MnS8
_chemical_formula_sum   'Zr4 Mn1 S8'
_cell_volume   276.90925502
_cell_formula_units_Z   1
loop_
 _symmetry_equiv_pos_site_id
 _symmetry_equiv_pos_as_xyz
  1  'x, y, z'
loop_
 _atom_site_type_symbol
 _atom_site_label
 _atom_site_symmetry_multiplicity
 _atom_site_fract_x
 _atom_site_fract_y
 _atom_site_fract_z
 _atom_site_occupancy
  Zr  Zr0  1  0.25689449  0.25689449  0.00391836  1
  Zr  Zr1  1  0.74310551  0.74310551  0.99608164  1
  Zr  Zr2  1  0.24391560  0.75608440  0.50000000  1
  Zr  Zr3  1  0.75608440  0.24391560  0.50000000  1
  Mn  Mn0  1  0.00000000  0.00000000  0.00000000  1
  S  S0  1  0.29312328  0.29312328  0.67330974  1
  S  S1  1  0.79260687  0.79260687  0.66271105  1
  S  S2  1  0.28366444  0.79737043  0.16689743  1
  S  S3  1  0.79737043  0.28366444  0.16689743  1
  S  S4  1  0.20262957  0.71633556  0.83310257  1
  S  S5  1  0.71633556  0.20262957  0.83310257  1
  S  S6  1  0.20739313  0.20739313  0.33728895  1
  S  S7  1  0.70687672  0.70687672  0.32669026  1
loop_
_geom_bond_atom_site_label_1
_geom_bond_atom_site_label_2
_geom_bond_distance
_geom_bond_site_symmetry_2
Mn0 S3 2.549781 1_455
Mn0 S4 2.549781 1_544
Mn0 S2 2.549781 1_545
Mn0 S5 2.549781 1_454
Mn0 S0 2.578223 1_554
Mn0 S7 2.578223 1_445
S0 Zr2 2.600858 1_555
S0 Zr3 2.600858 1_555
S0 Zr0 2.605866 1_556
S1 Zr1 2.536381 1_555
S1 Zr3 2.551333 1_565
S1 Zr2 2.551333 1_655
S2 Zr1 2.578136 1_554
S2 Zr2 2.596612 1_555
S2 Zr0 2.613124 1_565
S3 Zr1 2.578136 1_554
S3 Zr3 2.596612 1_555
S3 Zr0 2.613124 1_655
S4 Zr0 2.578136 1_556
S4 Zr2 2.596612 1_555
S4 Zr1 2.613124 1_455
S5 Zr0 2.578136 1_556
S5 Zr3 2.596612 1_555
S5 Zr1 2.613124 1_545
S6 Zr0 2.536381 1_555
S6 Zr2 2.551333 1_545
S6 Zr3 2.551333 1_455
S7 Zr3 2.600858 1_555
S7 Zr2 2.600858 1_555
S7 Zr1 2.605866 1_554
