# generated using pymatgen
data_Ta7Nb3(Si2Ge)2
_symmetry_space_group_name_H-M   'P 1'
_cell_length_a   7.56536466
_cell_length_b   7.56035726
_cell_length_c   7.56402357
_cell_angle_alpha   128.38018224
_cell_angle_beta   128.39851865
_cell_angle_gamma   75.98387573
_symmetry_Int_Tables_number   1
_chemical_formula_structural   Ta7Nb3(Si2Ge)2
_chemical_formula_sum   'Ta7 Nb3 Si4 Ge2'
_cell_volume   258.44712008
_cell_formula_units_Z   1
loop_
 _symmetry_equiv_pos_site_id
 _symmetry_equiv_pos_as_xyz
  1  'x, y, z'
loop_
 _atom_site_type_symbol
 _atom_site_label
 _atom_site_symmetry_multiplicity
 _atom_site_fract_x
 _atom_site_fract_y
 _atom_site_fract_z
 _atom_site_occupancy
  Ta  Ta0  1  0.48434126  0.98485322  0.17266009  1
  Ta  Ta1  1  0.68706494  0.51542059  0.50000000  1
  Ta  Ta2  1  0.98444245  0.81195640  0.50000000  1
  Ta  Ta3  1  0.31170130  0.48410323  0.50000000  1
  Ta  Ta4  1  0.81168017  0.31219213  0.82733991  1
  Ta  Ta5  1  0.50098861  0.50102976  0.00033139  1
  Ta  Ta6  1  0.00065722  0.00069738  0.99966861  1
  Nb  Nb0  1  0.01633241  0.18746778  0.50000000  1
  Nb  Nb1  1  0.51676531  0.01643006  0.82973302  1
  Nb  Nb2  1  0.18703329  0.68669804  0.17026698  1
  Si  Si0  1  0.12982176  0.63028002  0.75987850  1
  Si  Si1  1  0.63024574  0.86980439  0.50000000  1
  Si  Si2  1  0.37040884  0.12985919  0.50000000  1
  Si  Si3  1  0.86994425  0.37040252  0.24012150  1
  Ge  Ge0  1  0.74904067  0.74915709  0.99950791  1
  Ge  Ge1  1  0.24953276  0.24964819  0.00049209  1
loop_
_geom_bond_atom_site_label_1
_geom_bond_atom_site_label_2
_geom_bond_distance
_geom_bond_site_symmetry_2
Nb0 Si2 2.607698 1_555
Nb0 Si0 2.633061 1_555
Nb0 Si3 2.633069 1_455
Nb1 Si3 2.604141 1_556
Nb1 Si2 2.635789 1_555
Nb1 Si1 2.636711 1_545
Nb2 Si0 2.604125 1_554
Nb2 Si2 2.635781 1_565
Nb2 Si1 2.636702 1_555
Si0 Si3 2.420618 1_455
Si0 Ta6 2.579949 1_565
Si0 Ta5 2.584801 1_556
Si0 Ta0 2.610508 1_556
Si0 Ta2 2.625943 1_455
Si0 Ta3 2.627666 1_555
Si0 Ta1 2.635877 1_455
Si1 Si2 2.420264 1_565
Si1 Ta5 2.580431 1_555
Si1 Ta6 2.580433 1_665
Si1 Ta2 2.608448 1_555
Si1 Ta1 2.608713 1_555
Si1 Ta4 2.630519 1_565
Si1 Ta0 2.630527 1_555
Si2 Ta6 2.585363 1_554
Si2 Ta5 2.585365 1_556
Si2 Ta3 2.606510 1_555
Si2 Ta4 2.626437 1_555
Si2 Ta0 2.626446 1_545
Si3 Ta5 2.579953 1_555
Si3 Ta6 2.584806 1_654
Si3 Ta4 2.610492 1_554
Si3 Ta2 2.625935 1_555
Si3 Ta3 2.627658 1_655
Si3 Ta1 2.635885 1_555
Ge0 Ta4 2.738677 1_555
Ge0 Ta3 2.742011 1_555
Ge0 Nb1 2.742105 1_565
Ge0 Ta1 2.743696 1_555
Ge0 Ta2 2.744292 1_556
Ge0 Ta0 2.744539 1_556
Ge0 Nb2 2.748413 1_656
Ge0 Nb0 2.749571 1_666
Ge0 Ta5 2.962274 1_556
Ge0 Ta6 2.997994 1_665
Ge1 Ta0 2.738665 1_545
Ge1 Ta3 2.742010 1_555
Ge1 Nb2 2.742117 1_555
Ge1 Ta1 2.743697 1_555
Ge1 Ta2 2.744288 1_444
Ge1 Ta4 2.744546 1_454
Ge1 Nb1 2.748406 1_554
Ge1 Nb0 2.749576 1_554
Ge1 Ta6 2.962274 1_554
Ge1 Ta5 2.998006 1_555
