# generated using pymatgen
data_Mg3Zr6Al13Pd7
_symmetry_space_group_name_H-M   'P 1'
_cell_length_a   8.82066140
_cell_length_b   8.82066166
_cell_length_c   8.82066105
_cell_angle_alpha   59.96837707
_cell_angle_beta   59.96837427
_cell_angle_gamma   59.96837989
_symmetry_Int_Tables_number   1
_chemical_formula_structural   Mg3Zr6Al13Pd7
_chemical_formula_sum   'Mg3 Zr6 Al13 Pd7'
_cell_volume   484.92759784
_cell_formula_units_Z   1
loop_
 _symmetry_equiv_pos_site_id
 _symmetry_equiv_pos_as_xyz
  1  'x, y, z'
loop_
 _atom_site_type_symbol
 _atom_site_label
 _atom_site_symmetry_multiplicity
 _atom_site_fract_x
 _atom_site_fract_y
 _atom_site_fract_z
 _atom_site_occupancy
  Mg  Mg0  1  0.88298530  0.88298530  0.35320032  1
  Mg  Mg1  1  0.88298530  0.35320032  0.88298530  1
  Mg  Mg2  1  0.35320032  0.88298530  0.88298530  1
  Zr  Zr0  1  0.68567918  0.68567918  0.31339656  1
  Zr  Zr1  1  0.31797295  0.68249283  0.31797295  1
  Zr  Zr2  1  0.68249283  0.31797295  0.31797295  1
  Zr  Zr3  1  0.31797295  0.31797295  0.68249283  1
  Zr  Zr4  1  0.68567918  0.31339656  0.68567918  1
  Zr  Zr5  1  0.31339656  0.68567918  0.68567918  1
  Al  Al0  1  0.87893391  0.87893391  0.87893391  1
  Al  Al1  1  0.12109988  0.12109988  0.63725320  1
  Al  Al2  1  0.12109988  0.63725320  0.12109988  1
  Al  Al3  1  0.63725320  0.12109988  0.12109988  1
  Al  Al4  1  0.12062681  0.12062681  0.12062681  1
  Al  Al5  1  0.66511888  0.66511888  0.00394889  1
  Al  Al6  1  0.66511888  0.00394889  0.66511888  1
  Al  Al7  1  0.00394889  0.66511888  0.66511888  1
  Al  Al8  1  0.66556809  0.66556809  0.66556809  1
  Al  Al9  1  0.33425836  0.33425836  0.99694014  1
  Al  Al10  1  0.33425836  0.99694014  0.33425836  1
  Al  Al11  1  0.99694014  0.33425836  0.33425836  1
  Al  Al12  1  0.33484159  0.33484159  0.33484159  1
  Pd  Pd0  1  0.99428495  0.99428495  0.99428495  1
  Pd  Pd1  1  0.00031065  0.00031065  0.50513635  1
  Pd  Pd2  1  0.49823086  0.00206324  0.49823086  1
  Pd  Pd3  1  0.00206324  0.49823086  0.49823086  1
  Pd  Pd4  1  0.49823086  0.49823086  0.00206324  1
  Pd  Pd5  1  0.00031065  0.50513635  0.00031065  1
  Pd  Pd6  1  0.50513635  0.00031065  0.00031065  1
loop_
_geom_bond_atom_site_label_1
_geom_bond_atom_site_label_2
_geom_bond_distance
_geom_bond_site_symmetry_2
Mg0 Pd0 2.587090 1_554
Mg0 Pd2 2.772857 1_565
Mg0 Pd3 2.772858 1_655
Mg0 Pd1 2.790445 1_665
Mg0 Zr0 3.230491 1_555
Mg0 Zr1 3.241984 1_655
Mg0 Zr2 3.241984 1_565
Mg1 Pd0 2.587090 1_545
Mg1 Pd3 2.772857 1_655
Mg1 Pd4 2.772857 1_556
Mg1 Pd5 2.790445 1_656
Mg1 Zr4 3.230491 1_555
Mg1 Zr2 3.241984 1_556
Mg1 Zr3 3.241984 1_655
Mg2 Pd0 2.587090 1_455
Mg2 Pd2 2.772857 1_565
Mg2 Pd4 2.772858 1_556
Mg2 Pd6 2.790445 1_566
Mg2 Zr5 3.230491 1_555
Mg2 Zr1 3.241984 1_556
Mg2 Zr3 3.241984 1_565
Zr0 Zr1 3.237468 1_555
Zr0 Zr2 3.237468 1_555
Zr0 Zr5 3.282209 1_555
Zr0 Zr4 3.282209 1_555
Zr1 Zr3 3.213769 1_555
Zr1 Zr2 3.213770 1_555
Zr1 Zr5 3.237468 1_555
Zr2 Zr3 3.213769 1_555
Zr2 Zr4 3.237468 1_555
Zr3 Zr4 3.237468 1_555
Zr3 Zr5 3.237468 1_555
Zr4 Zr5 3.282209 1_555
Al0 Pd0 2.492884 1_555
Al0 Pd1 2.691505 1_665
Al0 Pd6 2.691505 1_566
Al0 Pd5 2.691505 1_656
Al0 Zr0 3.213812 1_556
Al0 Zr5 3.213812 1_655
Al0 Zr4 3.213812 1_565
Al1 Pd0 2.573044 1_445
Al1 Pd1 2.692629 1_555
Al1 Pd2 2.716910 1_555
Al1 Pd3 2.716910 1_555
Al1 Zr4 3.220683 1_455
Al1 Zr5 3.220683 1_545
Al1 Zr3 3.255178 1_555
Al2 Pd0 2.573044 1_454
Al2 Pd5 2.692629 1_555
Al2 Pd3 2.716910 1_555
Al2 Pd4 2.716910 1_555
Al2 Zr5 3.220683 1_554
Al2 Zr0 3.220683 1_455
Al2 Zr1 3.255178 1_555
Al3 Pd0 2.573044 1_544
Al3 Pd6 2.692629 1_555
Al3 Pd2 2.716910 1_555
Al3 Pd4 2.716910 1_555
Al3 Zr4 3.220683 1_554
Al3 Zr0 3.220683 1_545
Al3 Zr2 3.255178 1_555
Al4 Pd0 2.730410 1_444
Al4 Pd1 2.770804 1_555
Al4 Pd6 2.770804 1_555
Al4 Pd5 2.770804 1_555
Al4 Al9 2.780399 1_554
Al4 Mg0 2.964070 1_445
Al4 Mg2 2.964070 1_544
Al4 Mg1 2.964070 1_454
Al4 Zr3 3.249809 1_554
Al4 Zr2 3.249809 1_455
Al4 Zr1 3.249809 1_545
Al5 Pd5 2.551094 1_655
Al5 Pd6 2.551094 1_565
Al5 Pd4 2.559740 1_555
Al5 Zr1 2.921901 1_555
Al5 Zr2 2.921902 1_555
Al5 Zr0 2.922333 1_555
Al6 Pd6 2.551093 1_556
Al6 Pd1 2.551094 1_655
Al6 Pd2 2.559740 1_555
Al6 Zr2 2.921902 1_555
Al6 Zr3 2.921902 1_555
Al6 Zr4 2.922333 1_555
Al7 Pd5 2.551093 1_556
Al7 Pd1 2.551094 1_565
Al7 Pd3 2.559740 1_555
Al7 Zr1 2.921901 1_555
Al7 Zr3 2.921902 1_555
Al7 Zr5 2.922333 1_555
Al8 Pd4 2.564629 1_556
Al8 Pd3 2.564629 1_655
Al8 Pd2 2.564630 1_565
Al8 Mg0 2.837340 1_555
Al8 Mg2 2.837340 1_555
Al8 Mg1 2.837340 1_555
Al8 Zr0 2.939543 1_555
Al8 Zr5 2.939543 1_555
Al8 Zr4 2.939543 1_555
Al9 Pd4 2.531923 1_556
Al9 Pd5 2.542168 1_556
Al9 Pd6 2.542168 1_556
Al9 Zr3 2.924480 1_555
Al9 Zr4 2.931970 1_555
Al9 Zr5 2.931971 1_555
Al10 Pd2 2.531923 1_565
Al10 Pd6 2.542168 1_565
Al10 Pd1 2.542168 1_565
Al10 Al4 2.780399 1_565
Al10 Zr1 2.924480 1_555
Al10 Zr5 2.931970 1_555
Al10 Zr0 2.931971 1_555
Al11 Pd3 2.531923 1_655
Al11 Pd5 2.542168 1_655
Al11 Pd1 2.542168 1_655
Al11 Al4 2.780399 1_655
Al11 Zr2 2.924480 1_555
Al11 Zr4 2.931970 1_555
Al11 Zr0 2.931971 1_555
Al12 Pd4 2.525951 1_555
Al12 Pd3 2.525951 1_555
Al12 Pd2 2.525951 1_555
Al12 Zr3 2.925154 1_555
Al12 Zr2 2.925154 1_555
Al12 Zr1 2.925154 1_555
Pd1 Zr4 3.189268 1_455
Pd1 Zr5 3.189268 1_545
Pd1 Zr1 3.251961 1_545
Pd1 Zr2 3.251961 1_455
Pd2 Zr5 3.227586 1_545
Pd2 Zr0 3.227587 1_545
Pd2 Zr2 3.232072 1_555
Pd2 Zr3 3.232072 1_555
Pd3 Zr4 3.227586 1_455
Pd3 Zr0 3.227587 1_455
Pd3 Zr1 3.232072 1_555
Pd3 Zr3 3.232072 1_555
Pd4 Zr4 3.227586 1_554
Pd4 Zr5 3.227586 1_554
Pd4 Zr1 3.232072 1_555
Pd4 Zr2 3.232072 1_555
Pd5 Zr5 3.189268 1_554
Pd5 Zr0 3.189268 1_455
Pd5 Zr2 3.251961 1_455
Pd5 Zr3 3.251961 1_554
Pd6 Zr4 3.189268 1_554
Pd6 Zr0 3.189268 1_545
Pd6 Zr1 3.251961 1_545
Pd6 Zr3 3.251961 1_554
