# generated using pymatgen
data_K10CuP4Au
_symmetry_space_group_name_H-M   'P 1'
_cell_length_a   5.64163210
_cell_length_b   5.64163248
_cell_length_c   18.45437306
_cell_angle_alpha   90.00000000
_cell_angle_beta   90.00000000
_cell_angle_gamma   120.00000913
_symmetry_Int_Tables_number   1
_chemical_formula_structural   K10CuP4Au
_chemical_formula_sum   'K10 Cu1 P4 Au1'
_cell_volume   508.67388312
_cell_formula_units_Z   1
loop_
 _symmetry_equiv_pos_site_id
 _symmetry_equiv_pos_as_xyz
  1  'x, y, z'
loop_
 _atom_site_type_symbol
 _atom_site_label
 _atom_site_symmetry_multiplicity
 _atom_site_fract_x
 _atom_site_fract_y
 _atom_site_fract_z
 _atom_site_occupancy
  K  K0  1  0.00000000  0.00000000  0.85386437  1
  K  K1  1  0.00000000  0.00000000  0.64613563  1
  K  K2  1  0.33333300  0.66666700  0.75000000  1
  K  K3  1  0.00000000  0.00000000  0.35583062  1
  K  K4  1  0.33333300  0.66666700  0.55256692  1
  K  K5  1  0.66666700  0.33333300  0.25000000  1
  K  K6  1  0.66666700  0.33333300  0.45463920  1
  K  K7  1  0.66666700  0.33333300  0.04536080  1
  K  K8  1  0.33333300  0.66666700  0.94743308  1
  K  K9  1  0.00000000  0.00000000  0.14416938  1
  Cu  Cu0  1  0.66666700  0.33333300  0.75000000  1
  P  P0  1  0.33333300  0.66666700  0.12061548  1
  P  P1  1  0.66666700  0.33333300  0.63028572  1
  P  P2  1  0.66666700  0.33333300  0.86971428  1
  P  P3  1  0.33333300  0.66666700  0.37938452  1
  Au  Au0  1  0.33333300  0.66666700  0.25000000  1
loop_
_geom_bond_atom_site_label_1
_geom_bond_atom_site_label_2
_geom_bond_distance
_geom_bond_site_symmetry_2
K0 P2 3.270302 1_455
K0 P2 3.270306 1_555
K0 P2 3.270306 1_445
K1 P1 3.270302 1_455
K1 P1 3.270306 1_555
K1 P1 3.270306 1_445
K3 P3 3.286070 1_545
K3 P3 3.286075 1_445
K3 P3 3.286075 1_555
K4 P3 3.195973 1_555
K4 P1 3.558988 1_455
K4 P1 3.558988 1_565
K4 P1 3.558997 1_555
K6 P1 3.241446 1_555
K6 P3 3.540906 1_655
K6 P3 3.540907 1_545
K6 P3 3.540916 1_555
K7 P2 3.241446 1_554
K7 P0 3.540906 1_655
K7 P0 3.540907 1_545
K7 P0 3.540916 1_555
K8 P0 3.195973 1_556
K8 P2 3.558988 1_455
K8 P2 3.558988 1_565
K8 P2 3.558997 1_555
K9 P0 3.286070 1_545
K9 P0 3.286075 1_445
K9 P0 3.286075 1_555
Cu0 P1 2.209252 1_555
Cu0 P2 2.209252 1_555
Cu0 K2 3.257194 1_655
Cu0 K2 3.257194 1_545
Cu0 K2 3.257205 1_555
Au0 P0 2.387710 1_555
Au0 P3 2.387710 1_555
Au0 K5 3.257194 1_455
Au0 K5 3.257194 1_565
Au0 K5 3.257205 1_555
