# generated using pymatgen
data_Lu6InRhO12
_symmetry_space_group_name_H-M   'P 1'
_cell_length_a   6.40239130
_cell_length_b   6.40239181
_cell_length_c   6.40239086
_cell_angle_alpha   93.23728298
_cell_angle_beta   93.23728210
_cell_angle_gamma   93.23729139
_symmetry_Int_Tables_number   1
_chemical_formula_structural   Lu6InRhO12
_chemical_formula_sum   'Lu6 In1 Rh1 O12'
_cell_volume   261.13207293
_cell_formula_units_Z   1
loop_
 _symmetry_equiv_pos_site_id
 _symmetry_equiv_pos_as_xyz
  1  'x, y, z'
loop_
 _atom_site_type_symbol
 _atom_site_label
 _atom_site_symmetry_multiplicity
 _atom_site_fract_x
 _atom_site_fract_y
 _atom_site_fract_z
 _atom_site_occupancy
  Lu  Lu0  1  0.56523092  0.07798452  0.25918140  1
  Lu  Lu1  1  0.07798452  0.25918140  0.56523092  1
  Lu  Lu2  1  0.74081860  0.43476908  0.92201548  1
  Lu  Lu3  1  0.25918140  0.56523092  0.07798452  1
  Lu  Lu4  1  0.92201548  0.74081860  0.43476908  1
  Lu  Lu5  1  0.43476908  0.92201548  0.74081860  1
  In  In0  1  0.00000000  0.00000000  0.00000000  1
  Rh  Rh0  1  0.50000000  0.50000000  0.50000000  1
  O  O0  1  0.68216902  0.09121408  0.92792345  1
  O  O1  1  0.90878592  0.07207655  0.31783098  1
  O  O2  1  0.40680049  0.19125191  0.53609330  1
  O  O3  1  0.07207655  0.31783098  0.90878592  1
  O  O4  1  0.53609330  0.40680049  0.19125191  1
  O  O5  1  0.80874809  0.46390670  0.59319951  1
  O  O6  1  0.19125191  0.53609330  0.40680049  1
  O  O7  1  0.46390670  0.59319951  0.80874809  1
  O  O8  1  0.92792345  0.68216902  0.09121408  1
  O  O9  1  0.59319951  0.80874809  0.46390670  1
  O  O10  1  0.09121408  0.92792345  0.68216902  1
  O  O11  1  0.31783098  0.90878592  0.07207655  1
loop_
_geom_bond_atom_site_label_1
_geom_bond_atom_site_label_2
_geom_bond_distance
_geom_bond_site_symmetry_2
Lu0 O11 2.136057 1_545
Lu0 O4 2.189624 1_555
Lu0 O2 2.199751 1_555
Lu0 O1 2.213204 1_555
Lu0 O9 2.232701 1_545
Lu0 O0 2.293063 1_554
Lu1 O1 2.136057 1_455
Lu1 O2 2.189624 1_555
Lu1 O6 2.199751 1_555
Lu1 O3 2.213204 1_555
Lu1 O5 2.232701 1_455
Lu1 O10 2.293063 1_545
Lu2 O8 2.136057 1_556
Lu2 O5 2.189623 1_555
Lu2 O7 2.199752 1_555
Lu2 O0 2.213204 1_555
Lu2 O4 2.232701 1_556
Lu2 O3 2.293063 1_655
Lu3 O3 2.136057 1_554
Lu3 O6 2.189623 1_555
Lu3 O4 2.199752 1_555
Lu3 O11 2.213204 1_555
Lu3 O7 2.232701 1_554
Lu3 O8 2.293063 1_455
Lu4 O10 2.136057 1_655
Lu4 O9 2.189624 1_555
Lu4 O5 2.199751 1_555
Lu4 O8 2.213204 1_555
Lu4 O6 2.232701 1_655
Lu4 O1 2.293063 1_565
Lu5 O0 2.136057 1_565
Lu5 O7 2.189624 1_555
Lu5 O9 2.199751 1_555
Lu5 O10 2.213204 1_555
Lu5 O2 2.232701 1_565
Lu5 O11 2.293063 1_556
In0 O10 2.180210 1_544
In0 O1 2.180210 1_455
In0 O3 2.180210 1_554
In0 O8 2.180210 1_445
In0 O11 2.180210 1_545
In0 O0 2.180210 1_454
O2 Rh0 2.061757 1_555
O4 Rh0 2.061757 1_555
O5 Rh0 2.061757 1_555
O6 Rh0 2.061757 1_555
O7 Rh0 2.061757 1_555
O9 Rh0 2.061757 1_555
