# generated using pymatgen
data_Y4OsRh3O14
_symmetry_space_group_name_H-M   'P 1'
_cell_length_a   7.21136091
_cell_length_b   7.21136201
_cell_length_c   7.21136141
_cell_angle_alpha   59.39158284
_cell_angle_beta   59.39157514
_cell_angle_gamma   59.39158668
_symmetry_Int_Tables_number   1
_chemical_formula_structural   Y4OsRh3O14
_chemical_formula_sum   'Y4 Os1 Rh3 O14'
_cell_volume   261.50588914
_cell_formula_units_Z   1
loop_
 _symmetry_equiv_pos_site_id
 _symmetry_equiv_pos_as_xyz
  1  'x, y, z'
loop_
 _atom_site_type_symbol
 _atom_site_label
 _atom_site_symmetry_multiplicity
 _atom_site_fract_x
 _atom_site_fract_y
 _atom_site_fract_z
 _atom_site_occupancy
  Y  Y0  1  0.62500000  0.12500000  0.12500000  1
  Y  Y1  1  0.12500000  0.62500000  0.12500000  1
  Y  Y2  1  0.12500000  0.12500000  0.62500000  1
  Y  Y3  1  0.12500000  0.12500000  0.12500000  1
  Os  Os0  1  0.62500000  0.62500000  0.62500000  1
  Rh  Rh0  1  0.12500000  0.62500000  0.62500000  1
  Rh  Rh1  1  0.62500000  0.12500000  0.62500000  1
  Rh  Rh2  1  0.62500000  0.62500000  0.12500000  1
  O  O0  1  0.70940919  0.70940919  0.29332113  1
  O  O1  1  0.28727143  0.28727143  0.70812001  1
  O  O2  1  0.70940919  0.29332113  0.70940919  1
  O  O3  1  0.28727143  0.70812001  0.28727143  1
  O  O4  1  0.29332113  0.70940919  0.70940919  1
  O  O5  1  0.70812001  0.28727143  0.28727143  1
  O  O6  1  0.54059081  0.54059081  0.95667887  1
  O  O7  1  0.96272857  0.96272857  0.54187999  1
  O  O8  1  0.54059081  0.95667887  0.54059081  1
  O  O9  1  0.96272857  0.54187999  0.96272857  1
  O  O10  1  0.95667887  0.54059081  0.54059081  1
  O  O11  1  0.54187999  0.96272857  0.96272857  1
  O  O12  1  0.24997842  0.24997842  0.24997842  1
  O  O13  1  0.00002158  0.00002158  0.00002158  1
loop_
_geom_bond_atom_site_label_1
_geom_bond_atom_site_label_2
_geom_bond_distance
_geom_bond_site_symmetry_2
O0 Os0 1.968267 1_555
O0 Rh2 2.023993 1_555
O0 Y1 2.452740 1_655
O0 Y0 2.452741 1_565
O1 Rh1 1.996409 1_555
O1 Rh0 1.996409 1_555
O1 Y2 2.433324 1_555
O1 Y3 2.450713 1_556
O2 Os0 1.968267 1_555
O2 Rh1 2.023993 1_555
O2 Y2 2.452740 1_655
O2 Y0 2.452740 1_556
O3 Rh2 1.996408 1_555
O3 Rh0 1.996409 1_555
O3 Y1 2.433324 1_555
O3 Y3 2.450714 1_565
O4 Os0 1.968267 1_555
O4 Rh0 2.023993 1_555
O4 Y1 2.452740 1_556
O4 Y2 2.452741 1_565
O5 Rh1 1.996409 1_555
O5 Rh2 1.996409 1_555
O5 Y0 2.433324 1_555
O5 Y3 2.450713 1_655
O6 Os0 1.968267 1_555
O6 Rh2 2.023993 1_556
O6 Y1 2.452740 1_556
O6 Y0 2.452741 1_556
O7 Rh1 1.996409 1_565
O7 Rh0 1.996409 1_655
O7 Y2 2.433324 1_665
O7 Y3 2.450713 1_665
O8 Os0 1.968267 1_555
O8 Rh1 2.023993 1_565
O8 Y2 2.452740 1_565
O8 Y0 2.452740 1_565
O9 Rh2 1.996408 1_556
O9 Rh0 1.996409 1_655
O9 Y1 2.433324 1_656
O9 Y3 2.450714 1_656
O10 Os0 1.968267 1_555
O10 Rh0 2.023993 1_655
O10 Y1 2.452740 1_655
O10 Y2 2.452741 1_655
O11 Rh1 1.996409 1_565
O11 Rh2 1.996409 1_556
O11 Y0 2.433324 1_566
O11 Y3 2.450713 1_566
O12 Y0 2.191215 1_555
O12 Y2 2.191215 1_555
O12 Y1 2.191215 1_555
O12 Y3 2.217735 1_555
O13 Y0 2.191215 1_455
O13 Y2 2.191215 1_554
O13 Y1 2.191215 1_545
O13 Y3 2.217735 1_555
