# generated using pymatgen
data_Lu4Si6IrRh
_symmetry_space_group_name_H-M   'P 1'
_cell_length_a   8.05806809
_cell_length_b   8.05806848
_cell_length_c   7.67313684
_cell_angle_alpha   90.00000000
_cell_angle_beta   90.00000000
_cell_angle_gamma   119.99999843
_symmetry_Int_Tables_number   1
_chemical_formula_structural   Lu4Si6IrRh
_chemical_formula_sum   'Lu8 Si12 Ir2 Rh2'
_cell_volume   431.48476741
_cell_formula_units_Z   2
loop_
 _symmetry_equiv_pos_site_id
 _symmetry_equiv_pos_as_xyz
  1  'x, y, z'
loop_
 _atom_site_type_symbol
 _atom_site_label
 _atom_site_symmetry_multiplicity
 _atom_site_fract_x
 _atom_site_fract_y
 _atom_site_fract_z
 _atom_site_occupancy
  Lu  Lu0  1  0.97937126  0.48968663  0.24965858  1
  Lu  Lu1  1  0.51031337  0.48968663  0.24965858  1
  Lu  Lu2  1  0.48968663  0.97937126  0.75034142  1
  Lu  Lu3  1  0.02062874  0.51031337  0.75034142  1
  Lu  Lu4  1  0.48968663  0.51031337  0.75034142  1
  Lu  Lu5  1  0.51031337  0.02062874  0.24965858  1
  Lu  Lu6  1  0.00000000  0.00000000  0.74773574  1
  Lu  Lu7  1  0.00000000  0.00000000  0.25226426  1
  Si  Si0  1  0.16709463  0.83290537  0.49907232  1
  Si  Si1  1  0.16709463  0.33418827  0.49907232  1
  Si  Si2  1  0.66581173  0.83290537  0.49907232  1
  Si  Si3  1  0.33224868  0.16612434  0.99708557  1
  Si  Si4  1  0.83290537  0.66581173  0.50092768  1
  Si  Si5  1  0.83387566  0.16612434  0.99708557  1
  Si  Si6  1  0.83387566  0.66775132  0.99708557  1
  Si  Si7  1  0.16612434  0.33224868  0.00291443  1
  Si  Si8  1  0.66775132  0.83387566  0.00291443  1
  Si  Si9  1  0.33418827  0.16709463  0.50092768  1
  Si  Si10  1  0.83290537  0.16709463  0.50092768  1
  Si  Si11  1  0.16612434  0.83387566  0.00291443  1
  Ir  Ir0  1  0.33333300  0.66666700  0.03031532  1
  Ir  Ir1  1  0.66666700  0.33333300  0.96968468  1
  Rh  Rh0  1  0.66666700  0.33333300  0.53999239  1
  Rh  Rh1  1  0.33333300  0.66666700  0.46000761  1
loop_
_geom_bond_atom_site_label_1
_geom_bond_atom_site_label_2
_geom_bond_distance
_geom_bond_site_symmetry_2
Lu0 Rh1 2.950695 1_655
Lu0 Si4 2.966386 1_555
Lu0 Si10 2.966391 1_555
Lu0 Si6 2.978517 1_554
Lu0 Si5 2.978528 1_554
Lu0 Si11 3.060680 1_655
Lu0 Si7 3.060691 1_655
Lu0 Si0 3.068579 1_655
Lu0 Si1 3.068595 1_655
Lu0 Rh0 3.118490 1_555
Lu1 Rh1 2.950690 1_555
Lu1 Si4 2.966391 1_555
Lu1 Si9 2.966391 1_555
Lu1 Si6 2.978528 1_554
Lu1 Si3 2.978528 1_554
Lu1 Si7 3.060680 1_555
Lu1 Si8 3.060680 1_555
Lu1 Si1 3.068578 1_555
Lu1 Si2 3.068578 1_555
Lu1 Rh0 3.118504 1_555
Lu2 Rh0 2.950696 1_565
Lu2 Si2 2.966386 1_555
Lu2 Si0 2.966391 1_555
Lu2 Si8 2.978517 1_556
Lu2 Si11 2.978528 1_556
Lu2 Si5 3.060680 1_565
Lu2 Si3 3.060691 1_565
Lu2 Si10 3.068579 1_565
Lu2 Si9 3.068595 1_565
Lu2 Rh1 3.118490 1_555
Lu3 Rh0 2.950695 1_455
Lu3 Si1 2.966386 1_555
Lu3 Si0 2.966391 1_555
Lu3 Si7 2.978517 1_556
Lu3 Si11 2.978528 1_556
Lu3 Si5 3.060680 1_455
Lu3 Si6 3.060691 1_455
Lu3 Si10 3.068579 1_455
Lu3 Si4 3.068595 1_455
Lu3 Rh1 3.118490 1_555
Lu4 Rh0 2.950690 1_555
Lu4 Si1 2.966391 1_555
Lu4 Si2 2.966391 1_555
Lu4 Si7 2.978528 1_556
Lu4 Si8 2.978528 1_556
Lu4 Si6 3.060680 1_555
Lu4 Si3 3.060680 1_555
Lu4 Si4 3.068578 1_555
Lu4 Si9 3.068578 1_555
Lu4 Rh1 3.118504 1_555
Lu5 Rh1 2.950696 1_545
Lu5 Si9 2.966386 1_555
Lu5 Si10 2.966391 1_555
Lu5 Si3 2.978517 1_554
Lu5 Si5 2.978528 1_554
Lu5 Si11 3.060680 1_545
Lu5 Si8 3.060691 1_545
Lu5 Si0 3.068579 1_545
Lu5 Si2 3.068595 1_545
Lu5 Rh0 3.118490 1_555
Lu6 Si9 3.004210 1_555
Lu6 Si4 3.004210 1_445
Lu6 Si10 3.004216 1_455
Lu6 Si3 3.006091 1_555
Lu6 Si5 3.006091 1_455
Lu6 Si6 3.006091 1_445
Lu6 Si2 3.013205 1_445
Lu6 Si1 3.013205 1_555
Lu6 Si0 3.013210 1_545
Lu6 Si11 3.034753 1_546
Lu6 Si8 3.034753 1_446
Lu6 Si7 3.034753 1_556
Lu7 Si2 3.004210 1_445
Lu7 Si1 3.004210 1_555
Lu7 Si0 3.004216 1_545
Lu7 Si11 3.006091 1_545
Lu7 Si8 3.006091 1_445
Lu7 Si7 3.006091 1_555
Lu7 Si9 3.013205 1_555
Lu7 Si4 3.013205 1_445
Lu7 Si10 3.013210 1_455
Lu7 Si3 3.034753 1_554
Lu7 Si5 3.034753 1_454
Lu7 Si6 3.034753 1_444
Si0 Si4 2.332181 1_455
Si0 Si9 2.332181 1_565
Si1 Si9 2.332167 1_555
Si1 Si10 2.332181 1_455
Si2 Si4 2.332167 1_555
Si3 Si7 2.319026 1_556
Si5 Si7 2.319026 1_656
Si5 Si8 2.319026 1_546
Si6 Si8 2.319026 1_556
Si10 Si2 2.332181 1_545
Si11 Si6 2.319026 1_454
Si11 Si3 2.319026 1_564
Ir0 Si11 2.343180 1_555
Ir0 Si8 2.343187 1_555
Ir0 Si7 2.343187 1_555
Ir0 Lu1 2.988999 1_555
Ir0 Lu0 2.989005 1_455
Ir0 Lu5 2.989005 1_565
Ir0 Lu3 3.062207 1_554
Ir0 Lu2 3.062207 1_554
Ir0 Lu4 3.062222 1_554
Ir1 Si5 2.343180 1_555
Ir1 Si3 2.343187 1_555
Ir1 Si6 2.343187 1_555
Ir1 Lu4 2.988999 1_555
Ir1 Lu3 2.989005 1_655
Ir1 Lu2 2.989005 1_545
Ir1 Lu0 3.062207 1_556
Ir1 Lu5 3.062207 1_556
Ir1 Lu1 3.062222 1_556
Rh0 Si10 2.339469 1_555
Rh0 Si9 2.339482 1_555
Rh0 Si4 2.339482 1_555
Rh1 Si0 2.339469 1_555
Rh1 Si2 2.339482 1_555
Rh1 Si1 2.339482 1_555
