# generated using pymatgen
data_Zr10InGa2Sn5
_symmetry_space_group_name_H-M   'P 1'
_cell_length_a   8.71961685
_cell_length_b   8.72753824
_cell_length_c   5.86653691
_cell_angle_alpha   90.00000000
_cell_angle_beta   90.00000000
_cell_angle_gamma   119.96998033
_symmetry_Int_Tables_number   1
_chemical_formula_structural   Zr10InGa2Sn5
_chemical_formula_sum   'Zr10 In1 Ga2 Sn5'
_cell_volume   386.75229140
_cell_formula_units_Z   1
loop_
 _symmetry_equiv_pos_site_id
 _symmetry_equiv_pos_as_xyz
  1  'x, y, z'
loop_
 _atom_site_type_symbol
 _atom_site_label
 _atom_site_symmetry_multiplicity
 _atom_site_fract_x
 _atom_site_fract_y
 _atom_site_fract_z
 _atom_site_occupancy
  Zr  Zr0  1  0.00222663  0.26706622  0.25000000  1
  Zr  Zr1  1  0.73526611  0.00000000  0.75000000  1
  Zr  Zr2  1  0.73516140  0.73293378  0.25000000  1
  Zr  Zr3  1  0.66694027  0.33462441  0.50003777  1
  Zr  Zr4  1  0.99986887  0.73516886  0.75000000  1
  Zr  Zr5  1  0.26470001  0.26483114  0.75000000  1
  Zr  Zr6  1  0.33231486  0.66537559  0.99996223  1
  Zr  Zr7  1  0.66694027  0.33462441  0.99996223  1
  Zr  Zr8  1  0.33231486  0.66537559  0.50003777  1
  Zr  Zr9  1  0.26386867  0.00000000  0.25000000  1
  In  In0  1  0.61366324  0.00000000  0.25000000  1
  Ga  Ga0  1  0.99854046  0.00000000  0.00136705  1
  Ga  Ga1  1  0.99854046  0.00000000  0.49863295  1
  Sn  Sn0  1  0.38963864  0.00000000  0.75000000  1
  Sn  Sn1  1  0.38860415  0.38809641  0.25000000  1
  Sn  Sn2  1  0.00050773  0.61190359  0.25000000  1
  Sn  Sn3  1  0.99921848  0.38753261  0.75000000  1
  Sn  Sn4  1  0.61168588  0.61246739  0.75000000  1
loop_
_geom_bond_atom_site_label_1
_geom_bond_atom_site_label_2
_geom_bond_distance
_geom_bond_site_symmetry_2
Zr3 Zr7 2.932825 1_555
Zr3 Zr7 2.933712 1_554
Zr6 Zr8 2.932825 1_555
Zr6 Zr8 2.933712 1_556
In0 Zr0 3.003694 1_655
In0 Zr2 3.003701 1_545
In0 Zr9 3.050075 1_555
In0 Zr3 3.088853 1_555
In0 Zr7 3.088853 1_554
In0 Zr8 3.088856 1_545
In0 Zr6 3.088856 1_544
In0 Zr1 3.119033 1_555
In0 Zr1 3.119033 1_554
Ga0 Zr1 2.728483 1_554
Ga0 Zr9 2.734980 1_655
Ga0 Zr2 2.736145 1_545
Ga0 Zr0 2.736149 1_655
Ga0 Zr4 2.746581 1_544
Ga0 Zr5 2.746581 1_654
Ga1 Zr1 2.728483 1_555
Ga1 Zr9 2.734980 1_655
Ga1 Zr2 2.736145 1_545
Ga1 Zr0 2.736149 1_655
Ga1 Zr4 2.746581 1_545
Ga1 Zr5 2.746581 1_655
Sn0 Zr4 3.007450 1_445
Sn0 Zr5 3.007450 1_555
Sn0 Zr1 3.013739 1_555
Sn0 Zr6 3.077464 1_545
Sn0 Zr8 3.077464 1_545
Sn0 Zr7 3.077467 1_555
Sn0 Zr3 3.077467 1_555
Sn0 Zr9 3.131571 1_556
Sn0 Zr9 3.131571 1_555
Sn1 Zr0 2.985106 1_555
Sn1 Zr9 2.995822 1_555
Sn1 Zr2 3.017101 1_555
Sn1 Zr3 3.064523 1_555
Sn1 Zr7 3.064523 1_554
Sn1 Zr8 3.071725 1_555
Sn1 Zr6 3.071725 1_554
Sn1 Zr5 3.125289 1_555
Sn1 Zr5 3.125289 1_554
Sn2 Zr2 2.985097 1_455
Sn2 Zr9 2.995822 1_565
Sn2 Zr0 3.017096 1_555
Sn2 Zr8 3.064516 1_555
Sn2 Zr6 3.064516 1_554
Sn2 Zr3 3.071720 1_455
Sn2 Zr7 3.071720 1_454
Sn2 Zr4 3.125289 1_454
Sn2 Zr4 3.125289 1_455
Sn3 Zr1 2.993195 1_555
Sn3 Zr5 2.997043 1_655
Sn3 Zr4 3.031180 1_555
Sn3 Zr7 3.069447 1_555
Sn3 Zr3 3.069447 1_555
Sn3 Zr6 3.070794 1_655
Sn3 Zr8 3.070794 1_655
Sn3 Zr0 3.120528 1_655
Sn3 Zr0 3.120528 1_656
Sn4 Zr1 2.993195 1_565
Sn4 Zr4 2.997043 1_555
Sn4 Zr5 3.031180 1_555
Sn4 Zr6 3.069454 1_555
Sn4 Zr8 3.069454 1_555
Sn4 Zr7 3.070799 1_555
Sn4 Zr3 3.070799 1_555
Sn4 Zr2 3.120529 1_556
Sn4 Zr2 3.120529 1_555
