# generated using pymatgen
data_SnAsHO5
_symmetry_space_group_name_H-M   'P 1'
_cell_length_a   5.50210165
_cell_length_b   7.59843821
_cell_length_c   5.46301061
_cell_angle_alpha   107.92200544
_cell_angle_beta   101.94062887
_cell_angle_gamma   104.94125041
_symmetry_Int_Tables_number   1
_chemical_formula_structural   SnAsHO5
_chemical_formula_sum   'Sn2 As2 H2 O10'
_cell_volume   199.52742171
_cell_formula_units_Z   2
loop_
 _symmetry_equiv_pos_site_id
 _symmetry_equiv_pos_as_xyz
  1  'x, y, z'
loop_
 _atom_site_type_symbol
 _atom_site_label
 _atom_site_symmetry_multiplicity
 _atom_site_fract_x
 _atom_site_fract_y
 _atom_site_fract_z
 _atom_site_occupancy
  Sn  Sn0  1  0.00000000  0.50000000  0.00000000  1
  Sn  Sn1  1  0.00000000  0.00000000  0.00000000  1
  As  As0  1  0.32604121  0.23619815  0.68147563  1
  As  As1  1  0.67395879  0.76380185  0.31852437  1
  H  H0  1  0.94868587  0.30951094  0.31943466  1
  H  H1  1  0.05131413  0.69048906  0.68056534  1
  O  O0  1  0.06776247  0.73420745  0.87456212  1
  O  O1  1  0.09604205  0.35194271  0.67113626  1
  O  O2  1  0.37727026  0.59400449  0.24918468  1
  O  O3  1  0.24126553  0.05727837  0.37286363  1
  O  O4  1  0.32638567  0.13475594  0.91580699  1
  O  O5  1  0.67361433  0.86524406  0.08419301  1
  O  O6  1  0.75873447  0.94272163  0.62713637  1
  O  O7  1  0.62272974  0.40599551  0.75081532  1
  O  O8  1  0.90395795  0.64805729  0.32886374  1
  O  O9  1  0.93223753  0.26579255  0.12543788  1
loop_
_geom_bond_atom_site_label_1
_geom_bond_atom_site_label_2
_geom_bond_distance
_geom_bond_site_symmetry_2
As0 O7 1.682307 1_555
As0 O4 1.685222 1_555
As0 O3 1.686779 1_555
As0 O1 1.718432 1_555
As1 O2 1.682307 1_555
As1 O5 1.685222 1_555
As1 O6 1.686779 1_555
As1 O8 1.718432 1_555
H0 O9 0.984819 1_555
H1 O0 0.984819 1_555
O0 Sn0 2.071168 1_556
O0 Sn1 2.080784 1_566
O1 Sn0 2.056230 1_556
O2 Sn0 2.034678 1_555
O3 Sn1 2.034294 1_555
O4 Sn1 2.041658 1_556
O5 Sn1 2.041658 1_665
O6 Sn1 2.034294 1_666
O7 Sn0 2.034678 1_656
O8 Sn0 2.056230 1_655
O9 Sn0 2.071168 1_655
O9 Sn1 2.080784 1_655
