# generated using pymatgen
data_TiPdPt4
_symmetry_space_group_name_H-M   'P 1'
_cell_length_a   6.19342533
_cell_length_b   6.19342455
_cell_length_c   3.96479925
_cell_angle_alpha   90.00000000
_cell_angle_beta   90.00000000
_cell_angle_gamma   143.40456028
_symmetry_Int_Tables_number   1
_chemical_formula_structural   TiPdPt4
_chemical_formula_sum   'Ti1 Pd1 Pt4'
_cell_volume   90.66642743
_cell_formula_units_Z   1
loop_
 _symmetry_equiv_pos_site_id
 _symmetry_equiv_pos_as_xyz
  1  'x, y, z'
loop_
 _atom_site_type_symbol
 _atom_site_label
 _atom_site_symmetry_multiplicity
 _atom_site_fract_x
 _atom_site_fract_y
 _atom_site_fract_z
 _atom_site_occupancy
  Ti  Ti0  1  0.00169870  0.99830130  0.00000000  1
  Pd  Pd0  1  0.33952454  0.66047346  0.00000000  1
  Pt  Pt0  1  0.65936759  0.34063041  0.00000000  1
  Pt  Pt1  1  0.83553054  0.16446746  0.49999900  1
  Pt  Pt2  1  0.49913407  0.50086393  0.49999900  1
  Pt  Pt3  1  0.16473956  0.83525844  0.49999900  1
loop_
_geom_bond_atom_site_label_1
_geom_bond_atom_site_label_2
_geom_bond_distance
_geom_bond_site_symmetry_2
Pd0 Ti0 2.723687 1_545
Pd0 Ti0 2.723693 1_655
Pd0 Pt2 2.730088 1_555
Pd0 Pt2 2.730093 1_554
Pd0 Pt1 2.777229 1_565
Pd0 Pt1 2.777229 1_455
Pd0 Pt1 2.777235 1_564
Pd0 Pt1 2.777235 1_454
Pd0 Pt3 2.855739 1_555
Pd0 Pt3 2.855745 1_554
Pd0 Pt0 2.875757 1_565
Pd0 Pt0 2.875758 1_455
Pt0 Ti0 2.686868 1_545
Pt0 Ti0 2.686873 1_655
Pt0 Pt2 2.735139 1_555
Pt0 Pt2 2.735144 1_554
Pt0 Pt3 2.777551 1_545
Pt0 Pt3 2.777551 1_655
Pt0 Pt3 2.777556 1_544
Pt0 Pt3 2.777556 1_654
Pt0 Pt1 2.867426 1_555
Pt0 Pt1 2.867432 1_554
Pt1 Pt2 2.735495 1_545
Pt1 Pt2 2.735496 1_655
Pt1 Ti0 2.783676 1_645
Pt1 Ti0 2.783682 1_646
Pt1 Pt3 2.795596 1_655
Pt1 Pt3 2.795597 1_545
Pt2 Pt3 2.752107 1_545
Pt2 Pt3 2.752107 1_655
Pt2 Ti0 2.776993 1_545
Pt2 Ti0 2.776999 1_655
Pt2 Ti0 2.776999 1_546
Pt2 Ti0 2.777004 1_656
Pt3 Ti0 2.757997 1_555
Pt3 Ti0 2.758003 1_556
