# generated using pymatgen
data_CaSb12(OsRh)2
_symmetry_space_group_name_H-M   'P 1'
_cell_length_a   8.11020951
_cell_length_b   8.11021026
_cell_length_c   8.08667616
_cell_angle_alpha   109.49289247
_cell_angle_beta   109.46000689
_cell_angle_gamma   109.57838697
_symmetry_Int_Tables_number   1
_chemical_formula_structural   CaSb12(OsRh)2
_chemical_formula_sum   'Ca1 Sb12 Os2 Rh2'
_cell_volume   408.86499659
_cell_formula_units_Z   1
loop_
 _symmetry_equiv_pos_site_id
 _symmetry_equiv_pos_as_xyz
  1  'x, y, z'
loop_
 _atom_site_type_symbol
 _atom_site_label
 _atom_site_symmetry_multiplicity
 _atom_site_fract_x
 _atom_site_fract_y
 _atom_site_fract_z
 _atom_site_occupancy
  Ca  Ca0  1  0.00000000  0.00000000  0.00000000  1
  Sb  Sb0  1  0.84308956  0.66107906  0.50416961  1
  Sb  Sb1  1  0.15691044  0.33892094  0.49583039  1
  Sb  Sb2  1  0.15509273  0.65855215  0.81364487  1
  Sb  Sb3  1  0.84490727  0.34144785  0.18635513  1
  Sb  Sb4  1  0.65932501  0.50367331  0.84382070  1
  Sb  Sb5  1  0.34067499  0.49632669  0.15617930  1
  Sb  Sb6  1  0.65985261  0.81550532  0.15617930  1
  Sb  Sb7  1  0.34014739  0.18449468  0.84382070  1
  Sb  Sb8  1  0.50346811  0.84311124  0.65869880  1
  Sb  Sb9  1  0.49653189  0.15688876  0.34130120  1
  Sb  Sb10  1  0.18441244  0.84477031  0.34130120  1
  Sb  Sb11  1  0.81558756  0.15522969  0.65869880  1
  Os  Os0  1  0.50000000  0.50000000  0.50000000  1
  Os  Os1  1  0.00000000  0.00000000  0.50000000  1
  Rh  Rh0  1  0.50000000  0.00000000  0.00000000  1
  Rh  Rh1  1  0.00000000  0.50000000  0.00000000  1
loop_
_geom_bond_atom_site_label_1
_geom_bond_atom_site_label_2
_geom_bond_distance
_geom_bond_site_symmetry_2
Ca0 Sb1 3.486034 1_555
Ca0 Sb0 3.486034 1_444
Ca0 Sb6 3.501497 1_445
Ca0 Sb7 3.501497 1_554
Ca0 Sb5 3.501500 1_555
Ca0 Sb4 3.501500 1_444
Ca0 Sb10 3.502830 1_545
Ca0 Sb11 3.502830 1_454
Ca0 Sb9 3.502836 1_555
Ca0 Sb8 3.502836 1_444
Ca0 Sb3 3.511986 1_455
Ca0 Sb2 3.511986 1_544
Sb0 Sb2 2.918232 1_655
Sb0 Sb3 2.988294 1_555
Sb1 Sb3 2.918232 1_455
Sb1 Sb2 2.988294 1_555
Sb4 Sb6 2.915232 1_556
Sb4 Sb7 2.985105 1_555
Sb5 Sb7 2.915232 1_554
Sb5 Sb6 2.985105 1_555
Sb10 Sb9 2.919084 1_565
Sb10 Sb8 2.984109 1_555
Sb11 Sb8 2.919084 1_545
Sb11 Sb9 2.984109 1_555
Os0 Sb0 2.630997 1_555
Os0 Sb1 2.630997 1_555
Os0 Sb4 2.631754 1_555
Os0 Sb5 2.631754 1_555
Os0 Sb8 2.632751 1_555
Os0 Sb9 2.632751 1_555
Os1 Sb1 2.631006 1_555
Os1 Sb0 2.631006 1_445
Os1 Sb7 2.631756 1_555
Os1 Sb6 2.631756 1_445
Os1 Sb11 2.632746 1_455
Os1 Sb10 2.632746 1_545
Rh0 Sb9 2.639952 1_555
Rh0 Sb8 2.639952 1_544
Rh0 Sb3 2.641774 1_555
Rh0 Sb2 2.641774 1_544
Rh0 Sb7 2.642921 1_554
Rh0 Sb6 2.642921 1_545
Rh1 Sb10 2.639957 1_555
Rh1 Sb11 2.639957 1_454
Rh1 Sb3 2.641773 1_455
Rh1 Sb2 2.641773 1_554
Rh1 Sb5 2.642928 1_555
Rh1 Sb4 2.642928 1_454
