# generated using pymatgen
data_NaYGaPt3
_symmetry_space_group_name_H-M   'P 1'
_cell_length_a   5.15683037
_cell_length_b   5.15683053
_cell_length_c   5.15683043
_cell_angle_alpha   64.68159444
_cell_angle_beta   64.68159604
_cell_angle_gamma   64.68159217
_symmetry_Int_Tables_number   1
_chemical_formula_structural   NaYGaPt3
_chemical_formula_sum   'Na1 Y1 Ga1 Pt3'
_cell_volume   106.90997380
_cell_formula_units_Z   1
loop_
 _symmetry_equiv_pos_site_id
 _symmetry_equiv_pos_as_xyz
  1  'x, y, z'
loop_
 _atom_site_type_symbol
 _atom_site_label
 _atom_site_symmetry_multiplicity
 _atom_site_fract_x
 _atom_site_fract_y
 _atom_site_fract_z
 _atom_site_occupancy
  Na  Na0  1  0.25157931  0.25157931  0.25157931  1
  Y  Y0  1  0.00302787  0.00302787  0.00302787  1
  Ga  Ga0  1  0.62333117  0.62333117  0.62333117  1
  Pt  Pt0  1  0.62314334  0.62314334  0.12577696  1
  Pt  Pt1  1  0.62314334  0.12577696  0.62314334  1
  Pt  Pt2  1  0.12577696  0.62314334  0.62314334  1
loop_
_geom_bond_atom_site_label_1
_geom_bond_atom_site_label_2
_geom_bond_distance
_geom_bond_site_symmetry_2
Na0 Pt1 2.962682 1_555
Na0 Pt2 2.962682 1_555
Na0 Pt0 2.962682 1_555
Na0 Y0 3.023893 1_555
Na0 Pt0 3.165225 1_455
Na0 Pt2 3.165225 1_554
Na0 Pt0 3.165225 1_545
Na0 Pt1 3.165225 1_554
Na0 Pt1 3.165225 1_455
Na0 Pt2 3.165225 1_545
Na0 Y0 3.348269 1_655
Na0 Y0 3.348270 1_565
Na0 Y0 3.348270 1_556
Ga0 Pt2 2.566631 1_555
Ga0 Pt0 2.566632 1_555
Ga0 Pt1 2.566632 1_555
Ga0 Pt2 2.590200 1_655
Ga0 Pt0 2.590200 1_556
Ga0 Pt1 2.590200 1_565
Ga0 Na0 3.219543 1_565
Ga0 Na0 3.219543 1_655
Ga0 Na0 3.219544 1_556
Ga0 Y0 3.234990 1_656
Ga0 Y0 3.234990 1_566
Ga0 Y0 3.234990 1_665
Pt0 Pt1 2.744137 1_555
Pt0 Pt2 2.744137 1_555
Pt0 Pt1 2.773198 1_564
Pt0 Pt2 2.773198 1_654
Pt0 Y0 3.039276 1_665
Pt0 Y0 3.126842 1_565
Pt0 Y0 3.126842 1_655
Pt1 Pt2 2.744137 1_555
Pt1 Pt2 2.773198 1_645
Pt1 Y0 3.039276 1_656
Pt1 Y0 3.126842 1_655
Pt1 Y0 3.126842 1_556
Pt2 Y0 3.039276 1_566
Pt2 Y0 3.126842 1_565
Pt2 Y0 3.126842 1_556
