# generated using pymatgen
data_RbAsPRh2
_symmetry_space_group_name_H-M   'P 1'
_cell_length_a   7.54794512
_cell_length_b   7.54794449
_cell_length_c   7.54794481
_cell_angle_alpha   149.62151682
_cell_angle_beta   149.62150596
_cell_angle_gamma   43.49726919
_symmetry_Int_Tables_number   1
_chemical_formula_structural   RbAsPRh2
_chemical_formula_sum   'Rb1 As1 P1 Rh2'
_cell_volume   109.67461232
_cell_formula_units_Z   1
loop_
 _symmetry_equiv_pos_site_id
 _symmetry_equiv_pos_as_xyz
  1  'x, y, z'
loop_
 _atom_site_type_symbol
 _atom_site_label
 _atom_site_symmetry_multiplicity
 _atom_site_fract_x
 _atom_site_fract_y
 _atom_site_fract_z
 _atom_site_occupancy
  Rb  Rb0  1  0.00464735  0.00464735  1.00000000  1
  As  As0  1  0.34687164  0.34687164  1.00000000  1
  P  P0  1  0.65947425  0.65947425  0.00000000  1
  Rh  Rh0  1  0.74450288  0.24450288  0.50000000  1
  Rh  Rh1  1  0.24450288  0.74450288  0.50000000  1
loop_
_geom_bond_atom_site_label_1
_geom_bond_atom_site_label_2
_geom_bond_distance
_geom_bond_site_symmetry_2
As0 Rh1 2.443606 1_545
As0 Rh1 2.443606 1_556
As0 Rh0 2.443606 1_556
As0 Rh0 2.443606 1_455
As0 Rb0 3.565940 1_565
As0 Rb0 3.565940 1_666
As0 Rb0 3.565940 1_554
As0 Rb0 3.565940 1_655
P0 Rh0 2.309191 1_565
P0 Rh0 2.309192 1_554
P0 Rh1 2.309192 1_554
P0 Rh1 2.309192 1_655
P0 Rb0 3.540438 1_654
P0 Rb0 3.540438 1_553
P0 Rb0 3.540438 1_665
P0 Rb0 3.540438 1_564
