# generated using pymatgen
data_Rb2LiPO4
_symmetry_space_group_name_H-M   'P 1'
_cell_length_a   6.34041874
_cell_length_b   6.34041907
_cell_length_c   7.75168321
_cell_angle_alpha   90.00000000
_cell_angle_beta   90.00000000
_cell_angle_gamma   127.11642587
_symmetry_Int_Tables_number   1
_chemical_formula_structural   Rb2LiPO4
_chemical_formula_sum   'Rb4 Li2 P2 O8'
_cell_volume   248.49297957
_cell_formula_units_Z   2
loop_
 _symmetry_equiv_pos_site_id
 _symmetry_equiv_pos_as_xyz
  1  'x, y, z'
loop_
 _atom_site_type_symbol
 _atom_site_label
 _atom_site_symmetry_multiplicity
 _atom_site_fract_x
 _atom_site_fract_y
 _atom_site_fract_z
 _atom_site_occupancy
  Rb  Rb0  1  0.93408610  0.06591390  0.85330646  1
  Rb  Rb1  1  0.06591390  0.93408610  0.35330646  1
  Rb  Rb2  1  0.39415902  0.60584098  0.49754466  1
  Rb  Rb3  1  0.60584098  0.39415902  0.99754466  1
  Li  Li0  1  0.20626662  0.79373338  0.76769911  1
  Li  Li1  1  0.79373338  0.20626662  0.26769911  1
  P  P0  1  0.30500495  0.69499505  0.05266288  1
  P  P1  1  0.69499505  0.30500495  0.55266288  1
  O  O0  1  0.11849936  0.43504875  0.15334526  1
  O  O1  1  0.88150064  0.56495125  0.65334526  1
  O  O2  1  0.36467571  0.63532429  0.87260756  1
  O  O3  1  0.63532429  0.36467571  0.37260756  1
  O  O4  1  0.56495125  0.88150064  0.15334526  1
  O  O5  1  0.43504875  0.11849936  0.65334526  1
  O  O6  1  0.82967315  0.17032685  0.51798981  1
  O  O7  1  0.17032685  0.82967315  0.01798981  1
loop_
_geom_bond_atom_site_label_1
_geom_bond_atom_site_label_2
_geom_bond_distance
_geom_bond_site_symmetry_2
Li0 O1 1.877543 1_455
Li0 O5 1.877543 1_565
Li0 O2 1.973917 1_555
Li0 O7 1.982624 1_556
Li1 O0 1.877543 1_655
Li1 O4 1.877543 1_545
Li1 O3 1.973917 1_555
Li1 O6 1.982624 1_555
O0 P0 1.540046 1_555
O0 Rb0 2.991921 1_454
O0 Rb2 3.010336 1_555
O1 P1 1.540046 1_555
O1 Rb1 2.991921 1_655
O1 Rb3 3.010336 1_555
O2 P0 1.551482 1_556
O2 Rb3 2.904474 1_555
O2 Rb2 2.926578 1_555
O2 Rb0 2.935063 1_565
O2 Rb0 2.935063 1_455
O3 P1 1.551482 1_555
O3 Rb2 2.904474 1_555
O3 Rb3 2.926578 1_554
O3 Rb1 2.935063 1_545
O3 Rb1 2.935063 1_655
O4 P0 1.540046 1_555
O4 Rb0 2.991921 1_564
O4 Rb2 3.010336 1_555
O5 P1 1.540046 1_555
O5 Rb1 2.991921 1_545
O5 Rb3 3.010336 1_555
O6 P1 1.552611 1_555
O6 Rb0 2.856866 1_555
O6 Rb2 2.921014 1_655
O6 Rb2 2.921014 1_545
O6 Rb1 2.970620 1_645
O7 P0 1.552611 1_555
O7 Rb1 2.856866 1_555
O7 Rb3 2.921014 1_454
O7 Rb3 2.921014 1_564
O7 Rb0 2.970620 1_464
