# generated using pymatgen
data_K2Si4NiO10
_symmetry_space_group_name_H-M   'P 1'
_cell_length_a   7.13700633
_cell_length_b   7.99679165
_cell_length_c   9.92873184
_cell_angle_alpha   103.70985688
_cell_angle_beta   102.47782268
_cell_angle_gamma   113.03223935
_symmetry_Int_Tables_number   1
_chemical_formula_structural   K2Si4NiO10
_chemical_formula_sum   'K4 Si8 Ni2 O20'
_cell_volume   475.45781883
_cell_formula_units_Z   2
loop_
 _symmetry_equiv_pos_site_id
 _symmetry_equiv_pos_as_xyz
  1  'x, y, z'
loop_
 _atom_site_type_symbol
 _atom_site_label
 _atom_site_symmetry_multiplicity
 _atom_site_fract_x
 _atom_site_fract_y
 _atom_site_fract_z
 _atom_site_occupancy
  K  K0  1  0.67512736  0.80275061  0.99588925  1
  K  K1  1  0.73931972  0.24479162  0.41620036  1
  K  K2  1  0.26068028  0.75520838  0.58379964  1
  K  K3  1  0.32487264  0.19724939  0.00411075  1
  Si  Si0  1  0.06212119  0.68859503  0.86727092  1
  Si  Si1  1  0.93787881  0.31140497  0.13272908  1
  Si  Si2  1  0.22917385  0.91161241  0.21313346  1
  Si  Si3  1  0.77082615  0.08838759  0.78686654  1
  Si  Si4  1  0.39874547  0.63000364  0.26336846  1
  Si  Si5  1  0.18517560  0.37680695  0.73548534  1
  Si  Si6  1  0.81482440  0.62319305  0.26451466  1
  Si  Si7  1  0.60125453  0.36999636  0.73663154  1
  Ni  Ni0  1  0.73522081  0.68698702  0.58582541  1
  Ni  Ni1  1  0.26477919  0.31301298  0.41417459  1
  O  O0  1  0.99890225  0.79614793  0.23464077  1
  O  O1  1  0.00109775  0.20385207  0.76535923  1
  O  O2  1  0.83079479  0.53097627  0.86798309  1
  O  O3  1  0.16920521  0.46902373  0.13201691  1
  O  O4  1  0.58656529  0.62834904  0.19319545  1
  O  O5  1  0.41343471  0.37165096  0.80680455  1
  O  O6  1  0.21624504  0.58433213  0.84167574  1
  O  O7  1  0.78375496  0.41566787  0.15832426  1
  O  O8  1  0.86361358  0.64066813  0.43112266  1
  O  O9  1  0.13638642  0.35933187  0.56887734  1
  O  O10  1  0.42940881  0.58404659  0.41197686  1
  O  O11  1  0.57059119  0.41595341  0.58802314  1
  O  O12  1  0.02716313  0.78908742  0.75171208  1
  O  O13  1  0.97283687  0.21091258  0.24828792  1
  O  O14  1  0.81038422  0.15345517  0.96418077  1
  O  O15  1  0.18961578  0.84654483  0.03581923  1
  O  O16  1  0.59835253  0.15872123  0.71164551  1
  O  O17  1  0.40164747  0.84127877  0.28835449  1
  O  O18  1  0.33369724  0.14071560  0.27779207  1
  O  O19  1  0.66630276  0.85928440  0.72220793  1
loop_
_geom_bond_atom_site_label_1
_geom_bond_atom_site_label_2
_geom_bond_distance
_geom_bond_site_symmetry_2
K0 O4 2.706028 1_556
K0 O14 2.706966 1_565
K0 O19 2.850044 1_555
K0 O6 2.865371 1_555
K0 O0 2.957961 1_556
K0 O2 2.959936 1_555
K0 O5 3.045682 1_555
K0 O13 3.137415 1_566
K1 O9 2.573342 1_655
K1 O18 2.610595 1_555
K1 O13 2.640131 1_555
K1 O11 2.702710 1_555
K1 O8 2.890363 1_555
K1 O17 2.912552 1_545
K2 O8 2.573342 1_455
K2 O19 2.610595 1_555
K2 O12 2.640131 1_555
K2 O10 2.702710 1_555
K2 O9 2.890363 1_555
K2 O16 2.912552 1_565
K3 O5 2.706028 1_554
K3 O15 2.706966 1_545
K3 O18 2.850044 1_555
K3 O7 2.865371 1_555
K3 O1 2.957961 1_554
K3 O3 2.959936 1_555
K3 O4 3.045682 1_555
K3 O12 3.137415 1_544
Ni0 O19 1.976787 1_555
Ni0 O8 1.985019 1_555
Ni0 O11 2.029633 1_555
Ni0 O12 2.066199 1_655
Ni0 O10 2.171020 1_555
Ni1 O18 1.976787 1_555
Ni1 O9 1.985019 1_555
Ni1 O10 2.029633 1_555
Ni1 O13 2.066199 1_455
Ni1 O11 2.171020 1_555
O0 Si2 1.629965 1_655
O0 Si6 1.633366 1_555
O1 Si3 1.629965 1_455
O1 Si5 1.633366 1_555
O2 Si7 1.634793 1_555
O2 Si0 1.641772 1_655
O3 Si4 1.634793 1_555
O3 Si1 1.641772 1_455
O4 Si4 1.641815 1_555
O4 Si6 1.650744 1_555
O5 Si7 1.641815 1_555
O5 Si5 1.650744 1_555
O6 Si5 1.642101 1_555
O6 Si0 1.645517 1_555
O7 Si6 1.642101 1_555
O7 Si1 1.645517 1_555
O8 Si6 1.574997 1_555
O9 Si5 1.574997 1_555
O10 Si4 1.593885 1_555
O11 Si7 1.593885 1_555
O12 Si0 1.579465 1_555
O13 Si1 1.579465 1_555
O14 Si1 1.632355 1_556
O14 Si3 1.638867 1_555
O15 Si0 1.632355 1_554
O15 Si2 1.638867 1_555
O16 Si7 1.639568 1_555
O16 Si3 1.653165 1_555
O17 Si4 1.639568 1_555
O17 Si2 1.653165 1_555
O18 Si2 1.578378 1_545
O19 Si3 1.578378 1_565
