# generated using pymatgen
data_Er2(SeO3)3
_symmetry_space_group_name_H-M   'P 1'
_cell_length_a   6.94203229
_cell_length_b   7.96854248
_cell_length_c   8.87581676
_cell_angle_alpha   71.68615933
_cell_angle_beta   70.35648976
_cell_angle_gamma   66.23231363
_symmetry_Int_Tables_number   1
_chemical_formula_structural   Er2(SeO3)3
_chemical_formula_sum   'Er4 Se6 O18'
_cell_volume   413.99880004
_cell_formula_units_Z   2
loop_
 _symmetry_equiv_pos_site_id
 _symmetry_equiv_pos_as_xyz
  1  'x, y, z'
loop_
 _atom_site_type_symbol
 _atom_site_label
 _atom_site_symmetry_multiplicity
 _atom_site_fract_x
 _atom_site_fract_y
 _atom_site_fract_z
 _atom_site_occupancy
  Er  Er0  1  0.33286604  0.72667861  0.59031196  1
  Er  Er1  1  0.66713396  0.27332139  0.40968804  1
  Er  Er2  1  0.74215705  0.73620247  0.79582425  1
  Er  Er3  1  0.25784295  0.26379753  0.20417575  1
  Se  Se0  1  0.42713512  0.77669614  0.19610429  1
  Se  Se1  1  0.57286488  0.22330386  0.80389571  1
  Se  Se2  1  0.14626196  0.75087180  0.96621102  1
  Se  Se3  1  0.85373804  0.24912820  0.03378898  1
  Se  Se4  1  0.88405711  0.75996975  0.40981169  1
  Se  Se5  1  0.11594289  0.24003025  0.59018831  1
  O  O0  1  0.65205135  0.79472501  0.05013446  1
  O  O1  1  0.34794865  0.20527499  0.94986554  1
  O  O2  1  0.35972895  0.94398839  0.30643441  1
  O  O3  1  0.64027105  0.05601161  0.69356559  1
  O  O4  1  0.51799254  0.59375170  0.34975248  1
  O  O5  1  0.48200746  0.40624830  0.65024752  1
  O  O6  1  0.16863604  0.56446939  0.12131575  1
  O  O7  1  0.83136396  0.43553061  0.87868425  1
  O  O8  1  0.40861758  0.71077337  0.85065121  1
  O  O9  1  0.59138242  0.28922663  0.14934879  1
  O  O10  1  0.34723565  0.24869951  0.43880276  1
  O  O11  1  0.65276435  0.75130049  0.56119724  1
  O  O12  1  0.96517006  0.29604721  0.44977211  1
  O  O13  1  0.03482994  0.70395279  0.55022789  1
  O  O14  1  0.15654658  0.01073983  0.65669961  1
  O  O15  1  0.84345342  0.98926017  0.34330039  1
  O  O16  1  0.93263085  0.30862818  0.16807113  1
  O  O17  1  0.06736915  0.69137182  0.83192887  1
loop_
_geom_bond_atom_site_label_1
_geom_bond_atom_site_label_2
_geom_bond_distance
_geom_bond_site_symmetry_2
Er0 O11 2.229459 1_555
Er0 O14 2.255905 1_565
Er0 O5 2.293549 1_555
Er0 O13 2.297268 1_555
Er0 O17 2.335926 1_555
Er0 O4 2.410739 1_555
Er0 O8 2.492238 1_555
Er0 O2 2.566004 1_555
Er1 O10 2.229459 1_555
Er1 O15 2.255905 1_545
Er1 O4 2.293549 1_555
Er1 O12 2.297268 1_555
Er1 O16 2.335926 1_555
Er1 O5 2.410739 1_555
Er1 O9 2.492238 1_555
Er1 O3 2.566004 1_555
Er2 O7 2.160480 1_555
Er2 O17 2.256457 1_655
Er2 O0 2.276147 1_556
Er2 O8 2.279868 1_555
Er2 O3 2.311617 1_565
Er2 O11 2.321133 1_555
Er2 O13 2.428850 1_655
Er3 O6 2.160480 1_555
Er3 O16 2.256457 1_455
Er3 O1 2.276147 1_554
Er3 O9 2.279868 1_555
Er3 O2 2.311617 1_545
Er3 O10 2.321133 1_555
Er3 O12 2.428850 1_455
O0 Se0 1.685490 1_555
O1 Se1 1.685490 1_555
O2 Se0 1.721778 1_555
O3 Se1 1.721778 1_555
O4 Se0 1.723542 1_555
O5 Se1 1.723542 1_555
O6 Se2 1.672835 1_554
O7 Se3 1.672835 1_556
O8 Se2 1.718171 1_555
O9 Se3 1.718171 1_555
O10 Se5 1.723036 1_555
O11 Se4 1.723036 1_555
O12 Se5 1.731728 1_655
O13 Se4 1.731728 1_455
O14 Se5 1.668887 1_555
O15 Se4 1.668887 1_555
O16 Se3 1.717147 1_555
O17 Se2 1.717147 1_555
