# generated using pymatgen
data_Cs2LiScAs2
_symmetry_space_group_name_H-M   'P 1'
_cell_length_a   10.75965777
_cell_length_b   10.75965816
_cell_length_c   6.69502560
_cell_angle_alpha   90.00000000
_cell_angle_beta   90.00000000
_cell_angle_gamma   103.46717165
_symmetry_Int_Tables_number   1
_chemical_formula_structural   Cs2LiScAs2
_chemical_formula_sum   'Cs8 Li4 Sc4 As8'
_cell_volume   753.77261261
_cell_formula_units_Z   4
loop_
 _symmetry_equiv_pos_site_id
 _symmetry_equiv_pos_as_xyz
  1  'x, y, z'
loop_
 _atom_site_type_symbol
 _atom_site_label
 _atom_site_symmetry_multiplicity
 _atom_site_fract_x
 _atom_site_fract_y
 _atom_site_fract_z
 _atom_site_occupancy
  Cs  Cs0  1  0.07018749  0.42981251  0.75000000  1
  Cs  Cs1  1  0.67720194  0.32279806  0.79054761  1
  Cs  Cs2  1  0.32279806  0.67720194  0.20945239  1
  Cs  Cs3  1  0.57018749  0.92981251  0.75000000  1
  Cs  Cs4  1  0.42981251  0.07018749  0.25000000  1
  Cs  Cs5  1  0.92981251  0.57018749  0.25000000  1
  Cs  Cs6  1  0.82279806  0.17720194  0.29054761  1
  Cs  Cs7  1  0.17720194  0.82279806  0.70945239  1
  Li  Li0  1  0.12144580  0.12144580  0.50000000  1
  Li  Li1  1  0.87855420  0.87855420  0.50000000  1
  Li  Li2  1  0.37855420  0.37855420  0.00000000  1
  Li  Li3  1  0.62144580  0.62144580  0.00000000  1
  Sc  Sc0  1  0.86967070  0.86967070  0.00000000  1
  Sc  Sc1  1  0.36967070  0.36967070  0.50000000  1
  Sc  Sc2  1  0.63032930  0.63032930  0.50000000  1
  Sc  Sc3  1  0.13032930  0.13032930  0.00000000  1
  As  As0  1  0.83000058  0.66999942  0.75000000  1
  As  As1  1  0.08143352  0.91856648  0.22282900  1
  As  As2  1  0.41856648  0.58143352  0.72282900  1
  As  As3  1  0.58143352  0.41856648  0.27717100  1
  As  As4  1  0.66999942  0.83000058  0.25000000  1
  As  As5  1  0.16999942  0.33000058  0.25000000  1
  As  As6  1  0.33000058  0.16999942  0.75000000  1
  As  As7  1  0.91856648  0.08143352  0.77717100  1
loop_
_geom_bond_atom_site_label_1
_geom_bond_atom_site_label_2
_geom_bond_distance
_geom_bond_site_symmetry_2
As0 Sc2 2.678083 1_555
As0 Sc0 2.678083 1_556
As0 Li3 2.750235 1_556
As0 Li1 2.750235 1_555
As0 Cs7 3.724496 1_655
As0 Cs1 3.724496 1_555
As0 Cs5 3.748300 1_556
As0 Cs5 3.748300 1_555
As0 Cs0 4.058118 1_655
As1 Sc0 2.671253 1_455
As1 Sc3 2.671253 1_565
As1 Li1 2.820678 1_455
As1 Li0 2.820678 1_565
As1 Cs7 3.637641 1_555
As1 Cs4 3.727870 1_565
As1 Cs5 3.727871 1_455
As1 Cs7 3.798895 1_554
As1 Cs2 4.078998 1_555
As2 Sc2 2.671253 1_555
As2 Sc1 2.671253 1_555
As2 Li3 2.820678 1_556
As2 Li2 2.820678 1_556
As2 Cs2 3.637641 1_556
As2 Cs0 3.727870 1_555
As2 Cs3 3.727871 1_555
As2 Cs2 3.798895 1_555
As2 Cs7 4.078998 1_555
As3 Sc1 2.671253 1_555
As3 Sc2 2.671253 1_555
As3 Li2 2.820678 1_555
As3 Li3 2.820678 1_555
As3 Cs1 3.637641 1_554
As3 Cs5 3.727870 1_555
As3 Cs4 3.727871 1_555
As3 Cs1 3.798895 1_555
As3 Cs6 4.078998 1_555
As4 Sc0 2.678083 1_555
As4 Sc2 2.678083 1_555
As4 Li1 2.750235 1_555
As4 Li3 2.750235 1_555
As4 Cs2 3.724496 1_555
As4 Cs6 3.724496 1_565
As4 Cs3 3.748300 1_555
As4 Cs3 3.748300 1_554
As4 Cs4 4.058118 1_565
As5 Sc1 2.678083 1_555
As5 Sc3 2.678083 1_555
As5 Li2 2.750235 1_555
As5 Li0 2.750235 1_555
As5 Cs6 3.724496 1_455
As5 Cs2 3.724496 1_555
As5 Cs0 3.748300 1_555
As5 Cs0 3.748300 1_554
As5 Cs5 4.058118 1_455
As6 Sc3 2.678083 1_556
As6 Sc1 2.678083 1_555
As6 Li0 2.750235 1_555
As6 Li2 2.750235 1_556
As6 Cs1 3.724496 1_555
As6 Cs7 3.724496 1_545
As6 Cs4 3.748300 1_556
As6 Cs4 3.748300 1_555
As6 Cs3 4.058118 1_545
As7 Sc3 2.671253 1_656
As7 Sc0 2.671253 1_546
As7 Li0 2.820678 1_655
As7 Li1 2.820678 1_545
As7 Cs6 3.637641 1_555
As7 Cs3 3.727870 1_545
As7 Cs0 3.727871 1_655
As7 Cs6 3.798895 1_556
As7 Cs1 4.078998 1_555
