# generated using pymatgen
data_Hf5SiSn3
_symmetry_space_group_name_H-M   'P 1'
_cell_length_a   8.57692920
_cell_length_b   8.57692809
_cell_length_c   5.76716779
_cell_angle_alpha   90.00000000
_cell_angle_beta   90.00000000
_cell_angle_gamma   120.00000427
_symmetry_Int_Tables_number   1
_chemical_formula_structural   Hf5SiSn3
_chemical_formula_sum   'Hf10 Si2 Sn6'
_cell_volume   367.41492477
_cell_formula_units_Z   2
loop_
 _symmetry_equiv_pos_site_id
 _symmetry_equiv_pos_as_xyz
  1  'x, y, z'
loop_
 _atom_site_type_symbol
 _atom_site_label
 _atom_site_symmetry_multiplicity
 _atom_site_fract_x
 _atom_site_fract_y
 _atom_site_fract_z
 _atom_site_occupancy
  Hf  Hf0  1  0.66666700  0.33333300  0.00000000  1
  Hf  Hf1  1  0.33333300  0.66666700  0.00000000  1
  Hf  Hf2  1  0.33333300  0.66666700  0.50000000  1
  Hf  Hf3  1  0.66666700  0.33333300  0.50000000  1
  Hf  Hf4  1  0.74008757  0.74008757  0.75000000  1
  Hf  Hf5  1  0.25991243  0.00000000  0.75000000  1
  Hf  Hf6  1  1.00000000  0.25991243  0.75000000  1
  Hf  Hf7  1  0.25991243  0.25991243  0.25000000  1
  Hf  Hf8  1  0.74008757  0.00000000  0.25000000  1
  Hf  Hf9  1  0.00000000  0.74008757  0.25000000  1
  Si  Si0  1  0.00000000  0.00000000  0.00000000  1
  Si  Si1  1  0.00000000  0.00000000  0.50000000  1
  Sn  Sn0  1  0.39475720  0.39475720  0.75000000  1
  Sn  Sn1  1  0.60524280  0.00000000  0.75000000  1
  Sn  Sn2  1  1.00000000  0.60524280  0.75000000  1
  Sn  Sn3  1  0.60524280  0.60524280  0.25000000  1
  Sn  Sn4  1  0.39475720  0.00000000  0.25000000  1
  Sn  Sn5  1  0.00000000  0.39475720  0.25000000  1
loop_
_geom_bond_atom_site_label_1
_geom_bond_atom_site_label_2
_geom_bond_distance
_geom_bond_site_symmetry_2
Hf0 Sn1 3.003972 1_554
Hf0 Sn5 3.003972 1_655
Hf0 Sn4 3.003974 1_555
Hf0 Sn2 3.003975 1_554
Hf0 Sn3 3.003979 1_555
Hf0 Sn0 3.003980 1_554
Hf1 Sn4 3.003972 1_565
Hf1 Sn2 3.003972 1_454
Hf1 Sn1 3.003974 1_564
Hf1 Sn5 3.003975 1_555
Hf1 Sn0 3.003979 1_554
Hf1 Sn3 3.003980 1_555
Hf2 Sn4 3.003972 1_565
Hf2 Sn2 3.003972 1_455
Hf2 Sn1 3.003974 1_565
Hf2 Sn5 3.003975 1_555
Hf2 Sn0 3.003979 1_555
Hf2 Sn3 3.003980 1_555
Hf3 Sn1 3.003972 1_555
Hf3 Sn5 3.003972 1_655
Hf3 Sn4 3.003974 1_555
Hf3 Sn2 3.003975 1_555
Hf3 Sn3 3.003979 1_555
Hf3 Sn0 3.003980 1_555
Hf4 Si0 2.654867 1_666
Hf4 Si1 2.654867 1_665
Hf4 Sn0 2.961874 1_555
Hf4 Sn1 2.980843 1_565
Hf4 Sn2 2.980843 1_555
Hf4 Sn3 3.106875 1_556
Hf4 Sn3 3.106875 1_555
Hf5 Si0 2.654868 1_556
Hf5 Si1 2.654868 1_555
Hf5 Sn1 2.961874 1_555
Hf5 Sn0 2.980842 1_555
Hf5 Sn2 2.980842 1_445
Hf5 Sn4 3.106875 1_555
Hf5 Sn4 3.106875 1_556
Hf6 Si0 2.654867 1_656
Hf6 Si1 2.654867 1_655
Hf6 Sn2 2.961874 1_555
Hf6 Sn1 2.980843 1_555
Hf6 Sn0 2.980843 1_655
Hf6 Sn5 3.106875 1_655
Hf6 Sn5 3.106875 1_656
Hf7 Si1 2.654867 1_555
Hf7 Si0 2.654867 1_555
Hf7 Sn3 2.961874 1_555
Hf7 Sn4 2.980843 1_555
Hf7 Sn5 2.980843 1_555
Hf7 Sn0 3.106875 1_555
Hf7 Sn0 3.106875 1_554
Hf8 Si0 2.654868 1_655
Hf8 Si1 2.654868 1_655
Hf8 Sn4 2.961874 1_555
Hf8 Sn5 2.980842 1_655
Hf8 Sn3 2.980842 1_545
Hf8 Sn1 3.106875 1_555
Hf8 Sn1 3.106875 1_554
Hf9 Si0 2.654867 1_565
Hf9 Si1 2.654867 1_565
Hf9 Sn5 2.961874 1_555
Hf9 Sn4 2.980843 1_565
Hf9 Sn3 2.980843 1_455
Hf9 Sn2 3.106875 1_454
Hf9 Sn2 3.106875 1_455
