# generated using pymatgen
data_Na5P3O10
_symmetry_space_group_name_H-M   'P 1'
_cell_length_a   8.35578877
_cell_length_b   8.35578877
_cell_length_c   11.12311314
_cell_angle_alpha   87.28032724
_cell_angle_beta   87.28032724
_cell_angle_gamma   36.07755959
_symmetry_Int_Tables_number   1
_chemical_formula_structural   Na5P3O10
_chemical_formula_sum   'Na10 P6 O20'
_cell_volume   456.75839249
_cell_formula_units_Z   2
loop_
 _symmetry_equiv_pos_site_id
 _symmetry_equiv_pos_as_xyz
  1  'x, y, z'
loop_
 _atom_site_type_symbol
 _atom_site_label
 _atom_site_symmetry_multiplicity
 _atom_site_fract_x
 _atom_site_fract_y
 _atom_site_fract_z
 _atom_site_occupancy
  Na  Na0  1  0.30090690  0.77771657  0.03936988  1
  Na  Na1  1  0.77771657  0.30090690  0.53936988  1
  Na  Na2  1  0.69909310  0.22228343  0.96063012  1
  Na  Na3  1  0.10828958  0.57454282  0.20842503  1
  Na  Na4  1  0.42545718  0.89171042  0.29157497  1
  Na  Na5  1  0.89171042  0.42545718  0.79157497  1
  Na  Na6  1  0.00000000  0.50000000  0.50000000  1
  Na  Na7  1  0.50000000  0.00000000  -0.00000000  1
  Na  Na8  1  0.57454282  0.10828958  0.70842503  1
  Na  Na9  1  0.22228343  0.69909310  0.46063012  1
  P  P0  1  0.04828799  0.65680056  0.90132439  1
  P  P1  1  0.34319944  0.95171201  0.59867561  1
  P  P2  1  0.95171201  0.34319944  0.09867561  1
  P  P3  1  0.65680056  0.04828799  0.40132439  1
  P  P4  1  0.30243927  0.69756073  0.75000000  1
  P  P5  1  0.69756073  0.30243927  0.25000000  1
  O  O0  1  0.72706349  0.83242981  0.35100782  1
  O  O1  1  0.96781333  0.79157609  0.02019926  1
  O  O2  1  0.20842391  0.03218667  0.47980074  1
  O  O3  1  0.03218667  0.20842391  0.97980074  1
  O  O4  1  0.79157609  0.96781333  0.52019926  1
  O  O5  1  0.83242981  0.72706349  0.85100782  1
  O  O6  1  0.50815278  0.41340682  0.15226310  1
  O  O7  1  0.58659318  0.49184722  0.34773690  1
  O  O8  1  0.49184722  0.58659318  0.84773690  1
  O  O9  1  0.41340682  0.50815278  0.65226310  1
  O  O10  1  0.83301353  0.03436482  0.30752313  1
  O  O11  1  0.96563518  0.16698647  0.19247687  1
  O  O12  1  0.16698647  0.96563518  0.69247687  1
  O  O13  1  0.03436482  0.83301353  0.80752313  1
  O  O14  1  0.16757019  0.27293651  0.14899218  1
  O  O15  1  0.66389935  0.63699687  0.10670697  1
  O  O16  1  0.63699687  0.66389935  0.60670697  1
  O  O17  1  0.33610065  0.36300313  0.89329303  1
  O  O18  1  0.36300313  0.33610065  0.39329303  1
  O  O19  1  0.27293651  0.16757019  0.64899218  1
loop_
_geom_bond_atom_site_label_1
_geom_bond_atom_site_label_2
_geom_bond_distance
_geom_bond_site_symmetry_2
Na0 O6 2.272607 1_555
Na0 O3 2.299011 1_564
Na0 O15 2.347415 1_555
Na0 O8 2.349706 1_554
Na0 O11 2.582994 1_465
Na0 O1 2.708944 1_455
Na1 O9 2.272607 1_555
Na1 O2 2.299011 1_655
Na1 O16 2.347415 1_555
Na1 O7 2.349706 1_555
Na1 O12 2.582994 1_645
Na1 O4 2.708944 1_545
Na2 O8 2.272607 1_555
Na2 O1 2.299011 1_546
Na2 O17 2.347415 1_555
Na2 O6 2.349706 1_556
Na2 O13 2.582994 1_645
Na2 O3 2.708944 1_655
Na3 O14 2.267767 1_555
Na3 O1 2.341361 1_455
Na3 O18 2.428965 1_555
Na3 O6 2.444692 1_555
Na3 O0 2.460712 1_455
Na3 O10 2.672808 1_465
Na4 O0 2.267767 1_555
Na4 O2 2.341361 1_565
Na4 O15 2.428965 1_555
Na4 O7 2.444692 1_555
Na4 O14 2.460712 1_565
Na4 O11 2.672808 1_465
Na5 O5 2.267767 1_555
Na5 O3 2.341361 1_655
Na5 O16 2.428965 1_555
Na5 O8 2.444692 1_555
Na5 O19 2.460712 1_655
Na5 O12 2.672808 1_645
Na6 O0 2.311975 1_455
Na6 O19 2.311975 1_555
Na6 O16 2.362722 1_455
Na6 O18 2.362722 1_555
Na6 O4 2.721296 1_455
Na6 O2 2.721296 1_555
Na7 O14 2.311975 1_555
Na7 O5 2.311975 1_544
Na7 O17 2.362722 1_554
Na7 O15 2.362722 1_545
Na7 O1 2.721296 1_545
Na7 O3 2.721296 1_554
Na8 O19 2.267767 1_555
Na8 O4 2.341361 1_545
Na8 O17 2.428965 1_555
Na8 O9 2.444692 1_555
Na8 O5 2.460712 1_545
Na8 O13 2.672808 1_645
Na9 O7 2.272607 1_555
Na9 O4 2.299011 1_455
Na9 O18 2.347415 1_555
Na9 O9 2.349706 1_555
Na9 O10 2.582994 1_465
Na9 O2 2.708944 1_565
O0 P3 1.504674 1_565
O1 P0 1.517110 1_654
O2 P1 1.517110 1_545
O3 P2 1.517110 1_456
O4 P3 1.517110 1_565
O5 P0 1.504674 1_655
O6 P5 1.497311 1_555
O7 P5 1.497311 1_555
O8 P4 1.497311 1_555
O9 P4 1.497311 1_555
O10 P5 1.594531 1_555
O10 P3 1.690839 1_555
O11 P5 1.594531 1_555
O11 P2 1.690839 1_555
O12 P4 1.594531 1_555
O12 P1 1.690839 1_555
O13 P4 1.594531 1_555
O13 P0 1.690839 1_555
O14 P2 1.504674 1_455
O15 P2 1.508432 1_555
O16 P1 1.508432 1_555
O17 P0 1.508432 1_555
O18 P3 1.508432 1_555
O19 P1 1.504674 1_545
