# generated using pymatgen
data_Rb3Ba3InP4
_symmetry_space_group_name_H-M   'P 1'
_cell_length_a   10.61814181
_cell_length_b   10.61814184
_cell_length_c   7.84843896
_cell_angle_alpha   90.00000000
_cell_angle_beta   90.00000000
_cell_angle_gamma   119.99999686
_symmetry_Int_Tables_number   1
_chemical_formula_structural   Rb3Ba3InP4
_chemical_formula_sum   'Rb6 Ba6 In2 P8'
_cell_volume   766.32143599
_cell_formula_units_Z   2
loop_
 _symmetry_equiv_pos_site_id
 _symmetry_equiv_pos_as_xyz
  1  'x, y, z'
loop_
 _atom_site_type_symbol
 _atom_site_label
 _atom_site_symmetry_multiplicity
 _atom_site_fract_x
 _atom_site_fract_y
 _atom_site_fract_z
 _atom_site_occupancy
  Rb  Rb0  1  0.13674834  0.86325166  0.17427190  1
  Rb  Rb1  1  0.27349667  0.13674834  0.67427190  1
  Rb  Rb2  1  0.86325166  0.72650333  0.67427190  1
  Rb  Rb3  1  0.72650333  0.86325166  0.17427190  1
  Rb  Rb4  1  0.86325166  0.13674834  0.67427190  1
  Rb  Rb5  1  0.13674834  0.27349667  0.17427190  1
  Ba  Ba0  1  0.94414725  0.47207313  0.00125366  1
  Ba  Ba1  1  0.52792687  0.05585275  0.00125366  1
  Ba  Ba2  1  0.47207313  0.94414725  0.50125366  1
  Ba  Ba3  1  0.05585275  0.52792687  0.50125366  1
  Ba  Ba4  1  0.52792687  0.47207313  0.00125366  1
  Ba  Ba5  1  0.47207313  0.52792687  0.50125366  1
  In  In0  1  0.66666700  0.33333300  0.38002136  1
  In  In1  1  0.33333300  0.66666700  0.88002136  1
  P  P0  1  0.80014670  0.19985330  0.26775779  1
  P  P1  1  0.19985330  0.39970659  0.76775779  1
  P  P2  1  0.80014670  0.60029341  0.26775779  1
  P  P3  1  0.66666700  0.33333300  0.72122559  1
  P  P4  1  0.60029341  0.80014670  0.76775779  1
  P  P5  1  0.33333300  0.66666700  0.22122559  1
  P  P6  1  0.19985330  0.80014670  0.76775779  1
  P  P7  1  0.39970659  0.19985330  0.26775779  1
loop_
_geom_bond_atom_site_label_1
_geom_bond_atom_site_label_2
_geom_bond_distance
_geom_bond_site_symmetry_2
Ba0 P0 3.263141 1_555
Ba0 P2 3.263148 1_555
Ba0 P3 3.367621 1_554
Ba0 P1 3.661552 1_654
Ba0 P6 3.661559 1_654
Ba1 P0 3.263141 1_555
Ba1 P7 3.263148 1_555
Ba1 P3 3.367621 1_554
Ba1 P4 3.661552 1_544
Ba1 P6 3.661559 1_544
Ba2 P6 3.263141 1_555
Ba2 P4 3.263148 1_555
Ba2 P5 3.367621 1_555
Ba2 P7 3.661552 1_565
Ba2 P0 3.661559 1_565
Ba3 P6 3.263141 1_555
Ba3 P1 3.263148 1_555
Ba3 P5 3.367621 1_555
Ba3 P2 3.661552 1_455
Ba3 P0 3.661559 1_455
Ba4 P2 3.263141 1_555
Ba4 P7 3.263141 1_555
Ba4 P3 3.367621 1_554
Ba4 P1 3.661562 1_554
Ba4 P4 3.661562 1_554
Ba5 P1 3.263141 1_555
Ba5 P4 3.263141 1_555
Ba5 P5 3.367621 1_555
Ba5 P2 3.661562 1_555
Ba5 P7 3.661562 1_555
In0 P0 2.608179 1_555
In0 P7 2.608188 1_555
In0 P2 2.608188 1_555
In0 P3 2.677921 1_555
In1 P6 2.608179 1_555
In1 P4 2.608188 1_555
In1 P1 2.608188 1_555
In1 P5 2.677921 1_556
P0 Rb5 3.336030 1_655
P0 Rb3 3.336030 1_545
P0 Rb4 3.395030 1_555
P1 Rb1 3.336030 1_555
P1 Rb4 3.336030 1_455
P1 Rb5 3.395030 1_556
P2 Rb3 3.336030 1_555
P2 Rb0 3.336030 1_655
P2 Rb2 3.395030 1_555
P3 Rb4 3.634153 1_555
P3 Rb1 3.634162 1_555
P3 Rb2 3.634162 1_555
P4 Rb2 3.336030 1_555
P4 Rb4 3.336030 1_565
P4 Rb3 3.395030 1_556
P5 Rb0 3.634153 1_555
P5 Rb3 3.634162 1_555
P5 Rb5 3.634162 1_555
P6 Rb2 3.336030 1_455
P6 Rb1 3.336030 1_565
P6 Rb0 3.395030 1_556
P7 Rb5 3.336030 1_555
P7 Rb0 3.336030 1_545
P7 Rb1 3.395030 1_555
