# generated using pymatgen
data_Y4Mn3GeF28
_symmetry_space_group_name_H-M   'P 1'
_cell_length_a   5.30853609
_cell_length_b   8.61492668
_cell_length_c   11.56227514
_cell_angle_alpha   62.01477670
_cell_angle_beta   90.02791623
_cell_angle_gamma   89.99841225
_symmetry_Int_Tables_number   1
_chemical_formula_structural   Y4Mn3GeF28
_chemical_formula_sum   'Y4 Mn3 Ge1 F28'
_cell_volume   466.94319698
_cell_formula_units_Z   1
loop_
 _symmetry_equiv_pos_site_id
 _symmetry_equiv_pos_as_xyz
  1  'x, y, z'
loop_
 _atom_site_type_symbol
 _atom_site_label
 _atom_site_symmetry_multiplicity
 _atom_site_fract_x
 _atom_site_fract_y
 _atom_site_fract_z
 _atom_site_occupancy
  Y  Y0  1  0.26144605  0.81087892  0.26423879  1
  Y  Y1  1  0.73824737  0.18862288  0.73645009  1
  Y  Y2  1  0.76171969  0.18927319  0.23597054  1
  Y  Y3  1  0.23874282  0.81081178  0.76403496  1
  Mn  Mn0  1  0.24246460  0.27446924  0.95657309  1
  Mn  Mn1  1  0.25760126  0.27425135  0.45682866  1
  Mn  Mn2  1  0.74258561  0.72552892  0.54341956  1
  Ge  Ge0  1  0.75703682  0.72563234  0.04301514  1
  F  F0  1  0.93079503  0.70747998  0.42047075  1
  F  F1  1  0.06862870  0.29228189  0.57944595  1
  F  F2  1  0.43095881  0.29289195  0.07943367  1
  F  F3  1  0.56538531  0.70742629  0.92161263  1
  F  F4  1  0.47890137  0.72748055  0.13150019  1
  F  F5  1  0.52476125  0.27322501  0.86991294  1
  F  F6  1  0.97554854  0.27296218  0.36968490  1
  F  F7  1  0.02502008  0.72706156  0.63009587  1
  F  F8  1  0.94546694  0.73958870  0.16861665  1
  F  F9  1  0.05721509  0.26030716  0.82963929  1
  F  F10  1  0.44340678  0.26035240  0.32983154  1
  F  F11  1  0.55730678  0.73966611  0.67032876  1
  F  F12  1  0.77042948  0.48974763  0.13665290  1
  F  F13  1  0.22926786  0.51151586  0.86231025  1
  F  F14  1  0.26993482  0.51146192  0.36301914  1
  F  F15  1  0.73011220  0.48827412  0.63740902  1
  F  F16  1  0.95365998  0.28142654  0.03841613  1
  F  F17  1  0.04350167  0.71768747  0.96092186  1
  F  F18  1  0.45364219  0.71868201  0.46166255  1
  F  F19  1  0.54620724  0.28112291  0.53871330  1
  F  F20  1  0.74026760  0.96195595  0.45297505  1
  F  F21  1  0.26007921  0.03785810  0.54708083  1
  F  F22  1  0.24041950  0.03809721  0.04716827  1
  F  F23  1  0.76092883  0.96159193  0.95250240  1
  F  F24  1  0.60697872  0.96435635  0.22621013  1
  F  F25  1  0.39194267  0.03615596  0.77402981  1
  F  F26  1  0.10696092  0.03592536  0.27403012  1
  F  F27  1  0.89242920  0.96394728  0.72579627  1
loop_
_geom_bond_atom_site_label_1
_geom_bond_atom_site_label_2
_geom_bond_distance
_geom_bond_site_symmetry_2
F0 Mn2 1.803354 1_555
F0 Y0 2.372887 1_655
F1 Mn1 1.802358 1_555
F1 Y1 2.377106 1_455
F2 Mn0 1.804055 1_554
F2 Y2 2.374078 1_555
F3 Ge0 1.798682 1_556
F3 Y3 2.365046 1_555
F4 Ge0 1.801042 1_555
F4 Y0 2.289277 1_555
F5 Mn0 1.805931 1_555
F5 Y1 2.292164 1_555
F6 Mn1 1.807275 1_655
F6 Y2 2.289753 1_555
F7 Mn2 1.806496 1_455
F7 Y3 2.291946 1_555
F8 Ge0 1.812868 1_555
F8 Y0 2.246930 1_655
F9 Mn0 1.817303 1_555
F9 Y1 2.243254 1_455
F10 Mn1 1.819278 1_555
F10 Y2 2.243537 1_555
F11 Mn2 1.817823 1_555
F11 Y3 2.243733 1_555
F12 Ge0 1.800529 1_555
F12 Y2 2.287323 1_555
F13 Mn0 1.809481 1_555
F13 Y3 2.278674 1_555
F14 Mn1 1.810176 1_555
F14 Y0 2.279292 1_555
F15 Mn2 1.810672 1_555
F15 Y1 2.280976 1_555
F16 Mn0 1.817742 1_654
F16 Y2 2.277368 1_555
F17 Ge0 1.811233 1_456
F17 Y3 2.277825 1_555
F18 Mn2 1.816792 1_555
F18 Y0 2.275646 1_555
F19 Mn1 1.816130 1_555
F19 Y1 2.277996 1_555
F20 Mn2 1.800923 1_555
F20 Y2 2.352101 1_565
F21 Mn1 1.800569 1_555
F21 Y3 2.350903 1_545
F22 Mn0 1.800603 1_554
F22 Y0 2.352104 1_545
F23 Ge0 1.797595 1_556
F23 Y1 2.344045 1_565
F24 Y2 2.155733 1_565
F24 Y0 2.182065 1_555
F25 Y3 2.157322 1_545
F25 Y1 2.181504 1_555
F26 Y0 2.156418 1_545
F26 Y2 2.179742 1_455
F27 Y1 2.157606 1_565
F27 Y3 2.183428 1_655
