# generated using pymatgen
data_Y7CoSn23Os5
_symmetry_space_group_name_H-M   'P 1'
_cell_length_a   9.82828080
_cell_length_b   9.81969055
_cell_length_c   10.00516600
_cell_angle_alpha   90.11178466
_cell_angle_beta   89.99999999
_cell_angle_gamma   120.02895236
_symmetry_Int_Tables_number   1
_chemical_formula_structural   Y7CoSn23Os5
_chemical_formula_sum   'Y7 Co1 Sn23 Os5'
_cell_volume   835.99255384
_cell_formula_units_Z   1
loop_
 _symmetry_equiv_pos_site_id
 _symmetry_equiv_pos_as_xyz
  1  'x, y, z'
loop_
 _atom_site_type_symbol
 _atom_site_label
 _atom_site_symmetry_multiplicity
 _atom_site_fract_x
 _atom_site_fract_y
 _atom_site_fract_z
 _atom_site_occupancy
  Y  Y0  1  0.00649491  0.01298883  0.99367038  1
  Y  Y1  1  0.03338405  0.51587316  0.30293373  1
  Y  Y2  1  0.48219604  0.96439109  0.30242060  1
  Y  Y3  1  0.48248910  0.51587316  0.30293373  1
  Y  Y4  1  0.96696732  0.48399519  0.69874936  1
  Y  Y5  1  0.51589691  0.03179382  0.69893053  1
  Y  Y6  1  0.51702887  0.48399519  0.69874936  1
  Co  Co0  1  0.82968089  0.65936178  0.20076464  1
  Sn  Sn0  1  0.99896827  0.99793754  0.49709767  1
  Sn  Sn1  1  0.10936714  0.87960171  0.27697606  1
  Sn  Sn2  1  0.77023357  0.87960171  0.27697606  1
  Sn  Sn3  1  0.11642084  0.23284367  0.28282693  1
  Sn  Sn4  1  0.88361382  0.11448574  0.71542368  1
  Sn  Sn5  1  0.23087291  0.11448574  0.71542368  1
  Sn  Sn6  1  0.88369159  0.76738119  0.71922888  1
  Sn  Sn7  1  0.34958041  0.00070553  0.99982953  1
  Sn  Sn8  1  0.65695312  0.65396456  0.00547417  1
  Sn  Sn9  1  0.99863448  0.35132382  0.00015065  1
  Sn  Sn10  1  0.35268834  0.35132382  0.00015065  1
  Sn  Sn11  1  0.99701244  0.65396456  0.00547417  1
  Sn  Sn12  1  0.65112512  0.00070553  0.99982953  1
  Sn  Sn13  1  0.77782322  0.55564645  0.45471278  1
  Sn  Sn14  1  0.77572362  0.22260807  0.46007158  1
  Sn  Sn15  1  0.44688445  0.22260807  0.46007158  1
  Sn  Sn16  1  0.22379663  0.44759426  0.54127887  1
  Sn  Sn17  1  0.22284141  0.77610874  0.54028280  1
  Sn  Sn18  1  0.55326633  0.77610874  0.54028280  1
  Sn  Sn19  1  0.66701471  0.33402842  0.17760100  1
  Sn  Sn20  1  0.33322023  0.66644245  0.82739440  1
  Sn  Sn21  1  0.66687820  0.33375540  0.87456098  1
  Sn  Sn22  1  0.33253957  0.66508014  0.12690331  1
  Os  Os0  1  0.16799805  0.82951809  0.79982291  1
  Os  Os1  1  0.66152004  0.82951809  0.79982291  1
  Os  Os2  1  0.16832175  0.33664250  0.80004516  1
  Os  Os3  1  0.83096618  0.16887262  0.20156546  1
  Os  Os4  1  0.33790644  0.16887262  0.20156546  1
loop_
_geom_bond_atom_site_label_1
_geom_bond_atom_site_label_2
_geom_bond_distance
_geom_bond_site_symmetry_2
Co0 Sn8 2.571388 1_555
Co0 Sn11 2.571394 1_555
Co0 Sn1 2.618821 1_655
Co0 Sn2 2.618827 1_555
Co0 Sn13 2.691321 1_555
Co0 Sn19 2.775032 1_555
Co0 Y3 3.141253 1_555
Co0 Y1 3.141253 1_655
Co0 Y0 3.655102 1_664
Sn0 Sn3 2.933185 1_665
Sn0 Sn2 2.937668 1_555
Sn0 Sn1 2.937668 1_655
Sn0 Sn4 2.942043 1_565
Sn0 Sn5 2.942054 1_665
Sn0 Sn6 2.966642 1_555
Sn1 Sn17 3.218952 1_555
Sn1 Y1 3.273559 1_555
Sn1 Sn11 3.321940 1_455
Sn1 Sn2 3.333100 1_455
Sn1 Y2 3.336242 1_555
Sn1 Sn3 3.434942 1_565
Sn1 Sn7 3.446705 1_564
Sn1 Y0 3.480276 1_564
Sn2 Y3 3.273555 1_555
Sn2 Sn8 3.321940 1_555
Sn2 Y2 3.336223 1_555
Sn2 Sn3 3.434936 1_665
Sn2 Y0 3.480285 1_664
Sn3 Y1 3.270900 1_555
Sn3 Y3 3.270912 1_555
Sn3 Y0 3.440790 1_554
Sn3 Sn9 3.471803 1_455
Sn4 Y5 3.287865 1_555
Sn4 Y4 3.300300 1_555
Sn4 Y0 3.378994 1_655
Sn4 Sn6 3.409129 1_545
Sn4 Sn5 3.412960 1_655
Sn4 Sn9 3.484939 1_556
Sn5 Y5 3.287855 1_555
Sn5 Y6 3.300300 1_555
Sn5 Y0 3.378994 1_555
Sn5 Sn6 3.409123 1_445
Sn5 Sn7 3.467506 1_555
Sn6 Y4 3.276121 1_555
Sn6 Y6 3.276127 1_555
Sn6 Y0 3.445833 1_665
Sn6 Sn8 3.454977 1_556
Sn7 Y5 3.366400 1_555
Sn7 Y2 3.385405 1_546
Sn7 Y0 3.434448 1_555
Sn8 Y3 3.365242 1_555
Sn8 Y6 3.431818 1_554
Sn8 Y0 3.482040 1_664
Sn9 Y0 3.362172 1_654
Sn9 Y4 3.362879 1_554
Sn9 Y1 3.366501 1_655
Sn10 Sn8 2.980230 1_555
Sn10 Y0 3.362161 1_554
Sn10 Y6 3.362884 1_554
Sn10 Y3 3.366502 1_555
Sn10 Sn21 3.417078 1_554
Sn10 Sn3 3.471808 1_555
Sn10 Sn5 3.484939 1_554
Sn11 Sn9 2.980221 1_555
Sn11 Y1 3.365239 1_655
Sn11 Y4 3.431818 1_554
Sn11 Sn21 3.450072 1_554
Sn11 Sn6 3.454973 1_554
Sn11 Y0 3.482041 1_664
Sn12 Sn7 2.963666 1_555
Sn12 Y5 3.366400 1_555
Sn12 Y2 3.385401 1_546
Sn12 Y0 3.434458 1_655
Sn12 Sn21 3.435089 1_555
Sn12 Sn2 3.446700 1_546
Sn12 Sn4 3.467511 1_555
Sn13 Y3 3.122001 1_555
Sn13 Y1 3.122001 1_655
Sn13 Sn6 3.197335 1_555
Sn13 Sn15 3.260601 1_555
Sn13 Sn14 3.260602 1_555
Sn13 Sn19 3.348636 1_555
Sn13 Y6 3.350832 1_555
Sn13 Y4 3.350839 1_555
Sn14 Y1 3.145851 1_655
Sn14 Y2 3.146878 1_545
Sn14 Sn4 3.149011 1_555
Sn14 Sn15 3.231924 1_555
Sn14 Y4 3.312259 1_555
Sn14 Y5 3.312354 1_555
Sn14 Sn19 3.392327 1_555
Sn15 Y3 3.145852 1_555
Sn15 Y2 3.146883 1_545
Sn15 Sn5 3.149006 1_555
Sn15 Y6 3.312258 1_555
Sn15 Y5 3.312355 1_555
Sn15 Sn19 3.392331 1_555
Sn16 Y4 3.143631 1_455
Sn16 Y6 3.143648 1_555
Sn16 Sn3 3.162064 1_555
Sn16 Sn18 3.230653 1_555
Sn16 Sn17 3.230654 1_555
Sn16 Y1 3.301603 1_555
Sn16 Y3 3.301610 1_555
Sn16 Sn20 3.410625 1_555
Sn17 Y4 3.140683 1_455
Sn17 Y5 3.140969 1_565
Sn17 Sn18 3.247509 1_555
Sn17 Y1 3.294017 1_555
Sn17 Y2 3.298443 1_555
Sn18 Y6 3.140690 1_555
Sn18 Y5 3.140965 1_565
Sn18 Sn2 3.218951 1_555
Sn18 Y3 3.294019 1_555
Sn18 Y2 3.298433 1_555
Sn19 Sn21 3.031961 1_554
Sn19 Y1 3.358947 1_655
Sn19 Y3 3.358955 1_555
Sn19 Y2 3.384183 1_545
Sn20 Sn22 2.996685 1_556
Sn20 Y5 3.364182 1_565
Sn20 Y4 3.370479 1_455
Sn20 Y6 3.370503 1_555
Sn21 Y4 3.102343 1_555
Sn21 Y6 3.102343 1_555
Sn21 Y5 3.107698 1_555
Sn21 Sn9 3.417060 1_556
Sn21 Sn7 3.435093 1_555
Sn21 Sn8 3.450072 1_556
Sn22 Y2 3.088496 1_555
Sn22 Y1 3.097049 1_555
Sn22 Y3 3.097056 1_555
Os0 Sn7 2.645635 1_565
Os0 Sn6 2.668698 1_455
Os0 Sn11 2.672784 1_456
Os0 Sn5 2.684003 1_565
Os0 Sn17 2.754323 1_555
Os0 Sn20 2.807431 1_555
Os0 Y4 3.116950 1_455
Os0 Y5 3.140994 1_565
Os0 Y0 3.517886 1_565
Os1 Sn12 2.645635 1_565
Os1 Sn6 2.668716 1_555
Os1 Sn8 2.672787 1_556
Os1 Sn4 2.684005 1_565
Os1 Sn18 2.754326 1_555
Os1 Sn20 2.807448 1_555
Os1 Y6 3.116951 1_555
Os1 Y5 3.140994 1_565
Os1 Y0 3.517893 1_665
Os2 Sn10 2.655170 1_556
Os2 Sn9 2.655183 1_456
Os2 Sn4 2.681202 1_455
Os2 Sn5 2.681202 1_555
Os2 Sn16 2.757478 1_555
Os2 Sn20 2.816541 1_555
Os2 Y6 3.147833 1_555
Os2 Y4 3.147834 1_455
Os2 Y0 3.368704 1_555
Os3 Sn12 2.643991 1_554
Os3 Sn9 2.654342 1_555
Os3 Sn3 2.675952 1_655
Os3 Sn2 2.702895 1_545
Os3 Sn14 2.746648 1_555
Os3 Sn19 2.810910 1_555
Os3 Y1 3.130303 1_655
Os3 Y2 3.149442 1_545
Os3 Y0 3.503768 1_654
Os4 Sn7 2.643991 1_554
Os4 Sn10 2.654345 1_555
Os4 Sn3 2.675971 1_555
Os4 Sn1 2.702898 1_545
Os4 Sn15 2.746648 1_555
Os4 Sn19 2.810918 1_555
Os4 Y3 3.130303 1_555
Os4 Y2 3.149450 1_545
Os4 Y0 3.503760 1_554
