# generated using pymatgen
data_CsMgInSb2
_symmetry_space_group_name_H-M   'P 1'
_cell_length_a   8.80962496
_cell_length_b   8.80962414
_cell_length_c   8.80962486
_cell_angle_alpha   149.30358206
_cell_angle_beta   149.30357825
_cell_angle_gamma   43.96463745
_symmetry_Int_Tables_number   1
_chemical_formula_structural   CsMgInSb2
_chemical_formula_sum   'Cs1 Mg1 In1 Sb2'
_cell_volume   177.66807419
_cell_formula_units_Z   1
loop_
 _symmetry_equiv_pos_site_id
 _symmetry_equiv_pos_as_xyz
  1  'x, y, z'
loop_
 _atom_site_type_symbol
 _atom_site_label
 _atom_site_symmetry_multiplicity
 _atom_site_fract_x
 _atom_site_fract_y
 _atom_site_fract_z
 _atom_site_occupancy
  Cs  Cs0  1  0.00000000  0.00000000  0.00000000  1
  Mg  Mg0  1  0.75000000  0.25000000  0.50000000  1
  In  In0  1  0.25000000  0.75000000  0.50000000  1
  Sb  Sb0  1  0.35770195  0.35770195  0.00000000  1
  Sb  Sb1  1  0.64229805  0.64229805  0.00000000  1
loop_
_geom_bond_atom_site_label_1
_geom_bond_atom_site_label_2
_geom_bond_distance
_geom_bond_site_symmetry_2
Cs0 Sb1 4.034789 1_455
Cs0 Sb0 4.034789 1_545
Cs0 Sb1 4.034790 1_545
Cs0 Sb0 4.034790 1_455
Cs0 Sb1 4.034790 1_556
Cs0 Sb0 4.034790 1_444
Cs0 Sb1 4.034790 1_444
Cs0 Sb0 4.034790 1_556
Mg0 Sb1 2.921231 1_545
Mg0 Sb1 2.921231 1_556
Mg0 Sb0 2.921231 1_555
Mg0 Sb0 2.921232 1_656
In0 Sb0 2.921231 1_566
In0 Sb0 2.921231 1_555
In0 Sb1 2.921231 1_556
In0 Sb1 2.921232 1_455
In0 Mg0 3.297623 1_465
In0 Mg0 3.297623 1_555
In0 Mg0 3.297623 1_454
In0 Mg0 3.297623 1_566
