# generated using pymatgen
data_Ba2AuIO2
_symmetry_space_group_name_H-M   'P 1'
_cell_length_a   10.75882665
_cell_length_b   10.75882657
_cell_length_c   10.75882715
_cell_angle_alpha   23.65639887
_cell_angle_beta   23.65639842
_cell_angle_gamma   23.65639800
_symmetry_Int_Tables_number   1
_chemical_formula_structural   Ba2AuIO2
_chemical_formula_sum   'Ba2 Au1 I1 O2'
_cell_volume   176.10842255
_cell_formula_units_Z   1
loop_
 _symmetry_equiv_pos_site_id
 _symmetry_equiv_pos_as_xyz
  1  'x, y, z'
loop_
 _atom_site_type_symbol
 _atom_site_label
 _atom_site_symmetry_multiplicity
 _atom_site_fract_x
 _atom_site_fract_y
 _atom_site_fract_z
 _atom_site_occupancy
  Ba  Ba0  1  0.24902360  0.24902360  0.24902360  1
  Ba  Ba1  1  0.75097640  0.75097640  0.75097640  1
  Au  Au0  1  0.50000000  0.50000000  0.50000000  1
  I  I0  1  0.00000000  0.00000000  0.00000000  1
  O  O0  1  0.43604103  0.43604103  0.43604103  1
  O  O1  1  0.56395897  0.56395897  0.56395897  1
loop_
_geom_bond_atom_site_label_1
_geom_bond_atom_site_label_2
_geom_bond_distance
_geom_bond_site_symmetry_2
Ba0 O1 2.611025 1_455
Ba0 O1 2.611026 1_545
Ba0 O1 2.611026 1_554
Ba0 I0 3.670803 1_565
Ba0 I0 3.670803 1_655
Ba0 I0 3.670803 1_556
Ba1 O0 2.611025 1_655
Ba1 O0 2.611026 1_565
Ba1 O0 2.611026 1_556
Ba1 I0 3.670803 1_656
Ba1 I0 3.670803 1_566
Ba1 I0 3.670803 1_665
Au0 O1 2.005713 1_555
Au0 O0 2.005713 1_555
