# generated using pymatgen
data_Sc6Al13V3Os7
_symmetry_space_group_name_H-M   'P 1'
_cell_length_a   8.73372628
_cell_length_b   8.73372716
_cell_length_c   8.73372780
_cell_angle_alpha   59.72597887
_cell_angle_beta   59.72597506
_cell_angle_gamma   59.72597725
_symmetry_Int_Tables_number   1
_chemical_formula_structural   Sc6Al13V3Os7
_chemical_formula_sum   'Sc6 Al13 V3 Os7'
_cell_volume   468.13662057
_cell_formula_units_Z   1
loop_
 _symmetry_equiv_pos_site_id
 _symmetry_equiv_pos_as_xyz
  1  'x, y, z'
loop_
 _atom_site_type_symbol
 _atom_site_label
 _atom_site_symmetry_multiplicity
 _atom_site_fract_x
 _atom_site_fract_y
 _atom_site_fract_z
 _atom_site_occupancy
  Sc  Sc0  1  0.71528559  0.71528559  0.28017516  1
  Sc  Sc1  1  0.28444409  0.71766009  0.28444409  1
  Sc  Sc2  1  0.71766009  0.28444409  0.28444409  1
  Sc  Sc3  1  0.28444409  0.28444409  0.71766009  1
  Sc  Sc4  1  0.71528559  0.28017516  0.71528559  1
  Sc  Sc5  1  0.28017516  0.71528559  0.71528559  1
  Al  Al0  1  0.88093631  0.88093631  0.88093631  1
  Al  Al1  1  0.12109726  0.12109726  0.63924585  1
  Al  Al2  1  0.12109726  0.63924585  0.12109726  1
  Al  Al3  1  0.63924585  0.12109726  0.12109726  1
  Al  Al4  1  0.12178903  0.12178903  0.12178903  1
  Al  Al5  1  0.66582001  0.66582001  0.00322559  1
  Al  Al6  1  0.66582001  0.00322559  0.66582001  1
  Al  Al7  1  0.00322559  0.66582001  0.66582001  1
  Al  Al8  1  0.66312609  0.66312609  0.66312609  1
  Al  Al9  1  0.33605776  0.33605776  0.99481742  1
  Al  Al10  1  0.33605776  0.99481742  0.33605776  1
  Al  Al11  1  0.99481742  0.33605776  0.33605776  1
  Al  Al12  1  0.33662579  0.33662579  0.33662579  1
  V  V0  1  0.87729669  0.87729669  0.36203311  1
  V  V1  1  0.87729669  0.36203311  0.87729669  1
  V  V2  1  0.36203311  0.87729669  0.87729669  1
  Os  Os0  1  0.00415347  0.00415347  0.00415347  1
  Os  Os1  1  0.99816738  0.99816738  0.49709331  1
  Os  Os2  1  0.50337994  0.99602331  0.50337994  1
  Os  Os3  1  0.99602331  0.50337994  0.50337994  1
  Os  Os4  1  0.50337994  0.50337994  0.99602331  1
  Os  Os5  1  0.99816738  0.49709331  0.99816738  1
  Os  Os6  1  0.49709331  0.99816738  0.99816738  1
loop_
_geom_bond_atom_site_label_1
_geom_bond_atom_site_label_2
_geom_bond_distance
_geom_bond_site_symmetry_2
Sc0 V0 2.928129 1_555
Sc1 V0 2.927774 1_455
Sc1 V2 2.927775 1_554
Sc2 V0 2.927775 1_545
Sc2 V1 2.927775 1_554
Sc3 V1 2.927774 1_455
Sc3 V2 2.927775 1_545
Sc4 V1 2.928129 1_555
Sc5 V2 2.928129 1_555
Al0 Os0 2.641452 1_666
Al0 Os6 2.733215 1_555
Al0 Os5 2.733215 1_555
Al0 Os1 2.733216 1_555
Al0 Al5 2.777194 1_556
Al0 Al6 2.777194 1_565
Al0 Al7 2.777195 1_655
Al0 Sc5 2.877847 1_655
Al0 Sc4 2.877847 1_565
Al0 Sc0 2.877847 1_556
Al0 Al1 2.960124 1_665
Al0 Al3 2.960124 1_566
Al0 Al2 2.960124 1_656
Al1 Os0 2.594445 1_556
Al1 Os2 2.717283 1_545
Al1 Os3 2.717284 1_455
Al1 Al10 2.756298 1_545
Al1 Al11 2.756298 1_455
Al1 Al12 2.759018 1_555
Al1 Os1 2.774334 1_445
Al1 Sc4 2.919789 1_455
Al1 Sc5 2.919789 1_545
Al1 Sc3 2.926065 1_555
Al1 V1 2.951989 1_455
Al1 V2 2.951990 1_545
Al2 Os0 2.594444 1_565
Al2 Os4 2.717283 1_554
Al2 Os3 2.717284 1_455
Al2 Al9 2.756298 1_554
Al2 Os5 2.774334 1_454
Al2 Sc0 2.919789 1_455
Al2 Sc5 2.919789 1_554
Al2 Sc1 2.926065 1_555
Al2 V2 2.951989 1_554
Al2 V0 2.951989 1_455
Al3 Os0 2.594444 1_655
Al3 Os4 2.717284 1_554
Al3 Os2 2.717284 1_545
Al3 Al9 2.756298 1_554
Al3 Os6 2.774334 1_544
Al3 Sc0 2.919789 1_545
Al3 Sc4 2.919790 1_554
Al3 Sc2 2.926065 1_555
Al3 V1 2.951989 1_554
Al3 V0 2.951990 1_545
Al4 Os0 2.521797 1_555
Al4 Os6 2.667258 1_544
Al4 Os5 2.667258 1_454
Al4 Os1 2.667258 1_445
Al4 Al9 2.753170 1_554
Al4 Sc2 2.901310 1_455
Al4 Sc1 2.901311 1_545
Al4 Sc3 2.901311 1_554
Al4 V0 3.014006 1_445
Al4 V2 3.014006 1_544
Al4 V1 3.014006 1_454
Al5 Os5 2.494467 1_554
Al5 Os6 2.494467 1_554
Al5 Os4 2.497750 1_554
Al5 V2 2.759254 1_554
Al5 V1 2.759255 1_554
Al5 Sc0 2.918783 1_555
Al5 Al7 2.934595 1_654
Al5 Al6 2.934595 1_564
Al5 Sc1 2.946860 1_555
Al5 Sc2 2.946860 1_555
Al5 Al8 2.994243 1_554
Al6 Os1 2.494467 1_545
Al6 Os6 2.494467 1_545
Al6 Os2 2.497750 1_545
Al6 V2 2.759254 1_545
Al6 V0 2.759255 1_545
Al6 Sc4 2.918783 1_555
Al6 Al7 2.934594 1_645
Al6 Sc3 2.946860 1_555
Al6 Sc2 2.946861 1_555
Al6 Al8 2.994243 1_545
Al7 Os1 2.494467 1_455
Al7 Os5 2.494467 1_455
Al7 Os3 2.497750 1_455
Al7 V1 2.759254 1_455
Al7 V0 2.759255 1_455
Al7 Sc5 2.918783 1_555
Al7 Sc3 2.946860 1_555
Al7 Sc1 2.946860 1_555
Al7 Al8 2.994243 1_455
Al8 Os3 2.475672 1_555
Al8 Os2 2.475673 1_555
Al8 Os4 2.475673 1_555
Al8 V2 2.742532 1_555
Al8 V0 2.742532 1_555
Al8 V1 2.742532 1_555
Al8 Sc5 2.956031 1_555
Al8 Sc4 2.956031 1_555
Al8 Sc0 2.956031 1_555
Al9 Os4 2.540750 1_555
Al9 Os5 2.541105 1_455
Al9 Os6 2.541106 1_545
Al9 Sc4 2.930346 1_555
Al9 Sc5 2.930346 1_555
Al9 Sc3 2.944666 1_555
Al10 Os2 2.540750 1_555
Al10 Os1 2.541105 1_455
Al10 Os6 2.541106 1_554
Al10 Al4 2.753170 1_565
Al10 Al3 2.756298 1_565
Al10 Sc0 2.930346 1_555
Al10 Sc5 2.930346 1_555
Al10 Sc1 2.944666 1_555
Al10 Al11 2.967947 1_465
Al10 Al9 2.967948 1_564
Al10 Al12 2.990271 1_565
Al11 Os3 2.540750 1_555
Al11 Os1 2.541106 1_545
Al11 Os5 2.541106 1_554
Al11 Al4 2.753170 1_655
Al11 Al2 2.756298 1_655
Al11 Sc0 2.930346 1_555
Al11 Sc4 2.930346 1_555
Al11 Sc2 2.944665 1_555
Al11 Al9 2.967947 1_654
Al11 Al12 2.990271 1_655
Al12 Os3 2.548206 1_455
Al12 Os2 2.548206 1_545
Al12 Os4 2.548206 1_554
Al12 Al3 2.759018 1_555
Al12 Al2 2.759018 1_555
Al12 Sc2 2.939563 1_555
Al12 Sc1 2.939564 1_555
Al12 Sc3 2.939564 1_555
Al12 Al9 2.990272 1_554
Os0 V2 2.545381 1_544
Os0 V1 2.545381 1_454
Os0 V0 2.545381 1_445
Os1 V0 2.693488 1_555
Os1 Sc1 3.071174 1_655
Os1 Sc2 3.071174 1_565
Os1 Sc4 3.106695 1_565
Os1 Sc5 3.106695 1_655
Os2 V0 2.659973 1_555
Os2 V2 2.659974 1_555
Os2 Sc2 3.129306 1_565
Os2 Sc3 3.129306 1_565
Os3 V0 2.659974 1_555
Os3 V1 2.659974 1_555
Os3 Sc1 3.129306 1_655
Os3 Sc3 3.129306 1_655
Os4 V1 2.659973 1_555
Os4 V2 2.659974 1_555
Os4 Sc1 3.129306 1_556
Os4 Sc2 3.129306 1_556
Os5 V1 2.693488 1_555
Os5 Sc2 3.071174 1_556
Os5 Sc3 3.071174 1_655
Os5 Sc5 3.106695 1_655
Os5 Sc0 3.106695 1_556
Os6 V2 2.693488 1_555
Os6 Sc1 3.071174 1_556
Os6 Sc3 3.071174 1_565
Os6 Sc4 3.106695 1_565
Os6 Sc0 3.106695 1_556
