# generated using pymatgen
data_BaSr2(SnIr)4
_symmetry_space_group_name_H-M   'P 1'
_cell_length_a   7.07647948
_cell_length_b   7.07647912
_cell_length_c   7.07647885
_cell_angle_alpha   110.74257110
_cell_angle_beta   110.74257039
_cell_angle_gamma   106.95738008
_symmetry_Int_Tables_number   1
_chemical_formula_structural   BaSr2(SnIr)4
_chemical_formula_sum   'Ba1 Sr2 Sn4 Ir4'
_cell_volume   272.39921761
_cell_formula_units_Z   1
loop_
 _symmetry_equiv_pos_site_id
 _symmetry_equiv_pos_as_xyz
  1  'x, y, z'
loop_
 _atom_site_type_symbol
 _atom_site_label
 _atom_site_symmetry_multiplicity
 _atom_site_fract_x
 _atom_site_fract_y
 _atom_site_fract_z
 _atom_site_occupancy
  Ba  Ba0  1  0.50000000  0.50000000  0.00000000  1
  Sr  Sr0  1  0.00000000  0.50000000  0.50000000  1
  Sr  Sr1  1  0.50000000  0.00000000  0.50000000  1
  Sn  Sn0  1  0.38358528  0.99579611  0.00000000  1
  Sn  Sn1  1  0.00420389  0.00420389  0.38778917  1
  Sn  Sn2  1  0.99579611  0.38358528  0.00000000  1
  Sn  Sn3  1  0.61641372  0.61641372  0.61221083  1
  Ir  Ir0  1  0.00877760  0.75366547  1.00000000  1
  Ir  Ir1  1  0.99122240  0.99122240  0.74488788  1
  Ir  Ir2  1  0.24633453  0.24633453  0.25511212  1
  Ir  Ir3  1  0.75366547  0.00877760  1.00000000  1
loop_
_geom_bond_atom_site_label_1
_geom_bond_atom_site_label_2
_geom_bond_distance
_geom_bond_site_symmetry_2
Ba0 Sn3 3.419734 1_554
Ba0 Sn0 3.419740 1_545
Ba0 Sn2 3.419741 1_455
Ba0 Sn1 3.419741 1_665
Ba0 Ir2 3.523474 1_555
Ba0 Ir3 3.523475 1_564
Ba0 Ir0 3.523475 1_654
Ba0 Ir1 3.523475 1_444
Ba0 Sn0 3.830685 1_555
Ba0 Sn2 3.830685 1_555
Ba0 Sn1 3.830685 1_554
Ba0 Sn3 3.830688 1_555
Ba0 Sr1 4.021253 1_554
Ba0 Sr1 4.021253 1_565
Ba0 Sr0 4.021253 1_554
Ba0 Sr0 4.021253 1_655
Sr0 Sr1 4.211367 1_565
Sr0 Sr1 4.211367 1_455
Sn0 Sr1 3.323423 1_565
Sn0 Sr0 3.323424 1_554
Sn0 Sr1 3.914541 1_564
Sn0 Sr0 3.914542 1_665
Sn1 Sr0 3.323423 1_555
Sn1 Sr1 3.323423 1_555
Sn1 Sr0 3.914541 1_545
Sn1 Sr1 3.914541 1_455
Sn2 Sr0 3.323423 1_655
Sn2 Sr1 3.323424 1_554
Sn2 Sr0 3.914541 1_654
Sn2 Sr1 3.914541 1_665
Sn3 Sr1 3.323427 1_565
Sn3 Sr0 3.323427 1_655
Sn3 Sr1 3.914535 1_555
Sn3 Sr0 3.914535 1_555
Ir0 Sn2 2.593561 1_456
Ir0 Sn0 2.705495 1_556
Ir0 Sn1 2.706474 1_566
Ir0 Sn3 2.706477 1_455
Ir0 Ir1 2.865860 1_455
Ir0 Ir2 2.865861 1_566
Ir0 Ir3 2.901600 1_465
Ir0 Sr0 3.320483 1_555
Ir0 Sr1 3.320483 1_566
Ir1 Sn1 2.593561 1_665
Ir1 Sn3 2.705504 1_555
Ir1 Sn2 2.706474 1_566
Ir1 Sn0 2.706475 1_656
Ir1 Ir3 2.865860 1_565
Ir1 Ir2 2.901600 1_666
Ir1 Sr0 3.320483 1_655
Ir1 Sr1 3.320483 1_565
Ir2 Sn3 2.593556 1_555
Ir2 Sn1 2.705495 1_555
Ir2 Sn0 2.706474 1_545
Ir2 Sn2 2.706474 1_455
Ir2 Ir3 2.865861 1_454
Ir2 Sr1 3.320483 1_555
Ir2 Sr0 3.320483 1_555
Ir3 Sn0 2.593561 1_546
Ir3 Sn2 2.705495 1_556
Ir3 Sn1 2.706474 1_656
Ir3 Sn3 2.706476 1_545
Ir3 Sr1 3.320483 1_555
Ir3 Sr0 3.320483 1_656
