# generated using pymatgen
data_LiRuCl6
_symmetry_space_group_name_H-M   'P 1'
_cell_length_a   9.18974183
_cell_length_b   9.18974116
_cell_length_c   9.18974191
_cell_angle_alpha   84.50587696
_cell_angle_beta   84.50587842
_cell_angle_gamma   84.50587614
_symmetry_Int_Tables_number   1
_chemical_formula_structural   LiRuCl6
_chemical_formula_sum   'Li4 Ru4 Cl24'
_cell_volume   766.03070950
_cell_formula_units_Z   4
loop_
 _symmetry_equiv_pos_site_id
 _symmetry_equiv_pos_as_xyz
  1  'x, y, z'
loop_
 _atom_site_type_symbol
 _atom_site_label
 _atom_site_symmetry_multiplicity
 _atom_site_fract_x
 _atom_site_fract_y
 _atom_site_fract_z
 _atom_site_occupancy
  Li  Li0  1  0.33558066  0.33558066  0.33558066  1
  Li  Li1  1  0.16528623  0.66862600  0.16841046  1
  Li  Li2  1  0.16841046  0.16528623  0.66862600  1
  Li  Li3  1  0.66862600  0.16841046  0.16528623  1
  Ru  Ru0  1  0.50482320  0.99077602  0.50377103  1
  Ru  Ru1  1  0.99910480  0.99910480  0.99910480  1
  Ru  Ru2  1  0.50377103  0.50482320  0.99077602  1
  Ru  Ru3  1  0.99077602  0.50377103  0.50482320  1
  Cl  Cl0  1  0.92682767  0.26842582  0.57212193  1
  Cl  Cl1  1  0.42369931  0.77051766  0.57130732  1
  Cl  Cl2  1  0.07918781  0.22666098  0.92266540  1
  Cl  Cl3  1  0.57130732  0.42369931  0.77051766  1
  Cl  Cl4  1  0.92266540  0.07918781  0.22666098  1
  Cl  Cl5  1  0.42564121  0.07791835  0.72830348  1
  Cl  Cl6  1  0.57212193  0.92682767  0.26842582  1
  Cl  Cl7  1  0.07847475  0.42618527  0.26876142  1
  Cl  Cl8  1  0.23042198  0.42149293  0.57771387  1
  Cl  Cl9  1  0.22666098  0.92266540  0.07918781  1
  Cl  Cl10  1  0.57771387  0.23042198  0.42149293  1
  Cl  Cl11  1  0.92741841  0.76686023  0.07100218  1
  Cl  Cl12  1  0.77051766  0.57130732  0.42369931  1
  Cl  Cl13  1  0.72920428  0.92636727  0.57640407  1
  Cl  Cl14  1  0.42618527  0.26876142  0.07847475  1
  Cl  Cl15  1  0.26876142  0.07847475  0.42618527  1
  Cl  Cl16  1  0.42149293  0.57771387  0.23042198  1
  Cl  Cl17  1  0.76686023  0.07100218  0.92741841  1
  Cl  Cl18  1  0.07791835  0.72830348  0.42564121  1
  Cl  Cl19  1  0.57640407  0.72920428  0.92636727  1
  Cl  Cl20  1  0.92636627  0.57640407  0.72920428  1
  Cl  Cl21  1  0.72830348  0.42564121  0.07791835  1
  Cl  Cl22  1  0.26842582  0.57212193  0.92682767  1
  Cl  Cl23  1  0.07100218  0.92741841  0.76686023  1
loop_
_geom_bond_atom_site_label_1
_geom_bond_atom_site_label_2
_geom_bond_distance
_geom_bond_site_symmetry_2
Cl0 Ru3 2.307170 1_555
Cl0 Li2 2.535106 1_655
Cl1 Ru0 2.235582 1_555
Cl2 Ru1 2.307058 1_445
Cl2 Li2 2.497519 1_555
Cl3 Ru2 2.235582 1_555
Cl4 Ru1 2.307058 1_544
Cl4 Li3 2.497519 1_555
Cl5 Ru0 2.312081 1_545
Cl5 Li2 2.516712 1_555
Cl6 Ru0 2.307171 1_555
Cl6 Li3 2.535106 1_565
Cl7 Ru3 2.390671 1_455
Cl7 Li1 2.501355 1_555
Cl7 Li0 2.540879 1_555
Cl8 Ru3 2.395223 1_455
Cl8 Li0 2.507392 1_555
Cl8 Li2 2.520988 1_555
Cl9 Ru1 2.307058 1_454
Cl9 Li1 2.497519 1_555
Cl10 Ru0 2.395223 1_545
Cl10 Li0 2.507392 1_555
Cl10 Li3 2.520988 1_555
Cl11 Ru1 2.311168 1_554
Cl11 Li1 2.497337 1_655
Cl12 Ru3 2.235582 1_555
Cl13 Ru0 2.236498 1_555
Cl14 Ru2 2.390671 1_554
Cl14 Li3 2.501355 1_555
Cl14 Li0 2.540879 1_555
Cl15 Ru0 2.390671 1_545
Cl15 Li2 2.501355 1_555
Cl15 Li0 2.540879 1_555
Cl16 Ru2 2.395224 1_554
Cl16 Li0 2.507392 1_555
Cl16 Li1 2.520988 1_555
Cl17 Ru1 2.311168 1_545
Cl17 Li3 2.497337 1_556
Cl18 Ru3 2.312081 1_455
Cl18 Li1 2.516712 1_555
Cl19 Ru2 2.236498 1_555
Cl20 Ru3 2.236500 1_555
Cl21 Ru2 2.312081 1_554
Cl21 Li3 2.516712 1_555
Cl22 Ru2 2.307171 1_555
Cl22 Li1 2.535106 1_556
Cl23 Ru1 2.311168 1_455
Cl23 Li2 2.497337 1_565
