# generated using pymatgen
data_Tc(SeBr6)2
_symmetry_space_group_name_H-M   'P 1'
_cell_length_a   9.14275178
_cell_length_b   9.14275168
_cell_length_c   6.71517036
_cell_angle_alpha   72.42000206
_cell_angle_beta   72.42000257
_cell_angle_gamma   77.20812283
_symmetry_Int_Tables_number   1
_chemical_formula_structural   Tc(SeBr6)2
_chemical_formula_sum   'Tc1 Se2 Br12'
_cell_volume   504.85202731
_cell_formula_units_Z   1
loop_
 _symmetry_equiv_pos_site_id
 _symmetry_equiv_pos_as_xyz
  1  'x, y, z'
loop_
 _atom_site_type_symbol
 _atom_site_label
 _atom_site_symmetry_multiplicity
 _atom_site_fract_x
 _atom_site_fract_y
 _atom_site_fract_z
 _atom_site_occupancy
  Tc  Tc0  1  0.00000000  0.00000000  0.00000000  1
  Se  Se0  1  0.27630438  0.27630438  0.73315912  1
  Se  Se1  1  0.72369562  0.72369562  0.26684088  1
  Br  Br0  1  0.95025263  0.26024675  0.74447772  1
  Br  Br1  1  0.26024675  0.95025263  0.74447772  1
  Br  Br2  1  0.04974737  0.73975325  0.25552228  1
  Br  Br3  1  0.73975325  0.04974737  0.25552228  1
  Br  Br4  1  0.21142853  0.52506912  0.79997460  1
  Br  Br5  1  0.52506912  0.21142853  0.79997460  1
  Br  Br6  1  0.78857147  0.47493088  0.20002540  1
  Br  Br7  1  0.47493088  0.78857147  0.20002540  1
  Br  Br8  1  0.12496023  0.12496023  0.18077408  1
  Br  Br9  1  0.87503977  0.87503977  0.81922592  1
  Br  Br10  1  0.64923601  0.64923601  0.64972342  1
  Br  Br11  1  0.35076399  0.35076399  0.35027658  1
loop_
_geom_bond_atom_site_label_1
_geom_bond_atom_site_label_2
_geom_bond_distance
_geom_bond_site_symmetry_2
Br0 Tc0 2.517630 1_656
Br0 Se0 2.993984 1_655
Br1 Tc0 2.517630 1_566
Br1 Se0 2.993984 1_565
Br2 Tc0 2.517630 1_565
Br2 Se1 2.993984 1_455
Br3 Tc0 2.517630 1_655
Br3 Se1 2.993984 1_545
Br4 Se0 2.363111 1_555
Br5 Se0 2.363111 1_555
Br6 Se1 2.363111 1_555
Br7 Se1 2.363111 1_555
Br8 Tc0 2.517481 1_555
Br8 Se0 2.947394 1_554
Br9 Tc0 2.517481 1_666
Br9 Se1 2.947394 1_556
Br10 Se1 2.372364 1_555
Br11 Se0 2.372364 1_555
