# generated using pymatgen
data_Rb3NaHgCl6
_symmetry_space_group_name_H-M   'P 1'
_cell_length_a   8.70164720
_cell_length_b   8.70164713
_cell_length_c   8.70164724
_cell_angle_alpha   92.76237633
_cell_angle_beta   92.76237940
_cell_angle_gamma   92.76236263
_symmetry_Int_Tables_number   1
_chemical_formula_structural   Rb3NaHgCl6
_chemical_formula_sum   'Rb6 Na2 Hg2 Cl12'
_cell_volume   656.50356460
_cell_formula_units_Z   2
loop_
 _symmetry_equiv_pos_site_id
 _symmetry_equiv_pos_as_xyz
  1  'x, y, z'
loop_
 _atom_site_type_symbol
 _atom_site_label
 _atom_site_symmetry_multiplicity
 _atom_site_fract_x
 _atom_site_fract_y
 _atom_site_fract_z
 _atom_site_occupancy
  Rb  Rb0  1  0.36865650  0.13134350  0.75000000  1
  Rb  Rb1  1  0.13134350  0.75000000  0.36865650  1
  Rb  Rb2  1  0.75000000  0.36865650  0.13134350  1
  Rb  Rb3  1  0.63134350  0.86865650  0.25000000  1
  Rb  Rb4  1  0.25000000  0.63134350  0.86865650  1
  Rb  Rb5  1  0.86865650  0.25000000  0.63134350  1
  Na  Na0  1  0.25000000  0.25000000  0.25000000  1
  Na  Na1  1  0.75000000  0.75000000  0.75000000  1
  Hg  Hg0  1  0.00000000  0.00000000  0.00000000  1
  Hg  Hg1  1  0.50000000  0.50000000  0.50000000  1
  Cl  Cl0  1  0.96135014  0.08768337  0.29684383  1
  Cl  Cl1  1  0.08768337  0.29684383  0.96135014  1
  Cl  Cl2  1  0.29684383  0.96135014  0.08768337  1
  Cl  Cl3  1  0.58768337  0.46135014  0.79684383  1
  Cl  Cl4  1  0.79684383  0.58768337  0.46135014  1
  Cl  Cl5  1  0.46135014  0.79684383  0.58768337  1
  Cl  Cl6  1  0.20315617  0.41231663  0.53864986  1
  Cl  Cl7  1  0.41231663  0.53864986  0.20315617  1
  Cl  Cl8  1  0.53864986  0.20315617  0.41231663  1
  Cl  Cl9  1  0.91231663  0.70315617  0.03864986  1
  Cl  Cl10  1  0.03864986  0.91231663  0.70315617  1
  Cl  Cl11  1  0.70315617  0.03864986  0.91231663  1
loop_
_geom_bond_atom_site_label_1
_geom_bond_atom_site_label_2
_geom_bond_distance
_geom_bond_site_symmetry_2
Cl0 Hg0 2.699224 1_655
Cl0 Na0 2.877865 1_655
Cl0 Rb5 3.325285 1_555
Cl0 Rb3 3.365925 1_545
Cl0 Rb1 3.423394 1_645
Cl0 Rb2 3.457080 1_555
Cl1 Hg0 2.699225 1_556
Cl1 Na0 2.877864 1_556
Cl1 Rb4 3.325285 1_555
Cl1 Rb5 3.365925 1_455
Cl1 Rb2 3.423395 1_456
Cl1 Rb0 3.457081 1_555
Cl2 Hg0 2.699224 1_565
Cl2 Na0 2.877864 1_565
Cl2 Rb3 3.325285 1_555
Cl2 Rb4 3.365925 1_554
Cl2 Rb0 3.423395 1_564
Cl2 Rb1 3.457081 1_555
Cl3 Hg1 2.699224 1_555
Cl3 Na1 2.877865 1_555
Cl3 Rb2 3.325285 1_556
Cl3 Rb0 3.365925 1_555
Cl3 Rb4 3.423394 1_555
Cl3 Rb5 3.457080 1_555
Cl4 Hg1 2.699225 1_555
Cl4 Na1 2.877864 1_555
Cl4 Rb1 3.325286 1_655
Cl4 Rb2 3.365925 1_555
Cl4 Rb5 3.423394 1_555
Cl4 Rb3 3.457080 1_555
Cl5 Hg1 2.699224 1_555
Cl5 Na1 2.877864 1_555
Cl5 Rb0 3.325285 1_565
Cl5 Rb1 3.365925 1_555
Cl5 Rb3 3.423395 1_555
Cl5 Rb4 3.457081 1_555
Cl6 Hg1 2.699225 1_555
Cl6 Na0 2.877864 1_555
Cl6 Rb5 3.325286 1_455
Cl6 Rb4 3.365925 1_555
Cl6 Rb1 3.423394 1_555
Cl6 Rb0 3.457080 1_555
Cl7 Hg1 2.699224 1_555
Cl7 Na0 2.877865 1_555
Cl7 Rb4 3.325285 1_554
Cl7 Rb3 3.365925 1_555
Cl7 Rb2 3.423394 1_555
Cl7 Rb1 3.457080 1_555
Cl8 Hg1 2.699224 1_555
Cl8 Na0 2.877864 1_555
Cl8 Rb3 3.325285 1_545
Cl8 Rb5 3.365925 1_555
Cl8 Rb0 3.423395 1_555
Cl8 Rb2 3.457081 1_555
Cl9 Hg0 2.699225 1_665
Cl9 Na1 2.877864 1_554
Cl9 Rb2 3.325285 1_555
Cl9 Rb1 3.365925 1_655
Cl9 Rb4 3.423395 1_654
Cl9 Rb3 3.457081 1_555
Cl10 Hg0 2.699224 1_566
Cl10 Na1 2.877865 1_455
Cl10 Rb1 3.325285 1_555
Cl10 Rb0 3.365925 1_565
Cl10 Rb5 3.423394 1_465
Cl10 Rb4 3.457080 1_555
Cl11 Hg0 2.699224 1_656
Cl11 Na1 2.877864 1_545
Cl11 Rb0 3.325285 1_555
Cl11 Rb2 3.365925 1_556
Cl11 Rb3 3.423395 1_546
Cl11 Rb5 3.457081 1_555
