# generated using pymatgen
data_Ba2Ca3(AlSb3)2
_symmetry_space_group_name_H-M   'P 1'
_cell_length_a   4.67908947
_cell_length_b   12.57445490
_cell_length_c   14.28817814
_cell_angle_alpha   90.00000000
_cell_angle_beta   90.00000000
_cell_angle_gamma   90.00000000
_symmetry_Int_Tables_number   1
_chemical_formula_structural   Ba2Ca3(AlSb3)2
_chemical_formula_sum   'Ba4 Ca6 Al4 Sb12'
_cell_volume   840.67353058
_cell_formula_units_Z   2
loop_
 _symmetry_equiv_pos_site_id
 _symmetry_equiv_pos_as_xyz
  1  'x, y, z'
loop_
 _atom_site_type_symbol
 _atom_site_label
 _atom_site_symmetry_multiplicity
 _atom_site_fract_x
 _atom_site_fract_y
 _atom_site_fract_z
 _atom_site_occupancy
  Ba  Ba0  1  0.50000000  0.67895925  0.47971299  1
  Ba  Ba1  1  0.50000000  0.32104075  0.52028701  1
  Ba  Ba2  1  0.50000000  0.82104075  0.97971299  1
  Ba  Ba3  1  0.50000000  0.17895925  0.02028701  1
  Ca  Ca0  1  0.50000000  0.00000000  0.50000000  1
  Ca  Ca1  1  0.50000000  0.50000000  0.00000000  1
  Ca  Ca2  1  0.50000000  0.91577446  0.24659956  1
  Ca  Ca3  1  0.50000000  0.08422554  0.75340044  1
  Ca  Ca4  1  0.50000000  0.41577446  0.25340044  1
  Ca  Ca5  1  0.50000000  0.58422554  0.74659956  1
  Al  Al0  1  0.00000000  0.31832333  0.71178585  1
  Al  Al1  1  0.00000000  0.68167667  0.28821415  1
  Al  Al2  1  0.00000000  0.81832333  0.78821415  1
  Al  Al3  1  0.00000000  0.18167667  0.21178585  1
  Sb  Sb0  1  0.00000000  0.98767930  0.10215457  1
  Sb  Sb1  1  0.00000000  0.01232070  0.89784543  1
  Sb  Sb2  1  0.00000000  0.48767930  0.39784543  1
  Sb  Sb3  1  0.00000000  0.51232070  0.60215457  1
  Sb  Sb4  1  0.50000000  0.16380228  0.31236835  1
  Sb  Sb5  1  0.50000000  0.83619772  0.68763165  1
  Sb  Sb6  1  0.50000000  0.66380228  0.18763165  1
  Sb  Sb7  1  0.50000000  0.33619772  0.81236835  1
  Sb  Sb8  1  0.00000000  0.36328852  0.10780198  1
  Sb  Sb9  1  0.00000000  0.63671148  0.89219802  1
  Sb  Sb10  1  0.00000000  0.86328852  0.39219802  1
  Sb  Sb11  1  0.00000000  0.13671148  0.60780198  1
loop_
_geom_bond_atom_site_label_1
_geom_bond_atom_site_label_2
_geom_bond_distance
_geom_bond_site_symmetry_2
Ba0 Sb10 3.522702 1_655
Ba0 Sb10 3.522702 1_555
Ba0 Sb2 3.553441 1_555
Ba0 Sb2 3.553441 1_655
Ba0 Sb5 3.568585 1_555
Ba0 Sb3 3.595102 1_555
Ba0 Sb3 3.595102 1_655
Ba1 Sb11 3.522702 1_555
Ba1 Sb11 3.522702 1_655
Ba1 Sb3 3.553441 1_555
Ba1 Sb3 3.553441 1_655
Ba1 Sb4 3.568585 1_555
Ba1 Sb2 3.595102 1_655
Ba1 Sb2 3.595102 1_555
Ba2 Sb9 3.522702 1_655
Ba2 Sb9 3.522702 1_555
Ba2 Sb1 3.553441 1_565
Ba2 Sb1 3.553441 1_665
Ba2 Sb6 3.568585 1_556
Ba2 Sb0 3.595102 1_556
Ba2 Sb0 3.595102 1_656
Ba3 Sb8 3.522702 1_555
Ba3 Sb8 3.522702 1_655
Ba3 Sb0 3.553441 1_545
Ba3 Sb0 3.553441 1_645
Ba3 Sb7 3.568585 1_554
Ba3 Sb1 3.595102 1_654
Ba3 Sb1 3.595102 1_554
Ca0 Sb11 3.286516 1_655
Ca0 Sb11 3.286516 1_555
Ca0 Sb10 3.286516 1_645
Ca0 Sb10 3.286516 1_545
Ca0 Sb5 3.380794 1_545
Ca0 Sb4 3.380794 1_555
Ca1 Sb8 3.286516 1_655
Ca1 Sb8 3.286516 1_555
Ca1 Sb9 3.286516 1_654
Ca1 Sb9 3.286516 1_554
Ca1 Sb6 3.380794 1_555
Ca1 Sb7 3.380794 1_554
Ca2 Sb10 3.199507 1_555
Ca2 Sb10 3.199507 1_655
Ca2 Sb0 3.248151 1_655
Ca2 Sb0 3.248151 1_555
Ca2 Sb4 3.257310 1_565
Ca2 Sb6 3.278524 1_555
Ca3 Sb11 3.199507 1_555
Ca3 Sb11 3.199507 1_655
Ca3 Sb1 3.248151 1_655
Ca3 Sb1 3.248151 1_555
Ca3 Sb5 3.257310 1_545
Ca3 Sb7 3.278524 1_555
Ca4 Sb8 3.199507 1_555
Ca4 Sb8 3.199507 1_655
Ca4 Sb2 3.248151 1_555
Ca4 Sb2 3.248151 1_655
Ca4 Sb6 3.257310 1_555
Ca4 Sb4 3.278524 1_555
Ca5 Sb9 3.199507 1_655
Ca5 Sb9 3.199507 1_555
Ca5 Sb3 3.248151 1_555
Ca5 Sb3 3.248151 1_655
Ca5 Sb7 3.257310 1_555
Ca5 Sb5 3.278524 1_555
Al0 Sb11 2.724440 1_555
Al0 Sb7 2.754879 1_455
Al0 Sb7 2.754879 1_555
Al0 Sb3 2.899040 1_555
Al0 Ba1 3.600175 1_455
Al0 Ba1 3.600175 1_555
Al1 Sb10 2.724440 1_555
Al1 Sb6 2.754879 1_555
Al1 Sb6 2.754879 1_455
Al1 Sb2 2.899040 1_555
Al1 Ba0 3.600175 1_455
Al1 Ba0 3.600175 1_555
Al2 Sb9 2.724440 1_555
Al2 Sb5 2.754879 1_455
Al2 Sb5 2.754879 1_555
Al2 Sb1 2.899040 1_565
Al2 Ba2 3.600175 1_455
Al2 Ba2 3.600175 1_555
Al3 Sb8 2.724440 1_555
Al3 Sb4 2.754879 1_455
Al3 Sb4 2.754879 1_555
Al3 Sb0 2.899040 1_545
Al3 Ba3 3.600175 1_555
Al3 Ba3 3.600175 1_455
Sb0 Sb1 2.935604 1_564
Sb2 Sb3 2.935604 1_555
