# generated using pymatgen
data_CsTcN2
_symmetry_space_group_name_H-M   'P 1'
_cell_length_a   6.05511911
_cell_length_b   6.05511925
_cell_length_c   6.05511938
_cell_angle_alpha   59.99999929
_cell_angle_beta   59.99999849
_cell_angle_gamma   60.00000283
_symmetry_Int_Tables_number   1
_chemical_formula_structural   CsTcN2
_chemical_formula_sum   'Cs2 Tc2 N4'
_cell_volume   156.98317395
_cell_formula_units_Z   2
loop_
 _symmetry_equiv_pos_site_id
 _symmetry_equiv_pos_as_xyz
  1  'x, y, z'
loop_
 _atom_site_type_symbol
 _atom_site_label
 _atom_site_symmetry_multiplicity
 _atom_site_fract_x
 _atom_site_fract_y
 _atom_site_fract_z
 _atom_site_occupancy
  Cs  Cs0  1  0.25000000  0.25000000  0.25000000  1
  Cs  Cs1  1  0.00000000  0.00000000  0.00000000  1
  Tc  Tc0  1  0.75000000  0.75000000  0.75000000  1
  Tc  Tc1  1  0.50000000  0.50000000  0.50000000  1
  N  N0  1  0.62500000  0.62500000  0.62500000  1
  N  N1  1  0.12500000  0.62500000  0.62500000  1
  N  N2  1  0.62500000  0.12500000  0.62500000  1
  N  N3  1  0.62500000  0.62500000  0.12500000  1
loop_
_geom_bond_atom_site_label_1
_geom_bond_atom_site_label_2
_geom_bond_distance
_geom_bond_site_symmetry_2
Cs0 N2 3.550128 1_455
Cs0 N3 3.550128 1_555
Cs0 N0 3.550128 1_554
Cs0 N1 3.550128 1_545
Cs0 N2 3.550128 1_555
Cs0 N2 3.550128 1_554
Cs0 N0 3.550128 1_455
Cs0 N3 3.550128 1_455
Cs0 N1 3.550128 1_555
Cs0 N1 3.550128 1_554
Cs0 N0 3.550128 1_545
Cs0 N3 3.550128 1_545
Cs1 N2 3.550128 1_554
Cs1 N3 3.550128 1_445
Cs1 N0 3.550128 1_445
Cs1 N1 3.550128 1_554
Cs1 N2 3.550128 1_454
Cs1 N2 3.550128 1_455
Cs1 N0 3.550128 1_544
Cs1 N3 3.550128 1_545
Cs1 N1 3.550128 1_544
Cs1 N1 3.550128 1_545
Cs1 N0 3.550128 1_454
Cs1 N3 3.550128 1_455
N0 Tc1 1.853994 1_555
N0 Tc0 1.853994 1_555
N1 Tc0 1.853994 1_455
N1 Tc1 1.853994 1_555
N2 Tc1 1.853994 1_555
N2 Tc0 1.853994 1_545
N3 Tc0 1.853994 1_554
N3 Tc1 1.853994 1_555
