# generated using pymatgen
data_Ca2Ga3FeBr16
_symmetry_space_group_name_H-M   'P 1'
_cell_length_a   7.18150293
_cell_length_b   7.66542909
_cell_length_c   14.05474281
_cell_angle_alpha   87.48121722
_cell_angle_beta   90.16352711
_cell_angle_gamma   90.15808138
_symmetry_Int_Tables_number   1
_chemical_formula_structural   Ca2Ga3FeBr16
_chemical_formula_sum   'Ca2 Ga3 Fe1 Br16'
_cell_volume   772.95044103
_cell_formula_units_Z   1
loop_
 _symmetry_equiv_pos_site_id
 _symmetry_equiv_pos_as_xyz
  1  'x, y, z'
loop_
 _atom_site_type_symbol
 _atom_site_label
 _atom_site_symmetry_multiplicity
 _atom_site_fract_x
 _atom_site_fract_y
 _atom_site_fract_z
 _atom_site_occupancy
  Ca  Ca0  1  0.75935974  0.08003509  0.81703016  1
  Ca  Ca1  1  0.24310345  0.07709884  0.31634378  1
  Ga  Ga0  1  0.06110196  0.22198513  0.07968801  1
  Ga  Ga1  1  0.57112815  0.64169244  0.77527485  1
  Ga  Ga2  1  0.42988771  0.64039951  0.27529125  1
  Fe  Fe0  1  0.93801687  0.21814859  0.58081296  1
  Br  Br0  1  0.42664932  0.61630746  0.63227453  1
  Br  Br1  1  0.57547876  0.61365345  0.13330875  1
  Br  Br2  1  0.88589992  0.73266430  0.76101450  1
  Br  Br3  1  0.11548099  0.73031264  0.25947273  1
  Br  Br4  1  0.94457591  0.47530512  0.49359365  1
  Br  Br5  1  0.05193263  0.47688373  0.99059938  1
  Br  Br6  1  0.91485911  0.98652340  0.00480755  1
  Br  Br7  1  0.08297039  0.98727893  0.50142190  1
  Br  Br8  1  0.62904884  0.13080508  0.61941255  1
  Br  Br9  1  0.36839345  0.12987681  0.11825913  1
  Br  Br10  1  0.55417749  0.38472767  0.87582521  1
  Br  Br11  1  0.44340053  0.38522680  0.37758985  1
  Br  Br12  1  0.43373534  0.86442187  0.86498077  1
  Br  Br13  1  0.56855907  0.86361957  0.36506637  1
  Br  Br14  1  0.91531571  0.23833339  0.23088707  1
  Br  Br15  1  0.08692367  0.23950216  0.73144906  1
loop_
_geom_bond_atom_site_label_1
_geom_bond_atom_site_label_2
_geom_bond_distance
_geom_bond_site_symmetry_2
Br0 Ga1 2.274909 1_555
Br1 Ga2 2.272975 1_555
Br2 Ga1 2.370247 1_555
Br2 Ca0 2.955935 1_565
Br3 Ga2 2.369574 1_555
Br3 Ca1 2.952017 1_565
Br4 Fe0 2.275529 1_555
Br5 Ga0 2.274883 1_556
Br6 Ga0 2.370341 1_665
Br6 Ca0 2.923589 1_564
Br7 Fe0 2.377174 1_465
Br7 Ca1 2.901413 1_565
Br8 Fe0 2.373319 1_555
Br8 Ca0 2.938317 1_555
Br9 Ga0 2.372877 1_555
Br9 Ca1 2.938940 1_555
Br10 Ga1 2.376314 1_555
Br10 Ca0 2.916283 1_555
Br11 Ga2 2.378164 1_555
Br11 Ca1 2.922615 1_555
Br12 Ga1 2.384046 1_555
Br12 Ca0 2.923021 1_565
Br13 Ga2 2.384278 1_555
Br13 Ca1 2.919423 1_565
Br14 Ga0 2.380035 1_655
Br14 Ca1 2.894979 1_655
Br15 Fe0 2.381020 1_455
Br15 Ca0 2.888917 1_455
