# generated using pymatgen
data_Co(SCl6)2
_symmetry_space_group_name_H-M   'P 1'
_cell_length_a   8.17506258
_cell_length_b   8.17506233
_cell_length_c   8.17506322
_cell_angle_alpha   78.34436025
_cell_angle_beta   78.34435791
_cell_angle_gamma   78.34435419
_symmetry_Int_Tables_number   1
_chemical_formula_structural   Co(SCl6)2
_chemical_formula_sum   'Co1 S2 Cl12'
_cell_volume   516.59818761
_cell_formula_units_Z   1
loop_
 _symmetry_equiv_pos_site_id
 _symmetry_equiv_pos_as_xyz
  1  'x, y, z'
loop_
 _atom_site_type_symbol
 _atom_site_label
 _atom_site_symmetry_multiplicity
 _atom_site_fract_x
 _atom_site_fract_y
 _atom_site_fract_z
 _atom_site_occupancy
  Co  Co0  1  0.00000000  0.00000000  0.00000000  1
  S  S0  1  0.20954863  0.20954863  0.20954863  1
  S  S1  1  0.79045137  0.79045137  0.79045137  1
  Cl  Cl0  1  0.83549748  0.83549748  0.53461841  1
  Cl  Cl1  1  0.87202096  0.17867730  0.17867730  1
  Cl  Cl2  1  0.17867730  0.17867730  0.87202096  1
  Cl  Cl3  1  0.17867730  0.87202096  0.17867730  1
  Cl  Cl4  1  0.82132270  0.12797904  0.82132270  1
  Cl  Cl5  1  0.12797904  0.82132270  0.82132270  1
  Cl  Cl6  1  0.82132270  0.82132270  0.12797904  1
  Cl  Cl7  1  0.46538159  0.16450252  0.16450252  1
  Cl  Cl8  1  0.16450252  0.16450252  0.46538159  1
  Cl  Cl9  1  0.16450252  0.46538159  0.16450252  1
  Cl  Cl10  1  0.83549748  0.53461841  0.83549748  1
  Cl  Cl11  1  0.53461841  0.83549748  0.83549748  1
loop_
_geom_bond_atom_site_label_1
_geom_bond_atom_site_label_2
_geom_bond_distance
_geom_bond_site_symmetry_2
Cl0 S1 2.019352 1_555
Cl1 Co0 2.233609 1_655
Cl2 Co0 2.233609 1_556
Cl3 Co0 2.233609 1_565
Cl4 Co0 2.233609 1_656
Cl5 Co0 2.233609 1_566
Cl6 Co0 2.233609 1_665
Cl7 S0 2.019352 1_555
Cl8 S0 2.019352 1_555
Cl9 S0 2.019352 1_555
Cl10 S1 2.019352 1_555
Cl11 S1 2.019352 1_555
