# generated using pymatgen
data_Hf16Ni4Mo3Pt
_symmetry_space_group_name_H-M   'P 1'
_cell_length_a   8.63679505
_cell_length_b   8.63679461
_cell_length_c   8.63679549
_cell_angle_alpha   59.92433162
_cell_angle_beta   59.92432468
_cell_angle_gamma   59.92433254
_symmetry_Int_Tables_number   1
_chemical_formula_structural   Hf16Ni4Mo3Pt
_chemical_formula_sum   'Hf16 Ni4 Mo3 Pt1'
_cell_volume   454.77518357
_cell_formula_units_Z   1
loop_
 _symmetry_equiv_pos_site_id
 _symmetry_equiv_pos_as_xyz
  1  'x, y, z'
loop_
 _atom_site_type_symbol
 _atom_site_label
 _atom_site_symmetry_multiplicity
 _atom_site_fract_x
 _atom_site_fract_y
 _atom_site_fract_z
 _atom_site_occupancy
  Hf  Hf0  1  0.69380660  0.10185465  0.10185465  1
  Hf  Hf1  1  0.10185465  0.69380660  0.10185465  1
  Hf  Hf2  1  0.10185465  0.10185465  0.69380660  1
  Hf  Hf3  1  0.10275429  0.10275429  0.10275429  1
  Hf  Hf4  1  0.31525911  0.31525911  0.69062230  1
  Hf  Hf5  1  0.68533049  0.68533049  0.31491030  1
  Hf  Hf6  1  0.31525911  0.69062230  0.31525911  1
  Hf  Hf7  1  0.68533049  0.31491030  0.68533049  1
  Hf  Hf8  1  0.69062230  0.31525911  0.31525911  1
  Hf  Hf9  1  0.31491030  0.68533049  0.68533049  1
  Hf  Hf10  1  0.95192754  0.95192754  0.54694749  1
  Hf  Hf11  1  0.54932515  0.54932515  0.94947280  1
  Hf  Hf12  1  0.95192754  0.54694749  0.95192754  1
  Hf  Hf13  1  0.54932515  0.94947280  0.54932515  1
  Hf  Hf14  1  0.54694749  0.95192754  0.95192754  1
  Hf  Hf15  1  0.94947280  0.54932515  0.54932515  1
  Ni  Ni0  1  0.32462052  0.89068624  0.89068624  1
  Ni  Ni1  1  0.89068624  0.32462052  0.89068624  1
  Ni  Ni2  1  0.89068624  0.89068624  0.32462052  1
  Ni  Ni3  1  0.89141423  0.89141423  0.89141423  1
  Mo  Mo0  1  0.99880644  0.33244405  0.33244405  1
  Mo  Mo1  1  0.33244405  0.99880644  0.33244405  1
  Mo  Mo2  1  0.33244405  0.33244405  0.99880644  1
  Pt  Pt0  1  0.33298957  0.33298957  0.33298957  1
loop_
_geom_bond_atom_site_label_1
_geom_bond_atom_site_label_2
_geom_bond_distance
_geom_bond_site_symmetry_2
Hf0 Ni1 2.563807 1_554
Hf0 Ni2 2.563807 1_545
Hf0 Ni3 2.571476 1_544
Hf0 Pt0 3.034023 1_555
Hf0 Mo1 3.045779 1_545
Hf0 Mo2 3.045780 1_554
Hf1 Ni0 2.563807 1_554
Hf1 Ni2 2.563807 1_455
Hf1 Ni3 2.571476 1_454
Hf1 Pt0 3.034023 1_555
Hf1 Mo0 3.045779 1_455
Hf1 Mo2 3.045779 1_554
Hf2 Ni1 2.563807 1_455
Hf2 Ni0 2.563807 1_545
Hf2 Ni3 2.571476 1_445
Hf2 Pt0 3.034023 1_555
Hf2 Mo1 3.045779 1_545
Hf2 Mo0 3.045780 1_455
Hf3 Ni2 2.590022 1_445
Hf3 Ni0 2.590022 1_544
Hf3 Ni1 2.590022 1_454
Hf3 Mo2 3.008497 1_554
Hf3 Mo0 3.008498 1_455
Hf3 Mo1 3.008498 1_545
Hf4 Mo2 2.818304 1_555
Hf4 Pt0 2.943285 1_555
Hf5 Mo1 2.884437 1_555
Hf5 Mo0 2.884437 1_555
Hf6 Mo1 2.818304 1_555
Hf6 Pt0 2.943285 1_555
Hf7 Mo2 2.884437 1_555
Hf7 Mo0 2.884437 1_555
Hf8 Mo0 2.818304 1_555
Hf8 Pt0 2.943285 1_555
Hf9 Mo2 2.884437 1_555
Hf9 Mo1 2.884437 1_555
Hf10 Ni3 2.560141 1_555
Hf10 Ni2 2.561837 1_555
Hf10 Mo1 2.979303 1_655
Hf10 Mo0 2.979303 1_565
Hf11 Ni1 2.543402 1_555
Hf11 Ni0 2.543402 1_555
Hf11 Pt0 3.007779 1_556
Hf11 Mo2 3.019244 1_555
Hf12 Ni3 2.560141 1_555
Hf12 Ni1 2.561837 1_555
Hf12 Mo2 2.979303 1_655
Hf12 Mo0 2.979303 1_556
Hf13 Ni2 2.543402 1_555
Hf13 Ni0 2.543402 1_555
Hf13 Pt0 3.007779 1_565
Hf13 Mo1 3.019244 1_555
Hf14 Ni3 2.560141 1_555
Hf14 Ni0 2.561837 1_555
Hf14 Mo2 2.979303 1_565
Hf14 Mo1 2.979303 1_556
Hf15 Ni2 2.543402 1_555
Hf15 Ni1 2.543402 1_555
Hf15 Pt0 3.007779 1_655
Hf15 Mo0 3.019244 1_555
Mo0 Mo2 2.878263 1_654
Mo0 Mo1 2.878263 1_645
Mo0 Pt0 2.891001 1_655
Mo1 Mo2 2.878263 1_564
Mo1 Pt0 2.891001 1_565
Mo2 Pt0 2.891001 1_556
