# generated using pymatgen
data_Ca7TiMn2N9
_symmetry_space_group_name_H-M   'P 1'
_cell_length_a   9.91013747
_cell_length_b   6.03072367
_cell_length_c   8.92973332
_cell_angle_alpha   88.97683200
_cell_angle_beta   90.00000000
_cell_angle_gamma   90.00000000
_symmetry_Int_Tables_number   1
_chemical_formula_structural   Ca7TiMn2N9
_chemical_formula_sum   'Ca14 Ti2 Mn4 N18'
_cell_volume   533.60310369
_cell_formula_units_Z   2
loop_
 _symmetry_equiv_pos_site_id
 _symmetry_equiv_pos_as_xyz
  1  'x, y, z'
loop_
 _atom_site_type_symbol
 _atom_site_label
 _atom_site_symmetry_multiplicity
 _atom_site_fract_x
 _atom_site_fract_y
 _atom_site_fract_z
 _atom_site_occupancy
  Ca  Ca0  1  0.93145751  0.42629882  0.16748808  1
  Ca  Ca1  1  0.08148177  0.24749498  0.49391761  1
  Ca  Ca2  1  0.25000000  0.09060480  0.79484486  1
  Ca  Ca3  1  0.43145751  0.57370118  0.83251192  1
  Ca  Ca4  1  0.58148177  0.75250502  0.50608239  1
  Ca  Ca5  1  0.58084791  0.06546346  0.82519243  1
  Ca  Ca6  1  0.91915209  0.06546346  0.82519243  1
  Ca  Ca7  1  0.41915209  0.93453654  0.17480757  1
  Ca  Ca8  1  0.41851823  0.24749498  0.49391761  1
  Ca  Ca9  1  0.08084791  0.93453654  0.17480757  1
  Ca  Ca10  1  0.91851823  0.75250502  0.50608239  1
  Ca  Ca11  1  0.06854249  0.57370118  0.83251192  1
  Ca  Ca12  1  0.75000000  0.90939520  0.20515514  1
  Ca  Ca13  1  0.56854249  0.42629882  0.16748808  1
  Ti  Ti0  1  0.75000000  0.28017047  0.43703154  1
  Ti  Ti1  1  0.25000000  0.71982953  0.56296846  1
  Mn  Mn0  1  0.25000000  0.32830653  0.06833938  1
  Mn  Mn1  1  0.75000000  0.46137680  0.72591322  1
  Mn  Mn2  1  0.75000000  0.67169347  0.93166062  1
  Mn  Mn3  1  0.25000000  0.53862320  0.27408678  1
  N  N0  1  0.40042923  0.23362950  0.98572532  1
  N  N1  1  0.25000000  0.22658101  0.26914703  1
  N  N2  1  0.90133007  0.11671741  0.34283543  1
  N  N3  1  0.60733220  0.37023730  0.63418672  1
  N  N4  1  0.75000000  0.55368165  0.33521959  1
  N  N5  1  0.25000000  0.63964691  0.07257123  1
  N  N6  1  0.89266780  0.37023730  0.63418672  1
  N  N7  1  0.39266780  0.62976270  0.36581328  1
  N  N8  1  0.75000000  0.36035309  0.92742877  1
  N  N9  1  0.09866993  0.88328259  0.65716457  1
  N  N10  1  0.75000000  0.77341899  0.73085297  1
  N  N11  1  0.10733220  0.62976270  0.36581328  1
  N  N12  1  0.59957077  0.76637050  0.01427468  1
  N  N13  1  0.25000000  0.44631835  0.66478041  1
  N  N14  1  0.40133007  0.88328259  0.65716457  1
  N  N15  1  0.59866993  0.11671741  0.34283543  1
  N  N16  1  0.09957077  0.23362950  0.98572532  1
  N  N17  1  0.90042923  0.76637050  0.01427468  1
loop_
_geom_bond_atom_site_label_1
_geom_bond_atom_site_label_2
_geom_bond_distance
_geom_bond_site_symmetry_2
Ca0 N2 2.433552 1_555
Ca0 N17 2.464202 1_555
Ca0 N4 2.471520 1_555
Ca0 N16 2.612952 1_654
Ca0 N11 2.785225 1_655
Ca0 N8 2.831552 1_554
Ca1 N6 2.377236 1_455
Ca1 N2 2.380662 1_455
Ca1 N11 2.568011 1_555
Ca1 N13 2.572941 1_555
Ca1 N1 2.615835 1_555
Ca1 N9 2.619954 1_545
Ca2 N14 2.319225 1_545
Ca2 N9 2.319225 1_545
Ca2 N13 2.421134 1_555
Ca2 N0 2.433979 1_555
Ca2 N16 2.433979 1_555
Ca3 N14 2.433552 1_555
Ca3 N0 2.464202 1_555
Ca3 N13 2.471520 1_555
Ca3 N12 2.612952 1_556
Ca3 N3 2.785225 1_555
Ca3 N5 2.831552 1_556
Ca4 N7 2.377236 1_555
Ca4 N14 2.380662 1_555
Ca4 N3 2.568011 1_555
Ca4 N4 2.572941 1_555
Ca4 N10 2.615835 1_555
Ca4 N15 2.619954 1_565
Ca5 N12 2.455614 1_546
Ca5 N3 2.498874 1_555
Ca5 N0 2.516399 1_555
Ca5 N10 2.583541 1_545
Ca5 N14 2.585018 1_545
Ca5 N8 2.619961 1_555
Ca6 N17 2.455614 1_546
Ca6 N6 2.498874 1_555
Ca6 N16 2.516399 1_655
Ca6 N10 2.583541 1_545
Ca6 N9 2.585018 1_645
Ca6 N8 2.619961 1_555
Ca7 N0 2.455614 1_564
Ca7 N7 2.498874 1_555
Ca7 N12 2.516399 1_555
Ca7 N1 2.583541 1_565
Ca7 N15 2.585018 1_565
Ca7 N5 2.619961 1_555
Ca8 N3 2.377236 1_555
Ca8 N15 2.380662 1_555
Ca8 N7 2.568011 1_555
Ca8 N13 2.572941 1_555
Ca8 N1 2.615835 1_555
Ca8 N14 2.619954 1_545
Ca9 N16 2.455614 1_564
Ca9 N11 2.498874 1_555
Ca9 N17 2.516399 1_455
Ca9 N1 2.583541 1_565
Ca9 N2 2.585018 1_465
Ca9 N5 2.619961 1_555
Ca10 N11 2.377236 1_655
Ca10 N9 2.380662 1_655
Ca10 N6 2.568011 1_555
Ca10 N4 2.572941 1_555
Ca10 N10 2.615835 1_555
Ca10 N2 2.619954 1_565
Ca11 N9 2.433552 1_555
Ca11 N16 2.464202 1_555
Ca11 N13 2.471520 1_555
Ca11 N17 2.612952 1_456
Ca11 N6 2.785225 1_455
Ca11 N5 2.831552 1_556
Ca12 N2 2.319225 1_565
Ca12 N15 2.319225 1_565
Ca12 N4 2.421134 1_555
Ca12 N17 2.433979 1_555
Ca12 N12 2.433979 1_555
Ca13 N15 2.433552 1_555
Ca13 N12 2.464202 1_555
Ca13 N4 2.471520 1_555
Ca13 N0 2.612952 1_554
Ca13 N7 2.785225 1_555
Ca13 N8 2.831552 1_554
Mn0 N0 1.762865 1_554
Mn0 N16 1.762865 1_554
Mn0 N5 1.878663 1_555
Mn0 N1 1.884804 1_555
Mn1 N6 1.728608 1_555
Mn1 N3 1.728608 1_555
Mn1 N10 1.883144 1_555
Mn1 N8 1.889486 1_555
Mn2 N17 1.762865 1_556
Mn2 N12 1.762865 1_556
Mn2 N8 1.878663 1_555
Mn2 N10 1.884804 1_555
Mn3 N7 1.728608 1_555
Mn3 N11 1.728608 1_555
Mn3 N1 1.883144 1_555
Mn3 N5 1.889486 1_555
N2 Ti0 1.989454 1_555
N3 Ti0 2.329740 1_555
N4 Ti0 1.869159 1_555
N6 Ti0 2.329740 1_555
N7 Ti1 2.329740 1_555
N9 Ti1 1.989454 1_555
N11 Ti1 2.329740 1_555
N13 Ti1 1.869159 1_555
N14 Ti1 1.989454 1_555
N15 Ti0 1.989454 1_555
