# generated using pymatgen
data_LiScB14
_symmetry_space_group_name_H-M   'P 1'
_cell_length_a   7.30824379
_cell_length_b   7.30824368
_cell_length_c   7.30824431
_cell_angle_alpha   131.42253291
_cell_angle_beta   112.71038642
_cell_angle_gamma   87.26710012
_symmetry_Int_Tables_number   1
_chemical_formula_structural   LiScB14
_chemical_formula_sum   'Li2 Sc2 B28'
_cell_volume   257.53573982
_cell_formula_units_Z   2
loop_
 _symmetry_equiv_pos_site_id
 _symmetry_equiv_pos_as_xyz
  1  'x, y, z'
loop_
 _atom_site_type_symbol
 _atom_site_label
 _atom_site_symmetry_multiplicity
 _atom_site_fract_x
 _atom_site_fract_y
 _atom_site_fract_z
 _atom_site_occupancy
  Li  Li0  1  0.10646466  0.75000000  0.35646466  1
  Li  Li1  1  0.89353534  0.25000000  0.64353534  1
  Sc  Sc0  1  0.50000000  0.50000000  0.50000000  1
  Sc  Sc1  1  0.50000000  0.00000000  0.00000000  1
  B  B0  1  0.89843504  0.21906767  0.98954353  1
  B  B1  1  0.46631652  0.17943092  0.79907100  1
  B  B2  1  0.88035992  0.16724652  0.20092900  1
  B  B3  1  0.72952514  0.40889151  0.01045647  1
  B  B4  1  0.59384464  0.42022114  0.17362350  1
  B  B5  1  0.75358330  0.36349335  0.39008994  1
  B  B6  1  0.30840332  0.33398968  0.97441364  1
  B  B7  1  0.72952514  0.71906767  0.32063263  1
  B  B8  1  0.88035992  0.67943092  0.71311340  1
  B  B9  1  0.46631652  0.66724652  0.28688660  1
  B  B10  1  0.10156496  0.09110849  0.32063263  1
  B  B11  1  0.89843504  0.90889151  0.67936737  1
  B  B12  1  0.53368348  0.33275348  0.71311340  1
  B  B13  1  0.11964008  0.32056908  0.28688660  1
  B  B14  1  0.27047486  0.28093233  0.67936737  1
  B  B15  1  0.74659664  0.92022114  0.82637650  1
  B  B16  1  0.47340341  0.86349335  0.60991006  1
  B  B17  1  0.85957604  0.83398968  0.02558636  1
  B  B18  1  0.69159668  0.66601032  0.02558636  1
  B  B19  1  0.24641670  0.63650665  0.60991006  1
  B  B20  1  0.40615536  0.57977886  0.82637650  1
  B  B21  1  0.27047486  0.59110849  0.98954353  1
  B  B22  1  0.11964008  0.83275348  0.79907100  1
  B  B23  1  0.53368348  0.82056908  0.20092900  1
  B  B24  1  0.10156496  0.78093233  0.01045647  1
  B  B25  1  0.14042396  0.16601032  0.97441364  1
  B  B26  1  0.52659659  0.13650665  0.39008994  1
  B  B27  1  0.25340336  0.07977886  0.17362350  1
loop_
_geom_bond_atom_site_label_1
_geom_bond_atom_site_label_2
_geom_bond_distance
_geom_bond_site_symmetry_2
B0 B13 1.776153 1_656
B0 B3 1.781445 1_556
B0 B15 1.785103 1_545
B0 B25 1.821837 1_655
B0 B11 1.864864 1_545
B0 B2 1.866542 1_556
B0 Li1 2.670672 1_555
B1 B16 1.750793 1_545
B1 B12 1.765058 1_555
B1 B14 1.776153 1_555
B1 B4 1.808552 1_556
B1 B6 1.830893 1_555
B1 B3 1.866553 1_556
B1 Sc1 2.484867 1_556
B2 B5 1.750791 1_555
B2 Sc1 2.484868 1_555
B3 B4 1.785106 1_555
B3 B7 1.864864 1_555
B3 Li0 2.670667 1_655
B4 B7 1.785103 1_555
B4 B9 1.808557 1_555
B4 B5 1.852858 1_555
B4 B6 1.853294 1_554
B4 Sc1 2.425800 1_555
B4 Sc0 2.425800 1_555
B5 B8 1.750791 1_555
B5 Sc1 2.233333 1_555
B5 Sc0 2.233333 1_555
B5 Li1 2.377825 1_555
B6 B9 1.830897 1_556
B7 B9 1.866556 1_555
B7 Li0 2.670665 1_655
B8 Sc0 2.484868 1_555
B9 Sc0 2.484867 1_555
B10 B2 1.776153 1_455
B10 B14 1.781449 1_555
B10 B27 1.785106 1_555
B10 B17 1.821837 1_445
B10 B24 1.864864 1_545
B10 B13 1.866542 1_555
B10 Li0 2.670672 1_545
B11 B22 1.776153 1_655
B11 B7 1.781449 1_555
B11 B15 1.785106 1_555
B11 B25 1.821837 1_665
B11 B8 1.866542 1_555
B11 Li1 2.670672 1_565
B12 B26 1.750788 1_555
B12 B3 1.776153 1_556
B12 B20 1.808557 1_555
B12 B18 1.830897 1_556
B12 B14 1.866556 1_555
B12 Sc0 2.484867 1_555
B13 B19 1.750791 1_555
B13 B2 1.765052 1_455
B13 B27 1.808557 1_555
B13 B25 1.830899 1_554
B13 Sc0 2.484868 1_555
B14 B20 1.785103 1_555
B14 B6 1.821835 1_555
B14 B21 1.864864 1_555
B14 Li1 2.670665 1_455
B15 B2 1.808552 1_566
B15 B8 1.808557 1_555
B15 B16 1.852852 1_555
B15 B17 1.853295 1_556
B15 Sc1 2.425793 1_566
B15 Sc0 2.425797 1_555
B16 B9 1.750788 1_555
B16 Sc0 2.233333 1_555
B16 Sc1 2.233333 1_566
B16 Li0 2.377825 1_555
B17 B18 1.777044 1_555
B17 B24 1.821837 1_655
B17 B2 1.830899 1_565
B17 B8 1.830899 1_554
B18 B7 1.821835 1_555
B18 B3 1.821838 1_555
B18 B23 1.830893 1_555
B18 B20 1.853294 1_554
B19 B22 1.750791 1_555
B19 B20 1.852858 1_555
B19 Sc1 2.233333 1_566
B19 Sc0 2.233333 1_555
B19 Li0 2.377825 1_555
B20 B21 1.785106 1_555
B20 B23 1.808552 1_556
B20 Sc1 2.425800 1_566
B20 Sc0 2.425800 1_555
B21 B9 1.776153 1_556
B21 B24 1.781445 1_556
B21 B6 1.821838 1_555
B21 B23 1.866553 1_556
B21 Li1 2.670667 1_455
B22 B8 1.765052 1_455
B22 B27 1.808552 1_566
B22 B25 1.830899 1_565
B22 B24 1.866542 1_556
B22 Sc1 2.484868 1_566
B23 B26 1.750793 1_565
B23 B9 1.765058 1_555
B23 B7 1.776153 1_555
B23 Sc1 2.484867 1_565
B24 B8 1.776153 1_454
B24 B27 1.785103 1_565
B24 Li0 2.670672 1_555
B25 B6 1.777044 1_555
B25 B27 1.853295 1_556
B26 B27 1.852852 1_555
B26 Sc0 2.233333 1_555
B26 Sc1 2.233333 1_555
B26 Li1 2.377825 1_555
B27 Sc1 2.425793 1_555
B27 Sc0 2.425797 1_555
