# generated using pymatgen
data_Zr6Sc8Al8Ir7
_symmetry_space_group_name_H-M   'P 1'
_cell_length_a   9.05277359
_cell_length_b   9.05277387
_cell_length_c   9.05277330
_cell_angle_alpha   59.99999849
_cell_angle_beta   59.99999747
_cell_angle_gamma   60.00000142
_symmetry_Int_Tables_number   1
_chemical_formula_structural   Zr6Sc8Al8Ir7
_chemical_formula_sum   'Zr6 Sc8 Al8 Ir7'
_cell_volume   524.60203326
_cell_formula_units_Z   1
loop_
 _symmetry_equiv_pos_site_id
 _symmetry_equiv_pos_as_xyz
  1  'x, y, z'
loop_
 _atom_site_type_symbol
 _atom_site_label
 _atom_site_symmetry_multiplicity
 _atom_site_fract_x
 _atom_site_fract_y
 _atom_site_fract_z
 _atom_site_occupancy
  Zr  Zr0  1  0.67844389  0.67844389  0.32155611  1
  Zr  Zr1  1  0.32155611  0.67844389  0.32155611  1
  Zr  Zr2  1  0.67844389  0.32155611  0.32155611  1
  Zr  Zr3  1  0.32155611  0.32155611  0.67844389  1
  Zr  Zr4  1  0.67844389  0.32155611  0.67844389  1
  Zr  Zr5  1  0.32155611  0.67844389  0.67844389  1
  Sc  Sc0  1  0.87748206  0.87748206  0.36755483  1
  Sc  Sc1  1  0.87748206  0.36755483  0.87748206  1
  Sc  Sc2  1  0.36755483  0.87748206  0.87748206  1
  Sc  Sc3  1  0.87748206  0.87748206  0.87748206  1
  Sc  Sc4  1  0.12251794  0.12251794  0.63244517  1
  Sc  Sc5  1  0.12251794  0.63244517  0.12251794  1
  Sc  Sc6  1  0.63244517  0.12251794  0.12251794  1
  Sc  Sc7  1  0.12251794  0.12251794  0.12251794  1
  Al  Al0  1  0.66149883  0.66149883  0.01550251  1
  Al  Al1  1  0.66149883  0.01550251  0.66149883  1
  Al  Al2  1  0.01550251  0.66149883  0.66149883  1
  Al  Al3  1  0.66149883  0.66149883  0.66149883  1
  Al  Al4  1  0.33850117  0.33850117  0.98449749  1
  Al  Al5  1  0.33850117  0.98449749  0.33850117  1
  Al  Al6  1  0.98449749  0.33850117  0.33850117  1
  Al  Al7  1  0.33850117  0.33850117  0.33850117  1
  Ir  Ir0  1  0.00000000  0.00000000  0.00000000  1
  Ir  Ir1  1  0.00000000  0.00000000  0.50000000  1
  Ir  Ir2  1  0.50000000  0.00000000  0.50000000  1
  Ir  Ir3  1  0.00000000  0.50000000  0.50000000  1
  Ir  Ir4  1  0.50000000  0.50000000  0.00000000  1
  Ir  Ir5  1  0.00000000  0.50000000  0.00000000  1
  Ir  Ir6  1  0.50000000  0.00000000  0.00000000  1
loop_
_geom_bond_atom_site_label_1
_geom_bond_atom_site_label_2
_geom_bond_distance
_geom_bond_site_symmetry_2
Zr0 Zr5 3.230824 1_555
Zr0 Zr4 3.230824 1_555
Zr0 Zr1 3.230824 1_555
Zr0 Zr2 3.230824 1_555
Zr1 Zr5 3.230824 1_555
Zr1 Zr3 3.230824 1_555
Zr1 Zr2 3.230824 1_555
Zr2 Zr3 3.230824 1_555
Zr2 Zr4 3.230824 1_555
Zr3 Zr4 3.230824 1_555
Zr3 Zr5 3.230824 1_555
Zr4 Zr5 3.230824 1_555
Sc0 Zr1 3.378454 1_655
Sc0 Zr2 3.378454 1_565
Sc0 Zr0 3.378461 1_555
Sc1 Zr2 3.378453 1_556
Sc1 Zr3 3.378454 1_655
Sc1 Zr4 3.378461 1_555
Sc2 Zr1 3.378453 1_556
Sc2 Zr3 3.378454 1_565
Sc2 Zr5 3.378461 1_555
Sc3 Zr0 3.378455 1_556
Sc3 Zr5 3.378455 1_655
Sc3 Zr4 3.378456 1_565
Sc4 Zr4 3.378454 1_455
Sc4 Zr5 3.378454 1_545
Sc4 Zr3 3.378461 1_555
Sc5 Zr5 3.378453 1_554
Sc5 Zr0 3.378454 1_455
Sc5 Zr1 3.378461 1_555
Sc6 Zr4 3.378453 1_554
Sc6 Zr0 3.378454 1_545
Sc6 Zr2 3.378461 1_555
Sc7 Zr3 3.378455 1_554
Sc7 Zr2 3.378455 1_455
Sc7 Zr1 3.378456 1_545
Al0 Ir4 2.615816 1_555
Al0 Ir5 2.615824 1_655
Al0 Ir6 2.615824 1_565
Al0 Sc2 2.853774 1_554
Al0 Sc1 2.853774 1_554
Al0 Sc3 2.853788 1_554
Al0 Zr1 2.932065 1_555
Al0 Zr2 2.932065 1_555
Al0 Zr0 2.932070 1_555
Al1 Ir2 2.615816 1_555
Al1 Ir6 2.615824 1_556
Al1 Ir1 2.615824 1_655
Al1 Sc2 2.853774 1_545
Al1 Sc0 2.853774 1_545
Al1 Sc3 2.853788 1_545
Al1 Zr2 2.932065 1_555
Al1 Zr3 2.932065 1_555
Al1 Zr4 2.932070 1_555
Al2 Ir3 2.615816 1_555
Al2 Ir5 2.615824 1_556
Al2 Ir1 2.615824 1_565
Al2 Sc0 2.853774 1_455
Al2 Sc1 2.853774 1_455
Al2 Sc3 2.853788 1_455
Al2 Zr1 2.932065 1_555
Al2 Zr3 2.932065 1_555
Al2 Zr5 2.932070 1_555
Al3 Ir4 2.615822 1_556
Al3 Ir3 2.615822 1_655
Al3 Ir2 2.615822 1_565
Al3 Sc0 2.853784 1_555
Al3 Sc2 2.853784 1_555
Al3 Sc1 2.853784 1_555
Al3 Zr0 2.932061 1_555
Al3 Zr5 2.932061 1_555
Al3 Zr4 2.932061 1_555
Al4 Ir4 2.615816 1_556
Al4 Ir5 2.615824 1_556
Al4 Ir6 2.615824 1_556
Al4 Sc6 2.853774 1_556
Al4 Sc5 2.853774 1_556
Al4 Sc7 2.853788 1_556
Al4 Zr4 2.932065 1_555
Al4 Zr5 2.932065 1_555
Al4 Zr3 2.932070 1_555
Al5 Ir2 2.615816 1_565
Al5 Ir6 2.615824 1_565
Al5 Ir1 2.615824 1_565
Al5 Sc6 2.853774 1_565
Al5 Sc4 2.853774 1_565
Al5 Sc7 2.853788 1_565
Al5 Zr5 2.932065 1_555
Al5 Zr0 2.932065 1_555
Al5 Zr1 2.932070 1_555
Al6 Ir3 2.615816 1_655
Al6 Ir5 2.615824 1_655
Al6 Ir1 2.615824 1_655
Al6 Sc4 2.853774 1_655
Al6 Sc5 2.853774 1_655
Al6 Sc7 2.853788 1_655
Al6 Zr4 2.932065 1_555
Al6 Zr0 2.932065 1_555
Al6 Zr2 2.932070 1_555
Al7 Ir4 2.615822 1_555
Al7 Ir3 2.615822 1_555
Al7 Ir2 2.615822 1_555
Al7 Sc4 2.853784 1_555
Al7 Sc6 2.853784 1_555
Al7 Sc5 2.853784 1_555
Al7 Zr3 2.932061 1_555
Al7 Zr2 2.932061 1_555
Al7 Zr1 2.932061 1_555
Ir0 Sc7 2.716796 1_555
Ir0 Sc3 2.716796 1_444
Ir0 Sc0 2.716803 1_445
Ir0 Sc4 2.716803 1_554
Ir0 Sc2 2.716803 1_544
Ir0 Sc6 2.716803 1_455
Ir0 Sc1 2.716803 1_454
Ir0 Sc5 2.716803 1_545
Ir1 Sc4 2.790656 1_555
Ir1 Sc0 2.790656 1_445
Ir1 Sc3 2.790663 1_445
Ir1 Sc7 2.790663 1_555
Ir1 Zr4 3.329164 1_455
Ir1 Zr1 3.329164 1_545
Ir1 Zr5 3.329164 1_545
Ir1 Zr2 3.329164 1_455
Ir2 Sc2 2.790663 1_545
Ir2 Sc6 2.790663 1_555
Ir2 Sc0 2.790663 1_545
Ir2 Sc4 2.790663 1_555
Ir2 Zr2 3.329164 1_555
Ir2 Zr5 3.329164 1_545
Ir2 Zr3 3.329164 1_555
Ir2 Zr0 3.329164 1_545
Ir3 Sc1 2.790663 1_455
Ir3 Sc5 2.790663 1_555
Ir3 Sc0 2.790663 1_455
Ir3 Sc4 2.790663 1_555
Ir3 Zr1 3.329163 1_555
Ir3 Zr4 3.329163 1_455
Ir3 Zr3 3.329164 1_555
Ir3 Zr0 3.329164 1_455
Ir4 Sc1 2.790663 1_554
Ir4 Sc5 2.790663 1_555
Ir4 Sc2 2.790663 1_554
Ir4 Sc6 2.790663 1_555
Ir4 Zr2 3.329163 1_555
Ir4 Zr5 3.329163 1_554
Ir4 Zr1 3.329163 1_555
Ir4 Zr4 3.329163 1_554
Ir5 Sc5 2.790656 1_555
Ir5 Sc1 2.790656 1_454
Ir5 Sc3 2.790663 1_454
Ir5 Sc7 2.790663 1_555
Ir5 Zr5 3.329163 1_554
Ir5 Zr2 3.329163 1_455
Ir5 Zr0 3.329163 1_455
Ir5 Zr3 3.329163 1_554
Ir6 Sc6 2.790656 1_555
Ir6 Sc2 2.790656 1_544
Ir6 Sc3 2.790663 1_544
Ir6 Sc7 2.790663 1_555
Ir6 Zr4 3.329163 1_554
Ir6 Zr1 3.329163 1_545
Ir6 Zr0 3.329164 1_545
Ir6 Zr3 3.329164 1_554
