# generated using pymatgen
data_Ba5Al3InGa2
_symmetry_space_group_name_H-M   'P 1'
_cell_length_a   6.04096732
_cell_length_b   6.04096751
_cell_length_c   11.30337270
_cell_angle_alpha   90.00000000
_cell_angle_beta   90.00000000
_cell_angle_gamma   119.99998255
_symmetry_Int_Tables_number   1
_chemical_formula_structural   Ba5Al3InGa2
_chemical_formula_sum   'Ba5 Al3 In1 Ga2'
_cell_volume   357.23314070
_cell_formula_units_Z   1
loop_
 _symmetry_equiv_pos_site_id
 _symmetry_equiv_pos_as_xyz
  1  'x, y, z'
loop_
 _atom_site_type_symbol
 _atom_site_label
 _atom_site_symmetry_multiplicity
 _atom_site_fract_x
 _atom_site_fract_y
 _atom_site_fract_z
 _atom_site_occupancy
  Ba  Ba0  1  0.00000000  0.00000000  0.66970879  1
  Ba  Ba1  1  0.66666700  0.33333300  0.79098009  1
  Ba  Ba2  1  0.66666700  0.33333300  0.20901991  1
  Ba  Ba3  1  0.33333300  0.66666700  0.00000000  1
  Ba  Ba4  1  0.00000000  0.00000000  0.33029121  1
  Al  Al0  1  0.50946504  0.49053496  0.50000000  1
  Al  Al1  1  0.98106791  0.49053496  0.50000000  1
  Al  Al2  1  0.50946504  0.01893209  0.50000000  1
  In  In0  1  0.00000000  0.00000000  0.00000000  1
  Ga  Ga0  1  0.33333300  0.66666700  0.67421253  1
  Ga  Ga1  1  0.33333300  0.66666700  0.32578747  1
loop_
_geom_bond_atom_site_label_1
_geom_bond_atom_site_label_2
_geom_bond_distance
_geom_bond_site_symmetry_2
Ba0 Ga0 3.488122 1_545
Ba0 Ga0 3.488128 1_445
Ba0 Ga0 3.488128 1_555
Ba0 In0 3.733405 1_556
Ba1 Ga0 3.729136 1_655
Ba1 Ga0 3.729137 1_545
Ba1 Ga0 3.729145 1_555
Ba2 Ga1 3.729136 1_655
Ba2 Ga1 3.729137 1_545
Ba2 Ga1 3.729145 1_555
Ba3 In0 3.487750 1_565
Ba3 In0 3.487756 1_665
Ba3 In0 3.487757 1_555
Ba3 Ga1 3.682497 1_555
Ba3 Ga0 3.682497 1_554
Ba4 Ga1 3.488122 1_545
Ba4 Ga1 3.488128 1_445
Ba4 Ga1 3.488128 1_555
Ba4 In0 3.733405 1_555
Al0 Ga0 2.697044 1_555
Al0 Ga1 2.697044 1_555
Al0 Ba0 3.579517 1_555
Al0 Ba4 3.579517 1_555
Al0 Ba0 3.579517 1_665
Al0 Ba4 3.579517 1_665
Al0 Ba1 3.677419 1_555
Al0 Ba2 3.677419 1_555
Al1 Ga0 2.697047 1_655
Al1 Ga1 2.697047 1_655
Al1 Ba0 3.579511 1_665
Al1 Ba4 3.579511 1_665
Al1 Ba0 3.579521 1_655
Al1 Ba4 3.579521 1_655
Al1 Ba1 3.677412 1_555
Al1 Ba2 3.677412 1_555
Al2 Ga0 2.697047 1_545
Al2 Ga1 2.697047 1_545
Al2 Ba0 3.579511 1_555
Al2 Ba4 3.579511 1_555
Al2 Ba0 3.579521 1_655
Al2 Ba4 3.579521 1_655
Al2 Ba1 3.677412 1_555
Al2 Ba2 3.677412 1_555
