# generated using pymatgen
data_Rb4ZrTcI12
_symmetry_space_group_name_H-M   'P 1'
_cell_length_a   8.25972674
_cell_length_b   8.09671796
_cell_length_c   14.15911826
_cell_angle_alpha   55.62607268
_cell_angle_beta   90.13709530
_cell_angle_gamma   90.25406263
_symmetry_Int_Tables_number   1
_chemical_formula_structural   Rb4ZrTcI12
_chemical_formula_sum   'Rb4 Zr1 Tc1 I12'
_cell_volume   781.54784585
_cell_formula_units_Z   1
loop_
 _symmetry_equiv_pos_site_id
 _symmetry_equiv_pos_as_xyz
  1  'x, y, z'
loop_
 _atom_site_type_symbol
 _atom_site_label
 _atom_site_symmetry_multiplicity
 _atom_site_fract_x
 _atom_site_fract_y
 _atom_site_fract_z
 _atom_site_occupancy
  Rb  Rb0  1  0.44940902  0.72640667  0.25244598  1
  Rb  Rb1  1  0.94780904  0.26589781  0.25251617  1
  Rb  Rb2  1  0.05219096  0.73410219  0.74748383  1
  Rb  Rb3  1  0.55059098  0.27359333  0.74755402  1
  Zr  Zr0  1  0.00000000  0.00000000  0.00000000  1
  Tc  Tc0  1  0.50000000  0.00000000  0.50000000  1
  I  I0  1  0.80003956  0.31205465  0.97557613  1
  I  I1  1  0.49613451  0.18132887  0.26687056  1
  I  I2  1  0.50386549  0.81867113  0.73312944  1
  I  I3  1  0.28644081  0.21922841  0.98224809  1
  I  I4  1  0.30218170  0.70059938  0.52738147  1
  I  I5  1  0.23065916  0.21741151  0.48030993  1
  I  I6  1  0.19996044  0.68794535  0.02442387  1
  I  I7  1  0.76934084  0.78258849  0.51969007  1
  I  I8  1  0.71355919  0.78077159  0.01775191  1
  I  I9  1  0.99675599  0.80179827  0.24445555  1
  I  I10  1  0.00324401  0.19820173  0.75554445  1
  I  I11  1  0.69781830  0.29940062  0.47261853  1
loop_
_geom_bond_atom_site_label_1
_geom_bond_atom_site_label_2
_geom_bond_distance
_geom_bond_site_symmetry_2
I0 Zr0 2.877304 1_656
I0 Rb2 3.735288 1_655
I0 Rb1 3.915583 1_556
I0 Rb3 3.982928 1_555
I1 Tc0 2.753197 1_555
I1 Rb1 3.775205 1_555
I1 Rb0 3.820264 1_545
I2 Tc0 2.753197 1_565
I2 Rb2 3.775205 1_555
I2 Rb3 3.820264 1_565
I3 Zr0 2.876337 1_556
I3 Rb3 3.790945 1_555
I3 Rb0 3.893019 1_546
I3 Rb2 4.070023 1_555
I4 Tc0 2.757396 1_565
I4 Rb3 3.707215 1_555
I4 Rb2 3.878125 1_555
I4 Rb0 3.972227 1_555
I5 Tc0 2.757400 1_555
I5 Rb1 3.815427 1_455
I5 Rb2 3.880284 1_545
I5 Rb0 3.950432 1_555
I6 Zr0 2.877304 1_565
I6 Rb1 3.735288 1_455
I6 Rb2 3.915583 1_554
I6 Rb0 3.982928 1_555
I7 Tc0 2.757400 1_565
I7 Rb2 3.815427 1_655
I7 Rb1 3.880284 1_565
I7 Rb3 3.950432 1_555
I8 Zr0 2.876337 1_665
I8 Rb0 3.790945 1_555
I8 Rb3 3.893019 1_564
I8 Rb1 4.070023 1_555
I9 Zr0 2.878260 1_665
I9 Rb0 3.782090 1_655
I9 Rb1 3.846378 1_565
I9 Rb1 4.292921 1_555
I10 Zr0 2.878260 1_556
I10 Rb3 3.782090 1_455
I10 Rb2 3.846378 1_545
I10 Rb2 4.292921 1_555
I11 Tc0 2.757396 1_555
I11 Rb0 3.707215 1_555
I11 Rb1 3.878125 1_555
I11 Rb3 3.972227 1_555
