# generated using pymatgen
data_Zr4IrPdO
_symmetry_space_group_name_H-M   'P 1'
_cell_length_a   8.86599557
_cell_length_b   8.80832806
_cell_length_c   8.86599504
_cell_angle_alpha   59.78319022
_cell_angle_beta   59.99999832
_cell_angle_gamma   59.78319079
_symmetry_Int_Tables_number   1
_chemical_formula_structural   Zr4IrPdO
_chemical_formula_sum   'Zr16 Ir4 Pd4 O4'
_cell_volume   487.98048668
_cell_formula_units_Z   4
loop_
 _symmetry_equiv_pos_site_id
 _symmetry_equiv_pos_as_xyz
  1  'x, y, z'
loop_
 _atom_site_type_symbol
 _atom_site_label
 _atom_site_symmetry_multiplicity
 _atom_site_fract_x
 _atom_site_fract_y
 _atom_site_fract_z
 _atom_site_occupancy
  Zr  Zr0  1  0.31629255  0.68462181  0.31629255  1
  Zr  Zr1  1  0.93282704  0.56918315  0.93282704  1
  Zr  Zr2  1  0.68466466  0.31395483  0.68466466  1
  Zr  Zr3  1  0.68466466  0.31395483  0.31671484  1
  Zr  Zr4  1  0.31629255  0.68462181  0.68279409  1
  Zr  Zr5  1  0.62616042  0.11976756  0.12703601  1
  Zr  Zr6  1  0.93498947  0.93257992  0.56621581  1
  Zr  Zr7  1  0.68279409  0.68462181  0.31629255  1
  Zr  Zr8  1  0.11393928  0.65818215  0.11393928  1
  Zr  Zr9  1  0.12703601  0.11976756  0.62616042  1
  Zr  Zr10  1  0.31671484  0.31395483  0.68466466  1
  Zr  Zr11  1  0.12703601  0.11976756  0.12703601  1
  Zr  Zr12  1  0.56516277  0.56918315  0.93282704  1
  Zr  Zr13  1  0.56621581  0.93257992  0.93498947  1
  Zr  Zr14  1  0.93282704  0.56918315  0.56516277  1
  Zr  Zr15  1  0.56621581  0.93257992  0.56621581  1
  Ir  Ir0  1  0.29808538  0.91021807  0.89584827  1
  Ir  Ir1  1  0.89584827  0.91021807  0.89584827  1
  Ir  Ir2  1  0.89584827  0.91021807  0.29808538  1
  Ir  Ir3  1  0.34908760  0.95273620  0.34908760  1
  Pd  Pd0  1  0.33662834  0.34818666  0.33662834  1
  Pd  Pd1  1  0.97855666  0.34818666  0.33662834  1
  Pd  Pd2  1  0.33662834  0.34818666  0.97855666  1
  Pd  Pd3  1  0.91052211  0.26843467  0.91052211  1
  O  O0  1  0.62661013  0.62071003  0.62661013  1
  O  O1  1  0.12606970  0.62071003  0.62661013  1
  O  O2  1  0.62661013  0.62071003  0.12606970  1
  O  O3  1  0.62567104  0.12298587  0.62567104  1
loop_
_geom_bond_atom_site_label_1
_geom_bond_atom_site_label_2
_geom_bond_distance
_geom_bond_site_symmetry_2
Ir0 Zr15 2.678723 1_555
Ir0 Zr13 2.678729 1_555
Ir0 Zr12 2.713588 1_555
Ir0 Zr8 2.739234 1_556
Ir0 Zr9 2.791095 1_565
Ir0 Zr11 2.791095 1_566
Ir1 Zr6 2.678720 1_555
Ir1 Zr13 2.678720 1_555
Ir1 Zr1 2.713588 1_555
Ir1 Zr8 2.739234 1_656
Ir1 Zr5 2.791095 1_566
Ir1 Zr9 2.791095 1_665
Ir2 Zr15 2.678723 1_555
Ir2 Zr6 2.678729 1_555
Ir2 Zr14 2.713588 1_555
Ir2 Zr8 2.739234 1_655
Ir2 Zr5 2.791095 1_565
Ir2 Zr11 2.791095 1_665
Ir3 Zr0 2.685759 1_555
Ir3 Zr4 2.685770 1_555
Ir3 Zr7 2.685770 1_555
Ir3 Zr11 2.821550 1_565
Ir3 Zr9 2.821557 1_565
Ir3 Zr5 2.821557 1_565
Pd0 Zr0 2.793538 1_555
Pd0 Zr5 2.808059 1_555
Pd0 Zr9 2.808059 1_555
Pd0 Zr10 2.866331 1_555
Pd0 Zr3 2.866331 1_555
Pd0 Zr8 2.880524 1_555
Pd1 Zr7 2.793534 1_555
Pd1 Zr9 2.808059 1_655
Pd1 Zr11 2.808059 1_655
Pd1 Zr2 2.866335 1_555
Pd1 Zr3 2.866340 1_555
Pd1 Zr8 2.880524 1_655
Pd2 Zr4 2.793534 1_555
Pd2 Zr5 2.808059 1_556
Pd2 Zr11 2.808059 1_556
Pd2 Zr2 2.866335 1_555
Pd2 Zr10 2.866340 1_555
Pd2 Zr8 2.880524 1_556
Pd3 Zr11 2.776531 1_656
Pd3 Zr9 2.776538 1_655
Pd3 Zr5 2.776538 1_556
Pd3 Zr1 2.861749 1_555
Pd3 Zr14 2.861754 1_555
Pd3 Zr12 2.861754 1_555
Pd3 Zr3 3.251737 1_556
Pd3 Zr10 3.251737 1_655
Pd3 Zr2 3.251752 1_555
O0 Zr2 2.301278 1_555
O0 Zr12 2.324459 1_555
O0 Zr14 2.324459 1_555
O0 Zr15 2.333522 1_555
O0 Zr7 2.342509 1_555
O0 Zr4 2.342509 1_555
O1 Zr10 2.301275 1_555
O1 Zr1 2.324459 1_455
O1 Zr14 2.324459 1_455
O1 Zr6 2.333520 1_455
O1 Zr0 2.342511 1_555
O1 Zr4 2.342518 1_555
O2 Zr3 2.301275 1_555
O2 Zr1 2.324459 1_554
O2 Zr12 2.324459 1_554
O2 Zr13 2.333520 1_554
O2 Zr0 2.342511 1_555
O2 Zr7 2.342518 1_555
O3 Zr3 2.328382 1_555
O3 Zr10 2.328382 1_555
O3 Zr2 2.328382 1_555
O3 Zr15 2.329419 1_545
O3 Zr13 2.329431 1_545
O3 Zr6 2.329431 1_545
