# generated using pymatgen
data_Sc22Os5RuPt2
_symmetry_space_group_name_H-M   'P 1'
_cell_length_a   9.48667103
_cell_length_b   9.48667159
_cell_length_c   9.45359307
_cell_angle_alpha   60.11527692
_cell_angle_beta   60.11527497
_cell_angle_gamma   59.76944908
_symmetry_Int_Tables_number   1
_chemical_formula_structural   Sc22Os5RuPt2
_chemical_formula_sum   'Sc22 Os5 Ru1 Pt2'
_cell_volume   601.58790015
_cell_formula_units_Z   1
loop_
 _symmetry_equiv_pos_site_id
 _symmetry_equiv_pos_as_xyz
  1  'x, y, z'
loop_
 _atom_site_type_symbol
 _atom_site_label
 _atom_site_symmetry_multiplicity
 _atom_site_fract_x
 _atom_site_fract_y
 _atom_site_fract_z
 _atom_site_occupancy
  Sc  Sc0  1  0.80371243  0.80371243  0.19628757  1
  Sc  Sc1  1  0.19604110  0.80395890  0.19604110  1
  Sc  Sc2  1  0.80395890  0.19604110  0.19604110  1
  Sc  Sc3  1  0.19628757  0.19628757  0.80371243  1
  Sc  Sc4  1  0.80395890  0.19604110  0.80395890  1
  Sc  Sc5  1  0.19604110  0.80395890  0.80395890  1
  Sc  Sc6  1  0.61821467  0.61821467  0.15110328  1
  Sc  Sc7  1  0.61246838  0.15110328  0.61821467  1
  Sc  Sc8  1  0.15110328  0.61246838  0.61821467  1
  Sc  Sc9  1  0.61821467  0.61821467  0.61246838  1
  Sc  Sc10  1  0.38178533  0.38178533  0.84889672  1
  Sc  Sc11  1  0.38753162  0.84889672  0.38178533  1
  Sc  Sc12  1  0.84889672  0.38753162  0.38178533  1
  Sc  Sc13  1  0.38178533  0.38178533  0.38753162  1
  Sc  Sc14  1  0.84141342  0.84141342  0.46951064  1
  Sc  Sc15  1  0.84766052  0.46951064  0.84141342  1
  Sc  Sc16  1  0.46951064  0.84766052  0.84141342  1
  Sc  Sc17  1  0.84141342  0.84141342  0.84766052  1
  Sc  Sc18  1  0.15858658  0.15858658  0.53048936  1
  Sc  Sc19  1  0.15233948  0.53048936  0.15858658  1
  Sc  Sc20  1  0.53048936  0.15233948  0.15858658  1
  Sc  Sc21  1  0.15858658  0.15858658  0.15233948  1
  Os  Os0  1  0.50000000  0.50000000  0.50000000  1
  Os  Os1  1  0.50000000  0.00000000  0.50000000  1
  Os  Os2  1  0.00000000  0.50000000  0.50000000  1
  Os  Os3  1  0.00000000  0.50000000  0.00000000  1
  Os  Os4  1  0.50000000  0.00000000  0.00000000  1
  Ru  Ru0  1  0.00000000  0.00000000  0.00000000  1
  Pt  Pt0  1  0.00000000  0.00000000  0.50000000  1
  Pt  Pt1  1  0.50000000  0.50000000  0.00000000  1
loop_
_geom_bond_atom_site_label_1
_geom_bond_atom_site_label_2
_geom_bond_distance
_geom_bond_site_symmetry_2
Sc0 Sc14 2.982850 1_555
Sc0 Sc19 2.982861 1_655
Sc0 Sc20 2.982862 1_565
Sc0 Sc17 2.982869 1_554
Sc0 Sc6 3.315475 1_555
Sc0 Sc9 3.315482 1_555
Sc0 Sc11 3.315483 1_555
Sc0 Sc12 3.315484 1_555
Sc1 Sc19 3.028605 1_555
Sc1 Sc16 3.028616 1_554
Sc1 Sc14 3.028617 1_455
Sc1 Sc21 3.028624 1_565
Sc1 Sc11 3.357040 1_555
Sc1 Sc13 3.357046 1_555
Sc1 Sc8 3.357048 1_555
Sc1 Sc6 3.357048 1_555
Sc2 Sc20 3.028605 1_555
Sc2 Sc21 3.028623 1_655
Sc2 Sc7 3.357048 1_555
Sc2 Sc6 3.357048 1_555
Sc3 Sc7 3.315483 1_555
Sc3 Sc8 3.315484 1_555
Sc4 Sc7 3.357040 1_555
Sc4 Sc9 3.357046 1_555
Sc5 Sc8 3.357040 1_555
Sc5 Sc9 3.357046 1_555
Sc10 Sc7 3.084080 1_555
Sc10 Sc8 3.084080 1_555
Sc10 Sc21 3.099156 1_556
Sc10 Sc19 3.157944 1_556
Sc10 Sc20 3.157944 1_556
Sc10 Sc9 3.183000 1_555
Sc10 Sc3 3.315475 1_555
Sc10 Sc4 3.357048 1_555
Sc10 Sc5 3.357048 1_555
Sc11 Sc6 3.084080 1_555
Sc11 Sc9 3.084094 1_555
Sc11 Sc20 3.099172 1_565
Sc11 Sc21 3.157928 1_565
Sc11 Sc18 3.157944 1_565
Sc11 Sc8 3.182987 1_555
Sc11 Sc5 3.357048 1_555
Sc12 Sc6 3.084080 1_555
Sc12 Sc9 3.084094 1_555
Sc12 Sc19 3.099172 1_655
Sc12 Sc21 3.157928 1_655
Sc12 Sc18 3.157944 1_655
Sc12 Sc7 3.182987 1_555
Sc12 Sc2 3.357040 1_555
Sc12 Sc4 3.357048 1_555
Sc13 Sc7 3.084094 1_555
Sc13 Sc8 3.084094 1_555
Sc13 Sc18 3.099149 1_555
Sc13 Sc19 3.157921 1_555
Sc13 Sc20 3.157921 1_555
Sc13 Sc6 3.183000 1_555
Sc13 Sc3 3.315482 1_555
Sc13 Sc2 3.357046 1_555
Sc14 Sc2 3.028617 1_565
Sc14 Sc9 3.099149 1_555
Sc14 Sc8 3.157944 1_655
Sc14 Sc7 3.157944 1_565
Sc15 Sc3 2.982861 1_655
Sc15 Sc4 3.028605 1_555
Sc15 Sc2 3.028616 1_556
Sc15 Sc8 3.099172 1_655
Sc15 Sc9 3.157921 1_555
Sc15 Sc6 3.157944 1_556
Sc16 Sc3 2.982862 1_565
Sc16 Sc5 3.028605 1_555
Sc16 Sc7 3.099172 1_565
Sc16 Sc9 3.157921 1_555
Sc16 Sc6 3.157944 1_556
Sc17 Sc5 3.028623 1_655
Sc17 Sc4 3.028624 1_565
Sc17 Sc6 3.099156 1_556
Sc17 Sc8 3.157928 1_655
Sc17 Sc7 3.157928 1_565
Sc18 Sc3 2.982850 1_555
Sc18 Sc4 3.028617 1_455
Sc18 Sc5 3.028617 1_545
Sc19 Sc5 3.028616 1_554
Sc20 Sc4 3.028616 1_554
Sc21 Sc3 2.982869 1_554
Os0 Sc12 2.699749 1_555
Os0 Sc8 2.699749 1_555
Os0 Sc7 2.699750 1_555
Os0 Sc11 2.699750 1_555
Os0 Sc10 2.699750 1_555
Os0 Sc6 2.699750 1_555
Os0 Sc9 2.699757 1_555
Os0 Sc13 2.699757 1_555
Os1 Sc16 2.726159 1_545
Os1 Sc20 2.726159 1_555
Os1 Sc14 2.726159 1_545
Os1 Sc18 2.726159 1_555
Os1 Sc13 2.960875 1_555
Os1 Sc9 2.960875 1_545
Os1 Sc11 2.960883 1_545
Os1 Sc7 2.960883 1_555
Os2 Sc15 2.726159 1_455
Os2 Sc19 2.726159 1_555
Os2 Sc14 2.726160 1_455
Os2 Sc18 2.726160 1_555
Os2 Sc13 2.960875 1_555
Os2 Sc9 2.960875 1_455
Os2 Sc8 2.960883 1_555
Os2 Sc12 2.960883 1_455
Os3 Sc21 2.726164 1_555
Os3 Sc17 2.726164 1_454
Os3 Sc19 2.726176 1_555
Os3 Sc15 2.726176 1_454
Os3 Sc10 2.960876 1_554
Os3 Sc6 2.960876 1_455
Os3 Sc12 2.960876 1_455
Os3 Sc8 2.960876 1_554
Os4 Sc17 2.726163 1_544
Os4 Sc21 2.726163 1_555
Os4 Sc20 2.726176 1_555
Os4 Sc16 2.726176 1_544
Os4 Sc11 2.960876 1_545
Os4 Sc7 2.960876 1_554
Os4 Sc10 2.960876 1_554
Os4 Sc6 2.960876 1_545
Ru0 Sc1 2.620952 1_545
Ru0 Sc4 2.620952 1_454
Ru0 Sc2 2.620952 1_455
Ru0 Sc5 2.620952 1_544
Ru0 Sc3 2.642580 1_554
Ru0 Sc0 2.642580 1_445
Pt0 Sc17 2.784458 1_445
Pt0 Sc21 2.784458 1_555
Pt0 Sc18 2.784470 1_555
Pt0 Sc14 2.784470 1_445
Pt0 Sc11 3.002508 1_545
Pt0 Sc7 3.002508 1_455
Pt0 Sc8 3.002509 1_545
Pt0 Sc12 3.002509 1_455
Pt1 Sc15 2.784453 1_554
Pt1 Sc19 2.784453 1_555
Pt1 Sc16 2.784454 1_554
Pt1 Sc20 2.784454 1_555
Pt1 Sc13 3.002508 1_555
Pt1 Sc9 3.002508 1_554
Pt1 Sc6 3.002516 1_555
Pt1 Sc10 3.002516 1_554
