# generated using pymatgen
data_Ca3Ga3Si2SbO14
_symmetry_space_group_name_H-M   'P 1'
_cell_length_a   8.10940488
_cell_length_b   8.10933031
_cell_length_c   4.99965332
_cell_angle_alpha   89.99988493
_cell_angle_beta   90.00010579
_cell_angle_gamma   119.99981258
_symmetry_Int_Tables_number   1
_chemical_formula_structural   Ca3Ga3Si2SbO14
_chemical_formula_sum   'Ca3 Ga3 Si2 Sb1 O14'
_cell_volume   284.73792601
_cell_formula_units_Z   1
loop_
 _symmetry_equiv_pos_site_id
 _symmetry_equiv_pos_as_xyz
  1  'x, y, z'
loop_
 _atom_site_type_symbol
 _atom_site_label
 _atom_site_symmetry_multiplicity
 _atom_site_fract_x
 _atom_site_fract_y
 _atom_site_fract_z
 _atom_site_occupancy
  Ca  Ca0  1  0.42683899  0.00000406  0.00000066  1
  Ca  Ca1  1  0.99999800  0.42683740  0.00000000  1
  Ca  Ca2  1  0.57315901  0.57316507  0.00000134  1
  Ga  Ga0  1  0.25279681  0.25279239  0.49999662  1
  Ga  Ga1  1  0.99999900  0.74720640  0.50000100  1
  Ga  Ga2  1  0.74720419  0.99999658  0.50000438  1
  Si  Si0  1  0.66666622  0.33333165  0.45158110  1
  Si  Si1  1  0.33333378  0.66666643  0.54841890  1
  Sb  Sb0  1  1.00000000  0.99999924  0.00000000  1
  O  O0  1  0.33333787  0.66666911  0.22817813  1
  O  O1  1  0.14029301  0.91511376  0.23372009  1
  O  O2  1  0.08488827  0.22517886  0.23371956  1
  O  O3  1  0.77482480  0.85970744  0.23372503  1
  O  O4  1  0.47606307  0.31958580  0.31330385  1
  O  O5  1  0.68041196  0.15647229  0.31331208  1
  O  O6  1  0.84352557  0.52393591  0.31331389  1
  O  O7  1  0.15647543  0.68041134  0.68668611  1
  O  O8  1  0.31958704  0.47605934  0.68668792  1
  O  O9  1  0.52393793  0.84352173  0.68669615  1
  O  O10  1  0.22517620  0.08488263  0.76627697  1
  O  O11  1  0.91511273  0.14029159  0.76628144  1
  O  O12  1  0.85970699  0.77482075  0.76628091  1
  O  O13  1  0.66666313  0.33333024  0.77182187  1
loop_
_geom_bond_atom_site_label_1
_geom_bond_atom_site_label_2
_geom_bond_distance
_geom_bond_site_symmetry_2
Ca0 O10 2.374718 1_554
Ca0 O1 2.374732 1_545
Ca0 O5 2.383917 1_555
Ca0 O9 2.383938 1_544
Ca0 O13 2.670836 1_554
Ca0 O0 2.670886 1_545
Ca0 O4 2.880078 1_555
Ca0 O7 2.880180 1_544
Ca1 O11 2.374718 1_554
Ca1 O2 2.374731 1_655
Ca1 O6 2.383915 1_555
Ca1 O7 2.383927 1_654
Ca1 O13 2.670900 1_554
Ca1 O0 2.670932 1_655
Ca1 O5 2.880154 1_555
Ca1 O8 2.880177 1_654
Ca2 O3 2.374728 1_555
Ca2 O12 2.374742 1_554
Ca2 O4 2.383916 1_555
Ca2 O8 2.383917 1_554
Ca2 O0 2.670828 1_555
Ca2 O13 2.670920 1_554
Ca2 O9 2.880060 1_554
Ca2 O6 2.880195 1_555
Ga0 O10 1.836195 1_555
Ga0 O2 1.836200 1_555
Ga0 O8 1.860651 1_555
Ga0 O4 1.860660 1_555
Ga1 O12 1.836198 1_555
Ga1 O1 1.836205 1_655
Ga1 O6 1.860658 1_555
Ga1 O7 1.860664 1_655
Ga2 O3 1.836196 1_555
Ga2 O11 1.836201 1_565
Ga2 O5 1.860656 1_565
Ga2 O9 1.860659 1_555
O0 Si1 1.601093 1_555
O1 Sb0 1.979081 1_455
O2 Sb0 1.979082 1_445
O3 Sb0 1.979087 1_555
O4 Si0 1.645356 1_555
O5 Si0 1.645343 1_555
O6 Si0 1.645343 1_555
O7 Si1 1.645340 1_555
O8 Si1 1.645351 1_555
O9 Si1 1.645352 1_555
O10 Sb0 1.979089 1_446
O11 Sb0 1.979078 1_546
O12 Sb0 1.979079 1_556
O13 Si0 1.601093 1_555
