# generated using pymatgen
data_Rb7(FeO4)2
_symmetry_space_group_name_H-M   'P 1'
_cell_length_a   10.65344300
_cell_length_b   6.52820200
_cell_length_c   21.02570497
_cell_angle_alpha   87.04644106
_cell_angle_beta   90.00000000
_cell_angle_gamma   90.00000000
_symmetry_Int_Tables_number   1
_chemical_formula_structural   Rb7(FeO4)2
_chemical_formula_sum   'Rb28 Fe8 O32'
_cell_volume   1460.34964197
_cell_formula_units_Z   4
loop_
 _symmetry_equiv_pos_site_id
 _symmetry_equiv_pos_as_xyz
  1  'x, y, z'
loop_
 _atom_site_type_symbol
 _atom_site_label
 _atom_site_symmetry_multiplicity
 _atom_site_fract_x
 _atom_site_fract_y
 _atom_site_fract_z
 _atom_site_occupancy
  Rb  Rb0  1  0.54655600  0.58572500  0.86637200  1
  Rb  Rb1  1  0.04655600  0.41427500  0.63362800  1
  Rb  Rb2  1  0.45344400  0.41427500  0.13362800  1
  Rb  Rb3  1  0.95344400  0.58572500  0.36637200  1
  Rb  Rb4  1  0.88986600  0.80269700  0.53377200  1
  Rb  Rb5  1  0.38986600  0.19730300  0.96622800  1
  Rb  Rb6  1  0.11013400  0.19730300  0.46622800  1
  Rb  Rb7  1  0.61013400  0.80269700  0.03377200  1
  Rb  Rb8  1  0.84223700  0.90279700  0.88504100  1
  Rb  Rb9  1  0.34223700  0.09720300  0.61495900  1
  Rb  Rb10  1  0.15776300  0.09720300  0.11495900  1
  Rb  Rb11  1  0.65776300  0.90279700  0.38504100  1
  Rb  Rb12  1  0.83826000  0.40091200  0.80355800  1
  Rb  Rb13  1  0.33826000  0.59908800  0.69644200  1
  Rb  Rb14  1  0.16174000  0.59908800  0.19644200  1
  Rb  Rb15  1  0.66174000  0.40091200  0.30355800  1
  Rb  Rb16  1  0.55682900  0.71150900  0.54759100  1
  Rb  Rb17  1  0.05682900  0.28849100  0.95240900  1
  Rb  Rb18  1  0.44317100  0.28849100  0.45240900  1
  Rb  Rb19  1  0.94317100  0.71150900  0.04759100  1
  Rb  Rb20  1  0.00314200  0.88262100  0.71536600  1
  Rb  Rb21  1  0.50314200  0.11737900  0.78463400  1
  Rb  Rb22  1  0.99685800  0.11737900  0.28463400  1
  Rb  Rb23  1  0.49685800  0.88262100  0.21536600  1
  Rb  Rb24  1  0.70772800  0.21988800  0.63727000  1
  Rb  Rb25  1  0.20772800  0.78011200  0.86273000  1
  Rb  Rb26  1  0.29227200  0.78011200  0.36273000  1
  Rb  Rb27  1  0.79227200  0.21988800  0.13727000  1
  Fe  Fe0  1  0.22220100  0.71877400  0.52553700  1
  Fe  Fe1  1  0.72220100  0.28122600  0.97446300  1
  Fe  Fe2  1  0.77779900  0.28122600  0.47446300  1
  Fe  Fe3  1  0.27779900  0.71877400  0.02553700  1
  Fe  Fe4  1  0.33094600  0.28188700  0.29486800  1
  Fe  Fe5  1  0.16905400  0.28188700  0.79486800  1
  Fe  Fe6  1  0.83094600  0.71811300  0.20513200  1
  Fe  Fe7  1  0.66905400  0.71811300  0.70513200  1
  O  O0  1  0.74146300  0.85994800  0.76595900  1
  O  O1  1  0.24146300  0.14005200  0.73404100  1
  O  O2  1  0.25853700  0.14005200  0.23404100  1
  O  O3  1  0.75853700  0.85994800  0.26595900  1
  O  O4  1  0.80006200  0.64729400  0.65725000  1
  O  O5  1  0.30006200  0.35270600  0.84275000  1
  O  O6  1  0.19993800  0.35270600  0.34275000  1
  O  O7  1  0.69993800  0.64729400  0.15725000  1
  O  O8  1  0.59082500  0.48274400  0.73010700  1
  O  O9  1  0.09082500  0.51725600  0.76989300  1
  O  O10  1  0.40917500  0.51725600  0.26989300  1
  O  O11  1  0.90917500  0.48274400  0.23010700  1
  O  O12  1  0.54145200  0.87296600  0.67307800  1
  O  O13  1  0.04145200  0.12703400  0.82692200  1
  O  O14  1  0.45854800  0.12703400  0.32692200  1
  O  O15  1  0.95854800  0.87296600  0.17307800  1
  O  O16  1  0.79999100  0.51118300  0.94211700  1
  O  O17  1  0.20000900  0.48881700  0.05788300  1
  O  O18  1  0.70000900  0.51118300  0.44211700  1
  O  O19  1  0.34082300  0.89079300  0.49266500  1
  O  O20  1  0.88996700  0.27743700  0.53809600  1
  O  O21  1  0.38996700  0.72256300  0.96190400  1
  O  O22  1  0.11003300  0.72256300  0.46190400  1
  O  O23  1  0.61003300  0.27743700  0.03809600  1
  O  O24  1  0.14093600  0.80697900  0.59429400  1
  O  O25  1  0.64093600  0.19302100  0.90570600  1
  O  O26  1  0.85906400  0.19302100  0.40570600  1
  O  O27  1  0.35906400  0.80697900  0.09429400  1
  O  O28  1  0.15917700  0.89079300  0.99266500  1
  O  O29  1  0.65917700  0.10920700  0.50733500  1
  O  O30  1  0.84082300  0.10920700  0.00733500  1
  O  O31  1  0.29999100  0.48881700  0.55788300  1
loop_
_geom_bond_atom_site_label_1
_geom_bond_atom_site_label_2
_geom_bond_distance
_geom_bond_site_symmetry_2
Fe0 O22 1.793104 1_555
Fe0 O19 1.804385 1_555
Fe0 O24 1.804668 1_555
Fe0 O31 1.815966 1_555
Fe1 O23 1.793104 1_556
Fe1 O30 1.804385 1_556
Fe1 O25 1.804668 1_555
Fe1 O16 1.815966 1_555
Fe2 O20 1.793104 1_555
Fe2 O29 1.804385 1_555
Fe2 O26 1.804668 1_555
Fe2 O18 1.815966 1_555
Fe3 O21 1.793104 1_554
Fe3 O28 1.804385 1_554
Fe3 O27 1.804668 1_555
Fe3 O17 1.815966 1_555
Fe4 O2 1.791677 1_555
Fe4 O6 1.795326 1_555
Fe4 O10 1.802252 1_555
Fe4 O14 1.803863 1_555
Fe5 O1 1.791677 1_555
Fe5 O5 1.795326 1_555
Fe5 O9 1.802252 1_555
Fe5 O13 1.803863 1_555
Fe6 O3 1.791677 1_555
Fe6 O7 1.795326 1_555
Fe6 O11 1.802252 1_555
Fe6 O15 1.803863 1_555
Fe7 O0 1.791677 1_555
Fe7 O4 1.795326 1_555
Fe7 O8 1.802252 1_555
Fe7 O12 1.803863 1_555
O0 Rb8 2.751717 1_555
O0 Rb20 2.984792 1_655
O0 Rb21 3.081019 1_565
O0 Rb12 3.228674 1_555
O0 Rb0 3.403560 1_555
O1 Rb9 2.751717 1_555
O1 Rb21 2.984792 1_555
O1 Rb20 3.081019 1_545
O1 Rb13 3.228674 1_555
O1 Rb1 3.403560 1_555
O2 Rb10 2.751717 1_555
O2 Rb22 2.984792 1_455
O2 Rb23 3.081019 1_545
O2 Rb14 3.228674 1_555
O2 Rb2 3.403560 1_555
O3 Rb11 2.751717 1_555
O3 Rb23 2.984792 1_555
O3 Rb22 3.081019 1_565
O3 Rb15 3.228674 1_555
O3 Rb3 3.403560 1_555
O4 Rb4 2.900590 1_555
O4 Rb20 2.954218 1_655
O4 Rb24 3.008332 1_555
O4 Rb1 3.087799 1_655
O4 Rb12 3.421394 1_555
O5 Rb5 2.900590 1_555
O5 Rb21 2.954218 1_555
O5 Rb25 3.008332 1_555
O5 Rb0 3.087799 1_555
O5 Rb13 3.421394 1_555
O6 Rb6 2.900590 1_555
O6 Rb22 2.954218 1_455
O6 Rb26 3.008332 1_555
O6 Rb3 3.087799 1_455
O6 Rb14 3.421394 1_555
O7 Rb7 2.900590 1_555
O7 Rb23 2.954218 1_555
O7 Rb27 3.008332 1_555
O7 Rb2 3.087799 1_555
O7 Rb15 3.421394 1_555
O8 Rb21 2.755766 1_555
O8 Rb13 2.874419 1_555
O8 Rb24 2.941256 1_555
O8 Rb0 3.013551 1_555
O8 Rb12 3.087732 1_555
O9 Rb20 2.755766 1_555
O9 Rb12 2.874419 1_455
O9 Rb25 2.941256 1_555
O9 Rb1 3.013551 1_555
O9 Rb13 3.087732 1_555
O10 Rb23 2.755766 1_555
O10 Rb15 2.874419 1_555
O10 Rb26 2.941256 1_555
O10 Rb2 3.013551 1_555
O10 Rb14 3.087732 1_555
O11 Rb22 2.755766 1_555
O11 Rb14 2.874419 1_655
O11 Rb27 2.941256 1_555
O11 Rb3 3.013551 1_555
O11 Rb15 3.087732 1_555
O12 Rb9 2.820654 1_565
O12 Rb13 2.834327 1_555
O12 Rb16 2.895829 1_555
O12 Rb21 2.932523 1_565
O12 Rb24 2.942488 1_565
O13 Rb8 2.820654 1_445
O13 Rb12 2.834327 1_455
O13 Rb17 2.895829 1_555
O13 Rb20 2.932523 1_545
O13 Rb25 2.942488 1_545
O14 Rb11 2.820654 1_545
O14 Rb15 2.834327 1_555
O14 Rb18 2.895829 1_555
O14 Rb23 2.932523 1_545
O14 Rb26 2.942488 1_545
O15 Rb10 2.820654 1_665
O15 Rb14 2.834327 1_655
O15 Rb19 2.895829 1_555
O15 Rb22 2.932523 1_565
O15 Rb27 2.942488 1_565
O16 Rb8 2.804000 1_555
O16 Rb19 3.042021 1_556
O16 Rb12 3.063964 1_555
O16 Rb17 3.100761 1_655
O16 Rb0 3.159596 1_555
O16 Rb7 3.435750 1_556
O17 Rb10 2.804000 1_555
O17 Rb17 3.042021 1_554
O17 Rb14 3.063964 1_555
O17 Rb19 3.100761 1_455
O17 Rb2 3.159596 1_555
O17 Rb5 3.435750 1_554
O18 Rb11 2.804000 1_555
O18 Rb16 3.042021 1_555
O18 Rb15 3.063964 1_555
O18 Rb18 3.100761 1_555
O18 Rb3 3.159596 1_555
O18 Rb4 3.435750 1_555
O19 Rb16 2.803534 1_555
O19 Rb18 2.901614 1_565
O19 Rb26 2.908044 1_555
O19 Rb9 2.963896 1_565
O19 Rb6 3.199711 1_565
O20 Rb1 2.792924 1_655
O20 Rb6 2.853072 1_655
O20 Rb24 2.859686 1_555
O20 Rb4 3.105211 1_545
O20 Rb4 3.425522 1_555
O21 Rb0 2.792924 1_555
O21 Rb7 2.853072 1_556
O21 Rb25 2.859686 1_555
O21 Rb5 3.105211 1_565
O21 Rb5 3.425522 1_555
O22 Rb3 2.792924 1_455
O22 Rb4 2.853072 1_455
O22 Rb26 2.859686 1_555
O22 Rb6 3.105211 1_565
O22 Rb6 3.425522 1_555
O23 Rb2 2.792924 1_555
O23 Rb5 2.853072 1_554
O23 Rb27 2.859686 1_555
O23 Rb7 3.105211 1_545
O23 Rb7 3.425522 1_555
O24 Rb1 2.837033 1_555
O24 Rb9 2.909016 1_565
O24 Rb4 2.962784 1_455
O24 Rb20 3.001426 1_555
O24 Rb13 3.251678 1_555
O25 Rb0 2.837033 1_555
O25 Rb8 2.909016 1_545
O25 Rb5 2.962784 1_555
O25 Rb21 3.001426 1_555
O25 Rb12 3.251678 1_555
O26 Rb3 2.837033 1_555
O26 Rb11 2.909016 1_545
O26 Rb6 2.962784 1_655
O26 Rb22 3.001426 1_555
O26 Rb15 3.251678 1_555
O27 Rb2 2.837033 1_555
O27 Rb10 2.909016 1_565
O27 Rb7 2.962784 1_555
O27 Rb23 3.001426 1_555
O27 Rb14 3.251678 1_555
O28 Rb19 2.803534 1_456
O28 Rb17 2.901614 1_565
O28 Rb25 2.908044 1_555
O28 Rb10 2.963896 1_566
O28 Rb5 3.199711 1_565
O29 Rb18 2.803534 1_555
O29 Rb16 2.901614 1_545
O29 Rb24 2.908044 1_555
O29 Rb11 2.963896 1_545
O29 Rb4 3.199711 1_545
O30 Rb17 2.803534 1_654
O30 Rb19 2.901614 1_545
O30 Rb27 2.908044 1_555
O30 Rb8 2.963896 1_544
O30 Rb7 3.199711 1_545
O31 Rb9 2.804000 1_555
O31 Rb18 3.042021 1_555
O31 Rb13 3.063964 1_555
O31 Rb16 3.100761 1_555
O31 Rb1 3.159596 1_555
O31 Rb6 3.435750 1_555
