# generated using pymatgen
data_Ti8Al15Os5Pt2
_symmetry_space_group_name_H-M   'P 1'
_cell_length_a   8.64357293
_cell_length_b   8.64052933
_cell_length_c   8.64355290
_cell_angle_alpha   120.33366171
_cell_angle_beta   119.91887324
_cell_angle_gamma   89.79210699
_symmetry_Int_Tables_number   1
_chemical_formula_structural   Ti8Al15Os5Pt2
_chemical_formula_sum   'Ti8 Al15 Os5 Pt2'
_cell_volume   455.54559422
_cell_formula_units_Z   1
loop_
 _symmetry_equiv_pos_site_id
 _symmetry_equiv_pos_as_xyz
  1  'x, y, z'
loop_
 _atom_site_type_symbol
 _atom_site_label
 _atom_site_symmetry_multiplicity
 _atom_site_fract_x
 _atom_site_fract_y
 _atom_site_fract_z
 _atom_site_occupancy
  Ti  Ti0  1  0.79780229  0.28827729  0.06727769  1
  Ti  Ti1  1  0.22099448  0.28827423  0.49047059  1
  Ti  Ti2  1  0.21081355  0.70076796  0.48995744  1
  Ti  Ti3  1  0.21056229  0.71612330  0.93044720  1
  Ti  Ti4  1  0.78567482  0.71612037  0.50556053  1
  Ti  Ti5  1  0.77867338  0.29291435  0.51424757  1
  Ti  Ti6  1  0.38485947  0.12771654  0.74285657  1
  Ti  Ti7  1  0.37910403  0.63537963  0.25627540  1
  Al  Al0  1  0.99559634  0.49571497  0.50011837  1
  Al  Al1  1  0.15964966  0.34012547  0.18047595  1
  Al  Al2  1  0.15359436  0.96317166  0.80957358  1
  Al  Al3  1  0.15264010  0.34638948  0.80491780  1
  Al  Al4  1  0.54147384  0.34639241  0.19374781  1
  Al  Al5  1  0.84320647  0.65901332  0.81580995  1
  Al  Al6  1  0.84689241  0.04492575  0.19802723  1
  Al  Al7  1  0.84184891  0.65373864  0.18780096  1
  Al  Al8  1  0.46593807  0.65373739  0.81189101  1
  Al  Al9  1  0.37805392  0.12044839  0.25841674  1
  Al  Al10  1  0.86203287  0.12044339  0.74239401  1
  Al  Al11  1  0.61821130  0.87466866  0.25646215  1
  Al  Al12  1  0.62045249  0.36641674  0.74595704  1
  Al  Al13  1  0.62175153  0.87680991  0.74052691  1
  Al  Al14  1  0.13628399  0.87680953  0.25506104  1
  Os  Os0  1  0.49793628  0.49830769  0.00037408  1
  Os  Os1  1  0.49891435  0.49835149  0.49914500  1
  Os  Os2  1  0.99920373  0.49834807  0.99943484  1
  Os  Os3  1  0.99964210  0.00208139  0.00244110  1
  Os  Os4  1  0.49931548  0.00024054  0.50092602  1
  Pt  Pt0  1  0.99976640  0.99914593  0.50002914  1
  Pt  Pt1  1  0.49911009  0.99914149  0.99937328  1
loop_
_geom_bond_atom_site_label_1
_geom_bond_atom_site_label_2
_geom_bond_distance
_geom_bond_site_symmetry_2
Ti0 Ti6 2.941094 1_554
Ti1 Ti6 2.941105 1_555
Ti2 Ti7 2.878750 1_555
Ti2 Ti6 3.043887 1_565
Ti3 Ti7 2.902611 1_556
Ti4 Ti7 2.902608 1_555
Al0 Ti3 2.625053 1_655
Al0 Ti4 2.625055 1_555
Al0 Ti2 2.636561 1_655
Al0 Ti0 2.645949 1_555
Al0 Ti1 2.645951 1_655
Al0 Ti5 2.658852 1_555
Al1 Os3 2.485675 1_455
Al1 Os1 2.494659 1_555
Al1 Os2 2.494659 1_454
Al1 Ti1 2.730368 1_555
Al1 Ti0 2.730380 1_455
Al1 Ti2 2.733473 1_555
Al1 Al10 2.759960 1_454
Al1 Al9 2.759973 1_555
Al1 Ti7 2.764570 1_555
Al2 Os3 2.511261 1_466
Al2 Pt1 2.512246 1_555
Al2 Pt0 2.512257 1_455
Al2 Ti4 2.760876 1_455
Al2 Ti3 2.760890 1_555
Al2 Al9 2.801346 1_566
Al2 Ti2 2.836444 1_555
Al2 Ti6 2.889368 1_565
Al3 Os0 2.498719 1_556
Al3 Pt0 2.502333 1_445
Al3 Os2 2.508313 1_455
Al3 Ti3 2.757265 1_555
Al3 Ti5 2.776914 1_455
Al3 Ti7 2.804437 1_556
Al3 Ti6 2.812374 1_555
Al3 Ti1 2.865244 1_555
Al4 Os0 2.498668 1_555
Al4 Pt1 2.502378 1_544
Al4 Os1 2.508331 1_555
Al4 Ti4 2.757217 1_555
Al4 Ti5 2.776990 1_555
Al4 Ti7 2.804444 1_555
Al4 Ti6 2.812347 1_554
Al4 Al9 2.833542 1_555
Al4 Ti0 2.865222 1_555
Al5 Os3 2.498160 1_566
Al5 Os2 2.518240 1_555
Al5 Os1 2.518249 1_555
Al5 Ti5 2.710317 1_555
Al5 Ti4 2.772464 1_555
Al5 Ti3 2.772467 1_655
Al6 Pt0 2.512943 1_545
Al6 Pt1 2.512943 1_544
Al6 Os3 2.515774 1_555
Al6 Ti1 2.791760 1_655
Al6 Ti0 2.791769 1_555
Al6 Ti5 2.844768 1_555
Al7 Pt0 2.504599 1_555
Al7 Os2 2.508230 1_554
Al7 Os0 2.508410 1_555
Al7 Ti0 2.737171 1_555
Al7 Ti2 2.790276 1_655
Al7 Ti4 2.811230 1_555
Al8 Pt1 2.504594 1_555
Al8 Os1 2.508234 1_555
Al8 Os0 2.508408 1_556
Al8 Ti1 2.737189 1_555
Al8 Ti2 2.790266 1_555
Al8 Ti3 2.811221 1_555
Al9 Os4 2.563350 1_555
Al9 Os1 2.660200 1_555
Al9 Os3 2.675669 1_455
Al9 Pt1 2.676846 1_544
Al9 Ti1 2.780824 1_555
Al9 Ti5 2.858660 1_555
Al9 Ti3 2.876902 1_544
Al10 Os4 2.563350 1_555
Al10 Os2 2.660210 1_555
Al10 Os3 2.675652 1_556
Al10 Pt0 2.676837 1_545
Al10 Ti0 2.780825 1_556
Al10 Al2 2.801301 1_645
Al10 Al3 2.833515 1_655
Al10 Ti5 2.858654 1_555
Al10 Ti4 2.876887 1_545
Al10 Al13 2.951143 1_545
Al10 Al11 2.964074 1_545
Al10 Al12 2.973901 1_555
Al11 Os4 2.557473 1_565
Al11 Os0 2.648380 1_555
Al11 Pt0 2.697821 1_555
Al11 Pt1 2.697868 1_554
Al11 Al7 2.776004 1_555
Al11 Al8 2.776006 1_554
Al11 Al6 2.844969 1_565
Al11 Ti4 2.909255 1_555
Al11 Ti3 2.909269 1_554
Al11 Ti7 2.927565 1_555
Al11 Ti5 2.961181 1_565
Al11 Al9 2.964122 1_565
Al12 Os4 2.576033 1_555
Al12 Os0 2.653115 1_556
Al12 Os1 2.677018 1_555
Al12 Os2 2.677047 1_555
Al12 Al8 2.752805 1_555
Al12 Al7 2.752838 1_556
Al12 Ti5 2.779577 1_555
Al12 Al5 2.792356 1_555
Al12 Ti1 2.856363 1_555
Al12 Ti0 2.856381 1_556
Al12 Ti6 2.884719 1_555
Al12 Al9 2.973803 1_555
Al13 Os4 2.565718 1_565
Al13 Os1 2.664171 1_555
Al13 Os3 2.672031 1_566
Al13 Pt1 2.686225 1_555
Al13 Al5 2.756292 1_555
Al13 Al8 2.820975 1_555
Al13 Ti4 2.840439 1_555
Al13 Al6 2.841916 1_566
Al13 Ti0 2.922687 1_566
Al13 Ti2 2.942546 1_555
Al13 Ti7 2.953858 1_555
Al13 Ti6 2.976230 1_565
Al14 Os4 2.565716 1_565
Al14 Os2 2.664192 1_454
Al14 Os3 2.672041 1_465
Al14 Pt0 2.686211 1_455
Al14 Al5 2.756272 1_454
Al14 Al7 2.820950 1_455
Al14 Ti3 2.840453 1_554
Al14 Al6 2.841980 1_465
Al14 Ti1 2.922678 1_565
Al14 Ti2 2.942546 1_555
Al14 Al9 2.951176 1_565
Al14 Ti7 2.953864 1_555
Al14 Ti6 2.976195 1_565
Os0 Ti6 2.610848 1_554
Os0 Ti7 2.638495 1_555
Os0 Ti0 3.142696 1_555
Os0 Ti1 3.142725 1_554
Os1 Ti7 2.685922 1_555
Os1 Ti1 2.964062 1_555
Os1 Ti5 2.983836 1_555
Os1 Ti2 3.029500 1_555
Os1 Ti4 3.078735 1_555
Os2 Ti7 2.685938 1_656
Os2 Ti0 2.964015 1_556
Os2 Ti5 2.983769 1_555
Os2 Ti2 3.029513 1_656
Os2 Ti3 3.078778 1_655
Os3 Ti1 3.002800 1_655
Os3 Ti0 3.002852 1_555
Os3 Ti4 3.059723 1_544
Os3 Ti3 3.059725 1_644
Os4 Ti6 2.508807 1_555
Os4 Ti7 2.566784 1_545
Pt0 Ti6 2.724225 1_665
Pt0 Ti2 3.143199 1_655
Pt0 Ti5 3.161358 1_565
Pt0 Ti1 3.210171 1_665
Pt1 Ti6 2.724218 1_565
Pt1 Ti2 3.143122 1_555
Pt1 Ti5 3.161421 1_566
Pt1 Ti0 3.210226 1_566
