# generated using pymatgen
data_Y2HfBe2Ir5
_symmetry_space_group_name_H-M   'P 1'
_cell_length_a   9.85689817
_cell_length_b   9.85689817
_cell_length_c   3.19779991
_cell_angle_alpha   90.00000000
_cell_angle_beta   90.00000000
_cell_angle_gamma   90.00000000
_symmetry_Int_Tables_number   1
_chemical_formula_structural   Y2HfBe2Ir5
_chemical_formula_sum   'Y4 Hf2 Be4 Ir10'
_cell_volume   310.69325514
_cell_formula_units_Z   2
loop_
 _symmetry_equiv_pos_site_id
 _symmetry_equiv_pos_as_xyz
  1  'x, y, z'
loop_
 _atom_site_type_symbol
 _atom_site_label
 _atom_site_symmetry_multiplicity
 _atom_site_fract_x
 _atom_site_fract_y
 _atom_site_fract_z
 _atom_site_occupancy
  Y  Y0  1  0.17616550  0.67616550  0.00000000  1
  Y  Y1  1  0.32383450  0.17616550  0.00000000  1
  Y  Y2  1  0.82383450  0.32383450  0.00000000  1
  Y  Y3  1  0.67616550  0.82383450  0.00000000  1
  Hf  Hf0  1  0.50000000  0.50000000  0.00000000  1
  Hf  Hf1  1  0.00000000  0.00000000  0.00000000  1
  Be  Be0  1  0.37954134  0.87954134  0.00000000  1
  Be  Be1  1  0.12045866  0.37954134  0.00000000  1
  Be  Be2  1  0.87954134  0.62045866  0.00000000  1
  Be  Be3  1  0.62045866  0.12045866  0.00000000  1
  Ir  Ir0  1  0.21710706  0.93174384  0.50000000  1
  Ir  Ir1  1  0.93174384  0.78289294  0.50000000  1
  Ir  Ir2  1  0.43174384  0.71710706  0.50000000  1
  Ir  Ir3  1  0.56825616  0.28289294  0.50000000  1
  Ir  Ir4  1  0.71710706  0.56825616  0.50000000  1
  Ir  Ir5  1  0.28289294  0.43174384  0.50000000  1
  Ir  Ir6  1  0.06825616  0.21710706  0.50000000  1
  Ir  Ir7  1  0.00000000  0.50000000  0.50000000  1
  Ir  Ir8  1  0.50000000  0.00000000  0.50000000  1
  Ir  Ir9  1  0.78289294  0.06825616  0.50000000  1
loop_
_geom_bond_atom_site_label_1
_geom_bond_atom_site_label_2
_geom_bond_distance
_geom_bond_site_symmetry_2
Hf0 Ir4 2.754767 1_554
Hf0 Ir4 2.754767 1_555
Hf0 Ir2 2.754767 1_554
Hf0 Ir2 2.754767 1_555
Hf0 Ir3 2.754767 1_555
Hf0 Ir3 2.754767 1_554
Hf0 Ir5 2.754767 1_555
Hf0 Ir5 2.754767 1_554
Hf1 Ir6 2.754767 1_555
Hf1 Ir6 2.754767 1_554
Hf1 Ir0 2.754767 1_545
Hf1 Ir0 2.754767 1_544
Hf1 Ir9 2.754767 1_455
Hf1 Ir9 2.754767 1_454
Hf1 Ir1 2.754767 1_444
Hf1 Ir1 2.754767 1_445
Be0 Ir8 2.318636 1_565
Be0 Ir8 2.318636 1_564
Be0 Ir0 2.320509 1_555
Be0 Ir0 2.320509 1_554
Be0 Ir2 2.320509 1_555
Be0 Ir2 2.320509 1_554
Be0 Y0 2.835010 1_555
Be0 Y3 2.974908 1_555
Be0 Y1 2.974908 1_565
Be1 Ir7 2.318636 1_555
Be1 Ir7 2.318636 1_554
Be1 Ir6 2.320509 1_555
Be1 Ir6 2.320509 1_554
Be1 Ir5 2.320509 1_554
Be1 Ir5 2.320509 1_555
Be1 Y1 2.835010 1_555
Be1 Y2 2.974908 1_455
Be1 Y0 2.974908 1_555
Be2 Ir7 2.318636 1_655
Be2 Ir7 2.318636 1_654
Be2 Ir4 2.320509 1_555
Be2 Ir4 2.320509 1_554
Be2 Ir1 2.320509 1_555
Be2 Ir1 2.320509 1_554
Be2 Y3 2.835010 1_555
Be2 Y0 2.974908 1_655
Be2 Y2 2.974908 1_555
Be3 Ir8 2.318636 1_555
Be3 Ir8 2.318636 1_554
Be3 Ir9 2.320509 1_554
Be3 Ir9 2.320509 1_555
Be3 Ir3 2.320509 1_555
Be3 Ir3 2.320509 1_554
Be3 Y2 2.835010 1_555
Be3 Y3 2.974908 1_545
Be3 Y1 2.974908 1_555
Ir0 Y0 3.010939 1_556
Ir0 Y0 3.010939 1_555
Ir0 Y1 3.076950 1_565
Ir0 Y1 3.076950 1_566
Ir1 Y3 3.010939 1_556
Ir1 Y3 3.010939 1_555
Ir1 Y0 3.076950 1_655
Ir1 Y0 3.076950 1_656
Ir2 Y0 3.010939 1_556
Ir2 Y0 3.010939 1_555
Ir2 Y3 3.076950 1_556
Ir2 Y3 3.076950 1_555
Ir3 Y2 3.010939 1_555
Ir3 Y2 3.010939 1_556
Ir3 Y1 3.076950 1_555
Ir3 Y1 3.076950 1_556
Ir4 Y3 3.010939 1_556
Ir4 Y3 3.010939 1_555
Ir4 Y2 3.076950 1_555
Ir4 Y2 3.076950 1_556
Ir5 Y1 3.010939 1_555
Ir5 Y1 3.010939 1_556
Ir5 Y0 3.076950 1_555
Ir5 Y0 3.076950 1_556
Ir6 Y1 3.010939 1_555
Ir6 Y1 3.010939 1_556
Ir6 Y2 3.076950 1_455
Ir6 Y2 3.076950 1_456
Ir7 Y0 2.930353 1_555
Ir7 Y0 2.930353 1_556
Ir7 Y2 2.930353 1_455
Ir7 Y2 2.930353 1_456
Ir8 Y3 2.930353 1_545
Ir8 Y3 2.930353 1_546
Ir8 Y1 2.930353 1_556
Ir8 Y1 2.930353 1_555
Ir9 Y2 3.010939 1_555
Ir9 Y2 3.010939 1_556
Ir9 Y3 3.076950 1_546
Ir9 Y3 3.076950 1_545
