# generated using pymatgen
data_Cs2KTaO4
_symmetry_space_group_name_H-M   'P 1'
_cell_length_a   6.62431373
_cell_length_b   6.77107369
_cell_length_c   8.45687662
_cell_angle_alpha   86.76459926
_cell_angle_beta   90.00000000
_cell_angle_gamma   90.00000000
_symmetry_Int_Tables_number   1
_chemical_formula_structural   Cs2KTaO4
_chemical_formula_sum   'Cs4 K2 Ta2 O8'
_cell_volume   378.71773817
_cell_formula_units_Z   2
loop_
 _symmetry_equiv_pos_site_id
 _symmetry_equiv_pos_as_xyz
  1  'x, y, z'
loop_
 _atom_site_type_symbol
 _atom_site_label
 _atom_site_symmetry_multiplicity
 _atom_site_fract_x
 _atom_site_fract_y
 _atom_site_fract_z
 _atom_site_occupancy
  Cs  Cs0  1  0.75000000  0.16820177  0.52730568  1
  Cs  Cs1  1  0.25000000  0.83179823  0.47269432  1
  Cs  Cs2  1  0.25000000  0.39492420  0.17357315  1
  Cs  Cs3  1  0.75000000  0.60507580  0.82642685  1
  K  K0  1  0.25000000  0.88737484  0.96202968  1
  K  K1  1  0.75000000  0.11262516  0.03797032  1
  Ta  Ta0  1  0.75000000  0.67278735  0.26974284  1
  Ta  Ta1  1  0.25000000  0.32721265  0.73025716  1
  O  O0  1  0.97599966  0.79722466  0.17856964  1
  O  O1  1  0.47599966  0.20277534  0.82143036  1
  O  O2  1  0.02400034  0.20277534  0.82143036  1
  O  O3  1  0.52400034  0.79722466  0.17856964  1
  O  O4  1  0.25000000  0.59221238  0.77889179  1
  O  O5  1  0.25000000  0.29738357  0.51322755  1
  O  O6  1  0.75000000  0.40778762  0.22110821  1
  O  O7  1  0.75000000  0.70261643  0.48677245  1
loop_
_geom_bond_atom_site_label_1
_geom_bond_atom_site_label_2
_geom_bond_distance
_geom_bond_site_symmetry_2
Cs0 O6 2.977064 1_555
Cs0 O2 3.098714 1_655
Cs0 O1 3.098714 1_555
Cs0 O7 3.190269 1_545
Cs0 O5 3.426062 1_655
Cs0 O5 3.426062 1_555
Cs0 O7 3.615449 1_555
Cs1 O4 2.977064 1_555
Cs1 O3 3.098714 1_555
Cs1 O0 3.098714 1_455
Cs1 O5 3.190269 1_565
Cs1 O7 3.426062 1_555
Cs1 O7 3.426062 1_455
Cs1 O5 3.615449 1_555
Cs2 O5 2.910813 1_555
Cs2 O3 3.275583 1_555
Cs2 O0 3.275583 1_455
Cs2 O6 3.338192 1_555
Cs2 O6 3.338192 1_455
Cs2 O4 3.524476 1_554
Cs2 O1 3.638685 1_554
Cs2 O2 3.638685 1_554
Cs3 O7 2.910813 1_555
Cs3 O2 3.275583 1_655
Cs3 O1 3.275583 1_555
Cs3 O4 3.338192 1_555
Cs3 O4 3.338192 1_655
Cs3 O6 3.524476 1_556
Cs3 O0 3.638685 1_556
Cs3 O3 3.638685 1_556
K0 O4 2.596606 1_555
K0 O3 2.625713 1_556
K0 O0 2.625713 1_456
K0 O1 2.815891 1_565
K0 O2 2.815891 1_565
K1 O6 2.596606 1_555
K1 O2 2.625713 1_654
K1 O1 2.625713 1_554
K1 O0 2.815891 1_545
K1 O3 2.815891 1_545
O0 Ta0 1.863435 1_555
O1 Ta1 1.863435 1_555
O2 Ta1 1.863435 1_555
O3 Ta0 1.863435 1_555
O4 Ta1 1.863357 1_555
O5 Ta1 1.857768 1_555
O6 Ta0 1.863357 1_555
O7 Ta0 1.857768 1_555
