# generated using pymatgen
data_Ti4PbS8
_symmetry_space_group_name_H-M   'P 1'
_cell_length_a   6.86546650
_cell_length_b   6.86546592
_cell_length_c   9.28049521
_cell_angle_alpha   56.93780194
_cell_angle_beta   56.93780558
_cell_angle_gamma   60.07020357
_symmetry_Int_Tables_number   1
_chemical_formula_structural   Ti4PbS8
_chemical_formula_sum   'Ti4 Pb1 S8'
_cell_volume   294.35178455
_cell_formula_units_Z   1
loop_
 _symmetry_equiv_pos_site_id
 _symmetry_equiv_pos_as_xyz
  1  'x, y, z'
loop_
 _atom_site_type_symbol
 _atom_site_label
 _atom_site_symmetry_multiplicity
 _atom_site_fract_x
 _atom_site_fract_y
 _atom_site_fract_z
 _atom_site_occupancy
  Ti  Ti0  1  0.75758761  0.24241239  1.00000000  1
  Ti  Ti1  1  0.24241239  0.75758761  0.00000000  1
  Ti  Ti2  1  0.24325010  0.24325010  0.00827333  1
  Ti  Ti3  1  0.75674990  0.75674990  0.99172667  1
  Pb  Pb0  1  0.50000000  0.50000000  0.50000000  1
  S  S0  1  0.98447091  0.48636964  0.19922527  1
  S  S1  1  0.48636964  0.98447091  0.19922527  1
  S  S2  1  0.48874815  0.48874815  0.19224445  1
  S  S3  1  0.98347664  0.98347664  0.20111773  1
  S  S4  1  0.01652336  0.01652336  0.79888227  1
  S  S5  1  0.51125185  0.51125185  0.80775555  1
  S  S6  1  0.51363036  0.01552909  0.80077473  1
  S  S7  1  0.01552909  0.51363036  0.80077473  1
loop_
_geom_bond_atom_site_label_1
_geom_bond_atom_site_label_2
_geom_bond_distance
_geom_bond_site_symmetry_2
Pb0 S5 2.942244 1_555
Pb0 S2 2.942244 1_555
Pb0 S1 2.950881 1_555
Pb0 S6 2.950881 1_555
Pb0 S0 2.950881 1_555
Pb0 S7 2.950881 1_555
S0 Ti2 2.432253 1_655
S0 Ti1 2.446079 1_655
S0 Ti3 2.467183 1_554
S1 Ti2 2.432253 1_565
S1 Ti0 2.446079 1_564
S1 Ti3 2.467183 1_554
S2 Ti1 2.456485 1_555
S2 Ti0 2.456485 1_554
S2 Ti3 2.477962 1_554
S3 Ti2 2.402757 1_665
S3 Ti0 2.415769 1_564
S3 Ti1 2.415769 1_655
S4 Ti3 2.402757 1_445
S4 Ti1 2.415769 1_546
S4 Ti0 2.415769 1_455
S5 Ti0 2.456485 1_555
S5 Ti1 2.456485 1_556
S5 Ti2 2.477962 1_556
S6 Ti3 2.432253 1_545
S6 Ti1 2.446079 1_546
S6 Ti2 2.467183 1_556
S7 Ti3 2.432253 1_455
S7 Ti0 2.446079 1_455
S7 Ti2 2.467183 1_556
