# generated using pymatgen
data_Hf3PN
_symmetry_space_group_name_H-M   'P 1'
_cell_length_a   5.72730934
_cell_length_b   5.72731047
_cell_length_c   8.27185564
_cell_angle_alpha   90.00000000
_cell_angle_beta   90.00000000
_cell_angle_gamma   145.77055044
_symmetry_Int_Tables_number   1
_chemical_formula_structural   Hf3PN
_chemical_formula_sum   'Hf6 P2 N2'
_cell_volume   152.62769217
_cell_formula_units_Z   2
loop_
 _symmetry_equiv_pos_site_id
 _symmetry_equiv_pos_as_xyz
  1  'x, y, z'
loop_
 _atom_site_type_symbol
 _atom_site_label
 _atom_site_symmetry_multiplicity
 _atom_site_fract_x
 _atom_site_fract_y
 _atom_site_fract_z
 _atom_site_occupancy
  Hf  Hf0  1  0.13588861  0.86410939  0.05852901  1
  Hf  Hf1  1  0.43710941  0.56288859  0.25000000  1
  Hf  Hf2  1  0.13588861  0.86410939  0.44146999  1
  Hf  Hf3  1  0.86410939  0.13588861  0.55852901  1
  Hf  Hf4  1  0.56288859  0.43710941  0.75000000  1
  Hf  Hf5  1  0.86410939  0.13588861  0.94146999  1
  P  P0  1  0.75791571  0.24208229  0.25000000  1
  P  P1  1  0.24208229  0.75791571  0.75000000  1
  N  N0  1  0.49999900  0.49999900  0.00000000  1
  N  N1  1  0.49999900  0.49999900  0.50000000  1
loop_
_geom_bond_atom_site_label_1
_geom_bond_atom_site_label_2
_geom_bond_distance
_geom_bond_site_symmetry_2
Hf0 N0 2.299620 1_455
Hf0 N0 2.299620 1_565
Hf0 P0 2.670927 1_565
Hf0 P0 2.670928 1_455
Hf0 P1 2.804417 1_554
Hf1 N1 2.179558 1_555
Hf1 N0 2.179558 1_555
Hf1 P0 2.586323 1_455
Hf1 P0 2.586324 1_565
Hf2 N1 2.299621 1_455
Hf2 N1 2.299622 1_565
Hf2 P0 2.670922 1_565
Hf2 P0 2.670923 1_455
Hf2 P1 2.804425 1_555
Hf3 N1 2.299620 1_655
Hf3 N1 2.299620 1_545
Hf3 P1 2.670927 1_545
Hf3 P1 2.670928 1_655
Hf3 P0 2.804417 1_555
Hf4 N1 2.179558 1_555
Hf4 N0 2.179558 1_556
Hf4 P1 2.586323 1_655
Hf4 P1 2.586324 1_545
Hf5 N0 2.299621 1_656
Hf5 N0 2.299622 1_546
Hf5 P1 2.670922 1_545
Hf5 P1 2.670923 1_655
Hf5 P0 2.804425 1_556
