# generated using pymatgen
data_CaY6BI12
_symmetry_space_group_name_H-M   'P 1'
_cell_length_a   9.61563814
_cell_length_b   9.61563779
_cell_length_c   9.61563824
_cell_angle_alpha   106.89519922
_cell_angle_beta   106.89519936
_cell_angle_gamma   106.89518841
_symmetry_Int_Tables_number   1
_chemical_formula_structural   CaY6BI12
_chemical_formula_sum   'Ca1 Y6 B1 I12'
_cell_volume   742.52987951
_cell_formula_units_Z   1
loop_
 _symmetry_equiv_pos_site_id
 _symmetry_equiv_pos_as_xyz
  1  'x, y, z'
loop_
 _atom_site_type_symbol
 _atom_site_label
 _atom_site_symmetry_multiplicity
 _atom_site_fract_x
 _atom_site_fract_y
 _atom_site_fract_z
 _atom_site_occupancy
  Ca  Ca0  1  0.50000000  0.50000000  0.50000000  1
  Y  Y0  1  0.71089254  0.97543865  0.90633813  1
  Y  Y1  1  0.97543865  0.90633813  0.71089254  1
  Y  Y2  1  0.09366187  0.28910746  0.02456135  1
  Y  Y3  1  0.28910746  0.02456135  0.09366187  1
  Y  Y4  1  0.90633813  0.71089254  0.97543865  1
  Y  Y5  1  0.02456135  0.09366187  0.28910746  1
  B  B0  1  0.00000000  0.00000000  0.00000000  1
  I  I0  1  0.07637754  0.22630295  0.68178981  1
  I  I1  1  0.37829840  0.14566447  0.45665109  1
  I  I2  1  0.62170160  0.85433553  0.54334891  1
  I  I3  1  0.22630295  0.68178981  0.07637754  1
  I  I4  1  0.77369705  0.31821019  0.92362246  1
  I  I5  1  0.68178981  0.07637754  0.22630295  1
  I  I6  1  0.54334891  0.62170160  0.85433553  1
  I  I7  1  0.85433553  0.54334891  0.62170160  1
  I  I8  1  0.92362246  0.77369705  0.31821019  1
  I  I9  1  0.31821019  0.92362246  0.77369705  1
  I  I10  1  0.45665109  0.37829840  0.14566447  1
  I  I11  1  0.14566447  0.45665109  0.37829840  1
loop_
_geom_bond_atom_site_label_1
_geom_bond_atom_site_label_2
_geom_bond_distance
_geom_bond_site_symmetry_2
Ca0 I6 3.118561 1_555
Ca0 I10 3.118561 1_555
Ca0 I7 3.118561 1_555
Ca0 I11 3.118561 1_555
Ca0 I2 3.118561 1_555
Ca0 I1 3.118561 1_555
B0 Y5 2.575759 1_555
B0 Y1 2.575759 1_444
B0 Y3 2.575759 1_555
B0 Y0 2.575759 1_444
B0 Y2 2.575759 1_555
B0 Y4 2.575759 1_444
I0 Y1 3.067383 1_445
I0 Y2 3.118020 1_556
I0 Y5 3.445323 1_555
I1 Y3 3.096997 1_555
I1 Y5 3.126199 1_555
I2 Y0 3.096997 1_555
I2 Y1 3.126199 1_555
I3 Y4 3.067383 1_454
I3 Y3 3.118020 1_565
I3 Y2 3.445323 1_555
I4 Y2 3.067383 1_656
I4 Y0 3.118020 1_545
I4 Y4 3.445323 1_555
I5 Y0 3.067383 1_544
I5 Y5 3.118020 1_655
I5 Y3 3.445323 1_555
I6 Y4 3.096997 1_555
I6 Y0 3.126199 1_555
I7 Y1 3.096997 1_555
I7 Y4 3.126199 1_555
I8 Y5 3.067383 1_665
I8 Y4 3.118020 1_554
I8 Y1 3.445323 1_555
I9 Y3 3.067383 1_566
I9 Y1 3.118020 1_455
I9 Y0 3.445323 1_555
I10 Y2 3.096997 1_555
I10 Y3 3.126199 1_555
I11 Y5 3.096997 1_555
I11 Y2 3.126199 1_555
