# generated using pymatgen
data_Lu4MoOs5Ru2
_symmetry_space_group_name_H-M   'P 1'
_cell_length_a   5.31018825
_cell_length_b   5.15627783
_cell_length_c   8.92937757
_cell_angle_alpha   90.00000000
_cell_angle_beta   90.00000000
_cell_angle_gamma   120.99239423
_symmetry_Int_Tables_number   1
_chemical_formula_structural   Lu4MoOs5Ru2
_chemical_formula_sum   'Lu4 Mo1 Os5 Ru2'
_cell_volume   209.58859368
_cell_formula_units_Z   1
loop_
 _symmetry_equiv_pos_site_id
 _symmetry_equiv_pos_as_xyz
  1  'x, y, z'
loop_
 _atom_site_type_symbol
 _atom_site_label
 _atom_site_symmetry_multiplicity
 _atom_site_fract_x
 _atom_site_fract_y
 _atom_site_fract_z
 _atom_site_occupancy
  Lu  Lu0  1  0.33338713  0.66677525  0.43208924  1
  Lu  Lu1  1  0.67084015  0.34168031  0.56384281  1
  Lu  Lu2  1  0.67084015  0.34168031  0.93615719  1
  Lu  Lu3  1  0.33338713  0.66677525  0.06791076  1
  Mo  Mo0  1  0.16017982  0.32036164  0.75000000  1
  Os  Os0  1  0.17203992  0.82224736  0.75000000  1
  Os  Os1  1  0.33887069  0.16750829  0.25000000  1
  Os  Os2  1  0.82711920  0.65423739  0.25000000  1
  Os  Os3  1  0.65020644  0.82224736  0.75000000  1
  Os  Os4  1  0.82863959  0.16750829  0.25000000  1
  Ru  Ru0  1  0.00724539  0.01448978  0.00188848  1
  Ru  Ru1  1  0.00724539  0.01448978  0.49811152  1
loop_
_geom_bond_atom_site_label_1
_geom_bond_atom_site_label_2
_geom_bond_distance
_geom_bond_site_symmetry_2
Lu0 Ru1 2.942852 1_555
Lu0 Os1 3.038654 1_565
Lu0 Os4 3.038661 1_565
Lu0 Os4 3.057618 1_455
Lu0 Os1 3.057624 1_555
Lu0 Os2 3.113882 1_455
Lu0 Os2 3.113891 1_555
Lu0 Ru1 3.123981 1_565
Lu0 Ru1 3.123991 1_665
Lu0 Os0 3.184738 1_555
Lu0 Os3 3.184738 1_555
Lu0 Mo0 3.225375 1_555
Lu1 Ru1 3.031282 1_665
Lu1 Os0 3.032311 1_655
Lu1 Os3 3.032313 1_555
Lu1 Ru1 3.079869 1_555
Lu1 Ru1 3.079872 1_655
Lu1 Os3 3.105870 1_545
Lu1 Os0 3.105872 1_545
Lu1 Os2 3.124458 1_555
Lu1 Mo0 3.133929 1_655
Lu1 Mo0 3.133938 1_555
Lu1 Os1 3.183903 1_555
Lu1 Os4 3.183907 1_555
Lu2 Ru0 3.031282 1_666
Lu2 Os0 3.032311 1_655
Lu2 Os3 3.032313 1_555
Lu2 Ru0 3.079869 1_556
Lu2 Ru0 3.079872 1_656
Lu2 Os3 3.105870 1_545
Lu2 Os0 3.105872 1_545
Lu2 Os2 3.124458 1_556
Lu2 Mo0 3.133929 1_655
Lu2 Mo0 3.133938 1_555
Lu2 Os1 3.183903 1_556
Lu2 Os4 3.183907 1_556
Lu3 Ru0 2.942852 1_555
Lu3 Os1 3.038654 1_565
Lu3 Os4 3.038661 1_565
Lu3 Os4 3.057618 1_455
Lu3 Os1 3.057624 1_555
Lu3 Os2 3.113882 1_455
Lu3 Os2 3.113891 1_555
Lu3 Ru0 3.123981 1_565
Lu3 Ru0 3.123991 1_665
Lu3 Os0 3.184738 1_554
Lu3 Os3 3.184738 1_554
Lu3 Mo0 3.225375 1_554
Mo0 Os0 2.556003 1_555
Mo0 Os3 2.556006 1_555
Mo0 Os3 2.601403 1_445
Mo0 Os0 2.601405 1_545
Mo0 Ru0 2.624277 1_556
Mo0 Ru1 2.624277 1_555
Os0 Os3 2.539154 1_555
Os0 Os3 2.771034 1_455
Os0 Ru0 2.775001 1_566
Os0 Ru1 2.775001 1_565
Os1 Os2 2.513875 1_555
Os1 Os4 2.600765 1_555
Os1 Os2 2.642423 1_445
Os1 Ru1 2.683482 1_555
Os1 Ru0 2.683482 1_555
Os1 Os4 2.709423 1_455
Os2 Os4 2.513877 1_555
Os2 Os4 2.642419 1_565
Os2 Ru1 2.728368 1_665
Os2 Ru0 2.728368 1_665
Os3 Ru0 2.775007 1_666
Os3 Ru1 2.775007 1_665
Os4 Ru1 2.683479 1_655
Os4 Ru0 2.683479 1_655
