# generated using pymatgen
data_Zr6Zn19Ir4Se
_symmetry_space_group_name_H-M   'P 1'
_cell_length_a   8.68626618
_cell_length_b   8.70283433
_cell_length_c   8.70283530
_cell_angle_alpha   60.10843808
_cell_angle_beta   59.69233948
_cell_angle_gamma   59.69233824
_symmetry_Int_Tables_number   1
_chemical_formula_structural   Zr6Zn19Ir4Se
_chemical_formula_sum   'Zr6 Zn19 Ir4 Se1'
_cell_volume   463.39951878
_cell_formula_units_Z   1
loop_
 _symmetry_equiv_pos_site_id
 _symmetry_equiv_pos_as_xyz
  1  'x, y, z'
loop_
 _atom_site_type_symbol
 _atom_site_label
 _atom_site_symmetry_multiplicity
 _atom_site_fract_x
 _atom_site_fract_y
 _atom_site_fract_z
 _atom_site_occupancy
  Zr  Zr0  1  0.71512199  0.28371454  0.28371454  1
  Zr  Zr1  1  0.28487801  0.71628546  0.71628546  1
  Zr  Zr2  1  0.28719529  0.72288012  0.27891049  1
  Zr  Zr3  1  0.71280471  0.27711988  0.72108951  1
  Zr  Zr4  1  0.28719529  0.27891049  0.72288012  1
  Zr  Zr5  1  0.71280471  0.72108951  0.27711988  1
  Zn  Zn0  1  0.12201901  0.12128925  0.63254147  1
  Zn  Zn1  1  0.12201901  0.63254147  0.12128925  1
  Zn  Zn2  1  0.87798099  0.87871075  0.36745853  1
  Zn  Zn3  1  0.87798099  0.36745853  0.87871075  1
  Zn  Zn4  1  0.62653061  0.12431072  0.12431072  1
  Zn  Zn5  1  0.37346939  0.87568928  0.87568928  1
  Zn  Zn6  1  0.50000000  0.00000000  0.00000000  1
  Zn  Zn7  1  0.00000000  0.50000000  0.50000000  1
  Zn  Zn8  1  0.00000000  0.50000000  0.00000000  1
  Zn  Zn9  1  0.00000000  0.00000000  0.50000000  1
  Zn  Zn10  1  0.33104888  0.33740154  0.33740154  1
  Zn  Zn11  1  0.66895112  0.66259846  0.66259846  1
  Zn  Zn12  1  0.32702930  0.32979220  0.00662620  1
  Zn  Zn13  1  0.32702930  0.00662620  0.32979220  1
  Zn  Zn14  1  0.67297070  0.67020780  0.99337380  1
  Zn  Zn15  1  0.67297070  0.99337380  0.67020780  1
  Zn  Zn16  1  0.00183098  0.32956525  0.32956525  1
  Zn  Zn17  1  0.99816902  0.67043475  0.67043475  1
  Zn  Zn18  1  0.00000000  0.00000000  0.00000000  1
  Ir  Ir0  1  0.11557062  0.11789478  0.11789478  1
  Ir  Ir1  1  0.88442938  0.88210522  0.88210522  1
  Ir  Ir2  1  0.50000000  0.00000000  0.50000000  1
  Ir  Ir3  1  0.50000000  0.50000000  0.00000000  1
  Se  Se0  1  0.50000000  0.50000000  0.50000000  1
loop_
_geom_bond_atom_site_label_1
_geom_bond_atom_site_label_2
_geom_bond_distance
_geom_bond_site_symmetry_2
Zn0 Zn18 2.609222 1_556
Zn0 Zn9 2.672971 1_555
Zn0 Zn13 2.683387 1_555
Zn0 Zn7 2.689898 1_555
Zn0 Zn10 2.712220 1_555
Zn0 Zn16 2.726275 1_555
Zn0 Zr1 2.898874 1_545
Zn0 Zr3 2.911964 1_455
Zn0 Zr4 2.959428 1_555
Zn0 Zn3 3.013406 1_455
Zn0 Zn5 3.043313 1_545
Zn1 Zn18 2.609221 1_565
Zn1 Zn8 2.672971 1_555
Zn1 Zn12 2.683386 1_555
Zn1 Zn7 2.689898 1_555
Zn1 Zn10 2.712220 1_555
Zn1 Zn16 2.726275 1_555
Zn1 Zr1 2.898874 1_554
Zn1 Zr5 2.911964 1_455
Zn1 Zr2 2.959428 1_555
Zn1 Zn2 3.013406 1_455
Zn1 Zn5 3.043313 1_554
Zn2 Zn9 2.672971 1_665
Zn2 Zn7 2.689898 1_655
Zn2 Zr0 2.898874 1_565
Zn2 Zr2 2.911964 1_655
Zn2 Zr5 2.959428 1_555
Zn2 Zn4 3.043313 1_565
Zn3 Zn8 2.672971 1_656
Zn3 Zn7 2.689898 1_655
Zn3 Zr0 2.898874 1_556
Zn3 Zr4 2.911964 1_655
Zn3 Zr3 2.959428 1_555
Zn3 Zn4 3.043313 1_556
Zn4 Zn6 2.667497 1_555
Zn4 Zr5 2.888711 1_545
Zn4 Zr3 2.888711 1_554
Zn4 Zr0 2.917924 1_555
Zn5 Zn6 2.667497 1_566
Zn5 Zr4 2.888711 1_565
Zn5 Zr2 2.888711 1_556
Zn5 Zr1 2.917924 1_555
Zn6 Zr3 3.043232 1_554
Zn6 Zr2 3.043232 1_545
Zn6 Zr5 3.043232 1_545
Zn6 Zr4 3.043232 1_554
Zn7 Zr2 3.163414 1_555
Zn7 Zr3 3.163414 1_455
Zn7 Zr4 3.163414 1_555
Zn7 Zr5 3.163414 1_455
Zn8 Zr4 3.074129 1_554
Zn8 Zr5 3.074129 1_455
Zn8 Zr1 3.108843 1_554
Zn8 Zr0 3.108843 1_455
Zn9 Zr3 3.074129 1_455
Zn9 Zr2 3.074129 1_545
Zn9 Zr1 3.108843 1_545
Zn9 Zr0 3.108843 1_455
Zn10 Zn7 2.460850 1_555
Zn10 Zn4 2.699214 1_555
Zn10 Zn16 2.930076 1_555
Zn10 Zn13 2.930223 1_555
Zn10 Zn12 2.930223 1_555
Zn11 Zn7 2.460850 1_655
Zn11 Zn5 2.699214 1_555
Zn11 Zn3 2.712220 1_555
Zn11 Zn2 2.712220 1_555
Zn11 Zn17 2.930076 1_555
Zn11 Zn15 2.930223 1_555
Zn11 Zn14 2.930223 1_555
Zn12 Zn8 2.469855 1_555
Zn12 Zn6 2.494708 1_555
Zn12 Zn4 2.680140 1_555
Zn12 Zn16 2.804555 1_555
Zn12 Zn13 2.817069 1_555
Zn12 Zr4 2.919012 1_554
Zn12 Zr3 2.965600 1_554
Zn12 Zr1 3.008655 1_554
Zn13 Zn9 2.469855 1_555
Zn13 Zn6 2.494708 1_555
Zn13 Zn4 2.680140 1_555
Zn13 Zn16 2.804555 1_555
Zn13 Zr2 2.919011 1_545
Zn13 Zr5 2.965599 1_545
Zn13 Zr1 3.008655 1_545
Zn14 Zn8 2.469855 1_656
Zn14 Zn6 2.494708 1_566
Zn14 Zn5 2.680140 1_555
Zn14 Zn3 2.683386 1_555
Zn14 Zn17 2.804555 1_555
Zn14 Zn15 2.817069 1_555
Zn14 Zr5 2.919012 1_556
Zn14 Zr2 2.965600 1_556
Zn14 Zr0 3.008655 1_556
Zn15 Zn9 2.469855 1_665
Zn15 Zn6 2.494708 1_566
Zn15 Zn5 2.680140 1_555
Zn15 Zn2 2.683387 1_555
Zn15 Zn17 2.804555 1_555
Zn15 Zr3 2.919011 1_565
Zn15 Zr4 2.965599 1_565
Zn15 Zr0 3.008655 1_565
Zn16 Zn9 2.491702 1_555
Zn16 Zn8 2.491702 1_555
Zn16 Zn7 2.558446 1_555
Zn16 Zr0 2.947096 1_455
Zn16 Zr5 3.015622 1_455
Zn16 Zr3 3.015623 1_455
Zn17 Zn9 2.491702 1_665
Zn17 Zn8 2.491702 1_656
Zn17 Zn7 2.558446 1_655
Zn17 Zn3 2.726275 1_555
Zn17 Zn2 2.726275 1_555
Zn17 Zr1 2.947096 1_655
Zn17 Zr4 3.015622 1_655
Zn17 Zr2 3.015623 1_655
Zn18 Zn3 2.609221 1_454
Zn18 Zn2 2.609222 1_445
Zn18 Zn5 2.635699 1_544
Zn18 Zn4 2.635699 1_455
Ir0 Zn18 2.498316 1_555
Ir0 Zn8 2.718142 1_555
Ir0 Zn9 2.718143 1_555
Ir0 Zn6 2.718347 1_555
Ir0 Zn16 2.733417 1_555
Ir0 Zn12 2.748791 1_555
Ir0 Zn13 2.748791 1_555
Ir0 Zr2 2.852817 1_545
Ir0 Zr4 2.852817 1_554
Ir0 Zr0 2.864870 1_455
Ir0 Zn2 2.935127 1_445
Ir0 Zn3 2.935127 1_454
Ir0 Zn5 2.966733 1_544
Ir1 Zn18 2.498316 1_666
Ir1 Zn8 2.718142 1_656
Ir1 Zn9 2.718143 1_665
Ir1 Zn6 2.718347 1_566
Ir1 Zn17 2.733417 1_555
Ir1 Zn14 2.748791 1_555
Ir1 Zn15 2.748791 1_555
Ir1 Zr3 2.852817 1_565
Ir1 Zr5 2.852817 1_556
Ir1 Zr1 2.864870 1_655
Ir1 Zn0 2.935127 1_665
Ir1 Zn1 2.935127 1_656
Ir1 Zn4 2.966733 1_566
Ir2 Zn10 2.526555 1_555
Ir2 Zn11 2.526555 1_545
Ir2 Zn15 2.555119 1_545
Ir2 Zn13 2.555119 1_555
Ir2 Zn5 2.667590 1_545
Ir2 Zn4 2.667590 1_555
Ir2 Zn2 2.667924 1_545
Ir2 Zn0 2.667924 1_555
Ir2 Zr0 3.099297 1_555
Ir2 Zr1 3.099297 1_545
Ir2 Zr5 3.101069 1_545
Ir2 Zr4 3.101069 1_555
Ir3 Zn10 2.526555 1_555
Ir3 Zn11 2.526555 1_554
Ir3 Zn14 2.555119 1_554
Ir3 Zn12 2.555119 1_555
Ir3 Zn5 2.667590 1_554
Ir3 Zn4 2.667590 1_555
Ir3 Zn3 2.667924 1_554
Ir3 Zn1 2.667924 1_555
Ir3 Zr0 3.099297 1_555
Ir3 Zr1 3.099297 1_554
Ir3 Zr2 3.101069 1_555
Ir3 Zr3 3.101069 1_554
Se0 Zr1 2.647513 1_555
Se0 Zr0 2.647513 1_555
Se0 Zr5 2.670664 1_555
Se0 Zr4 2.670664 1_555
Se0 Zr3 2.670665 1_555
Se0 Zr2 2.670665 1_555
