# generated using pymatgen
data_Cs3RbF12
_symmetry_space_group_name_H-M   'P 1'
_cell_length_a   7.20366346
_cell_length_b   4.57799280
_cell_length_c   9.87784148
_cell_angle_alpha   89.82313437
_cell_angle_beta   90.27941801
_cell_angle_gamma   90.11088991
_symmetry_Int_Tables_number   1
_chemical_formula_structural   Cs3RbF12
_chemical_formula_sum   'Cs3 Rb1 F12'
_cell_volume   325.74858545
_cell_formula_units_Z   1
loop_
 _symmetry_equiv_pos_site_id
 _symmetry_equiv_pos_as_xyz
  1  'x, y, z'
loop_
 _atom_site_type_symbol
 _atom_site_label
 _atom_site_symmetry_multiplicity
 _atom_site_fract_x
 _atom_site_fract_y
 _atom_site_fract_z
 _atom_site_occupancy
  Cs  Cs0  1  0.23626321  0.11381439  0.37575068  1
  Cs  Cs1  1  0.26121196  0.38475139  0.88189713  1
  Cs  Cs2  1  0.74224673  0.90689117  0.62354656  1
  Rb  Rb0  1  0.75741684  0.61086590  0.12255347  1
  F  F0  1  0.01510120  0.05944941  0.07773722  1
  F  F1  1  0.48031997  0.41432903  0.57966166  1
  F  F2  1  0.53461225  0.91090783  0.93069900  1
  F  F3  1  0.96320932  0.59390018  0.40939393  1
  F  F4  1  0.65073629  0.06131786  0.31789503  1
  F  F5  1  0.84450761  0.45109077  0.84461083  1
  F  F6  1  0.15636251  0.92631902  0.66906380  1
  F  F7  1  0.35725123  0.57417655  0.16973158  1
  F  F8  1  0.18472235  0.81074909  0.11853316  1
  F  F9  1  0.31832309  0.67587833  0.61858213  1
  F  F10  1  0.68918366  0.18512247  0.89222108  1
  F  F11  1  0.80610777  0.32043461  0.36812474  1
loop_
_geom_bond_atom_site_label_1
_geom_bond_atom_site_label_2
_geom_bond_distance
_geom_bond_site_symmetry_2
Cs0 F8 2.920413 1_545
Cs0 F3 2.972802 1_455
Cs0 F1 3.002305 1_555
Cs0 F4 3.052733 1_555
Cs0 F7 3.053907 1_555
Cs0 F6 3.075940 1_545
Cs0 F3 3.102907 1_445
Cs0 F9 3.175457 1_545
Cs0 F11 3.242060 1_455
Cs0 F7 3.325774 1_545
Cs0 F0 3.350066 1_555
Cs1 F9 2.949166 1_555
Cs1 F2 2.969465 1_545
Cs1 F0 3.018050 1_556
Cs1 F5 3.038212 1_455
Cs1 F7 3.050910 1_556
Cs1 F6 3.066014 1_545
Cs1 F8 3.100886 1_556
Cs1 F2 3.145286 1_555
Cs1 F10 3.218314 1_555
Cs1 F6 3.331180 1_555
Cs1 F1 3.386011 1_555
Cs1 F8 3.555496 1_546
Cs2 F1 2.968908 1_555
Cs2 F10 2.973969 1_565
Cs2 F6 3.015856 1_655
Cs2 F3 3.020250 1_555
Cs2 F1 3.024461 1_565
Cs2 F5 3.102769 1_555
Cs2 F4 3.165281 1_565
Cs2 F11 3.184322 1_565
Cs2 F9 3.230007 1_555
Cs2 F2 3.389311 1_555
Cs2 F5 3.395366 1_565
F0 F8 1.717398 1_545
F0 Rb0 2.801194 1_445
F0 Rb0 3.169742 1_455
F1 F9 1.719287 1_555
F2 Rb0 2.831437 1_556
F3 Rb0 3.192146 1_555
F4 Rb0 2.934526 1_545
F4 Rb0 3.258857 1_555
F5 Rb0 2.914998 1_556
F6 F9 1.714276 1_555
F7 F8 1.723096 1_555
F7 Rb0 2.926747 1_555
F8 Rb0 3.209998 1_455
F10 F5 1.718134 1_555
F10 F2 1.719296 1_545
F10 Rb0 3.038031 1_556
F11 F4 1.702678 1_555
F11 F3 1.734191 1_555
F11 Rb0 2.783618 1_555
