# generated using pymatgen
data_Li2Ca4(CdP2)3
_symmetry_space_group_name_H-M   'P 1'
_cell_length_a   9.74494155
_cell_length_b   9.74494136
_cell_length_c   15.35018657
_cell_angle_alpha   90.00000000
_cell_angle_beta   90.00000000
_cell_angle_gamma   154.72026883
_symmetry_Int_Tables_number   1
_chemical_formula_structural   Li2Ca4(CdP2)3
_chemical_formula_sum   'Li4 Ca8 Cd6 P12'
_cell_volume   622.49900289
_cell_formula_units_Z   2
loop_
 _symmetry_equiv_pos_site_id
 _symmetry_equiv_pos_as_xyz
  1  'x, y, z'
loop_
 _atom_site_type_symbol
 _atom_site_label
 _atom_site_symmetry_multiplicity
 _atom_site_fract_x
 _atom_site_fract_y
 _atom_site_fract_z
 _atom_site_occupancy
  Li  Li0  1  0.84854518  0.15145482  0.25000000  1
  Li  Li1  1  0.15145482  0.84854518  0.75000000  1
  Li  Li2  1  0.55981971  0.44018029  0.25000000  1
  Li  Li3  1  0.44018029  0.55981971  0.75000000  1
  Ca  Ca0  1  0.98760815  0.01239185  0.37607707  1
  Ca  Ca1  1  0.01239185  0.98760815  0.62392293  1
  Ca  Ca2  1  0.98760815  0.01239185  0.12392293  1
  Ca  Ca3  1  0.01239185  0.98760815  0.87607707  1
  Ca  Ca4  1  0.82888559  0.17111441  0.92996351  1
  Ca  Ca5  1  0.17111441  0.82888559  0.07003649  1
  Ca  Ca6  1  0.82888559  0.17111441  0.57003649  1
  Ca  Ca7  1  0.17111441  0.82888559  0.42996351  1
  Cd  Cd0  1  0.35081809  0.64918191  0.38671296  1
  Cd  Cd1  1  0.64918191  0.35081809  0.61328704  1
  Cd  Cd2  1  0.35081809  0.64918191  0.11328704  1
  Cd  Cd3  1  0.64918191  0.35081809  0.88671296  1
  Cd  Cd4  1  0.70012992  0.29987008  0.25000000  1
  Cd  Cd5  1  0.29987008  0.70012992  0.75000000  1
  P  P0  1  0.77385685  0.22614315  0.39209774  1
  P  P1  1  0.22614315  0.77385685  0.60790226  1
  P  P2  1  0.77385685  0.22614315  0.10790226  1
  P  P3  1  0.22614315  0.77385685  0.89209774  1
  P  P4  1  0.55672156  0.44327844  0.47781337  1
  P  P5  1  0.44327844  0.55672156  0.52218663  1
  P  P6  1  0.55672156  0.44327844  0.02218663  1
  P  P7  1  0.44327844  0.55672156  0.97781337  1
  P  P8  1  0.43338418  0.56661582  0.25000000  1
  P  P9  1  0.56661582  0.43338418  0.75000000  1
  P  P10  1  0.11556398  0.88443602  0.25000000  1
  P  P11  1  0.88443602  0.11556398  0.75000000  1
loop_
_geom_bond_atom_site_label_1
_geom_bond_atom_site_label_2
_geom_bond_distance
_geom_bond_site_symmetry_2
Li0 P0 2.602932 1_555
Li0 P2 2.602932 1_555
Li0 P8 2.674009 1_545
Li0 P8 2.674009 1_655
Li1 P3 2.602932 1_555
Li1 P1 2.602932 1_555
Li1 P9 2.674009 1_565
Li1 P9 2.674009 1_455
Li2 P10 2.381391 1_545
Li2 P10 2.381391 1_655
Li2 P8 2.404493 1_555
Li3 P11 2.381391 1_565
Li3 P11 2.381391 1_455
Li3 P9 2.404493 1_555
Ca0 P4 2.951872 1_545
Ca0 P4 2.951872 1_655
Ca0 P8 3.058753 1_655
Ca0 P8 3.058753 1_545
Ca0 P10 3.109159 1_645
Ca0 P5 3.207504 1_655
Ca0 P5 3.207504 1_545
Ca1 P5 2.951872 1_565
Ca1 P5 2.951872 1_455
Ca1 P9 3.058753 1_455
Ca1 P9 3.058753 1_565
Ca1 P11 3.109159 1_465
Ca1 P4 3.207504 1_455
Ca1 P4 3.207504 1_565
Ca2 P6 2.951872 1_545
Ca2 P6 2.951872 1_655
Ca2 P8 3.058753 1_655
Ca2 P8 3.058753 1_545
Ca2 P10 3.109159 1_645
Ca2 P7 3.207504 1_654
Ca2 P7 3.207504 1_544
Ca3 P7 2.951872 1_565
Ca3 P7 2.951872 1_455
Ca3 P9 3.058753 1_455
Ca3 P9 3.058753 1_565
Ca3 P11 3.109159 1_465
Ca3 P6 3.207504 1_456
Ca3 P6 3.207504 1_566
Ca4 P2 2.925012 1_556
Ca4 P3 2.950047 1_655
Ca4 P3 2.950047 1_545
Ca4 P11 2.957585 1_555
Ca4 P7 3.133583 1_545
Ca4 P7 3.133583 1_655
Ca5 P3 2.925012 1_554
Ca5 P2 2.950047 1_455
Ca5 P2 2.950047 1_565
Ca5 P10 2.957585 1_555
Ca5 P6 3.133583 1_565
Ca5 P6 3.133583 1_455
Ca6 P0 2.925012 1_555
Ca6 P1 2.950047 1_655
Ca6 P1 2.950047 1_545
Ca6 P11 2.957585 1_555
Ca6 P5 3.133583 1_545
Ca6 P5 3.133583 1_655
Ca7 P1 2.925012 1_555
Ca7 P0 2.950047 1_455
Ca7 P0 2.950047 1_565
Ca7 P10 2.957585 1_555
Ca7 P4 3.133583 1_565
Ca7 P4 3.133583 1_455
Cd0 P0 2.587695 1_565
Cd0 P0 2.587696 1_455
Cd0 P8 2.620980 1_555
Cd0 P5 2.723302 1_555
Cd0 Li0 2.992162 1_565
Cd0 Li0 2.992162 1_455
Cd1 P1 2.587695 1_545
Cd1 P1 2.587696 1_655
Cd1 P9 2.620980 1_555
Cd1 P4 2.723302 1_555
Cd1 Li1 2.992162 1_545
Cd1 Li1 2.992162 1_655
Cd2 P2 2.587695 1_565
Cd2 P2 2.587696 1_455
Cd2 P8 2.620980 1_555
Cd2 P7 2.723302 1_554
Cd2 Li0 2.992162 1_565
Cd2 Li0 2.992162 1_455
Cd3 P3 2.587695 1_545
Cd3 P3 2.587696 1_655
Cd3 P9 2.620980 1_555
Cd3 P6 2.723302 1_556
Cd3 Li1 2.992162 1_545
Cd3 Li1 2.992162 1_655
Cd4 P0 2.593000 1_555
Cd4 P2 2.593000 1_555
Cd4 Li2 2.668355 1_555
Cd4 P10 2.670879 1_655
Cd4 P10 2.670879 1_545
Cd4 Li0 2.822493 1_555
Cd5 P3 2.593000 1_555
Cd5 P1 2.593000 1_555
Cd5 Li3 2.668355 1_555
Cd5 P11 2.670879 1_455
Cd5 P11 2.670879 1_565
Cd5 Li1 2.822493 1_555
P4 P5 2.262380 1_555
P6 P7 2.262380 1_554
