# generated using pymatgen
data_Sr4Lu3F17
_symmetry_space_group_name_H-M   'P 1'
_cell_length_a   8.84094836
_cell_length_b   8.85356153
_cell_length_c   8.88801791
_cell_angle_alpha   72.78520390
_cell_angle_beta   73.04079608
_cell_angle_gamma   72.95891988
_symmetry_Int_Tables_number   1
_chemical_formula_structural   Sr4Lu3F17
_chemical_formula_sum   'Sr8 Lu6 F34'
_cell_volume   619.15017905
_cell_formula_units_Z   2
loop_
 _symmetry_equiv_pos_site_id
 _symmetry_equiv_pos_as_xyz
  1  'x, y, z'
loop_
 _atom_site_type_symbol
 _atom_site_label
 _atom_site_symmetry_multiplicity
 _atom_site_fract_x
 _atom_site_fract_y
 _atom_site_fract_z
 _atom_site_occupancy
  Sr  Sr0  1  0.10349367  0.69262181  0.95547613  1
  Sr  Sr1  1  0.73144065  0.73701053  0.73508140  1
  Sr  Sr2  1  0.94150883  0.11149988  0.68887464  1
  Sr  Sr3  1  0.30763320  0.05007127  0.89451043  1
  Sr  Sr4  1  0.68746586  0.94425217  0.11342236  1
  Sr  Sr5  1  0.04943285  0.88986377  0.31295799  1
  Sr  Sr6  1  0.26185249  0.26849036  0.26634801  1
  Sr  Sr7  1  0.89036799  0.30913517  0.05584200  1
  Lu  Lu0  1  0.53363168  0.38795202  0.84124362  1
  Lu  Lu1  1  0.38777538  0.84246143  0.53396175  1
  Lu  Lu2  1  0.15693045  0.46701500  0.61184500  1
  Lu  Lu3  1  0.81892800  0.52958950  0.39011873  1
  Lu  Lu4  1  0.61078333  0.17805648  0.46264447  1
  Lu  Lu5  1  0.47184324  0.60639445  0.17346200  1
  F  F0  1  0.00244849  0.99418274  0.00498893  1
  F  F1  1  0.54338156  0.82599379  0.98072134  1
  F  F2  1  0.85871141  0.86361658  0.86218310  1
  F  F3  1  0.64286083  0.51278784  0.95551580  1
  F  F4  1  0.98197287  0.54772000  0.82572583  1
  F  F5  1  0.74095695  0.21176831  0.92162242  1
  F  F6  1  0.82131965  0.98103208  0.54816736  1
  F  F7  1  0.21178963  0.91616054  0.74240987  1
  F  F8  1  0.50877732  0.96367840  0.64416469  1
  F  F9  1  0.45729724  0.65117238  0.73765534  1
  F  F10  1  0.30541937  0.40383413  0.78912235  1
  F  F11  1  0.74468820  0.45074593  0.65576723  1
  F  F12  1  0.95286490  0.64420430  0.51514578  1
  F  F13  1  0.60184841  0.20457379  0.69898643  1
  F  F14  1  0.08012418  0.25810380  0.78750975  1
  F  F15  1  0.65053640  0.74801706  0.45422132  1
  F  F16  1  0.20917792  0.69772283  0.58767085  1
  F  F17  1  0.55749072  0.48113905  0.44500338  1
  F  F18  1  0.82484934  0.28144404  0.39359536  1
  F  F19  1  0.34624617  0.26099386  0.54263863  1
  F  F20  1  0.91461858  0.73714306  0.22203458  1
  F  F21  1  0.41166020  0.80004940  0.29919933  1
  F  F22  1  0.03896252  0.35823845  0.48926939  1
  F  F23  1  0.25823122  0.54268730  0.34980534  1
  F  F24  1  0.71746219  0.60345022  0.17398358  1
  F  F25  1  0.54935553  0.33891883  0.23866102  1
  F  F26  1  0.48530437  0.04708862  0.35762213  1
  F  F27  1  0.78342767  0.07943510  0.26134340  1
  F  F28  1  0.17298797  0.02022886  0.45499398  1
  F  F29  1  0.26126559  0.78134617  0.09022575  1
  F  F30  1  0.01958403  0.45402193  0.17468764  1
  F  F31  1  0.35362377  0.49041157  0.04155518  1
  F  F32  1  0.13926675  0.13745074  0.13978585  1
  F  F33  1  0.45139941  0.17522049  0.01923252  1
loop_
_geom_bond_atom_site_label_1
_geom_bond_atom_site_label_2
_geom_bond_distance
_geom_bond_site_symmetry_2
F0 Sr0 2.681078 1_554
F0 Sr3 2.727308 1_564
F0 Sr5 2.731313 1_555
F0 Sr4 2.789751 1_455
F0 Sr7 2.797655 1_465
F0 Sr2 2.844443 1_464
F1 Lu5 2.287342 1_556
F1 Sr1 2.506850 1_555
F1 Sr3 2.544672 1_565
F1 Sr4 2.549343 1_556
F2 Sr2 2.451094 1_565
F2 Sr1 2.455401 1_555
F2 Sr0 2.458942 1_655
F2 Sr4 2.475079 1_556
F3 Lu0 2.246745 1_555
F3 Lu5 2.287451 1_556
F3 Sr1 2.471171 1_555
F3 Sr7 2.590078 1_556
F4 Lu2 2.226576 1_655
F4 Sr1 2.535713 1_555
F4 Sr0 2.556626 1_655
F4 Sr7 2.603863 1_556
F5 Lu0 2.175263 1_555
F5 Sr7 2.471137 1_556
F5 Sr2 2.497177 1_555
F5 Sr4 2.556496 1_546
F6 Lu4 2.285330 1_565
F6 Sr1 2.484055 1_555
F6 Sr2 2.525288 1_565
F6 Sr5 2.583454 1_655
F7 Lu1 2.172065 1_555
F7 Sr3 2.481319 1_565
F7 Sr0 2.500851 1_555
F7 Sr2 2.584829 1_465
F8 Lu1 2.271995 1_555
F8 Lu4 2.315290 1_565
F8 Sr1 2.491620 1_555
F8 Sr3 2.569081 1_565
F9 Lu1 2.178961 1_555
F9 Lu0 2.214662 1_555
F9 Sr1 2.736657 1_555
F10 Lu0 2.155358 1_555
F10 Lu2 2.184849 1_555
F10 Sr3 2.987611 1_555
F11 Lu0 2.186197 1_555
F11 Lu3 2.209461 1_555
F11 Sr1 2.787392 1_555
F11 Sr2 2.974559 1_555
F12 Lu2 2.214101 1_655
F12 Lu3 2.409587 1_555
F12 Sr1 2.470642 1_555
F12 Sr5 2.562918 1_655
F13 Lu4 2.158278 1_555
F13 Lu0 2.189662 1_555
F13 Sr2 2.853189 1_555
F13 Sr3 3.114229 1_555
F14 Lu2 2.174432 1_555
F14 Sr2 2.487506 1_455
F14 Sr3 2.500057 1_555
F14 Sr7 2.562406 1_456
F15 Lu3 2.179608 1_555
F15 Lu1 2.202237 1_555
F15 Sr1 2.758509 1_555
F15 Sr4 2.990093 1_555
F16 Lu2 2.160329 1_555
F16 Lu1 2.178823 1_555
F16 Sr5 2.999186 1_555
F17 Lu3 2.358774 1_555
F17 Lu4 2.549518 1_555
F17 Lu5 2.572491 1_555
F18 Lu3 2.173414 1_555
F18 Lu4 2.191230 1_555
F18 Sr7 2.835588 1_555
F18 Sr2 2.923621 1_555
F19 Lu2 2.186532 1_555
F19 Lu4 2.201565 1_555
F19 Sr6 2.744966 1_555
F19 Sr3 3.111044 1_555
F20 Lu3 2.207533 1_555
F20 Sr5 2.460722 1_655
F20 Sr4 2.500427 1_555
F20 Sr0 2.532935 1_654
F21 Lu1 2.167860 1_555
F21 Lu5 2.173531 1_555
F21 Sr4 2.920639 1_555
F21 Sr5 3.039637 1_555
F22 Lu2 2.252719 1_555
F22 Lu3 2.311143 1_455
F22 Sr6 2.485270 1_555
F22 Sr2 2.565017 1_455
F23 Lu5 2.171524 1_555
F23 Lu2 2.210540 1_555
F23 Sr6 2.729661 1_555
F23 Sr5 3.064963 1_555
F24 Lu5 2.165354 1_555
F24 Lu3 2.200126 1_555
F24 Sr4 2.849065 1_555
F24 Sr7 2.928773 1_555
F25 Lu4 2.187607 1_555
F25 Lu5 2.209436 1_555
F25 Sr6 2.717228 1_555
F25 Sr7 2.954495 1_555
F26 Lu1 2.220046 1_545
F26 Lu4 2.333491 1_555
F26 Sr6 2.475318 1_555
F26 Sr4 2.585941 1_545
F27 Lu4 2.200827 1_555
F27 Sr4 2.461292 1_545
F27 Sr7 2.507320 1_555
F27 Sr5 2.533431 1_645
F28 Lu1 2.224316 1_545
F28 Sr6 2.514354 1_555
F28 Sr5 2.554405 1_545
F28 Sr2 2.589497 1_455
F29 Lu5 2.201713 1_555
F29 Sr0 2.484087 1_554
F29 Sr5 2.501555 1_555
F29 Sr3 2.561327 1_564
F30 Lu3 2.311269 1_455
F30 Sr6 2.472509 1_555
F30 Sr7 2.535986 1_455
F30 Sr0 2.539293 1_554
F31 Lu0 2.232080 1_554
F31 Lu5 2.361739 1_555
F31 Sr6 2.485078 1_555
F31 Sr0 2.556661 1_554
F32 Sr3 2.448853 1_554
F32 Sr6 2.450831 1_555
F32 Sr7 2.456704 1_455
F32 Sr5 2.472851 1_545
F33 Lu0 2.224067 1_554
F33 Sr6 2.535629 1_555
F33 Sr3 2.538995 1_554
F33 Sr4 2.596686 1_545
