# generated using pymatgen
data_CsTa(CuS2)2
_symmetry_space_group_name_H-M   'P 1'
_cell_length_a   10.10724106
_cell_length_b   10.10732558
_cell_length_c   7.61592031
_cell_angle_alpha   90.00000000
_cell_angle_beta   90.00000000
_cell_angle_gamma   148.09630277
_symmetry_Int_Tables_number   1
_chemical_formula_structural   CsTa(CuS2)2
_chemical_formula_sum   'Cs2 Ta2 Cu4 S8'
_cell_volume   411.17869680
_cell_formula_units_Z   2
loop_
 _symmetry_equiv_pos_site_id
 _symmetry_equiv_pos_as_xyz
  1  'x, y, z'
loop_
 _atom_site_type_symbol
 _atom_site_label
 _atom_site_symmetry_multiplicity
 _atom_site_fract_x
 _atom_site_fract_y
 _atom_site_fract_z
 _atom_site_occupancy
  Cs  Cs0  1  0.16672775  0.52995137  0.75000000  1
  Cs  Cs1  1  0.52995166  0.16672645  0.25000000  1
  Ta  Ta0  1  0.70948275  0.50078689  0.75000000  1
  Ta  Ta1  1  0.50079402  0.70949194  0.25000000  1
  Cu  Cu0  1  0.61884129  0.61884663  0.50000241  1
  Cu  Cu1  1  0.00649895  0.20365552  0.25000000  1
  Cu  Cu2  1  0.20365876  0.00649786  0.75000000  1
  Cu  Cu3  1  0.61884129  0.61884663  0.99999759  1
  S  S0  1  0.74912628  0.94842531  0.00679315  1
  S  S1  1  0.37721385  0.36632773  0.75000000  1
  S  S2  1  0.36633638  0.37722157  0.25000000  1
  S  S3  1  0.94842221  0.74912261  0.50679428  1
  S  S4  1  0.54527047  0.15308518  0.75000000  1
  S  S5  1  0.94842221  0.74912261  0.99320572  1
  S  S6  1  0.15308483  0.54526537  0.25000000  1
  S  S7  1  0.74912628  0.94842531  0.49320685  1
loop_
_geom_bond_atom_site_label_1
_geom_bond_atom_site_label_2
_geom_bond_distance
_geom_bond_site_symmetry_2
Cs0 S1 3.637957 1_555
Cs0 S4 3.652385 1_455
Cs0 S4 3.659519 1_565
Cs0 S0 3.750375 1_446
Cs0 S7 3.750375 1_445
Cs0 S0 3.753926 1_556
Cs0 S7 3.753926 1_555
Cs0 S6 3.818347 1_555
Cs0 S6 3.818347 1_556
Cs1 S2 3.637969 1_555
Cs1 S6 3.652472 1_545
Cs1 S6 3.659472 1_655
Cs1 S3 3.750359 1_445
Cs1 S5 3.750359 1_444
Cs1 S3 3.753961 1_555
Cs1 S5 3.753961 1_554
Cs1 S4 3.818349 1_555
Cs1 S4 3.818349 1_554
Cu0 S7 2.320672 1_555
Cu0 S3 2.320718 1_555
Cu0 S2 2.349547 1_555
Cu0 S1 2.349551 1_555
Cu1 S6 2.330471 1_555
Cu1 S7 2.336391 1_445
Cu1 S0 2.336391 1_445
Cu1 S2 2.339254 1_555
Cu2 S4 2.330445 1_555
Cu2 S5 2.336400 1_445
Cu2 S3 2.336400 1_445
Cu2 S1 2.339283 1_555
Cu3 S0 2.320672 1_556
Cu3 S5 2.320718 1_555
Cu3 S2 2.349547 1_556
Cu3 S1 2.349551 1_555
S0 Ta1 2.295899 1_555
S1 Ta0 2.318643 1_555
S2 Ta1 2.318701 1_555
S3 Ta0 2.295908 1_555
S4 Ta0 2.280745 1_555
S5 Ta0 2.295908 1_555
S6 Ta1 2.280696 1_555
S7 Ta1 2.295899 1_555
