# generated using pymatgen
data_Ta3Co2SiN
_symmetry_space_group_name_H-M   'P 1'
_cell_length_a   7.92565395
_cell_length_b   7.92565017
_cell_length_c   7.92565498
_cell_angle_alpha   59.99971329
_cell_angle_beta   59.99972081
_cell_angle_gamma   59.99985267
_symmetry_Int_Tables_number   1
_chemical_formula_structural   Ta3Co2SiN
_chemical_formula_sum   'Ta12 Co8 Si4 N4'
_cell_volume   352.03660932
_cell_formula_units_Z   4
loop_
 _symmetry_equiv_pos_site_id
 _symmetry_equiv_pos_as_xyz
  1  'x, y, z'
loop_
 _atom_site_type_symbol
 _atom_site_label
 _atom_site_symmetry_multiplicity
 _atom_site_fract_x
 _atom_site_fract_y
 _atom_site_fract_z
 _atom_site_occupancy
  Ta  Ta0  1  0.80019993  0.80020321  0.19980257  1
  Ta  Ta1  1  0.19978040  0.19979357  0.80019743  1
  Ta  Ta2  1  0.80021095  0.19980058  0.80020198  1
  Ta  Ta3  1  0.19979259  0.80019622  0.19979196  1
  Ta  Ta4  1  0.19980225  0.80020959  0.80019616  1
  Ta  Ta5  1  0.80019589  0.19979483  0.19978771  1
  Ta  Ta6  1  0.44979024  0.44978932  0.05020046  1
  Ta  Ta7  1  0.05021771  0.05021152  0.44980237  1
  Ta  Ta8  1  0.44978342  0.05020257  0.44979172  1
  Ta  Ta9  1  0.05021482  0.44979845  0.05021375  1
  Ta  Ta10  1  0.05020017  0.44978617  0.44979472  1
  Ta  Ta11  1  0.44980382  0.05021520  0.05021431  1
  Co  Co0  1  0.74185454  0.41936866  0.41937940  1
  Co  Co1  1  0.41938160  0.74184729  0.41937630  1
  Co  Co2  1  0.41937916  0.41936828  0.74185494  1
  Co  Co3  1  0.41939063  0.41937390  0.41938638  1
  Co  Co4  1  0.50812867  0.83063486  0.83062824  1
  Co  Co5  1  0.83062476  0.50814026  0.83062868  1
  Co  Co6  1  0.83062514  0.83063595  0.50813147  1
  Co  Co7  1  0.83061925  0.83062908  0.83062119  1
  Si  Si0  1  0.12499795  0.62500142  0.62500095  1
  Si  Si1  1  0.62500247  0.12499849  0.62500016  1
  Si  Si2  1  0.62500237  0.62500066  0.12499794  1
  Si  Si3  1  0.62500180  0.62500002  0.62499975  1
  N  N0  1  0.62500000  0.12499971  0.12499939  1
  N  N1  1  0.12499941  0.62499881  0.12500026  1
  N  N2  1  0.12499937  0.12500033  0.62499836  1
  N  N3  1  0.12500071  0.12500104  0.12500145  1
loop_
_geom_bond_atom_site_label_1
_geom_bond_atom_site_label_2
_geom_bond_distance
_geom_bond_site_symmetry_2
Co0 Si1 2.409573 1_555
Co0 Si2 2.409652 1_555
Co0 Si3 2.409773 1_555
Co0 Co3 2.555689 1_555
Co0 Co2 2.555818 1_555
Co0 Co1 2.555825 1_555
Co0 Ta7 2.706420 1_655
Co0 Ta9 2.706445 1_655
Co0 Ta10 2.706471 1_655
Co0 Ta5 2.773211 1_555
Co0 Ta2 2.773239 1_555
Co0 Ta0 2.773282 1_555
Co1 Si2 2.409608 1_555
Co1 Si0 2.409636 1_555
Co1 Si3 2.409733 1_555
Co1 Co3 2.555736 1_555
Co1 Co2 2.555844 1_555
Co1 Ta11 2.706452 1_565
Co1 Ta7 2.706455 1_565
Co1 Ta8 2.706473 1_565
Co1 Ta0 2.773206 1_555
Co1 Ta3 2.773237 1_555
Co1 Ta4 2.773239 1_555
Co2 Si1 2.409588 1_555
Co2 Si0 2.409659 1_555
Co2 Si3 2.409780 1_555
Co2 Co3 2.555707 1_555
Co2 Ta11 2.706384 1_556
Co2 Ta9 2.706436 1_556
Co2 Ta6 2.706467 1_556
Co2 Ta1 2.773258 1_555
Co2 Ta2 2.773275 1_555
Co2 Ta4 2.773320 1_555
Co3 Si1 2.409602 1_555
Co3 Si2 2.409681 1_555
Co3 Si0 2.409712 1_555
Co3 Ta8 2.706522 1_555
Co3 Ta6 2.706583 1_555
Co3 Ta10 2.706601 1_555
Co3 Ta5 2.773170 1_555
Co3 Ta1 2.773225 1_555
Co3 Ta3 2.773278 1_555
Co4 Si1 2.409622 1_565
Co4 Si2 2.409665 1_556
Co4 Si3 2.409801 1_555
Co4 Co7 2.555898 1_555
Co4 Co5 2.555980 1_555
Co4 Co6 2.555986 1_555
Co4 Ta3 2.706358 1_556
Co4 Ta1 2.706379 1_565
Co4 Ta4 2.706433 1_555
Co4 Ta11 2.773277 1_566
Co4 Ta8 2.773298 1_565
Co4 Ta6 2.773335 1_556
Co5 Si2 2.409607 1_556
Co5 Si0 2.409632 1_655
Co5 Si3 2.409758 1_555
Co5 Co7 2.555882 1_555
Co5 Co6 2.555984 1_555
Co5 Ta1 2.706360 1_655
Co5 Ta5 2.706366 1_556
Co5 Ta2 2.706458 1_555
Co5 Ta9 2.773275 1_656
Co5 Ta6 2.773301 1_556
Co5 Ta10 2.773309 1_655
Co6 Si1 2.409599 1_565
Co6 Si0 2.409670 1_655
Co6 Si3 2.409782 1_555
Co6 Co7 2.555892 1_555
Co6 Ta5 2.706361 1_565
Co6 Ta3 2.706388 1_655
Co6 Ta0 2.706456 1_555
Co6 Ta7 2.773270 1_665
Co6 Ta8 2.773320 1_565
Co6 Ta10 2.773364 1_655
Co7 Si1 2.409640 1_565
Co7 Si2 2.409683 1_556
Co7 Si0 2.409704 1_655
Co7 Ta2 2.706429 1_565
Co7 Ta0 2.706450 1_556
Co7 Ta4 2.706465 1_655
Co7 Ta11 2.773212 1_566
Co7 Ta7 2.773223 1_665
Co7 Ta9 2.773295 1_656
Si0 Ta4 2.789725 1_555
Si0 Ta3 2.789731 1_555
Si0 Ta1 2.789737 1_555
Si0 Ta7 2.789755 1_565
Si0 Ta9 2.789770 1_556
Si0 Ta10 2.789811 1_555
Si1 Ta5 2.789753 1_555
Si1 Ta2 2.789760 1_555
Si1 Ta11 2.789779 1_556
Si1 Ta7 2.789784 1_655
Si1 Ta1 2.789821 1_555
Si1 Ta8 2.789841 1_555
Si2 Ta0 2.789704 1_555
Si2 Ta5 2.789717 1_555
Si2 Ta3 2.789741 1_555
Si2 Ta9 2.789770 1_655
Si2 Ta11 2.789783 1_565
Si2 Ta6 2.789821 1_555
Si3 Ta0 2.789647 1_555
Si3 Ta4 2.789670 1_555
Si3 Ta2 2.789674 1_555
Si3 Ta10 2.789678 1_655
Si3 Ta6 2.789690 1_556
Si3 Ta8 2.789708 1_565
N0 Ta11 2.151289 1_555
N0 Ta5 2.151368 1_555
N0 Ta6 2.151439 1_555
N0 Ta8 2.151462 1_555
N0 Ta0 2.151465 1_545
N0 Ta2 2.151483 1_554
N1 Ta9 2.151328 1_555
N1 Ta3 2.151387 1_555
N1 Ta6 2.151447 1_555
N1 Ta10 2.151468 1_555
N1 Ta0 2.151490 1_455
N1 Ta4 2.151522 1_554
N2 Ta7 2.151293 1_555
N2 Ta1 2.151338 1_555
N2 Ta8 2.151401 1_555
N2 Ta10 2.151406 1_555
N2 Ta2 2.151422 1_455
N2 Ta4 2.151426 1_545
N3 Ta9 2.151506 1_555
N3 Ta7 2.151533 1_555
N3 Ta3 2.151547 1_545
N3 Ta11 2.151550 1_555
N3 Ta5 2.151552 1_455
N3 Ta1 2.151556 1_554
