# generated using pymatgen
data_Ta3AlCu2C
_symmetry_space_group_name_H-M   'P 1'
_cell_length_a   8.17542589
_cell_length_b   8.17542613
_cell_length_c   8.17542614
_cell_angle_alpha   59.99999599
_cell_angle_beta   59.99999500
_cell_angle_gamma   59.99999766
_symmetry_Int_Tables_number   1
_chemical_formula_structural   Ta3AlCu2C
_chemical_formula_sum   'Ta12 Al4 Cu8 C4'
_cell_volume   386.38134438
_cell_formula_units_Z   4
loop_
 _symmetry_equiv_pos_site_id
 _symmetry_equiv_pos_as_xyz
  1  'x, y, z'
loop_
 _atom_site_type_symbol
 _atom_site_label
 _atom_site_symmetry_multiplicity
 _atom_site_fract_x
 _atom_site_fract_y
 _atom_site_fract_z
 _atom_site_occupancy
  Ta  Ta0  1  0.81724011  0.18275989  0.81724011  1
  Ta  Ta1  1  0.06724011  0.43275989  0.43275989  1
  Ta  Ta2  1  0.43275989  0.06724011  0.06724011  1
  Ta  Ta3  1  0.06724011  0.43275989  0.06724011  1
  Ta  Ta4  1  0.43275989  0.43275989  0.06724011  1
  Ta  Ta5  1  0.06724011  0.06724011  0.43275989  1
  Ta  Ta6  1  0.81724011  0.81724011  0.18275989  1
  Ta  Ta7  1  0.18275989  0.81724011  0.81724011  1
  Ta  Ta8  1  0.81724011  0.18275989  0.18275989  1
  Ta  Ta9  1  0.18275989  0.18275989  0.81724011  1
  Ta  Ta10  1  0.43275989  0.06724011  0.43275989  1
  Ta  Ta11  1  0.18275989  0.81724011  0.18275989  1
  Al  Al0  1  0.62500000  0.62500000  0.62500000  1
  Al  Al1  1  0.12500000  0.62500000  0.62500000  1
  Al  Al2  1  0.62500000  0.12500000  0.62500000  1
  Al  Al3  1  0.62500000  0.62500000  0.12500000  1
  Cu  Cu0  1  0.41806801  0.41806801  0.41806801  1
  Cu  Cu1  1  0.50420502  0.83193199  0.83193199  1
  Cu  Cu2  1  0.83193199  0.50420502  0.83193199  1
  Cu  Cu3  1  0.83193199  0.83193199  0.50420502  1
  Cu  Cu4  1  0.41806801  0.74579498  0.41806801  1
  Cu  Cu5  1  0.41806801  0.41806801  0.74579498  1
  Cu  Cu6  1  0.74579498  0.41806801  0.41806801  1
  Cu  Cu7  1  0.83193199  0.83193199  0.83193199  1
  C  C0  1  0.12500000  0.12500000  0.12500000  1
  C  C1  1  0.62500000  0.12500000  0.12500000  1
  C  C2  1  0.12500000  0.62500000  0.12500000  1
  C  C3  1  0.12500000  0.12500000  0.62500000  1
loop_
_geom_bond_atom_site_label_1
_geom_bond_atom_site_label_2
_geom_bond_distance
_geom_bond_site_symmetry_2
Al0 Cu3 2.493991 1_555
Al0 Cu5 2.493991 1_555
Al0 Cu2 2.493991 1_555
Al0 Cu4 2.493991 1_555
Al0 Cu1 2.493991 1_555
Al0 Cu6 2.493991 1_555
Al1 Cu4 2.493984 1_555
Al1 Cu2 2.493984 1_455
Al1 Cu5 2.493984 1_555
Al1 Cu3 2.493984 1_455
Al1 Cu7 2.493989 1_455
Al1 Cu0 2.493989 1_555
Al2 Cu6 2.493984 1_555
Al2 Cu1 2.493984 1_545
Al2 Cu5 2.493984 1_555
Al2 Cu3 2.493984 1_545
Al2 Cu7 2.493989 1_545
Al2 Cu0 2.493989 1_555
Al3 Cu4 2.493984 1_555
Al3 Cu2 2.493984 1_554
Al3 Cu6 2.493984 1_555
Al3 Cu1 2.493984 1_554
Al3 Cu7 2.493989 1_554
Al3 Cu0 2.493989 1_555
Cu0 Cu6 2.679308 1_555
Cu0 Cu4 2.679308 1_555
Cu0 Cu5 2.679308 1_555
Cu0 Ta1 2.753300 1_555
Cu0 Ta4 2.753300 1_555
Cu0 Ta10 2.753300 1_555
Cu0 Ta9 3.032534 1_555
Cu0 Ta8 3.032534 1_555
Cu0 Ta11 3.032535 1_555
Cu1 Cu3 2.679307 1_555
Cu1 Cu2 2.679308 1_555
Cu1 Cu7 2.679308 1_555
Cu1 Ta11 2.753304 1_556
Cu1 Ta9 2.753304 1_565
Cu1 Ta7 2.753308 1_555
Cu1 Ta2 3.032531 1_566
Cu1 Ta4 3.032538 1_556
Cu1 Ta10 3.032538 1_565
Cu2 Cu3 2.679307 1_555
Cu2 Cu7 2.679308 1_555
Cu2 Ta8 2.753304 1_556
Cu2 Ta9 2.753304 1_655
Cu2 Ta0 2.753308 1_555
Cu2 Ta3 3.032531 1_656
Cu2 Ta4 3.032538 1_556
Cu2 Ta1 3.032538 1_655
Cu3 Cu7 2.679308 1_555
Cu3 Ta11 2.753304 1_655
Cu3 Ta8 2.753304 1_565
Cu3 Ta6 2.753308 1_555
Cu3 Ta5 3.032531 1_665
Cu3 Ta10 3.032538 1_565
Cu3 Ta1 3.032538 1_655
Cu4 Cu5 2.679307 1_555
Cu4 Cu6 2.679308 1_555
Cu4 Ta2 2.753304 1_565
Cu4 Ta5 2.753304 1_565
Cu4 Ta10 2.753308 1_565
Cu4 Ta11 3.032531 1_555
Cu4 Ta6 3.032538 1_555
Cu4 Ta7 3.032538 1_555
Cu5 Cu6 2.679307 1_555
Cu5 Ta3 2.753304 1_556
Cu5 Ta2 2.753304 1_556
Cu5 Ta4 2.753308 1_556
Cu5 Ta9 3.032531 1_555
Cu5 Ta0 3.032538 1_555
Cu5 Ta7 3.032538 1_555
Cu6 Ta3 2.753304 1_655
Cu6 Ta5 2.753304 1_655
Cu6 Ta1 2.753308 1_655
Cu6 Ta8 3.032531 1_555
Cu6 Ta6 3.032538 1_555
Cu6 Ta0 3.032538 1_555
Cu7 Ta7 2.753300 1_655
Cu7 Ta6 2.753300 1_556
Cu7 Ta0 2.753300 1_565
Cu7 Ta5 3.032534 1_665
Cu7 Ta2 3.032534 1_566
Cu7 Ta3 3.032535 1_656
C0 Ta2 2.150190 1_555
C0 Ta8 2.150190 1_455
C0 Ta5 2.150190 1_555
C0 Ta9 2.150190 1_554
C0 Ta3 2.150190 1_555
C0 Ta11 2.150190 1_545
C1 Ta0 2.150190 1_554
C1 Ta10 2.150190 1_555
C1 Ta4 2.150190 1_555
C1 Ta6 2.150190 1_545
C1 Ta8 2.150190 1_555
C1 Ta2 2.150190 1_555
C2 Ta1 2.150190 1_555
C2 Ta7 2.150190 1_554
C2 Ta4 2.150190 1_555
C2 Ta6 2.150190 1_455
C2 Ta11 2.150190 1_555
C2 Ta3 2.150190 1_555
C3 Ta10 2.150190 1_555
C3 Ta0 2.150190 1_455
C3 Ta1 2.150190 1_555
C3 Ta7 2.150190 1_545
C3 Ta9 2.150190 1_555
C3 Ta5 2.150190 1_555
