# generated using pymatgen
data_K4Hf6BeI18
_symmetry_space_group_name_H-M   'P 1'
_cell_length_a   11.05827652
_cell_length_b   11.19356134
_cell_length_c   11.33141434
_cell_angle_alpha   118.67651468
_cell_angle_beta   100.41920263
_cell_angle_gamma   103.57303901
_symmetry_Int_Tables_number   1
_chemical_formula_structural   K4Hf6BeI18
_chemical_formula_sum   'K4 Hf6 Be1 I18'
_cell_volume   1123.15946936
_cell_formula_units_Z   1
loop_
 _symmetry_equiv_pos_site_id
 _symmetry_equiv_pos_as_xyz
  1  'x, y, z'
loop_
 _atom_site_type_symbol
 _atom_site_label
 _atom_site_symmetry_multiplicity
 _atom_site_fract_x
 _atom_site_fract_y
 _atom_site_fract_z
 _atom_site_occupancy
  K  K0  1  0.64559068  0.53585691  0.22575175  1
  K  K1  1  0.35440932  0.46414309  0.77424825  1
  K  K2  1  0.68121637  0.22773059  0.56533504  1
  K  K3  1  0.31878363  0.77226941  0.43466496  1
  Hf  Hf0  1  0.14401900  0.05402576  0.22429741  1
  Hf  Hf1  1  0.85598100  0.94597424  0.77570259  1
  Hf  Hf2  1  0.86869234  0.12436261  0.13324861  1
  Hf  Hf3  1  0.13130766  0.87563739  0.86675139  1
  Hf  Hf4  1  0.14130819  0.22988685  0.04150075  1
  Hf  Hf5  1  0.85869181  0.77011315  0.95849925  1
  Be  Be0  1  0.00000000  0.00000000  0.00000000  1
  I  I0  1  0.01084235  0.41464817  0.20073839  1
  I  I1  1  0.98915765  0.58535183  0.79926161  1
  I  I2  1  0.33258258  0.33481368  0.31340957  1
  I  I3  1  0.66741742  0.66518632  0.68659043  1
  I  I4  1  0.32143847  0.52327145  0.09742652  1
  I  I5  1  0.67856153  0.47672855  0.90257348  1
  I  I6  1  0.00529369  0.79253717  0.21136275  1
  I  I7  1  0.99470631  0.20746283  0.78863725  1
  I  I8  1  0.70526388  0.28105890  0.29307941  1
  I  I9  1  0.29473612  0.71894110  0.70692059  1
  I  I10  1  0.31931440  0.12584460  0.89940962  1
  I  I11  1  0.68068560  0.87415540  0.10059038  1
  I  I12  1  0.01808078  0.20908861  0.41724267  1
  I  I13  1  0.98191922  0.79091139  0.58275733  1
  I  I14  1  0.32059388  0.91998520  0.10861425  1
  I  I15  1  0.67940612  0.08001480  0.89138575  1
  I  I16  1  0.33480395  0.11963686  0.50503252  1
  I  I17  1  0.66519605  0.88036314  0.49496748  1
loop_
_geom_bond_atom_site_label_1
_geom_bond_atom_site_label_2
_geom_bond_distance
_geom_bond_site_symmetry_2
Hf0 I14 2.862783 1_545
Hf0 I12 2.885505 1_555
Hf0 I6 2.888163 1_545
Hf0 I2 2.891811 1_555
Hf0 I16 3.116574 1_555
Hf1 I15 2.862783 1_565
Hf1 I13 2.885505 1_555
Hf1 I7 2.888163 1_565
Hf1 I3 2.891811 1_555
Hf1 I17 3.116574 1_555
Hf2 I15 2.875871 1_554
Hf2 I11 2.880500 1_545
Hf2 I0 2.897736 1_655
Hf2 I12 2.897773 1_655
Hf2 I8 3.040671 1_555
Hf3 I14 2.875871 1_556
Hf3 I10 2.880500 1_565
Hf3 I1 2.897736 1_455
Hf3 I13 2.897773 1_455
Hf3 I9 3.040671 1_555
Hf4 I10 2.871624 1_554
Hf4 I7 2.887865 1_454
Hf4 I2 2.889696 1_555
Hf4 I0 2.893977 1_555
Hf4 I4 3.103201 1_555
Hf5 I11 2.871624 1_556
Hf5 I6 2.887865 1_656
Hf5 I3 2.889696 1_555
Hf5 I1 2.893977 1_555
Hf5 I5 3.103201 1_555
Be0 Hf4 2.443371 1_555
Be0 Hf5 2.443371 1_444
Be0 Hf0 2.443485 1_555
Be0 Hf1 2.443485 1_444
Be0 Hf2 2.459786 1_455
Be0 Hf3 2.459786 1_544
I0 K3 3.847085 1_555
I1 K2 3.847085 1_555
I4 K3 3.497035 1_555
I4 K1 3.500253 1_554
I4 K0 3.558717 1_555
I5 K2 3.497035 1_555
I5 K0 3.500253 1_556
I5 K1 3.558717 1_555
I6 K3 4.027295 1_555
I7 K2 4.027295 1_555
I8 K2 3.454584 1_555
I8 K0 3.455650 1_555
I9 K3 3.454584 1_555
I9 K1 3.455650 1_555
I16 K1 3.507431 1_555
I16 K3 3.526466 1_545
I16 K2 3.562243 1_555
I17 K0 3.507431 1_555
I17 K2 3.526466 1_565
I17 K3 3.562243 1_555
