# generated using pymatgen
data_Sc6Al8Si8Ir7
_symmetry_space_group_name_H-M   'P 1'
_cell_length_a   8.56817501
_cell_length_b   8.56817451
_cell_length_c   8.56817519
_cell_angle_alpha   60.00000117
_cell_angle_beta   60.00000311
_cell_angle_gamma   60.00000233
_symmetry_Int_Tables_number   1
_chemical_formula_structural   Sc6Al8Si8Ir7
_chemical_formula_sum   'Sc6 Al8 Si8 Ir7'
_cell_volume   444.78485736
_cell_formula_units_Z   1
loop_
 _symmetry_equiv_pos_site_id
 _symmetry_equiv_pos_as_xyz
  1  'x, y, z'
loop_
 _atom_site_type_symbol
 _atom_site_label
 _atom_site_symmetry_multiplicity
 _atom_site_fract_x
 _atom_site_fract_y
 _atom_site_fract_z
 _atom_site_occupancy
  Sc  Sc0  1  0.19343756  0.80656244  0.80656244  1
  Sc  Sc1  1  0.80656244  0.19343756  0.19343756  1
  Sc  Sc2  1  0.80656244  0.19343756  0.80656244  1
  Sc  Sc3  1  0.80656244  0.80656244  0.19343756  1
  Sc  Sc4  1  0.19343756  0.80656244  0.19343756  1
  Sc  Sc5  1  0.19343756  0.19343756  0.80656244  1
  Al  Al0  1  0.62215039  0.62215039  0.62215039  1
  Al  Al1  1  0.62215039  0.62215039  0.13354682  1
  Al  Al2  1  0.13354682  0.62215039  0.62215039  1
  Al  Al3  1  0.62215039  0.13354682  0.62215039  1
  Al  Al4  1  0.37784961  0.37784961  0.37784961  1
  Al  Al5  1  0.37784961  0.37784961  0.86645318  1
  Al  Al6  1  0.37784961  0.86645318  0.37784961  1
  Al  Al7  1  0.86645318  0.37784961  0.37784961  1
  Si  Si0  1  0.84706817  0.84706817  0.84706817  1
  Si  Si1  1  0.84706817  0.84706817  0.45879550  1
  Si  Si2  1  0.45879550  0.84706817  0.84706817  1
  Si  Si3  1  0.84706817  0.45879550  0.84706817  1
  Si  Si4  1  0.15293183  0.15293183  0.15293183  1
  Si  Si5  1  0.15293183  0.15293183  0.54120450  1
  Si  Si6  1  0.15293183  0.54120450  0.15293183  1
  Si  Si7  1  0.54120450  0.15293183  0.15293183  1
  Ir  Ir0  1  0.50000000  0.50000000  0.50000000  1
  Ir  Ir1  1  0.00000000  0.50000000  0.50000000  1
  Ir  Ir2  1  0.50000000  0.00000000  0.00000000  1
  Ir  Ir3  1  0.50000000  0.00000000  0.50000000  1
  Ir  Ir4  1  0.50000000  0.50000000  0.00000000  1
  Ir  Ir5  1  0.00000000  0.50000000  0.00000000  1
  Ir  Ir6  1  0.00000000  0.00000000  0.50000000  1
loop_
_geom_bond_atom_site_label_1
_geom_bond_atom_site_label_2
_geom_bond_distance
_geom_bond_site_symmetry_2
Sc0 Si5 2.666259 1_565
Sc0 Si2 2.666259 1_555
Sc0 Si0 2.666259 1_455
Sc0 Si6 2.666259 1_556
Sc1 Si1 2.666259 1_545
Sc1 Si7 2.666259 1_555
Sc1 Si4 2.666259 1_655
Sc1 Si3 2.666259 1_554
Sc2 Si0 2.666259 1_545
Sc2 Si3 2.666259 1_555
Sc2 Si5 2.666259 1_655
Sc2 Si7 2.666259 1_556
Sc3 Si7 2.666259 1_565
Sc3 Si1 2.666259 1_555
Sc3 Si6 2.666259 1_655
Sc3 Si0 2.666259 1_554
Sc4 Si4 2.666259 1_565
Sc4 Si6 2.666259 1_555
Sc4 Si1 2.666259 1_455
Sc4 Si2 2.666259 1_554
Sc5 Si2 2.666259 1_545
Sc5 Si5 2.666259 1_555
Sc5 Si3 2.666259 1_455
Sc5 Si4 2.666259 1_556
Al0 Ir0 2.563650 1_555
Al0 Ir3 2.643994 1_565
Al0 Ir1 2.643994 1_655
Al0 Ir4 2.643994 1_556
Al0 Si1 2.775956 1_555
Al0 Si2 2.775956 1_555
Al0 Si3 2.775956 1_555
Al1 Ir0 2.563665 1_555
Al1 Ir4 2.643980 1_555
Al1 Ir2 2.643994 1_565
Al1 Ir5 2.643994 1_655
Al1 Si2 2.775943 1_554
Al1 Si3 2.775943 1_554
Al1 Si0 2.775953 1_554
Al2 Ir0 2.563665 1_555
Al2 Ir1 2.643980 1_555
Al2 Ir6 2.643994 1_565
Al2 Ir5 2.643994 1_556
Al2 Si3 2.775943 1_455
Al2 Si1 2.775943 1_455
Al2 Si0 2.775953 1_455
Al3 Ir0 2.563664 1_555
Al3 Ir3 2.643980 1_555
Al3 Ir6 2.643994 1_655
Al3 Ir2 2.643994 1_556
Al3 Si2 2.775943 1_545
Al3 Si1 2.775943 1_545
Al3 Si0 2.775953 1_545
Al4 Ir0 2.563650 1_555
Al4 Ir3 2.643994 1_555
Al4 Ir1 2.643994 1_555
Al4 Ir4 2.643994 1_555
Al4 Si5 2.775956 1_555
Al4 Si7 2.775956 1_555
Al4 Si6 2.775956 1_555
Al5 Ir0 2.563665 1_555
Al5 Ir4 2.643980 1_556
Al5 Ir2 2.643994 1_556
Al5 Ir5 2.643994 1_556
Al5 Si7 2.775943 1_556
Al5 Si6 2.775943 1_556
Al5 Si4 2.775953 1_556
Al6 Ir0 2.563664 1_555
Al6 Ir3 2.643980 1_565
Al6 Ir6 2.643994 1_565
Al6 Ir2 2.643994 1_565
Al6 Si7 2.775943 1_565
Al6 Si5 2.775943 1_565
Al6 Si4 2.775953 1_565
Al7 Ir0 2.563665 1_555
Al7 Ir1 2.643980 1_655
Al7 Ir6 2.643994 1_655
Al7 Ir5 2.643994 1_655
Al7 Si6 2.775943 1_655
Al7 Si5 2.775943 1_655
Al7 Si4 2.775953 1_655
Ir1 Si1 2.490160 1_455
Ir1 Si5 2.490160 1_555
Ir1 Si3 2.490160 1_455
Ir1 Si6 2.490160 1_555
Ir2 Si7 2.490160 1_555
Ir2 Si2 2.490160 1_544
Ir2 Si0 2.490160 1_544
Ir2 Si4 2.490160 1_555
Ir3 Si1 2.490160 1_545
Ir3 Si5 2.490160 1_555
Ir3 Si2 2.490160 1_545
Ir3 Si7 2.490160 1_555
Ir4 Si2 2.490160 1_554
Ir4 Si7 2.490160 1_555
Ir4 Si3 2.490160 1_554
Ir4 Si6 2.490160 1_555
Ir5 Si0 2.490160 1_454
Ir5 Si4 2.490160 1_555
Ir5 Si6 2.490160 1_555
Ir5 Si3 2.490160 1_454
Ir6 Si5 2.490160 1_555
Ir6 Si1 2.490160 1_445
Ir6 Si4 2.490160 1_555
Ir6 Si0 2.490160 1_445
