# generated using pymatgen
data_LuHS
_symmetry_space_group_name_H-M   'P 1'
_cell_length_a   3.63348256
_cell_length_b   3.63348383
_cell_length_c   3.65244024
_cell_angle_alpha   90.00000000
_cell_angle_beta   90.00000000
_cell_angle_gamma   119.99998847
_symmetry_Int_Tables_number   1
_chemical_formula_structural   LuHS
_chemical_formula_sum   'Lu1 H1 S1'
_cell_volume   41.75996375
_cell_formula_units_Z   1
loop_
 _symmetry_equiv_pos_site_id
 _symmetry_equiv_pos_as_xyz
  1  'x, y, z'
loop_
 _atom_site_type_symbol
 _atom_site_label
 _atom_site_symmetry_multiplicity
 _atom_site_fract_x
 _atom_site_fract_y
 _atom_site_fract_z
 _atom_site_occupancy
  Lu  Lu0  1  0.00000000  0.00000000  0.00000000  1
  H  H0  1  0.33333300  0.66666700  0.00000000  1
  S  S0  1  0.66666700  0.33333300  0.50000000  1
loop_
_geom_bond_atom_site_label_1
_geom_bond_atom_site_label_2
_geom_bond_distance
_geom_bond_site_symmetry_2
Lu0 S0 2.781331 1_455
Lu0 S0 2.781331 1_454
Lu0 S0 2.781334 1_554
Lu0 S0 2.781334 1_555
Lu0 S0 2.781334 1_444
Lu0 S0 2.781334 1_445
H0 Lu0 2.097790 1_565
H0 Lu0 2.097793 1_665
H0 Lu0 2.097794 1_555
