# generated using pymatgen
data_Rb8TiSb4
_symmetry_space_group_name_H-M   'P 1'
_cell_length_a   11.93249291
_cell_length_b   11.93249259
_cell_length_c   11.93249375
_cell_angle_alpha   59.99999677
_cell_angle_beta   59.99999767
_cell_angle_gamma   59.99999755
_symmetry_Int_Tables_number   1
_chemical_formula_structural   Rb8TiSb4
_chemical_formula_sum   'Rb16 Ti2 Sb8'
_cell_volume   1201.37488791
_cell_formula_units_Z   2
loop_
 _symmetry_equiv_pos_site_id
 _symmetry_equiv_pos_as_xyz
  1  'x, y, z'
loop_
 _atom_site_type_symbol
 _atom_site_label
 _atom_site_symmetry_multiplicity
 _atom_site_fract_x
 _atom_site_fract_y
 _atom_site_fract_z
 _atom_site_occupancy
  Rb  Rb0  1  0.62500000  0.12500000  0.62500000  1
  Rb  Rb1  1  0.62500000  0.62500000  0.12500000  1
  Rb  Rb2  1  0.12500000  0.62500000  0.62500000  1
  Rb  Rb3  1  0.62500000  0.62500000  0.62500000  1
  Rb  Rb4  1  0.02657764  0.02657764  0.47342236  1
  Rb  Rb5  1  0.77657764  0.22342236  0.22342236  1
  Rb  Rb6  1  0.22342236  0.77657764  0.77657764  1
  Rb  Rb7  1  0.77657764  0.77657764  0.22342236  1
  Rb  Rb8  1  0.77657764  0.22342236  0.77657764  1
  Rb  Rb9  1  0.22342236  0.77657764  0.22342236  1
  Rb  Rb10  1  0.47342236  0.02657764  0.47342236  1
  Rb  Rb11  1  0.47342236  0.02657764  0.02657764  1
  Rb  Rb12  1  0.02657764  0.47342236  0.47342236  1
  Rb  Rb13  1  0.02657764  0.47342236  0.02657764  1
  Rb  Rb14  1  0.22342236  0.22342236  0.77657764  1
  Rb  Rb15  1  0.47342236  0.47342236  0.02657764  1
  Ti  Ti0  1  0.75000000  0.75000000  0.75000000  1
  Ti  Ti1  1  0.50000000  0.50000000  0.50000000  1
  Sb  Sb0  1  0.40439792  0.78680623  0.40439792  1
  Sb  Sb1  1  0.84560208  0.84560208  0.46319377  1
  Sb  Sb2  1  0.46319377  0.84560208  0.84560208  1
  Sb  Sb3  1  0.84560208  0.84560208  0.84560208  1
  Sb  Sb4  1  0.78680623  0.40439792  0.40439792  1
  Sb  Sb5  1  0.40439792  0.40439792  0.40439792  1
  Sb  Sb6  1  0.40439792  0.40439792  0.78680623  1
  Sb  Sb7  1  0.84560208  0.46319377  0.84560208  1
loop_
_geom_bond_atom_site_label_1
_geom_bond_atom_site_label_2
_geom_bond_distance
_geom_bond_site_symmetry_2
Rb0 Ti0 3.653565 1_545
Rb0 Ti1 3.653565 1_555
Rb0 Sb4 3.788214 1_555
Rb0 Sb2 3.788214 1_545
Rb0 Sb3 3.788214 1_545
Rb0 Sb6 3.788214 1_555
Rb0 Sb5 3.788214 1_555
Rb0 Sb1 3.788214 1_545
Rb1 Ti1 3.653565 1_555
Rb1 Ti0 3.653565 1_554
Rb1 Sb3 3.788214 1_554
Rb1 Sb5 3.788214 1_555
Rb1 Sb4 3.788214 1_555
Rb1 Sb2 3.788214 1_554
Rb1 Sb0 3.788214 1_555
Rb1 Sb7 3.788214 1_554
Rb2 Ti1 3.653565 1_555
Rb2 Ti0 3.653565 1_455
Rb2 Sb0 3.788214 1_555
Rb2 Sb7 3.788214 1_455
Rb2 Sb3 3.788214 1_455
Rb2 Sb6 3.788214 1_555
Rb2 Sb5 3.788214 1_555
Rb2 Sb1 3.788214 1_455
Rb3 Ti1 3.653565 1_555
Rb3 Ti0 3.653565 1_555
Rb3 Sb1 3.788214 1_555
Rb3 Sb6 3.788214 1_555
Rb3 Sb2 3.788214 1_555
Rb3 Sb4 3.788214 1_555
Rb3 Sb7 3.788214 1_555
Rb3 Sb0 3.788214 1_555
Rb4 Sb3 3.812116 1_445
Rb4 Sb1 3.812116 1_445
Rb4 Sb4 3.864426 1_455
Rb4 Sb0 3.864426 1_545
Rb5 Sb5 3.812115 1_555
Rb5 Sb4 3.812116 1_555
Rb5 Sb1 3.864426 1_545
Rb5 Sb7 3.864426 1_554
Rb6 Sb6 3.812115 1_555
Rb6 Sb0 3.812116 1_555
Rb6 Sb3 3.864426 1_455
Rb6 Sb2 3.864426 1_555
Rb7 Sb4 3.812115 1_555
Rb7 Sb0 3.812116 1_555
Rb7 Sb1 3.864427 1_555
Rb7 Sb3 3.864427 1_554
Rb8 Sb6 3.812115 1_555
Rb8 Sb4 3.812116 1_555
Rb8 Sb3 3.864426 1_545
Rb8 Sb7 3.864426 1_555
Rb9 Sb5 3.812115 1_555
Rb9 Sb0 3.812116 1_555
Rb9 Sb1 3.864426 1_455
Rb9 Sb2 3.864426 1_554
Rb10 Sb1 3.812115 1_545
Rb10 Sb2 3.812116 1_545
Rb10 Sb5 3.864426 1_555
Rb10 Sb0 3.864426 1_545
Rb11 Sb3 3.812115 1_544
Rb11 Sb2 3.812116 1_544
Rb11 Sb6 3.864426 1_554
Rb11 Sb0 3.864426 1_545
Rb12 Sb1 3.812115 1_455
Rb12 Sb7 3.812116 1_455
Rb12 Sb5 3.864426 1_555
Rb12 Sb4 3.864426 1_455
Rb13 Sb3 3.812115 1_454
Rb13 Sb7 3.812116 1_454
Rb13 Sb6 3.864426 1_554
Rb13 Sb4 3.864426 1_455
Rb14 Sb5 3.812116 1_555
Rb14 Sb6 3.812116 1_555
Rb14 Sb2 3.864426 1_545
Rb14 Sb7 3.864426 1_455
Rb15 Sb2 3.812115 1_554
Rb15 Sb7 3.812116 1_554
Rb15 Sb6 3.864427 1_554
Rb15 Sb5 3.864427 1_555
Sb0 Ti1 2.794307 1_555
Sb1 Ti0 2.794307 1_555
Sb2 Ti0 2.794307 1_555
Sb3 Ti0 2.794307 1_555
Sb4 Ti1 2.794307 1_555
Sb5 Ti1 2.794307 1_555
Sb6 Ti1 2.794307 1_555
Sb7 Ti0 2.794307 1_555
