# generated using pymatgen
data_Hf4Nb5WN12
_symmetry_space_group_name_H-M   'P 1'
_cell_length_a   5.29009495
_cell_length_b   5.26615471
_cell_length_c   10.57301592
_cell_angle_alpha   90.00000000
_cell_angle_beta   90.00000000
_cell_angle_gamma   120.15050291
_symmetry_Int_Tables_number   1
_chemical_formula_structural   Hf4Nb5WN12
_chemical_formula_sum   'Hf4 Nb5 W1 N12'
_cell_volume   254.69825075
_cell_formula_units_Z   1
loop_
 _symmetry_equiv_pos_site_id
 _symmetry_equiv_pos_as_xyz
  1  'x, y, z'
loop_
 _atom_site_type_symbol
 _atom_site_label
 _atom_site_symmetry_multiplicity
 _atom_site_fract_x
 _atom_site_fract_y
 _atom_site_fract_z
 _atom_site_occupancy
  Hf  Hf0  1  0.33131840  0.66500101  0.49835767  1
  Hf  Hf1  1  0.66631840  0.33499899  0.00164233  1
  Hf  Hf2  1  0.66631840  0.33499899  0.49835767  1
  Hf  Hf3  1  0.33131840  0.66500101  0.00164233  1
  Nb  Nb0  1  0.67902102  0.67954035  0.25000000  1
  Nb  Nb1  1  0.99948067  0.32045965  0.25000000  1
  Nb  Nb2  1  0.99970005  0.67664687  0.75000000  1
  Nb  Nb3  1  0.32305218  0.32335313  0.75000000  1
  Nb  Nb4  1  0.32043807  1.00000000  0.25000000  1
  W  W0  1  0.67856386  0.00000000  0.75000000  1
  N  N0  1  0.34556832  0.34554568  0.37627748  1
  N  N1  1  0.65223588  1.00000000  0.37664682  1
  N  N2  1  0.00002265  0.65445432  0.37627748  1
  N  N3  1  0.99442716  0.33951093  0.87359856  1
  N  N4  1  0.65223588  1.00000000  0.12335318  1
  N  N5  1  0.65491623  0.66048907  0.87359856  1
  N  N6  1  0.35506504  0.00000000  0.87276241  1
  N  N7  1  0.65491623  0.66048907  0.62640144  1
  N  N8  1  0.99442716  0.33951093  0.62640144  1
  N  N9  1  0.00002265  0.65445432  0.12372252  1
  N  N10  1  0.35506504  0.00000000  0.62723759  1
  N  N11  1  0.34556832  0.34554568  0.12372252  1
loop_
_geom_bond_atom_site_label_1
_geom_bond_atom_site_label_2
_geom_bond_distance
_geom_bond_site_symmetry_2
Hf0 N0 2.151573 1_555
Hf0 N1 2.154476 1_555
Hf0 N2 2.154741 1_555
Hf0 N10 2.182251 1_565
Hf0 N7 2.191962 1_555
Hf0 N8 2.208701 1_455
Hf1 N9 2.151570 1_655
Hf1 N4 2.154474 1_545
Hf1 N11 2.154746 1_555
Hf1 N6 2.182253 1_554
Hf1 N3 2.191958 1_554
Hf1 N5 2.208704 1_554
Hf2 N2 2.151570 1_655
Hf2 N1 2.154474 1_545
Hf2 N0 2.154746 1_555
Hf2 N10 2.182253 1_555
Hf2 N8 2.191958 1_555
Hf2 N7 2.208704 1_555
Hf3 N11 2.151573 1_555
Hf3 N4 2.154476 1_555
Hf3 N9 2.154741 1_555
Hf3 N6 2.182251 1_564
Hf3 N5 2.191962 1_554
Hf3 N3 2.208701 1_454
N0 Nb4 2.206477 1_545
N0 Nb0 2.207066 1_555
N0 Nb1 2.215633 1_455
N1 Nb4 2.207691 1_555
N1 Nb1 2.213882 1_565
N1 Nb0 2.213882 1_555
N2 Nb4 2.206477 1_555
N2 Nb1 2.207066 1_455
N2 Nb0 2.215633 1_455
N3 W0 2.166879 1_555
N3 Nb2 2.193368 1_555
N3 Nb3 2.210390 1_655
N4 Nb4 2.207691 1_555
N4 Nb1 2.213882 1_565
N4 Nb0 2.213882 1_555
N5 W0 2.166879 1_565
N5 Nb3 2.193370 1_555
N5 Nb2 2.210394 1_555
N6 W0 2.147884 1_555
N6 Nb2 2.214204 1_445
N6 Nb3 2.214207 1_555
N7 W0 2.166879 1_565
N7 Nb3 2.193370 1_555
N7 Nb2 2.210394 1_555
N8 W0 2.166879 1_555
N8 Nb2 2.193368 1_555
N8 Nb3 2.210390 1_655
N9 Nb4 2.206477 1_555
N9 Nb1 2.207066 1_455
N9 Nb0 2.215633 1_455
N10 W0 2.147884 1_555
N10 Nb2 2.214204 1_445
N10 Nb3 2.214207 1_555
N11 Nb4 2.206477 1_545
N11 Nb0 2.207066 1_555
N11 Nb1 2.215633 1_455
