# generated using pymatgen
data_Li4NiRh3O8
_symmetry_space_group_name_H-M   'P 1'
_cell_length_a   5.83420108
_cell_length_b   5.83420088
_cell_length_c   5.83420110
_cell_angle_alpha   61.88810931
_cell_angle_beta   61.88811459
_cell_angle_gamma   61.88811439
_symmetry_Int_Tables_number   1
_chemical_formula_structural   Li4NiRh3O8
_chemical_formula_sum   'Li4 Ni1 Rh3 O8'
_cell_volume   146.35514804
_cell_formula_units_Z   1
loop_
 _symmetry_equiv_pos_site_id
 _symmetry_equiv_pos_as_xyz
  1  'x, y, z'
loop_
 _atom_site_type_symbol
 _atom_site_label
 _atom_site_symmetry_multiplicity
 _atom_site_fract_x
 _atom_site_fract_y
 _atom_site_fract_z
 _atom_site_occupancy
  Li  Li0  1  0.50000000  0.50000000  0.50000000  1
  Li  Li1  1  0.50000000  0.00000000  0.00000000  1
  Li  Li2  1  0.00000000  0.00000000  0.50000000  1
  Li  Li3  1  0.00000000  0.50000000  0.00000000  1
  Ni  Ni0  1  0.00000000  0.00000000  0.00000000  1
  Rh  Rh0  1  0.00000000  0.50000000  0.50000000  1
  Rh  Rh1  1  0.50000000  0.50000000  0.00000000  1
  Rh  Rh2  1  0.50000000  0.00000000  0.50000000  1
  O  O0  1  0.74456409  0.74456409  0.74456409  1
  O  O1  1  0.74335171  0.24384032  0.24384032  1
  O  O2  1  0.24384032  0.24384032  0.74335171  1
  O  O3  1  0.25543591  0.25543591  0.25543591  1
  O  O4  1  0.24384032  0.74335171  0.24384032  1
  O  O5  1  0.25664829  0.75615968  0.75615968  1
  O  O6  1  0.75615968  0.75615968  0.25664829  1
  O  O7  1  0.75615968  0.25664829  0.75615968  1
loop_
_geom_bond_atom_site_label_1
_geom_bond_atom_site_label_2
_geom_bond_distance
_geom_bond_site_symmetry_2
Li0 O6 2.142048 1_555
Li0 O2 2.142048 1_555
Li0 O7 2.142048 1_555
Li0 O4 2.142048 1_555
Li0 O5 2.142049 1_555
Li0 O1 2.142049 1_555
Li1 O3 2.136084 1_555
Li1 O0 2.136084 1_544
Li1 O7 2.144100 1_554
Li1 O4 2.144100 1_545
Li1 O6 2.144100 1_545
Li1 O2 2.144100 1_554
Li2 O3 2.136084 1_555
Li2 O0 2.136084 1_445
Li2 O5 2.144100 1_545
Li2 O1 2.144100 1_455
Li2 O7 2.144100 1_455
Li2 O4 2.144100 1_545
Li3 O3 2.136084 1_555
Li3 O0 2.136084 1_454
Li3 O5 2.144100 1_554
Li3 O1 2.144100 1_455
Li3 O6 2.144100 1_455
Li3 O2 2.144100 1_554
Ni0 O2 2.045014 1_554
Ni0 O6 2.045014 1_445
Ni0 O4 2.045014 1_545
Ni0 O7 2.045014 1_454
Ni0 O1 2.045014 1_455
Ni0 O5 2.045014 1_544
O0 Rh1 2.050234 1_556
O0 Rh2 2.050234 1_565
O0 Rh0 2.050234 1_655
O1 Rh2 2.042863 1_555
O1 Rh1 2.042863 1_555
O2 Rh0 2.042863 1_555
O2 Rh2 2.042863 1_555
O3 Rh1 2.050234 1_555
O3 Rh2 2.050234 1_555
O3 Rh0 2.050234 1_555
O4 Rh0 2.042863 1_555
O4 Rh1 2.042863 1_555
O5 Rh2 2.042863 1_565
O5 Rh1 2.042863 1_556
O6 Rh0 2.042863 1_655
O6 Rh2 2.042863 1_565
O7 Rh0 2.042863 1_655
O7 Rh1 2.042863 1_556
