# generated using pymatgen
data_Ba3P4W
_symmetry_space_group_name_H-M   'P 1'
_cell_length_a   9.29573113
_cell_length_b   9.47515323
_cell_length_c   10.85425631
_cell_angle_alpha   90.00000000
_cell_angle_beta   90.00000000
_cell_angle_gamma   90.00000000
_symmetry_Int_Tables_number   1
_chemical_formula_structural   Ba3P4W
_chemical_formula_sum   'Ba12 P16 W4'
_cell_volume   956.02636273
_cell_formula_units_Z   4
loop_
 _symmetry_equiv_pos_site_id
 _symmetry_equiv_pos_as_xyz
  1  'x, y, z'
loop_
 _atom_site_type_symbol
 _atom_site_label
 _atom_site_symmetry_multiplicity
 _atom_site_fract_x
 _atom_site_fract_y
 _atom_site_fract_z
 _atom_site_occupancy
  Ba  Ba0  1  0.86316968  0.91521090  0.75000000  1
  Ba  Ba1  1  0.36316968  0.58478910  0.75000000  1
  Ba  Ba2  1  0.13683032  0.08478910  0.25000000  1
  Ba  Ba3  1  0.63683032  0.41521090  0.25000000  1
  Ba  Ba4  1  0.05188324  0.29307624  0.54636000  1
  Ba  Ba5  1  0.55188324  0.20692376  0.95364000  1
  Ba  Ba6  1  0.94811676  0.70692376  0.04636000  1
  Ba  Ba7  1  0.44811676  0.79307624  0.45364000  1
  Ba  Ba8  1  0.94811676  0.70692376  0.45364000  1
  Ba  Ba9  1  0.44811676  0.79307624  0.04636000  1
  Ba  Ba10  1  0.05188324  0.29307624  0.95364000  1
  Ba  Ba11  1  0.55188324  0.20692376  0.54636000  1
  P  P0  1  0.80071421  0.24206604  0.75000000  1
  P  P1  1  0.30071421  0.25793396  0.75000000  1
  P  P2  1  0.19928579  0.75793396  0.25000000  1
  P  P3  1  0.69928579  0.74206604  0.25000000  1
  P  P4  1  0.00854292  0.57746221  0.75000000  1
  P  P5  1  0.50854292  0.92253779  0.75000000  1
  P  P6  1  0.99145708  0.42253779  0.25000000  1
  P  P7  1  0.49145708  0.07746221  0.25000000  1
  P  P8  1  0.83634387  0.04603816  0.42637372  1
  P  P9  1  0.33634387  0.45396184  0.07362628  1
  P  P10  1  0.16365613  0.95396184  0.92637372  1
  P  P11  1  0.66365613  0.54603816  0.57362628  1
  P  P12  1  0.16365613  0.95396184  0.57362628  1
  P  P13  1  0.66365613  0.54603816  0.92637372  1
  P  P14  1  0.83634387  0.04603816  0.07362628  1
  P  P15  1  0.33634387  0.45396184  0.42637372  1
  W  W0  1  0.78176348  0.48216920  0.75000000  1
  W  W1  1  0.28176348  0.01783080  0.75000000  1
  W  W2  1  0.21823652  0.51783080  0.25000000  1
  W  W3  1  0.71823652  0.98216920  0.25000000  1
loop_
_geom_bond_atom_site_label_1
_geom_bond_atom_site_label_2
_geom_bond_distance
_geom_bond_site_symmetry_2
Ba0 P0 3.150950 1_565
Ba0 P5 3.297246 1_555
Ba0 P10 3.406165 1_655
Ba0 P12 3.406165 1_655
Ba0 P4 3.473839 1_655
Ba0 P14 3.733367 1_566
Ba0 P8 3.733367 1_565
Ba1 P1 3.150950 1_555
Ba1 P4 3.297246 1_555
Ba1 P13 3.406165 1_555
Ba1 P11 3.406165 1_555
Ba1 P5 3.473839 1_555
Ba1 P9 3.733367 1_556
Ba1 P15 3.733367 1_555
Ba2 P2 3.150950 1_545
Ba2 P7 3.297246 1_555
Ba2 P8 3.406165 1_455
Ba2 P14 3.406165 1_455
Ba2 P6 3.473839 1_455
Ba2 P12 3.733367 1_545
Ba2 P10 3.733367 1_544
Ba3 P3 3.150950 1_555
Ba3 P6 3.297246 1_555
Ba3 P15 3.406165 1_555
Ba3 P9 3.406165 1_555
Ba3 P7 3.473839 1_555
Ba3 P11 3.733367 1_555
Ba3 P13 3.733367 1_554
Ba4 P1 3.216651 1_555
Ba4 P0 3.251245 1_455
Ba4 P15 3.318456 1_555
Ba4 P8 3.345076 1_455
Ba4 P12 3.389917 1_545
Ba4 P6 3.488240 1_455
Ba4 P4 3.508401 1_555
Ba5 P0 3.216651 1_555
Ba5 P1 3.251245 1_555
Ba5 P14 3.318456 1_556
Ba5 P9 3.345076 1_556
Ba5 P13 3.389917 1_555
Ba5 P7 3.488240 1_556
Ba5 P5 3.508401 1_545
Ba6 P3 3.216651 1_555
Ba6 P2 3.251245 1_655
Ba6 P13 3.318456 1_554
Ba6 P10 3.345076 1_654
Ba6 P14 3.389917 1_565
Ba6 P4 3.488240 1_654
Ba6 P6 3.508401 1_555
Ba7 P2 3.216651 1_555
Ba7 P3 3.251245 1_555
Ba7 P12 3.318456 1_555
Ba7 P11 3.345076 1_555
Ba7 P15 3.389917 1_555
Ba7 P5 3.488240 1_555
Ba7 P7 3.508401 1_565
Ba8 P3 3.216651 1_555
Ba8 P2 3.251245 1_655
Ba8 P11 3.318456 1_555
Ba8 P12 3.345076 1_655
Ba8 P8 3.389917 1_565
Ba8 P4 3.488240 1_655
Ba8 P6 3.508401 1_555
Ba9 P2 3.216651 1_555
Ba9 P3 3.251245 1_555
Ba9 P10 3.318456 1_554
Ba9 P13 3.345076 1_554
Ba9 P9 3.389917 1_555
Ba9 P5 3.488240 1_554
Ba9 P7 3.508401 1_565
Ba10 P1 3.216651 1_555
Ba10 P0 3.251245 1_455
Ba10 P9 3.318456 1_556
Ba10 P14 3.345076 1_456
Ba10 P10 3.389917 1_545
Ba10 P6 3.488240 1_456
Ba10 P4 3.508401 1_555
Ba11 P0 3.216651 1_555
Ba11 P1 3.251245 1_555
Ba11 P8 3.318456 1_555
Ba11 P15 3.345076 1_555
Ba11 P11 3.389917 1_555
Ba11 P7 3.488240 1_555
Ba11 P5 3.508401 1_545
P0 W0 2.281824 1_555
P1 W1 2.281824 1_555
P2 W2 2.281824 1_555
P3 W3 2.281824 1_555
P4 W0 2.293308 1_455
P5 W1 2.293308 1_565
P6 W2 2.293308 1_655
P7 W3 2.293308 1_545
P8 W3 2.288351 1_545
P9 W2 2.288351 1_555
P10 W1 2.288351 1_565
P11 W0 2.288351 1_555
P12 W1 2.288351 1_565
P13 W0 2.288351 1_555
P14 W3 2.288351 1_545
P15 W2 2.288351 1_555
