# generated using pymatgen
data_K4Zr6AsBr18
_symmetry_space_group_name_H-M   'P 1'
_cell_length_a   10.36802368
_cell_length_b   10.57780605
_cell_length_c   10.64194339
_cell_angle_alpha   118.33077044
_cell_angle_beta   100.48086964
_cell_angle_gamma   104.42551636
_symmetry_Int_Tables_number   1
_chemical_formula_structural   K4Zr6AsBr18
_chemical_formula_sum   'K4 Zr6 As1 Br18'
_cell_volume   931.22732401
_cell_formula_units_Z   1
loop_
 _symmetry_equiv_pos_site_id
 _symmetry_equiv_pos_as_xyz
  1  'x, y, z'
loop_
 _atom_site_type_symbol
 _atom_site_label
 _atom_site_symmetry_multiplicity
 _atom_site_fract_x
 _atom_site_fract_y
 _atom_site_fract_z
 _atom_site_occupancy
  K  K0  1  0.65860561  0.54080858  0.23288231  1
  K  K1  1  0.34139439  0.45919142  0.76711769  1
  K  K2  1  0.69727311  0.23004528  0.57157374  1
  K  K3  1  0.30272689  0.76995472  0.42842626  1
  Zr  Zr0  1  0.16352074  0.06045515  0.24528591  1
  Zr  Zr1  1  0.83647926  0.93954485  0.75471409  1
  Zr  Zr2  1  0.85491029  0.13426179  0.14214680  1
  Zr  Zr3  1  0.14508971  0.86573821  0.85785320  1
  Zr  Zr4  1  0.15671181  0.25424042  0.04746308  1
  Zr  Zr5  1  0.84328819  0.74575958  0.95253692  1
  As  As0  1  0.00000000  0.00000000  0.00000000  1
  Br  Br0  1  0.01241616  0.41991942  0.20268831  1
  Br  Br1  1  0.98758384  0.58008058  0.79731169  1
  Br  Br2  1  0.34239809  0.34386261  0.32004593  1
  Br  Br3  1  0.65760191  0.65613739  0.67995407  1
  Br  Br4  1  0.33156385  0.53124569  0.10071553  1
  Br  Br5  1  0.66843615  0.46875431  0.89928447  1
  Br  Br6  1  0.00531057  0.79170779  0.21563651  1
  Br  Br7  1  0.99468943  0.20829221  0.78436349  1
  Br  Br8  1  0.70375405  0.28285741  0.29743285  1
  Br  Br9  1  0.29624595  0.71714259  0.70256715  1
  Br  Br10  1  0.32592568  0.13112856  0.90089954  1
  Br  Br11  1  0.67407432  0.86887144  0.09910046  1
  Br  Br12  1  0.02132437  0.21111628  0.42019806  1
  Br  Br13  1  0.97867563  0.78888372  0.57980194  1
  Br  Br14  1  0.32868933  0.91936581  0.11178956  1
  Br  Br15  1  0.67131067  0.08063419  0.88821044  1
  Br  Br16  1  0.34476441  0.12359148  0.51136292  1
  Br  Br17  1  0.65523559  0.87640852  0.48863708  1
loop_
_geom_bond_atom_site_label_1
_geom_bond_atom_site_label_2
_geom_bond_distance
_geom_bond_site_symmetry_2
As0 Zr0 2.522394 1_555
As0 Zr1 2.522394 1_444
As0 Zr4 2.522401 1_555
As0 Zr5 2.522401 1_444
As0 Zr2 2.534057 1_455
As0 Zr3 2.534057 1_544
Br0 Zr4 2.737889 1_555
Br0 Zr2 2.742825 1_455
Br0 K3 3.451738 1_555
Br1 Zr5 2.737889 1_555
Br1 Zr3 2.742825 1_655
Br1 K2 3.451738 1_555
Br2 Zr4 2.732879 1_555
Br2 Zr0 2.736580 1_555
Br3 Zr5 2.732879 1_555
Br3 Zr1 2.736580 1_555
Br4 Zr4 2.756223 1_555
Br4 K1 3.285865 1_554
Br4 K3 3.320420 1_555
Br4 K0 3.383024 1_555
Br5 Zr5 2.756223 1_555
Br5 K0 3.285865 1_556
Br5 K2 3.320420 1_555
Br5 K1 3.383024 1_555
Br6 Zr5 2.736414 1_454
Br6 Zr0 2.740171 1_565
Br6 K3 3.605165 1_555
Br7 Zr4 2.736414 1_656
Br7 Zr1 2.740171 1_545
Br7 K2 3.605165 1_555
Br8 Zr2 2.713268 1_555
Br8 K2 3.229121 1_555
Br8 K0 3.230235 1_555
Br9 Zr3 2.713268 1_555
Br9 K3 3.229121 1_555
Br9 K1 3.230235 1_555
Br10 Zr4 2.722612 1_556
Br10 Zr3 2.729529 1_545
Br11 Zr5 2.722612 1_554
Br11 Zr2 2.729529 1_565
Br12 Zr0 2.744386 1_555
Br12 Zr2 2.748478 1_455
Br12 K1 3.679320 1_555
Br13 Zr1 2.744386 1_555
Br13 Zr3 2.748478 1_655
Br13 K0 3.679320 1_555
Br14 Zr0 2.706338 1_565
Br14 Zr3 2.717295 1_554
Br15 Zr1 2.706338 1_545
Br15 Zr2 2.717295 1_556
Br16 Zr0 2.763884 1_555
Br16 K3 3.297869 1_545
Br16 K1 3.307110 1_555
Br16 K2 3.383625 1_555
Br17 Zr1 2.763884 1_555
Br17 K2 3.297869 1_565
Br17 K0 3.307110 1_555
Br17 K3 3.383625 1_555
