# generated using pymatgen
data_Lu12ZnCo4Ru
_symmetry_space_group_name_H-M   'P 1'
_cell_length_a   7.99209369
_cell_length_b   7.99209431
_cell_length_c   7.99209422
_cell_angle_alpha   111.24594705
_cell_angle_beta   110.73014535
_cell_angle_gamma   106.47883201
_symmetry_Int_Tables_number   1
_chemical_formula_structural   Lu12ZnCo4Ru
_chemical_formula_sum   'Lu12 Zn1 Co4 Ru1'
_cell_volume   392.16338849
_cell_formula_units_Z   1
loop_
 _symmetry_equiv_pos_site_id
 _symmetry_equiv_pos_as_xyz
  1  'x, y, z'
loop_
 _atom_site_type_symbol
 _atom_site_label
 _atom_site_symmetry_multiplicity
 _atom_site_fract_x
 _atom_site_fract_y
 _atom_site_fract_z
 _atom_site_occupancy
  Lu  Lu0  1  0.41879423  0.22518287  0.19361136  1
  Lu  Lu1  1  0.58120577  0.77481713  0.80638864  1
  Lu  Lu2  1  0.03157052  0.22518287  0.80638864  1
  Lu  Lu3  1  0.96842948  0.77481713  0.19361136  1
  Lu  Lu4  1  0.18398536  0.28097127  0.46495663  1
  Lu  Lu5  1  0.81601464  0.71902873  0.53504337  1
  Lu  Lu6  1  0.18398536  0.71902873  0.90301609  1
  Lu  Lu7  1  0.81601464  0.28097127  0.09698391  1
  Lu  Lu8  1  0.31452938  0.61883027  0.30429890  1
  Lu  Lu9  1  0.68547062  0.38116973  0.69570110  1
  Lu  Lu10  1  0.31452938  0.01023048  0.69570110  1
  Lu  Lu11  1  0.68547062  0.98976952  0.30429890  1
  Zn  Zn0  1  0.50000000  0.50000000  0.00000000  1
  Co  Co0  1  0.37554949  0.00000000  0.37554949  1
  Co  Co1  1  0.62445051  1.00000000  0.62445051  1
  Co  Co2  1  0.11209141  0.61209141  0.50000000  1
  Co  Co3  1  0.88790859  0.38790859  0.50000000  1
  Ru  Ru0  1  0.00000000  0.00000000  0.00000000  1
loop_
_geom_bond_atom_site_label_1
_geom_bond_atom_site_label_2
_geom_bond_distance
_geom_bond_site_symmetry_2
Lu0 Ru0 2.780982 1_555
Lu0 Zn0 3.163050 1_555
Lu0 Lu11 3.318325 1_545
Lu0 Lu9 3.318328 1_555
Lu0 Lu6 3.328415 1_544
Lu0 Lu4 3.328416 1_555
Lu0 Lu10 3.371454 1_554
Lu0 Lu8 3.371468 1_555
Lu0 Lu5 3.472096 1_555
Lu0 Lu7 3.472105 1_555
Lu0 Lu2 3.517745 1_554
Lu1 Ru0 2.780982 1_666
Lu1 Zn0 3.163050 1_556
Lu1 Lu10 3.318325 1_565
Lu1 Lu8 3.318328 1_555
Lu1 Lu7 3.328415 1_566
Lu1 Lu5 3.328416 1_555
Lu1 Lu11 3.371454 1_556
Lu1 Lu9 3.371468 1_555
Lu1 Lu4 3.472096 1_555
Lu1 Lu6 3.472105 1_555
Lu1 Lu3 3.517745 1_556
Lu2 Ru0 2.780982 1_556
Lu2 Zn0 3.163056 1_556
Lu2 Lu9 3.318306 1_455
Lu2 Lu7 3.328396 1_456
Lu2 Lu5 3.328416 1_445
Lu2 Lu8 3.371458 1_556
Lu2 Lu6 3.472091 1_555
Lu2 Lu4 3.472101 1_555
Lu3 Ru0 2.780982 1_665
Lu3 Zn0 3.163056 1_555
Lu3 Lu8 3.318306 1_655
Lu3 Lu6 3.328396 1_654
Lu3 Lu4 3.328416 1_665
Lu3 Lu9 3.371458 1_554
Lu3 Lu7 3.472091 1_555
Lu3 Lu5 3.472101 1_555
Lu4 Ru0 3.037123 1_555
Lu4 Lu7 3.342854 1_455
Lu4 Lu8 3.448342 1_555
Lu4 Lu9 3.461495 1_555
Lu4 Zn0 3.485608 1_556
Lu5 Ru0 3.037123 1_666
Lu5 Lu6 3.342854 1_655
Lu5 Lu9 3.448342 1_555
Lu5 Lu8 3.461495 1_555
Lu5 Zn0 3.485608 1_555
Lu6 Ru0 3.037121 1_566
Lu6 Lu9 3.448329 1_455
Lu6 Lu8 3.461466 1_556
Lu6 Zn0 3.485606 1_556
Lu7 Ru0 3.037121 1_655
Lu7 Lu8 3.448329 1_655
Lu7 Lu9 3.461466 1_554
Lu7 Zn0 3.485606 1_555
Lu8 Zn0 3.269630 1_555
Lu9 Zn0 3.269630 1_556
Lu10 Zn0 3.269627 1_556
Lu10 Lu3 3.318322 1_445
Lu10 Lu2 3.371461 1_555
Lu10 Lu5 3.448328 1_445
Lu10 Lu6 3.448342 1_545
Lu10 Lu7 3.461486 1_556
Lu10 Lu4 3.461491 1_555
Lu11 Zn0 3.269627 1_555
Lu11 Lu2 3.318322 1_665
Lu11 Lu3 3.371461 1_555
Lu11 Lu4 3.448328 1_665
Lu11 Lu7 3.448342 1_565
Lu11 Lu6 3.461486 1_554
Lu11 Lu5 3.461491 1_555
Co0 Co1 2.261151 1_545
Co0 Lu3 2.715148 1_445
Co0 Lu0 2.715155 1_555
Co0 Lu8 2.746935 1_545
Co0 Lu9 2.746942 1_555
Co0 Lu11 2.746951 1_545
Co0 Lu10 2.746951 1_555
Co0 Lu6 3.075538 1_544
Co0 Lu4 3.075551 1_555
Co1 Lu2 2.715148 1_665
Co1 Lu1 2.715155 1_555
Co1 Lu9 2.746935 1_565
Co1 Lu8 2.746942 1_555
Co1 Lu10 2.746951 1_565
Co1 Lu11 2.746951 1_555
Co1 Lu7 3.075538 1_566
Co1 Lu5 3.075551 1_555
Co2 Co3 2.144555 1_455
Co2 Lu10 2.621037 1_565
Co2 Lu8 2.621038 1_555
Co2 Lu5 2.801986 1_455
Co2 Lu4 2.801986 1_555
Co2 Lu7 2.801994 1_455
Co2 Lu6 2.802002 1_555
Co2 Lu3 3.189117 1_455
Co2 Lu1 3.189118 1_555
Co3 Lu11 2.621037 1_545
Co3 Lu9 2.621038 1_555
Co3 Lu4 2.801986 1_655
Co3 Lu5 2.801986 1_555
Co3 Lu6 2.801994 1_655
Co3 Lu7 2.802002 1_555
Co3 Lu2 3.189117 1_655
Co3 Lu0 3.189118 1_555
