# generated using pymatgen
data_MnH9C4NO6
_symmetry_space_group_name_H-M   'P 1'
_cell_length_a   8.29360275
_cell_length_b   8.39562795
_cell_length_c   13.98712813
_cell_angle_alpha   90.00000000
_cell_angle_beta   121.98053717
_cell_angle_gamma   90.00000000
_symmetry_Int_Tables_number   1
_chemical_formula_structural   MnH9C4NO6
_chemical_formula_sum   'Mn4 H36 C16 N4 O24'
_cell_volume   826.10947018
_cell_formula_units_Z   4
loop_
 _symmetry_equiv_pos_site_id
 _symmetry_equiv_pos_as_xyz
  1  'x, y, z'
loop_
 _atom_site_type_symbol
 _atom_site_label
 _atom_site_symmetry_multiplicity
 _atom_site_fract_x
 _atom_site_fract_y
 _atom_site_fract_z
 _atom_site_occupancy
  Mn  Mn0  1  0.50000000  0.00000000  0.50000000  1
  Mn  Mn1  1  0.00000000  0.50000000  0.50000000  1
  Mn  Mn2  1  0.00000000  0.00000000  0.00000000  1
  Mn  Mn3  1  0.50000000  0.50000000  0.00000000  1
  H  H0  1  0.31150887  0.29068069  0.52722330  1
  H  H1  1  0.68849113  0.70931931  0.47277670  1
  H  H2  1  0.73379154  0.22775788  0.46148544  1
  H  H3  1  0.26620846  0.77224211  0.53851456  1
  H  H4  1  0.26620846  0.72775789  0.03851456  1
  H  H5  1  0.73379154  0.27224211  0.96148544  1
  H  H6  1  0.68849113  0.79068069  0.97277670  1
  H  H7  1  0.31150887  0.20931931  0.02722329  1
  H  H8  1  0.81380482  0.00298615  0.74347737  1
  H  H9  1  0.18619520  0.99701384  0.25652263  1
  H  H10  1  0.81380482  0.49701387  0.24347737  1
  H  H11  1  0.18619520  0.50298616  0.75652263  1
  H  H12  1  0.62594205  0.08330454  0.28347077  1
  H  H13  1  0.37405798  0.91669549  0.71652923  1
  H  H14  1  0.62594205  0.41669546  0.78347077  1
  H  H15  1  0.37405798  0.58330451  0.21652922  1
  H  H16  1  0.84883582  0.14579014  0.33042614  1
  H  H17  1  0.15116418  0.85420987  0.66957386  1
  H  H18  1  0.68693402  0.35344116  0.69103305  1
  H  H19  1  0.31306598  0.64655887  0.30896698  1
  H  H20  1  0.31306598  0.85344113  0.80896695  1
  H  H21  1  0.68693402  0.14655884  0.19103302  1
  H  H22  1  0.15116418  0.64579013  0.16957386  1
  H  H23  1  0.84883582  0.35420984  0.83042614  1
  H  H24  1  0.88808742  0.91992074  0.23275610  1
  H  H25  1  0.11191261  0.08007923  0.76724388  1
  H  H26  1  0.88808742  0.58007926  0.73275612  1
  H  H27  1  0.11191261  0.41992077  0.26724388  1
  H  H28  1  0.84156642  0.85964263  0.33805894  1
  H  H29  1  0.15843361  0.14035737  0.66194106  1
  H  H30  1  0.65552890  0.64350647  0.69292330  1
  H  H31  1  0.34447107  0.35649350  0.30707673  1
  H  H32  1  0.34447107  0.14350650  0.80707670  1
  H  H33  1  0.65552890  0.85649353  0.19292329  1
  H  H34  1  0.15843361  0.35964263  0.16194105  1
  H  H35  1  0.84156642  0.64035737  0.83805894  1
  C  C0  1  0.18868609  0.21642652  0.46891088  1
  C  C1  1  0.81131390  0.78357346  0.53108909  1
  C  C2  1  0.74502128  0.28564193  0.53545030  1
  C  C3  1  0.25497869  0.71435807  0.46454973  1
  C  C4  1  0.25497869  0.78564193  0.96454970  1
  C  C5  1  0.74502128  0.21435808  0.03545027  1
  C  C6  1  0.81131390  0.71642654  0.03108910  1
  C  C7  1  0.18868609  0.28357346  0.96891091  1
  C  C8  1  0.69173856  0.98166828  0.75280964  1
  C  C9  1  0.30826147  0.01833173  0.24719039  1
  C  C10  1  0.69173856  0.51833172  0.25280961  1
  C  C11  1  0.30826147  0.48166828  0.74719036  1
  C  C12  1  0.78325512  0.91815967  0.25682285  1
  C  C13  1  0.21674487  0.08184034  0.74317715  1
  C  C14  1  0.78325512  0.58184033  0.75682285  1
  C  C15  1  0.21674487  0.41815967  0.24317717  1
  N  N0  1  0.73249931  0.08478749  0.26558401  1
  N  N1  1  0.26750069  0.91521251  0.73441599  1
  N  N2  1  0.73249931  0.41521251  0.76558401  1
  N  N3  1  0.26750069  0.58478749  0.23441599  1
  O  O0  1  0.21722977  0.08652707  0.43565650  1
  O  O1  1  0.78277026  0.91347296  0.56434350  1
  O  O2  1  0.86388661  0.39604728  0.58290095  1
  O  O3  1  0.13611336  0.60395272  0.41709905  1
  O  O4  1  0.13611336  0.89604728  0.91709905  1
  O  O5  1  0.86388661  0.10395272  0.08290094  1
  O  O6  1  0.78277026  0.58652704  0.06434348  1
  O  O7  1  0.21722977  0.41347293  0.93565650  1
  O  O8  1  0.02469064  0.26836678  0.43924901  1
  O  O9  1  0.97530938  0.73163322  0.56075099  1
  O  O10  1  0.63534053  0.23478048  0.56642308  1
  O  O11  1  0.36465950  0.76521953  0.43357692  1
  O  O12  1  0.36465950  0.73478047  0.93357692  1
  O  O13  1  0.63534053  0.26521953  0.06642306  1
  O  O14  1  0.97530938  0.76836678  0.06075099  1
  O  O15  1  0.02469064  0.23163323  0.93924901  1
  O  O16  1  0.53050661  0.95996415  0.66341964  1
  O  O17  1  0.46949336  0.04003586  0.33658033  1
  O  O18  1  0.71884051  0.52119558  0.35016661  1
  O  O19  1  0.28115949  0.47880445  0.64983342  1
  O  O20  1  0.28115949  0.02119556  0.14983339  1
  O  O21  1  0.71884051  0.97880442  0.85016658  1
  O  O22  1  0.46949336  0.45996415  0.83658036  1
  O  O23  1  0.53050661  0.54003585  0.16341966  1
loop_
_geom_bond_atom_site_label_1
_geom_bond_atom_site_label_2
_geom_bond_distance
_geom_bond_site_symmetry_2
Mn0 O0 2.145199 1_555
Mn0 O1 2.145200 1_545
Mn0 O16 2.188413 1_545
Mn0 O17 2.188413 1_555
Mn0 O11 2.214451 1_545
Mn0 O10 2.214451 1_555
Mn1 O18 2.164415 1_455
Mn1 O19 2.164415 1_555
Mn1 O9 2.174896 1_455
Mn1 O8 2.174896 1_555
Mn1 O3 2.183377 1_555
Mn1 O2 2.183377 1_455
Mn2 O20 2.164415 1_555
Mn2 O21 2.164415 1_444
Mn2 O14 2.174896 1_445
Mn2 O15 2.174897 1_554
Mn2 O4 2.183377 1_544
Mn2 O5 2.183377 1_455
Mn3 O7 2.145199 1_554
Mn3 O6 2.145200 1_555
Mn3 O22 2.188413 1_554
Mn3 O23 2.188413 1_555
Mn3 O12 2.214451 1_554
Mn3 O13 2.214451 1_555
H12 N0 1.038244 1_555
H13 N1 1.038245 1_555
H14 N2 1.038244 1_555
H15 N3 1.038245 1_555
H16 N0 1.043490 1_555
H17 N1 1.043490 1_555
H18 N2 1.040043 1_555
H19 N3 1.040044 1_555
H20 N1 1.040043 1_555
H21 N0 1.040044 1_555
H22 N3 1.043490 1_555
H23 N2 1.043490 1_555
C0 H0 1.100659 1_555
C0 O0 1.256347 1_555
C0 O8 1.270616 1_555
C1 H1 1.100659 1_555
C1 O1 1.256347 1_555
C1 O9 1.270616 1_555
C2 H2 1.101402 1_555
C2 O2 1.256369 1_555
C2 O10 1.270792 1_555
C3 H3 1.101401 1_555
C3 O3 1.256369 1_555
C3 O11 1.270793 1_555
C4 H4 1.101402 1_556
C4 O4 1.256369 1_555
C4 O12 1.270793 1_555
C5 H5 1.101402 1_554
C5 O5 1.256369 1_555
C5 O13 1.270793 1_555
C6 H6 1.100659 1_554
C6 O6 1.256347 1_555
C6 O14 1.270616 1_555
C7 H7 1.100659 1_556
C7 O7 1.256347 1_555
C7 O15 1.270615 1_555
C8 H8 1.101789 1_565
C8 O21 1.257468 1_555
C8 O16 1.270267 1_555
C9 H9 1.101789 1_545
C9 O20 1.257469 1_555
C9 O17 1.270266 1_555
C10 H10 1.101789 1_555
C10 O18 1.257469 1_555
C10 O23 1.270267 1_555
C11 H11 1.101790 1_555
C11 O19 1.257468 1_555
C11 O22 1.270267 1_555
C12 H24 1.086036 1_555
C12 H28 1.088235 1_555
C12 H33 1.089090 1_555
C12 N0 1.484555 1_565
C13 H25 1.086036 1_555
C13 H29 1.088235 1_555
C13 H32 1.089090 1_555
C13 N1 1.484555 1_545
C14 H26 1.086036 1_555
C14 H35 1.088235 1_555
C14 H30 1.089090 1_555
C14 N2 1.484555 1_555
C15 H27 1.086036 1_555
C15 H34 1.088236 1_555
C15 H31 1.089090 1_555
C15 N3 1.484555 1_555
