# generated using pymatgen
data_Hf5Al16PIr7
_symmetry_space_group_name_H-M   'P 1'
_cell_length_a   8.61441748
_cell_length_b   8.66344214
_cell_length_c   8.66344279
_cell_angle_alpha   59.62595917
_cell_angle_beta   60.18702044
_cell_angle_gamma   60.18702060
_symmetry_Int_Tables_number   1
_chemical_formula_structural   Hf5Al16PIr7
_chemical_formula_sum   'Hf5 Al16 P1 Ir7'
_cell_volume   457.15581600
_cell_formula_units_Z   1
loop_
 _symmetry_equiv_pos_site_id
 _symmetry_equiv_pos_as_xyz
  1  'x, y, z'
loop_
 _atom_site_type_symbol
 _atom_site_label
 _atom_site_symmetry_multiplicity
 _atom_site_fract_x
 _atom_site_fract_y
 _atom_site_fract_z
 _atom_site_occupancy
  Hf  Hf0  1  0.31526060  0.68473940  0.68473940  1
  Hf  Hf1  1  0.29767429  0.70232571  0.29768274  1
  Hf  Hf2  1  0.70231726  0.29768274  0.70232571  1
  Hf  Hf3  1  0.29767429  0.29768274  0.70232571  1
  Hf  Hf4  1  0.70231726  0.70232571  0.29768274  1
  Al  Al0  1  0.36909885  0.33191905  0.33191905  1
  Al  Al1  1  0.67729753  0.65621225  0.65621225  1
  Al  Al2  1  0.34378775  0.32270247  0.98972304  1
  Al  Al3  1  0.34378775  0.98972304  0.32270247  1
  Al  Al4  1  0.66808095  0.63090115  0.03293595  1
  Al  Al5  1  0.66808095  0.03293595  0.63090115  1
  Al  Al6  1  0.96706405  0.33191905  0.33191905  1
  Al  Al7  1  0.01027696  0.65621225  0.65621225  1
  Al  Al8  1  0.11741984  0.11652480  0.11652480  1
  Al  Al9  1  0.88128185  0.87287327  0.87287327  1
  Al  Al10  1  0.12712673  0.11871815  0.62702838  1
  Al  Al11  1  0.12712673  0.62702838  0.11871815  1
  Al  Al12  1  0.88347520  0.88258016  0.35046844  1
  Al  Al13  1  0.88347520  0.35046844  0.88258016  1
  Al  Al14  1  0.64953156  0.11652480  0.11652480  1
  Al  Al15  1  0.37297162  0.87287327  0.87287327  1
  P  P0  1  0.52963779  0.47036221  0.47036221  1
  Ir  Ir0  1  0.51144747  0.98855253  0.98855253  1
  Ir  Ir1  1  0.01144747  0.48855253  0.48855253  1
  Ir  Ir2  1  0.01233877  0.49639863  0.98766123  1
  Ir  Ir3  1  0.50360137  0.98766123  0.49639863  1
  Ir  Ir4  1  0.01233877  0.98766123  0.49639863  1
  Ir  Ir5  1  0.50360137  0.49639863  0.98766123  1
  Ir  Ir6  1  0.01045778  0.98954222  0.98954222  1
loop_
_geom_bond_atom_site_label_1
_geom_bond_atom_site_label_2
_geom_bond_distance
_geom_bond_site_symmetry_2
Hf0 P0 2.641320 1_555
Hf0 Ir3 3.074559 1_555
Hf0 Ir2 3.074559 1_555
Hf0 Ir4 3.074559 1_555
Hf0 Ir5 3.074559 1_555
Hf1 P0 2.491718 1_555
Hf1 Ir4 3.028294 1_555
Hf1 Ir0 3.103758 1_554
Hf1 Ir1 3.103758 1_555
Hf1 Ir5 3.241104 1_554
Hf2 P0 2.491718 1_555
Hf2 Ir5 3.028294 1_555
Hf2 Ir0 3.103758 1_545
Hf2 Ir1 3.103758 1_655
Hf2 Ir4 3.241104 1_645
Hf3 P0 2.491717 1_555
Hf3 Ir2 3.028294 1_555
Hf3 Ir0 3.103758 1_545
Hf3 Ir1 3.103759 1_555
Hf3 Ir3 3.241104 1_545
Hf4 P0 2.491717 1_555
Hf4 Ir3 3.028294 1_555
Hf4 Ir0 3.103758 1_554
Hf4 Ir1 3.103759 1_655
Hf4 Ir2 3.241104 1_654
Al0 Ir3 2.485118 1_545
Al0 Ir5 2.485119 1_554
Al0 Ir1 2.592875 1_555
Al0 Hf1 2.831936 1_555
Al0 Hf3 2.831936 1_555
Al1 Ir3 2.483627 1_555
Al1 Ir5 2.483627 1_555
Al1 Ir1 2.514790 1_655
Al2 Ir5 2.483622 1_555
Al2 Ir2 2.483630 1_555
Al2 Ir0 2.514793 1_545
Al3 Ir3 2.483622 1_555
Al3 Ir4 2.483630 1_555
Al3 Ir0 2.514793 1_554
Al4 Ir5 2.485113 1_554
Al4 Ir2 2.485120 1_654
Al4 Ir0 2.592876 1_554
Al4 Hf1 2.831939 1_555
Al4 Hf4 2.831945 1_555
Al5 Ir3 2.485113 1_545
Al5 Ir4 2.485120 1_645
Al5 Ir0 2.592877 1_545
Al5 Hf3 2.831939 1_555
Al5 Hf2 2.831944 1_555
Al6 Ir4 2.485120 1_645
Al6 Ir2 2.485120 1_654
Al6 Ir1 2.592869 1_655
Al6 Hf4 2.831939 1_555
Al6 Hf2 2.831939 1_555
Al7 Ir4 2.483630 1_555
Al7 Ir2 2.483630 1_555
Al7 Ir1 2.514785 1_555
Al8 Ir6 2.551314 1_544
Al8 Ir2 2.687682 1_554
Al8 Ir4 2.687682 1_545
Al8 Ir0 2.781897 1_544
Al9 Ir6 2.559576 1_655
Al9 Ir0 2.612445 1_555
Al9 Ir2 2.660117 1_655
Al9 Ir4 2.660118 1_655
Al10 Ir6 2.559576 1_545
Al10 Ir1 2.612444 1_555
Al10 Ir4 2.660118 1_545
Al10 Ir3 2.660118 1_545
Al11 Ir6 2.559576 1_554
Al11 Ir1 2.612445 1_555
Al11 Ir2 2.660118 1_554
Al11 Ir5 2.660118 1_554
Al12 Ir6 2.551307 1_654
Al12 Ir3 2.687683 1_555
Al12 Ir4 2.687690 1_655
Al12 Ir1 2.781896 1_655
Al13 Ir6 2.551307 1_645
Al13 Ir5 2.687683 1_555
Al13 Ir2 2.687689 1_655
Al13 Ir1 2.781897 1_655
Al14 Ir6 2.551308 1_644
Al14 Ir5 2.687683 1_554
Al14 Ir3 2.687683 1_545
Al14 Ir0 2.781904 1_544
Al15 Ir6 2.559577 1_555
Al15 Ir0 2.612445 1_555
Al15 Ir5 2.660117 1_555
Al15 Ir3 2.660118 1_555
