# generated using pymatgen
data_LuHf(Nb2N3)4
_symmetry_space_group_name_H-M   'P 1'
_cell_length_a   5.30317707
_cell_length_b   5.30317486
_cell_length_c   10.53161729
_cell_angle_alpha   90.00000000
_cell_angle_beta   90.00000000
_cell_angle_gamma   120.00000757
_symmetry_Int_Tables_number   1
_chemical_formula_structural   LuHf(Nb2N3)4
_chemical_formula_sum   'Lu1 Hf1 Nb8 N12'
_cell_volume   256.50612683
_cell_formula_units_Z   1
loop_
 _symmetry_equiv_pos_site_id
 _symmetry_equiv_pos_as_xyz
  1  'x, y, z'
loop_
 _atom_site_type_symbol
 _atom_site_label
 _atom_site_symmetry_multiplicity
 _atom_site_fract_x
 _atom_site_fract_y
 _atom_site_fract_z
 _atom_site_occupancy
  Lu  Lu0  1  0.66666700  0.33333300  0.00000000  1
  Hf  Hf0  1  0.33333300  0.66666700  0.50000000  1
  Nb  Nb0  1  0.66666700  0.33333300  0.50000000  1
  Nb  Nb1  1  0.33333300  0.66666700  0.00000000  1
  Nb  Nb2  1  0.67970335  0.00232915  0.74844950  1
  Nb  Nb3  1  0.67970335  0.67737419  0.25155050  1
  Nb  Nb4  1  0.99767085  0.32029665  0.25155050  1
  Nb  Nb5  1  0.99767085  0.67737419  0.74844950  1
  Nb  Nb6  1  0.32262581  0.32029665  0.74844950  1
  Nb  Nb7  1  0.32262581  0.00232915  0.25155050  1
  N  N0  1  0.34648227  0.34389117  0.37850935  1
  N  N1  1  0.65610883  0.00259009  0.37850935  1
  N  N2  1  0.99740991  0.65351773  0.37850935  1
  N  N3  1  0.01213976  0.35134472  0.87259800  1
  N  N4  1  0.64865528  0.98786024  0.12740200  1
  N  N5  1  0.64865528  0.66079504  0.87259800  1
  N  N6  1  0.33920496  0.98786024  0.87259800  1
  N  N7  1  0.65610883  0.65351773  0.62149065  1
  N  N8  1  0.99740991  0.34389117  0.62149065  1
  N  N9  1  0.01213976  0.66079504  0.12740200  1
  N  N10  1  0.34648227  0.00259009  0.62149065  1
  N  N11  1  0.33920496  0.35134472  0.12740200  1
loop_
_geom_bond_atom_site_label_1
_geom_bond_atom_site_label_2
_geom_bond_distance
_geom_bond_site_symmetry_2
Lu0 N4 2.234057 1_545
Lu0 N3 2.234058 1_654
Lu0 N6 2.234060 1_544
Lu0 N9 2.234060 1_655
Lu0 N5 2.234062 1_554
Lu0 N11 2.234062 1_555
Hf0 N10 2.165949 1_565
Hf0 N2 2.165950 1_455
Hf0 N1 2.165953 1_565
Hf0 N8 2.165953 1_455
Hf0 N0 2.165958 1_555
Hf0 N7 2.165958 1_555
N0 Nb0 2.149070 1_555
N0 Nb7 2.203558 1_555
N0 Nb3 2.216527 1_555
N0 Nb4 2.234676 1_455
N1 Nb0 2.149070 1_555
N1 Nb4 2.203560 1_555
N1 Nb7 2.216530 1_555
N1 Nb3 2.234671 1_545
N2 Nb0 2.149070 1_555
N2 Nb3 2.203562 1_555
N2 Nb4 2.216525 1_555
N2 Nb7 2.234674 1_665
N3 Nb1 2.156295 1_556
N3 Nb6 2.172304 1_555
N3 Nb5 2.199428 1_455
N3 Nb2 2.231660 1_455
N4 Nb1 2.156295 1_555
N4 Nb3 2.172304 1_555
N4 Nb7 2.199428 1_565
N4 Nb4 2.231660 1_565
N5 Nb1 2.156297 1_556
N5 Nb2 2.172304 1_565
N5 Nb6 2.199428 1_555
N5 Nb5 2.231661 1_555
N6 Nb1 2.156293 1_556
N6 Nb5 2.172304 1_455
N6 Nb2 2.199428 1_565
N6 Nb6 2.231660 1_565
N7 Nb0 2.149070 1_555
N7 Nb5 2.203558 1_555
N7 Nb6 2.216527 1_555
N7 Nb2 2.234676 1_565
N8 Nb0 2.149070 1_555
N8 Nb2 2.203560 1_555
N8 Nb5 2.216529 1_555
N8 Nb6 2.234672 1_655
N9 Nb1 2.156293 1_555
N9 Nb7 2.172304 1_565
N9 Nb4 2.199428 1_455
N9 Nb3 2.231661 1_455
N10 Nb0 2.149070 1_555
N10 Nb6 2.203562 1_555
N10 Nb2 2.216525 1_555
N10 Nb5 2.234674 1_445
N11 Nb1 2.156297 1_555
N11 Nb4 2.172305 1_455
N11 Nb3 2.199428 1_555
N11 Nb7 2.231660 1_555
