# generated using pymatgen
data_Ta12Al9Re3C4
_symmetry_space_group_name_H-M   'P 1'
_cell_length_a   8.28061523
_cell_length_b   8.28061628
_cell_length_c   8.28061569
_cell_angle_alpha   60.36167296
_cell_angle_beta   60.36167239
_cell_angle_gamma   60.36167361
_symmetry_Int_Tables_number   1
_chemical_formula_structural   Ta12Al9Re3C4
_chemical_formula_sum   'Ta12 Al9 Re3 C4'
_cell_volume   404.77292697
_cell_formula_units_Z   1
loop_
 _symmetry_equiv_pos_site_id
 _symmetry_equiv_pos_as_xyz
  1  'x, y, z'
loop_
 _atom_site_type_symbol
 _atom_site_label
 _atom_site_symmetry_multiplicity
 _atom_site_fract_x
 _atom_site_fract_y
 _atom_site_fract_z
 _atom_site_occupancy
  Ta  Ta0  1  0.19155965  0.80818947  0.19155965  1
  Ta  Ta1  1  0.80891139  0.18743069  0.80891139  1
  Ta  Ta2  1  0.05844035  0.44181053  0.05844035  1
  Ta  Ta3  1  0.06256931  0.44108861  0.44108861  1
  Ta  Ta4  1  0.44181053  0.05844035  0.05844035  1
  Ta  Ta5  1  0.44108861  0.06256931  0.44108861  1
  Ta  Ta6  1  0.80891139  0.80891139  0.18743069  1
  Ta  Ta7  1  0.05844035  0.05844035  0.44181053  1
  Ta  Ta8  1  0.19155965  0.19155965  0.80818947  1
  Ta  Ta9  1  0.18743069  0.80891139  0.80891139  1
  Ta  Ta10  1  0.44108861  0.44108861  0.06256931  1
  Ta  Ta11  1  0.80818947  0.19155965  0.19155965  1
  Al  Al0  1  0.62500000  0.62500000  0.62500000  1
  Al  Al1  1  0.83689436  0.83689436  0.49492522  1
  Al  Al2  1  0.49492522  0.83689436  0.83689436  1
  Al  Al3  1  0.41310564  0.75507478  0.41310564  1
  Al  Al4  1  0.75507478  0.41310564  0.41310564  1
  Al  Al5  1  0.41679153  0.41679153  0.41679153  1
  Al  Al6  1  0.41310564  0.41310564  0.75507478  1
  Al  Al7  1  0.83689436  0.49492522  0.83689436  1
  Al  Al8  1  0.83320847  0.83320847  0.83320847  1
  Re  Re0  1  0.12500000  0.62500000  0.62500000  1
  Re  Re1  1  0.62500000  0.62500000  0.12500000  1
  Re  Re2  1  0.62500000  0.12500000  0.62500000  1
  C  C0  1  0.12500000  0.12500000  0.12500000  1
  C  C1  1  0.12500000  0.12500000  0.62500000  1
  C  C2  1  0.62500000  0.12500000  0.12500000  1
  C  C3  1  0.12500000  0.62500000  0.12500000  1
loop_
_geom_bond_atom_site_label_1
_geom_bond_atom_site_label_2
_geom_bond_distance
_geom_bond_site_symmetry_2
Al0 Al7 2.573725 1_555
Al0 Al3 2.573725 1_555
Al0 Al1 2.573725 1_555
Al0 Al6 2.573725 1_555
Al0 Al2 2.573725 1_555
Al0 Al4 2.573725 1_555
Al0 Ta3 3.024200 1_655
Al0 Ta9 3.024200 1_555
Al0 Ta10 3.024200 1_556
Al0 Ta6 3.024200 1_555
Al0 Ta5 3.024200 1_565
Al0 Ta1 3.024200 1_555
Al1 Re0 2.542147 1_655
Al1 Re2 2.542147 1_565
Al1 Ta0 2.755977 1_655
Al1 Ta11 2.755977 1_565
Al1 Al8 2.771344 1_555
Al1 Ta6 2.794805 1_555
Al1 Al2 2.847181 1_555
Al1 Al7 2.847181 1_555
Al1 Ta7 2.942294 1_665
Al1 Ta5 2.999408 1_565
Al1 Ta3 2.999408 1_655
Al2 Re1 2.542147 1_556
Al2 Re2 2.542147 1_565
Al2 Ta0 2.755977 1_556
Al2 Ta8 2.755977 1_565
Al2 Al8 2.771344 1_555
Al2 Ta9 2.794805 1_555
Al2 Al7 2.847181 1_555
Al2 Ta4 2.942294 1_566
Al2 Ta5 2.999408 1_565
Al2 Ta10 2.999408 1_556
Al3 Re0 2.542147 1_555
Al3 Re1 2.542147 1_555
Al3 Ta7 2.755977 1_565
Al3 Ta4 2.755977 1_565
Al3 Al5 2.771345 1_555
Al3 Ta5 2.794805 1_565
Al3 Al4 2.847181 1_555
Al3 Al6 2.847181 1_555
Al3 Ta0 2.942294 1_555
Al3 Ta6 2.999408 1_555
Al3 Ta9 2.999408 1_555
Al4 Re1 2.542147 1_555
Al4 Re2 2.542147 1_555
Al4 Ta2 2.755977 1_655
Al4 Ta7 2.755977 1_655
Al4 Al5 2.771344 1_555
Al4 Ta3 2.794805 1_655
Al4 Al6 2.847181 1_555
Al4 Ta11 2.942294 1_555
Al4 Ta1 2.999408 1_555
Al4 Ta6 2.999408 1_555
Al5 Re1 2.546121 1_555
Al5 Re2 2.546121 1_555
Al5 Re0 2.546121 1_555
Al5 Ta3 2.749032 1_555
Al5 Ta10 2.749032 1_555
Al5 Ta5 2.749032 1_555
Al5 Al6 2.771344 1_555
Al5 Ta11 2.990730 1_555
Al5 Ta8 2.990730 1_555
Al5 Ta0 2.990730 1_555
Al6 Re0 2.542147 1_555
Al6 Re2 2.542147 1_555
Al6 Ta2 2.755977 1_556
Al6 Ta4 2.755977 1_556
Al6 Ta10 2.794805 1_556
Al6 Ta8 2.942294 1_555
Al6 Ta1 2.999408 1_555
Al6 Ta9 2.999408 1_555
Al7 Re0 2.542147 1_655
Al7 Re1 2.542147 1_556
Al7 Ta8 2.755977 1_655
Al7 Ta11 2.755977 1_556
Al7 Al8 2.771345 1_555
Al7 Ta1 2.794805 1_555
Al7 Ta2 2.942294 1_656
Al7 Ta10 2.999408 1_556
Al7 Ta3 2.999408 1_655
Al8 Re1 2.546121 1_556
Al8 Re2 2.546121 1_565
Al8 Re0 2.546121 1_655
Al8 Ta9 2.749032 1_655
Al8 Ta6 2.749032 1_556
Al8 Ta1 2.749032 1_565
Al8 Ta4 2.990730 1_566
Al8 Ta7 2.990730 1_665
Al8 Ta2 2.990730 1_656
Re0 Ta9 2.959196 1_555
Re0 Ta3 2.959196 1_555
Re0 Ta2 2.995397 1_556
Re0 Ta0 2.995397 1_555
Re0 Ta7 2.995397 1_565
Re0 Ta8 2.995397 1_555
Re1 Ta6 2.959196 1_555
Re1 Ta10 2.959196 1_555
Re1 Ta2 2.995397 1_655
Re1 Ta0 2.995397 1_555
Re1 Ta4 2.995397 1_565
Re1 Ta11 2.995397 1_555
Re2 Ta1 2.959196 1_555
Re2 Ta5 2.959196 1_555
Re2 Ta7 2.995397 1_655
Re2 Ta8 2.995397 1_555
Re2 Ta4 2.995397 1_556
Re2 Ta11 2.995397 1_555
C0 Ta4 2.220368 1_555
C0 Ta11 2.220368 1_455
C0 Ta7 2.220368 1_555
C0 Ta8 2.220368 1_554
C0 Ta2 2.220368 1_555
C0 Ta0 2.220368 1_545
C1 Ta8 2.205185 1_555
C1 Ta7 2.205185 1_555
C1 Ta5 2.221551 1_555
C1 Ta1 2.221551 1_455
C1 Ta3 2.221551 1_555
C1 Ta9 2.221551 1_545
C2 Ta11 2.205185 1_555
C2 Ta4 2.205185 1_555
C2 Ta5 2.221551 1_555
C2 Ta1 2.221551 1_554
C2 Ta6 2.221551 1_545
C2 Ta10 2.221551 1_555
C3 Ta0 2.205185 1_555
C3 Ta2 2.205185 1_555
C3 Ta10 2.221551 1_555
C3 Ta6 2.221551 1_455
C3 Ta3 2.221551 1_555
C3 Ta9 2.221551 1_554
