# generated using pymatgen
data_Zr10BeGaSn6
_symmetry_space_group_name_H-M   'P 1'
_cell_length_a   8.64583641
_cell_length_b   8.64583597
_cell_length_c   5.87609861
_cell_angle_alpha   90.00000000
_cell_angle_beta   90.00000000
_cell_angle_gamma   119.99999791
_symmetry_Int_Tables_number   1
_chemical_formula_structural   Zr10BeGaSn6
_chemical_formula_sum   'Zr10 Be1 Ga1 Sn6'
_cell_volume   380.39405590
_cell_formula_units_Z   1
loop_
 _symmetry_equiv_pos_site_id
 _symmetry_equiv_pos_as_xyz
  1  'x, y, z'
loop_
 _atom_site_type_symbol
 _atom_site_label
 _atom_site_symmetry_multiplicity
 _atom_site_fract_x
 _atom_site_fract_y
 _atom_site_fract_z
 _atom_site_occupancy
  Zr  Zr0  1  0.00000000  0.25796191  0.23897527  1
  Zr  Zr1  1  0.74203809  1.00000000  0.76102473  1
  Zr  Zr2  1  0.74203809  0.74203809  0.23897527  1
  Zr  Zr3  1  0.66666700  0.33333300  0.50000000  1
  Zr  Zr4  1  1.00000000  0.74203809  0.76102473  1
  Zr  Zr5  1  0.25796191  0.25796191  0.76102473  1
  Zr  Zr6  1  0.33333300  0.66666700  0.00000000  1
  Zr  Zr7  1  0.66666700  0.33333300  0.00000000  1
  Zr  Zr8  1  0.33333300  0.66666700  0.50000000  1
  Zr  Zr9  1  0.25796191  0.00000000  0.23897527  1
  Be  Be0  1  0.00000000  0.00000000  0.00000000  1
  Ga  Ga0  1  0.00000000  0.00000000  0.50000000  1
  Sn  Sn0  1  0.61090544  0.00000000  0.25353737  1
  Sn  Sn1  1  0.38909456  1.00000000  0.74646263  1
  Sn  Sn2  1  0.38909456  0.38909456  0.25353737  1
  Sn  Sn3  1  0.00000000  0.61090544  0.25353737  1
  Sn  Sn4  1  0.00000000  0.38909456  0.74646263  1
  Sn  Sn5  1  0.61090544  0.61090544  0.74646263  1
loop_
_geom_bond_atom_site_label_1
_geom_bond_atom_site_label_2
_geom_bond_distance
_geom_bond_site_symmetry_2
Zr3 Zr7 2.938049 1_555
Zr3 Zr7 2.938049 1_556
Zr6 Zr8 2.938049 1_554
Zr6 Zr8 2.938049 1_555
Be0 Zr0 2.635549 1_555
Be0 Zr4 2.635549 1_444
Be0 Zr9 2.635549 1_555
Be0 Zr1 2.635549 1_444
Be0 Zr5 2.635549 1_554
Be0 Zr2 2.635549 1_445
Ga0 Zr0 2.706804 1_555
Ga0 Zr4 2.706804 1_445
Ga0 Zr9 2.706804 1_555
Ga0 Zr1 2.706804 1_445
Ga0 Zr5 2.706804 1_555
Ga0 Zr2 2.706804 1_445
Sn0 Zr2 2.965727 1_545
Sn0 Zr0 2.965727 1_655
Sn0 Zr3 3.040726 1_555
Sn0 Zr8 3.040729 1_545
Sn0 Zr9 3.052692 1_555
Sn0 Zr7 3.060744 1_555
Sn0 Zr6 3.060747 1_545
Sn0 Zr1 3.108204 1_544
Sn0 Zr1 3.190296 1_545
Sn1 Zr5 2.965727 1_565
Sn1 Zr4 2.965727 1_455
Sn1 Zr8 3.040726 1_555
Sn1 Zr3 3.040729 1_565
Sn1 Zr1 3.052692 1_555
Sn1 Zr6 3.060744 1_556
Sn1 Zr7 3.060747 1_566
Sn1 Zr9 3.108204 1_566
Sn1 Zr9 3.190296 1_565
Sn2 Zr9 2.965727 1_555
Sn2 Zr0 2.965727 1_555
Sn2 Zr8 3.040733 1_555
Sn2 Zr3 3.040733 1_555
Sn2 Zr2 3.052692 1_555
Sn2 Zr6 3.060751 1_555
Sn2 Zr7 3.060752 1_555
Sn2 Zr5 3.108204 1_554
Sn2 Zr5 3.190296 1_555
Sn3 Zr2 2.965727 1_455
Sn3 Zr9 2.965727 1_565
Sn3 Zr8 3.040726 1_555
Sn3 Zr3 3.040729 1_455
Sn3 Zr0 3.052691 1_555
Sn3 Zr6 3.060744 1_555
Sn3 Zr7 3.060747 1_455
Sn3 Zr4 3.108204 1_454
Sn3 Zr4 3.190296 1_455
Sn4 Zr5 2.965727 1_555
Sn4 Zr1 2.965727 1_445
Sn4 Zr3 3.040726 1_455
Sn4 Zr8 3.040729 1_555
Sn4 Zr4 3.052691 1_455
Sn4 Zr7 3.060744 1_456
Sn4 Zr6 3.060747 1_556
Sn4 Zr0 3.108204 1_556
Sn4 Zr0 3.190296 1_555
Sn5 Zr1 2.965727 1_555
Sn5 Zr4 2.965727 1_555
Sn5 Zr3 3.040733 1_555
Sn5 Zr8 3.040733 1_555
Sn5 Zr5 3.052692 1_555
Sn5 Zr7 3.060751 1_556
Sn5 Zr6 3.060752 1_556
Sn5 Zr2 3.108204 1_556
Sn5 Zr2 3.190296 1_555
