# generated using pymatgen
data_Ba4HfFe2WO12
_symmetry_space_group_name_H-M   'P 1'
_cell_length_a   10.02119548
_cell_length_b   10.02119584
_cell_length_c   10.02119670
_cell_angle_alpha   33.50771394
_cell_angle_beta   33.50771275
_cell_angle_gamma   33.50771212
_symmetry_Int_Tables_number   1
_chemical_formula_structural   Ba4HfFe2WO12
_chemical_formula_sum   'Ba4 Hf1 Fe2 W1 O12'
_cell_volume   273.16297104
_cell_formula_units_Z   1
loop_
 _symmetry_equiv_pos_site_id
 _symmetry_equiv_pos_as_xyz
  1  'x, y, z'
loop_
 _atom_site_type_symbol
 _atom_site_label
 _atom_site_symmetry_multiplicity
 _atom_site_fract_x
 _atom_site_fract_y
 _atom_site_fract_z
 _atom_site_occupancy
  Ba  Ba0  1  0.62498389  0.62498389  0.62498389  1
  Ba  Ba1  1  0.12465005  0.12465005  0.12465005  1
  Ba  Ba2  1  0.87534995  0.87534995  0.87534995  1
  Ba  Ba3  1  0.37501611  0.37501611  0.37501611  1
  Hf  Hf0  1  0.50000000  0.50000000  0.50000000  1
  Fe  Fe0  1  0.24581737  0.24581737  0.24581737  1
  Fe  Fe1  1  0.75418263  0.75418263  0.75418263  1
  W  W0  1  0.00000000  0.00000000  0.00000000  1
  O  O0  1  0.11988162  0.11988162  0.64256692  1
  O  O1  1  0.62495459  0.62495459  0.12115665  1
  O  O2  1  0.37504541  0.87884335  0.37504541  1
  O  O3  1  0.88011838  0.35743308  0.88011838  1
  O  O4  1  0.64256692  0.11988162  0.11988162  1
  O  O5  1  0.12115665  0.62495459  0.62495459  1
  O  O6  1  0.37504541  0.37504541  0.87884335  1
  O  O7  1  0.88011838  0.88011838  0.35743308  1
  O  O8  1  0.11988162  0.64256692  0.11988162  1
  O  O9  1  0.62495459  0.12115665  0.62495459  1
  O  O10  1  0.87884335  0.37504541  0.37504541  1
  O  O11  1  0.35743308  0.88011838  0.88011838  1
loop_
_geom_bond_atom_site_label_1
_geom_bond_atom_site_label_2
_geom_bond_distance
_geom_bond_site_symmetry_2
Ba0 O6 2.868573 1_555
Ba0 O2 2.868574 1_555
Ba0 O10 2.868574 1_555
Ba0 O7 2.881047 1_555
Ba0 O3 2.881047 1_555
Ba0 O11 2.881047 1_555
Ba0 O0 2.890549 1_565
Ba0 O0 2.890549 1_655
Ba0 O8 2.890549 1_655
Ba0 O8 2.890549 1_556
Ba0 O4 2.890549 1_565
Ba0 O4 2.890549 1_556
Ba1 O1 2.888873 1_455
Ba1 O1 2.888873 1_545
Ba1 O9 2.888874 1_455
Ba1 O9 2.888874 1_554
Ba1 O5 2.888874 1_545
Ba1 O5 2.888874 1_554
Ba1 O7 2.898267 1_445
Ba1 O3 2.898267 1_454
Ba1 O11 2.898267 1_544
Ba1 O6 2.923243 1_554
Ba1 O2 2.923243 1_545
Ba1 O10 2.923243 1_455
Ba2 O6 2.888873 1_655
Ba2 O6 2.888873 1_565
Ba2 O2 2.888874 1_655
Ba2 O2 2.888874 1_556
Ba2 O10 2.888874 1_565
Ba2 O10 2.888874 1_556
Ba2 O0 2.898267 1_665
Ba2 O8 2.898267 1_656
Ba2 O4 2.898267 1_566
Ba2 O1 2.923243 1_556
Ba2 O9 2.923243 1_565
Ba2 O5 2.923243 1_655
Ba3 O1 2.868573 1_555
Ba3 O9 2.868574 1_555
Ba3 O5 2.868574 1_555
Ba3 O0 2.881047 1_555
Ba3 O8 2.881047 1_555
Ba3 O4 2.881047 1_555
Ba3 O7 2.890549 1_545
Ba3 O7 2.890549 1_455
Ba3 O3 2.890549 1_455
Ba3 O3 2.890549 1_554
Ba3 O11 2.890549 1_545
Ba3 O11 2.890549 1_554
Hf0 O10 2.075686 1_555
Hf0 O5 2.075686 1_555
Hf0 O2 2.075686 1_555
Hf0 O9 2.075686 1_555
Hf0 O6 2.075686 1_555
Hf0 O1 2.075686 1_555
Fe0 O10 1.947063 1_455
Fe0 O2 1.947063 1_545
Fe0 O6 1.947063 1_554
Fe0 O4 2.216760 1_555
Fe0 O8 2.216760 1_555
Fe0 O0 2.216761 1_555
Fe1 O5 1.947063 1_655
Fe1 O9 1.947063 1_565
Fe1 O1 1.947063 1_556
Fe1 O11 2.216760 1_555
Fe1 O3 2.216760 1_555
Fe1 O7 2.216761 1_555
O0 W0 1.941990 1_556
O3 W0 1.941990 1_656
O4 W0 1.941990 1_655
O7 W0 1.941990 1_665
O8 W0 1.941990 1_565
O11 W0 1.941990 1_566
