# generated using pymatgen
data_Ba4Sc3IO8
_symmetry_space_group_name_H-M   'P 1'
_cell_length_a   4.18694130
_cell_length_b   4.18694130
_cell_length_c   17.03058304
_cell_angle_alpha   90.00000000
_cell_angle_beta   90.00000000
_cell_angle_gamma   90.00000000
_symmetry_Int_Tables_number   1
_chemical_formula_structural   Ba4Sc3IO8
_chemical_formula_sum   'Ba4 Sc3 I1 O8'
_cell_volume   298.55425134
_cell_formula_units_Z   1
loop_
 _symmetry_equiv_pos_site_id
 _symmetry_equiv_pos_as_xyz
  1  'x, y, z'
loop_
 _atom_site_type_symbol
 _atom_site_label
 _atom_site_symmetry_multiplicity
 _atom_site_fract_x
 _atom_site_fract_y
 _atom_site_fract_z
 _atom_site_occupancy
  Ba  Ba0  1  0.50000000  0.50000000  0.11080918  1
  Ba  Ba1  1  0.50000000  0.50000000  0.88919082  1
  Ba  Ba2  1  0.50000000  0.50000000  0.35802260  1
  Ba  Ba3  1  0.50000000  0.50000000  0.64197740  1
  Sc  Sc0  1  0.00000000  0.00000000  0.24021782  1
  Sc  Sc1  1  0.00000000  0.00000000  0.75978218  1
  Sc  Sc2  1  0.00000000  0.00000000  0.00000000  1
  I  I0  1  0.00000000  0.00000000  0.50000000  1
  O  O0  1  0.00000000  0.50000000  0.27072004  1
  O  O1  1  0.00000000  0.50000000  0.72927996  1
  O  O2  1  0.50000000  0.00000000  0.27072004  1
  O  O3  1  0.50000000  0.00000000  0.72927996  1
  O  O4  1  0.00000000  0.00000000  0.12796934  1
  O  O5  1  0.00000000  0.00000000  0.87203066  1
  O  O6  1  0.00000000  0.50000000  0.00000000  1
  O  O7  1  0.50000000  0.00000000  0.00000000  1
loop_
_geom_bond_atom_site_label_1
_geom_bond_atom_site_label_2
_geom_bond_distance
_geom_bond_site_symmetry_2
Ba0 O6 2.818499 1_555
Ba0 O7 2.818499 1_555
Ba0 O6 2.818499 1_655
Ba0 O7 2.818499 1_565
Ba0 O4 2.975004 1_555
Ba0 O4 2.975004 1_655
Ba0 O4 2.975004 1_565
Ba0 O4 2.975004 1_665
Ba1 O7 2.818499 1_556
Ba1 O7 2.818499 1_566
Ba1 O6 2.818499 1_656
Ba1 O6 2.818499 1_556
Ba1 O5 2.975004 1_555
Ba1 O5 2.975004 1_565
Ba1 O5 2.975004 1_655
Ba1 O5 2.975004 1_665
Ba2 O2 2.567729 1_555
Ba2 O2 2.567729 1_565
Ba2 O0 2.567729 1_555
Ba2 O0 2.567729 1_655
Ba2 I0 3.822533 1_565
Ba2 I0 3.822533 1_555
Ba2 I0 3.822533 1_655
Ba2 I0 3.822533 1_665
Ba3 O3 2.567729 1_555
Ba3 O3 2.567729 1_565
Ba3 O1 2.567729 1_555
Ba3 O1 2.567729 1_655
Ba3 I0 3.822533 1_655
Ba3 I0 3.822533 1_565
Ba3 I0 3.822533 1_665
Ba3 I0 3.822533 1_555
O0 Sc0 2.156958 1_565
O0 Sc0 2.156958 1_555
O1 Sc1 2.156958 1_565
O1 Sc1 2.156958 1_555
O2 Sc0 2.156958 1_655
O2 Sc0 2.156958 1_555
O3 Sc1 2.156958 1_655
O3 Sc1 2.156958 1_555
O4 Sc0 1.911657 1_555
O4 Sc2 2.179393 1_555
O5 Sc1 1.911657 1_555
O5 Sc2 2.179393 1_556
O6 Sc2 2.093471 1_565
O6 Sc2 2.093471 1_555
O7 Sc2 2.093471 1_655
O7 Sc2 2.093471 1_555
