# generated using pymatgen
data_V16O3
_symmetry_space_group_name_H-M   'P 1'
_cell_length_a   9.67190241
_cell_length_b   9.67190241
_cell_length_c   9.67190241
_cell_angle_alpha   101.11247928
_cell_angle_beta   101.11247928
_cell_angle_gamma   127.91767667
_symmetry_Int_Tables_number   1
_chemical_formula_structural   V16O3
_chemical_formula_sum   'V32 O6'
_cell_volume   641.30191721
_cell_formula_units_Z   2
loop_
 _symmetry_equiv_pos_site_id
 _symmetry_equiv_pos_as_xyz
  1  'x, y, z'
loop_
 _atom_site_type_symbol
 _atom_site_label
 _atom_site_symmetry_multiplicity
 _atom_site_fract_x
 _atom_site_fract_y
 _atom_site_fract_z
 _atom_site_occupancy
  V  V0  1  0.74942000  0.25058000  0.00000000  1
  V  V1  1  0.25058000  0.25058000  0.50115900  1
  V  V2  1  0.74707900  0.00000000  0.74707900  1
  V  V3  1  0.00000000  0.74707900  0.74707900  1
  V  V4  1  0.00000000  0.25292100  0.25292100  1
  V  V5  1  0.25292100  0.00000000  0.25292100  1
  V  V6  1  0.74892700  0.50000000  0.24892700  1
  V  V7  1  0.50000000  0.74892700  0.24892700  1
  V  V8  1  0.50000000  0.25107300  0.75107300  1
  V  V9  1  0.25107300  0.50000000  0.75107300  1
  V  V10  1  0.12485900  0.62485900  0.24971800  1
  V  V11  1  0.87514100  0.12485900  0.50000000  1
  V  V12  1  0.62485900  0.37514100  0.50000000  1
  V  V13  1  0.37514100  0.87514100  0.75028200  1
  V  V14  1  0.87514100  0.37514100  0.75028200  1
  V  V15  1  0.12485900  0.87514100  0.50000000  1
  V  V16  1  0.37514100  0.62485900  0.50000000  1
  V  V17  1  0.62485900  0.12485900  0.24971800  1
  V  V18  1  0.13420100  0.13420100  0.75235200  1
  V  V19  1  0.38184900  0.13420100  0.00000000  1
  V  V20  1  0.13420100  0.38184900  0.00000000  1
  V  V21  1  0.38184900  0.38184900  0.24764800  1
  V  V22  1  0.86579900  0.86579900  0.24764800  1
  V  V23  1  0.61815100  0.61815100  0.75235200  1
  V  V24  1  0.86579900  0.61815100  0.00000000  1
  V  V25  1  0.61815100  0.86579900  0.00000000  1
  V  V26  1  0.25058000  0.74942000  0.00000000  1
  V  V27  1  0.74942000  0.74942000  0.49884100  1
  V  V28  1  0.50000000  0.00000000  0.50000000  1
  V  V29  1  0.00000000  0.50000000  0.50000000  1
  V  V30  1  0.50000000  0.50000000  0.00000000  1
  V  V31  1  0.00000000  0.00000000  0.00000000  1
  O  O0  1  0.12471600  0.12471600  0.24943200  1
  O  O1  1  0.87528400  0.12471600  0.00000000  1
  O  O2  1  0.12471600  0.87528400  0.00000000  1
  O  O3  1  0.87528400  0.87528400  0.75056800  1
  O  O4  1  0.75000000  0.25000000  0.50000000  1
  O  O5  1  0.25000000  0.75000000  0.50000000  1
loop_
_geom_bond_atom_site_label_1
_geom_bond_atom_site_label_2
_geom_bond_distance
_geom_bond_site_symmetry_2
V0 V6 3.065257 1_555
V0 V8 3.065257 1_554
V1 V8 3.065263 1_555
V1 V9 3.065263 1_555
V10 V7 3.044307 1_555
V10 V6 3.044307 1_455
V11 V9 3.044307 1_655
V11 V7 3.044307 1_545
V12 V8 3.044307 1_555
V12 V6 3.044307 1_555
V13 V9 3.044307 1_555
V13 V8 3.044307 1_565
V14 V8 3.044307 1_555
V14 V9 3.044307 1_655
V15 V8 3.044307 1_565
V15 V6 3.044307 1_455
V16 V9 3.044307 1_555
V16 V7 3.044307 1_555
V17 V6 3.044307 1_555
V17 V7 3.044307 1_545
V18 V30 2.975573 1_556
V18 V9 2.983642 1_555
V18 V8 2.983642 1_555
V19 V30 2.975573 1_555
V19 V6 2.983642 1_555
V19 V8 2.983642 1_554
V20 V30 2.975573 1_555
V20 V7 2.983642 1_555
V20 V9 2.983642 1_554
V21 V30 2.975573 1_555
V21 V7 2.983642 1_555
V21 V6 2.983642 1_555
V22 V30 2.975573 1_555
V22 V6 2.983642 1_555
V22 V7 2.983642 1_555
V23 V30 2.975573 1_556
V23 V8 2.983642 1_555
V23 V9 2.983642 1_555
V24 V30 2.975573 1_555
V24 V6 2.983642 1_555
V24 V8 2.983642 1_554
V25 V30 2.975573 1_555
V25 V7 2.983642 1_555
V25 V9 2.983642 1_554
V26 V7 3.065257 1_555
V26 V9 3.065257 1_554
V27 V6 3.065263 1_555
V27 V7 3.065263 1_555
V28 V8 3.085566 1_555
V28 V7 3.085566 1_545
V29 V9 3.085566 1_555
V29 V6 3.085566 1_455
V30 V7 3.059192 1_555
V30 V6 3.059192 1_555
V30 V8 3.059192 1_554
V30 V9 3.059192 1_554
O0 V31 2.167564 1_555
O0 V1 2.187508 1_555
O0 V22 2.191269 1_445
O0 V21 2.191269 1_555
O0 V5 2.198093 1_555
O0 V4 2.198093 1_555
O1 V31 2.167564 1_655
O1 V0 2.187516 1_555
O1 V25 2.191269 1_545
O1 V20 2.191269 1_655
O1 V4 2.198093 1_655
O1 V2 2.198093 1_554
O2 V31 2.167564 1_565
O2 V26 2.187516 1_555
O2 V24 2.191269 1_455
O2 V19 2.191269 1_565
O2 V5 2.198093 1_565
O2 V3 2.198093 1_554
O3 V31 2.167564 1_666
O3 V27 2.187508 1_555
O3 V23 2.191269 1_555
O3 V18 2.191269 1_665
O3 V3 2.198093 1_655
O3 V2 2.198093 1_565
O4 V29 2.123063 1_655
O4 V28 2.123063 1_555
O4 V11 2.174951 1_555
O4 V14 2.174951 1_555
O4 V17 2.174951 1_555
O4 V12 2.174951 1_555
O5 V29 2.123063 1_555
O5 V28 2.123063 1_565
O5 V15 2.174951 1_555
O5 V10 2.174951 1_555
O5 V13 2.174951 1_555
O5 V16 2.174951 1_555
