# generated using pymatgen
data_Tl2TeI6
_symmetry_space_group_name_H-M   'P 1'
_cell_length_a   8.51507008
_cell_length_b   7.91627765
_cell_length_c   13.75590537
_cell_angle_alpha   55.41229853
_cell_angle_beta   90.00000000
_cell_angle_gamma   90.00000000
_symmetry_Int_Tables_number   1
_chemical_formula_structural   Tl2TeI6
_chemical_formula_sum   'Tl4 Te2 I12'
_cell_volume   763.36898134
_cell_formula_units_Z   2
loop_
 _symmetry_equiv_pos_site_id
 _symmetry_equiv_pos_as_xyz
  1  'x, y, z'
loop_
 _atom_site_type_symbol
 _atom_site_label
 _atom_site_symmetry_multiplicity
 _atom_site_fract_x
 _atom_site_fract_y
 _atom_site_fract_z
 _atom_site_occupancy
  Tl  Tl0  1  0.90438015  0.28236652  0.24674679  1
  Tl  Tl1  1  0.40438015  0.71763348  0.25325321  1
  Tl  Tl2  1  0.09561985  0.71763348  0.75325321  1
  Tl  Tl3  1  0.59561985  0.28236652  0.74674679  1
  Te  Te0  1  -0.00000000  0.00000000  -0.00000000  1
  Te  Te1  1  0.50000000  0.00000000  0.50000000  1
  I  I0  1  0.20387695  0.22947431  0.45840481  1
  I  I1  1  0.70387695  0.77052569  0.04159519  1
  I  I2  1  0.79612305  0.77052569  0.54159519  1
  I  I3  1  0.29612305  0.22947431  0.95840481  1
  I  I4  1  0.99164562  0.16131481  0.74620997  1
  I  I5  1  0.49164562  0.83868519  0.75379003  1
  I  I6  1  0.00835438  0.83868519  0.25379003  1
  I  I7  1  0.50835438  0.16131481  0.24620997  1
  I  I8  1  0.69030747  0.35370219  0.45302473  1
  I  I9  1  0.19030747  0.64629781  0.04697527  1
  I  I10  1  0.30969253  0.64629781  0.54697527  1
  I  I11  1  0.80969253  0.35370219  0.95302473  1
loop_
_geom_bond_atom_site_label_1
_geom_bond_atom_site_label_2
_geom_bond_distance
_geom_bond_site_symmetry_2
I0 Te1 2.967370 1_555
I1 Te0 2.967370 1_665
I2 Te1 2.967370 1_565
I3 Te0 2.967370 1_556
I4 Te0 2.960092 1_656
I4 Tl3 3.506855 1_555
I4 Tl2 3.569757 1_645
I5 Te1 2.960092 1_565
I5 Tl2 3.506855 1_555
I5 Tl3 3.569757 1_565
I6 Te0 2.960092 1_565
I6 Tl1 3.506855 1_555
I6 Tl0 3.569757 1_465
I7 Te1 2.960092 1_555
I7 Tl0 3.506855 1_555
I7 Tl1 3.569757 1_545
I8 Te1 2.971423 1_555
I8 Tl1 3.576450 1_555
I9 Te0 2.971423 1_565
I9 Tl0 3.576450 1_455
I10 Te1 2.971423 1_565
I10 Tl3 3.576450 1_555
I11 Te0 2.971423 1_656
I11 Tl2 3.576450 1_655
