# generated using pymatgen
data_Pd(PtO3)2
_symmetry_space_group_name_H-M   'P 1'
_cell_length_a   4.53651839
_cell_length_b   18.82969974
_cell_length_c   4.50466653
_cell_angle_alpha   89.99978506
_cell_angle_beta   89.99983661
_cell_angle_gamma   90.00040691
_symmetry_Int_Tables_number   1
_chemical_formula_structural   Pd(PtO3)2
_chemical_formula_sum   'Pd4 Pt8 O24'
_cell_volume   384.79437696
_cell_formula_units_Z   4
loop_
 _symmetry_equiv_pos_site_id
 _symmetry_equiv_pos_as_xyz
  1  'x, y, z'
loop_
 _atom_site_type_symbol
 _atom_site_label
 _atom_site_symmetry_multiplicity
 _atom_site_fract_x
 _atom_site_fract_y
 _atom_site_fract_z
 _atom_site_occupancy
  Pd  Pd0  1  0.00000383  0.50002573  0.00000352  1
  Pd  Pd1  1  0.49999569  0.74998832  0.50001120  1
  Pd  Pd2  1  0.99999979  0.99996970  0.99999049  1
  Pd  Pd3  1  0.49999923  0.25001486  0.49999647  1
  Pt  Pt0  1  0.00000695  0.16651617  0.99999449  1
  Pt  Pt1  1  0.00000268  0.66652860  0.00001211  1
  Pt  Pt2  1  0.49999108  0.41651421  0.50000288  1
  Pt  Pt3  1  0.49999347  0.91645267  0.49999999  1
  Pt  Pt4  1  0.50000617  0.08349842  0.49999678  1
  Pt  Pt5  1  0.50000671  0.58353603  0.50000311  1
  Pt  Pt6  1  0.99999273  0.33350763  0.99999637  1
  Pt  Pt7  1  0.99999365  0.83344860  0.00000184  1
  O  O0  1  0.76203047  0.25002068  0.13998139  1
  O  O1  1  0.76194359  0.74998646  0.13998659  1
  O  O2  1  0.26199297  0.99997026  0.36003242  1
  O  O3  1  0.26195645  0.50002052  0.36004610  1
  O  O4  1  0.73804104  0.50001878  0.63995858  1
  O  O5  1  0.73801327  0.99996839  0.63995126  1
  O  O6  1  0.23795717  0.25002389  0.86000852  1
  O  O7  1  0.23804169  0.74998877  0.86002745  1
  O  O8  1  0.75917281  0.41675895  0.14076304  1
  O  O9  1  0.75912779  0.91668750  0.14073770  1
  O  O10  1  0.75915812  0.08325388  0.14068735  1
  O  O11  1  0.75915828  0.58329086  0.14075358  1
  O  O12  1  0.25915863  0.16674164  0.35930037  1
  O  O13  1  0.25910157  0.66674669  0.35931653  1
  O  O14  1  0.25912141  0.33329104  0.35928016  1
  O  O15  1  0.25910249  0.83322713  0.35928860  1
  O  O16  1  0.74084805  0.16674358  0.64069728  1
  O  O17  1  0.74089527  0.66674915  0.64071385  1
  O  O18  1  0.74087543  0.33329371  0.64069994  1
  O  O19  1  0.74090532  0.83322934  0.64069927  1
  O  O20  1  0.24084877  0.41675661  0.85925237  1
  O  O21  1  0.24088104  0.91668598  0.85927838  1
  O  O22  1  0.24083018  0.08325163  0.85928391  1
  O  O23  1  0.24084419  0.58329062  0.85924408  1
loop_
_geom_bond_atom_site_label_1
_geom_bond_atom_site_label_2
_geom_bond_distance
_geom_bond_site_symmetry_2
O0 Pt6 2.008546 1_554
O0 Pt0 2.008858 1_654
O0 Pd3 2.010743 1_555
O1 Pt1 2.008355 1_655
O1 Pt7 2.008394 1_555
O1 Pd1 2.010554 1_555
O2 Pt3 2.009080 1_555
O2 Pt4 2.009254 1_565
O2 Pd2 2.010744 1_454
O3 Pt2 2.008982 1_555
O3 Pt5 2.009148 1_555
O3 Pd0 2.010637 1_555
O4 Pt2 2.008984 1_555
O4 Pt5 2.009141 1_555
O4 Pd0 2.010673 1_656
O5 Pt3 2.009069 1_555
O5 Pt4 2.009261 1_565
O5 Pd2 2.010716 1_555
O6 Pt6 2.008524 1_455
O6 Pt0 2.008824 1_555
O6 Pd3 2.010761 1_555
O7 Pt1 2.008338 1_556
O7 Pt7 2.008357 1_456
O7 Pd1 2.010540 1_555
O8 Pt2 2.000307 1_555
O8 Pt6 2.013207 1_554
O8 Pd0 2.013435 1_655
O9 Pt3 2.000262 1_555
O9 Pt7 2.013094 1_555
O9 Pd2 2.013745 1_554
O10 Pt4 2.000481 1_555
O10 Pt0 2.013319 1_654
O10 Pd2 2.013643 1_544
O11 Pt5 2.000262 1_555
O11 Pt1 2.013016 1_655
O11 Pd0 2.013449 1_655
O12 Pt0 2.000472 1_554
O12 Pt4 2.013055 1_555
O12 Pd3 2.013469 1_555
O13 Pt1 2.000325 1_555
O13 Pt5 2.012705 1_555
O13 Pd1 2.013135 1_555
O14 Pt6 2.000330 1_454
O14 Pt2 2.012844 1_555
O14 Pd3 2.013641 1_555
O15 Pt7 2.000288 1_455
O15 Pt3 2.012915 1_555
O15 Pd1 2.013140 1_555
O16 Pt0 2.000460 1_655
O16 Pt4 2.013067 1_555
O16 Pd3 2.013476 1_555
O17 Pt1 2.000326 1_656
O17 Pt5 2.012727 1_555
O17 Pd1 2.013132 1_555
O18 Pt6 2.000345 1_555
O18 Pt2 2.012813 1_555
O18 Pd3 2.013649 1_555
O19 Pt7 2.000291 1_556
O19 Pt3 2.012926 1_555
O19 Pd1 2.013155 1_555
O20 Pt2 2.000237 1_555
O20 Pt6 2.013213 1_455
O20 Pd0 2.013508 1_556
O21 Pt3 2.000262 1_555
O21 Pt7 2.013092 1_456
O21 Pd2 2.013756 1_455
O22 Pt4 2.000464 1_555
O22 Pt0 2.013329 1_555
O22 Pd2 2.013581 1_445
O23 Pt5 2.000260 1_555
O23 Pt1 2.013066 1_556
O23 Pd0 2.013430 1_556
