# generated using pymatgen
data_CsP4AuO12
_symmetry_space_group_name_H-M   'P 1'
_cell_length_a   14.35964931
_cell_length_b   5.51573706
_cell_length_c   7.27412416
_cell_angle_alpha   76.05320621
_cell_angle_beta   90.00000000
_cell_angle_gamma   90.00000000
_symmetry_Int_Tables_number   1
_chemical_formula_structural   CsP4AuO12
_chemical_formula_sum   'Cs2 P8 Au2 O24'
_cell_volume   559.15546076
_cell_formula_units_Z   2
loop_
 _symmetry_equiv_pos_site_id
 _symmetry_equiv_pos_as_xyz
  1  'x, y, z'
loop_
 _atom_site_type_symbol
 _atom_site_label
 _atom_site_symmetry_multiplicity
 _atom_site_fract_x
 _atom_site_fract_y
 _atom_site_fract_z
 _atom_site_occupancy
  Cs  Cs0  1  0.99910668  0.34840743  0.83839593  1
  Cs  Cs1  1  0.49910668  0.65159257  0.16160407  1
  P  P0  1  0.88297385  0.95177944  0.44531882  1
  P  P1  1  0.82148434  0.80067565  0.11004975  1
  P  P2  1  0.38297385  0.04822056  0.55468118  1
  P  P3  1  0.17950751  0.85630412  0.10200514  1
  P  P4  1  0.08777866  0.95133118  0.44420530  1
  P  P5  1  0.58777866  0.04866882  0.55579470  1
  P  P6  1  0.67950751  0.14369588  0.89799486  1
  P  P7  1  0.32148434  0.19932435  0.88995025  1
  Au  Au0  1  0.23414060  0.49609502  0.50111860  1
  Au  Au1  1  0.73414060  0.50390498  0.49888140  1
  O  O0  1  0.14148030  0.73068296  0.56333450  1
  O  O1  1  0.08709875  0.18117878  0.50934735  1
  O  O2  1  0.62299133  0.99732993  0.76883837  1
  O  O3  1  0.98535997  0.84206890  0.43159045  1
  O  O4  1  0.88260932  0.17972322  0.51349456  1
  O  O5  1  0.84687075  0.99975058  0.23297900  1
  O  O6  1  0.12299133  0.00267007  0.23116163  1
  O  O7  1  0.62853842  0.14534217  0.07051033  1
  O  O8  1  0.12853842  0.85465783  0.92948967  1
  O  O9  1  0.24419222  0.36660649  0.78259576  1
  O  O10  1  0.38260932  0.82027678  0.48650544  1
  O  O11  1  0.58709875  0.81882122  0.49065265  1
  O  O12  1  0.64148030  0.26931704  0.43666550  1
  O  O13  1  0.48535997  0.15793110  0.56840955  1
  O  O14  1  0.27261709  0.02089261  0.06745377  1
  O  O15  1  0.90465080  0.68955881  0.04995240  1
  O  O16  1  0.70908703  0.39806629  0.77646537  1
  O  O17  1  0.77261709  0.97910739  0.93254623  1
  O  O18  1  0.40465080  0.31044119  0.95004760  1
  O  O19  1  0.82927539  0.73063975  0.56612868  1
  O  O20  1  0.32927539  0.26936025  0.43387132  1
  O  O21  1  0.34687075  0.00024942  0.76702100  1
  O  O22  1  0.74419222  0.63339351  0.21740424  1
  O  O23  1  0.20908703  0.60193371  0.22353463  1
loop_
_geom_bond_atom_site_label_1
_geom_bond_atom_site_label_2
_geom_bond_distance
_geom_bond_site_symmetry_2
Cs0 O15 3.023993 1_556
Cs0 O1 3.039835 1_655
Cs0 O4 3.210864 1_555
Cs0 O8 3.231165 1_645
Cs0 O0 3.255042 1_655
Cs0 O19 3.507405 1_555
Cs0 O3 3.510802 1_555
Cs0 O6 3.512483 1_656
Cs0 O9 3.541322 1_655
Cs0 O8 3.547189 1_655
Cs0 O5 3.748960 1_546
Cs0 O17 3.810946 1_545
Cs0 O15 3.836448 1_546
Cs1 O18 3.023993 1_554
Cs1 O11 3.039835 1_555
Cs1 O10 3.210864 1_555
Cs1 O7 3.231165 1_565
Cs1 O12 3.255042 1_555
Cs1 O20 3.507405 1_555
Cs1 O13 3.510802 1_555
Cs1 O2 3.512483 1_554
Cs1 O22 3.541322 1_555
Cs1 O7 3.547189 1_555
Cs1 O21 3.748960 1_564
Cs1 O14 3.810946 1_565
Cs1 O18 3.836448 1_564
Au0 O0 1.982864 1_555
Au0 O20 1.991088 1_555
Au0 O23 1.994770 1_555
Au0 O9 2.004565 1_555
Au1 O12 1.982864 1_555
Au1 O19 1.991088 1_555
Au1 O16 1.994770 1_555
Au1 O22 2.004565 1_555
O0 P4 1.522623 1_555
O1 P4 1.456528 1_545
O2 P5 1.589312 1_565
O2 P6 1.599579 1_565
O3 P4 1.600384 1_655
O3 P0 1.602143 1_555
O4 P0 1.458515 1_545
O5 P0 1.589817 1_555
O5 P1 1.616012 1_555
O6 P4 1.589312 1_545
O6 P3 1.599579 1_545
O7 P6 1.454655 1_554
O8 P3 1.454655 1_556
O9 P7 1.531565 1_555
O10 P2 1.458515 1_565
O11 P5 1.456528 1_565
O12 P5 1.522623 1_555
O13 P5 1.600384 1_555
O13 P2 1.602143 1_555
O14 P7 1.586069 1_554
O14 P3 1.601548 1_545
O15 P1 1.456745 1_555
O16 P6 1.527267 1_555
O17 P1 1.586069 1_556
O17 P6 1.601548 1_565
O18 P7 1.456745 1_555
O19 P0 1.529030 1_555
O20 P2 1.529030 1_555
O21 P2 1.589817 1_555
O21 P7 1.616012 1_555
O22 P1 1.531565 1_555
O23 P3 1.527267 1_555
