# generated using pymatgen
data_Cd4Sb(PN2)6
_symmetry_space_group_name_H-M   'P 1'
_cell_length_a   7.44625570
_cell_length_b   7.44625616
_cell_length_c   7.44625654
_cell_angle_alpha   109.47121900
_cell_angle_beta   109.47122027
_cell_angle_gamma   109.47122349
_symmetry_Int_Tables_number   1
_chemical_formula_structural   Cd4Sb(PN2)6
_chemical_formula_sum   'Cd4 Sb1 P6 N12'
_cell_volume   317.82789904
_cell_formula_units_Z   1
loop_
 _symmetry_equiv_pos_site_id
 _symmetry_equiv_pos_as_xyz
  1  'x, y, z'
loop_
 _atom_site_type_symbol
 _atom_site_label
 _atom_site_symmetry_multiplicity
 _atom_site_fract_x
 _atom_site_fract_y
 _atom_site_fract_z
 _atom_site_occupancy
  Cd  Cd0  1  0.63887839  1.00000000  1.00000000  1
  Cd  Cd1  1  0.00000000  0.00000000  0.63887839  1
  Cd  Cd2  1  1.00000000  0.63887839  1.00000000  1
  Cd  Cd3  1  0.36112161  0.36112161  0.36112161  1
  Sb  Sb0  1  0.00000000  0.00000000  0.00000000  1
  P  P0  1  0.25000000  0.75000000  0.50000000  1
  P  P1  1  0.75000000  0.25000000  0.50000000  1
  P  P2  1  0.75000000  0.50000000  0.25000000  1
  P  P3  1  0.25000000  0.50000000  0.75000000  1
  P  P4  1  0.50000000  0.75000000  0.25000000  1
  P  P5  1  0.50000000  0.25000000  0.75000000  1
  N  N0  1  0.70762620  0.29204611  0.29204611  1
  N  N1  1  0.29204611  0.70762620  0.29204611  1
  N  N2  1  0.29237380  0.58441992  0.58441992  1
  N  N3  1  0.58441992  0.58441992  0.29237380  1
  N  N4  1  0.41558008  0.70795389  1.00000000  1
  N  N5  1  0.00000000  0.70795389  0.41558008  1
  N  N6  1  0.58441992  0.29237380  0.58441992  1
  N  N7  1  0.70795389  1.00000000  0.41558008  1
  N  N8  1  0.41558008  0.00000000  0.70795389  1
  N  N9  1  0.70795389  0.41558008  1.00000000  1
  N  N10  1  0.29204611  0.29204611  0.70762620  1
  N  N11  1  0.00000000  0.41558008  0.70795389  1
loop_
_geom_bond_atom_site_label_1
_geom_bond_atom_site_label_2
_geom_bond_distance
_geom_bond_site_symmetry_2
Cd0 N4 2.254599 1_555
Cd0 N8 2.254599 1_565
Cd0 N0 2.254599 1_566
Cd0 Sb0 2.689004 1_666
Cd1 N10 2.254599 1_555
Cd1 N7 2.254599 1_445
Cd1 N5 2.254599 1_545
Cd1 Sb0 2.689004 1_556
Cd2 N9 2.254599 1_555
Cd2 N1 2.254599 1_656
Cd2 N11 2.254599 1_655
Cd2 Sb0 2.689004 1_666
Cd3 N3 2.254599 1_555
Cd3 N6 2.254599 1_555
Cd3 N2 2.254599 1_555
Cd3 Sb0 2.689004 1_555
N0 P2 1.630553 1_555
N0 P1 1.630553 1_555
N1 P4 1.630553 1_555
N1 P0 1.630553 1_555
N2 P0 1.630553 1_555
N2 P3 1.630553 1_555
N3 P2 1.630553 1_555
N3 P4 1.630553 1_555
N4 P3 1.630553 1_555
N4 P4 1.630553 1_556
N5 P0 1.630553 1_555
N5 P2 1.630553 1_455
N6 P1 1.630553 1_555
N6 P5 1.630553 1_555
N7 P4 1.630553 1_555
N7 P1 1.630553 1_565
N8 P5 1.630553 1_555
N8 P0 1.630553 1_545
N9 P5 1.630553 1_555
N9 P2 1.630553 1_556
N10 P5 1.630553 1_555
N10 P3 1.630553 1_555
N11 P3 1.630553 1_555
N11 P1 1.630553 1_455
