# generated using pymatgen
data_Zr3ZnIr2O
_symmetry_space_group_name_H-M   'P 1'
_cell_length_a   8.51460394
_cell_length_b   8.51460400
_cell_length_c   8.51460331
_cell_angle_alpha   59.99999889
_cell_angle_beta   59.99999864
_cell_angle_gamma   60.00000154
_symmetry_Int_Tables_number   1
_chemical_formula_structural   Zr3ZnIr2O
_chemical_formula_sum   'Zr12 Zn4 Ir8 O4'
_cell_volume   436.49404605
_cell_formula_units_Z   4
loop_
 _symmetry_equiv_pos_site_id
 _symmetry_equiv_pos_as_xyz
  1  'x, y, z'
loop_
 _atom_site_type_symbol
 _atom_site_label
 _atom_site_symmetry_multiplicity
 _atom_site_fract_x
 _atom_site_fract_y
 _atom_site_fract_z
 _atom_site_occupancy
  Zr  Zr0  1  0.80502320  0.80502320  0.19497680  1
  Zr  Zr1  1  0.19497680  0.19497680  0.80502320  1
  Zr  Zr2  1  0.80502320  0.19497680  0.80502320  1
  Zr  Zr3  1  0.19497680  0.80502320  0.19497680  1
  Zr  Zr4  1  0.19497680  0.80502320  0.80502320  1
  Zr  Zr5  1  0.80502320  0.19497680  0.19497680  1
  Zr  Zr6  1  0.44497680  0.44497680  0.05502320  1
  Zr  Zr7  1  0.05502320  0.05502320  0.44497680  1
  Zr  Zr8  1  0.44497680  0.05502320  0.44497680  1
  Zr  Zr9  1  0.05502320  0.44497680  0.05502320  1
  Zr  Zr10  1  0.05502320  0.44497680  0.44497680  1
  Zr  Zr11  1  0.44497680  0.05502320  0.05502320  1
  Zn  Zn0  1  0.12500000  0.62500000  0.62500000  1
  Zn  Zn1  1  0.62500000  0.12500000  0.62500000  1
  Zn  Zn2  1  0.62500000  0.62500000  0.12500000  1
  Zn  Zn3  1  0.62500000  0.62500000  0.62500000  1
  Ir  Ir0  1  0.75980706  0.41339831  0.41339831  1
  Ir  Ir1  1  0.41339831  0.75980706  0.41339831  1
  Ir  Ir2  1  0.41339831  0.41339831  0.75980706  1
  Ir  Ir3  1  0.41339831  0.41339831  0.41339831  1
  Ir  Ir4  1  0.49019294  0.83660169  0.83660169  1
  Ir  Ir5  1  0.83660169  0.49019294  0.83660169  1
  Ir  Ir6  1  0.83660169  0.83660169  0.49019294  1
  Ir  Ir7  1  0.83660169  0.83660169  0.83660169  1
  O  O0  1  0.62500000  0.12500000  0.12500000  1
  O  O1  1  0.12500000  0.62500000  0.12500000  1
  O  O2  1  0.12500000  0.12500000  0.62500000  1
  O  O3  1  0.12500000  0.12500000  0.12500000  1
loop_
_geom_bond_atom_site_label_1
_geom_bond_atom_site_label_2
_geom_bond_distance
_geom_bond_site_symmetry_2
Zn0 Zr9 3.038135 1_556
Zn0 Zr3 3.038135 1_555
Zn0 Zr4 3.038136 1_555
Zn0 Zr10 3.038136 1_555
Zn0 Zr7 3.038136 1_565
Zn0 Zr1 3.038136 1_555
Zn1 Zr11 3.038135 1_556
Zn1 Zr5 3.038135 1_555
Zn1 Zr2 3.038136 1_555
Zn1 Zr8 3.038136 1_555
Zn1 Zr7 3.038136 1_655
Zn1 Zr1 3.038136 1_555
Zn2 Zr0 3.038136 1_555
Zn2 Zr6 3.038136 1_555
Zn2 Zr9 3.038136 1_655
Zn2 Zr3 3.038136 1_555
Zn2 Zr11 3.038136 1_565
Zn2 Zr5 3.038136 1_555
Zn3 Zr6 3.038135 1_556
Zn3 Zr0 3.038135 1_555
Zn3 Zr10 3.038136 1_655
Zn3 Zr4 3.038136 1_555
Zn3 Zr8 3.038136 1_565
Zn3 Zr2 3.038136 1_555
Ir0 Zn3 2.630557 1_555
Ir0 Zn2 2.630571 1_555
Ir0 Zn1 2.630571 1_555
Ir0 Zr10 2.808389 1_655
Ir0 Zr9 2.808398 1_655
Ir0 Zr7 2.808399 1_655
Ir0 Zr2 3.015358 1_555
Ir0 Zr0 3.015358 1_555
Ir0 Zr5 3.015372 1_555
Ir1 Zn3 2.630557 1_555
Ir1 Zn2 2.630571 1_555
Ir1 Zn0 2.630571 1_555
Ir1 Zr8 2.808389 1_565
Ir1 Zr11 2.808398 1_565
Ir1 Zr7 2.808399 1_565
Ir1 Zr4 3.015358 1_555
Ir1 Zr0 3.015358 1_555
Ir1 Zr3 3.015372 1_555
Ir2 Zn3 2.630557 1_555
Ir2 Zn0 2.630571 1_555
Ir2 Zn1 2.630571 1_555
Ir2 Zr6 2.808388 1_556
Ir2 Zr9 2.808399 1_556
Ir2 Zr11 2.808399 1_556
Ir2 Zr2 3.015358 1_555
Ir2 Zr4 3.015358 1_555
Ir2 Zr1 3.015372 1_555
Ir3 Zn2 2.630561 1_555
Ir3 Zn0 2.630562 1_555
Ir3 Zn1 2.630562 1_555
Ir3 Zr6 2.808405 1_555
Ir3 Zr10 2.808405 1_555
Ir3 Zr8 2.808406 1_555
Ir3 Zr1 3.015364 1_555
Ir3 Zr5 3.015364 1_555
Ir3 Zr3 3.015364 1_555
Ir4 Zn3 2.630557 1_555
Ir4 Zn2 2.630571 1_556
Ir4 Zn1 2.630571 1_565
Ir4 Zr4 2.808389 1_555
Ir4 Zr3 2.808398 1_556
Ir4 Zr1 2.808399 1_565
Ir4 Zr8 3.015358 1_565
Ir4 Zr6 3.015358 1_556
Ir4 Zr11 3.015372 1_566
Ir5 Zn3 2.630557 1_555
Ir5 Zn2 2.630571 1_556
Ir5 Zn0 2.630571 1_655
Ir5 Zr2 2.808389 1_555
Ir5 Zr5 2.808398 1_556
Ir5 Zr1 2.808399 1_655
Ir5 Zr10 3.015358 1_655
Ir5 Zr6 3.015358 1_556
Ir5 Zr9 3.015372 1_656
Ir6 Zn3 2.630557 1_555
Ir6 Zn0 2.630571 1_655
Ir6 Zn1 2.630571 1_565
Ir6 Zr0 2.808388 1_555
Ir6 Zr3 2.808399 1_655
Ir6 Zr5 2.808399 1_565
Ir6 Zr8 3.015358 1_565
Ir6 Zr10 3.015358 1_655
Ir6 Zr7 3.015372 1_665
Ir7 Zn2 2.630561 1_556
Ir7 Zn0 2.630562 1_655
Ir7 Zn1 2.630562 1_565
Ir7 Zr0 2.808405 1_556
Ir7 Zr4 2.808405 1_655
Ir7 Zr2 2.808406 1_565
Ir7 Zr7 3.015364 1_665
Ir7 Zr11 3.015364 1_566
Ir7 Zr9 3.015364 1_656
O0 Zr8 2.289360 1_555
O0 Zr2 2.289360 1_554
O0 Zr5 2.289360 1_555
O0 Zr11 2.289360 1_555
O0 Zr6 2.289360 1_555
O0 Zr0 2.289360 1_545
O1 Zr10 2.289360 1_555
O1 Zr4 2.289360 1_554
O1 Zr3 2.289360 1_555
O1 Zr9 2.289360 1_555
O1 Zr6 2.289360 1_555
O1 Zr0 2.289360 1_455
O2 Zr1 2.289360 1_555
O2 Zr7 2.289360 1_555
O2 Zr8 2.289360 1_555
O2 Zr2 2.289360 1_455
O2 Zr10 2.289360 1_555
O2 Zr4 2.289360 1_545
O3 Zr7 2.289360 1_555
O3 Zr1 2.289360 1_554
O3 Zr11 2.289360 1_555
O3 Zr5 2.289360 1_455
O3 Zr9 2.289360 1_555
O3 Zr3 2.289360 1_545
