# generated using pymatgen
data_Lu5Zr3(ReB6)4
_symmetry_space_group_name_H-M   'P 1'
_cell_length_a   3.58962741
_cell_length_b   8.98613698
_cell_length_c   11.33678138
_cell_angle_alpha   89.96851649
_cell_angle_beta   90.00000000
_cell_angle_gamma   90.00000000
_symmetry_Int_Tables_number   1
_chemical_formula_structural   Lu5Zr3(ReB6)4
_chemical_formula_sum   'Lu5 Zr3 Re4 B24'
_cell_volume   365.68918268
_cell_formula_units_Z   1
loop_
 _symmetry_equiv_pos_site_id
 _symmetry_equiv_pos_as_xyz
  1  'x, y, z'
loop_
 _atom_site_type_symbol
 _atom_site_label
 _atom_site_symmetry_multiplicity
 _atom_site_fract_x
 _atom_site_fract_y
 _atom_site_fract_z
 _atom_site_occupancy
  Lu  Lu0  1  0.00000000  0.32171608  0.41271346  1
  Lu  Lu1  1  0.00000000  0.67816538  0.58610319  1
  Lu  Lu2  1  0.00000000  0.82214041  0.08684784  1
  Lu  Lu3  1  0.00000000  0.17836167  0.91413704  1
  Lu  Lu4  1  0.00000000  0.94408061  0.37205584  1
  Zr  Zr0  1  0.00000000  0.05624465  0.62897581  1
  Zr  Zr1  1  0.00000000  0.44427382  0.12742823  1
  Zr  Zr2  1  0.00000000  0.55602080  0.87243103  1
  Re  Re0  1  0.00000000  0.63683058  0.31822150  1
  Re  Re1  1  0.00000000  0.36059472  0.68186885  1
  Re  Re2  1  0.00000000  0.14176062  0.17871446  1
  Re  Re3  1  0.00000000  0.86026598  0.81986350  1
  B  B0  1  0.50000000  0.55227807  0.43372485  1
  B  B1  1  0.50000000  0.44623151  0.56600443  1
  B  B2  1  0.50000000  0.05362940  0.06590608  1
  B  B3  1  0.50000000  0.94671343  0.93432999  1
  B  B4  1  0.50000000  0.74946480  0.41892433  1
  B  B5  1  0.50000000  0.24892041  0.58102457  1
  B  B6  1  0.50000000  0.25146360  0.08011559  1
  B  B7  1  0.50000000  0.74910944  0.91959087  1
  B  B8  1  0.50000000  0.79339330  0.26424207  1
  B  B9  1  0.50000000  0.20593770  0.73615123  1
  B  B10  1  0.50000000  0.29402017  0.23506564  1
  B  B11  1  0.50000000  0.70604706  0.76420084  1
  B  B12  1  0.50000000  0.63022682  0.18351313  1
  B  B13  1  0.50000000  0.36975405  0.81679197  1
  B  B14  1  0.50000000  0.13128189  0.31576095  1
  B  B15  1  0.50000000  0.86927953  0.68350491  1
  B  B16  1  0.50000000  0.98189343  0.21240745  1
  B  B17  1  0.50000000  0.01882460  0.78775967  1
  B  B18  1  0.50000000  0.48021178  0.28711326  1
  B  B19  1  0.50000000  0.51927702  0.71243676  1
  B  B20  1  0.50000000  0.60215124  0.02753075  1
  B  B21  1  0.50000000  0.39858447  0.97200560  1
  B  B22  1  0.50000000  0.10266139  0.47352150  1
  B  B23  1  0.50000000  0.89818856  0.52901283  1
loop_
_geom_bond_atom_site_label_1
_geom_bond_atom_site_label_2
_geom_bond_distance
_geom_bond_site_symmetry_2
Lu0 Re0 3.026966 1_555
Lu0 Re1 3.071482 1_555
Lu0 Re2 3.107582 1_555
Lu1 Re1 3.052717 1_555
Lu1 Re0 3.059750 1_555
Lu1 Re3 3.115363 1_555
Lu2 Re3 3.045884 1_554
Lu2 Re2 3.055684 1_565
Lu2 Re0 3.106196 1_555
Lu3 Re2 3.017256 1_556
Lu3 Re3 3.052269 1_545
Lu3 Re1 3.100081 1_555
Lu4 Re2 2.820556 1_565
Lu4 Re0 2.827967 1_555
Re0 Zr1 2.770683 1_555
Re1 Zr2 2.784836 1_555
Re1 Zr0 2.800217 1_555
Re2 Zr1 2.779595 1_555
Re3 Zr0 2.789332 1_565
Re3 Zr2 2.797866 1_555
B0 B1 1.776349 1_555
B0 B4 1.779782 1_555
B0 B18 1.784139 1_555
B0 Re0 2.347804 1_655
B0 Re0 2.347804 1_555
B0 Lu1 2.736311 1_555
B0 Lu1 2.736311 1_655
B0 Lu0 2.751590 1_555
B0 Lu0 2.751590 1_655
B1 B5 1.781129 1_555
B1 B19 1.785467 1_555
B1 Re1 2.353254 1_655
B1 Re1 2.353254 1_555
B1 Lu0 2.737791 1_555
B1 Lu0 2.737791 1_655
B1 Lu1 2.760008 1_655
B1 Lu1 2.760008 1_555
B2 B3 1.774727 1_544
B2 B6 1.785137 1_555
B2 Re2 2.342053 1_555
B2 Re2 2.342053 1_655
B2 Lu3 2.726891 1_654
B2 Lu3 2.726891 1_554
B2 Lu2 2.757603 1_545
B2 Lu2 2.757603 1_645
B3 B7 1.783632 1_555
B3 Re3 2.347318 1_655
B3 Re3 2.347318 1_555
B3 Lu2 2.731667 1_556
B3 Lu2 2.731667 1_656
B3 Lu3 2.757969 1_565
B3 Lu3 2.757969 1_665
B4 B8 1.797269 1_555
B4 Re0 2.355933 1_655
B4 Re0 2.355933 1_555
B4 Lu4 2.561467 1_555
B4 Lu4 2.561467 1_655
B4 Lu1 2.687485 1_655
B4 Lu1 2.687485 1_555
B5 B9 1.800346 1_555
B5 Re1 2.353017 1_555
B5 Re1 2.353017 1_655
B5 Zr0 2.552179 1_555
B5 Zr0 2.552179 1_655
B5 Lu0 2.699772 1_555
B5 Lu0 2.699772 1_655
B6 Re2 2.332686 1_555
B6 Re2 2.332686 1_655
B6 Zr1 2.551870 1_655
B6 Zr1 2.551870 1_555
B6 Lu3 2.682330 1_654
B6 Lu3 2.682330 1_554
B7 Re3 2.344372 1_555
B7 Re3 2.344372 1_655
B7 Zr2 2.553206 1_555
B7 Zr2 2.553206 1_655
B7 Lu2 2.692363 1_656
B7 Lu2 2.692363 1_556
B8 Re0 2.360984 1_555
B8 Re0 2.360984 1_655
B8 Lu4 2.559429 1_555
B8 Lu4 2.559429 1_655
B8 Lu2 2.707759 1_555
B8 Lu2 2.707759 1_655
B9 Re1 2.351718 1_555
B9 Re1 2.351718 1_655
B9 Zr0 2.551254 1_655
B9 Zr0 2.551254 1_555
B9 Lu3 2.711766 1_555
B9 Lu3 2.711766 1_655
B10 B14 1.724533 1_555
B10 B18 1.774445 1_555
B10 B6 1.797985 1_555
B10 Re2 2.345735 1_555
B10 Re2 2.345735 1_655
B10 Zr1 2.555704 1_655
B10 Zr1 2.555704 1_555
B10 Lu0 2.709218 1_555
B10 Lu0 2.709218 1_655
B11 B15 1.728303 1_555
B11 B19 1.778283 1_555
B11 B7 1.803831 1_555
B11 Re3 2.353944 1_555
B11 Re3 2.353944 1_655
B11 Zr2 2.557841 1_555
B11 Zr2 2.557841 1_655
B11 Lu1 2.713165 1_555
B11 Lu1 2.713165 1_655
B12 B8 1.728851 1_555
B12 B20 1.786382 1_555
B12 B18 1.787441 1_555
B12 Re0 2.357370 1_555
B12 Re0 2.357370 1_655
B12 Zr1 2.533581 1_655
B12 Zr1 2.533581 1_555
B12 Lu2 2.719252 1_555
B12 Lu2 2.719252 1_655
B13 B9 1.733280 1_555
B13 B21 1.778734 1_555
B13 B19 1.789754 1_555
B13 Re1 2.359645 1_555
B13 Re1 2.359645 1_655
B13 Zr2 2.534177 1_655
B13 Zr2 2.534177 1_555
B13 Lu3 2.719401 1_555
B13 Lu3 2.719401 1_655
B14 B16 1.782331 1_545
B14 B22 1.806754 1_555
B14 Re2 2.375698 1_655
B14 Re2 2.375698 1_555
B14 Lu4 2.541128 1_645
B14 Lu4 2.541128 1_545
B14 Lu0 2.712922 1_555
B14 Lu0 2.712922 1_655
B15 B23 1.770463 1_555
B15 B17 1.790126 1_565
B15 Re3 2.370124 1_555
B15 Re3 2.370124 1_655
B15 Zr0 2.534775 1_565
B15 Zr0 2.534775 1_665
B15 Lu1 2.718848 1_555
B15 Lu1 2.718848 1_655
B16 B2 1.781237 1_565
B16 B8 1.792618 1_555
B16 Re2 2.330331 1_565
B16 Re2 2.330331 1_665
B16 Lu4 2.571356 1_655
B16 Lu4 2.571356 1_555
B16 Lu2 2.703817 1_555
B16 Lu2 2.703817 1_655
B17 B9 1.780005 1_555
B17 B3 1.783187 1_545
B17 Re3 2.320213 1_545
B17 Re3 2.320213 1_645
B17 Zr0 2.564004 1_555
B17 Zr0 2.564004 1_655
B17 Lu3 2.707684 1_555
B17 Lu3 2.707684 1_655
B18 Re0 2.308039 1_655
B18 Re0 2.308039 1_555
B18 Zr1 2.569733 1_655
B18 Zr1 2.569733 1_555
B18 Lu0 2.697249 1_655
B18 Lu0 2.697249 1_555
B19 Re1 2.318469 1_555
B19 Re1 2.318469 1_655
B19 Zr2 2.573126 1_655
B19 Zr2 2.573126 1_555
B19 Lu1 2.703506 1_655
B19 Lu1 2.703506 1_555
B20 B7 1.799887 1_554
B20 B21 1.934882 1_554
B20 Zr2 2.546709 1_654
B20 Zr2 2.546709 1_554
B20 Zr1 2.552433 1_655
B20 Zr1 2.552433 1_555
B20 Lu2 2.753720 1_555
B20 Lu2 2.753720 1_655
B21 B6 1.802269 1_556
B21 Zr1 2.548595 1_556
B21 Zr1 2.548595 1_656
B21 Zr2 2.548611 1_555
B21 Zr2 2.548611 1_655
B21 Lu3 2.751259 1_555
B21 Lu3 2.751259 1_655
B22 B5 1.792897 1_555
B22 B23 1.941804 1_545
B22 Zr0 2.549590 1_555
B22 Zr0 2.549590 1_655
B22 Lu4 2.564574 1_545
B22 Lu4 2.564574 1_645
B22 Lu0 2.751347 1_555
B22 Lu0 2.751347 1_655
B23 B4 1.829088 1_555
B23 Zr0 2.554347 1_565
B23 Zr0 2.554347 1_665
B23 Lu4 2.560632 1_555
B23 Lu4 2.560632 1_655
B23 Lu1 2.747362 1_655
B23 Lu1 2.747362 1_555
