# generated using pymatgen
data_Sc4TaRe24
_symmetry_space_group_name_H-M   'P 1'
_cell_length_a   8.40192261
_cell_length_b   8.40192117
_cell_length_c   8.40192214
_cell_angle_alpha   109.43186147
_cell_angle_beta   109.43185273
_cell_angle_gamma   109.43185741
_symmetry_Int_Tables_number   1
_chemical_formula_structural   Sc4TaRe24
_chemical_formula_sum   'Sc4 Ta1 Re24'
_cell_volume   457.24121343
_cell_formula_units_Z   1
loop_
 _symmetry_equiv_pos_site_id
 _symmetry_equiv_pos_as_xyz
  1  'x, y, z'
loop_
 _atom_site_type_symbol
 _atom_site_label
 _atom_site_symmetry_multiplicity
 _atom_site_fract_x
 _atom_site_fract_y
 _atom_site_fract_z
 _atom_site_occupancy
  Sc  Sc0  1  0.00042048  0.63149179  0.00042048  1
  Sc  Sc1  1  0.63149179  0.00042048  0.00042048  1
  Sc  Sc2  1  0.00042048  0.00042048  0.63149179  1
  Sc  Sc3  1  0.99891350  0.99891350  0.99891350  1
  Ta  Ta0  1  0.37007967  0.37007967  0.37007967  1
  Re  Re0  1  0.99725669  0.39421835  0.67501006  1
  Re  Re1  1  0.28084761  0.59933109  0.59933109  1
  Re  Re2  1  0.72202149  0.32466811  0.32466811  1
  Re  Re3  1  0.32466811  0.72202149  0.32466811  1
  Re  Re4  1  0.67501006  0.99725669  0.39421835  1
  Re  Re5  1  0.99725669  0.67501006  0.39421835  1
  Re  Re6  1  0.59933109  0.59933109  0.28084761  1
  Re  Re7  1  0.80957101  0.80957101  0.18631135  1
  Re  Re8  1  0.37752035  0.19406015  0.00112507  1
  Re  Re9  1  0.19406015  0.37752035  0.00112507  1
  Re  Re10  1  0.62354799  0.81687687  0.62354799  1
  Re  Re11  1  0.37752035  0.00112507  0.19406015  1
  Re  Re12  1  0.00112507  0.37752035  0.19406015  1
  Re  Re13  1  0.81687687  0.62354799  0.62354799  1
  Re  Re14  1  0.18631135  0.80957101  0.80957101  1
  Re  Re15  1  0.80957101  0.18631135  0.80957101  1
  Re  Re16  1  0.19406015  0.00112507  0.37752035  1
  Re  Re17  1  0.00112507  0.19406015  0.37752035  1
  Re  Re18  1  0.62354799  0.62354799  0.81687687  1
  Re  Re19  1  0.39421835  0.99725669  0.67501006  1
  Re  Re20  1  0.59933109  0.28084761  0.59933109  1
  Re  Re21  1  0.67501006  0.39421835  0.99725669  1
  Re  Re22  1  0.39421835  0.67501006  0.99725669  1
  Re  Re23  1  0.32466811  0.32466811  0.72202149  1
loop_
_geom_bond_atom_site_label_1
_geom_bond_atom_site_label_2
_geom_bond_distance
_geom_bond_site_symmetry_2
Sc0 Sc3 3.095496 1_454
Sc1 Sc3 3.095496 1_544
Sc2 Sc3 3.095496 1_445
Sc3 Ta0 3.124564 1_666
Re0 Re17 2.523932 1_655
Re0 Re15 2.735634 1_555
Re0 Re9 2.767121 1_656
Re0 Sc0 2.782064 1_656
Re0 Re2 2.789415 1_555
Re0 Re1 2.838401 1_655
Re0 Re13 2.873622 1_555
Re0 Re14 2.910559 1_655
Re0 Re4 2.919970 1_545
Re0 Re22 2.919971 1_655
Re0 Re20 2.924568 1_555
Re0 Re23 2.926610 1_655
Re0 Sc2 3.215845 1_655
Re1 Re14 2.581150 1_555
Re1 Ta0 2.726781 1_555
Re1 Re10 2.744786 1_555
Re1 Re18 2.744786 1_555
Re1 Re5 2.838401 1_455
Re1 Re17 2.851270 1_555
Re1 Re12 2.851271 1_555
Re1 Re23 2.901596 1_555
Re1 Re3 2.901596 1_555
Re1 Re19 2.924568 1_555
Re1 Re22 2.924568 1_555
Re1 Sc1 3.259486 1_566
Re2 Re8 2.763732 1_555
Re2 Sc1 2.779642 1_555
Re2 Re5 2.789414 1_555
Re2 Re6 2.901596 1_555
Re2 Re20 2.901596 1_555
Re2 Re4 2.926610 1_545
Re2 Re21 2.926610 1_554
Re2 Ta0 3.231012 1_555
Re3 Re9 2.763732 1_555
Re3 Sc0 2.779643 1_555
Re3 Re4 2.789414 1_555
Re3 Re6 2.901596 1_555
Re3 Re5 2.926610 1_455
Re3 Ta0 3.231012 1_555
Re4 Re7 2.735634 1_555
Re4 Sc2 2.782064 1_665
Re4 Re6 2.924568 1_555
Re4 Sc1 3.215846 1_565
Re5 Re7 2.735634 1_555
Re5 Sc2 2.782064 1_665
Re5 Re6 2.924568 1_555
Re5 Sc0 3.215846 1_655
Re6 Re7 2.581150 1_555
Re6 Ta0 2.726781 1_555
Re6 Re8 2.851270 1_555
Re6 Re9 2.851271 1_555
Re6 Sc2 3.259486 1_665
Re7 Sc0 2.992832 1_655
Re7 Sc1 2.992832 1_565
Re7 Sc3 3.031488 1_554
Re7 Sc2 3.072559 1_665
Re8 Re9 2.516514 1_555
Re8 Ta0 2.990098 1_555
Re8 Sc2 2.998597 1_554
Re8 Sc3 3.045923 1_444
Re8 Sc1 3.084190 1_555
Re9 Ta0 2.990098 1_555
Re9 Sc2 2.998597 1_554
Re9 Sc3 3.045923 1_444
Re9 Sc0 3.084190 1_555
Re10 Re3 2.527455 1_555
Re10 Re15 2.537506 1_565
Re10 Re18 2.651882 1_555
Re10 Re13 2.651882 1_555
Re10 Re6 2.744786 1_555
Re10 Re4 2.873622 1_555
Re10 Re19 2.873622 1_555
Re10 Sc1 2.991800 1_566
Re10 Sc2 2.991801 1_665
Re10 Sc3 3.032333 1_555
Re10 Ta0 3.083258 1_555
Re11 Re16 2.516514 1_555
Re11 Re4 2.523932 1_545
Re11 Re14 2.640849 1_544
Re11 Re8 2.646480 1_555
Re11 Re2 2.763732 1_555
Re11 Re22 2.767121 1_544
Re11 Re20 2.851271 1_555
Re11 Re3 2.871238 1_545
Re11 Ta0 2.990098 1_555
Re11 Sc0 2.998597 1_545
Re11 Sc3 3.045923 1_444
Re11 Sc1 3.084190 1_555
Re12 Re17 2.516514 1_555
Re12 Re5 2.523932 1_455
Re12 Re15 2.640849 1_454
Re12 Re9 2.646480 1_555
Re12 Re3 2.763732 1_555
Re12 Re21 2.767121 1_454
Re12 Re2 2.871239 1_455
Re12 Ta0 2.990099 1_555
Re12 Sc1 2.998597 1_455
Re12 Sc3 3.045923 1_444
Re12 Sc0 3.084190 1_555
Re13 Re2 2.527454 1_555
Re13 Re14 2.537507 1_655
Re13 Re18 2.651882 1_555
Re13 Re20 2.744785 1_555
Re13 Re6 2.744786 1_555
Re13 Re5 2.873623 1_555
Re13 Sc2 2.991800 1_665
Re13 Sc0 2.991801 1_656
Re13 Sc3 3.032333 1_555
Re13 Ta0 3.083259 1_555
Re14 Re8 2.640848 1_566
Re14 Re19 2.735634 1_555
Re14 Re22 2.735634 1_555
Re14 Re5 2.910559 1_455
Re14 Sc0 2.992832 1_556
Re14 Sc2 2.992832 1_565
Re14 Sc3 3.031488 1_455
Re14 Sc1 3.072559 1_566
Re15 Re20 2.581151 1_555
Re15 Re9 2.640849 1_656
Re15 Re21 2.735634 1_555
Re15 Re4 2.910559 1_545
Re15 Re19 2.910559 1_545
Re15 Sc2 2.992832 1_655
Re15 Sc1 2.992832 1_556
Re15 Sc3 3.031488 1_545
Re15 Sc0 3.072558 1_656
Re16 Re19 2.523932 1_545
Re16 Re7 2.640849 1_445
Re16 Re17 2.646480 1_555
Re16 Re23 2.763732 1_555
Re16 Re5 2.767121 1_445
Re16 Re20 2.851271 1_555
Re16 Re3 2.871238 1_545
Re16 Ta0 2.990098 1_555
Re16 Sc0 2.998597 1_545
Re16 Sc3 3.045923 1_444
Re16 Sc2 3.084190 1_555
Re17 Re7 2.640848 1_445
Re17 Re23 2.763732 1_555
Re17 Re4 2.767121 1_445
Re17 Re2 2.871239 1_455
Re17 Ta0 2.990098 1_555
Re17 Sc1 2.998597 1_455
Re17 Sc3 3.045923 1_444
Re17 Sc2 3.084190 1_555
Re18 Re23 2.527454 1_555
Re18 Re7 2.537507 1_556
Re18 Re20 2.744785 1_555
Re18 Re21 2.873622 1_555
Re18 Re22 2.873623 1_555
Re18 Sc1 2.991800 1_566
Re18 Sc0 2.991801 1_656
Re18 Sc3 3.032333 1_555
Re18 Ta0 3.083259 1_555
Re19 Re8 2.767121 1_566
Re19 Sc1 2.782064 1_566
Re19 Re3 2.789414 1_555
Re19 Re20 2.838401 1_565
Re19 Re21 2.919970 1_565
Re19 Re5 2.919971 1_455
Re19 Re23 2.926610 1_565
Re19 Sc2 3.215846 1_565
Re20 Ta0 2.726781 1_555
Re20 Re4 2.838400 1_545
Re20 Re23 2.901596 1_555
Re20 Re21 2.924568 1_555
Re20 Sc0 3.259487 1_656
Re21 Re8 2.523932 1_556
Re21 Sc0 2.782064 1_656
Re21 Re23 2.789415 1_555
Re21 Re6 2.838401 1_556
Re21 Re7 2.910558 1_556
Re21 Re5 2.919971 1_556
Re21 Sc1 3.215845 1_556
Re22 Re9 2.523932 1_556
Re22 Sc1 2.782064 1_566
Re22 Re23 2.789414 1_555
Re22 Re6 2.838401 1_556
Re22 Re7 2.910559 1_556
Re22 Re4 2.919971 1_556
Re22 Re3 2.926610 1_556
Re22 Sc0 3.215846 1_556
Re23 Sc2 2.779642 1_555
Re23 Re9 2.871238 1_556
Re23 Re8 2.871238 1_556
Re23 Ta0 3.231012 1_555
