# generated using pymatgen
data_Tc2NiHgO8
_symmetry_space_group_name_H-M   'P 1'
_cell_length_a   5.48338213
_cell_length_b   5.48338155
_cell_length_c   8.36495542
_cell_angle_alpha   86.51793397
_cell_angle_beta   93.48205602
_cell_angle_gamma   117.72224770
_symmetry_Int_Tables_number   1
_chemical_formula_structural   Tc2NiHgO8
_chemical_formula_sum   'Tc2 Ni1 Hg1 O8'
_cell_volume   222.08143152
_cell_formula_units_Z   1
loop_
 _symmetry_equiv_pos_site_id
 _symmetry_equiv_pos_as_xyz
  1  'x, y, z'
loop_
 _atom_site_type_symbol
 _atom_site_label
 _atom_site_symmetry_multiplicity
 _atom_site_fract_x
 _atom_site_fract_y
 _atom_site_fract_z
 _atom_site_occupancy
  Tc  Tc0  1  0.36253139  0.63746861  0.69866842  1
  Tc  Tc1  1  0.63746861  0.36253139  0.30133158  1
  Ni  Ni0  1  0.00000000  0.00000000  0.50000000  1
  Hg  Hg0  1  0.00000000  0.00000000  0.00000000  1
  O  O0  1  0.21048233  0.29091817  0.65944700  1
  O  O1  1  0.78951767  0.70908183  0.34055300  1
  O  O2  1  0.29091817  0.21048233  0.34055300  1
  O  O3  1  0.70908183  0.78951767  0.65944700  1
  O  O4  1  0.33281195  0.66718805  0.89429480  1
  O  O5  1  0.79599276  0.20400724  0.41793186  1
  O  O6  1  0.66718805  0.33281195  0.10570520  1
  O  O7  1  0.20400724  0.79599276  0.58206814  1
loop_
_geom_bond_atom_site_label_1
_geom_bond_atom_site_label_2
_geom_bond_distance
_geom_bond_site_symmetry_2
Ni0 O7 1.987890 1_545
Ni0 O5 1.987890 1_455
Ni0 O3 2.003559 1_445
Ni0 O2 2.003559 1_555
Ni0 O0 2.003559 1_555
Ni0 O1 2.003559 1_445
O0 Tc0 1.726925 1_555
O1 Tc1 1.726925 1_555
O2 Tc1 1.726925 1_555
O3 Tc0 1.726925 1_555
O4 Tc0 1.679415 1_555
O5 Tc1 1.720324 1_555
O6 Tc1 1.679415 1_555
O7 Tc0 1.720324 1_555
