# generated using pymatgen
data_Ba6LuPd4O15
_symmetry_space_group_name_H-M   'P 1'
_cell_length_a   7.45316113
_cell_length_b   7.52166143
_cell_length_c   7.37038564
_cell_angle_alpha   86.72273144
_cell_angle_beta   86.49445267
_cell_angle_gamma   85.53476732
_symmetry_Int_Tables_number   1
_chemical_formula_structural   Ba6LuPd4O15
_chemical_formula_sum   'Ba6 Lu1 Pd4 O15'
_cell_volume   410.58946556
_cell_formula_units_Z   1
loop_
 _symmetry_equiv_pos_site_id
 _symmetry_equiv_pos_as_xyz
  1  'x, y, z'
loop_
 _atom_site_type_symbol
 _atom_site_label
 _atom_site_symmetry_multiplicity
 _atom_site_fract_x
 _atom_site_fract_y
 _atom_site_fract_z
 _atom_site_occupancy
  Ba  Ba0  1  0.32896262  0.67822155  0.00142322  1
  Ba  Ba1  1  0.00662404  0.33047158  0.67371082  1
  Ba  Ba2  1  0.66883841  0.99489725  0.32895673  1
  Ba  Ba3  1  0.13947331  0.86136108  0.49536137  1
  Ba  Ba4  1  0.49974524  0.14894541  0.86539718  1
  Ba  Ba5  1  0.86228650  0.49587102  0.13929204  1
  Lu  Lu0  1  0.50114090  0.49749171  0.50077643  1
  Pd  Pd0  1  0.29623638  0.29952750  0.29259615  1
  Pd  Pd1  1  0.70402606  0.70489238  0.70377760  1
  Pd  Pd2  1  0.09504070  0.09800870  0.09863773  1
  Pd  Pd3  1  0.90095994  0.89807092  0.90446677  1
  O  O0  1  0.14472979  0.99431278  0.84775219  1
  O  O1  1  0.84343854  0.14139879  0.00285878  1
  O  O2  1  0.98976551  0.82384821  0.14996107  1
  O  O3  1  0.03925789  0.21000205  0.34315956  1
  O  O4  1  0.34296832  0.04212882  0.20189719  1
  O  O5  1  0.21404658  0.36244949  0.03153775  1
  O  O6  1  0.79488992  0.96049193  0.65739543  1
  O  O7  1  0.65850597  0.79950076  0.96356309  1
  O  O8  1  0.96222940  0.65915692  0.79427412  1
  O  O9  1  0.37605482  0.24032530  0.54782326  1
  O  O10  1  0.54729360  0.37294504  0.23743903  1
  O  O11  1  0.23980320  0.54705954  0.37798271  1
  O  O12  1  0.76039528  0.62136394  0.45362891  1
  O  O13  1  0.45360271  0.76016529  0.62228245  1
  O  O14  1  0.62968535  0.45709005  0.76404741  1
loop_
_geom_bond_atom_site_label_1
_geom_bond_atom_site_label_2
_geom_bond_distance
_geom_bond_site_symmetry_2
Ba0 O5 2.580177 1_555
Ba0 O7 2.679289 1_554
Ba0 O2 2.856056 1_455
Ba0 O0 2.862672 1_554
Ba0 O13 2.937071 1_554
Ba0 O11 2.946378 1_555
Ba0 O14 3.181776 1_554
Ba0 O4 3.195634 1_565
Ba0 O10 3.202196 1_555
Ba0 O8 3.227853 1_454
Ba1 O3 2.638440 1_555
Ba1 O8 2.664396 1_455
Ba1 O9 2.893235 1_555
Ba1 O0 2.912648 1_545
Ba1 O14 2.944507 1_455
Ba1 O1 2.983455 1_456
Ba1 O11 3.161764 1_555
Ba1 O5 3.167384 1_556
Ba1 O12 3.181101 1_455
Ba1 O6 3.315783 1_445
Ba2 O6 2.641612 1_555
Ba2 O4 2.647233 1_565
Ba2 O1 2.867462 1_565
Ba2 O2 2.906203 1_555
Ba2 O12 2.947333 1_555
Ba2 O10 2.969126 1_565
Ba2 O7 3.148689 1_554
Ba2 O13 3.153578 1_555
Ba2 O9 3.170899 1_565
Ba2 O3 3.316765 1_665
Ba3 O11 2.603057 1_555
Ba3 O13 2.616270 1_555
Ba3 O6 2.829593 1_455
Ba3 O0 2.839510 1_555
Ba3 O3 2.855556 1_565
Ba3 O2 2.878175 1_455
Ba3 O4 2.900179 1_565
Ba3 O8 2.913035 1_455
Ba4 O9 2.604260 1_555
Ba4 O14 2.632682 1_555
Ba4 O4 2.779548 1_556
Ba4 O1 2.807071 1_556
Ba4 O5 2.825963 1_556
Ba4 O7 2.869688 1_545
Ba4 O6 2.923866 1_545
Ba4 O0 2.984883 1_545
Ba5 O12 2.599699 1_555
Ba5 O10 2.635086 1_555
Ba5 O2 2.718631 1_555
Ba5 O5 2.817467 1_655
Ba5 O3 2.837651 1_655
Ba5 O8 2.843137 1_554
Ba5 O1 2.919206 1_555
Ba5 O7 2.926142 1_554
Lu0 O11 2.194518 1_555
Lu0 O10 2.199788 1_555
Lu0 O12 2.209911 1_555
Lu0 O13 2.210338 1_555
Lu0 O14 2.211336 1_555
Lu0 O9 2.212591 1_555
O0 Pd3 2.019169 1_455
O0 Pd2 2.049618 1_566
O1 Pd3 2.012708 1_544
O1 Pd2 2.039997 1_655
O2 Pd3 1.999267 1_554
O2 Pd2 2.266633 1_665
O3 Pd2 2.039084 1_555
O3 Pd0 2.084598 1_555
O4 Pd2 2.045697 1_555
O4 Pd0 2.081116 1_555
O5 Pd0 2.072747 1_555
O5 Pd2 2.257464 1_555
O6 Pd3 2.044994 1_555
O6 Pd1 2.090670 1_555
O7 Pd3 2.019967 1_555
O7 Pd1 2.080000 1_555
O8 Pd3 2.022670 1_555
O8 Pd1 2.072272 1_555
O9 Pd0 2.022535 1_555
O10 Pd0 2.003420 1_555
O11 Pd0 2.004776 1_555
O12 Pd1 1.991746 1_555
O13 Pd1 2.001241 1_555
O14 Pd1 2.003604 1_555
