# generated using pymatgen
data_Sc2H6RuPt
_symmetry_space_group_name_H-M   'P 1'
_cell_length_a   5.72334736
_cell_length_b   5.72334733
_cell_length_c   4.47214614
_cell_angle_alpha   90.00000000
_cell_angle_beta   90.00000000
_cell_angle_gamma   142.61659132
_symmetry_Int_Tables_number   1
_chemical_formula_structural   Sc2H6RuPt
_chemical_formula_sum   'Sc2 H6 Ru1 Pt1'
_cell_volume   88.94246678
_cell_formula_units_Z   1
loop_
 _symmetry_equiv_pos_site_id
 _symmetry_equiv_pos_as_xyz
  1  'x, y, z'
loop_
 _atom_site_type_symbol
 _atom_site_label
 _atom_site_symmetry_multiplicity
 _atom_site_fract_x
 _atom_site_fract_y
 _atom_site_fract_z
 _atom_site_occupancy
  Sc  Sc0  1  0.37293536  0.62706264  0.25000000  1
  Sc  Sc1  1  0.62890573  0.37109227  0.74999900  1
  H  H0  1  0.80827081  0.19172819  0.01343054  1
  H  H1  1  0.58113024  0.41886876  0.25000000  1
  H  H2  1  0.80827081  0.19172819  0.48656846  1
  H  H3  1  0.19047347  0.80952553  0.51898016  1
  H  H4  1  0.41921487  0.58078413  0.74999900  1
  H  H5  1  0.19047347  0.80952553  0.98102084  1
  Ru  Ru0  1  0.91715053  0.08284747  0.74999900  1
  Pt  Pt0  1  0.08316771  0.91683029  0.25000000  1
loop_
_geom_bond_atom_site_label_1
_geom_bond_atom_site_label_2
_geom_bond_distance
_geom_bond_site_symmetry_2
H0 Ru0 1.667845 1_554
H0 Sc0 2.230515 1_655
H0 Sc0 2.230518 1_545
H0 Sc1 2.273839 1_554
H1 Pt0 1.834326 1_655
H1 Pt0 1.834330 1_545
H1 Sc0 2.257443 1_555
H1 Sc1 2.295291 1_555
H1 Sc1 2.295300 1_554
H2 Ru0 1.667842 1_555
H2 Sc0 2.230513 1_655
H2 Sc0 2.230516 1_545
H2 Sc1 2.273836 1_555
H3 Pt0 1.673547 1_555
H3 Sc1 2.208464 1_565
H3 Sc1 2.208467 1_455
H3 Sc0 2.315428 1_555
H4 Ru0 1.834329 1_565
H4 Ru0 1.834333 1_455
H4 Sc1 2.273675 1_555
H4 Sc0 2.291682 1_555
H4 Sc0 2.291691 1_556
H5 Pt0 1.673544 1_556
H5 Sc1 2.208470 1_565
H5 Sc1 2.208473 1_455
H5 Sc0 2.315426 1_556
