# generated using pymatgen
data_Sc(SiNi)2
_symmetry_space_group_name_H-M   'P 1'
_cell_length_a   3.80537633
_cell_length_b   3.80537529
_cell_length_c   5.45498065
_cell_angle_alpha   110.41385164
_cell_angle_beta   110.41383801
_cell_angle_gamma   89.99999860
_symmetry_Int_Tables_number   1
_chemical_formula_structural   Sc(SiNi)2
_chemical_formula_sum   'Sc1 Si2 Ni2'
_cell_volume   68.71383959
_cell_formula_units_Z   1
loop_
 _symmetry_equiv_pos_site_id
 _symmetry_equiv_pos_as_xyz
  1  'x, y, z'
loop_
 _atom_site_type_symbol
 _atom_site_label
 _atom_site_symmetry_multiplicity
 _atom_site_fract_x
 _atom_site_fract_y
 _atom_site_fract_z
 _atom_site_occupancy
  Sc  Sc0  1  -0.00000000  -0.00000000  -0.00000000  1
  Si  Si0  1  0.62206130  0.62206130  0.24412160  1
  Si  Si1  1  0.37793870  0.37793870  0.75587840  1
  Ni  Ni0  1  0.75000000  0.25000000  0.50000000  1
  Ni  Ni1  1  0.25000000  0.75000000  0.50000000  1
loop_
_geom_bond_atom_site_label_1
_geom_bond_atom_site_label_2
_geom_bond_distance
_geom_bond_site_symmetry_2
Sc0 Si1 2.929556 1_554
Sc0 Si0 2.929556 1_445
Sc0 Si0 2.929558 1_455
Sc0 Si1 2.929558 1_544
Sc0 Si1 2.929559 1_454
Sc0 Si0 2.929559 1_545
Sc0 Si0 2.929561 1_555
Sc0 Si1 2.929561 1_444
Si0 Si1 2.316783 1_554
Ni0 Si0 2.257087 1_545
Ni0 Si1 2.257088 1_655
Ni0 Si0 2.257091 1_555
Ni0 Si1 2.257091 1_555
Ni0 Ni1 2.690807 1_645
Ni0 Ni1 2.690807 1_555
Ni0 Ni1 2.690807 1_655
Ni0 Ni1 2.690807 1_545
Ni0 Sc0 3.041267 1_666
Ni0 Sc0 3.041268 1_555
Ni0 Sc0 3.041268 1_655
Ni0 Sc0 3.041269 1_656
Ni1 Si1 2.257087 1_565
Ni1 Si0 2.257088 1_455
Ni1 Si1 2.257091 1_555
Ni1 Si0 2.257091 1_555
Ni1 Sc0 3.041267 1_555
Ni1 Sc0 3.041268 1_666
Ni1 Sc0 3.041268 1_566
Ni1 Sc0 3.041269 1_565
