# generated using pymatgen
data_Cs2RbSbSe3
_symmetry_space_group_name_H-M   'P 1'
_cell_length_a   10.53536912
_cell_length_b   10.53536912
_cell_length_c   10.53536912
_cell_angle_alpha   90.00000000
_cell_angle_beta   90.00000000
_cell_angle_gamma   90.00000000
_symmetry_Int_Tables_number   1
_chemical_formula_structural   Cs2RbSbSe3
_chemical_formula_sum   'Cs8 Rb4 Sb4 Se12'
_cell_volume   1169.36278789
_cell_formula_units_Z   4
loop_
 _symmetry_equiv_pos_site_id
 _symmetry_equiv_pos_as_xyz
  1  'x, y, z'
loop_
 _atom_site_type_symbol
 _atom_site_label
 _atom_site_symmetry_multiplicity
 _atom_site_fract_x
 _atom_site_fract_y
 _atom_site_fract_z
 _atom_site_occupancy
  Cs  Cs0  1  0.30530326  0.30530326  0.30530326  1
  Cs  Cs1  1  0.19469674  0.69469674  0.80530326  1
  Cs  Cs2  1  0.80530326  0.19469674  0.69469674  1
  Cs  Cs3  1  0.69469674  0.80530326  0.19469674  1
  Cs  Cs4  1  0.57185284  0.57185284  0.57185284  1
  Cs  Cs5  1  0.92814716  0.42814716  0.07185284  1
  Cs  Cs6  1  0.07185284  0.92814716  0.42814716  1
  Cs  Cs7  1  0.42814716  0.07185284  0.92814716  1
  Rb  Rb0  1  0.81628119  0.81628119  0.81628119  1
  Rb  Rb1  1  0.68371881  0.18371881  0.31628119  1
  Rb  Rb2  1  0.31628119  0.68371881  0.18371881  1
  Rb  Rb3  1  0.18371881  0.31628119  0.68371881  1
  Sb  Sb0  1  0.02848235  0.02848235  0.02848235  1
  Sb  Sb1  1  0.47151765  0.97151765  0.52848235  1
  Sb  Sb2  1  0.52848235  0.47151765  0.97151765  1
  Sb  Sb3  1  0.97151765  0.52848235  0.47151765  1
  Se  Se0  1  0.20727411  0.59183053  0.48236724  1
  Se  Se1  1  0.48236724  0.20727411  0.59183053  1
  Se  Se2  1  0.59183053  0.48236724  0.20727411  1
  Se  Se3  1  0.90816947  0.51763276  0.70727411  1
  Se  Se4  1  0.98236724  0.29272589  0.40816947  1
  Se  Se5  1  0.40816947  0.98236724  0.29272589  1
  Se  Se6  1  0.01763276  0.79272589  0.09183053  1
  Se  Se7  1  0.51763276  0.70727411  0.90816947  1
  Se  Se8  1  0.09183053  0.01763276  0.79272589  1
  Se  Se9  1  0.70727411  0.90816947  0.51763276  1
  Se  Se10  1  0.79272589  0.09183053  0.01763276  1
  Se  Se11  1  0.29272589  0.40816947  0.98236724  1
loop_
_geom_bond_atom_site_label_1
_geom_bond_atom_site_label_2
_geom_bond_distance
_geom_bond_site_symmetry_2
Cs0 Se5 3.573142 1_545
Cs0 Se4 3.573142 1_455
Cs0 Se11 3.573142 1_554
Cs0 Se2 3.695787 1_555
Cs0 Se1 3.695787 1_555
Cs0 Se0 3.695787 1_555
Cs1 Se7 3.573142 1_555
Cs1 Se0 3.573142 1_555
Cs1 Se8 3.573142 1_565
Cs1 Se6 3.695787 1_556
Cs1 Se11 3.695787 1_555
Cs1 Se3 3.695787 1_455
Cs2 Se3 3.573142 1_555
Cs2 Se1 3.573142 1_555
Cs2 Se10 3.573142 1_556
Cs2 Se8 3.695787 1_655
Cs2 Se4 3.695787 1_555
Cs2 Se9 3.695787 1_545
Cs3 Se9 3.573142 1_555
Cs3 Se2 3.573142 1_555
Cs3 Se6 3.573142 1_655
Cs3 Se10 3.695787 1_565
Cs3 Se5 3.695787 1_555
Cs3 Se7 3.695787 1_554
Cs4 Se9 3.862152 1_555
Cs4 Se3 3.862152 1_555
Cs4 Se7 3.862152 1_555
Cs4 Se0 3.960576 1_555
Cs4 Se1 3.960576 1_555
Cs4 Se2 3.960576 1_555
Cs5 Se2 3.862152 1_555
Cs5 Se4 3.862152 1_555
Cs5 Se10 3.862152 1_555
Cs5 Se11 3.960576 1_654
Cs5 Se6 3.960576 1_655
Cs5 Se3 3.960576 1_554
Cs6 Se0 3.862152 1_555
Cs6 Se5 3.862152 1_555
Cs6 Se6 3.862152 1_555
Cs6 Se4 3.960576 1_465
Cs6 Se8 3.960576 1_565
Cs6 Se9 3.960576 1_455
Cs7 Se1 3.862152 1_555
Cs7 Se8 3.862152 1_555
Cs7 Se11 3.862152 1_555
Cs7 Se5 3.960576 1_546
Cs7 Se10 3.960576 1_556
Cs7 Se7 3.960576 1_545
Rb0 Se7 3.486505 1_555
Rb0 Se9 3.486505 1_555
Rb0 Se3 3.486505 1_555
Rb0 Se6 3.604032 1_656
Rb0 Se8 3.604032 1_665
Rb0 Se10 3.604032 1_566
Rb1 Se2 3.486505 1_555
Rb1 Se4 3.486505 1_555
Rb1 Se10 3.486505 1_555
Rb1 Se5 3.604032 1_545
Rb1 Se9 3.604032 1_545
Rb1 Se1 3.604032 1_555
Rb2 Se0 3.486505 1_555
Rb2 Se5 3.486505 1_555
Rb2 Se6 3.486505 1_555
Rb2 Se11 3.604032 1_554
Rb2 Se7 3.604032 1_554
Rb2 Se2 3.604032 1_555
Rb3 Se1 3.486505 1_555
Rb3 Se11 3.486505 1_555
Rb3 Se8 3.486505 1_555
Rb3 Se4 3.604032 1_455
Rb3 Se3 3.604032 1_455
Rb3 Se0 3.604032 1_555
Sb0 Se6 2.574423 1_545
Sb0 Se8 2.574423 1_554
Sb0 Se10 2.574423 1_455
Sb1 Se5 2.574423 1_555
Sb1 Se9 2.574423 1_555
Sb1 Se1 2.574423 1_565
Sb2 Se11 2.574423 1_555
Sb2 Se7 2.574423 1_555
Sb2 Se2 2.574423 1_556
Sb3 Se4 2.574423 1_555
Sb3 Se3 2.574423 1_555
Sb3 Se0 2.574423 1_655
