# generated using pymatgen
data_Sr3Os4PbO16
_symmetry_space_group_name_H-M   'P 1'
_cell_length_a   4.94747620
_cell_length_b   5.53938465
_cell_length_c   13.48392350
_cell_angle_alpha   71.99097220
_cell_angle_beta   89.82425441
_cell_angle_gamma   90.22348547
_symmetry_Int_Tables_number   1
_chemical_formula_structural   Sr3Os4PbO16
_chemical_formula_sum   'Sr3 Os4 Pb1 O16'
_cell_volume   351.42925725
_cell_formula_units_Z   1
loop_
 _symmetry_equiv_pos_site_id
 _symmetry_equiv_pos_as_xyz
  1  'x, y, z'
loop_
 _atom_site_type_symbol
 _atom_site_label
 _atom_site_symmetry_multiplicity
 _atom_site_fract_x
 _atom_site_fract_y
 _atom_site_fract_z
 _atom_site_occupancy
  Sr  Sr0  1  0.68472957  0.13580106  0.34587051  1
  Sr  Sr1  1  0.18985526  0.86454129  0.15226471  1
  Sr  Sr2  1  0.31314110  0.85661121  0.65474790  1
  Os  Os0  1  0.24933602  0.59235950  0.42171469  1
  Os  Os1  1  0.75509713  0.41010773  0.07877055  1
  Os  Os2  1  0.74691440  0.40443397  0.57663706  1
  Os  Os3  1  0.25269000  0.59059543  0.92341419  1
  Pb  Pb0  1  0.79228254  0.14361380  0.84332093  1
  O  O0  1  0.53352920  0.72657115  0.48303603  1
  O  O1  1  0.04713856  0.27670041  0.02146288  1
  O  O2  1  0.45476482  0.27217831  0.51786860  1
  O  O3  1  0.97220159  0.72943729  0.98357573  1
  O  O4  1  0.94571225  0.37889978  0.44338256  1
  O  O5  1  0.45947036  0.62922254  0.05372166  1
  O  O6  1  0.04146008  0.62660274  0.55435214  1
  O  O7  1  0.55607544  0.37484986  0.94512063  1
  O  O8  1  0.13248689  0.90877592  0.33825616  1
  O  O9  1  0.63403245  0.09397834  0.16208571  1
  O  O10  1  0.86516982  0.09008685  0.65851604  1
  O  O11  1  0.37855848  0.90334369  0.83611237  1
  O  O12  1  0.39466622  0.52762357  0.30946431  1
  O  O13  1  0.89396494  0.47617985  0.19207476  1
  O  O14  1  0.60344715  0.46307008  0.69244824  1
  O  O15  1  0.10327671  0.52441565  0.81177966  1
loop_
_geom_bond_atom_site_label_1
_geom_bond_atom_site_label_2
_geom_bond_distance
_geom_bond_site_symmetry_2
O0 Os0 1.895371 1_555
O0 Os2 2.126494 1_555
O0 Sr0 2.550475 1_565
O0 Sr2 2.844390 1_555
O1 Os1 1.893528 1_455
O1 Os3 2.088541 1_554
O1 Sr1 2.520354 1_545
O2 Os2 1.900420 1_555
O2 Os0 2.111851 1_555
O2 Sr2 2.559093 1_545
O2 Sr0 2.884052 1_555
O3 Os3 1.887464 1_655
O3 Os1 2.122050 1_556
O3 Pb0 2.641219 1_565
O3 Sr1 2.820416 1_656
O4 Os0 1.873465 1_655
O4 Os2 2.088834 1_555
O4 Sr0 2.510194 1_555
O5 Os1 1.868128 1_555
O5 Os3 2.102719 1_554
O5 Sr1 2.513511 1_555
O6 Os2 1.866313 1_455
O6 Os0 2.119518 1_555
O6 Sr2 2.515338 1_555
O7 Os3 1.888731 1_555
O7 Os1 2.117160 1_556
O7 Pb0 2.445327 1_555
O8 Os0 1.861456 1_555
O8 Sr0 2.568976 1_465
O8 Sr1 2.608886 1_555
O8 Sr0 3.018569 1_565
O9 Os1 1.859743 1_555
O9 Sr1 2.558543 1_545
O9 Sr0 2.572182 1_555
O9 Sr1 3.053520 1_645
O10 Os2 1.848378 1_555
O10 Sr2 2.578690 1_645
O10 Pb0 2.622914 1_555
O10 Sr2 3.024622 1_545
O11 Os3 1.871076 1_555
O11 Pb0 2.455726 1_565
O11 Sr2 2.558887 1_555
O12 Os0 1.807604 1_555
O12 Sr0 2.526088 1_555
O12 Sr1 2.566071 1_555
O13 Os1 1.813931 1_555
O13 Sr1 2.513118 1_655
O13 Sr0 2.545796 1_555
O14 Os2 1.832077 1_555
O14 Pb0 2.437512 1_555
O14 Sr2 2.533238 1_555
O15 Os3 1.814553 1_555
O15 Pb0 2.532553 1_455
O15 Sr2 2.551472 1_555
