# generated using pymatgen
data_Mg11Al5(CuPd3)2
_symmetry_space_group_name_H-M   'P 1'
_cell_length_a   8.31626011
_cell_length_b   8.30576608
_cell_length_c   8.31626334
_cell_angle_alpha   60.04091248
_cell_angle_beta   59.76697635
_cell_angle_gamma   60.04096517
_symmetry_Int_Tables_number   1
_chemical_formula_structural   Mg11Al5(CuPd3)2
_chemical_formula_sum   'Mg11 Al5 Cu2 Pd6'
_cell_volume   405.71199577
_cell_formula_units_Z   1
loop_
 _symmetry_equiv_pos_site_id
 _symmetry_equiv_pos_as_xyz
  1  'x, y, z'
loop_
 _atom_site_type_symbol
 _atom_site_label
 _atom_site_symmetry_multiplicity
 _atom_site_fract_x
 _atom_site_fract_y
 _atom_site_fract_z
 _atom_site_occupancy
  Mg  Mg0  1  0.19078670  0.19502313  0.80817487  1
  Mg  Mg1  1  0.19076100  0.80600920  0.80815268  1
  Mg  Mg2  1  0.05451557  0.44552879  0.05451557  1
  Mg  Mg3  1  0.80817487  0.19502313  0.19078770  1
  Mg  Mg4  1  0.05586036  0.44757455  0.44130656  1
  Mg  Mg5  1  0.44422391  0.05577887  0.44422291  1
  Mg  Mg6  1  0.44130656  0.44757455  0.05586036  1
  Mg  Mg7  1  0.80815268  0.80600920  0.19076100  1
  Mg  Mg8  1  0.44132072  0.05525090  0.05586504  1
  Mg  Mg9  1  0.80349075  0.19651780  0.80348975  1
  Mg  Mg10  1  0.05586604  0.05525090  0.44132072  1
  Al  Al0  1  0.20382710  0.79617470  0.20382810  1
  Al  Al1  1  0.62408579  0.62872739  0.62408579  1
  Al  Al2  1  0.12924028  0.62256568  0.62561459  1
  Al  Al3  1  0.62561459  0.62256568  0.12924028  1
  Al  Al4  1  0.62408548  0.12310876  0.62408548  1
  Cu  Cu0  1  0.83287240  0.50529697  0.83287240  1
  Cu  Cu1  1  0.83287916  0.82895383  0.83287916  1
  Pd  Pd0  1  0.48247901  0.83394617  0.84963863  1
  Pd  Pd1  1  0.41103224  0.76610184  0.41103224  1
  Pd  Pd2  1  0.84963763  0.83394617  0.48248001  1
  Pd  Pd3  1  0.76595098  0.41062094  0.41280801  1
  Pd  Pd4  1  0.41102919  0.41182991  0.41102919  1
  Pd  Pd5  1  0.41280801  0.41061994  0.76595098  1
loop_
_geom_bond_atom_site_label_1
_geom_bond_atom_site_label_2
_geom_bond_distance
_geom_bond_site_symmetry_2
Mg0 Pd0 2.746088 1_545
Mg0 Pd5 2.959787 1_555
Mg0 Pd4 2.961059 1_555
Mg0 Mg2 3.061777 1_556
Mg0 Mg8 3.074006 1_556
Mg0 Mg5 3.094876 1_555
Mg0 Mg4 3.110048 1_555
Mg0 Mg3 3.170691 1_456
Mg0 Mg1 3.231258 1_545
Mg0 Mg9 3.234429 1_455
Mg1 Pd0 2.746530 1_555
Mg1 Pd5 2.959658 1_555
Mg1 Pd1 2.960904 1_555
Mg1 Mg2 3.060991 1_556
Mg1 Mg6 3.074062 1_556
Mg1 Mg5 3.094964 1_565
Mg1 Mg10 3.109661 1_565
Mg1 Mg7 3.170657 1_456
Mg1 Mg9 3.234374 1_465
Mg2 Pd3 2.711567 1_455
Mg2 Pd5 2.711567 1_554
Mg2 Mg7 3.060994 1_455
Mg2 Mg3 3.061772 1_455
Mg2 Mg6 3.230834 1_555
Mg2 Mg4 3.230835 1_555
Mg2 Mg8 3.231258 1_555
Mg3 Pd2 2.746087 1_545
Mg3 Pd3 2.959789 1_555
Mg3 Pd4 2.961058 1_555
Mg3 Mg5 3.094867 1_555
Mg3 Mg6 3.110052 1_555
Mg3 Mg7 3.231262 1_545
Mg3 Mg9 3.234442 1_554
Mg4 Pd4 2.706591 1_555
Mg4 Pd3 2.711136 1_455
Mg4 Pd2 2.892433 1_455
Mg4 Mg7 3.074062 1_455
Mg4 Mg9 3.091477 1_455
Mg4 Mg6 3.194175 1_555
Mg4 Mg5 3.244123 1_555
Mg5 Pd4 2.709969 1_555
Mg5 Pd1 2.710071 1_545
Mg5 Pd2 3.025494 1_545
Mg5 Pd0 3.025502 1_545
Mg5 Mg7 3.094960 1_545
Mg5 Mg8 3.244110 1_555
Mg5 Mg6 3.244117 1_555
Mg6 Pd4 2.706592 1_555
Mg6 Pd5 2.711142 1_554
Mg6 Pd0 2.892428 1_554
Mg6 Mg9 3.091487 1_554
Mg6 Mg8 3.258470 1_555
Mg7 Pd2 2.746534 1_555
Mg7 Pd3 2.959649 1_555
Mg7 Pd1 2.960903 1_555
Mg7 Mg8 3.109665 1_565
Mg7 Mg9 3.234376 1_564
Mg8 Pd1 2.706563 1_545
Mg8 Pd5 2.711149 1_554
Mg8 Pd0 2.892423 1_544
Mg8 Mg9 3.091503 1_554
Mg9 Pd3 2.917583 1_555
Mg9 Pd5 2.917587 1_555
Mg10 Pd1 2.706560 1_545
Mg10 Pd3 2.711159 1_455
Mg10 Pd2 2.892431 1_445
Mg10 Mg3 3.074006 1_455
Mg10 Mg9 3.091499 1_455
Mg10 Mg8 3.194249 1_555
Mg10 Mg2 3.231256 1_555
Mg10 Mg5 3.244105 1_555
Mg10 Mg4 3.258466 1_555
Al0 Pd0 2.659697 1_554
Al0 Pd2 2.659698 1_455
Al0 Pd4 2.851545 1_555
Al0 Pd1 2.851570 1_555
Al0 Al2 2.901453 1_555
Al0 Al3 2.901460 1_555
Al0 Mg4 3.032798 1_555
Al0 Mg6 3.032805 1_555
Al0 Mg8 3.032838 1_565
Al0 Mg10 3.032839 1_565
Al0 Mg3 3.305504 1_465
Al0 Mg0 3.305507 1_564
Al0 Mg7 3.305883 1_455
Al0 Mg1 3.305888 1_554
Al1 Cu0 2.561441 1_555
Al1 Pd1 2.589137 1_555
Al1 Pd3 2.591849 1_555
Al1 Pd5 2.591854 1_555
Al1 Pd2 2.602795 1_555
Al1 Pd0 2.602802 1_555
Al1 Mg5 2.951450 1_565
Al1 Mg6 2.976511 1_556
Al1 Mg4 2.976512 1_655
Al1 Mg9 2.980252 1_555
Al1 Mg7 2.982282 1_555
Al1 Mg1 2.982283 1_555
Al2 Cu0 2.537126 1_455
Al2 Cu1 2.537173 1_455
Al2 Pd2 2.555156 1_455
Al2 Pd4 2.559592 1_555
Al2 Pd1 2.559636 1_555
Al2 Pd5 2.568194 1_555
Al2 Mg1 2.959464 1_555
Al2 Mg0 2.959671 1_555
Al2 Mg4 2.981108 1_555
Al2 Mg10 2.981112 1_565
Al3 Cu0 2.537128 1_554
Al3 Cu1 2.537171 1_554
Al3 Pd0 2.555154 1_554
Al3 Pd4 2.559589 1_555
Al3 Pd1 2.559638 1_555
Al3 Pd3 2.568194 1_555
Al3 Mg7 2.959463 1_555
Al3 Mg3 2.959671 1_555
Al3 Mg6 2.981108 1_555
Al3 Mg8 2.981111 1_565
Al4 Cu1 2.561510 1_545
Al4 Pd4 2.589118 1_555
Al4 Pd5 2.591787 1_555
Al4 Pd3 2.591791 1_555
Al4 Pd2 2.602768 1_545
Al4 Pd0 2.602771 1_545
Al4 Mg5 2.951515 1_555
Al4 Mg8 2.976535 1_556
Al4 Mg10 2.976542 1_655
Al4 Mg9 2.980356 1_555
Al4 Mg3 2.982176 1_555
Al4 Mg0 2.982182 1_555
Cu0 Cu1 2.688274 1_555
Cu0 Mg0 2.791933 1_655
Cu0 Mg3 2.791936 1_556
Cu0 Pd2 2.826374 1_555
Cu0 Pd0 2.826380 1_555
Cu0 Mg9 2.829973 1_555
Cu0 Mg2 2.938569 1_656
Cu0 Mg6 2.977041 1_556
Cu0 Mg4 2.977043 1_655
Cu1 Mg1 2.791583 1_655
Cu1 Mg7 2.791584 1_556
Cu1 Pd2 2.826432 1_555
Cu1 Pd0 2.826436 1_555
Cu1 Mg9 2.830084 1_565
Cu1 Mg2 2.938129 1_656
Cu1 Mg8 2.976984 1_566
Cu1 Mg10 2.976984 1_665
