# generated using pymatgen
data_RbBaFeO3
_symmetry_space_group_name_H-M   'P 1'
_cell_length_a   6.56024384
_cell_length_b   6.56024386
_cell_length_c   12.95704902
_cell_angle_alpha   90.00000000
_cell_angle_beta   90.00000000
_cell_angle_gamma   126.66889704
_symmetry_Int_Tables_number   1
_chemical_formula_structural   RbBaFeO3
_chemical_formula_sum   'Rb4 Ba4 Fe4 O12'
_cell_volume   447.27492807
_cell_formula_units_Z   4
loop_
 _symmetry_equiv_pos_site_id
 _symmetry_equiv_pos_as_xyz
  1  'x, y, z'
loop_
 _atom_site_type_symbol
 _atom_site_label
 _atom_site_symmetry_multiplicity
 _atom_site_fract_x
 _atom_site_fract_y
 _atom_site_fract_z
 _atom_site_occupancy
  Rb  Rb0  1  0.45528561  0.54471439  0.64526193  1
  Rb  Rb1  1  0.54471439  0.45528561  0.35473807  1
  Rb  Rb2  1  0.04471439  0.95528561  0.14526193  1
  Rb  Rb3  1  0.95528561  0.04471439  0.85473807  1
  Ba  Ba0  1  0.64505153  0.35494847  0.91838988  1
  Ba  Ba1  1  0.85494847  0.14505153  0.41838988  1
  Ba  Ba2  1  0.14505153  0.85494847  0.58161012  1
  Ba  Ba3  1  0.35494847  0.64505153  0.08161012  1
  Fe  Fe0  1  0.22924121  0.77075879  0.33625391  1
  Fe  Fe1  1  0.72924121  0.27075879  0.16374609  1
  Fe  Fe2  1  0.77075879  0.22924121  0.66374609  1
  Fe  Fe3  1  0.27075879  0.72924121  0.83625391  1
  O  O0  1  0.97803301  0.52196699  0.75000000  1
  O  O1  1  0.52196699  0.97803301  0.25000000  1
  O  O2  1  0.02196699  0.47803301  0.25000000  1
  O  O3  1  0.47803301  0.02196699  0.75000000  1
  O  O4  1  0.42224904  0.57775096  0.87768738  1
  O  O5  1  0.57775096  0.42224904  0.12231262  1
  O  O6  1  0.07775096  0.92224904  0.37768738  1
  O  O7  1  0.67557387  0.32442613  0.54942589  1
  O  O8  1  0.17557387  0.82442613  0.95057411  1
  O  O9  1  0.82442613  0.17557387  0.04942589  1
  O  O10  1  0.32442613  0.67557387  0.45057411  1
  O  O11  1  0.92224904  0.07775096  0.62231262  1
loop_
_geom_bond_atom_site_label_1
_geom_bond_atom_site_label_2
_geom_bond_distance
_geom_bond_site_symmetry_2
Ba0 O4 2.665064 1_555
Ba0 O9 2.702958 1_556
Ba0 O5 2.757552 1_556
Ba0 O0 2.806067 1_555
Ba0 O3 2.806067 1_555
Ba0 O8 2.994963 1_655
Ba0 O8 2.994963 1_545
Ba1 O6 2.665064 1_645
Ba1 O7 2.702958 1_555
Ba1 O11 2.757552 1_555
Ba1 O1 2.806067 1_545
Ba1 O2 2.806067 1_655
Ba1 O10 2.994963 1_545
Ba1 O10 2.994963 1_655
Ba2 O11 2.665064 1_465
Ba2 O10 2.702958 1_555
Ba2 O6 2.757552 1_555
Ba2 O3 2.806067 1_565
Ba2 O0 2.806067 1_455
Ba2 O7 2.994963 1_565
Ba2 O7 2.994963 1_455
Ba3 O5 2.665064 1_555
Ba3 O8 2.702958 1_554
Ba3 O4 2.757552 1_554
Ba3 O2 2.806067 1_555
Ba3 O1 2.806067 1_555
Ba3 O9 2.994963 1_455
Ba3 O9 2.994963 1_565
Fe0 O10 1.854633 1_555
Fe0 O6 1.855583 1_555
Fe0 O1 1.914926 1_555
Fe0 O2 1.914926 1_555
Fe1 O9 1.854633 1_555
Fe1 O5 1.855583 1_555
Fe1 O2 1.914926 1_655
Fe1 O1 1.914926 1_545
Fe2 O7 1.854633 1_555
Fe2 O11 1.855583 1_555
Fe2 O3 1.914926 1_555
Fe2 O0 1.914926 1_555
Fe3 O8 1.854633 1_555
Fe3 O4 1.855583 1_555
Fe3 O0 1.914926 1_455
Fe3 O3 1.914926 1_565
O4 Rb3 2.984341 1_565
O4 Rb3 2.984341 1_455
O4 Rb0 3.036357 1_555
O5 Rb2 2.984341 1_545
O5 Rb2 2.984341 1_655
O5 Rb1 3.036357 1_555
O6 Rb1 2.984341 1_455
O6 Rb1 2.984341 1_565
O6 Rb2 3.036357 1_555
O7 Rb0 2.865873 1_555
O7 Rb1 2.952554 1_555
O8 Rb3 2.865873 1_465
O8 Rb2 2.952554 1_556
O9 Rb2 2.865873 1_645
O9 Rb3 2.952554 1_554
O10 Rb1 2.865873 1_555
O10 Rb0 2.952554 1_555
O11 Rb0 2.984341 1_655
O11 Rb0 2.984341 1_545
O11 Rb3 3.036357 1_555
