# generated using pymatgen
data_Ca3Ge2(AsPd5)4
_symmetry_space_group_name_H-M   'P 1'
_cell_length_a   8.79799498
_cell_length_b   8.79799467
_cell_length_c   8.83609933
_cell_angle_alpha   59.85662592
_cell_angle_beta   59.85662707
_cell_angle_gamma   60.28674529
_symmetry_Int_Tables_number   1
_chemical_formula_structural   Ca3Ge2(AsPd5)4
_chemical_formula_sum   'Ca3 Ge2 As4 Pd20'
_cell_volume   483.61150697
_cell_formula_units_Z   1
loop_
 _symmetry_equiv_pos_site_id
 _symmetry_equiv_pos_as_xyz
  1  'x, y, z'
loop_
 _atom_site_type_symbol
 _atom_site_label
 _atom_site_symmetry_multiplicity
 _atom_site_fract_x
 _atom_site_fract_y
 _atom_site_fract_z
 _atom_site_occupancy
  Ca  Ca0  1  0.25000000  0.25000000  0.25000000  1
  Ca  Ca1  1  0.75000000  0.75000000  0.75000000  1
  Ca  Ca2  1  0.00000000  0.00000000  0.00000000  1
  Ge  Ge0  1  0.26607612  0.26607612  0.73392388  1
  Ge  Ge1  1  0.73392388  0.73392388  0.26607612  1
  As  As0  1  0.73610614  0.26389386  0.26389386  1
  As  As1  1  0.26389386  0.73610614  0.73610614  1
  As  As2  1  0.26389386  0.73610614  0.26389386  1
  As  As3  1  0.73610614  0.26389386  0.73610614  1
  Pd  Pd0  1  0.38418134  0.38418134  0.38389891  1
  Pd  Pd1  1  0.61581866  0.61581866  0.61610109  1
  Pd  Pd2  1  0.38418134  0.38418134  0.84773841  1
  Pd  Pd3  1  0.38389891  0.84773841  0.38418134  1
  Pd  Pd4  1  0.61581866  0.61581866  0.15226159  1
  Pd  Pd5  1  0.61610109  0.15226159  0.61581866  1
  Pd  Pd6  1  0.84773841  0.38389891  0.38418134  1
  Pd  Pd7  1  0.15226159  0.61610109  0.61581866  1
  Pd  Pd8  1  0.34914459  0.00147029  0.99852971  1
  Pd  Pd9  1  0.65085541  0.99852971  0.00147029  1
  Pd  Pd10  1  0.00147029  0.34914459  0.65085541  1
  Pd  Pd11  1  0.99852971  0.65085541  0.34914459  1
  Pd  Pd12  1  0.00147029  0.34914459  0.99852971  1
  Pd  Pd13  1  0.65085541  0.99852971  0.34914459  1
  Pd  Pd14  1  0.99852971  0.65085541  0.00147029  1
  Pd  Pd15  1  0.34914459  0.00147029  0.65085541  1
  Pd  Pd16  1  0.00000000  0.00000000  0.34838455  1
  Pd  Pd17  1  0.00000000  0.00000000  0.65161545  1
  Pd  Pd18  1  0.65161545  0.34838455  1.00000000  1
  Pd  Pd19  1  0.34838455  0.65161545  0.00000000  1
loop_
_geom_bond_atom_site_label_1
_geom_bond_atom_site_label_2
_geom_bond_distance
_geom_bond_site_symmetry_2
Ca0 Pd3 2.893826 1_545
Ca0 Pd2 2.893826 1_554
Ca0 Pd0 2.893826 1_555
Ca0 Pd6 2.893826 1_455
Ca0 Pd19 3.374369 1_555
Ca0 Pd17 3.374369 1_555
Ca0 Pd16 3.374369 1_555
Ca0 Pd18 3.374369 1_554
Ca0 Pd11 3.394344 1_455
Ca0 Pd14 3.394344 1_455
Ca0 Pd15 3.394344 1_555
Ca0 Pd8 3.394344 1_554
Ca0 Pd13 3.394344 1_545
Ca0 Pd9 3.394344 1_545
Ca0 Pd10 3.394344 1_555
Ca0 Pd12 3.394344 1_554
Ca1 Pd5 2.893826 1_565
Ca1 Pd4 2.893826 1_556
Ca1 Pd1 2.893826 1_555
Ca1 Pd7 2.893826 1_655
Ca1 Pd18 3.374369 1_555
Ca1 Pd17 3.374369 1_665
Ca1 Pd16 3.374369 1_665
Ca1 Pd19 3.374369 1_556
Ca1 Pd12 3.394344 1_655
Ca1 Pd10 3.394344 1_655
Ca1 Pd9 3.394344 1_556
Ca1 Pd13 3.394344 1_555
Ca1 Pd8 3.394344 1_565
Ca1 Pd15 3.394344 1_565
Ca1 Pd14 3.394344 1_556
Ca1 Pd11 3.394344 1_555
Ca2 Pd12 3.071687 1_554
Ca2 Pd10 3.071687 1_554
Ca2 Pd11 3.071687 1_445
Ca2 Pd14 3.071687 1_445
Ca2 Pd8 3.071687 1_554
Ca2 Pd13 3.071687 1_445
Ca2 Pd15 3.071687 1_554
Ca2 Pd9 3.071687 1_445
Ca2 Pd19 3.078360 1_545
Ca2 Pd18 3.078360 1_454
Ca2 Pd16 3.078360 1_555
Ca2 Pd17 3.078360 1_554
Ca2 Ge0 3.296183 1_554
Ca2 Ge1 3.296183 1_445
Ge0 Pd15 2.446068 1_555
Ge0 Pd8 2.446068 1_555
Ge0 Pd10 2.446068 1_555
Ge0 Pd12 2.446068 1_555
Ge0 Pd7 2.517967 1_555
Ge0 Pd0 2.517967 1_555
Ge0 Pd2 2.517967 1_555
Ge0 Pd5 2.517967 1_555
Ge1 Pd13 2.446068 1_555
Ge1 Pd9 2.446068 1_555
Ge1 Pd11 2.446068 1_555
Ge1 Pd14 2.446068 1_555
Ge1 Pd6 2.517967 1_555
Ge1 Pd1 2.517967 1_555
Ge1 Pd4 2.517967 1_555
Ge1 Pd3 2.517967 1_555
As0 Pd13 2.445986 1_545
As0 Pd12 2.445986 1_654
As0 Pd16 2.448391 1_655
As0 Pd18 2.448391 1_554
As0 Pd4 2.532275 1_555
As0 Pd6 2.532276 1_555
As0 Pd5 2.532276 1_555
As0 Pd0 2.532276 1_555
As0 Ca2 3.297652 1_655
As1 Pd15 2.445986 1_565
As1 Pd14 2.445986 1_456
As1 Pd17 2.448391 1_565
As1 Pd19 2.448391 1_556
As1 Pd2 2.532275 1_555
As1 Pd7 2.532276 1_555
As1 Pd3 2.532276 1_555
As1 Pd1 2.532276 1_555
As1 Ca2 3.297652 1_566
As2 Pd8 2.445986 1_564
As2 Pd11 2.445986 1_455
As2 Pd16 2.448391 1_565
As2 Pd19 2.448391 1_555
As2 Pd0 2.532275 1_555
As2 Pd7 2.532276 1_555
As2 Pd3 2.532276 1_555
As2 Pd4 2.532276 1_555
As2 Ca2 3.297652 1_565
As3 Pd9 2.445986 1_546
As3 Pd10 2.445986 1_655
As3 Pd17 2.448391 1_655
As3 Pd18 2.448391 1_555
As3 Pd1 2.532275 1_555
As3 Pd6 2.532276 1_555
As3 Pd5 2.532276 1_555
As3 Pd2 2.532276 1_555
As3 Ca2 3.297652 1_656
Pd8 Pd9 2.654801 1_546
Pd10 Pd11 2.654801 1_455
Pd12 Pd14 2.654801 1_456
Pd13 Pd15 2.654801 1_565
Pd16 Pd17 2.679378 1_555
Pd18 Pd19 2.679378 1_556
