# generated using pymatgen
data_Sc10Ge3Se7
_symmetry_space_group_name_H-M   'P 1'
_cell_length_a   10.26593003
_cell_length_b   10.26592916
_cell_length_c   6.75185175
_cell_angle_alpha   83.60115074
_cell_angle_beta   83.60115861
_cell_angle_gamma   141.75977005
_symmetry_Int_Tables_number   1
_chemical_formula_structural   Sc10Ge3Se7
_chemical_formula_sum   'Sc10 Ge3 Se7'
_cell_volume   414.15661086
_cell_formula_units_Z   1
loop_
 _symmetry_equiv_pos_site_id
 _symmetry_equiv_pos_as_xyz
  1  'x, y, z'
loop_
 _atom_site_type_symbol
 _atom_site_label
 _atom_site_symmetry_multiplicity
 _atom_site_fract_x
 _atom_site_fract_y
 _atom_site_fract_z
 _atom_site_occupancy
  Sc  Sc0  1  0.25837384  0.25837384  0.76226103  1
  Sc  Sc1  1  0.84985392  0.65067354  0.75077732  1
  Sc  Sc2  1  0.74162616  0.74162616  0.23773897  1
  Sc  Sc3  1  0.45309884  0.04672680  0.73490769  1
  Sc  Sc4  1  0.34932646  0.15014608  0.24922268  1
  Sc  Sc5  1  0.04672680  0.45309884  0.73490769  1
  Sc  Sc6  1  0.95327320  0.54690116  0.26509231  1
  Sc  Sc7  1  0.65067354  0.84985392  0.75077732  1
  Sc  Sc8  1  0.54690116  0.95327320  0.26509231  1
  Sc  Sc9  1  0.15014608  0.34932646  0.24922268  1
  Ge  Ge0  1  0.50000000  0.50000000  0.00000000  1
  Ge  Ge1  1  0.19802721  0.80197279  0.50000000  1
  Ge  Ge2  1  0.80197279  0.19802721  0.50000000  1
  Se  Se0  1  0.89892775  0.10107225  0.00000000  1
  Se  Se1  1  0.40097626  0.59902374  0.50000000  1
  Se  Se2  1  0.00000000  0.00000000  0.50000000  1
  Se  Se3  1  0.59902374  0.40097626  0.50000000  1
  Se  Se4  1  0.10107225  0.89892775  1.00000000  1
  Se  Se5  1  0.70018238  0.29981762  0.00000000  1
  Se  Se6  1  0.29981762  0.70018238  0.00000000  1
loop_
_geom_bond_atom_site_label_1
_geom_bond_atom_site_label_2
_geom_bond_distance
_geom_bond_site_symmetry_2
Sc0 Se1 2.740108 1_555
Sc0 Se3 2.740108 1_555
Sc0 Se4 2.746323 1_545
Sc0 Se0 2.746324 1_456
Sc0 Se2 2.872051 1_555
Sc1 Se2 2.735887 1_665
Sc1 Se5 2.746814 1_556
Sc1 Se4 2.752521 1_655
Sc1 Se3 2.763895 1_555
Sc2 Se3 2.740108 1_555
Sc2 Se1 2.740108 1_555
Sc2 Se0 2.746323 1_565
Sc2 Se4 2.746324 1_654
Sc2 Se2 2.872051 1_665
Sc3 Se6 2.737760 1_546
Sc3 Se3 2.759009 1_555
Sc3 Se4 2.811648 1_545
Sc3 Se5 2.843290 1_556
Sc4 Se2 2.735887 1_555
Sc4 Se5 2.746815 1_555
Sc4 Se4 2.752521 1_544
Sc4 Se3 2.763895 1_555
Sc5 Se5 2.737760 1_456
Sc5 Se1 2.759010 1_555
Sc5 Se0 2.811647 1_456
Sc5 Se6 2.843290 1_556
Sc6 Se6 2.737760 1_655
Sc6 Se3 2.759010 1_555
Sc6 Se4 2.811647 1_654
Sc6 Se5 2.843290 1_555
Sc7 Se2 2.735887 1_665
Sc7 Se6 2.746815 1_556
Sc7 Se0 2.752521 1_566
Sc7 Se1 2.763895 1_555
Sc8 Se5 2.737760 1_565
Sc8 Se1 2.759009 1_555
Sc8 Se0 2.811648 1_565
Sc8 Se6 2.843290 1_555
Sc9 Se2 2.735887 1_555
Sc9 Se6 2.746814 1_555
Sc9 Se0 2.752521 1_455
Sc9 Se1 2.763895 1_555
Ge0 Sc2 2.644274 1_555
Ge0 Sc0 2.644274 1_554
Ge0 Sc4 2.733039 1_555
Ge0 Sc7 2.733039 1_554
Ge0 Sc1 2.733040 1_554
Ge0 Sc9 2.733040 1_555
Ge1 Sc6 2.676646 1_455
Ge1 Sc3 2.676646 1_565
Ge1 Sc5 2.683575 1_555
Ge1 Sc8 2.683575 1_555
Ge1 Sc4 2.720136 1_565
Ge1 Sc1 2.720136 1_455
Ge2 Sc5 2.676646 1_655
Ge2 Sc8 2.676646 1_545
Ge2 Sc6 2.683575 1_555
Ge2 Sc3 2.683575 1_555
Ge2 Sc7 2.720136 1_545
Ge2 Sc9 2.720136 1_655
