# generated using pymatgen
data_Ti5Al16GaPt7
_symmetry_space_group_name_H-M   'P 1'
_cell_length_a   8.55141738
_cell_length_b   8.62110086
_cell_length_c   8.62110127
_cell_angle_alpha   59.46595606
_cell_angle_beta   60.26702052
_cell_angle_gamma   60.26702441
_symmetry_Int_Tables_number   1
_chemical_formula_structural   Ti5Al16GaPt7
_chemical_formula_sum   'Ti5 Al16 Ga1 Pt7'
_cell_volume   449.35780019
_cell_formula_units_Z   1
loop_
 _symmetry_equiv_pos_site_id
 _symmetry_equiv_pos_as_xyz
  1  'x, y, z'
loop_
 _atom_site_type_symbol
 _atom_site_label
 _atom_site_symmetry_multiplicity
 _atom_site_fract_x
 _atom_site_fract_y
 _atom_site_fract_z
 _atom_site_occupancy
  Ti  Ti0  1  0.81160412  0.18839588  0.18839588  1
  Ti  Ti1  1  0.79045260  0.20954740  0.78994811  1
  Ti  Ti2  1  0.79045260  0.78994811  0.20954740  1
  Ti  Ti3  1  0.21005189  0.78994811  0.20954740  1
  Ti  Ti4  1  0.21005189  0.20954740  0.78994811  1
  Al  Al0  1  0.88032258  0.84332931  0.84332931  1
  Al  Al1  1  0.85291874  0.83270885  0.46145367  1
  Al  Al2  1  0.43301879  0.84332931  0.84332931  1
  Al  Al3  1  0.85291874  0.46145367  0.83270885  1
  Al  Al4  1  0.16729115  0.14708126  0.14708126  1
  Al  Al5  1  0.15667069  0.11967742  0.56698121  1
  Al  Al6  1  0.15667069  0.56698121  0.11967742  1
  Al  Al7  1  0.53854633  0.14708126  0.14708126  1
  Al  Al8  1  0.62228832  0.61673289  0.61673289  1
  Al  Al9  1  0.63037875  0.61787753  0.12136698  1
  Al  Al10  1  0.14424589  0.61673289  0.61673289  1
  Al  Al11  1  0.63037875  0.12136698  0.61787753  1
  Al  Al12  1  0.38212247  0.36962125  0.36962125  1
  Al  Al13  1  0.38326711  0.37771168  0.85575411  1
  Al  Al14  1  0.38326711  0.85575411  0.37771168  1
  Al  Al15  1  0.87863302  0.36962125  0.36962125  1
  Ga  Ga0  1  0.03384504  0.96615496  0.96615496  1
  Pt  Pt0  1  0.01089802  0.48910198  0.48910198  1
  Pt  Pt1  1  0.51089802  0.98910198  0.98910198  1
  Pt  Pt2  1  0.50888427  0.99553075  0.49111573  1
  Pt  Pt3  1  0.50888427  0.49111573  0.99553075  1
  Pt  Pt4  1  0.00446925  0.49111573  0.99553075  1
  Pt  Pt5  1  0.00446925  0.99553075  0.49111573  1
  Pt  Pt6  1  0.51210268  0.48789732  0.48789732  1
loop_
_geom_bond_atom_site_label_1
_geom_bond_atom_site_label_2
_geom_bond_distance
_geom_bond_site_symmetry_2
Al0 Pt5 2.490922 1_655
Al0 Pt4 2.490922 1_655
Al0 Pt1 2.620565 1_555
Al0 Ga0 2.804135 1_655
Al1 Pt5 2.492637 1_655
Al1 Pt2 2.492637 1_555
Al1 Pt0 2.507857 1_655
Al1 Ti0 2.735859 1_565
Al2 Pt3 2.490922 1_555
Al2 Pt2 2.490922 1_555
Al2 Pt1 2.620565 1_555
Al2 Ga0 2.804135 1_555
Al3 Pt3 2.492637 1_555
Al3 Pt4 2.492637 1_655
Al3 Pt0 2.507857 1_655
Al3 Ti0 2.735859 1_556
Al4 Pt5 2.492637 1_545
Al4 Pt4 2.492637 1_554
Al4 Pt1 2.507857 1_544
Al4 Ti0 2.735859 1_455
Al5 Pt5 2.490922 1_545
Al5 Pt2 2.490922 1_545
Al5 Pt0 2.620566 1_555
Al5 Ga0 2.804135 1_545
Al6 Pt3 2.490922 1_554
Al6 Pt4 2.490922 1_554
Al6 Pt0 2.620566 1_555
Al6 Ga0 2.804135 1_554
Al7 Pt3 2.492637 1_554
Al7 Pt2 2.492637 1_545
Al7 Pt1 2.507857 1_544
Al7 Ti0 2.735859 1_555
Al8 Pt6 2.585511 1_555
Al8 Pt2 2.661699 1_555
Al8 Pt3 2.661699 1_555
Al8 Pt0 2.727828 1_655
Al9 Pt6 2.572887 1_555
Al9 Pt1 2.605877 1_554
Al9 Pt4 2.626661 1_654
Al9 Pt3 2.626675 1_554
Al9 Ti0 3.076924 1_555
Al10 Pt6 2.585511 1_555
Al10 Pt5 2.661699 1_555
Al10 Pt4 2.661699 1_555
Al10 Pt0 2.727828 1_555
Al11 Pt6 2.572887 1_555
Al11 Pt1 2.605877 1_545
Al11 Pt5 2.626661 1_645
Al11 Pt2 2.626675 1_545
Al11 Ti0 3.076924 1_555
Al12 Pt6 2.572901 1_555
Al12 Pt0 2.605877 1_555
Al12 Pt2 2.626661 1_545
Al12 Pt3 2.626661 1_554
Al12 Ti0 3.076921 1_555
Al13 Pt6 2.585511 1_555
Al13 Pt4 2.661699 1_555
Al13 Pt3 2.661699 1_555
Al13 Pt1 2.727828 1_545
Al14 Pt6 2.585511 1_555
Al14 Pt2 2.661699 1_555
Al14 Pt5 2.661699 1_555
Al14 Pt1 2.727828 1_554
Al15 Pt6 2.572887 1_555
Al15 Pt0 2.605891 1_655
Al15 Pt5 2.626661 1_645
Al15 Pt4 2.626661 1_654
Al15 Ti0 3.076909 1_555
Ga0 Ti4 2.570588 1_565
Ga0 Ti2 2.570588 1_456
Ga0 Ti1 2.570588 1_465
Ga0 Ti3 2.570588 1_556
Ga0 Ti0 2.731304 1_466
Pt0 Ti3 3.065015 1_555
Pt0 Ti1 3.065015 1_455
Pt0 Ti2 3.065015 1_455
Pt0 Ti4 3.065015 1_555
Pt1 Ti1 3.065015 1_565
Pt1 Ti3 3.065015 1_556
Pt1 Ti4 3.065015 1_565
Pt1 Ti2 3.065015 1_556
Pt2 Ti0 3.071777 1_565
Pt3 Ti0 3.071778 1_556
Pt4 Ti0 3.071777 1_456
Pt5 Ti0 3.071778 1_465
