# generated using pymatgen
data_Sr2MnCrF10
_symmetry_space_group_name_H-M   'P 1'
_cell_length_a   5.69058193
_cell_length_b   5.74130090
_cell_length_c   7.99549212
_cell_angle_alpha   69.06150867
_cell_angle_beta   70.21055539
_cell_angle_gamma   70.50573531
_symmetry_Int_Tables_number   1
_chemical_formula_structural   Sr2MnCrF10
_chemical_formula_sum   'Sr2 Mn1 Cr1 F10'
_cell_volume   222.73838930
_cell_formula_units_Z   1
loop_
 _symmetry_equiv_pos_site_id
 _symmetry_equiv_pos_as_xyz
  1  'x, y, z'
loop_
 _atom_site_type_symbol
 _atom_site_label
 _atom_site_symmetry_multiplicity
 _atom_site_fract_x
 _atom_site_fract_y
 _atom_site_fract_z
 _atom_site_occupancy
  Sr  Sr0  1  0.54682113  0.45193297  0.25365584  1
  Sr  Sr1  1  0.45317887  0.54806703  0.74634416  1
  Mn  Mn0  1  0.00000000  0.00000000  0.00000000  1
  Cr  Cr0  1  0.00000000  0.00000000  0.50000000  1
  F  F0  1  0.06822938  0.93308164  0.73775503  1
  F  F1  1  0.93177062  0.06691836  0.26224497  1
  F  F2  1  0.20221773  0.22854189  0.89353660  1
  F  F3  1  0.76337160  0.79059520  0.61398958  1
  F  F4  1  0.72094183  0.29480605  0.53131218  1
  F  F5  1  0.70712269  0.27544578  0.97597630  1
  F  F6  1  0.27905817  0.70519395  0.46868782  1
  F  F7  1  0.29287731  0.72455422  0.02402370  1
  F  F8  1  0.23662840  0.20940480  0.38601042  1
  F  F9  1  0.79778227  0.77145811  0.10646340  1
loop_
_geom_bond_atom_site_label_1
_geom_bond_atom_site_label_2
_geom_bond_distance
_geom_bond_site_symmetry_2
Cr0 F8 1.885632 1_555
Cr0 F3 1.885632 1_445
Cr0 F4 1.920671 1_455
Cr0 F6 1.920671 1_545
Cr0 F0 1.946857 1_545
Cr0 F1 1.946857 1_455
F0 Mn0 2.149370 1_566
F0 Sr1 2.539912 1_555
F1 Mn0 2.149370 1_655
F1 Sr0 2.539912 1_555
F2 Mn0 1.821166 1_556
F2 Sr1 2.420191 1_555
F3 Sr1 2.344566 1_555
F4 Sr1 2.434358 1_555
F4 Sr0 2.487064 1_555
F5 Mn0 1.885744 1_656
F5 Sr1 2.478327 1_555
F5 Sr0 2.531336 1_556
F6 Sr0 2.434358 1_555
F6 Sr1 2.487064 1_555
F7 Mn0 1.885744 1_565
F7 Sr0 2.478327 1_555
F7 Sr1 2.531336 1_554
F8 Sr0 2.344566 1_555
F9 Mn0 1.821166 1_665
F9 Sr0 2.420191 1_555
