# generated using pymatgen
data_YZr2(SnRh)3
_symmetry_space_group_name_H-M   'P 1'
_cell_length_a   7.46164886
_cell_length_b   7.47375187
_cell_length_c   7.33890990
_cell_angle_alpha   90.00000000
_cell_angle_beta   90.00000000
_cell_angle_gamma   120.03990499
_symmetry_Int_Tables_number   1
_chemical_formula_structural   YZr2(SnRh)3
_chemical_formula_sum   'Y2 Zr4 Sn6 Rh6'
_cell_volume   354.29163318
_cell_formula_units_Z   2
loop_
 _symmetry_equiv_pos_site_id
 _symmetry_equiv_pos_as_xyz
  1  'x, y, z'
loop_
 _atom_site_type_symbol
 _atom_site_label
 _atom_site_symmetry_multiplicity
 _atom_site_fract_x
 _atom_site_fract_y
 _atom_site_fract_z
 _atom_site_occupancy
  Y  Y0  1  0.59537706  0.99801344  0.25000000  1
  Y  Y1  1  0.40477745  0.40242679  0.25000000  1
  Zr  Zr0  1  0.60985434  0.00392486  0.75000000  1
  Zr  Zr1  1  0.38999312  0.39423182  0.75000000  1
  Zr  Zr2  1  0.00014424  0.60367525  0.75000000  1
  Zr  Zr3  1  0.00041274  0.60032818  0.25000000  1
  Sn  Sn0  1  0.26720244  0.99935878  0.99167361  1
  Sn  Sn1  1  0.73285642  0.73197882  0.50821379  1
  Sn  Sn2  1  0.99989253  0.26851543  0.49649164  1
  Sn  Sn3  1  0.99989253  0.26851543  0.00350836  1
  Sn  Sn4  1  0.73285642  0.73197882  0.99178621  1
  Sn  Sn5  1  0.26720244  0.99935878  0.50832639  1
  Rh  Rh0  1  0.67186133  0.33786609  0.97060870  1
  Rh  Rh1  1  0.67186133  0.33786609  0.52939130  1
  Rh  Rh2  1  0.32793687  0.66597307  0.97121960  1
  Rh  Rh3  1  0.32793687  0.66597307  0.52878040  1
  Rh  Rh4  1  0.99988989  0.00442660  0.75000000  1
  Rh  Rh5  1  0.00005098  0.98559069  0.25000000  1
loop_
_geom_bond_atom_site_label_1
_geom_bond_atom_site_label_2
_geom_bond_distance
_geom_bond_site_symmetry_2
Sn0 Zr0 3.097822 1_565
Sn0 Y0 3.100837 1_556
Sn0 Zr2 3.156240 1_555
Sn0 Zr1 3.160297 1_565
Sn0 Zr3 3.241447 1_556
Sn0 Y1 3.259847 1_566
Sn1 Zr1 3.098364 1_555
Sn1 Y1 3.100553 1_555
Sn1 Zr2 3.156041 1_655
Sn1 Zr0 3.160623 1_565
Sn1 Zr3 3.242145 1_655
Sn1 Y0 3.261701 1_555
Sn2 Zr3 3.068000 1_655
Sn2 Zr2 3.119486 1_655
Sn2 Zr1 3.174694 1_655
Sn2 Zr0 3.174862 1_555
Sn2 Y0 3.218778 1_545
Sn2 Y1 3.220856 1_655
Sn3 Zr3 3.068000 1_655
Sn3 Zr2 3.119486 1_654
Sn3 Zr1 3.174694 1_654
Sn3 Zr0 3.174862 1_554
Sn3 Y0 3.218778 1_545
Sn3 Y1 3.220856 1_655
Sn4 Zr1 3.098364 1_555
Sn4 Y1 3.100553 1_556
Sn4 Zr2 3.156041 1_655
Sn4 Zr0 3.160623 1_565
Sn4 Zr3 3.242145 1_656
Sn4 Y0 3.261701 1_556
Sn5 Zr0 3.097822 1_565
Sn5 Y0 3.100837 1_555
Sn5 Zr2 3.156240 1_555
Sn5 Zr1 3.160297 1_565
Sn5 Zr3 3.241447 1_555
Sn5 Y1 3.259847 1_565
Rh0 Sn4 2.750470 1_555
Rh0 Sn3 2.754655 1_556
Rh0 Zr2 2.774151 1_655
Rh0 Sn0 2.809483 1_545
Rh0 Zr0 2.812147 1_555
Rh0 Zr1 2.847673 1_555
Rh0 Zr3 3.040952 1_656
Rh0 Y1 3.061276 1_556
Rh0 Y0 3.087088 1_546
Rh1 Sn1 2.750470 1_555
Rh1 Sn2 2.754655 1_555
Rh1 Zr2 2.774151 1_655
Rh1 Sn5 2.809483 1_545
Rh1 Zr0 2.812147 1_555
Rh1 Zr1 2.847673 1_555
Rh1 Zr3 3.040952 1_655
Rh1 Y1 3.061276 1_555
Rh1 Y0 3.087088 1_545
Rh2 Sn0 2.750765 1_555
Rh2 Sn3 2.755303 1_456
Rh2 Zr2 2.773932 1_555
Rh2 Sn4 2.811144 1_555
Rh2 Zr1 2.813609 1_555
Rh2 Zr0 2.849694 1_565
Rh2 Zr3 3.032927 1_556
Rh2 Y0 3.060763 1_556
Rh2 Y1 3.086253 1_556
Rh3 Sn5 2.750765 1_555
Rh3 Sn2 2.755303 1_455
Rh3 Zr2 2.773932 1_555
Rh3 Sn1 2.811144 1_555
Rh3 Zr1 2.813609 1_555
Rh3 Zr0 2.849694 1_565
Rh3 Zr3 3.032927 1_555
Rh3 Y0 3.060763 1_555
Rh3 Y1 3.086253 1_555
Rh4 Sn0 2.683505 1_645
Rh4 Sn5 2.683505 1_645
Rh4 Sn4 2.683811 1_545
Rh4 Sn1 2.683811 1_545
Rh4 Sn3 2.712371 1_556
Rh4 Sn2 2.712371 1_555
Rh4 Zr0 2.908433 1_555
Rh4 Zr1 2.910305 1_655
Rh4 Zr2 2.996067 1_645
Rh5 Sn5 2.715330 1_555
Rh5 Sn0 2.715330 1_554
Rh5 Sn1 2.715714 1_455
Rh5 Sn4 2.715714 1_454
Rh5 Sn2 2.783175 1_465
Rh5 Sn3 2.783175 1_465
Rh5 Zr3 2.880709 1_555
Rh5 Y1 3.066891 1_565
Rh5 Y0 3.067066 1_455
