# generated using pymatgen
data_CsRb(CuSe)2
_symmetry_space_group_name_H-M   'P 1'
_cell_length_a   8.14020748
_cell_length_b   8.14020744
_cell_length_c   5.09449956
_cell_angle_alpha   90.00000000
_cell_angle_beta   90.00000000
_cell_angle_gamma   141.51547015
_symmetry_Int_Tables_number   1
_chemical_formula_structural   CsRb(CuSe)2
_chemical_formula_sum   'Cs1 Rb1 Cu2 Se2'
_cell_volume   210.07510246
_cell_formula_units_Z   1
loop_
 _symmetry_equiv_pos_site_id
 _symmetry_equiv_pos_as_xyz
  1  'x, y, z'
loop_
 _atom_site_type_symbol
 _atom_site_label
 _atom_site_symmetry_multiplicity
 _atom_site_fract_x
 _atom_site_fract_y
 _atom_site_fract_z
 _atom_site_occupancy
  Cs  Cs0  1  0.64438530  0.35561570  0.25000000  1
  Rb  Rb0  1  0.35666715  0.64333385  0.74999900  1
  Cu  Cu0  1  0.99950607  0.00049393  0.99886648  1
  Cu  Cu1  1  0.99950607  0.00049393  0.50113352  1
  Se  Se0  1  0.87760077  0.12240023  0.25000000  1
  Se  Se1  1  0.12233565  0.87766535  0.74999900  1
loop_
_geom_bond_atom_site_label_1
_geom_bond_atom_site_label_2
_geom_bond_distance
_geom_bond_site_symmetry_2
Cs0 Se0 3.584728 1_555
Cs0 Cu1 3.713885 1_565
Cs0 Cu0 3.713885 1_564
Cs0 Cu1 3.713889 1_455
Cs0 Cu0 3.713889 1_454
Cs0 Se1 3.714872 1_655
Cs0 Se1 3.714872 1_545
Cs0 Se1 3.714879 1_654
Cs0 Se1 3.714879 1_544
Rb0 Se1 3.601883 1_555
Rb0 Se0 3.713346 1_455
Rb0 Se0 3.713346 1_565
Rb0 Se0 3.713353 1_456
Rb0 Se0 3.713353 1_566
Cu0 Se0 2.268918 1_556
Cu0 Se1 2.274197 1_645
Cu0 Rb0 3.691194 1_545
Cu0 Rb0 3.691198 1_655
Cu1 Se0 2.268918 1_555
Cu1 Se1 2.274191 1_645
Cu1 Rb0 3.691190 1_545
Cu1 Rb0 3.691194 1_655
