# generated using pymatgen
data_CsYGeSe4
_symmetry_space_group_name_H-M   'P 1'
_cell_length_a   7.09613457
_cell_length_b   6.73895150
_cell_length_c   9.75526956
_cell_angle_alpha   71.08403866
_cell_angle_beta   90.00000000
_cell_angle_gamma   90.00000000
_symmetry_Int_Tables_number   1
_chemical_formula_structural   CsYGeSe4
_chemical_formula_sum   'Cs2 Y2 Ge2 Se8'
_cell_volume   441.30853701
_cell_formula_units_Z   2
loop_
 _symmetry_equiv_pos_site_id
 _symmetry_equiv_pos_as_xyz
  1  'x, y, z'
loop_
 _atom_site_type_symbol
 _atom_site_label
 _atom_site_symmetry_multiplicity
 _atom_site_fract_x
 _atom_site_fract_y
 _atom_site_fract_z
 _atom_site_occupancy
  Cs  Cs0  1  0.98983725  0.74763895  0.05996468  1
  Cs  Cs1  1  0.48983725  0.25236105  0.94003532  1
  Y  Y0  1  0.51029657  0.23149082  0.45279086  1
  Y  Y1  1  0.01029657  0.76850918  0.54720914  1
  Ge  Ge0  1  0.47301813  0.78679338  0.33538142  1
  Ge  Ge1  1  0.97301813  0.21320662  0.66461858  1
  Se  Se0  1  0.47906966  0.58479165  0.18144073  1
  Se  Se1  1  0.23238847  0.04218498  0.29417389  1
  Se  Se2  1  0.74584892  0.99619273  0.31095430  1
  Se  Se3  1  0.90254201  0.43871576  0.43083094  1
  Se  Se4  1  0.40254201  0.56128424  0.56916906  1
  Se  Se5  1  0.24584892  0.00380727  0.68904570  1
  Se  Se6  1  0.73238847  0.95781502  0.70582611  1
  Se  Se7  1  0.97906966  0.41520835  0.81855927  1
loop_
_geom_bond_atom_site_label_1
_geom_bond_atom_site_label_2
_geom_bond_distance
_geom_bond_site_symmetry_2
Cs0 Se3 3.594935 1_555
Cs0 Se0 3.717239 1_655
Cs0 Se7 3.740448 1_554
Cs0 Se6 3.755818 1_554
Cs0 Se2 3.802277 1_555
Cs0 Se0 3.860346 1_555
Cs0 Se1 3.881107 1_665
Cs0 Se5 3.914517 1_664
Cs1 Se4 3.594935 1_555
Cs1 Se7 3.717239 1_555
Cs1 Se0 3.740448 1_556
Cs1 Se1 3.755818 1_556
Cs1 Se5 3.802277 1_555
Cs1 Se7 3.860346 1_455
Cs1 Se6 3.881107 1_545
Cs1 Se2 3.914517 1_546
Ge0 Se0 2.331429 1_555
Ge0 Se4 2.348155 1_555
Ge0 Se2 2.361848 1_555
Ge0 Se1 2.364489 1_565
Ge1 Se7 2.331429 1_555
Ge1 Se3 2.348155 1_555
Ge1 Se5 2.361848 1_655
Ge1 Se6 2.364489 1_545
Se0 Y0 2.939140 1_555
Se1 Y1 3.004434 1_545
Se1 Y0 3.031617 1_555
Se2 Y0 2.940287 1_565
Se2 Y1 2.982397 1_655
Se3 Y1 2.906689 1_655
Se3 Y0 3.090234 1_555
Se4 Y0 2.906689 1_555
Se4 Y1 3.090234 1_555
Se5 Y1 2.940287 1_545
Se5 Y0 2.982397 1_555
Se6 Y0 3.004434 1_565
Se6 Y1 3.031617 1_655
Se7 Y1 2.939140 1_655
