# generated using pymatgen
data_CsKTcP2
_symmetry_space_group_name_H-M   'P 1'
_cell_length_a   8.51967380
_cell_length_b   7.96988130
_cell_length_c   7.96988227
_cell_angle_alpha   136.24443074
_cell_angle_beta   126.64098747
_cell_angle_gamma   70.30479487
_symmetry_Int_Tables_number   1
_chemical_formula_structural   CsKTcP2
_chemical_formula_sum   'Cs2 K2 Tc2 P4'
_cell_volume   295.95680803
_cell_formula_units_Z   2
loop_
 _symmetry_equiv_pos_site_id
 _symmetry_equiv_pos_as_xyz
  1  'x, y, z'
loop_
 _atom_site_type_symbol
 _atom_site_label
 _atom_site_symmetry_multiplicity
 _atom_site_fract_x
 _atom_site_fract_y
 _atom_site_fract_z
 _atom_site_occupancy
  Cs  Cs0  1  0.70937323  0.32273301  0.38663922  1
  Cs  Cs1  1  0.29062677  0.67726699  0.61336078  1
  K  K0  1  0.96966475  0.14289781  0.82676694  1
  K  K1  1  0.03033525  0.85710219  0.17323306  1
  Tc  Tc0  1  0.50000000  0.74414693  0.24414693  1
  Tc  Tc1  1  0.50000000  0.25585307  0.75585307  1
  P  P0  1  0.72507016  0.61072150  0.11434866  1
  P  P1  1  0.62926284  0.92769069  0.70157214  1
  P  P2  1  0.37073716  0.07230931  0.29842786  1
  P  P3  1  0.27492984  0.38927850  0.88565134  1
loop_
_geom_bond_atom_site_label_1
_geom_bond_atom_site_label_2
_geom_bond_distance
_geom_bond_site_symmetry_2
Cs0 P2 3.497787 1_555
Cs0 P1 3.515214 1_544
Cs0 P1 3.515219 1_555
Cs0 P3 3.744298 1_554
Cs0 P3 3.888123 1_655
Cs1 P1 3.497787 1_555
Cs1 P2 3.515214 1_566
Cs1 P2 3.515219 1_555
Cs1 P0 3.744298 1_556
Cs1 P0 3.888123 1_455
K0 P1 3.126448 1_545
K0 P3 3.390305 1_655
K0 P0 3.408258 1_545
K0 P0 3.408258 1_556
K0 P2 3.542722 1_656
K1 P2 3.126448 1_565
K1 P0 3.390305 1_455
K1 P3 3.408258 1_565
K1 P3 3.408258 1_554
K1 P1 3.542722 1_454
P0 Tc1 2.298254 1_554
P0 Tc0 2.298254 1_555
P1 Tc1 2.287598 1_565
P1 Tc0 2.287599 1_555
P2 Tc0 2.287598 1_545
P2 Tc1 2.287599 1_555
P3 Tc0 2.298254 1_556
P3 Tc1 2.298254 1_555
