# generated using pymatgen
data_AgRu4Pb3O14
_symmetry_space_group_name_H-M   'P 1'
_cell_length_a   7.20098750
_cell_length_b   7.28815299
_cell_length_c   7.28815358
_cell_angle_alpha   59.99999733
_cell_angle_beta   59.59876404
_cell_angle_gamma   59.59876762
_symmetry_Int_Tables_number   1
_chemical_formula_structural   AgRu4Pb3O14
_chemical_formula_sum   'Ag1 Ru4 Pb3 O14'
_cell_volume   268.81370475
_cell_formula_units_Z   1
loop_
 _symmetry_equiv_pos_site_id
 _symmetry_equiv_pos_as_xyz
  1  'x, y, z'
loop_
 _atom_site_type_symbol
 _atom_site_label
 _atom_site_symmetry_multiplicity
 _atom_site_fract_x
 _atom_site_fract_y
 _atom_site_fract_z
 _atom_site_occupancy
  Ag  Ag0  1  0.12500000  0.62500000  0.62500000  1
  Ru  Ru0  1  0.62500000  0.12500000  0.12500000  1
  Ru  Ru1  1  0.12500000  0.62500000  0.12500000  1
  Ru  Ru2  1  0.12500000  0.12500000  0.62500000  1
  Ru  Ru3  1  0.12500000  0.12500000  0.12500000  1
  Pb  Pb0  1  0.62500000  0.12500000  0.62500000  1
  Pb  Pb1  1  0.62500000  0.62500000  0.12500000  1
  Pb  Pb2  1  0.62500000  0.62500000  0.62500000  1
  O  O0  1  0.19941396  0.18826753  0.80615876  1
  O  O1  1  0.19941396  0.80615876  0.18826753  1
  O  O2  1  0.45191064  0.04936114  0.04936114  1
  O  O3  1  0.19941396  0.80615876  0.80615876  1
  O  O4  1  0.05058604  0.44384124  0.44384124  1
  O  O5  1  0.79808936  0.80063393  0.20063886  1
  O  O6  1  0.45191064  0.44936607  0.04936114  1
  O  O7  1  0.47326422  0.50891193  0.50891193  1
  O  O8  1  0.05058604  0.06173247  0.44384124  1
  O  O9  1  0.45191064  0.04936114  0.44936607  1
  O  O10  1  0.05058604  0.44384124  0.06173247  1
  O  O11  1  0.77673578  0.74108807  0.74108807  1
  O  O12  1  0.79808936  0.20063886  0.80063393  1
  O  O13  1  0.79808936  0.20063886  0.20063886  1
loop_
_geom_bond_atom_site_label_1
_geom_bond_atom_site_label_2
_geom_bond_distance
_geom_bond_site_symmetry_2
Ag0 O7 2.035142 1_555
Ag0 O11 2.035142 1_455
Ag0 O3 2.636083 1_555
Ag0 O4 2.636083 1_555
Ag0 O8 2.636089 1_565
Ag0 O0 2.636089 1_555
Ag0 O10 2.636089 1_556
Ag0 O1 2.636089 1_555
O0 Ru2 1.953949 1_555
O0 Ru3 1.953956 1_556
O0 Pb0 2.535976 1_555
O1 Ru1 1.953949 1_555
O1 Ru3 1.953956 1_565
O1 Pb1 2.535976 1_555
O2 Ru3 1.956146 1_555
O2 Ru0 1.963692 1_555
O2 Pb1 2.551820 1_545
O2 Pb0 2.551821 1_554
O3 Ru2 1.953954 1_565
O3 Ru1 1.953954 1_556
O3 Pb2 2.535975 1_555
O4 Ru2 1.953954 1_555
O4 Ru1 1.953954 1_555
O4 Pb2 2.535975 1_455
O5 Ru1 1.956147 1_655
O5 Ru0 1.963687 1_565
O5 Pb2 2.551822 1_555
O5 Pb1 2.551827 1_555
O6 Ru1 1.956147 1_555
O6 Ru0 1.963687 1_555
O6 Pb2 2.551822 1_554
O6 Pb1 2.551827 1_555
O7 Pb0 2.283124 1_555
O7 Pb2 2.283125 1_555
O7 Pb1 2.283125 1_555
O8 Ru2 1.953949 1_555
O8 Ru3 1.953956 1_555
O8 Pb0 2.535976 1_455
O9 Ru2 1.956147 1_555
O9 Ru0 1.963687 1_555
O9 Pb2 2.551821 1_545
O9 Pb0 2.551827 1_555
O10 Ru1 1.953949 1_555
O10 Ru3 1.953956 1_555
O10 Pb1 2.535976 1_455
O11 Pb0 2.283124 1_565
O11 Pb2 2.283125 1_555
O11 Pb1 2.283125 1_556
O12 Ru2 1.956147 1_655
O12 Ru0 1.963687 1_556
O12 Pb2 2.551821 1_555
O12 Pb0 2.551827 1_555
O13 Ru3 1.956146 1_655
O13 Ru0 1.963692 1_555
O13 Pb1 2.551820 1_555
O13 Pb0 2.551821 1_555
