# generated using pymatgen
data_Rb6AlBi3
_symmetry_space_group_name_H-M   'P 1'
_cell_length_a   10.94691054
_cell_length_b   6.37692658
_cell_length_c   12.70346324
_cell_angle_alpha   90.00000000
_cell_angle_beta   100.81685246
_cell_angle_gamma   90.00000000
_symmetry_Int_Tables_number   1
_chemical_formula_structural   Rb6AlBi3
_chemical_formula_sum   'Rb12 Al2 Bi6'
_cell_volume   871.04228990
_cell_formula_units_Z   2
loop_
 _symmetry_equiv_pos_site_id
 _symmetry_equiv_pos_as_xyz
  1  'x, y, z'
loop_
 _atom_site_type_symbol
 _atom_site_label
 _atom_site_symmetry_multiplicity
 _atom_site_fract_x
 _atom_site_fract_y
 _atom_site_fract_z
 _atom_site_occupancy
  Rb  Rb0  1  0.13484053  0.25000000  0.02114263  1
  Rb  Rb1  1  0.54323155  0.74999900  0.07870720  1
  Rb  Rb2  1  0.25429058  0.74999900  0.22058863  1
  Rb  Rb3  1  0.87591322  0.74999900  0.32498823  1
  Rb  Rb4  1  0.08671084  0.25000000  0.36915661  1
  Rb  Rb5  1  0.55643799  0.74999900  0.45479296  1
  Rb  Rb6  1  0.44356301  0.25000000  0.54520704  1
  Rb  Rb7  1  0.91328916  0.74999900  0.63084339  1
  Rb  Rb8  1  0.12408678  0.25000000  0.67501177  1
  Rb  Rb9  1  0.74570942  0.25000000  0.77941237  1
  Rb  Rb10  1  0.45676845  0.25000000  0.92129280  1
  Rb  Rb11  1  0.86515947  0.74999900  0.97885637  1
  Al  Al0  1  0.67885521  0.25000000  0.28071349  1
  Al  Al1  1  0.32114479  0.74999900  0.71928551  1
  Bi  Bi0  1  0.82311932  0.25000000  0.12302470  1
  Bi  Bi1  1  0.42865389  0.25000000  0.22629042  1
  Bi  Bi2  1  0.78750304  0.25000000  0.49089287  1
  Bi  Bi3  1  0.21249696  0.74999900  0.50910713  1
  Bi  Bi4  1  0.57134611  0.74999900  0.77370958  1
  Bi  Bi5  1  0.17688068  0.74999900  0.87697530  1
loop_
_geom_bond_atom_site_label_1
_geom_bond_atom_site_label_2
_geom_bond_distance
_geom_bond_site_symmetry_2
Rb0 Rb10 3.963099 1_554
Rb0 Rb2 4.129406 1_555
Rb0 Rb2 4.129416 1_545
Rb0 Rb11 4.309863 1_454
Rb0 Rb11 4.309873 1_444
Rb0 Rb8 4.376496 1_554
Rb0 Rb4 4.549391 1_555
Rb0 Rb9 4.760863 1_454
Rb1 Rb10 3.788211 1_554
Rb1 Rb10 3.788221 1_564
Rb1 Rb2 3.923396 1_555
Rb1 Rb11 3.963105 1_554
Rb1 Rb3 4.332972 1_555
Rb1 Rb5 4.752582 1_555
Rb2 Rb5 4.012271 1_555
Rb2 Rb4 4.288719 1_555
Rb2 Rb4 4.288728 1_565
Rb2 Rb3 4.580117 1_455
Rb3 Rb7 3.829779 1_555
Rb3 Rb4 3.914082 1_655
Rb3 Rb4 3.914093 1_665
Rb3 Rb5 4.136970 1_555
Rb4 Rb8 3.829779 1_555
Rb4 Rb6 4.121010 1_555
Rb5 Rb6 3.680346 1_555
Rb5 Rb6 3.680358 1_565
Rb5 Rb7 4.121000 1_555
Rb6 Rb9 4.012271 1_555
Rb6 Rb8 4.136980 1_555
Rb7 Rb8 3.914082 1_655
Rb7 Rb8 3.914093 1_665
Rb7 Rb9 4.288726 1_555
Rb7 Rb9 4.288735 1_565
Rb8 Rb9 4.580122 1_455
Rb10 Rb9 3.923388 1_555
Rb10 Rb8 4.332972 1_555
Rb10 Rb6 4.752584 1_555
Rb11 Rb9 4.129392 1_555
Rb11 Rb9 4.129402 1_565
Rb11 Rb3 4.376508 1_556
Rb11 Rb7 4.549379 1_555
Rb11 Rb2 4.760875 1_656
Al0 Bi1 2.696105 1_555
Al0 Bi2 2.711379 1_555
Al0 Bi0 2.773843 1_555
Al0 Rb3 3.831529 1_555
Al0 Rb3 3.831539 1_545
Al0 Rb1 4.186375 1_555
Al0 Rb1 4.186385 1_545
Al1 Bi4 2.696106 1_555
Al1 Bi3 2.711367 1_555
Al1 Bi5 2.773854 1_555
Al1 Rb8 3.831528 1_555
Al1 Rb8 3.831539 1_565
Al1 Rb10 4.186382 1_555
Al1 Rb10 4.186392 1_565
Bi0 Rb11 3.748142 1_554
Bi0 Rb11 3.748153 1_544
Bi0 Rb4 3.836171 1_655
Bi0 Rb0 3.870033 1_655
Bi0 Rb3 4.065244 1_555
Bi0 Rb3 4.065254 1_545
Bi0 Rb9 4.287601 1_554
Bi0 Rb10 4.335118 1_554
Bi0 Rb1 4.384438 1_555
Bi0 Rb1 4.384447 1_545
Bi1 Rb2 3.709838 1_555
Bi1 Rb2 3.709849 1_545
Bi1 Rb0 3.740382 1_555
Bi1 Rb10 3.943888 1_554
Bi1 Rb1 4.017091 1_555
Bi1 Rb1 4.017101 1_545
Bi1 Rb6 4.023911 1_555
Bi2 Rb9 3.777880 1_555
Bi2 Rb7 3.782092 1_555
Bi2 Rb7 3.782103 1_545
Bi2 Rb4 3.875699 1_655
Bi2 Rb6 3.953096 1_555
Bi2 Rb8 3.976421 1_655
Bi2 Rb3 4.038607 1_555
Bi2 Rb3 4.038618 1_545
Bi2 Rb5 4.042188 1_555
Bi2 Rb5 4.042198 1_545
Bi3 Rb2 3.777868 1_555
Bi3 Rb4 3.782092 1_555
Bi3 Rb4 3.782103 1_565
Bi3 Rb7 3.875699 1_455
Bi3 Rb5 3.953107 1_555
Bi3 Rb3 3.976421 1_455
Bi3 Rb8 4.038607 1_555
Bi3 Rb8 4.038618 1_565
Bi3 Rb6 4.042195 1_555
Bi3 Rb6 4.042205 1_565
Bi4 Rb9 3.709837 1_555
Bi4 Rb9 3.709848 1_565
Bi4 Rb11 3.740375 1_555
Bi4 Rb1 3.943888 1_556
Bi4 Rb10 4.017091 1_555
Bi4 Rb10 4.017101 1_565
Bi4 Rb5 4.023912 1_555
Bi5 Rb0 3.748135 1_556
Bi5 Rb0 3.748146 1_566
Bi5 Rb7 3.836171 1_455
Bi5 Rb11 3.870026 1_455
Bi5 Rb8 4.065244 1_555
Bi5 Rb8 4.065254 1_565
Bi5 Rb2 4.287614 1_556
Bi5 Rb1 4.335118 1_556
Bi5 Rb10 4.384438 1_555
Bi5 Rb10 4.384447 1_565
