# generated using pymatgen
data_Zr3Nb3Al16Ir7
_symmetry_space_group_name_H-M   'P 1'
_cell_length_a   8.61748730
_cell_length_b   8.61748716
_cell_length_c   8.61754114
_cell_angle_alpha   60.00020905
_cell_angle_beta   60.00020723
_cell_angle_gamma   59.99999363
_symmetry_Int_Tables_number   1
_chemical_formula_structural   Zr3Nb3Al16Ir7
_chemical_formula_sum   'Zr3 Nb3 Al16 Ir7'
_cell_volume   452.51294753
_cell_formula_units_Z   1
loop_
 _symmetry_equiv_pos_site_id
 _symmetry_equiv_pos_as_xyz
  1  'x, y, z'
loop_
 _atom_site_type_symbol
 _atom_site_label
 _atom_site_symmetry_multiplicity
 _atom_site_fract_x
 _atom_site_fract_y
 _atom_site_fract_z
 _atom_site_occupancy
  Zr  Zr0  1  0.31154927  0.31154927  0.68817043  1
  Zr  Zr1  1  0.68873104  0.31154927  0.68817043  1
  Zr  Zr2  1  0.31154927  0.68873104  0.68817043  1
  Nb  Nb0  1  0.67725232  0.67725232  0.32076675  1
  Nb  Nb1  1  0.32472961  0.67725232  0.32076675  1
  Nb  Nb2  1  0.67725232  0.32472961  0.32076675  1
  Al  Al0  1  0.88158341  0.88158341  0.35524976  1
  Al  Al1  1  0.87835248  0.36061090  0.88268514  1
  Al  Al2  1  0.36061090  0.87835248  0.88268514  1
  Al  Al3  1  0.87835248  0.87835248  0.88268514  1
  Al  Al4  1  0.12121694  0.12121694  0.63634719  1
  Al  Al5  1  0.11750740  0.64225061  0.12273258  1
  Al  Al6  1  0.64225061  0.11750740  0.12273258  1
  Al  Al7  1  0.11750740  0.11750740  0.12273258  1
  Al  Al8  1  0.66308635  0.66308635  0.01074094  1
  Al  Al9  1  0.66461805  0.01213200  0.65863091  1
  Al  Al10  1  0.01213200  0.66461805  0.65863091  1
  Al  Al11  1  0.66461805  0.66461805  0.65863091  1
  Al  Al12  1  0.33649040  0.33649040  0.99053080  1
  Al  Al13  1  0.33918147  0.98784411  0.33379395  1
  Al  Al14  1  0.98784411  0.33918147  0.33379395  1
  Al  Al15  1  0.33918147  0.33918147  0.33379395  1
  Ir  Ir0  1  0.00152565  0.00152565  0.99542404  1
  Ir  Ir1  1  0.00152266  0.00152266  0.49651312  1
  Ir  Ir2  1  0.50044156  0.00152266  0.49651312  1
  Ir  Ir3  1  0.00152266  0.50044156  0.49651312  1
  Ir  Ir4  1  0.50158740  0.50158740  0.00060988  1
  Ir  Ir5  1  0.99621532  0.50158740  0.00060988  1
  Ir  Ir6  1  0.50158740  0.99621532  0.00060988  1
loop_
_geom_bond_atom_site_label_1
_geom_bond_atom_site_label_2
_geom_bond_distance
_geom_bond_site_symmetry_2
Nb0 Nb2 3.037860 1_555
Nb0 Nb1 3.037860 1_555
Nb0 Zr2 3.160592 1_555
Nb0 Zr1 3.160592 1_555
Nb1 Nb2 3.037860 1_555
Nb1 Zr2 3.160588 1_555
Nb1 Zr0 3.160592 1_555
Nb2 Zr1 3.160588 1_555
Nb2 Zr0 3.160592 1_555
Al0 Ir0 2.531811 1_664
Al0 Ir2 2.683872 1_565
Al0 Ir3 2.683872 1_655
Al0 Ir1 2.683872 1_665
Al0 Nb0 3.230519 1_555
Al0 Nb2 3.230526 1_565
Al0 Nb1 3.230526 1_655
Al1 Ir0 2.527113 1_655
Al1 Ir5 2.653457 1_556
Al1 Ir4 2.653464 1_556
Al1 Ir3 2.718453 1_655
Al1 Zr0 3.130054 1_655
Al1 Zr1 3.130062 1_555
Al1 Nb2 3.190160 1_556
Al2 Ir0 2.527113 1_565
Al2 Ir6 2.653457 1_556
Al2 Ir4 2.653464 1_556
Al2 Ir2 2.718453 1_565
Al2 Zr0 3.130054 1_565
Al2 Zr2 3.130062 1_555
Al2 Nb1 3.190160 1_556
Al3 Ir0 2.527113 1_665
Al3 Ir5 2.653464 1_556
Al3 Ir6 2.653464 1_556
Al3 Ir1 2.718454 1_665
Al3 Zr2 3.130056 1_655
Al3 Zr1 3.130056 1_565
Al3 Nb0 3.190160 1_556
Al4 Ir0 2.526542 1_555
Al4 Ir1 2.670151 1_555
Al4 Ir2 2.670165 1_555
Al4 Ir3 2.670165 1_555
Al4 Zr2 3.120088 1_545
Al4 Zr1 3.120088 1_455
Al4 Zr0 3.120103 1_555
Al5 Ir0 2.528543 1_564
Al5 Ir3 2.633137 1_555
Al5 Ir5 2.704080 1_455
Al5 Ir4 2.704094 1_555
Al5 Zr2 3.144575 1_554
Al5 Nb0 3.208252 1_455
Al5 Nb1 3.208275 1_555
Al6 Ir0 2.528543 1_654
Al6 Ir2 2.633137 1_555
Al6 Ir6 2.704080 1_545
Al6 Ir4 2.704094 1_555
Al6 Zr1 3.144575 1_554
Al6 Nb0 3.208252 1_545
Al6 Nb2 3.208275 1_555
Al7 Ir0 2.528523 1_554
Al7 Ir1 2.633137 1_555
Al7 Ir6 2.704094 1_545
Al7 Ir5 2.704094 1_455
Al7 Zr0 3.144579 1_554
Al7 Nb2 3.208258 1_455
Al7 Nb1 3.208258 1_545
Al8 Ir6 2.461959 1_555
Al8 Ir5 2.461959 1_555
Al8 Ir4 2.461959 1_555
Al8 Nb1 2.799059 1_555
Al8 Nb2 2.799059 1_555
Al8 Nb0 2.799064 1_555
Al9 Ir2 2.489047 1_555
Al9 Ir1 2.489055 1_655
Al9 Ir6 2.515097 1_546
Al9 Nb2 2.806918 1_555
Al9 Zr0 2.830436 1_555
Al9 Zr1 2.830441 1_555
Al10 Ir3 2.489047 1_555
Al10 Ir1 2.489055 1_565
Al10 Ir5 2.515097 1_456
Al10 Nb1 2.806918 1_555
Al10 Zr0 2.830436 1_555
Al10 Zr2 2.830441 1_555
Al11 Ir3 2.489052 1_655
Al11 Ir2 2.489052 1_565
Al11 Ir4 2.515095 1_556
Al11 Nb0 2.806910 1_555
Al11 Zr1 2.830433 1_555
Al11 Zr2 2.830433 1_555
Al12 Ir4 2.515372 1_556
Al12 Ir6 2.515387 1_546
Al12 Ir5 2.515387 1_456
Al12 Zr1 2.836852 1_555
Al12 Zr2 2.836853 1_555
Al12 Zr0 2.836862 1_555
Al13 Ir6 2.466440 1_555
Al13 Ir2 2.487775 1_565
Al13 Ir1 2.487783 1_565
Al13 Nb0 2.799939 1_555
Al13 Nb1 2.799939 1_555
Al13 Zr2 2.835805 1_555
Al14 Ir5 2.466440 1_555
Al14 Ir3 2.487775 1_655
Al14 Ir1 2.487783 1_655
Al14 Nb0 2.799939 1_555
Al14 Nb2 2.799939 1_555
Al14 Zr1 2.835805 1_555
Al15 Ir4 2.466438 1_555
Al15 Ir3 2.487781 1_555
Al15 Ir2 2.487781 1_555
Al15 Nb1 2.799939 1_555
Al15 Nb2 2.799939 1_555
Al15 Zr0 2.835801 1_555
Ir1 Zr1 3.144904 1_455
Ir1 Zr2 3.144904 1_545
Ir1 Nb1 3.176589 1_545
Ir1 Nb2 3.176589 1_455
Ir2 Zr0 3.144904 1_555
Ir2 Zr2 3.144904 1_545
Ir2 Nb0 3.176587 1_545
Ir2 Nb2 3.176595 1_555
Ir3 Zr0 3.144904 1_555
Ir3 Zr1 3.144904 1_455
Ir3 Nb0 3.176587 1_455
Ir3 Nb1 3.176595 1_555
Ir4 Nb1 3.144957 1_555
Ir4 Nb2 3.144957 1_555
Ir4 Zr1 3.155657 1_554
Ir4 Zr2 3.155657 1_554
Ir5 Nb2 3.144951 1_555
Ir5 Nb0 3.144955 1_555
Ir5 Zr0 3.155657 1_654
Ir5 Zr2 3.155658 1_654
Ir6 Nb1 3.144951 1_555
Ir6 Nb0 3.144955 1_555
Ir6 Zr0 3.155657 1_564
Ir6 Zr1 3.155658 1_564
