# generated using pymatgen
data_Sc4Si6Ir4Pd3
_symmetry_space_group_name_H-M   'P 1'
_cell_length_a   6.96528705
_cell_length_b   6.96528765
_cell_length_c   6.97803137
_cell_angle_alpha   109.50828453
_cell_angle_beta   109.50828627
_cell_angle_gamma   109.43413591
_symmetry_Int_Tables_number   1
_chemical_formula_structural   Sc4Si6Ir4Pd3
_chemical_formula_sum   'Sc4 Si6 Ir4 Pd3'
_cell_volume   260.48949290
_cell_formula_units_Z   1
loop_
 _symmetry_equiv_pos_site_id
 _symmetry_equiv_pos_as_xyz
  1  'x, y, z'
loop_
 _atom_site_type_symbol
 _atom_site_label
 _atom_site_symmetry_multiplicity
 _atom_site_fract_x
 _atom_site_fract_y
 _atom_site_fract_z
 _atom_site_occupancy
  Sc  Sc0  1  0.00000000  0.00000000  0.50000000  1
  Sc  Sc1  1  0.00933925  0.50466963  0.00466963  1
  Sc  Sc2  1  0.49533037  0.99066075  0.99533037  1
  Sc  Sc3  1  0.49533037  0.50466963  0.50000000  1
  Si  Si0  1  0.67939488  0.68479134  0.99972346  1
  Si  Si1  1  0.31520866  0.99460353  0.31493211  1
  Si  Si2  1  0.00539647  0.32060512  0.32032858  1
  Si  Si3  1  0.31520866  0.32060512  0.00027654  1
  Si  Si4  1  0.67939488  0.99460353  0.67967142  1
  Si  Si5  1  0.00539647  0.68479134  0.68506789  1
  Ir  Ir0  1  0.24797072  0.49594243  0.74797072  1
  Ir  Ir1  1  0.24797072  0.75202928  0.50000000  1
  Ir  Ir2  1  0.50405757  0.75202928  0.25202928  1
  Ir  Ir3  1  0.00000000  0.00000000  0.00000000  1
  Pd  Pd0  1  0.74757469  0.25242531  0.50000000  1
  Pd  Pd1  1  0.74757469  0.49514939  0.24757469  1
  Pd  Pd2  1  0.50485061  0.25242531  0.75242531  1
loop_
_geom_bond_atom_site_label_1
_geom_bond_atom_site_label_2
_geom_bond_distance
_geom_bond_site_symmetry_2
Sc0 Si4 2.899244 1_445
Sc0 Si1 2.899244 1_545
Sc0 Si0 2.899244 1_444
Sc0 Si3 2.899244 1_556
Sc0 Si2 2.899244 1_555
Sc0 Si5 2.899244 1_545
Sc1 Si1 2.831692 1_555
Sc1 Si3 2.831693 1_555
Sc1 Si2 2.898153 1_555
Sc1 Si5 2.898153 1_554
Sc1 Si4 2.958266 1_444
Sc1 Si0 2.958267 1_454
Sc2 Si5 2.831692 1_555
Sc2 Si0 2.831693 1_555
Sc2 Si4 2.898153 1_555
Sc2 Si1 2.898153 1_556
Sc2 Si2 2.958266 1_666
Sc2 Si3 2.958267 1_566
Sc3 Si2 2.831692 1_555
Sc3 Si4 2.831693 1_555
Sc3 Si0 2.898153 1_555
Sc3 Si3 2.898153 1_555
Sc3 Si5 2.958266 1_655
Sc3 Si1 2.958267 1_545
Ir0 Si2 2.465056 1_555
Ir0 Si3 2.465062 1_556
Ir0 Si5 2.479292 1_555
Ir0 Si0 2.479298 1_555
Ir0 Sc2 2.812885 1_555
Ir0 Sc0 2.819845 1_555
Ir0 Sc3 2.820992 1_555
Ir0 Sc1 2.820992 1_556
Ir1 Si5 2.465056 1_555
Ir1 Si1 2.465057 1_555
Ir1 Si4 2.479297 1_555
Ir1 Si2 2.479298 1_555
Ir1 Sc3 2.812891 1_555
Ir1 Sc0 2.819839 1_565
Ir1 Sc2 2.820992 1_555
Ir1 Sc1 2.820992 1_555
Ir2 Si4 2.465056 1_555
Ir2 Si0 2.465062 1_554
Ir2 Si1 2.479292 1_555
Ir2 Si3 2.479298 1_555
Ir2 Sc1 2.812885 1_555
Ir2 Sc0 2.819845 1_665
Ir2 Sc3 2.820992 1_555
Ir2 Sc2 2.820992 1_554
Ir3 Si0 2.557107 1_444
Ir3 Si3 2.557107 1_555
Ir3 Si4 2.557107 1_444
Ir3 Si1 2.557107 1_545
Ir3 Si2 2.557108 1_555
Ir3 Si5 2.557108 1_544
Pd0 Si1 2.493361 1_545
Pd0 Si5 2.493361 1_655
Pd0 Si2 2.521155 1_655
Pd0 Si4 2.521155 1_545
Pd0 Sc3 2.868437 1_555
Pd0 Sc0 2.870496 1_655
Pd0 Sc1 2.874089 1_656
Pd0 Sc2 2.874089 1_544
Pd1 Si3 2.493361 1_555
Pd1 Si2 2.493361 1_655
Pd1 Si5 2.521155 1_655
Pd1 Si0 2.521155 1_554
Pd1 Sc2 2.868437 1_544
Pd1 Sc0 2.870495 1_665
Pd1 Sc1 2.874089 1_655
Pd1 Sc3 2.874089 1_555
Pd2 Si0 2.493361 1_555
Pd2 Si4 2.493361 1_545
Pd2 Si3 2.521155 1_556
Pd2 Si1 2.521156 1_545
Pd2 Sc1 2.868437 1_656
Pd2 Sc0 2.870495 1_555
Pd2 Sc2 2.874089 1_545
Pd2 Sc3 2.874089 1_555
