# generated using pymatgen
data_Na2Ga(SiPd2)3
_symmetry_space_group_name_H-M   'P 1'
_cell_length_a   6.70651086
_cell_length_b   6.66069215
_cell_length_c   6.70651043
_cell_angle_alpha   129.39287656
_cell_angle_beta   115.61369539
_cell_angle_gamma   86.38622655
_symmetry_Int_Tables_number   1
_chemical_formula_structural   Na2Ga(SiPd2)3
_chemical_formula_sum   'Na2 Ga1 Si3 Pd6'
_cell_volume   198.93705794
_cell_formula_units_Z   1
loop_
 _symmetry_equiv_pos_site_id
 _symmetry_equiv_pos_as_xyz
  1  'x, y, z'
loop_
 _atom_site_type_symbol
 _atom_site_label
 _atom_site_symmetry_multiplicity
 _atom_site_fract_x
 _atom_site_fract_y
 _atom_site_fract_z
 _atom_site_occupancy
  Na  Na0  1  0.00099037  0.98126710  0.98027673  1
  Na  Na1  1  0.49957705  0.04737981  0.54780276  1
  Ga  Ga0  1  0.35126584  0.41057564  0.05930980  1
  Si  Si0  1  0.80795937  0.23819238  0.43023201  1
  Si  Si1  1  0.65043007  0.70485083  0.05442076  1
  Si  Si2  1  0.19358060  0.62142008  0.42783847  1
  Pd  Pd0  1  0.94629725  0.50097499  0.95136593  1
  Pd  Pd1  1  0.54960806  0.50097499  0.55467674  1
  Pd  Pd2  1  0.04117285  0.99580244  0.53928792  1
  Pd  Pd3  1  0.79480581  0.49388114  0.28608594  1
  Pd  Pd4  1  0.20779520  0.49388114  0.69907433  1
  Pd  Pd5  1  0.45651552  0.99580244  0.95462959  1
loop_
_geom_bond_atom_site_label_1
_geom_bond_atom_site_label_2
_geom_bond_distance
_geom_bond_site_symmetry_2
Na0 Pd0 3.115345 1_455
Na0 Pd1 3.115348 1_455
Na0 Pd2 3.143976 1_555
Na0 Pd5 3.143983 1_555
Na0 Pd3 3.153087 1_455
Na0 Pd4 3.153088 1_555
Na0 Si2 3.155319 1_566
Na0 Si0 3.202226 1_466
Na0 Pd4 3.277933 1_566
Na0 Pd3 3.277937 1_466
Na1 Pd0 3.029904 1_555
Na1 Pd1 3.029908 1_555
Na1 Si2 3.052458 1_545
Na1 Si0 3.086680 1_555
Na1 Pd5 3.086906 1_545
Na1 Pd2 3.086909 1_545
Na1 Si1 3.193556 1_545
Na1 Si1 3.232041 1_556
Na1 Pd3 3.294903 1_556
Na1 Pd4 3.294903 1_555
Ga0 Pd2 2.518795 1_544
Ga0 Pd5 2.518797 1_544
Ga0 Pd3 2.587412 1_555
Ga0 Pd4 2.587418 1_554
Ga0 Si2 2.620330 1_555
Ga0 Pd1 2.628695 1_555
Ga0 Pd0 2.628701 1_454
Ga0 Si1 2.915923 1_555
Ga0 Na1 3.128891 1_565
Ga0 Na1 3.274584 1_554
Ga0 Na0 3.438391 1_544
Si0 Si1 2.625784 1_545
Pd0 Si0 2.403326 1_555
Pd0 Si1 2.431807 1_556
Pd0 Si2 2.436585 1_656
Pd1 Si0 2.403326 1_555
Pd1 Si1 2.431810 1_556
Pd1 Si2 2.436585 1_555
Pd2 Si0 2.403984 1_465
Pd2 Si2 2.407318 1_555
Pd2 Si1 2.543771 1_455
Pd3 Si0 2.416564 1_555
Pd3 Si2 2.416796 1_655
Pd3 Si1 2.573889 1_555
Pd4 Si0 2.416569 1_455
Pd4 Si2 2.416794 1_555
Pd4 Si1 2.573889 1_556
Pd5 Si0 2.403975 1_566
Pd5 Si2 2.407323 1_555
Pd5 Si1 2.543769 1_556
