# generated using pymatgen
data_Cs2LiTaSe4
_symmetry_space_group_name_H-M   'P 1'
_cell_length_a   14.71329010
_cell_length_b   13.15754263
_cell_length_c   7.92268234
_cell_angle_alpha   84.65833655
_cell_angle_beta   62.92089904
_cell_angle_gamma   32.42076417
_symmetry_Int_Tables_number   1
_chemical_formula_structural   Cs2LiTaSe4
_chemical_formula_sum   'Cs4 Li2 Ta2 Se8'
_cell_volume   580.18362412
_cell_formula_units_Z   2
loop_
 _symmetry_equiv_pos_site_id
 _symmetry_equiv_pos_as_xyz
  1  'x, y, z'
loop_
 _atom_site_type_symbol
 _atom_site_label
 _atom_site_symmetry_multiplicity
 _atom_site_fract_x
 _atom_site_fract_y
 _atom_site_fract_z
 _atom_site_occupancy
  Cs  Cs0  1  0.92877634  0.92877634  0.57122366  1
  Cs  Cs1  1  0.57122366  0.57122366  0.92877634  1
  Cs  Cs2  1  0.67877634  0.67877634  0.32122366  1
  Cs  Cs3  1  0.32122366  0.32122366  0.67877634  1
  Li  Li0  1  0.00000000  0.00000000  0.00000000  1
  Li  Li1  1  0.25000000  0.25000000  0.25000000  1
  Ta  Ta0  1  0.75000000  0.75000000  0.75000000  1
  Ta  Ta1  1  0.50000000  0.50000000  0.50000000  1
  Se  Se0  1  0.58055475  0.31271386  0.23125615  1
  Se  Se1  1  0.87547424  0.23125615  0.31271386  1
  Se  Se2  1  0.23125615  0.87547424  0.58055475  1
  Se  Se3  1  0.31271386  0.58055475  0.87547424  1
  Se  Se4  1  0.93728614  0.66944525  0.37452576  1
  Se  Se5  1  0.37452576  0.01874385  0.93728614  1
  Se  Se6  1  0.01874385  0.37452576  0.66944525  1
  Se  Se7  1  0.66944525  0.93728614  0.01874385  1
loop_
_geom_bond_atom_site_label_1
_geom_bond_atom_site_label_2
_geom_bond_distance
_geom_bond_site_symmetry_2
Cs0 Se4 3.765392 1_555
Cs0 Se7 3.765395 1_556
Cs0 Se0 3.773264 1_655
Cs0 Se3 3.773266 1_565
Cs0 Se2 3.914647 1_655
Cs0 Se1 3.914651 1_565
Cs0 Se0 3.993036 1_566
Cs0 Se3 3.993043 1_654
Cs1 Se5 3.765404 1_565
Cs1 Se6 3.765405 1_655
Cs1 Se2 3.773263 1_556
Cs1 Se1 3.773270 1_555
Cs1 Se0 3.914657 1_556
Cs1 Se3 3.914661 1_555
Cs1 Se2 3.993041 1_645
Cs1 Se1 3.993042 1_466
Cs2 Se1 3.765404 1_555
Cs2 Se2 3.765405 1_555
Cs2 Se6 3.773263 1_654
Cs2 Se5 3.773270 1_565
Cs2 Se7 3.914657 1_555
Cs2 Se4 3.914661 1_555
Cs2 Se6 3.993041 1_565
Cs2 Se5 3.993042 1_654
Cs3 Se3 3.765392 1_555
Cs3 Se0 3.765395 1_555
Cs3 Se7 3.773264 1_456
Cs3 Se4 3.773266 1_545
Cs3 Se6 3.914647 1_555
Cs3 Se5 3.914651 1_555
Cs3 Se7 3.993036 1_545
Cs3 Se4 3.993043 1_456
Li0 Se1 2.571456 1_455
Li0 Se2 2.571462 1_544
Li0 Se3 2.571465 1_544
Li0 Se0 2.571467 1_455
Li1 Se5 2.571456 1_554
Li1 Se6 2.571462 1_555
Li1 Se4 2.571465 1_455
Li1 Se7 2.571467 1_545
Se0 Ta1 2.399798 1_555
Se1 Ta1 2.399787 1_555
Se2 Ta1 2.399789 1_555
Se3 Ta1 2.399792 1_555
Se4 Ta0 2.399792 1_555
Se5 Ta0 2.399787 1_545
Se6 Ta0 2.399789 1_455
Se7 Ta0 2.399798 1_554
