# generated using pymatgen
data_Rb3Ta2AsSe11
_symmetry_space_group_name_H-M   'P 1'
_cell_length_a   10.20576550
_cell_length_b   10.20576460
_cell_length_c   10.16672684
_cell_angle_alpha   83.00217732
_cell_angle_beta   83.00217618
_cell_angle_gamma   83.33145405
_symmetry_Int_Tables_number   1
_chemical_formula_structural   Rb3Ta2AsSe11
_chemical_formula_sum   'Rb6 Ta4 As2 Se22'
_cell_volume   1037.69657796
_cell_formula_units_Z   2
loop_
 _symmetry_equiv_pos_site_id
 _symmetry_equiv_pos_as_xyz
  1  'x, y, z'
loop_
 _atom_site_type_symbol
 _atom_site_label
 _atom_site_symmetry_multiplicity
 _atom_site_fract_x
 _atom_site_fract_y
 _atom_site_fract_z
 _atom_site_occupancy
  Rb  Rb0  1  0.66932853  0.80104276  0.92078631  1
  Rb  Rb1  1  0.43163599  0.26480255  0.16330889  1
  Rb  Rb2  1  0.80104276  0.66932853  0.42078631  1
  Rb  Rb3  1  0.90742822  0.05914872  0.25416472  1
  Rb  Rb4  1  0.26480255  0.43163599  0.66330889  1
  Rb  Rb5  1  0.05914872  0.90742822  0.75416472  1
  Ta  Ta0  1  0.82024571  0.41384470  0.83048024  1
  Ta  Ta1  1  0.70391462  0.16393493  0.64659662  1
  Ta  Ta2  1  0.41384470  0.82024571  0.33047924  1
  Ta  Ta3  1  0.16393493  0.70391462  0.14659662  1
  As  As0  1  0.03739108  0.35769247  0.09493244  1
  As  As1  1  0.35769247  0.03739108  0.59493244  1
  Se  Se0  1  0.19239869  0.50939098  0.99371709  1
  Se  Se1  1  0.80640862  0.31690850  0.44283624  1
  Se  Se2  1  0.63408603  0.44183817  0.67216577  1
  Se  Se3  1  0.95027295  0.78662807  0.09055594  1
  Se  Se4  1  0.78662807  0.95027295  0.59055594  1
  Se  Se5  1  0.44948574  0.81247538  0.58302010  1
  Se  Se6  1  0.59983761  0.93162294  0.24348470  1
  Se  Se7  1  0.93429466  0.26870013  0.62587098  1
  Se  Se8  1  0.26870013  0.93429466  0.12587098  1
  Se  Se9  1  0.31690850  0.80640862  0.94283624  1
  Se  Se10  1  0.81247538  0.44948574  0.08302010  1
  Se  Se11  1  0.57156196  0.49069259  0.89324777  1
  Se  Se12  1  0.23799944  0.02471479  0.40398092  1
  Se  Se13  1  0.02471479  0.23799944  0.90398092  1
  Se  Se14  1  0.14719319  0.73529043  0.40147957  1
  Se  Se15  1  0.13022993  0.51910292  0.34136169  1
  Se  Se16  1  0.44183817  0.63408603  0.17216577  1
  Se  Se17  1  0.51910292  0.13022993  0.84136169  1
  Se  Se18  1  0.50939098  0.19239869  0.49371709  1
  Se  Se19  1  0.93162294  0.59983761  0.74348470  1
  Se  Se20  1  0.73529043  0.14719319  0.90147957  1
  Se  Se21  1  0.49069259  0.57156196  0.39324777  1
loop_
_geom_bond_atom_site_label_1
_geom_bond_atom_site_label_2
_geom_bond_distance
_geom_bond_site_symmetry_2
Rb0 Se11 3.481992 1_555
Rb0 Se3 3.502554 1_556
Rb0 Se17 3.568466 1_565
Rb0 Se9 3.570771 1_555
Rb0 Se19 3.616811 1_555
Rb0 Se4 3.636310 1_555
Rb0 Se16 3.638301 1_556
Rb0 Se6 3.649854 1_556
Rb0 Se20 3.650079 1_565
Rb0 Se10 3.956723 1_556
Rb1 Se18 3.516857 1_555
Rb1 Se11 3.627609 1_554
Rb1 Se6 3.671994 1_545
Rb1 Se17 3.673597 1_554
Rb1 Se0 3.704979 1_554
Rb1 Se12 3.792341 1_555
Rb1 Se16 3.794611 1_555
Rb1 Se20 4.004393 1_554
Rb1 Se8 4.007185 1_545
Rb2 Se21 3.481993 1_555
Rb2 Se4 3.502554 1_555
Rb2 Se15 3.568466 1_655
Rb2 Se1 3.570770 1_555
Rb2 Se6 3.616811 1_555
Rb2 Se3 3.636311 1_555
Rb2 Se2 3.638301 1_555
Rb2 Se19 3.649854 1_555
Rb2 Se14 3.650079 1_655
Rb2 Se5 3.956723 1_555
Rb3 Se3 3.370622 1_545
Rb3 Se1 3.432246 1_555
Rb3 Se6 3.553398 1_545
Rb3 Se4 3.579920 1_545
Rb3 Se12 3.830385 1_655
Rb3 Se8 3.880893 1_645
Rb3 Se13 3.914761 1_654
Rb4 Se0 3.516857 1_555
Rb4 Se21 3.627609 1_555
Rb4 Se19 3.671994 1_455
Rb4 Se15 3.673597 1_555
Rb4 Se18 3.704979 1_555
Rb4 Se13 3.792341 1_555
Rb4 Se2 3.794611 1_555
Rb4 Se14 4.004393 1_555
Rb4 Se7 4.007185 1_455
Rb5 Se4 3.370622 1_455
Rb5 Se9 3.432246 1_555
Rb5 Se19 3.553398 1_455
Rb5 Se3 3.579920 1_456
Rb5 Se13 3.830384 1_565
Rb5 Se7 3.880893 1_465
Rb5 Se12 3.914761 1_565
As0 Se10 2.387884 1_455
As0 Se0 2.396338 1_554
As0 Se13 2.439986 1_554
As0 Rb3 3.588444 1_455
As1 Se5 2.387883 1_545
As1 Se18 2.396338 1_555
As1 Se12 2.439986 1_555
As1 Rb5 3.588444 1_545
Se0 Ta3 2.636164 1_556
Se1 Se7 2.372327 1_555
Se1 Ta1 2.624161 1_555
Se2 Ta0 2.605547 1_555
Se2 Ta1 2.878305 1_555
Se3 Ta3 2.355881 1_655
Se4 Ta1 2.355881 1_565
Se5 Ta2 2.627161 1_555
Se6 Ta2 2.350437 1_555
Se7 Ta1 2.669086 1_555
Se7 Ta0 2.763467 1_555
Se8 Se9 2.372327 1_554
Se8 Ta3 2.669086 1_555
Se8 Ta2 2.763460 1_555
Se9 Ta3 2.624161 1_556
Se10 Ta0 2.627151 1_554
Se11 Se2 2.357445 1_555
Se11 Ta0 2.593999 1_555
Se12 Ta2 2.705019 1_545
Se13 Ta0 2.705016 1_455
Se14 Se15 2.390532 1_555
Se14 Ta3 2.632165 1_555
Se14 Ta2 2.931821 1_555
Se15 Ta3 2.582913 1_555
Se16 Se21 2.357445 1_555
Se16 Ta2 2.605540 1_555
Se16 Ta3 2.878306 1_555
Se17 Se20 2.390532 1_555
Se17 Ta1 2.582913 1_555
Se18 Ta1 2.636164 1_555
Se19 Ta0 2.350439 1_555
Se20 Ta1 2.632165 1_555
Se20 Ta0 2.931820 1_555
Se21 Ta2 2.594000 1_555
