# generated using pymatgen
data_Ti8Al15Os4Rh3
_symmetry_space_group_name_H-M   'P 1'
_cell_length_a   8.59304494
_cell_length_b   8.59618110
_cell_length_c   8.62301800
_cell_angle_alpha   119.95674680
_cell_angle_beta   119.76722241
_cell_angle_gamma   90.07447936
_symmetry_Int_Tables_number   1
_chemical_formula_structural   Ti8Al15Os4Rh3
_chemical_formula_sum   'Ti8 Al15 Os4 Rh3'
_cell_volume   451.97995628
_cell_formula_units_Z   1
loop_
 _symmetry_equiv_pos_site_id
 _symmetry_equiv_pos_as_xyz
  1  'x, y, z'
loop_
 _atom_site_type_symbol
 _atom_site_label
 _atom_site_symmetry_multiplicity
 _atom_site_fract_x
 _atom_site_fract_y
 _atom_site_fract_z
 _atom_site_occupancy
  Ti  Ti0  1  0.77826560  0.28418098  0.06823696  1
  Ti  Ti1  1  0.22594472  0.29465966  0.50755451  1
  Ti  Ti2  1  0.21738065  0.71667700  0.51158496  1
  Ti  Ti3  1  0.22671920  0.72189851  0.93057664  1
  Ti  Ti4  1  0.78864173  0.72046766  0.49680716  1
  Ti  Ti5  1  0.77183500  0.27167085  0.48693942  1
  Ti  Ti6  1  0.37543281  0.12167762  0.74315575  1
  Ti  Ti7  1  0.38187988  0.63458846  0.25891802  1
  Al  Al0  1  0.99536360  0.49516097  0.49927546  1
  Al  Al1  1  0.14835821  0.34465605  0.18948756  1
  Al  Al2  1  0.15367242  0.96840975  0.81393335  1
  Al  Al3  1  0.14811142  0.34738377  0.80400677  1
  Al  Al4  1  0.53558534  0.34619057  0.19288315  1
  Al  Al5  1  0.84898027  0.65037054  0.80275548  1
  Al  Al6  1  0.85036950  0.03861179  0.19389081  1
  Al  Al7  1  0.84525897  0.65305695  0.18580204  1
  Al  Al8  1  0.47679297  0.65837805  0.81785680  1
  Al  Al9  1  0.37589501  0.12085450  0.25702071  1
  Al  Al10  1  0.86198480  0.12285936  0.74311915  1
  Al  Al11  1  0.62144156  0.87476403  0.25422109  1
  Al  Al12  1  0.62306967  0.36526630  0.74498890  1
  Al  Al13  1  0.62181966  0.87715096  0.74264522  1
  Al  Al14  1  0.13555126  0.87859994  0.25754283  1
  Os  Os0  1  0.99956598  0.99816381  0.50171891  1
  Os  Os1  1  0.49927931  0.00087720  0.00023174  1
  Os  Os2  1  0.49768023  0.49699271  0.99933300  1
  Os  Os3  1  0.49613172  0.49825304  0.49738720  1
  Rh  Rh0  1  0.00089241  0.50000452  0.00034047  1
  Rh  Rh1  1  0.99846066  0.99888487  0.99851290  1
  Rh  Rh2  1  0.49963144  0.99928457  0.49927102  1
loop_
_geom_bond_atom_site_label_1
_geom_bond_atom_site_label_2
_geom_bond_distance
_geom_bond_site_symmetry_2
Ti0 Ti6 2.869376 1_554
Ti1 Ti6 2.901592 1_555
Ti2 Ti6 2.881749 1_565
Ti2 Ti7 2.961126 1_555
Ti3 Ti7 2.955274 1_556
Ti4 Ti7 2.886450 1_555
Al0 Ti2 2.620028 1_655
Al0 Ti1 2.625440 1_655
Al0 Ti4 2.630517 1_555
Al0 Ti0 2.637883 1_555
Al0 Ti5 2.641031 1_555
Al0 Ti3 2.644227 1_655
Al1 Rh0 2.485288 1_555
Al1 Rh1 2.490208 1_444
Al1 Os3 2.516647 1_555
Al1 Ti1 2.741142 1_555
Al1 Ti0 2.761968 1_455
Al1 Ti2 2.789576 1_555
Al2 Rh1 2.464377 1_455
Al2 Os0 2.493124 1_455
Al2 Os1 2.508228 1_566
Al2 Ti3 2.720518 1_555
Al2 Ti4 2.739404 1_455
Al2 Ti2 2.750555 1_555
Al3 Rh0 2.469930 1_556
Al3 Os0 2.511391 1_445
Al3 Os2 2.513348 1_555
Al3 Ti1 2.780085 1_555
Al3 Ti3 2.786608 1_555
Al3 Ti5 2.791562 1_455
Al4 Os3 2.485043 1_555
Al4 Os2 2.488791 1_554
Al4 Os1 2.495304 1_555
Al4 Ti0 2.728451 1_555
Al4 Ti5 2.734116 1_555
Al4 Ti4 2.801870 1_555
Al5 Rh1 2.502241 1_555
Al5 Rh0 2.504594 1_656
Al5 Os3 2.541680 1_555
Al5 Ti5 2.793077 1_555
Al5 Ti4 2.796818 1_555
Al5 Ti3 2.809712 1_655
Al6 Rh1 2.475835 1_544
Al6 Os0 2.520754 1_545
Al6 Os1 2.539623 1_555
Al6 Ti5 2.737797 1_555
Al6 Ti0 2.763168 1_555
Al6 Ti1 2.818572 1_655
Al7 Rh0 2.470637 1_655
Al7 Os0 2.512390 1_555
Al7 Os2 2.524393 1_554
Al7 Ti4 2.740224 1_555
Al7 Ti0 2.760305 1_555
Al7 Ti2 2.820875 1_655
Al8 Os3 2.493300 1_555
Al8 Os1 2.500291 1_566
Al8 Os2 2.509082 1_555
Al8 Ti3 2.721699 1_555
Al8 Ti1 2.735318 1_555
Al8 Ti2 2.770213 1_555
Al9 Rh2 2.562004 1_545
Al9 Os3 2.652878 1_555
Al9 Rh1 2.658116 1_444
Al9 Os1 2.672862 1_555
Al9 Ti5 2.812641 1_555
Al9 Ti3 2.844807 1_544
Al9 Ti1 2.846975 1_555
Al10 Rh2 2.550413 1_545
Al10 Rh0 2.652291 1_656
Al10 Os0 2.664259 1_545
Al10 Rh1 2.672767 1_545
Al10 Ti4 2.863779 1_545
Al10 Ti5 2.870863 1_555
Al10 Ti0 2.902201 1_556
Al11 Rh2 2.578118 1_555
Al11 Os2 2.655044 1_554
Al11 Os0 2.661209 1_555
Al11 Os1 2.676803 1_565
Al11 Ti5 2.813131 1_565
Al11 Ti3 2.818984 1_554
Al11 Ti4 2.826800 1_555
Al12 Rh2 2.571891 1_545
Al12 Rh0 2.659963 1_656
Al12 Os2 2.668854 1_555
Al12 Os3 2.680211 1_555
Al12 Ti1 2.832224 1_555
Al12 Ti5 2.876122 1_555
Al12 Ti0 2.878450 1_556
Al13 Rh2 2.573756 1_555
Al13 Rh1 2.651938 1_555
Al13 Os3 2.662935 1_555
Al13 Os1 2.672007 1_566
Al13 Ti2 2.884068 1_555
Al13 Ti0 2.891626 1_566
Al13 Ti4 2.921276 1_555
Al14 Rh2 2.562343 1_555
Al14 Rh0 2.661366 1_555
Al14 Os0 2.672084 1_455
Al14 Rh1 2.672621 1_454
Al14 Ti1 2.944861 1_565
Al14 Ti2 2.957846 1_555
Al14 Ti3 2.963190 1_554
Os0 Ti6 2.645784 1_665
Os0 Ti4 2.965942 1_555
Os0 Ti2 3.069971 1_655
Os0 Ti5 3.071974 1_565
Os0 Ti1 3.169309 1_665
Os1 Ti6 2.661626 1_554
Os1 Ti3 2.957606 1_544
Os1 Ti5 2.997791 1_555
Os1 Ti2 3.026528 1_544
Os1 Ti0 3.030615 1_555
Os2 Ti6 2.638476 1_555
Os2 Ti7 2.640131 1_556
Os2 Ti0 3.031079 1_556
Os2 Ti1 3.041634 1_555
Os2 Ti3 3.048991 1_555
Os2 Ti4 3.074270 1_556
Os3 Ti7 2.640266 1_555
Os3 Ti1 2.967464 1_555
Os3 Ti2 3.057987 1_555
Os3 Ti5 3.076244 1_555
Os3 Ti4 3.158538 1_555
Rh0 Ti7 2.682117 1_555
Rh0 Ti0 3.103577 1_455
Rh0 Ti5 3.159933 1_454
Rh0 Ti2 3.164151 1_555
Rh0 Ti3 3.171974 1_554
Rh1 Ti4 3.098071 1_555
Rh1 Ti3 3.101574 1_655
Rh1 Ti0 3.102474 1_566
Rh1 Ti1 3.142358 1_666
Rh2 Ti7 2.562806 1_555
Rh2 Ti6 2.586596 1_565
