# generated using pymatgen
data_Ni3(BiSe)2
_symmetry_space_group_name_H-M   'P 1'
_cell_length_a   6.93853334
_cell_length_b   6.93853334
_cell_length_c   8.10842258
_cell_angle_alpha   56.59389839
_cell_angle_beta   56.59389839
_cell_angle_gamma   72.36530509
_symmetry_Int_Tables_number   1
_chemical_formula_structural   Ni3(BiSe)2
_chemical_formula_sum   'Ni6 Bi4 Se4'
_cell_volume   272.03538572
_cell_formula_units_Z   2
loop_
 _symmetry_equiv_pos_site_id
 _symmetry_equiv_pos_as_xyz
  1  'x, y, z'
loop_
 _atom_site_type_symbol
 _atom_site_label
 _atom_site_symmetry_multiplicity
 _atom_site_fract_x
 _atom_site_fract_y
 _atom_site_fract_z
 _atom_site_occupancy
  Ni  Ni0  1  0.27801477  0.72198523  0.50000000  1
  Ni  Ni1  1  0.72198523  0.27801477  0.50000000  1
  Ni  Ni2  1  0.98086207  0.98086207  0.79381403  1
  Ni  Ni3  1  0.01913793  0.01913793  0.20618597  1
  Ni  Ni4  1  -0.00000000  0.50000000  0.50000000  1
  Ni  Ni5  1  0.50000000  -0.00000000  0.50000000  1
  Bi  Bi0  1  0.79019232  0.79019232  0.69102880  1
  Bi  Bi1  1  0.20980768  0.20980768  0.30897120  1
  Bi  Bi2  1  0.74940724  0.74940724  0.25978408  1
  Bi  Bi3  1  0.25059276  0.25059276  0.74021592  1
  Se  Se0  1  0.25539816  0.69537628  0.80470123  1
  Se  Se1  1  0.30462372  0.74460184  0.19529877  1
  Se  Se2  1  0.74460184  0.30462372  0.19529877  1
  Se  Se3  1  0.69537628  0.25539816  0.80470123  1
loop_
_geom_bond_atom_site_label_1
_geom_bond_atom_site_label_2
_geom_bond_distance
_geom_bond_site_symmetry_2
Ni0 Se0 2.291540 1_555
Ni0 Se1 2.291540 1_555
Ni1 Se3 2.291540 1_555
Ni1 Se2 2.291540 1_555
Ni2 Se3 2.294893 1_565
Ni2 Se0 2.294893 1_655
Ni3 Se2 2.294893 1_455
Ni3 Se1 2.294893 1_545
Ni4 Se1 2.293040 1_555
Ni4 Se3 2.293040 1_455
Ni5 Se2 2.293040 1_555
Ni5 Se0 2.293040 1_545
Bi0 Ni2 2.771963 1_555
Bi0 Ni4 2.783521 1_655
Bi0 Ni5 2.783521 1_565
Bi0 Ni1 2.853670 1_565
Bi0 Ni0 2.853670 1_655
Bi0 Ni3 2.877106 1_665
Bi1 Ni3 2.771963 1_555
Bi1 Ni4 2.783521 1_555
Bi1 Ni5 2.783521 1_555
Bi1 Ni1 2.853670 1_455
Bi1 Ni0 2.853670 1_545
Bi1 Ni2 2.877106 1_445
Bi2 Ni1 2.735307 1_555
Bi2 Ni0 2.735307 1_555
Bi2 Ni3 2.743200 1_665
Bi2 Ni2 2.762857 1_554
Bi2 Ni4 2.829541 1_655
Bi2 Ni5 2.829541 1_565
Bi3 Ni1 2.735307 1_555
Bi3 Ni0 2.735307 1_555
Bi3 Ni2 2.743200 1_445
Bi3 Ni3 2.762857 1_556
Bi3 Ni4 2.829541 1_555
Bi3 Ni5 2.829541 1_555
