# generated using pymatgen
data_Zn3P6BrN12
_symmetry_space_group_name_H-M   'P 1'
_cell_length_a   7.14657958
_cell_length_b   7.14657937
_cell_length_c   7.14657869
_cell_angle_alpha   109.41233233
_cell_angle_beta   109.41233167
_cell_angle_gamma   109.41231284
_symmetry_Int_Tables_number   1
_chemical_formula_structural   Zn3P6BrN12
_chemical_formula_sum   'Zn3 P6 Br1 N12'
_cell_volume   281.58929198
_cell_formula_units_Z   1
loop_
 _symmetry_equiv_pos_site_id
 _symmetry_equiv_pos_as_xyz
  1  'x, y, z'
loop_
 _atom_site_type_symbol
 _atom_site_label
 _atom_site_symmetry_multiplicity
 _atom_site_fract_x
 _atom_site_fract_y
 _atom_site_fract_z
 _atom_site_occupancy
  Zn  Zn0  1  0.00026639  0.36782489  0.00026639  1
  Zn  Zn1  1  0.00026639  0.00026639  0.36782489  1
  Zn  Zn2  1  0.36782489  0.00026639  0.00026639  1
  P  P0  1  0.49813855  0.25244722  0.74759470  1
  P  P1  1  0.25244722  0.74759470  0.49813855  1
  P  P2  1  0.74759470  0.49813855  0.25244722  1
  P  P3  1  0.74759470  0.25244722  0.49813855  1
  P  P4  1  0.49813855  0.74759470  0.25244722  1
  P  P5  1  0.25244722  0.49813855  0.74759470  1
  Br  Br0  1  0.01892614  0.01892614  0.01892614  1
  N  N0  1  0.43856546  0.71815685  0.43856546  1
  N  N1  1  0.71815685  0.43856546  0.43856546  1
  N  N2  1  0.43856546  0.43856546  0.71815685  1
  N  N3  1  0.72320744  0.27613394  0.72320744  1
  N  N4  1  0.99847892  0.55622103  0.27455787  1
  N  N5  1  0.27455787  0.55622103  0.99847892  1
  N  N6  1  0.27455787  0.99847892  0.55622103  1
  N  N7  1  0.99847892  0.27455787  0.55622103  1
  N  N8  1  0.72320744  0.72320744  0.27613394  1
  N  N9  1  0.55622103  0.99847892  0.27455787  1
  N  N10  1  0.27613394  0.72320744  0.72320744  1
  N  N11  1  0.55622103  0.27455787  0.99847892  1
loop_
_geom_bond_atom_site_label_1
_geom_bond_atom_site_label_2
_geom_bond_distance
_geom_bond_site_symmetry_2
Br0 Zn1 2.585151 1_555
Br0 Zn0 2.585151 1_555
Br0 Zn2 2.585151 1_555
N0 P4 1.580381 1_555
N0 P1 1.580381 1_555
N1 P2 1.580381 1_555
N1 P3 1.580381 1_555
N2 P0 1.580381 1_555
N2 P5 1.580381 1_555
N3 P3 1.634374 1_555
N3 P0 1.634374 1_555
N3 Zn0 1.984790 1_656
N4 P2 1.638701 1_555
N4 P1 1.639319 1_655
N4 Zn0 1.982216 1_655
N5 P5 1.638701 1_555
N5 P4 1.639319 1_556
N5 Zn0 1.982217 1_556
N6 P1 1.638701 1_555
N6 P0 1.639319 1_565
N6 Zn1 1.982216 1_565
N7 P3 1.638701 1_555
N7 P5 1.639319 1_655
N7 Zn1 1.982216 1_655
N8 P2 1.634374 1_555
N8 P4 1.634374 1_555
N8 Zn1 1.984791 1_665
N9 P4 1.638701 1_555
N9 P3 1.639319 1_565
N9 Zn2 1.982216 1_565
N10 P1 1.634374 1_555
N10 P5 1.634374 1_555
N10 Zn2 1.984790 1_566
N11 P0 1.638701 1_555
N11 P2 1.639319 1_556
N11 Zn2 1.982216 1_556
