# generated using pymatgen
data_Cs2Al2SeS3
_symmetry_space_group_name_H-M   'P 1'
_cell_length_a   5.84438936
_cell_length_b   7.33492319
_cell_length_c   7.30765398
_cell_angle_alpha   117.14525025
_cell_angle_beta   100.59512190
_cell_angle_gamma   102.32270691
_symmetry_Int_Tables_number   1
_chemical_formula_structural   Cs2Al2SeS3
_chemical_formula_sum   'Cs2 Al2 Se1 S3'
_cell_volume   257.69339577
_cell_formula_units_Z   1
loop_
 _symmetry_equiv_pos_site_id
 _symmetry_equiv_pos_as_xyz
  1  'x, y, z'
loop_
 _atom_site_type_symbol
 _atom_site_label
 _atom_site_symmetry_multiplicity
 _atom_site_fract_x
 _atom_site_fract_y
 _atom_site_fract_z
 _atom_site_occupancy
  Cs  Cs0  1  0.23803319  0.35898256  0.65016958  1
  Cs  Cs1  1  0.74881371  0.63645945  0.34485503  1
  Al  Al0  1  0.25047796  0.99874347  0.00695422  1
  Al  Al1  1  0.75611602  0.00396056  0.00213209  1
  Se  Se0  1  0.41076042  0.92407425  0.71121160  1
  S  S0  1  0.10063559  0.27574814  0.09095174  1
  S  S1  1  0.58805509  0.07382323  0.26997630  1
  S  S2  1  0.90710802  0.72820635  0.92374942  1
loop_
_geom_bond_atom_site_label_1
_geom_bond_atom_site_label_2
_geom_bond_distance
_geom_bond_site_symmetry_2
Cs0 S2 3.713353 1_455
Cs0 Se0 3.728494 1_545
Cs0 S0 3.732196 1_556
Cs0 S1 3.734842 1_455
Cs0 S0 3.744998 1_555
Cs0 S2 3.779748 1_555
Cs0 Se0 3.841818 1_555
Cs0 S1 3.859061 1_555
Cs1 S2 3.667332 1_554
Cs1 S0 3.667562 1_555
Cs1 S0 3.730449 1_655
Cs1 Se0 3.753917 1_555
Cs1 Se0 3.760132 1_655
Cs1 S1 3.764683 1_565
Cs1 S1 3.782692 1_555
Cs1 S2 3.860314 1_555
Al0 S1 2.250773 1_565
Al0 S2 2.255036 1_454
Al0 S0 2.256337 1_565
Al0 Se0 2.394070 1_554
Al1 S1 2.250552 1_555
Al1 S0 2.252793 1_655
Al1 S2 2.255756 1_544
Al1 Se0 2.391114 1_544
