# generated using pymatgen
data_RbIF8
_symmetry_space_group_name_H-M   'P 1'
_cell_length_a   7.49403029
_cell_length_b   7.49403029
_cell_length_c   5.03166207
_cell_angle_alpha   90.00000000
_cell_angle_beta   90.00000000
_cell_angle_gamma   90.00000000
_symmetry_Int_Tables_number   1
_chemical_formula_structural   RbIF8
_chemical_formula_sum   'Rb2 I2 F16'
_cell_volume   282.58060713
_cell_formula_units_Z   2
loop_
 _symmetry_equiv_pos_site_id
 _symmetry_equiv_pos_as_xyz
  1  'x, y, z'
loop_
 _atom_site_type_symbol
 _atom_site_label
 _atom_site_symmetry_multiplicity
 _atom_site_fract_x
 _atom_site_fract_y
 _atom_site_fract_z
 _atom_site_occupancy
  Rb  Rb0  1  0.00000000  0.00000000  0.50000000  1
  Rb  Rb1  1  0.50000000  0.50000000  0.50000000  1
  I  I0  1  0.00000000  0.50000000  0.11158431  1
  I  I1  1  0.50000000  0.00000000  0.88841569  1
  F  F0  1  0.71529871  0.00000000  0.08975063  1
  F  F1  1  0.28470129  0.00000000  0.08975063  1
  F  F2  1  0.50000000  0.21529871  0.08975063  1
  F  F3  1  0.50000000  0.78470129  0.08975063  1
  F  F4  1  0.84842356  0.34842356  0.32027105  1
  F  F5  1  0.84842356  0.65157644  0.32027105  1
  F  F6  1  0.15157644  0.34842356  0.32027105  1
  F  F7  1  0.15157644  0.65157644  0.32027105  1
  F  F8  1  0.65157644  0.84842356  0.67972895  1
  F  F9  1  0.34842356  0.15157644  0.67972895  1
  F  F10  1  0.34842356  0.84842356  0.67972895  1
  F  F11  1  0.65157644  0.15157644  0.67972895  1
  F  F12  1  0.00000000  0.28470129  0.91024937  1
  F  F13  1  0.78470129  0.50000000  0.91024937  1
  F  F14  1  0.21529871  0.50000000  0.91024937  1
  F  F15  1  0.00000000  0.71529871  0.91024937  1
loop_
_geom_bond_atom_site_label_1
_geom_bond_atom_site_label_2
_geom_bond_distance
_geom_bond_site_symmetry_2
F0 I1 1.905126 1_554
F0 Rb0 2.968695 1_655
F1 I1 1.905126 1_554
F1 Rb0 2.968695 1_555
F2 I1 1.905126 1_554
F2 Rb1 2.968695 1_555
F3 I1 1.905126 1_564
F3 Rb1 2.968695 1_555
F4 I0 1.919169 1_655
F4 Rb0 2.987634 1_655
F4 Rb1 2.987634 1_555
F5 I0 1.919169 1_655
F5 Rb1 2.987634 1_555
F5 Rb0 2.987634 1_665
F6 I0 1.919169 1_555
F6 Rb0 2.987634 1_555
F6 Rb1 2.987634 1_555
F7 I0 1.919169 1_555
F7 Rb0 2.987634 1_565
F7 Rb1 2.987634 1_555
F8 I1 1.919169 1_565
F8 Rb1 2.987634 1_555
F8 Rb0 2.987634 1_665
F9 I1 1.919169 1_555
F9 Rb0 2.987634 1_555
F9 Rb1 2.987634 1_555
F10 I1 1.919169 1_565
F10 Rb0 2.987634 1_565
F10 Rb1 2.987634 1_555
F11 I1 1.919169 1_555
F11 Rb0 2.987634 1_655
F11 Rb1 2.987634 1_555
F12 I0 1.905126 1_556
F12 Rb0 2.968695 1_555
F13 I0 1.905126 1_656
F13 Rb1 2.968695 1_555
F14 I0 1.905126 1_556
F14 Rb1 2.968695 1_555
F15 I0 1.905126 1_556
F15 Rb0 2.968695 1_565
