# generated using pymatgen
data_Nb6Si5Mo6P
_symmetry_space_group_name_H-M   'P 1'
_cell_length_a   7.67692865
_cell_length_b   7.68016091
_cell_length_c   7.67690308
_cell_angle_alpha   126.47598458
_cell_angle_beta   128.48012203
_cell_angle_gamma   77.47349673
_symmetry_Int_Tables_number   1
_chemical_formula_structural   Nb6Si5Mo6P
_chemical_formula_sum   'Nb6 Si5 Mo6 P1'
_cell_volume   276.37196302
_cell_formula_units_Z   1
loop_
 _symmetry_equiv_pos_site_id
 _symmetry_equiv_pos_as_xyz
  1  'x, y, z'
loop_
 _atom_site_type_symbol
 _atom_site_label
 _atom_site_symmetry_multiplicity
 _atom_site_fract_x
 _atom_site_fract_y
 _atom_site_fract_z
 _atom_site_occupancy
  Nb  Nb0  1  0.54780746  0.09226040  0.04445294  1
  Nb  Nb1  1  0.45040659  0.49716249  0.54675990  1
  Nb  Nb2  1  0.95222646  0.49694781  0.04472635  1
  Nb  Nb3  1  0.04959544  0.09607535  0.54648391  1
  Nb  Nb4  1  0.75014342  0.90018922  0.65004480  1
  Nb  Nb5  1  0.25012332  0.89844904  0.14832272  1
  Si  Si0  1  0.24990886  0.49673884  0.74682798  1
  Si  Si1  1  0.33305747  0.83020748  0.49647497  1
  Si  Si2  1  0.66633873  0.16354341  0.49644991  1
  Si  Si3  1  0.83373351  0.83020848  0.99715401  1
  Si  Si4  1  0.16709350  0.16354241  0.99720768  1
  Mo  Mo0  1  0.50457595  0.24198338  0.74665374  1
  Mo  Mo1  1  0.99532764  0.24197938  0.23740442  1
  Mo  Mo2  1  0.12294336  0.75145608  0.61980253  1
  Mo  Mo3  1  0.86814478  0.49670979  0.61972725  1
  Mo  Mo4  1  0.63165355  0.75145708  0.12851172  1
  Mo  Mo5  1  0.37697855  0.49670579  0.12855701  1
  P  P0  1  0.74994042  0.49658256  0.24663815  1
loop_
_geom_bond_atom_site_label_1
_geom_bond_atom_site_label_2
_geom_bond_distance
_geom_bond_site_symmetry_2
Nb0 Si2 2.682572 1_555
Nb0 Si4 2.682590 1_554
Nb0 Si3 2.684634 1_544
Nb0 Si1 2.684638 1_544
Nb0 P0 2.796769 1_555
Nb1 Si2 2.690714 1_555
Nb1 Si4 2.690726 1_554
Nb1 Si1 2.691614 1_555
Nb1 Si3 2.691618 1_555
Nb1 Si0 2.770981 1_555
Nb2 Si1 2.683256 1_655
Nb2 Si3 2.683257 1_554
Nb2 Si4 2.686399 1_654
Nb2 Si2 2.686418 1_554
Nb2 P0 2.795891 1_555
Nb3 Si3 2.689312 1_444
Nb3 Si1 2.689317 1_545
Nb3 Si2 2.691033 1_455
Nb3 Si4 2.691033 1_555
Nb3 Si0 2.771534 1_555
Nb4 Si2 2.687423 1_565
Nb4 Si4 2.687434 1_665
Nb4 Si1 2.688218 1_555
Nb4 Si3 2.688230 1_555
Nb4 P0 2.789575 1_555
Nb5 Si4 2.687434 1_564
Nb5 Si2 2.687485 1_565
Nb5 Si1 2.688231 1_555
Nb5 Si3 2.688236 1_454
Nb5 Si0 2.776368 1_554
Mo0 P0 2.404316 1_556
Mo0 Si0 2.447702 1_555
Mo0 Si1 2.619423 1_545
Mo0 Si2 2.619673 1_555
Mo0 Nb4 2.876354 1_545
Mo0 Nb5 2.921602 1_545
Mo0 Nb0 2.945311 1_556
Mo0 Nb2 2.947167 1_556
Mo0 Nb3 2.964445 1_555
Mo0 Nb1 2.965939 1_555
Mo1 P0 2.404342 1_555
Mo1 Si0 2.447709 1_655
Mo1 Si3 2.619398 1_544
Mo1 Si4 2.619654 1_654
Mo1 Nb4 2.876344 1_544
Mo1 Nb5 2.921575 1_645
Mo1 Nb0 2.945311 1_555
Mo1 Nb2 2.947148 1_555
Mo1 Nb3 2.964435 1_655
Mo1 Nb1 2.965988 1_655
Mo2 P0 2.406964 1_455
Mo2 Si0 2.446661 1_555
Mo2 Si4 2.620410 1_565
Mo2 Si1 2.620811 1_555
Mo2 Nb3 2.892994 1_565
Mo2 Nb0 2.905563 1_566
Mo2 Nb4 2.939899 1_455
Mo2 Nb2 2.946072 1_455
Mo2 Nb1 2.961573 1_555
Mo2 Nb5 2.965178 1_556
Mo3 P0 2.406130 1_555
Mo3 Si0 2.445958 1_655
Mo3 Si2 2.618945 1_555
Mo3 Si3 2.619307 1_555
Mo3 Nb1 2.891395 1_555
Mo3 Nb2 2.904174 1_556
Mo3 Nb4 2.943545 1_555
Mo3 Nb0 2.947459 1_555
Mo3 Nb3 2.963538 1_655
Mo3 Nb5 2.969048 1_656
Mo4 P0 2.406945 1_555
Mo4 Si0 2.446686 1_554
Mo4 Si2 2.620405 1_565
Mo4 Si3 2.620783 1_554
Mo4 Nb3 2.893018 1_665
Mo4 Nb0 2.905536 1_565
Mo4 Nb4 2.939898 1_555
Mo4 Nb2 2.946094 1_555
Mo4 Nb1 2.961548 1_554
Mo4 Nb5 2.965200 1_555
Mo5 P0 2.406130 1_555
Mo5 Si0 2.445929 1_554
Mo5 Si4 2.618955 1_554
Mo5 Si1 2.619318 1_555
Mo5 Nb1 2.891426 1_555
Mo5 Nb2 2.904162 1_455
Mo5 Nb4 2.943586 1_555
Mo5 Nb0 2.947444 1_555
Mo5 Nb3 2.963494 1_554
Mo5 Nb5 2.969050 1_555
