# generated using pymatgen
data_CdOs3Pb4O13
_symmetry_space_group_name_H-M   'P 1'
_cell_length_a   7.47286582
_cell_length_b   7.47286492
_cell_length_c   7.47286353
_cell_angle_alpha   59.37297584
_cell_angle_beta   59.37298056
_cell_angle_gamma   59.37298145
_symmetry_Int_Tables_number   1
_chemical_formula_structural   CdOs3Pb4O13
_chemical_formula_sum   'Cd1 Os3 Pb4 O13'
_cell_volume   290.87330888
_cell_formula_units_Z   1
loop_
 _symmetry_equiv_pos_site_id
 _symmetry_equiv_pos_as_xyz
  1  'x, y, z'
loop_
 _atom_site_type_symbol
 _atom_site_label
 _atom_site_symmetry_multiplicity
 _atom_site_fract_x
 _atom_site_fract_y
 _atom_site_fract_z
 _atom_site_occupancy
  Cd  Cd0  1  0.50057787  0.50057787  0.50057787  1
  Os  Os0  1  0.00055458  0.50022382  0.50022382  1
  Os  Os1  1  0.50022382  0.50022382  0.00055458  1
  Os  Os2  1  0.50022382  0.00055458  0.50022382  1
  Pb  Pb0  1  0.99919584  0.99919584  0.99919584  1
  Pb  Pb1  1  0.50354655  0.00466622  0.00466622  1
  Pb  Pb2  1  0.00466622  0.00466622  0.50354655  1
  Pb  Pb3  1  0.00466622  0.50354655  0.00466622  1
  O  O0  1  0.87251522  0.40652919  0.40652919  1
  O  O1  1  0.41030194  0.81009472  0.81009472  1
  O  O2  1  0.40652919  0.40652919  0.87251522  1
  O  O3  1  0.81009472  0.81009472  0.41030194  1
  O  O4  1  0.81009472  0.41030194  0.81009472  1
  O  O5  1  0.40652919  0.87251522  0.40652919  1
  O  O6  1  0.13311862  0.58743999  0.58743999  1
  O  O7  1  0.58690427  0.18950868  0.18950868  1
  O  O8  1  0.58743999  0.58743999  0.13311862  1
  O  O9  1  0.18950868  0.18950868  0.58690427  1
  O  O10  1  0.18950868  0.58690427  0.18950868  1
  O  O11  1  0.58743999  0.13311862  0.58743999  1
  O  O12  1  0.12135785  0.12135785  0.12135785  1
loop_
_geom_bond_atom_site_label_1
_geom_bond_atom_site_label_2
_geom_bond_distance
_geom_bond_site_symmetry_2
Cd0 O8 2.275989 1_555
Cd0 O11 2.275990 1_555
Cd0 O6 2.275990 1_555
Cd0 O2 2.288181 1_555
Cd0 O5 2.288182 1_555
Cd0 O0 2.288182 1_555
O0 Os0 1.939241 1_655
O0 Pb3 2.451269 1_655
O0 Pb2 2.451270 1_655
O1 Os2 1.967326 1_565
O1 Os1 1.967326 1_556
O1 Pb0 2.572909 1_455
O2 Os1 1.939241 1_556
O2 Pb1 2.451270 1_556
O2 Pb3 2.451270 1_556
O3 Os0 1.967327 1_655
O3 Os2 1.967327 1_565
O3 Pb0 2.572908 1_554
O4 Os0 1.967326 1_655
O4 Os1 1.967327 1_556
O4 Pb0 2.572908 1_545
O5 Os2 1.939241 1_565
O5 Pb1 2.451269 1_565
O5 Pb2 2.451270 1_565
O6 Os0 1.891938 1_555
O6 Pb3 2.570551 1_556
O6 Pb2 2.570552 1_565
O7 Os2 1.965620 1_555
O7 Os1 1.965621 1_555
O7 Pb0 2.582540 1_544
O8 Os1 1.891938 1_555
O8 Pb1 2.570552 1_565
O8 Pb3 2.570552 1_655
O9 Os0 1.965621 1_555
O9 Os2 1.965621 1_555
O9 Pb0 2.582539 1_445
O10 Os0 1.965621 1_555
O10 Os1 1.965621 1_555
O10 Pb0 2.582540 1_454
O11 Os2 1.891938 1_555
O11 Pb1 2.570551 1_556
O11 Pb2 2.570552 1_655
O12 Pb0 2.246678 1_444
O12 Pb2 2.318931 1_555
O12 Pb3 2.318932 1_555
O12 Pb1 2.318932 1_555
