# generated using pymatgen
data_Ti6GaGeN2
_symmetry_space_group_name_H-M   'P 1'
_cell_length_a   5.49453207
_cell_length_b   5.49453242
_cell_length_c   8.16017510
_cell_angle_alpha   90.00000000
_cell_angle_beta   90.00000000
_cell_angle_gamma   146.81967513
_symmetry_Int_Tables_number   1
_chemical_formula_structural   Ti6GaGeN2
_chemical_formula_sum   'Ti6 Ga1 Ge1 N2'
_cell_volume   134.82400229
_cell_formula_units_Z   1
loop_
 _symmetry_equiv_pos_site_id
 _symmetry_equiv_pos_as_xyz
  1  'x, y, z'
loop_
 _atom_site_type_symbol
 _atom_site_label
 _atom_site_symmetry_multiplicity
 _atom_site_fract_x
 _atom_site_fract_y
 _atom_site_fract_z
 _atom_site_occupancy
  Ti  Ti0  1  0.62705518  0.37294182  0.04719147  1
  Ti  Ti1  1  0.95252231  0.04747469  0.25000000  1
  Ti  Ti2  1  0.62705518  0.37294182  0.45280753  1
  Ti  Ti3  1  0.37389822  0.62609878  0.54369743  1
  Ti  Ti4  1  0.04447235  0.95552465  0.75000000  1
  Ti  Ti5  1  0.37389822  0.62609878  0.95630157  1
  Ga  Ga0  1  0.74667300  0.25332300  0.75000000  1
  Ge  Ge0  1  0.25406669  0.74592931  0.25000000  1
  N  N0  1  0.00017192  0.99982808  0.00076807  1
  N  N1  1  0.00017192  0.99982808  0.49923193  1
loop_
_geom_bond_atom_site_label_1
_geom_bond_atom_site_label_2
_geom_bond_distance
_geom_bond_site_symmetry_2
Ga0 Ti4 2.644990 1_545
Ga0 Ti4 2.644992 1_655
Ga0 Ti5 2.662799 1_545
Ga0 Ti5 2.662801 1_655
Ga0 Ti3 2.662804 1_545
Ga0 Ti3 2.662806 1_655
Ga0 Ti0 2.732820 1_556
Ga0 Ti2 2.732827 1_555
Ge0 Ti1 2.613332 1_455
Ge0 Ti1 2.613334 1_565
Ge0 Ti2 2.643731 1_455
Ge0 Ti2 2.643733 1_565
Ge0 Ti0 2.643736 1_455
Ge0 Ti0 2.643739 1_565
Ge0 Ti3 2.708593 1_555
Ge0 Ti5 2.708600 1_554
N0 Ti5 2.088383 1_564
N0 Ti5 2.088390 1_454
N0 Ti1 2.094770 1_465
N0 Ti0 2.095325 1_565
N0 Ti0 2.095332 1_455
N0 Ti4 2.098828 1_554
N1 Ti3 2.088382 1_565
N1 Ti3 2.088388 1_455
N1 Ti1 2.094770 1_465
N1 Ti2 2.095326 1_565
N1 Ti2 2.095334 1_455
N1 Ti4 2.098828 1_555
