# generated using pymatgen
data_Ni3PtW
_symmetry_space_group_name_H-M   'P 1'
_cell_length_a   4.58832262
_cell_length_b   4.58832242
_cell_length_c   4.45585045
_cell_angle_alpha   99.83210178
_cell_angle_beta   98.62859989
_cell_angle_gamma   133.50920519
_symmetry_Int_Tables_number   1
_chemical_formula_structural   Ni3PtW
_chemical_formula_sum   'Ni3 Pt1 W1'
_cell_volume   62.15871408
_cell_formula_units_Z   1
loop_
 _symmetry_equiv_pos_site_id
 _symmetry_equiv_pos_as_xyz
  1  'x, y, z'
loop_
 _atom_site_type_symbol
 _atom_site_label
 _atom_site_symmetry_multiplicity
 _atom_site_fract_x
 _atom_site_fract_y
 _atom_site_fract_z
 _atom_site_occupancy
  Ni  Ni0  1  0.60664382  0.79129460  0.39793742  1
  Ni  Ni1  1  0.39297842  0.19839017  0.59136859  1
  Ni  Ni2  1  0.79667878  0.40800395  0.20468173  1
  Pt  Pt0  1  0.19825822  0.60039858  0.79865780  1
  W  W0  1  0.00544075  0.00191270  0.00735446  1
loop_
_geom_bond_atom_site_label_1
_geom_bond_atom_site_label_2
_geom_bond_distance
_geom_bond_site_symmetry_2
Ni0 W0 2.531033 1_665
Ni0 W0 2.531038 1_555
Ni0 Ni2 2.532638 1_555
Ni0 Ni1 2.546909 1_665
Ni0 Ni1 2.546911 1_555
Ni0 Pt0 2.597044 1_665
Ni0 Pt0 2.597049 1_555
Ni0 W0 2.614172 1_666
Ni0 Pt0 2.617015 1_554
Ni0 Ni2 2.677487 1_565
Ni0 Ni2 2.677488 1_455
Ni0 Ni1 2.723632 1_565
Ni1 W0 2.519820 1_555
Ni1 Ni2 2.528917 1_445
Ni1 Ni2 2.528919 1_555
Ni1 W0 2.600507 1_666
Ni1 W0 2.600509 1_556
Ni1 Pt0 2.630089 1_655
Ni1 Pt0 2.630091 1_545
Ni1 Ni2 2.637203 1_556
Ni1 Pt0 2.643605 1_555
Ni2 W0 2.567752 1_665
Ni2 W0 2.567758 1_555
Ni2 Pt0 2.584243 1_655
Ni2 Pt0 2.598753 1_654
Ni2 Pt0 2.598759 1_544
Ni2 W0 2.704281 1_655
Pt0 W0 2.635804 1_566
Pt0 W0 2.638559 1_556
Pt0 W0 2.638560 1_666
