# generated using pymatgen
data_Lu6MnB14Os
_symmetry_space_group_name_H-M   'P 1'
_cell_length_a   7.84508887
_cell_length_b   7.84508805
_cell_length_c   9.13648562
_cell_angle_alpha   90.00000000
_cell_angle_beta   90.00000000
_cell_angle_gamma   154.83292221
_symmetry_Int_Tables_number   1
_chemical_formula_structural   Lu6MnB14Os
_chemical_formula_sum   'Lu6 Mn1 B14 Os1'
_cell_volume   239.12704202
_cell_formula_units_Z   1
loop_
 _symmetry_equiv_pos_site_id
 _symmetry_equiv_pos_as_xyz
  1  'x, y, z'
loop_
 _atom_site_type_symbol
 _atom_site_label
 _atom_site_symmetry_multiplicity
 _atom_site_fract_x
 _atom_site_fract_y
 _atom_site_fract_z
 _atom_site_occupancy
  Lu  Lu0  1  0.89428391  0.10571609  0.44481688  1
  Lu  Lu1  1  0.10497442  0.89502558  0.56243352  1
  Lu  Lu2  1  0.89428391  0.10571609  0.05518312  1
  Lu  Lu3  1  0.10497442  0.89502558  0.93756648  1
  Lu  Lu4  1  0.24466979  0.75533021  0.25000000  1
  Lu  Lu5  1  0.75915544  0.24084456  0.75000000  1
  Mn  Mn0  1  0.94748704  0.05251296  0.75000000  1
  B  B0  1  0.72776003  0.27223997  0.46555384  1
  B  B1  1  0.27202620  0.72797380  0.53518148  1
  B  B2  1  0.72776003  0.27223997  0.03444616  1
  B  B3  1  0.27202620  0.72797380  0.96481852  1
  B  B4  1  0.63211418  0.36788582  0.14935170  1
  B  B5  1  0.36968381  0.63031619  0.84721953  1
  B  B6  1  0.63211418  0.36788582  0.35064830  1
  B  B7  1  0.36968381  0.63031619  0.65278047  1
  B  B8  1  0.51865912  0.48134088  0.09418249  1
  B  B9  1  0.47993605  0.52006395  0.90235350  1
  B  B10  1  0.51865912  0.48134088  0.40581751  1
  B  B11  1  0.47993605  0.52006395  0.59764650  1
  B  B12  1  0.45155924  0.54844076  0.25000000  1
  B  B13  1  0.54519604  0.45480396  0.75000000  1
  Os  Os0  1  0.05305402  0.94694598  0.25000000  1
loop_
_geom_bond_atom_site_label_1
_geom_bond_atom_site_label_2
_geom_bond_distance
_geom_bond_site_symmetry_2
Lu4 Os0 2.934268 1_555
B0 B6 1.802042 1_555
B0 B1 1.945608 1_545
B0 B1 1.945608 1_655
B0 Lu0 2.557057 1_555
B0 Lu4 2.620460 1_545
B0 Lu4 2.620460 1_655
B0 Lu5 2.642933 1_555
B0 Lu1 2.690729 1_655
B0 Lu1 2.690729 1_545
B1 B7 1.841419 1_555
B1 Lu1 2.570201 1_555
B1 Lu5 2.610017 1_565
B1 Lu5 2.610017 1_455
B1 Lu4 2.639018 1_555
B1 Lu0 2.666056 1_455
B1 Lu0 2.666057 1_565
B2 B4 1.802042 1_555
B2 B3 1.945608 1_544
B2 B3 1.945608 1_654
B2 Lu2 2.557057 1_555
B2 Lu4 2.620460 1_545
B2 Lu4 2.620460 1_655
B2 Lu5 2.642933 1_554
B2 Lu3 2.690729 1_654
B2 Lu3 2.690729 1_544
B3 B5 1.841419 1_555
B3 Lu3 2.570201 1_555
B3 Lu5 2.610017 1_565
B3 Lu5 2.610017 1_455
B3 Lu4 2.639018 1_556
B3 Lu2 2.666056 1_456
B3 Lu2 2.666057 1_566
B4 B8 1.809012 1_555
B4 B6 1.839143 1_555
B4 Os0 2.287475 1_655
B4 Os0 2.287475 1_545
B4 Lu4 2.595689 1_545
B4 Lu4 2.595690 1_655
B4 Lu3 2.614966 1_654
B4 Lu3 2.614966 1_544
B5 B9 1.761870 1_555
B5 B7 1.776490 1_555
B5 Mn0 2.264878 1_455
B5 Mn0 2.264879 1_565
B5 Lu5 2.564160 1_565
B5 Lu5 2.564161 1_455
B5 Lu2 2.583279 1_456
B5 Lu2 2.583279 1_566
B6 Os0 2.287475 1_655
B6 Os0 2.287475 1_545
B6 Lu4 2.595689 1_545
B6 Lu4 2.595690 1_655
B6 Lu1 2.614966 1_655
B6 Lu1 2.614966 1_545
B7 Mn0 2.264878 1_455
B7 Mn0 2.264879 1_565
B7 Lu5 2.564160 1_565
B7 Lu5 2.564161 1_455
B7 Lu0 2.583279 1_455
B7 Lu0 2.583279 1_565
B8 B9 1.850238 1_554
B8 Os0 2.285897 1_545
B8 Os0 2.285897 1_655
B8 Lu2 2.583726 1_565
B8 Lu2 2.583727 1_455
B8 Lu3 2.591489 1_544
B8 Lu3 2.591489 1_654
B9 Mn0 2.259582 1_565
B9 Mn0 2.259582 1_455
B9 Lu2 2.567346 1_566
B9 Lu2 2.567347 1_456
B9 Lu3 2.586691 1_545
B9 Lu3 2.586692 1_655
B10 B12 1.755706 1_555
B10 B6 1.809012 1_555
B10 B11 1.850238 1_555
B10 Os0 2.285897 1_545
B10 Os0 2.285897 1_655
B10 Lu0 2.583726 1_565
B10 Lu0 2.583727 1_455
B10 Lu1 2.591489 1_545
B10 Lu1 2.591489 1_655
B11 B13 1.713560 1_555
B11 B7 1.761870 1_555
B11 Mn0 2.259582 1_565
B11 Mn0 2.259582 1_455
B11 Lu0 2.567346 1_565
B11 Lu0 2.567347 1_455
B11 Lu1 2.586691 1_545
B11 Lu1 2.586692 1_655
B12 B8 1.755706 1_555
B12 Os0 2.310152 1_545
B12 Os0 2.310152 1_655
B12 Lu0 2.618903 1_565
B12 Lu2 2.618903 1_565
B12 Lu0 2.618904 1_455
B12 Lu2 2.618904 1_455
B12 Lu4 3.168158 1_555
B13 B9 1.713560 1_555
B13 Mn0 2.271554 1_565
B13 Mn0 2.271554 1_455
B13 Lu3 2.587650 1_545
B13 Lu1 2.587650 1_545
B13 Lu3 2.587650 1_655
B13 Lu1 2.587650 1_655
