# generated using pymatgen
data_BaAlNi5P2
_symmetry_space_group_name_H-M   'P 1'
_cell_length_a   3.79987665
_cell_length_b   3.79987665
_cell_length_c   9.33573449
_cell_angle_alpha   90.00000000
_cell_angle_beta   90.00000000
_cell_angle_gamma   90.00000000
_symmetry_Int_Tables_number   1
_chemical_formula_structural   BaAlNi5P2
_chemical_formula_sum   'Ba1 Al1 Ni5 P2'
_cell_volume   134.79925404
_cell_formula_units_Z   1
loop_
 _symmetry_equiv_pos_site_id
 _symmetry_equiv_pos_as_xyz
  1  'x, y, z'
loop_
 _atom_site_type_symbol
 _atom_site_label
 _atom_site_symmetry_multiplicity
 _atom_site_fract_x
 _atom_site_fract_y
 _atom_site_fract_z
 _atom_site_occupancy
  Ba  Ba0  1  0.50000000  0.50000000  0.50000000  1
  Al  Al0  1  0.50000000  0.50000000  0.00000000  1
  Ni  Ni0  1  0.00000000  0.50000000  0.17157187  1
  Ni  Ni1  1  0.00000000  0.50000000  0.82842813  1
  Ni  Ni2  1  0.50000000  0.00000000  0.17157187  1
  Ni  Ni3  1  0.50000000  0.00000000  0.82842813  1
  Ni  Ni4  1  0.00000000  0.00000000  0.00000000  1
  P  P0  1  0.00000000  0.00000000  0.28621355  1
  P  P1  1  0.00000000  0.00000000  0.71378645  1
loop_
_geom_bond_atom_site_label_1
_geom_bond_atom_site_label_2
_geom_bond_distance
_geom_bond_site_symmetry_2
Ba0 P1 3.347083 1_665
Ba0 P1 3.347083 1_565
Ba0 P1 3.347083 1_555
Ba0 P1 3.347083 1_655
Ba0 P0 3.347083 1_655
Ba0 P0 3.347083 1_665
Ba0 P0 3.347083 1_555
Ba0 P0 3.347083 1_565
Al0 Ni0 2.485029 1_655
Al0 Ni2 2.485029 1_555
Al0 Ni2 2.485029 1_565
Al0 Ni0 2.485029 1_555
Al0 Ni1 2.485029 1_554
Al0 Ni3 2.485029 1_564
Al0 Ni1 2.485029 1_654
Al0 Ni3 2.485029 1_554
Al0 Ni4 2.686919 1_555
Al0 Ni4 2.686919 1_565
Al0 Ni4 2.686919 1_665
Al0 Ni4 2.686919 1_655
Ni0 P0 2.180649 1_555
Ni0 P0 2.180649 1_565
Ni0 Ni4 2.485029 1_565
Ni0 Ni4 2.485029 1_555
Ni1 P1 2.180649 1_565
Ni1 P1 2.180649 1_555
Ni1 Ni4 2.485029 1_566
Ni1 Ni4 2.485029 1_556
Ni2 P0 2.180649 1_655
Ni2 P0 2.180649 1_555
Ni2 Ni4 2.485029 1_655
Ni2 Ni4 2.485029 1_555
Ni3 P1 2.180649 1_655
Ni3 P1 2.180649 1_555
Ni3 Ni4 2.485029 1_656
Ni3 Ni4 2.485029 1_556
Ni4 P0 2.672014 1_555
Ni4 P1 2.672014 1_554
