# generated using pymatgen
data_Y11Cd4In5Ni4
_symmetry_space_group_name_H-M   'P 1'
_cell_length_a   26.06824476
_cell_length_b   26.06824596
_cell_length_c   7.19285552
_cell_angle_alpha   90.00000000
_cell_angle_beta   90.00000000
_cell_angle_gamma   112.46178774
_symmetry_Int_Tables_number   1
_chemical_formula_structural   Y11Cd4In5Ni4
_chemical_formula_sum   'Y88 Cd32 In40 Ni32'
_cell_volume   4517.10456835
_cell_formula_units_Z   8
loop_
 _symmetry_equiv_pos_site_id
 _symmetry_equiv_pos_as_xyz
  1  'x, y, z'
loop_
 _atom_site_type_symbol
 _atom_site_label
 _atom_site_symmetry_multiplicity
 _atom_site_fract_x
 _atom_site_fract_y
 _atom_site_fract_z
 _atom_site_occupancy
  Y  Y0_0  1  0.04089682  0.20968511  0.00000000  1
  Y  Y0_1  1  0.04089682  0.20968511  0.50000000  1
  Y  Y0_2  1  0.04089682  0.70968511  0.00000000  1
  Y  Y0_3  1  0.04089682  0.70968511  0.50000000  1
  Y  Y0_4  1  0.54089682  0.20968511  0.00000000  1
  Y  Y0_5  1  0.54089682  0.20968511  0.50000000  1
  Y  Y0_6  1  0.54089682  0.70968511  0.00000000  1
  Y  Y0_7  1  0.54089682  0.70968511  0.50000000  1
  Y  Y1_0  1  0.45910318  0.29031489  0.00000000  1
  Y  Y1_1  1  0.45910318  0.29031489  0.50000000  1
  Y  Y1_2  1  0.45910318  0.79031489  0.00000000  1
  Y  Y1_3  1  0.45910318  0.79031489  0.50000000  1
  Y  Y1_4  1  0.95910318  0.29031489  0.00000000  1
  Y  Y1_5  1  0.95910318  0.29031489  0.50000000  1
  Y  Y1_6  1  0.95910318  0.79031489  0.00000000  1
  Y  Y1_7  1  0.95910318  0.79031489  0.50000000  1
  Y  Y2_0  1  0.20968511  0.04089682  0.00000000  1
  Y  Y2_1  1  0.20968511  0.04089682  0.50000000  1
  Y  Y2_2  1  0.20968511  0.54089682  0.00000000  1
  Y  Y2_3  1  0.20968511  0.54089682  0.50000000  1
  Y  Y2_4  1  0.70968511  0.04089682  0.00000000  1
  Y  Y2_5  1  0.70968511  0.04089682  0.50000000  1
  Y  Y2_6  1  0.70968511  0.54089682  0.00000000  1
  Y  Y2_7  1  0.70968511  0.54089682  0.50000000  1
  Y  Y3_0  1  0.29031489  0.45910318  0.00000000  1
  Y  Y3_1  1  0.29031489  0.45910318  0.50000000  1
  Y  Y3_2  1  0.29031489  0.95910318  0.00000000  1
  Y  Y3_3  1  0.29031489  0.95910318  0.50000000  1
  Y  Y3_4  1  0.79031489  0.45910318  0.00000000  1
  Y  Y3_5  1  0.79031489  0.45910318  0.50000000  1
  Y  Y3_6  1  0.79031489  0.95910318  0.00000000  1
  Y  Y3_7  1  0.79031489  0.95910318  0.50000000  1
  Y  Y4_0  1  0.31343103  0.18656897  0.00000000  1
  Y  Y4_1  1  0.31343103  0.18656897  0.50000000  1
  Y  Y4_2  1  0.31343103  0.68656897  0.00000000  1
  Y  Y4_3  1  0.31343103  0.68656897  0.50000000  1
  Y  Y4_4  1  0.81343103  0.18656897  0.00000000  1
  Y  Y4_5  1  0.81343103  0.18656897  0.50000000  1
  Y  Y4_6  1  0.81343103  0.68656897  0.00000000  1
  Y  Y4_7  1  0.81343103  0.68656897  0.50000000  1
  Y  Y5_0  1  0.18656897  0.31343103  0.00000000  1
  Y  Y5_1  1  0.18656897  0.31343103  0.50000000  1
  Y  Y5_2  1  0.18656897  0.81343103  0.00000000  1
  Y  Y5_3  1  0.18656897  0.81343103  0.50000000  1
  Y  Y5_4  1  0.68656897  0.31343103  0.00000000  1
  Y  Y5_5  1  0.68656897  0.31343103  0.50000000  1
  Y  Y5_6  1  0.68656897  0.81343103  0.00000000  1
  Y  Y5_7  1  0.68656897  0.81343103  0.50000000  1
  Y  Y6_0  1  0.41931516  0.08068484  0.00000000  1
  Y  Y6_1  1  0.41931516  0.08068484  0.50000000  1
  Y  Y6_2  1  0.41931516  0.58068484  0.00000000  1
  Y  Y6_3  1  0.41931516  0.58068484  0.50000000  1
  Y  Y6_4  1  0.91931516  0.08068484  0.00000000  1
  Y  Y6_5  1  0.91931516  0.08068484  0.50000000  1
  Y  Y6_6  1  0.91931516  0.58068484  0.00000000  1
  Y  Y6_7  1  0.91931516  0.58068484  0.50000000  1
  Y  Y7_0  1  0.08068484  0.41931516  0.00000000  1
  Y  Y7_1  1  0.08068484  0.41931516  0.50000000  1
  Y  Y7_2  1  0.08068484  0.91931516  0.00000000  1
  Y  Y7_3  1  0.08068484  0.91931516  0.50000000  1
  Y  Y7_4  1  0.58068484  0.41931516  0.00000000  1
  Y  Y7_5  1  0.58068484  0.41931516  0.50000000  1
  Y  Y7_6  1  0.58068484  0.91931516  0.00000000  1
  Y  Y7_7  1  0.58068484  0.91931516  0.50000000  1
  Y  Y8_0  1  0.00000000  0.00000000  0.00000000  1
  Y  Y8_1  1  0.00000000  0.00000000  0.50000000  1
  Y  Y8_2  1  0.00000000  0.50000000  0.00000000  1
  Y  Y8_3  1  0.00000000  0.50000000  0.50000000  1
  Y  Y8_4  1  0.50000000  0.00000000  0.00000000  1
  Y  Y8_5  1  0.50000000  0.00000000  0.50000000  1
  Y  Y8_6  1  0.50000000  0.50000000  0.00000000  1
  Y  Y8_7  1  0.50000000  0.50000000  0.50000000  1
  Y  Y9_0  1  0.15630082  0.15630082  0.00000000  1
  Y  Y9_1  1  0.15630082  0.15630082  0.50000000  1
  Y  Y9_2  1  0.15630082  0.65630082  0.00000000  1
  Y  Y9_3  1  0.15630082  0.65630082  0.50000000  1
  Y  Y9_4  1  0.65630082  0.15630082  0.00000000  1
  Y  Y9_5  1  0.65630082  0.15630082  0.50000000  1
  Y  Y9_6  1  0.65630082  0.65630082  0.00000000  1
  Y  Y9_7  1  0.65630082  0.65630082  0.50000000  1
  Y  Y10_0  1  0.34369918  0.34369918  0.00000000  1
  Y  Y10_1  1  0.34369918  0.34369918  0.50000000  1
  Y  Y10_2  1  0.34369918  0.84369918  0.00000000  1
  Y  Y10_3  1  0.34369918  0.84369918  0.50000000  1
  Y  Y10_4  1  0.84369918  0.34369918  0.00000000  1
  Y  Y10_5  1  0.84369918  0.34369918  0.50000000  1
  Y  Y10_6  1  0.84369918  0.84369918  0.00000000  1
  Y  Y10_7  1  0.84369918  0.84369918  0.50000000  1
  Cd  Cd0_0  1  0.41990292  0.18314552  0.25000000  1
  Cd  Cd0_1  1  0.41990292  0.18314552  0.75000000  1
  Cd  Cd0_2  1  0.41990292  0.68314552  0.25000000  1
  Cd  Cd0_3  1  0.41990292  0.68314552  0.75000000  1
  Cd  Cd0_4  1  0.91990292  0.18314552  0.25000000  1
  Cd  Cd0_5  1  0.91990292  0.18314552  0.75000000  1
  Cd  Cd0_6  1  0.91990292  0.68314552  0.25000000  1
  Cd  Cd0_7  1  0.91990292  0.68314552  0.75000000  1
  Cd  Cd1_0  1  0.08009708  0.31685448  0.25000000  1
  Cd  Cd1_1  1  0.08009708  0.31685448  0.75000000  1
  Cd  Cd1_2  1  0.08009708  0.81685448  0.25000000  1
  Cd  Cd1_3  1  0.08009708  0.81685448  0.75000000  1
  Cd  Cd1_4  1  0.58009708  0.31685448  0.25000000  1
  Cd  Cd1_5  1  0.58009708  0.31685448  0.75000000  1
  Cd  Cd1_6  1  0.58009708  0.81685448  0.25000000  1
  Cd  Cd1_7  1  0.58009708  0.81685448  0.75000000  1
  Cd  Cd2_0  1  0.18314552  0.41990292  0.25000000  1
  Cd  Cd2_1  1  0.18314552  0.41990292  0.75000000  1
  Cd  Cd2_2  1  0.18314552  0.91990292  0.25000000  1
  Cd  Cd2_3  1  0.18314552  0.91990292  0.75000000  1
  Cd  Cd2_4  1  0.68314552  0.41990292  0.25000000  1
  Cd  Cd2_5  1  0.68314552  0.41990292  0.75000000  1
  Cd  Cd2_6  1  0.68314552  0.91990292  0.25000000  1
  Cd  Cd2_7  1  0.68314552  0.91990292  0.75000000  1
  Cd  Cd3_0  1  0.31685448  0.08009708  0.25000000  1
  Cd  Cd3_1  1  0.31685448  0.08009708  0.75000000  1
  Cd  Cd3_2  1  0.31685448  0.58009708  0.25000000  1
  Cd  Cd3_3  1  0.31685448  0.58009708  0.75000000  1
  Cd  Cd3_4  1  0.81685448  0.08009708  0.25000000  1
  Cd  Cd3_5  1  0.81685448  0.08009708  0.75000000  1
  Cd  Cd3_6  1  0.81685448  0.58009708  0.25000000  1
  Cd  Cd3_7  1  0.81685448  0.58009708  0.75000000  1
  In  In0_0  1  0.03929664  0.11020958  0.25000000  1
  In  In0_1  1  0.03929664  0.11020958  0.75000000  1
  In  In0_2  1  0.03929664  0.61020958  0.25000000  1
  In  In0_3  1  0.03929664  0.61020958  0.75000000  1
  In  In0_4  1  0.53929664  0.11020958  0.25000000  1
  In  In0_5  1  0.53929664  0.11020958  0.75000000  1
  In  In0_6  1  0.53929664  0.61020958  0.25000000  1
  In  In0_7  1  0.53929664  0.61020958  0.75000000  1
  In  In1_0  1  0.46070336  0.38979042  0.25000000  1
  In  In1_1  1  0.46070336  0.38979042  0.75000000  1
  In  In1_2  1  0.46070336  0.88979042  0.25000000  1
  In  In1_3  1  0.46070336  0.88979042  0.75000000  1
  In  In1_4  1  0.96070336  0.38979042  0.25000000  1
  In  In1_5  1  0.96070336  0.38979042  0.75000000  1
  In  In1_6  1  0.96070336  0.88979042  0.25000000  1
  In  In1_7  1  0.96070336  0.88979042  0.75000000  1
  In  In2_0  1  0.11020958  0.03929664  0.25000000  1
  In  In2_1  1  0.11020958  0.03929664  0.75000000  1
  In  In2_2  1  0.11020958  0.53929664  0.25000000  1
  In  In2_3  1  0.11020958  0.53929664  0.75000000  1
  In  In2_4  1  0.61020958  0.03929664  0.25000000  1
  In  In2_5  1  0.61020958  0.03929664  0.75000000  1
  In  In2_6  1  0.61020958  0.53929664  0.25000000  1
  In  In2_7  1  0.61020958  0.53929664  0.75000000  1
  In  In3_0  1  0.38979042  0.46070336  0.25000000  1
  In  In3_1  1  0.38979042  0.46070336  0.75000000  1
  In  In3_2  1  0.38979042  0.96070336  0.25000000  1
  In  In3_3  1  0.38979042  0.96070336  0.75000000  1
  In  In3_4  1  0.88979042  0.46070336  0.25000000  1
  In  In3_5  1  0.88979042  0.46070336  0.75000000  1
  In  In3_6  1  0.88979042  0.96070336  0.25000000  1
  In  In3_7  1  0.88979042  0.96070336  0.75000000  1
  In  In4_0  1  0.25000000  0.25000000  0.25000000  1
  In  In4_1  1  0.25000000  0.25000000  0.75000000  1
  In  In4_2  1  0.25000000  0.75000000  0.25000000  1
  In  In4_3  1  0.25000000  0.75000000  0.75000000  1
  In  In4_4  1  0.75000000  0.25000000  0.25000000  1
  In  In4_5  1  0.75000000  0.25000000  0.75000000  1
  In  In4_6  1  0.75000000  0.75000000  0.25000000  1
  In  In4_7  1  0.75000000  0.75000000  0.75000000  1
  Ni  Ni0_0  1  0.12415267  0.22394222  0.25000000  1
  Ni  Ni0_1  1  0.12415267  0.22394222  0.75000000  1
  Ni  Ni0_2  1  0.12415267  0.72394222  0.25000000  1
  Ni  Ni0_3  1  0.12415267  0.72394222  0.75000000  1
  Ni  Ni0_4  1  0.62415267  0.22394222  0.25000000  1
  Ni  Ni0_5  1  0.62415267  0.22394222  0.75000000  1
  Ni  Ni0_6  1  0.62415267  0.72394222  0.25000000  1
  Ni  Ni0_7  1  0.62415267  0.72394222  0.75000000  1
  Ni  Ni1_0  1  0.37584733  0.27605778  0.25000000  1
  Ni  Ni1_1  1  0.37584733  0.27605778  0.75000000  1
  Ni  Ni1_2  1  0.37584733  0.77605778  0.25000000  1
  Ni  Ni1_3  1  0.37584733  0.77605778  0.75000000  1
  Ni  Ni1_4  1  0.87584733  0.27605778  0.25000000  1
  Ni  Ni1_5  1  0.87584733  0.27605778  0.75000000  1
  Ni  Ni1_6  1  0.87584733  0.77605778  0.25000000  1
  Ni  Ni1_7  1  0.87584733  0.77605778  0.75000000  1
  Ni  Ni2_0  1  0.22394222  0.12415267  0.25000000  1
  Ni  Ni2_1  1  0.22394222  0.12415267  0.75000000  1
  Ni  Ni2_2  1  0.22394222  0.62415267  0.25000000  1
  Ni  Ni2_3  1  0.22394222  0.62415267  0.75000000  1
  Ni  Ni2_4  1  0.72394222  0.12415267  0.25000000  1
  Ni  Ni2_5  1  0.72394222  0.12415267  0.75000000  1
  Ni  Ni2_6  1  0.72394222  0.62415267  0.25000000  1
  Ni  Ni2_7  1  0.72394222  0.62415267  0.75000000  1
  Ni  Ni3_0  1  0.27605778  0.37584733  0.25000000  1
  Ni  Ni3_1  1  0.27605778  0.37584733  0.75000000  1
  Ni  Ni3_2  1  0.27605778  0.87584733  0.25000000  1
  Ni  Ni3_3  1  0.27605778  0.87584733  0.75000000  1
  Ni  Ni3_4  1  0.77605778  0.37584733  0.25000000  1
  Ni  Ni3_5  1  0.77605778  0.37584733  0.75000000  1
  Ni  Ni3_6  1  0.77605778  0.87584733  0.25000000  1
  Ni  Ni3_7  1  0.77605778  0.87584733  0.75000000  1
loop_
_geom_bond_atom_site_label_1
_geom_bond_atom_site_label_2
_geom_bond_distance
_geom_bond_site_symmetry_2
Y0_0 Y6_4 3.634481 1_455
Y0_1 Y6_5 3.634481 1_455
Y0_2 Y6_6 3.634481 1_455
Y0_3 Y6_7 3.634481 1_455
Y0_4 Y6_0 3.634481 1_555
Y0_5 Y6_1 3.634481 1_555
Y0_6 Y6_2 3.634481 1_555
Y0_7 Y6_3 3.634481 1_555
Y1_0 Y7_4 3.634481 1_555
Y1_1 Y7_5 3.634481 1_555
Y1_2 Y7_6 3.634481 1_555
Y1_3 Y7_7 3.634481 1_555
Y1_4 Y7_0 3.634481 1_655
Y1_5 Y7_1 3.634481 1_655
Y1_6 Y7_2 3.634481 1_655
Y1_7 Y7_3 3.634481 1_655
Y2_0 Y7_2 3.634481 1_545
Y2_1 Y7_3 3.634481 1_545
Y2_2 Y7_0 3.634481 1_555
Y2_3 Y7_1 3.634481 1_555
Y2_4 Y7_6 3.634481 1_545
Y2_5 Y7_7 3.634481 1_545
Y2_6 Y7_4 3.634481 1_555
Y2_7 Y7_5 3.634481 1_555
Y3_0 Y6_2 3.634481 1_555
Y3_1 Y6_3 3.634481 1_555
Y3_2 Y6_0 3.634481 1_565
Y3_3 Y6_1 3.634481 1_565
Y3_4 Y6_6 3.634481 1_555
Y3_5 Y6_7 3.634481 1_555
Y3_6 Y6_4 3.634481 1_565
Y3_7 Y6_5 3.634481 1_565
Y6_0 Y8_4 3.496901 1_555
Y6_0 Y6_1 3.596428 1_555
Y6_0 Y6_1 3.596428 1_554
Y6_1 Y8_5 3.496901 1_555
Y6_2 Y8_6 3.496901 1_555
Y6_2 Y6_3 3.596428 1_554
Y6_2 Y6_3 3.596428 1_555
Y6_3 Y8_7 3.496901 1_555
Y6_4 Y8_0 3.496901 1_655
Y6_4 Y6_5 3.596428 1_554
Y6_4 Y6_5 3.596428 1_555
Y6_5 Y8_1 3.496901 1_655
Y6_6 Y8_2 3.496901 1_655
Y6_6 Y6_7 3.596428 1_555
Y6_6 Y6_7 3.596428 1_554
Y6_7 Y8_3 3.496901 1_655
Y7_0 Y8_2 3.496901 1_555
Y7_0 Y7_1 3.596428 1_554
Y7_0 Y7_1 3.596428 1_555
Y7_1 Y8_3 3.496901 1_555
Y7_2 Y8_0 3.496901 1_565
Y7_2 Y7_3 3.596428 1_554
Y7_2 Y7_3 3.596428 1_555
Y7_3 Y8_1 3.496901 1_565
Y7_4 Y8_6 3.496901 1_555
Y7_4 Y7_5 3.596428 1_554
Y7_4 Y7_5 3.596428 1_555
Y7_5 Y8_7 3.496901 1_555
Y7_6 Y8_4 3.496901 1_565
Y7_6 Y7_7 3.596428 1_555
Y7_6 Y7_7 3.596428 1_554
Y7_7 Y8_5 3.496901 1_565
Y8_0 Y8_1 3.596428 1_555
Y8_0 Y8_1 3.596428 1_554
Y8_2 Y8_3 3.596428 1_555
Y8_2 Y8_3 3.596428 1_554
Y8_4 Y8_5 3.596428 1_554
Y8_4 Y8_5 3.596428 1_555
Y8_6 Y8_7 3.596428 1_555
Y8_6 Y8_7 3.596428 1_554
Cd0_0 Cd3_0 2.986337 1_555
Cd0_0 Ni1_0 3.051368 1_555
Cd0_0 Y1_0 3.146615 1_555
Cd0_0 Y1_1 3.146615 1_555
Cd0_0 Y6_1 3.215061 1_555
Cd0_0 Y6_0 3.215061 1_555
Cd0_0 Y4_1 3.336826 1_555
Cd0_0 Y4_0 3.336826 1_555
Cd0_0 Y0_5 3.463107 1_555
Cd0_0 Y0_4 3.463107 1_555
Cd0_1 Cd3_1 2.986337 1_555
Cd0_1 Ni1_1 3.051368 1_555
Cd0_1 Y1_0 3.146615 1_556
Cd0_1 Y1_1 3.146615 1_555
Cd0_1 Y6_1 3.215061 1_555
Cd0_1 Y6_0 3.215061 1_556
Cd0_1 Y4_0 3.336826 1_556
Cd0_1 Y4_1 3.336826 1_555
Cd0_1 Y0_4 3.463107 1_556
Cd0_1 Y0_5 3.463107 1_555
Cd0_2 Cd3_2 2.986337 1_555
Cd0_2 Ni1_2 3.051368 1_555
Cd0_2 Y1_3 3.146615 1_555
Cd0_2 Y1_2 3.146615 1_555
Cd0_2 Y6_2 3.215061 1_555
Cd0_2 Y6_3 3.215061 1_555
Cd0_2 Y4_2 3.336826 1_555
Cd0_2 Y4_3 3.336826 1_555
Cd0_2 Y0_7 3.463107 1_555
Cd0_2 Y0_6 3.463107 1_555
Cd0_3 Cd3_3 2.986337 1_555
Cd0_3 Ni1_3 3.051368 1_555
Cd0_3 Y1_3 3.146615 1_555
Cd0_3 Y1_2 3.146615 1_556
Cd0_3 Y6_2 3.215061 1_556
Cd0_3 Y6_3 3.215061 1_555
Cd0_3 Y4_3 3.336826 1_555
Cd0_3 Y4_2 3.336826 1_556
Cd0_3 Y0_7 3.463107 1_555
Cd0_3 Y0_6 3.463107 1_556
Cd0_4 Cd3_4 2.986337 1_555
Cd0_4 Ni1_4 3.051368 1_555
Cd0_4 Y1_4 3.146615 1_555
Cd0_4 Y1_5 3.146615 1_555
Cd0_4 Y6_5 3.215061 1_555
Cd0_4 Y6_4 3.215061 1_555
Cd0_4 Y4_4 3.336826 1_555
Cd0_4 Y4_5 3.336826 1_555
Cd0_4 Y0_1 3.463107 1_655
Cd0_4 Y0_0 3.463107 1_655
Cd0_5 Cd3_5 2.986337 1_555
Cd0_5 Ni1_5 3.051368 1_555
Cd0_5 Y1_4 3.146615 1_556
Cd0_5 Y1_5 3.146615 1_555
Cd0_5 Y6_5 3.215061 1_555
Cd0_5 Y6_4 3.215061 1_556
Cd0_5 Y4_5 3.336826 1_555
Cd0_5 Y4_4 3.336826 1_556
Cd0_5 Y0_1 3.463107 1_655
Cd0_5 Y0_0 3.463107 1_656
Cd0_6 Cd3_6 2.986337 1_555
Cd0_6 Ni1_6 3.051368 1_555
Cd0_6 Y1_7 3.146615 1_555
Cd0_6 Y1_6 3.146615 1_555
Cd0_6 Y6_7 3.215061 1_555
Cd0_6 Y6_6 3.215061 1_555
Cd0_6 Y4_6 3.336826 1_555
Cd0_6 Y4_7 3.336826 1_555
Cd0_6 Y0_2 3.463107 1_655
Cd0_6 Y0_3 3.463107 1_655
Cd0_7 Cd3_7 2.986337 1_555
Cd0_7 Ni1_7 3.051368 1_555
Cd0_7 Y1_7 3.146615 1_555
Cd0_7 Y1_6 3.146615 1_556
Cd0_7 Y6_6 3.215061 1_556
Cd0_7 Y6_7 3.215061 1_555
Cd0_7 Y4_7 3.336826 1_555
Cd0_7 Y4_6 3.336826 1_556
Cd0_7 Y0_2 3.463107 1_656
Cd0_7 Y0_3 3.463107 1_655
Cd1_0 Cd2_0 2.986337 1_555
Cd1_0 Ni0_0 3.051368 1_555
Cd1_0 Y0_1 3.146615 1_555
Cd1_0 Y0_0 3.146615 1_555
Cd1_0 Y7_1 3.215061 1_555
Cd1_0 Y7_0 3.215061 1_555
Cd1_0 Y5_0 3.336826 1_555
Cd1_0 Y5_1 3.336826 1_555
Cd1_0 Y1_4 3.463107 1_455
Cd1_0 Y1_5 3.463107 1_455
Cd1_1 Cd2_1 2.986337 1_555
Cd1_1 Ni0_1 3.051368 1_555
Cd1_1 Y0_0 3.146615 1_556
Cd1_1 Y0_1 3.146615 1_555
Cd1_1 Y7_1 3.215061 1_555
Cd1_1 Y7_0 3.215061 1_556
Cd1_1 Y5_1 3.336826 1_555
Cd1_1 Y5_0 3.336826 1_556
Cd1_1 Y1_4 3.463107 1_456
Cd1_1 Y1_5 3.463107 1_455
Cd1_2 Cd2_2 2.986337 1_555
Cd1_2 Ni0_2 3.051368 1_555
Cd1_2 Y0_3 3.146615 1_555
Cd1_2 Y0_2 3.146615 1_555
Cd1_2 Y7_2 3.215061 1_555
Cd1_2 Y7_3 3.215061 1_555
Cd1_2 Y5_3 3.336826 1_555
Cd1_2 Y5_2 3.336826 1_555
Cd1_2 Y1_7 3.463107 1_455
Cd1_2 Y1_6 3.463107 1_455
Cd1_3 Cd2_3 2.986337 1_555
Cd1_3 Ni0_3 3.051368 1_555
Cd1_3 Y0_3 3.146615 1_555
Cd1_3 Y0_2 3.146615 1_556
Cd1_3 Y7_2 3.215061 1_556
Cd1_3 Y7_3 3.215061 1_555
Cd1_3 Y5_3 3.336826 1_555
Cd1_3 Y5_2 3.336826 1_556
Cd1_3 Y1_6 3.463107 1_456
Cd1_3 Y1_7 3.463107 1_455
Cd1_4 Cd2_4 2.986337 1_555
Cd1_4 Ni0_4 3.051368 1_555
Cd1_4 Y0_5 3.146615 1_555
Cd1_4 Y0_4 3.146615 1_555
Cd1_4 Y7_5 3.215061 1_555
Cd1_4 Y7_4 3.215061 1_555
Cd1_4 Y5_4 3.336826 1_555
Cd1_4 Y5_5 3.336826 1_555
Cd1_4 Y1_1 3.463107 1_555
Cd1_4 Y1_0 3.463107 1_555
Cd1_5 Cd2_5 2.986337 1_555
Cd1_5 Ni0_5 3.051368 1_555
Cd1_5 Y0_4 3.146615 1_556
Cd1_5 Y0_5 3.146615 1_555
Cd1_5 Y7_5 3.215061 1_555
Cd1_5 Y7_4 3.215061 1_556
Cd1_5 Y5_5 3.336826 1_555
Cd1_5 Y5_4 3.336826 1_556
Cd1_5 Y1_0 3.463107 1_556
Cd1_5 Y1_1 3.463107 1_555
Cd1_6 Cd2_6 2.986337 1_555
Cd1_6 Ni0_6 3.051368 1_555
Cd1_6 Y0_6 3.146615 1_555
Cd1_6 Y0_7 3.146615 1_555
Cd1_6 Y7_6 3.215061 1_555
Cd1_6 Y7_7 3.215061 1_555
Cd1_6 Y5_6 3.336826 1_555
Cd1_6 Y5_7 3.336826 1_555
Cd1_6 Y1_2 3.463107 1_555
Cd1_6 Y1_3 3.463107 1_555
Cd1_7 Cd2_7 2.986337 1_555
Cd1_7 Ni0_7 3.051368 1_555
Cd1_7 Y0_6 3.146615 1_556
Cd1_7 Y0_7 3.146615 1_555
Cd1_7 Y7_6 3.215061 1_556
Cd1_7 Y7_7 3.215061 1_555
Cd1_7 Y5_6 3.336826 1_556
Cd1_7 Y5_7 3.336826 1_555
Cd1_7 Y1_2 3.463107 1_556
Cd1_7 Y1_3 3.463107 1_555
Cd2_0 Ni3_0 3.051368 1_555
Cd2_0 Y3_1 3.146615 1_555
Cd2_0 Y3_0 3.146615 1_555
Cd2_0 Y7_1 3.215061 1_555
Cd2_0 Y7_0 3.215061 1_555
Cd2_0 Y5_1 3.336826 1_555
Cd2_0 Y5_0 3.336826 1_555
Cd2_0 Y2_3 3.463107 1_555
Cd2_0 Y2_2 3.463107 1_555
Cd2_1 Ni3_1 3.051368 1_555
Cd2_1 Y3_1 3.146615 1_555
Cd2_1 Y3_0 3.146615 1_556
Cd2_1 Y7_0 3.215061 1_556
Cd2_1 Y7_1 3.215061 1_555
Cd2_1 Y5_1 3.336826 1_555
Cd2_1 Y5_0 3.336826 1_556
Cd2_1 Y2_3 3.463107 1_555
Cd2_1 Y2_2 3.463107 1_556
Cd2_2 Ni3_2 3.051368 1_555
Cd2_2 Y3_3 3.146615 1_555
Cd2_2 Y3_2 3.146615 1_555
Cd2_2 Y7_2 3.215061 1_555
Cd2_2 Y7_3 3.215061 1_555
Cd2_2 Y5_3 3.336826 1_555
Cd2_2 Y5_2 3.336826 1_555
Cd2_2 Y2_0 3.463107 1_565
Cd2_2 Y2_1 3.463107 1_565
Cd2_3 Ni3_3 3.051368 1_555
Cd2_3 Y3_3 3.146615 1_555
Cd2_3 Y3_2 3.146615 1_556
Cd2_3 Y7_2 3.215061 1_556
Cd2_3 Y7_3 3.215061 1_555
Cd2_3 Y5_3 3.336826 1_555
Cd2_3 Y5_2 3.336826 1_556
Cd2_3 Y2_0 3.463107 1_566
Cd2_3 Y2_1 3.463107 1_565
Cd2_4 Ni3_4 3.051368 1_555
Cd2_4 Y3_5 3.146615 1_555
Cd2_4 Y3_4 3.146615 1_555
Cd2_4 Y7_4 3.215061 1_555
Cd2_4 Y7_5 3.215061 1_555
Cd2_4 Y5_4 3.336826 1_555
Cd2_4 Y5_5 3.336826 1_555
Cd2_4 Y2_6 3.463107 1_555
Cd2_4 Y2_7 3.463107 1_555
Cd2_5 Ni3_5 3.051368 1_555
Cd2_5 Y3_4 3.146615 1_556
Cd2_5 Y3_5 3.146615 1_555
Cd2_5 Y7_4 3.215061 1_556
Cd2_5 Y7_5 3.215061 1_555
Cd2_5 Y5_4 3.336826 1_556
Cd2_5 Y5_5 3.336826 1_555
Cd2_5 Y2_7 3.463107 1_555
Cd2_5 Y2_6 3.463107 1_556
Cd2_6 Ni3_6 3.051368 1_555
Cd2_6 Y3_6 3.146615 1_555
Cd2_6 Y3_7 3.146615 1_555
Cd2_6 Y7_6 3.215061 1_555
Cd2_6 Y7_7 3.215061 1_555
Cd2_6 Y5_6 3.336826 1_555
Cd2_6 Y5_7 3.336826 1_555
Cd2_6 Y2_4 3.463107 1_565
Cd2_6 Y2_5 3.463107 1_565
Cd2_7 Ni3_7 3.051368 1_555
Cd2_7 Y3_6 3.146615 1_556
Cd2_7 Y3_7 3.146615 1_555
Cd2_7 Y7_6 3.215061 1_556
Cd2_7 Y7_7 3.215061 1_555
Cd2_7 Y5_7 3.336826 1_555
Cd2_7 Y5_6 3.336826 1_556
Cd2_7 Y2_4 3.463107 1_566
Cd2_7 Y2_5 3.463107 1_565
Cd3_0 Ni2_0 3.051368 1_555
Cd3_0 Y2_0 3.146615 1_555
Cd3_0 Y2_1 3.146615 1_555
Cd3_0 Y6_0 3.215061 1_555
Cd3_0 Y6_1 3.215061 1_555
Cd3_0 Y4_1 3.336826 1_555
Cd3_0 Y4_0 3.336826 1_555
Cd3_0 Y3_2 3.463107 1_545
Cd3_0 Y3_3 3.463107 1_545
Cd3_1 Ni2_1 3.051368 1_555
Cd3_1 Y2_1 3.146615 1_555
Cd3_1 Y2_0 3.146615 1_556
Cd3_1 Y6_0 3.215061 1_556
Cd3_1 Y6_1 3.215061 1_555
Cd3_1 Y4_0 3.336826 1_556
Cd3_1 Y4_1 3.336826 1_555
Cd3_1 Y3_2 3.463107 1_546
Cd3_1 Y3_3 3.463107 1_545
Cd3_2 Ni2_2 3.051368 1_555
Cd3_2 Y2_2 3.146615 1_555
Cd3_2 Y2_3 3.146615 1_555
Cd3_2 Y6_3 3.215061 1_555
Cd3_2 Y6_2 3.215061 1_555
Cd3_2 Y4_3 3.336826 1_555
Cd3_2 Y4_2 3.336826 1_555
Cd3_2 Y3_0 3.463107 1_555
Cd3_2 Y3_1 3.463107 1_555
Cd3_3 Ni2_3 3.051368 1_555
Cd3_3 Y2_2 3.146615 1_556
Cd3_3 Y2_3 3.146615 1_555
Cd3_3 Y6_3 3.215061 1_555
Cd3_3 Y6_2 3.215061 1_556
Cd3_3 Y4_3 3.336826 1_555
Cd3_3 Y4_2 3.336826 1_556
Cd3_3 Y3_1 3.463107 1_555
Cd3_3 Y3_0 3.463107 1_556
Cd3_4 Ni2_4 3.051368 1_555
Cd3_4 Y2_4 3.146615 1_555
Cd3_4 Y2_5 3.146615 1_555
Cd3_4 Y6_4 3.215061 1_555
Cd3_4 Y6_5 3.215061 1_555
Cd3_4 Y4_5 3.336826 1_555
Cd3_4 Y4_4 3.336826 1_555
Cd3_4 Y3_6 3.463107 1_545
Cd3_4 Y3_7 3.463107 1_545
Cd3_5 Ni2_5 3.051368 1_555
Cd3_5 Y2_5 3.146615 1_555
Cd3_5 Y2_4 3.146615 1_556
Cd3_5 Y6_4 3.215061 1_556
Cd3_5 Y6_5 3.215061 1_555
Cd3_5 Y4_5 3.336826 1_555
Cd3_5 Y4_4 3.336826 1_556
Cd3_5 Y3_6 3.463107 1_546
Cd3_5 Y3_7 3.463107 1_545
Cd3_6 Ni2_6 3.051368 1_555
Cd3_6 Y2_6 3.146615 1_555
Cd3_6 Y2_7 3.146615 1_555
Cd3_6 Y6_7 3.215061 1_555
Cd3_6 Y6_6 3.215061 1_555
Cd3_6 Y4_6 3.336826 1_555
Cd3_6 Y4_7 3.336826 1_555
Cd3_6 Y3_4 3.463107 1_555
Cd3_6 Y3_5 3.463107 1_555
Cd3_7 Ni2_7 3.051368 1_555
Cd3_7 Y2_6 3.146615 1_556
Cd3_7 Y2_7 3.146615 1_555
Cd3_7 Y6_6 3.215061 1_556
Cd3_7 Y6_7 3.215061 1_555
Cd3_7 Y4_7 3.336826 1_555
Cd3_7 Y4_6 3.336826 1_556
Cd3_7 Y3_4 3.463107 1_556
Cd3_7 Y3_5 3.463107 1_555
In0_0 Ni0_0 2.944797 1_555
In0_0 In2_0 3.073384 1_555
In0_0 Y0_0 3.142785 1_555
In0_0 Y0_1 3.142785 1_555
In0_0 Y8_0 3.207495 1_555
In0_0 Y8_1 3.207495 1_555
In0_0 Y9_1 3.343641 1_555
In0_0 Y9_0 3.343641 1_555
In0_0 Y6_4 3.430601 1_455
In0_0 Y6_5 3.430601 1_455
In0_1 Ni0_1 2.944797 1_555
In0_1 In2_1 3.073384 1_555
In0_1 Y0_0 3.142785 1_556
In0_1 Y0_1 3.142785 1_555
In0_1 Y8_1 3.207495 1_555
In0_1 Y8_0 3.207495 1_556
In0_1 Y9_1 3.343641 1_555
In0_1 Y9_0 3.343641 1_556
In0_1 Y6_4 3.430601 1_456
In0_1 Y6_5 3.430601 1_455
In0_2 Ni0_2 2.944797 1_555
In0_2 In2_2 3.073384 1_555
In0_2 Y0_2 3.142785 1_555
In0_2 Y0_3 3.142785 1_555
In0_2 Y8_3 3.207495 1_555
In0_2 Y8_2 3.207495 1_555
In0_2 Y9_3 3.343641 1_555
In0_2 Y9_2 3.343641 1_555
In0_2 Y6_6 3.430601 1_455
In0_2 Y6_7 3.430601 1_455
In0_3 Ni0_3 2.944797 1_555
In0_3 In2_3 3.073384 1_555
In0_3 Y0_3 3.142785 1_555
In0_3 Y0_2 3.142785 1_556
In0_3 Y8_2 3.207495 1_556
In0_3 Y8_3 3.207495 1_555
In0_3 Y9_2 3.343641 1_556
In0_3 Y9_3 3.343641 1_555
In0_3 Y6_6 3.430601 1_456
In0_3 Y6_7 3.430601 1_455
In0_4 Ni0_4 2.944797 1_555
In0_4 In2_4 3.073384 1_555
In0_4 Y0_5 3.142785 1_555
In0_4 Y0_4 3.142785 1_555
In0_4 Y8_5 3.207495 1_555
In0_4 Y8_4 3.207495 1_555
In0_4 Y9_4 3.343641 1_555
In0_4 Y9_5 3.343641 1_555
In0_4 Y6_1 3.430601 1_555
In0_4 Y6_0 3.430601 1_555
In0_5 Ni0_5 2.944797 1_555
In0_5 In2_5 3.073384 1_555
In0_5 Y0_4 3.142785 1_556
In0_5 Y0_5 3.142785 1_555
In0_5 Y8_5 3.207495 1_555
In0_5 Y8_4 3.207495 1_556
In0_5 Y9_5 3.343641 1_555
In0_5 Y9_4 3.343641 1_556
In0_5 Y6_1 3.430601 1_555
In0_5 Y6_0 3.430601 1_556
In0_6 Ni0_6 2.944797 1_555
In0_6 In2_6 3.073384 1_555
In0_6 Y0_6 3.142785 1_555
In0_6 Y0_7 3.142785 1_555
In0_6 Y8_7 3.207495 1_555
In0_6 Y8_6 3.207495 1_555
In0_6 Y9_7 3.343641 1_555
In0_6 Y9_6 3.343641 1_555
In0_6 Y6_2 3.430601 1_555
In0_6 Y6_3 3.430601 1_555
In0_7 Ni0_7 2.944797 1_555
In0_7 In2_7 3.073384 1_555
In0_7 Y0_6 3.142785 1_556
In0_7 Y0_7 3.142785 1_555
In0_7 Y8_7 3.207495 1_555
In0_7 Y8_6 3.207495 1_556
In0_7 Y9_7 3.343641 1_555
In0_7 Y9_6 3.343641 1_556
In0_7 Y6_3 3.430601 1_555
In0_7 Y6_2 3.430601 1_556
In1_0 Ni1_0 2.944797 1_555
In1_0 In3_0 3.073384 1_555
In1_0 Y1_1 3.142785 1_555
In1_0 Y1_0 3.142785 1_555
In1_0 Y8_7 3.207495 1_555
In1_0 Y8_6 3.207495 1_555
In1_0 Y10_1 3.343641 1_555
In1_0 Y10_0 3.343641 1_555
In1_0 Y7_4 3.430601 1_555
In1_0 Y7_5 3.430601 1_555
In1_1 Ni1_1 2.944797 1_555
In1_1 In3_1 3.073384 1_555
In1_1 Y1_1 3.142785 1_555
In1_1 Y1_0 3.142785 1_556
In1_1 Y8_6 3.207495 1_556
In1_1 Y8_7 3.207495 1_555
In1_1 Y10_0 3.343641 1_556
In1_1 Y10_1 3.343641 1_555
In1_1 Y7_5 3.430601 1_555
In1_1 Y7_4 3.430601 1_556
In1_2 Ni1_2 2.944797 1_555
In1_2 In3_2 3.073384 1_555
In1_2 Y1_3 3.142785 1_555
In1_2 Y1_2 3.142785 1_555
In1_2 Y8_5 3.207495 1_565
In1_2 Y8_4 3.207495 1_565
In1_2 Y10_2 3.343641 1_555
In1_2 Y10_3 3.343641 1_555
In1_2 Y7_7 3.430601 1_555
In1_2 Y7_6 3.430601 1_555
In1_3 Ni1_3 2.944797 1_555
In1_3 In3_3 3.073384 1_555
In1_3 Y1_3 3.142785 1_555
In1_3 Y1_2 3.142785 1_556
In1_3 Y8_4 3.207495 1_566
In1_3 Y8_5 3.207495 1_565
In1_3 Y10_2 3.343641 1_556
In1_3 Y10_3 3.343641 1_555
In1_3 Y7_6 3.430601 1_556
In1_3 Y7_7 3.430601 1_555
In1_4 Ni1_4 2.944797 1_555
In1_4 In3_4 3.073384 1_555
In1_4 Y1_4 3.142785 1_555
In1_4 Y1_5 3.142785 1_555
In1_4 Y8_2 3.207495 1_655
In1_4 Y8_3 3.207495 1_655
In1_4 Y10_4 3.343641 1_555
In1_4 Y10_5 3.343641 1_555
In1_4 Y7_1 3.430601 1_655
In1_4 Y7_0 3.430601 1_655
In1_5 Ni1_5 2.944797 1_555
In1_5 In3_5 3.073384 1_555
In1_5 Y1_4 3.142785 1_556
In1_5 Y1_5 3.142785 1_555
In1_5 Y8_2 3.207495 1_656
In1_5 Y8_3 3.207495 1_655
In1_5 Y10_4 3.343641 1_556
In1_5 Y10_5 3.343641 1_555
In1_5 Y7_0 3.430601 1_656
In1_5 Y7_1 3.430601 1_655
In1_6 Ni1_6 2.944797 1_555
In1_6 In3_6 3.073384 1_555
In1_6 Y1_7 3.142785 1_555
In1_6 Y1_6 3.142785 1_555
In1_6 Y8_0 3.207495 1_665
In1_6 Y8_1 3.207495 1_665
In1_6 Y10_7 3.343641 1_555
In1_6 Y10_6 3.343641 1_555
In1_6 Y7_3 3.430601 1_655
In1_6 Y7_2 3.430601 1_655
In1_7 Ni1_7 2.944797 1_555
In1_7 In3_7 3.073384 1_555
In1_7 Y1_7 3.142785 1_555
In1_7 Y1_6 3.142785 1_556
In1_7 Y8_0 3.207495 1_666
In1_7 Y8_1 3.207495 1_665
In1_7 Y10_7 3.343641 1_555
In1_7 Y10_6 3.343641 1_556
In1_7 Y7_3 3.430601 1_655
In1_7 Y7_2 3.430601 1_656
In2_0 Ni2_0 2.944797 1_555
In2_0 Y2_1 3.142785 1_555
In2_0 Y2_0 3.142785 1_555
In2_0 Y8_0 3.207495 1_555
In2_0 Y8_1 3.207495 1_555
In2_0 Y9_0 3.343641 1_555
In2_0 Y9_1 3.343641 1_555
In2_0 Y7_2 3.430601 1_545
In2_0 Y7_3 3.430601 1_545
In2_1 Ni2_1 2.944797 1_555
In2_1 Y2_0 3.142785 1_556
In2_1 Y2_1 3.142785 1_555
In2_1 Y8_0 3.207495 1_556
In2_1 Y8_1 3.207495 1_555
In2_1 Y9_0 3.343641 1_556
In2_1 Y9_1 3.343641 1_555
In2_1 Y7_2 3.430601 1_546
In2_1 Y7_3 3.430601 1_545
In2_2 Ni2_2 2.944797 1_555
In2_2 Y2_3 3.142785 1_555
In2_2 Y2_2 3.142785 1_555
In2_2 Y8_3 3.207495 1_555
In2_2 Y8_2 3.207495 1_555
In2_2 Y9_3 3.343641 1_555
In2_2 Y9_2 3.343641 1_555
In2_2 Y7_1 3.430601 1_555
In2_2 Y7_0 3.430601 1_555
In2_3 Ni2_3 2.944797 1_555
In2_3 Y2_3 3.142785 1_555
In2_3 Y2_2 3.142785 1_556
In2_3 Y8_3 3.207495 1_555
In2_3 Y8_2 3.207495 1_556
In2_3 Y9_3 3.343641 1_555
In2_3 Y9_2 3.343641 1_556
In2_3 Y7_0 3.430601 1_556
In2_3 Y7_1 3.430601 1_555
In2_4 Ni2_4 2.944797 1_555
In2_4 Y2_4 3.142785 1_555
In2_4 Y2_5 3.142785 1_555
In2_4 Y8_5 3.207495 1_555
In2_4 Y8_4 3.207495 1_555
In2_4 Y9_4 3.343641 1_555
In2_4 Y9_5 3.343641 1_555
In2_4 Y7_7 3.430601 1_545
In2_4 Y7_6 3.430601 1_545
In2_5 Ni2_5 2.944797 1_555
In2_5 Y2_5 3.142785 1_555
In2_5 Y2_4 3.142785 1_556
In2_5 Y8_5 3.207495 1_555
In2_5 Y8_4 3.207495 1_556
In2_5 Y9_4 3.343641 1_556
In2_5 Y9_5 3.343641 1_555
In2_5 Y7_7 3.430601 1_545
In2_5 Y7_6 3.430601 1_546
In2_6 Ni2_6 2.944797 1_555
In2_6 Y2_6 3.142785 1_555
In2_6 Y2_7 3.142785 1_555
In2_6 Y8_7 3.207495 1_555
In2_6 Y8_6 3.207495 1_555
In2_6 Y9_6 3.343641 1_555
In2_6 Y9_7 3.343641 1_555
In2_6 Y7_4 3.430601 1_555
In2_6 Y7_5 3.430601 1_555
In2_7 Ni2_7 2.944797 1_555
In2_7 Y2_6 3.142785 1_556
In2_7 Y2_7 3.142785 1_555
In2_7 Y8_7 3.207495 1_555
In2_7 Y8_6 3.207495 1_556
In2_7 Y9_6 3.343641 1_556
In2_7 Y9_7 3.343641 1_555
In2_7 Y7_5 3.430601 1_555
In2_7 Y7_4 3.430601 1_556
In3_0 Ni3_0 2.944797 1_555
In3_0 Y3_0 3.142785 1_555
In3_0 Y3_1 3.142785 1_555
In3_0 Y8_7 3.207495 1_555
In3_0 Y8_6 3.207495 1_555
In3_0 Y10_0 3.343641 1_555
In3_0 Y10_1 3.343641 1_555
In3_0 Y6_2 3.430601 1_555
In3_0 Y6_3 3.430601 1_555
In3_1 Ni3_1 2.944797 1_555
In3_1 Y3_0 3.142785 1_556
In3_1 Y3_1 3.142785 1_555
In3_1 Y8_7 3.207495 1_555
In3_1 Y8_6 3.207495 1_556
In3_1 Y10_1 3.343641 1_555
In3_1 Y10_0 3.343641 1_556
In3_1 Y6_2 3.430601 1_556
In3_1 Y6_3 3.430601 1_555
In3_2 Ni3_2 2.944797 1_555
In3_2 Y3_3 3.142785 1_555
In3_2 Y3_2 3.142785 1_555
In3_2 Y8_5 3.207495 1_565
In3_2 Y8_4 3.207495 1_565
In3_2 Y10_2 3.343641 1_555
In3_2 Y10_3 3.343641 1_555
In3_2 Y6_1 3.430601 1_565
In3_2 Y6_0 3.430601 1_565
In3_3 Ni3_3 2.944797 1_555
In3_3 Y3_2 3.142785 1_556
In3_3 Y3_3 3.142785 1_555
In3_3 Y8_4 3.207495 1_566
In3_3 Y8_5 3.207495 1_565
In3_3 Y10_2 3.343641 1_556
In3_3 Y10_3 3.343641 1_555
In3_3 Y6_1 3.430601 1_565
In3_3 Y6_0 3.430601 1_566
In3_4 Ni3_4 2.944797 1_555
In3_4 Y3_4 3.142785 1_555
In3_4 Y3_5 3.142785 1_555
In3_4 Y8_2 3.207495 1_655
In3_4 Y8_3 3.207495 1_655
In3_4 Y10_5 3.343641 1_555
In3_4 Y10_4 3.343641 1_555
In3_4 Y6_7 3.430601 1_555
In3_4 Y6_6 3.430601 1_555
In3_5 Ni3_5 2.944797 1_555
In3_5 Y3_5 3.142785 1_555
In3_5 Y3_4 3.142785 1_556
In3_5 Y8_2 3.207495 1_656
In3_5 Y8_3 3.207495 1_655
In3_5 Y10_4 3.343641 1_556
In3_5 Y10_5 3.343641 1_555
In3_5 Y6_7 3.430601 1_555
In3_5 Y6_6 3.430601 1_556
In3_6 Ni3_6 2.944797 1_555
In3_6 Y3_7 3.142785 1_555
In3_6 Y3_6 3.142785 1_555
In3_6 Y8_1 3.207495 1_665
In3_6 Y8_0 3.207495 1_665
In3_6 Y10_6 3.343641 1_555
In3_6 Y10_7 3.343641 1_555
In3_6 Y6_4 3.430601 1_565
In3_6 Y6_5 3.430601 1_565
In3_7 Ni3_7 2.944797 1_555
In3_7 Y3_7 3.142785 1_555
In3_7 Y3_6 3.142785 1_556
In3_7 Y8_1 3.207495 1_665
In3_7 Y8_0 3.207495 1_666
In3_7 Y10_6 3.343641 1_556
In3_7 Y10_7 3.343641 1_555
In3_7 Y6_5 3.430601 1_565
In3_7 Y6_4 3.430601 1_566
In4_0 Ni1_0 3.085618 1_555
In4_0 Ni0_0 3.085618 1_555
In4_0 Ni3_0 3.085618 1_555
In4_0 Ni2_0 3.085618 1_555
In4_0 Y10_1 3.256831 1_555
In4_0 Y10_0 3.256831 1_555
In4_0 Y9_0 3.256831 1_555
In4_0 Y9_1 3.256831 1_555
In4_0 Y5_0 3.284998 1_555
In4_0 Y5_1 3.284998 1_555
In4_0 Y4_1 3.284998 1_555
In4_0 Y4_0 3.284998 1_555
In4_1 Ni1_1 3.085618 1_555
In4_1 Ni0_1 3.085618 1_555
In4_1 Ni3_1 3.085618 1_555
In4_1 Ni2_1 3.085618 1_555
In4_1 Y10_1 3.256831 1_555
In4_1 Y10_0 3.256831 1_556
In4_1 Y9_0 3.256831 1_556
In4_1 Y9_1 3.256831 1_555
In4_1 Y5_0 3.284998 1_556
In4_1 Y5_1 3.284998 1_555
In4_1 Y4_1 3.284998 1_555
In4_1 Y4_0 3.284998 1_556
In4_2 Ni1_2 3.085618 1_555
In4_2 Ni0_2 3.085618 1_555
In4_2 Ni3_2 3.085618 1_555
In4_2 Ni2_2 3.085618 1_555
In4_2 Y10_3 3.256831 1_555
In4_2 Y10_2 3.256831 1_555
In4_2 Y9_3 3.256831 1_555
In4_2 Y9_2 3.256831 1_555
In4_2 Y5_3 3.284998 1_555
In4_2 Y5_2 3.284998 1_555
In4_2 Y4_3 3.284998 1_555
In4_2 Y4_2 3.284998 1_555
In4_3 Ni1_3 3.085618 1_555
In4_3 Ni0_3 3.085618 1_555
In4_3 Ni3_3 3.085618 1_555
In4_3 Ni2_3 3.085618 1_555
In4_3 Y10_3 3.256831 1_555
In4_3 Y10_2 3.256831 1_556
In4_3 Y9_3 3.256831 1_555
In4_3 Y9_2 3.256831 1_556
In4_3 Y5_3 3.284998 1_555
In4_3 Y5_2 3.284998 1_556
In4_3 Y4_3 3.284998 1_555
In4_3 Y4_2 3.284998 1_556
In4_4 Ni1_4 3.085618 1_555
In4_4 Ni0_4 3.085618 1_555
In4_4 Ni3_4 3.085618 1_555
In4_4 Ni2_4 3.085618 1_555
In4_4 Y10_4 3.256831 1_555
In4_4 Y10_5 3.256831 1_555
In4_4 Y9_4 3.256831 1_555
In4_4 Y9_5 3.256831 1_555
In4_4 Y5_4 3.284998 1_555
In4_4 Y5_5 3.284998 1_555
In4_4 Y4_4 3.284998 1_555
In4_4 Y4_5 3.284998 1_555
In4_5 Ni1_5 3.085618 1_555
In4_5 Ni0_5 3.085618 1_555
In4_5 Ni3_5 3.085618 1_555
In4_5 Ni2_5 3.085618 1_555
In4_5 Y10_4 3.256831 1_556
In4_5 Y10_5 3.256831 1_555
In4_5 Y9_4 3.256831 1_556
In4_5 Y9_5 3.256831 1_555
In4_5 Y5_5 3.284998 1_555
In4_5 Y5_4 3.284998 1_556
In4_5 Y4_4 3.284998 1_556
In4_5 Y4_5 3.284998 1_555
In4_6 Ni1_6 3.085618 1_555
In4_6 Ni0_6 3.085618 1_555
In4_6 Ni3_6 3.085618 1_555
In4_6 Ni2_6 3.085618 1_555
In4_6 Y10_7 3.256831 1_555
In4_6 Y10_6 3.256831 1_555
In4_6 Y9_7 3.256831 1_555
In4_6 Y9_6 3.256831 1_555
In4_6 Y5_6 3.284998 1_555
In4_6 Y5_7 3.284998 1_555
In4_6 Y4_7 3.284998 1_555
In4_6 Y4_6 3.284998 1_555
In4_7 Ni1_7 3.085618 1_555
In4_7 Ni0_7 3.085618 1_555
In4_7 Ni3_7 3.085618 1_555
In4_7 Ni2_7 3.085618 1_555
In4_7 Y10_7 3.256831 1_555
In4_7 Y10_6 3.256831 1_556
In4_7 Y9_7 3.256831 1_555
In4_7 Y9_6 3.256831 1_556
In4_7 Y5_7 3.284998 1_555
In4_7 Y5_6 3.284998 1_556
In4_7 Y4_6 3.284998 1_556
In4_7 Y4_7 3.284998 1_555
Ni0_0 Y0_1 2.732341 1_555
Ni0_0 Y0_0 2.732341 1_555
Ni0_0 Y9_0 2.859068 1_555
Ni0_0 Y9_1 2.859068 1_555
Ni0_0 Y5_0 2.902170 1_555
Ni0_0 Y5_1 2.902170 1_555
Ni0_1 Y0_1 2.732341 1_555
Ni0_1 Y0_0 2.732341 1_556
Ni0_1 Y9_0 2.859068 1_556
Ni0_1 Y9_1 2.859068 1_555
Ni0_1 Y5_1 2.902170 1_555
Ni0_1 Y5_0 2.902170 1_556
Ni0_2 Y0_2 2.732341 1_555
Ni0_2 Y0_3 2.732341 1_555
Ni0_2 Y9_3 2.859068 1_555
Ni0_2 Y9_2 2.859068 1_555
Ni0_2 Y5_3 2.902170 1_555
Ni0_2 Y5_2 2.902170 1_555
Ni0_3 Y0_2 2.732341 1_556
Ni0_3 Y0_3 2.732341 1_555
Ni0_3 Y9_3 2.859068 1_555
Ni0_3 Y9_2 2.859068 1_556
Ni0_3 Y5_3 2.902170 1_555
Ni0_3 Y5_2 2.902170 1_556
Ni0_4 Y0_5 2.732341 1_555
Ni0_4 Y0_4 2.732341 1_555
Ni0_4 Y9_4 2.859068 1_555
Ni0_4 Y9_5 2.859068 1_555
Ni0_4 Y5_5 2.902170 1_555
Ni0_4 Y5_4 2.902170 1_555
Ni0_5 Y0_4 2.732341 1_556
Ni0_5 Y0_5 2.732341 1_555
Ni0_5 Y9_4 2.859068 1_556
Ni0_5 Y9_5 2.859068 1_555
Ni0_5 Y5_4 2.902170 1_556
Ni0_5 Y5_5 2.902170 1_555
Ni0_6 Y0_7 2.732341 1_555
Ni0_6 Y0_6 2.732341 1_555
Ni0_6 Y9_7 2.859068 1_555
Ni0_6 Y9_6 2.859068 1_555
Ni0_6 Y5_6 2.902170 1_555
Ni0_6 Y5_7 2.902170 1_555
Ni0_7 Y0_6 2.732341 1_556
Ni0_7 Y0_7 2.732341 1_555
Ni0_7 Y9_7 2.859068 1_555
Ni0_7 Y9_6 2.859068 1_556
Ni0_7 Y5_6 2.902170 1_556
Ni0_7 Y5_7 2.902170 1_555
Ni1_0 Y1_0 2.732341 1_555
Ni1_0 Y1_1 2.732341 1_555
Ni1_0 Y10_1 2.859068 1_555
Ni1_0 Y10_0 2.859068 1_555
Ni1_0 Y4_1 2.902170 1_555
Ni1_0 Y4_0 2.902170 1_555
Ni1_1 Y1_0 2.732341 1_556
Ni1_1 Y1_1 2.732341 1_555
Ni1_1 Y10_0 2.859068 1_556
Ni1_1 Y10_1 2.859068 1_555
Ni1_1 Y4_1 2.902170 1_555
Ni1_1 Y4_0 2.902170 1_556
Ni1_2 Y1_2 2.732341 1_555
Ni1_2 Y1_3 2.732341 1_555
Ni1_2 Y10_2 2.859068 1_555
Ni1_2 Y10_3 2.859068 1_555
Ni1_2 Y4_3 2.902170 1_555
Ni1_2 Y4_2 2.902170 1_555
Ni1_3 Y1_2 2.732341 1_556
Ni1_3 Y1_3 2.732341 1_555
Ni1_3 Y10_2 2.859068 1_556
Ni1_3 Y10_3 2.859068 1_555
Ni1_3 Y4_3 2.902170 1_555
Ni1_3 Y4_2 2.902170 1_556
Ni1_4 Y1_5 2.732341 1_555
Ni1_4 Y1_4 2.732341 1_555
Ni1_4 Y10_5 2.859068 1_555
Ni1_4 Y10_4 2.859068 1_555
Ni1_4 Y4_4 2.902170 1_555
Ni1_4 Y4_5 2.902170 1_555
Ni1_5 Y1_5 2.732341 1_555
Ni1_5 Y1_4 2.732341 1_556
Ni1_5 Y10_4 2.859068 1_556
Ni1_5 Y10_5 2.859068 1_555
Ni1_5 Y4_4 2.902170 1_556
Ni1_5 Y4_5 2.902170 1_555
Ni1_6 Y1_7 2.732341 1_555
Ni1_6 Y1_6 2.732341 1_555
Ni1_6 Y10_6 2.859068 1_555
Ni1_6 Y10_7 2.859068 1_555
Ni1_6 Y4_6 2.902170 1_555
Ni1_6 Y4_7 2.902170 1_555
Ni1_7 Y1_7 2.732341 1_555
Ni1_7 Y1_6 2.732341 1_556
Ni1_7 Y10_6 2.859068 1_556
Ni1_7 Y10_7 2.859068 1_555
Ni1_7 Y4_6 2.902170 1_556
Ni1_7 Y4_7 2.902170 1_555
Ni2_0 Y2_0 2.732341 1_555
Ni2_0 Y2_1 2.732341 1_555
Ni2_0 Y9_0 2.859068 1_555
Ni2_0 Y9_1 2.859068 1_555
Ni2_0 Y4_1 2.902170 1_555
Ni2_0 Y4_0 2.902170 1_555
Ni2_1 Y2_1 2.732341 1_555
Ni2_1 Y2_0 2.732341 1_556
Ni2_1 Y9_0 2.859068 1_556
Ni2_1 Y9_1 2.859068 1_555
Ni2_1 Y4_0 2.902170 1_556
Ni2_1 Y4_1 2.902170 1_555
Ni2_2 Y2_2 2.732341 1_555
Ni2_2 Y2_3 2.732341 1_555
Ni2_2 Y9_3 2.859068 1_555
Ni2_2 Y9_2 2.859068 1_555
Ni2_2 Y4_2 2.902170 1_555
Ni2_2 Y4_3 2.902170 1_555
Ni2_3 Y2_3 2.732341 1_555
Ni2_3 Y2_2 2.732341 1_556
Ni2_3 Y9_2 2.859068 1_556
Ni2_3 Y9_3 2.859068 1_555
Ni2_3 Y4_2 2.902170 1_556
Ni2_3 Y4_3 2.902170 1_555
Ni2_4 Y2_4 2.732341 1_555
Ni2_4 Y2_5 2.732341 1_555
Ni2_4 Y9_4 2.859068 1_555
Ni2_4 Y9_5 2.859068 1_555
Ni2_4 Y4_4 2.902170 1_555
Ni2_4 Y4_5 2.902170 1_555
Ni2_5 Y2_5 2.732341 1_555
Ni2_5 Y2_4 2.732341 1_556
Ni2_5 Y9_4 2.859068 1_556
Ni2_5 Y9_5 2.859068 1_555
Ni2_5 Y4_4 2.902170 1_556
Ni2_5 Y4_5 2.902170 1_555
Ni2_6 Y2_7 2.732341 1_555
Ni2_6 Y2_6 2.732341 1_555
Ni2_6 Y9_6 2.859068 1_555
Ni2_6 Y9_7 2.859068 1_555
Ni2_6 Y4_6 2.902170 1_555
Ni2_6 Y4_7 2.902170 1_555
Ni2_7 Y2_7 2.732341 1_555
Ni2_7 Y2_6 2.732341 1_556
Ni2_7 Y9_6 2.859068 1_556
Ni2_7 Y9_7 2.859068 1_555
Ni2_7 Y4_6 2.902170 1_556
Ni2_7 Y4_7 2.902170 1_555
Ni3_0 Y3_1 2.732341 1_555
Ni3_0 Y3_0 2.732341 1_555
Ni3_0 Y10_0 2.859068 1_555
Ni3_0 Y10_1 2.859068 1_555
Ni3_0 Y5_0 2.902170 1_555
Ni3_0 Y5_1 2.902170 1_555
Ni3_1 Y3_1 2.732341 1_555
Ni3_1 Y3_0 2.732341 1_556
Ni3_1 Y10_0 2.859068 1_556
Ni3_1 Y10_1 2.859068 1_555
Ni3_1 Y5_0 2.902170 1_556
Ni3_1 Y5_1 2.902170 1_555
Ni3_2 Y3_2 2.732341 1_555
Ni3_2 Y3_3 2.732341 1_555
Ni3_2 Y10_2 2.859068 1_555
Ni3_2 Y10_3 2.859068 1_555
Ni3_2 Y5_3 2.902170 1_555
Ni3_2 Y5_2 2.902170 1_555
Ni3_3 Y3_3 2.732341 1_555
Ni3_3 Y3_2 2.732341 1_556
Ni3_3 Y10_2 2.859068 1_556
Ni3_3 Y10_3 2.859068 1_555
Ni3_3 Y5_3 2.902170 1_555
Ni3_3 Y5_2 2.902170 1_556
Ni3_4 Y3_4 2.732341 1_555
Ni3_4 Y3_5 2.732341 1_555
Ni3_4 Y10_4 2.859068 1_555
Ni3_4 Y10_5 2.859068 1_555
Ni3_4 Y5_4 2.902170 1_555
Ni3_4 Y5_5 2.902170 1_555
Ni3_5 Y3_4 2.732341 1_556
Ni3_5 Y3_5 2.732341 1_555
Ni3_5 Y10_4 2.859068 1_556
Ni3_5 Y10_5 2.859068 1_555
Ni3_5 Y5_5 2.902170 1_555
Ni3_5 Y5_4 2.902170 1_556
Ni3_6 Y3_7 2.732341 1_555
Ni3_6 Y3_6 2.732341 1_555
Ni3_6 Y10_6 2.859068 1_555
Ni3_6 Y10_7 2.859068 1_555
Ni3_6 Y5_6 2.902170 1_555
Ni3_6 Y5_7 2.902170 1_555
Ni3_7 Y3_6 2.732341 1_556
Ni3_7 Y3_7 2.732341 1_555
Ni3_7 Y10_6 2.859068 1_556
Ni3_7 Y10_7 2.859068 1_555
Ni3_7 Y5_6 2.902170 1_556
Ni3_7 Y5_7 2.902170 1_555
