# generated using pymatgen
data_Ta12Si3Os9N4
_symmetry_space_group_name_H-M   'P 1'
_cell_length_a   8.33424374
_cell_length_b   8.33424497
_cell_length_c   8.33424489
_cell_angle_alpha   58.31014610
_cell_angle_beta   58.31014600
_cell_angle_gamma   58.31014189
_symmetry_Int_Tables_number   1
_chemical_formula_structural   Ta12Si3Os9N4
_chemical_formula_sum   'Ta12 Si3 Os9 N4'
_cell_volume   393.49902366
_cell_formula_units_Z   1
loop_
 _symmetry_equiv_pos_site_id
 _symmetry_equiv_pos_as_xyz
  1  'x, y, z'
loop_
 _atom_site_type_symbol
 _atom_site_label
 _atom_site_symmetry_multiplicity
 _atom_site_fract_x
 _atom_site_fract_y
 _atom_site_fract_z
 _atom_site_occupancy
  Ta  Ta0  1  0.80417273  0.80417273  0.19827304  1
  Ta  Ta1  1  0.19401890  0.19401890  0.80638824  1
  Ta  Ta2  1  0.80417273  0.19827304  0.80417273  1
  Ta  Ta3  1  0.19401890  0.80638824  0.19401890  1
  Ta  Ta4  1  0.19827304  0.80417273  0.80417273  1
  Ta  Ta5  1  0.80638824  0.19401890  0.19401890  1
  Ta  Ta6  1  0.44582727  0.44582727  0.05172696  1
  Ta  Ta7  1  0.05598110  0.05598110  0.44361176  1
  Ta  Ta8  1  0.44582727  0.05172696  0.44582727  1
  Ta  Ta9  1  0.05598110  0.44361176  0.05598110  1
  Ta  Ta10  1  0.05172696  0.44582727  0.44582727  1
  Ta  Ta11  1  0.44361176  0.05598110  0.05598110  1
  Si  Si0  1  0.12500000  0.62500000  0.62500000  1
  Si  Si1  1  0.62500000  0.12500000  0.62500000  1
  Si  Si2  1  0.62500000  0.62500000  0.12500000  1
  Os  Os0  1  0.62500000  0.62500000  0.62500000  1
  Os  Os1  1  0.74972696  0.41047786  0.41047786  1
  Os  Os2  1  0.41047786  0.74972696  0.41047786  1
  Os  Os3  1  0.41047786  0.41047786  0.74972696  1
  Os  Os4  1  0.41442441  0.41442441  0.41442441  1
  Os  Os5  1  0.50027304  0.83952214  0.83952214  1
  Os  Os6  1  0.83952214  0.50027304  0.83952214  1
  Os  Os7  1  0.83952214  0.83952214  0.50027304  1
  Os  Os8  1  0.83557559  0.83557559  0.83557559  1
  N  N0  1  0.62500000  0.12500000  0.12500000  1
  N  N1  1  0.12500000  0.62500000  0.12500000  1
  N  N2  1  0.12500000  0.12500000  0.62500000  1
  N  N3  1  0.12500000  0.12500000  0.12500000  1
loop_
_geom_bond_atom_site_label_1
_geom_bond_atom_site_label_2
_geom_bond_distance
_geom_bond_site_symmetry_2
Si0 Ta7 2.925037 1_565
Si0 Ta1 2.925037 1_555
Si0 Ta9 2.925037 1_556
Si0 Ta3 2.925037 1_555
Si0 Ta4 3.015224 1_555
Si0 Ta10 3.015224 1_555
Si1 Ta7 2.925037 1_655
Si1 Ta1 2.925037 1_555
Si1 Ta11 2.925037 1_556
Si1 Ta5 2.925037 1_555
Si1 Ta2 3.015224 1_555
Si1 Ta8 3.015224 1_555
Si2 Ta9 2.925036 1_655
Si2 Ta3 2.925036 1_555
Si2 Ta11 2.925037 1_565
Si2 Ta5 2.925037 1_555
Si2 Ta0 3.015224 1_555
Si2 Ta6 3.015224 1_555
Os0 Os6 2.631869 1_555
Os0 Os2 2.631869 1_555
Os0 Os7 2.631869 1_555
Os0 Os3 2.631869 1_555
Os0 Os5 2.631869 1_555
Os0 Os1 2.631869 1_555
Os0 Ta10 2.879486 1_655
Os0 Ta4 2.879486 1_555
Os0 Ta8 2.879486 1_565
Os0 Ta2 2.879486 1_555
Os0 Ta6 2.879486 1_556
Os0 Ta0 2.879486 1_555
Os1 Si2 2.472754 1_555
Os1 Si1 2.472754 1_555
Os1 Ta7 2.698209 1_655
Os1 Ta9 2.698209 1_655
Os1 Os2 2.754862 1_555
Os1 Os3 2.754863 1_555
Os1 Os4 2.760317 1_555
Os1 Ta10 2.856207 1_655
Os1 Ta5 2.891573 1_555
Os1 Ta2 2.953639 1_555
Os1 Ta0 2.953639 1_555
Os2 Si0 2.472754 1_555
Os2 Si2 2.472754 1_555
Os2 Ta7 2.698209 1_565
Os2 Ta11 2.698210 1_565
Os2 Os3 2.754863 1_555
Os2 Os4 2.760318 1_555
Os2 Ta8 2.856207 1_565
Os2 Ta3 2.891572 1_555
Os2 Ta0 2.953639 1_555
Os2 Ta4 2.953639 1_555
Os3 Si0 2.472754 1_555
Os3 Si1 2.472754 1_555
Os3 Ta9 2.698209 1_556
Os3 Ta11 2.698210 1_556
Os3 Os4 2.760318 1_555
Os3 Ta6 2.856207 1_556
Os3 Ta1 2.891573 1_555
Os3 Ta2 2.953638 1_555
Os3 Ta4 2.953639 1_555
Os4 Si1 2.513767 1_555
Os4 Si0 2.513767 1_555
Os4 Si2 2.513767 1_555
Os4 Ta10 2.771994 1_555
Os4 Ta6 2.771995 1_555
Os4 Ta8 2.771995 1_555
Os4 Ta5 2.890668 1_555
Os4 Ta3 2.890668 1_555
Os4 Ta1 2.890668 1_555
Os5 Si2 2.472754 1_556
Os5 Si1 2.472754 1_565
Os5 Ta1 2.698209 1_565
Os5 Ta3 2.698209 1_556
Os5 Os6 2.754862 1_555
Os5 Os7 2.754863 1_555
Os5 Os8 2.760317 1_555
Os5 Ta4 2.856207 1_555
Os5 Ta11 2.891573 1_566
Os5 Ta8 2.953639 1_565
Os5 Ta6 2.953639 1_556
Os6 Si0 2.472754 1_655
Os6 Si2 2.472754 1_556
Os6 Ta1 2.698209 1_655
Os6 Ta5 2.698210 1_556
Os6 Os7 2.754863 1_555
Os6 Os8 2.760318 1_555
Os6 Ta2 2.856207 1_555
Os6 Ta9 2.891572 1_656
Os6 Ta6 2.953639 1_556
Os6 Ta10 2.953639 1_655
Os7 Si0 2.472754 1_655
Os7 Si1 2.472754 1_565
Os7 Ta3 2.698209 1_655
Os7 Ta5 2.698210 1_565
Os7 Os8 2.760318 1_555
Os7 Ta0 2.856207 1_555
Os7 Ta7 2.891573 1_665
Os7 Ta8 2.953638 1_565
Os7 Ta10 2.953639 1_655
Os8 Si1 2.513767 1_565
Os8 Si0 2.513767 1_655
Os8 Si2 2.513767 1_556
Os8 Ta4 2.771994 1_655
Os8 Ta0 2.771995 1_556
Os8 Ta2 2.771995 1_565
Os8 Ta11 2.890668 1_566
Os8 Ta9 2.890668 1_656
Os8 Ta7 2.890668 1_665
N0 Ta6 2.190849 1_555
N0 Ta0 2.190849 1_545
N0 Ta8 2.190849 1_555
N0 Ta2 2.190849 1_554
N0 Ta5 2.263176 1_555
N0 Ta11 2.263176 1_555
N1 Ta6 2.190849 1_555
N1 Ta0 2.190849 1_455
N1 Ta10 2.190849 1_555
N1 Ta4 2.190849 1_554
N1 Ta3 2.263176 1_555
N1 Ta9 2.263176 1_555
N2 Ta8 2.190849 1_555
N2 Ta2 2.190849 1_455
N2 Ta4 2.190849 1_545
N2 Ta10 2.190849 1_555
N2 Ta1 2.263176 1_555
N2 Ta7 2.263176 1_555
N3 Ta11 2.202477 1_555
N3 Ta5 2.202477 1_455
N3 Ta9 2.202478 1_555
N3 Ta3 2.202478 1_545
N3 Ta7 2.202478 1_555
N3 Ta1 2.202478 1_554
