# generated using pymatgen
data_NdPPd
_symmetry_space_group_name_H-M   'P 1'
_cell_length_a   4.21883671
_cell_length_b   4.21883641
_cell_length_c   7.86753799
_cell_angle_alpha   90.00000000
_cell_angle_beta   90.00000000
_cell_angle_gamma   119.99999411
_symmetry_Int_Tables_number   1
_chemical_formula_structural   NdPPd
_chemical_formula_sum   'Nd2 P2 Pd2'
_cell_volume   121.27042743
_cell_formula_units_Z   2
loop_
 _symmetry_equiv_pos_site_id
 _symmetry_equiv_pos_as_xyz
  1  'x, y, z'
loop_
 _atom_site_type_symbol
 _atom_site_label
 _atom_site_symmetry_multiplicity
 _atom_site_fract_x
 _atom_site_fract_y
 _atom_site_fract_z
 _atom_site_occupancy
  Nd  Nd0  1  -0.00000000  -0.00000000  0.50000000  1
  Nd  Nd1  1  -0.00000000  -0.00000000  -0.00000000  1
  P  P0  1  0.66666700  0.33333300  0.25000000  1
  P  P1  1  0.33333300  0.66666700  0.75000000  1
  Pd  Pd0  1  0.33333300  0.66666700  0.25000000  1
  Pd  Pd1  1  0.66666700  0.33333300  0.75000000  1
loop_
_geom_bond_atom_site_label_1
_geom_bond_atom_site_label_2
_geom_bond_distance
_geom_bond_site_symmetry_2
Nd0 Pd1 3.130732 1_455
Nd0 Pd0 3.130732 1_545
Nd0 P0 3.130732 1_455
Nd0 P1 3.130732 1_545
Nd0 Pd1 3.130735 1_445
Nd0 P1 3.130735 1_555
Nd0 Pd0 3.130735 1_555
Nd0 P0 3.130735 1_445
Nd0 Pd0 3.130735 1_445
Nd0 P0 3.130735 1_555
Nd0 Pd1 3.130735 1_555
Nd0 P1 3.130735 1_445
Nd1 Pd1 3.130732 1_454
Nd1 Pd0 3.130732 1_545
Nd1 P1 3.130732 1_544
Nd1 P0 3.130732 1_455
Nd1 Pd0 3.130735 1_555
Nd1 P1 3.130735 1_554
Nd1 Pd1 3.130735 1_444
Nd1 P0 3.130735 1_445
Nd1 Pd0 3.130735 1_445
Nd1 P0 3.130735 1_555
Nd1 Pd1 3.130735 1_554
Nd1 P1 3.130735 1_444
P0 Pd0 2.435744 1_545
P0 Pd0 2.435744 1_655
P0 Pd0 2.435751 1_555
P1 Pd1 2.435744 1_565
P1 Pd1 2.435744 1_455
P1 Pd1 2.435751 1_555
