# generated using pymatgen
data_Na3Li2SnAs3
_symmetry_space_group_name_H-M   'P 1'
_cell_length_a   9.77110767
_cell_length_b   9.77110800
_cell_length_c   14.19129620
_cell_angle_alpha   90.00000000
_cell_angle_beta   90.00000000
_cell_angle_gamma   144.02304901
_symmetry_Int_Tables_number   1
_chemical_formula_structural   Na3Li2SnAs3
_chemical_formula_sum   'Na12 Li8 Sn4 As12'
_cell_volume   795.95368004
_cell_formula_units_Z   4
loop_
 _symmetry_equiv_pos_site_id
 _symmetry_equiv_pos_as_xyz
  1  'x, y, z'
loop_
 _atom_site_type_symbol
 _atom_site_label
 _atom_site_symmetry_multiplicity
 _atom_site_fract_x
 _atom_site_fract_y
 _atom_site_fract_z
 _atom_site_occupancy
  Na  Na0  1  0.59141288  0.93330819  0.82199878  1
  Na  Na1  1  0.26565451  0.26565451  0.32132389  1
  Na  Na2  1  0.23434549  0.23434549  0.82132389  1
  Na  Na3  1  0.73434549  0.73434549  0.67867611  1
  Na  Na4  1  0.43330819  0.09141288  0.67800122  1
  Na  Na5  1  0.90858712  0.56669181  0.32199878  1
  Na  Na6  1  0.06669181  0.40858712  0.17800122  1
  Na  Na7  1  0.40858712  0.06669181  0.17800122  1
  Na  Na8  1  0.56669181  0.90858712  0.32199878  1
  Na  Na9  1  0.09141288  0.43330819  0.67800122  1
  Na  Na10  1  0.93330819  0.59141288  0.82199878  1
  Na  Na11  1  0.76565451  0.76565451  0.17867611  1
  Li  Li0  1  0.08344549  0.91655451  0.00000000  1
  Li  Li1  1  0.58344549  0.41655451  0.50000000  1
  Li  Li2  1  0.91655451  0.08344549  0.00000000  1
  Li  Li3  1  0.75508275  0.24491725  0.00000000  1
  Li  Li4  1  0.74491725  0.25508275  0.50000000  1
  Li  Li5  1  0.24491725  0.75508275  0.00000000  1
  Li  Li6  1  0.25508275  0.74491725  0.50000000  1
  Li  Li7  1  0.41655451  0.58344549  0.50000000  1
  Sn  Sn0  1  0.09260933  0.90739067  0.50000000  1
  Sn  Sn1  1  0.40739067  0.59260933  0.00000000  1
  Sn  Sn2  1  0.90739067  0.09260933  0.50000000  1
  Sn  Sn3  1  0.59260933  0.40739067  0.00000000  1
  As  As0  1  0.08125400  0.41463681  0.38667755  1
  As  As1  1  0.91463681  0.58125400  0.11332245  1
  As  As2  1  0.41874600  0.08536319  0.88667755  1
  As  As3  1  0.58536319  0.91874600  0.61332245  1
  As  As4  1  0.91874600  0.58536319  0.61332245  1
  As  As5  1  0.08536319  0.41874600  0.88667755  1
  As  As6  1  0.58125400  0.91463681  0.11332245  1
  As  As7  1  0.41463681  0.08125400  0.38667755  1
  As  As8  1  0.23521077  0.23521077  0.60556253  1
  As  As9  1  0.73521077  0.73521077  0.89443747  1
  As  As10  1  0.26478923  0.26478923  0.10556253  1
  As  As11  1  0.76478923  0.76478923  0.39443747  1
loop_
_geom_bond_atom_site_label_1
_geom_bond_atom_site_label_2
_geom_bond_distance
_geom_bond_site_symmetry_2
Na0 Sn1 3.317870 1_556
Na1 Sn2 3.458744 1_455
Na1 Sn0 3.458744 1_545
Na2 Sn3 3.458744 1_556
Na2 Sn1 3.458744 1_556
Na3 Sn0 3.458744 1_655
Na3 Sn2 3.458744 1_565
Na4 Sn0 3.317870 1_545
Na5 Sn0 3.317870 1_655
Na6 Sn1 3.317870 1_555
Na7 Sn3 3.317870 1_555
Na8 Sn2 3.317870 1_565
Na9 Sn2 3.317870 1_455
Na10 Sn3 3.317870 1_556
Na11 Sn1 3.458744 1_555
Na11 Sn3 3.458744 1_555
Li0 Sn3 3.022372 1_565
Li0 Sn3 3.022372 1_455
Li1 Sn0 3.022372 1_655
Li1 Sn0 3.022372 1_545
Li2 Sn1 3.022372 1_545
Li2 Sn1 3.022372 1_655
Li3 Sn3 3.019888 1_555
Li4 Sn2 3.019888 1_555
Li5 Sn1 3.019888 1_555
Li6 Sn0 3.019888 1_555
Li7 Sn2 3.022372 1_455
Li7 Sn2 3.022372 1_565
As0 Sn2 2.592580 1_455
As0 Li6 2.648461 1_555
As0 Li7 2.700812 1_555
As0 Li4 2.743111 1_455
As0 Na6 2.963097 1_555
As0 Na8 3.095638 1_555
As0 Na5 3.154911 1_455
As0 Na8 3.214610 1_445
As0 Na1 3.235889 1_555
As1 Sn3 2.592580 1_555
As1 Li5 2.648461 1_655
As1 Li0 2.700812 1_655
As1 Li3 2.743111 1_555
As1 Na5 2.963097 1_555
As1 Na7 3.095638 1_665
As1 Na6 3.154911 1_655
As1 Na7 3.214610 1_555
As1 Na11 3.235889 1_555
As2 Sn3 2.592580 1_556
As2 Li5 2.648461 1_546
As2 Li0 2.700812 1_546
As2 Li3 2.743111 1_556
As2 Na4 2.963097 1_555
As2 Na10 3.095638 1_445
As2 Na0 3.154911 1_545
As2 Na10 3.214610 1_555
As2 Na2 3.235889 1_555
As3 Sn2 2.592580 1_565
As3 Li6 2.648461 1_555
As3 Li7 2.700812 1_555
As3 Li4 2.743111 1_565
As3 Na0 2.963097 1_555
As3 Na9 3.095638 1_555
As3 Na4 3.154911 1_565
As3 Na9 3.214610 1_665
As3 Na3 3.235889 1_555
As4 Sn0 2.592580 1_655
As4 Li4 2.648461 1_555
As4 Li1 2.700812 1_555
As4 Li6 2.743111 1_655
As4 Na10 2.963097 1_555
As4 Na4 3.095638 1_555
As4 Na9 3.154911 1_655
As4 Na4 3.214610 1_665
As4 Na3 3.235889 1_555
As5 Sn1 2.592580 1_556
As5 Li3 2.648461 1_456
As5 Li2 2.700812 1_456
As5 Li5 2.743111 1_556
As5 Na9 2.963097 1_555
As5 Na0 3.095638 1_445
As5 Na10 3.154911 1_455
As5 Na0 3.214610 1_555
As5 Na2 3.235889 1_555
As6 Sn1 2.592580 1_555
As6 Li3 2.648461 1_565
As6 Li2 2.700812 1_565
As6 Li5 2.743111 1_555
As6 Na8 2.963097 1_555
As6 Na6 3.095638 1_665
As6 Na7 3.154911 1_565
As6 Na6 3.214610 1_555
As6 Na11 3.235889 1_555
As7 Sn0 2.592580 1_545
As7 Li4 2.648461 1_555
As7 Li1 2.700812 1_555
As7 Li6 2.743111 1_545
As7 Na7 2.963097 1_555
As7 Na5 3.095638 1_555
As7 Na8 3.154911 1_545
As7 Na5 3.214610 1_445
As7 Na1 3.235889 1_555
As8 Li1 2.683941 1_555
As8 Li7 2.683941 1_555
As8 Sn2 2.687423 1_455
As8 Sn0 2.687423 1_545
As8 Na2 3.061938 1_555
As8 Na3 3.186032 1_555
As8 Na3 3.195909 1_445
As8 Na4 3.343574 1_555
As8 Na9 3.343574 1_555
As9 Li0 2.683941 1_656
As9 Li2 2.683941 1_566
As9 Sn1 2.687423 1_556
As9 Sn3 2.687423 1_556
As9 Na3 3.061938 1_555
As9 Na2 3.186032 1_665
As9 Na2 3.195909 1_555
As9 Na10 3.343574 1_555
As9 Na0 3.343574 1_555
As10 Li2 2.683941 1_455
As10 Li0 2.683941 1_545
As10 Sn3 2.687423 1_555
As10 Sn1 2.687423 1_555
As10 Na1 3.061938 1_555
As10 Na11 3.186032 1_445
As10 Na11 3.195909 1_555
As10 Na6 3.343574 1_555
As10 Na7 3.343574 1_555
As11 Li7 2.683941 1_555
As11 Li1 2.683941 1_555
As11 Sn0 2.687423 1_655
As11 Sn2 2.687423 1_565
As11 Na11 3.061938 1_555
As11 Na1 3.186032 1_555
As11 Na1 3.195909 1_665
As11 Na8 3.343574 1_555
As11 Na5 3.343574 1_555
