# generated using pymatgen
data_Er(SiPd)2
_symmetry_space_group_name_H-M   'P 1'
_cell_length_a   4.10506369
_cell_length_b   4.10506264
_cell_length_c   5.75117775
_cell_angle_alpha   110.90925369
_cell_angle_beta   110.90924565
_cell_angle_gamma   89.99999945
_symmetry_Int_Tables_number   1
_chemical_formula_structural   Er(SiPd)2
_chemical_formula_sum   'Er1 Si2 Pd2'
_cell_volume   83.66630802
_cell_formula_units_Z   1
loop_
 _symmetry_equiv_pos_site_id
 _symmetry_equiv_pos_as_xyz
  1  'x, y, z'
loop_
 _atom_site_type_symbol
 _atom_site_label
 _atom_site_symmetry_multiplicity
 _atom_site_fract_x
 _atom_site_fract_y
 _atom_site_fract_z
 _atom_site_occupancy
  Er  Er0  1  0.00000000  0.00000000  -0.00000000  1
  Si  Si0  1  0.61555157  0.61555157  0.23110313  1
  Si  Si1  1  0.38444843  0.38444843  0.76889687  1
  Pd  Pd0  1  0.75000000  0.25000000  0.50000000  1
  Pd  Pd1  1  0.25000000  0.75000000  0.50000000  1
loop_
_geom_bond_atom_site_label_1
_geom_bond_atom_site_label_2
_geom_bond_distance
_geom_bond_site_symmetry_2
Er0 Si0 3.121267 1_455
Er0 Si1 3.121267 1_544
Er0 Si0 3.121267 1_445
Er0 Si1 3.121267 1_554
Er0 Si1 3.121268 1_454
Er0 Si0 3.121268 1_545
Er0 Si0 3.121268 1_555
Er0 Si1 3.121268 1_444
Er0 Pd1 3.221095 1_544
Er0 Pd0 3.221095 1_455
Er0 Pd0 3.221095 1_444
Er0 Pd1 3.221095 1_555
Er0 Pd0 3.221095 1_454
Er0 Pd1 3.221095 1_545
Er0 Pd0 3.221096 1_555
Er0 Pd1 3.221096 1_444
Si0 Si1 2.294810 1_554
Pd0 Si0 2.448517 1_545
Pd0 Si0 2.448517 1_555
Pd0 Si1 2.448517 1_555
Pd0 Si1 2.448518 1_655
Pd1 Si1 2.448517 1_565
Pd1 Si1 2.448517 1_555
Pd1 Si0 2.448517 1_555
Pd1 Si0 2.448518 1_455
