# generated using pymatgen
data_MnCd(S2O7)2
_symmetry_space_group_name_H-M   'P 1'
_cell_length_a   5.07317771
_cell_length_b   7.15370159
_cell_length_c   8.61584059
_cell_angle_alpha   93.09045728
_cell_angle_beta   95.22996024
_cell_angle_gamma   108.09832051
_symmetry_Int_Tables_number   1
_chemical_formula_structural   MnCd(S2O7)2
_chemical_formula_sum   'Mn1 Cd1 S4 O14'
_cell_volume   294.85961623
_cell_formula_units_Z   1
loop_
 _symmetry_equiv_pos_site_id
 _symmetry_equiv_pos_as_xyz
  1  'x, y, z'
loop_
 _atom_site_type_symbol
 _atom_site_label
 _atom_site_symmetry_multiplicity
 _atom_site_fract_x
 _atom_site_fract_y
 _atom_site_fract_z
 _atom_site_occupancy
  Mn  Mn0  1  0.50000000  0.00000000  0.50000000  1
  Cd  Cd0  1  0.00000000  0.50000000  0.00000000  1
  S  S0  1  0.52057812  0.64873219  0.76298054  1
  S  S1  1  0.47942188  0.35126781  0.23701946  1
  S  S2  1  0.14372173  0.25230451  0.68300723  1
  S  S3  1  0.85627827  0.74769549  0.31699277  1
  O  O0  1  0.74743155  0.56944652  0.79352902  1
  O  O1  1  0.25256845  0.43055348  0.20647098  1
  O  O2  1  0.38999866  0.68128156  0.89944463  1
  O  O3  1  0.61000134  0.31871844  0.10055537  1
  O  O4  1  0.58638030  0.81195400  0.66777956  1
  O  O5  1  0.41361970  0.18804600  0.33222044  1
  O  O6  1  0.28295076  0.48208635  0.64466414  1
  O  O7  1  0.71704924  0.51791365  0.35533586  1
  O  O8  1  0.92224774  0.18783893  0.55617903  1
  O  O9  1  0.07775226  0.81216107  0.44382097  1
  O  O10  1  0.35968486  0.16134048  0.67561360  1
  O  O11  1  0.64031514  0.83865952  0.32438640  1
  O  O12  1  0.05477748  0.25761535  0.83713302  1
  O  O13  1  0.94522252  0.74238465  0.16286698  1
loop_
_geom_bond_atom_site_label_1
_geom_bond_atom_site_label_2
_geom_bond_distance
_geom_bond_site_symmetry_2
Mn0 O4 2.133487 1_545
Mn0 O5 2.133487 1_555
Mn0 O8 2.140359 1_555
Mn0 O9 2.140359 1_545
Mn0 O10 2.155624 1_555
Mn0 O11 2.155624 1_545
Cd0 O1 2.264598 1_555
Cd0 O0 2.264598 1_454
Cd0 O13 2.271780 1_455
Cd0 O12 2.271780 1_554
Cd0 O2 2.277382 1_554
Cd0 O3 2.277382 1_455
O0 S0 1.442879 1_555
O1 S1 1.442879 1_555
O2 S0 1.443526 1_555
O3 S1 1.443526 1_555
O4 S0 1.434790 1_555
O5 S1 1.434790 1_555
O6 S0 1.632689 1_555
O6 S2 1.640067 1_555
O7 S1 1.632689 1_555
O7 S3 1.640067 1_555
O8 S2 1.438425 1_655
O9 S3 1.438425 1_455
O10 S2 1.441908 1_555
O11 S3 1.441908 1_555
O12 S2 1.443219 1_555
O13 S3 1.443219 1_555
