# generated using pymatgen
data_InBiRh2O7
_symmetry_space_group_name_H-M   'P 1'
_cell_length_a   7.11524492
_cell_length_b   7.11524460
_cell_length_c   6.98400644
_cell_angle_alpha   60.60829112
_cell_angle_beta   60.60829254
_cell_angle_gamma   61.37616763
_symmetry_Int_Tables_number   1
_chemical_formula_structural   InBiRh2O7
_chemical_formula_sum   'In2 Bi2 Rh4 O14'
_cell_volume   254.85854637
_cell_formula_units_Z   2
loop_
 _symmetry_equiv_pos_site_id
 _symmetry_equiv_pos_as_xyz
  1  'x, y, z'
loop_
 _atom_site_type_symbol
 _atom_site_label
 _atom_site_symmetry_multiplicity
 _atom_site_fract_x
 _atom_site_fract_y
 _atom_site_fract_z
 _atom_site_occupancy
  In  In0  1  0.12500000  0.12500000  0.12500000  1
  In  In1  1  0.12500000  0.12500000  0.62500000  1
  Bi  Bi0  1  0.12500000  0.62500000  0.12500000  1
  Bi  Bi1  1  0.62500000  0.12500000  0.12500000  1
  Rh  Rh0  1  0.62500000  0.62500000  0.62500000  1
  Rh  Rh1  1  0.62500000  0.62500000  0.12500000  1
  Rh  Rh2  1  0.12500000  0.62500000  0.62500000  1
  Rh  Rh3  1  0.62500000  0.12500000  0.62500000  1
  O  O0  1  0.24493175  0.24493175  0.25506825  1
  O  O1  1  0.28921624  0.71561368  0.28664687  1
  O  O2  1  0.96674826  0.96674826  0.53325174  1
  O  O3  1  0.53438632  0.96078376  0.54147579  1
  O  O4  1  0.71181273  0.71181273  0.28818727  1
  O  O5  1  0.96078376  0.53438632  0.54147579  1
  O  O6  1  0.71561368  0.28921624  0.70852421  1
  O  O7  1  0.28325174  0.28325174  0.71674826  1
  O  O8  1  0.71561368  0.28921624  0.28664687  1
  O  O9  1  0.28921624  0.71561368  0.70852421  1
  O  O10  1  0.96078376  0.53438632  0.96335313  1
  O  O11  1  0.53818727  0.53818727  0.96181273  1
  O  O12  1  0.00506825  0.00506825  0.99493175  1
  O  O13  1  0.53438632  0.96078376  0.96335313  1
loop_
_geom_bond_atom_site_label_1
_geom_bond_atom_site_label_2
_geom_bond_distance
_geom_bond_site_symmetry_2
In0 O12 2.121562 1_554
In0 O0 2.121562 1_555
In0 O2 2.361675 1_445
In0 O7 2.361675 1_554
In0 O10 2.435289 1_454
In0 O1 2.435289 1_545
In0 O13 2.435289 1_544
In0 O8 2.435289 1_455
In1 O12 2.121562 1_555
In1 O0 2.121562 1_555
In1 O7 2.361675 1_555
In1 O2 2.361675 1_445
In1 O5 2.435288 1_455
In1 O9 2.435288 1_545
In1 O3 2.435288 1_545
In1 O6 2.435288 1_455
Bi0 O0 2.237211 1_555
Bi0 O12 2.237211 1_564
Bi0 O5 2.405498 1_455
Bi0 O9 2.405498 1_554
Bi0 O1 2.405504 1_555
Bi0 O10 2.405504 1_454
Bi0 O11 2.446609 1_554
Bi0 O4 2.446609 1_455
Bi1 O12 2.237211 1_654
Bi1 O0 2.237211 1_555
Bi1 O6 2.405498 1_554
Bi1 O3 2.405498 1_545
Bi1 O8 2.405504 1_555
Bi1 O13 2.405504 1_544
Bi1 O11 2.446609 1_554
Bi1 O4 2.446609 1_545
O1 Rh2 1.970065 1_555
O1 Rh1 1.997365 1_555
O2 Rh2 2.036358 1_655
O2 Rh3 2.036358 1_565
O3 Rh3 1.970070 1_565
O3 Rh0 1.997364 1_555
O4 Rh1 1.951814 1_555
O4 Rh0 1.951814 1_555
O5 Rh2 1.970070 1_655
O5 Rh0 1.997364 1_555
O6 Rh3 1.970070 1_555
O6 Rh0 1.997364 1_555
O7 Rh2 2.036358 1_555
O7 Rh3 2.036358 1_555
O8 Rh3 1.970065 1_555
O8 Rh1 1.997365 1_555
O9 Rh2 1.970070 1_555
O9 Rh0 1.997364 1_555
O10 Rh2 1.970065 1_655
O10 Rh1 1.997365 1_556
O11 Rh1 1.951814 1_556
O11 Rh0 1.951814 1_555
O13 Rh3 1.970065 1_565
O13 Rh1 1.997365 1_556
