# generated using pymatgen
data_P2OsO7
_symmetry_space_group_name_H-M   'P 1'
_cell_length_a   7.95538873
_cell_length_b   4.85300473
_cell_length_c   7.01447954
_cell_angle_alpha   72.72951452
_cell_angle_beta   90.00000000
_cell_angle_gamma   90.00000000
_symmetry_Int_Tables_number   1
_chemical_formula_structural   P2OsO7
_chemical_formula_sum   'P4 Os2 O14'
_cell_volume   258.60193462
_cell_formula_units_Z   2
loop_
 _symmetry_equiv_pos_site_id
 _symmetry_equiv_pos_as_xyz
  1  'x, y, z'
loop_
 _atom_site_type_symbol
 _atom_site_label
 _atom_site_symmetry_multiplicity
 _atom_site_fract_x
 _atom_site_fract_y
 _atom_site_fract_z
 _atom_site_occupancy
  P  P0  1  0.87029441  0.60112533  0.51154789  1
  P  P1  1  0.28193588  0.77724586  0.09963239  1
  P  P2  1  0.78193588  0.22275414  0.90036761  1
  P  P3  1  0.37029441  0.39887467  0.48845211  1
  Os  Os0  1  0.55405938  0.78653314  0.72427574  1
  Os  Os1  1  0.05405938  0.21346686  0.27572426  1
  O  O0  1  0.74061941  0.95466807  0.83784530  1
  O  O1  1  0.38150503  0.87049821  0.91021356  1
  O  O2  1  0.00976942  0.82121466  0.46454670  1
  O  O3  1  0.69613619  0.73133333  0.50360905  1
  O  O4  1  0.37103590  0.60221565  0.61749487  1
  O  O5  1  0.62436555  0.39672120  0.91028686  1
  O  O6  1  0.90632684  0.41596258  0.73568190  1
  O  O7  1  0.40632684  0.58403742  0.26431810  1
  O  O8  1  0.12436555  0.60327880  0.08971314  1
  O  O9  1  0.87103590  0.39778435  0.38250513  1
  O  O10  1  0.19613619  0.26866667  0.49639095  1
  O  O11  1  0.50976942  0.17878534  0.53545330  1
  O  O12  1  0.88150503  0.12950179  0.08978644  1
  O  O13  1  0.24061941  0.04533193  0.16215470  1
loop_
_geom_bond_atom_site_label_1
_geom_bond_atom_site_label_2
_geom_bond_distance
_geom_bond_site_symmetry_2
O0 P2 1.527031 1_565
O0 Os0 1.972079 1_555
O1 P1 1.496861 1_556
O1 Os0 2.016705 1_555
O2 P0 1.507181 1_455
O2 Os1 2.001264 1_565
O3 P0 1.516939 1_555
O3 Os0 1.997841 1_555
O4 P3 1.524316 1_555
O4 Os0 1.969507 1_555
O5 P2 1.524417 1_555
O5 Os0 2.031849 1_555
O6 P0 1.588256 1_555
O6 P2 1.596794 1_555
O7 P3 1.588256 1_555
O7 P1 1.596794 1_555
O8 P1 1.524417 1_555
O8 Os1 2.031849 1_555
O9 P0 1.524316 1_555
O9 Os1 1.969507 1_655
O10 P3 1.516939 1_555
O10 Os1 1.997841 1_555
O11 P3 1.507181 1_555
O11 Os0 2.001264 1_545
O12 P2 1.496861 1_554
O12 Os1 2.016705 1_655
O13 P1 1.527031 1_545
O13 Os1 1.972079 1_555
