# generated using pymatgen
data_ZnGaAg2F7
_symmetry_space_group_name_H-M   'P 1'
_cell_length_a   7.39898550
_cell_length_b   7.39898492
_cell_length_c   7.39898479
_cell_angle_alpha   121.07775680
_cell_angle_beta   117.23290556
_cell_angle_gamma   91.50077892
_symmetry_Int_Tables_number   1
_chemical_formula_structural   ZnGaAg2F7
_chemical_formula_sum   'Zn2 Ga2 Ag4 F14'
_cell_volume   289.57253121
_cell_formula_units_Z   2
loop_
 _symmetry_equiv_pos_site_id
 _symmetry_equiv_pos_as_xyz
  1  'x, y, z'
loop_
 _atom_site_type_symbol
 _atom_site_label
 _atom_site_symmetry_multiplicity
 _atom_site_fract_x
 _atom_site_fract_y
 _atom_site_fract_z
 _atom_site_occupancy
  Zn  Zn0  1  0.00000000  0.00000000  0.50000000  1
  Zn  Zn1  1  0.00000000  0.50000000  0.00000000  1
  Ga  Ga0  1  0.50000000  0.00000000  0.50000000  1
  Ga  Ga1  1  0.00000000  0.50000000  0.50000000  1
  Ag  Ag0  1  0.00000000  0.00000000  0.00000000  1
  Ag  Ag1  1  0.50000000  0.50000000  0.00000000  1
  Ag  Ag2  1  0.50000000  0.00000000  0.00000000  1
  Ag  Ag3  1  0.50000000  0.50000000  0.50000000  1
  F  F0  1  0.37214213  0.09037601  0.28176612  1
  F  F1  1  0.69139011  0.40962399  0.28176612  1
  F  F2  1  0.68340079  0.30257229  0.75929650  1
  F  F3  1  0.95672321  0.19742771  0.38082750  1
  F  F4  1  0.95672321  0.57589671  0.75929650  1
  F  F5  1  0.68340079  0.92410329  0.38082750  1
  F  F6  1  0.31659921  0.07589671  0.61917250  1
  F  F7  1  0.04327679  0.42410329  0.24070350  1
  F  F8  1  0.04327679  0.80257229  0.61917250  1
  F  F9  1  0.31659921  0.69742771  0.24070350  1
  F  F10  1  0.89659949  0.75000000  0.14659949  1
  F  F11  1  0.62785787  0.90962399  0.71823388  1
  F  F12  1  0.30860989  0.59037601  0.71823388  1
  F  F13  1  0.10340051  0.25000000  0.85340051  1
loop_
_geom_bond_atom_site_label_1
_geom_bond_atom_site_label_2
_geom_bond_distance
_geom_bond_site_symmetry_2
Ag0 F0 2.363406 1_555
Ag0 F11 2.363406 1_444
Ag0 F7 2.603231 1_555
Ag0 F4 2.603231 1_444
Ag0 F3 2.603237 1_455
Ag0 F8 2.603237 1_544
Ag1 F1 2.363406 1_555
Ag1 F12 2.363406 1_554
Ag1 F5 2.603233 1_555
Ag1 F6 2.603233 1_554
Ag1 F2 2.603239 1_554
Ag1 F9 2.603239 1_555
Ag2 F1 2.467254 1_555
Ag2 F12 2.467254 1_544
Ag2 F0 2.467254 1_555
Ag2 F11 2.467254 1_544
Ag3 F11 2.467254 1_555
Ag3 F0 2.467254 1_555
Ag3 F1 2.467254 1_555
Ag3 F12 2.467254 1_555
F0 Ga0 1.923333 1_555
F1 Ga1 1.923333 1_655
F2 Ga0 1.886268 1_555
F2 Zn1 2.027241 1_656
F3 Ga1 1.886266 1_655
F3 Zn0 2.027246 1_655
F4 Ga1 1.886272 1_655
F4 Zn1 2.027244 1_656
F5 Ga0 1.886274 1_565
F5 Zn0 2.027239 1_665
F6 Ga0 1.886274 1_555
F6 Zn0 2.027239 1_555
F7 Ga1 1.886272 1_555
F7 Zn1 2.027244 1_555
F8 Ga1 1.886266 1_555
F8 Zn0 2.027246 1_565
F9 Ga0 1.886268 1_565
F9 Zn1 2.027241 1_555
F10 Zn0 1.986362 1_665
F10 Zn1 1.986363 1_655
F11 Ga0 1.923333 1_565
F12 Ga1 1.923333 1_555
F13 Zn0 1.986362 1_555
F13 Zn1 1.986363 1_556
