# generated using pymatgen
data_RbGaGeS4
_symmetry_space_group_name_H-M   'P 1'
_cell_length_a   16.28641517
_cell_length_b   6.92855641
_cell_length_c   7.44398840
_cell_angle_alpha   70.25133096
_cell_angle_beta   90.00000000
_cell_angle_gamma   90.00000000
_symmetry_Int_Tables_number   1
_chemical_formula_structural   RbGaGeS4
_chemical_formula_sum   'Rb4 Ga4 Ge4 S16'
_cell_volume   790.58472589
_cell_formula_units_Z   4
loop_
 _symmetry_equiv_pos_site_id
 _symmetry_equiv_pos_as_xyz
  1  'x, y, z'
loop_
 _atom_site_type_symbol
 _atom_site_label
 _atom_site_symmetry_multiplicity
 _atom_site_fract_x
 _atom_site_fract_y
 _atom_site_fract_z
 _atom_site_occupancy
  Rb  Rb0  1  0.39649010  0.95065749  0.17785670  1
  Rb  Rb1  1  0.89649010  0.04934251  0.82214330  1
  Rb  Rb2  1  0.60096316  0.52819471  0.83281369  1
  Rb  Rb3  1  0.10096316  0.47180529  0.16718631  1
  Ga  Ga0  1  0.58542613  0.16420392  0.48058944  1
  Ga  Ga1  1  0.08542613  0.83579608  0.51941056  1
  Ga  Ga2  1  0.27221576  0.59336600  0.70374658  1
  Ga  Ga3  1  0.77221576  0.40663400  0.29625342  1
  Ge  Ge0  1  0.41994124  0.32378648  0.53558540  1
  Ge  Ge1  1  0.91994124  0.67621352  0.46441460  1
  Ge  Ge2  1  0.72493773  0.91054338  0.27789706  1
  Ge  Ge3  1  0.22493773  0.08945662  0.72210294  1
  S  S0  1  0.59730871  0.88580622  0.38429492  1
  S  S1  1  0.09730871  0.11419378  0.61570508  1
  S  S2  1  0.40806515  0.59707608  0.62286404  1
  S  S3  1  0.90806515  0.40292392  0.37713596  1
  S  S4  1  0.80161598  0.79047685  0.54421999  1
  S  S5  1  0.30161598  0.20952315  0.45578001  1
  S  S6  1  0.20032843  0.71648902  0.43351730  1
  S  S7  1  0.70032843  0.28351098  0.56648270  1
  S  S8  1  0.76003620  0.22347641  0.09331131  1
  S  S9  1  0.26003620  0.77652359  0.90668869  1
  S  S10  1  0.24006077  0.27232675  0.91142583  1
  S  S11  1  0.74006077  0.72767325  0.08857417  1
  S  S12  1  0.99758226  0.91215028  0.25812063  1
  S  S13  1  0.49758226  0.08784972  0.74187937  1
  S  S14  1  0.99502638  0.60852470  0.72780627  1
  S  S15  1  0.49502638  0.39147530  0.27219373  1
loop_
_geom_bond_atom_site_label_1
_geom_bond_atom_site_label_2
_geom_bond_distance
_geom_bond_site_symmetry_2
Rb0 S2 3.395051 1_555
Rb0 S13 3.473068 1_564
Rb0 S9 3.480646 1_554
Rb0 S5 3.520252 1_565
Rb0 S10 3.521951 1_564
Rb0 S0 3.576830 1_555
Rb0 S15 3.721063 1_565
Rb0 S6 3.791327 1_555
Rb1 S3 3.395051 1_555
Rb1 S12 3.473068 1_546
Rb1 S8 3.480646 1_556
Rb1 S4 3.520252 1_545
Rb1 S11 3.521951 1_546
Rb1 S1 3.576830 1_655
Rb1 S14 3.721063 1_545
Rb1 S7 3.791327 1_555
Rb2 S7 3.419780 1_555
Rb2 S0 3.420461 1_555
Rb2 S2 3.469295 1_555
Rb2 S8 3.487529 1_556
Rb2 S11 3.527779 1_556
Rb2 S15 3.532428 1_556
Rb2 S13 3.741265 1_555
Rb3 S6 3.419780 1_555
Rb3 S1 3.420461 1_555
Rb3 S3 3.469295 1_455
Rb3 S9 3.487529 1_554
Rb3 S10 3.527779 1_554
Rb3 S14 3.532428 1_454
Rb3 S12 3.741265 1_455
Ga0 S7 2.225139 1_555
Ga0 S0 2.281731 1_545
Ga0 S15 2.324417 1_555
Ga0 S13 2.326901 1_555
Ga1 S6 2.225139 1_555
Ga1 S1 2.281731 1_565
Ga1 S14 2.324417 1_455
Ga1 S12 2.326901 1_455
Ga2 S6 2.232771 1_555
Ga2 S9 2.286378 1_555
Ga2 S2 2.290822 1_555
Ga2 S10 2.299579 1_555
Ga3 S7 2.232771 1_555
Ga3 S8 2.286378 1_555
Ga3 S3 2.290822 1_555
Ga3 S11 2.299579 1_555
Ge0 S2 2.208220 1_555
Ge0 S13 2.221027 1_555
Ge0 S15 2.222212 1_555
Ge0 S5 2.238572 1_555
Ge1 S3 2.208220 1_555
Ge1 S12 2.221027 1_555
Ge1 S14 2.222212 1_555
Ge1 S4 2.238572 1_555
Ge2 S11 2.204294 1_555
Ge2 S0 2.210339 1_555
Ge2 S8 2.214149 1_565
Ge2 S4 2.251082 1_555
Ge3 S10 2.204294 1_555
Ge3 S1 2.210339 1_555
Ge3 S9 2.214149 1_545
Ge3 S5 2.251082 1_555
