# generated using pymatgen
data_Y6Sc2HgAu9
_symmetry_space_group_name_H-M   'P 1'
_cell_length_a   7.88807400
_cell_length_b   7.88807438
_cell_length_c   7.88807268
_cell_angle_alpha   66.41410151
_cell_angle_beta   66.41410442
_cell_angle_gamma   66.41409140
_symmetry_Int_Tables_number   1
_chemical_formula_structural   Y6Sc2HgAu9
_chemical_formula_sum   'Y6 Sc2 Hg1 Au9'
_cell_volume   395.03971654
_cell_formula_units_Z   1
loop_
 _symmetry_equiv_pos_site_id
 _symmetry_equiv_pos_as_xyz
  1  'x, y, z'
loop_
 _atom_site_type_symbol
 _atom_site_label
 _atom_site_symmetry_multiplicity
 _atom_site_fract_x
 _atom_site_fract_y
 _atom_site_fract_z
 _atom_site_occupancy
  Y  Y0  1  0.89558663  0.18742128  0.62302492  1
  Y  Y1  1  0.62302492  0.89558663  0.18742128  1
  Y  Y2  1  0.18742128  0.62302492  0.89558663  1
  Y  Y3  1  0.10441337  0.81257872  0.37697508  1
  Y  Y4  1  0.37697508  0.10441337  0.81257872  1
  Y  Y5  1  0.81257872  0.37697508  0.10441337  1
  Sc  Sc0  1  0.66240840  0.66240840  0.66240840  1
  Sc  Sc1  1  0.33759160  0.33759160  0.33759160  1
  Hg  Hg0  1  0.50000000  0.50000000  0.50000000  1
  Au  Au0  1  0.00000000  0.00000000  0.00000000  1
  Au  Au1  1  0.80789570  0.80789570  0.80789570  1
  Au  Au2  1  0.19210430  0.19210430  0.19210430  1
  Au  Au3  1  0.93558752  0.54636742  0.32202219  1
  Au  Au4  1  0.32202219  0.93558752  0.54636742  1
  Au  Au5  1  0.54636742  0.32202219  0.93558752  1
  Au  Au6  1  0.06441248  0.45363258  0.67797781  1
  Au  Au7  1  0.67797781  0.06441248  0.45363258  1
  Au  Au8  1  0.45363258  0.67797781  0.06441248  1
loop_
_geom_bond_atom_site_label_1
_geom_bond_atom_site_label_2
_geom_bond_distance
_geom_bond_site_symmetry_2
Hg0 Sc0 2.977187 1_555
Hg0 Sc1 2.977187 1_555
Hg0 Y0 3.333114 1_555
Hg0 Y3 3.333114 1_555
Hg0 Y2 3.333114 1_555
Hg0 Y5 3.333114 1_555
Hg0 Y1 3.333114 1_555
Hg0 Y4 3.333114 1_555
Au0 Y3 3.028831 1_545
Au0 Y0 3.028831 1_454
Au0 Y5 3.028831 1_455
Au0 Y2 3.028831 1_544
Au0 Y4 3.028831 1_554
Au0 Y1 3.028831 1_445
Au1 Sc0 2.666998 1_555
Au1 Y1 2.987263 1_556
Au1 Y2 2.987263 1_655
Au1 Y0 2.987264 1_565
Au1 Au7 3.010126 1_565
Au1 Au6 3.010127 1_655
Au1 Au8 3.010127 1_556
Au1 Y4 3.260757 1_565
Au1 Y3 3.260758 1_655
Au1 Y5 3.260758 1_556
Au2 Sc1 2.666998 1_555
Au2 Y4 2.987263 1_554
Au2 Y5 2.987263 1_455
Au2 Y3 2.987264 1_545
Au2 Au4 3.010126 1_545
Au2 Au3 3.010127 1_455
Au2 Au5 3.010127 1_554
Au2 Y1 3.260757 1_545
Au2 Y0 3.260758 1_455
Au2 Y2 3.260758 1_554
Au3 Sc0 2.906666 1_555
Au3 Y0 2.913660 1_555
Au3 Sc1 2.958615 1_655
Au3 Y1 3.018867 1_555
Au3 Au6 3.081604 1_655
Au3 Y2 3.100462 1_654
Au3 Y3 3.130357 1_655
Au3 Y5 3.143098 1_555
Au3 Hg0 3.262672 1_555
Au4 Sc0 2.906666 1_555
Au4 Y1 2.913660 1_555
Au4 Sc1 2.958615 1_565
Au4 Y2 3.018868 1_555
Au4 Au7 3.081605 1_565
Au4 Y0 3.100462 1_465
Au4 Y4 3.130357 1_565
Au4 Y3 3.143098 1_555
Au4 Hg0 3.262671 1_555
Au5 Sc0 2.906667 1_555
Au5 Y2 2.913660 1_555
Au5 Sc1 2.958614 1_556
Au5 Y0 3.018867 1_555
Au5 Au8 3.081605 1_556
Au5 Y1 3.100462 1_546
Au5 Y5 3.130357 1_556
Au5 Y4 3.143099 1_555
Au5 Hg0 3.262671 1_555
Au6 Sc1 2.906666 1_555
Au6 Y3 2.913660 1_555
Au6 Sc0 2.958615 1_455
Au6 Y4 3.018867 1_555
Au6 Y5 3.100462 1_456
Au6 Y0 3.130357 1_455
Au6 Y2 3.143098 1_555
Au6 Hg0 3.262672 1_555
Au7 Sc1 2.906666 1_555
Au7 Y4 2.913660 1_555
Au7 Sc0 2.958615 1_545
Au7 Y5 3.018868 1_555
Au7 Y3 3.100462 1_645
Au7 Y1 3.130357 1_545
Au7 Y0 3.143098 1_555
Au7 Hg0 3.262671 1_555
Au8 Sc1 2.906667 1_555
Au8 Y5 2.913660 1_555
Au8 Sc0 2.958614 1_554
Au8 Y3 3.018867 1_555
Au8 Y4 3.100462 1_564
Au8 Y2 3.130357 1_554
Au8 Y1 3.143099 1_555
Au8 Hg0 3.262671 1_555
