# generated using pymatgen
data_ZrNi4Ir
_symmetry_space_group_name_H-M   'P 1'
_cell_length_a   4.74159060
_cell_length_b   4.74158887
_cell_length_c   4.74160368
_cell_angle_alpha   59.99985852
_cell_angle_beta   59.99990877
_cell_angle_gamma   59.99974275
_symmetry_Int_Tables_number   1
_chemical_formula_structural   ZrNi4Ir
_chemical_formula_sum   'Zr1 Ni4 Ir1'
_cell_volume   75.38007990
_cell_formula_units_Z   1
loop_
 _symmetry_equiv_pos_site_id
 _symmetry_equiv_pos_as_xyz
  1  'x, y, z'
loop_
 _atom_site_type_symbol
 _atom_site_label
 _atom_site_symmetry_multiplicity
 _atom_site_fract_x
 _atom_site_fract_y
 _atom_site_fract_z
 _atom_site_occupancy
  Zr  Zr0  1  0.75000000  0.75000000  0.75000000  1
  Ni  Ni0  1  0.37336167  0.37336167  0.37336167  1
  Ni  Ni1  1  0.87991499  0.37336167  0.37336267  1
  Ni  Ni2  1  0.37336167  0.87991499  0.37336267  1
  Ni  Ni3  1  0.37336267  0.37336167  0.87991499  1
  Ir  Ir0  1  0.00000000  0.00000000  0.00000000  1
loop_
_geom_bond_atom_site_label_1
_geom_bond_atom_site_label_2
_geom_bond_distance
_geom_bond_site_symmetry_2
Ni0 Ni2 2.339719 1_545
Ni0 Ni1 2.339720 1_455
Ni0 Ni3 2.339726 1_554
Ni0 Ni2 2.401870 1_555
Ni0 Ni1 2.401871 1_555
Ni0 Ni3 2.401877 1_555
Ni0 Zr0 2.783371 1_545
Ni0 Zr0 2.783374 1_455
Ni0 Zr0 2.783380 1_554
Ni1 Ni2 2.339713 1_645
Ni1 Ni3 2.339727 1_654
Ni1 Ni2 2.401859 1_555
Ni1 Ni3 2.401864 1_555
Ni1 Zr0 2.783376 1_545
Ni1 Zr0 2.783379 1_555
Ni1 Zr0 2.783386 1_554
Ni2 Ni3 2.339722 1_564
Ni2 Ni3 2.401864 1_555
Ni2 Zr0 2.783378 1_455
Ni2 Zr0 2.783379 1_555
Ni2 Zr0 2.783388 1_554
Ni3 Zr0 2.783373 1_545
Ni3 Zr0 2.783377 1_455
Ni3 Zr0 2.783377 1_555
Ir0 Ni3 2.776744 1_454
Ir0 Ni0 2.776746 1_545
Ir0 Ni3 2.776748 1_544
Ir0 Ni0 2.776749 1_455
Ir0 Ni1 2.776752 1_445
Ir0 Ni1 2.776753 1_454
Ir0 Ni2 2.776754 1_445
Ir0 Ni2 2.776755 1_544
Ir0 Ni0 2.776756 1_554
Ir0 Ni3 2.776761 1_554
Ir0 Ni2 2.776762 1_545
Ir0 Ni1 2.776763 1_455
Ir0 Zr0 2.903610 1_454
Ir0 Zr0 2.903613 1_544
Ir0 Zr0 2.903624 1_445
Ir0 Zr0 2.903625 1_444
