# generated using pymatgen
data_BaNi(Sb4Ru)3
_symmetry_space_group_name_H-M   'P 1'
_cell_length_a   8.12787490
_cell_length_b   8.08681586
_cell_length_c   8.08681614
_cell_angle_alpha   109.36814684
_cell_angle_beta   109.57410262
_cell_angle_gamma   109.57410026
_symmetry_Int_Tables_number   1
_chemical_formula_structural   BaNi(Sb4Ru)3
_chemical_formula_sum   'Ba1 Ni1 Sb12 Ru3'
_cell_volume   408.65539268
_cell_formula_units_Z   1
loop_
 _symmetry_equiv_pos_site_id
 _symmetry_equiv_pos_as_xyz
  1  'x, y, z'
loop_
 _atom_site_type_symbol
 _atom_site_label
 _atom_site_symmetry_multiplicity
 _atom_site_fract_x
 _atom_site_fract_y
 _atom_site_fract_z
 _atom_site_occupancy
  Ba  Ba0  1  0.00000000  0.00000000  0.00000000  1
  Ni  Ni0  1  0.50000000  0.00000000  0.00000000  1
  Sb  Sb0  1  0.15940745  0.81566329  0.65811896  1
  Sb  Sb1  1  0.15985013  0.50102977  0.34235038  1
  Sb  Sb2  1  0.49871152  0.65811896  0.84245467  1
  Sb  Sb3  1  0.34374416  0.84245467  0.18433671  1
  Sb  Sb4  1  0.81749976  0.65764962  0.15867839  1
  Sb  Sb5  1  0.65882037  0.84132161  0.49897023  1
  Sb  Sb6  1  0.18250024  0.34235038  0.84132161  1
  Sb  Sb7  1  0.65625584  0.15754533  0.81566329  1
  Sb  Sb8  1  0.34117963  0.15867839  0.50102977  1
  Sb  Sb9  1  0.50128848  0.34188104  0.15754533  1
  Sb  Sb10  1  0.84014987  0.49897023  0.65764962  1
  Sb  Sb11  1  0.84059255  0.18433671  0.34188104  1
  Ru  Ru0  1  0.50000000  0.50000000  0.50000000  1
  Ru  Ru1  1  0.00000000  0.00000000  0.50000000  1
  Ru  Ru2  1  0.00000000  0.50000000  0.00000000  1
loop_
_geom_bond_atom_site_label_1
_geom_bond_atom_site_label_2
_geom_bond_distance
_geom_bond_site_symmetry_2
Ba0 Sb6 3.520182 1_554
Ba0 Sb4 3.520182 1_445
Ba0 Sb1 3.520188 1_555
Ba0 Sb10 3.520188 1_444
Ba0 Sb8 3.520191 1_555
Ba0 Sb5 3.520191 1_444
Ba0 Sb9 3.536287 1_555
Ba0 Sb2 3.536287 1_444
Ba0 Sb11 3.536289 1_455
Ba0 Sb0 3.536289 1_544
Ba0 Sb3 3.536295 1_545
Ba0 Sb7 3.536295 1_454
Ni0 Sb11 2.627236 1_555
Ni0 Sb0 2.627236 1_544
Ni0 Sb9 2.627237 1_555
Ni0 Sb2 2.627237 1_544
Ni0 Sb7 2.627241 1_554
Ni0 Sb3 2.627241 1_545
Sb0 Sb1 2.949140 1_555
Sb0 Sb10 2.970930 1_455
Sb1 Sb11 2.970930 1_455
Sb2 Sb6 2.949149 1_555
Sb2 Sb4 2.970930 1_556
Sb3 Sb5 2.949130 1_555
Sb3 Sb8 2.970929 1_565
Sb4 Sb9 2.949149 1_555
Sb5 Sb7 2.970929 1_565
Sb6 Sb9 2.970930 1_556
Sb7 Sb8 2.949130 1_555
Sb10 Sb11 2.949140 1_555
Ru0 Sb5 2.630620 1_555
Ru0 Sb8 2.630620 1_555
Ru0 Sb1 2.632432 1_555
Ru0 Sb10 2.632432 1_555
Ru0 Sb9 2.642763 1_555
Ru0 Sb2 2.642763 1_555
Ru1 Sb6 2.630616 1_555
Ru1 Sb4 2.630616 1_445
Ru1 Sb8 2.632431 1_555
Ru1 Sb5 2.632431 1_445
Ru1 Sb0 2.642770 1_545
Ru1 Sb11 2.642770 1_455
Ru2 Sb1 2.630612 1_555
Ru2 Sb10 2.630612 1_454
Ru2 Sb4 2.632428 1_455
Ru2 Sb6 2.632428 1_554
Ru2 Sb3 2.642766 1_555
Ru2 Sb7 2.642766 1_454
