# generated using pymatgen
data_Rb2ZnAs2O7
_symmetry_space_group_name_H-M   'P 1'
_cell_length_a   7.33558747
_cell_length_b   7.33558700
_cell_length_c   8.60420469
_cell_angle_alpha   78.63532891
_cell_angle_beta   78.63532477
_cell_angle_gamma   108.12665951
_symmetry_Int_Tables_number   1
_chemical_formula_structural   Rb2ZnAs2O7
_chemical_formula_sum   'Rb4 Zn2 As4 O14'
_cell_volume   414.47741328
_cell_formula_units_Z   2
loop_
 _symmetry_equiv_pos_site_id
 _symmetry_equiv_pos_as_xyz
  1  'x, y, z'
loop_
 _atom_site_type_symbol
 _atom_site_label
 _atom_site_symmetry_multiplicity
 _atom_site_fract_x
 _atom_site_fract_y
 _atom_site_fract_z
 _atom_site_occupancy
  Rb  Rb0  1  0.26089071  0.18335869  0.52681655  1
  Rb  Rb1  1  0.18335869  0.26089071  0.02681655  1
  Rb  Rb2  1  0.81664131  0.73910929  0.97318345  1
  Rb  Rb3  1  0.73910929  0.81664131  0.47318345  1
  Zn  Zn0  1  0.74380779  0.25619221  0.75000000  1
  Zn  Zn1  1  0.25619221  0.74380779  0.25000000  1
  As  As0  1  0.39614332  0.83668567  0.86507065  1
  As  As1  1  0.16331433  0.60385668  0.63492935  1
  As  As2  1  0.60385668  0.16331433  0.13492935  1
  As  As3  1  0.83668567  0.39614332  0.36507065  1
  O  O0  1  0.31425434  0.62473533  0.45029778  1
  O  O1  1  0.96888375  0.64145681  0.26759916  1
  O  O2  1  0.24806933  0.96689066  0.86568637  1
  O  O3  1  0.03310934  0.75193067  0.63431363  1
  O  O4  1  0.34131935  0.65867965  0.75000000  1
  O  O5  1  0.03111625  0.35854319  0.73240084  1
  O  O6  1  0.65868065  0.34132035  0.25000000  1
  O  O7  1  0.64145681  0.96888375  0.76759916  1
  O  O8  1  0.62473533  0.31425434  0.95029778  1
  O  O9  1  0.75193067  0.03310934  0.13431363  1
  O  O10  1  0.68574566  0.37526467  0.54970222  1
  O  O11  1  0.96689066  0.24806933  0.36568637  1
  O  O12  1  0.35854319  0.03111625  0.23240084  1
  O  O13  1  0.37526467  0.68574566  0.04970222  1
loop_
_geom_bond_atom_site_label_1
_geom_bond_atom_site_label_2
_geom_bond_distance
_geom_bond_site_symmetry_2
As0 O2 1.654519 1_555
As0 O13 1.696607 1_556
As0 O7 1.697315 1_555
As0 O4 1.785149 1_555
As1 O3 1.654519 1_555
As1 O0 1.696607 1_555
As1 O5 1.697315 1_555
As1 O4 1.785142 1_555
As2 O9 1.654519 1_555
As2 O8 1.696607 1_554
As2 O12 1.697315 1_555
As2 O6 1.785149 1_555
As3 O11 1.654519 1_555
As3 O10 1.696607 1_555
As3 O1 1.697315 1_555
As3 O6 1.785142 1_555
O0 Zn1 1.960098 1_555
O0 Rb0 3.056051 1_555
O0 Rb3 3.058532 1_555
O1 Zn1 1.968075 1_655
O1 Rb3 2.947888 1_555
O1 Rb2 3.012491 1_554
O2 Rb1 2.890440 1_566
O2 Rb2 2.934301 1_455
O2 Rb0 3.000999 1_565
O3 Rb3 2.890440 1_455
O3 Rb0 2.934301 1_565
O3 Rb2 3.000999 1_455
O4 Rb1 3.098343 1_556
O4 Rb3 3.098347 1_555
O5 Zn0 1.968075 1_455
O5 Rb0 2.947888 1_555
O5 Rb1 3.012491 1_556
O6 Rb2 3.098343 1_554
O6 Rb0 3.098347 1_555
O7 Zn0 1.968075 1_565
O7 Rb2 2.947888 1_555
O7 Rb3 3.012491 1_555
O8 Zn0 1.960098 1_555
O8 Rb1 3.056051 1_556
O8 Rb2 3.058532 1_555
O9 Rb2 2.890440 1_544
O9 Rb1 2.934301 1_655
O9 Rb3 3.000999 1_545
O10 Zn0 1.960098 1_555
O10 Rb3 3.056051 1_555
O10 Rb0 3.058532 1_555
O11 Rb0 2.890440 1_655
O11 Rb3 2.934301 1_545
O11 Rb1 3.000999 1_655
O12 Zn1 1.968075 1_545
O12 Rb1 2.947888 1_555
O12 Rb0 3.012491 1_555
O13 Zn1 1.960098 1_555
O13 Rb2 3.056051 1_554
O13 Rb1 3.058532 1_555
