# generated using pymatgen
data_KIn(CO3)2
_symmetry_space_group_name_H-M   'P 1'
_cell_length_a   6.41587519
_cell_length_b   6.41593888
_cell_length_c   6.66736658
_cell_angle_alpha   102.98884348
_cell_angle_beta   102.98843526
_cell_angle_gamma   95.38246475
_symmetry_Int_Tables_number   1
_chemical_formula_structural   KIn(CO3)2
_chemical_formula_sum   'K2 In2 C4 O12'
_cell_volume   257.56234114
_cell_formula_units_Z   2
loop_
 _symmetry_equiv_pos_site_id
 _symmetry_equiv_pos_as_xyz
  1  'x, y, z'
loop_
 _atom_site_type_symbol
 _atom_site_label
 _atom_site_symmetry_multiplicity
 _atom_site_fract_x
 _atom_site_fract_y
 _atom_site_fract_z
 _atom_site_occupancy
  K  K0  1  0.90068118  0.09934710  0.25000833  1
  K  K1  1  0.09930004  0.90061886  0.74994887  1
  In  In0  1  0.33825229  0.66175465  0.25000015  1
  In  In1  1  0.66174831  0.33824599  0.74999629  1
  C  C0  1  0.38768150  0.17691052  0.27695275  1
  C  C1  1  0.82310508  0.61233924  0.22306089  1
  C  C2  1  0.17690846  0.38767307  0.77694573  1
  C  C3  1  0.61231451  0.82308656  0.72305563  1
  O  O0  1  0.77217296  0.42628010  0.08910955  1
  O  O1  1  0.27584290  0.32061975  0.22014346  1
  O  O2  1  0.30360762  0.97785349  0.18699860  1
  O  O3  1  0.02215118  0.69639708  0.31299738  1
  O  O4  1  0.67939170  0.72416419  0.27986459  1
  O  O5  1  0.57371709  0.22783093  0.41088847  1
  O  O6  1  0.42626908  0.77216851  0.58912264  1
  O  O7  1  0.32061805  0.27582851  0.72013144  1
  O  O8  1  0.97783509  0.30360291  0.68699127  1
  O  O9  1  0.69640105  0.02216903  0.81300943  1
  O  O10  1  0.72416769  0.67937695  0.77987827  1
  O  O11  1  0.22783222  0.57373054  0.91089323  1
loop_
_geom_bond_atom_site_label_1
_geom_bond_atom_site_label_2
_geom_bond_distance
_geom_bond_site_symmetry_2
K0 O0 2.677475 1_555
K0 O5 2.677522 1_555
K0 O1 2.747755 1_655
K0 O4 2.747910 1_545
K0 O8 2.822183 1_555
K0 O9 2.822298 1_554
K0 O2 2.861119 1_645
K0 O3 2.861201 1_645
K1 O6 2.677306 1_555
K1 O11 2.677416 1_555
K1 O10 2.747673 1_455
K1 O7 2.748038 1_565
K1 O3 2.821953 1_555
K1 O2 2.822601 1_556
K1 O9 2.861165 1_465
K1 O8 2.861340 1_465
In0 O11 2.136278 1_554
In0 O6 2.136371 1_555
In0 O4 2.143424 1_555
In0 O1 2.143424 1_555
In0 O3 2.182746 1_555
In0 O2 2.182768 1_555
In1 O5 2.136281 1_555
In1 O0 2.136319 1_556
In1 O7 2.143369 1_555
In1 O10 2.143374 1_555
In1 O9 2.182666 1_555
In1 O8 2.182676 1_555
C0 O5 1.282731 1_555
C0 O2 1.289482 1_545
C0 O1 1.291283 1_555
C1 O0 1.282894 1_555
C1 O3 1.289375 1_655
C1 O4 1.291237 1_555
C2 O11 1.282875 1_555
C2 O8 1.289559 1_455
C2 O7 1.291310 1_555
C3 O6 1.282770 1_555
C3 O9 1.289638 1_565
C3 O10 1.291367 1_555
