# generated using pymatgen
data_LuSc6Co6Sn23
_symmetry_space_group_name_H-M   'P 1'
_cell_length_a   9.52349902
_cell_length_b   9.52349844
_cell_length_c   9.62502619
_cell_angle_alpha   90.00000000
_cell_angle_beta   90.00000000
_cell_angle_gamma   120.00000202
_symmetry_Int_Tables_number   1
_chemical_formula_structural   LuSc6Co6Sn23
_chemical_formula_sum   'Lu1 Sc6 Co6 Sn23'
_cell_volume   756.00662224
_cell_formula_units_Z   1
loop_
 _symmetry_equiv_pos_site_id
 _symmetry_equiv_pos_as_xyz
  1  'x, y, z'
loop_
 _atom_site_type_symbol
 _atom_site_label
 _atom_site_symmetry_multiplicity
 _atom_site_fract_x
 _atom_site_fract_y
 _atom_site_fract_z
 _atom_site_occupancy
  Lu  Lu0  1  0.00000000  0.00000000  0.00000000  1
  Sc  Sc0  1  0.51774692  0.48225308  0.69196294  1
  Sc  Sc1  1  0.51774692  0.03549184  0.69196294  1
  Sc  Sc2  1  0.96450816  0.48225308  0.69196294  1
  Sc  Sc3  1  0.03549184  0.51774692  0.30803706  1
  Sc  Sc4  1  0.48225308  0.96450816  0.30803706  1
  Sc  Sc5  1  0.48225308  0.51774692  0.30803706  1
  Co  Co0  1  0.16893282  0.83106718  0.80109747  1
  Co  Co1  1  0.16893282  0.33786664  0.80109747  1
  Co  Co2  1  0.66213336  0.83106718  0.80109747  1
  Co  Co3  1  0.33786664  0.16893282  0.19890253  1
  Co  Co4  1  0.83106718  0.66213336  0.19890253  1
  Co  Co5  1  0.83106718  0.16893282  0.19890253  1
  Sn  Sn0  1  0.66666700  0.33333300  0.17314537  1
  Sn  Sn1  1  0.66666700  0.33333300  0.86737448  1
  Sn  Sn2  1  0.33333300  0.66666700  0.13262552  1
  Sn  Sn3  1  0.34795650  0.34795650  0.00000000  1
  Sn  Sn4  1  1.00000000  0.65204350  0.00000000  1
  Sn  Sn5  1  0.65204350  0.00000000  0.00000000  1
  Sn  Sn6  1  0.65204350  0.65204350  0.00000000  1
  Sn  Sn7  1  0.33333300  0.66666700  0.82685463  1
  Sn  Sn8  1  0.44271408  0.22135704  0.45453852  1
  Sn  Sn9  1  0.22135704  0.77864296  0.54546148  1
  Sn  Sn10  1  0.22135704  0.44271408  0.54546148  1
  Sn  Sn11  1  0.55728592  0.77864296  0.54546148  1
  Sn  Sn12  1  0.12032755  0.87967245  0.27720182  1
  Sn  Sn13  1  0.77864296  0.55728592  0.45453852  1
  Sn  Sn14  1  0.77864296  0.22135704  0.45453852  1
  Sn  Sn15  1  0.34795650  0.00000000  0.00000000  1
  Sn  Sn16  1  0.12032755  0.24065511  0.27720182  1
  Sn  Sn17  1  0.75934489  0.87967245  0.27720182  1
  Sn  Sn18  1  0.24065511  0.12032755  0.72279818  1
  Sn  Sn19  1  0.87967245  0.75934489  0.72279818  1
  Sn  Sn20  1  0.87967245  0.12032755  0.72279818  1
  Sn  Sn21  1  0.00000000  0.00000000  0.50000000  1
  Sn  Sn22  1  0.00000000  0.34795650  0.00000000  1
loop_
_geom_bond_atom_site_label_1
_geom_bond_atom_site_label_2
_geom_bond_distance
_geom_bond_site_symmetry_2
Lu0 Sn3 3.313763 1_555
Lu0 Sn6 3.313763 1_445
Lu0 Sn22 3.313763 1_555
Lu0 Sn4 3.313763 1_445
Lu0 Sn15 3.313763 1_555
Lu0 Sn5 3.313763 1_455
Lu0 Sn16 3.325380 1_555
Lu0 Sn19 3.325380 1_444
Lu0 Sn17 3.325380 1_445
Lu0 Sn18 3.325380 1_554
Lu0 Sn12 3.325380 1_545
Lu0 Sn20 3.325380 1_454
Sc0 Sn1 2.980723 1_555
Sc0 Sn11 3.005778 1_555
Sc0 Sn10 3.005778 1_555
Sc0 Sn18 3.136320 1_555
Sc0 Sn19 3.136320 1_555
Sc0 Sn8 3.182895 1_555
Sc0 Sn13 3.182895 1_555
Sc0 Sn7 3.307429 1_555
Sc0 Sn6 3.312519 1_556
Sc0 Sn3 3.312519 1_556
Sc1 Sn1 2.980730 1_555
Sc1 Sn11 3.005761 1_545
Sc1 Sn9 3.005771 1_545
Sc1 Sn20 3.136315 1_555
Sc1 Sn18 3.136333 1_555
Sc1 Sn14 3.182898 1_555
Sc1 Sn8 3.182907 1_555
Sc1 Sn7 3.307406 1_545
Sc1 Sn5 3.312514 1_556
Sc1 Sn15 3.312522 1_556
Sc2 Sn1 2.980730 1_555
Sc2 Sn10 3.005761 1_655
Sc2 Sn9 3.005771 1_655
Sc2 Sn20 3.136315 1_555
Sc2 Sn19 3.136333 1_555
Sc2 Sn14 3.182898 1_555
Sc2 Sn13 3.182907 1_555
Sc2 Sn7 3.307406 1_655
Sc2 Sn22 3.312514 1_656
Sc2 Sn4 3.312522 1_556
Sc3 Sn2 2.980730 1_555
Sc3 Sn13 3.005761 1_455
Sc3 Sn14 3.005771 1_455
Sc3 Sn12 3.136315 1_555
Sc3 Sn16 3.136333 1_555
Sc3 Sn9 3.182898 1_555
Sc3 Sn10 3.182907 1_555
Sc3 Sn0 3.307406 1_455
Sc3 Sn4 3.312514 1_455
Sc3 Sn22 3.312522 1_555
Sc4 Sn2 2.980730 1_555
Sc4 Sn8 3.005761 1_565
Sc4 Sn14 3.005771 1_565
Sc4 Sn12 3.136315 1_555
Sc4 Sn17 3.136333 1_555
Sc4 Sn9 3.182898 1_555
Sc4 Sn11 3.182907 1_555
Sc4 Sn0 3.307406 1_565
Sc4 Sn15 3.312514 1_565
Sc4 Sn5 3.312522 1_565
Sc5 Sn2 2.980723 1_555
Sc5 Sn8 3.005778 1_555
Sc5 Sn13 3.005778 1_555
Sc5 Sn17 3.136320 1_555
Sc5 Sn16 3.136320 1_555
Sc5 Sn11 3.182895 1_555
Sc5 Sn10 3.182895 1_555
Sc5 Sn0 3.307429 1_555
Sc5 Sn3 3.312519 1_555
Sc5 Sn6 3.312519 1_555
Co0 Sn4 2.533233 1_456
Co0 Sn15 2.533233 1_566
Co0 Sn18 2.596467 1_565
Co0 Sn19 2.596467 1_455
Co0 Sn9 2.608038 1_555
Co0 Sn7 2.723120 1_555
Co0 Sc2 3.075960 1_455
Co0 Sc1 3.075960 1_565
Co0 Lu0 3.380844 1_566
Co1 Sn22 2.533230 1_556
Co1 Sn3 2.533236 1_556
Co1 Sn20 2.596469 1_455
Co1 Sn18 2.596476 1_555
Co1 Sn10 2.608035 1_555
Co1 Sn7 2.723120 1_555
Co1 Sc2 3.075938 1_455
Co1 Sc0 3.075963 1_555
Co1 Lu0 3.380850 1_556
Co2 Sn5 2.533230 1_566
Co2 Sn6 2.533236 1_556
Co2 Sn20 2.596469 1_565
Co2 Sn19 2.596476 1_555
Co2 Sn11 2.608035 1_555
Co2 Sn7 2.723120 1_555
Co2 Sc1 3.075938 1_565
Co2 Sc0 3.075962 1_555
Co2 Lu0 3.380851 1_666
Co3 Sn15 2.533230 1_555
Co3 Sn3 2.533236 1_555
Co3 Sn12 2.596469 1_545
Co3 Sn16 2.596476 1_555
Co3 Sn8 2.608035 1_555
Co3 Sn0 2.723120 1_555
Co3 Sc4 3.075938 1_545
Co3 Sc5 3.075962 1_555
Co3 Lu0 3.380851 1_555
Co4 Sn4 2.533230 1_555
Co4 Sn6 2.533236 1_555
Co4 Sn12 2.596469 1_655
Co4 Sn17 2.596476 1_555
Co4 Sn13 2.608035 1_555
Co4 Sn0 2.723120 1_555
Co4 Sc3 3.075938 1_655
Co4 Sc5 3.075963 1_555
Co4 Lu0 3.380850 1_665
Co5 Sn22 2.533233 1_655
Co5 Sn5 2.533233 1_555
Co5 Sn17 2.596467 1_545
Co5 Sn16 2.596467 1_655
Co5 Sn14 2.608038 1_555
Co5 Sn0 2.723120 1_555
Co5 Sc3 3.075960 1_655
Co5 Sc4 3.075960 1_545
Co5 Lu0 3.380844 1_655
Sn0 Sn1 2.943053 1_554
Sn0 Sn14 3.278287 1_555
Sn0 Sn13 3.278291 1_555
Sn0 Sn8 3.278292 1_555
Sn1 Sn5 3.359201 1_556
Sn1 Sn22 3.359202 1_656
Sn1 Sn15 3.359205 1_556
Sn1 Sn4 3.359205 1_556
Sn1 Sn6 3.359210 1_556
Sn1 Sn3 3.359210 1_556
Sn2 Sn7 2.943053 1_554
Sn2 Sn4 3.359202 1_455
Sn2 Sn5 3.359205 1_565
Sn2 Sn22 3.359205 1_555
Sn2 Sn3 3.359210 1_555
Sn2 Sn6 3.359210 1_555
Sn3 Sn6 2.895972 1_555
Sn7 Sn9 3.278287 1_555
Sn10 Sn16 3.073106 1_555
Sn10 Sn11 3.199218 1_555
Sn10 Sn9 3.199218 1_555
Sn10 Sn7 3.278291 1_555
Sn11 Sn17 3.073106 1_555
Sn11 Sn9 3.199218 1_555
Sn11 Sn7 3.278292 1_555
Sn12 Sn21 2.922011 1_565
Sn12 Sn9 3.073106 1_555
Sn12 Sn4 3.262984 1_455
Sn12 Sn15 3.262984 1_565
Sn13 Sn19 3.073106 1_555
Sn13 Sn8 3.199218 1_555
Sn13 Sn14 3.199218 1_555
Sn14 Sn20 3.073106 1_555
Sn14 Sn8 3.199218 1_555
Sn15 Sn5 2.895972 1_555
Sn15 Sn18 3.262984 1_554
Sn15 Sn2 3.359201 1_545
Sn16 Sn21 2.922011 1_555
Sn16 Sn3 3.262984 1_555
Sn16 Sn22 3.262984 1_555
Sn17 Sn21 2.922011 1_665
Sn17 Sn6 3.262984 1_555
Sn17 Sn5 3.262984 1_565
Sn18 Sn21 2.922011 1_555
Sn18 Sn8 3.073106 1_555
Sn18 Sn3 3.262984 1_556
Sn19 Sn21 2.922011 1_665
Sn19 Sn6 3.262984 1_556
Sn19 Sn4 3.262984 1_556
Sn20 Sn21 2.922011 1_655
Sn20 Sn22 3.262984 1_656
Sn20 Sn5 3.262984 1_556
Sn22 Sn4 2.895972 1_455
