# generated using pymatgen
data_Cs2Be3VAs4
_symmetry_space_group_name_H-M   'P 1'
_cell_length_a   8.09587492
_cell_length_b   8.09587418
_cell_length_c   5.53979820
_cell_angle_alpha   90.00000000
_cell_angle_beta   90.00000000
_cell_angle_gamma   139.88600114
_symmetry_Int_Tables_number   1
_chemical_formula_structural   Cs2Be3VAs4
_chemical_formula_sum   'Cs2 Be3 V1 As4'
_cell_volume   233.94657688
_cell_formula_units_Z   1
loop_
 _symmetry_equiv_pos_site_id
 _symmetry_equiv_pos_as_xyz
  1  'x, y, z'
loop_
 _atom_site_type_symbol
 _atom_site_label
 _atom_site_symmetry_multiplicity
 _atom_site_fract_x
 _atom_site_fract_y
 _atom_site_fract_z
 _atom_site_occupancy
  Cs  Cs0  1  0.50000000  0.00000000  0.24963844  1
  Cs  Cs1  1  0.00000000  0.50000000  0.75036156  1
  Be  Be0  1  0.50000000  0.50000000  0.50000000  1
  Be  Be1  1  0.50000000  0.50000000  0.00000000  1
  Be  Be2  1  0.00000000  0.00000000  0.50000000  1
  V  V0  1  0.00000000  0.00000000  0.00000000  1
  As  As0  1  0.65843739  0.83129208  0.74565418  1
  As  As1  1  0.16870792  0.34156261  0.25434582  1
  As  As2  1  0.83129208  0.65843739  0.25434582  1
  As  As3  1  0.34156261  0.16870792  0.74565418  1
loop_
_geom_bond_atom_site_label_1
_geom_bond_atom_site_label_2
_geom_bond_distance
_geom_bond_site_symmetry_2
As0 Be0 2.329998 1_555
As0 Be1 2.358445 1_556
As0 Be2 2.363735 1_665
As0 V0 2.391781 1_666
As0 Cs0 3.706887 1_565
As0 Cs1 3.706999 1_555
As0 Cs0 3.739727 1_566
As0 Cs1 3.749473 1_665
As1 Be0 2.329998 1_555
As1 Be1 2.358445 1_555
As1 Be2 2.363735 1_555
As1 V0 2.391781 1_555
As1 Cs1 3.706887 1_555
As1 Cs0 3.706999 1_565
As1 Cs1 3.739727 1_554
As1 Cs0 3.749473 1_455
As2 Be0 2.329998 1_555
As2 Be1 2.358445 1_555
As2 Be2 2.363735 1_665
As2 V0 2.391781 1_665
As2 Cs1 3.706887 1_655
As2 Cs0 3.706999 1_555
As2 Cs1 3.739727 1_654
As2 Cs0 3.749473 1_665
As3 Be0 2.329998 1_555
As3 Be1 2.358445 1_556
As3 Be2 2.363735 1_555
As3 V0 2.391781 1_556
As3 Cs0 3.706887 1_555
As3 Cs1 3.706999 1_655
As3 Cs0 3.739727 1_556
As3 Cs1 3.749473 1_545
