# generated using pymatgen
data_Lu4Hf3InPt4
_symmetry_space_group_name_H-M   'P 1'
_cell_length_a   4.54853783
_cell_length_b   6.92147171
_cell_length_c   8.15633656
_cell_angle_alpha   86.84013133
_cell_angle_beta   90.00000000
_cell_angle_gamma   90.00000000
_symmetry_Int_Tables_number   1
_chemical_formula_structural   Lu4Hf3InPt4
_chemical_formula_sum   'Lu4 Hf3 In1 Pt4'
_cell_volume   256.39207754
_cell_formula_units_Z   1
loop_
 _symmetry_equiv_pos_site_id
 _symmetry_equiv_pos_as_xyz
  1  'x, y, z'
loop_
 _atom_site_type_symbol
 _atom_site_label
 _atom_site_symmetry_multiplicity
 _atom_site_fract_x
 _atom_site_fract_y
 _atom_site_fract_z
 _atom_site_occupancy
  Lu  Lu0  1  0.25000000  0.51112038  0.16848887  1
  Lu  Lu1  1  0.75000000  0.46801907  0.83329309  1
  Lu  Lu2  1  0.75000000  0.97990061  0.68029958  1
  Lu  Lu3  1  0.25000000  0.03159690  0.31245925  1
  Hf  Hf0  1  0.25000000  0.64685083  0.57760881  1
  Hf  Hf1  1  0.75000000  0.36684988  0.42852766  1
  Hf  Hf2  1  0.75000000  0.85187998  0.06630911  1
  In  In0  1  0.25000000  0.14654244  0.92366051  1
  Pt  Pt0  1  0.25000000  0.74955859  0.89184021  1
  Pt  Pt1  1  0.75000000  0.23504696  0.12805613  1
  Pt  Pt2  1  0.75000000  0.74502305  0.39851811  1
  Pt  Pt3  1  0.25000000  0.26761129  0.59093968  1
loop_
_geom_bond_atom_site_label_1
_geom_bond_atom_site_label_2
_geom_bond_distance
_geom_bond_site_symmetry_2
Lu0 Pt0 2.721142 1_554
Lu0 Pt1 3.000303 1_455
Lu0 Pt1 3.000303 1_555
Lu0 Pt2 3.412957 1_555
Lu0 Pt2 3.412957 1_455
Lu0 Lu1 3.581313 1_554
Lu0 Lu1 3.581313 1_454
Lu1 Pt1 2.820090 1_556
Lu1 Pt0 3.049627 1_655
Lu1 Pt0 3.049627 1_555
Lu1 Pt3 3.362452 1_655
Lu1 Pt3 3.362452 1_555
Lu1 Lu2 3.665542 1_545
Lu1 Lu2 3.690857 1_555
Lu2 Pt2 2.887388 1_555
Lu2 Pt3 3.083684 1_665
Lu2 Pt3 3.083684 1_565
Lu2 Pt0 3.223018 1_655
Lu2 Pt0 3.223018 1_555
Lu2 Lu3 3.766080 1_565
Lu2 Lu3 3.766080 1_665
Lu3 Pt3 2.869976 1_555
Lu3 Pt1 3.030501 1_455
Lu3 Pt1 3.030501 1_555
Lu3 Pt2 3.073407 1_545
Lu3 Pt2 3.073407 1_445
Hf0 Pt3 2.621152 1_555
Hf0 Pt0 2.697235 1_555
Hf0 Pt2 2.767364 1_555
Hf0 Pt2 2.767364 1_455
Hf0 Lu1 3.281602 1_455
Hf0 Lu1 3.281602 1_555
Hf0 Lu2 3.376481 1_555
Hf0 Lu2 3.376481 1_455
Hf1 Pt2 2.615466 1_555
Hf1 Pt1 2.661743 1_555
Hf1 Pt3 2.701589 1_555
Hf1 Pt3 2.701589 1_655
Hf1 Lu2 3.283862 1_545
Hf1 Lu1 3.412398 1_555
Hf2 Pt1 2.726613 1_565
Hf2 Pt2 2.769127 1_555
Hf2 Pt0 2.794634 1_554
Hf2 Pt0 2.794634 1_654
Hf2 Lu2 3.223379 1_554
Hf2 In0 3.228615 1_564
Hf2 In0 3.228615 1_664
Hf2 Lu3 3.320499 1_565
Hf2 Lu3 3.320499 1_665
Hf2 Lu0 3.348577 1_555
Hf2 Lu0 3.348577 1_655
Hf2 Lu1 3.350795 1_554
In0 Pt0 2.774149 1_545
In0 Pt3 2.795732 1_555
In0 Pt1 2.905070 1_556
In0 Pt1 2.905070 1_456
In0 Lu3 3.226634 1_556
In0 Lu1 3.238178 1_455
In0 Lu1 3.238178 1_555
In0 Lu2 3.270322 1_445
In0 Lu2 3.270322 1_545
In0 Lu0 3.303146 1_556
