# generated using pymatgen
data_Hf10ZnSn6As
_symmetry_space_group_name_H-M   'P 1'
_cell_length_a   8.57312420
_cell_length_b   8.57312459
_cell_length_c   5.79873537
_cell_angle_alpha   90.00000000
_cell_angle_beta   90.00000000
_cell_angle_gamma   119.99999472
_symmetry_Int_Tables_number   1
_chemical_formula_structural   Hf10ZnSn6As
_chemical_formula_sum   'Hf10 Zn1 Sn6 As1'
_cell_volume   369.09842840
_cell_formula_units_Z   1
loop_
 _symmetry_equiv_pos_site_id
 _symmetry_equiv_pos_as_xyz
  1  'x, y, z'
loop_
 _atom_site_type_symbol
 _atom_site_label
 _atom_site_symmetry_multiplicity
 _atom_site_fract_x
 _atom_site_fract_y
 _atom_site_fract_z
 _atom_site_occupancy
  Hf  Hf0  1  0.33333300  0.66666700  0.00000000  1
  Hf  Hf1  1  0.66666700  0.33333300  0.50000000  1
  Hf  Hf2  1  0.66666700  0.33333300  0.00000000  1
  Hf  Hf3  1  0.33333300  0.66666700  0.50000000  1
  Hf  Hf4  1  0.26486680  0.00000000  0.24982938  1
  Hf  Hf5  1  0.26486680  0.26486680  0.75017062  1
  Hf  Hf6  1  1.00000000  0.73513320  0.75017062  1
  Hf  Hf7  1  0.00000000  0.26486680  0.24982938  1
  Hf  Hf8  1  0.73513320  0.73513320  0.24982938  1
  Hf  Hf9  1  0.73513320  1.00000000  0.75017062  1
  Zn  Zn0  1  0.00000000  0.00000000  0.50000000  1
  Sn  Sn0  1  0.60926970  0.00000000  0.25271711  1
  Sn  Sn1  1  0.60926970  0.60926970  0.74728289  1
  Sn  Sn2  1  1.00000000  0.39073030  0.74728289  1
  Sn  Sn3  1  0.00000000  0.60926970  0.25271711  1
  Sn  Sn4  1  0.39073030  0.39073030  0.25271711  1
  Sn  Sn5  1  0.39073030  1.00000000  0.74728289  1
  As  As0  1  0.00000000  0.00000000  0.00000000  1
loop_
_geom_bond_atom_site_label_1
_geom_bond_atom_site_label_2
_geom_bond_distance
_geom_bond_site_symmetry_2
Hf0 Sn3 3.024885 1_555
Hf0 Sn5 3.024885 1_554
Hf0 Sn2 3.024887 1_454
Hf0 Sn0 3.024887 1_565
Hf0 Sn1 3.024892 1_554
Hf0 Sn4 3.024892 1_555
Hf1 Sn2 3.009745 1_555
Hf1 Sn0 3.009745 1_555
Hf1 Sn3 3.009748 1_655
Hf1 Sn5 3.009748 1_545
Hf1 Sn4 3.009752 1_555
Hf1 Sn1 3.009752 1_555
Hf2 Sn2 3.024885 1_554
Hf2 Sn0 3.024885 1_555
Hf2 Sn3 3.024887 1_655
Hf2 Sn5 3.024887 1_544
Hf2 Sn4 3.024892 1_555
Hf2 Sn1 3.024892 1_554
Hf3 Sn3 3.009745 1_555
Hf3 Sn5 3.009745 1_555
Hf3 Sn2 3.009748 1_455
Hf3 Sn0 3.009748 1_565
Hf3 Sn1 3.009752 1_555
Hf3 Sn4 3.009752 1_555
Hf4 Zn0 2.694568 1_555
Hf4 Sn0 2.952656 1_555
Hf4 Sn4 2.961601 1_555
Hf4 Sn3 2.961601 1_545
Hf4 Sn5 3.079815 1_545
Hf4 Sn5 3.107493 1_544
Hf5 Zn0 2.694568 1_555
Hf5 Sn1 2.952657 1_555
Hf5 Sn2 2.961601 1_455
Hf5 Sn5 2.961601 1_545
Hf5 Sn4 3.079815 1_555
Hf5 Sn4 3.107493 1_556
Hf6 Zn0 2.694568 1_665
Hf6 Sn2 2.952656 1_555
Hf6 Sn1 2.961601 1_555
Hf6 Sn5 2.961601 1_655
Hf6 Sn3 3.079815 1_655
Hf6 Sn3 3.107493 1_656
Hf7 Zn0 2.694568 1_555
Hf7 Sn3 2.952656 1_555
Hf7 Sn4 2.961601 1_555
Hf7 Sn0 2.961601 1_455
Hf7 Sn2 3.079815 1_455
Hf7 Sn2 3.107493 1_454
Hf8 Zn0 2.694568 1_665
Hf8 Sn4 2.952657 1_555
Hf8 Sn3 2.961601 1_655
Hf8 Sn0 2.961601 1_565
Hf8 Sn1 3.079815 1_555
Hf8 Sn1 3.107493 1_554
Hf9 Zn0 2.694568 1_665
Hf9 Sn5 2.952656 1_555
Hf9 Sn1 2.961601 1_555
Hf9 Sn2 2.961601 1_565
Hf9 Sn0 3.079815 1_565
Hf9 Sn0 3.107493 1_566
As0 Hf4 2.693503 1_555
As0 Hf9 2.693503 1_444
As0 Hf7 2.693503 1_555
As0 Hf6 2.693503 1_444
As0 Hf8 2.693503 1_445
As0 Hf5 2.693503 1_554
As0 Zn0 2.899368 1_555
As0 Zn0 2.899368 1_554
