# generated using pymatgen
data_K2GaFeF7
_symmetry_space_group_name_H-M   'P 1'
_cell_length_a   7.58321267
_cell_length_b   7.58321387
_cell_length_c   7.58321346
_cell_angle_alpha   119.80975467
_cell_angle_beta   116.52829089
_cell_angle_gamma   93.22393277
_symmetry_Int_Tables_number   1
_chemical_formula_structural   K2GaFeF7
_chemical_formula_sum   'K4 Ga2 Fe2 F14'
_cell_volume   316.03952880
_cell_formula_units_Z   2
loop_
 _symmetry_equiv_pos_site_id
 _symmetry_equiv_pos_as_xyz
  1  'x, y, z'
loop_
 _atom_site_type_symbol
 _atom_site_label
 _atom_site_symmetry_multiplicity
 _atom_site_fract_x
 _atom_site_fract_y
 _atom_site_fract_z
 _atom_site_occupancy
  K  K0  1  0.00000000  0.00000000  0.00000000  1
  K  K1  1  0.50000000  0.50000000  0.00000000  1
  K  K2  1  0.50000000  0.00000000  0.00000000  1
  K  K3  1  0.50000000  0.50000000  0.50000000  1
  Ga  Ga0  1  0.50000000  0.00000000  0.50000000  1
  Ga  Ga1  1  0.00000000  0.50000000  0.50000000  1
  Fe  Fe0  1  0.00000000  0.00000000  0.50000000  1
  Fe  Fe1  1  0.00000000  0.50000000  0.00000000  1
  F  F0  1  0.37780144  0.08476613  0.29303531  1
  F  F1  1  0.70826918  0.41523387  0.29303531  1
  F  F2  1  0.68588557  0.29820631  0.75399441  1
  F  F3  1  0.95578609  0.20179369  0.38767826  1
  F  F4  1  0.95578609  0.56810783  0.75399441  1
  F  F5  1  0.68588557  0.93189217  0.38767826  1
  F  F6  1  0.31411443  0.06810783  0.61232174  1
  F  F7  1  0.04421391  0.43189217  0.24600559  1
  F  F8  1  0.04421391  0.79820631  0.61232174  1
  F  F9  1  0.31411443  0.70179369  0.24600559  1
  F  F10  1  0.88816113  0.75000000  0.13816113  1
  F  F11  1  0.62219856  0.91523387  0.70696469  1
  F  F12  1  0.29173082  0.58476613  0.70696469  1
  F  F13  1  0.11183887  0.25000000  0.86183887  1
loop_
_geom_bond_atom_site_label_1
_geom_bond_atom_site_label_2
_geom_bond_distance
_geom_bond_site_symmetry_2
F0 Ga0 1.872426 1_555
F0 K0 2.498967 1_555
F0 K2 2.587677 1_555
F0 K3 2.587677 1_555
F1 Ga1 1.872426 1_655
F1 K1 2.498967 1_555
F1 K3 2.587677 1_555
F1 K2 2.587677 1_555
F2 Ga0 1.922563 1_555
F2 Fe1 2.068342 1_656
F2 K1 2.749937 1_556
F2 K3 2.964160 1_555
F3 Ga1 1.922560 1_655
F3 Fe0 2.068347 1_655
F3 K0 2.749941 1_655
F3 K2 2.964148 1_555
F4 Ga1 1.922574 1_655
F4 Fe1 2.068333 1_656
F4 K0 2.749940 1_666
F4 K3 2.964148 1_555
F5 Ga0 1.922567 1_565
F5 Fe0 2.068340 1_665
F5 K1 2.749941 1_555
F5 K2 2.964148 1_565
F6 Ga0 1.922567 1_555
F6 Fe0 2.068340 1_555
F6 K1 2.749941 1_556
F6 K2 2.964148 1_556
F7 Ga1 1.922574 1_555
F7 Fe1 2.068333 1_555
F7 K0 2.749940 1_555
F7 K3 2.964148 1_555
F8 Ga1 1.922560 1_555
F8 Fe0 2.068347 1_565
F8 K0 2.749941 1_566
F8 K2 2.964148 1_566
F9 Ga0 1.922563 1_565
F9 Fe1 2.068342 1_555
F9 K1 2.749937 1_555
F9 K3 2.964160 1_555
F10 Fe1 2.100188 1_655
F10 Fe0 2.100189 1_665
F10 K1 2.828201 1_555
F10 K0 2.828201 1_665
F11 Ga0 1.872426 1_565
F11 K0 2.498967 1_666
F11 K2 2.587677 1_566
F11 K3 2.587677 1_555
F12 Ga1 1.872426 1_555
F12 K1 2.498967 1_556
F12 K3 2.587677 1_555
F12 K2 2.587677 1_566
F13 Fe1 2.100188 1_556
F13 Fe0 2.100189 1_555
F13 K1 2.828201 1_556
F13 K0 2.828201 1_556
