# generated using pymatgen
data_Sr3I2(Cl2O3)2
_symmetry_space_group_name_H-M   'P 1'
_cell_length_a   8.47033494
_cell_length_b   8.47033552
_cell_length_c   11.81619626
_cell_angle_alpha   65.41087142
_cell_angle_beta   65.41086964
_cell_angle_gamma   52.07108459
_symmetry_Int_Tables_number   1
_chemical_formula_structural   Sr3I2(Cl2O3)2
_chemical_formula_sum   'Sr6 I4 Cl8 O12'
_cell_volume   592.67196408
_cell_formula_units_Z   2
loop_
 _symmetry_equiv_pos_site_id
 _symmetry_equiv_pos_as_xyz
  1  'x, y, z'
loop_
 _atom_site_type_symbol
 _atom_site_label
 _atom_site_symmetry_multiplicity
 _atom_site_fract_x
 _atom_site_fract_y
 _atom_site_fract_z
 _atom_site_occupancy
  Sr  Sr0  1  0.18414826  0.81585174  0.75000000  1
  Sr  Sr1  1  0.81585174  0.18414826  0.25000000  1
  Sr  Sr2  1  0.04159047  0.34709700  0.83262315  1
  Sr  Sr3  1  0.65290300  0.95840953  0.66737685  1
  Sr  Sr4  1  0.95840953  0.65290300  0.16737685  1
  Sr  Sr5  1  0.34709700  0.04159047  0.33262315  1
  I  I0  1  0.66228670  0.22620717  0.97602117  1
  I  I1  1  0.77379283  0.33771330  0.52397883  1
  I  I2  1  0.33771330  0.77379283  0.02397883  1
  I  I3  1  0.22620717  0.66228670  0.47602117  1
  Cl  Cl0  1  0.65969851  0.58060140  0.73479311  1
  Cl  Cl1  1  0.41939860  0.34030149  0.76520689  1
  Cl  Cl2  1  0.34030149  0.41939860  0.26520689  1
  Cl  Cl3  1  0.58060140  0.65969851  0.23479311  1
  Cl  Cl4  1  0.25709237  0.16150641  0.59769231  1
  Cl  Cl5  1  0.83849359  0.74290763  0.90230769  1
  Cl  Cl6  1  0.74290763  0.83849359  0.40230769  1
  Cl  Cl7  1  0.16150641  0.25709237  0.09769231  1
  O  O0  1  0.91553691  0.09095218  0.87929622  1
  O  O1  1  0.90904782  0.08446309  0.62070378  1
  O  O2  1  0.08446309  0.90904782  0.12070378  1
  O  O3  1  0.09095218  0.91553691  0.37929622  1
  O  O4  1  0.32979514  0.96915241  0.87839298  1
  O  O5  1  0.03084759  0.67020486  0.62160702  1
  O  O6  1  0.67020486  0.03084759  0.12160702  1
  O  O7  1  0.96915241  0.32979514  0.37839298  1
  O  O8  1  0.27330753  0.64515476  0.97523215  1
  O  O9  1  0.35484524  0.72669247  0.52476785  1
  O  O10  1  0.72669247  0.35484524  0.02476785  1
  O  O11  1  0.64515476  0.27330753  0.47523215  1
loop_
_geom_bond_atom_site_label_1
_geom_bond_atom_site_label_2
_geom_bond_distance
_geom_bond_site_symmetry_2
I0 O0 1.802338 1_555
I0 O6 1.814559 1_556
I0 O10 1.825162 1_556
I1 O1 1.802338 1_555
I1 O7 1.814559 1_555
I1 O11 1.825162 1_555
I2 O2 1.802338 1_555
I2 O4 1.814559 1_554
I2 O8 1.825162 1_554
I3 O3 1.802338 1_555
I3 O5 1.814559 1_555
I3 O9 1.825162 1_555
Cl0 Sr3 2.927302 1_555
Cl0 Sr2 3.009261 1_655
Cl0 Sr0 3.171177 1_555
Cl1 Sr2 2.927301 1_555
Cl1 Sr3 3.009262 1_545
Cl1 Sr0 3.171177 1_555
Cl2 Sr5 2.927302 1_555
Cl2 Sr4 3.009261 1_455
Cl2 Sr1 3.171177 1_555
Cl3 Sr4 2.927301 1_555
Cl3 Sr5 3.009262 1_565
Cl3 Sr1 3.171177 1_555
Cl4 Sr3 2.984260 1_545
Cl4 Sr0 3.017640 1_545
Cl4 Sr2 3.065344 1_555
Cl4 Sr5 3.336383 1_555
Cl5 Sr2 2.984260 1_655
Cl5 Sr0 3.017640 1_655
Cl5 Sr3 3.065344 1_555
Cl5 Sr4 3.336383 1_556
Cl6 Sr5 2.984260 1_565
Cl6 Sr1 3.017640 1_565
Cl6 Sr4 3.065344 1_555
Cl6 Sr3 3.336383 1_555
Cl7 Sr4 2.984260 1_455
Cl7 Sr1 3.017640 1_455
Cl7 Sr5 3.065344 1_555
Cl7 Sr2 3.336383 1_554
O0 Sr0 2.548083 1_645
O0 Sr2 2.741082 1_655
O1 Sr0 2.548083 1_645
O1 Sr3 2.741082 1_545
O2 Sr1 2.548083 1_465
O2 Sr4 2.741082 1_455
O3 Sr1 2.548083 1_465
O3 Sr5 2.741082 1_565
O4 Sr2 2.559430 1_565
O4 Sr3 2.814106 1_555
O5 Sr3 2.559430 1_455
O5 Sr2 2.814106 1_555
O6 Sr4 2.559430 1_545
O6 Sr5 2.814106 1_555
O7 Sr5 2.559430 1_655
O7 Sr4 2.814106 1_555
O8 Sr0 2.621406 1_555
O8 Sr4 2.672557 1_456
O9 Sr0 2.621405 1_555
O9 Sr5 2.672557 1_565
O10 Sr1 2.621406 1_555
O10 Sr2 2.672557 1_654
O11 Sr1 2.621405 1_555
O11 Sr3 2.672557 1_545
