# generated using pymatgen
data_Sc12AlGaNi4
_symmetry_space_group_name_H-M   'P 1'
_cell_length_a   7.73005928
_cell_length_b   7.73005922
_cell_length_c   7.73005896
_cell_angle_alpha   111.00835766
_cell_angle_beta   110.52486484
_cell_angle_gamma   106.91076831
_symmetry_Int_Tables_number   1
_chemical_formula_structural   Sc12AlGaNi4
_chemical_formula_sum   'Sc12 Al1 Ga1 Ni4'
_cell_volume   355.03498313
_cell_formula_units_Z   1
loop_
 _symmetry_equiv_pos_site_id
 _symmetry_equiv_pos_as_xyz
  1  'x, y, z'
loop_
 _atom_site_type_symbol
 _atom_site_label
 _atom_site_symmetry_multiplicity
 _atom_site_fract_x
 _atom_site_fract_y
 _atom_site_fract_z
 _atom_site_occupancy
  Sc  Sc0  1  0.44121783  0.23810685  0.20310998  1
  Sc  Sc1  1  0.55878217  0.76189315  0.79689002  1
  Sc  Sc2  1  0.03499686  0.23810685  0.79689002  1
  Sc  Sc3  1  0.96500314  0.76189315  0.20310998  1
  Sc  Sc4  1  0.18369378  0.28249367  0.46618846  1
  Sc  Sc5  1  0.81630622  0.71750633  0.53381154  1
  Sc  Sc6  1  0.18369378  0.71750633  0.90119911  1
  Sc  Sc7  1  0.81630622  0.28249367  0.09880089  1
  Sc  Sc8  1  0.32460522  0.62163714  0.29703192  1
  Sc  Sc9  1  0.67539478  0.37836286  0.70296808  1
  Sc  Sc10  1  0.32460522  0.02757330  0.70296808  1
  Sc  Sc11  1  0.67539478  0.97242670  0.29703192  1
  Al  Al0  1  0.00000000  0.00000000  0.00000000  1
  Ga  Ga0  1  0.50000000  0.50000000  0.00000000  1
  Ni  Ni0  1  0.34843433  1.00000000  0.34843433  1
  Ni  Ni1  1  0.65156567  0.00000000  0.65156567  1
  Ni  Ni2  1  0.12640377  0.62640377  0.50000000  1
  Ni  Ni3  1  0.87359623  0.37359623  0.50000000  1
loop_
_geom_bond_atom_site_label_1
_geom_bond_atom_site_label_2
_geom_bond_distance
_geom_bond_site_symmetry_2
Sc0 Sc11 3.214346 1_545
Sc0 Sc9 3.214351 1_555
Sc0 Sc7 3.230124 1_555
Sc0 Sc5 3.230133 1_555
Sc0 Sc10 3.255684 1_554
Sc0 Sc8 3.255691 1_555
Sc0 Sc6 3.309355 1_544
Sc0 Sc4 3.309367 1_555
Sc0 Sc2 3.578583 1_554
Sc1 Sc10 3.214346 1_565
Sc1 Sc8 3.214351 1_555
Sc1 Sc6 3.230124 1_555
Sc1 Sc4 3.230133 1_555
Sc1 Sc11 3.255684 1_556
Sc1 Sc9 3.255691 1_555
Sc1 Sc7 3.309355 1_566
Sc1 Sc5 3.309367 1_555
Sc1 Sc3 3.578583 1_556
Sc2 Sc9 3.214352 1_455
Sc2 Sc4 3.230128 1_555
Sc2 Sc6 3.230138 1_555
Sc2 Sc8 3.255686 1_556
Sc2 Sc5 3.309355 1_445
Sc2 Sc7 3.309361 1_456
Sc3 Sc8 3.214352 1_655
Sc3 Sc5 3.230128 1_555
Sc3 Sc7 3.230138 1_555
Sc3 Sc9 3.255686 1_554
Sc3 Sc4 3.309355 1_665
Sc3 Sc6 3.309361 1_654
Sc4 Sc7 3.236486 1_455
Sc4 Sc9 3.294904 1_555
Sc4 Sc8 3.400649 1_555
Sc5 Sc6 3.236486 1_655
Sc5 Sc8 3.294904 1_555
Sc5 Sc9 3.400649 1_555
Sc6 Sc8 3.294911 1_556
Sc6 Sc9 3.400645 1_455
Sc7 Sc9 3.294911 1_554
Sc7 Sc8 3.400645 1_655
Sc10 Sc3 3.214352 1_445
Sc10 Sc9 3.229265 1_555
Sc10 Sc2 3.255686 1_555
Sc10 Sc4 3.294899 1_555
Sc10 Sc7 3.294907 1_556
Sc10 Sc6 3.400637 1_545
Sc10 Sc5 3.400641 1_445
Sc11 Sc2 3.214352 1_665
Sc11 Sc8 3.229265 1_555
Sc11 Sc3 3.255686 1_555
Sc11 Sc5 3.294899 1_555
Sc11 Sc6 3.294907 1_554
Sc11 Sc7 3.400637 1_565
Sc11 Sc4 3.400641 1_665
Al0 Sc2 2.829517 1_554
Al0 Sc3 2.829517 1_445
Al0 Sc0 2.829523 1_555
Al0 Sc1 2.829523 1_444
Al0 Sc7 2.955788 1_455
Al0 Sc6 2.955788 1_544
Al0 Sc4 2.955793 1_555
Al0 Sc5 2.955793 1_444
Al0 Ni1 3.069519 1_454
Al0 Ni0 3.069519 1_545
Ga0 Sc1 3.002340 1_554
Ga0 Sc0 3.002340 1_555
Ga0 Sc3 3.002341 1_555
Ga0 Sc2 3.002341 1_554
Ga0 Sc8 3.061195 1_555
Ga0 Sc9 3.061195 1_554
Ga0 Sc11 3.061195 1_555
Ga0 Sc10 3.061195 1_554
Ga0 Sc5 3.375107 1_555
Ga0 Sc4 3.375107 1_554
Ga0 Sc6 3.375115 1_554
Ga0 Sc7 3.375115 1_555
Ni0 Sc3 2.538424 1_455
Ni0 Sc0 2.538425 1_565
Ni0 Ni1 2.670424 1_565
Ni0 Sc10 2.747375 1_565
Ni0 Sc8 2.747375 1_555
Ni0 Sc11 2.747375 1_555
Ni0 Sc9 2.747375 1_565
Ni0 Sc4 2.867782 1_565
Ni0 Sc6 2.867786 1_554
Ni1 Sc2 2.538424 1_655
Ni1 Sc1 2.538425 1_545
Ni1 Sc11 2.747375 1_545
Ni1 Sc9 2.747375 1_555
Ni1 Sc10 2.747375 1_555
Ni1 Sc8 2.747375 1_545
Ni1 Sc5 2.867782 1_545
Ni1 Sc7 2.867786 1_556
Ni2 Ni3 2.327272 1_455
Ni2 Sc8 2.547027 1_555
Ni2 Sc10 2.547027 1_565
Ni2 Sc6 2.756737 1_555
Ni2 Sc7 2.756741 1_455
Ni2 Sc5 2.756742 1_455
Ni2 Sc4 2.756746 1_555
Ni2 Sc1 2.897619 1_555
Ni2 Sc3 2.897624 1_455
Ni3 Sc9 2.547027 1_555
Ni3 Sc11 2.547027 1_545
Ni3 Sc7 2.756737 1_555
Ni3 Sc6 2.756741 1_655
Ni3 Sc4 2.756742 1_655
Ni3 Sc5 2.756746 1_555
Ni3 Sc0 2.897619 1_555
Ni3 Sc2 2.897624 1_655
