# generated using pymatgen
data_Sc10Cd3Co
_symmetry_space_group_name_H-M   'P 1'
_cell_length_a   8.97985170
_cell_length_b   8.97985669
_cell_length_c   8.99215208
_cell_angle_alpha   90.00000000
_cell_angle_beta   90.00000000
_cell_angle_gamma   120.00018798
_symmetry_Int_Tables_number   1
_chemical_formula_structural   Sc10Cd3Co
_chemical_formula_sum   'Sc20 Cd6 Co2'
_cell_volume   627.96006057
_cell_formula_units_Z   2
loop_
 _symmetry_equiv_pos_site_id
 _symmetry_equiv_pos_as_xyz
  1  'x, y, z'
loop_
 _atom_site_type_symbol
 _atom_site_label
 _atom_site_symmetry_multiplicity
 _atom_site_fract_x
 _atom_site_fract_y
 _atom_site_fract_z
 _atom_site_occupancy
  Sc  Sc0  1  0.00000000  0.00000000  0.50000000  1
  Sc  Sc1  1  0.00000000  0.00000000  0.00000000  1
  Sc  Sc2  1  0.54136219  0.45863878  0.25000000  1
  Sc  Sc3  1  0.54136111  0.08272216  0.25000000  1
  Sc  Sc4  1  0.91727815  0.45863866  0.25000000  1
  Sc  Sc5  1  0.45863781  0.54136122  0.75000000  1
  Sc  Sc6  1  0.45863889  0.91727784  0.75000000  1
  Sc  Sc7  1  0.08272185  0.54136134  0.75000000  1
  Sc  Sc8  1  0.21189043  0.78810631  0.43521843  1
  Sc  Sc9  1  0.21189294  0.42378324  0.43521462  1
  Sc  Sc10  1  0.57621677  0.78810539  0.43521493  1
  Sc  Sc11  1  0.78810957  0.21189369  0.56478157  1
  Sc  Sc12  1  0.78810706  0.57621676  0.56478538  1
  Sc  Sc13  1  0.42378323  0.21189461  0.56478507  1
  Sc  Sc14  1  0.78810957  0.21189369  0.93521843  1
  Sc  Sc15  1  0.78810706  0.57621676  0.93521462  1
  Sc  Sc16  1  0.42378323  0.21189461  0.93521493  1
  Sc  Sc17  1  0.21189043  0.78810631  0.06478157  1
  Sc  Sc18  1  0.21189294  0.42378324  0.06478538  1
  Sc  Sc19  1  0.57621677  0.78810539  0.06478507  1
  Cd  Cd0  1  0.88437654  0.11562723  0.25000000  1
  Cd  Cd1  1  0.88437598  0.76874453  0.25000000  1
  Cd  Cd2  1  0.23125617  0.11562353  0.25000000  1
  Cd  Cd3  1  0.11562346  0.88437277  0.75000000  1
  Cd  Cd4  1  0.11562402  0.23125547  0.75000000  1
  Cd  Cd5  1  0.76874383  0.88437647  0.75000000  1
  Co  Co0  1  0.33333520  0.66666547  0.25000000  1
  Co  Co1  1  0.66666480  0.33333453  0.75000000  1
loop_
_geom_bond_atom_site_label_1
_geom_bond_atom_site_label_2
_geom_bond_distance
_geom_bond_site_symmetry_2
Sc0 Sc13 3.346754 1_555
Sc0 Sc10 3.346754 1_445
Sc0 Sc9 3.346757 1_555
Sc0 Sc12 3.346757 1_445
Sc0 Sc8 3.346766 1_545
Sc0 Sc11 3.346766 1_455
Sc1 Sc16 3.346754 1_554
Sc1 Sc19 3.346754 1_445
Sc1 Sc18 3.346757 1_555
Sc1 Sc15 3.346757 1_444
Sc1 Sc17 3.346766 1_545
Sc1 Sc14 3.346766 1_454
Sc2 Sc9 3.270929 1_555
Sc2 Sc4 3.375670 1_555
Sc2 Sc3 3.375673 1_555
Sc3 Sc8 3.270954 1_545
Sc3 Sc4 3.375668 1_555
Sc4 Sc8 3.270929 1_655
Sc4 Sc9 3.270938 1_655
Sc5 Sc7 3.375670 1_555
Sc5 Sc6 3.375673 1_555
Sc5 Sc9 3.420100 1_555
Sc6 Sc7 3.375668 1_555
Sc6 Sc8 3.420087 1_555
Sc7 Sc8 3.420072 1_555
Sc7 Sc9 3.420122 1_555
Sc10 Sc2 3.270914 1_555
Sc10 Sc3 3.270957 1_565
Sc10 Sc5 3.420095 1_555
Sc10 Sc6 3.420125 1_555
Sc11 Sc7 3.270929 1_655
Sc11 Sc6 3.270954 1_545
Sc11 Sc4 3.420072 1_555
Sc11 Sc3 3.420087 1_555
Sc12 Sc5 3.270929 1_555
Sc12 Sc7 3.270938 1_655
Sc12 Sc2 3.420100 1_555
Sc12 Sc4 3.420122 1_555
Sc13 Sc5 3.270914 1_555
Sc13 Sc6 3.270957 1_545
Sc13 Sc2 3.420095 1_555
Sc13 Sc3 3.420125 1_555
Sc14 Sc7 3.270929 1_655
Sc14 Sc6 3.270954 1_545
Sc14 Sc4 3.420072 1_556
Sc14 Sc3 3.420087 1_556
Sc15 Sc5 3.270929 1_555
Sc15 Sc7 3.270938 1_655
Sc15 Sc2 3.420100 1_556
Sc15 Sc4 3.420122 1_556
Sc16 Sc5 3.270914 1_555
Sc16 Sc6 3.270957 1_545
Sc16 Sc2 3.420095 1_556
Sc16 Sc3 3.420125 1_556
Sc17 Sc4 3.270929 1_455
Sc17 Sc3 3.270954 1_565
Sc17 Sc7 3.420072 1_554
Sc17 Sc6 3.420087 1_554
Sc18 Sc2 3.270929 1_555
Sc18 Sc4 3.270938 1_455
Sc18 Sc5 3.420100 1_554
Sc18 Sc7 3.420122 1_554
Sc19 Sc2 3.270914 1_555
Sc19 Sc3 3.270957 1_565
Sc19 Sc5 3.420095 1_554
Sc19 Sc6 3.420125 1_554
Cd0 Sc1 2.878867 1_655
Cd0 Sc0 2.878867 1_655
Cd0 Sc4 2.943608 1_555
Cd0 Sc3 2.943629 1_555
Cd0 Cd2 3.114944 1_655
Cd0 Cd1 3.114954 1_545
Cd0 Sc14 3.202183 1_554
Cd0 Sc11 3.202183 1_555
Cd0 Sc9 3.307938 1_655
Cd0 Sc18 3.307938 1_655
Cd0 Sc10 3.307976 1_545
Cd0 Sc19 3.307976 1_545
Cd1 Sc0 2.878887 1_665
Cd1 Sc1 2.878887 1_665
Cd1 Sc4 2.943578 1_555
Cd1 Sc2 2.943597 1_555
Cd1 Cd2 3.114919 1_665
Cd1 Sc12 3.202191 1_555
Cd1 Sc15 3.202191 1_554
Cd1 Sc17 3.307941 1_655
Cd1 Sc8 3.307941 1_655
Cd1 Sc10 3.307973 1_555
Cd1 Sc19 3.307973 1_555
Cd2 Sc1 2.878890 1_555
Cd2 Sc0 2.878890 1_555
Cd2 Sc3 2.943564 1_555
Cd2 Sc2 2.943606 1_555
Cd2 Sc13 3.202185 1_555
Cd2 Sc16 3.202185 1_554
Cd2 Sc8 3.307950 1_545
Cd2 Sc17 3.307950 1_545
Cd2 Sc9 3.307987 1_555
Cd2 Sc18 3.307987 1_555
Cd3 Sc1 2.878867 1_566
Cd3 Sc0 2.878867 1_565
Cd3 Sc7 2.943608 1_555
Cd3 Sc6 2.943629 1_555
Cd3 Cd5 3.114944 1_455
Cd3 Cd4 3.114954 1_565
Cd3 Sc8 3.202183 1_555
Cd3 Sc17 3.202183 1_556
Cd3 Sc15 3.307938 1_455
Cd3 Sc12 3.307938 1_455
Cd3 Sc16 3.307976 1_565
Cd3 Sc13 3.307976 1_565
Cd4 Sc1 2.878887 1_556
Cd4 Sc0 2.878887 1_555
Cd4 Sc7 2.943578 1_555
Cd4 Sc5 2.943597 1_555
Cd4 Cd5 3.114919 1_445
Cd4 Sc18 3.202191 1_556
Cd4 Sc9 3.202191 1_555
Cd4 Sc11 3.307941 1_455
Cd4 Sc14 3.307941 1_455
Cd4 Sc16 3.307973 1_555
Cd4 Sc13 3.307973 1_555
Cd5 Sc0 2.878890 1_665
Cd5 Sc1 2.878890 1_666
Cd5 Sc6 2.943564 1_555
Cd5 Sc5 2.943606 1_555
Cd5 Sc19 3.202185 1_556
Cd5 Sc10 3.202185 1_555
Cd5 Sc11 3.307950 1_565
Cd5 Sc14 3.307950 1_565
Cd5 Sc15 3.307987 1_555
Cd5 Sc12 3.307987 1_555
Co0 Sc10 2.518237 1_555
Co0 Sc19 2.518237 1_555
Co0 Sc9 2.518239 1_555
Co0 Sc18 2.518239 1_555
Co0 Sc8 2.518286 1_555
Co0 Sc17 2.518286 1_555
Co0 Sc2 3.235562 1_555
Co0 Sc3 3.235577 1_565
Co0 Sc4 3.235578 1_455
Co1 Sc16 2.518237 1_555
Co1 Sc13 2.518237 1_555
Co1 Sc15 2.518239 1_555
Co1 Sc12 2.518239 1_555
Co1 Sc11 2.518286 1_555
Co1 Sc14 2.518286 1_555
Co1 Sc5 3.235562 1_555
Co1 Sc6 3.235577 1_545
Co1 Sc7 3.235578 1_655
