# generated using pymatgen
data_Ti4NbBi4
_symmetry_space_group_name_H-M   'P 1'
_cell_length_a   7.77052249
_cell_length_b   7.77052268
_cell_length_c   7.77052139
_cell_angle_alpha   93.18099687
_cell_angle_beta   93.18099348
_cell_angle_gamma   152.75025539
_symmetry_Int_Tables_number   1
_chemical_formula_structural   Ti4NbBi4
_chemical_formula_sum   'Ti4 Nb1 Bi4'
_cell_volume   208.78340894
_cell_formula_units_Z   1
loop_
 _symmetry_equiv_pos_site_id
 _symmetry_equiv_pos_as_xyz
  1  'x, y, z'
loop_
 _atom_site_type_symbol
 _atom_site_label
 _atom_site_symmetry_multiplicity
 _atom_site_fract_x
 _atom_site_fract_y
 _atom_site_fract_z
 _atom_site_occupancy
  Ti  Ti0  1  0.61093979  0.68040866  0.29134845  1
  Ti  Ti1  1  0.38906021  0.31959134  0.70865155  1
  Ti  Ti2  1  0.31959134  0.61093979  0.93053112  1
  Ti  Ti3  1  0.68040866  0.38906021  0.06946888  1
  Nb  Nb0  1  0.00000000  0.00000000  0.00000000  1
  Bi  Bi0  1  0.71231027  0.93426374  0.64657401  1
  Bi  Bi1  1  0.28768973  0.06573626  0.35342599  1
  Bi  Bi2  1  0.06573626  0.71231027  0.77804853  1
  Bi  Bi3  1  0.93426374  0.28768973  0.22195147  1
loop_
_geom_bond_atom_site_label_1
_geom_bond_atom_site_label_2
_geom_bond_distance
_geom_bond_site_symmetry_2
Nb0 Ti0 2.909769 1_445
Nb0 Ti1 2.909769 1_554
Nb0 Ti3 2.909770 1_445
Nb0 Ti2 2.909770 1_554
Nb0 Ti3 2.909770 1_555
Nb0 Ti2 2.909770 1_444
Nb0 Ti0 2.909770 1_555
Nb0 Ti1 2.909770 1_444
Bi0 Ti2 2.867693 1_555
Bi0 Ti2 2.867694 1_665
Bi0 Ti1 2.900649 1_555
Bi0 Ti1 2.900649 1_665
Bi0 Ti0 2.919323 1_555
Bi0 Nb0 3.151695 1_666
Bi1 Ti3 2.867693 1_555
Bi1 Ti3 2.867694 1_445
Bi1 Ti0 2.900649 1_555
Bi1 Ti0 2.900649 1_445
Bi1 Ti1 2.919323 1_555
Bi1 Nb0 3.151695 1_555
Bi2 Ti1 2.867694 1_455
Bi2 Ti1 2.867699 1_565
Bi2 Ti3 2.900635 1_456
Bi2 Ti3 2.900641 1_566
Bi2 Ti2 2.919317 1_555
Bi2 Nb0 3.151687 1_566
Bi3 Ti0 2.867694 1_655
Bi3 Ti0 2.867699 1_545
Bi3 Ti2 2.900635 1_654
Bi3 Ti2 2.900641 1_544
Bi3 Ti3 2.919317 1_555
Bi3 Nb0 3.151687 1_655
