# generated using pymatgen
data_CaTa2HgO7
_symmetry_space_group_name_H-M   'P 1'
_cell_length_a   7.40856379
_cell_length_b   7.40856396
_cell_length_c   7.55097729
_cell_angle_alpha   59.36205567
_cell_angle_beta   59.36205489
_cell_angle_gamma   58.93277378
_symmetry_Int_Tables_number   1
_chemical_formula_structural   CaTa2HgO7
_chemical_formula_sum   'Ca2 Ta4 Hg2 O14'
_cell_volume   287.83440066
_cell_formula_units_Z   2
loop_
 _symmetry_equiv_pos_site_id
 _symmetry_equiv_pos_as_xyz
  1  'x, y, z'
loop_
 _atom_site_type_symbol
 _atom_site_label
 _atom_site_symmetry_multiplicity
 _atom_site_fract_x
 _atom_site_fract_y
 _atom_site_fract_z
 _atom_site_occupancy
  Ca  Ca0  1  0.12500000  0.12500000  0.62500000  1
  Ca  Ca1  1  0.12500000  0.12500000  0.12500000  1
  Ta  Ta0  1  0.62500000  0.62500000  0.12500000  1
  Ta  Ta1  1  0.62500000  0.12500000  0.62500000  1
  Ta  Ta2  1  0.12500000  0.62500000  0.62500000  1
  Ta  Ta3  1  0.62500000  0.62500000  0.62500000  1
  Hg  Hg0  1  0.12500000  0.62500000  0.12500000  1
  Hg  Hg1  1  0.62500000  0.12500000  0.12500000  1
  O  O0  1  0.30699456  0.69871151  0.31145294  1
  O  O1  1  0.55128849  0.94300544  0.56715900  1
  O  O2  1  0.30307295  0.30307295  0.69692705  1
  O  O3  1  0.69871151  0.30699456  0.31145294  1
  O  O4  1  0.30699456  0.69871151  0.68284100  1
  O  O5  1  0.68491568  0.68491568  0.31508432  1
  O  O6  1  0.94692705  0.94692705  0.55307295  1
  O  O7  1  0.56508432  0.56508432  0.93491568  1
  O  O8  1  0.98633687  0.98633687  0.01366313  1
  O  O9  1  0.26366313  0.26366313  0.23633687  1
  O  O10  1  0.69871151  0.30699456  0.68284100  1
  O  O11  1  0.94300544  0.55128849  0.56715900  1
  O  O12  1  0.55128849  0.94300544  0.93854706  1
  O  O13  1  0.94300544  0.55128849  0.93854706  1
loop_
_geom_bond_atom_site_label_1
_geom_bond_atom_site_label_2
_geom_bond_distance
_geom_bond_site_symmetry_2
Ca0 O8 2.380577 1_446
Ca0 O9 2.380577 1_555
Ca0 O1 2.604288 1_545
Ca0 O10 2.604288 1_455
Ca0 O11 2.604288 1_455
Ca0 O4 2.604288 1_545
Ca0 O2 2.651940 1_555
Ca0 O6 2.651940 1_445
Ca1 O9 2.380577 1_555
Ca1 O8 2.380577 1_445
Ca1 O12 2.604288 1_544
Ca1 O3 2.604288 1_455
Ca1 O0 2.604288 1_545
Ca1 O13 2.604288 1_454
Ca1 O6 2.651941 1_445
Ca1 O2 2.651941 1_554
Hg0 O8 2.162526 1_455
Hg0 O9 2.162526 1_555
Hg1 O8 2.162526 1_545
Hg1 O9 2.162526 1_555
O0 Ta0 1.976363 1_555
O0 Ta2 1.977417 1_555
O1 Ta3 1.976363 1_555
O1 Ta1 1.977417 1_565
O2 Ta1 1.971385 1_555
O2 Ta2 1.971385 1_555
O3 Ta0 1.976363 1_555
O3 Ta1 1.977417 1_555
O4 Ta3 1.976363 1_555
O4 Ta2 1.977417 1_555
O5 Ta0 1.989052 1_555
O5 Ta3 1.989052 1_555
O6 Ta1 1.971385 1_565
O6 Ta2 1.971385 1_655
O7 Ta0 1.989052 1_556
O7 Ta3 1.989052 1_555
O10 Ta3 1.976363 1_555
O10 Ta1 1.977417 1_555
O11 Ta3 1.976363 1_555
O11 Ta2 1.977417 1_655
O12 Ta0 1.976363 1_556
O12 Ta1 1.977417 1_565
O13 Ta0 1.976363 1_556
O13 Ta2 1.977417 1_655
