# generated using pymatgen
data_Ag6PbNO11
_symmetry_space_group_name_H-M   'P 1'
_cell_length_a   6.95199884
_cell_length_b   6.95199931
_cell_length_c   6.95199844
_cell_angle_alpha   62.42543554
_cell_angle_beta   62.42543608
_cell_angle_gamma   62.42542473
_symmetry_Int_Tables_number   1
_chemical_formula_structural   Ag6PbNO11
_chemical_formula_sum   'Ag6 Pb1 N1 O11'
_cell_volume   250.43111644
_cell_formula_units_Z   1
loop_
 _symmetry_equiv_pos_site_id
 _symmetry_equiv_pos_as_xyz
  1  'x, y, z'
loop_
 _atom_site_type_symbol
 _atom_site_label
 _atom_site_symmetry_multiplicity
 _atom_site_fract_x
 _atom_site_fract_y
 _atom_site_fract_z
 _atom_site_occupancy
  Ag  Ag0  1  0.49779198  0.00106952  0.00106952  1
  Ag  Ag1  1  0.50017134  0.50017134  0.00003378  1
  Ag  Ag2  1  0.50017134  0.00003378  0.50017134  1
  Ag  Ag3  1  0.00106952  0.00106952  0.49779198  1
  Ag  Ag4  1  0.00003378  0.50017134  0.50017134  1
  Ag  Ag5  1  0.00106952  0.49779198  0.00106952  1
  Pb  Pb0  1  0.99920802  0.99920802  0.99920802  1
  N  N0  1  0.50031651  0.50031651  0.50031651  1
  O  O0  1  0.58100585  0.14647504  0.14647504  1
  O  O1  1  0.14647504  0.58100585  0.14647504  1
  O  O2  1  0.13579723  0.13579723  0.13579723  1
  O  O3  1  0.14647504  0.14647504  0.58100585  1
  O  O4  1  0.60107099  0.60107099  0.29886775  1
  O  O5  1  0.60107099  0.29886775  0.60107099  1
  O  O6  1  0.29886775  0.60107099  0.60107099  1
  O  O7  1  0.85494086  0.85494086  0.41530754  1
  O  O8  1  0.85494086  0.41530754  0.85494086  1
  O  O9  1  0.86421584  0.86421584  0.86421584  1
  O  O10  1  0.41530754  0.85494086  0.85494086  1
loop_
_geom_bond_atom_site_label_1
_geom_bond_atom_site_label_2
_geom_bond_distance
_geom_bond_site_symmetry_2
Ag0 O0 2.099322 1_555
Ag0 O10 2.104036 1_544
Ag0 O2 2.129670 1_555
Ag0 O9 2.156374 1_544
Ag0 O4 2.594654 1_545
Ag0 O5 2.594654 1_554
Ag1 O1 2.081160 1_555
Ag1 O0 2.081160 1_555
Ag1 O8 2.085438 1_554
Ag1 O10 2.085439 1_554
Ag2 O3 2.081160 1_555
Ag2 O0 2.081160 1_555
Ag2 O7 2.085438 1_545
Ag2 O10 2.085438 1_545
Ag3 O3 2.099322 1_555
Ag3 O7 2.104036 1_445
Ag3 O2 2.129670 1_555
Ag3 O9 2.156375 1_445
Ag3 O5 2.594654 1_455
Ag3 O6 2.594654 1_545
Ag4 O3 2.081160 1_555
Ag4 O1 2.081160 1_555
Ag4 O7 2.085438 1_455
Ag4 O8 2.085438 1_455
Ag5 O1 2.099322 1_555
Ag5 O8 2.104036 1_454
Ag5 O2 2.129670 1_555
Ag5 O9 2.156375 1_454
Ag5 O4 2.594654 1_455
Ag5 O6 2.594654 1_554
N0 O6 1.257157 1_555
N0 O5 1.257158 1_555
N0 O4 1.257158 1_555
O0 Pb0 2.451118 1_544
O1 Pb0 2.451118 1_454
O2 Pb0 2.282406 1_444
O3 Pb0 2.451118 1_445
O7 Pb0 2.436994 1_554
O8 Pb0 2.436994 1_545
O9 Pb0 2.255720 1_555
O10 Pb0 2.436994 1_455
