# generated using pymatgen
data_Ba2NaB2Pt7
_symmetry_space_group_name_H-M   'P 1'
_cell_length_a   8.44285130
_cell_length_b   8.44285035
_cell_length_c   8.44284984
_cell_angle_alpha   38.85465168
_cell_angle_beta   38.85464794
_cell_angle_gamma   38.85464970
_symmetry_Int_Tables_number   1
_chemical_formula_structural   Ba2NaB2Pt7
_chemical_formula_sum   'Ba2 Na1 B2 Pt7'
_cell_volume   212.94940351
_cell_formula_units_Z   1
loop_
 _symmetry_equiv_pos_site_id
 _symmetry_equiv_pos_as_xyz
  1  'x, y, z'
loop_
 _atom_site_type_symbol
 _atom_site_label
 _atom_site_symmetry_multiplicity
 _atom_site_fract_x
 _atom_site_fract_y
 _atom_site_fract_z
 _atom_site_occupancy
  Ba  Ba0  1  0.36198175  0.36198175  0.36198175  1
  Ba  Ba1  1  0.63801825  0.63801825  0.63801825  1
  Na  Na0  1  0.50000000  0.50000000  0.50000000  1
  B  B0  1  0.16901216  0.16901216  0.16901216  1
  B  B1  1  0.83098784  0.83098784  0.83098784  1
  Pt  Pt0  1  0.00000000  0.00000000  0.00000000  1
  Pt  Pt1  1  0.56609566  0.05961767  0.05961667  1
  Pt  Pt2  1  0.05961767  0.56609566  0.05961667  1
  Pt  Pt3  1  0.94038233  0.94038233  0.43390534  1
  Pt  Pt4  1  0.05961767  0.05961767  0.56609466  1
  Pt  Pt5  1  0.94038233  0.43390434  0.94038333  1
  Pt  Pt6  1  0.43390434  0.94038233  0.94038333  1
loop_
_geom_bond_atom_site_label_1
_geom_bond_atom_site_label_2
_geom_bond_distance
_geom_bond_site_symmetry_2
Ba0 Na0 3.227694 1_555
Ba0 Pt0 3.311102 1_655
Ba0 Pt0 3.311102 1_556
Ba0 Pt0 3.311102 1_565
Ba0 Pt6 3.326464 1_554
Ba0 Pt5 3.326464 1_554
Ba0 Pt3 3.326466 1_455
Ba0 Pt3 3.326466 1_545
Ba0 Pt5 3.326468 1_455
Ba0 Pt6 3.326468 1_545
Ba0 Ba1 3.508558 1_554
Ba0 Ba1 3.508558 1_545
Ba0 Ba1 3.508559 1_455
Ba0 Pt4 3.528436 1_555
Ba0 Pt1 3.528438 1_555
Ba0 Pt2 3.528438 1_555
Ba1 Na0 3.227694 1_555
Ba1 Pt0 3.311102 1_566
Ba1 Pt0 3.311102 1_665
Ba1 Pt0 3.311102 1_656
Ba1 Pt1 3.326464 1_556
Ba1 Pt2 3.326464 1_556
Ba1 Pt4 3.326466 1_655
Ba1 Pt4 3.326466 1_565
Ba1 Pt2 3.326468 1_655
Ba1 Pt1 3.326468 1_565
Ba1 Pt3 3.528436 1_555
Ba1 Pt6 3.528438 1_555
Ba1 Pt5 3.528438 1_555
Na0 Pt2 3.158086 1_556
Na0 Pt5 3.158086 1_554
Na0 Pt1 3.158086 1_556
Na0 Pt6 3.158086 1_554
Na0 Pt4 3.158088 1_565
Na0 Pt3 3.158088 1_545
Na0 Pt4 3.158089 1_655
Na0 Pt3 3.158089 1_455
Na0 Pt1 3.158091 1_565
Na0 Pt6 3.158091 1_545
Na0 Pt2 3.158091 1_655
Na0 Pt5 3.158091 1_455
B0 Pt4 2.151483 1_555
B0 Pt2 2.151487 1_555
B0 Pt1 2.151487 1_555
B0 Pt6 2.193088 1_544
B0 Pt5 2.193089 1_454
B0 Pt3 2.193092 1_445
B0 Na0 3.243076 1_554
B0 Na0 3.243076 1_455
B0 Na0 3.243076 1_545
B1 Pt3 2.151483 1_555
B1 Pt5 2.151487 1_555
B1 Pt6 2.151487 1_555
B1 Pt1 2.193088 1_566
B1 Pt2 2.193089 1_656
B1 Pt4 2.193092 1_665
B1 Na0 3.243076 1_556
B1 Na0 3.243076 1_655
B1 Na0 3.243076 1_565
Pt0 Pt5 2.928814 1_454
Pt0 Pt2 2.928814 1_545
Pt0 Pt6 2.928815 1_544
Pt0 Pt1 2.928815 1_455
Pt0 Pt3 2.928817 1_445
Pt0 Pt4 2.928817 1_554
