# generated using pymatgen
data_Zr3TiPt2N
_symmetry_space_group_name_H-M   'P 1'
_cell_length_a   8.67612549
_cell_length_b   8.67612558
_cell_length_c   8.67612574
_cell_angle_alpha   60.00000314
_cell_angle_beta   60.00000280
_cell_angle_gamma   60.00000003
_symmetry_Int_Tables_number   1
_chemical_formula_structural   Zr3TiPt2N
_chemical_formula_sum   'Zr12 Ti4 Pt8 N4'
_cell_volume   461.80912866
_cell_formula_units_Z   4
loop_
 _symmetry_equiv_pos_site_id
 _symmetry_equiv_pos_as_xyz
  1  'x, y, z'
loop_
 _atom_site_type_symbol
 _atom_site_label
 _atom_site_symmetry_multiplicity
 _atom_site_fract_x
 _atom_site_fract_y
 _atom_site_fract_z
 _atom_site_occupancy
  Zr  Zr0  1  0.81437552  0.81437552  0.18562448  1
  Zr  Zr1  1  0.18562448  0.18562448  0.81437552  1
  Zr  Zr2  1  0.81437552  0.18562448  0.81437552  1
  Zr  Zr3  1  0.18562448  0.81437552  0.18562448  1
  Zr  Zr4  1  0.18562448  0.81437552  0.81437552  1
  Zr  Zr5  1  0.81437552  0.18562448  0.18562448  1
  Zr  Zr6  1  0.43562448  0.43562448  0.06437552  1
  Zr  Zr7  1  0.06437552  0.06437552  0.43562448  1
  Zr  Zr8  1  0.43562448  0.06437552  0.43562448  1
  Zr  Zr9  1  0.06437552  0.43562448  0.06437552  1
  Zr  Zr10  1  0.06437552  0.43562448  0.43562448  1
  Zr  Zr11  1  0.43562448  0.06437552  0.06437552  1
  Ti  Ti0  1  0.12500000  0.62500000  0.62500000  1
  Ti  Ti1  1  0.62500000  0.12500000  0.62500000  1
  Ti  Ti2  1  0.62500000  0.62500000  0.12500000  1
  Ti  Ti3  1  0.62500000  0.62500000  0.62500000  1
  Pt  Pt0  1  0.76691399  0.41102834  0.41102834  1
  Pt  Pt1  1  0.41102834  0.76691399  0.41102834  1
  Pt  Pt2  1  0.41102834  0.41102834  0.76691399  1
  Pt  Pt3  1  0.41102834  0.41102834  0.41102834  1
  Pt  Pt4  1  0.48308601  0.83897166  0.83897166  1
  Pt  Pt5  1  0.83897166  0.48308601  0.83897166  1
  Pt  Pt6  1  0.83897166  0.83897166  0.48308601  1
  Pt  Pt7  1  0.83897166  0.83897166  0.83897166  1
  N  N0  1  0.62500000  0.12500000  0.12500000  1
  N  N1  1  0.12500000  0.62500000  0.12500000  1
  N  N2  1  0.12500000  0.12500000  0.62500000  1
  N  N3  1  0.12500000  0.12500000  0.12500000  1
loop_
_geom_bond_atom_site_label_1
_geom_bond_atom_site_label_2
_geom_bond_distance
_geom_bond_site_symmetry_2
Pt0 Ti2 2.698813 1_555
Pt0 Ti1 2.698813 1_555
Pt0 Ti3 2.698820 1_555
Pt0 Zr7 2.810458 1_655
Pt0 Zr9 2.810458 1_655
Pt0 Zr10 2.810463 1_655
Pt0 Zr5 3.167407 1_555
Pt0 Zr0 3.167415 1_555
Pt0 Zr2 3.167415 1_555
Pt1 Ti2 2.698813 1_555
Pt1 Ti0 2.698813 1_555
Pt1 Ti3 2.698820 1_555
Pt1 Zr7 2.810458 1_565
Pt1 Zr11 2.810458 1_565
Pt1 Zr8 2.810463 1_565
Pt1 Zr3 3.167407 1_555
Pt1 Zr0 3.167415 1_555
Pt1 Zr4 3.167415 1_555
Pt2 Ti0 2.698813 1_555
Pt2 Ti1 2.698813 1_555
Pt2 Ti3 2.698820 1_555
Pt2 Zr9 2.810458 1_556
Pt2 Zr11 2.810458 1_556
Pt2 Zr6 2.810463 1_556
Pt2 Zr1 3.167407 1_555
Pt2 Zr2 3.167414 1_555
Pt2 Zr4 3.167414 1_555
Pt3 Ti0 2.698818 1_555
Pt3 Ti1 2.698818 1_555
Pt3 Ti2 2.698818 1_555
Pt3 Zr10 2.810455 1_555
Pt3 Zr8 2.810455 1_555
Pt3 Zr6 2.810455 1_555
Pt3 Zr5 3.167411 1_555
Pt3 Zr3 3.167411 1_555
Pt3 Zr1 3.167411 1_555
Pt4 Ti2 2.698813 1_556
Pt4 Ti1 2.698813 1_565
Pt4 Ti3 2.698820 1_555
Pt4 Zr1 2.810458 1_565
Pt4 Zr3 2.810458 1_556
Pt4 Zr4 2.810463 1_555
Pt4 Zr11 3.167407 1_566
Pt4 Zr6 3.167415 1_556
Pt4 Zr8 3.167415 1_565
Pt5 Ti2 2.698813 1_556
Pt5 Ti0 2.698813 1_655
Pt5 Ti3 2.698820 1_555
Pt5 Zr1 2.810458 1_655
Pt5 Zr5 2.810458 1_556
Pt5 Zr2 2.810463 1_555
Pt5 Zr9 3.167407 1_656
Pt5 Zr6 3.167415 1_556
Pt5 Zr10 3.167415 1_655
Pt6 Ti0 2.698813 1_655
Pt6 Ti1 2.698813 1_565
Pt6 Ti3 2.698820 1_555
Pt6 Zr3 2.810458 1_655
Pt6 Zr5 2.810458 1_565
Pt6 Zr0 2.810463 1_555
Pt6 Zr7 3.167407 1_665
Pt6 Zr8 3.167414 1_565
Pt6 Zr10 3.167414 1_655
Pt7 Ti0 2.698818 1_655
Pt7 Ti1 2.698818 1_565
Pt7 Ti2 2.698818 1_556
Pt7 Zr4 2.810455 1_655
Pt7 Zr2 2.810455 1_565
Pt7 Zr0 2.810455 1_556
Pt7 Zr11 3.167411 1_566
Pt7 Zr9 3.167411 1_656
Pt7 Zr7 3.167411 1_665
N0 Zr5 2.293037 1_555
N0 Zr11 2.293037 1_555
N0 Zr6 2.293037 1_555
N0 Zr0 2.293037 1_545
N0 Zr8 2.293037 1_555
N0 Zr2 2.293037 1_554
N1 Zr3 2.293037 1_555
N1 Zr9 2.293037 1_555
N1 Zr6 2.293037 1_555
N1 Zr0 2.293037 1_455
N1 Zr4 2.293037 1_554
N1 Zr10 2.293037 1_555
N2 Zr7 2.293037 1_555
N2 Zr1 2.293037 1_555
N2 Zr8 2.293037 1_555
N2 Zr2 2.293037 1_455
N2 Zr10 2.293037 1_555
N2 Zr4 2.293037 1_545
N3 Zr11 2.293037 1_555
N3 Zr5 2.293037 1_455
N3 Zr9 2.293037 1_555
N3 Zr3 2.293037 1_545
N3 Zr1 2.293037 1_554
N3 Zr7 2.293037 1_555
