# generated using pymatgen
data_SrBeH4
_symmetry_space_group_name_H-M   'P 1'
_cell_length_a   4.59253983
_cell_length_b   4.59265913
_cell_length_c   6.23706293
_cell_angle_alpha   89.73563768
_cell_angle_beta   90.00000000
_cell_angle_gamma   90.00000000
_symmetry_Int_Tables_number   1
_chemical_formula_structural   SrBeH4
_chemical_formula_sum   'Sr2 Be2 H8'
_cell_volume   131.55054395
_cell_formula_units_Z   2
loop_
 _symmetry_equiv_pos_site_id
 _symmetry_equiv_pos_as_xyz
  1  'x, y, z'
loop_
 _atom_site_type_symbol
 _atom_site_label
 _atom_site_symmetry_multiplicity
 _atom_site_fract_x
 _atom_site_fract_y
 _atom_site_fract_z
 _atom_site_occupancy
  Sr  Sr0  1  0.18150485  0.74889869  0.24997189  1
  Sr  Sr1  1  0.68150485  0.25110131  0.75002811  1
  Be  Be0  1  0.68165843  0.24564545  0.24988034  1
  Be  Be1  1  0.18165843  0.75435455  0.75011966  1
  H  H0  1  0.42957726  0.25448379  0.11883532  1
  H  H1  1  0.92957726  0.74551621  0.88116468  1
  H  H2  1  0.67656377  0.99276567  0.38119166  1
  H  H3  1  0.17656377  0.00723433  0.61880834  1
  H  H4  1  0.68920202  0.49535814  0.38266991  1
  H  H5  1  0.18920202  0.50464186  0.61733009  1
  H  H6  1  0.93210567  0.24193584  0.11689001  1
  H  H7  1  0.43210567  0.75806416  0.88310999  1
loop_
_geom_bond_atom_site_label_1
_geom_bond_atom_site_label_2
_geom_bond_distance
_geom_bond_site_symmetry_2
Be0 H0 1.417615 1_555
Be0 H4 1.418155 1_555
Be0 H2 1.418222 1_545
Be0 H6 1.418229 1_555
Be1 H1 1.417615 1_455
Be1 H5 1.418155 1_555
Be1 H3 1.418222 1_565
Be1 H7 1.418229 1_555
H0 Sr1 2.574966 1_554
H0 Sr0 2.672089 1_555
H0 Sr0 2.709428 1_545
H1 Sr0 2.574966 1_656
H1 Sr1 2.672089 1_555
H1 Sr1 2.709428 1_565
H2 Sr1 2.593349 1_565
H2 Sr0 2.664926 1_555
H2 Sr0 2.703749 1_655
H3 Sr0 2.593349 1_545
H3 Sr1 2.664926 1_455
H3 Sr1 2.703749 1_555
H4 Sr1 2.546705 1_555
H4 Sr0 2.672780 1_655
H4 Sr0 2.732845 1_555
H5 Sr0 2.546705 1_555
H5 Sr1 2.672780 1_555
H5 Sr1 2.732845 1_455
H6 Sr1 2.561450 1_554
H6 Sr0 2.666608 1_645
H6 Sr0 2.727582 1_655
H7 Sr0 2.561450 1_556
H7 Sr1 2.666608 1_565
H7 Sr1 2.727582 1_555
