# generated using pymatgen
data_Nb3InCu2N
_symmetry_space_group_name_H-M   'P 1'
_cell_length_a   8.34149108
_cell_length_b   8.34149154
_cell_length_c   8.34149108
_cell_angle_alpha   120.00000206
_cell_angle_beta   90.00000000
_cell_angle_gamma   120.00000206
_symmetry_Int_Tables_number   1
_chemical_formula_structural   Nb3InCu2N
_chemical_formula_sum   'Nb12 In4 Cu8 N4'
_cell_volume   410.40823688
_cell_formula_units_Z   4
loop_
 _symmetry_equiv_pos_site_id
 _symmetry_equiv_pos_as_xyz
  1  'x, y, z'
loop_
 _atom_site_type_symbol
 _atom_site_label
 _atom_site_symmetry_multiplicity
 _atom_site_fract_x
 _atom_site_fract_y
 _atom_site_fract_z
 _atom_site_occupancy
  Nb  Nb0  1  0.30346065  0.75000100  0.19653935  1
  Nb  Nb1  1  0.94654035  0.39307971  0.19653935  1
  Nb  Nb2  1  0.94654035  0.75000100  0.19653935  1
  Nb  Nb3  1  0.69654035  0.89307971  0.44653935  1
  Nb  Nb4  1  0.69654035  0.25000100  0.44653935  1
  Nb  Nb5  1  0.05346165  0.25000100  0.44654035  1
  Nb  Nb6  1  0.30346065  0.10692029  0.55346165  1
  Nb  Nb7  1  0.30346065  0.75000100  0.55346165  1
  Nb  Nb8  1  0.94654035  0.75000100  0.55346165  1
  Nb  Nb9  1  0.69654035  0.25000100  0.80346165  1
  Nb  Nb10  1  0.05346065  0.60692029  0.80346165  1
  Nb  Nb11  1  0.05346065  0.25000100  0.80346165  1
  In  In0  1  0.00000000  0.00000000  0.00000000  1
  In  In1  1  0.50000000  0.00000000  0.00000000  1
  In  In2  1  0.50000000  0.50000000  0.00000000  1
  In  In3  1  0.50000000  0.50000000  0.50000000  1
  Cu  Cu0  1  0.70906587  0.91813074  0.12719861  1
  Cu  Cu1  1  0.29093413  0.08186826  0.20906587  1
  Cu  Cu2  1  0.29093413  0.41813174  0.20906587  1
  Cu  Cu3  1  0.62719861  0.41813174  0.20906587  1
  Cu  Cu4  1  0.70906587  0.58186826  0.79093413  1
  Cu  Cu5  1  0.70906587  0.91813074  0.79093413  1
  Cu  Cu6  1  0.37280139  0.58186826  0.79093413  1
  Cu  Cu7  1  0.29093413  0.08186826  0.87280139  1
  N  N0  1  0.00000000  0.50000000  0.00000000  1
  N  N1  1  0.00000000  0.00000000  0.50000000  1
  N  N2  1  0.50000000  0.00000000  0.50000000  1
  N  N3  1  0.00000000  0.50000000  0.50000000  1
loop_
_geom_bond_atom_site_label_1
_geom_bond_atom_site_label_2
_geom_bond_distance
_geom_bond_site_symmetry_2
In0 Nb8 3.118367 1_444
In0 Nb2 3.118367 1_445
In0 Nb11 3.118373 1_554
In0 Nb1 3.118375 1_455
In0 Nb5 3.118378 1_555
In0 Nb10 3.118380 1_544
In1 Nb7 3.118367 1_544
In1 Nb0 3.118367 1_545
In1 Nb4 3.118373 1_555
In1 Nb9 3.118373 1_554
In1 Nb10 3.118374 1_544
In1 Nb1 3.118380 1_555
In2 Nb6 3.118369 1_554
In2 Nb11 3.118373 1_554
In2 Nb9 3.118373 1_554
In2 Nb3 3.118374 1_555
In2 Nb2 3.118378 1_555
In2 Nb0 3.118379 1_555
In3 Nb5 3.118367 1_555
In3 Nb4 3.118373 1_555
In3 Nb8 3.118378 1_555
In3 Nb7 3.118379 1_555
In3 Nb3 3.118380 1_555
In3 Nb6 3.118386 1_555
Cu0 In2 2.559069 1_555
Cu0 In0 2.559082 1_665
Cu0 In1 2.559089 1_565
Cu0 Nb3 2.772200 1_555
Cu0 Nb4 2.772218 1_565
Cu0 Nb5 2.772222 1_665
Cu0 Cu4 2.804939 1_554
Cu0 Cu6 2.804947 1_554
Cu0 Cu5 2.804947 1_554
Cu0 Nb2 3.132834 1_555
Cu0 Nb0 3.132841 1_555
Cu0 Nb1 3.132863 1_565
Cu1 In3 2.559078 1_555
Cu1 In0 2.559078 1_555
Cu1 In1 2.559078 1_555
Cu1 Nb2 2.772209 1_445
Cu1 Nb0 2.772209 1_545
Cu1 Nb6 2.772230 1_555
Cu1 Cu2 2.804939 1_555
Cu1 Cu3 2.804943 1_555
Cu1 Cu7 2.804947 1_554
Cu1 Nb10 3.132844 1_544
Cu1 Nb5 3.132845 1_555
Cu1 Nb4 3.132848 1_555
Cu2 In0 2.559078 1_555
Cu2 In3 2.559078 1_555
Cu2 In2 2.559078 1_555
Cu2 Nb1 2.772213 1_455
Cu2 Nb7 2.772226 1_555
Cu2 Nb0 2.772226 1_555
Cu2 Cu7 2.804943 1_554
Cu2 Cu3 2.804947 1_555
Cu2 Nb11 3.132841 1_554
Cu2 Nb5 3.132845 1_555
Cu2 Nb3 3.132852 1_555
Cu3 In1 2.559075 1_555
Cu3 In3 2.559082 1_555
Cu3 In2 2.559082 1_555
Cu3 Nb1 2.772213 1_555
Cu3 Nb8 2.772222 1_555
Cu3 Nb2 2.772222 1_555
Cu3 Cu7 2.804947 1_554
Cu3 Nb9 3.132837 1_554
Cu3 Nb4 3.132838 1_555
Cu3 Nb3 3.132852 1_555
Cu4 In0 2.559078 1_666
Cu4 In3 2.559078 1_555
Cu4 In2 2.559078 1_556
Cu4 Nb4 2.772217 1_555
Cu4 Nb9 2.772218 1_555
Cu4 Nb10 2.772221 1_655
Cu4 Cu5 2.804931 1_555
Cu4 Cu6 2.804947 1_555
Cu4 Nb2 3.132844 1_556
Cu4 Nb8 3.132845 1_555
Cu4 Nb6 3.132848 1_555
Cu5 In3 2.559073 1_555
Cu5 In0 2.559073 1_666
Cu5 In1 2.559080 1_566
Cu5 Nb11 2.772221 1_665
Cu5 Nb3 2.772225 1_555
Cu5 Nb9 2.772226 1_565
Cu5 Cu6 2.804939 1_555
Cu5 Nb8 3.132841 1_555
Cu5 Nb7 3.132848 1_555
Cu5 Nb1 3.132851 1_566
Cu6 In1 2.559075 1_566
Cu6 In3 2.559082 1_555
Cu6 In2 2.559082 1_556
Cu6 Nb10 2.772205 1_555
Cu6 Nb5 2.772205 1_555
Cu6 Nb11 2.772214 1_555
Cu6 Nb0 3.132841 1_556
Cu6 Nb7 3.132841 1_555
Cu6 Nb6 3.132856 1_555
Cu7 In2 2.559075 1_556
Cu7 In0 2.559082 1_556
Cu7 In1 2.559082 1_556
Cu7 Nb6 2.772196 1_555
Cu7 Nb8 2.772205 1_445
Cu7 Nb7 2.772205 1_545
Cu7 Nb9 3.132845 1_555
Cu7 Nb11 3.132845 1_555
Cu7 Nb10 3.132859 1_545
N0 Nb10 2.178634 1_554
N0 Nb9 2.178640 1_454
N0 Nb11 2.178640 1_554
N0 Nb1 2.178642 1_455
N0 Nb0 2.178648 1_555
N0 Nb2 2.178648 1_455
N1 Nb3 2.178642 1_445
N1 Nb2 2.178648 1_445
N1 Nb5 2.178648 1_555
N1 Nb8 2.178648 1_445
N1 Nb6 2.178650 1_555
N1 Nb11 2.178656 1_555
N2 Nb6 2.178642 1_555
N2 Nb0 2.178648 1_545
N2 Nb7 2.178648 1_545
N2 Nb3 2.178650 1_545
N2 Nb9 2.178656 1_555
N2 Nb4 2.178656 1_555
N3 Nb4 2.178640 1_455
N3 Nb7 2.178648 1_555
N3 Nb8 2.178648 1_455
N3 Nb5 2.178648 1_555
N3 Nb1 2.178650 1_455
N3 Nb10 2.178658 1_555
