# generated using pymatgen
data_MnPbBr18
_symmetry_space_group_name_H-M   'P 1'
_cell_length_a   9.14907697
_cell_length_b   9.14907526
_cell_length_c   9.14907572
_cell_angle_alpha   100.03213540
_cell_angle_beta   100.03214105
_cell_angle_gamma   100.03214049
_symmetry_Int_Tables_number   1
_chemical_formula_structural   MnPbBr18
_chemical_formula_sum   'Mn1 Pb1 Br18'
_cell_volume   725.87886499
_cell_formula_units_Z   1
loop_
 _symmetry_equiv_pos_site_id
 _symmetry_equiv_pos_as_xyz
  1  'x, y, z'
loop_
 _atom_site_type_symbol
 _atom_site_label
 _atom_site_symmetry_multiplicity
 _atom_site_fract_x
 _atom_site_fract_y
 _atom_site_fract_z
 _atom_site_occupancy
  Mn  Mn0  1  0.00000000  0.00000000  0.00000000  1
  Pb  Pb0  1  0.50000000  0.50000000  0.50000000  1
  Br  Br0  1  0.27078467  0.99791583  0.07944347  1
  Br  Br1  1  0.07944347  0.27078467  0.99791583  1
  Br  Br2  1  0.99791583  0.07944347  0.27078467  1
  Br  Br3  1  0.72921533  0.00208417  0.92055653  1
  Br  Br4  1  0.92055653  0.72921533  0.00208417  1
  Br  Br5  1  0.00208417  0.92055653  0.72921533  1
  Br  Br6  1  0.65692366  0.24627739  0.06906549  1
  Br  Br7  1  0.06906549  0.65692365  0.24627738  1
  Br  Br8  1  0.24627739  0.06906549  0.65692366  1
  Br  Br9  1  0.34307634  0.75372261  0.93093451  1
  Br  Br10  1  0.93093451  0.34307635  0.75372262  1
  Br  Br11  1  0.75372261  0.93093451  0.34307634  1
  Br  Br12  1  0.47181542  0.18758442  0.57494107  1
  Br  Br13  1  0.57494107  0.47181542  0.18758442  1
  Br  Br14  1  0.18758442  0.57494107  0.47181542  1
  Br  Br15  1  0.52818458  0.81241558  0.42505893  1
  Br  Br16  1  0.42505893  0.52818458  0.81241558  1
  Br  Br17  1  0.81241558  0.42505893  0.52818458  1
loop_
_geom_bond_atom_site_label_1
_geom_bond_atom_site_label_2
_geom_bond_distance
_geom_bond_site_symmetry_2
Br0 Mn0 2.461755 1_565
Br0 Br9 2.654295 1_554
Br1 Mn0 2.461755 1_556
Br1 Br10 2.654295 1_455
Br2 Mn0 2.461755 1_655
Br3 Mn0 2.461755 1_656
Br3 Br6 2.654295 1_556
Br4 Mn0 2.461755 1_665
Br4 Br7 2.654295 1_655
Br5 Mn0 2.461755 1_566
Br5 Br8 2.654295 1_565
Br10 Br17 2.457503 1_555
Br11 Br15 2.457504 1_555
Br11 Br2 2.654295 1_565
Br12 Br8 2.457504 1_555
Br12 Pb0 3.032186 1_555
Br13 Br6 2.457503 1_555
Br13 Pb0 3.032186 1_555
Br14 Br7 2.457503 1_555
Br14 Pb0 3.032186 1_555
Br15 Pb0 3.032186 1_555
Br16 Br9 2.457503 1_555
Br16 Pb0 3.032186 1_555
Br17 Pb0 3.032186 1_555
