# generated using pymatgen
data_ZrAg3(Pt2O7)2
_symmetry_space_group_name_H-M   'P 1'
_cell_length_a   7.06336575
_cell_length_b   7.13921333
_cell_length_c   7.06336528
_cell_angle_alpha   60.35082604
_cell_angle_beta   60.00000224
_cell_angle_gamma   60.35082019
_symmetry_Int_Tables_number   1
_chemical_formula_structural   ZrAg3(Pt2O7)2
_chemical_formula_sum   'Zr1 Ag3 Pt4 O14'
_cell_volume   253.18701029
_cell_formula_units_Z   1
loop_
 _symmetry_equiv_pos_site_id
 _symmetry_equiv_pos_as_xyz
  1  'x, y, z'
loop_
 _atom_site_type_symbol
 _atom_site_label
 _atom_site_symmetry_multiplicity
 _atom_site_fract_x
 _atom_site_fract_y
 _atom_site_fract_z
 _atom_site_occupancy
  Zr  Zr0  1  0.12500000  0.62500000  0.12500000  1
  Ag  Ag0  1  0.12500000  0.12500000  0.12500000  1
  Ag  Ag1  1  0.62500000  0.12500000  0.12500000  1
  Ag  Ag2  1  0.12500000  0.12500000  0.62500000  1
  Pt  Pt0  1  0.62500000  0.62500000  0.62500000  1
  Pt  Pt1  1  0.12500000  0.62500000  0.62500000  1
  Pt  Pt2  1  0.62500000  0.62500000  0.12500000  1
  Pt  Pt3  1  0.62500000  0.12500000  0.62500000  1
  O  O0  1  0.00107837  0.99676489  0.00107837  1
  O  O1  1  0.24892163  0.25323511  0.24892163  1
  O  O2  1  0.51025868  0.56637474  0.96168379  1
  O  O3  1  0.28564853  0.29264383  0.71085432  1
  O  O4  1  0.96168379  0.56637474  0.96168379  1
  O  O5  1  0.96168379  0.56637474  0.51025868  1
  O  O6  1  0.53914568  0.95735617  0.96435147  1
  O  O7  1  0.53914568  0.95735617  0.53914568  1
  O  O8  1  0.96435147  0.95735617  0.53914568  1
  O  O9  1  0.71085432  0.29264383  0.28564853  1
  O  O10  1  0.28831621  0.68362526  0.73974132  1
  O  O11  1  0.73974132  0.68362526  0.28831621  1
  O  O12  1  0.71085432  0.29264383  0.71085432  1
  O  O13  1  0.28831621  0.68362526  0.28831621  1
loop_
_geom_bond_atom_site_label_1
_geom_bond_atom_site_label_2
_geom_bond_distance
_geom_bond_site_symmetry_2
Ag0 O1 2.173075 1_555
Ag0 O0 2.173075 1_545
Ag0 O6 2.416112 1_544
Ag0 O9 2.416112 1_455
Ag0 O8 2.416112 1_445
Ag0 O3 2.416112 1_554
Ag0 O4 2.593970 1_454
Ag0 O13 2.593970 1_545
Ag1 O0 2.173075 1_645
Ag1 O1 2.173075 1_555
Ag1 O7 2.416112 1_545
Ag1 O12 2.416112 1_554
Ag1 O9 2.416117 1_555
Ag1 O6 2.416117 1_544
Ag1 O2 2.593970 1_554
Ag1 O11 2.593970 1_545
Ag2 O0 2.173075 1_546
Ag2 O1 2.173075 1_555
Ag2 O7 2.416112 1_545
Ag2 O12 2.416112 1_455
Ag2 O3 2.416118 1_555
Ag2 O8 2.416118 1_445
Ag2 O5 2.593970 1_455
Ag2 O10 2.593970 1_545
O0 Zr0 2.178491 1_555
O1 Zr0 2.178491 1_555
O2 Pt2 1.977606 1_556
O2 Pt0 1.977612 1_555
O2 Zr0 2.263334 1_556
O3 Pt1 1.971302 1_555
O3 Pt3 1.992941 1_555
O4 Pt1 1.977612 1_655
O4 Pt2 1.977612 1_556
O4 Zr0 2.263328 1_656
O5 Pt1 1.977606 1_655
O5 Pt0 1.977612 1_555
O5 Zr0 2.263334 1_655
O6 Pt2 1.971302 1_556
O6 Pt3 1.992941 1_565
O7 Pt0 1.971301 1_555
O7 Pt3 1.992947 1_565
O8 Pt1 1.971302 1_655
O8 Pt3 1.992941 1_565
O9 Pt2 1.971302 1_555
O9 Pt3 1.992941 1_555
O10 Pt1 1.977606 1_555
O10 Pt0 1.977612 1_555
O10 Zr0 2.263334 1_556
O11 Pt2 1.977606 1_555
O11 Pt0 1.977612 1_555
O11 Zr0 2.263334 1_655
O12 Pt0 1.971301 1_555
O12 Pt3 1.992947 1_555
O13 Pt1 1.977612 1_555
O13 Pt2 1.977612 1_555
O13 Zr0 2.263328 1_555
