# generated using pymatgen
data_Er(MnGe)6
_symmetry_space_group_name_H-M   'P 1'
_cell_length_a   5.14695744
_cell_length_b   5.14692787
_cell_length_c   8.15593321
_cell_angle_alpha   90.00000000
_cell_angle_beta   90.00000000
_cell_angle_gamma   119.99983303
_symmetry_Int_Tables_number   1
_chemical_formula_structural   Er(MnGe)6
_chemical_formula_sum   'Er1 Mn6 Ge6'
_cell_volume   187.11287961
_cell_formula_units_Z   1
loop_
 _symmetry_equiv_pos_site_id
 _symmetry_equiv_pos_as_xyz
  1  'x, y, z'
loop_
 _atom_site_type_symbol
 _atom_site_label
 _atom_site_symmetry_multiplicity
 _atom_site_fract_x
 _atom_site_fract_y
 _atom_site_fract_z
 _atom_site_occupancy
  Er  Er0  1  -0.00000000  0.00000000  -0.00000000  1
  Mn  Mn0  1  0.50000000  0.00000000  0.25131604  1
  Mn  Mn1  1  0.50000000  0.50000000  0.25131704  1
  Mn  Mn2  1  -0.00000000  0.50000000  0.25131711  1
  Mn  Mn3  1  0.50000000  0.00000000  0.74868396  1
  Mn  Mn4  1  0.50000000  0.50000000  0.74868296  1
  Mn  Mn5  1  -0.00000000  0.50000000  0.74868289  1
  Ge  Ge0  1  -0.00000000  0.00000000  0.65706013  1
  Ge  Ge1  1  0.33333879  0.66666940  -0.00000000  1
  Ge  Ge2  1  0.66666121  0.33333060  -0.00000000  1
  Ge  Ge3  1  0.33334345  0.66667222  0.50000000  1
  Ge  Ge4  1  0.66665655  0.33332778  0.50000000  1
  Ge  Ge5  1  -0.00000000  0.00000000  0.34293987  1
loop_
_geom_bond_atom_site_label_1
_geom_bond_atom_site_label_2
_geom_bond_distance
_geom_bond_site_symmetry_2
Er0 Ge5 2.796995 1_555
Er0 Ge0 2.796995 1_554
Er0 Ge1 2.971578 1_445
Er0 Ge2 2.971578 1_555
Er0 Ge1 2.971597 1_555
Er0 Ge2 2.971597 1_445
Er0 Ge2 2.971598 1_455
Er0 Ge1 2.971598 1_545
Ge0 Ge5 2.561944 1_555
Ge0 Mn5 2.679763 1_545
Ge0 Mn5 2.679763 1_555
Ge0 Mn4 2.679776 1_555
Ge0 Mn4 2.679776 1_445
Ge0 Mn3 2.679779 1_555
Ge0 Mn3 2.679779 1_455
Ge1 Mn3 2.531577 1_564
Ge1 Mn0 2.531577 1_565
Ge1 Mn1 2.531584 1_555
Ge1 Mn4 2.531584 1_554
Ge1 Mn5 2.531611 1_554
Ge1 Mn2 2.531611 1_555
Ge2 Mn3 2.531577 1_554
Ge2 Mn0 2.531577 1_555
Ge2 Mn1 2.531584 1_555
Ge2 Mn4 2.531584 1_554
Ge2 Mn2 2.531611 1_655
Ge2 Mn5 2.531611 1_654
Ge3 Mn4 2.514217 1_555
Ge3 Mn1 2.514217 1_555
Ge3 Mn0 2.514220 1_565
Ge3 Mn3 2.514220 1_565
Ge3 Mn5 2.514259 1_555
Ge3 Mn2 2.514259 1_555
Ge4 Mn4 2.514217 1_555
Ge4 Mn1 2.514217 1_555
Ge4 Mn0 2.514220 1_555
Ge4 Mn3 2.514220 1_555
Ge4 Mn5 2.514259 1_655
Ge4 Mn2 2.514259 1_655
Ge5 Mn2 2.679763 1_555
Ge5 Mn2 2.679763 1_545
Ge5 Mn1 2.679776 1_555
Ge5 Mn1 2.679776 1_445
Ge5 Mn0 2.679779 1_555
Ge5 Mn0 2.679779 1_455
