# generated using pymatgen
data_Rb16HfZr3Se16
_symmetry_space_group_name_H-M   'P 1'
_cell_length_a   8.93171710
_cell_length_b   10.47697227
_cell_length_c   15.15442980
_cell_angle_alpha   90.00000000
_cell_angle_beta   89.98492533
_cell_angle_gamma   90.00000000
_symmetry_Int_Tables_number   1
_chemical_formula_structural   Rb16HfZr3Se16
_chemical_formula_sum   'Rb16 Hf1 Zr3 Se16'
_cell_volume   1418.11136843
_cell_formula_units_Z   1
loop_
 _symmetry_equiv_pos_site_id
 _symmetry_equiv_pos_as_xyz
  1  'x, y, z'
loop_
 _atom_site_type_symbol
 _atom_site_label
 _atom_site_symmetry_multiplicity
 _atom_site_fract_x
 _atom_site_fract_y
 _atom_site_fract_z
 _atom_site_occupancy
  Rb  Rb0  1  0.00003191  0.00064587  0.00010583  1
  Rb  Rb1  1  0.50031482  0.99909020  0.50020615  1
  Rb  Rb2  1  0.00003191  0.49935413  0.00010583  1
  Rb  Rb3  1  0.50031482  0.50090980  0.50020615  1
  Rb  Rb4  1  0.98785011  0.75000000  0.42536466  1
  Rb  Rb5  1  0.48839673  0.25000000  0.07486784  1
  Rb  Rb6  1  0.01004756  0.25000000  0.57524888  1
  Rb  Rb7  1  0.51198420  0.75000000  0.92462835  1
  Rb  Rb8  1  0.84113012  0.05540264  0.28191489  1
  Rb  Rb9  1  0.34104555  0.94459563  0.21819783  1
  Rb  Rb10  1  0.15929648  0.55606217  0.71770311  1
  Rb  Rb11  1  0.65887685  0.44485072  0.78185468  1
  Rb  Rb12  1  0.15929648  0.94393783  0.71770311  1
  Rb  Rb13  1  0.65887685  0.05514928  0.78185468  1
  Rb  Rb14  1  0.84113012  0.44459736  0.28191489  1
  Rb  Rb15  1  0.34104555  0.55540437  0.21819783  1
  Hf  Hf0  1  0.75616963  0.75000000  0.66730384  1
  Zr  Zr0  1  0.24422770  0.25000000  0.33335501  1
  Zr  Zr1  1  0.74414732  0.75000000  0.16683392  1
  Zr  Zr2  1  0.25592296  0.25000000  0.83256014  1
  Se  Se0  1  0.97159676  0.25000000  0.82098035  1
  Se  Se1  1  0.52843422  0.25000000  0.32165015  1
  Se  Se2  1  0.47497107  0.75000000  0.67897540  1
  Se  Se3  1  0.02842494  0.75000000  0.17829650  1
  Se  Se4  1  0.65781154  0.55065555  0.08887364  1
  Se  Se5  1  0.15779929  0.44946787  0.41122517  1
  Se  Se6  1  0.34175984  0.05067343  0.91082574  1
  Se  Se7  1  0.84140728  0.94734304  0.58978590  1
  Se  Se8  1  0.34175984  0.44932657  0.91082574  1
  Se  Se9  1  0.84140728  0.55265696  0.58978590  1
  Se  Se10  1  0.65781154  0.94934445  0.08887364  1
  Se  Se11  1  0.15779929  0.05053213  0.41122517  1
  Se  Se12  1  0.62860120  0.75000000  0.32062412  1
  Se  Se13  1  0.12883769  0.25000000  0.17959097  1
  Se  Se14  1  0.37146138  0.25000000  0.67880598  1
  Se  Se15  1  0.86998117  0.75000000  0.81952399  1
loop_
_geom_bond_atom_site_label_1
_geom_bond_atom_site_label_2
_geom_bond_distance
_geom_bond_site_symmetry_2
Rb0 Se6 3.379224 1_554
Rb0 Se10 3.382197 1_445
Rb0 Se3 3.775267 1_545
Rb0 Se0 3.776063 1_454
Rb0 Se13 3.943172 1_555
Rb0 Se15 3.966853 1_444
Rb1 Se7 3.379410 1_555
Rb1 Se11 3.386739 1_565
Rb1 Se2 3.768419 1_555
Rb1 Se1 3.780893 1_565
Rb1 Se12 3.940585 1_555
Rb1 Se14 3.944479 1_565
Rb2 Se8 3.379224 1_554
Rb2 Se4 3.382197 1_455
Rb2 Se3 3.775267 1_555
Rb2 Se0 3.776063 1_454
Rb2 Se13 3.943172 1_555
Rb2 Se15 3.966853 1_454
Rb3 Se9 3.379410 1_555
Rb3 Se5 3.386739 1_555
Rb3 Se2 3.768419 1_555
Rb3 Se1 3.780893 1_555
Rb3 Se12 3.940585 1_555
Rb3 Se14 3.944479 1_555
Rb4 Se7 3.491780 1_555
Rb4 Se9 3.491780 1_555
Rb4 Se11 3.501997 1_665
Rb4 Se5 3.501997 1_655
Rb4 Se12 3.580219 1_555
Rb4 Se3 3.761580 1_655
Rb5 Se4 3.501019 1_555
Rb5 Se10 3.501019 1_545
Rb5 Se8 3.501179 1_554
Rb5 Se6 3.501179 1_554
Rb5 Se13 3.581836 1_555
Rb5 Se1 3.756997 1_555
Rb6 Se5 3.505110 1_555
Rb6 Se11 3.505110 1_555
Rb6 Se9 3.517375 1_455
Rb6 Se7 3.517375 1_445
Rb6 Se14 3.589680 1_555
Rb6 Se0 3.739633 1_455
Rb7 Se10 3.500780 1_556
Rb7 Se4 3.500780 1_556
Rb7 Se6 3.504133 1_565
Rb7 Se8 3.504133 1_555
Rb7 Se15 3.571905 1_555
Rb7 Se2 3.737467 1_555
Rb8 Se11 3.441728 1_655
Rb8 Se1 3.509806 1_555
Rb8 Se10 3.532177 1_545
Rb8 Se13 3.628029 1_655
Rb8 Se12 3.766288 1_545
Rb8 Se3 3.937120 1_645
Rb9 Se10 3.441692 1_555
Rb9 Se3 3.509946 1_555
Rb9 Se11 3.530588 1_565
Rb9 Se12 3.628300 1_555
Rb9 Se13 3.764773 1_565
Rb9 Se1 3.936839 1_565
Rb10 Se9 3.438547 1_455
Rb10 Se2 3.524456 1_555
Rb10 Se8 3.531904 1_555
Rb10 Se15 3.631100 1_455
Rb10 Se14 3.770969 1_555
Rb10 Se0 3.942218 1_455
Rb11 Se8 3.441188 1_555
Rb11 Se0 3.510197 1_555
Rb11 Se9 3.521829 1_555
Rb11 Se14 3.632962 1_555
Rb11 Se15 3.755358 1_555
Rb11 Se2 3.918067 1_555
Rb12 Se7 3.438547 1_455
Rb12 Se2 3.524456 1_555
Rb12 Se6 3.531904 1_565
Rb12 Se15 3.631100 1_455
Rb12 Se14 3.770969 1_565
Rb12 Se0 3.942218 1_465
Rb13 Se6 3.441188 1_555
Rb13 Se0 3.510197 1_555
Rb13 Se7 3.521829 1_545
Rb13 Se14 3.632962 1_555
Rb13 Se15 3.755358 1_545
Rb13 Se2 3.918067 1_545
Rb14 Se5 3.441728 1_655
Rb14 Se1 3.509806 1_555
Rb14 Se4 3.532177 1_555
Rb14 Se13 3.628029 1_655
Rb14 Se12 3.766288 1_555
Rb14 Se3 3.937120 1_655
Rb15 Se4 3.441692 1_555
Rb15 Se3 3.509946 1_555
Rb15 Se5 3.530588 1_555
Rb15 Se12 3.628300 1_555
Rb15 Se13 3.764773 1_555
Rb15 Se1 3.936839 1_555
Hf0 Se7 2.496787 1_555
Hf0 Se9 2.496787 1_555
Hf0 Se2 2.517760 1_555
Hf0 Se15 2.521099 1_555
Se0 Zr2 2.545623 1_655
Se1 Zr0 2.544596 1_555
Se3 Zr1 2.545068 1_455
Se4 Zr1 2.520489 1_555
Se5 Zr0 2.520984 1_555
Se6 Zr2 2.521148 1_555
Se8 Zr2 2.521148 1_555
Se10 Zr1 2.520489 1_555
Se11 Zr0 2.520984 1_555
Se12 Zr1 2.548631 1_555
Se13 Zr0 2.548200 1_555
Se14 Zr2 2.548104 1_555
