# generated using pymatgen
data_Sc4AlGaNi6
_symmetry_space_group_name_H-M   'P 1'
_cell_length_a   5.01978206
_cell_length_b   5.01978192
_cell_length_c   7.84003968
_cell_angle_alpha   90.00000000
_cell_angle_beta   90.00000000
_cell_angle_gamma   120.00000091
_symmetry_Int_Tables_number   1
_chemical_formula_structural   Sc4AlGaNi6
_chemical_formula_sum   'Sc4 Al1 Ga1 Ni6'
_cell_volume   171.08762629
_cell_formula_units_Z   1
loop_
 _symmetry_equiv_pos_site_id
 _symmetry_equiv_pos_as_xyz
  1  'x, y, z'
loop_
 _atom_site_type_symbol
 _atom_site_label
 _atom_site_symmetry_multiplicity
 _atom_site_fract_x
 _atom_site_fract_y
 _atom_site_fract_z
 _atom_site_occupancy
  Sc  Sc0  1  0.33333300  0.66666700  0.44063698  1
  Sc  Sc1  1  0.66666700  0.33333300  0.55936302  1
  Sc  Sc2  1  0.66666700  0.33333300  0.94066527  1
  Sc  Sc3  1  0.33333300  0.66666700  0.05933473  1
  Al  Al0  1  0.00000000  0.00000000  0.50000000  1
  Ga  Ga0  1  0.00000000  0.00000000  0.00000000  1
  Ni  Ni0  1  0.82933704  0.17066296  0.25131852  1
  Ni  Ni1  1  0.82933704  0.65867409  0.25131852  1
  Ni  Ni2  1  0.34132591  0.17066296  0.25131852  1
  Ni  Ni3  1  0.17066296  0.82933704  0.74868148  1
  Ni  Ni4  1  0.17066296  0.34132591  0.74868148  1
  Ni  Ni5  1  0.65867409  0.82933704  0.74868148  1
loop_
_geom_bond_atom_site_label_1
_geom_bond_atom_site_label_2
_geom_bond_distance
_geom_bond_site_symmetry_2
Sc0 Sc3 2.989425 1_555
Sc0 Sc1 3.043979 1_565
Sc0 Sc1 3.043979 1_455
Sc0 Sc1 3.043987 1_555
Sc1 Sc2 2.989425 1_555
Sc2 Sc3 3.043843 1_546
Sc2 Sc3 3.043843 1_656
Sc2 Sc3 3.043851 1_556
Al0 Ni4 2.450098 1_555
Al0 Ni1 2.450098 1_445
Al0 Ni3 2.450098 1_545
Al0 Ni0 2.450098 1_455
Al0 Ni5 2.450098 1_445
Al0 Ni2 2.450098 1_555
Al0 Sc1 2.935301 1_455
Al0 Sc0 2.935301 1_545
Al0 Sc0 2.935305 1_555
Al0 Sc1 2.935305 1_445
Al0 Sc1 2.935305 1_555
Al0 Sc0 2.935305 1_445
Ga0 Ni1 2.466582 1_445
Ga0 Ni4 2.466582 1_554
Ga0 Ni0 2.466582 1_455
Ga0 Ni3 2.466582 1_544
Ga0 Ni2 2.466582 1_555
Ga0 Ni5 2.466582 1_444
Ga0 Sc3 2.935266 1_545
Ga0 Sc2 2.935266 1_454
Ga0 Sc3 2.935270 1_555
Ga0 Sc2 2.935270 1_444
Ga0 Sc2 2.935270 1_554
Ga0 Sc3 2.935270 1_445
Ni0 Ni1 2.449709 1_555
Ni0 Ni2 2.449710 1_555
Ni0 Ni1 2.570072 1_545
Ni0 Ni2 2.570073 1_655
Ni0 Sc1 2.798744 1_555
Ni0 Sc2 2.816412 1_554
Ni0 Sc0 2.916128 1_545
Ni0 Sc0 2.916128 1_655
Ni0 Sc3 2.926819 1_545
Ni0 Sc3 2.926819 1_655
Ni1 Ni2 2.449709 1_555
Ni1 Ni2 2.570072 1_665
Ni1 Sc1 2.798746 1_555
Ni1 Sc2 2.816414 1_554
Ni1 Sc0 2.916126 1_655
Ni1 Sc0 2.916130 1_555
Ni1 Sc3 2.926817 1_655
Ni1 Sc3 2.926821 1_555
Ni2 Sc1 2.798746 1_555
Ni2 Sc2 2.816414 1_554
Ni2 Sc0 2.916125 1_545
Ni2 Sc0 2.916130 1_555
Ni2 Sc3 2.926817 1_545
Ni2 Sc3 2.926821 1_555
Ni3 Ni4 2.449709 1_555
Ni3 Ni5 2.449710 1_555
Ni3 Ni4 2.570072 1_565
Ni3 Ni5 2.570073 1_455
Ni3 Sc0 2.798744 1_555
Ni3 Sc3 2.816412 1_556
Ni3 Sc1 2.916128 1_565
Ni3 Sc1 2.916128 1_455
Ni3 Sc2 2.926819 1_565
Ni3 Sc2 2.926819 1_455
Ni4 Ni5 2.449709 1_555
Ni4 Ni5 2.570072 1_445
Ni4 Sc0 2.798746 1_555
Ni4 Sc3 2.816414 1_556
Ni4 Sc1 2.916126 1_455
Ni4 Sc1 2.916130 1_555
Ni4 Sc2 2.926817 1_455
Ni4 Sc2 2.926821 1_555
Ni5 Sc0 2.798746 1_555
Ni5 Sc3 2.816414 1_556
Ni5 Sc1 2.916125 1_565
Ni5 Sc1 2.916130 1_555
Ni5 Sc2 2.926817 1_565
Ni5 Sc2 2.926821 1_555
