# generated using pymatgen
data_BaNiB2Ru
_symmetry_space_group_name_H-M   'P 1'
_cell_length_a   6.40874770
_cell_length_b   6.40874910
_cell_length_c   6.40874972
_cell_angle_alpha   145.78949322
_cell_angle_beta   145.78950840
_cell_angle_gamma   49.15954292
_symmetry_Int_Tables_number   1
_chemical_formula_structural   BaNiB2Ru
_chemical_formula_sum   'Ba1 Ni1 B2 Ru1'
_cell_volume   82.83216683
_cell_formula_units_Z   1
loop_
 _symmetry_equiv_pos_site_id
 _symmetry_equiv_pos_as_xyz
  1  'x, y, z'
loop_
 _atom_site_type_symbol
 _atom_site_label
 _atom_site_symmetry_multiplicity
 _atom_site_fract_x
 _atom_site_fract_y
 _atom_site_fract_z
 _atom_site_occupancy
  Ba  Ba0  1  0.00000000  0.00000000  0.00000000  1
  Ni  Ni0  1  0.75000000  0.25000000  0.50000000  1
  B  B0  1  0.68169765  0.68169765  0.00000000  1
  B  B1  1  0.31830235  0.31830235  1.00000000  1
  Ru  Ru0  1  0.25000000  0.75000000  0.50000000  1
loop_
_geom_bond_atom_site_label_1
_geom_bond_atom_site_label_2
_geom_bond_distance
_geom_bond_site_symmetry_2
Ba0 Ni0 3.470533 1_555
Ba0 Ru0 3.470533 1_444
Ba0 Ru0 3.470535 1_555
Ba0 Ni0 3.470535 1_444
Ba0 Ru0 3.470535 1_544
Ba0 Ni0 3.470535 1_455
Ba0 Ni0 3.470535 1_454
Ba0 Ru0 3.470535 1_545
B0 Ru0 2.046221 1_655
B0 Ru0 2.046222 1_554
B0 Ni0 2.046222 1_565
B0 Ni0 2.046222 1_554
B0 Ba0 3.404667 1_554
B0 Ba0 3.404668 1_565
B0 Ba0 3.404669 1_655
B0 Ba0 3.404669 1_666
B1 Ni0 2.046221 1_455
B1 Ni0 2.046222 1_556
B1 Ru0 2.046222 1_545
B1 Ru0 2.046222 1_556
B1 Ba0 3.404667 1_667
B1 Ba0 3.404668 1_656
B1 Ba0 3.404669 1_566
B1 Ba0 3.404669 1_555
