# generated using pymatgen
data_Hf16Ta3NbNi4
_symmetry_space_group_name_H-M   'P 1'
_cell_length_a   8.72218136
_cell_length_b   8.72218062
_cell_length_c   8.72218123
_cell_angle_alpha   60.14422192
_cell_angle_beta   60.14422766
_cell_angle_gamma   60.14422650
_symmetry_Int_Tables_number   1
_chemical_formula_structural   Hf16Ta3NbNi4
_chemical_formula_sum   'Hf16 Ta3 Nb1 Ni4'
_cell_volume   470.73534537
_cell_formula_units_Z   1
loop_
 _symmetry_equiv_pos_site_id
 _symmetry_equiv_pos_as_xyz
  1  'x, y, z'
loop_
 _atom_site_type_symbol
 _atom_site_label
 _atom_site_symmetry_multiplicity
 _atom_site_fract_x
 _atom_site_fract_y
 _atom_site_fract_z
 _atom_site_occupancy
  Hf  Hf0  1  0.69477375  0.10136985  0.10136985  1
  Hf  Hf1  1  0.10136985  0.69477375  0.10136985  1
  Hf  Hf2  1  0.10136985  0.10136985  0.69477375  1
  Hf  Hf3  1  0.10189497  0.10189497  0.10189497  1
  Hf  Hf4  1  0.31406846  0.31406846  0.68683765  1
  Hf  Hf5  1  0.68561259  0.68561259  0.31416342  1
  Hf  Hf6  1  0.31406846  0.68683765  0.31406846  1
  Hf  Hf7  1  0.68561259  0.31416342  0.68561259  1
  Hf  Hf8  1  0.68683765  0.31406846  0.31406846  1
  Hf  Hf9  1  0.31416342  0.68561259  0.68561259  1
  Hf  Hf10  1  0.94866442  0.94866442  0.55133167  1
  Hf  Hf11  1  0.55314326  0.55314326  0.94617580  1
  Hf  Hf12  1  0.94866442  0.55133167  0.94866442  1
  Hf  Hf13  1  0.55314326  0.94617580  0.55314326  1
  Hf  Hf14  1  0.55133167  0.94866442  0.94866442  1
  Hf  Hf15  1  0.94617580  0.55314326  0.55314326  1
  Ta  Ta0  1  0.99809604  0.33349476  0.33349476  1
  Ta  Ta1  1  0.33349476  0.99809604  0.33349476  1
  Ta  Ta2  1  0.33349476  0.33349476  0.99809604  1
  Nb  Nb0  1  0.33466270  0.33466270  0.33466270  1
  Ni  Ni0  1  0.32183664  0.89232676  0.89232676  1
  Ni  Ni1  1  0.89232676  0.32183664  0.89232676  1
  Ni  Ni2  1  0.89232676  0.89232676  0.32183664  1
  Ni  Ni3  1  0.89287117  0.89287117  0.89287117  1
loop_
_geom_bond_atom_site_label_1
_geom_bond_atom_site_label_2
_geom_bond_distance
_geom_bond_site_symmetry_2
Hf0 Ni3 2.575959 1_544
Hf0 Ni1 2.582896 1_554
Hf0 Ni2 2.582896 1_545
Hf0 Ta2 3.081956 1_554
Hf0 Ta1 3.081956 1_545
Hf0 Nb0 3.089051 1_555
Hf0 Hf5 3.168757 1_545
Hf0 Hf7 3.168757 1_554
Hf0 Hf8 3.171642 1_555
Hf1 Ni3 2.575959 1_454
Hf1 Ni0 2.582896 1_554
Hf1 Ni2 2.582897 1_455
Hf1 Ta0 3.081956 1_455
Hf1 Ta2 3.081956 1_554
Hf1 Nb0 3.089051 1_555
Hf1 Hf9 3.168757 1_554
Hf1 Hf5 3.168757 1_455
Hf1 Hf6 3.171642 1_555
Hf2 Ni3 2.575959 1_445
Hf2 Ni0 2.582897 1_545
Hf2 Ni1 2.582897 1_455
Hf2 Ta0 3.081956 1_455
Hf2 Ta1 3.081956 1_545
Hf2 Nb0 3.089051 1_555
Hf2 Hf9 3.168757 1_545
Hf2 Hf7 3.168757 1_455
Hf2 Hf4 3.171642 1_555
Hf3 Ni2 2.589707 1_445
Hf3 Ni1 2.589707 1_454
Hf3 Ni0 2.589708 1_544
Hf3 Ta2 3.066262 1_554
Hf3 Ta0 3.066262 1_455
Hf3 Ta1 3.066262 1_545
Hf3 Hf6 3.166152 1_545
Hf3 Hf4 3.166153 1_554
Hf3 Hf8 3.166153 1_455
Hf4 Ta2 2.893513 1_555
Hf4 Nb0 2.904047 1_555
Hf4 Ni0 3.171258 1_545
Hf4 Ni1 3.171259 1_455
Hf4 Hf9 3.235781 1_555
Hf4 Hf7 3.235781 1_555
Hf4 Hf6 3.258445 1_555
Hf4 Hf8 3.258446 1_555
Hf5 Ta0 2.914994 1_555
Hf5 Ta1 2.914994 1_555
Hf5 Ni2 3.159587 1_555
Hf5 Ni3 3.172491 1_554
Hf5 Hf8 3.235781 1_555
Hf5 Hf6 3.235781 1_555
Hf5 Hf7 3.246907 1_555
Hf5 Hf9 3.246907 1_555
Hf6 Ta1 2.893513 1_555
Hf6 Nb0 2.904047 1_555
Hf6 Ni0 3.171258 1_554
Hf6 Ni2 3.171259 1_455
Hf6 Hf9 3.235781 1_555
Hf6 Hf8 3.258446 1_555
Hf7 Ta0 2.914994 1_555
Hf7 Ta2 2.914994 1_555
Hf7 Ni1 3.159587 1_555
Hf7 Ni3 3.172491 1_545
Hf7 Hf8 3.235781 1_555
Hf7 Hf9 3.246907 1_555
Hf8 Ta0 2.893513 1_555
Hf8 Nb0 2.904047 1_555
Hf8 Ni2 3.171258 1_545
Hf8 Ni1 3.171259 1_554
Hf9 Ta2 2.914994 1_555
Hf9 Ta1 2.914994 1_555
Hf9 Ni0 3.159587 1_555
Hf9 Ni3 3.172491 1_455
Hf10 Ni2 2.586263 1_555
Hf10 Ni3 2.587849 1_555
Hf10 Ta0 3.055815 1_565
Hf10 Ta1 3.055815 1_655
Hf10 Hf8 3.247700 1_565
Hf10 Hf6 3.247701 1_655
Hf10 Hf7 3.249386 1_565
Hf10 Hf9 3.249386 1_655
Hf11 Ni0 2.580809 1_555
Hf11 Ni1 2.580810 1_555
Hf11 Ta2 3.077740 1_555
Hf11 Nb0 3.082548 1_556
Hf11 Hf9 3.247943 1_555
Hf11 Hf7 3.247943 1_555
Hf11 Hf8 3.262993 1_556
Hf11 Hf6 3.262993 1_556
Hf12 Ni1 2.586263 1_555
Hf12 Ni3 2.587849 1_555
Hf12 Ta0 3.055815 1_556
Hf12 Ta2 3.055815 1_655
Hf12 Hf8 3.247701 1_556
Hf12 Hf4 3.247701 1_655
Hf12 Hf9 3.249386 1_655
Hf12 Hf5 3.249386 1_556
Hf13 Ni0 2.580810 1_555
Hf13 Ni2 2.580810 1_555
Hf13 Ta1 3.077740 1_555
Hf13 Nb0 3.082548 1_565
Hf13 Hf9 3.247943 1_555
Hf13 Hf5 3.247943 1_555
Hf13 Hf8 3.262992 1_565
Hf13 Hf4 3.262993 1_565
Hf14 Ni0 2.586263 1_555
Hf14 Ni3 2.587849 1_555
Hf14 Ta2 3.055815 1_565
Hf14 Ta1 3.055815 1_556
Hf14 Hf4 3.247700 1_565
Hf14 Hf6 3.247700 1_556
Hf14 Hf7 3.249386 1_565
Hf14 Hf5 3.249386 1_556
Hf15 Ni2 2.580809 1_555
Hf15 Ni1 2.580809 1_555
Hf15 Ta0 3.077740 1_555
Hf15 Nb0 3.082548 1_655
Hf15 Hf7 3.247943 1_555
Hf15 Hf5 3.247943 1_555
Hf15 Hf4 3.262993 1_655
Hf15 Hf6 3.262993 1_655
Ta0 Ta1 2.931783 1_645
Ta0 Ta2 2.931784 1_654
Ta1 Ta2 2.931783 1_564
Nb0 Ta1 2.945773 1_545
Nb0 Ta2 2.945773 1_554
Nb0 Ta0 2.945773 1_455
