# generated using pymatgen
data_ScTi2(Nb2Sn3)2
_symmetry_space_group_name_H-M   'P 1'
_cell_length_a   5.71822449
_cell_length_b   5.72495793
_cell_length_c   9.65791213
_cell_angle_alpha   90.00000000
_cell_angle_beta   90.00000000
_cell_angle_gamma   119.96109499
_symmetry_Int_Tables_number   1
_chemical_formula_structural   ScTi2(Nb2Sn3)2
_chemical_formula_sum   'Sc1 Ti2 Nb4 Sn6'
_cell_volume   273.91606661
_cell_formula_units_Z   1
loop_
 _symmetry_equiv_pos_site_id
 _symmetry_equiv_pos_as_xyz
  1  'x, y, z'
loop_
 _atom_site_type_symbol
 _atom_site_label
 _atom_site_symmetry_multiplicity
 _atom_site_fract_x
 _atom_site_fract_y
 _atom_site_fract_z
 _atom_site_occupancy
  Sc  Sc0  1  0.00000000  0.00000000  0.00000000  1
  Ti  Ti0  1  0.50000000  0.00000000  0.75079723  1
  Ti  Ti1  1  0.50000000  0.00000000  0.24920277  1
  Nb  Nb0  1  0.00000000  0.50000000  0.75157342  1
  Nb  Nb1  1  0.50000000  0.50000000  0.75157342  1
  Nb  Nb2  1  0.00000000  0.50000000  0.24842658  1
  Nb  Nb3  1  0.50000000  0.50000000  0.24842658  1
  Sn  Sn0  1  0.66262417  0.32524933  0.50000000  1
  Sn  Sn1  1  0.33737583  0.67475067  0.50000000  1
  Sn  Sn2  1  0.66360367  0.32720534  0.00000000  1
  Sn  Sn3  1  0.33639633  0.67279466  0.00000000  1
  Sn  Sn4  1  0.00000000  0.00000000  0.69525785  1
  Sn  Sn5  1  0.00000000  0.00000000  0.30474215  1
loop_
_geom_bond_atom_site_label_1
_geom_bond_atom_site_label_2
_geom_bond_distance
_geom_bond_site_symmetry_2
Sc0 Sn5 2.943173 1_555
Sc0 Sn4 2.943173 1_554
Sc0 Sn3 3.287600 1_545
Sc0 Sn2 3.287600 1_455
Sc0 Sn2 3.287610 1_555
Sc0 Sn3 3.287610 1_445
Sc0 Sn3 3.336995 1_555
Sc0 Sn2 3.336995 1_445
Nb0 Nb1 2.859112 1_555
Nb0 Nb1 2.859112 1_455
Nb0 Ti0 2.862489 1_565
Nb0 Ti0 2.862489 1_455
Nb0 Sn4 2.913692 1_565
Nb0 Sn4 2.913692 1_555
Nb0 Sn3 2.921420 1_556
Nb0 Sn2 2.921420 1_456
Nb0 Sn1 2.949272 1_555
Nb0 Sn0 2.949272 1_455
Nb1 Ti0 2.862489 1_555
Nb1 Ti0 2.862489 1_565
Nb1 Sn4 2.913693 1_665
Nb1 Sn4 2.913693 1_555
Nb1 Sn2 2.921425 1_556
Nb1 Sn3 2.921425 1_556
Nb1 Sn0 2.949269 1_555
Nb1 Sn1 2.949269 1_555
Nb2 Nb3 2.859112 1_455
Nb2 Nb3 2.859112 1_555
Nb2 Ti1 2.862489 1_455
Nb2 Ti1 2.862489 1_565
Nb2 Sn5 2.913692 1_555
Nb2 Sn5 2.913692 1_565
Nb2 Sn3 2.921420 1_555
Nb2 Sn2 2.921420 1_455
Nb2 Sn1 2.949272 1_555
Nb2 Sn0 2.949272 1_455
Nb3 Ti1 2.862489 1_555
Nb3 Ti1 2.862489 1_565
Nb3 Sn5 2.913693 1_665
Nb3 Sn5 2.913693 1_555
Nb3 Sn3 2.921425 1_555
Nb3 Sn2 2.921425 1_555
Nb3 Sn0 2.949269 1_555
Nb3 Sn1 2.949269 1_555
Sn0 Ti0 2.910219 1_555
Sn0 Ti1 2.910219 1_555
Sn1 Ti0 2.910219 1_565
Sn1 Ti1 2.910219 1_565
Sn2 Ti1 2.902827 1_555
Sn2 Ti0 2.902827 1_554
Sn3 Ti1 2.902827 1_565
Sn3 Ti0 2.902827 1_564
Sn4 Ti0 2.908993 1_555
Sn4 Ti0 2.908993 1_455
Sn5 Ti1 2.908993 1_555
Sn5 Ti1 2.908993 1_455
