# generated using pymatgen
data_Zr2VIr3
_symmetry_space_group_name_H-M   'P 1'
_cell_length_a   5.05033128
_cell_length_b   5.05033049
_cell_length_c   5.05033135
_cell_angle_alpha   64.19221023
_cell_angle_beta   64.19221969
_cell_angle_gamma   64.19220726
_symmetry_Int_Tables_number   1
_chemical_formula_structural   Zr2VIr3
_chemical_formula_sum   'Zr2 V1 Ir3'
_cell_volume   99.48075757
_cell_formula_units_Z   1
loop_
 _symmetry_equiv_pos_site_id
 _symmetry_equiv_pos_as_xyz
  1  'x, y, z'
loop_
 _atom_site_type_symbol
 _atom_site_label
 _atom_site_symmetry_multiplicity
 _atom_site_fract_x
 _atom_site_fract_y
 _atom_site_fract_z
 _atom_site_occupancy
  Zr  Zr0  1  0.62766298  0.62766298  0.62766298  1
  Zr  Zr1  1  0.37233702  0.37233702  0.37233702  1
  V  V0  1  0.00000000  0.00000000  0.00000000  1
  Ir  Ir0  1  0.00000000  0.50000000  0.00000000  1
  Ir  Ir1  1  0.50000000  0.00000000  0.00000000  1
  Ir  Ir2  1  0.00000000  0.00000000  0.50000000  1
loop_
_geom_bond_atom_site_label_1
_geom_bond_atom_site_label_2
_geom_bond_distance
_geom_bond_site_symmetry_2
Zr0 Zr1 3.054769 1_555
Zr0 Zr1 3.236082 1_565
Zr0 Zr1 3.236083 1_655
Zr0 Zr1 3.236083 1_556
V0 Zr1 3.133520 1_545
V0 Zr0 3.133520 1_454
V0 Zr1 3.133521 1_455
V0 Zr0 3.133521 1_544
V0 Zr1 3.133521 1_554
V0 Zr0 3.133521 1_445
Ir0 V0 2.525165 1_565
Ir0 V0 2.525165 1_555
Ir0 Ir1 2.683448 1_555
Ir0 Ir1 2.683448 1_465
Ir0 Ir2 2.683448 1_555
Ir0 Ir2 2.683448 1_564
Ir0 Zr1 2.907790 1_555
Ir0 Zr0 2.907790 1_454
Ir0 Zr0 3.087685 1_455
Ir0 Zr1 3.087685 1_554
Ir0 Zr0 3.087685 1_554
Ir0 Zr1 3.087685 1_455
Ir1 V0 2.525166 1_555
Ir1 V0 2.525166 1_655
Ir1 Ir2 2.683448 1_555
Ir1 Ir2 2.683448 1_654
Ir1 Zr1 2.907790 1_555
Ir1 Zr0 2.907790 1_544
Ir1 Zr0 3.087684 1_554
Ir1 Zr1 3.087684 1_545
Ir1 Zr0 3.087685 1_545
Ir1 Zr1 3.087685 1_554
Ir2 V0 2.525166 1_555
Ir2 V0 2.525166 1_556
Ir2 Zr1 2.907790 1_555
Ir2 Zr0 2.907790 1_445
Ir2 Zr0 3.087684 1_455
Ir2 Zr1 3.087684 1_545
Ir2 Zr0 3.087684 1_545
Ir2 Zr1 3.087684 1_455
