# generated using pymatgen
data_Ba3Sr2Bi3H
_symmetry_space_group_name_H-M   'P 1'
_cell_length_a   10.01941940
_cell_length_b   10.01942018
_cell_length_c   7.61508015
_cell_angle_alpha   90.00000000
_cell_angle_beta   90.00000000
_cell_angle_gamma   120.00000067
_symmetry_Int_Tables_number   1
_chemical_formula_structural   Ba3Sr2Bi3H
_chemical_formula_sum   'Ba6 Sr4 Bi6 H2'
_cell_volume   662.04918196
_cell_formula_units_Z   2
loop_
 _symmetry_equiv_pos_site_id
 _symmetry_equiv_pos_as_xyz
  1  'x, y, z'
loop_
 _atom_site_type_symbol
 _atom_site_label
 _atom_site_symmetry_multiplicity
 _atom_site_fract_x
 _atom_site_fract_y
 _atom_site_fract_z
 _atom_site_occupancy
  Ba  Ba0  1  0.75538129  0.75538129  0.25000000  1
  Ba  Ba1  1  0.75538129  1.00000000  0.75000000  1
  Ba  Ba2  1  1.00000000  0.24461871  0.25000000  1
  Ba  Ba3  1  0.00000000  0.75538129  0.75000000  1
  Ba  Ba4  1  0.24461871  0.24461871  0.75000000  1
  Ba  Ba5  1  0.24461871  0.00000000  0.25000000  1
  Sr  Sr0  1  0.33333300  0.66666700  0.50000000  1
  Sr  Sr1  1  0.66666700  0.33333300  0.00000000  1
  Sr  Sr2  1  0.66666700  0.33333300  0.50000000  1
  Sr  Sr3  1  0.33333300  0.66666700  0.00000000  1
  Bi  Bi0  1  0.39784620  0.00000000  0.75000000  1
  Bi  Bi1  1  0.39784620  0.39784620  0.25000000  1
  Bi  Bi2  1  0.00000000  0.60215380  0.25000000  1
  Bi  Bi3  1  0.00000000  0.39784620  0.75000000  1
  Bi  Bi4  1  0.60215380  0.60215380  0.75000000  1
  Bi  Bi5  1  0.60215380  0.00000000  0.25000000  1
  H  H0  1  0.00000000  0.00000000  0.50000000  1
  H  H1  1  0.00000000  0.00000000  0.00000000  1
loop_
_geom_bond_atom_site_label_1
_geom_bond_atom_site_label_2
_geom_bond_distance
_geom_bond_site_symmetry_2
Ba0 H0 3.103455 1_665
Ba0 H1 3.103455 1_665
Ba0 Bi2 3.482369 1_655
Ba0 Bi5 3.482369 1_565
Ba0 Bi1 3.582294 1_555
Ba0 Bi4 4.105406 1_555
Ba0 Bi4 4.105406 1_554
Ba1 H1 3.103455 1_666
Ba1 H0 3.103455 1_665
Ba1 Bi3 3.482369 1_665
Ba1 Bi4 3.482369 1_555
Ba1 Bi0 3.582294 1_565
Ba1 Bi5 4.105406 1_565
Ba1 Bi5 4.105406 1_566
Ba2 H1 3.103455 1_655
Ba2 H0 3.103455 1_655
Ba2 Bi1 3.482369 1_655
Ba2 Bi5 3.482369 1_555
Ba2 Bi2 3.582294 1_655
Ba2 Bi3 4.105406 1_654
Ba2 Bi3 4.105406 1_655
Ba3 H1 3.103455 1_566
Ba3 H0 3.103455 1_565
Ba3 Bi4 3.482369 1_455
Ba3 Bi0 3.482369 1_565
Ba3 Bi3 3.582294 1_555
Ba3 Bi2 4.105406 1_555
Ba3 Bi2 4.105406 1_556
Ba4 H0 3.103455 1_555
Ba4 H1 3.103455 1_556
Ba4 Bi3 3.482369 1_555
Ba4 Bi0 3.482369 1_555
Ba4 Bi4 3.582294 1_555
Ba4 Bi1 4.105406 1_555
Ba4 Bi1 4.105406 1_556
Ba5 H1 3.103455 1_555
Ba5 H0 3.103455 1_555
Ba5 Bi2 3.482369 1_545
Ba5 Bi1 3.482369 1_555
Ba5 Bi5 3.582294 1_555
Ba5 Bi0 4.105406 1_555
Ba5 Bi0 4.105406 1_554
Bi0 Sr0 3.610768 1_545
Bi0 Sr3 3.610768 1_546
Bi0 Sr1 3.610770 1_556
Bi0 Sr2 3.610770 1_555
Bi1 Sr1 3.610776 1_555
Bi1 Sr2 3.610776 1_555
Bi1 Sr0 3.610776 1_555
Bi1 Sr3 3.610776 1_555
Bi2 Sr0 3.610767 1_555
Bi2 Sr3 3.610767 1_555
Bi2 Sr2 3.610770 1_455
Bi2 Sr1 3.610770 1_455
Bi3 Sr1 3.610767 1_456
Bi3 Sr2 3.610767 1_455
Bi3 Sr0 3.610770 1_555
Bi3 Sr3 3.610770 1_556
Bi4 Sr3 3.610776 1_556
Bi4 Sr0 3.610776 1_555
Bi4 Sr1 3.610776 1_556
Bi4 Sr2 3.610776 1_555
Bi5 Sr1 3.610768 1_555
Bi5 Sr2 3.610768 1_555
Bi5 Sr0 3.610770 1_545
Bi5 Sr3 3.610770 1_545
