# generated using pymatgen
data_NaIn2(Ni10P3)2
_symmetry_space_group_name_H-M   'P 1'
_cell_length_a   7.82112612
_cell_length_b   7.82112597
_cell_length_c   7.82112533
_cell_angle_alpha   59.99999447
_cell_angle_beta   59.99999509
_cell_angle_gamma   59.99999848
_symmetry_Int_Tables_number   1
_chemical_formula_structural   NaIn2(Ni10P3)2
_chemical_formula_sum   'Na1 In2 Ni20 P6'
_cell_volume   338.29281821
_cell_formula_units_Z   1
loop_
 _symmetry_equiv_pos_site_id
 _symmetry_equiv_pos_as_xyz
  1  'x, y, z'
loop_
 _atom_site_type_symbol
 _atom_site_label
 _atom_site_symmetry_multiplicity
 _atom_site_fract_x
 _atom_site_fract_y
 _atom_site_fract_z
 _atom_site_occupancy
  Na  Na0  1  0.00000000  0.00000000  0.00000000  1
  In  In0  1  0.75000000  0.75000000  0.75000000  1
  In  In1  1  0.25000000  0.25000000  0.25000000  1
  Ni  Ni0  1  0.38481526  0.84555223  0.38481526  1
  Ni  Ni1  1  0.38481526  0.38481526  0.84555223  1
  Ni  Ni2  1  0.35140754  0.00000000  0.64859246  1
  Ni  Ni3  1  0.00000000  0.35140754  0.64859246  1
  Ni  Ni4  1  0.15444777  0.61518474  0.61518474  1
  Ni  Ni5  1  0.64859246  0.00000000  0.00000000  1
  Ni  Ni6  1  0.84555223  0.38481526  0.38481526  1
  Ni  Ni7  1  0.64859246  0.35140754  1.00000000  1
  Ni  Ni8  1  1.00000000  0.35140754  1.00000000  1
  Ni  Ni9  1  0.35140754  0.64859246  0.00000000  1
  Ni  Ni10  1  1.00000000  1.00000000  0.35140754  1
  Ni  Ni11  1  0.61518474  0.15444777  0.61518474  1
  Ni  Ni12  1  0.64859246  1.00000000  0.35140754  1
  Ni  Ni13  1  0.00000000  0.64859246  0.00000000  1
  Ni  Ni14  1  0.61518474  0.61518474  0.15444777  1
  Ni  Ni15  1  1.00000000  0.64859246  0.35140754  1
  Ni  Ni16  1  0.35140754  1.00000000  1.00000000  1
  Ni  Ni17  1  0.00000000  0.00000000  0.64859246  1
  Ni  Ni18  1  0.38481526  0.38481526  0.38481526  1
  Ni  Ni19  1  0.61518474  0.61518474  0.61518474  1
  P  P0  1  0.26258927  0.26258927  0.73741073  1
  P  P1  1  0.26258927  0.73741073  0.26258927  1
  P  P2  1  0.73741073  0.26258927  0.26258927  1
  P  P3  1  0.26258927  0.73741073  0.73741073  1
  P  P4  1  0.73741073  0.26258927  0.73741073  1
  P  P5  1  0.73741073  0.73741073  0.26258927  1
loop_
_geom_bond_atom_site_label_1
_geom_bond_atom_site_label_2
_geom_bond_distance
_geom_bond_site_symmetry_2
Na0 Ni15 2.748402 1_445
Na0 Ni3 2.748402 1_554
Na0 Ni12 2.748402 1_445
Na0 Ni2 2.748402 1_554
Na0 Ni10 2.748402 1_445
Na0 Ni17 2.748402 1_554
Na0 Ni7 2.748403 1_454
Na0 Ni9 2.748403 1_545
Na0 Ni8 2.748403 1_454
Na0 Ni13 2.748403 1_545
Na0 Ni16 2.748403 1_544
Na0 Ni5 2.748403 1_455
Na0 P0 2.904432 1_554
Na0 P5 2.904432 1_445
Na0 P2 2.904432 1_455
Na0 P1 2.904432 1_545
Na0 P3 2.904432 1_544
Na0 P4 2.904432 1_454
In0 Ni19 2.582759 1_555
In0 Ni14 2.582772 1_556
In0 Ni11 2.582772 1_565
In0 Ni4 2.582772 1_655
In0 Ni10 2.999478 1_555
In0 Ni12 2.999478 1_555
In0 Ni15 2.999478 1_555
In0 Ni7 2.999478 1_555
In0 Ni8 2.999478 1_555
In0 Ni16 2.999478 1_555
In0 Ni9 2.999478 1_556
In0 Ni5 2.999478 1_566
In0 Ni13 2.999478 1_656
In0 Ni3 2.999478 1_655
In0 Ni2 2.999478 1_565
In0 Ni17 2.999478 1_665
In1 Ni18 2.582759 1_555
In1 Ni1 2.582772 1_554
In1 Ni0 2.582772 1_545
In1 Ni6 2.582772 1_455
In1 Ni17 2.999478 1_555
In1 Ni2 2.999478 1_555
In1 Ni3 2.999478 1_555
In1 Ni9 2.999478 1_555
In1 Ni13 2.999478 1_555
In1 Ni5 2.999478 1_555
In1 Ni7 2.999478 1_554
In1 Ni16 2.999478 1_544
In1 Ni8 2.999478 1_454
In1 Ni15 2.999478 1_455
In1 Ni12 2.999478 1_545
In1 Ni10 2.999478 1_445
Ni0 P1 2.252533 1_555
Ni0 P3 2.252545 1_555
Ni0 P5 2.252545 1_555
Ni1 P0 2.252533 1_555
Ni1 P3 2.252545 1_555
Ni1 P4 2.252546 1_555
Ni2 P3 2.168044 1_545
Ni2 P0 2.168044 1_555
Ni3 P4 2.168044 1_455
Ni3 P0 2.168044 1_555
Ni4 P3 2.252533 1_555
Ni4 P1 2.252545 1_555
Ni4 P0 2.252545 1_555
Ni5 P4 2.168044 1_554
Ni5 P5 2.168044 1_545
Ni6 P2 2.252533 1_555
Ni6 P4 2.252545 1_555
Ni6 P5 2.252545 1_555
Ni7 P4 2.168044 1_555
Ni7 P2 2.168044 1_556
Ni8 P2 2.168044 1_556
Ni8 P0 2.168044 1_655
Ni9 P1 2.168044 1_555
Ni9 P3 2.168044 1_554
Ni10 P2 2.168044 1_565
Ni10 P1 2.168044 1_655
Ni11 P4 2.252533 1_555
Ni11 P2 2.252545 1_555
Ni11 P0 2.252545 1_555
Ni12 P2 2.168044 1_565
Ni12 P5 2.168044 1_555
Ni13 P3 2.168044 1_554
Ni13 P5 2.168044 1_455
Ni14 P5 2.252533 1_555
Ni14 P2 2.252545 1_555
Ni14 P1 2.252546 1_555
Ni15 P1 2.168044 1_655
Ni15 P5 2.168044 1_555
Ni16 P1 2.168044 1_556
Ni16 P0 2.168044 1_565
Ni17 P3 2.168044 1_545
Ni17 P4 2.168044 1_455
Ni18 P0 2.252545 1_555
Ni18 P1 2.252545 1_555
Ni18 P2 2.252545 1_555
Ni19 P5 2.252545 1_555
Ni19 P4 2.252545 1_555
Ni19 P3 2.252545 1_555
