# generated using pymatgen
data_CaLaTiCrO6
_symmetry_space_group_name_H-M   'P 1'
_cell_length_a   7.80890423
_cell_length_b   9.52735219
_cell_length_c   7.80890423
_cell_angle_alpha   113.90896234
_cell_angle_beta   90.60279514
_cell_angle_gamma   113.90896234
_symmetry_Int_Tables_number   1
_chemical_formula_structural   CaLaTiCrO6
_chemical_formula_sum   'Ca4 La4 Ti4 Cr4 O24'
_cell_volume   474.80500194
_cell_formula_units_Z   4
loop_
 _symmetry_equiv_pos_site_id
 _symmetry_equiv_pos_as_xyz
  1  'x, y, z'
loop_
 _atom_site_type_symbol
 _atom_site_label
 _atom_site_symmetry_multiplicity
 _atom_site_fract_x
 _atom_site_fract_y
 _atom_site_fract_z
 _atom_site_occupancy
  Ca  Ca0  1  0.40050300  0.74969000  0.85921900  1
  Ca  Ca1  1  0.90050300  0.74969000  0.35921900  1
  Ca  Ca2  1  0.10921900  0.24969000  0.15050300  1
  Ca  Ca3  1  0.60921900  0.24969000  0.65050300  1
  La  La0  1  0.38789100  0.75061700  0.35594000  1
  La  La1  1  0.88789100  0.75061700  0.85594000  1
  La  La2  1  0.10594100  0.25061700  0.63789200  1
  La  La3  1  0.60594100  0.25061700  0.13789200  1
  Ti  Ti0  1  0.25027200  0.00137500  0.25106100  1
  Ti  Ti1  1  0.75027200  0.00137500  0.75106100  1
  Ti  Ti2  1  0.50106100  0.50137500  0.00027200  1
  Ti  Ti3  1  0.00106100  0.50137500  0.50027200  1
  Cr  Cr0  1  0.99987700  0.49958900  0.99934700  1
  Cr  Cr1  1  0.74934700  0.99958900  0.24987700  1
  Cr  Cr2  1  0.49987700  0.49958900  0.49934700  1
  Cr  Cr3  1  0.24934700  0.99958900  0.74987700  1
  O  O0  1  0.34927800  0.25254600  0.82923800  1
  O  O1  1  0.84927800  0.25254600  0.32923800  1
  O  O2  1  0.57923800  0.75254600  0.59927800  1
  O  O3  1  0.07923800  0.75254600  0.09927800  1
  O  O4  1  0.76287700  0.96075000  0.97799000  1
  O  O5  1  0.26287700  0.96075000  0.47799000  1
  O  O6  1  0.22799000  0.46075000  0.51287700  1
  O  O7  1  0.72799000  0.46075000  0.01287700  1
  O  O8  1  0.55356800  0.54021700  0.77213000  1
  O  O9  1  0.05356800  0.54021700  0.27213000  1
  O  O10  1  0.02213000  0.04021700  0.30356800  1
  O  O11  1  0.52213000  0.04021700  0.80356800  1
  O  O12  1  0.47499400  0.95708500  0.19191000  1
  O  O13  1  0.97499400  0.95708500  0.69191000  1
  O  O14  1  0.94191000  0.45708500  0.72499400  1
  O  O15  1  0.44191000  0.45708500  0.22499400  1
  O  O16  1  0.27326700  0.54113900  0.98346400  1
  O  O17  1  0.77326700  0.54113900  0.48346400  1
  O  O18  1  0.73346400  0.04113900  0.52326700  1
  O  O19  1  0.23346400  0.04113900  0.02326700  1
  O  O20  1  0.92173100  0.24699200  0.90544200  1
  O  O21  1  0.42173100  0.24699200  0.40544200  1
  O  O22  1  0.15544200  0.74699200  0.67173100  1
  O  O23  1  0.65544200  0.74699200  0.17173100  1
loop_
_geom_bond_atom_site_label_1
_geom_bond_atom_site_label_2
_geom_bond_distance
_geom_bond_site_symmetry_2
Ca0 O22 2.382632 1_555
Ca0 O16 2.420558 1_555
Ca0 O12 2.422315 1_556
Ca0 O2 2.478446 1_555
Ca0 O8 2.593184 1_555
Ca0 O4 2.594597 1_555
Ca0 O6 2.755000 1_555
Ca0 O11 2.757764 1_565
Ca1 O23 2.382632 1_555
Ca1 O17 2.420558 1_555
Ca1 O13 2.422315 1_555
Ca1 O3 2.478446 1_655
Ca1 O9 2.593184 1_655
Ca1 O5 2.594597 1_655
Ca1 O7 2.755000 1_555
Ca1 O10 2.757764 1_665
Ca2 O20 2.382632 1_454
Ca2 O19 2.420558 1_555
Ca2 O15 2.422315 1_555
Ca2 O1 2.478446 1_455
Ca2 O10 2.593184 1_555
Ca2 O6 2.594597 1_555
Ca2 O4 2.755000 1_444
Ca2 O9 2.757764 1_555
Ca3 O21 2.382632 1_555
Ca3 O18 2.420558 1_555
Ca3 O14 2.422315 1_555
Ca3 O0 2.478446 1_555
Ca3 O11 2.593184 1_555
Ca3 O7 2.594597 1_556
Ca3 O5 2.755000 1_545
Ca3 O8 2.757764 1_555
La0 O2 2.394466 1_555
La0 O9 2.433314 1_555
La0 O5 2.434451 1_555
La0 O23 2.552829 1_555
La0 O12 2.636085 1_555
La0 O16 2.652605 1_554
La0 O18 2.755108 1_565
La0 O15 2.773404 1_555
La1 O3 2.394466 1_656
La1 O8 2.433314 1_555
La1 O4 2.434451 1_555
La1 O22 2.552829 1_655
La1 O13 2.636085 1_555
La1 O17 2.652605 1_555
La1 O19 2.755108 1_666
La1 O14 2.773404 1_555
La2 O0 2.394455 1_555
La2 O10 2.433319 1_555
La2 O6 2.434456 1_555
La2 O20 2.552827 1_455
La2 O14 2.636091 1_455
La2 O18 2.652612 1_455
La2 O16 2.755103 1_555
La2 O13 2.773400 1_445
La3 O1 2.394455 1_555
La3 O11 2.433319 1_554
La3 O7 2.434456 1_555
La3 O21 2.552827 1_555
La3 O15 2.636091 1_555
La3 O19 2.652612 1_555
La3 O17 2.755103 1_555
La3 O12 2.773400 1_545
Cr0 O9 2.011074 1_656
Cr0 O7 2.013805 1_556
Cr0 O3 2.013942 1_656
Cr0 O20 2.017796 1_555
Cr0 O14 2.021519 1_555
Cr0 O16 2.022407 1_655
Cr1 O10 2.011074 1_665
Cr1 O4 2.013805 1_554
Cr1 O1 2.013942 1_565
Cr1 O23 2.017796 1_555
Cr1 O12 2.021519 1_555
Cr1 O18 2.022407 1_565
Cr2 O8 2.011074 1_555
Cr2 O6 2.013805 1_555
Cr2 O2 2.013942 1_555
Cr2 O21 2.017796 1_555
Cr2 O15 2.021519 1_555
Cr2 O17 2.022407 1_555
Cr3 O11 2.011074 1_565
Cr3 O5 2.013805 1_555
Cr3 O0 2.013942 1_565
Cr3 O22 2.017796 1_555
Cr3 O13 2.021519 1_455
Cr3 O19 2.022407 1_566
O0 Ti2 1.982774 1_556
O1 Ti3 1.982774 1_655
O2 Ti1 1.982774 1_565
O3 Ti0 1.982774 1_565
O4 Ti1 1.970502 1_565
O5 Ti0 1.970502 1_565
O6 Ti3 1.970502 1_555
O7 Ti2 1.970502 1_555
O8 Ti2 1.976288 1_556
O9 Ti3 1.976288 1_555
O10 Ti0 1.976288 1_555
O11 Ti1 1.976288 1_555
O12 Ti0 1.982455 1_565
O13 Ti1 1.982455 1_565
O14 Ti3 1.982455 1_655
O15 Ti2 1.982455 1_555
O16 Ti2 1.976510 1_556
O17 Ti3 1.976510 1_655
O18 Ti1 1.976510 1_555
O19 Ti0 1.976510 1_555
O20 Ti1 1.965124 1_555
O21 Ti0 1.965124 1_555
O22 Ti3 1.965124 1_555
O23 Ti2 1.965124 1_555
