# generated using pymatgen
data_CsYZnS3
_symmetry_space_group_name_H-M   'P 1'
_cell_length_a   8.03254772
_cell_length_b   8.03254666
_cell_length_c   10.59004679
_cell_angle_alpha   90.00000000
_cell_angle_beta   90.00000000
_cell_angle_gamma   151.14001914
_symmetry_Int_Tables_number   1
_chemical_formula_structural   CsYZnS3
_chemical_formula_sum   'Cs2 Y2 Zn2 S6'
_cell_volume   329.80365257
_cell_formula_units_Z   2
loop_
 _symmetry_equiv_pos_site_id
 _symmetry_equiv_pos_as_xyz
  1  'x, y, z'
loop_
 _atom_site_type_symbol
 _atom_site_label
 _atom_site_symmetry_multiplicity
 _atom_site_fract_x
 _atom_site_fract_y
 _atom_site_fract_z
 _atom_site_occupancy
  Cs  Cs0  1  0.74037823  0.25962177  0.25000000  1
  Cs  Cs1  1  0.25962177  0.74037823  0.75000000  1
  Y  Y0  1  0.00000000  0.00000000  0.00000000  1
  Y  Y1  1  0.00000000  0.00000000  0.50000000  1
  Zn  Zn0  1  0.46094574  0.53905426  0.25000000  1
  Zn  Zn1  1  0.53905426  0.46094574  0.75000000  1
  S  S0  1  0.38671404  0.61328596  0.06197207  1
  S  S1  1  0.94959526  0.05040474  0.75000000  1
  S  S2  1  0.38671404  0.61328596  0.43802793  1
  S  S3  1  0.05040474  0.94959526  0.25000000  1
  S  S4  1  0.61328596  0.38671404  0.93802793  1
  S  S5  1  0.61328596  0.38671404  0.56197207  1
loop_
_geom_bond_atom_site_label_1
_geom_bond_atom_site_label_2
_geom_bond_distance
_geom_bond_site_symmetry_2
Cs0 S3 3.569689 1_655
Cs0 S3 3.569690 1_545
Cs0 S2 3.627015 1_545
Cs0 S0 3.627015 1_545
Cs0 S2 3.627016 1_655
Cs0 S0 3.627016 1_655
Cs0 S5 3.850318 1_555
Cs0 S4 3.850318 1_554
Cs1 S1 3.569689 1_455
Cs1 S1 3.569690 1_565
Cs1 S4 3.627015 1_565
Cs1 S5 3.627015 1_565
Cs1 S4 3.627016 1_455
Cs1 S5 3.627016 1_455
Cs1 S0 3.850318 1_556
Cs1 S2 3.850318 1_555
S0 Zn0 2.301915 1_555
S0 Y0 2.746632 1_555
S0 Y0 2.746633 1_665
S1 Zn1 2.438018 1_545
S1 Zn1 2.438018 1_655
S1 Y0 2.761215 1_656
S1 Y1 2.761215 1_655
S2 Zn0 2.301915 1_555
S2 Y1 2.746632 1_555
S2 Y1 2.746633 1_665
S3 Zn0 2.438018 1_565
S3 Zn0 2.438018 1_455
S3 Y0 2.761215 1_565
S3 Y1 2.761215 1_565
S4 Zn1 2.301915 1_555
S4 Y0 2.746632 1_666
S4 Y0 2.746633 1_556
S5 Zn1 2.301915 1_555
S5 Y1 2.746632 1_665
S5 Y1 2.746633 1_555
