# generated using pymatgen
data_Nb3SnPtN
_symmetry_space_group_name_H-M   'P 1'
_cell_length_a   7.18237920
_cell_length_b   7.18237920
_cell_length_c   7.18237920
_cell_angle_alpha   90.00000000
_cell_angle_beta   90.00000000
_cell_angle_gamma   90.00000000
_symmetry_Int_Tables_number   1
_chemical_formula_structural   Nb3SnPtN
_chemical_formula_sum   'Nb12 Sn4 Pt4 N4'
_cell_volume   370.51431416
_cell_formula_units_Z   4
loop_
 _symmetry_equiv_pos_site_id
 _symmetry_equiv_pos_as_xyz
  1  'x, y, z'
loop_
 _atom_site_type_symbol
 _atom_site_label
 _atom_site_symmetry_multiplicity
 _atom_site_fract_x
 _atom_site_fract_y
 _atom_site_fract_z
 _atom_site_occupancy
  Nb  Nb0  1  0.78840294  0.95872064  0.37670869  1
  Nb  Nb1  1  0.71159706  0.04127936  0.87670869  1
  Nb  Nb2  1  0.21159706  0.45872064  0.12329131  1
  Nb  Nb3  1  0.28840294  0.54127936  0.62329131  1
  Nb  Nb4  1  0.95872064  0.37670869  0.78840294  1
  Nb  Nb5  1  0.04127936  0.87670869  0.71159706  1
  Nb  Nb6  1  0.45872064  0.12329131  0.21159706  1
  Nb  Nb7  1  0.54127936  0.62329131  0.28840294  1
  Nb  Nb8  1  0.37670869  0.78840294  0.95872064  1
  Nb  Nb9  1  0.87670869  0.71159706  0.04127936  1
  Nb  Nb10  1  0.12329131  0.21159706  0.45872064  1
  Nb  Nb11  1  0.62329131  0.28840294  0.54127936  1
  Sn  Sn0  1  0.57170612  0.42829388  0.92829388  1
  Sn  Sn1  1  0.42829388  0.92829388  0.57170612  1
  Sn  Sn2  1  0.92829388  0.57170612  0.42829388  1
  Sn  Sn3  1  0.07170612  0.07170612  0.07170612  1
  Pt  Pt0  1  0.18357506  0.81642494  0.31642494  1
  Pt  Pt1  1  0.31642494  0.18357506  0.81642494  1
  Pt  Pt2  1  0.81642494  0.31642494  0.18357506  1
  Pt  Pt3  1  0.68357506  0.68357506  0.68357506  1
  N  N0  1  0.87611471  0.12388529  0.62388529  1
  N  N1  1  0.62388529  0.87611471  0.12388529  1
  N  N2  1  0.12388529  0.62388529  0.87611471  1
  N  N3  1  0.37611471  0.37611471  0.37611471  1
loop_
_geom_bond_atom_site_label_1
_geom_bond_atom_site_label_2
_geom_bond_distance
_geom_bond_site_symmetry_2
Nb0 Pt2 2.926660 1_565
Nb0 Sn1 2.949399 1_555
Nb0 Sn2 2.978833 1_555
Nb0 Pt0 3.047591 1_655
Nb0 Pt3 3.054504 1_555
Nb0 Sn3 3.098037 1_665
Nb1 Pt3 2.926660 1_545
Nb1 Sn3 2.949399 1_656
Nb1 Sn0 2.978833 1_555
Nb1 Pt1 3.047591 1_555
Nb1 Pt2 3.054504 1_556
Nb1 Sn1 3.098037 1_545
Nb2 Pt0 2.926660 1_555
Nb2 Sn0 2.949399 1_554
Nb2 Sn3 2.978833 1_555
Nb2 Pt2 3.047591 1_455
Nb2 Pt1 3.054504 1_554
Nb2 Sn2 3.098037 1_455
Nb3 Pt1 2.926660 1_555
Nb3 Sn2 2.949399 1_455
Nb3 Sn1 2.978833 1_555
Nb3 Pt3 3.047591 1_555
Nb3 Pt0 3.054504 1_555
Nb3 Sn0 3.098037 1_555
Nb4 Pt1 2.926660 1_655
Nb4 Sn2 2.949399 1_555
Nb4 Sn0 2.978833 1_555
Nb4 Pt2 3.047591 1_556
Nb4 Pt3 3.054504 1_555
Nb4 Sn3 3.098037 1_656
Nb5 Pt3 2.926660 1_455
Nb5 Sn3 2.949399 1_566
Nb5 Sn1 2.978833 1_555
Nb5 Pt0 3.047591 1_555
Nb5 Pt1 3.054504 1_565
Nb5 Sn2 3.098037 1_455
Nb6 Pt2 2.926660 1_555
Nb6 Sn1 2.949399 1_545
Nb6 Sn3 2.978833 1_555
Nb6 Pt1 3.047591 1_554
Nb6 Pt0 3.054504 1_545
Nb6 Sn0 3.098037 1_554
Nb7 Pt0 2.926660 1_555
Nb7 Sn0 2.949399 1_554
Nb7 Sn2 2.978833 1_555
Nb7 Pt3 3.047591 1_555
Nb7 Pt2 3.054504 1_555
Nb7 Sn1 3.098037 1_555
Nb8 Pt0 2.926660 1_556
Nb8 Sn0 2.949399 1_555
Nb8 Sn1 2.978833 1_555
Nb8 Pt1 3.047591 1_565
Nb8 Pt3 3.054504 1_555
Nb8 Sn3 3.098037 1_566
Nb9 Pt3 2.926660 1_554
Nb9 Sn3 2.949399 1_665
Nb9 Sn2 2.978833 1_555
Nb9 Pt2 3.047591 1_555
Nb9 Pt0 3.054504 1_655
Nb9 Sn0 3.098037 1_554
Nb10 Pt1 2.926660 1_555
Nb10 Sn2 2.949399 1_455
Nb10 Sn3 2.978833 1_555
Nb10 Pt0 3.047591 1_545
Nb10 Pt2 3.054504 1_455
Nb10 Sn1 3.098037 1_545
Nb11 Pt2 2.926660 1_555
Nb11 Sn1 2.949399 1_545
Nb11 Sn0 2.978833 1_555
Nb11 Pt3 3.047591 1_555
Nb11 Pt1 3.054504 1_555
Nb11 Sn2 3.098037 1_555
Pt0 Sn1 2.663980 1_555
Pt0 Sn3 2.663980 1_565
Pt0 Sn2 2.663980 1_455
Pt1 Sn0 2.663980 1_555
Pt1 Sn3 2.663980 1_556
Pt1 Sn1 2.663980 1_545
Pt2 Sn2 2.663980 1_555
Pt2 Sn3 2.663980 1_655
Pt2 Sn0 2.663980 1_554
Pt3 Sn1 2.663980 1_555
Pt3 Sn2 2.663980 1_555
Pt3 Sn0 2.663980 1_555
N0 Nb10 2.226178 1_655
N0 Nb0 2.226178 1_545
N0 Nb5 2.226178 1_645
N0 Nb4 2.246254 1_555
N0 Nb11 2.246254 1_555
N0 Nb1 2.246254 1_555
N1 Nb6 2.226178 1_565
N1 Nb8 2.226178 1_554
N1 Nb1 2.226178 1_564
N1 Nb0 2.246254 1_555
N1 Nb7 2.246254 1_555
N1 Nb9 2.246254 1_555
N2 Nb2 2.226178 1_556
N2 Nb4 2.226178 1_455
N2 Nb9 2.226178 1_456
N2 Nb8 2.246254 1_555
N2 Nb3 2.246254 1_555
N2 Nb5 2.246254 1_555
N3 Nb7 2.226178 1_555
N3 Nb11 2.226178 1_555
N3 Nb3 2.226178 1_555
N3 Nb2 2.246254 1_555
N3 Nb6 2.246254 1_555
N3 Nb10 2.246254 1_555
