# generated using pymatgen
data_TaCo(SeO3)4
_symmetry_space_group_name_H-M   'P 1'
_cell_length_a   7.85198937
_cell_length_b   8.07009664
_cell_length_c   8.04093038
_cell_angle_alpha   89.25663397
_cell_angle_beta   90.00000000
_cell_angle_gamma   90.00000000
_symmetry_Int_Tables_number   1
_chemical_formula_structural   TaCo(SeO3)4
_chemical_formula_sum   'Ta2 Co2 Se8 O24'
_cell_volume   509.48122808
_cell_formula_units_Z   2
loop_
 _symmetry_equiv_pos_site_id
 _symmetry_equiv_pos_as_xyz
  1  'x, y, z'
loop_
 _atom_site_type_symbol
 _atom_site_label
 _atom_site_symmetry_multiplicity
 _atom_site_fract_x
 _atom_site_fract_y
 _atom_site_fract_z
 _atom_site_occupancy
  Ta  Ta0  1  0.00000000  0.00000000  0.50000000  1
  Ta  Ta1  1  0.50000000  0.00000000  0.00000000  1
  Co  Co0  1  0.00000000  0.50000000  0.00000000  1
  Co  Co1  1  0.50000000  0.50000000  0.50000000  1
  Se  Se0  1  0.31121802  0.64281663  0.18946654  1
  Se  Se1  1  0.81121802  0.35718337  0.31053346  1
  Se  Se2  1  0.66035768  0.79748314  0.65699897  1
  Se  Se3  1  0.16035768  0.20251686  0.84300103  1
  Se  Se4  1  0.68878198  0.35718337  0.81053346  1
  Se  Se5  1  0.18878198  0.64281663  0.68946654  1
  Se  Se6  1  0.33964232  0.20251686  0.34300103  1
  Se  Se7  1  0.83964232  0.79748314  0.15699897  1
  O  O0  1  0.23967627  0.52016521  0.03367843  1
  O  O1  1  0.73967627  0.47983479  0.46632157  1
  O  O2  1  0.75609546  0.95536373  0.54209913  1
  O  O3  1  0.25609546  0.04463627  0.95790087  1
  O  O4  1  0.52458148  0.92232099  0.76770758  1
  O  O5  1  0.46420456  0.51186204  0.26620661  1
  O  O6  1  0.96420456  0.48813796  0.23379339  1
  O  O7  1  0.02458148  0.07767901  0.73229242  1
  O  O8  1  0.94554890  0.22670054  0.42765110  1
  O  O9  1  0.52224552  0.73312374  0.51055810  1
  O  O10  1  0.44554890  0.77329946  0.07234890  1
  O  O11  1  0.02224552  0.26687626  0.98944190  1
  O  O12  1  0.76032373  0.47983479  0.96632157  1
  O  O13  1  0.26032373  0.52016521  0.53367843  1
  O  O14  1  0.24390454  0.04463627  0.45790087  1
  O  O15  1  0.74390454  0.95536373  0.04209913  1
  O  O16  1  0.47541852  0.07767901  0.23229242  1
  O  O17  1  0.53579544  0.48813796  0.73379339  1
  O  O18  1  0.03579544  0.51186204  0.76620661  1
  O  O19  1  0.97541852  0.92232099  0.26770758  1
  O  O20  1  0.05445110  0.77329946  0.57234890  1
  O  O21  1  0.47775448  0.26687626  0.48944190  1
  O  O22  1  0.55445110  0.22670054  0.92765110  1
  O  O23  1  0.97775448  0.73312374  0.01055810  1
loop_
_geom_bond_atom_site_label_1
_geom_bond_atom_site_label_2
_geom_bond_distance
_geom_bond_site_symmetry_2
Co0 O23 1.892424 1_455
Co0 O11 1.892424 1_554
Co0 O6 1.901993 1_455
Co0 O18 1.901993 1_554
Co0 O0 1.908571 1_555
Co0 O12 1.908571 1_454
Co1 O9 1.892424 1_555
Co1 O21 1.892424 1_555
Co1 O17 1.901993 1_555
Co1 O5 1.901993 1_555
Co1 O1 1.908571 1_555
Co1 O13 1.908571 1_555
O0 Se0 1.701958 1_555
O1 Se1 1.701958 1_555
O2 Se2 1.735371 1_555
O2 Ta0 1.977102 1_665
O3 Se3 1.735371 1_555
O3 Ta1 1.977102 1_556
O4 Se2 1.722582 1_555
O4 Ta1 1.987326 1_566
O5 Se0 1.709884 1_555
O6 Se1 1.709884 1_555
O7 Se3 1.722582 1_555
O7 Ta0 1.987326 1_555
O8 Se1 1.755702 1_555
O8 Ta0 1.959763 1_655
O9 Se2 1.687670 1_555
O10 Se0 1.755702 1_555
O10 Ta1 1.959763 1_565
O11 Se3 1.687670 1_555
O12 Se4 1.701958 1_555
O13 Se5 1.701958 1_555
O14 Se6 1.735371 1_555
O14 Ta0 1.977102 1_555
O15 Se7 1.735371 1_555
O15 Ta1 1.977102 1_565
O16 Se6 1.722582 1_555
O16 Ta1 1.987326 1_555
O17 Se4 1.709884 1_555
O18 Se5 1.709884 1_555
O19 Se7 1.722582 1_555
O19 Ta0 1.987326 1_665
O20 Se5 1.755702 1_555
O20 Ta0 1.959763 1_565
O21 Se6 1.687670 1_555
O22 Se4 1.755702 1_555
O22 Ta1 1.959763 1_556
O23 Se7 1.687670 1_555
