# generated using pymatgen
data_Zr4SiBi2
_symmetry_space_group_name_H-M   'P 1'
_cell_length_a   8.29389124
_cell_length_b   8.29389203
_cell_length_c   8.29389274
_cell_angle_alpha   95.76262315
_cell_angle_beta   95.76262426
_cell_angle_gamma   143.05239517
_symmetry_Int_Tables_number   1
_chemical_formula_structural   Zr4SiBi2
_chemical_formula_sum   'Zr8 Si2 Bi4'
_cell_volume   325.26218618
_cell_formula_units_Z   2
loop_
 _symmetry_equiv_pos_site_id
 _symmetry_equiv_pos_as_xyz
  1  'x, y, z'
loop_
 _atom_site_type_symbol
 _atom_site_label
 _atom_site_symmetry_multiplicity
 _atom_site_fract_x
 _atom_site_fract_y
 _atom_site_fract_z
 _atom_site_occupancy
  Zr  Zr0  1  0.08296174  0.20135523  0.28431697  1
  Zr  Zr1  1  0.91703826  0.79864477  0.71568303  1
  Zr  Zr2  1  0.79864477  0.08296174  0.88160451  1
  Zr  Zr3  1  0.41703826  0.70135523  0.11839549  1
  Zr  Zr4  1  0.20135523  0.91703826  0.11839549  1
  Zr  Zr5  1  0.58296174  0.29864477  0.88160451  1
  Zr  Zr6  1  0.70135523  0.58296174  0.28431697  1
  Zr  Zr7  1  0.29864477  0.41703826  0.71568303  1
  Si  Si0  1  0.25000000  0.25000000  0.00000000  1
  Si  Si1  1  0.75000000  0.75000000  0.00000000  1
  Bi  Bi0  1  0.14076095  0.64076095  0.78152090  1
  Bi  Bi1  1  0.85923905  0.35923905  0.21847910  1
  Bi  Bi2  1  0.35923905  0.14076095  0.50000000  1
  Bi  Bi3  1  0.64076095  0.85923905  0.50000000  1
loop_
_geom_bond_atom_site_label_1
_geom_bond_atom_site_label_2
_geom_bond_distance
_geom_bond_site_symmetry_2
Si0 Si1 2.628094 1_445
Si0 Si1 2.628094 1_555
Si0 Zr6 2.756157 1_555
Si0 Zr1 2.756157 1_444
Si0 Zr0 2.756157 1_555
Si0 Zr7 2.756157 1_554
Si0 Zr2 2.756159 1_454
Si0 Zr3 2.756160 1_555
Si0 Zr5 2.756165 1_554
Si0 Zr4 2.756165 1_545
Si1 Zr7 2.756157 1_554
Si1 Zr0 2.756157 1_665
Si1 Zr1 2.756157 1_554
Si1 Zr6 2.756157 1_555
Si1 Zr4 2.756159 1_655
Si1 Zr5 2.756160 1_554
Si1 Zr3 2.756165 1_555
Si1 Zr2 2.756165 1_564
Bi0 Zr1 3.046256 1_455
Bi0 Zr7 3.046256 1_555
Bi0 Zr3 3.146635 1_556
Bi0 Zr4 3.146635 1_556
Bi0 Zr5 3.225741 1_455
Bi0 Zr2 3.225741 1_455
Bi0 Zr2 3.225745 1_565
Bi0 Zr5 3.225745 1_565
Bi1 Zr0 3.046256 1_655
Bi1 Zr6 3.046256 1_555
Bi1 Zr5 3.146635 1_554
Bi1 Zr2 3.146635 1_554
Bi1 Zr3 3.225741 1_655
Bi1 Zr4 3.225741 1_655
Bi1 Zr4 3.225745 1_545
Bi1 Zr3 3.225745 1_545
Bi2 Zr5 3.046242 1_555
Bi2 Zr4 3.046242 1_545
Bi2 Zr0 3.146615 1_555
Bi2 Zr7 3.146615 1_555
Bi2 Zr6 3.225745 1_445
Bi2 Zr1 3.225745 1_555
Bi2 Zr1 3.225745 1_445
Bi2 Zr6 3.225745 1_555
Bi3 Zr3 3.046242 1_555
Bi3 Zr2 3.046242 1_565
Bi3 Zr1 3.146615 1_555
Bi3 Zr6 3.146615 1_555
Bi3 Zr7 3.225745 1_665
Bi3 Zr0 3.225745 1_555
Bi3 Zr0 3.225745 1_665
Bi3 Zr7 3.225745 1_555
