# generated using pymatgen
data_LiHf6Zn22Si
_symmetry_space_group_name_H-M   'P 1'
_cell_length_a   8.61903908
_cell_length_b   8.61903868
_cell_length_c   8.61903957
_cell_angle_alpha   60.00000405
_cell_angle_beta   60.00000559
_cell_angle_gamma   60.00000218
_symmetry_Int_Tables_number   1
_chemical_formula_structural   LiHf6Zn22Si
_chemical_formula_sum   'Li1 Hf6 Zn22 Si1'
_cell_volume   452.75326939
_cell_formula_units_Z   1
loop_
 _symmetry_equiv_pos_site_id
 _symmetry_equiv_pos_as_xyz
  1  'x, y, z'
loop_
 _atom_site_type_symbol
 _atom_site_label
 _atom_site_symmetry_multiplicity
 _atom_site_fract_x
 _atom_site_fract_y
 _atom_site_fract_z
 _atom_site_occupancy
  Li  Li0  1  0.00000000  0.00000000  0.00000000  1
  Hf  Hf0  1  0.70922911  0.29077089  0.29077089  1
  Hf  Hf1  1  0.29077089  0.70922911  0.70922911  1
  Hf  Hf2  1  0.29077089  0.70922911  0.29077089  1
  Hf  Hf3  1  0.70922911  0.29077089  0.70922911  1
  Hf  Hf4  1  0.29077089  0.29077089  0.70922911  1
  Hf  Hf5  1  0.70922911  0.70922911  0.29077089  1
  Zn  Zn0  1  0.12087306  0.12087306  0.12087306  1
  Zn  Zn1  1  0.87912694  0.87912694  0.87912694  1
  Zn  Zn2  1  0.12087306  0.12087306  0.63738283  1
  Zn  Zn3  1  0.12087306  0.63738283  0.12087306  1
  Zn  Zn4  1  0.87912694  0.87912694  0.36261717  1
  Zn  Zn5  1  0.87912694  0.36261717  0.87912694  1
  Zn  Zn6  1  0.63738283  0.12087306  0.12087306  1
  Zn  Zn7  1  0.36261717  0.87912694  0.87912694  1
  Zn  Zn8  1  0.50000000  0.00000000  0.00000000  1
  Zn  Zn9  1  0.00000000  0.50000000  0.50000000  1
  Zn  Zn10  1  0.00000000  0.50000000  0.00000000  1
  Zn  Zn11  1  0.50000000  0.00000000  0.50000000  1
  Zn  Zn12  1  0.00000000  0.00000000  0.50000000  1
  Zn  Zn13  1  0.50000000  0.50000000  0.00000000  1
  Zn  Zn14  1  0.33389107  0.33389107  0.33389107  1
  Zn  Zn15  1  0.66610893  0.66610893  0.66610893  1
  Zn  Zn16  1  0.33389107  0.33389107  0.99832780  1
  Zn  Zn17  1  0.33389107  0.99832780  0.33389107  1
  Zn  Zn18  1  0.66610893  0.66610893  0.00167220  1
  Zn  Zn19  1  0.66610893  0.00167220  0.66610893  1
  Zn  Zn20  1  0.99832780  0.33389107  0.33389107  1
  Zn  Zn21  1  0.00167220  0.66610893  0.66610893  1
  Si  Si0  1  0.50000000  0.50000000  0.50000000  1
loop_
_geom_bond_atom_site_label_1
_geom_bond_atom_site_label_2
_geom_bond_distance
_geom_bond_site_symmetry_2
Li0 Zn5 2.551888 1_454
Li0 Zn3 2.551888 1_545
Li0 Zn7 2.551888 1_544
Li0 Zn6 2.551888 1_455
Li0 Zn4 2.551888 1_445
Li0 Zn2 2.551888 1_554
Li0 Zn0 2.551902 1_555
Li0 Zn1 2.551902 1_444
Hf0 Si0 2.550328 1_555
Hf0 Zn14 2.911238 1_555
Hf0 Zn18 2.911241 1_555
Hf0 Zn19 2.911241 1_555
Hf0 Zn20 2.911246 1_555
Hf0 Zn11 3.087548 1_555
Hf0 Zn12 3.087548 1_655
Hf0 Zn13 3.087548 1_555
Hf0 Zn10 3.087548 1_655
Hf1 Si0 2.550328 1_555
Hf1 Zn15 2.911238 1_555
Hf1 Zn16 2.911241 1_555
Hf1 Zn17 2.911241 1_555
Hf1 Zn21 2.911246 1_555
Hf1 Zn11 3.087548 1_565
Hf1 Zn12 3.087548 1_565
Hf1 Zn13 3.087548 1_556
Hf1 Zn10 3.087548 1_556
Hf2 Si0 2.550328 1_555
Hf2 Zn14 2.911238 1_555
Hf2 Zn18 2.911241 1_555
Hf2 Zn21 2.911241 1_555
Hf2 Zn17 2.911246 1_555
Hf2 Zn9 3.087548 1_555
Hf2 Zn12 3.087548 1_565
Hf2 Zn13 3.087548 1_555
Hf2 Zn8 3.087548 1_565
Hf3 Si0 2.550328 1_555
Hf3 Zn15 2.911238 1_555
Hf3 Zn16 2.911241 1_555
Hf3 Zn20 2.911241 1_555
Hf3 Zn19 2.911246 1_555
Hf3 Zn9 3.087548 1_655
Hf3 Zn12 3.087548 1_655
Hf3 Zn13 3.087548 1_556
Hf3 Zn8 3.087548 1_556
Hf4 Si0 2.550328 1_555
Hf4 Zn14 2.911238 1_555
Hf4 Zn21 2.911241 1_555
Hf4 Zn19 2.911241 1_555
Hf4 Zn16 2.911247 1_555
Hf4 Zn11 3.087548 1_555
Hf4 Zn9 3.087548 1_555
Hf4 Zn8 3.087548 1_556
Hf4 Zn10 3.087548 1_556
Hf5 Si0 2.550328 1_555
Hf5 Zn15 2.911238 1_555
Hf5 Zn20 2.911241 1_555
Hf5 Zn17 2.911241 1_555
Hf5 Zn18 2.911247 1_555
Hf5 Zn11 3.087548 1_565
Hf5 Zn9 3.087548 1_655
Hf5 Zn8 3.087548 1_565
Hf5 Zn10 3.087548 1_655
Zn0 Zn10 2.669338 1_555
Zn0 Zn8 2.669338 1_555
Zn0 Zn12 2.669339 1_555
Zn0 Zn16 2.711077 1_554
Zn0 Zn20 2.711077 1_455
Zn0 Zn17 2.711077 1_545
Zn1 Zn10 2.669338 1_656
Zn1 Zn8 2.669338 1_566
Zn1 Zn12 2.669339 1_665
Zn1 Zn18 2.711077 1_556
Zn1 Zn21 2.711077 1_655
Zn1 Zn19 2.711077 1_565
Zn2 Zn9 2.669339 1_555
Zn2 Zn20 2.711084 1_455
Zn3 Zn9 2.669339 1_555
Zn4 Zn9 2.669339 1_655
Zn5 Zn9 2.669339 1_655
Zn6 Zn8 2.669353 1_555
Zn7 Zn8 2.669353 1_566
Zn10 Zn16 2.488133 1_554
Zn10 Zn18 2.488133 1_455
Zn10 Zn20 2.488133 1_455
Zn10 Zn21 2.488133 1_554
Zn10 Zn3 2.669353 1_555
Zn10 Zn5 2.669353 1_454
Zn11 Zn19 2.488125 1_555
Zn11 Zn17 2.488125 1_545
Zn11 Zn15 2.488130 1_545
Zn11 Zn14 2.488130 1_555
Zn11 Zn4 2.669339 1_545
Zn11 Zn2 2.669339 1_555
Zn11 Zn7 2.669339 1_545
Zn11 Zn6 2.669339 1_555
Zn12 Zn20 2.488133 1_455
Zn12 Zn21 2.488133 1_545
Zn12 Zn17 2.488133 1_545
Zn12 Zn19 2.488133 1_455
Zn12 Zn2 2.669353 1_555
Zn12 Zn4 2.669353 1_445
Zn13 Zn18 2.488125 1_555
Zn13 Zn16 2.488125 1_554
Zn13 Zn14 2.488130 1_555
Zn13 Zn15 2.488130 1_554
Zn13 Zn7 2.669339 1_554
Zn13 Zn6 2.669339 1_555
Zn13 Zn5 2.669339 1_554
Zn13 Zn3 2.669339 1_555
Zn14 Zn9 2.488130 1_555
Zn14 Zn3 2.711080 1_555
Zn14 Zn6 2.711080 1_555
Zn14 Zn2 2.711080 1_555
Zn14 Zn17 2.892233 1_545
Zn14 Zn20 2.892233 1_455
Zn14 Zn16 2.892233 1_554
Zn15 Zn9 2.488130 1_655
Zn15 Zn5 2.711080 1_555
Zn15 Zn7 2.711080 1_555
Zn15 Zn4 2.711080 1_555
Zn15 Zn19 2.892233 1_565
Zn15 Zn21 2.892233 1_655
Zn15 Zn18 2.892233 1_556
Zn16 Zn8 2.488133 1_556
Zn16 Zn3 2.711084 1_556
Zn16 Zn6 2.711084 1_556
Zn16 Zn17 2.892233 1_546
Zn16 Zn20 2.892233 1_456
Zn17 Zn8 2.488133 1_565
Zn17 Zn6 2.711084 1_565
Zn17 Zn2 2.711084 1_565
Zn17 Zn20 2.892233 1_465
Zn18 Zn8 2.488133 1_565
Zn18 Zn5 2.711084 1_554
Zn18 Zn7 2.711084 1_554
Zn18 Zn19 2.892233 1_564
Zn18 Zn21 2.892233 1_654
Zn19 Zn8 2.488133 1_556
Zn19 Zn7 2.711084 1_545
Zn19 Zn4 2.711084 1_545
Zn19 Zn21 2.892233 1_645
Zn20 Zn9 2.488125 1_655
Zn20 Zn3 2.711084 1_655
Zn21 Zn9 2.488125 1_555
Zn21 Zn5 2.711084 1_455
Zn21 Zn4 2.711084 1_455
