# generated using pymatgen
data_In(Pd3O4)2
_symmetry_space_group_name_H-M   'P 1'
_cell_length_a   6.73851384
_cell_length_b   6.73851437
_cell_length_c   6.73851425
_cell_angle_alpha   60.00000060
_cell_angle_beta   59.99999798
_cell_angle_gamma   60.00000127
_symmetry_Int_Tables_number   1
_chemical_formula_structural   In(Pd3O4)2
_chemical_formula_sum   'In1 Pd6 O8'
_cell_volume   216.36023082
_cell_formula_units_Z   1
loop_
 _symmetry_equiv_pos_site_id
 _symmetry_equiv_pos_as_xyz
  1  'x, y, z'
loop_
 _atom_site_type_symbol
 _atom_site_label
 _atom_site_symmetry_multiplicity
 _atom_site_fract_x
 _atom_site_fract_y
 _atom_site_fract_z
 _atom_site_occupancy
  In  In0  1  0.00000000  0.00000000  0.00000000  1
  Pd  Pd0  1  0.00000000  0.00000000  0.50000000  1
  Pd  Pd1  1  0.50000000  0.00000000  0.00000000  1
  Pd  Pd2  1  0.00000000  0.50000000  0.00000000  1
  Pd  Pd3  1  0.50000000  0.50000000  0.00000000  1
  Pd  Pd4  1  0.00000000  0.50000000  0.50000000  1
  Pd  Pd5  1  0.50000000  0.00000000  0.50000000  1
  O  O0  1  0.13849458  0.13849458  0.58451725  1
  O  O1  1  0.13849458  0.58451725  0.13849458  1
  O  O2  1  0.58451725  0.13849458  0.13849458  1
  O  O3  1  0.86150542  0.41548275  0.86150542  1
  O  O4  1  0.13849458  0.13849458  0.13849458  1
  O  O5  1  0.86150542  0.86150542  0.86150542  1
  O  O6  1  0.86150542  0.86150542  0.41548275  1
  O  O7  1  0.41548275  0.86150542  0.86150542  1
loop_
_geom_bond_atom_site_label_1
_geom_bond_atom_site_label_2
_geom_bond_distance
_geom_bond_site_symmetry_2
In0 O7 2.285975 1_544
In0 O2 2.285975 1_455
In0 O6 2.285975 1_445
In0 O0 2.285975 1_554
In0 O1 2.285975 1_545
In0 O3 2.285975 1_454
In0 O4 2.285981 1_555
In0 O5 2.285981 1_444
O0 Pd5 2.000048 1_555
O0 Pd4 2.000048 1_555
O0 Pd0 2.000054 1_555
O1 Pd3 2.000048 1_555
O1 Pd4 2.000048 1_555
O1 Pd2 2.000054 1_555
O2 Pd5 2.000048 1_555
O2 Pd3 2.000048 1_555
O2 Pd1 2.000054 1_555
O3 Pd3 2.000048 1_556
O3 Pd4 2.000048 1_655
O3 Pd2 2.000054 1_656
O4 Pd1 2.000049 1_555
O4 Pd0 2.000049 1_555
O4 Pd2 2.000049 1_555
O5 Pd1 2.000049 1_566
O5 Pd0 2.000049 1_665
O5 Pd2 2.000049 1_656
O6 Pd5 2.000048 1_565
O6 Pd4 2.000048 1_655
O6 Pd0 2.000054 1_665
O7 Pd5 2.000048 1_565
O7 Pd3 2.000048 1_556
O7 Pd1 2.000054 1_566
