# generated using pymatgen
data_Sc12Co4TcBi
_symmetry_space_group_name_H-M   'P 1'
_cell_length_a   7.75039184
_cell_length_b   7.75039165
_cell_length_c   7.75039234
_cell_angle_alpha   111.59098788
_cell_angle_beta   110.58033034
_cell_angle_gamma   106.29013032
_symmetry_Int_Tables_number   1
_chemical_formula_structural   Sc12Co4TcBi
_chemical_formula_sum   'Sc12 Co4 Tc1 Bi1'
_cell_volume   357.53221103
_cell_formula_units_Z   1
loop_
 _symmetry_equiv_pos_site_id
 _symmetry_equiv_pos_as_xyz
  1  'x, y, z'
loop_
 _atom_site_type_symbol
 _atom_site_label
 _atom_site_symmetry_multiplicity
 _atom_site_fract_x
 _atom_site_fract_y
 _atom_site_fract_z
 _atom_site_occupancy
  Sc  Sc0  1  0.42353960  0.22069518  0.20284343  1
  Sc  Sc1  1  0.57646040  0.77930482  0.79715657  1
  Sc  Sc2  1  0.01785175  0.22069518  0.79715657  1
  Sc  Sc3  1  0.98214825  0.77930482  0.20284343  1
  Sc  Sc4  1  0.30576829  0.60991254  0.30414425  1
  Sc  Sc5  1  0.69423171  0.39008746  0.69585575  1
  Sc  Sc6  1  0.30576829  0.00162304  0.69585575  1
  Sc  Sc7  1  0.69423171  0.99837696  0.30414425  1
  Sc  Sc8  1  0.18374070  0.27340738  0.45714908  1
  Sc  Sc9  1  0.81625930  0.72659162  0.54285092  1
  Sc  Sc10  1  0.18374070  0.72659162  0.91033332  1
  Sc  Sc11  1  0.81625930  0.27340738  0.08966668  1
  Co  Co0  1  0.37420485  1.00000000  0.37420485  1
  Co  Co1  1  0.62579515  0.00000000  0.62579515  1
  Co  Co2  1  0.11464770  0.61464770  0.50000000  1
  Co  Co3  1  0.88535230  0.38535230  0.50000000  1
  Tc  Tc0  1  0.00000000  0.00000000  0.00000000  1
  Bi  Bi0  1  0.50000000  0.50000000  0.00000000  1
loop_
_geom_bond_atom_site_label_1
_geom_bond_atom_site_label_2
_geom_bond_distance
_geom_bond_site_symmetry_2
Sc0 Tc0 2.723167 1_555
Sc0 Sc10 3.148715 1_544
Sc0 Sc8 3.148722 1_555
Sc0 Sc11 3.412297 1_555
Sc0 Sc9 3.412298 1_555
Sc1 Tc0 2.723167 1_666
Sc1 Sc11 3.148709 1_566
Sc1 Sc9 3.148722 1_555
Sc1 Sc10 3.412297 1_555
Sc1 Sc8 3.412302 1_555
Sc2 Tc0 2.723161 1_556
Sc2 Sc9 3.148716 1_445
Sc2 Sc8 3.412298 1_555
Sc3 Tc0 2.723161 1_665
Sc3 Sc8 3.148709 1_665
Sc3 Sc9 3.412300 1_555
Sc4 Sc8 3.283816 1_555
Sc4 Sc9 3.392617 1_555
Sc5 Sc9 3.283810 1_555
Sc5 Sc8 3.392615 1_555
Sc6 Sc9 3.283808 1_445
Sc6 Sc8 3.392617 1_555
Sc7 Sc8 3.283807 1_665
Sc7 Sc9 3.392624 1_555
Sc8 Tc0 2.882021 1_555
Sc9 Tc0 2.882022 1_666
Sc10 Tc0 2.882021 1_566
Sc10 Sc3 3.148709 1_456
Sc10 Sc9 3.243567 1_455
Sc10 Sc5 3.283808 1_455
Sc10 Sc6 3.283811 1_565
Sc10 Sc4 3.392610 1_556
Sc10 Sc7 3.392615 1_556
Sc10 Sc2 3.412297 1_555
Sc11 Tc0 2.882015 1_655
Sc11 Sc2 3.148709 1_654
Sc11 Sc8 3.243567 1_655
Sc11 Sc7 3.283805 1_545
Sc11 Sc4 3.283811 1_655
Sc11 Sc6 3.392615 1_554
Sc11 Sc5 3.392615 1_554
Sc11 Sc3 3.412305 1_555
Co0 Co1 2.220653 1_565
Co0 Sc3 2.549080 1_455
Co0 Sc0 2.549081 1_565
Co0 Sc7 2.721470 1_555
Co0 Sc4 2.721472 1_555
Co0 Sc5 2.721472 1_565
Co0 Sc6 2.721474 1_565
Co0 Sc8 2.915823 1_565
Co0 Sc10 2.915823 1_554
Co1 Sc2 2.549080 1_655
Co1 Sc1 2.549081 1_545
Co1 Sc6 2.721470 1_555
Co1 Sc5 2.721472 1_555
Co1 Sc4 2.721472 1_545
Co1 Sc7 2.721474 1_545
Co1 Sc11 2.915822 1_556
Co1 Sc9 2.915829 1_545
Co2 Co3 2.131812 1_455
Co2 Sc6 2.463721 1_565
Co2 Sc4 2.463728 1_555
Co2 Sc9 2.768542 1_455
Co2 Sc11 2.768548 1_455
Co2 Sc8 2.768549 1_555
Co2 Sc10 2.768550 1_555
Co2 Sc1 3.036904 1_555
Co2 Sc3 3.036910 1_455
Co3 Sc7 2.463721 1_545
Co3 Sc5 2.463728 1_555
Co3 Sc9 2.768542 1_555
Co3 Sc8 2.768546 1_655
Co3 Sc10 2.768546 1_655
Co3 Sc11 2.768548 1_555
Co3 Sc0 3.036904 1_555
Co3 Sc2 3.036910 1_655
Bi0 Sc0 3.154150 1_555
Bi0 Sc1 3.154150 1_554
Bi0 Sc3 3.154151 1_555
Bi0 Sc2 3.154151 1_554
Bi0 Sc4 3.206980 1_555
Bi0 Sc5 3.206980 1_554
Bi0 Sc7 3.206986 1_555
Bi0 Sc6 3.206986 1_554
Bi0 Sc10 3.419165 1_554
Bi0 Sc8 3.419166 1_554
Bi0 Sc9 3.419167 1_555
Bi0 Sc11 3.419171 1_555
