# generated using pymatgen
data_Nb4AlSiH2
_symmetry_space_group_name_H-M   'P 1'
_cell_length_a   5.19566693
_cell_length_b   5.19566638
_cell_length_c   5.19566658
_cell_angle_alpha   104.87055843
_cell_angle_beta   104.87054750
_cell_angle_gamma   119.12574963
_symmetry_Int_Tables_number   1
_chemical_formula_structural   Nb4AlSiH2
_chemical_formula_sum   'Nb4 Al1 Si1 H2'
_cell_volume   105.63651866
_cell_formula_units_Z   1
loop_
 _symmetry_equiv_pos_site_id
 _symmetry_equiv_pos_as_xyz
  1  'x, y, z'
loop_
 _atom_site_type_symbol
 _atom_site_label
 _atom_site_symmetry_multiplicity
 _atom_site_fract_x
 _atom_site_fract_y
 _atom_site_fract_z
 _atom_site_occupancy
  Nb  Nb0  1  0.16563081  0.66563081  0.83126462  1
  Nb  Nb1  1  0.83436919  0.33436919  0.16873538  1
  Nb  Nb2  1  0.33436919  0.16563081  0.50000000  1
  Nb  Nb3  1  0.66563081  0.83436919  0.50000000  1
  Al  Al0  1  0.25000000  0.25000000  0.00000000  1
  Si  Si0  1  0.75000000  0.75000000  0.00000000  1
  H  H0  1  0.75000000  0.25000000  0.50000000  1
  H  H1  1  0.25000000  0.75000000  0.50000000  1
loop_
_geom_bond_atom_site_label_1
_geom_bond_atom_site_label_2
_geom_bond_distance
_geom_bond_site_symmetry_2
Nb0 Si0 2.705561 1_456
Nb0 Si0 2.705569 1_556
Nb1 Si0 2.705561 1_555
Nb1 Si0 2.705568 1_545
Nb2 Si0 2.705568 1_556
Nb2 Si0 2.705568 1_445
Nb3 Si0 2.705568 1_555
Nb3 Si0 2.705568 1_556
Al0 Si0 2.632086 1_445
Al0 Si0 2.632086 1_555
Al0 Nb0 2.705561 1_554
Al0 Nb1 2.705561 1_455
Al0 Nb3 2.705568 1_555
Al0 Nb3 2.705568 1_444
Al0 Nb0 2.705568 1_544
Al0 Nb2 2.705568 1_554
Al0 Nb2 2.705568 1_555
Al0 Nb1 2.705569 1_555
H0 Nb3 1.983435 1_545
H0 Nb2 1.983435 1_555
H0 Nb0 1.983440 1_655
H0 Nb1 1.983450 1_555
H1 Nb2 1.983435 1_565
H1 Nb3 1.983435 1_555
H1 Nb1 1.983440 1_455
H1 Nb0 1.983450 1_555
