# generated using pymatgen
data_CsVPdS4
_symmetry_space_group_name_H-M   'P 1'
_cell_length_a   8.20153912
_cell_length_b   8.20153912
_cell_length_c   13.02860214
_cell_angle_alpha   90.00000000
_cell_angle_beta   90.00000000
_cell_angle_gamma   90.00000000
_symmetry_Int_Tables_number   1
_chemical_formula_structural   CsVPdS4
_chemical_formula_sum   'Cs4 V4 Pd4 S16'
_cell_volume   876.37210110
_cell_formula_units_Z   4
loop_
 _symmetry_equiv_pos_site_id
 _symmetry_equiv_pos_as_xyz
  1  'x, y, z'
loop_
 _atom_site_type_symbol
 _atom_site_label
 _atom_site_symmetry_multiplicity
 _atom_site_fract_x
 _atom_site_fract_y
 _atom_site_fract_z
 _atom_site_occupancy
  Cs  Cs0  1  0.00000000  0.50000000  0.75000000  1
  Cs  Cs1  1  0.50000000  0.00000000  0.75000000  1
  Cs  Cs2  1  0.50000000  0.00000000  0.25000000  1
  Cs  Cs3  1  0.00000000  0.50000000  0.25000000  1
  V  V0  1  0.75049636  0.75049636  0.00000000  1
  V  V1  1  0.24950364  0.24950364  0.00000000  1
  V  V2  1  0.25049636  0.74950364  0.50000000  1
  V  V3  1  0.74950364  0.25049636  0.50000000  1
  Pd  Pd0  1  0.50000000  0.50000000  0.50000000  1
  Pd  Pd1  1  0.00000000  0.00000000  0.00000000  1
  Pd  Pd2  1  0.50000000  0.50000000  0.00000000  1
  Pd  Pd3  1  0.00000000  0.00000000  0.50000000  1
  S  S0  1  0.36263360  0.36263360  0.13136688  1
  S  S1  1  0.63736640  0.63736640  0.13136688  1
  S  S2  1  0.13736640  0.86263360  0.36863312  1
  S  S3  1  0.86263360  0.13736640  0.36863312  1
  S  S4  1  0.63736640  0.63736640  0.86863312  1
  S  S5  1  0.36263360  0.36263360  0.86863312  1
  S  S6  1  0.13736640  0.86263360  0.63136688  1
  S  S7  1  0.86263360  0.13736640  0.63136688  1
  S  S8  1  0.48989976  0.21510062  0.50000000  1
  S  S9  1  0.51010024  0.78489938  0.50000000  1
  S  S10  1  0.01010024  0.71510062  0.00000000  1
  S  S11  1  0.98989976  0.28489938  0.00000000  1
  S  S12  1  0.78489938  0.51010024  0.50000000  1
  S  S13  1  0.21510062  0.48989976  0.50000000  1
  S  S14  1  0.28489938  0.98989976  0.00000000  1
  S  S15  1  0.71510062  0.01010024  0.00000000  1
loop_
_geom_bond_atom_site_label_1
_geom_bond_atom_site_label_2
_geom_bond_distance
_geom_bond_site_symmetry_2
Cs0 S5 3.536072 1_555
Cs0 S6 3.536072 1_555
Cs0 S4 3.536072 1_455
Cs0 S7 3.536072 1_455
Cs0 S10 3.705150 1_556
Cs0 S13 3.705150 1_555
Cs0 S12 3.705150 1_455
Cs0 S11 3.705150 1_456
Cs1 S5 3.536072 1_555
Cs1 S7 3.536072 1_555
Cs1 S4 3.536072 1_545
Cs1 S6 3.536072 1_545
Cs1 S15 3.705150 1_556
Cs1 S8 3.705150 1_555
Cs1 S9 3.705150 1_545
Cs1 S14 3.705150 1_546
Cs2 S3 3.536072 1_555
Cs2 S0 3.536072 1_555
Cs2 S2 3.536072 1_545
Cs2 S1 3.536072 1_545
Cs2 S15 3.705150 1_555
Cs2 S8 3.705150 1_555
Cs2 S9 3.705150 1_545
Cs2 S14 3.705150 1_545
Cs3 S2 3.536072 1_555
Cs3 S0 3.536072 1_555
Cs3 S3 3.536072 1_455
Cs3 S1 3.536072 1_455
Cs3 S10 3.705150 1_555
Cs3 S13 3.705150 1_555
Cs3 S12 3.705150 1_455
Cs3 S11 3.705150 1_455
Pd0 S9 2.338081 1_555
Pd0 S12 2.338081 1_555
Pd0 S13 2.338081 1_555
Pd0 S8 2.338081 1_555
Pd1 S11 2.338081 1_455
Pd1 S14 2.338081 1_545
Pd1 S15 2.338081 1_455
Pd1 S10 2.338081 1_545
Pd2 S1 2.338344 1_555
Pd2 S0 2.338344 1_555
Pd2 S4 2.338344 1_554
Pd2 S5 2.338344 1_554
Pd3 S6 2.338344 1_545
Pd3 S7 2.338344 1_455
Pd3 S2 2.338344 1_545
Pd3 S3 2.338344 1_455
S0 V1 2.156640 1_555
S1 V0 2.156640 1_555
S2 V2 2.156640 1_555
S3 V3 2.156640 1_555
S4 V0 2.156640 1_556
S5 V1 2.156640 1_556
S6 V2 2.156640 1_555
S7 V3 2.156640 1_555
S8 V3 2.148851 1_555
S9 V2 2.148851 1_555
S10 V0 2.148851 1_455
S11 V1 2.148851 1_655
S12 V3 2.148851 1_555
S13 V2 2.148851 1_555
S14 V1 2.148851 1_565
S15 V0 2.148851 1_545
