# generated using pymatgen
data_Na2PdRhPb2
_symmetry_space_group_name_H-M   'P 1'
_cell_length_a   5.91866734
_cell_length_b   5.91866671
_cell_length_c   5.27273002
_cell_angle_alpha   105.62443397
_cell_angle_beta   105.62444045
_cell_angle_gamma   121.34068523
_symmetry_Int_Tables_number   1
_chemical_formula_structural   Na2PdRhPb2
_chemical_formula_sum   'Na2 Pd1 Rh1 Pb2'
_cell_volume   131.76906173
_cell_formula_units_Z   1
loop_
 _symmetry_equiv_pos_site_id
 _symmetry_equiv_pos_as_xyz
  1  'x, y, z'
loop_
 _atom_site_type_symbol
 _atom_site_label
 _atom_site_symmetry_multiplicity
 _atom_site_fract_x
 _atom_site_fract_y
 _atom_site_fract_z
 _atom_site_occupancy
  Na  Na0  1  0.92410817  0.42410817  0.84821633  1
  Na  Na1  1  0.57589183  0.07589183  0.15178367  1
  Pd  Pd0  1  0.00000000  0.00000000  0.00000000  1
  Rh  Rh0  1  0.50000000  0.50000000  0.00000000  1
  Pb  Pb0  1  0.08525838  0.91474162  0.50000000  1
  Pb  Pb1  1  0.41474162  0.58525838  0.50000000  1
loop_
_geom_bond_atom_site_label_1
_geom_bond_atom_site_label_2
_geom_bond_distance
_geom_bond_site_symmetry_2
Na0 Pd0 3.033895 1_656
Na0 Pd0 3.033895 1_666
Na0 Rh0 3.033895 1_556
Na0 Rh0 3.033895 1_656
Na0 Pb1 3.336243 1_656
Na0 Pb0 3.336243 1_656
Na1 Rh0 3.033895 1_555
Na1 Rh0 3.033895 1_545
Na1 Pd0 3.033895 1_655
Na1 Pd0 3.033895 1_555
Na1 Pb0 3.336243 1_544
Na1 Pb1 3.336243 1_544
Pd0 Rh0 2.899163 1_555
Pd0 Rh0 2.899163 1_445
Pb0 Pd0 2.779313 1_565
Pb0 Pd0 2.779313 1_566
Pb0 Rh0 2.779314 1_566
Pb0 Rh0 2.779314 1_455
Pb1 Rh0 2.779313 1_556
Pb1 Rh0 2.779313 1_555
Pb1 Pd0 2.779314 1_555
Pb1 Pd0 2.779314 1_666
