# generated using pymatgen
data_Cs12CaYSe8
_symmetry_space_group_name_H-M   'P 1'
_cell_length_a   11.53171845
_cell_length_b   11.53171895
_cell_length_c   8.69483381
_cell_angle_alpha   90.00000000
_cell_angle_beta   90.00000000
_cell_angle_gamma   120.00000419
_symmetry_Int_Tables_number   1
_chemical_formula_structural   Cs12CaYSe8
_chemical_formula_sum   'Cs12 Ca1 Y1 Se8'
_cell_volume   1001.33634233
_cell_formula_units_Z   1
loop_
 _symmetry_equiv_pos_site_id
 _symmetry_equiv_pos_as_xyz
  1  'x, y, z'
loop_
 _atom_site_type_symbol
 _atom_site_label
 _atom_site_symmetry_multiplicity
 _atom_site_fract_x
 _atom_site_fract_y
 _atom_site_fract_z
 _atom_site_occupancy
  Cs  Cs0  1  0.13642797  0.86357203  0.53881267  1
  Cs  Cs1  1  0.28416095  0.14208098  0.05624707  1
  Cs  Cs2  1  0.85791902  0.71583905  0.05624707  1
  Cs  Cs3  1  0.13642797  0.27285595  0.53881267  1
  Cs  Cs4  1  0.72714405  0.86357203  0.53881267  1
  Cs  Cs5  1  0.85791902  0.14208098  0.05624707  1
  Cs  Cs6  1  0.53231755  0.46768245  0.36750652  1
  Cs  Cs7  1  0.05571881  0.52785940  0.85233068  1
  Cs  Cs8  1  0.47214060  0.94428119  0.85233068  1
  Cs  Cs9  1  0.53231755  0.06463509  0.36750652  1
  Cs  Cs10  1  0.93536491  0.46768245  0.36750652  1
  Cs  Cs11  1  0.47214060  0.52785940  0.85233068  1
  Ca  Ca0  1  0.66666700  0.33333300  0.75943465  1
  Y  Y0  1  0.33333300  0.66666700  0.25125901  1
  Se  Se0  1  0.33333300  0.66666700  0.56559923  1
  Se  Se1  1  0.66666700  0.33333300  0.08635294  1
  Se  Se2  1  0.20459361  0.79540639  0.14855524  1
  Se  Se3  1  0.39425751  0.19712875  0.65546720  1
  Se  Se4  1  0.80287125  0.60574249  0.65546720  1
  Se  Se5  1  0.20459361  0.40918621  0.14855524  1
  Se  Se6  1  0.59081379  0.79540639  0.14855524  1
  Se  Se7  1  0.80287125  0.19712875  0.65546720  1
loop_
_geom_bond_atom_site_label_1
_geom_bond_atom_site_label_2
_geom_bond_distance
_geom_bond_site_symmetry_2
Cs0 Se4 3.637005 1_455
Cs0 Se3 3.637005 1_565
Cs0 Se2 3.656182 1_555
Cs0 Se0 3.939777 1_555
Cs1 Se3 3.654060 1_554
Cs1 Se5 3.714809 1_555
Cs1 Se2 3.714831 1_545
Cs1 Se1 3.828955 1_555
Cs2 Se4 3.654060 1_554
Cs2 Se6 3.714809 1_555
Cs2 Se2 3.714831 1_655
Cs2 Se1 3.828955 1_555
Cs3 Se7 3.637005 1_455
Cs3 Se3 3.637005 1_555
Cs3 Se5 3.656179 1_555
Cs3 Se0 3.939787 1_555
Cs4 Se7 3.637005 1_565
Cs4 Se4 3.637005 1_555
Cs4 Se6 3.656179 1_555
Cs4 Se0 3.939787 1_555
Cs5 Se7 3.654057 1_554
Cs5 Se5 3.714824 1_655
Cs5 Se6 3.714824 1_545
Cs5 Se1 3.828935 1_555
Cs6 Se1 3.629986 1_555
Cs6 Se4 3.683810 1_555
Cs6 Se3 3.683810 1_555
Cs6 Se5 3.976489 1_555
Cs6 Se6 3.976489 1_555
Cs7 Se2 3.715287 1_556
Cs7 Se5 3.715294 1_556
Cs7 Se0 3.728543 1_555
Cs7 Se7 3.854472 1_455
Cs7 Se4 3.854472 1_455
Cs8 Se2 3.715287 1_556
Cs8 Se6 3.715294 1_556
Cs8 Se0 3.728543 1_555
Cs8 Se7 3.854472 1_565
Cs8 Se3 3.854472 1_565
Cs9 Se1 3.629978 1_555
Cs9 Se7 3.683810 1_555
Cs9 Se3 3.683810 1_555
Cs9 Se2 3.976492 1_545
Cs9 Se6 3.976499 1_545
Cs10 Se1 3.629978 1_555
Cs10 Se7 3.683810 1_555
Cs10 Se4 3.683810 1_555
Cs10 Se2 3.976493 1_655
Cs10 Se5 3.976499 1_655
Cs11 Se5 3.715287 1_556
Cs11 Se6 3.715287 1_556
Cs11 Se0 3.728550 1_555
Cs11 Se4 3.854472 1_555
Cs11 Se3 3.854472 1_555
Ca0 Se1 2.842500 1_556
Ca0 Se7 2.866737 1_555
Ca0 Se3 2.866747 1_555
Ca0 Se4 2.866747 1_555
Se0 Y0 2.733136 1_555
Se2 Y0 2.722026 1_555
Se5 Y0 2.722045 1_555
Se6 Y0 2.722045 1_555
