# generated using pymatgen
data_Zr6Zn20Pd3Se
_symmetry_space_group_name_H-M   'P 1'
_cell_length_a   8.70844867
_cell_length_b   8.70844782
_cell_length_c   8.71574663
_cell_angle_alpha   59.97227837
_cell_angle_beta   59.97228161
_cell_angle_gamma   60.05544507
_symmetry_Int_Tables_number   1
_chemical_formula_structural   Zr6Zn20Pd3Se
_chemical_formula_sum   'Zr6 Zn20 Pd3 Se1'
_cell_volume   467.38046443
_cell_formula_units_Z   1
loop_
 _symmetry_equiv_pos_site_id
 _symmetry_equiv_pos_as_xyz
  1  'x, y, z'
loop_
 _atom_site_type_symbol
 _atom_site_label
 _atom_site_symmetry_multiplicity
 _atom_site_fract_x
 _atom_site_fract_y
 _atom_site_fract_z
 _atom_site_occupancy
  Zr  Zr0  1  0.71015166  0.28984834  0.28984834  1
  Zr  Zr1  1  0.28984834  0.71015166  0.71015166  1
  Zr  Zr2  1  0.28984834  0.71015166  0.28984834  1
  Zr  Zr3  1  0.71015166  0.28984834  0.71015166  1
  Zr  Zr4  1  0.28557111  0.28557111  0.71442889  1
  Zr  Zr5  1  0.71442889  0.71442889  0.28557111  1
  Zn  Zn0  1  0.11949541  0.11949541  0.12672987  1
  Zn  Zn1  1  0.88050459  0.88050459  0.87327013  1
  Zn  Zn2  1  0.11949541  0.11949541  0.63428031  1
  Zn  Zn3  1  0.12672987  0.63428031  0.11949541  1
  Zn  Zn4  1  0.88050459  0.88050459  0.36571969  1
  Zn  Zn5  1  0.87327013  0.36571969  0.88050459  1
  Zn  Zn6  1  0.63428031  0.12672987  0.11949541  1
  Zn  Zn7  1  0.36571969  0.87327013  0.88050459  1
  Zn  Zn8  1  0.50000000  0.00000000  0.00000000  1
  Zn  Zn9  1  0.00000000  0.50000000  0.50000000  1
  Zn  Zn10  1  0.00000000  0.50000000  0.00000000  1
  Zn  Zn11  1  0.50000000  0.00000000  0.50000000  1
  Zn  Zn12  1  0.33090432  0.33090432  0.33419876  1
  Zn  Zn13  1  0.66909568  0.66909568  0.66580124  1
  Zn  Zn14  1  0.33090432  0.33090432  0.00399459  1
  Zn  Zn15  1  0.33419876  0.00399459  0.33090432  1
  Zn  Zn16  1  0.66909568  0.66909568  0.99600541  1
  Zn  Zn17  1  0.66580124  0.99600541  0.66909568  1
  Zn  Zn18  1  0.00399459  0.33419876  0.33090432  1
  Zn  Zn19  1  0.99600541  0.66580124  0.66909568  1
  Pd  Pd0  1  0.00000000  0.00000000  0.50000000  1
  Pd  Pd1  1  0.50000000  0.50000000  0.00000000  1
  Pd  Pd2  1  0.00000000  0.00000000  0.00000000  1
  Se  Se0  1  0.50000000  0.50000000  0.50000000  1
loop_
_geom_bond_atom_site_label_1
_geom_bond_atom_site_label_2
_geom_bond_distance
_geom_bond_site_symmetry_2
Zn0 Zn10 2.706981 1_555
Zn0 Zn8 2.706981 1_555
Zn1 Zn10 2.706981 1_656
Zn1 Zn8 2.706981 1_566
Zn2 Zn9 2.706981 1_555
Zn3 Zn9 2.706982 1_555
Zn4 Zn9 2.706981 1_655
Zn5 Zn9 2.706982 1_655
Zn6 Zn8 2.706988 1_555
Zn7 Zn8 2.706988 1_566
Zn8 Zr5 3.112414 1_545
Zn8 Zr4 3.112414 1_554
Zn8 Zr3 3.115283 1_554
Zn8 Zr2 3.115283 1_545
Zn9 Zr4 3.112414 1_555
Zn9 Zr5 3.112414 1_455
Zn9 Zr2 3.115283 1_555
Zn9 Zr3 3.115283 1_455
Zn10 Zn14 2.507274 1_555
Zn10 Zn16 2.507274 1_454
Zn10 Zn18 2.507274 1_555
Zn10 Zn19 2.507274 1_454
Zn10 Zn3 2.706988 1_555
Zn10 Zn5 2.706988 1_454
Zn10 Zr5 3.112414 1_455
Zn10 Zr4 3.112414 1_554
Zn10 Zr1 3.115283 1_554
Zn10 Zr0 3.115283 1_455
Zn11 Zn17 2.507259 1_545
Zn11 Zn15 2.507259 1_555
Zn11 Zn13 2.507268 1_545
Zn11 Zn12 2.507268 1_555
Zn11 Zn4 2.706981 1_545
Zn11 Zn2 2.706981 1_555
Zn11 Zn6 2.706982 1_555
Zn11 Zn7 2.706982 1_545
Zn11 Zr4 3.112414 1_555
Zn11 Zr5 3.112414 1_545
Zn11 Zr0 3.115283 1_555
Zn11 Zr1 3.115283 1_545
Zn12 Zn9 2.507269 1_555
Zn13 Zn9 2.507269 1_655
Zn14 Zn8 2.507273 1_555
Zn15 Zn8 2.507274 1_555
Zn16 Zn8 2.507273 1_566
Zn17 Zn8 2.507274 1_566
Zn18 Zn9 2.507259 1_555
Zn19 Zn9 2.507259 1_655
Pd0 Zn18 2.529889 1_555
Pd0 Zn19 2.529889 1_445
Pd0 Zn15 2.529889 1_555
Pd0 Zn17 2.529889 1_445
Pd0 Zn1 2.656006 1_445
Pd0 Zn0 2.656006 1_555
Pd0 Zn2 2.656013 1_555
Pd0 Zn4 2.656013 1_445
Pd0 Zr3 3.120380 1_455
Pd0 Zr1 3.120380 1_545
Pd0 Zr2 3.120380 1_545
Pd0 Zr0 3.120380 1_455
Pd1 Zn16 2.529874 1_554
Pd1 Zn14 2.529874 1_555
Pd1 Zn13 2.529884 1_554
Pd1 Zn12 2.529884 1_555
Pd1 Zn7 2.656006 1_554
Pd1 Zn6 2.656006 1_555
Pd1 Zn5 2.656006 1_554
Pd1 Zn3 2.656006 1_555
Pd1 Zr2 3.120381 1_555
Pd1 Zr0 3.120381 1_555
Pd1 Zr3 3.120381 1_554
Pd1 Zr1 3.120381 1_554
Pd2 Zn5 2.601458 1_454
Pd2 Zn3 2.601458 1_545
Pd2 Zn7 2.601458 1_544
Pd2 Zn6 2.601458 1_455
Pd2 Zn4 2.601458 1_445
Pd2 Zn2 2.601458 1_554
Pd2 Zn0 2.601465 1_555
Pd2 Zn1 2.601465 1_444
Se0 Zr3 2.590314 1_555
Se0 Zr1 2.590314 1_555
Se0 Zr0 2.590314 1_555
Se0 Zr2 2.590314 1_555
Se0 Zr5 2.638607 1_555
Se0 Zr4 2.638607 1_555
