# generated using pymatgen
data_TaMn4Si6Tc5
_symmetry_space_group_name_H-M   'P 1'
_cell_length_a   7.08872628
_cell_length_b   6.95985864
_cell_length_c   4.82320440
_cell_angle_alpha   90.00000000
_cell_angle_beta   90.00000000
_cell_angle_gamma   119.40043398
_symmetry_Int_Tables_number   1
_chemical_formula_structural   TaMn4Si6Tc5
_chemical_formula_sum   'Ta1 Mn4 Si6 Tc5'
_cell_volume   207.31331247
_cell_formula_units_Z   1
loop_
 _symmetry_equiv_pos_site_id
 _symmetry_equiv_pos_as_xyz
  1  'x, y, z'
loop_
 _atom_site_type_symbol
 _atom_site_label
 _atom_site_symmetry_multiplicity
 _atom_site_fract_x
 _atom_site_fract_y
 _atom_site_fract_z
 _atom_site_occupancy
  Ta  Ta0  1  0.00000000  0.77311384  0.75000000  1
  Mn  Mn0  1  0.32965109  0.66794284  0.49980173  1
  Mn  Mn1  1  0.67034891  0.33829175  0.00019827  1
  Mn  Mn2  1  0.67034891  0.33829175  0.49980173  1
  Mn  Mn3  1  0.32965109  0.66794284  0.00019827  1
  Si  Si0  1  0.41013905  0.00739028  0.75000000  1
  Si  Si1  1  0.39525397  0.39505739  0.25000000  1
  Si  Si2  1  1.00000000  0.59223840  0.25000000  1
  Si  Si3  1  1.00000000  0.39747885  0.75000000  1
  Si  Si4  1  0.58986095  0.59725123  0.75000000  1
  Si  Si5  1  0.60474603  0.99980343  0.25000000  1
  Tc  Tc0  1  1.00000000  0.23590652  0.25000000  1
  Tc  Tc1  1  0.74986934  0.74372467  0.25000000  1
  Tc  Tc2  1  0.75291024  0.00231106  0.75000000  1
  Tc  Tc3  1  0.24708976  0.24940081  0.75000000  1
  Tc  Tc4  1  0.25013066  0.99385533  0.25000000  1
loop_
_geom_bond_atom_site_label_1
_geom_bond_atom_site_label_2
_geom_bond_distance
_geom_bond_site_symmetry_2
Ta0 Tc2 2.890637 1_465
Ta0 Tc3 2.890637 1_565
Ta0 Tc1 2.940321 1_456
Ta0 Tc1 2.940321 1_455
Ta0 Tc4 2.940321 1_555
Ta0 Tc4 2.940321 1_556
Mn0 Si2 2.445622 1_455
Mn0 Si4 2.447805 1_555
Mn0 Si0 2.457599 1_565
Mn0 Si3 2.478206 1_455
Mn0 Si1 2.478349 1_555
Mn0 Si5 2.483335 1_555
Mn0 Tc4 2.858323 1_555
Mn0 Tc3 2.934360 1_555
Mn0 Tc2 3.003121 1_565
Mn0 Tc0 3.009153 1_455
Mn0 Tc1 3.010083 1_555
Mn1 Si2 2.445622 1_555
Mn1 Si0 2.447805 1_554
Mn1 Si4 2.457599 1_554
Mn1 Si3 2.478206 1_554
Mn1 Si5 2.478349 1_545
Mn1 Si1 2.483335 1_555
Mn1 Tc1 2.858323 1_555
Mn1 Tc2 2.934360 1_554
Mn1 Tc3 3.003121 1_554
Mn1 Tc0 3.009153 1_555
Mn1 Tc4 3.010083 1_545
Mn2 Si2 2.445622 1_555
Mn2 Si0 2.447805 1_555
Mn2 Si4 2.457599 1_555
Mn2 Si3 2.478206 1_555
Mn2 Si5 2.478349 1_545
Mn2 Si1 2.483335 1_555
Mn2 Tc1 2.858323 1_555
Mn2 Tc2 2.934360 1_555
Mn2 Tc3 3.003121 1_555
Mn2 Tc0 3.009153 1_555
Mn2 Tc4 3.010083 1_545
Mn3 Si2 2.445622 1_455
Mn3 Si4 2.447805 1_554
Mn3 Si0 2.457599 1_564
Mn3 Si3 2.478206 1_454
Mn3 Si1 2.478349 1_555
Mn3 Si5 2.483335 1_555
Mn3 Tc4 2.858323 1_555
Mn3 Tc3 2.934360 1_554
Mn3 Tc2 3.003121 1_564
Mn3 Tc0 3.009153 1_455
Mn3 Tc1 3.010083 1_555
Si0 Tc2 2.447359 1_555
Si0 Tc3 2.466653 1_555
Si0 Ta0 2.541068 1_545
Si0 Tc4 2.646947 1_545
Si0 Tc4 2.646947 1_546
Si1 Tc0 2.455642 1_455
Si1 Tc4 2.456616 1_545
Si1 Tc1 2.493710 1_555
Si1 Tc3 2.627024 1_555
Si1 Tc3 2.627024 1_554
Si2 Tc1 2.467985 1_555
Si2 Tc4 2.467985 1_655
Si2 Tc0 2.480020 1_555
Si2 Ta0 2.720399 1_655
Si2 Ta0 2.720399 1_654
Si2 Si3 2.766442 1_555
Si2 Si3 2.766442 1_554
Si3 Tc3 2.429488 1_655
Si3 Tc2 2.429488 1_555
Si3 Ta0 2.614366 1_655
Si3 Tc0 2.660897 1_556
Si3 Tc0 2.660897 1_555
Si4 Tc3 2.447359 1_555
Si4 Tc2 2.466653 1_565
Si4 Ta0 2.541068 1_655
Si4 Tc1 2.646947 1_556
Si4 Tc1 2.646947 1_555
Si5 Tc0 2.455642 1_565
Si5 Tc1 2.456616 1_555
Si5 Tc4 2.493709 1_555
Si5 Tc2 2.627024 1_565
Si5 Tc2 2.627024 1_564
Tc0 Tc3 2.954838 1_655
Tc0 Tc3 2.954838 1_654
Tc0 Tc2 2.954838 1_555
Tc0 Tc2 2.954838 1_554
Tc0 Tc4 2.985746 1_645
Tc0 Tc1 2.985746 1_545
Tc1 Tc2 3.002867 1_565
Tc1 Tc2 3.002867 1_564
Tc1 Tc4 3.089499 1_655
Tc2 Tc3 3.051939 1_655
Tc3 Tc4 3.002867 1_545
Tc3 Tc4 3.002867 1_546
