# generated using pymatgen
data_BaAsRh2Pb
_symmetry_space_group_name_H-M   'P 1'
_cell_length_a   7.49364744
_cell_length_b   7.49364698
_cell_length_c   7.49364646
_cell_angle_alpha   147.56033615
_cell_angle_beta   147.56033699
_cell_angle_gamma   46.53482653
_symmetry_Int_Tables_number   1
_chemical_formula_structural   BaAsRh2Pb
_chemical_formula_sum   'Ba1 As1 Rh2 Pb1'
_cell_volume   120.64647819
_cell_formula_units_Z   1
loop_
 _symmetry_equiv_pos_site_id
 _symmetry_equiv_pos_as_xyz
  1  'x, y, z'
loop_
 _atom_site_type_symbol
 _atom_site_label
 _atom_site_symmetry_multiplicity
 _atom_site_fract_x
 _atom_site_fract_y
 _atom_site_fract_z
 _atom_site_occupancy
  Ba  Ba0  1  0.02101809  0.02101809  1.00000000  1
  As  As0  1  0.64853175  0.64853175  1.00000000  1
  Rh  Rh0  1  0.73498429  0.23498429  0.50000000  1
  Rh  Rh1  1  0.23498429  0.73498429  0.50000000  1
  Pb  Pb0  1  0.36048159  0.36048159  0.00000000  1
loop_
_geom_bond_atom_site_label_1
_geom_bond_atom_site_label_2
_geom_bond_distance
_geom_bond_site_symmetry_2
Ba0 Rh0 3.613866 1_455
Ba0 Rh1 3.613866 1_545
Ba0 Rh1 3.613866 1_556
Ba0 Rh0 3.613867 1_556
Ba0 Pb0 3.694336 1_557
Ba0 Pb0 3.694337 1_445
Ba0 Pb0 3.694337 1_546
Ba0 Pb0 3.694337 1_456
As0 Rh1 2.407930 1_555
As0 Rh0 2.407930 1_555
As0 Rh0 2.407930 1_566
As0 Rh1 2.407930 1_656
As0 Ba0 3.441642 1_666
As0 Ba0 3.441642 1_554
As0 Ba0 3.441643 1_655
As0 Ba0 3.441643 1_565
Pb0 Rh0 2.714205 1_555
Pb0 Rh1 2.714205 1_555
Pb0 Rh1 2.714205 1_544
Pb0 Rh0 2.714205 1_454
