# generated using pymatgen
data_ScIn6IrBr12
_symmetry_space_group_name_H-M   'P 1'
_cell_length_a   9.05420729
_cell_length_b   9.05420703
_cell_length_c   9.05420629
_cell_angle_alpha   105.12866442
_cell_angle_beta   105.12866560
_cell_angle_gamma   105.12867758
_symmetry_Int_Tables_number   1
_chemical_formula_structural   ScIn6IrBr12
_chemical_formula_sum   'Sc1 In6 Ir1 Br12'
_cell_volume   647.12366967
_cell_formula_units_Z   1
loop_
 _symmetry_equiv_pos_site_id
 _symmetry_equiv_pos_as_xyz
  1  'x, y, z'
loop_
 _atom_site_type_symbol
 _atom_site_label
 _atom_site_symmetry_multiplicity
 _atom_site_fract_x
 _atom_site_fract_y
 _atom_site_fract_z
 _atom_site_occupancy
  Sc  Sc0  1  0.50000000  0.50000000  0.50000000  1
  In  In0  1  0.04820007  0.06367608  0.31096072  1
  In  In1  1  0.31096072  0.04820007  0.06367608  1
  In  In2  1  0.06367608  0.31096072  0.04820007  1
  In  In3  1  0.95179993  0.93632392  0.68903928  1
  In  In4  1  0.68903928  0.95179993  0.93632392  1
  In  In5  1  0.93632392  0.68903928  0.95179993  1
  Ir  Ir0  1  0.00000000  0.00000000  0.00000000  1
  Br  Br0  1  0.97952409  0.55979205  0.19475427  1
  Br  Br1  1  0.19475427  0.97952409  0.55979205  1
  Br  Br2  1  0.55979205  0.19475427  0.97952409  1
  Br  Br3  1  0.02047591  0.44020795  0.80524573  1
  Br  Br4  1  0.80524573  0.02047591  0.44020795  1
  Br  Br5  1  0.44020795  0.80524573  0.02047591  1
  Br  Br6  1  0.49391108  0.19519239  0.39208322  1
  Br  Br7  1  0.39208322  0.49391108  0.19519239  1
  Br  Br8  1  0.19519239  0.39208322  0.49391108  1
  Br  Br9  1  0.50608892  0.80480761  0.60791678  1
  Br  Br10  1  0.60791678  0.50608892  0.80480761  1
  Br  Br11  1  0.80480761  0.60791678  0.50608892  1
loop_
_geom_bond_atom_site_label_1
_geom_bond_atom_site_label_2
_geom_bond_distance
_geom_bond_site_symmetry_2
In0 Ir0 2.613411 1_555
In1 Ir0 2.613412 1_555
In2 Ir0 2.613411 1_555
In3 Ir0 2.613411 1_666
In4 Ir0 2.613412 1_666
In5 Ir0 2.613411 1_666
Br0 In2 2.698232 1_655
Br0 In5 2.737674 1_554
Br1 In0 2.698231 1_565
Br1 In3 2.737674 1_455
Br2 In1 2.698231 1_556
Br2 In4 2.737674 1_545
Br3 In5 2.698232 1_455
Br3 In2 2.737674 1_556
Br4 In3 2.698231 1_545
Br4 In0 2.737674 1_655
Br5 In4 2.698231 1_554
Br5 In1 2.737674 1_565
Br6 Sc0 2.656901 1_555
Br6 In1 2.751240 1_555
Br7 Sc0 2.656901 1_555
Br7 In2 2.751240 1_555
Br8 Sc0 2.656901 1_555
Br8 In0 2.751240 1_555
Br9 Sc0 2.656901 1_555
Br9 In4 2.751240 1_555
Br10 Sc0 2.656901 1_555
Br10 In5 2.751240 1_555
Br11 Sc0 2.656901 1_555
Br11 In3 2.751240 1_555
