# generated using pymatgen
data_Zr3SiIr2N
_symmetry_space_group_name_H-M   'P 1'
_cell_length_a   8.47159344
_cell_length_b   8.47159386
_cell_length_c   8.47159325
_cell_angle_alpha   60.00000240
_cell_angle_beta   60.00000072
_cell_angle_gamma   59.99999994
_symmetry_Int_Tables_number   1
_chemical_formula_structural   Zr3SiIr2N
_chemical_formula_sum   'Zr12 Si4 Ir8 N4'
_cell_volume   429.91276474
_cell_formula_units_Z   4
loop_
 _symmetry_equiv_pos_site_id
 _symmetry_equiv_pos_as_xyz
  1  'x, y, z'
loop_
 _atom_site_type_symbol
 _atom_site_label
 _atom_site_symmetry_multiplicity
 _atom_site_fract_x
 _atom_site_fract_y
 _atom_site_fract_z
 _atom_site_occupancy
  Zr  Zr0  1  0.80789386  0.80789386  0.19210614  1
  Zr  Zr1  1  0.19210614  0.19210614  0.80789386  1
  Zr  Zr2  1  0.80789386  0.19210614  0.80789386  1
  Zr  Zr3  1  0.19210614  0.80789386  0.19210614  1
  Zr  Zr4  1  0.19210614  0.80789386  0.80789386  1
  Zr  Zr5  1  0.80789386  0.19210614  0.19210614  1
  Zr  Zr6  1  0.44210614  0.44210614  0.05789386  1
  Zr  Zr7  1  0.05789386  0.05789386  0.44210614  1
  Zr  Zr8  1  0.44210614  0.05789386  0.44210614  1
  Zr  Zr9  1  0.05789386  0.44210614  0.05789386  1
  Zr  Zr10  1  0.05789386  0.44210614  0.44210614  1
  Zr  Zr11  1  0.44210614  0.05789386  0.05789386  1
  Si  Si0  1  0.12500000  0.62500000  0.62500000  1
  Si  Si1  1  0.62500000  0.12500000  0.62500000  1
  Si  Si2  1  0.62500000  0.62500000  0.12500000  1
  Si  Si3  1  0.62500000  0.62500000  0.62500000  1
  Ir  Ir0  1  0.75080885  0.41639772  0.41639772  1
  Ir  Ir1  1  0.41639772  0.75080885  0.41639772  1
  Ir  Ir2  1  0.41639772  0.41639772  0.75080885  1
  Ir  Ir3  1  0.41639772  0.41639772  0.41639772  1
  Ir  Ir4  1  0.49919115  0.83360228  0.83360228  1
  Ir  Ir5  1  0.83360228  0.49919115  0.83360228  1
  Ir  Ir6  1  0.83360228  0.83360228  0.49919115  1
  Ir  Ir7  1  0.83360228  0.83360228  0.83360228  1
  N  N0  1  0.62500000  0.12500000  0.12500000  1
  N  N1  1  0.12500000  0.62500000  0.12500000  1
  N  N2  1  0.12500000  0.12500000  0.62500000  1
  N  N3  1  0.12500000  0.12500000  0.12500000  1
loop_
_geom_bond_atom_site_label_1
_geom_bond_atom_site_label_2
_geom_bond_distance
_geom_bond_site_symmetry_2
Si0 Zr9 3.047423 1_556
Si0 Zr3 3.047423 1_555
Si0 Zr4 3.047423 1_555
Si0 Zr10 3.047423 1_555
Si0 Zr7 3.047424 1_565
Si0 Zr1 3.047424 1_555
Si1 Zr2 3.047423 1_555
Si1 Zr8 3.047423 1_555
Si1 Zr11 3.047423 1_556
Si1 Zr5 3.047423 1_555
Si1 Zr7 3.047423 1_655
Si1 Zr1 3.047423 1_555
Si2 Zr9 3.047423 1_655
Si2 Zr3 3.047423 1_555
Si2 Zr0 3.047423 1_555
Si2 Zr6 3.047423 1_555
Si2 Zr11 3.047424 1_565
Si2 Zr5 3.047424 1_555
Si3 Zr10 3.047423 1_655
Si3 Zr4 3.047423 1_555
Si3 Zr0 3.047423 1_555
Si3 Zr6 3.047423 1_556
Si3 Zr8 3.047424 1_565
Si3 Zr2 3.047424 1_555
Ir0 Si3 2.595746 1_555
Ir0 Si2 2.595760 1_555
Ir0 Si1 2.595760 1_555
Ir0 Zr10 2.836065 1_655
Ir0 Zr9 2.836075 1_655
Ir0 Zr7 2.836075 1_655
Ir0 Zr2 3.037633 1_555
Ir0 Zr0 3.037633 1_555
Ir0 Zr5 3.037648 1_555
Ir1 Si3 2.595746 1_555
Ir1 Si2 2.595760 1_555
Ir1 Si0 2.595760 1_555
Ir1 Zr8 2.836065 1_565
Ir1 Zr7 2.836075 1_565
Ir1 Zr11 2.836075 1_565
Ir1 Zr4 3.037633 1_555
Ir1 Zr0 3.037633 1_555
Ir1 Zr3 3.037648 1_555
Ir2 Si3 2.595746 1_555
Ir2 Si0 2.595760 1_555
Ir2 Si1 2.595760 1_555
Ir2 Zr6 2.836065 1_556
Ir2 Zr9 2.836075 1_556
Ir2 Zr11 2.836075 1_556
Ir2 Zr2 3.037633 1_555
Ir2 Zr4 3.037633 1_555
Ir2 Zr1 3.037648 1_555
Ir3 Si0 2.595751 1_555
Ir3 Si1 2.595751 1_555
Ir3 Si2 2.595751 1_555
Ir3 Zr6 2.836082 1_555
Ir3 Zr10 2.836082 1_555
Ir3 Zr8 2.836082 1_555
Ir3 Zr5 3.037640 1_555
Ir3 Zr1 3.037640 1_555
Ir3 Zr3 3.037640 1_555
Ir4 Si3 2.595746 1_555
Ir4 Si2 2.595760 1_556
Ir4 Si1 2.595760 1_565
Ir4 Zr4 2.836065 1_555
Ir4 Zr3 2.836075 1_556
Ir4 Zr1 2.836075 1_565
Ir4 Zr8 3.037633 1_565
Ir4 Zr6 3.037633 1_556
Ir4 Zr11 3.037648 1_566
Ir5 Si3 2.595746 1_555
Ir5 Si2 2.595760 1_556
Ir5 Si0 2.595760 1_655
Ir5 Zr2 2.836065 1_555
Ir5 Zr1 2.836075 1_655
Ir5 Zr5 2.836075 1_556
Ir5 Zr10 3.037633 1_655
Ir5 Zr6 3.037633 1_556
Ir5 Zr9 3.037648 1_656
Ir6 Si3 2.595746 1_555
Ir6 Si0 2.595760 1_655
Ir6 Si1 2.595760 1_565
Ir6 Zr0 2.836065 1_555
Ir6 Zr3 2.836075 1_655
Ir6 Zr5 2.836075 1_565
Ir6 Zr8 3.037633 1_565
Ir6 Zr10 3.037633 1_655
Ir6 Zr7 3.037648 1_665
Ir7 Si0 2.595751 1_655
Ir7 Si1 2.595751 1_565
Ir7 Si2 2.595751 1_556
Ir7 Zr0 2.836082 1_556
Ir7 Zr4 2.836082 1_655
Ir7 Zr2 2.836082 1_565
Ir7 Zr11 3.037640 1_566
Ir7 Zr7 3.037640 1_665
Ir7 Zr9 3.037640 1_656
N0 Zr5 2.265363 1_555
N0 Zr11 2.265363 1_555
N0 Zr8 2.265363 1_555
N0 Zr2 2.265363 1_554
N0 Zr6 2.265363 1_555
N0 Zr0 2.265363 1_545
N1 Zr6 2.265363 1_555
N1 Zr0 2.265363 1_455
N1 Zr10 2.265363 1_555
N1 Zr4 2.265363 1_554
N1 Zr3 2.265363 1_555
N1 Zr9 2.265363 1_555
N2 Zr1 2.265363 1_555
N2 Zr7 2.265363 1_555
N2 Zr8 2.265363 1_555
N2 Zr2 2.265363 1_455
N2 Zr10 2.265363 1_555
N2 Zr4 2.265363 1_545
N3 Zr7 2.265363 1_555
N3 Zr1 2.265363 1_554
N3 Zr11 2.265363 1_555
N3 Zr5 2.265363 1_455
N3 Zr9 2.265363 1_555
N3 Zr3 2.265363 1_545
