# generated using pymatgen
data_Ta7Nb3(B2As)2
_symmetry_space_group_name_H-M   'P 1'
_cell_length_a   7.30454524
_cell_length_b   7.30454537
_cell_length_c   7.30460871
_cell_angle_alpha   129.32233305
_cell_angle_beta   129.32233750
_cell_angle_gamma   74.48567542
_symmetry_Int_Tables_number   1
_chemical_formula_structural   Ta7Nb3(B2As)2
_chemical_formula_sum   'Ta7 Nb3 B4 As2'
_cell_volume   227.31413323
_cell_formula_units_Z   1
loop_
 _symmetry_equiv_pos_site_id
 _symmetry_equiv_pos_as_xyz
  1  'x, y, z'
loop_
 _atom_site_type_symbol
 _atom_site_label
 _atom_site_symmetry_multiplicity
 _atom_site_fract_x
 _atom_site_fract_y
 _atom_site_fract_z
 _atom_site_occupancy
  Ta  Ta0  1  0.69690268  0.19690268  0.16974952  1
  Ta  Ta1  1  0.47310533  0.30303854  0.49992917  1
  Ta  Ta2  1  0.80303854  0.97310533  0.49992917  1
  Ta  Ta3  1  0.97214720  0.47214720  0.16855986  1
  Ta  Ta4  1  0.30312592  0.80312592  0.83050569  1
  Ta  Ta5  1  0.49896884  0.49965700  0.99961407  1
  Ta  Ta6  1  0.99965700  0.99896884  0.99961407  1
  Nb  Nb0  1  0.52704012  0.69607484  0.50033460  1
  Nb  Nb1  1  0.19607484  0.02704012  0.50033460  1
  Nb  Nb2  1  0.02646240  0.52646240  0.83072840  1
  B  B0  1  0.88210146  0.61866014  0.49845143  1
  B  B1  1  0.11866014  0.38210146  0.49845143  1
  B  B2  1  0.38264306  0.88264306  0.26155061  1
  B  B3  1  0.62185155  0.12185155  0.74171858  1
  As  As0  1  0.24953737  0.24868554  0.00026340  1
  As  As1  1  0.74868554  0.74953737  0.00026340  1
loop_
_geom_bond_atom_site_label_1
_geom_bond_atom_site_label_2
_geom_bond_distance
_geom_bond_site_symmetry_2
B0 B1 2.091496 1_655
B0 Ta3 2.397608 1_555
B0 Ta4 2.403689 1_655
B0 Ta0 2.413360 1_555
B0 Nb2 2.429937 1_655
B0 Ta2 2.491882 1_555
B0 Ta5 2.495641 1_554
B0 Ta6 2.501898 1_555
B0 Nb0 2.509443 1_555
B1 Ta3 2.397608 1_455
B1 Ta4 2.403689 1_555
B1 Ta0 2.413360 1_455
B1 Nb2 2.429937 1_555
B1 Ta1 2.491882 1_555
B1 Ta6 2.495641 1_444
B1 Ta5 2.501898 1_555
B1 Nb1 2.509443 1_555
B2 B3 2.123037 1_565
B2 Ta2 2.397712 1_555
B2 Ta1 2.397712 1_565
B2 Nb0 2.433932 1_555
B2 Nb1 2.433932 1_565
B2 Ta4 2.476571 1_554
B2 Ta6 2.492822 1_454
B2 Ta5 2.492822 1_554
B2 Nb2 2.511836 1_554
B3 Ta1 2.410951 1_555
B3 Ta2 2.410951 1_545
B3 Nb1 2.432284 1_555
B3 Nb0 2.432284 1_545
B3 Ta3 2.469068 1_556
B3 Ta0 2.488539 1_556
B3 Ta6 2.489884 1_545
B3 Ta5 2.489884 1_555
As0 Ta4 2.664996 1_544
As0 Ta1 2.665010 1_555
As0 Ta3 2.669382 1_455
As0 Ta2 2.669812 1_444
As0 Nb1 2.673398 1_554
As0 Ta0 2.675681 1_555
As0 Nb0 2.676254 1_555
As0 Nb2 2.676593 1_554
As0 Ta6 2.901376 1_444
As0 Ta5 2.913621 1_554
As1 Ta4 2.664996 1_554
As1 Ta2 2.665011 1_555
As1 Ta3 2.669382 1_555
As1 Ta1 2.669812 1_554
As1 Nb0 2.673398 1_554
As1 Ta0 2.675681 1_565
As1 Nb1 2.676254 1_665
As1 Nb2 2.676593 1_654
As1 Ta5 2.901376 1_554
As1 Ta6 2.913621 1_554
