# generated using pymatgen
data_Zr2Ta2TiIr
_symmetry_space_group_name_H-M   'P 1'
_cell_length_a   5.33433059
_cell_length_b   5.34694895
_cell_length_c   5.33433126
_cell_angle_alpha   62.65069674
_cell_angle_beta   62.72906292
_cell_angle_gamma   62.65070819
_symmetry_Int_Tables_number   1
_chemical_formula_structural   Zr2Ta2TiIr
_chemical_formula_sum   'Zr2 Ta2 Ti1 Ir1'
_cell_volume   113.99395862
_cell_formula_units_Z   1
loop_
 _symmetry_equiv_pos_site_id
 _symmetry_equiv_pos_as_xyz
  1  'x, y, z'
loop_
 _atom_site_type_symbol
 _atom_site_label
 _atom_site_symmetry_multiplicity
 _atom_site_fract_x
 _atom_site_fract_y
 _atom_site_fract_z
 _atom_site_occupancy
  Zr  Zr0  1  0.50046318  0.49953541  0.50046318  1
  Zr  Zr1  1  0.74953682  0.75046459  0.74953682  1
  Ta  Ta0  1  0.62500000  0.12500000  0.12500000  1
  Ta  Ta1  1  0.12500000  0.12500000  0.62500000  1
  Ti  Ti0  1  0.12500000  0.62500000  0.12500000  1
  Ir  Ir0  1  0.12500000  0.12500000  0.12500000  1
loop_
_geom_bond_atom_site_label_1
_geom_bond_atom_site_label_2
_geom_bond_distance
_geom_bond_site_symmetry_2
Zr0 Zr1 3.197552 1_555
Zr0 Zr1 3.378034 1_545
Zr0 Zr1 3.381357 1_455
Zr0 Zr1 3.381357 1_554
Ta0 Ta1 2.776419 1_654
Ta0 Ta1 2.776419 1_555
Ta0 Ti0 2.776589 1_555
Ta0 Ti0 2.776589 1_645
Ta0 Zr0 3.115587 1_555
Ta0 Zr1 3.115587 1_544
Ta0 Zr1 3.197846 1_545
Ta0 Zr0 3.197846 1_554
Ta0 Zr1 3.210115 1_554
Ta0 Zr0 3.210115 1_545
Ta1 Ti0 2.776588 1_546
Ta1 Ti0 2.776588 1_555
Ta1 Zr0 3.115586 1_555
Ta1 Zr1 3.115586 1_445
Ta1 Zr1 3.197846 1_545
Ta1 Zr0 3.197846 1_455
Ta1 Zr1 3.210115 1_455
Ta1 Zr0 3.210115 1_545
Ti0 Zr0 3.111229 1_555
Ti0 Zr1 3.111229 1_454
Ti0 Zr1 3.203839 1_554
Ti0 Zr0 3.203839 1_455
Ti0 Zr1 3.203840 1_455
Ti0 Zr0 3.203840 1_554
Ir0 Ta0 2.667165 1_455
Ir0 Ta0 2.667165 1_555
Ir0 Ta1 2.667166 1_555
Ir0 Ta1 2.667166 1_554
Ir0 Ti0 2.673474 1_555
Ir0 Ti0 2.673474 1_545
Ir0 Zr1 3.249812 1_445
Ir0 Zr0 3.249812 1_554
Ir0 Zr0 3.249812 1_455
Ir0 Zr1 3.249812 1_544
Ir0 Zr0 3.251830 1_545
Ir0 Zr1 3.251830 1_454
