# generated using pymatgen
data_Y20Cd3Tc2Pd3
_symmetry_space_group_name_H-M   'P 1'
_cell_length_a   9.53192610
_cell_length_b   9.53192456
_cell_length_c   9.68771376
_cell_angle_alpha   90.00000000
_cell_angle_beta   90.00000000
_cell_angle_gamma   119.99999846
_symmetry_Int_Tables_number   1
_chemical_formula_structural   Y20Cd3Tc2Pd3
_chemical_formula_sum   'Y20 Cd3 Tc2 Pd3'
_cell_volume   762.27767362
_cell_formula_units_Z   1
loop_
 _symmetry_equiv_pos_site_id
 _symmetry_equiv_pos_as_xyz
  1  'x, y, z'
loop_
 _atom_site_type_symbol
 _atom_site_label
 _atom_site_symmetry_multiplicity
 _atom_site_fract_x
 _atom_site_fract_y
 _atom_site_fract_z
 _atom_site_occupancy
  Y  Y0  1  0.00000000  0.00000000  0.44563903  1
  Y  Y1  1  0.00000000  0.00000000  0.05436097  1
  Y  Y2  1  0.20900398  0.79099602  0.43890108  1
  Y  Y3  1  0.20900398  0.41800796  0.43890108  1
  Y  Y4  1  0.58199204  0.79099602  0.43890108  1
  Y  Y5  1  0.79237089  0.20762911  0.55903650  1
  Y  Y6  1  0.79237089  0.58474278  0.55903650  1
  Y  Y7  1  0.41525722  0.20762911  0.55903650  1
  Y  Y8  1  0.79237089  0.20762911  0.94096350  1
  Y  Y9  1  0.79237089  0.58474278  0.94096350  1
  Y  Y10  1  0.41525722  0.20762911  0.94096350  1
  Y  Y11  1  0.20900398  0.79099602  0.06109892  1
  Y  Y12  1  0.20900398  0.41800796  0.06109892  1
  Y  Y13  1  0.58199204  0.79099602  0.06109892  1
  Y  Y14  1  0.53941075  0.46058925  0.25000000  1
  Y  Y15  1  0.53941075  0.07882250  0.25000000  1
  Y  Y16  1  0.92117750  0.46058925  0.25000000  1
  Y  Y17  1  0.46012367  0.53987633  0.75000000  1
  Y  Y18  1  0.46012367  0.92024734  0.75000000  1
  Y  Y19  1  0.07975266  0.53987633  0.75000000  1
  Cd  Cd0  1  0.10652684  0.89347316  0.75000000  1
  Cd  Cd1  1  0.10652684  0.21305167  0.75000000  1
  Cd  Cd2  1  0.78694833  0.89347316  0.75000000  1
  Tc  Tc0  1  0.33333300  0.66666700  0.25000000  1
  Tc  Tc1  1  0.66666700  0.33333300  0.75000000  1
  Pd  Pd0  1  0.86821557  0.13178443  0.25000000  1
  Pd  Pd1  1  0.86821557  0.73643314  0.25000000  1
  Pd  Pd2  1  0.26356686  0.13178443  0.25000000  1
loop_
_geom_bond_atom_site_label_1
_geom_bond_atom_site_label_2
_geom_bond_distance
_geom_bond_site_symmetry_2
Y10 Y17 3.504370 1_555
Y10 Y18 3.504378 1_545
Y10 Y14 3.650216 1_556
Y10 Y15 3.650216 1_556
Y11 Y16 3.486294 1_455
Y11 Y15 3.486294 1_565
Y11 Y19 3.658092 1_554
Y11 Y18 3.658092 1_554
Y12 Y14 3.486291 1_555
Y12 Y16 3.486299 1_455
Y12 Y19 3.658092 1_554
Y12 Y17 3.658092 1_554
Y13 Y14 3.486290 1_555
Y13 Y15 3.486299 1_565
Y13 Y17 3.658092 1_554
Y13 Y18 3.658092 1_554
Y14 Y4 3.486290 1_555
Y14 Y3 3.486291 1_555
Y14 Y15 3.638972 1_555
Y14 Y16 3.638972 1_555
Y14 Y7 3.650216 1_555
Y14 Y6 3.650216 1_555
Y14 Y9 3.650216 1_554
Y15 Y2 3.486294 1_545
Y15 Y4 3.486299 1_545
Y15 Y16 3.638972 1_555
Y15 Y7 3.650216 1_555
Y15 Y5 3.650216 1_555
Y15 Y8 3.650216 1_554
Y16 Y2 3.486294 1_655
Y16 Y3 3.486299 1_655
Y16 Y5 3.650216 1_555
Y16 Y8 3.650216 1_554
Y16 Y6 3.650216 1_555
Y16 Y9 3.650216 1_554
Y17 Y7 3.504370 1_555
Y17 Y9 3.504371 1_555
Y17 Y6 3.504371 1_555
Y17 Y18 3.625668 1_555
Y17 Y19 3.625668 1_555
Y17 Y4 3.658092 1_555
Y17 Y3 3.658092 1_555
Y18 Y8 3.504374 1_565
Y18 Y5 3.504374 1_565
Y18 Y7 3.504378 1_565
Y18 Y19 3.625668 1_555
Y18 Y4 3.658092 1_555
Y18 Y2 3.658092 1_555
Y19 Y8 3.504374 1_455
Y19 Y5 3.504374 1_455
Y19 Y9 3.504379 1_455
Y19 Y6 3.504379 1_455
Y19 Y2 3.658092 1_555
Y19 Y3 3.658092 1_555
Cd0 Cd1 3.046198 1_565
Cd0 Cd2 3.046199 1_455
Cd0 Y19 3.250377 1_555
Cd0 Y18 3.250377 1_555
Cd0 Y1 3.433244 1_566
Cd0 Y0 3.433244 1_565
Cd0 Y11 3.456249 1_556
Cd0 Y2 3.456249 1_555
Cd0 Y10 3.498200 1_565
Cd0 Y7 3.498200 1_565
Cd0 Y9 3.498200 1_455
Cd0 Y6 3.498200 1_455
Cd1 Cd2 3.046199 1_445
Cd1 Y17 3.250385 1_555
Cd1 Y19 3.250396 1_555
Cd1 Y1 3.433236 1_556
Cd1 Y0 3.433236 1_555
Cd1 Y12 3.456257 1_556
Cd1 Y3 3.456257 1_555
Cd1 Y10 3.498188 1_555
Cd1 Y7 3.498188 1_555
Cd1 Y8 3.498212 1_455
Cd1 Y5 3.498212 1_455
Cd2 Y17 3.250385 1_555
Cd2 Y18 3.250396 1_555
Cd2 Y1 3.433236 1_666
Cd2 Y0 3.433236 1_665
Cd2 Y13 3.456257 1_556
Cd2 Y4 3.456257 1_555
Cd2 Y9 3.498188 1_555
Cd2 Y6 3.498188 1_555
Cd2 Y8 3.498212 1_565
Cd2 Y5 3.498212 1_565
Tc0 Y2 2.749968 1_555
Tc0 Y11 2.749968 1_555
Tc0 Y3 2.749974 1_555
Tc0 Y12 2.749974 1_555
Tc0 Y4 2.749974 1_555
Tc0 Y13 2.749974 1_555
Tc0 Y15 3.402298 1_565
Tc0 Y14 3.402298 1_555
Tc0 Y16 3.402298 1_455
Tc1 Y8 2.780207 1_555
Tc1 Y5 2.780207 1_555
Tc1 Y9 2.780219 1_555
Tc1 Y6 2.780219 1_555
Tc1 Y10 2.780219 1_555
Tc1 Y7 2.780219 1_555
Tc1 Y18 3.409976 1_545
Tc1 Y19 3.409977 1_655
Tc1 Y17 3.409985 1_555
Pd0 Y0 2.885473 1_655
Pd0 Y1 2.885473 1_655
Pd0 Y16 2.914703 1_555
Pd0 Y15 2.914704 1_555
Pd0 Y5 3.245171 1_555
Pd0 Y8 3.245171 1_554
Pd0 Y4 3.532971 1_545
Pd0 Y13 3.532971 1_545
Pd0 Y3 3.532971 1_655
Pd0 Y12 3.532971 1_655
Pd1 Y0 2.885460 1_665
Pd1 Y1 2.885460 1_665
Pd1 Y14 2.914707 1_555
Pd1 Y16 2.914713 1_555
Pd1 Y6 3.245174 1_555
Pd1 Y9 3.245174 1_554
Pd1 Y4 3.532961 1_555
Pd1 Y13 3.532961 1_555
Pd1 Y2 3.532977 1_655
Pd1 Y11 3.532977 1_655
Pd2 Y0 2.885460 1_555
Pd2 Y1 2.885460 1_555
Pd2 Y14 2.914707 1_555
Pd2 Y15 2.914713 1_555
Pd2 Y7 3.245174 1_555
Pd2 Y10 3.245174 1_554
Pd2 Y3 3.532961 1_555
Pd2 Y12 3.532961 1_555
Pd2 Y2 3.532977 1_545
Pd2 Y11 3.532977 1_545
