# generated using pymatgen
data_Hf2PtBr12
_symmetry_space_group_name_H-M   'P 1'
_cell_length_a   9.16893697
_cell_length_b   9.16893618
_cell_length_c   6.82920458
_cell_angle_alpha   71.88810997
_cell_angle_beta   71.88811465
_cell_angle_gamma   79.87426648
_symmetry_Int_Tables_number   1
_chemical_formula_structural   Hf2PtBr12
_chemical_formula_sum   'Hf2 Pt1 Br12'
_cell_volume   516.64665204
_cell_formula_units_Z   1
loop_
 _symmetry_equiv_pos_site_id
 _symmetry_equiv_pos_as_xyz
  1  'x, y, z'
loop_
 _atom_site_type_symbol
 _atom_site_label
 _atom_site_symmetry_multiplicity
 _atom_site_fract_x
 _atom_site_fract_y
 _atom_site_fract_z
 _atom_site_occupancy
  Hf  Hf0  1  0.27279125  0.27279125  0.71694217  1
  Hf  Hf1  1  0.72720875  0.72720875  0.28305783  1
  Pt  Pt0  1  0.00000000  0.00000000  0.00000000  1
  Br  Br0  1  0.96371184  0.25334285  0.74069153  1
  Br  Br1  1  0.25334285  0.96371184  0.74069153  1
  Br  Br2  1  0.03628816  0.74665715  0.25930847  1
  Br  Br3  1  0.74665715  0.03628816  0.25930847  1
  Br  Br4  1  0.20790262  0.53120009  0.77442654  1
  Br  Br5  1  0.53120009  0.20790262  0.77442654  1
  Br  Br6  1  0.79209738  0.46879991  0.22557346  1
  Br  Br7  1  0.46879991  0.79209738  0.22557346  1
  Br  Br8  1  0.13433850  0.13433850  0.15114864  1
  Br  Br9  1  0.86566150  0.86566150  0.84885136  1
  Br  Br10  1  0.65731758  0.65731758  0.67955877  1
  Br  Br11  1  0.34268242  0.34268242  0.32044123  1
loop_
_geom_bond_atom_site_label_1
_geom_bond_atom_site_label_2
_geom_bond_distance
_geom_bond_site_symmetry_2
Br0 Pt0 2.485857 1_656
Br0 Hf0 2.821913 1_655
Br1 Pt0 2.485858 1_566
Br1 Hf0 2.821913 1_565
Br2 Pt0 2.485857 1_565
Br2 Hf1 2.821913 1_455
Br3 Pt0 2.485858 1_655
Br3 Hf1 2.821913 1_545
Br4 Hf0 2.461557 1_555
Br5 Hf0 2.461557 1_555
Br6 Hf1 2.461557 1_555
Br7 Hf1 2.461557 1_555
Br8 Pt0 2.492860 1_555
Br8 Hf0 2.811001 1_554
Br9 Pt0 2.492860 1_666
Br9 Hf1 2.811001 1_556
Br10 Hf1 2.477918 1_555
Br11 Hf0 2.477918 1_555
