# generated using pymatgen
data_Na7Zr6F31
_symmetry_space_group_name_H-M   'P 1'
_cell_length_a   8.70102783
_cell_length_b   8.70102783
_cell_length_c   8.70102741
_cell_angle_alpha   107.27714793
_cell_angle_beta   107.27714793
_cell_angle_gamma   107.27714937
_symmetry_Int_Tables_number   1
_chemical_formula_structural   Na7Zr6F31
_chemical_formula_sum   'Na7 Zr6 F31'
_cell_volume   544.40112177
_cell_formula_units_Z   1
loop_
 _symmetry_equiv_pos_site_id
 _symmetry_equiv_pos_as_xyz
  1  'x, y, z'
loop_
 _atom_site_type_symbol
 _atom_site_label
 _atom_site_symmetry_multiplicity
 _atom_site_fract_x
 _atom_site_fract_y
 _atom_site_fract_z
 _atom_site_occupancy
  Na  Na0  1  0.57597200  0.19196600  0.71865100  1
  Na  Na1  1  0.81280700  0.28519600  0.43654700  1
  Na  Na2  1  0.28519600  0.43654700  0.81280700  1
  Na  Na3  1  0.50264000  0.50264000  0.50264000  1
  Na  Na4  1  0.71865100  0.57597200  0.19196600  1
  Na  Na5  1  0.19196600  0.71865100  0.57597200  1
  Na  Na6  1  0.43654700  0.81280700  0.28519600  1
  Zr  Zr0  1  0.12837000  0.04133900  0.37633200  1
  Zr  Zr1  1  0.37633200  0.12837000  0.04133900  1
  Zr  Zr2  1  0.95711700  0.64167700  0.87358400  1
  Zr  Zr3  1  0.04133900  0.37633200  0.12837000  1
  Zr  Zr4  1  0.64167700  0.87358400  0.95711700  1
  Zr  Zr5  1  0.87358400  0.95711700  0.64167700  1
  F  F0  1  0.94900900  0.21053800  0.84578800  1
  F  F1  1  0.70285400  0.05534800  0.52385700  1
  F  F2  1  0.15772200  0.04621300  0.79141600  1
  F  F3  1  0.55726200  0.02301100  0.15395400  1
  F  F4  1  0.48012400  0.30748900  0.94793700  1
  F  F5  1  0.84865700  0.45217100  0.98456900  1
  F  F6  1  0.79141600  0.15772200  0.04621300  1
  F  F7  1  0.30300700  0.09507600  0.24949900  1
  F  F8  1  0.02301100  0.15395400  0.55726200  1
  F  F9  1  0.34159800  0.26996600  0.57756700  1
  F  F10  1  0.73578100  0.42020400  0.66263500  1
  F  F11  1  0.57756700  0.34159800  0.26996600  1
  F  F12  1  0.94793700  0.48012400  0.30748900  1
  F  F13  1  0.09507600  0.24949900  0.30300700  1
  F  F14  1  0.72013700  0.66070500  0.89082100  1
  F  F15  1  0.24949900  0.30300700  0.09507600  1
  F  F16  1  0.89082100  0.72013700  0.66070500  1
  F  F17  1  0.05534800  0.52385700  0.70285400  1
  F  F18  1  0.42020400  0.66263500  0.73578100  1
  F  F19  1  0.94028500  0.94028500  0.94028500  1
  F  F20  1  0.26996600  0.57756700  0.34159800  1
  F  F21  1  0.66263500  0.73578100  0.42020400  1
  F  F22  1  0.98456900  0.84865700  0.45217100  1
  F  F23  1  0.66070500  0.89082100  0.72013700  1
  F  F24  1  0.21053800  0.84578800  0.94900900  1
  F  F25  1  0.15395400  0.55726200  0.02301100  1
  F  F26  1  0.52385700  0.70285400  0.05534800  1
  F  F27  1  0.45217100  0.98456900  0.84865700  1
  F  F28  1  0.84578800  0.94900900  0.21053800  1
  F  F29  1  0.30748900  0.94793700  0.48012400  1
  F  F30  1  0.04621300  0.79141600  0.15772200  1
loop_
_geom_bond_atom_site_label_1
_geom_bond_atom_site_label_2
_geom_bond_distance
_geom_bond_site_symmetry_2
F0 Zr5 2.137509 1_545
F0 Zr3 2.191661 1_656
F1 Zr5 2.087660 1_545
F1 Na1 2.385315 1_555
F1 Na6 2.401917 1_545
F1 Na0 2.489743 1_555
F2 Zr1 2.161012 1_556
F2 Zr5 2.181521 1_445
F3 Zr1 2.180232 1_555
F3 Zr4 2.270460 1_544
F3 Na6 2.562112 1_545
F3 Na1 2.569401 1_555
F4 Zr1 2.063322 1_556
F4 Na4 2.414404 1_556
F4 Na0 2.445622 1_555
F4 Na2 2.500223 1_555
F5 Zr3 2.171010 1_656
F5 Zr2 2.259389 1_555
F5 Na4 2.545200 1_556
F5 Na0 2.558445 1_555
F6 Zr3 2.161013 1_655
F6 Zr4 2.181521 1_544
F7 Zr0 2.150812 1_555
F7 Zr1 2.158634 1_555
F8 Zr0 2.180231 1_555
F8 Zr5 2.270460 1_445
F8 Na1 2.562112 1_455
F8 Na2 2.569401 1_555
F9 Zr0 2.067475 1_555
F9 Na2 2.405859 1_555
F9 Na0 2.440544 1_555
F9 Na3 2.475614 1_555
F10 Zr2 2.094358 1_555
F10 Na0 2.334979 1_555
F10 Na1 2.361592 1_555
F10 Na3 2.519433 1_555
F11 Zr1 2.067475 1_555
F11 Na1 2.405859 1_555
F11 Na4 2.440544 1_555
F11 Na3 2.475614 1_555
F12 Zr3 2.063322 1_655
F12 Na5 2.414404 1_655
F12 Na4 2.445622 1_555
F12 Na1 2.500223 1_555
F13 Zr3 2.150812 1_555
F13 Zr0 2.158634 1_555
F14 Zr4 2.140106 1_555
F14 Zr2 2.161792 1_555
F15 Zr1 2.150812 1_555
F15 Zr3 2.158634 1_555
F16 Zr2 2.140106 1_555
F16 Zr5 2.161792 1_555
F17 Zr2 2.087660 1_455
F17 Na2 2.385315 1_555
F17 Na1 2.401917 1_455
F17 Na5 2.489743 1_555
F18 Zr4 2.094358 1_555
F18 Na5 2.334979 1_555
F18 Na2 2.361593 1_555
F18 Na3 2.519433 1_555
F19 Zr5 2.547495 1_555
F19 Zr4 2.547496 1_555
F19 Zr2 2.547496 1_555
F20 Zr3 2.067475 1_555
F20 Na6 2.405859 1_555
F20 Na5 2.440544 1_555
F20 Na3 2.475614 1_555
F21 Zr5 2.094358 1_555
F21 Na4 2.334979 1_555
F21 Na6 2.361593 1_555
F21 Na3 2.519433 1_555
F22 Zr0 2.171010 1_665
F22 Zr5 2.259389 1_555
F22 Na5 2.545201 1_655
F22 Na4 2.558445 1_555
F23 Zr5 2.140106 1_555
F23 Zr4 2.161792 1_555
F24 Zr2 2.137509 1_455
F24 Zr1 2.191662 1_566
F25 Zr3 2.180231 1_555
F25 Zr2 2.270460 1_454
F25 Na2 2.562112 1_554
F25 Na6 2.569401 1_555
F26 Zr4 2.087660 1_554
F26 Na6 2.385315 1_555
F26 Na2 2.401917 1_554
F26 Na4 2.489743 1_555
F27 Zr1 2.171010 1_566
F27 Zr4 2.259389 1_555
F27 Na0 2.545200 1_565
F27 Na5 2.558445 1_555
F28 Zr4 2.137509 1_554
F28 Zr0 2.191662 1_665
F29 Zr0 2.063322 1_565
F29 Na0 2.414404 1_565
F29 Na5 2.445622 1_555
F29 Na6 2.500223 1_555
F30 Zr0 2.161012 1_565
F30 Zr2 2.181521 1_454
