# generated using pymatgen
data_Rb2Cd(GeO3)2
_symmetry_space_group_name_H-M   'P 1'
_cell_length_a   6.17539902
_cell_length_b   6.17539950
_cell_length_c   11.17028859
_cell_angle_alpha   90.00000000
_cell_angle_beta   90.00000000
_cell_angle_gamma   65.06987025
_symmetry_Int_Tables_number   1
_chemical_formula_structural   Rb2Cd(GeO3)2
_chemical_formula_sum   'Rb4 Cd2 Ge4 O12'
_cell_volume   386.29292598
_cell_formula_units_Z   2
loop_
 _symmetry_equiv_pos_site_id
 _symmetry_equiv_pos_as_xyz
  1  'x, y, z'
loop_
 _atom_site_type_symbol
 _atom_site_label
 _atom_site_symmetry_multiplicity
 _atom_site_fract_x
 _atom_site_fract_y
 _atom_site_fract_z
 _atom_site_occupancy
  Rb  Rb0  1  0.56394325  0.78083338  0.17349503  1
  Rb  Rb1  1  0.21916662  0.43605575  0.32650497  1
  Rb  Rb2  1  0.43605575  0.21916662  0.67349503  1
  Rb  Rb3  1  0.78083338  0.56394325  0.82650497  1
  Cd  Cd0  1  0.30556940  0.30556940  0.00000000  1
  Cd  Cd1  1  0.69443160  0.69443160  0.50000000  1
  Ge  Ge0  1  0.86377028  0.15953270  0.11532001  1
  Ge  Ge1  1  0.84046630  0.13622872  0.38468099  1
  Ge  Ge2  1  0.13622872  0.84046630  0.61531801  1
  Ge  Ge3  1  0.15953270  0.86377028  0.88468199  1
  O  O0  1  0.93864417  0.93864417  0.00000000  1
  O  O1  1  0.96025590  0.37835384  0.08243808  1
  O  O2  1  0.55800012  0.26914782  0.13930347  1
  O  O3  1  0.00415391  0.99584609  0.25000000  1
  O  O4  1  0.73085218  0.44199988  0.36069753  1
  O  O5  1  0.62164616  0.03974510  0.41756192  1
  O  O6  1  0.06135783  0.06135783  0.50000000  1
  O  O7  1  0.03974510  0.62164616  0.58243708  1
  O  O8  1  0.44199988  0.73085218  0.63930247  1
  O  O9  1  0.99584609  0.00415391  0.75000100  1
  O  O10  1  0.26914782  0.55800012  0.86069753  1
  O  O11  1  0.37835384  0.96025590  0.91756192  1
loop_
_geom_bond_atom_site_label_1
_geom_bond_atom_site_label_2
_geom_bond_distance
_geom_bond_site_symmetry_2
Cd0 O10 2.146240 1_554
Cd0 O2 2.146248 1_555
Cd0 O1 2.188451 1_455
Cd0 O11 2.188452 1_544
Cd1 O8 2.146245 1_555
Cd1 O4 2.146245 1_555
Cd1 O7 2.188445 1_655
Cd1 O5 2.188450 1_565
Ge0 O1 1.730530 1_555
Ge0 O2 1.737222 1_555
Ge0 O0 1.789451 1_545
Ge0 O3 1.815997 1_645
Ge1 O5 1.730514 1_555
Ge1 O4 1.737228 1_555
Ge1 O6 1.789456 1_655
Ge1 O3 1.816007 1_645
Ge2 O7 1.730514 1_555
Ge2 O8 1.737230 1_555
Ge2 O6 1.789448 1_565
Ge2 O9 1.816025 1_465
Ge3 O11 1.730525 1_555
Ge3 O10 1.737224 1_555
Ge3 O0 1.789434 1_456
Ge3 O9 1.816006 1_465
O1 Rb0 2.841441 1_555
O1 Rb3 3.105425 1_554
O1 Rb1 3.255208 1_655
O2 Rb1 2.827573 1_555
O2 Rb0 3.024463 1_545
O2 Rb0 3.198393 1_555
O3 Rb0 3.251785 1_555
O3 Rb1 3.251791 1_555
O4 Rb0 2.827582 1_555
O4 Rb1 3.024462 1_655
O4 Rb1 3.198396 1_555
O5 Rb1 2.841435 1_555
O5 Rb2 3.105425 1_555
O5 Rb0 3.255213 1_545
O7 Rb2 2.841439 1_555
O7 Rb1 3.105415 1_555
O7 Rb3 3.255222 1_455
O8 Rb3 2.827582 1_555
O8 Rb2 3.024462 1_565
O8 Rb2 3.198397 1_555
O9 Rb3 3.251783 1_555
O9 Rb2 3.251794 1_555
O10 Rb2 2.827582 1_555
O10 Rb3 3.024464 1_455
O10 Rb3 3.198394 1_555
O11 Rb3 2.841441 1_555
O11 Rb0 3.105425 1_556
O11 Rb2 3.255208 1_565
