# generated using pymatgen
data_CdHg(Pt2Se3)2
_symmetry_space_group_name_H-M   'P 1'
_cell_length_a   7.43300538
_cell_length_b   7.43300541
_cell_length_c   5.39246864
_cell_angle_alpha   90.00000000
_cell_angle_beta   90.00000000
_cell_angle_gamma   120.00000840
_symmetry_Int_Tables_number   1
_chemical_formula_structural   CdHg(Pt2Se3)2
_chemical_formula_sum   'Cd1 Hg1 Pt4 Se6'
_cell_volume   258.01628561
_cell_formula_units_Z   1
loop_
 _symmetry_equiv_pos_site_id
 _symmetry_equiv_pos_as_xyz
  1  'x, y, z'
loop_
 _atom_site_type_symbol
 _atom_site_label
 _atom_site_symmetry_multiplicity
 _atom_site_fract_x
 _atom_site_fract_y
 _atom_site_fract_z
 _atom_site_occupancy
  Cd  Cd0  1  0.33333300  0.66666700  0.65495191  1
  Hg  Hg0  1  0.66666700  0.33333300  0.35205713  1
  Pt  Pt0  1  0.00000000  0.00000000  0.01170812  1
  Pt  Pt1  1  0.49990716  0.50009284  0.99395755  1
  Pt  Pt2  1  0.00018568  0.50009284  0.99395755  1
  Pt  Pt3  1  0.49990716  0.99981432  0.99395755  1
  Se  Se0  1  0.83133492  0.66266983  0.76371604  1
  Se  Se1  1  0.83133492  0.16866508  0.76371604  1
  Se  Se2  1  0.33733017  0.16866508  0.76371604  1
  Se  Se3  1  0.17569914  0.35139828  0.23608735  1
  Se  Se4  1  0.17569914  0.82430086  0.23608735  1
  Se  Se5  1  0.64860172  0.82430086  0.23608735  1
loop_
_geom_bond_atom_site_label_1
_geom_bond_atom_site_label_2
_geom_bond_distance
_geom_bond_site_symmetry_2
Cd0 Pt2 2.817953 1_555
Cd0 Pt3 2.817953 1_555
Cd0 Pt1 2.817958 1_555
Cd0 Se4 3.036509 1_555
Cd0 Se5 3.036513 1_555
Cd0 Se3 3.036513 1_555
Hg0 Pt2 2.887589 1_654
Hg0 Pt3 2.887589 1_544
Hg0 Pt1 2.887594 1_554
Hg0 Se1 3.069549 1_555
Hg0 Se2 3.069553 1_555
Hg0 Se0 3.069553 1_555
Pt0 Se2 2.550205 1_554
Pt0 Se0 2.550205 1_444
Pt0 Se1 2.550205 1_454
Pt0 Se5 2.565286 1_445
Pt0 Se3 2.565286 1_555
Pt0 Se4 2.565286 1_545
Pt1 Se3 2.463782 1_556
Pt1 Se5 2.463782 1_556
Pt1 Se0 2.468538 1_555
Pt1 Se2 2.468538 1_555
Pt2 Se4 2.463782 1_556
Pt2 Se3 2.463783 1_556
Pt2 Se1 2.468538 1_455
Pt2 Se0 2.468538 1_455
Pt3 Se4 2.463782 1_556
Pt3 Se5 2.463783 1_556
Pt3 Se1 2.468538 1_565
Pt3 Se2 2.468538 1_565
