# generated using pymatgen
data_Na5Ag3Te4
_symmetry_space_group_name_H-M   'P 1'
_cell_length_a   4.61496283
_cell_length_b   7.81929081
_cell_length_c   8.65372552
_cell_angle_alpha   90.05920161
_cell_angle_beta   90.00000000
_cell_angle_gamma   90.00000000
_symmetry_Int_Tables_number   1
_chemical_formula_structural   Na5Ag3Te4
_chemical_formula_sum   'Na5 Ag3 Te4'
_cell_volume   312.27589206
_cell_formula_units_Z   1
loop_
 _symmetry_equiv_pos_site_id
 _symmetry_equiv_pos_as_xyz
  1  'x, y, z'
loop_
 _atom_site_type_symbol
 _atom_site_label
 _atom_site_symmetry_multiplicity
 _atom_site_fract_x
 _atom_site_fract_y
 _atom_site_fract_z
 _atom_site_occupancy
  Na  Na0  1  0.75000000  0.47481510  0.30840145  1
  Na  Na1  1  0.25000000  0.03504929  0.82543469  1
  Na  Na2  1  0.75000000  0.97274956  0.18104717  1
  Na  Na3  1  0.25000000  0.52486196  0.68527144  1
  Na  Na4  1  0.75000000  0.86216604  0.56310518  1
  Ag  Ag0  1  0.25000000  0.61768268  0.05729269  1
  Ag  Ag1  1  0.25000000  0.13122895  0.44058897  1
  Ag  Ag2  1  0.75000000  0.37526322  0.94186995  1
  Te  Te0  1  0.25000000  0.76148756  0.36856545  1
  Te  Te1  1  0.25000000  0.25581715  0.12053633  1
  Te  Te2  1  0.75000000  0.74211367  0.88968195  1
  Te  Te3  1  0.75000000  0.24676581  0.61820675  1
loop_
_geom_bond_atom_site_label_1
_geom_bond_atom_site_label_2
_geom_bond_distance
_geom_bond_site_symmetry_2
Na0 Te3 3.221370 1_555
Na0 Te0 3.258495 1_655
Na0 Te0 3.258495 1_555
Na0 Te1 3.300616 1_555
Na0 Te1 3.300616 1_655
Na1 Te1 3.080966 1_556
Na1 Te2 3.298913 1_445
Na1 Te2 3.298913 1_545
Na1 Te3 3.359628 1_455
Na1 Te3 3.359628 1_555
Na2 Te2 3.098438 1_554
Na2 Te1 3.240394 1_665
Na2 Te1 3.240394 1_565
Na2 Te0 3.269878 1_555
Na2 Te0 3.269878 1_655
Na3 Te3 3.222917 1_455
Na3 Te3 3.222917 1_555
Na3 Te0 3.308360 1_555
Na3 Te2 3.366464 1_555
Na3 Te2 3.366464 1_455
Na4 Te0 2.962367 1_655
Na4 Te0 2.962367 1_555
Na4 Te2 2.978852 1_555
Na4 Te3 3.044379 1_565
Ag0 Te1 2.882530 1_555
Ag0 Te2 2.894455 1_454
Ag0 Te2 2.894455 1_554
Ag0 Te0 2.917874 1_555
Ag0 Ag2 3.148227 1_554
Ag0 Ag2 3.148227 1_454
Ag0 Na3 3.299437 1_554
Ag0 Na0 3.361472 1_455
Ag0 Na0 3.361472 1_555
Ag1 Te3 2.915528 1_455
Ag1 Te3 2.915528 1_555
Ag1 Te1 2.936933 1_555
Ag1 Te0 2.956906 1_545
Ag1 Na4 3.298404 1_445
Ag1 Na4 3.298404 1_545
Ag1 Na1 3.414966 1_555
Ag1 Na2 3.449472 1_545
Ag1 Na2 3.449472 1_445
Ag1 Na0 3.722524 1_555
Ag1 Na0 3.722524 1_455
Ag1 Na3 3.734118 1_555
Ag2 Te2 2.904305 1_555
Ag2 Te1 2.930921 1_556
Ag2 Te1 2.930921 1_656
Ag2 Te3 2.974680 1_555
Ag2 Na0 3.265204 1_556
Ag2 Na3 3.410122 1_655
Ag2 Na3 3.410122 1_555
Ag2 Na1 3.662106 1_555
Ag2 Na1 3.662106 1_655
Ag2 Na2 3.768736 1_546
