# generated using pymatgen
data_Sc2Sb2PtRh
_symmetry_space_group_name_H-M   'P 1'
_cell_length_a   7.75493612
_cell_length_b   7.75493596
_cell_length_c   7.75493518
_cell_angle_alpha   33.51986300
_cell_angle_beta   33.51986479
_cell_angle_gamma   33.51986294
_symmetry_Int_Tables_number   1
_chemical_formula_structural   Sc2Sb2PtRh
_chemical_formula_sum   'Sc2 Sb2 Pt1 Rh1'
_cell_volume   126.67315545
_cell_formula_units_Z   1
loop_
 _symmetry_equiv_pos_site_id
 _symmetry_equiv_pos_as_xyz
  1  'x, y, z'
loop_
 _atom_site_type_symbol
 _atom_site_label
 _atom_site_symmetry_multiplicity
 _atom_site_fract_x
 _atom_site_fract_y
 _atom_site_fract_z
 _atom_site_occupancy
  Sc  Sc0  1  0.24870723  0.24870723  0.24870723  1
  Sc  Sc1  1  0.75151300  0.75151300  0.75151300  1
  Sb  Sb0  1  0.99801317  0.99801317  0.99801317  1
  Sb  Sb1  1  0.50176733  0.50176733  0.50176733  1
  Pt  Pt0  1  0.37548353  0.37548353  0.37548353  1
  Rh  Rh0  1  0.87451475  0.87451475  0.87451475  1
loop_
_geom_bond_atom_site_label_1
_geom_bond_atom_site_label_2
_geom_bond_distance
_geom_bond_site_symmetry_2
Sb0 Sc0 3.155021 1_665
Sb0 Sc0 3.155022 1_656
Sb0 Sc0 3.155022 1_566
Sb0 Sc1 3.208770 1_556
Sb0 Sc1 3.208770 1_565
Sb0 Sc1 3.208770 1_655
Sb1 Sc0 3.125486 1_556
Sb1 Sc0 3.125486 1_565
Sb1 Sc0 3.125487 1_655
Sb1 Sc1 3.167022 1_554
Sb1 Sc1 3.167022 1_545
Sb1 Sc1 3.167022 1_455
Pt0 Sc1 2.746802 1_545
Pt0 Sc1 2.746802 1_455
Pt0 Sc1 2.746803 1_554
Pt0 Sb0 2.757741 1_454
Pt0 Sb0 2.757741 1_544
Pt0 Sb0 2.757741 1_445
Pt0 Sb1 2.770318 1_555
Pt0 Sc0 2.781122 1_555
Rh0 Sc1 2.698319 1_555
Rh0 Sb0 2.709215 1_555
Rh0 Sb1 2.723092 1_565
Rh0 Sb1 2.723093 1_655
Rh0 Sb1 2.723093 1_556
Rh0 Sc0 2.733323 1_656
Rh0 Sc0 2.733323 1_566
Rh0 Sc0 2.733324 1_665
