# generated using pymatgen
data_BaMg2(H6Rh)2
_symmetry_space_group_name_H-M   'P 1'
_cell_length_a   4.80499749
_cell_length_b   4.80499874
_cell_length_c   8.21180939
_cell_angle_alpha   90.00000000
_cell_angle_beta   90.00000000
_cell_angle_gamma   119.99999134
_symmetry_Int_Tables_number   1
_chemical_formula_structural   BaMg2(H6Rh)2
_chemical_formula_sum   'Ba1 Mg2 H12 Rh2'
_cell_volume   164.19350469
_cell_formula_units_Z   1
loop_
 _symmetry_equiv_pos_site_id
 _symmetry_equiv_pos_as_xyz
  1  'x, y, z'
loop_
 _atom_site_type_symbol
 _atom_site_label
 _atom_site_symmetry_multiplicity
 _atom_site_fract_x
 _atom_site_fract_y
 _atom_site_fract_z
 _atom_site_occupancy
  Ba  Ba0  1  0.00000000  0.00000000  0.00000000  1
  Mg  Mg0  1  0.66666700  0.33333300  0.37253783  1
  Mg  Mg1  1  0.33333300  0.66666700  0.62746217  1
  H  H0  1  0.17055148  0.82944852  0.39237863  1
  H  H1  1  0.65889603  0.82944852  0.39237863  1
  H  H2  1  0.17055148  0.34110397  0.39237863  1
  H  H3  1  0.82944852  0.17055148  0.60762137  1
  H  H4  1  0.34110397  0.17055148  0.60762137  1
  H  H5  1  0.82944852  0.65889603  0.60762137  1
  H  H6  1  0.50364007  0.00728014  0.83194233  1
  H  H7  1  0.50364007  0.49635993  0.83194233  1
  H  H8  1  0.99271986  0.49635993  0.83194233  1
  H  H9  1  0.49635993  0.99271986  0.16805767  1
  H  H10  1  0.49635993  0.50364007  0.16805767  1
  H  H11  1  0.00728014  0.50364007  0.16805767  1
  Rh  Rh0  1  0.66666700  0.33333300  0.71629026  1
  Rh  Rh1  1  0.33333300  0.66666700  0.28370974  1
loop_
_geom_bond_atom_site_label_1
_geom_bond_atom_site_label_2
_geom_bond_distance
_geom_bond_site_symmetry_2
Ba0 H9 2.770826 1_545
Ba0 H6 2.770826 1_454
Ba0 H9 2.770826 1_445
Ba0 H6 2.770826 1_554
Ba0 H8 2.770827 1_454
Ba0 H11 2.770827 1_545
Ba0 H10 2.770827 1_445
Ba0 H7 2.770827 1_554
Ba0 H7 2.770827 1_444
Ba0 H10 2.770827 1_555
Ba0 H11 2.770827 1_555
Ba0 H8 2.770827 1_444
H0 Rh1 1.622241 1_555
H0 Mg1 2.358395 1_555
H0 Mg0 2.408235 1_455
H0 Mg0 2.408235 1_565
H1 Rh1 1.622241 1_555
H1 Mg1 2.358395 1_555
H1 Mg0 2.408230 1_565
H1 Mg0 2.408240 1_555
H2 Rh1 1.622242 1_555
H2 Mg1 2.358395 1_555
H2 Mg0 2.408229 1_455
H2 Mg0 2.408239 1_555
H3 Rh0 1.622241 1_555
H3 Mg0 2.358395 1_555
H3 Mg1 2.408235 1_655
H3 Mg1 2.408235 1_545
H4 Rh0 1.622241 1_555
H4 Mg0 2.358395 1_555
H4 Mg1 2.408230 1_545
H4 Mg1 2.408240 1_555
H5 Rh0 1.622242 1_555
H5 Mg0 2.358395 1_555
H5 Mg1 2.408229 1_655
H5 Mg1 2.408239 1_555
H6 Rh0 1.656148 1_555
H6 Mg1 2.197387 1_545
H7 Rh0 1.656152 1_555
H7 Mg1 2.197389 1_555
H8 Rh0 1.656148 1_555
H8 Mg1 2.197387 1_655
H9 Rh1 1.656148 1_555
H9 Mg0 2.197387 1_565
H10 Rh1 1.656152 1_555
H10 Mg0 2.197389 1_555
H11 Rh1 1.656148 1_555
H11 Mg0 2.197387 1_455
