# generated using pymatgen
data_Sr20Si3GeBi8
_symmetry_space_group_name_H-M   'P 1'
_cell_length_a   8.64001960
_cell_length_b   10.03146800
_cell_length_c   13.80696638
_cell_angle_alpha   90.00000000
_cell_angle_beta   89.97390232
_cell_angle_gamma   90.00000000
_symmetry_Int_Tables_number   1
_chemical_formula_structural   Sr20Si3GeBi8
_chemical_formula_sum   'Sr20 Si3 Ge1 Bi8'
_cell_volume   1196.67837223
_cell_formula_units_Z   1
loop_
 _symmetry_equiv_pos_site_id
 _symmetry_equiv_pos_as_xyz
  1  'x, y, z'
loop_
 _atom_site_type_symbol
 _atom_site_label
 _atom_site_symmetry_multiplicity
 _atom_site_fract_x
 _atom_site_fract_y
 _atom_site_fract_z
 _atom_site_occupancy
  Sr  Sr0  1  0.83062906  0.52553628  0.08049318  1
  Sr  Sr1  1  0.66952987  0.97467141  0.58021007  1
  Sr  Sr2  1  0.16958152  0.02485919  0.91930919  1
  Sr  Sr3  1  0.33039765  0.47464964  0.41992419  1
  Sr  Sr4  1  0.16958152  0.47514081  0.91930919  1
  Sr  Sr5  1  0.33039765  0.02535036  0.41992419  1
  Sr  Sr6  1  0.83062906  0.97446372  0.08049318  1
  Sr  Sr7  1  0.66952987  0.52532859  0.58021007  1
  Sr  Sr8  1  0.17429195  0.75000000  0.21305309  1
  Sr  Sr9  1  0.32579844  0.75000000  0.71303482  1
  Sr  Sr10  1  0.82553568  0.25000000  0.78679030  1
  Sr  Sr11  1  0.67398636  0.25000000  0.28715054  1
  Sr  Sr12  1  0.44388159  0.75000000  0.99987003  1
  Sr  Sr13  1  0.05620842  0.75000000  0.49981860  1
  Sr  Sr14  1  0.55532334  0.25000000  0.00020411  1
  Sr  Sr15  1  0.94375990  0.25000000  0.50020299  1
  Sr  Sr16  1  0.65054389  0.75000000  0.30712775  1
  Sr  Sr17  1  0.84929426  0.75000000  0.80724656  1
  Sr  Sr18  1  0.34951503  0.25000000  0.69284018  1
  Sr  Sr19  1  0.15098913  0.25000000  0.19291727  1
  Si  Si0  1  0.44612282  0.75000000  0.49361914  1
  Si  Si1  1  0.05373478  0.75000000  0.99364916  1
  Si  Si2  1  0.55390432  0.25000000  0.50645220  1
  Ge  Ge0  1  0.94677105  0.25000000  0.00605040  1
  Bi  Bi0  1  0.94934305  0.50535667  0.33091541  1
  Bi  Bi1  1  0.55059156  0.99467316  0.83088362  1
  Bi  Bi2  1  0.05074243  0.00535351  0.66902546  1
  Bi  Bi3  1  0.44935537  0.49467377  0.16922482  1
  Bi  Bi4  1  0.05074243  0.49464649  0.66902546  1
  Bi  Bi5  1  0.44935537  0.00532623  0.16922482  1
  Bi  Bi6  1  0.94934305  0.99464333  0.33091541  1
  Bi  Bi7  1  0.55059156  0.50532684  0.83088362  1
loop_
_geom_bond_atom_site_label_1
_geom_bond_atom_site_label_2
_geom_bond_distance
_geom_bond_site_symmetry_2
Si0 Sr5 3.108947 1_565
Si0 Sr3 3.108947 1_555
Si0 Sr16 3.121752 1_555
Si0 Sr1 3.199505 1_555
Si0 Sr7 3.199505 1_555
Si0 Sr9 3.202431 1_555
Si0 Sr13 3.369916 1_555
Si1 Sr2 3.107539 1_565
Si1 Sr4 3.107539 1_555
Si1 Sr17 3.122163 1_455
Si1 Sr6 3.197118 1_456
Si1 Sr0 3.197118 1_456
Si1 Sr8 3.203828 1_556
Si1 Sr12 3.372009 1_555
Si2 Sr7 3.108760 1_555
Si2 Sr1 3.108760 1_545
Si2 Sr18 3.120420 1_555
Si2 Sr3 3.199546 1_555
Si2 Sr5 3.199546 1_555
Si2 Sr11 3.200264 1_555
Si2 Sr15 3.369425 1_555
Ge0 Sr0 3.114855 1_555
Ge0 Sr6 3.114855 1_545
Ge0 Sr19 3.126365 1_655
Ge0 Sr4 3.199840 1_654
Ge0 Sr2 3.199840 1_654
Ge0 Sr10 3.203864 1_554
Ge0 Sr14 3.383116 1_555
Bi0 Sr15 3.468029 1_555
Bi0 Sr13 3.509367 1_655
Bi0 Sr8 3.527817 1_655
Bi0 Sr3 3.528206 1_655
Bi0 Sr11 3.548000 1_555
Bi0 Sr16 3.577181 1_555
Bi0 Sr0 3.612624 1_555
Bi0 Sr19 3.636542 1_655
Bi1 Sr14 3.468047 1_566
Bi1 Sr12 3.509428 1_555
Bi1 Sr2 3.523554 1_565
Bi1 Sr9 3.528014 1_555
Bi1 Sr10 3.545800 1_565
Bi1 Sr17 3.576379 1_555
Bi1 Sr1 3.615501 1_555
Bi1 Sr18 3.635135 1_565
Bi2 Sr13 3.467241 1_545
Bi2 Sr15 3.508915 1_455
Bi2 Sr10 3.528446 1_455
Bi2 Sr1 3.528528 1_445
Bi2 Sr9 3.546813 1_545
Bi2 Sr18 3.577071 1_555
Bi2 Sr2 3.610728 1_555
Bi2 Sr17 3.637315 1_445
Bi3 Sr12 3.468445 1_554
Bi3 Sr14 3.508070 1_555
Bi3 Sr0 3.527735 1_555
Bi3 Sr11 3.527737 1_555
Bi3 Sr8 3.545861 1_555
Bi3 Sr19 3.574356 1_555
Bi3 Sr3 3.615902 1_555
Bi3 Sr16 3.634576 1_555
Bi4 Sr13 3.467241 1_555
Bi4 Sr15 3.508915 1_455
Bi4 Sr10 3.528446 1_455
Bi4 Sr7 3.528528 1_455
Bi4 Sr9 3.546813 1_555
Bi4 Sr18 3.577071 1_555
Bi4 Sr4 3.610728 1_555
Bi4 Sr17 3.637315 1_455
Bi5 Sr12 3.468445 1_544
Bi5 Sr14 3.508070 1_555
Bi5 Sr6 3.527735 1_545
Bi5 Sr11 3.527737 1_555
Bi5 Sr8 3.545861 1_545
Bi5 Sr19 3.574356 1_555
Bi5 Sr5 3.615902 1_555
Bi5 Sr16 3.634576 1_545
Bi6 Sr15 3.468029 1_565
Bi6 Sr13 3.509367 1_655
Bi6 Sr8 3.527817 1_655
Bi6 Sr5 3.528206 1_665
Bi6 Sr11 3.548000 1_565
Bi6 Sr16 3.577181 1_555
Bi6 Sr6 3.612624 1_555
Bi6 Sr19 3.636542 1_665
Bi7 Sr14 3.468047 1_556
Bi7 Sr12 3.509428 1_555
Bi7 Sr4 3.523554 1_555
Bi7 Sr9 3.528014 1_555
Bi7 Sr10 3.545800 1_555
Bi7 Sr17 3.576379 1_555
Bi7 Sr7 3.615501 1_555
Bi7 Sr18 3.635135 1_555
