# generated using pymatgen
data_SrCaMnN3
_symmetry_space_group_name_H-M   'P 1'
_cell_length_a   5.98926335
_cell_length_b   5.98926358
_cell_length_c   11.86942151
_cell_angle_alpha   90.00000000
_cell_angle_beta   90.00000000
_cell_angle_gamma   125.34281608
_symmetry_Int_Tables_number   1
_chemical_formula_structural   SrCaMnN3
_chemical_formula_sum   'Sr4 Ca4 Mn4 N12'
_cell_volume   347.30401290
_cell_formula_units_Z   4
loop_
 _symmetry_equiv_pos_site_id
 _symmetry_equiv_pos_as_xyz
  1  'x, y, z'
loop_
 _atom_site_type_symbol
 _atom_site_label
 _atom_site_symmetry_multiplicity
 _atom_site_fract_x
 _atom_site_fract_y
 _atom_site_fract_z
 _atom_site_occupancy
  Sr  Sr0  1  0.45079196  0.54920804  0.35255336  1
  Sr  Sr1  1  0.54920804  0.45079196  0.64744664  1
  Sr  Sr2  1  0.04920804  0.95079196  0.85255336  1
  Sr  Sr3  1  0.95079196  0.04920804  0.14744664  1
  Ca  Ca0  1  0.14039666  0.85960334  0.42422310  1
  Ca  Ca1  1  0.85960334  0.14039666  0.57577690  1
  Ca  Ca2  1  0.35960334  0.64039666  0.92422310  1
  Ca  Ca3  1  0.64039666  0.35960334  0.07577690  1
  Mn  Mn0  1  0.25671160  0.74328840  0.16114994  1
  Mn  Mn1  1  0.74328840  0.25671160  0.83885006  1
  Mn  Mn2  1  0.24328840  0.75671160  0.66114994  1
  Mn  Mn3  1  0.75671160  0.24328840  0.33885006  1
  N  N0  1  0.16585814  0.83414186  0.04153319  1
  N  N1  1  0.83414186  0.16585814  0.95846681  1
  N  N2  1  0.33414186  0.66585814  0.54153319  1
  N  N3  1  0.66585814  0.33414186  0.45846681  1
  N  N4  1  0.41988622  0.58011378  0.13021227  1
  N  N5  1  0.58011378  0.41988622  0.86978773  1
  N  N6  1  0.08011378  0.91988622  0.63021227  1
  N  N7  1  0.91988622  0.08011378  0.36978773  1
  N  N8  1  0.96380470  0.53619530  0.25000000  1
  N  N9  1  0.53619530  0.96380470  0.75000000  1
  N  N10  1  0.03619530  0.46380470  0.75000000  1
  N  N11  1  0.46380470  0.03619530  0.25000000  1
loop_
_geom_bond_atom_site_label_1
_geom_bond_atom_site_label_2
_geom_bond_distance
_geom_bond_site_symmetry_2
Ca0 N7 2.433907 1_465
Ca0 N2 2.487895 1_555
Ca0 N6 2.527730 1_555
Ca0 N11 2.603205 1_565
Ca0 N8 2.603205 1_455
Ca0 N3 2.792682 1_565
Ca0 N3 2.792682 1_455
Ca1 N6 2.433907 1_645
Ca1 N3 2.487895 1_555
Ca1 N7 2.527730 1_555
Ca1 N9 2.603205 1_545
Ca1 N10 2.603205 1_655
Ca1 N2 2.792682 1_545
Ca1 N2 2.792682 1_655
Ca2 N5 2.433907 1_555
Ca2 N0 2.487895 1_556
Ca2 N4 2.527730 1_556
Ca2 N10 2.603205 1_555
Ca2 N9 2.603205 1_555
Ca2 N1 2.792682 1_455
Ca2 N1 2.792682 1_565
Ca3 N4 2.433907 1_555
Ca3 N1 2.487895 1_554
Ca3 N5 2.527730 1_554
Ca3 N8 2.603205 1_555
Ca3 N11 2.603205 1_555
Ca3 N0 2.792682 1_655
Ca3 N0 2.792682 1_545
Mn0 N0 1.717710 1_555
Mn0 N4 1.774840 1_555
Mn0 N8 1.791863 1_455
Mn0 N11 1.791863 1_565
Mn1 N1 1.717710 1_555
Mn1 N5 1.774840 1_555
Mn1 N10 1.791863 1_655
Mn1 N9 1.791863 1_545
Mn2 N2 1.717710 1_555
Mn2 N6 1.774840 1_555
Mn2 N9 1.791863 1_555
Mn2 N10 1.791863 1_555
Mn3 N3 1.717710 1_555
Mn3 N7 1.774840 1_555
Mn3 N11 1.791863 1_555
Mn3 N8 1.791863 1_555
N0 Sr2 2.563658 1_554
N0 Sr3 2.611182 1_465
N1 Sr3 2.563658 1_556
N1 Sr2 2.611182 1_645
N2 Sr0 2.563658 1_555
N2 Sr1 2.611182 1_555
N3 Sr1 2.563658 1_555
N3 Sr0 2.611182 1_555
N4 Sr0 2.659475 1_555
N4 Sr3 2.776773 1_565
N4 Sr3 2.776773 1_455
N5 Sr1 2.659475 1_555
N5 Sr2 2.776773 1_545
N5 Sr2 2.776773 1_655
N6 Sr2 2.659475 1_555
N6 Sr1 2.776773 1_455
N6 Sr1 2.776773 1_565
N7 Sr3 2.659475 1_555
N7 Sr0 2.776773 1_655
N7 Sr0 2.776773 1_545
