# generated using pymatgen
data_CrCuAg2F7
_symmetry_space_group_name_H-M   'P 1'
_cell_length_a   7.38623471
_cell_length_b   7.38623530
_cell_length_c   7.38623543
_cell_angle_alpha   119.57899509
_cell_angle_beta   118.97224834
_cell_angle_gamma   91.26009420
_symmetry_Int_Tables_number   1
_chemical_formula_structural   CrCuAg2F7
_chemical_formula_sum   'Cr2 Cu2 Ag4 F14'
_cell_volume   287.97523429
_cell_formula_units_Z   2
loop_
 _symmetry_equiv_pos_site_id
 _symmetry_equiv_pos_as_xyz
  1  'x, y, z'
loop_
 _atom_site_type_symbol
 _atom_site_label
 _atom_site_symmetry_multiplicity
 _atom_site_fract_x
 _atom_site_fract_y
 _atom_site_fract_z
 _atom_site_occupancy
  Cr  Cr0  1  0.50000000  0.50000000  0.50000000  1
  Cr  Cr1  1  0.50000000  0.00000000  0.00000000  1
  Cu  Cu0  1  0.00000000  0.50000000  0.50000000  1
  Cu  Cu1  1  0.50000000  0.00000000  0.50000000  1
  Ag  Ag0  1  0.50000000  0.50000000  0.00000000  1
  Ag  Ag1  1  0.00000000  0.00000000  0.00000000  1
  Ag  Ag2  1  0.00000000  0.50000000  0.00000000  1
  Ag  Ag3  1  0.00000000  0.00000000  0.50000000  1
  F  F0  1  0.87586060  0.59292930  0.28293330  1
  F  F1  1  0.19000400  0.90707070  0.28293330  1
  F  F2  1  0.19451065  0.83278261  0.78413430  1
  F  F3  1  0.45135269  0.66721739  0.36172804  1
  F  F4  1  0.45135269  0.08962365  0.78413430  1
  F  F5  1  0.19451065  0.41037635  0.36172804  1
  F  F6  1  0.80548935  0.58962365  0.63827196  1
  F  F7  1  0.54864731  0.91037635  0.21586570  1
  F  F8  1  0.54864731  0.33278261  0.63827196  1
  F  F9  1  0.80548935  0.16721739  0.21586570  1
  F  F10  1  0.42908238  0.25000000  0.17908238  1
  F  F11  1  0.12413940  0.40707070  0.71706670  1
  F  F12  1  0.80999600  0.09292930  0.71706670  1
  F  F13  1  0.57091762  0.75000000  0.82091762  1
loop_
_geom_bond_atom_site_label_1
_geom_bond_atom_site_label_2
_geom_bond_distance
_geom_bond_site_symmetry_2
Cr0 F6 1.899213 1_555
Cr0 F5 1.899213 1_555
Cr0 F3 1.899214 1_555
Cr0 F8 1.899214 1_555
Cr0 F13 1.932930 1_555
Cr0 F10 1.932930 1_555
Cr1 F9 1.899213 1_555
Cr1 F2 1.899213 1_544
Cr1 F4 1.899215 1_554
Cr1 F7 1.899215 1_545
Cr1 F10 1.932930 1_555
Cr1 F13 1.932930 1_544
Cu0 F11 1.890087 1_555
Cu0 F0 1.890087 1_455
Cu0 F5 2.083570 1_555
Cu0 F6 2.083570 1_455
Cu0 F2 2.083570 1_555
Cu0 F9 2.083570 1_455
Cu1 F12 1.890086 1_555
Cu1 F1 1.890086 1_545
Cu1 F7 2.083565 1_545
Cu1 F4 2.083565 1_555
Cu1 F8 2.083570 1_555
Cu1 F3 2.083570 1_545
Ag0 F0 2.329207 1_555
Ag0 F11 2.329207 1_554
Ag0 F3 2.546538 1_555
Ag0 F8 2.546538 1_554
Ag0 F7 2.546544 1_555
Ag0 F4 2.546544 1_554
Ag1 F1 2.329219 1_545
Ag1 F12 2.329219 1_454
Ag1 F9 2.546542 1_455
Ag1 F2 2.546542 1_544
Ag1 F5 2.546542 1_555
Ag1 F6 2.546542 1_444
Ag2 F1 2.479322 1_555
Ag2 F12 2.479322 1_454
Ag2 F0 2.479333 1_455
Ag2 F11 2.479333 1_554
Ag3 F1 2.479322 1_545
Ag3 F12 2.479322 1_455
Ag3 F11 2.479322 1_555
Ag3 F0 2.479322 1_445
