# generated using pymatgen
data_BeAlV3N
_symmetry_space_group_name_H-M   'P 1'
_cell_length_a   6.43817396
_cell_length_b   6.43817396
_cell_length_c   6.43817396
_cell_angle_alpha   90.00000000
_cell_angle_beta   90.00000000
_cell_angle_gamma   90.00000000
_symmetry_Int_Tables_number   1
_chemical_formula_structural   BeAlV3N
_chemical_formula_sum   'Be4 Al4 V12 N4'
_cell_volume   266.86285105
_cell_formula_units_Z   4
loop_
 _symmetry_equiv_pos_site_id
 _symmetry_equiv_pos_as_xyz
  1  'x, y, z'
loop_
 _atom_site_type_symbol
 _atom_site_label
 _atom_site_symmetry_multiplicity
 _atom_site_fract_x
 _atom_site_fract_y
 _atom_site_fract_z
 _atom_site_occupancy
  Be  Be0  1  0.17503145  0.82496855  0.32496855  1
  Be  Be1  1  0.32496855  0.17503145  0.82496855  1
  Be  Be2  1  0.82496855  0.32496855  0.17503145  1
  Be  Be3  1  0.67503145  0.67503145  0.67503145  1
  Al  Al0  1  0.57462126  0.42537874  0.92537874  1
  Al  Al1  1  0.42537874  0.92537874  0.57462126  1
  Al  Al2  1  0.92537874  0.57462126  0.42537874  1
  Al  Al3  1  0.07462126  0.07462126  0.07462126  1
  V  V0  1  0.79378100  0.95917128  0.37289913  1
  V  V1  1  0.70621900  0.04082872  0.87289913  1
  V  V2  1  0.20621900  0.45917128  0.12710087  1
  V  V3  1  0.29378100  0.54082872  0.62710087  1
  V  V4  1  0.95917128  0.37289913  0.79378100  1
  V  V5  1  0.04082872  0.87289913  0.70621900  1
  V  V6  1  0.45917128  0.12710087  0.20621900  1
  V  V7  1  0.54082872  0.62710087  0.29378100  1
  V  V8  1  0.37289913  0.79378100  0.95917128  1
  V  V9  1  0.87289913  0.70621900  0.04082872  1
  V  V10  1  0.12710087  0.20621900  0.45917128  1
  V  V11  1  0.62710087  0.29378100  0.54082872  1
  N  N0  1  0.87636217  0.12363783  0.62363783  1
  N  N1  1  0.62363783  0.87636217  0.12363783  1
  N  N2  1  0.12363783  0.62363783  0.87636217  1
  N  N3  1  0.37636217  0.37636217  0.37636217  1
loop_
_geom_bond_atom_site_label_1
_geom_bond_atom_site_label_2
_geom_bond_distance
_geom_bond_site_symmetry_2
Be0 V0 2.620421 1_455
Be0 V10 2.620421 1_565
Be0 V5 2.620421 1_555
Be0 V8 2.685050 1_554
Be0 V2 2.685050 1_555
Be0 V7 2.685050 1_555
Be0 V6 2.777539 1_565
Be0 V9 2.777539 1_455
Be0 V3 2.777539 1_555
Be1 V8 2.620421 1_545
Be1 V6 2.620421 1_556
Be1 V1 2.620421 1_555
Be1 V4 2.685050 1_455
Be1 V3 2.685050 1_555
Be1 V10 2.685050 1_555
Be1 V2 2.777539 1_556
Be1 V5 2.777539 1_545
Be1 V11 2.777539 1_555
Be2 V4 2.620421 1_554
Be2 V2 2.620421 1_655
Be2 V9 2.620421 1_555
Be2 V0 2.685050 1_545
Be2 V6 2.685050 1_555
Be2 V11 2.685050 1_555
Be2 V10 2.777539 1_655
Be2 V1 2.777539 1_554
Be2 V7 2.777539 1_555
Be3 V3 2.620421 1_555
Be3 V7 2.620421 1_555
Be3 V11 2.620421 1_555
Be3 V9 2.685050 1_556
Be3 V5 2.685050 1_655
Be3 V1 2.685050 1_565
Be3 V8 2.777539 1_555
Be3 V4 2.777539 1_555
Be3 V0 2.777539 1_555
Al0 Be1 2.366258 1_555
Al0 Be3 2.366258 1_555
Al0 Be2 2.366258 1_556
Al0 V4 2.638480 1_555
Al0 V11 2.638480 1_555
Al0 V1 2.638480 1_555
Al0 V2 2.712863 1_556
Al0 V7 2.712863 1_556
Al0 V8 2.712863 1_555
Al0 V3 2.740346 1_555
Al0 V6 2.740346 1_556
Al0 V9 2.740346 1_556
Al1 Be0 2.366258 1_555
Al1 Be1 2.366258 1_565
Al1 Be3 2.366258 1_555
Al1 V8 2.638480 1_555
Al1 V3 2.638480 1_555
Al1 V5 2.638480 1_555
Al1 V6 2.712863 1_565
Al1 V11 2.712863 1_565
Al1 V0 2.712863 1_555
Al1 V7 2.740346 1_555
Al1 V10 2.740346 1_565
Al1 V1 2.740346 1_565
Al2 Be2 2.366258 1_555
Al2 Be3 2.366258 1_555
Al2 Be0 2.366258 1_655
Al2 V7 2.638480 1_555
Al2 V0 2.638480 1_555
Al2 V9 2.638480 1_555
Al2 V10 2.712863 1_655
Al2 V3 2.712863 1_655
Al2 V4 2.712863 1_555
Al2 V11 2.740346 1_555
Al2 V2 2.740346 1_655
Al2 V5 2.740346 1_655
Al3 Be1 2.366258 1_554
Al3 Be0 2.366258 1_545
Al3 Be2 2.366258 1_455
Al3 V10 2.638480 1_555
Al3 V2 2.638480 1_555
Al3 V6 2.638480 1_555
Al3 V5 2.712863 1_544
Al3 V1 2.712863 1_454
Al3 V9 2.712863 1_445
Al3 V8 2.740346 1_544
Al3 V0 2.740346 1_445
Al3 V4 2.740346 1_454
N0 V0 2.002456 1_545
N0 V10 2.002456 1_655
N0 V5 2.002456 1_645
N0 V1 2.014822 1_555
N0 V11 2.014822 1_555
N0 V4 2.014822 1_555
N1 V8 2.002456 1_554
N1 V6 2.002456 1_565
N1 V1 2.002456 1_564
N1 V9 2.014822 1_555
N1 V7 2.014822 1_555
N1 V0 2.014822 1_555
N2 V4 2.002456 1_455
N2 V2 2.002456 1_556
N2 V9 2.002456 1_456
N2 V5 2.014822 1_555
N2 V3 2.014822 1_555
N2 V8 2.014822 1_555
N3 V7 2.002456 1_555
N3 V11 2.002456 1_555
N3 V3 2.002456 1_555
N3 V2 2.014822 1_555
N3 V6 2.014822 1_555
N3 V10 2.014822 1_555
