# generated using pymatgen
data_Mg3CrP6N13
_symmetry_space_group_name_H-M   'P 1'
_cell_length_a   6.98971762
_cell_length_b   6.98971867
_cell_length_c   6.98971792
_cell_angle_alpha   109.54777597
_cell_angle_beta   109.54777722
_cell_angle_gamma   109.54778741
_symmetry_Int_Tables_number   1
_chemical_formula_structural   Mg3CrP6N13
_chemical_formula_sum   'Mg3 Cr1 P6 N13'
_cell_volume   262.13192999
_cell_formula_units_Z   1
loop_
 _symmetry_equiv_pos_site_id
 _symmetry_equiv_pos_as_xyz
  1  'x, y, z'
loop_
 _atom_site_type_symbol
 _atom_site_label
 _atom_site_symmetry_multiplicity
 _atom_site_fract_x
 _atom_site_fract_y
 _atom_site_fract_z
 _atom_site_occupancy
  Mg  Mg0  1  0.00097864  0.70740701  0.00097864  1
  Mg  Mg1  1  0.70740701  0.00097864  0.00097864  1
  Mg  Mg2  1  0.00097864  0.00097864  0.70740701  1
  Cr  Cr0  1  0.28891499  0.28891499  0.28891499  1
  P  P0  1  0.49769604  0.24975483  0.74882389  1
  P  P1  1  0.49769604  0.74882389  0.24975483  1
  P  P2  1  0.74882389  0.24975483  0.49769604  1
  P  P3  1  0.24975483  0.49769604  0.74882389  1
  P  P4  1  0.74882389  0.49769604  0.24975483  1
  P  P5  1  0.24975483  0.74882389  0.49769604  1
  N  N0  1  0.02111070  0.02111070  0.02111070  1
  N  N1  1  0.00005985  0.73004929  0.45645383  1
  N  N2  1  0.26385510  0.71744252  0.26385510  1
  N  N3  1  0.28328475  0.54324805  0.54324805  1
  N  N4  1  0.54324805  0.54324805  0.28328475  1
  N  N5  1  0.54324805  0.28328475  0.54324805  1
  N  N6  1  0.73004929  0.00005985  0.45645383  1
  N  N7  1  0.45645383  0.00005985  0.73004929  1
  N  N8  1  0.73004929  0.45645383  0.00005985  1
  N  N9  1  0.26385510  0.26385510  0.71744252  1
  N  N10  1  0.71744252  0.26385510  0.26385510  1
  N  N11  1  0.00005985  0.45645383  0.73004929  1
  N  N12  1  0.45645383  0.73004929  0.00005985  1
loop_
_geom_bond_atom_site_label_1
_geom_bond_atom_site_label_2
_geom_bond_distance
_geom_bond_site_symmetry_2
Mg0 N2 2.079774 1_555
Mg0 N0 2.102696 1_565
Mg0 N8 2.103450 1_455
Mg0 N11 2.103451 1_554
Mg1 N10 2.079774 1_555
Mg1 N0 2.102696 1_655
Mg1 N12 2.103450 1_545
Mg1 N7 2.103451 1_554
Mg2 N9 2.079774 1_555
Mg2 N0 2.102696 1_556
Mg2 N6 2.103451 1_455
Mg2 N1 2.103451 1_545
Cr0 N0 1.864790 1_555
Cr0 N4 2.073866 1_555
Cr0 N5 2.073866 1_555
Cr0 N3 2.073866 1_555
N1 P5 1.622074 1_555
N1 P4 1.622426 1_455
N2 P1 1.616078 1_555
N2 P5 1.616078 1_555
N3 P3 1.643963 1_555
N3 P5 1.643963 1_555
N4 P4 1.643963 1_555
N4 P1 1.643963 1_555
N5 P2 1.643963 1_555
N5 P0 1.643963 1_555
N6 P2 1.622074 1_555
N6 P1 1.622427 1_545
N7 P0 1.622074 1_555
N7 P5 1.622427 1_545
N8 P4 1.622074 1_555
N8 P0 1.622427 1_554
N9 P0 1.616078 1_555
N9 P3 1.616078 1_555
N10 P2 1.616078 1_555
N10 P4 1.616078 1_555
N11 P3 1.622074 1_555
N11 P2 1.622426 1_455
N12 P1 1.622074 1_555
N12 P3 1.622427 1_554
