# generated using pymatgen
data_Si
_symmetry_space_group_name_H-M   'P 1'
_cell_length_a   5.24108710
_cell_length_b   5.24108416
_cell_length_c   4.93270878
_cell_angle_alpha   90.00000000
_cell_angle_beta   90.00000000
_cell_angle_gamma   119.99998154
_symmetry_Int_Tables_number   1
_chemical_formula_structural   Si
_chemical_formula_sum   Si8
_cell_volume   117.34340854
_cell_formula_units_Z   8
loop_
 _symmetry_equiv_pos_site_id
 _symmetry_equiv_pos_as_xyz
  1  'x, y, z'
loop_
 _atom_site_type_symbol
 _atom_site_label
 _atom_site_symmetry_multiplicity
 _atom_site_fract_x
 _atom_site_fract_y
 _atom_site_fract_z
 _atom_site_occupancy
  Si  Si0_0  1  0.00000000  0.00000000  0.00000000  1
  Si  Si0_1  1  0.00000000  0.00000000  0.50000000  1
  Si  Si0_2  1  0.00000000  0.50000000  0.00000000  1
  Si  Si0_3  1  0.00000000  0.50000000  0.50000000  1
  Si  Si0_4  1  0.50000000  0.00000000  0.00000000  1
  Si  Si0_5  1  0.50000000  0.00000000  0.50000000  1
  Si  Si0_6  1  0.50000000  0.50000000  0.00000000  1
  Si  Si0_7  1  0.50000000  0.50000000  0.50000000  1
loop_
_geom_bond_atom_site_label_1
_geom_bond_atom_site_label_2
_geom_bond_distance
_geom_bond_site_symmetry_2
Si0_0 Si0_1 2.466354 1_555
Si0_0 Si0_1 2.466354 1_554
Si0_0 Si0_2 2.620542 1_555
Si0_0 Si0_2 2.620542 1_545
Si0_0 Si0_6 2.620544 1_445
Si0_0 Si0_6 2.620544 1_555
Si0_0 Si0_4 2.620544 1_455
Si0_0 Si0_4 2.620544 1_555
Si0_1 Si0_3 2.620542 1_555
Si0_1 Si0_3 2.620542 1_545
Si0_1 Si0_7 2.620544 1_445
Si0_1 Si0_7 2.620544 1_555
Si0_1 Si0_5 2.620544 1_455
Si0_1 Si0_5 2.620544 1_555
Si0_2 Si0_3 2.466354 1_554
Si0_2 Si0_3 2.466354 1_555
Si0_2 Si0_4 2.620544 1_455
Si0_2 Si0_4 2.620544 1_565
Si0_2 Si0_6 2.620544 1_455
Si0_2 Si0_6 2.620544 1_555
Si0_3 Si0_5 2.620544 1_455
Si0_3 Si0_5 2.620544 1_565
Si0_3 Si0_7 2.620544 1_455
Si0_3 Si0_7 2.620544 1_555
Si0_4 Si0_5 2.466354 1_555
Si0_4 Si0_5 2.466354 1_554
Si0_4 Si0_6 2.620542 1_545
Si0_4 Si0_6 2.620542 1_555
Si0_5 Si0_7 2.620542 1_555
Si0_5 Si0_7 2.620542 1_545
Si0_6 Si0_7 2.466354 1_555
Si0_6 Si0_7 2.466354 1_554
