# generated using pymatgen
data_K2HfWO6
_symmetry_space_group_name_H-M   'P 1'
_cell_length_a   5.67037215
_cell_length_b   5.67037236
_cell_length_c   5.67037344
_cell_angle_alpha   119.99999507
_cell_angle_beta   119.99999631
_cell_angle_gamma   60.00001343
_symmetry_Int_Tables_number   1
_chemical_formula_structural   K2HfWO6
_chemical_formula_sum   'K2 Hf1 W1 O6'
_cell_volume   128.91987587
_cell_formula_units_Z   1
loop_
 _symmetry_equiv_pos_site_id
 _symmetry_equiv_pos_as_xyz
  1  'x, y, z'
loop_
 _atom_site_type_symbol
 _atom_site_label
 _atom_site_symmetry_multiplicity
 _atom_site_fract_x
 _atom_site_fract_y
 _atom_site_fract_z
 _atom_site_occupancy
  K  K0  1  0.74999900  0.74999900  0.24999900  1
  K  K1  1  0.25000000  0.25000000  0.75000200  1
  Hf  Hf0  1  0.50000000  0.50000000  0.50000100  1
  W  W0  1  0.00000000  0.00000000  0.00000000  1
  O  O0  1  0.75918352  0.24081648  0.24081648  1
  O  O1  1  0.24081648  0.75918352  0.24081648  1
  O  O2  1  0.24081748  0.24081748  0.24081748  1
  O  O3  1  0.75918352  0.75918352  0.75918352  1
  O  O4  1  0.75918352  0.24081648  0.75918352  1
  O  O5  1  0.24081648  0.75918352  0.75918352  1
loop_
_geom_bond_atom_site_label_1
_geom_bond_atom_site_label_2
_geom_bond_distance
_geom_bond_site_symmetry_2
K0 O1 2.836137 1_555
K0 O0 2.836137 1_555
K0 O5 2.836137 1_554
K0 O4 2.836137 1_554
K0 O2 2.836143 1_565
K0 O2 2.836143 1_655
K0 O3 2.836143 1_554
K0 O3 2.836143 1_555
K0 O1 2.836148 1_655
K0 O0 2.836148 1_565
K0 O5 2.836149 1_655
K0 O4 2.836149 1_565
K1 O2 2.836131 1_556
K1 O4 2.836136 1_455
K1 O5 2.836137 1_545
K1 O0 2.836137 1_556
K1 O1 2.836137 1_556
K1 O3 2.836143 1_545
K1 O3 2.836143 1_455
K1 O4 2.836148 1_555
K1 O5 2.836148 1_555
K1 O0 2.836149 1_455
K1 O1 2.836149 1_545
K1 O2 2.836154 1_555
Hf0 O2 2.078415 1_555
Hf0 O4 2.078420 1_555
Hf0 O5 2.078420 1_555
Hf0 O3 2.078423 1_555
Hf0 O0 2.078428 1_555
Hf0 O1 2.078428 1_555
O0 W0 1.931136 1_655
O1 W0 1.931136 1_565
O2 W0 1.931144 1_555
O3 W0 1.931136 1_666
O4 W0 1.931136 1_656
O5 W0 1.931136 1_566
