# generated using pymatgen
data_Ba2ScBrO3
_symmetry_space_group_name_H-M   'P 1'
_cell_length_a   4.23562453
_cell_length_b   4.23562453
_cell_length_c   15.57562253
_cell_angle_alpha   90.00000000
_cell_angle_beta   90.00000000
_cell_angle_gamma   90.00000000
_symmetry_Int_Tables_number   1
_chemical_formula_structural   Ba2ScBrO3
_chemical_formula_sum   'Ba4 Sc2 Br2 O6'
_cell_volume   279.43469269
_cell_formula_units_Z   2
loop_
 _symmetry_equiv_pos_site_id
 _symmetry_equiv_pos_as_xyz
  1  'x, y, z'
loop_
 _atom_site_type_symbol
 _atom_site_label
 _atom_site_symmetry_multiplicity
 _atom_site_fract_x
 _atom_site_fract_y
 _atom_site_fract_z
 _atom_site_occupancy
  Ba  Ba0  1  0.00000000  0.50000000  0.66417551  1
  Ba  Ba1  1  0.50000000  0.00000000  0.09294015  1
  Ba  Ba2  1  0.50000000  0.00000000  0.33582449  1
  Ba  Ba3  1  0.00000000  0.50000000  0.90705985  1
  Sc  Sc0  1  0.00000000  0.50000000  0.20398605  1
  Sc  Sc1  1  0.50000000  0.00000000  0.79601395  1
  Br  Br0  1  0.00000000  0.50000000  0.42176844  1
  Br  Br1  1  0.50000000  0.00000000  0.57823156  1
  O  O0  1  0.00000000  0.50000000  0.07759537  1
  O  O1  1  0.50000000  0.50000000  0.77610689  1
  O  O2  1  0.00000000  0.00000000  0.77610689  1
  O  O3  1  0.50000000  0.50000000  0.22389311  1
  O  O4  1  0.00000000  0.00000000  0.22389311  1
  O  O5  1  0.50000000  0.00000000  0.92240463  1
loop_
_geom_bond_atom_site_label_1
_geom_bond_atom_site_label_2
_geom_bond_distance
_geom_bond_site_symmetry_2
Ba0 O2 2.743096 1_555
Ba0 O1 2.743096 1_455
Ba0 O2 2.743096 1_565
Ba0 O1 2.743096 1_555
Ba0 Br1 3.280578 1_465
Ba0 Br1 3.280578 1_565
Ba0 Br1 3.280578 1_555
Ba0 Br1 3.280578 1_455
Ba0 Br0 3.775641 1_555
Ba1 O5 2.656197 1_554
Ba1 O4 2.940306 1_655
Ba1 O3 2.940306 1_545
Ba1 O3 2.940306 1_555
Ba1 O4 2.940306 1_555
Ba1 O0 3.004560 1_555
Ba1 O0 3.004560 1_655
Ba1 O0 3.004560 1_545
Ba1 O0 3.004560 1_645
Ba2 O3 2.743096 1_545
Ba2 O4 2.743096 1_655
Ba2 O3 2.743096 1_555
Ba2 O4 2.743096 1_555
Ba2 Br0 3.280578 1_555
Ba2 Br0 3.280578 1_655
Ba2 Br0 3.280578 1_645
Ba2 Br0 3.280578 1_545
Ba2 Br1 3.775641 1_555
Ba3 O0 2.656197 1_556
Ba3 O1 2.940306 1_455
Ba3 O2 2.940306 1_565
Ba3 O1 2.940306 1_555
Ba3 O2 2.940306 1_555
Ba3 O5 3.004560 1_565
Ba3 O5 3.004560 1_455
Ba3 O5 3.004560 1_465
Ba3 O5 3.004560 1_555
Br0 Sc0 3.392096 1_555
Br1 Sc1 3.392096 1_555
O0 Sc0 1.968614 1_555
O1 Sc1 2.140390 1_555
O1 Sc1 2.140390 1_565
O2 Sc1 2.140390 1_555
O2 Sc1 2.140390 1_455
O3 Sc0 2.140390 1_655
O3 Sc0 2.140390 1_555
O4 Sc0 2.140390 1_545
O4 Sc0 2.140390 1_555
O5 Sc1 1.968614 1_555
