# generated using pymatgen
data_Sc10TiSi16Mo9
_symmetry_space_group_name_H-M   'P 1'
_cell_length_a   6.79100226
_cell_length_b   6.78647598
_cell_length_c   12.48911240
_cell_angle_alpha   89.96197504
_cell_angle_beta   89.97128506
_cell_angle_gamma   89.67974465
_symmetry_Int_Tables_number   1
_chemical_formula_structural   Sc10TiSi16Mo9
_chemical_formula_sum   'Sc10 Ti1 Si16 Mo9'
_cell_volume   575.57620562
_cell_formula_units_Z   1
loop_
 _symmetry_equiv_pos_site_id
 _symmetry_equiv_pos_as_xyz
  1  'x, y, z'
loop_
 _atom_site_type_symbol
 _atom_site_label
 _atom_site_symmetry_multiplicity
 _atom_site_fract_x
 _atom_site_fract_y
 _atom_site_fract_z
 _atom_site_occupancy
  Sc  Sc0  1  0.00159533  0.33789717  0.21602025  1
  Sc  Sc1  1  0.16045263  0.49743434  0.46995939  1
  Sc  Sc2  1  0.84280311  0.49700888  0.96834915  1
  Sc  Sc3  1  0.49889181  0.16103667  0.53210371  1
  Sc  Sc4  1  0.49780961  0.84403620  0.02987452  1
  Sc  Sc5  1  0.00139955  0.65801093  0.72019849  1
  Sc  Sc6  1  0.33921244  0.00320607  0.78355525  1
  Sc  Sc7  1  0.66045509  0.00337347  0.27972146  1
  Sc  Sc8  1  0.33076381  0.66937577  0.24807680  1
  Sc  Sc9  1  0.83229863  0.83100570  0.50116176  1
  Ti  Ti0  1  0.66786567  0.33042307  0.75249933  1
  Si  Si0  1  0.04267799  0.29332080  0.81504490  1
  Si  Si1  1  0.20661268  0.53559051  0.05866899  1
  Si  Si2  1  0.79544458  0.45325803  0.56461151  1
  Si  Si3  1  0.53776875  0.20749460  0.93852358  1
  Si  Si4  1  0.45612913  0.79628070  0.43920495  1
  Si  Si5  1  0.95597712  0.70321826  0.31058735  1
  Si  Si6  1  0.29309712  0.04837465  0.18337538  1
  Si  Si7  1  0.70188606  0.96196846  0.69005199  1
  Si  Si8  1  0.29640055  0.36620069  0.68023513  1
  Si  Si9  1  0.13056781  0.79839237  0.92904452  1
  Si  Si10  1  0.86741900  0.20714806  0.42870862  1
  Si  Si11  1  0.79845634  0.13115267  0.06976934  1
  Si  Si12  1  0.20771790  0.86714586  0.57252776  1
  Si  Si13  1  0.70770931  0.63310636  0.17802581  1
  Si  Si14  1  0.36669862  0.29339921  0.32107881  1
  Si  Si15  1  0.63314890  0.70447627  0.82021679  1
  Mo  Mo0  1  0.99674925  0.15702802  0.62608220  1
  Mo  Mo1  1  0.34692446  0.49760867  0.87147336  1
  Mo  Mo2  1  0.65568032  0.50233725  0.37416848  1
  Mo  Mo3  1  0.50073877  0.34579630  0.12588001  1
  Mo  Mo4  1  0.50579077  0.65361227  0.62842716  1
  Mo  Mo5  1  0.00325573  0.83835032  0.12106293  1
  Mo  Mo6  1  0.15607061  0.99841919  0.37583237  1
  Mo  Mo7  1  0.83570759  0.00449171  0.87712553  1
  Mo  Mo8  1  0.16781797  0.16901952  0.99875640  1
loop_
_geom_bond_atom_site_label_1
_geom_bond_atom_site_label_2
_geom_bond_distance
_geom_bond_site_symmetry_2
Sc0 Si11 2.689887 1_455
Sc0 Si1 2.759527 1_555
Sc0 Si5 2.762689 1_455
Sc0 Si6 2.811113 1_555
Sc0 Si14 2.820398 1_555
Sc0 Si13 2.859550 1_455
Sc0 Si10 2.945670 1_455
Sc1 Si14 2.704720 1_555
Sc1 Si2 2.763421 1_455
Sc1 Si5 2.796014 1_455
Sc1 Si12 2.837765 1_555
Sc1 Si10 2.855287 1_455
Sc1 Si4 2.887268 1_555
Sc1 Si8 2.921022 1_555
Sc2 Si0 2.720106 1_655
Sc2 Si15 2.721932 1_555
Sc2 Si1 2.730460 1_656
Sc2 Si11 2.804204 1_556
Sc2 Si9 2.878485 1_655
Sc2 Si3 2.887461 1_555
Sc2 Si13 2.922932 1_556
Sc2 Ti0 3.158940 1_555
Sc3 Si8 2.689171 1_555
Sc3 Si4 2.751414 1_545
Sc3 Si7 2.755927 1_545
Sc3 Si10 2.834387 1_555
Sc3 Si12 2.860867 1_545
Sc3 Si2 2.863567 1_555
Sc3 Si14 2.923859 1_555
Sc3 Ti0 3.199502 1_555
Sc4 Si3 2.731819 1_564
Sc4 Si13 2.735106 1_555
Sc4 Si6 2.740483 1_565
Sc4 Si9 2.813142 1_554
Sc4 Si11 2.874062 1_565
Sc4 Si1 2.909674 1_555
Sc4 Si15 2.930722 1_554
Sc5 Si12 2.719376 1_555
Sc5 Si0 2.756057 1_555
Sc5 Si2 2.773245 1_455
Sc5 Si15 2.811106 1_455
Sc5 Si8 2.853126 1_555
Sc5 Si7 2.913224 1_455
Sc5 Si9 2.914661 1_555
Sc5 Ti0 3.207765 1_455
Sc6 Si9 2.693939 1_545
Sc6 Si7 2.738215 1_545
Sc6 Si3 2.741020 1_555
Sc6 Si8 2.793986 1_555
Sc6 Si0 2.835882 1_555
Sc6 Si15 2.873784 1_545
Sc6 Si12 2.934439 1_545
Sc6 Ti0 3.180633 1_555
Sc7 Si10 2.716227 1_555
Sc7 Si6 2.785466 1_555
Sc7 Si4 2.807707 1_545
Sc7 Si13 2.832865 1_545
Sc7 Si14 2.841982 1_555
Sc7 Si5 2.877429 1_545
Sc7 Si11 2.917081 1_555
Sc8 Si5 2.670558 1_455
Sc8 Si1 2.672889 1_555
Sc8 Si4 2.679061 1_555
Sc8 Si6 2.706292 1_565
Sc8 Si13 2.714730 1_555
Sc8 Si14 2.718716 1_555
Sc9 Si5 2.667397 1_555
Sc9 Si7 2.670463 1_555
Sc9 Si4 2.681240 1_555
Sc9 Si2 2.695697 1_555
Sc9 Si12 2.713658 1_655
Sc9 Si10 2.719446 1_565
Si0 Si8 2.460420 1_555
Si0 Ti0 2.673380 1_455
Si1 Si9 2.460709 1_554
Si2 Ti0 2.637289 1_555
Si3 Ti0 2.622548 1_555
Si7 Ti0 2.628713 1_565
Si8 Ti0 2.689284 1_555
Si10 Si2 2.429648 1_555
Si11 Si3 2.465929 1_554
Si12 Si4 2.416363 1_555
Si13 Si5 2.413026 1_555
Si14 Si6 2.446742 1_555
Si15 Si7 2.432865 1_555
Si15 Ti0 2.685294 1_555
Mo0 Si12 2.517820 1_645
Mo0 Si7 2.535141 1_545
Mo0 Si2 2.543238 1_555
Mo0 Si0 2.555222 1_655
Mo0 Si8 2.578453 1_655
Mo0 Si10 2.638393 1_555
Mo0 Sc9 2.934375 1_545
Mo0 Ti0 2.972422 1_555
Mo0 Sc6 3.215758 1_655
Mo0 Sc1 3.224151 1_655
Mo1 Si15 2.487361 1_555
Mo1 Si3 2.495529 1_555
Mo1 Si1 2.536929 1_556
Mo1 Si8 2.573816 1_555
Mo1 Si0 2.592770 1_555
Mo1 Si9 2.609572 1_555
Mo1 Ti0 2.866493 1_555
Mo2 Si14 2.516979 1_555
Mo2 Si4 2.538976 1_555
Mo2 Si10 2.551811 1_555
Mo2 Si2 2.581971 1_555
Mo2 Si5 2.583776 1_555
Mo2 Si13 2.629250 1_555
Mo2 Sc8 2.933735 1_555
Mo2 Sc9 2.994285 1_555
Mo2 Sc3 3.226244 1_555
Mo2 Sc0 3.260953 1_655
Mo3 Si13 2.496941 1_555
Mo3 Si1 2.514909 1_555
Mo3 Si3 2.533587 1_554
Mo3 Si6 2.570406 1_555
Mo3 Si11 2.582183 1_555
Mo3 Si14 2.626487 1_555
Mo3 Sc8 2.908279 1_555
Mo3 Sc7 3.199411 1_555
Mo3 Sc2 3.215488 1_554
Mo4 Si8 2.504707 1_555
Mo4 Si2 2.514598 1_555
Mo4 Si15 2.571201 1_555
Mo4 Si4 2.574896 1_555
Mo4 Si12 2.579171 1_555
Mo4 Si7 2.603697 1_555
Mo4 Ti0 2.897134 1_555
Mo4 Sc9 2.985945 1_555
Mo5 Si11 2.502309 1_465
Mo5 Si13 2.550101 1_455
Mo5 Si6 2.558479 1_565
Mo5 Si5 2.558594 1_455
Mo5 Si9 2.562863 1_554
Mo5 Si1 2.589475 1_555
Mo5 Sc8 2.958141 1_555
Mo6 Si10 2.500817 1_465
Mo6 Si14 2.559356 1_565
Mo6 Si5 2.560788 1_455
Mo6 Si4 2.574766 1_555
Mo6 Si6 2.599698 1_565
Mo6 Si12 2.635488 1_555
Mo6 Sc9 2.932133 1_455
Mo6 Sc8 2.985449 1_555
Mo6 Sc0 3.218835 1_565
Mo6 Sc3 3.237779 1_565
Mo7 Si9 2.520944 1_645
Mo7 Si7 2.524639 1_545
Mo7 Si0 2.538991 1_655
Mo7 Si3 2.558988 1_555
Mo7 Si15 2.564578 1_545
Mo7 Si11 2.567329 1_556
Mo7 Ti0 2.929747 1_555
Mo8 Si0 2.586392 1_555
Mo8 Si6 2.588865 1_556
Mo8 Si1 2.613057 1_556
Mo8 Si3 2.636490 1_555
Mo8 Si11 2.673768 1_456
Mo8 Si9 2.675582 1_545
