# generated using pymatgen
data_Y4Ga2SiGe
_symmetry_space_group_name_H-M   'P 1'
_cell_length_a   3.97208056
_cell_length_b   4.29823246
_cell_length_c   10.76907809
_cell_angle_alpha   90.00000000
_cell_angle_beta   90.00000000
_cell_angle_gamma   90.00000000
_symmetry_Int_Tables_number   1
_chemical_formula_structural   Y4Ga2SiGe
_chemical_formula_sum   'Y4 Ga2 Si1 Ge1'
_cell_volume   183.85966883
_cell_formula_units_Z   1
loop_
 _symmetry_equiv_pos_site_id
 _symmetry_equiv_pos_as_xyz
  1  'x, y, z'
loop_
 _atom_site_type_symbol
 _atom_site_label
 _atom_site_symmetry_multiplicity
 _atom_site_fract_x
 _atom_site_fract_y
 _atom_site_fract_z
 _atom_site_occupancy
  Y  Y0  1  0.00000000  0.00000000  0.13861306  1
  Y  Y1  1  0.00000000  0.50000000  0.64249269  1
  Y  Y2  1  0.50000000  0.50000000  0.35900147  1
  Y  Y3  1  0.50000000  0.00000000  0.85908610  1
  Ga  Ga0  1  0.50000000  0.50000000  0.07448925  1
  Ga  Ga1  1  0.50000000  0.00000000  0.57723267  1
  Si  Si0  1  0.00000000  0.50000000  0.92658307  1
  Ge  Ge0  1  0.00000000  0.00000000  0.42250169  1
loop_
_geom_bond_atom_site_label_1
_geom_bond_atom_site_label_2
_geom_bond_distance
_geom_bond_site_symmetry_2
Ga0 Si0 2.545861 1_554
Ga0 Si0 2.545861 1_654
Ga0 Y0 3.006646 1_655
Ga0 Y0 3.006646 1_555
Ga0 Y0 3.006646 1_565
Ga0 Y0 3.006646 1_665
Ga0 Y2 3.063934 1_555
Ga0 Y3 3.162227 1_564
Ga0 Y3 3.162227 1_554
Ga1 Ge0 2.592478 1_655
Ga1 Ge0 2.592478 1_555
Ga1 Y1 3.009480 1_555
Ga1 Y1 3.009480 1_655
Ga1 Y1 3.009480 1_645
Ga1 Y1 3.009480 1_545
Ga1 Y3 3.035302 1_555
Ga1 Y2 3.184635 1_545
Ga1 Y2 3.184635 1_555
Si0 Y3 3.015197 1_555
Si0 Y3 3.015197 1_565
Si0 Y3 3.015197 1_465
Si0 Y3 3.015197 1_455
Si0 Y1 3.059391 1_555
Si0 Y0 3.135677 1_556
Si0 Y0 3.135677 1_566
Ge0 Y2 3.005111 1_445
Ge0 Y2 3.005111 1_455
Ge0 Y2 3.005111 1_555
Ge0 Y2 3.005111 1_545
Ge0 Y0 3.057219 1_555
Ge0 Y1 3.198646 1_545
Ge0 Y1 3.198646 1_555
