# generated using pymatgen
data_MnNi2Rh3S8
_symmetry_space_group_name_H-M   'P 1'
_cell_length_a   6.93410272
_cell_length_b   6.93410219
_cell_length_c   6.76384001
_cell_angle_alpha   59.16374454
_cell_angle_beta   59.16374261
_cell_angle_gamma   59.99999041
_symmetry_Int_Tables_number   1
_chemical_formula_structural   MnNi2Rh3S8
_chemical_formula_sum   'Mn1 Ni2 Rh3 S8'
_cell_volume   227.01370687
_cell_formula_units_Z   1
loop_
 _symmetry_equiv_pos_site_id
 _symmetry_equiv_pos_as_xyz
  1  'x, y, z'
loop_
 _atom_site_type_symbol
 _atom_site_label
 _atom_site_symmetry_multiplicity
 _atom_site_fract_x
 _atom_site_fract_y
 _atom_site_fract_z
 _atom_site_occupancy
  Mn  Mn0  1  0.00000000  0.00000000  0.50000000  1
  Ni  Ni0  1  0.37686989  0.37686989  0.36939032  1
  Ni  Ni1  1  0.62313011  0.62313011  0.63060968  1
  Rh  Rh0  1  0.00000000  0.50000000  0.00000000  1
  Rh  Rh1  1  0.50000000  0.00000000  0.00000000  1
  Rh  Rh2  1  0.00000000  0.00000000  0.00000000  1
  S  S0  1  0.24345104  0.24345104  0.76964489  1
  S  S1  1  0.24636624  0.76339761  0.24386792  1
  S  S2  1  0.76339761  0.24636624  0.24386792  1
  S  S3  1  0.24636624  0.24636624  0.24386792  1
  S  S4  1  0.75654896  0.75654896  0.23035511  1
  S  S5  1  0.75363376  0.23660239  0.75613208  1
  S  S6  1  0.23660239  0.75363376  0.75613208  1
  S  S7  1  0.75363376  0.75363376  0.75613208  1
loop_
_geom_bond_atom_site_label_1
_geom_bond_atom_site_label_2
_geom_bond_distance
_geom_bond_site_symmetry_2
Mn0 S3 2.385027 1_555
Mn0 S7 2.385027 1_445
Mn0 S5 2.385037 1_455
Mn0 S1 2.385037 1_545
Mn0 S6 2.385037 1_545
Mn0 S2 2.385037 1_455
Ni0 S1 2.180072 1_555
Ni0 S2 2.180072 1_555
Ni0 S3 2.180083 1_555
Ni0 S0 2.182113 1_555
Ni1 S5 2.180072 1_555
Ni1 S6 2.180072 1_555
Ni1 S7 2.180083 1_555
Ni1 S4 2.182113 1_555
Rh0 S4 2.363048 1_455
Rh0 S0 2.363048 1_554
Rh0 S3 2.375415 1_555
Rh0 S7 2.375415 1_454
Rh0 S6 2.375425 1_554
Rh0 S2 2.375425 1_455
Rh1 S4 2.363048 1_545
Rh1 S0 2.363048 1_554
Rh1 S3 2.375415 1_555
Rh1 S7 2.375415 1_544
Rh1 S5 2.375425 1_554
Rh1 S1 2.375425 1_545
Rh2 S0 2.363038 1_554
Rh2 S4 2.363038 1_445
Rh2 S2 2.375414 1_455
Rh2 S6 2.375414 1_544
Rh2 S1 2.375414 1_545
Rh2 S5 2.375414 1_454
