# generated using pymatgen
data_Rb2Tc(OF2)2
_symmetry_space_group_name_H-M   'P 1'
_cell_length_a   7.68554067
_cell_length_b   7.68553612
_cell_length_c   7.16361937
_cell_angle_alpha   90.00000000
_cell_angle_beta   90.00000000
_cell_angle_gamma   135.25970374
_symmetry_Int_Tables_number   1
_chemical_formula_structural   Rb2Tc(OF2)2
_chemical_formula_sum   'Rb4 Tc2 O4 F8'
_cell_volume   297.84384320
_cell_formula_units_Z   2
loop_
 _symmetry_equiv_pos_site_id
 _symmetry_equiv_pos_as_xyz
  1  'x, y, z'
loop_
 _atom_site_type_symbol
 _atom_site_label
 _atom_site_symmetry_multiplicity
 _atom_site_fract_x
 _atom_site_fract_y
 _atom_site_fract_z
 _atom_site_occupancy
  Rb  Rb0  1  0.45043549  0.54486172  0.25000000  1
  Rb  Rb1  1  0.54486679  0.45044173  0.75000000  1
  Rb  Rb2  1  0.75337651  0.20673486  0.25000000  1
  Rb  Rb3  1  0.20673964  0.75338100  0.75000000  1
  Tc  Tc0  1  0.11935335  0.88694285  0.25000000  1
  Tc  Tc1  1  0.88690159  0.11931326  0.75000000  1
  O  O0  1  0.05641155  0.29276748  0.94158368  1
  O  O1  1  0.29275109  0.05639692  0.05844857  1
  O  O2  1  0.29275109  0.05639692  0.44155143  1
  O  O3  1  0.05641155  0.29276748  0.55841632  1
  F  F0  1  0.96204227  0.99990154  0.25000000  1
  F  F1  1  0.99991133  0.96204592  0.75000000  1
  F  F2  1  0.84807323  0.60930993  0.07493112  1
  F  F3  1  0.60929382  0.84805680  0.92507496  1
  F  F4  1  0.60929382  0.84805680  0.57492504  1
  F  F5  1  0.84807323  0.60930993  0.42506888  1
  F  F6  1  0.23456995  0.72575374  0.25000000  1
  F  F7  1  0.72574070  0.23455812  0.75000000  1
loop_
_geom_bond_atom_site_label_1
_geom_bond_atom_site_label_2
_geom_bond_distance
_geom_bond_site_symmetry_2
O0 Tc1 1.700214 1_455
O0 Rb2 2.924905 1_456
O0 Rb0 3.077440 1_556
O0 Rb3 3.152797 1_555
O0 Rb1 3.313951 1_555
O1 Tc0 1.699833 1_545
O1 Rb3 2.925041 1_544
O1 Rb1 3.077679 1_554
O1 Rb2 3.152745 1_555
O1 Rb0 3.313883 1_555
O2 Tc0 1.699833 1_545
O2 Rb3 2.925041 1_545
O2 Rb1 3.077679 1_555
O2 Rb2 3.152745 1_555
O2 Rb0 3.313883 1_555
O3 Tc1 1.700214 1_455
O3 Rb2 2.924905 1_455
O3 Rb0 3.077440 1_555
O3 Rb3 3.152797 1_555
O3 Rb1 3.313951 1_555
F0 Tc0 1.925226 1_655
F0 Rb0 2.855908 1_555
F0 Rb2 2.953023 1_565
F0 Rb0 3.049207 1_665
F1 Tc1 1.925259 1_565
F1 Rb1 2.855906 1_555
F1 Rb3 2.952981 1_655
F1 Rb1 3.049195 1_665
F2 Tc0 2.037837 1_655
F2 Rb1 2.880489 1_554
F2 Rb2 2.911436 1_555
F2 Rb0 3.001212 1_555
F2 Rb3 3.147486 1_654
F3 Tc1 2.037751 1_565
F3 Rb0 2.880421 1_556
F3 Rb3 2.911395 1_555
F3 Rb1 3.001162 1_555
F3 Rb2 3.147484 1_566
F4 Tc1 2.037751 1_565
F4 Rb0 2.880421 1_555
F4 Rb3 2.911395 1_555
F4 Rb1 3.001162 1_555
F4 Rb2 3.147484 1_565
F5 Tc0 2.037837 1_655
F5 Rb1 2.880489 1_555
F5 Rb2 2.911436 1_555
F5 Rb0 3.001212 1_555
F5 Rb3 3.147486 1_655
F6 Tc0 1.969056 1_555
F6 Rb0 2.821674 1_555
F6 Rb2 2.936738 1_565
F6 Rb2 2.937974 1_455
F7 Tc1 1.969045 1_555
F7 Rb1 2.821678 1_555
F7 Rb3 2.936836 1_655
F7 Rb3 2.937875 1_545
