# generated using pymatgen
data_Nb2SiB2W3
_symmetry_space_group_name_H-M   'P 1'
_cell_length_a   7.10166157
_cell_length_b   7.12729358
_cell_length_c   7.14463603
_cell_angle_alpha   129.21329510
_cell_angle_beta   129.08754160
_cell_angle_gamma   74.70962564
_symmetry_Int_Tables_number   1
_chemical_formula_structural   Nb2SiB2W3
_chemical_formula_sum   'Nb4 Si2 B4 W6'
_cell_volume   211.93688640
_cell_formula_units_Z   2
loop_
 _symmetry_equiv_pos_site_id
 _symmetry_equiv_pos_as_xyz
  1  'x, y, z'
loop_
 _atom_site_type_symbol
 _atom_site_label
 _atom_site_symmetry_multiplicity
 _atom_site_fract_x
 _atom_site_fract_y
 _atom_site_fract_z
 _atom_site_occupancy
  Nb  Nb0  1  0.02592410  0.19439331  0.50041341  1
  Nb  Nb1  1  0.52173071  0.02275741  0.82900877  1
  Nb  Nb2  1  0.69233126  0.52620022  0.50019663  1
  Nb  Nb3  1  0.97785397  0.80433126  0.50135140  1
  Si  Si0  1  0.24722623  0.25437674  0.00647953  1
  Si  Si1  1  0.74798259  0.74527790  0.99795530  1
  B  B0  1  0.13131390  0.62924935  0.75829575  1
  B  B1  1  0.87645726  0.37322694  0.24465261  1
  B  B2  1  0.61686179  0.88192798  0.49653157  1
  B  B3  1  0.38218805  0.11982761  0.49755991  1
  W  W0  1  0.00246429  0.00231236  0.00123136  1
  W  W1  1  0.50185977  0.50204244  0.99983036  1
  W  W2  1  0.80421171  0.30464263  0.82973923  1
  W  W3  1  0.19286779  0.69404787  0.16371658  1
  W  W4  1  0.47421902  0.97441199  0.17128021  1
  W  W5  1  0.30450657  0.47097299  0.50175639  1
loop_
_geom_bond_atom_site_label_1
_geom_bond_atom_site_label_2
_geom_bond_distance
_geom_bond_site_symmetry_2
Nb0 Si1 2.626208 1_444
Nb0 Si0 2.638181 1_556
Nb0 W1 2.787791 1_555
Nb0 W0 2.796268 1_555
Nb1 Si1 2.616607 1_545
Nb1 Si0 2.627975 1_556
Nb1 W0 2.803169 1_656
Nb1 W1 2.805349 1_555
Nb1 W3 2.888484 1_545
Nb1 W4 2.894788 1_546
Nb1 W5 3.215251 1_545
Nb2 Si0 2.591614 1_555
Nb2 Si1 2.602585 1_555
Nb2 W0 2.796555 1_666
Nb2 W1 2.808235 1_554
Nb2 W5 2.890798 1_555
Nb3 Si1 2.611906 1_554
Nb3 Si0 2.620344 1_666
Nb3 W1 2.777380 1_554
Nb3 W0 2.783488 1_666
Nb3 W5 2.849514 1_655
Si0 W2 2.566882 1_454
Si0 W5 2.584394 1_555
Si0 W3 2.586221 1_555
Si0 W4 2.616729 1_545
Si0 W0 2.780288 1_555
Si0 W1 2.878553 1_554
Si1 W2 2.576461 1_555
Si1 W5 2.591060 1_555
Si1 W3 2.595733 1_656
Si1 W4 2.604733 1_556
Si1 W1 2.778080 1_555
Si1 W0 2.874262 1_666
B0 B1 2.229794 1_455
B0 W4 2.368346 1_556
B0 W3 2.369153 1_556
B0 W5 2.375171 1_555
B0 W1 2.391286 1_555
B0 Nb3 2.402356 1_455
B0 W0 2.409148 1_566
B0 Nb0 2.413491 1_555
B0 Nb2 2.429936 1_455
B1 W5 2.357490 1_655
B1 W2 2.381600 1_554
B1 Nb3 2.387336 1_555
B1 W0 2.390731 1_655
B1 W1 2.419520 1_554
B1 Nb0 2.424022 1_655
B1 Nb1 2.431119 1_554
B1 Nb2 2.444096 1_555
B2 B3 2.040051 1_565
B2 W4 2.340275 1_555
B2 W2 2.359188 1_565
B2 W3 2.363397 1_555
B2 Nb1 2.399553 1_565
B2 W1 2.440063 1_554
B2 Nb3 2.458513 1_555
B2 Nb2 2.462849 1_555
B2 W0 2.472453 1_666
B3 W4 2.333382 1_545
B3 W2 2.347322 1_555
B3 W3 2.379451 1_545
B3 W5 2.401377 1_555
B3 Nb1 2.412303 1_555
B3 W0 2.434235 1_555
B3 Nb0 2.454844 1_555
B3 W1 2.456735 1_555
