# generated using pymatgen
data_GaNiAg2F7
_symmetry_space_group_name_H-M   'P 1'
_cell_length_a   7.34884675
_cell_length_b   7.34889019
_cell_length_c   7.34884441
_cell_angle_alpha   120.79551439
_cell_angle_beta   116.84766093
_cell_angle_gamma   92.08609117
_symmetry_Int_Tables_number   1
_chemical_formula_structural   GaNiAg2F7
_chemical_formula_sum   'Ga2 Ni2 Ag4 F14'
_cell_volume   285.02618386
_cell_formula_units_Z   2
loop_
 _symmetry_equiv_pos_site_id
 _symmetry_equiv_pos_as_xyz
  1  'x, y, z'
loop_
 _atom_site_type_symbol
 _atom_site_label
 _atom_site_symmetry_multiplicity
 _atom_site_fract_x
 _atom_site_fract_y
 _atom_site_fract_z
 _atom_site_occupancy
  Ga  Ga0  1  0.00000000  0.50000000  0.50000000  1
  Ga  Ga1  1  0.50000000  0.00000000  0.50000000  1
  Ni  Ni0  1  0.50000000  0.50000000  0.50000000  1
  Ni  Ni1  1  0.50000000  0.00000000  0.00000000  1
  Ag  Ag0  1  0.50000000  0.50000000  0.00000000  1
  Ag  Ag1  1  0.00000000  0.00000000  0.00000000  1
  Ag  Ag2  1  0.00000000  0.50000000  0.00000000  1
  Ag  Ag3  1  0.00000000  0.00000000  0.50000000  1
  F  F0  1  0.87406770  0.59104497  0.28300535  1
  F  F1  1  0.19196744  0.90895536  0.28302615  1
  F  F2  1  0.18582819  0.80510513  0.76209092  1
  F  F3  1  0.45697677  0.69488754  0.38070905  1
  F  F4  1  0.45700051  0.07628278  0.76210408  1
  F  F5  1  0.18584205  0.42373838  0.38075485  1
  F  F6  1  0.81415795  0.57626162  0.61924515  1
  F  F7  1  0.54299949  0.92371722  0.23789592  1
  F  F8  1  0.54302323  0.30511246  0.61929095  1
  F  F9  1  0.81417181  0.19489487  0.23790908  1
  F  F10  1  0.39778224  0.24996209  0.14781826  1
  F  F11  1  0.12593230  0.40895503  0.71699465  1
  F  F12  1  0.80803256  0.09104464  0.71697385  1
  F  F13  1  0.60221776  0.75003791  0.85218174  1
loop_
_geom_bond_atom_site_label_1
_geom_bond_atom_site_label_2
_geom_bond_distance
_geom_bond_site_symmetry_2
Ag0 F0 2.367939 1_555
Ag0 F11 2.367939 1_554
Ag0 F7 2.589885 1_555
Ag0 F4 2.589885 1_554
Ag0 F3 2.589922 1_555
Ag0 F8 2.589922 1_554
Ag1 F1 2.367967 1_545
Ag1 F12 2.367967 1_454
Ag1 F2 2.589969 1_544
Ag1 F9 2.589969 1_455
Ag1 F5 2.590044 1_555
Ag1 F6 2.590044 1_444
Ag2 F0 2.447094 1_455
Ag2 F11 2.447094 1_554
Ag2 F1 2.447217 1_555
Ag2 F12 2.447217 1_454
Ag3 F12 2.447120 1_455
Ag3 F1 2.447120 1_545
Ag3 F11 2.447209 1_555
Ag3 F0 2.447209 1_445
F0 Ga0 1.910936 1_655
F1 Ga1 1.910892 1_565
F2 Ga0 1.892438 1_555
F2 Ni1 1.996957 1_566
F3 Ga1 1.892461 1_565
F3 Ni0 1.996980 1_555
F4 Ga1 1.892413 1_555
F4 Ni1 1.996992 1_556
F5 Ga0 1.892370 1_555
F5 Ni0 1.996908 1_555
F6 Ga0 1.892370 1_655
F6 Ni0 1.996908 1_555
F7 Ga1 1.892413 1_565
F7 Ni1 1.996992 1_565
F8 Ga1 1.892461 1_555
F8 Ni0 1.996980 1_555
F9 Ga0 1.892438 1_655
F9 Ni1 1.996957 1_555
F10 Ni1 1.978111 1_555
F10 Ni0 1.978124 1_555
F11 Ga0 1.910936 1_555
F12 Ga1 1.910892 1_555
F13 Ni1 1.978111 1_566
F13 Ni0 1.978124 1_555
