# generated using pymatgen
data_YLu3(WO6)2
_symmetry_space_group_name_H-M   'P 1'
_cell_length_a   5.26230743
_cell_length_b   7.52400080
_cell_length_c   11.20557457
_cell_angle_alpha   75.19486066
_cell_angle_beta   90.00000000
_cell_angle_gamma   90.00000000
_symmetry_Int_Tables_number   1
_chemical_formula_structural   YLu3(WO6)2
_chemical_formula_sum   'Y2 Lu6 W4 O24'
_cell_volume   428.93949243
_cell_formula_units_Z   2
loop_
 _symmetry_equiv_pos_site_id
 _symmetry_equiv_pos_as_xyz
  1  'x, y, z'
loop_
 _atom_site_type_symbol
 _atom_site_label
 _atom_site_symmetry_multiplicity
 _atom_site_fract_x
 _atom_site_fract_y
 _atom_site_fract_z
 _atom_site_occupancy
  Y  Y0  1  0.31608582  0.50000000  0.75000000  1
  Y  Y1  1  0.68391418  0.50000000  0.25000000  1
  Lu  Lu0  1  0.18406664  0.79754723  0.07825381  1
  Lu  Lu1  1  0.25890821  0.00000000  0.75000000  1
  Lu  Lu2  1  0.74109179  0.00000000  0.25000000  1
  Lu  Lu3  1  0.18406664  0.20245277  0.42174619  1
  Lu  Lu4  1  0.81593336  0.20245277  0.92174619  1
  Lu  Lu5  1  0.81593336  0.79754723  0.57825381  1
  W  W0  1  0.74500139  0.72461973  0.88571134  1
  W  W1  1  0.25499861  0.72461973  0.38571134  1
  W  W2  1  0.74500139  0.27538027  0.61428866  1
  W  W3  1  0.25499861  0.27538027  0.11428866  1
  O  O0  1  0.85104727  0.36394848  0.45067735  1
  O  O1  1  0.46241218  0.84747175  0.93009245  1
  O  O2  1  0.85104727  0.63605152  0.04932265  1
  O  O3  1  0.01716005  0.28336574  0.73135025  1
  O  O4  1  0.98283995  0.28336574  0.23135025  1
  O  O5  1  0.14895273  0.36394848  0.95067735  1
  O  O6  1  0.64884329  0.48793612  0.88668296  1
  O  O7  1  0.53758782  0.15252825  0.06990755  1
  O  O8  1  0.14895273  0.63605152  0.54932265  1
  O  O9  1  0.01716005  0.71663426  0.76864975  1
  O  O10  1  0.46112103  0.20584207  0.27557569  1
  O  O11  1  0.03938901  0.94176873  0.39610368  1
  O  O12  1  0.46241218  0.15252825  0.56990755  1
  O  O13  1  0.98283995  0.71663426  0.26864975  1
  O  O14  1  0.96061099  0.05823127  0.60389632  1
  O  O15  1  0.53887897  0.20584207  0.77557569  1
  O  O16  1  0.53887897  0.79415793  0.72442431  1
  O  O17  1  0.03938901  0.05823127  0.10389632  1
  O  O18  1  0.64884329  0.51206388  0.61331704  1
  O  O19  1  0.35115671  0.51206388  0.11331704  1
  O  O20  1  0.46112103  0.79415793  0.22442431  1
  O  O21  1  0.35115671  0.48793612  0.38668296  1
  O  O22  1  0.53758782  0.84747175  0.43009245  1
  O  O23  1  0.96061099  0.94176873  0.89610368  1
loop_
_geom_bond_atom_site_label_1
_geom_bond_atom_site_label_2
_geom_bond_distance
_geom_bond_site_symmetry_2
Lu0 O1 2.173526 1_554
Lu0 O20 2.188083 1_555
Lu0 O17 2.190266 1_565
Lu0 O2 2.203169 1_455
Lu0 O19 2.260531 1_555
Lu0 O13 2.319469 1_455
Lu0 O23 2.365241 1_454
Lu1 O15 2.208667 1_555
Lu1 O16 2.208667 1_545
Lu1 O23 2.229299 1_445
Lu1 O14 2.229299 1_455
Lu1 O1 2.313601 1_545
Lu1 O12 2.313601 1_555
Lu1 O3 2.445394 1_555
Lu1 O9 2.445394 1_545
Lu2 O10 2.208667 1_555
Lu2 O20 2.208667 1_545
Lu2 O11 2.229299 1_645
Lu2 O17 2.229299 1_655
Lu2 O22 2.313601 1_545
Lu2 O7 2.313601 1_555
Lu2 O4 2.445394 1_555
Lu2 O13 2.445394 1_545
Lu3 O12 2.173526 1_555
Lu3 O10 2.188083 1_555
Lu3 O11 2.190266 1_545
Lu3 O0 2.203169 1_455
Lu3 O21 2.260531 1_555
Lu3 O4 2.319469 1_455
Lu3 O14 2.365241 1_455
Lu4 O7 2.173526 1_556
Lu4 O15 2.188083 1_555
Lu4 O23 2.190266 1_545
Lu4 O5 2.203169 1_655
Lu4 O6 2.260531 1_555
Lu4 O3 2.319469 1_655
Lu4 O17 2.365241 1_656
Lu5 O22 2.173526 1_555
Lu5 O16 2.188083 1_555
Lu5 O14 2.190266 1_565
Lu5 O8 2.203169 1_655
Lu5 O18 2.260531 1_555
Lu5 O9 2.319469 1_655
Lu5 O11 2.365241 1_655
O0 W2 1.868772 1_555
O0 Y1 2.387813 1_555
O1 W0 1.883623 1_555
O2 W0 1.868772 1_554
O2 Y1 2.387813 1_555
O3 W2 1.953383 1_455
O3 Y0 2.312784 1_555
O4 W3 1.953383 1_655
O4 Y1 2.312784 1_555
O5 W3 1.868772 1_556
O5 Y0 2.387813 1_555
O6 W0 1.848658 1_555
O6 Y0 2.312850 1_555
O7 W3 1.883623 1_555
O8 W1 1.868772 1_555
O8 Y0 2.387813 1_555
O9 W0 1.953383 1_455
O9 Y0 2.312784 1_555
O10 W3 2.057522 1_555
O10 Y1 2.455800 1_555
O11 W1 2.016810 1_555
O12 W2 1.883623 1_555
O13 W1 1.953383 1_655
O13 Y1 2.312784 1_555
O14 W2 2.016810 1_555
O15 W2 2.057522 1_555
O15 Y0 2.455800 1_555
O16 W0 2.057522 1_555
O16 Y0 2.455800 1_555
O17 W3 2.016810 1_555
O18 W2 1.848658 1_555
O18 Y0 2.312850 1_555
O19 W3 1.848658 1_555
O19 Y1 2.312850 1_555
O20 W1 2.057522 1_555
O20 Y1 2.455800 1_555
O21 W1 1.848658 1_555
O21 Y1 2.312850 1_555
O22 W1 1.883623 1_555
O23 W0 2.016810 1_555
