# generated using pymatgen
data_CuPtRhS4
_symmetry_space_group_name_H-M   'P 1'
_cell_length_a   6.99170386
_cell_length_b   7.02715710
_cell_length_c   6.99170428
_cell_angle_alpha   59.83212445
_cell_angle_beta   59.66994666
_cell_angle_gamma   59.83212252
_symmetry_Int_Tables_number   1
_chemical_formula_structural   CuPtRhS4
_chemical_formula_sum   'Cu2 Pt2 Rh2 S8'
_cell_volume   241.67657006
_cell_formula_units_Z   2
loop_
 _symmetry_equiv_pos_site_id
 _symmetry_equiv_pos_as_xyz
  1  'x, y, z'
loop_
 _atom_site_type_symbol
 _atom_site_label
 _atom_site_symmetry_multiplicity
 _atom_site_fract_x
 _atom_site_fract_y
 _atom_site_fract_z
 _atom_site_occupancy
  Cu  Cu0  1  0.75458394  0.74541606  0.75458394  1
  Cu  Cu1  1  0.49541606  0.50458394  0.49541606  1
  Pt  Pt0  1  0.12500000  0.62500000  0.12500000  1
  Pt  Pt1  1  0.12500000  0.12500000  0.12500000  1
  Rh  Rh0  1  0.12500000  0.12500000  0.62500000  1
  Rh  Rh1  1  0.62500000  0.12500000  0.12500000  1
  S  S0  1  0.88339710  0.34567734  0.88339710  1
  S  S1  1  0.36827588  0.36420149  0.90332114  1
  S  S2  1  0.36660290  0.36247253  0.36660290  1
  S  S3  1  0.90332114  0.36420149  0.36827588  1
  S  S4  1  0.88339710  0.88752747  0.88339710  1
  S  S5  1  0.34667886  0.88579851  0.88172412  1
  S  S6  1  0.36660290  0.90432266  0.36660290  1
  S  S7  1  0.88172412  0.88579851  0.34667886  1
loop_
_geom_bond_atom_site_label_1
_geom_bond_atom_site_label_2
_geom_bond_distance
_geom_bond_site_symmetry_2
Cu0 S4 2.290555 1_555
Cu0 S0 2.290562 1_555
Cu0 S5 2.321687 1_555
Cu0 S7 2.321687 1_555
Cu1 S2 2.290555 1_555
Cu1 S6 2.290562 1_555
Cu1 S3 2.321687 1_555
Cu1 S1 2.321687 1_555
Pt0 S7 2.390263 1_455
Pt0 S1 2.390263 1_554
Pt0 S5 2.390263 1_554
Pt0 S3 2.390263 1_455
Pt0 S2 2.393310 1_555
Pt0 S4 2.393310 1_454
Pt1 S1 2.390263 1_554
Pt1 S7 2.390263 1_445
Pt1 S3 2.390263 1_455
Pt1 S5 2.390263 1_544
Pt1 S6 2.393311 1_545
Pt1 S0 2.393311 1_454
Rh0 S5 2.368185 1_545
Rh0 S3 2.368185 1_455
Rh0 S0 2.371281 1_455
Rh0 S6 2.371281 1_545
Rh0 S2 2.371286 1_555
Rh0 S4 2.371286 1_445
Rh1 S7 2.368185 1_545
Rh1 S1 2.368185 1_554
Rh1 S0 2.371281 1_554
Rh1 S6 2.371281 1_545
Rh1 S2 2.371286 1_555
Rh1 S4 2.371286 1_544
