# generated using pymatgen
data_Zr5InBSb2
_symmetry_space_group_name_H-M   'P 1'
_cell_length_a   8.52482476
_cell_length_b   8.52482446
_cell_length_c   5.79669049
_cell_angle_alpha   90.00000000
_cell_angle_beta   90.00000000
_cell_angle_gamma   119.85538638
_symmetry_Int_Tables_number   1
_chemical_formula_structural   Zr5InBSb2
_chemical_formula_sum   'Zr10 In2 B2 Sb4'
_cell_volume   365.35299366
_cell_formula_units_Z   2
loop_
 _symmetry_equiv_pos_site_id
 _symmetry_equiv_pos_as_xyz
  1  'x, y, z'
loop_
 _atom_site_type_symbol
 _atom_site_label
 _atom_site_symmetry_multiplicity
 _atom_site_fract_x
 _atom_site_fract_y
 _atom_site_fract_z
 _atom_site_occupancy
  Zr  Zr0  1  0.66664330  0.33599042  0.00102007  1
  Zr  Zr1  1  0.33599042  0.66664330  0.00102007  1
  Zr  Zr2  1  0.33599042  0.66664330  0.49897993  1
  Zr  Zr3  1  0.66664330  0.33599042  0.49897993  1
  Zr  Zr4  1  0.76747839  0.76747839  0.75000000  1
  Zr  Zr5  1  0.22662856  0.99793664  0.75000000  1
  Zr  Zr6  1  0.99793664  0.22662856  0.75000000  1
  Zr  Zr7  1  0.23341308  0.23341308  0.25000000  1
  Zr  Zr8  1  0.76761197  0.00133044  0.25000000  1
  Zr  Zr9  1  0.00133044  0.76761197  0.25000000  1
  In  In0  1  0.39957063  0.00098875  0.25000000  1
  In  In1  1  0.00098875  0.39957063  0.25000000  1
  B  B0  1  0.00029203  0.00029203  0.00335089  1
  B  B1  1  0.00029203  0.00029203  0.49664911  1
  Sb  Sb0  1  0.39644190  0.39644190  0.75000000  1
  Sb  Sb1  1  0.59676628  0.00184590  0.75000000  1
  Sb  Sb2  1  0.00184590  0.59676628  0.75000000  1
  Sb  Sb3  1  0.60413498  0.60413498  0.25000000  1
loop_
_geom_bond_atom_site_label_1
_geom_bond_atom_site_label_2
_geom_bond_distance
_geom_bond_site_symmetry_2
In0 Zr7 2.954064 1_555
In0 Zr9 2.959558 1_545
In0 Zr3 2.991452 1_555
In0 Zr0 2.991452 1_555
In0 Zr2 2.993747 1_545
In0 Zr1 2.993747 1_545
In0 Zr8 3.136039 1_555
In0 Zr5 3.245990 1_544
In0 Zr5 3.245990 1_545
In0 Sb1 3.348759 1_555
In0 Sb1 3.348759 1_554
In1 Zr7 2.954064 1_555
In1 Zr8 2.959558 1_455
In1 Zr2 2.991452 1_555
In1 Zr1 2.991452 1_555
In1 Zr3 2.993747 1_455
In1 Zr0 2.993747 1_455
In1 Zr9 3.136039 1_555
In1 Zr6 3.245990 1_454
In1 Zr6 3.245990 1_455
In1 Sb2 3.348759 1_554
In1 Sb2 3.348759 1_555
B0 Zr6 2.432826 1_454
B0 Zr5 2.432826 1_544
B0 Zr9 2.448722 1_545
B0 Zr8 2.448722 1_455
B0 Zr7 2.451710 1_555
B0 Zr4 2.472453 1_444
B1 Zr6 2.432826 1_455
B1 Zr5 2.432826 1_545
B1 Zr9 2.448722 1_545
B1 Zr8 2.448722 1_455
B1 Zr7 2.451710 1_555
B1 Zr4 2.472453 1_445
Sb0 Zr5 2.956376 1_545
Sb0 Zr6 2.956376 1_455
Sb0 Zr1 2.978328 1_556
Sb0 Zr2 2.978328 1_555
Sb0 Zr0 2.978328 1_556
Sb0 Zr3 2.978328 1_555
Sb0 Zr4 3.169932 1_555
Sb0 Zr7 3.215646 1_555
Sb0 Zr7 3.215646 1_556
Sb1 Zr6 2.973726 1_555
Sb1 Zr0 2.982749 1_556
Sb1 Zr3 2.982749 1_555
Sb1 Zr1 2.983310 1_546
Sb1 Zr2 2.983310 1_545
Sb1 Zr4 3.000752 1_545
Sb1 Zr5 3.138902 1_545
Sb1 Zr8 3.244685 1_555
Sb1 Zr8 3.244685 1_556
Sb2 Zr5 2.973726 1_555
Sb2 Zr1 2.982750 1_556
Sb2 Zr2 2.982750 1_555
Sb2 Zr0 2.983310 1_456
Sb2 Zr3 2.983310 1_455
Sb2 Zr4 3.000752 1_455
Sb2 Zr6 3.138902 1_455
Sb2 Zr9 3.244685 1_556
Sb2 Zr9 3.244685 1_555
Sb3 Zr8 2.951125 1_565
Sb3 Zr9 2.951125 1_655
Sb3 Zr3 2.967318 1_555
Sb3 Zr0 2.967318 1_555
Sb3 Zr2 2.967319 1_555
Sb3 Zr1 2.967319 1_555
Sb3 Zr7 3.167245 1_555
Sb3 Zr4 3.216811 1_555
Sb3 Zr4 3.216811 1_554
