# generated using pymatgen
data_LiMnPO4
_symmetry_space_group_name_H-M   'P 1'
_cell_length_a   7.58901544
_cell_length_b   7.58901544
_cell_length_c   9.69966200
_cell_angle_alpha   90.00000000
_cell_angle_beta   90.00000000
_cell_angle_gamma   119.99999512
_symmetry_Int_Tables_number   1
_chemical_formula_structural   LiMnPO4
_chemical_formula_sum   'Li6 Mn6 P6 O24'
_cell_volume   483.79138087
_cell_formula_units_Z   6
loop_
 _symmetry_equiv_pos_site_id
 _symmetry_equiv_pos_as_xyz
  1  'x, y, z'
loop_
 _atom_site_type_symbol
 _atom_site_label
 _atom_site_symmetry_multiplicity
 _atom_site_fract_x
 _atom_site_fract_y
 _atom_site_fract_z
 _atom_site_occupancy
  Li  Li0  1  0.20521700  0.95543900  0.25983000  1
  Li  Li1  1  0.04456100  0.24977800  0.25983000  1
  Li  Li2  1  0.24977800  0.04456100  0.75983000  1
  Li  Li3  1  0.75022200  0.79478300  0.25983000  1
  Li  Li4  1  0.79478300  0.75022200  0.75983000  1
  Li  Li5  1  0.95543900  0.20521700  0.75983000  1
  Mn  Mn0  1  0.04223000  0.58091900  0.48567700  1
  Mn  Mn1  1  0.53869000  0.95777000  0.48567700  1
  Mn  Mn2  1  0.41908100  0.46131000  0.48567700  1
  Mn  Mn3  1  0.46131000  0.41908100  0.98567700  1
  Mn  Mn4  1  0.58091900  0.04223000  0.98567700  1
  Mn  Mn5  1  0.95777000  0.53869000  0.98567700  1
  P  P0  1  0.33333300  0.66666700  0.77506900  1
  P  P1  1  0.00000000  0.00000000  0.00545800  1
  P  P2  1  0.33333300  0.66666700  0.18968700  1
  P  P3  1  0.66666700  0.33333300  0.68968700  1
  P  P4  1  0.66666700  0.33333300  0.27506900  1
  P  P5  1  0.00000000  0.00000000  0.50545800  1
  O  O0  1  0.09763700  0.87612000  0.44851100  1
  O  O1  1  0.17901300  0.72883300  0.13767700  1
  O  O2  1  0.12283100  0.49607000  0.82441300  1
  O  O3  1  0.37323900  0.87716900  0.82441300  1
  O  O4  1  0.33333300  0.66666700  0.61126600  1
  O  O5  1  0.33333300  0.66666700  0.35225700  1
  O  O6  1  0.00000000  0.00000000  0.16501500  1
  O  O7  1  0.12388000  0.22151600  0.44851100  1
  O  O8  1  0.27116700  0.45018000  0.13767700  1
  O  O9  1  0.54982000  0.82098700  0.13767700  1
  O  O10  1  0.22151600  0.12388000  0.94851100  1
  O  O11  1  0.50393000  0.62676100  0.82441300  1
  O  O12  1  0.45018000  0.27116700  0.63767700  1
  O  O13  1  0.77848400  0.90236300  0.44851100  1
  O  O14  1  0.62676100  0.50393000  0.32441300  1
  O  O15  1  0.49607000  0.12283100  0.32441300  1
  O  O16  1  0.00000000  0.00000000  0.66501500  1
  O  O17  1  0.66666700  0.33333300  0.85225700  1
  O  O18  1  0.66666700  0.33333300  0.11126600  1
  O  O19  1  0.90236300  0.77848400  0.94851100  1
  O  O20  1  0.82098700  0.54982000  0.63767700  1
  O  O21  1  0.72883300  0.17901300  0.63767700  1
  O  O22  1  0.87716900  0.37323900  0.32441300  1
  O  O23  1  0.87612000  0.09763700  0.94851100  1
loop_
_geom_bond_atom_site_label_1
_geom_bond_atom_site_label_2
_geom_bond_distance
_geom_bond_site_symmetry_2
Li0 O0 1.971514 1_555
Li0 O6 1.977956 1_565
Li0 O1 2.014655 1_555
Li0 O15 2.018489 1_565
Li1 O7 1.971516 1_555
Li1 O6 1.977956 1_555
Li1 O8 2.014655 1_555
Li1 O22 2.018489 1_455
Li2 O10 1.971516 1_555
Li2 O16 1.977956 1_555
Li2 O12 2.014655 1_555
Li2 O3 2.018489 1_545
Li3 O13 1.971514 1_555
Li3 O6 1.977956 1_665
Li3 O9 2.014655 1_555
Li3 O14 2.018489 1_555
Li4 O19 1.971514 1_555
Li4 O16 1.977956 1_665
Li4 O20 2.014655 1_555
Li4 O11 2.018489 1_555
Li5 O23 1.971514 1_555
Li5 O16 1.977956 1_655
Li5 O21 2.014655 1_555
Li5 O2 2.018489 1_655
Mn0 O0 2.093714 1_555
Mn0 O22 2.127355 1_455
Mn0 O20 2.156904 1_455
Mn0 O4 2.313070 1_555
Mn0 O5 2.353959 1_555
Mn1 O13 2.093714 1_555
Mn1 O15 2.127358 1_565
Mn1 O21 2.156902 1_565
Mn1 O4 2.313073 1_555
Mn1 O5 2.353962 1_555
Mn2 O7 2.093714 1_555
Mn2 O14 2.127353 1_555
Mn2 O12 2.156899 1_555
Mn2 O4 2.313083 1_555
Mn2 O5 2.353971 1_555
Mn3 O10 2.093714 1_555
Mn3 O11 2.127353 1_555
Mn3 O8 2.156899 1_556
Mn3 O18 2.313083 1_556
Mn3 O17 2.353971 1_555
Mn4 O23 2.093714 1_555
Mn4 O3 2.127355 1_545
Mn4 O9 2.156904 1_546
Mn4 O18 2.313070 1_556
Mn4 O17 2.353959 1_555
Mn5 O19 2.093714 1_555
Mn5 O2 2.127358 1_655
Mn5 O1 2.156902 1_656
Mn5 O18 2.313073 1_556
Mn5 O17 2.353962 1_555
O0 P5 1.560316 1_565
O1 P2 1.549566 1_555
O2 P0 1.545645 1_555
O3 P0 1.545642 1_555
O4 P0 1.588834 1_555
O5 P2 1.576874 1_555
O6 P1 1.547649 1_555
O7 P5 1.560311 1_555
O8 P2 1.549573 1_555
O9 P2 1.549571 1_555
O10 P1 1.560311 1_556
O11 P0 1.545649 1_555
O12 P3 1.549573 1_555
O13 P5 1.560310 1_665
O14 P4 1.545649 1_555
O15 P4 1.545645 1_555
O16 P5 1.547649 1_555
O17 P3 1.576874 1_555
O18 P4 1.588834 1_555
O19 P1 1.560310 1_666
O20 P3 1.549571 1_555
O21 P3 1.549566 1_555
O22 P4 1.545642 1_555
O23 P1 1.560316 1_656
