# generated using pymatgen
data_Zr6Ti2Al15Ir7
_symmetry_space_group_name_H-M   'P 1'
_cell_length_a   8.77844899
_cell_length_b   8.77844837
_cell_length_c   8.77844882
_cell_angle_alpha   120.08016580
_cell_angle_beta   119.84617329
_cell_angle_gamma   90.06392534
_symmetry_Int_Tables_number   1
_chemical_formula_structural   Zr6Ti2Al15Ir7
_chemical_formula_sum   'Zr6 Ti2 Al15 Ir7'
_cell_volume   478.60526648
_cell_formula_units_Z   1
loop_
 _symmetry_equiv_pos_site_id
 _symmetry_equiv_pos_as_xyz
  1  'x, y, z'
loop_
 _atom_site_type_symbol
 _atom_site_label
 _atom_site_symmetry_multiplicity
 _atom_site_fract_x
 _atom_site_fract_y
 _atom_site_fract_z
 _atom_site_occupancy
  Zr  Zr0  1  0.79467498  0.29121584  0.07906699  1
  Zr  Zr1  1  0.21214884  0.29121584  0.49654086  1
  Zr  Zr2  1  0.20643309  0.70643309  0.50000000  1
  Zr  Zr3  1  0.21214884  0.71560798  0.92093301  1
  Zr  Zr4  1  0.79467498  0.71560798  0.50345914  1
  Zr  Zr5  1  0.78523251  0.28523251  0.50000000  1
  Ti  Ti0  1  0.38008264  0.12366627  0.74358364  1
  Ti  Ti1  1  0.38008264  0.63649900  0.25641636  1
  Al  Al0  1  0.99543658  0.49543658  0.50000000  1
  Al  Al1  1  0.16185259  0.33700265  0.17514806  1
  Al  Al2  1  0.16185259  0.98670553  0.82485194  1
  Al  Al3  1  0.15675466  0.34011663  0.81663604  1
  Al  Al4  1  0.52347959  0.34011663  0.18336396  1
  Al  Al5  1  0.83818379  0.65950454  0.82132175  1
  Al  Al6  1  0.83818379  0.01686004  0.17867825  1
  Al  Al7  1  0.83687588  0.66110516  0.17577071  1
  Al  Al8  1  0.48533445  0.66110516  0.82422929  1
  Al  Al9  1  0.38026730  0.12131600  0.25895129  1
  Al  Al10  1  0.86236571  0.12131600  0.74104871  1
  Al  Al11  1  0.62051189  0.87723644  0.25672455  1
  Al  Al12  1  0.62051189  0.36378734  0.74327545  1
  Al  Al13  1  0.62022802  0.87790337  0.74232466  1
  Al  Al14  1  0.13557771  0.87790337  0.25767534  1
  Ir  Ir0  1  0.00264810  0.00011179  0.50188987  1
  Ir  Ir1  1  0.49822192  0.00011179  0.99746370  1
  Ir  Ir2  1  0.49735235  0.49735235  1.00000000  1
  Ir  Ir3  1  0.49822192  0.50075822  0.49811013  1
  Ir  Ir4  1  0.00264810  0.50075822  0.00253630  1
  Ir  Ir5  1  0.00001725  0.00001725  0.00000000  1
  Ir  Ir6  1  0.49798741  0.99798741  0.50000000  1
loop_
_geom_bond_atom_site_label_1
_geom_bond_atom_site_label_2
_geom_bond_distance
_geom_bond_site_symmetry_2
Ti0 Zr1 3.009945 1_555
Ti0 Zr0 3.009945 1_556
Ti0 Zr2 3.033717 1_545
Ti1 Zr3 3.009945 1_554
Ti1 Zr4 3.009945 1_555
Ti1 Zr2 3.033717 1_555
Al0 Zr5 2.608144 1_555
Al0 Zr3 2.616199 1_655
Al0 Zr0 2.616199 1_555
Al0 Zr4 2.616199 1_555
Al0 Zr1 2.616199 1_655
Al0 Zr2 2.617976 1_655
Al1 Ir5 2.527925 1_555
Al1 Ir4 2.528999 1_555
Al1 Ir3 2.529014 1_555
Al1 Zr0 2.865936 1_455
Al1 Zr1 2.865948 1_555
Al1 Zr2 2.901443 1_555
Al2 Ir5 2.527913 1_566
Al2 Ir0 2.529009 1_565
Al2 Ir1 2.529017 1_565
Al2 Zr4 2.865939 1_455
Al2 Zr3 2.865945 1_555
Al2 Zr2 2.901457 1_555
Al3 Ir0 2.525192 1_555
Al3 Ir4 2.525207 1_556
Al3 Ir2 2.531617 1_555
Al3 Zr5 2.868063 1_455
Al3 Zr1 2.909958 1_555
Al3 Zr3 2.909969 1_555
Al4 Ir3 2.525186 1_555
Al4 Ir1 2.525194 1_554
Al4 Ir2 2.531634 1_554
Al4 Zr5 2.868055 1_555
Al4 Zr4 2.909972 1_555
Al4 Zr0 2.909978 1_555
Al5 Ir5 2.546821 1_666
Al5 Ir4 2.549049 1_656
Al5 Ir3 2.549056 1_555
Al5 Zr5 2.892876 1_555
Al5 Zr3 2.914038 1_655
Al5 Zr4 2.914043 1_555
Al6 Ir5 2.546818 1_655
Al6 Ir0 2.549045 1_655
Al6 Ir1 2.549061 1_554
Al6 Zr5 2.892887 1_555
Al6 Zr1 2.914044 1_655
Al6 Zr0 2.914055 1_555
Al7 Ir0 2.544235 1_665
Al7 Ir4 2.544236 1_655
Al7 Ir2 2.553446 1_554
Al7 Zr0 2.884859 1_555
Al7 Zr4 2.884859 1_555
Al7 Zr2 2.907755 1_655
Al8 Ir1 2.544235 1_565
Al8 Ir3 2.544235 1_555
Al8 Ir2 2.553446 1_555
Al8 Zr1 2.884859 1_555
Al8 Zr3 2.884859 1_555
Al8 Zr2 2.907755 1_555
Al9 Ir6 2.615342 1_545
Al9 Ir3 2.719072 1_555
Al9 Ir1 2.719072 1_554
Al9 Ir5 2.730673 1_555
Al9 Zr5 2.938515 1_555
Al9 Zr3 2.950073 1_544
Al9 Zr1 2.950073 1_555
Al10 Ir6 2.615349 1_545
Al10 Ir0 2.719065 1_655
Al10 Ir4 2.719072 1_656
Al10 Ir5 2.730673 1_656
Al10 Zr5 2.938514 1_555
Al10 Zr4 2.950072 1_545
Al10 Zr0 2.950080 1_556
Al11 Ir6 2.619313 1_555
Al11 Ir2 2.720619 1_554
Al11 Ir1 2.743590 1_564
Al11 Ir0 2.743590 1_665
Al11 Zr5 2.954112 1_565
Al11 Zr4 2.971750 1_555
Al11 Zr3 2.971750 1_554
Al12 Ir6 2.619313 1_545
Al12 Ir2 2.720619 1_555
Al12 Ir3 2.743590 1_555
Al12 Ir4 2.743590 1_656
Al12 Zr5 2.954112 1_555
Al12 Zr0 2.971750 1_556
Al12 Zr1 2.971750 1_555
Al13 Ir6 2.601188 1_555
Al13 Ir3 2.701104 1_555
Al13 Ir1 2.701104 1_565
Al13 Ir5 2.726919 1_666
Al13 Zr0 2.996348 1_566
Al13 Zr4 2.996348 1_555
Al13 Zr2 3.012083 1_555
Al14 Ir6 2.601195 1_555
Al14 Ir0 2.701097 1_565
Al14 Ir4 2.701104 1_555
Al14 Ir5 2.726919 1_565
Al14 Zr1 2.996347 1_565
Al14 Zr3 2.996355 1_554
Al14 Zr2 3.012082 1_555
Ir0 Ti0 2.709977 1_555
Ir0 Zr4 3.101639 1_445
Ir0 Zr2 3.137477 1_545
Ir0 Zr5 3.150918 1_455
Ir0 Zr1 3.179701 1_555
Ir1 Ti0 2.709977 1_555
Ir1 Zr3 3.101639 1_545
Ir1 Zr2 3.137477 1_545
Ir1 Zr5 3.150918 1_556
Ir1 Zr0 3.179701 1_556
Ir2 Ti0 2.677984 1_555
Ir2 Ti1 2.677985 1_556
Ir2 Zr4 3.167797 1_556
Ir2 Zr1 3.167797 1_555
Ir2 Zr3 3.167797 1_555
Ir2 Zr0 3.167797 1_556
Ir3 Ti1 2.709977 1_555
Ir3 Zr1 3.101639 1_555
Ir3 Zr2 3.137477 1_555
Ir3 Zr5 3.150918 1_555
Ir3 Zr4 3.179701 1_555
Ir4 Ti1 2.709977 1_555
Ir4 Zr0 3.101639 1_455
Ir4 Zr2 3.137477 1_555
Ir4 Zr5 3.150918 1_454
Ir4 Zr3 3.179701 1_554
Ir5 Zr1 3.121320 1_555
Ir5 Zr4 3.121320 1_444
Ir5 Zr0 3.121320 1_455
Ir5 Zr3 3.121320 1_544
Ir6 Ti1 2.588694 1_555
Ir6 Ti0 2.588695 1_565
