# generated using pymatgen
data_Sr4FeCo5N6
_symmetry_space_group_name_H-M   'P 1'
_cell_length_a   6.53042849
_cell_length_b   6.50984072
_cell_length_c   6.39894971
_cell_angle_alpha   88.22574299
_cell_angle_beta   88.39799265
_cell_angle_gamma   117.87858470
_symmetry_Int_Tables_number   1
_chemical_formula_structural   Sr4FeCo5N6
_chemical_formula_sum   'Sr4 Fe1 Co5 N6'
_cell_volume   240.06784955
_cell_formula_units_Z   1
loop_
 _symmetry_equiv_pos_site_id
 _symmetry_equiv_pos_as_xyz
  1  'x, y, z'
loop_
 _atom_site_type_symbol
 _atom_site_label
 _atom_site_symmetry_multiplicity
 _atom_site_fract_x
 _atom_site_fract_y
 _atom_site_fract_z
 _atom_site_occupancy
  Sr  Sr0  1  0.82468836  0.67684961  0.89666326  1
  Sr  Sr1  1  0.32492846  0.17084987  0.60634580  1
  Sr  Sr2  1  0.17330892  0.32177265  0.10469597  1
  Sr  Sr3  1  0.68030583  0.82806284  0.39478856  1
  Fe  Fe0  1  0.16084369  0.56470661  0.60582596  1
  Co  Co0  1  0.82202169  0.17126877  0.75146814  1
  Co  Co1  1  0.16653364  0.82001482  0.24792542  1
  Co  Co2  1  0.57274069  0.16570400  0.10501007  1
  Co  Co3  1  0.43399121  0.83733991  0.88780727  1
  Co  Co4  1  0.83624078  0.43553328  0.38349801  1
  N  N0  1  0.40985580  0.58872250  0.75096947  1
  N  N1  1  0.58555869  0.40833960  0.25034127  1
  N  N2  1  0.02068071  0.74112575  0.50937995  1
  N  N3  1  0.73812279  0.01731483  0.00819831  1
  N  N4  1  0.98684169  0.26756794  0.49949118  1
  N  N5  1  0.26333705  0.98482603  0.99759036  1
loop_
_geom_bond_atom_site_label_1
_geom_bond_atom_site_label_2
_geom_bond_distance
_geom_bond_site_symmetry_2
Fe0 N0 1.840411 1_555
Fe0 N2 1.873085 1_555
Fe0 N4 1.888113 1_455
Co0 N3 1.826916 1_556
Co0 N4 1.833208 1_555
Co1 N5 1.821927 1_554
Co1 N2 1.835823 1_555
Co2 N1 1.827126 1_555
Co2 N3 1.859750 1_555
Co2 N5 1.960694 1_544
Co3 N0 1.807725 1_555
Co3 N5 1.912053 1_555
Co3 N3 1.968772 1_566
Co4 N1 1.803782 1_555
Co4 N4 1.926134 1_555
Co4 N2 1.992429 1_655
N0 Sr0 2.694075 1_555
N0 Sr1 2.708806 1_555
N0 Sr2 2.753172 1_556
N0 Sr3 2.779049 1_555
N1 Sr2 2.681028 1_555
N1 Sr3 2.703727 1_555
N1 Sr1 2.753339 1_555
N1 Sr0 2.760544 1_554
N2 Sr3 2.653429 1_455
N2 Sr1 2.671467 1_565
N2 Sr0 2.685584 1_455
N3 Sr0 2.643560 1_544
N3 Sr3 2.665325 1_545
N3 Sr2 2.700450 1_655
N4 Sr1 2.663893 1_655
N4 Sr2 2.712996 1_655
N4 Sr3 2.734868 1_545
N5 Sr2 2.627406 1_566
N5 Sr1 2.682628 1_565
N5 Sr0 2.730390 1_455
