# generated using pymatgen
data_KCr3Sb12Ru
_symmetry_space_group_name_H-M   'P 1'
_cell_length_a   8.23793348
_cell_length_b   8.29618255
_cell_length_c   8.23793263
_cell_angle_alpha   109.61451273
_cell_angle_beta   109.32754913
_cell_angle_gamma   109.61450844
_symmetry_Int_Tables_number   1
_chemical_formula_structural   KCr3Sb12Ru
_chemical_formula_sum   'K1 Cr3 Sb12 Ru1'
_cell_volume   432.63522627
_cell_formula_units_Z   1
loop_
 _symmetry_equiv_pos_site_id
 _symmetry_equiv_pos_as_xyz
  1  'x, y, z'
loop_
 _atom_site_type_symbol
 _atom_site_label
 _atom_site_symmetry_multiplicity
 _atom_site_fract_x
 _atom_site_fract_y
 _atom_site_fract_z
 _atom_site_occupancy
  K  K0  1  0.00000000  0.00000000  0.00000000  1
  Cr  Cr0  1  0.50000000  0.50000000  0.50000000  1
  Cr  Cr1  1  0.00000000  0.00000000  0.50000000  1
  Cr  Cr2  1  0.50000000  0.00000000  0.00000000  1
  Sb  Sb0  1  0.65055857  0.84812162  0.50019885  1
  Sb  Sb1  1  0.34944143  0.15187838  0.49980115  1
  Sb  Sb2  1  0.84964028  0.19756305  0.34944143  1
  Sb  Sb3  1  0.81204211  0.65071976  0.14681635  1
  Sb  Sb4  1  0.85318365  0.50390242  0.66522477  1
  Sb  Sb5  1  0.18795789  0.34928024  0.85318365  1
  Sb  Sb6  1  0.15035972  0.80243695  0.65055857  1
  Sb  Sb7  1  0.50019885  0.65207623  0.84964028  1
  Sb  Sb8  1  0.49980115  0.34792377  0.15035972  1
  Sb  Sb9  1  0.14681635  0.49609758  0.33477523  1
  Sb  Sb10  1  0.33477523  0.83867765  0.18795789  1
  Sb  Sb11  1  0.66522477  0.16132235  0.81204211  1
  Ru  Ru0  1  0.00000000  0.50000000  0.00000000  1
loop_
_geom_bond_atom_site_label_1
_geom_bond_atom_site_label_2
_geom_bond_distance
_geom_bond_site_symmetry_2
K0 Sb5 3.582901 1_554
K0 Sb3 3.582901 1_445
K0 Sb10 3.582907 1_545
K0 Sb11 3.582907 1_454
K0 Sb9 3.582910 1_555
K0 Sb4 3.582910 1_444
K0 Sb0 3.614274 1_444
K0 Sb1 3.614274 1_555
K0 Sb2 3.614274 1_455
K0 Sb6 3.614274 1_544
K0 Sb8 3.614278 1_555
K0 Sb7 3.614278 1_444
Cr0 Sb8 2.728314 1_555
Cr0 Sb7 2.728314 1_555
Cr0 Sb0 2.733110 1_555
Cr0 Sb1 2.733110 1_555
Cr0 Sb4 2.757659 1_555
Cr0 Sb9 2.757659 1_555
Cr1 Sb1 2.728315 1_555
Cr1 Sb0 2.728315 1_445
Cr1 Sb6 2.733109 1_545
Cr1 Sb2 2.733109 1_455
Cr1 Sb5 2.757656 1_555
Cr1 Sb3 2.757656 1_445
Cr2 Sb2 2.728315 1_555
Cr2 Sb6 2.728315 1_544
Cr2 Sb8 2.733117 1_555
Cr2 Sb7 2.733117 1_544
Cr2 Sb11 2.757652 1_554
Cr2 Sb10 2.757652 1_545
Sb0 Sb11 2.909961 1_565
Sb0 Sb10 2.947599 1_555
Sb1 Sb10 2.909961 1_545
Sb1 Sb11 2.947599 1_555
Sb2 Sb9 2.909956 1_655
Sb2 Sb4 2.947595 1_555
Sb3 Sb7 2.909951 1_554
Sb3 Sb8 2.947600 1_555
Sb4 Sb6 2.909956 1_655
Sb5 Sb8 2.909951 1_556
Sb5 Sb7 2.947600 1_555
Sb6 Sb9 2.947595 1_555
Ru0 Sb3 2.635893 1_455
Ru0 Sb5 2.635893 1_554
Ru0 Sb9 2.635896 1_555
Ru0 Sb4 2.635896 1_454
Ru0 Sb10 2.635898 1_555
Ru0 Sb11 2.635898 1_454
