# generated using pymatgen
data_Lu4Si3Sn3Ir7
_symmetry_space_group_name_H-M   'P 1'
_cell_length_a   7.24517634
_cell_length_b   7.24517677
_cell_length_c   7.35546218
_cell_angle_alpha   109.77987074
_cell_angle_beta   109.77987197
_cell_angle_gamma   109.16081237
_symmetry_Int_Tables_number   1
_chemical_formula_structural   Lu4Si3Sn3Ir7
_chemical_formula_sum   'Lu4 Si3 Sn3 Ir7'
_cell_volume   296.08577038
_cell_formula_units_Z   1
loop_
 _symmetry_equiv_pos_site_id
 _symmetry_equiv_pos_as_xyz
  1  'x, y, z'
loop_
 _atom_site_type_symbol
 _atom_site_label
 _atom_site_symmetry_multiplicity
 _atom_site_fract_x
 _atom_site_fract_y
 _atom_site_fract_z
 _atom_site_occupancy
  Lu  Lu0  1  0.00000000  0.00000000  0.55831501  1
  Lu  Lu1  1  1.00000000  0.46871371  0.98854210  1
  Lu  Lu2  1  0.46871371  1.00000000  0.98854210  1
  Lu  Lu3  1  0.53128629  0.53128629  0.51982839  1
  Si  Si0  1  0.34271206  0.34271206  0.00649259  1
  Si  Si1  1  0.65728794  1.00000000  0.66378053  1
  Si  Si2  1  0.00000000  0.65728794  0.66378053  1
  Sn  Sn0  1  0.71027128  0.71027128  0.01574913  1
  Sn  Sn1  1  0.28972872  0.00000000  0.30547685  1
  Sn  Sn2  1  1.00000000  0.28972872  0.30547685  1
  Ir  Ir0  1  0.74816148  0.25066718  0.50616876  1
  Ir  Ir1  1  0.74933282  0.49749430  0.25549959  1
  Ir  Ir2  1  0.50250570  0.25183852  0.75800529  1
  Ir  Ir3  1  0.25183852  0.50250570  0.75800529  1
  Ir  Ir4  1  0.25066718  0.74816148  0.50616876  1
  Ir  Ir5  1  0.49749430  0.74933282  0.25549959  1
  Ir  Ir6  1  0.00000000  0.00000000  0.94466865  1
loop_
_geom_bond_atom_site_label_1
_geom_bond_atom_site_label_2
_geom_bond_distance
_geom_bond_site_symmetry_2
Lu0 Si0 2.840914 1_556
Lu0 Si1 2.840914 1_445
Lu0 Si2 2.840914 1_545
Lu0 Sn0 3.241474 1_445
Lu0 Sn1 3.241480 1_555
Lu0 Sn2 3.241480 1_455
Lu1 Si0 2.892031 1_656
Lu1 Si1 2.892031 1_545
Lu1 Sn2 3.026909 1_556
Lu1 Si2 3.127583 1_655
Lu1 Sn1 3.157251 1_666
Lu1 Sn0 3.157252 1_556
Lu2 Si2 2.892031 1_555
Lu2 Si0 2.892031 1_566
Lu2 Sn1 3.026909 1_566
Lu2 Si1 3.127583 1_555
Lu2 Sn2 3.157251 1_566
Lu2 Sn0 3.157252 1_556
Lu3 Si2 2.892031 1_655
Lu3 Si1 2.892031 1_555
Lu3 Sn0 3.026916 1_556
Lu3 Si0 3.127583 1_555
Lu3 Sn2 3.157251 1_455
Lu3 Sn1 3.157251 1_555
Ir0 Si2 2.465868 1_655
Ir0 Si1 2.496492 1_545
Ir0 Sn2 2.712043 1_555
Ir0 Sn1 2.723348 1_555
Ir0 Lu1 2.888999 1_555
Ir0 Lu3 2.945915 1_555
Ir0 Lu0 2.991275 1_655
Ir0 Lu2 3.095589 1_544
Ir1 Si0 2.465865 1_555
Ir1 Si2 2.496504 1_655
Ir1 Sn0 2.712026 1_555
Ir1 Sn2 2.723349 1_555
Ir1 Lu3 2.889011 1_555
Ir1 Lu2 2.945915 1_544
Ir1 Lu0 2.991277 1_665
Ir1 Lu1 3.095577 1_554
Ir2 Si1 2.465865 1_545
Ir2 Si0 2.496504 1_556
Ir2 Sn1 2.712031 1_555
Ir2 Sn0 2.723350 1_556
Ir2 Lu2 2.889011 1_545
Ir2 Lu1 2.945915 1_555
Ir2 Lu0 2.991277 1_555
Ir2 Lu3 3.095577 1_555
Ir3 Si2 2.465865 1_555
Ir3 Si0 2.496504 1_556
Ir3 Sn2 2.712031 1_455
Ir3 Sn0 2.723350 1_556
Ir3 Lu1 2.889011 1_455
Ir3 Lu2 2.945915 1_555
Ir3 Lu0 2.991277 1_555
Ir3 Lu3 3.095577 1_555
Ir4 Si1 2.465868 1_555
Ir4 Si2 2.496492 1_555
Ir4 Sn1 2.712044 1_565
Ir4 Sn2 2.723348 1_455
Ir4 Lu2 2.888999 1_555
Ir4 Lu3 2.945915 1_555
Ir4 Lu0 2.991275 1_565
Ir4 Lu1 3.095589 1_454
Ir5 Si0 2.465865 1_555
Ir5 Si1 2.496504 1_555
Ir5 Sn0 2.712026 1_555
Ir5 Sn1 2.723349 1_565
Ir5 Lu3 2.889011 1_555
Ir5 Lu1 2.945915 1_454
Ir5 Lu0 2.991277 1_665
Ir5 Lu2 3.095577 1_554
Ir6 Si1 2.638532 1_445
Ir6 Si2 2.638533 1_545
Ir6 Si0 2.638533 1_556
Ir6 Sn1 2.771125 1_556
Ir6 Sn2 2.771125 1_456
Ir6 Sn0 2.771131 1_446
Ir6 Lu0 2.841810 1_555
Ir6 Lu2 3.300705 1_545
Ir6 Lu3 3.300705 1_445
Ir6 Lu1 3.300705 1_455
