# generated using pymatgen
data_Cs2TaAuSe4
_symmetry_space_group_name_H-M   'P 1'
_cell_length_a   14.84647398
_cell_length_b   13.22646285
_cell_length_c   7.97043007
_cell_angle_alpha   85.08911234
_cell_angle_beta   62.57470062
_cell_angle_gamma   32.33617966
_symmetry_Int_Tables_number   1
_chemical_formula_structural   Cs2TaAuSe4
_chemical_formula_sum   'Cs4 Ta2 Au2 Se8'
_cell_volume   571.34483114
_cell_formula_units_Z   2
loop_
 _symmetry_equiv_pos_site_id
 _symmetry_equiv_pos_as_xyz
  1  'x, y, z'
loop_
 _atom_site_type_symbol
 _atom_site_label
 _atom_site_symmetry_multiplicity
 _atom_site_fract_x
 _atom_site_fract_y
 _atom_site_fract_z
 _atom_site_occupancy
  Cs  Cs0  1  0.67984744  0.67984744  0.32015256  1
  Cs  Cs1  1  0.32015256  0.32015256  0.67984744  1
  Cs  Cs2  1  0.57015256  0.57015256  0.92984744  1
  Cs  Cs3  1  0.92984744  0.92984744  0.57015256  1
  Ta  Ta0  1  0.50000000  0.50000000  0.50000000  1
  Ta  Ta1  1  0.75000000  0.75000000  0.75000000  1
  Au  Au0  1  0.00000000  0.00000000  0.00000000  1
  Au  Au1  1  0.25000000  0.25000000  0.25000000  1
  Se  Se0  1  0.23575429  0.87498127  0.56949105  1
  Se  Se1  1  0.31977440  0.56949105  0.87498127  1
  Se  Se2  1  0.56949105  0.31977440  0.23575429  1
  Se  Se3  1  0.87498127  0.23575429  0.31977440  1
  Se  Se4  1  0.37501873  0.01424571  0.93022560  1
  Se  Se5  1  0.93022560  0.68050895  0.37501873  1
  Se  Se6  1  0.68050895  0.93022560  0.01424571  1
  Se  Se7  1  0.01424571  0.37501873  0.68050895  1
loop_
_geom_bond_atom_site_label_1
_geom_bond_atom_site_label_2
_geom_bond_distance
_geom_bond_site_symmetry_2
Cs0 Se4 3.643292 1_565
Cs0 Se7 3.643299 1_654
Cs0 Se0 3.759476 1_555
Cs0 Se3 3.759477 1_555
Cs0 Se4 3.908719 1_654
Cs0 Se7 3.908721 1_565
Cs0 Se5 3.944895 1_555
Cs0 Se6 3.944899 1_555
Cs1 Se5 3.643295 1_545
Cs1 Se6 3.643298 1_456
Cs1 Se2 3.759485 1_555
Cs1 Se1 3.759489 1_555
Cs1 Se5 3.908718 1_456
Cs1 Se6 3.908724 1_545
Cs1 Se4 3.944906 1_555
Cs1 Se7 3.944910 1_555
Cs2 Se3 3.643292 1_555
Cs2 Se0 3.643299 1_556
Cs2 Se7 3.759476 1_655
Cs2 Se4 3.759477 1_565
Cs2 Se3 3.908719 1_466
Cs2 Se0 3.908721 1_645
Cs2 Se1 3.944895 1_555
Cs2 Se2 3.944899 1_556
Cs3 Se1 3.643295 1_565
Cs3 Se2 3.643298 1_655
Cs3 Se6 3.759485 1_556
Cs3 Se5 3.759489 1_555
Cs3 Se1 3.908718 1_654
Cs3 Se2 3.908724 1_566
Cs3 Se3 3.944906 1_565
Cs3 Se0 3.944910 1_655
Au0 Se2 2.624282 1_455
Au0 Se1 2.624284 1_544
Au0 Se0 2.624287 1_544
Au0 Se3 2.624293 1_455
Au0 Ta0 3.004106 1_455
Au0 Ta0 3.004106 1_544
Au1 Se6 2.624282 1_545
Au1 Se5 2.624284 1_455
Au1 Se7 2.624287 1_555
Au1 Se4 2.624293 1_554
Au1 Ta1 3.004106 1_544
Au1 Ta1 3.004106 1_455
Se0 Ta0 2.425829 1_555
Se1 Ta0 2.425826 1_555
Se2 Ta0 2.425820 1_555
Se3 Ta0 2.425832 1_555
Se4 Ta1 2.425832 1_545
Se5 Ta1 2.425826 1_555
Se6 Ta1 2.425820 1_554
Se7 Ta1 2.425829 1_455
