# generated using pymatgen
data_Nb2OsSe6
_symmetry_space_group_name_H-M   'P 1'
_cell_length_a   5.87614227
_cell_length_b   5.87614192
_cell_length_c   7.09586478
_cell_angle_alpha   82.05597333
_cell_angle_beta   82.05596507
_cell_angle_gamma   120.02808697
_symmetry_Int_Tables_number   1
_chemical_formula_structural   Nb2OsSe6
_chemical_formula_sum   'Nb2 Os1 Se6'
_cell_volume   203.85599576
_cell_formula_units_Z   1
loop_
 _symmetry_equiv_pos_site_id
 _symmetry_equiv_pos_as_xyz
  1  'x, y, z'
loop_
 _atom_site_type_symbol
 _atom_site_label
 _atom_site_symmetry_multiplicity
 _atom_site_fract_x
 _atom_site_fract_y
 _atom_site_fract_z
 _atom_site_occupancy
  Nb  Nb0  1  0.83319307  0.50043500  0.49980771  1
  Nb  Nb1  1  0.50043500  0.83319307  0.49980771  1
  Os  Os0  1  0.16647511  0.16647511  0.50018857  1
  Se  Se0  1  0.57119023  0.24769908  0.25661686  1
  Se  Se1  1  0.24769908  0.57119023  0.25661686  1
  Se  Se2  1  0.92492500  0.92492500  0.25657644  1
  Se  Se3  1  0.76188199  0.76188199  0.74412932  1
  Se  Se4  1  0.40890078  0.08520274  0.74327826  1
  Se  Se5  1  0.08520274  0.40890078  0.74327826  1
loop_
_geom_bond_atom_site_label_1
_geom_bond_atom_site_label_2
_geom_bond_distance
_geom_bond_site_symmetry_2
Nb0 Se2 2.588135 1_555
Nb0 Se0 2.589992 1_555
Nb0 Se1 2.590306 1_655
Nb0 Se4 2.590355 1_555
Nb0 Se5 2.591217 1_655
Nb0 Se3 2.592516 1_555
Nb1 Se2 2.588135 1_555
Nb1 Se1 2.589992 1_555
Nb1 Se0 2.590306 1_565
Nb1 Se5 2.590355 1_555
Nb1 Se4 2.591217 1_565
Nb1 Se3 2.592516 1_555
Os0 Se2 2.521415 1_445
Os0 Se5 2.522920 1_555
Os0 Se4 2.522921 1_555
Os0 Se3 2.523626 1_445
Os0 Se0 2.523983 1_555
Os0 Se1 2.523983 1_555
