# generated using pymatgen
data_KNa3(Ga3Se5)4
_symmetry_space_group_name_H-M   'P 1'
_cell_length_a   9.73805672
_cell_length_b   9.73805572
_cell_length_c   9.73805676
_cell_angle_alpha   89.90551511
_cell_angle_beta   89.90550848
_cell_angle_gamma   89.90551459
_symmetry_Int_Tables_number   1
_chemical_formula_structural   KNa3(Ga3Se5)4
_chemical_formula_sum   'K1 Na3 Ga12 Se20'
_cell_volume   923.45361646
_cell_formula_units_Z   1
loop_
 _symmetry_equiv_pos_site_id
 _symmetry_equiv_pos_as_xyz
  1  'x, y, z'
loop_
 _atom_site_type_symbol
 _atom_site_label
 _atom_site_symmetry_multiplicity
 _atom_site_fract_x
 _atom_site_fract_y
 _atom_site_fract_z
 _atom_site_occupancy
  K  K0  1  0.50000000  0.50000000  0.50000000  1
  Na  Na0  1  0.25348358  0.00000000  0.74651642  1
  Na  Na1  1  0.74651642  0.25348358  1.00000000  1
  Na  Na2  1  0.00000000  0.74651642  0.25348358  1
  Ga  Ga0  1  0.84128364  0.88056949  0.57262504  1
  Ga  Ga1  1  0.57262504  0.84128364  0.88056949  1
  Ga  Ga2  1  0.88056949  0.57262504  0.84128364  1
  Ga  Ga3  1  0.15871636  0.42737496  0.11943051  1
  Ga  Ga4  1  0.11943051  0.15871636  0.42737496  1
  Ga  Ga5  1  0.42737496  0.11943051  0.15871636  1
  Ga  Ga6  1  0.74647656  0.16309394  0.34297170  1
  Ga  Ga7  1  0.34297170  0.74647656  0.16309394  1
  Ga  Ga8  1  0.16309394  0.34297170  0.74647656  1
  Ga  Ga9  1  0.25352344  0.65702830  0.83690606  1
  Ga  Ga10  1  0.83690606  0.25352344  0.65702830  1
  Ga  Ga11  1  0.65702830  0.83690606  0.25352344  1
  Se  Se0  1  0.17706440  0.82293560  1.00000000  1
  Se  Se1  1  0.82293560  0.00000000  0.17706440  1
  Se  Se2  1  0.17854404  0.17854404  0.17854404  1
  Se  Se3  1  0.82145596  0.82145596  0.82145596  1
  Se  Se4  1  0.00000000  0.17706440  0.82293560  1
  Se  Se5  1  0.92480727  0.50000000  0.07519273  1
  Se  Se6  1  0.07519273  0.92480727  0.50000000  1
  Se  Se7  1  0.50000000  0.07519273  0.92480727  1
  Se  Se8  1  0.75536260  0.69895061  0.42978215  1
  Se  Se9  1  0.42978215  0.75536260  0.69895061  1
  Se  Se10  1  0.69895061  0.42978215  0.75536260  1
  Se  Se11  1  0.24463740  0.57021785  0.30104939  1
  Se  Se12  1  0.30104939  0.24463740  0.57021785  1
  Se  Se13  1  0.57021785  0.30104939  0.24463740  1
  Se  Se14  1  0.68034601  0.07374079  0.57194416  1
  Se  Se15  1  0.57194416  0.68034601  0.07374079  1
  Se  Se16  1  0.07374079  0.57194416  0.68034601  1
  Se  Se17  1  0.31965399  0.42805584  0.92625921  1
  Se  Se18  1  0.92625921  0.31965399  0.42805584  1
  Se  Se19  1  0.42805584  0.92625921  0.31965399  1
loop_
_geom_bond_atom_site_label_1
_geom_bond_atom_site_label_2
_geom_bond_distance
_geom_bond_site_symmetry_2
K0 Se9 3.226580 1_555
K0 Se12 3.226580 1_555
K0 Se13 3.226580 1_555
K0 Se8 3.226580 1_555
K0 Se11 3.226580 1_555
K0 Se10 3.226580 1_555
Na0 Se9 2.970660 1_545
Na0 Se12 2.970660 1_555
Na0 Se7 3.055675 1_555
Na0 Se6 3.055675 1_545
Na0 Se4 3.099064 1_555
Na0 Se0 3.099064 1_545
Na1 Se13 2.970660 1_556
Na1 Se10 2.970660 1_555
Na1 Se5 3.055675 1_556
Na1 Se7 3.055675 1_555
Na1 Se4 3.099064 1_655
Na1 Se1 3.099064 1_556
Na2 Se8 2.970660 1_455
Na2 Se11 2.970660 1_555
Na2 Se5 3.055675 1_455
Na2 Se6 3.055675 1_555
Na2 Se1 3.099064 1_465
Na2 Se0 3.099064 1_554
Ga0 Se8 2.404126 1_555
Ga0 Se6 2.423042 1_655
Ga0 Se14 2.446442 1_565
Ga0 Se3 2.496885 1_555
Ga1 Se9 2.404126 1_555
Ga1 Se7 2.423042 1_565
Ga1 Se15 2.446442 1_556
Ga1 Se3 2.496885 1_555
Ga2 Se10 2.404126 1_555
Ga2 Se5 2.423042 1_556
Ga2 Se16 2.446442 1_655
Ga2 Se3 2.496885 1_555
Ga3 Se11 2.404126 1_555
Ga3 Se5 2.423042 1_455
Ga3 Se17 2.446442 1_554
Ga3 Se2 2.496885 1_555
Ga4 Se12 2.404126 1_555
Ga4 Se6 2.423042 1_545
Ga4 Se18 2.446442 1_455
Ga4 Se2 2.496885 1_555
Ga5 Se13 2.404126 1_555
Ga5 Se7 2.423042 1_554
Ga5 Se19 2.446442 1_545
Ga5 Se2 2.496885 1_555
Ga6 Se13 2.379370 1_555
Ga6 Se1 2.384872 1_555
Ga6 Se18 2.468542 1_555
Ga6 Se14 2.476755 1_555
Ga7 Se11 2.379370 1_555
Ga7 Se0 2.384872 1_554
Ga7 Se19 2.468542 1_555
Ga7 Se15 2.476755 1_555
Ga8 Se12 2.379370 1_555
Ga8 Se4 2.384872 1_555
Ga8 Se17 2.468542 1_555
Ga8 Se16 2.476755 1_555
Ga9 Se9 2.379370 1_555
Ga9 Se0 2.384872 1_555
Ga9 Se16 2.468542 1_555
Ga9 Se17 2.476755 1_555
Ga10 Se10 2.379370 1_555
Ga10 Se4 2.384872 1_655
Ga10 Se14 2.468542 1_555
Ga10 Se18 2.476755 1_555
Ga11 Se8 2.379370 1_555
Ga11 Se1 2.384872 1_565
Ga11 Se15 2.468542 1_555
Ga11 Se19 2.476755 1_555
