# generated using pymatgen
data_Be4MoAu
_symmetry_space_group_name_H-M   'P 1'
_cell_length_a   4.46237465
_cell_length_b   4.46237494
_cell_length_c   7.42423250
_cell_angle_alpha   90.00000000
_cell_angle_beta   90.00000000
_cell_angle_gamma   119.99999785
_symmetry_Int_Tables_number   1
_chemical_formula_structural   Be4MoAu
_chemical_formula_sum   'Be8 Mo2 Au2'
_cell_volume   128.03075064
_cell_formula_units_Z   2
loop_
 _symmetry_equiv_pos_site_id
 _symmetry_equiv_pos_as_xyz
  1  'x, y, z'
loop_
 _atom_site_type_symbol
 _atom_site_label
 _atom_site_symmetry_multiplicity
 _atom_site_fract_x
 _atom_site_fract_y
 _atom_site_fract_z
 _atom_site_occupancy
  Be  Be0  1  0.00000000  0.00000000  0.50000000  1
  Be  Be1  1  0.00000000  0.00000000  0.00000000  1
  Be  Be2  1  0.83300835  0.16699165  0.24593582  1
  Be  Be3  1  0.83300835  0.66601669  0.24593582  1
  Be  Be4  1  0.33398331  0.16699165  0.24593582  1
  Be  Be5  1  0.16699165  0.83300835  0.75406418  1
  Be  Be6  1  0.16699165  0.33398331  0.75406418  1
  Be  Be7  1  0.66601669  0.83300835  0.75406418  1
  Mo  Mo0  1  0.66666700  0.33333300  0.95260872  1
  Mo  Mo1  1  0.33333300  0.66666700  0.04739128  1
  Au  Au0  1  0.33333300  0.66666700  0.41994818  1
  Au  Au1  1  0.66666700  0.33333300  0.58005182  1
loop_
_geom_bond_atom_site_label_1
_geom_bond_atom_site_label_2
_geom_bond_distance
_geom_bond_site_symmetry_2
Be0 Be7 2.285552 1_445
Be0 Be5 2.285552 1_545
Be0 Be4 2.285552 1_555
Be0 Be2 2.285552 1_455
Be0 Be6 2.285552 1_555
Be0 Be3 2.285552 1_445
Be1 Be4 2.236008 1_555
Be1 Be2 2.236008 1_455
Be1 Be7 2.236008 1_444
Be1 Be5 2.236008 1_544
Be1 Be3 2.236008 1_445
Be1 Be6 2.236008 1_554
Be1 Mo1 2.600265 1_545
Be1 Mo0 2.600265 1_454
Be1 Mo0 2.600269 1_554
Be1 Mo1 2.600269 1_445
Be1 Mo1 2.600269 1_555
Be1 Mo0 2.600269 1_444
Be2 Be4 2.226837 1_555
Be2 Be3 2.226837 1_555
Be2 Be4 2.235538 1_655
Be2 Be3 2.235538 1_545
Be2 Mo0 2.528919 1_554
Be2 Mo1 2.674135 1_655
Be2 Mo1 2.674135 1_545
Be3 Be4 2.226837 1_555
Be3 Be4 2.235538 1_665
Be3 Mo0 2.528921 1_554
Be3 Mo1 2.674133 1_655
Be3 Mo1 2.674137 1_555
Be4 Mo0 2.528921 1_554
Be4 Mo1 2.674134 1_545
Be4 Mo1 2.674137 1_555
Be5 Be7 2.226837 1_555
Be5 Be6 2.226837 1_555
Be5 Be7 2.235538 1_455
Be5 Be6 2.235538 1_565
Be5 Mo1 2.528919 1_556
Be5 Mo0 2.674135 1_455
Be5 Mo0 2.674135 1_565
Be6 Be7 2.226837 1_555
Be6 Be7 2.235538 1_445
Be6 Mo1 2.528921 1_556
Be6 Mo0 2.674133 1_455
Be6 Mo0 2.674137 1_555
Be7 Mo1 2.528921 1_556
Be7 Mo0 2.674134 1_565
Be7 Mo0 2.674137 1_555
Mo0 Mo1 2.670723 1_656
Mo0 Mo1 2.670723 1_546
Mo0 Mo1 2.670730 1_556
Au0 Be3 2.578220 1_455
Au0 Be4 2.578220 1_565
Au0 Be2 2.578222 1_455
Au0 Be2 2.578222 1_565
Au0 Be3 2.578224 1_555
Au0 Be4 2.578224 1_555
Au0 Be0 2.644013 1_565
Au0 Be0 2.644016 1_665
Au0 Be0 2.644017 1_555
Au0 Mo1 2.765949 1_555
Au0 Be5 2.793936 1_555
Au0 Be7 2.793938 1_555
Au0 Be6 2.793938 1_555
Au0 Au1 2.837334 1_455
Au0 Au1 2.837334 1_565
Au0 Au1 2.837341 1_555
Au1 Be6 2.578220 1_655
Au1 Be7 2.578220 1_545
Au1 Be5 2.578222 1_655
Au1 Be5 2.578222 1_545
Au1 Be6 2.578224 1_555
Au1 Be7 2.578224 1_555
Au1 Be0 2.644013 1_655
Au1 Be0 2.644016 1_555
Au1 Be0 2.644017 1_665
Au1 Mo0 2.765949 1_555
Au1 Be2 2.793936 1_555
Au1 Be4 2.793938 1_555
Au1 Be3 2.793938 1_555
