# generated using pymatgen
data_Rb2SrOsO6
_symmetry_space_group_name_H-M   'P 1'
_cell_length_a   6.12090767
_cell_length_b   6.12090790
_cell_length_c   6.12090795
_cell_angle_alpha   120.00000027
_cell_angle_beta   120.00000152
_cell_angle_gamma   60.00000628
_symmetry_Int_Tables_number   1
_chemical_formula_structural   Rb2SrOsO6
_chemical_formula_sum   'Rb2 Sr1 Os1 O6'
_cell_volume   162.15581900
_cell_formula_units_Z   1
loop_
 _symmetry_equiv_pos_site_id
 _symmetry_equiv_pos_as_xyz
  1  'x, y, z'
loop_
 _atom_site_type_symbol
 _atom_site_label
 _atom_site_symmetry_multiplicity
 _atom_site_fract_x
 _atom_site_fract_y
 _atom_site_fract_z
 _atom_site_occupancy
  Rb  Rb0  1  0.74999800  0.74999800  0.24999800  1
  Rb  Rb1  1  0.25000000  0.25000000  0.74999900  1
  Sr  Sr0  1  0.50000000  0.50000000  0.49999900  1
  Os  Os0  1  0.00000000  0.00000000  0.00000000  1
  O  O0  1  0.21507034  0.21507034  0.21506934  1
  O  O1  1  0.78492966  0.21506934  0.21506934  1
  O  O2  1  0.21506934  0.78492966  0.21506934  1
  O  O3  1  0.78493066  0.78493066  0.78492966  1
  O  O4  1  0.78492966  0.21507034  0.78492966  1
  O  O5  1  0.21507034  0.78492966  0.78492966  1
loop_
_geom_bond_atom_site_label_1
_geom_bond_atom_site_label_2
_geom_bond_distance
_geom_bond_site_symmetry_2
O0 Os0 1.861707 1_555
O0 Sr0 2.466428 1_555
O0 Rb0 3.075352 1_545
O0 Rb0 3.075352 1_455
O0 Rb1 3.075354 1_555
O0 Rb1 3.075354 1_554
O1 Os0 1.861703 1_655
O1 Sr0 2.466428 1_555
O1 Rb0 3.075345 1_555
O1 Rb1 3.075354 1_655
O1 Rb1 3.075354 1_554
O1 Rb0 3.075363 1_545
O2 Os0 1.861703 1_565
O2 Sr0 2.466428 1_555
O2 Rb0 3.075345 1_555
O2 Rb1 3.075354 1_565
O2 Rb1 3.075354 1_554
O2 Rb0 3.075363 1_455
O3 Os0 1.861698 1_666
O3 Sr0 2.466437 1_555
O3 Rb0 3.075350 1_555
O3 Rb1 3.075355 1_565
O3 Rb1 3.075355 1_655
O3 Rb0 3.075362 1_556
O4 Os0 1.861707 1_656
O4 Sr0 2.466433 1_555
O4 Rb0 3.075342 1_556
O4 Rb1 3.075351 1_555
O4 Rb1 3.075357 1_655
O4 Rb0 3.075366 1_545
O5 Os0 1.861707 1_566
O5 Sr0 2.466433 1_555
O5 Rb0 3.075341 1_556
O5 Rb1 3.075351 1_555
O5 Rb1 3.075357 1_565
O5 Rb0 3.075366 1_455
