# generated using pymatgen
data_Be4Fe2W6C
_symmetry_space_group_name_H-M   'P 1'
_cell_length_a   7.54681526
_cell_length_b   7.54681527
_cell_length_c   7.54681484
_cell_angle_alpha   59.99999750
_cell_angle_beta   59.99999745
_cell_angle_gamma   59.99999835
_symmetry_Int_Tables_number   1
_chemical_formula_structural   Be4Fe2W6C
_chemical_formula_sum   'Be8 Fe4 W12 C2'
_cell_volume   303.93177976
_cell_formula_units_Z   2
loop_
 _symmetry_equiv_pos_site_id
 _symmetry_equiv_pos_as_xyz
  1  'x, y, z'
loop_
 _atom_site_type_symbol
 _atom_site_label
 _atom_site_symmetry_multiplicity
 _atom_site_fract_x
 _atom_site_fract_y
 _atom_site_fract_z
 _atom_site_occupancy
  Be  Be0  1  0.92046291  0.23861228  0.92046291  1
  Be  Be1  1  0.32953709  0.01138772  0.32953709  1
  Be  Be2  1  0.32953709  0.32953709  0.32953709  1
  Be  Be3  1  0.01138772  0.32953709  0.32953709  1
  Be  Be4  1  0.92046291  0.92046291  0.23861228  1
  Be  Be5  1  0.23861228  0.92046291  0.92046291  1
  Be  Be6  1  0.32953709  0.32953709  0.01138772  1
  Be  Be7  1  0.92046291  0.92046291  0.92046291  1
  Fe  Fe0  1  0.12500000  0.12500000  0.62500000  1
  Fe  Fe1  1  0.12500000  0.62500000  0.12500000  1
  Fe  Fe2  1  0.12500000  0.12500000  0.12500000  1
  Fe  Fe3  1  0.62500000  0.12500000  0.12500000  1
  W  W0  1  0.29803017  0.70196983  0.70196983  1
  W  W1  1  0.29803017  0.29803017  0.70196983  1
  W  W2  1  0.54803017  0.95196983  0.54803017  1
  W  W3  1  0.95196983  0.54803017  0.54803017  1
  W  W4  1  0.54803017  0.95196983  0.95196983  1
  W  W5  1  0.70196983  0.29803017  0.29803017  1
  W  W6  1  0.95196983  0.54803017  0.95196983  1
  W  W7  1  0.29803017  0.70196983  0.29803017  1
  W  W8  1  0.54803017  0.54803017  0.95196983  1
  W  W9  1  0.70196983  0.29803017  0.70196983  1
  W  W10  1  0.70196983  0.70196983  0.29803017  1
  W  W11  1  0.95196983  0.95196983  0.54803017  1
  C  C0  1  0.75000000  0.75000000  0.75000000  1
  C  C1  1  0.50000000  0.50000000  0.50000000  1
loop_
_geom_bond_atom_site_label_1
_geom_bond_atom_site_label_2
_geom_bond_distance
_geom_bond_site_symmetry_2
Be0 Fe2 2.288293 1_656
Be0 Fe0 2.288299 1_655
Be0 Fe3 2.288299 1_556
Be0 Be4 2.401014 1_546
Be0 Be5 2.401014 1_645
Be0 Be7 2.401015 1_545
Be0 W6 2.594778 1_555
Be0 W3 2.594782 1_555
Be0 W8 2.594782 1_555
Be0 W5 2.622806 1_556
Be0 W1 2.622806 1_655
Be0 W9 2.622813 1_555
Be1 Fe2 2.288293 1_555
Be1 Fe0 2.288299 1_555
Be1 Fe3 2.288299 1_555
Be1 Be6 2.401014 1_555
Be1 Be3 2.401014 1_555
Be1 Be2 2.401015 1_555
Be1 W7 2.594778 1_545
Be1 W0 2.594782 1_545
Be1 W10 2.594782 1_545
Be1 W4 2.622806 1_544
Be1 W11 2.622806 1_445
Be1 W2 2.622813 1_545
Be2 Fe0 2.288295 1_555
Be2 Fe3 2.288295 1_555
Be2 Fe1 2.288295 1_555
Be2 Be6 2.401014 1_555
Be2 Be3 2.401015 1_555
Be2 W1 2.594785 1_555
Be2 W5 2.594785 1_555
Be2 W7 2.594785 1_555
Be2 W8 2.622809 1_554
Be2 W3 2.622809 1_455
Be2 W2 2.622809 1_545
Be3 Fe2 2.288293 1_555
Be3 Fe0 2.288299 1_555
Be3 Fe1 2.288299 1_555
Be3 Be6 2.401014 1_555
Be3 W5 2.594778 1_455
Be3 W9 2.594782 1_455
Be3 W10 2.594782 1_455
Be3 W6 2.622806 1_454
Be3 W11 2.622806 1_445
Be3 W3 2.622813 1_455
Be4 Fe2 2.288293 1_665
Be4 Fe3 2.288299 1_565
Be4 Fe1 2.288299 1_655
Be4 Be5 2.401014 1_654
Be4 Be7 2.401014 1_554
Be4 W11 2.594778 1_555
Be4 W2 2.594782 1_555
Be4 W3 2.594782 1_555
Be4 W7 2.622806 1_655
Be4 W5 2.622806 1_565
Be4 W10 2.622813 1_555
Be5 Fe2 2.288293 1_566
Be5 Fe0 2.288299 1_565
Be5 Fe1 2.288299 1_556
Be5 Be7 2.401015 1_455
Be5 W4 2.594778 1_555
Be5 W2 2.594782 1_555
Be5 W8 2.594782 1_555
Be5 W7 2.622806 1_556
Be5 W1 2.622806 1_565
Be5 W0 2.622813 1_555
Be6 Fe2 2.288293 1_555
Be6 Fe3 2.288299 1_555
Be6 Fe1 2.288299 1_555
Be6 W1 2.594778 1_554
Be6 W9 2.594782 1_554
Be6 W0 2.594782 1_554
Be6 W6 2.622806 1_454
Be6 W4 2.622806 1_544
Be6 W8 2.622813 1_554
Be7 Fe0 2.288295 1_665
Be7 Fe3 2.288295 1_566
Be7 Fe1 2.288295 1_656
Be7 W11 2.594785 1_555
Be7 W4 2.594785 1_555
Be7 W6 2.594785 1_555
Be7 W10 2.622809 1_556
Be7 W0 2.622809 1_655
Be7 W9 2.622809 1_565
Fe0 W2 2.640079 1_545
Fe0 W9 2.640079 1_455
Fe0 W3 2.640079 1_455
Fe0 W0 2.640079 1_545
Fe0 W1 2.640079 1_555
Fe0 W11 2.640079 1_445
Fe1 W3 2.640079 1_455
Fe1 W0 2.640079 1_554
Fe1 W8 2.640079 1_554
Fe1 W10 2.640079 1_455
Fe1 W7 2.640079 1_555
Fe1 W6 2.640079 1_454
Fe2 W11 2.640079 1_445
Fe2 W1 2.640079 1_554
Fe2 W4 2.640079 1_544
Fe2 W5 2.640079 1_455
Fe2 W6 2.640079 1_454
Fe2 W7 2.640079 1_545
Fe3 W2 2.640079 1_545
Fe3 W9 2.640079 1_554
Fe3 W8 2.640079 1_554
Fe3 W10 2.640079 1_545
Fe3 W5 2.640079 1_555
Fe3 W4 2.640079 1_544
C0 W4 2.155585 1_555
C0 W3 2.155585 1_555
C0 W6 2.155585 1_555
C0 W2 2.155585 1_555
C0 W11 2.155585 1_555
C0 W8 2.155585 1_555
C1 W0 2.155585 1_555
C1 W5 2.155585 1_555
C1 W9 2.155585 1_555
C1 W7 2.155585 1_555
C1 W10 2.155585 1_555
C1 W1 2.155585 1_555
