# generated using pymatgen
data_Li4HfZrBr12
_symmetry_space_group_name_H-M   'P 1'
_cell_length_a   6.68585279
_cell_length_b   6.68585186
_cell_length_c   12.92903596
_cell_angle_alpha   90.00000000
_cell_angle_beta   90.00000000
_cell_angle_gamma   119.99999512
_symmetry_Int_Tables_number   1
_chemical_formula_structural   Li4HfZrBr12
_chemical_formula_sum   'Li4 Hf1 Zr1 Br12'
_cell_volume   500.50723056
_cell_formula_units_Z   1
loop_
 _symmetry_equiv_pos_site_id
 _symmetry_equiv_pos_as_xyz
  1  'x, y, z'
loop_
 _atom_site_type_symbol
 _atom_site_label
 _atom_site_symmetry_multiplicity
 _atom_site_fract_x
 _atom_site_fract_y
 _atom_site_fract_z
 _atom_site_occupancy
  Li  Li0  1  0.00000000  0.00000000  0.75000000  1
  Li  Li1  1  0.66666700  0.33333300  0.75000000  1
  Li  Li2  1  0.33333300  0.66666700  0.25000000  1
  Li  Li3  1  0.00000000  0.00000000  0.25000000  1
  Hf  Hf0  1  0.33333300  0.66666700  0.75000000  1
  Zr  Zr0  1  0.66666700  0.33333300  0.25000000  1
  Br  Br0  1  0.01343805  0.34671844  0.63391787  1
  Br  Br1  1  0.33328139  0.98656195  0.63391787  1
  Br  Br2  1  0.65328156  0.66671861  0.63391787  1
  Br  Br3  1  0.65328156  0.98656195  0.86608213  1
  Br  Br4  1  0.33328139  0.34671844  0.86608213  1
  Br  Br5  1  0.01343805  0.66671861  0.86608213  1
  Br  Br6  1  0.98962285  0.33336848  0.13272704  1
  Br  Br7  1  0.34374463  0.01037715  0.13272704  1
  Br  Br8  1  0.66663152  0.65625537  0.13272704  1
  Br  Br9  1  0.66663152  0.01037715  0.36727296  1
  Br  Br10  1  0.34374463  0.33336848  0.36727296  1
  Br  Br11  1  0.98962285  0.65625537  0.36727296  1
loop_
_geom_bond_atom_site_label_1
_geom_bond_atom_site_label_2
_geom_bond_distance
_geom_bond_site_symmetry_2
Br0 Hf0 2.612967 1_555
Br0 Li0 2.725054 1_555
Br0 Li1 2.725486 1_455
Br1 Hf0 2.612961 1_555
Br1 Li0 2.725060 1_565
Br1 Li1 2.725486 1_565
Br2 Hf0 2.612973 1_555
Br2 Li0 2.725057 1_665
Br2 Li1 2.725485 1_555
Br3 Hf0 2.612967 1_555
Br3 Li0 2.725054 1_665
Br3 Li1 2.725485 1_565
Br4 Hf0 2.612972 1_555
Br4 Li0 2.725057 1_555
Br4 Li1 2.725486 1_555
Br5 Hf0 2.612962 1_555
Br5 Li0 2.725059 1_565
Br5 Li1 2.725486 1_455
Br6 Zr0 2.638319 1_555
Br6 Li2 2.724813 1_655
Br6 Li3 2.725101 1_655
Br7 Zr0 2.638324 1_555
Br7 Li2 2.724813 1_545
Br7 Li3 2.725096 1_555
Br8 Zr0 2.638330 1_555
Br8 Li2 2.724813 1_555
Br8 Li3 2.725099 1_665
Br9 Zr0 2.638319 1_555
Br9 Li2 2.724813 1_545
Br9 Li3 2.725101 1_655
Br10 Zr0 2.638330 1_555
Br10 Li2 2.724813 1_555
Br10 Li3 2.725099 1_555
Br11 Zr0 2.638324 1_555
Br11 Li2 2.724813 1_655
Br11 Li3 2.725096 1_665
