# generated using pymatgen
data_Ba10MnTcN10
_symmetry_space_group_name_H-M   'P 1'
_cell_length_a   8.02140075
_cell_length_b   8.02140154
_cell_length_c   9.50764496
_cell_angle_alpha   76.15565706
_cell_angle_beta   76.15565923
_cell_angle_gamma   96.40180095
_symmetry_Int_Tables_number   1
_chemical_formula_structural   Ba10MnTcN10
_chemical_formula_sum   'Ba10 Mn1 Tc1 N10'
_cell_volume   567.40679859
_cell_formula_units_Z   1
loop_
 _symmetry_equiv_pos_site_id
 _symmetry_equiv_pos_as_xyz
  1  'x, y, z'
loop_
 _atom_site_type_symbol
 _atom_site_label
 _atom_site_symmetry_multiplicity
 _atom_site_fract_x
 _atom_site_fract_y
 _atom_site_fract_z
 _atom_site_occupancy
  Ba  Ba0  1  0.38451243  0.39180756  0.38443175  1
  Ba  Ba1  1  0.60819244  0.61548757  0.61556825  1
  Ba  Ba2  1  0.66530763  0.66720505  0.00858831  1
  Ba  Ba3  1  0.33279495  0.33469237  0.99141169  1
  Ba  Ba4  1  0.93108327  0.91652855  0.20410544  1
  Ba  Ba5  1  0.08347145  0.06891673  0.79589456  1
  Ba  Ba6  1  0.55526378  0.08842537  0.75435980  1
  Ba  Ba7  1  0.91157463  0.44473622  0.24564020  1
  Ba  Ba8  1  0.42664510  0.89655035  0.24550938  1
  Ba  Ba9  1  0.10344965  0.57335490  0.75449062  1
  Mn  Mn0  1  0.24365356  0.75634644  1.00000000  1
  Tc  Tc0  1  0.75739226  0.24260774  0.00000000  1
  N  N0  1  0.65178868  0.65086583  0.31095684  1
  N  N1  1  0.34913417  0.34821132  0.68904316  1
  N  N2  1  0.71572915  0.02017252  0.98965099  1
  N  N3  1  0.97982748  0.28427085  0.01034901  1
  N  N4  1  0.28097171  0.97788840  0.00665579  1
  N  N5  1  0.02211160  0.71902829  0.99334421  1
  N  N6  1  0.38706541  0.72958953  0.83686711  1
  N  N7  1  0.27041047  0.61293459  0.16313189  1
  N  N8  1  0.60778876  0.26817159  0.16534911  1
  N  N9  1  0.73182841  0.39221124  0.83464989  1
loop_
_geom_bond_atom_site_label_1
_geom_bond_atom_site_label_2
_geom_bond_distance
_geom_bond_site_symmetry_2
Ba0 N0 2.645300 1_555
Ba0 N1 2.773137 1_555
Ba0 N7 2.812197 1_555
Ba0 N8 2.851185 1_555
Ba1 N1 2.645300 1_555
Ba1 N0 2.773137 1_555
Ba1 N6 2.812191 1_555
Ba1 N9 2.851179 1_555
Ba2 N2 2.770929 1_564
Ba2 N5 2.809373 1_654
Ba2 N0 2.821490 1_555
Ba2 N9 3.077539 1_554
Ba2 N6 3.082092 1_554
Ba2 N7 3.088901 1_555
Ba2 N8 3.120568 1_555
Ba3 N3 2.770929 1_456
Ba3 N4 2.809373 1_546
Ba3 N1 2.821490 1_555
Ba3 N8 3.077532 1_556
Ba3 N7 3.082086 1_556
Ba3 N6 3.088903 1_555
Ba3 N9 3.120570 1_555
Ba4 N0 2.720731 1_555
Ba4 N5 2.852245 1_654
Ba4 N4 2.893389 1_655
Ba4 N2 3.004531 1_564
Ba4 N3 3.007550 1_565
Ba5 N1 2.720731 1_555
Ba5 N4 2.852245 1_546
Ba5 N5 2.893390 1_545
Ba5 N3 3.004531 1_456
Ba5 N2 3.007549 1_455
Ba6 N4 2.720732 1_546
Ba6 N2 2.812474 1_555
Ba6 N1 2.846472 1_555
Ba6 N6 2.875337 1_545
Ba6 N9 3.027305 1_555
Ba7 N5 2.720732 1_654
Ba7 N3 2.812474 1_555
Ba7 N0 2.846472 1_555
Ba7 N7 2.875336 1_655
Ba7 N8 3.027310 1_555
Ba8 N4 2.771119 1_555
Ba8 N2 2.812697 1_564
Ba8 N7 2.836594 1_555
Ba8 N0 2.876998 1_555
Ba8 N8 2.999154 1_565
Ba9 N5 2.771119 1_555
Ba9 N3 2.812697 1_456
Ba9 N6 2.836588 1_555
Ba9 N1 2.876998 1_555
Ba9 N9 2.999155 1_455
Mn0 N7 1.770735 1_556
Mn0 N6 1.770742 1_555
Mn0 N5 1.787700 1_555
Mn0 N4 1.787700 1_556
N2 Tc0 1.808776 1_556
N3 Tc0 1.808776 1_555
N8 Tc0 1.805510 1_555
N9 Tc0 1.805517 1_556
