# generated using pymatgen
data_Li(TaPd4)3
_symmetry_space_group_name_H-M   'P 1'
_cell_length_a   5.55218107
_cell_length_b   5.55218137
_cell_length_c   9.00347508
_cell_angle_alpha   90.00000000
_cell_angle_beta   90.00000000
_cell_angle_gamma   119.99999246
_symmetry_Int_Tables_number   1
_chemical_formula_structural   Li(TaPd4)3
_chemical_formula_sum   'Li1 Ta3 Pd12'
_cell_volume   240.36326624
_cell_formula_units_Z   1
loop_
 _symmetry_equiv_pos_site_id
 _symmetry_equiv_pos_as_xyz
  1  'x, y, z'
loop_
 _atom_site_type_symbol
 _atom_site_label
 _atom_site_symmetry_multiplicity
 _atom_site_fract_x
 _atom_site_fract_y
 _atom_site_fract_z
 _atom_site_occupancy
  Li  Li0  1  0.33333300  0.66666700  0.25000000  1
  Ta  Ta0  1  0.00000000  0.00000000  0.49009139  1
  Ta  Ta1  1  0.00000000  0.00000000  0.00990861  1
  Ta  Ta2  1  0.66666700  0.33333300  0.75000000  1
  Pd  Pd0  1  0.50109314  0.49890686  0.50258456  1
  Pd  Pd1  1  0.50109314  0.00218527  0.50258456  1
  Pd  Pd2  1  0.99781473  0.49890686  0.50258456  1
  Pd  Pd3  1  0.50109314  0.49890686  0.99741544  1
  Pd  Pd4  1  0.50109314  0.00218527  0.99741544  1
  Pd  Pd5  1  0.99781473  0.49890686  0.99741544  1
  Pd  Pd6  1  0.83194958  0.16805042  0.25000000  1
  Pd  Pd7  1  0.83194958  0.66389717  0.25000000  1
  Pd  Pd8  1  0.33610283  0.16805042  0.25000000  1
  Pd  Pd9  1  0.16581442  0.83418558  0.75000000  1
  Pd  Pd10  1  0.16581442  0.33162883  0.75000000  1
  Pd  Pd11  1  0.66837117  0.83418558  0.75000000  1
loop_
_geom_bond_atom_site_label_1
_geom_bond_atom_site_label_2
_geom_bond_distance
_geom_bond_site_symmetry_2
Li0 Pd7 2.776114 1_455
Li0 Pd8 2.776114 1_565
Li0 Pd6 2.776123 1_455
Li0 Pd6 2.776123 1_565
Li0 Pd7 2.776131 1_555
Li0 Pd8 2.776131 1_555
Li0 Pd2 2.788259 1_455
Li0 Pd5 2.788259 1_454
Li0 Pd1 2.788259 1_565
Li0 Pd4 2.788259 1_564
Li0 Pd0 2.788264 1_555
Li0 Pd3 2.788264 1_554
Pd0 Ta2 2.738158 1_555
Pd0 Pd10 2.749757 1_555
Pd0 Pd11 2.749757 1_555
Pd0 Pd2 2.757888 1_555
Pd0 Pd1 2.757888 1_555
Pd0 Pd7 2.775351 1_555
Pd0 Pd8 2.775351 1_555
Pd0 Ta0 2.778389 1_555
Pd0 Ta0 2.778389 1_665
Pd0 Pd2 2.794293 1_455
Pd0 Pd1 2.794293 1_565
Pd1 Ta2 2.738159 1_555
Pd1 Pd11 2.749754 1_545
Pd1 Pd9 2.749757 1_545
Pd1 Pd2 2.757889 1_555
Pd1 Pd8 2.775348 1_555
Pd1 Pd6 2.775351 1_555
Pd1 Ta0 2.778385 1_655
Pd1 Ta0 2.778391 1_555
Pd1 Pd2 2.794293 1_445
Pd2 Ta2 2.738159 1_555
Pd2 Pd9 2.749757 1_655
Pd2 Pd7 2.775348 1_555
Pd2 Pd6 2.775351 1_555
Pd2 Ta0 2.778386 1_655
Pd2 Ta0 2.778391 1_665
Pd3 Ta2 2.738158 1_555
Pd3 Pd5 2.757888 1_555
Pd3 Pd4 2.757888 1_555
Pd3 Pd7 2.775351 1_556
Pd3 Pd8 2.775351 1_556
Pd3 Ta1 2.778389 1_556
Pd3 Ta1 2.778389 1_666
Pd3 Pd5 2.794293 1_455
Pd3 Pd4 2.794293 1_565
Pd4 Ta2 2.738159 1_555
Pd4 Pd9 2.749757 1_545
Pd4 Pd5 2.757889 1_555
Pd4 Pd8 2.775348 1_556
Pd4 Pd6 2.775351 1_556
Pd4 Ta1 2.778385 1_656
Pd4 Ta1 2.778391 1_556
Pd4 Pd5 2.794293 1_445
Pd5 Ta2 2.738159 1_555
Pd5 Pd9 2.749757 1_655
Pd5 Pd7 2.775348 1_556
Pd5 Pd6 2.775351 1_556
Pd5 Ta1 2.778386 1_656
Pd5 Ta1 2.778391 1_666
Pd6 Ta0 2.698979 1_655
Pd6 Ta1 2.698979 1_655
Pd6 Pd8 2.753031 1_555
Pd6 Pd7 2.753031 1_555
Pd6 Pd8 2.799150 1_655
Pd6 Pd7 2.799150 1_545
Pd7 Ta0 2.698985 1_665
Pd7 Ta1 2.698985 1_665
Pd7 Pd8 2.753031 1_555
Pd7 Pd8 2.799151 1_665
Pd8 Ta0 2.698985 1_555
Pd8 Ta1 2.698985 1_555
Pd9 Ta2 2.776103 1_565
Pd9 Ta2 2.776103 1_455
Pd9 Ta1 2.831725 1_566
Pd9 Ta0 2.831725 1_565
Pd10 Pd5 2.749754 1_455
Pd10 Pd2 2.749754 1_455
Pd10 Pd3 2.749757 1_555
Pd10 Pd9 2.761895 1_545
Pd10 Pd11 2.761895 1_445
Pd10 Ta2 2.776100 1_455
Pd10 Ta2 2.776105 1_555
Pd10 Pd9 2.790286 1_555
Pd10 Pd11 2.790286 1_555
Pd10 Ta1 2.831725 1_556
Pd10 Ta0 2.831725 1_555
Pd11 Pd4 2.749754 1_565
Pd11 Pd3 2.749757 1_555
Pd11 Pd9 2.761895 1_655
Pd11 Ta2 2.776100 1_565
Pd11 Ta2 2.776106 1_555
Pd11 Pd9 2.790286 1_555
Pd11 Ta1 2.831725 1_666
Pd11 Ta0 2.831725 1_665
