# generated using pymatgen
data_CsInAs2O7
_symmetry_space_group_name_H-M   'P 1'
_cell_length_a   6.71917599
_cell_length_b   6.79154052
_cell_length_c   8.65618665
_cell_angle_alpha   96.18312321
_cell_angle_beta   101.37394905
_cell_angle_gamma   105.00952282
_symmetry_Int_Tables_number   1
_chemical_formula_structural   CsInAs2O7
_chemical_formula_sum   'Cs2 In2 As4 O14'
_cell_volume   368.74683418
_cell_formula_units_Z   2
loop_
 _symmetry_equiv_pos_site_id
 _symmetry_equiv_pos_as_xyz
  1  'x, y, z'
loop_
 _atom_site_type_symbol
 _atom_site_label
 _atom_site_symmetry_multiplicity
 _atom_site_fract_x
 _atom_site_fract_y
 _atom_site_fract_z
 _atom_site_occupancy
  Cs  Cs0  1  0.00000000  0.50000000  0.50000000  1
  Cs  Cs1  1  0.00000000  0.50000000  0.00000000  1
  In  In0  1  0.37449329  0.18123976  0.72790456  1
  In  In1  1  0.62550671  0.81876024  0.27209544  1
  As  As0  1  0.81901131  0.02514935  0.68841241  1
  As  As1  1  0.48838541  0.73739979  0.83191017  1
  As  As2  1  0.18098869  0.97485065  0.31158759  1
  As  As3  1  0.51161459  0.26260021  0.16808983  1
  O  O0  1  0.24670990  0.12473285  0.16262063  1
  O  O1  1  0.32345148  0.85865822  0.73702042  1
  O  O2  1  0.56325915  0.49517111  0.27929617  1
  O  O3  1  0.92997308  0.83510802  0.22659939  1
  O  O4  1  0.67654852  0.14134178  0.26297958  1
  O  O5  1  0.75329010  0.87526715  0.83737937  1
  O  O6  1  0.32320184  0.80380721  0.32494378  1
  O  O7  1  0.46983939  0.73128364  0.02097516  1
  O  O8  1  0.43674085  0.50482889  0.72070383  1
  O  O9  1  0.21675574  0.14202152  0.47781122  1
  O  O10  1  0.78324426  0.85797848  0.52218878  1
  O  O11  1  0.07002692  0.16489198  0.77340061  1
  O  O12  1  0.53016061  0.26871636  0.97902484  1
  O  O13  1  0.67679816  0.19619279  0.67505622  1
loop_
_geom_bond_atom_site_label_1
_geom_bond_atom_site_label_2
_geom_bond_distance
_geom_bond_site_symmetry_2
Cs0 O1 3.047757 1_555
Cs0 O4 3.047757 1_455
Cs0 O9 3.148442 1_555
Cs0 O10 3.148442 1_455
Cs0 O8 3.160352 1_555
Cs0 O2 3.160352 1_455
Cs0 O13 3.304561 1_455
Cs0 O6 3.304561 1_555
Cs0 O11 3.503947 1_555
Cs0 O3 3.503947 1_455
Cs1 O3 3.034072 1_455
Cs1 O11 3.034072 1_554
Cs1 O7 3.100087 1_555
Cs1 O12 3.100087 1_454
Cs1 O6 3.302228 1_555
Cs1 O13 3.302228 1_454
Cs1 O0 3.642225 1_555
Cs1 O5 3.642225 1_454
In0 O11 2.135911 1_555
In0 O8 2.138284 1_555
In0 O1 2.140631 1_545
In0 O13 2.148299 1_555
In0 O12 2.162248 1_555
In0 O9 2.169203 1_555
In1 O3 2.135911 1_555
In1 O2 2.138284 1_555
In1 O4 2.140631 1_565
In1 O6 2.148299 1_555
In1 O7 2.162248 1_555
In1 O10 2.169203 1_555
As0 O10 1.669575 1_545
As0 O11 1.678606 1_655
As0 O13 1.684096 1_555
As0 O5 1.780023 1_545
As1 O7 1.669747 1_556
As1 O8 1.672945 1_555
As1 O1 1.685356 1_555
As1 O5 1.772322 1_555
As2 O9 1.669575 1_565
As2 O3 1.678606 1_455
As2 O6 1.684096 1_555
As2 O0 1.780023 1_565
As3 O12 1.669747 1_554
As3 O2 1.672945 1_555
As3 O4 1.685356 1_555
As3 O0 1.772322 1_555
