# generated using pymatgen
data_Ce4B2N5
_symmetry_space_group_name_H-M   'P 1'
_cell_length_a   6.38215027
_cell_length_b   6.38215027
_cell_length_c   8.95424928
_cell_angle_alpha   52.35215835
_cell_angle_beta   52.35215835
_cell_angle_gamma   32.42634790
_symmetry_Int_Tables_number   1
_chemical_formula_structural   Ce4B2N5
_chemical_formula_sum   'Ce4 B2 N5'
_cell_volume   150.90233720
_cell_formula_units_Z   1
loop_
 _symmetry_equiv_pos_site_id
 _symmetry_equiv_pos_as_xyz
  1  'x, y, z'
loop_
 _atom_site_type_symbol
 _atom_site_label
 _atom_site_symmetry_multiplicity
 _atom_site_fract_x
 _atom_site_fract_y
 _atom_site_fract_z
 _atom_site_occupancy
  Ce  Ce0  1  0.07587002  0.07587002  0.65544295  1
  Ce  Ce1  1  0.92412998  0.92412998  0.34455705  1
  Ce  Ce2  1  0.68768857  0.68768857  0.88586286  1
  Ce  Ce3  1  0.31231143  0.31231143  0.11413714  1
  B  B0  1  0.41243538  0.41243538  0.60821960  1
  B  B1  1  0.58756462  0.58756462  0.39178040  1
  N  N0  1  0.29514833  0.29514833  0.60039580  1
  N  N1  1  0.70485167  0.70485167  0.39960420  1
  N  N2  1  -0.00000000  -0.00000000  -0.00000000  1
  N  N3  1  0.38096944  0.38096944  0.79865520  1
  N  N4  1  0.61903056  0.61903056  0.20134480  1
loop_
_geom_bond_atom_site_label_1
_geom_bond_atom_site_label_2
_geom_bond_distance
_geom_bond_site_symmetry_2
Ce0 N0 2.404351 1_555
Ce0 N1 2.513007 1_545
Ce0 N1 2.513007 1_455
Ce0 N3 2.574718 1_545
Ce0 N3 2.574718 1_455
Ce0 N2 2.594902 1_556
Ce1 N1 2.404351 1_555
Ce1 N0 2.513007 1_565
Ce1 N0 2.513007 1_655
Ce1 N4 2.574718 1_565
Ce1 N4 2.574718 1_655
Ce1 N2 2.594902 1_665
Ce2 N4 2.379901 1_556
Ce2 N2 2.553601 1_656
Ce2 N2 2.553601 1_566
Ce2 N3 2.654018 1_565
Ce2 N3 2.654018 1_655
Ce2 N0 2.675987 1_565
Ce2 N0 2.675987 1_655
Ce3 N3 2.379901 1_554
Ce3 N2 2.553601 1_655
Ce3 N2 2.553601 1_565
Ce3 N4 2.654018 1_455
Ce3 N4 2.654018 1_545
Ce3 N1 2.675987 1_455
Ce3 N1 2.675987 1_545
B0 N0 1.483096 1_555
B0 N3 1.489904 1_555
B1 N1 1.483096 1_555
B1 N4 1.489904 1_555
