# generated using pymatgen
data_Sr2Li(As3Pd10)2
_symmetry_space_group_name_H-M   'P 1'
_cell_length_a   8.83919506
_cell_length_b   8.83919504
_cell_length_c   8.83919522
_cell_angle_alpha   59.99999932
_cell_angle_beta   59.99999942
_cell_angle_gamma   59.99999951
_symmetry_Int_Tables_number   1
_chemical_formula_structural   Sr2Li(As3Pd10)2
_chemical_formula_sum   'Sr2 Li1 As6 Pd20'
_cell_volume   488.34096451
_cell_formula_units_Z   1
loop_
 _symmetry_equiv_pos_site_id
 _symmetry_equiv_pos_as_xyz
  1  'x, y, z'
loop_
 _atom_site_type_symbol
 _atom_site_label
 _atom_site_symmetry_multiplicity
 _atom_site_fract_x
 _atom_site_fract_y
 _atom_site_fract_z
 _atom_site_occupancy
  Sr  Sr0  1  0.25000000  0.25000000  0.25000000  1
  Sr  Sr1  1  0.75000000  0.75000000  0.75000000  1
  Li  Li0  1  0.00000000  0.00000000  0.00000000  1
  As  As0  1  0.73878212  0.26121788  0.26121788  1
  As  As1  1  0.26121788  0.73878212  0.73878212  1
  As  As2  1  0.26121788  0.73878212  0.26121788  1
  As  As3  1  0.73878212  0.26121788  0.73878212  1
  As  As4  1  0.26121788  0.26121788  0.73878212  1
  As  As5  1  0.73878212  0.73878212  0.26121788  1
  Pd  Pd0  1  0.38662024  0.38662024  0.38662024  1
  Pd  Pd1  1  0.61337976  0.61337976  0.61337976  1
  Pd  Pd2  1  0.38662024  0.38662024  0.84013729  1
  Pd  Pd3  1  0.38662024  0.84013729  0.38662024  1
  Pd  Pd4  1  0.61337976  0.61337976  0.15986271  1
  Pd  Pd5  1  0.61337976  0.15986271  0.61337976  1
  Pd  Pd6  1  0.84013729  0.38662024  0.38662024  1
  Pd  Pd7  1  0.15986271  0.61337976  0.61337976  1
  Pd  Pd8  1  0.34760258  0.00000000  1.00000000  1
  Pd  Pd9  1  0.65239742  0.00000000  0.00000000  1
  Pd  Pd10  1  0.00000000  0.34760258  0.65239742  1
  Pd  Pd11  1  0.00000000  0.65239742  0.34760258  1
  Pd  Pd12  1  0.00000000  0.34760258  1.00000000  1
  Pd  Pd13  1  0.65239742  0.00000000  0.34760258  1
  Pd  Pd14  1  0.00000000  0.65239742  0.00000000  1
  Pd  Pd15  1  0.34760258  0.00000000  0.65239742  1
  Pd  Pd16  1  0.00000000  0.00000000  0.34760258  1
  Pd  Pd17  1  0.00000000  0.00000000  0.65239742  1
  Pd  Pd18  1  0.65239742  0.34760258  0.00000000  1
  Pd  Pd19  1  0.34760258  0.65239742  0.00000000  1
loop_
_geom_bond_atom_site_label_1
_geom_bond_atom_site_label_2
_geom_bond_distance
_geom_bond_site_symmetry_2
Li0 Pd19 3.072527 1_545
Li0 Pd18 3.072527 1_455
Li0 Pd12 3.072527 1_554
Li0 Pd10 3.072527 1_554
Li0 Pd11 3.072527 1_545
Li0 Pd14 3.072527 1_545
Li0 Pd8 3.072527 1_554
Li0 Pd15 3.072527 1_554
Li0 Pd13 3.072527 1_455
Li0 Pd9 3.072527 1_455
Li0 Pd16 3.072527 1_555
Li0 Pd17 3.072527 1_554
As0 Pd16 2.431937 1_655
As0 Pd13 2.431937 1_555
As0 Pd12 2.431937 1_654
As0 Pd18 2.431937 1_555
As0 Pd6 2.544560 1_555
As0 Pd0 2.544574 1_555
As0 Pd4 2.544574 1_555
As0 Pd5 2.544574 1_555
As1 Pd17 2.431937 1_565
As1 Pd15 2.431937 1_565
As1 Pd14 2.431937 1_556
As1 Pd19 2.431937 1_556
As1 Pd7 2.544560 1_555
As1 Pd1 2.544574 1_555
As1 Pd2 2.544574 1_555
As1 Pd3 2.544574 1_555
As2 Pd16 2.431937 1_565
As2 Pd8 2.431937 1_564
As2 Pd11 2.431937 1_555
As2 Pd19 2.431937 1_555
As2 Pd3 2.544560 1_555
As2 Pd0 2.544574 1_555
As2 Pd4 2.544574 1_555
As2 Pd7 2.544574 1_555
As3 Pd17 2.431937 1_655
As3 Pd9 2.431937 1_556
As3 Pd10 2.431937 1_655
As3 Pd18 2.431937 1_556
As3 Pd5 2.544560 1_555
As3 Pd1 2.544574 1_555
As3 Pd2 2.544574 1_555
As3 Pd6 2.544574 1_555
As4 Pd15 2.431937 1_555
As4 Pd8 2.431937 1_555
As4 Pd10 2.431937 1_555
As4 Pd12 2.431937 1_555
As4 Pd2 2.544560 1_555
As4 Pd0 2.544574 1_555
As4 Pd7 2.544574 1_555
As4 Pd5 2.544574 1_555
As5 Pd9 2.431937 1_565
As5 Pd13 2.431937 1_565
As5 Pd14 2.431937 1_655
As5 Pd11 2.431937 1_655
As5 Pd4 2.544560 1_555
As5 Pd1 2.544574 1_555
As5 Pd6 2.544574 1_555
As5 Pd3 2.544574 1_555
Pd0 Sr0 2.958035 1_555
Pd1 Sr1 2.958035 1_555
Pd2 Sr0 2.958050 1_556
Pd3 Sr0 2.958050 1_565
Pd4 Sr1 2.958050 1_554
Pd5 Sr1 2.958050 1_545
Pd6 Sr0 2.958050 1_655
Pd7 Sr1 2.958050 1_455
Pd8 Pd9 2.694141 1_556
Pd8 Sr1 3.403090 1_545
Pd8 Sr0 3.403090 1_556
Pd9 Sr0 3.403090 1_555
Pd9 Sr1 3.403090 1_544
Pd10 Pd11 2.694141 1_555
Pd10 Sr1 3.403090 1_455
Pd10 Sr0 3.403090 1_555
Pd11 Sr0 3.403090 1_555
Pd11 Sr1 3.403090 1_455
Pd12 Pd14 2.694141 1_556
Pd12 Sr1 3.403090 1_455
Pd12 Sr0 3.403090 1_556
Pd13 Pd15 2.694141 1_555
Pd13 Sr0 3.403090 1_555
Pd13 Sr1 3.403090 1_545
Pd14 Sr0 3.403090 1_555
Pd14 Sr1 3.403090 1_454
Pd15 Sr1 3.403090 1_545
Pd15 Sr0 3.403090 1_555
Pd16 Pd17 2.694141 1_555
Pd16 Sr1 3.403090 1_445
Pd16 Sr0 3.403090 1_555
Pd17 Sr1 3.403090 1_445
Pd17 Sr0 3.403090 1_555
Pd18 Pd19 2.694141 1_555
Pd18 Sr1 3.403090 1_554
Pd18 Sr0 3.403090 1_555
Pd19 Sr0 3.403090 1_555
Pd19 Sr1 3.403090 1_554
