# generated using pymatgen
data_Hf3Sn(SeO3)8
_symmetry_space_group_name_H-M   'P 1'
_cell_length_a   8.46238721
_cell_length_b   8.46238721
_cell_length_c   8.46238721
_cell_angle_alpha   90.31602440
_cell_angle_beta   89.68397560
_cell_angle_gamma   90.31602440
_symmetry_Int_Tables_number   1
_chemical_formula_structural   Hf3Sn(SeO3)8
_chemical_formula_sum   'Hf3 Sn1 Se8 O24'
_cell_volume   605.98089778
_cell_formula_units_Z   1
loop_
 _symmetry_equiv_pos_site_id
 _symmetry_equiv_pos_as_xyz
  1  'x, y, z'
loop_
 _atom_site_type_symbol
 _atom_site_label
 _atom_site_symmetry_multiplicity
 _atom_site_fract_x
 _atom_site_fract_y
 _atom_site_fract_z
 _atom_site_occupancy
  Hf  Hf0  1  0.50000000  0.50000000  0.00000000  1
  Hf  Hf1  1  0.50000000  0.00000000  0.50000000  1
  Hf  Hf2  1  0.00000000  0.00000000  0.00000000  1
  Sn  Sn0  1  0.00000000  0.50000000  0.50000000  1
  Se  Se0  1  0.82794309  0.19754816  0.68299630  1
  Se  Se1  1  0.17205691  0.80245184  0.31700370  1
  Se  Se2  1  0.69754816  0.68299630  0.67205691  1
  Se  Se3  1  0.18299630  0.67205691  0.80245184  1
  Se  Se4  1  0.31535890  0.18464110  0.81535890  1
  Se  Se5  1  0.81700370  0.32794309  0.19754816  1
  Se  Se6  1  0.68464110  0.81535890  0.18464110  1
  Se  Se7  1  0.30245184  0.31700370  0.32794309  1
  O  O0  1  0.23602687  0.45700198  0.46049342  1
  O  O1  1  0.93324042  0.22028422  0.07512919  1
  O  O2  1  0.03950658  0.73602687  0.45700198  1
  O  O3  1  0.46522754  0.27331409  0.91635161  1
  O  O4  1  0.27971578  0.92487081  0.43324042  1
  O  O5  1  0.57512919  0.56675958  0.77971578  1
  O  O6  1  0.94504188  0.06265735  0.77236724  1
  O  O7  1  0.53477246  0.72668591  0.08364839  1
  O  O8  1  0.58364839  0.96522754  0.27331409  1
  O  O9  1  0.41635161  0.03477246  0.72668591  1
  O  O10  1  0.77331409  0.91635161  0.03477246  1
  O  O11  1  0.27236724  0.55495812  0.93734265  1
  O  O12  1  0.04299802  0.53950658  0.73602687  1
  O  O13  1  0.05495812  0.93734265  0.22763276  1
  O  O14  1  0.22668591  0.08364839  0.96522754  1
  O  O15  1  0.42487081  0.43324042  0.22028422  1
  O  O16  1  0.76397313  0.54299802  0.53950658  1
  O  O17  1  0.95700198  0.46049342  0.26397313  1
  O  O18  1  0.06675958  0.77971578  0.92487081  1
  O  O19  1  0.43734265  0.22763276  0.44504188  1
  O  O20  1  0.56265735  0.77236724  0.55495812  1
  O  O21  1  0.96049342  0.26397313  0.54299802  1
  O  O22  1  0.72028422  0.07512919  0.56675958  1
  O  O23  1  0.72763276  0.44504188  0.06265735  1
loop_
_geom_bond_atom_site_label_1
_geom_bond_atom_site_label_2
_geom_bond_distance
_geom_bond_site_symmetry_2
Hf0 O15 2.047665 1_555
Hf0 O5 2.047665 1_554
Hf0 O23 2.057184 1_555
Hf0 O11 2.057184 1_554
Hf0 O7 2.061223 1_555
Hf0 O3 2.061223 1_554
Hf1 O22 2.047665 1_555
Hf1 O4 2.047665 1_545
Hf1 O19 2.057184 1_555
Hf1 O20 2.057184 1_545
Hf1 O9 2.061223 1_555
Hf1 O8 2.061223 1_545
Hf2 O1 2.047665 1_455
Hf2 O18 2.047665 1_544
Hf2 O13 2.057184 1_545
Hf2 O6 2.057184 1_454
Hf2 O14 2.061223 1_554
Hf2 O10 2.061223 1_445
O0 Se7 1.721470 1_555
O0 Sn0 2.057398 1_555
O1 Se5 1.690858 1_555
O2 Se1 1.721470 1_555
O2 Sn0 2.057398 1_555
O3 Se4 1.701858 1_555
O4 Se1 1.690858 1_555
O5 Se2 1.690858 1_555
O6 Se0 1.699181 1_555
O7 Se6 1.701858 1_555
O8 Se6 1.701858 1_555
O9 Se4 1.701858 1_555
O10 Se6 1.701858 1_555
O11 Se3 1.699181 1_555
O12 Se3 1.721470 1_555
O12 Sn0 2.057398 1_555
O13 Se1 1.699181 1_555
O14 Se4 1.701858 1_555
O15 Se7 1.690858 1_555
O16 Se2 1.721470 1_555
O16 Sn0 2.057398 1_655
O17 Se5 1.721470 1_555
O17 Sn0 2.057398 1_655
O18 Se3 1.690858 1_555
O19 Se7 1.699181 1_555
O20 Se2 1.699181 1_555
O21 Se0 1.721470 1_555
O21 Sn0 2.057398 1_655
O22 Se0 1.690858 1_555
O23 Se5 1.699181 1_555
