# generated using pymatgen
data_NaLiCdSe2
_symmetry_space_group_name_H-M   'P 1'
_cell_length_a   4.31095315
_cell_length_b   4.31095292
_cell_length_c   7.20321784
_cell_angle_alpha   90.00000000
_cell_angle_beta   90.00000000
_cell_angle_gamma   119.99998674
_symmetry_Int_Tables_number   1
_chemical_formula_structural   NaLiCdSe2
_chemical_formula_sum   'Na1 Li1 Cd1 Se2'
_cell_volume   115.93213177
_cell_formula_units_Z   1
loop_
 _symmetry_equiv_pos_site_id
 _symmetry_equiv_pos_as_xyz
  1  'x, y, z'
loop_
 _atom_site_type_symbol
 _atom_site_label
 _atom_site_symmetry_multiplicity
 _atom_site_fract_x
 _atom_site_fract_y
 _atom_site_fract_z
 _atom_site_occupancy
  Na  Na0  1  0.33333300  0.66666700  0.97258218  1
  Li  Li0  1  0.66666700  0.33333300  0.65909934  1
  Cd  Cd0  1  0.00000000  0.00000000  0.38182815  1
  Se  Se0  1  0.66666700  0.33333300  0.24083889  1
  Se  Se1  1  0.00000000  0.00000000  0.74565245  1
loop_
_geom_bond_atom_site_label_1
_geom_bond_atom_site_label_2
_geom_bond_distance
_geom_bond_site_symmetry_2
Na0 Se1 2.977710 1_565
Na0 Se1 2.977713 1_555
Na0 Se1 2.977713 1_665
Na0 Se0 3.150966 1_566
Na0 Se0 3.150966 1_456
Na0 Se0 3.150972 1_556
Li0 Se1 2.565826 1_655
Li0 Se1 2.565830 1_665
Li0 Se1 2.565830 1_555
Li0 Se0 3.012821 1_555
Cd0 Se1 2.620706 1_555
Cd0 Se0 2.688151 1_455
Cd0 Se0 2.688155 1_445
Cd0 Se0 2.688155 1_555
