# generated using pymatgen
data_NbTc5(SeS)4
_symmetry_space_group_name_H-M   'P 1'
_cell_length_a   6.52326229
_cell_length_b   6.60232551
_cell_length_c   6.64297263
_cell_angle_alpha   93.54385779
_cell_angle_beta   93.71748535
_cell_angle_gamma   94.45021365
_symmetry_Int_Tables_number   1
_chemical_formula_structural   NbTc5(SeS)4
_chemical_formula_sum   'Nb1 Tc5 Se4 S4'
_cell_volume   283.99827862
_cell_formula_units_Z   1
loop_
 _symmetry_equiv_pos_site_id
 _symmetry_equiv_pos_as_xyz
  1  'x, y, z'
loop_
 _atom_site_type_symbol
 _atom_site_label
 _atom_site_symmetry_multiplicity
 _atom_site_fract_x
 _atom_site_fract_y
 _atom_site_fract_z
 _atom_site_occupancy
  Nb  Nb0  1  0.59229820  0.45562731  0.77037644  1
  Tc  Tc0  1  0.44639771  0.76184118  0.58465246  1
  Tc  Tc1  1  0.76799257  0.59504297  0.45204418  1
  Tc  Tc2  1  0.41158547  0.54766419  0.23697773  1
  Tc  Tc3  1  0.55073480  0.23274592  0.41218931  1
  Tc  Tc4  1  0.22944736  0.40817316  0.54486307  1
  Se  Se0  1  0.73700681  0.37421857  0.13429843  1
  Se  Se1  1  0.36224874  0.11580271  0.72591335  1
  Se  Se2  1  0.79372479  0.80920456  0.77986638  1
  Se  Se3  1  0.21184172  0.20841366  0.21407415  1
  S  S0  1  0.87313138  0.29281108  0.61167013  1
  S  S1  1  0.27260521  0.61865678  0.86473967  1
  S  S2  1  0.61755345  0.86859451  0.29069072  1
  S  S3  1  0.13343178  0.71120441  0.37764395  1
loop_
_geom_bond_atom_site_label_1
_geom_bond_atom_site_label_2
_geom_bond_distance
_geom_bond_site_symmetry_2
Nb0 S0 2.457447 1_555
Nb0 S1 2.516951 1_555
Nb0 Se2 2.583620 1_555
Nb0 Se1 2.590606 1_555
Nb0 Se0 2.639668 1_556
Nb0 Tc0 2.640085 1_555
Nb0 Tc1 2.650255 1_555
Nb0 Tc4 2.704078 1_555
Nb0 Tc3 2.705950 1_555
Se0 Tc3 2.466702 1_555
Se0 Tc1 2.477975 1_555
Se0 Tc2 2.598340 1_555
Se1 Tc4 2.516854 1_555
Se1 Tc0 2.576449 1_545
Se1 Tc3 2.614403 1_555
Se2 Tc1 2.510977 1_555
Se2 Tc0 2.524245 1_555
Se3 Tc4 2.483300 1_555
Se3 Tc3 2.487262 1_555
Se3 Tc2 2.493403 1_555
S0 Tc3 2.404253 1_555
S0 Tc1 2.440538 1_555
S0 Tc4 2.465860 1_655
S1 Tc0 2.442434 1_555
S1 Tc4 2.454069 1_555
S1 Tc2 2.659836 1_556
S2 Tc1 2.398299 1_555
S2 Tc2 2.413458 1_555
S2 Tc0 2.426404 1_555
S2 Tc3 2.567132 1_565
S3 Tc0 2.375704 1_555
S3 Tc2 2.393846 1_555
S3 Tc4 2.451139 1_555
S3 Tc1 2.535971 1_455
