# generated using pymatgen
data_Sr4GaSiIr4
_symmetry_space_group_name_H-M   'P 1'
_cell_length_a   5.84807160
_cell_length_b   5.84807191
_cell_length_c   7.57437697
_cell_angle_alpha   80.84740270
_cell_angle_beta   80.84740036
_cell_angle_gamma   63.26714586
_symmetry_Int_Tables_number   1
_chemical_formula_structural   Sr4GaSiIr4
_chemical_formula_sum   'Sr4 Ga1 Si1 Ir4'
_cell_volume   227.28174482
_cell_formula_units_Z   1
loop_
 _symmetry_equiv_pos_site_id
 _symmetry_equiv_pos_as_xyz
  1  'x, y, z'
loop_
 _atom_site_type_symbol
 _atom_site_label
 _atom_site_symmetry_multiplicity
 _atom_site_fract_x
 _atom_site_fract_y
 _atom_site_fract_z
 _atom_site_occupancy
  Sr  Sr0  1  0.98946835  0.72229357  0.13606076  1
  Sr  Sr1  1  0.27770643  0.01053165  0.36393924  1
  Sr  Sr2  1  0.01334478  0.28253033  0.86105523  1
  Sr  Sr3  1  0.71746967  0.98665522  0.63894477  1
  Ga  Ga0  1  0.43011092  0.56988908  0.75000000  1
  Si  Si0  1  0.56019591  0.43980409  0.25000000  1
  Ir  Ir0  1  0.49700555  0.77967013  0.00122489  1
  Ir  Ir1  1  0.22032987  0.50299445  0.49877511  1
  Ir  Ir2  1  0.51409298  0.21972346  0.02204748  1
  Ir  Ir3  1  0.78027654  0.48590702  0.47795252  1
loop_
_geom_bond_atom_site_label_1
_geom_bond_atom_site_label_2
_geom_bond_distance
_geom_bond_site_symmetry_2
Ga0 Ir1 2.586561 1_555
Ga0 Ir0 2.586561 1_556
Ga0 Ir3 2.599122 1_555
Ga0 Ir2 2.599122 1_556
Ga0 Sr2 3.235966 1_655
Ga0 Sr3 3.235966 1_545
Ga0 Sr2 3.472017 1_555
Ga0 Sr3 3.472017 1_555
Si0 Sr0 3.180579 1_455
Si0 Sr1 3.180579 1_565
Si0 Sr2 3.568363 1_654
Si0 Sr3 3.568363 1_545
Ir0 Si0 2.450895 1_555
Ir0 Ir2 2.650108 1_565
Ir0 Sr0 3.067100 1_555
Ir0 Sr1 3.084918 1_565
Ir0 Sr0 3.128572 1_455
Ir0 Sr3 3.143110 1_554
Ir0 Sr2 3.202246 1_564
Ir0 Sr2 3.280490 1_654
Ir1 Si0 2.450895 1_555
Ir1 Ir3 2.650108 1_455
Ir1 Sr1 3.067100 1_555
Ir1 Sr0 3.084918 1_455
Ir1 Sr1 3.128572 1_565
Ir1 Sr2 3.143110 1_555
Ir1 Sr3 3.202246 1_455
Ir1 Sr3 3.280490 1_545
Ir2 Si0 2.424367 1_555
Ir2 Sr1 3.080353 1_555
Ir2 Sr0 3.102505 1_545
Ir2 Sr2 3.136235 1_654
Ir2 Sr2 3.197395 1_554
Ir2 Sr3 3.224040 1_544
Ir2 Sr0 3.263267 1_455
Ir3 Si0 2.424367 1_555
Ir3 Sr0 3.080353 1_555
Ir3 Sr1 3.102504 1_655
Ir3 Sr3 3.136236 1_545
Ir3 Sr3 3.197395 1_555
Ir3 Sr2 3.224040 1_655
Ir3 Sr1 3.263267 1_565
