# generated using pymatgen
data_Tb5Tl3
_symmetry_space_group_name_H-M   'P 1'
_cell_length_a   9.00206775
_cell_length_b   9.00206125
_cell_length_c   6.69276903
_cell_angle_alpha   90.00000000
_cell_angle_beta   90.00000000
_cell_angle_gamma   119.99997930
_symmetry_Int_Tables_number   1
_chemical_formula_structural   Tb5Tl3
_chemical_formula_sum   'Tb10 Tl6'
_cell_volume   469.70025998
_cell_formula_units_Z   2
loop_
 _symmetry_equiv_pos_site_id
 _symmetry_equiv_pos_as_xyz
  1  'x, y, z'
loop_
 _atom_site_type_symbol
 _atom_site_label
 _atom_site_symmetry_multiplicity
 _atom_site_fract_x
 _atom_site_fract_y
 _atom_site_fract_z
 _atom_site_occupancy
  Tb  Tb0  1  0.33331056  0.66665578  -0.00000000  1
  Tb  Tb1  1  0.66668944  0.33334422  0.50000000  1
  Tb  Tb2  1  0.66668944  0.33334422  0.00000000  1
  Tb  Tb3  1  0.33331056  0.66665578  0.50000000  1
  Tb  Tb4  1  0.23667996  -0.00001657  0.25000000  1
  Tb  Tb5  1  0.23667996  0.23669552  0.75000000  1
  Tb  Tb6  1  -0.00000000  0.76328973  0.75000000  1
  Tb  Tb7  1  0.00000000  0.23671027  0.25000000  1
  Tb  Tb8  1  0.76332004  0.76330448  0.25000000  1
  Tb  Tb9  1  0.76332004  0.00001657  0.75000000  1
  Tl  Tl0  1  0.59750728  0.00001333  0.25000000  1
  Tl  Tl1  1  0.59750728  0.59749295  0.75000000  1
  Tl  Tl2  1  -0.00000000  0.40252882  0.75000000  1
  Tl  Tl3  1  0.00000000  0.59747118  0.25000000  1
  Tl  Tl4  1  0.40249272  0.40250705  0.25000000  1
  Tl  Tl5  1  0.40249272  -0.00001333  0.75000000  1
loop_
_geom_bond_atom_site_label_1
_geom_bond_atom_site_label_2
_geom_bond_distance
_geom_bond_site_symmetry_2
Tb0 Tl3 3.212733 1_555
Tb0 Tl2 3.212735 1_554
Tb0 Tl5 3.212890 1_564
Tb0 Tl4 3.212890 1_555
Tb0 Tl0 3.213144 1_565
Tb0 Tl1 3.213155 1_554
Tb0 Tb3 3.346385 1_555
Tb0 Tb3 3.346385 1_554
Tb1 Tl2 3.212733 1_655
Tb1 Tl3 3.212735 1_655
Tb1 Tl0 3.212890 1_555
Tb1 Tl1 3.212890 1_555
Tb1 Tl5 3.213144 1_555
Tb1 Tl4 3.213155 1_555
Tb1 Tb2 3.346385 1_556
Tb1 Tb2 3.346385 1_555
Tb2 Tl2 3.212733 1_654
Tb2 Tl3 3.212735 1_655
Tb2 Tl0 3.212890 1_555
Tb2 Tl1 3.212890 1_554
Tb2 Tl5 3.213144 1_554
Tb2 Tl4 3.213155 1_555
Tb3 Tl3 3.212733 1_555
Tb3 Tl2 3.212735 1_555
Tb3 Tl5 3.212890 1_565
Tb3 Tl4 3.212890 1_555
Tb3 Tl0 3.213144 1_565
Tb3 Tl1 3.213155 1_555
Tb4 Tl3 3.154153 1_545
Tb4 Tl4 3.154264 1_555
Tb4 Tl0 3.248057 1_555
Tb4 Tl5 3.664188 1_554
Tb4 Tl5 3.664188 1_555
Tb5 Tl2 3.154161 1_555
Tb5 Tl5 3.154248 1_555
Tb5 Tl1 3.248057 1_555
Tb5 Tl4 3.664192 1_556
Tb5 Tl4 3.664192 1_555
Tb6 Tl1 3.154027 1_455
Tb6 Tl5 3.154028 1_565
Tb6 Tl2 3.247592 1_555
Tb6 Tl3 3.664215 1_555
Tb6 Tl3 3.664215 1_556
Tb7 Tl4 3.154027 1_555
Tb7 Tl0 3.154028 1_455
Tb7 Tl3 3.247592 1_555
Tb7 Tl2 3.664215 1_554
Tb7 Tl2 3.664215 1_555
Tb8 Tl3 3.154161 1_655
Tb8 Tl0 3.154248 1_565
Tb8 Tl4 3.248057 1_555
Tb8 Tl1 3.664192 1_554
Tb8 Tl1 3.664192 1_555
Tb9 Tl2 3.154153 1_655
Tb9 Tl1 3.154264 1_545
Tb9 Tl5 3.248057 1_555
Tb9 Tl0 3.664188 1_556
Tb9 Tl0 3.664188 1_555
