# generated using pymatgen
data_K16ZrSnBi8
_symmetry_space_group_name_H-M   'P 1'
_cell_length_a   11.77503491
_cell_length_b   11.77504199
_cell_length_c   11.77487946
_cell_angle_alpha   60.00045659
_cell_angle_beta   60.00043670
_cell_angle_gamma   60.00065866
_symmetry_Int_Tables_number   1
_chemical_formula_structural   K16ZrSnBi8
_chemical_formula_sum   'K16 Zr1 Sn1 Bi8'
_cell_volume   1154.43964757
_cell_formula_units_Z   1
loop_
 _symmetry_equiv_pos_site_id
 _symmetry_equiv_pos_as_xyz
  1  'x, y, z'
loop_
 _atom_site_type_symbol
 _atom_site_label
 _atom_site_symmetry_multiplicity
 _atom_site_fract_x
 _atom_site_fract_y
 _atom_site_fract_z
 _atom_site_occupancy
  K  K0  1  0.62217888  0.13331464  0.62225424  1
  K  K1  1  0.62224220  0.62224320  0.13330559  1
  K  K2  1  0.13331564  0.62217988  0.62225324  1
  K  K3  1  0.62224220  0.62224320  0.62221001  1
  K  K4  1  0.02066218  0.02066118  0.47933782  1
  K  K5  1  0.77886572  0.22115385  0.22113214  1
  K  K6  1  0.22115185  0.77886672  0.77885129  1
  K  K7  1  0.77887765  0.77887965  0.22112135  1
  K  K8  1  0.77886572  0.22115385  0.77884829  1
  K  K9  1  0.22115185  0.77886672  0.22113114  1
  K  K10  1  0.47934798  0.02065456  0.47930522  1
  K  K11  1  0.47934798  0.02065456  0.02069224  1
  K  K12  1  0.02065556  0.47934598  0.47930422  1
  K  K13  1  0.02065556  0.47934598  0.02069424  1
  K  K14  1  0.22112408  0.22112408  0.77887592  1
  K  K15  1  0.47932859  0.47932759  0.02067141  1
  Zr  Zr0  1  0.74998647  0.74998447  0.75001453  1
  Sn  Sn0  1  0.49999996  0.50000096  0.49999904  1
  Bi  Bi0  1  0.39567018  0.81294090  0.39569396  1
  Bi  Bi1  1  0.85182770  0.85182770  0.44450544  1
  Bi  Bi2  1  0.44456790  0.85180988  0.85181161  1
  Bi  Bi3  1  0.85182770  0.85182770  0.85184115  1
  Bi  Bi4  1  0.81294090  0.39567018  0.39569396  1
  Bi  Bi5  1  0.39567834  0.39567834  0.39567230  1
  Bi  Bi6  1  0.39567834  0.39567834  0.81297103  1
  Bi  Bi7  1  0.85180988  0.44456790  0.85181161  1
loop_
_geom_bond_atom_site_label_1
_geom_bond_atom_site_label_2
_geom_bond_distance
_geom_bond_site_symmetry_2
K0 Sn0 3.525451 1_555
K0 Zr0 3.685471 1_545
K1 Sn0 3.525463 1_555
K1 Zr0 3.685036 1_554
K2 Sn0 3.525429 1_555
K2 Zr0 3.685459 1_455
K3 Sn0 3.525483 1_555
K3 Zr0 3.685026 1_555
Bi0 Sn0 3.008715 1_555
Bi0 K11 3.702698 1_565
Bi0 K10 3.702706 1_565
Bi0 K4 3.702821 1_565
Bi0 K1 3.796014 1_555
Bi0 K3 3.796032 1_555
Bi0 K2 3.796215 1_555
Bi0 K9 3.805488 1_555
Bi0 K6 3.805508 1_555
Bi0 K7 3.806104 1_555
Bi1 Zr0 2.937225 1_555
Bi1 K7 3.694701 1_555
Bi1 K9 3.695082 1_655
Bi1 K5 3.695099 1_565
Bi1 K10 3.695268 1_565
Bi1 K12 3.695294 1_655
Bi1 K4 3.695353 1_665
Bi1 K3 3.871650 1_555
Bi1 K0 3.872168 1_565
Bi1 K2 3.872169 1_655
Bi2 Zr0 2.936399 1_555
Bi2 K6 3.695125 1_555
Bi2 K9 3.695125 1_556
Bi2 K14 3.695213 1_565
Bi2 K15 3.695388 1_556
Bi2 K11 3.695520 1_566
Bi2 K10 3.695530 1_565
Bi2 K0 3.871330 1_565
Bi2 K3 3.871669 1_555
Bi2 K1 3.871669 1_556
Bi3 Zr0 2.937244 1_555
Bi3 K7 3.694679 1_556
Bi3 K6 3.695079 1_655
Bi3 K8 3.695093 1_565
Bi3 K11 3.695263 1_566
Bi3 K13 3.695289 1_656
Bi3 K4 3.695376 1_665
Bi3 K1 3.871648 1_556
Bi3 K0 3.872168 1_565
Bi3 K2 3.872169 1_655
Bi4 Sn0 3.008722 1_555
Bi4 K13 3.702682 1_655
Bi4 K12 3.702691 1_655
Bi4 K4 3.702834 1_655
Bi4 K1 3.796022 1_555
Bi4 K3 3.796040 1_555
Bi4 K0 3.796233 1_555
Bi4 K5 3.805465 1_555
Bi4 K8 3.805476 1_555
Bi4 K7 3.806122 1_555
Bi5 Sn0 3.008965 1_555
Bi5 K15 3.702642 1_555
Bi5 K12 3.702942 1_555
Bi5 K10 3.702949 1_555
Bi5 K2 3.795967 1_555
Bi5 K0 3.795969 1_555
Bi5 K1 3.796331 1_555
Bi5 K5 3.805750 1_555
Bi5 K9 3.805768 1_555
Bi5 K14 3.805943 1_555
Bi6 Sn0 3.008975 1_555
Bi6 K15 3.702631 1_556
Bi6 K13 3.702942 1_556
Bi6 K11 3.702949 1_556
Bi6 K2 3.795952 1_555
Bi6 K0 3.795954 1_555
Bi6 K3 3.796332 1_555
Bi6 K8 3.805750 1_555
Bi6 K6 3.805771 1_555
Bi6 K14 3.805943 1_555
Bi7 Zr0 2.936382 1_555
Bi7 K5 3.695128 1_556
Bi7 K8 3.695137 1_555
Bi7 K14 3.695211 1_655
Bi7 K15 3.695378 1_556
Bi7 K13 3.695534 1_656
Bi7 K12 3.695544 1_655
Bi7 K2 3.871346 1_655
Bi7 K3 3.871676 1_555
Bi7 K1 3.871676 1_556
