# generated using pymatgen
data_K2SiMoN4
_symmetry_space_group_name_H-M   'P 1'
_cell_length_a   5.65123835
_cell_length_b   5.65123921
_cell_length_c   5.65123930
_cell_angle_alpha   120.33787459
_cell_angle_beta   120.33787032
_cell_angle_gamma   89.41576952
_symmetry_Int_Tables_number   1
_chemical_formula_structural   K2SiMoN4
_chemical_formula_sum   'K2 Si1 Mo1 N4'
_cell_volume   126.96030974
_cell_formula_units_Z   1
loop_
 _symmetry_equiv_pos_site_id
 _symmetry_equiv_pos_as_xyz
  1  'x, y, z'
loop_
 _atom_site_type_symbol
 _atom_site_label
 _atom_site_symmetry_multiplicity
 _atom_site_fract_x
 _atom_site_fract_y
 _atom_site_fract_z
 _atom_site_occupancy
  K  K0  1  0.25000000  0.75000000  0.50000000  1
  K  K1  1  0.50000000  0.50000000  0.00000000  1
  Si  Si0  1  0.00000000  0.00000000  0.00000000  1
  Mo  Mo0  1  0.75000000  0.25000000  0.50000000  1
  N  N0  1  0.80029945  0.12022321  0.16205603  1
  N  N1  1  0.95816719  0.63824443  0.83794397  1
  N  N2  1  0.36175557  0.19970055  0.31992276  1
  N  N3  1  0.87977679  0.04183281  0.68007724  1
loop_
_geom_bond_atom_site_label_1
_geom_bond_atom_site_label_2
_geom_bond_distance
_geom_bond_site_symmetry_2
K0 N2 2.918554 1_555
K0 N0 2.918557 1_566
K0 N3 2.918559 1_465
K0 N1 2.918560 1_454
K1 N0 2.943844 1_555
K1 N1 2.943846 1_454
K1 N3 2.943846 1_565
K1 N2 2.943847 1_554
Mo0 N0 1.842619 1_555
Mo0 N3 1.842622 1_555
Mo0 N1 1.842623 1_555
Mo0 N2 1.842623 1_555
N0 Si0 1.724485 1_655
N1 Si0 1.724480 1_666
N2 Si0 1.724481 1_555
N3 Si0 1.724480 1_656
