# generated using pymatgen
data_Y2Ni2Hg
_symmetry_space_group_name_H-M   'P 1'
_cell_length_a   7.22199034
_cell_length_b   7.22199032
_cell_length_c   3.71422650
_cell_angle_alpha   90.00000000
_cell_angle_beta   90.00000000
_cell_angle_gamma   148.99834490
_symmetry_Int_Tables_number   1
_chemical_formula_structural   Y2Ni2Hg
_chemical_formula_sum   'Y2 Ni2 Hg1'
_cell_volume   99.77974815
_cell_formula_units_Z   1
loop_
 _symmetry_equiv_pos_site_id
 _symmetry_equiv_pos_as_xyz
  1  'x, y, z'
loop_
 _atom_site_type_symbol
 _atom_site_label
 _atom_site_symmetry_multiplicity
 _atom_site_fract_x
 _atom_site_fract_y
 _atom_site_fract_z
 _atom_site_occupancy
  Y  Y0  1  0.36513642  0.63486358  0.50000000  1
  Y  Y1  1  0.63486358  0.36513642  0.50000000  1
  Ni  Ni0  1  0.79944541  0.20055459  0.00000000  1
  Ni  Ni1  1  0.20055459  0.79944541  0.00000000  1
  Hg  Hg0  1  0.00000000  0.00000000  0.00000000  1
loop_
_geom_bond_atom_site_label_1
_geom_bond_atom_site_label_2
_geom_bond_distance
_geom_bond_site_symmetry_2
Ni0 Ni1 2.370612 1_655
Ni0 Ni1 2.370612 1_545
Ni0 Y0 2.830216 1_544
Ni0 Y0 2.830216 1_545
Ni0 Y0 2.830216 1_655
Ni0 Y0 2.830216 1_654
Ni0 Y1 2.948966 1_555
Ni0 Y1 2.948966 1_554
Ni1 Y1 2.830216 1_564
Ni1 Y1 2.830216 1_565
Ni1 Y1 2.830216 1_454
Ni1 Y1 2.830216 1_455
Ni1 Y0 2.948966 1_554
Ni1 Y0 2.948966 1_555
Hg0 Ni1 2.791440 1_545
Hg0 Ni0 2.791440 1_455
Hg0 Y0 3.270731 1_554
Hg0 Y0 3.270731 1_555
Hg0 Y1 3.270731 1_444
Hg0 Y1 3.270731 1_445
Hg0 Y1 3.270731 1_554
Hg0 Y1 3.270731 1_555
Hg0 Y0 3.270731 1_444
Hg0 Y0 3.270731 1_445
