# generated using pymatgen
data_Yb2MgTi2O6
_symmetry_space_group_name_H-M   'P 1'
_cell_length_a   6.25814329
_cell_length_b   6.25453931
_cell_length_c   6.25883707
_cell_angle_alpha   51.79832530
_cell_angle_beta   51.83557454
_cell_angle_gamma   51.79993671
_symmetry_Int_Tables_number   1
_chemical_formula_structural   Yb2MgTi2O6
_chemical_formula_sum   'Yb2 Mg1 Ti2 O6'
_cell_volume   139.86026347
_cell_formula_units_Z   1
loop_
 _symmetry_equiv_pos_site_id
 _symmetry_equiv_pos_as_xyz
  1  'x, y, z'
loop_
 _atom_site_type_symbol
 _atom_site_label
 _atom_site_symmetry_multiplicity
 _atom_site_fract_x
 _atom_site_fract_y
 _atom_site_fract_z
 _atom_site_occupancy
  Yb  Yb0  1  0.34203972  0.34188760  0.33978379  1
  Yb  Yb1  1  0.53979403  0.53990616  0.53961431  1
  Mg  Mg0  1  0.74730665  0.74628171  0.74687393  1
  Ti  Ti0  1  0.13556966  0.13647035  0.13501136  1
  Ti  Ti1  1  0.94721707  0.94751677  0.94464646  1
  O  O0  1  0.15594914  0.74130518  0.42233070  1
  O  O1  1  0.42345583  0.15624475  0.74046534  1
  O  O2  1  0.74058917  0.42348126  0.15646513  1
  O  O3  1  0.17327802  0.55469367  0.98756861  1
  O  O4  1  0.55606093  0.98779071  0.17397639  1
  O  O5  1  0.98873978  0.17442185  0.55284698  1
loop_
_geom_bond_atom_site_label_1
_geom_bond_atom_site_label_2
_geom_bond_distance
_geom_bond_site_symmetry_2
Mg0 O2 2.054253 1_556
Mg0 O0 2.055969 1_655
Mg0 O1 2.056633 1_565
O0 Ti0 1.937781 1_565
O0 Yb0 2.262420 1_555
O0 Yb1 2.277929 1_555
O1 Ti0 1.938751 1_556
O1 Yb0 2.267754 1_555
O1 Yb1 2.273151 1_555
O2 Ti0 1.936587 1_655
O2 Yb0 2.260805 1_555
O2 Yb1 2.272453 1_555
O3 Ti1 1.861288 1_455
O3 Yb1 2.289351 1_555
O3 Yb0 2.292633 1_556
O3 Ti0 2.293106 1_556
O4 Ti1 1.859635 1_554
O4 Yb1 2.287012 1_555
O4 Yb0 2.287354 1_565
O4 Ti0 2.309762 1_565
O5 Ti1 1.859866 1_545
O5 Yb1 2.288226 1_555
O5 Yb0 2.292772 1_655
O5 Ti0 2.295222 1_655
