# generated using pymatgen
data_CrAg3(NO3)8
_symmetry_space_group_name_H-M   'P 1'
_cell_length_a   7.71697570
_cell_length_b   7.71697566
_cell_length_c   7.71697617
_cell_angle_alpha   89.38369437
_cell_angle_beta   90.61630185
_cell_angle_gamma   90.61630245
_symmetry_Int_Tables_number   1
_chemical_formula_structural   CrAg3(NO3)8
_chemical_formula_sum   'Cr1 Ag3 N8 O24'
_cell_volume   459.47996487
_cell_formula_units_Z   1
loop_
 _symmetry_equiv_pos_site_id
 _symmetry_equiv_pos_as_xyz
  1  'x, y, z'
loop_
 _atom_site_type_symbol
 _atom_site_label
 _atom_site_symmetry_multiplicity
 _atom_site_fract_x
 _atom_site_fract_y
 _atom_site_fract_z
 _atom_site_occupancy
  Cr  Cr0  1  0.00000000  0.00000000  0.50000000  1
  Ag  Ag0  1  0.50000000  0.50000000  0.50000000  1
  Ag  Ag1  1  0.50000000  0.00000000  0.00000000  1
  Ag  Ag2  1  0.00000000  0.50000000  0.00000000  1
  N  N0  1  0.68998456  0.12977669  0.30938078  1
  N  N1  1  0.67340446  0.32659554  0.82659554  1
  N  N2  1  0.87022331  0.80938078  0.81001544  1
  N  N3  1  0.80938078  0.68998456  0.37022331  1
  N  N4  1  0.12977669  0.19061922  0.18998456  1
  N  N5  1  0.19061922  0.31001544  0.62977669  1
  N  N6  1  0.32659554  0.67340446  0.17340446  1
  N  N7  1  0.31001544  0.87022331  0.69061922  1
  O  O0  1  0.55006484  0.22019983  0.81035311  1
  O  O1  1  0.57060414  0.23308750  0.29334125  1
  O  O2  1  0.68964689  0.44993516  0.72019983  1
  O  O3  1  0.72217130  0.01905498  0.19579109  1
  O  O4  1  0.69579109  0.72217130  0.48094502  1
  O  O5  1  0.76691250  0.79334125  0.92939586  1
  O  O6  1  0.77980017  0.31035311  0.94993516  1
  O  O7  1  0.78506097  0.13357347  0.44736518  1
  O  O8  1  0.86642653  0.94736518  0.71493903  1
  O  O9  1  0.79334125  0.57060414  0.26691250  1
  O  O10  1  0.98094502  0.69579109  0.77782870  1
  O  O11  1  0.94736518  0.78506097  0.36642653  1
  O  O12  1  0.05263482  0.21493903  0.63357347  1
  O  O13  1  0.01905498  0.30420891  0.22217130  1
  O  O14  1  0.20665875  0.42939586  0.73308750  1
  O  O15  1  0.13357347  0.05263482  0.28506097  1
  O  O16  1  0.22019983  0.68964689  0.05006484  1
  O  O17  1  0.21493903  0.86642653  0.55263482  1
  O  O18  1  0.23308750  0.20665875  0.07060414  1
  O  O19  1  0.30420891  0.27782870  0.51905498  1
  O  O20  1  0.31035311  0.55006484  0.27980017  1
  O  O21  1  0.27782870  0.98094502  0.80420891  1
  O  O22  1  0.42939586  0.76691250  0.70665875  1
  O  O23  1  0.44993516  0.77980017  0.18964689  1
loop_
_geom_bond_atom_site_label_1
_geom_bond_atom_site_label_2
_geom_bond_distance
_geom_bond_site_symmetry_2
Cr0 O17 1.997998 1_545
Cr0 O7 1.997998 1_455
Cr0 O8 1.997998 1_445
Cr0 O15 1.997998 1_555
Cr0 O11 1.997998 1_445
Cr0 O12 1.997998 1_555
Ag0 O2 2.263445 1_555
Ag0 O20 2.263445 1_555
Ag0 O4 2.277629 1_555
Ag0 O19 2.277629 1_555
Ag0 O22 2.682590 1_555
Ag0 O1 2.682590 1_555
Ag1 O0 2.263445 1_554
Ag1 O23 2.263445 1_545
Ag1 O3 2.277629 1_555
Ag1 O21 2.277629 1_544
Ag1 O18 2.682590 1_555
Ag1 O5 2.682590 1_544
Ag2 O16 2.263445 1_555
Ag2 O6 2.263445 1_454
Ag2 O13 2.277629 1_555
Ag2 O10 2.277629 1_454
Ag2 O9 2.682590 1_455
Ag2 O14 2.682590 1_554
N0 O1 1.229170 1_555
N0 O3 1.259163 1_555
N0 O7 1.287022 1_555
N1 O2 1.256429 1_555
N1 O0 1.256429 1_555
N1 O6 1.256429 1_555
N2 O5 1.229171 1_555
N2 O10 1.259163 1_555
N2 O8 1.287022 1_555
N3 O9 1.229171 1_555
N3 O4 1.259163 1_555
N3 O11 1.287022 1_555
N4 O18 1.229171 1_555
N4 O13 1.259163 1_555
N4 O15 1.287022 1_555
N5 O14 1.229171 1_555
N5 O19 1.259163 1_555
N5 O12 1.287022 1_555
N6 O20 1.256429 1_555
N6 O23 1.256429 1_555
N6 O16 1.256429 1_555
N7 O22 1.229170 1_555
N7 O21 1.259163 1_555
N7 O17 1.287022 1_555
