# generated using pymatgen
data_Hf2Ta3Nb5N12
_symmetry_space_group_name_H-M   'P 1'
_cell_length_a   5.25947314
_cell_length_b   5.27175135
_cell_length_c   10.48380960
_cell_angle_alpha   89.96517779
_cell_angle_beta   90.01745026
_cell_angle_gamma   120.07723498
_symmetry_Int_Tables_number   1
_chemical_formula_structural   Hf2Ta3Nb5N12
_chemical_formula_sum   'Hf2 Ta3 Nb5 N12'
_cell_volume   251.54072651
_cell_formula_units_Z   1
loop_
 _symmetry_equiv_pos_site_id
 _symmetry_equiv_pos_as_xyz
  1  'x, y, z'
loop_
 _atom_site_type_symbol
 _atom_site_label
 _atom_site_symmetry_multiplicity
 _atom_site_fract_x
 _atom_site_fract_y
 _atom_site_fract_z
 _atom_site_occupancy
  Hf  Hf0  1  0.66534588  0.33140650  0.00007142  1
  Hf  Hf1  1  0.33465412  0.66606162  0.00007142  1
  Ta  Ta0  1  0.00000000  0.67842699  0.25260350  1
  Ta  Ta1  1  0.33466537  0.66676272  0.49952838  1
  Ta  Ta2  1  0.66533463  0.33209635  0.49952838  1
  Nb  Nb0  1  0.67723646  0.67674304  0.74664051  1
  Nb  Nb1  1  0.32276354  0.99950658  0.74664051  1
  Nb  Nb2  1  1.00000000  0.32302384  0.74672564  1
  Nb  Nb3  1  0.32321065  0.32363781  0.25390759  1
  Nb  Nb4  1  0.67678935  0.00042716  0.25390759  1
  N  N0  1  0.66137117  0.65725682  0.38352566  1
  N  N1  1  0.33862883  0.99588565  0.38352566  1
  N  N2  1  1.00000000  0.35031248  0.38229232  1
  N  N3  1  0.34426079  0.34415668  0.61590453  1
  N  N4  1  0.65573921  0.99989589  0.61590453  1
  N  N5  1  0.00000000  0.65384245  0.61624526  1
  N  N6  1  0.34607886  0.34584646  0.87415534  1
  N  N7  1  0.65392114  0.99976860  0.87415534  1
  N  N8  1  0.00000000  0.65223357  0.87401070  1
  N  N9  1  0.65864904  0.65421184  0.12663507  1
  N  N10  1  0.34135096  0.99556281  0.12663507  1
  N  N11  1  1.00000000  0.35293515  0.12738359  1
loop_
_geom_bond_atom_site_label_1
_geom_bond_atom_site_label_2
_geom_bond_distance
_geom_bond_site_symmetry_2
Hf0 N11 2.165835 1_555
Hf0 N6 2.166724 1_554
Hf0 N7 2.168012 1_544
Hf0 N8 2.172556 1_654
Hf0 N9 2.172700 1_555
Hf0 N10 2.184824 1_545
Hf1 N11 2.165837 1_455
Hf1 N7 2.166724 1_554
Hf1 N6 2.168021 1_554
Hf1 N8 2.172554 1_554
Hf1 N10 2.172696 1_555
Hf1 N9 2.184826 1_555
N0 Ta2 2.109760 1_555
N0 Ta1 2.126440 1_555
N0 Ta0 2.206910 1_655
N0 Nb3 2.229157 1_555
N0 Nb4 2.230710 1_565
N1 Ta1 2.109755 1_555
N1 Ta2 2.126438 1_565
N1 Ta0 2.206910 1_555
N1 Nb4 2.229156 1_565
N1 Nb3 2.230710 1_565
N2 Ta2 2.109452 1_555
N2 Ta1 2.109454 1_655
N2 Ta0 2.199486 1_655
N2 Nb3 2.227630 1_655
N2 Nb4 2.227630 1_555
N3 Ta2 2.110262 1_555
N3 Ta1 2.113517 1_555
N3 Nb0 2.223377 1_555
N3 Nb2 2.229564 1_455
N3 Nb1 2.232416 1_545
N4 Ta1 2.110260 1_555
N4 Ta2 2.113512 1_565
N4 Nb1 2.223377 1_555
N4 Nb2 2.229564 1_565
N4 Nb0 2.232416 1_555
N5 Ta1 2.116872 1_555
N5 Ta2 2.116874 1_455
N5 Nb2 2.215818 1_455
N5 Nb0 2.229828 1_455
N5 Nb1 2.229829 1_555
N6 Nb0 2.194743 1_555
N6 Nb2 2.211683 1_455
N6 Nb1 2.216809 1_545
N7 Nb1 2.194741 1_555
N7 Nb2 2.211681 1_565
N7 Nb0 2.216813 1_555
N8 Nb2 2.189869 1_455
N8 Nb0 2.213544 1_455
N8 Nb1 2.213545 1_555
N9 Ta0 2.180045 1_655
N9 Nb3 2.201541 1_555
N9 Nb4 2.224638 1_565
N10 Ta0 2.180045 1_555
N10 Nb4 2.201541 1_565
N10 Nb3 2.224638 1_565
N11 Ta0 2.161131 1_655
N11 Nb3 2.221394 1_655
N11 Nb4 2.221395 1_555
