# generated using pymatgen
data_Ni2GeMo3C
_symmetry_space_group_name_H-M   'P 1'
_cell_length_a   7.85781428
_cell_length_b   7.85781400
_cell_length_c   7.85781403
_cell_angle_alpha   59.99999577
_cell_angle_beta   59.99999695
_cell_angle_gamma   59.99999679
_symmetry_Int_Tables_number   1
_chemical_formula_structural   Ni2GeMo3C
_chemical_formula_sum   'Ni8 Ge4 Mo12 C4'
_cell_volume   343.07590563
_cell_formula_units_Z   4
loop_
 _symmetry_equiv_pos_site_id
 _symmetry_equiv_pos_as_xyz
  1  'x, y, z'
loop_
 _atom_site_type_symbol
 _atom_site_label
 _atom_site_symmetry_multiplicity
 _atom_site_fract_x
 _atom_site_fract_y
 _atom_site_fract_z
 _atom_site_occupancy
  Ni  Ni0  1  0.91708467  0.91708467  0.24874599  1
  Ni  Ni1  1  0.33291533  0.33291533  0.33291533  1
  Ni  Ni2  1  0.24874599  0.91708467  0.91708467  1
  Ni  Ni3  1  0.33291533  0.00125401  0.33291533  1
  Ni  Ni4  1  0.00125401  0.33291533  0.33291533  1
  Ni  Ni5  1  0.33291533  0.33291533  0.00125401  1
  Ni  Ni6  1  0.91708467  0.91708467  0.91708467  1
  Ni  Ni7  1  0.91708467  0.24874599  0.91708467  1
  Ge  Ge0  1  0.12500000  0.12500000  0.12500000  1
  Ge  Ge1  1  0.62500000  0.12500000  0.12500000  1
  Ge  Ge2  1  0.12500000  0.12500000  0.62500000  1
  Ge  Ge3  1  0.12500000  0.62500000  0.12500000  1
  Mo  Mo0  1  0.68969149  0.31030851  0.31030851  1
  Mo  Mo1  1  0.93969149  0.93969149  0.56030851  1
  Mo  Mo2  1  0.68969149  0.68969149  0.31030851  1
  Mo  Mo3  1  0.68969149  0.31030851  0.68969149  1
  Mo  Mo4  1  0.31030851  0.68969149  0.31030851  1
  Mo  Mo5  1  0.56030851  0.93969149  0.56030851  1
  Mo  Mo6  1  0.56030851  0.93969149  0.93969149  1
  Mo  Mo7  1  0.93969149  0.56030851  0.56030851  1
  Mo  Mo8  1  0.93969149  0.56030851  0.93969149  1
  Mo  Mo9  1  0.31030851  0.31030851  0.68969149  1
  Mo  Mo10  1  0.56030851  0.56030851  0.93969149  1
  Mo  Mo11  1  0.31030851  0.68969149  0.68969149  1
  C  C0  1  0.62500000  0.62500000  0.62500000  1
  C  C1  1  0.62500000  0.62500000  0.12500000  1
  C  C2  1  0.12500000  0.62500000  0.62500000  1
  C  C3  1  0.62500000  0.12500000  0.62500000  1
loop_
_geom_bond_atom_site_label_1
_geom_bond_atom_site_label_2
_geom_bond_distance
_geom_bond_site_symmetry_2
Ni0 Ni7 2.606133 1_564
Ni0 Ni2 2.606133 1_654
Ni0 Ni6 2.606133 1_554
Ni1 Ni3 2.606133 1_555
Ni1 Ni5 2.606133 1_555
Ni1 Ni4 2.606133 1_555
Ni2 Ni7 2.606133 1_465
Ni2 Ni6 2.606133 1_455
Ni3 Ni5 2.606133 1_555
Ni3 Ni4 2.606133 1_555
Ni4 Ni5 2.606133 1_555
Ni6 Ni7 2.606133 1_565
Ge0 Ni2 2.403284 1_544
Ge0 Ni4 2.403284 1_555
Ge0 Ni0 2.403284 1_445
Ge0 Ni5 2.403284 1_555
Ge0 Ni3 2.403284 1_555
Ge0 Ni7 2.403284 1_454
Ge0 Mo4 2.845988 1_545
Ge0 Mo8 2.845988 1_454
Ge0 Mo1 2.845988 1_445
Ge0 Mo9 2.845988 1_554
Ge0 Mo6 2.845988 1_544
Ge0 Mo0 2.845988 1_455
Ge1 Ni1 2.403284 1_555
Ge1 Ni6 2.403284 1_544
Ge1 Ni5 2.403284 1_555
Ge1 Ni0 2.403284 1_545
Ge1 Ni7 2.403284 1_554
Ge1 Ni3 2.403284 1_555
Ge1 Mo10 2.845988 1_554
Ge1 Mo2 2.845988 1_545
Ge1 Mo5 2.845988 1_545
Ge1 Mo3 2.845988 1_554
Ge1 Mo0 2.845988 1_555
Ge1 Mo6 2.845988 1_544
Ge2 Ni6 2.403284 1_445
Ge2 Ni1 2.403284 1_555
Ge2 Ni4 2.403284 1_555
Ge2 Ni2 2.403284 1_545
Ge2 Ni7 2.403284 1_455
Ge2 Ni3 2.403284 1_555
Ge2 Mo7 2.845988 1_455
Ge2 Mo11 2.845988 1_545
Ge2 Mo5 2.845988 1_545
Ge2 Mo3 2.845988 1_455
Ge2 Mo9 2.845988 1_555
Ge2 Mo1 2.845988 1_445
Ge3 Ni6 2.403284 1_454
Ge3 Ni1 2.403284 1_555
Ge3 Ni2 2.403284 1_554
Ge3 Ni4 2.403284 1_555
Ge3 Ni0 2.403284 1_455
Ge3 Ni5 2.403284 1_555
Ge3 Mo7 2.845988 1_455
Ge3 Mo11 2.845988 1_554
Ge3 Mo10 2.845988 1_554
Ge3 Mo2 2.845988 1_455
Ge3 Mo4 2.845988 1_555
Ge3 Mo8 2.845988 1_454
Mo0 Ni1 2.637831 1_555
Mo0 Ni4 2.637831 1_655
Mo0 Ni0 2.843130 1_545
Mo0 Ni7 2.843130 1_554
Mo1 Ni6 2.637831 1_555
Mo1 Ni0 2.637831 1_555
Mo1 Ni4 2.843130 1_665
Mo1 Ni3 2.843130 1_665
Mo2 Ni4 2.637831 1_655
Mo2 Ni3 2.637831 1_565
Mo2 Ni6 2.843130 1_554
Mo2 Ni0 2.843130 1_555
Mo3 Ni4 2.637831 1_655
Mo3 Ni5 2.637831 1_556
Mo3 Ni6 2.843130 1_545
Mo3 Ni7 2.843130 1_555
Mo4 Ni1 2.637831 1_555
Mo4 Ni3 2.637831 1_565
Mo4 Ni2 2.843130 1_554
Mo4 Ni0 2.843130 1_455
Mo5 Ni2 2.637831 1_555
Mo5 Ni0 2.637831 1_555
Mo5 Ni1 2.843130 1_565
Mo5 Ni3 2.843130 1_565
Mo6 Ni6 2.637831 1_555
Mo6 Ni2 2.637831 1_555
Mo6 Ni5 2.843130 1_566
Mo6 Ni3 2.843130 1_566
Mo7 Ni0 2.637830 1_555
Mo7 Ni7 2.637830 1_555
Mo7 Ni1 2.843130 1_655
Mo7 Ni4 2.843130 1_655
Mo8 Ni6 2.637831 1_555
Mo8 Ni7 2.637831 1_555
Mo8 Ni4 2.843130 1_656
Mo8 Ni5 2.843130 1_656
Mo9 Ni1 2.637831 1_555
Mo9 Ni5 2.637831 1_556
Mo9 Ni2 2.843130 1_545
Mo9 Ni7 2.843130 1_455
Mo10 Ni2 2.637831 1_555
Mo10 Ni7 2.637831 1_555
Mo10 Ni1 2.843130 1_556
Mo10 Ni5 2.843130 1_556
Mo11 Ni5 2.637830 1_556
Mo11 Ni3 2.637830 1_565
Mo11 Ni6 2.843130 1_455
Mo11 Ni2 2.843130 1_555
C0 Mo5 2.091861 1_555
C0 Mo3 2.091861 1_555
C0 Mo10 2.091861 1_555
C0 Mo2 2.091861 1_555
C0 Mo7 2.091861 1_555
C0 Mo11 2.091861 1_555
C1 Mo6 2.091861 1_554
C1 Mo0 2.091861 1_555
C1 Mo8 2.091861 1_554
C1 Mo4 2.091861 1_555
C1 Mo2 2.091861 1_555
C1 Mo10 2.091861 1_554
C2 Mo1 2.091861 1_455
C2 Mo9 2.091861 1_555
C2 Mo8 2.091861 1_455
C2 Mo4 2.091861 1_555
C2 Mo11 2.091861 1_555
C2 Mo7 2.091861 1_455
C3 Mo6 2.091861 1_545
C3 Mo0 2.091861 1_555
C3 Mo9 2.091861 1_555
C3 Mo1 2.091861 1_545
C3 Mo3 2.091861 1_555
C3 Mo5 2.091861 1_545
