# generated using pymatgen
data_Ca2Hg(ClO)2
_symmetry_space_group_name_H-M   'P 1'
_cell_length_a   6.64979517
_cell_length_b   6.64979498
_cell_length_c   6.73677002
_cell_angle_alpha   114.62570539
_cell_angle_beta   114.62570290
_cell_angle_gamma   33.08570402
_symmetry_Int_Tables_number   1
_chemical_formula_structural   Ca2Hg(ClO)2
_chemical_formula_sum   'Ca2 Hg1 Cl2 O2'
_cell_volume   146.45360992
_cell_formula_units_Z   1
loop_
 _symmetry_equiv_pos_site_id
 _symmetry_equiv_pos_as_xyz
  1  'x, y, z'
loop_
 _atom_site_type_symbol
 _atom_site_label
 _atom_site_symmetry_multiplicity
 _atom_site_fract_x
 _atom_site_fract_y
 _atom_site_fract_z
 _atom_site_occupancy
  Ca  Ca0  1  0.76469865  0.76469865  0.22942093  1
  Ca  Ca1  1  0.23530135  0.23530135  0.77057907  1
  Hg  Hg0  1  0.00000000  0.00000000  0.00000000  1
  Cl  Cl0  1  0.61578179  0.61578179  0.44000215  1
  Cl  Cl1  1  0.38421921  0.38421921  0.55999785  1
  O  O0  1  0.16585734  0.16585734  0.03383976  1
  O  O1  1  0.83414166  0.83414166  0.96616024  1
loop_
_geom_bond_atom_site_label_1
_geom_bond_atom_site_label_2
_geom_bond_distance
_geom_bond_site_symmetry_2
Ca0 O1 2.300925 1_554
Ca0 O0 2.337851 1_655
Ca0 O0 2.337851 1_565
Ca0 Cl1 2.813602 1_565
Ca0 Cl1 2.813603 1_655
Ca0 Cl0 2.821089 1_555
Ca1 O0 2.300934 1_556
Ca1 O1 2.337847 1_455
Ca1 O1 2.337847 1_545
Ca1 Cl0 2.813600 1_545
Ca1 Cl0 2.813600 1_455
Ca1 Cl1 2.821100 1_555
Hg0 O0 2.025864 1_555
Hg0 O1 2.025877 1_444
