# generated using pymatgen
data_Ba6SrSc(BO3)6
_symmetry_space_group_name_H-M   'P 1'
_cell_length_a   8.16817248
_cell_length_b   8.16817143
_cell_length_c   8.16817215
_cell_angle_alpha   105.54097891
_cell_angle_beta   105.54096812
_cell_angle_gamma   105.54097627
_symmetry_Int_Tables_number   1
_chemical_formula_structural   Ba6SrSc(BO3)6
_chemical_formula_sum   'Ba6 Sr1 Sc1 B6 O18'
_cell_volume   470.75606392
_cell_formula_units_Z   1
loop_
 _symmetry_equiv_pos_site_id
 _symmetry_equiv_pos_as_xyz
  1  'x, y, z'
loop_
 _atom_site_type_symbol
 _atom_site_label
 _atom_site_symmetry_multiplicity
 _atom_site_fract_x
 _atom_site_fract_y
 _atom_site_fract_z
 _atom_site_occupancy
  Ba  Ba0  1  0.34614548  0.73461026  0.83558112  1
  Ba  Ba1  1  0.83558112  0.34614548  0.73461026  1
  Ba  Ba2  1  0.73461026  0.83558112  0.34614548  1
  Ba  Ba3  1  0.65385452  0.26538974  0.16441888  1
  Ba  Ba4  1  0.16441888  0.65385452  0.26538974  1
  Ba  Ba5  1  0.26538974  0.16441888  0.65385452  1
  Sr  Sr0  1  0.00000000  0.00000000  0.00000000  1
  Sc  Sc0  1  0.50000000  0.50000000  0.50000000  1
  B  B0  1  0.37851725  0.05409914  0.30470454  1
  B  B1  1  0.30470454  0.37851725  0.05409914  1
  B  B2  1  0.05409914  0.30470454  0.37851725  1
  B  B3  1  0.69529546  0.62148275  0.94590086  1
  B  B4  1  0.94590086  0.69529546  0.62148275  1
  B  B5  1  0.62148275  0.94590086  0.69529546  1
  O  O0  1  0.42765355  0.49498270  0.22906733  1
  O  O1  1  0.22906733  0.42765355  0.49498270  1
  O  O2  1  0.80074168  0.00647595  0.70944920  1
  O  O3  1  0.00647595  0.70944920  0.80074168  1
  O  O4  1  0.70944920  0.80074168  0.00647595  1
  O  O5  1  0.29055080  0.19925832  0.99352405  1
  O  O6  1  0.19925832  0.99352405  0.29055080  1
  O  O7  1  0.99352405  0.29055080  0.19925832  1
  O  O8  1  0.55494235  0.05806861  0.79433501  1
  O  O9  1  0.05806861  0.79433501  0.55494235  1
  O  O10  1  0.79433501  0.55494235  0.05806861  1
  O  O11  1  0.44505765  0.94193139  0.20566499  1
  O  O12  1  0.94193139  0.20566499  0.44505765  1
  O  O13  1  0.20566499  0.44505765  0.94193139  1
  O  O14  1  0.50501730  0.77093267  0.57234645  1
  O  O15  1  0.77093267  0.57234645  0.50501730  1
  O  O16  1  0.57234645  0.50501730  0.77093267  1
  O  O17  1  0.49498270  0.22906733  0.42765355  1
loop_
_geom_bond_atom_site_label_1
_geom_bond_atom_site_label_2
_geom_bond_distance
_geom_bond_site_symmetry_2
Ba0 O3 2.657251 1_555
Ba0 O4 2.750240 1_556
Ba0 O13 2.801052 1_555
Ba0 O11 2.805974 1_556
Ba0 O14 2.832991 1_555
Ba0 O8 2.893614 1_565
Ba0 O1 2.914199 1_555
Ba0 O16 3.009735 1_555
Ba0 O9 3.058357 1_555
Ba1 O2 2.657251 1_555
Ba1 O3 2.750239 1_655
Ba1 O12 2.801052 1_555
Ba1 O13 2.805975 1_655
Ba1 O16 2.832991 1_555
Ba1 O10 2.893614 1_556
Ba1 O17 2.914199 1_555
Ba1 O15 3.009735 1_555
Ba1 O8 3.058356 1_555
Ba2 O4 2.657251 1_555
Ba2 O2 2.750240 1_565
Ba2 O11 2.801052 1_555
Ba2 O12 2.805974 1_565
Ba2 O15 2.832991 1_555
Ba2 O9 2.893615 1_655
Ba2 O0 2.914199 1_555
Ba2 O14 3.009735 1_555
Ba2 O10 3.058356 1_555
Ba3 O7 2.657251 1_555
Ba3 O5 2.750240 1_554
Ba3 O10 2.801052 1_555
Ba3 O8 2.805974 1_554
Ba3 O17 2.832991 1_555
Ba3 O11 2.893614 1_545
Ba3 O15 2.914199 1_555
Ba3 O0 3.009735 1_555
Ba3 O12 3.058357 1_555
Ba4 O6 2.657251 1_555
Ba4 O7 2.750239 1_455
Ba4 O9 2.801052 1_555
Ba4 O10 2.805975 1_455
Ba4 O0 2.832991 1_555
Ba4 O13 2.893614 1_554
Ba4 O14 2.914199 1_555
Ba4 O1 3.009735 1_555
Ba4 O11 3.058356 1_555
Ba5 O5 2.657251 1_555
Ba5 O6 2.750240 1_545
Ba5 O8 2.801052 1_555
Ba5 O9 2.805974 1_545
Ba5 O1 2.832991 1_555
Ba5 O12 2.893615 1_455
Ba5 O16 2.914199 1_555
Ba5 O17 3.009735 1_555
Ba5 O13 3.058356 1_555
B0 O6 1.375696 1_545
B0 O11 1.376429 1_545
B0 O17 1.395169 1_555
B1 O5 1.375696 1_554
B1 O13 1.376429 1_554
B1 O0 1.395169 1_555
B2 O7 1.375696 1_455
B2 O12 1.376429 1_455
B2 O1 1.395169 1_555
B3 O4 1.375696 1_556
B3 O10 1.376429 1_556
B3 O16 1.395169 1_555
B4 O3 1.375696 1_655
B4 O9 1.376429 1_655
B4 O15 1.395169 1_555
B5 O2 1.375696 1_565
B5 O8 1.376429 1_565
B5 O14 1.395169 1_555
O0 Sc0 2.118023 1_555
O1 Sc0 2.118023 1_555
O2 Sr0 2.515508 1_656
O3 Sr0 2.515507 1_566
O4 Sr0 2.515507 1_665
O5 Sr0 2.515507 1_556
O6 Sr0 2.515508 1_565
O7 Sr0 2.515507 1_655
O14 Sc0 2.118022 1_555
O15 Sc0 2.118023 1_555
O16 Sc0 2.118023 1_555
O17 Sc0 2.118022 1_555
