# generated using pymatgen
data_SrSc(Si7Ir3)2
_symmetry_space_group_name_H-M   'P 1'
_cell_length_a   7.99679901
_cell_length_b   7.99679879
_cell_length_c   7.99679940
_cell_angle_alpha   56.74626840
_cell_angle_beta   56.74627474
_cell_angle_gamma   56.74626966
_symmetry_Int_Tables_number   1
_chemical_formula_structural   SrSc(Si7Ir3)2
_chemical_formula_sum   'Sr1 Sc1 Si14 Ir6'
_cell_volume   334.44174501
_cell_formula_units_Z   1
loop_
 _symmetry_equiv_pos_site_id
 _symmetry_equiv_pos_as_xyz
  1  'x, y, z'
loop_
 _atom_site_type_symbol
 _atom_site_label
 _atom_site_symmetry_multiplicity
 _atom_site_fract_x
 _atom_site_fract_y
 _atom_site_fract_z
 _atom_site_occupancy
  Sr  Sr0  1  0.00000000  0.00000000  0.00000000  1
  Sc  Sc0  1  0.50000000  0.50000000  0.50000000  1
  Si  Si0  1  0.75101788  0.75101788  0.75101788  1
  Si  Si1  1  0.24898212  0.24898212  0.24898212  1
  Si  Si2  1  0.84910792  0.06591052  0.67277174  1
  Si  Si3  1  0.67277174  0.84910792  0.06591052  1
  Si  Si4  1  0.06591052  0.67277174  0.84910792  1
  Si  Si5  1  0.64886659  0.82478254  0.43874430  1
  Si  Si6  1  0.43874430  0.64886659  0.82478254  1
  Si  Si7  1  0.82478254  0.43874430  0.64886659  1
  Si  Si8  1  0.17521746  0.56125570  0.35113341  1
  Si  Si9  1  0.56125570  0.35113341  0.17521746  1
  Si  Si10  1  0.35113341  0.17521746  0.56125570  1
  Si  Si11  1  0.93408948  0.32722826  0.15089208  1
  Si  Si12  1  0.32722826  0.15089208  0.93408948  1
  Si  Si13  1  0.15089208  0.93408948  0.32722826  1
  Ir  Ir0  1  0.07611091  0.43387755  0.74420541  1
  Ir  Ir1  1  0.25579459  0.92388909  0.56612245  1
  Ir  Ir2  1  0.56612245  0.25579459  0.92388909  1
  Ir  Ir3  1  0.92388909  0.56612245  0.25579459  1
  Ir  Ir4  1  0.43387755  0.74420541  0.07611091  1
  Ir  Ir5  1  0.74420541  0.07611091  0.43387755  1
loop_
_geom_bond_atom_site_label_1
_geom_bond_atom_site_label_2
_geom_bond_distance
_geom_bond_site_symmetry_2
Sc0 Si5 3.123898 1_555
Sc0 Si10 3.123898 1_555
Sc0 Si7 3.123899 1_555
Sc0 Si8 3.123899 1_555
Sc0 Si6 3.123899 1_555
Sc0 Si9 3.123899 1_555
Sc0 Si2 3.177259 1_555
Sc0 Si13 3.177259 1_555
Sc0 Si3 3.177259 1_555
Sc0 Si12 3.177259 1_555
Sc0 Si4 3.177259 1_555
Sc0 Si11 3.177259 1_555
Si0 Si2 2.692168 1_565
Si0 Si4 2.692168 1_655
Si0 Si3 2.692168 1_556
Si1 Si13 2.692168 1_545
Si1 Si11 2.692168 1_455
Si1 Si12 2.692168 1_554
Si2 Si4 2.592241 1_645
Si2 Si3 2.592241 1_546
Si2 Si7 2.782670 1_555
Si2 Sr0 3.135941 1_656
Si3 Si4 2.592241 1_654
Si3 Si5 2.782670 1_555
Si3 Sr0 3.135941 1_665
Si4 Si6 2.782670 1_555
Si4 Sr0 3.135941 1_566
Si5 Sr0 3.205735 1_665
Si6 Sr0 3.205735 1_566
Si7 Sr0 3.205735 1_656
Si8 Sr0 3.205735 1_565
Si9 Sr0 3.205735 1_655
Si10 Si12 2.782670 1_555
Si10 Sr0 3.205735 1_556
Si11 Si13 2.592241 1_645
Si11 Si12 2.592241 1_654
Si11 Si4 2.768025 1_654
Si11 Si9 2.782670 1_555
Si11 Sr0 3.135941 1_655
Si12 Si13 2.592241 1_546
Si12 Si3 2.768025 1_546
Si12 Sr0 3.135941 1_556
Si13 Si2 2.768025 1_465
Si13 Si8 2.782670 1_555
Si13 Sr0 3.135941 1_565
Ir0 Si4 2.423134 1_555
Ir0 Si0 2.441069 1_455
Ir0 Si12 2.459926 1_555
Ir0 Si10 2.461067 1_555
Ir0 Si7 2.486826 1_455
Ir0 Si8 2.487564 1_555
Ir0 Si11 2.561964 1_456
Ir0 Sc0 3.026077 1_555
Ir0 Sr0 3.124109 1_556
Ir1 Si13 2.423134 1_555
Ir1 Si1 2.441069 1_565
Ir1 Si4 2.459926 1_555
Ir1 Si6 2.461067 1_555
Ir1 Si10 2.486826 1_565
Ir1 Si5 2.487564 1_555
Ir1 Si2 2.561964 1_465
Ir1 Sc0 3.026077 1_555
Ir1 Sr0 3.124109 1_566
Ir2 Si12 2.423134 1_555
Ir2 Si1 2.441069 1_556
Ir2 Si2 2.459927 1_555
Ir2 Si7 2.461067 1_555
Ir2 Si9 2.486826 1_556
Ir2 Si6 2.487564 1_555
Ir2 Si3 2.561964 1_546
Ir2 Sc0 3.026077 1_555
Ir2 Sr0 3.124109 1_656
Ir3 Si11 2.423134 1_555
Ir3 Si1 2.441069 1_655
Ir3 Si3 2.459926 1_555
Ir3 Si5 2.461067 1_555
Ir3 Si8 2.486826 1_655
Ir3 Si7 2.487564 1_555
Ir3 Si4 2.561964 1_654
Ir3 Sc0 3.026077 1_555
Ir3 Sr0 3.124109 1_665
Ir4 Si3 2.423134 1_555
Ir4 Si0 2.441069 1_554
Ir4 Si13 2.459927 1_555
Ir4 Si8 2.461067 1_555
Ir4 Si6 2.486826 1_554
Ir4 Si9 2.487564 1_555
Ir4 Si12 2.561964 1_564
Ir4 Sc0 3.026077 1_555
Ir4 Sr0 3.124109 1_565
Ir5 Si2 2.423134 1_555
Ir5 Si0 2.441069 1_545
Ir5 Si11 2.459926 1_555
Ir5 Si9 2.461067 1_555
Ir5 Si5 2.486826 1_545
Ir5 Si10 2.487564 1_555
Ir5 Si13 2.561964 1_645
Ir5 Sc0 3.026077 1_555
Ir5 Sr0 3.124109 1_655
