# generated using pymatgen
data_Ta12Ga9Ni3N4
_symmetry_space_group_name_H-M   'P 1'
_cell_length_a   8.14247114
_cell_length_b   8.15246444
_cell_length_c   8.15246430
_cell_angle_alpha   59.99999663
_cell_angle_beta   59.95938937
_cell_angle_gamma   59.95938909
_symmetry_Int_Tables_number   1
_chemical_formula_structural   Ta12Ga9Ni3N4
_chemical_formula_sum   'Ta12 Ga9 Ni3 N4'
_cell_volume   382.43020070
_cell_formula_units_Z   1
loop_
 _symmetry_equiv_pos_site_id
 _symmetry_equiv_pos_as_xyz
  1  'x, y, z'
loop_
 _atom_site_type_symbol
 _atom_site_label
 _atom_site_symmetry_multiplicity
 _atom_site_fract_x
 _atom_site_fract_y
 _atom_site_fract_z
 _atom_site_occupancy
  Ta  Ta0  1  0.81572546  0.81267286  0.18580134  1
  Ta  Ta1  1  0.18593198  0.19578787  0.80914058  1
  Ta  Ta2  1  0.81572546  0.18580134  0.81267286  1
  Ta  Ta3  1  0.18593198  0.80914058  0.19578787  1
  Ta  Ta4  1  0.18593198  0.80914058  0.80914058  1
  Ta  Ta5  1  0.81572546  0.18580134  0.18580134  1
  Ta  Ta6  1  0.43427454  0.43732714  0.06419866  1
  Ta  Ta7  1  0.06406802  0.05421213  0.44085942  1
  Ta  Ta8  1  0.43427454  0.06419866  0.43732714  1
  Ta  Ta9  1  0.06406802  0.44085942  0.05421213  1
  Ta  Ta10  1  0.06406802  0.44085942  0.44085942  1
  Ta  Ta11  1  0.43427454  0.06419866  0.06419866  1
  Ga  Ga0  1  0.12500000  0.62500000  0.62500000  1
  Ga  Ga1  1  0.76028522  0.41323893  0.41323893  1
  Ga  Ga2  1  0.43191323  0.75314803  0.40746987  1
  Ga  Ga3  1  0.43191323  0.40746987  0.75314803  1
  Ga  Ga4  1  0.43191323  0.40746987  0.40746987  1
  Ga  Ga5  1  0.48971478  0.83676107  0.83676107  1
  Ga  Ga6  1  0.81808677  0.49685197  0.84253013  1
  Ga  Ga7  1  0.81808677  0.84253013  0.49685197  1
  Ga  Ga8  1  0.81808677  0.84253013  0.84253013  1
  Ni  Ni0  1  0.62500000  0.12500000  0.62500000  1
  Ni  Ni1  1  0.62500000  0.62500000  0.12500000  1
  Ni  Ni2  1  0.62500000  0.62500000  0.62500000  1
  N  N0  1  0.62500000  0.12500000  0.12500000  1
  N  N1  1  0.12500000  0.62500000  0.12500000  1
  N  N2  1  0.12500000  0.12500000  0.62500000  1
  N  N3  1  0.12500000  0.12500000  0.12500000  1
loop_
_geom_bond_atom_site_label_1
_geom_bond_atom_site_label_2
_geom_bond_distance
_geom_bond_site_symmetry_2
Ga0 Ga8 2.608754 1_455
Ga0 Ga4 2.608754 1_555
Ga0 Ga3 2.608758 1_555
Ga0 Ga7 2.608758 1_455
Ga0 Ga2 2.608758 1_555
Ga0 Ga6 2.608758 1_455
Ga0 Ta9 2.915191 1_556
Ga0 Ta3 2.915191 1_555
Ga0 Ta7 2.915191 1_565
Ga0 Ta1 2.915191 1_555
Ga0 Ta4 2.915198 1_555
Ga0 Ta10 2.915198 1_555
Ga1 Ni2 2.519220 1_555
Ga1 Ni1 2.519233 1_555
Ga1 Ni0 2.519233 1_555
Ga1 Ta10 2.717693 1_655
Ga1 Ta9 2.717707 1_655
Ga1 Ta7 2.717707 1_655
Ga1 Ga3 2.721657 1_555
Ga1 Ga2 2.721657 1_555
Ga1 Ga4 2.721661 1_555
Ga1 Ta2 2.973478 1_555
Ga1 Ta0 2.973478 1_555
Ga1 Ta5 2.973485 1_555
Ga2 Ni2 2.450014 1_555
Ga2 Ni1 2.450021 1_555
Ga2 Ta8 2.675967 1_565
Ga2 Ta11 2.675976 1_565
Ga2 Ta7 2.749669 1_565
Ga2 Ga3 2.818129 1_555
Ga2 Ga4 2.818129 1_555
Ga2 Ta0 2.873134 1_555
Ga2 Ta4 2.992599 1_555
Ga2 Ta3 2.992599 1_555
Ga3 Ni2 2.450014 1_555
Ga3 Ni0 2.450021 1_555
Ga3 Ta6 2.675967 1_556
Ga3 Ta11 2.675976 1_556
Ga3 Ta9 2.749669 1_556
Ga3 Ga4 2.818129 1_555
Ga3 Ta2 2.873134 1_555
Ga3 Ta4 2.992599 1_555
Ga3 Ta1 2.992599 1_555
Ga4 Ni0 2.450016 1_555
Ga4 Ni1 2.450016 1_555
Ga4 Ta6 2.675983 1_555
Ga4 Ta8 2.675983 1_555
Ga4 Ta10 2.749675 1_555
Ga4 Ta5 2.873134 1_555
Ga4 Ta1 2.992599 1_555
Ga4 Ta3 2.992599 1_555
Ga5 Ni2 2.519220 1_555
Ga5 Ni1 2.519233 1_556
Ga5 Ni0 2.519233 1_565
Ga5 Ta4 2.717693 1_555
Ga5 Ta3 2.717707 1_556
Ga5 Ta1 2.717707 1_565
Ga5 Ga7 2.721657 1_555
Ga5 Ga6 2.721657 1_555
Ga5 Ga8 2.721661 1_555
Ga5 Ta8 2.973478 1_565
Ga5 Ta6 2.973478 1_556
Ga5 Ta11 2.973485 1_566
Ga6 Ni2 2.450014 1_555
Ga6 Ni1 2.450021 1_556
Ga6 Ta2 2.675967 1_555
Ga6 Ta5 2.675976 1_556
Ga6 Ta1 2.749669 1_655
Ga6 Ga7 2.818129 1_555
Ga6 Ga8 2.818129 1_555
Ga6 Ta6 2.873134 1_556
Ga6 Ta10 2.992599 1_655
Ga6 Ta9 2.992599 1_656
Ga7 Ni2 2.450014 1_555
Ga7 Ni0 2.450021 1_565
Ga7 Ta0 2.675967 1_555
Ga7 Ta5 2.675976 1_565
Ga7 Ta3 2.749669 1_655
Ga7 Ga8 2.818129 1_555
Ga7 Ta8 2.873134 1_565
Ga7 Ta10 2.992599 1_655
Ga7 Ta7 2.992599 1_665
Ga8 Ni0 2.450016 1_565
Ga8 Ni1 2.450016 1_556
Ga8 Ta0 2.675983 1_556
Ga8 Ta2 2.675983 1_565
Ga8 Ta4 2.749675 1_655
Ga8 Ta11 2.873134 1_566
Ga8 Ta7 2.992599 1_665
Ga8 Ta9 2.992599 1_656
Ni0 Ta7 2.965649 1_655
Ni0 Ta1 2.965649 1_555
Ni0 Ta11 2.984353 1_556
Ni0 Ta5 2.984353 1_555
Ni0 Ta2 2.984360 1_555
Ni0 Ta8 2.984360 1_555
Ni1 Ta9 2.965649 1_655
Ni1 Ta3 2.965649 1_555
Ni1 Ta11 2.984353 1_565
Ni1 Ta5 2.984353 1_555
Ni1 Ta0 2.984360 1_555
Ni1 Ta6 2.984360 1_555
Ni2 Ta10 2.965651 1_655
Ni2 Ta4 2.965651 1_555
Ni2 Ta6 2.984354 1_556
Ni2 Ta0 2.984354 1_555
Ni2 Ta8 2.984354 1_565
Ni2 Ta2 2.984354 1_555
N0 Ta8 2.165701 1_555
N0 Ta2 2.165701 1_554
N0 Ta6 2.165701 1_555
N0 Ta0 2.165701 1_545
N0 Ta5 2.165707 1_555
N0 Ta11 2.165707 1_555
N1 Ta6 2.139899 1_555
N1 Ta0 2.139899 1_455
N1 Ta10 2.175198 1_555
N1 Ta4 2.175198 1_554
N1 Ta3 2.175204 1_555
N1 Ta9 2.175204 1_555
N2 Ta8 2.139899 1_555
N2 Ta2 2.139899 1_455
N2 Ta10 2.175198 1_555
N2 Ta4 2.175198 1_545
N2 Ta1 2.175204 1_555
N2 Ta7 2.175204 1_555
N3 Ta11 2.139897 1_555
N3 Ta5 2.139897 1_455
N3 Ta7 2.175196 1_555
N3 Ta1 2.175196 1_554
N3 Ta9 2.175196 1_555
N3 Ta3 2.175196 1_545
