# generated using pymatgen
data_LiAu(IO3)4
_symmetry_space_group_name_H-M   'P 1'
_cell_length_a   10.82814528
_cell_length_b   4.50382256
_cell_length_c   11.84073306
_cell_angle_alpha   90.00000000
_cell_angle_beta   115.61837391
_cell_angle_gamma   90.00000000
_symmetry_Int_Tables_number   1
_chemical_formula_structural   LiAu(IO3)4
_chemical_formula_sum   'Li2 Au2 I8 O24'
_cell_volume   520.68261335
_cell_formula_units_Z   2
loop_
 _symmetry_equiv_pos_site_id
 _symmetry_equiv_pos_as_xyz
  1  'x, y, z'
loop_
 _atom_site_type_symbol
 _atom_site_label
 _atom_site_symmetry_multiplicity
 _atom_site_fract_x
 _atom_site_fract_y
 _atom_site_fract_z
 _atom_site_occupancy
  Li  Li0  1  0.50000000  0.00000000  0.50000000  1
  Li  Li1  1  0.50000000  0.50000000  0.00000000  1
  Au  Au0  1  0.00000000  0.00000000  0.00000000  1
  Au  Au1  1  0.00000000  0.50000000  0.50000000  1
  I  I0  1  0.34976673  0.52531064  0.68013316  1
  I  I1  1  0.65023327  0.02531064  0.81986684  1
  I  I2  1  0.65023327  0.47468936  0.31986684  1
  I  I3  1  0.34976673  0.97468936  0.18013316  1
  I  I4  1  0.18691423  0.98737162  0.84488324  1
  I  I5  1  0.81308577  0.48737162  0.65511676  1
  I  I6  1  0.81308577  0.01262838  0.15511676  1
  I  I7  1  0.18691423  0.51262838  0.34488324  1
  O  O0  1  0.18195693  0.70668808  0.56774301  1
  O  O1  1  0.81804307  0.20668808  0.93225699  1
  O  O2  1  0.81804307  0.29331192  0.43225699  1
  O  O3  1  0.18195693  0.79331192  0.06774301  1
  O  O4  1  0.36377806  0.71599293  0.82191332  1
  O  O5  1  0.63622194  0.21599293  0.67808668  1
  O  O6  1  0.63622194  0.28400707  0.17808668  1
  O  O7  1  0.36377806  0.78400707  0.32191332  1
  O  O8  1  0.44578331  0.81067158  0.64420723  1
  O  O9  1  0.55421669  0.31067158  0.85579277  1
  O  O10  1  0.55421669  0.18932842  0.35579277  1
  O  O11  1  0.44578331  0.68932842  0.14420723  1
  O  O12  1  0.16921395  0.22646116  0.71827307  1
  O  O13  1  0.83078605  0.72646116  0.78172693  1
  O  O14  1  0.83078605  0.77353884  0.28172693  1
  O  O15  1  0.16921395  0.27353884  0.21827307  1
  O  O16  1  0.32969102  0.16664279  0.97052575  1
  O  O17  1  0.67030898  0.66664279  0.52947425  1
  O  O18  1  0.67030898  0.83335721  0.02947425  1
  O  O19  1  0.32969102  0.33335721  0.47052575  1
  O  O20  1  0.04812782  0.19819274  0.87207398  1
  O  O21  1  0.95187218  0.69819274  0.62792602  1
  O  O22  1  0.95187218  0.80180726  0.12792602  1
  O  O23  1  0.04812782  0.30180726  0.37207398  1
loop_
_geom_bond_atom_site_label_1
_geom_bond_atom_site_label_2
_geom_bond_distance
_geom_bond_site_symmetry_2
Li0 O8 2.203229 1_545
Li0 O10 2.203229 1_555
Li0 O5 2.208818 1_555
Li0 O7 2.208818 1_545
Li0 O17 2.284779 1_545
Li0 O19 2.284779 1_555
Li1 O11 2.203229 1_555
Li1 O9 2.203229 1_554
Li1 O6 2.208818 1_555
Li1 O4 2.208818 1_554
Li1 O18 2.284779 1_555
Li1 O16 2.284779 1_554
Au0 O3 2.006295 1_545
Au0 O1 2.006295 1_454
Au0 O20 2.011321 1_554
Au0 O22 2.011321 1_445
Au1 O0 2.006295 1_555
Au1 O2 2.006295 1_455
Au1 O21 2.011321 1_455
Au1 O23 2.011321 1_555
I0 O8 1.815523 1_555
I0 O4 1.832651 1_555
I0 O0 1.910225 1_555
I0 O9 2.485919 1_555
I0 O19 2.547147 1_555
I0 O12 2.569298 1_555
I1 O9 1.815523 1_555
I1 O5 1.832651 1_555
I1 O1 1.910225 1_555
I1 O8 2.485919 1_545
I1 O18 2.547147 1_546
I1 O13 2.569298 1_545
I2 O10 1.815523 1_555
I2 O6 1.832651 1_555
I2 O2 1.910225 1_555
I2 O11 2.485919 1_555
I2 O17 2.547147 1_555
I2 O14 2.569298 1_555
I3 O11 1.815523 1_555
I3 O7 1.832651 1_555
I3 O3 1.910225 1_555
I3 O10 2.485919 1_565
I3 O16 2.547147 1_564
I3 O15 2.569298 1_565
I4 O12 1.787532 1_565
I4 O16 1.807311 1_565
I4 O20 1.918858 1_565
I4 O4 2.384514 1_555
I5 O13 1.787532 1_555
I5 O17 1.807311 1_555
I5 O21 1.918858 1_555
I5 O5 2.384514 1_555
I6 O14 1.787532 1_545
I6 O18 1.807311 1_545
I6 O22 1.918858 1_545
I6 O6 2.384514 1_555
I7 O15 1.787532 1_555
I7 O19 1.807311 1_555
I7 O23 1.918858 1_555
I7 O7 2.384514 1_555
