# generated using pymatgen
data_MgTaOsF12
_symmetry_space_group_name_H-M   'P 1'
_cell_length_a   5.38197718
_cell_length_b   10.84047425
_cell_length_c   5.42211496
_cell_angle_alpha   55.27934393
_cell_angle_beta   55.72859482
_cell_angle_gamma   56.37015357
_symmetry_Int_Tables_number   1
_chemical_formula_structural   MgTaOsF12
_chemical_formula_sum   'Mg1 Ta1 Os1 F12'
_cell_volume   201.82295775
_cell_formula_units_Z   1
loop_
 _symmetry_equiv_pos_site_id
 _symmetry_equiv_pos_as_xyz
  1  'x, y, z'
loop_
 _atom_site_type_symbol
 _atom_site_label
 _atom_site_symmetry_multiplicity
 _atom_site_fract_x
 _atom_site_fract_y
 _atom_site_fract_z
 _atom_site_occupancy
  Mg  Mg0  1  0.50382096  0.75120885  0.49461754  1
  Ta  Ta0  1  0.98961266  0.48295915  0.03276440  1
  Os  Os0  1  0.01599031  0.00763779  0.97420883  1
  F  F0  1  0.39456166  0.05033321  0.74533841  1
  F  F1  1  0.34190398  0.56942321  0.76189671  1
  F  F2  1  0.07475279  0.38245786  0.40436710  1
  F  F3  1  0.12695562  0.87991368  0.35877087  1
  F  F4  1  0.24335723  0.30794951  0.91390248  1
  F  F5  1  0.24919986  0.81569040  0.87341208  1
  F  F6  1  0.91608095  0.11865478  0.60734928  1
  F  F7  1  0.86699260  0.62334391  0.64637874  1
  F  F8  1  0.59997359  0.45273706  0.24066171  1
  F  F9  1  0.64165867  0.94129642  0.23095665  1
  F  F10  1  0.78214609  0.18565355  0.08401271  1
  F  F11  1  0.75299302  0.68074162  0.13136451  1
loop_
_geom_bond_atom_site_label_1
_geom_bond_atom_site_label_2
_geom_bond_distance
_geom_bond_site_symmetry_2
F0 Os0 1.856915 1_555
F1 Ta0 1.973484 1_456
F1 Mg0 1.992388 1_555
F2 Ta0 1.855493 1_455
F3 Os0 1.954304 1_564
F3 Mg0 1.995104 1_555
F4 Ta0 1.847020 1_456
F5 Os0 1.958027 1_565
F5 Mg0 1.997373 1_555
F6 Os0 1.858769 1_655
F7 Mg0 1.982412 1_555
F7 Ta0 1.988310 1_556
F8 Ta0 1.858384 1_555
F9 Os0 1.954408 1_664
F9 Mg0 1.995827 1_555
F10 Os0 1.853967 1_654
F11 Mg0 1.966157 1_555
F11 Ta0 2.004793 1_555
