# generated using pymatgen
data_Ti6P2CO
_symmetry_space_group_name_H-M   'P 1'
_cell_length_a   5.33164013
_cell_length_b   5.33164300
_cell_length_c   7.83686005
_cell_angle_alpha   89.70111273
_cell_angle_beta   90.29888870
_cell_angle_gamma   144.85722109
_symmetry_Int_Tables_number   1
_chemical_formula_structural   Ti6P2CO
_chemical_formula_sum   'Ti6 P2 C1 O1'
_cell_volume   128.23019349
_cell_formula_units_Z   1
loop_
 _symmetry_equiv_pos_site_id
 _symmetry_equiv_pos_as_xyz
  1  'x, y, z'
loop_
 _atom_site_type_symbol
 _atom_site_label
 _atom_site_symmetry_multiplicity
 _atom_site_fract_x
 _atom_site_fract_y
 _atom_site_fract_z
 _atom_site_occupancy
  Ti  Ti0  1  0.64009710  0.35990390  0.05442095  1
  Ti  Ti1  1  0.93926340  0.06073760  0.24899616  1
  Ti  Ti2  1  0.63401624  0.36598476  0.44318808  1
  Ti  Ti3  1  0.36598476  0.63401624  0.55681092  1
  Ti  Ti4  1  0.06073760  0.93926340  0.75100384  1
  Ti  Ti5  1  0.35990390  0.64009710  0.94557905  1
  P  P0  1  0.25565550  0.74434550  0.24908984  1
  P  P1  1  0.74434550  0.25565550  0.75091016  1
  C  C0  1  0.00000000  0.00000000  0.49999900  1
  O  O0  1  0.00000000  0.00000000  0.00000000  1
loop_
_geom_bond_atom_site_label_1
_geom_bond_atom_site_label_2
_geom_bond_distance
_geom_bond_site_symmetry_2
P0 Ti1 2.464682 1_565
P0 Ti1 2.464684 1_455
P0 Ti0 2.505715 1_455
P0 Ti0 2.505716 1_565
P0 Ti2 2.540519 1_455
P0 Ti2 2.540520 1_565
P0 Ti5 2.609270 1_554
P0 Ti3 2.654053 1_555
P1 Ti4 2.464682 1_545
P1 Ti4 2.464684 1_655
P1 Ti5 2.505715 1_655
P1 Ti5 2.505716 1_545
P1 Ti3 2.540524 1_655
P1 Ti3 2.540525 1_545
P1 Ti0 2.609270 1_556
P1 Ti2 2.654060 1_555
C0 Ti1 2.058475 1_455
C0 Ti4 2.058490 1_545
C0 Ti3 2.156778 1_445
C0 Ti2 2.156778 1_445
C0 Ti2 2.156778 1_555
C0 Ti3 2.156782 1_555
O0 Ti4 2.049921 1_544
O0 Ti1 2.049921 1_455
O0 Ti5 2.189595 1_444
O0 Ti0 2.189597 1_445
O0 Ti0 2.189597 1_555
O0 Ti5 2.189599 1_554
