# generated using pymatgen
data_TiCdBiSbO7
_symmetry_space_group_name_H-M   'P 1'
_cell_length_a   7.29212868
_cell_length_b   7.29212920
_cell_length_c   7.29212907
_cell_angle_alpha   120.77676570
_cell_angle_beta   119.09167871
_cell_angle_gamma   90.12015884
_symmetry_Int_Tables_number   1
_chemical_formula_structural   TiCdBiSbO7
_chemical_formula_sum   'Ti2 Cd2 Bi2 Sb2 O14'
_cell_volume   274.38567084
_cell_formula_units_Z   2
loop_
 _symmetry_equiv_pos_site_id
 _symmetry_equiv_pos_as_xyz
  1  'x, y, z'
loop_
 _atom_site_type_symbol
 _atom_site_label
 _atom_site_symmetry_multiplicity
 _atom_site_fract_x
 _atom_site_fract_y
 _atom_site_fract_z
 _atom_site_occupancy
  Ti  Ti0  1  0.50000000  0.50000000  0.50000000  1
  Ti  Ti1  1  0.50000000  0.00000000  0.00000000  1
  Cd  Cd0  1  0.00000000  0.00000000  0.50000000  1
  Cd  Cd1  1  0.00000000  0.50000000  0.00000000  1
  Bi  Bi0  1  0.00000000  0.00000000  0.00000000  1
  Bi  Bi1  1  0.50000000  0.00000000  0.50000000  1
  Sb  Sb0  1  0.50000000  0.50000000  0.00000000  1
  Sb  Sb1  1  0.00000000  0.50000000  0.50000000  1
  O  O0  1  0.11778694  0.86778694  0.25000000  1
  O  O1  1  0.88221306  0.13221306  0.75000000  1
  O  O2  1  0.42888724  0.17888724  0.25000000  1
  O  O3  1  0.82545090  0.57545090  0.25000000  1
  O  O4  1  0.43297279  0.57739017  0.25687099  1
  O  O5  1  0.82051917  0.17610080  0.24312901  1
  O  O6  1  0.43297279  0.17610080  0.85558262  1
  O  O7  1  0.82051917  0.57739017  0.64441738  1
  O  O8  1  0.57111276  0.82111276  0.75000000  1
  O  O9  1  0.17454910  0.42454910  0.75000000  1
  O  O10  1  0.56702721  0.42260983  0.74312901  1
  O  O11  1  0.17948083  0.82389920  0.75687099  1
  O  O12  1  0.56702721  0.82389920  0.14441738  1
  O  O13  1  0.17948083  0.42260983  0.35558262  1
loop_
_geom_bond_atom_site_label_1
_geom_bond_atom_site_label_2
_geom_bond_distance
_geom_bond_site_symmetry_2
Cd0 O0 2.172119 1_545
Cd0 O1 2.172119 1_455
Cd0 O3 2.545414 1_445
Cd0 O9 2.545414 1_555
Cd0 O11 2.637308 1_545
Cd0 O5 2.637308 1_455
Cd0 O6 2.637314 1_555
Cd0 O12 2.637314 1_445
Cd1 O0 2.172118 1_555
Cd1 O1 2.172118 1_454
Cd1 O9 2.545415 1_554
Cd1 O3 2.545415 1_455
Cd1 O4 2.637314 1_555
Cd1 O10 2.637314 1_454
Cd1 O13 2.637314 1_555
Cd1 O7 2.637314 1_454
Bi0 O0 2.295703 1_545
Bi0 O1 2.295703 1_454
Bi0 O5 2.537471 1_455
Bi0 O11 2.537471 1_544
Bi0 O13 2.537472 1_555
Bi0 O7 2.537472 1_444
Bi0 O2 2.609838 1_555
Bi0 O8 2.609838 1_444
Bi1 O1 2.295703 1_555
Bi1 O0 2.295703 1_545
Bi1 O10 2.537472 1_555
Bi1 O4 2.537472 1_545
Bi1 O6 2.537472 1_555
Bi1 O12 2.537472 1_545
Bi1 O2 2.609839 1_555
Bi1 O8 2.609839 1_545
O2 Ti0 1.944840 1_555
O2 Ti1 1.944840 1_555
O3 Sb0 2.004815 1_555
O3 Sb1 2.004815 1_655
O4 Sb0 1.968666 1_555
O4 Ti0 1.970555 1_555
O5 Sb1 1.968671 1_655
O5 Ti1 1.970553 1_555
O6 Sb0 1.968673 1_556
O6 Ti1 1.970548 1_556
O7 Sb1 1.968666 1_655
O7 Ti0 1.970555 1_555
O8 Ti0 1.944840 1_555
O8 Ti1 1.944840 1_566
O9 Sb0 2.004815 1_556
O9 Sb1 2.004815 1_555
O10 Sb0 1.968666 1_556
O10 Ti0 1.970555 1_555
O11 Sb1 1.968671 1_555
O11 Ti1 1.970553 1_566
O12 Sb0 1.968673 1_555
O12 Ti1 1.970548 1_565
O13 Sb1 1.968666 1_555
O13 Ti0 1.970555 1_555
