# generated using pymatgen
data_Ba5Nb4O15
_symmetry_space_group_name_H-M   'P 1'
_cell_length_a   5.85323813
_cell_length_b   5.85323716
_cell_length_c   11.91281149
_cell_angle_alpha   90.00000754
_cell_angle_beta   89.99998039
_cell_angle_gamma   119.99997496
_symmetry_Int_Tables_number   1
_chemical_formula_structural   Ba5Nb4O15
_chemical_formula_sum   'Ba5 Nb4 O15'
_cell_volume   353.45760053
_cell_formula_units_Z   1
loop_
 _symmetry_equiv_pos_site_id
 _symmetry_equiv_pos_as_xyz
  1  'x, y, z'
loop_
 _atom_site_type_symbol
 _atom_site_label
 _atom_site_symmetry_multiplicity
 _atom_site_fract_x
 _atom_site_fract_y
 _atom_site_fract_z
 _atom_site_occupancy
  Ba  Ba0  1  0.66666655  0.33333339  0.57097197  1
  Ba  Ba1  1  0.33333358  0.66666643  0.42902799  1
  Ba  Ba2  1  0.66666696  0.33333319  0.20864734  1
  Ba  Ba3  1  0.33333320  0.66666681  0.79135268  1
  Ba  Ba4  1  0.00000017  -0.00000008  -0.00000002  1
  Nb  Nb0  1  0.66666682  0.33333348  0.89490038  1
  Nb  Nb1  1  0.33333400  0.66666677  0.10509957  1
  Nb  Nb2  1  0.00000040  -0.00000007  0.31712824  1
  Nb  Nb3  1  -0.00000042  -0.00000009  0.68287166  1
  O  O0  1  0.83580160  0.16419795  0.38777627  1
  O  O1  1  0.83580184  0.67160307  0.38777618  1
  O  O2  1  0.32839817  0.16419884  0.38777651  1
  O  O3  1  0.67160213  0.83580166  0.61222363  1
  O  O4  1  0.16419839  0.32839762  0.61222365  1
  O  O5  1  0.16419772  0.83580180  0.61222345  1
  O  O6  1  0.83096353  0.16903629  0.80786145  1
  O  O7  1  0.83096362  0.66192688  0.80786129  1
  O  O8  1  0.33807315  0.16903680  0.80786126  1
  O  O9  1  0.49999995  -0.00000010  -0.00000002  1
  O  O10  1  -0.00000015  0.49999989  -0.00000004  1
  O  O11  1  0.49999992  0.49999997  -0.00000006  1
  O  O12  1  0.16903625  0.83096329  0.19213850  1
  O  O13  1  0.16903671  0.33807281  0.19213855  1
  O  O14  1  0.66192692  0.83096340  0.19213857  1
loop_
_geom_bond_atom_site_label_1
_geom_bond_atom_site_label_2
_geom_bond_distance
_geom_bond_site_symmetry_2
Ba0 O2 2.775419 1_555
Ba0 O1 2.775426 1_555
Ba0 O0 2.775427 1_555
Ba0 O3 2.967693 1_545
Ba0 O4 2.967695 1_655
Ba0 O5 2.967696 1_655
Ba0 O4 2.967698 1_555
Ba0 O5 2.967698 1_545
Ba0 O3 2.967699 1_555
Ba0 O8 3.276919 1_555
Ba0 O7 3.276919 1_555
Ba0 O6 3.276923 1_555
Ba1 O3 2.775422 1_555
Ba1 O4 2.775422 1_555
Ba1 O5 2.775427 1_555
Ba1 O2 2.967695 1_555
Ba1 O0 2.967696 1_565
Ba1 O1 2.967696 1_555
Ba1 O2 2.967696 1_565
Ba1 O1 2.967697 1_455
Ba1 O0 2.967699 1_455
Ba1 O14 3.276920 1_555
Ba1 O13 3.276921 1_555
Ba1 O12 3.276923 1_555
Ba2 O2 2.737493 1_555
Ba2 O1 2.737494 1_555
Ba2 O0 2.737495 1_555
Ba2 O14 2.933316 1_545
Ba2 O12 2.933317 1_655
Ba2 O13 2.933317 1_655
Ba2 O13 2.933318 1_555
Ba2 O14 2.933319 1_555
Ba2 O12 2.933321 1_545
Ba2 O10 3.005514 1_655
Ba2 O9 3.005516 1_555
Ba2 O11 3.005518 1_555
Ba3 O3 2.737493 1_555
Ba3 O4 2.737494 1_555
Ba3 O5 2.737499 1_555
Ba3 O7 2.933315 1_455
Ba3 O8 2.933317 1_555
Ba3 O8 2.933317 1_565
Ba3 O6 2.933318 1_565
Ba3 O6 2.933319 1_455
Ba3 O7 2.933320 1_555
Ba3 O9 3.005515 1_566
Ba3 O10 3.005515 1_556
Ba3 O11 3.005516 1_556
Ba4 O12 2.859354 1_545
Ba4 O6 2.859355 1_454
Ba4 O13 2.859355 1_555
Ba4 O14 2.859356 1_445
Ba4 O8 2.859357 1_554
Ba4 O7 2.859357 1_444
Ba4 O10 2.926618 1_545
Ba4 O9 2.926618 1_555
Ba4 O10 2.926619 1_555
Ba4 O11 2.926619 1_555
Ba4 O9 2.926620 1_455
Ba4 O11 2.926621 1_445
Nb0 O7 1.962023 1_555
Nb0 O6 1.962024 1_555
Nb0 O8 1.962025 1_555
Nb0 O10 2.103001 1_656
Nb0 O11 2.103001 1_556
Nb0 O9 2.103003 1_556
Nb1 O14 1.962021 1_555
Nb1 O13 1.962025 1_555
Nb1 O12 1.962025 1_555
Nb1 O11 2.102999 1_555
Nb1 O9 2.103001 1_565
Nb1 O10 2.103006 1_555
Nb2 O0 1.865318 1_455
Nb2 O1 1.865319 1_445
Nb2 O2 1.865325 1_555
Nb2 O12 2.270209 1_545
Nb2 O13 2.270211 1_555
Nb2 O14 2.270214 1_445
Nb3 O5 1.865317 1_545
Nb3 O3 1.865322 1_445
Nb3 O4 1.865323 1_555
Nb3 O6 2.270209 1_455
Nb3 O7 2.270211 1_445
Nb3 O8 2.270213 1_555
