# generated using pymatgen
data_LiAgPPt3
_symmetry_space_group_name_H-M   'P 1'
_cell_length_a   7.18173299
_cell_length_b   7.18173299
_cell_length_c   7.18173299
_cell_angle_alpha   90.04465221
_cell_angle_beta   90.04465221
_cell_angle_gamma   90.04465221
_symmetry_Int_Tables_number   1
_chemical_formula_structural   LiAgPPt3
_chemical_formula_sum   'Li4 Ag4 P4 Pt12'
_cell_volume   370.41397901
_cell_formula_units_Z   4
loop_
 _symmetry_equiv_pos_site_id
 _symmetry_equiv_pos_as_xyz
  1  'x, y, z'
loop_
 _atom_site_type_symbol
 _atom_site_label
 _atom_site_symmetry_multiplicity
 _atom_site_fract_x
 _atom_site_fract_y
 _atom_site_fract_z
 _atom_site_occupancy
  Li  Li0  1  0.20618585  0.70711271  0.79406524  1
  Li  Li1  1  0.95648373  0.95648373  0.95648373  1
  Li  Li2  1  0.79406524  0.20618585  0.70711271  1
  Li  Li3  1  0.70711271  0.79406524  0.20618585  1
  Ag  Ag0  1  0.29252685  0.29252685  0.29252685  1
  Ag  Ag1  1  0.04235865  0.45937180  0.54901226  1
  Ag  Ag2  1  0.54901226  0.04235865  0.45937180  1
  Ag  Ag3  1  0.45937180  0.54901226  0.04235865  1
  P  P0  1  0.87170721  0.37115720  0.11760831  1
  P  P1  1  0.37115720  0.11760831  0.87170721  1
  P  P2  1  0.62575844  0.62575844  0.62575844  1
  P  P3  1  0.11760831  0.87170721  0.37115720  1
  Pt  Pt0  1  0.17280526  0.07318570  0.62320116  1
  Pt  Pt1  1  0.42628203  0.37644759  0.67918995  1
  Pt  Pt2  1  0.07318570  0.62320116  0.17280526  1
  Pt  Pt3  1  0.92255368  0.12457816  0.32362121  1
  Pt  Pt4  1  0.32362121  0.92255368  0.12457816  1
  Pt  Pt5  1  0.67918995  0.42628203  0.37644759  1
  Pt  Pt6  1  0.58064794  0.87686002  0.82727508  1
  Pt  Pt7  1  0.62320116  0.17280526  0.07318570  1
  Pt  Pt8  1  0.37644759  0.67918995  0.42628203  1
  Pt  Pt9  1  0.87686002  0.82727508  0.58064794  1
  Pt  Pt10  1  0.12457816  0.32362121  0.92255368  1
  Pt  Pt11  1  0.82727508  0.58064794  0.87686002  1
loop_
_geom_bond_atom_site_label_1
_geom_bond_atom_site_label_2
_geom_bond_distance
_geom_bond_site_symmetry_2
Li0 Li1 2.790858 1_455
Li0 Pt0 2.912154 1_565
Li0 Pt8 2.918314 1_555
Li0 Pt11 2.929691 1_455
Li0 Pt2 2.946129 1_556
Li0 Pt9 2.947430 1_455
Li0 Pt4 2.954423 1_556
Li0 Pt6 2.961206 1_555
Li0 Pt10 2.963535 1_555
Li0 Pt1 2.970423 1_555
Li1 Li3 2.790858 1_556
Li1 Li2 2.790858 1_565
Li1 Pt10 2.909524 1_665
Li1 Pt3 2.909524 1_566
Li1 Pt4 2.909524 1_656
Li1 Pt11 2.909701 1_555
Li1 Pt9 2.909701 1_555
Li1 Pt6 2.909701 1_555
Li1 Pt7 2.975225 1_566
Li1 Pt2 2.975225 1_656
Li1 Pt0 2.975225 1_665
Li2 Pt7 2.912154 1_556
Li2 Pt1 2.918314 1_555
Li2 Pt9 2.929691 1_545
Li2 Pt0 2.946129 1_655
Li2 Pt6 2.947430 1_545
Li2 Pt10 2.954423 1_655
Li2 Pt11 2.961206 1_555
Li2 Pt3 2.963535 1_555
Li2 Pt5 2.970423 1_555
Li3 Pt2 2.912154 1_655
Li3 Pt5 2.918314 1_555
Li3 Pt6 2.929691 1_554
Li3 Pt7 2.946129 1_565
Li3 Pt11 2.947430 1_554
Li3 Pt3 2.954423 1_565
Li3 Pt9 2.961206 1_555
Li3 Pt4 2.963535 1_555
Li3 Pt8 2.970423 1_555
Ag0 Ag2 2.839324 1_555
Ag0 Ag3 2.839324 1_555
Ag0 Ag1 2.839324 1_555
Ag0 Pt4 2.925911 1_545
Ag0 Pt3 2.925911 1_455
Ag0 Pt10 2.925911 1_554
Ag0 Pt2 2.977806 1_555
Ag0 Pt7 2.977806 1_555
Ag0 Pt0 2.977806 1_555
Ag0 Pt8 2.998258 1_555
Ag0 Pt5 2.998258 1_555
Ag0 Pt1 2.998258 1_555
Ag1 Li0 2.763292 1_555
Ag1 Li2 2.788641 1_455
Ag1 Pt5 2.896293 1_455
Ag1 Pt9 2.906858 1_455
Ag1 Pt10 2.915200 1_555
Ag1 Pt11 2.948376 1_455
Ag1 Pt2 2.956122 1_555
Ag1 Pt1 2.971610 1_555
Ag1 Pt0 2.976463 1_555
Ag1 Pt8 3.004246 1_555
Ag1 Pt3 3.021615 1_455
Ag2 Li2 2.763292 1_555
Ag2 Li3 2.788641 1_545
Ag2 Pt8 2.896293 1_545
Ag2 Pt6 2.906858 1_545
Ag2 Pt3 2.915200 1_555
Ag2 Pt9 2.948376 1_545
Ag2 Pt0 2.956122 1_555
Ag2 Pt5 2.971610 1_555
Ag2 Pt7 2.976463 1_555
Ag2 Pt1 3.004246 1_555
Ag2 Pt4 3.021615 1_545
Ag3 Li3 2.763292 1_555
Ag3 Li0 2.788641 1_554
Ag3 Pt1 2.896293 1_554
Ag3 Pt11 2.906858 1_554
Ag3 Pt4 2.915200 1_555
Ag3 Pt6 2.948376 1_554
Ag3 Pt7 2.956122 1_555
Ag3 Pt8 2.971610 1_555
Ag3 Pt2 2.976463 1_555
Ag3 Pt5 3.004246 1_555
Ag3 Pt10 3.021615 1_554
P0 Pt7 2.304479 1_555
P0 Pt11 2.314890 1_554
P0 Pt10 2.319720 1_654
P0 Pt3 2.337213 1_555
P0 Pt2 2.349736 1_655
P0 Pt5 2.351087 1_555
P1 Pt0 2.304479 1_555
P1 Pt6 2.314890 1_545
P1 Pt4 2.319720 1_546
P1 Pt10 2.337213 1_555
P1 Pt7 2.349736 1_556
P1 Pt1 2.351087 1_555
P2 Pt5 2.324503 1_555
P2 Pt1 2.324503 1_555
P2 Pt8 2.324503 1_555
P2 Pt11 2.334327 1_555
P2 Pt9 2.334327 1_555
P2 Pt6 2.334327 1_555
P3 Pt2 2.304479 1_555
P3 Pt9 2.314890 1_455
P3 Pt3 2.319720 1_465
P3 Pt4 2.337213 1_555
P3 Pt0 2.349736 1_565
P3 Pt8 2.351087 1_555
Pt0 Pt9 2.778848 1_445
Pt0 Pt10 2.823620 1_555
Pt0 Pt3 2.826925 1_455
Pt0 Pt1 2.865364 1_555
Pt1 Pt10 2.810540 1_555
Pt1 Pt8 2.856688 1_555
Pt1 Pt5 2.856688 1_555
Pt2 Pt4 2.823620 1_555
Pt2 Pt8 2.865364 1_555
Pt3 Pt5 2.810540 1_555
Pt3 Pt7 2.823620 1_555
Pt3 Pt9 2.842515 1_545
Pt4 Pt8 2.810540 1_555
Pt4 Pt7 2.826925 1_565
Pt4 Pt6 2.842515 1_554
Pt5 Pt8 2.856688 1_555
Pt5 Pt7 2.865364 1_555
Pt6 Pt7 2.778848 1_566
Pt6 Pt9 2.792050 1_555
Pt10 Pt2 2.826925 1_556
Pt10 Pt11 2.842515 1_455
Pt11 Pt2 2.778848 1_656
Pt11 Pt9 2.792050 1_555
Pt11 Pt6 2.792050 1_555
