# generated using pymatgen
data_Ca5Si3H
_symmetry_space_group_name_H-M   'P 1'
_cell_length_a   9.06718082
_cell_length_b   9.06718073
_cell_length_c   9.06718013
_cell_angle_alpha   130.12094584
_cell_angle_beta   130.12094838
_cell_angle_gamma   73.21348788
_symmetry_Int_Tables_number   1
_chemical_formula_structural   Ca5Si3H
_chemical_formula_sum   'Ca10 Si6 H2'
_cell_volume   425.58217883
_cell_formula_units_Z   2
loop_
 _symmetry_equiv_pos_site_id
 _symmetry_equiv_pos_as_xyz
  1  'x, y, z'
loop_
 _atom_site_type_symbol
 _atom_site_label
 _atom_site_symmetry_multiplicity
 _atom_site_fract_x
 _atom_site_fract_y
 _atom_site_fract_z
 _atom_site_occupancy
  Ca  Ca0  1  0.50000000  0.50000000  0.00000000  1
  Ca  Ca1  1  0.00000000  0.00000000  0.00000000  1
  Ca  Ca2  1  0.51845612  0.01845612  0.83643148  1
  Ca  Ca3  1  0.18202465  0.68202465  0.16356852  1
  Ca  Ca4  1  0.01845612  0.18202465  0.50000000  1
  Ca  Ca5  1  0.68202465  0.51845612  0.50000000  1
  Ca  Ca6  1  0.48154388  0.98154388  0.16356852  1
  Ca  Ca7  1  0.81797535  0.31797535  0.83643148  1
  Ca  Ca8  1  0.98154388  0.81797535  0.50000000  1
  Ca  Ca9  1  0.31797535  0.48154388  0.50000000  1
  Si  Si0  1  0.25000000  0.25000000  0.00000000  1
  Si  Si1  1  0.75000000  0.75000000  0.00000000  1
  Si  Si2  1  0.88972403  0.38972403  0.27944805  1
  Si  Si3  1  0.11027597  0.61027597  0.72055195  1
  Si  Si4  1  0.38972403  0.11027597  0.50000000  1
  Si  Si5  1  0.61027597  0.88972403  0.50000000  1
  H  H0  1  0.25000000  0.75000000  0.50000000  1
  H  H1  1  0.75000000  0.25000000  0.50000000  1
loop_
_geom_bond_atom_site_label_1
_geom_bond_atom_site_label_2
_geom_bond_distance
_geom_bond_site_symmetry_2
Ca0 Si5 3.097052 1_555
Ca0 Si4 3.097052 1_554
Ca0 Si2 3.097052 1_555
Ca0 Si3 3.097052 1_554
Ca1 Si4 3.097052 1_555
Ca1 Si5 3.097052 1_444
Ca1 Si2 3.097052 1_455
Ca1 Si3 3.097052 1_544
Ca2 H0 2.332026 1_545
Ca2 Si4 3.079593 1_555
Ca2 Si5 3.079593 1_545
Ca2 Si1 3.196914 1_546
Ca2 Si0 3.196914 1_556
Ca2 Si2 3.238917 1_556
Ca3 H0 2.332026 1_555
Ca3 Si5 3.079593 1_555
Ca3 Si4 3.079593 1_565
Ca3 Si1 3.196914 1_455
Ca3 Si0 3.196914 1_555
Ca3 Si3 3.238917 1_554
Ca4 H1 2.332026 1_455
Ca4 Si2 3.079593 1_455
Ca4 Si3 3.079593 1_555
Ca4 Si0 3.196914 1_556
Ca4 Si1 3.196914 1_445
Ca4 Si4 3.238917 1_555
Ca5 H1 2.332026 1_555
Ca5 Si2 3.079593 1_555
Ca5 Si3 3.079593 1_655
Ca5 Si1 3.196914 1_556
Ca5 Si0 3.196914 1_555
Ca5 Si5 3.238917 1_555
Ca6 H1 2.332026 1_565
Ca6 Si5 3.079593 1_555
Ca6 Si4 3.079593 1_565
Ca6 Si0 3.196914 1_565
Ca6 Si1 3.196914 1_555
Ca6 Si3 3.238917 1_554
Ca7 H1 2.332026 1_555
Ca7 Si4 3.079593 1_555
Ca7 Si5 3.079593 1_545
Ca7 Si0 3.196914 1_656
Ca7 Si1 3.196914 1_556
Ca7 Si2 3.238917 1_556
Ca8 H0 2.332026 1_655
Ca8 Si3 3.079593 1_655
Ca8 Si2 3.079593 1_555
Ca8 Si1 3.196914 1_555
Ca8 Si0 3.196914 1_666
Ca8 Si5 3.238917 1_555
Ca9 H0 2.332026 1_555
Ca9 Si3 3.079593 1_555
Ca9 Si2 3.079593 1_455
Ca9 Si0 3.196914 1_555
Ca9 Si1 3.196914 1_556
Ca9 Si4 3.238917 1_555
Si2 Si3 2.385020 1_655
Si4 Si5 2.385020 1_545
