# generated using pymatgen
data_CoTcB2W
_symmetry_space_group_name_H-M   'P 1'
_cell_length_a   4.47806783
_cell_length_b   4.47806903
_cell_length_c   4.47806805
_cell_angle_alpha   139.24000301
_cell_angle_beta   119.63337487
_cell_angle_gamma   75.41006917
_symmetry_Int_Tables_number   1
_chemical_formula_structural   CoTcB2W
_chemical_formula_sum   'Co1 Tc1 B2 W1'
_cell_volume   49.75701411
_cell_formula_units_Z   1
loop_
 _symmetry_equiv_pos_site_id
 _symmetry_equiv_pos_as_xyz
  1  'x, y, z'
loop_
 _atom_site_type_symbol
 _atom_site_label
 _atom_site_symmetry_multiplicity
 _atom_site_fract_x
 _atom_site_fract_y
 _atom_site_fract_z
 _atom_site_occupancy
  Co  Co0  1  0.99918678  0.99918678  0.00000000  1
  Tc  Tc0  1  0.69802822  0.19802822  0.50000000  1
  B  B0  1  0.70731069  0.50154738  0.20576431  1
  B  B1  1  0.29578307  0.50154738  0.79423569  1
  W  W0  1  0.29969124  0.79969124  0.50000000  1
loop_
_geom_bond_atom_site_label_1
_geom_bond_atom_site_label_2
_geom_bond_distance
_geom_bond_site_symmetry_2
Co0 W0 2.639307 1_654
Co0 W0 2.639307 1_665
Co0 Tc0 2.643047 1_565
Co0 Tc0 2.643048 1_554
Co0 Tc0 2.655954 1_665
Co0 Tc0 2.655955 1_564
Co0 W0 2.658416 1_554
Co0 W0 2.658416 1_655
Tc0 W0 2.822546 1_545
Tc0 W0 2.831924 1_544
Tc0 W0 2.831924 1_656
Tc0 W0 2.831924 1_645
Tc0 W0 2.831925 1_555
B0 B1 1.853054 1_554
B0 Co0 2.046356 1_556
B0 Co0 2.046359 1_545
B0 Tc0 2.286632 1_565
B0 Tc0 2.286634 1_554
B0 W0 2.310015 1_555
B0 W0 2.310017 1_544
B0 W0 2.493681 1_655
B0 Tc0 2.526024 1_555
B1 Co0 2.046356 1_445
B1 Co0 2.046357 1_456
B1 Tc0 2.286631 1_555
B1 Tc0 2.286632 1_566
B1 W0 2.310019 1_556
B1 W0 2.310020 1_545
B1 W0 2.493677 1_555
B1 Tc0 2.526026 1_455
