# generated using pymatgen
data_Cd2Ni3RhO8
_symmetry_space_group_name_H-M   'P 1'
_cell_length_a   5.99854548
_cell_length_b   5.99854534
_cell_length_c   6.14308105
_cell_angle_alpha   60.77530103
_cell_angle_beta   60.77530234
_cell_angle_gamma   60.00000441
_symmetry_Int_Tables_number   1
_chemical_formula_structural   Cd2Ni3RhO8
_chemical_formula_sum   'Cd2 Ni3 Rh1 O8'
_cell_volume   158.10818018
_cell_formula_units_Z   1
loop_
 _symmetry_equiv_pos_site_id
 _symmetry_equiv_pos_as_xyz
  1  'x, y, z'
loop_
 _atom_site_type_symbol
 _atom_site_label
 _atom_site_symmetry_multiplicity
 _atom_site_fract_x
 _atom_site_fract_y
 _atom_site_fract_z
 _atom_site_occupancy
  Cd  Cd0  1  0.25889545  0.25889545  0.22331266  1
  Cd  Cd1  1  0.99110455  0.99110455  0.02668734  1
  Ni  Ni0  1  0.62500000  0.12500000  0.62500000  1
  Ni  Ni1  1  0.12500000  0.62500000  0.62500000  1
  Ni  Ni2  1  0.62500000  0.62500000  0.62500000  1
  Rh  Rh0  1  0.62500000  0.62500000  0.12500000  1
  O  O0  1  0.84878706  0.84878706  0.45363881  1
  O  O1  1  0.85589790  0.42650291  0.86170229  1
  O  O2  1  0.42650291  0.85589790  0.86170229  1
  O  O3  1  0.85589790  0.85589790  0.86170229  1
  O  O4  1  0.40121294  0.40121294  0.79636119  1
  O  O5  1  0.39410210  0.82349709  0.38829771  1
  O  O6  1  0.82349709  0.39410210  0.38829771  1
  O  O7  1  0.39410210  0.39410210  0.38829771  1
loop_
_geom_bond_atom_site_label_1
_geom_bond_atom_site_label_2
_geom_bond_distance
_geom_bond_site_symmetry_2
Cd0 O7 2.146141 1_555
Cd0 O5 2.146141 1_545
Cd0 O6 2.146141 1_455
Cd0 O4 2.166259 1_554
Cd1 O3 2.146141 1_554
Cd1 O1 2.146141 1_564
Cd1 O2 2.146141 1_654
Cd1 O0 2.166259 1_555
Ni0 O4 1.937650 1_555
Ni0 O0 1.937650 1_545
Ni0 O6 2.019219 1_555
Ni0 O2 2.019219 1_545
Ni0 O3 2.019223 1_545
Ni0 O7 2.019223 1_555
Ni1 O4 1.937650 1_555
Ni1 O0 1.937650 1_455
Ni1 O5 2.019219 1_555
Ni1 O1 2.019219 1_455
Ni1 O3 2.019223 1_455
Ni1 O7 2.019223 1_555
Ni2 O0 1.937650 1_555
Ni2 O4 1.937650 1_555
Ni2 O1 2.019223 1_555
Ni2 O5 2.019223 1_555
Ni2 O2 2.019223 1_555
Ni2 O6 2.019223 1_555
O1 Rh0 1.999038 1_556
O2 Rh0 1.999038 1_556
O3 Rh0 1.999042 1_556
O5 Rh0 1.999038 1_555
O6 Rh0 1.999038 1_555
O7 Rh0 1.999042 1_555
