# generated using pymatgen
data_Cs6InTe4F
_symmetry_space_group_name_H-M   'P 1'
_cell_length_a   12.14550784
_cell_length_b   12.14550707
_cell_length_c   8.52946909
_cell_angle_alpha   90.00000000
_cell_angle_beta   90.00000000
_cell_angle_gamma   120.00000207
_symmetry_Int_Tables_number   1
_chemical_formula_structural   Cs6InTe4F
_chemical_formula_sum   'Cs12 In2 Te8 F2'
_cell_volume   1089.64229429
_cell_formula_units_Z   2
loop_
 _symmetry_equiv_pos_site_id
 _symmetry_equiv_pos_as_xyz
  1  'x, y, z'
loop_
 _atom_site_type_symbol
 _atom_site_label
 _atom_site_symmetry_multiplicity
 _atom_site_fract_x
 _atom_site_fract_y
 _atom_site_fract_z
 _atom_site_occupancy
  Cs  Cs0  1  0.11189193  0.88810807  0.51573017  1
  Cs  Cs1  1  0.77621514  0.88810807  0.51573017  1
  Cs  Cs2  1  0.95769163  0.47884631  0.31436511  1
  Cs  Cs3  1  0.52115369  0.47884631  0.31436511  1
  Cs  Cs4  1  0.88810807  0.77621514  0.01573017  1
  Cs  Cs5  1  0.22378486  0.11189193  0.01573017  1
  Cs  Cs6  1  0.52115369  0.04230837  0.31436511  1
  Cs  Cs7  1  0.11189193  0.22378486  0.51573017  1
  Cs  Cs8  1  0.88810807  0.11189193  0.01573017  1
  Cs  Cs9  1  0.04230837  0.52115369  0.81436511  1
  Cs  Cs10  1  0.47884631  0.95769163  0.81436511  1
  Cs  Cs11  1  0.47884631  0.52115369  0.81436511  1
  In  In0  1  0.66666700  0.33333300  0.70647974  1
  In  In1  1  0.33333300  0.66666700  0.20647974  1
  Te  Te0  1  0.40967153  0.20483627  0.60547893  1
  Te  Te1  1  0.59032847  0.79516373  0.10547893  1
  Te  Te2  1  0.66666700  0.33333300  0.03398628  1
  Te  Te3  1  0.79516373  0.59032847  0.60547893  1
  Te  Te4  1  0.20483627  0.40967153  0.10547893  1
  Te  Te5  1  0.33333300  0.66666700  0.53398628  1
  Te  Te6  1  0.20483627  0.79516373  0.10547893  1
  Te  Te7  1  0.79516373  0.20483627  0.60547893  1
  F  F0  1  0.00000000  0.00000000  0.29341234  1
  F  F1  1  0.00000000  0.00000000  0.79341234  1
loop_
_geom_bond_atom_site_label_1
_geom_bond_atom_site_label_2
_geom_bond_distance
_geom_bond_site_symmetry_2
Cs0 F0 3.022630 1_565
Cs0 F1 3.339194 1_565
Cs0 Te0 3.814672 1_565
Cs0 Te3 3.814672 1_455
Cs0 Te6 4.008432 1_555
Cs1 F0 3.022638 1_665
Cs1 F1 3.339202 1_665
Cs1 Te7 3.814672 1_565
Cs1 Te3 3.814672 1_555
Cs1 Te1 4.008422 1_555
Cs2 Te7 3.816838 1_555
Cs2 Te3 3.816838 1_555
Cs2 Te2 3.884515 1_555
Cs2 Te6 3.925847 1_655
Cs2 Te4 3.925861 1_655
Cs3 Te0 3.816838 1_555
Cs3 Te3 3.816838 1_555
Cs3 Te2 3.884532 1_555
Cs3 Te1 3.925840 1_555
Cs3 Te4 3.925840 1_555
Cs4 F1 3.022638 1_664
Cs4 F0 3.339202 1_665
Cs4 Te1 3.814672 1_555
Cs4 Te6 3.814672 1_655
Cs4 Te3 4.008422 1_554
Cs5 F1 3.022638 1_554
Cs5 F0 3.339202 1_555
Cs5 Te6 3.814672 1_545
Cs5 Te4 3.814672 1_555
Cs5 Te0 4.008422 1_554
Cs6 Te0 3.816838 1_555
Cs6 Te7 3.816838 1_555
Cs6 Te2 3.884515 1_555
Cs6 Te6 3.925847 1_545
Cs6 Te1 3.925861 1_545
Cs7 F0 3.022638 1_555
Cs7 F1 3.339202 1_555
Cs7 Te0 3.814672 1_555
Cs7 Te7 3.814672 1_455
Cs7 Te4 4.008422 1_555
Cs8 F1 3.022630 1_654
Cs8 F0 3.339194 1_655
Cs8 Te1 3.814672 1_545
Cs8 Te4 3.814672 1_655
Cs8 Te7 4.008432 1_554
Cs9 Te6 3.816838 1_556
Cs9 Te4 3.816838 1_556
Cs9 Te5 3.884515 1_555
Cs9 Te7 3.925847 1_455
Cs9 Te3 3.925861 1_455
Cs10 Te1 3.816838 1_556
Cs10 Te6 3.816838 1_556
Cs10 Te5 3.884515 1_555
Cs10 Te7 3.925847 1_565
Cs10 Te0 3.925861 1_565
Cs11 Te1 3.816838 1_556
Cs11 Te4 3.816838 1_556
Cs11 Te5 3.884532 1_555
Cs11 Te0 3.925840 1_555
Cs11 Te3 3.925840 1_555
In0 Te2 2.793457 1_556
In0 Te7 2.837096 1_555
In0 Te3 2.837116 1_555
In0 Te0 2.837116 1_555
In1 Te5 2.793457 1_555
In1 Te6 2.837096 1_555
In1 Te4 2.837116 1_555
In1 Te1 2.837116 1_555
