# generated using pymatgen
data_Hf3Ti5Al15Ru7
_symmetry_space_group_name_H-M   'P 1'
_cell_length_a   8.67830150
_cell_length_b   8.67396586
_cell_length_c   8.67831529
_cell_angle_alpha   120.12502933
_cell_angle_beta   119.93990496
_cell_angle_gamma   89.95826322
_symmetry_Int_Tables_number   1
_chemical_formula_structural   Hf3Ti5Al15Ru7
_chemical_formula_sum   'Hf3 Ti5 Al15 Ru7'
_cell_volume   461.64000553
_cell_formula_units_Z   1
loop_
 _symmetry_equiv_pos_site_id
 _symmetry_equiv_pos_as_xyz
  1  'x, y, z'
loop_
 _atom_site_type_symbol
 _atom_site_label
 _atom_site_symmetry_multiplicity
 _atom_site_fract_x
 _atom_site_fract_y
 _atom_site_fract_z
 _atom_site_occupancy
  Hf  Hf0  1  0.80001068  0.28545510  0.07346382  1
  Hf  Hf1  1  0.21199553  0.28544663  0.48544399  1
  Hf  Hf2  1  0.20973377  0.70331576  0.49359711  1
  Ti  Ti0  1  0.22422212  0.72784873  0.94086587  1
  Ti  Ti1  1  0.78698685  0.72784399  0.50363606  1
  Ti  Ti2  1  0.77500926  0.27179425  0.49677246  1
  Ti  Ti3  1  0.37776636  0.12213894  0.74435405  1
  Ti  Ti4  1  0.38244886  0.63955246  0.25714223  1
  Al  Al0  1  0.98655509  0.50417070  0.51762964  1
  Al  Al1  1  0.16847102  0.33294525  0.16446416  1
  Al  Al2  1  0.15572748  0.97288767  0.81714527  1
  Al  Al3  1  0.15158851  0.34750924  0.80984432  1
  Al  Al4  1  0.53765866  0.34749180  0.19590070  1
  Al  Al5  1  0.84708153  0.65239138  0.80533214  1
  Al  Al6  1  0.83684593  0.02028934  0.18341994  1
  Al  Al7  1  0.83532739  0.66172239  0.18055002  1
  Al  Al8  1  0.48117662  0.66171430  0.82638602  1
  Al  Al9  1  0.38310065  0.11943190  0.25696667  1
  Al  Al10  1  0.86245435  0.11943839  0.73631892  1
  Al  Al11  1  0.61916904  0.87789443  0.25872387  1
  Al  Al12  1  0.62106964  0.36460789  0.74354343  1
  Al  Al13  1  0.62082907  0.87588946  0.74135473  1
  Al  Al14  1  0.13453599  0.87589105  0.25506573  1
  Ru  Ru0  1  0.99970883  0.00010415  0.50257352  1
  Ru  Ru1  1  0.49752658  0.00010240  0.00037996  1
  Ru  Ru2  1  0.49748227  0.49908274  0.00161964  1
  Ru  Ru3  1  0.49788752  0.50020032  0.50118123  1
  Ru  Ru4  1  0.99899469  0.50019187  0.00232149  1
  Ru  Ru5  1  0.99982629  0.00294458  0.00309051  1
  Ru  Ru6  1  0.49880641  0.99969991  0.50091449  1
loop_
_geom_bond_atom_site_label_1
_geom_bond_atom_site_label_2
_geom_bond_distance
_geom_bond_site_symmetry_2
Hf0 Ru5 2.988900 1_555
Hf0 Ru4 3.009273 1_555
Hf0 Ti3 3.015161 1_554
Hf0 Ru1 3.192374 1_555
Hf0 Ru2 3.199045 1_555
Hf1 Ru5 2.989031 1_455
Hf1 Ru3 3.009540 1_555
Hf1 Ti3 3.014966 1_555
Hf1 Ru0 3.192387 1_455
Hf1 Ru2 3.199170 1_556
Hf2 Ti4 2.948399 1_555
Hf2 Ti3 2.994057 1_565
Hf2 Ru3 3.050810 1_555
Hf2 Ru4 3.050815 1_455
Hf2 Ru1 3.144494 1_566
Hf2 Ru0 3.144668 1_465
Ti0 Ti4 2.890016 1_556
Ti1 Ti4 2.889761 1_555
Al0 Ti2 2.602569 1_555
Al0 Ti0 2.607664 1_655
Al0 Ti1 2.607692 1_555
Al0 Hf1 2.741023 1_655
Al0 Hf0 2.741028 1_555
Al0 Hf2 2.747414 1_655
Al0 Al5 3.023912 1_555
Al1 Ru4 2.495551 1_455
Al1 Ru3 2.495665 1_555
Al1 Ru5 2.496606 1_455
Al1 Ti4 2.745437 1_555
Al1 Al9 2.745634 1_555
Al1 Al10 2.745646 1_454
Al1 Hf0 2.858809 1_455
Al1 Hf1 2.858899 1_555
Al1 Hf2 2.894367 1_555
Al1 Al2 3.011623 1_544
Al1 Al3 3.073856 1_554
Al1 Al4 3.073924 1_555
Al2 Ru5 2.501788 1_466
Al2 Ru0 2.509680 1_465
Al2 Ru1 2.509761 1_566
Al2 Ti1 2.770364 1_455
Al2 Ti0 2.770471 1_555
Al2 Al9 2.773770 1_566
Al2 Ti3 2.797790 1_565
Al2 Hf2 2.879735 1_555
Al3 Ru4 2.506520 1_456
Al3 Ru2 2.516281 1_556
Al3 Ru0 2.521923 1_455
Al3 Ti2 2.800424 1_455
Al3 Ti4 2.805931 1_556
Al3 Ti3 2.826647 1_555
Al3 Ti0 2.845383 1_555
Al3 Hf1 2.905466 1_555
Al4 Ru3 2.506416 1_555
Al4 Ru2 2.516166 1_555
Al4 Ru1 2.521810 1_555
Al4 Al9 2.785469 1_555
Al4 Ti2 2.800351 1_555
Al4 Ti4 2.805817 1_555
Al4 Ti3 2.826618 1_554
Al4 Ti1 2.845478 1_555
Al4 Hf0 2.905394 1_555
Al5 Ru4 2.533104 1_556
Al5 Ru3 2.533192 1_555
Al5 Ru5 2.538733 1_566
Al5 Ti0 2.812775 1_655
Al5 Ti1 2.812813 1_555
Al5 Ti2 2.813874 1_555
Al6 Ru1 2.505537 1_555
Al6 Ru0 2.505690 1_555
Al6 Ru5 2.538705 1_555
Al6 Ti2 2.818194 1_555
Al6 Hf0 2.863641 1_555
Al6 Hf1 2.863763 1_655
Al7 Ru0 2.500601 1_565
Al7 Ru2 2.502049 1_555
Al7 Ru4 2.527362 1_555
Al7 Ti1 2.815324 1_555
Al7 Hf2 2.876599 1_655
Al7 Hf0 2.877869 1_555
Al8 Ru1 2.500668 1_566
Al8 Ru2 2.502172 1_556
Al8 Ru3 2.527485 1_555
Al8 Ti0 2.815340 1_555
Al8 Hf2 2.876477 1_555
Al8 Hf1 2.877865 1_555
Al9 Ru6 2.579208 1_545
Al9 Ru1 2.628305 1_555
Al9 Ru3 2.695094 1_555
Al9 Ru5 2.719169 1_455
Al9 Ti2 2.797443 1_555
Al9 Ti0 2.800300 1_544
Al9 Hf1 2.877466 1_555
Al10 Ru6 2.578980 1_545
Al10 Ru0 2.628216 1_555
Al10 Ru4 2.694993 1_556
Al10 Ru5 2.719107 1_556
Al10 Al2 2.773772 1_645
Al10 Al3 2.785463 1_655
Al10 Ti2 2.797401 1_555
Al10 Ti1 2.800401 1_545
Al10 Hf0 2.877539 1_556
Al10 Al11 2.929323 1_545
Al10 Al12 2.984179 1_555
Al10 Al13 3.008702 1_545
Al11 Ru6 2.566269 1_555
Al11 Ru2 2.680315 1_555
Al11 Ru0 2.699174 1_565
Al11 Ru1 2.699266 1_565
Al11 Al7 2.735580 1_555
Al11 Al8 2.735647 1_554
Al11 Al6 2.750834 1_565
Al11 Ti2 2.811290 1_565
Al11 Ti0 2.831255 1_554
Al11 Ti1 2.831369 1_555
Al11 Ti4 2.905862 1_555
Al11 Al9 2.929389 1_565
Al12 Ru6 2.581250 1_545
Al12 Ru4 2.680607 1_556
Al12 Ru3 2.680820 1_555
Al12 Ru2 2.701966 1_556
Al12 Al8 2.763883 1_555
Al12 Al7 2.763936 1_556
Al12 Al5 2.824796 1_555
Al12 Ti2 2.853546 1_555
Al12 Hf1 2.934960 1_555
Al12 Hf0 2.934967 1_556
Al12 Al9 2.984317 1_555
Al12 Ti3 2.986264 1_555
Al13 Ru6 2.582777 1_555
Al13 Ru3 2.658830 1_555
Al13 Ru5 2.688325 1_566
Al13 Ru1 2.706874 1_566
Al13 Al8 2.781479 1_555
Al13 Al6 2.793253 1_566
Al13 Al5 2.812199 1_555
Al13 Ti1 2.879537 1_555
Al13 Hf0 2.932959 1_566
Al13 Hf2 2.951579 1_555
Al13 Ti4 2.970206 1_555
Al13 Ti3 3.000814 1_565
Al14 Ru6 2.582912 1_555
Al14 Ru4 2.658908 1_455
Al14 Ru5 2.688556 1_465
Al14 Ru0 2.706927 1_465
Al14 Al7 2.781495 1_455
Al14 Al6 2.793414 1_465
Al14 Al5 2.812075 1_454
Al14 Ti0 2.879597 1_554
Al14 Hf1 2.932883 1_565
Al14 Hf2 2.951653 1_555
Al14 Ti4 2.970445 1_555
Al14 Ti3 3.000669 1_565
Al14 Al9 3.008668 1_565
Ru0 Ti3 2.681679 1_655
Ru1 Ti3 2.681716 1_554
Ru2 Ti4 2.625708 1_555
Ru2 Ti3 2.667681 1_554
Ru3 Ti4 2.720283 1_555
Ru3 Ti2 3.117555 1_555
Ru3 Ti1 3.178926 1_555
Ru4 Ti4 2.720723 1_655
Ru4 Ti2 3.117713 1_554
Ru4 Ti0 3.179242 1_654
Ru5 Ti1 3.086415 1_544
Ru5 Ti0 3.086615 1_644
Ru6 Ti4 2.548037 1_555
Ru6 Ti3 2.579905 1_565
