# generated using pymatgen
data_Sc22Tc5OsAu2
_symmetry_space_group_name_H-M   'P 1'
_cell_length_a   9.59552719
_cell_length_b   9.59552791
_cell_length_c   9.49928992
_cell_angle_alpha   60.33122790
_cell_angle_beta   60.33122546
_cell_angle_gamma   59.33756292
_symmetry_Int_Tables_number   1
_chemical_formula_structural   Sc22Tc5OsAu2
_chemical_formula_sum   'Sc22 Tc5 Os1 Au2'
_cell_volume   618.34007863
_cell_formula_units_Z   1
loop_
 _symmetry_equiv_pos_site_id
 _symmetry_equiv_pos_as_xyz
  1  'x, y, z'
loop_
 _atom_site_type_symbol
 _atom_site_label
 _atom_site_symmetry_multiplicity
 _atom_site_fract_x
 _atom_site_fract_y
 _atom_site_fract_z
 _atom_site_occupancy
  Sc  Sc0  1  0.83887104  0.83887104  0.85243960  1
  Sc  Sc1  1  0.53018168  0.14756040  0.16112896  1
  Sc  Sc2  1  0.16112896  0.16112896  0.53018168  1
  Sc  Sc3  1  0.14756040  0.53018168  0.16112896  1
  Sc  Sc4  1  0.83887104  0.83887104  0.46981832  1
  Sc  Sc5  1  0.85243960  0.46981832  0.83887104  1
  Sc  Sc6  1  0.46981832  0.85243960  0.83887104  1
  Sc  Sc7  1  0.16112896  0.16112896  0.14756040  1
  Sc  Sc8  1  0.19572826  0.80427174  0.19572826  1
  Sc  Sc9  1  0.19572826  0.80427174  0.80427174  1
  Sc  Sc10  1  0.80427174  0.19572826  0.19572826  1
  Sc  Sc11  1  0.80367203  0.80367203  0.19632797  1
  Sc  Sc12  1  0.19632797  0.19632797  0.80367203  1
  Sc  Sc13  1  0.80427174  0.19572826  0.80427174  1
  Sc  Sc14  1  0.38158399  0.38158399  0.38985716  1
  Sc  Sc15  1  0.15302514  0.61014284  0.61841601  1
  Sc  Sc16  1  0.61014284  0.15302514  0.61841601  1
  Sc  Sc17  1  0.61841601  0.61841601  0.15302514  1
  Sc  Sc18  1  0.38985716  0.84697486  0.38158399  1
  Sc  Sc19  1  0.38158399  0.38158399  0.84697486  1
  Sc  Sc20  1  0.84697486  0.38985716  0.38158399  1
  Sc  Sc21  1  0.61841601  0.61841601  0.61014284  1
  Tc  Tc0  1  0.50000000  0.00000000  0.50000000  1
  Tc  Tc1  1  0.00000000  0.50000000  0.50000000  1
  Tc  Tc2  1  0.50000000  0.00000000  0.00000000  1
  Tc  Tc3  1  0.00000000  0.50000000  0.00000000  1
  Tc  Tc4  1  0.00000000  0.00000000  0.00000000  1
  Os  Os0  1  0.50000000  0.50000000  0.50000000  1
  Au  Au0  1  0.50000000  0.50000000  0.00000000  1
  Au  Au1  1  0.00000000  0.00000000  0.50000000  1
loop_
_geom_bond_atom_site_label_1
_geom_bond_atom_site_label_2
_geom_bond_distance
_geom_bond_site_symmetry_2
Sc0 Tc2 2.726543 1_566
Sc0 Tc3 2.726544 1_656
Sc0 Sc11 2.971745 1_556
Sc0 Sc9 3.079730 1_655
Sc0 Sc13 3.079730 1_565
Sc0 Sc17 3.115719 1_556
Sc0 Sc15 3.208419 1_655
Sc0 Sc16 3.208419 1_565
Sc1 Tc2 2.726543 1_555
Sc1 Tc0 2.726544 1_555
Sc1 Sc11 2.971745 1_545
Sc1 Sc10 3.079729 1_555
Sc1 Sc13 3.079730 1_554
Sc1 Sc18 3.115719 1_545
Sc1 Sc14 3.208419 1_555
Sc1 Sc19 3.208419 1_554
Sc2 Tc0 2.726543 1_555
Sc2 Tc1 2.726544 1_555
Sc2 Sc9 3.079730 1_545
Sc2 Sc20 3.208419 1_455
Sc3 Tc3 2.726543 1_555
Sc3 Tc1 2.726543 1_555
Sc3 Sc8 3.079730 1_555
Sc3 Sc9 3.079730 1_554
Sc4 Tc0 2.726543 1_565
Sc4 Tc1 2.726544 1_655
Sc4 Sc8 3.079730 1_655
Sc5 Tc3 2.726543 1_656
Sc5 Tc1 2.726543 1_655
Sc6 Tc2 2.726543 1_566
Sc6 Tc0 2.726544 1_565
Sc6 Sc9 3.079729 1_555
Sc6 Sc8 3.079730 1_556
Sc7 Tc2 2.726543 1_555
Sc7 Tc3 2.726544 1_555
Sc7 Sc8 3.079730 1_545
Sc8 Tc4 2.629418 1_565
Sc9 Tc4 2.629418 1_566
Sc10 Tc4 2.629418 1_655
Sc10 Sc7 3.079730 1_655
Sc10 Sc5 3.079730 1_554
Sc10 Sc4 3.079730 1_545
Sc10 Sc20 3.391934 1_555
Sc10 Sc14 3.391934 1_555
Sc10 Sc16 3.391934 1_555
Sc10 Sc17 3.391934 1_555
Sc11 Tc4 2.690650 1_665
Sc11 Sc4 2.971744 1_555
Sc11 Sc3 2.971745 1_655
Sc11 Sc17 3.340650 1_555
Sc11 Sc18 3.340650 1_555
Sc11 Sc20 3.340651 1_555
Sc11 Sc21 3.340651 1_555
Sc12 Tc4 2.690650 1_556
Sc12 Sc2 2.971744 1_555
Sc12 Sc5 2.971745 1_455
Sc12 Sc7 2.971745 1_556
Sc12 Sc6 2.971745 1_545
Sc12 Sc19 3.340650 1_555
Sc12 Sc16 3.340650 1_555
Sc12 Sc15 3.340651 1_555
Sc12 Sc14 3.340651 1_555
Sc13 Tc4 2.629418 1_656
Sc13 Sc5 3.079730 1_555
Sc13 Sc2 3.079730 1_655
Sc13 Sc16 3.391934 1_555
Sc13 Sc19 3.391934 1_555
Sc13 Sc20 3.391934 1_555
Sc13 Sc21 3.391934 1_555
Sc14 Tc1 2.988864 1_555
Sc14 Tc0 2.988864 1_555
Sc14 Sc15 3.070465 1_555
Sc14 Sc16 3.070465 1_555
Sc14 Sc2 3.115719 1_555
Sc14 Sc3 3.208419 1_555
Sc14 Sc17 3.245753 1_555
Sc14 Sc8 3.391934 1_555
Sc15 Tc1 2.988864 1_555
Sc15 Tc3 2.988864 1_556
Sc15 Sc19 3.070465 1_555
Sc15 Sc5 3.115719 1_455
Sc15 Sc4 3.208419 1_455
Sc15 Sc18 3.245753 1_555
Sc15 Sc9 3.391934 1_555
Sc15 Sc8 3.391934 1_555
Sc16 Tc0 2.988864 1_555
Sc16 Tc2 2.988864 1_556
Sc16 Sc19 3.070465 1_555
Sc16 Sc6 3.115719 1_545
Sc16 Sc4 3.208419 1_545
Sc16 Sc20 3.245753 1_555
Sc17 Tc3 2.988864 1_655
Sc17 Tc2 2.988864 1_565
Sc17 Sc18 3.070465 1_555
Sc17 Sc20 3.070465 1_555
Sc17 Sc5 3.208419 1_554
Sc17 Sc6 3.208419 1_554
Sc17 Sc8 3.391934 1_555
Sc18 Tc0 2.988864 1_565
Sc18 Tc2 2.988864 1_565
Sc18 Sc21 3.070465 1_555
Sc18 Sc2 3.208419 1_565
Sc18 Sc7 3.208419 1_565
Sc18 Sc8 3.391934 1_555
Sc18 Sc9 3.391934 1_555
Sc19 Tc3 2.988864 1_556
Sc19 Tc2 2.988864 1_556
Sc19 Sc7 3.115719 1_556
Sc19 Sc3 3.208419 1_556
Sc19 Sc21 3.245753 1_555
Sc19 Sc9 3.391934 1_555
Sc20 Tc1 2.988864 1_655
Sc20 Tc3 2.988864 1_655
Sc20 Sc21 3.070465 1_555
Sc20 Sc3 3.115719 1_655
Sc20 Sc7 3.208419 1_655
Sc21 Tc1 2.988864 1_655
Sc21 Tc0 2.988864 1_565
Sc21 Sc4 3.115719 1_555
Sc21 Sc5 3.208419 1_555
Sc21 Sc6 3.208419 1_555
Sc21 Sc9 3.391934 1_555
Os0 Sc21 2.710647 1_555
Os0 Sc14 2.710647 1_555
Os0 Sc20 2.710647 1_555
Os0 Sc15 2.710647 1_555
Os0 Sc17 2.710647 1_555
Os0 Sc19 2.710647 1_555
Os0 Sc18 2.710647 1_555
Os0 Sc16 2.710647 1_555
Au0 Sc5 2.859897 1_554
Au0 Sc3 2.859897 1_555
Au0 Sc6 2.859898 1_554
Au0 Sc1 2.859898 1_555
Au0 Sc17 3.046700 1_555
Au0 Sc19 3.046700 1_554
Au0 Sc14 3.046700 1_555
Au0 Sc21 3.046700 1_554
Au0 Sc8 3.436733 1_555
Au0 Sc10 3.436733 1_555
Au0 Sc13 3.436733 1_554
Au0 Sc9 3.436733 1_554
Au1 Sc2 2.859897 1_555
Au1 Sc4 2.859897 1_445
Au1 Sc0 2.859898 1_445
Au1 Sc7 2.859898 1_555
Au1 Sc18 3.046700 1_545
Au1 Sc16 3.046700 1_455
Au1 Sc20 3.046700 1_455
Au1 Sc15 3.046700 1_545
Au1 Sc13 3.436733 1_455
Au1 Sc9 3.436733 1_545
Au1 Sc10 3.436733 1_455
Au1 Sc8 3.436733 1_545
