# generated using pymatgen
data_Sc12Ni4SnRh
_symmetry_space_group_name_H-M   'P 1'
_cell_length_a   7.74951335
_cell_length_b   7.74951460
_cell_length_c   7.74951327
_cell_angle_alpha   111.53614679
_cell_angle_beta   110.51881577
_cell_angle_gamma   106.40331000
_symmetry_Int_Tables_number   1
_chemical_formula_structural   Sc12Ni4SnRh
_chemical_formula_sum   'Sc12 Ni4 Sn1 Rh1'
_cell_volume   357.46762080
_cell_formula_units_Z   1
loop_
 _symmetry_equiv_pos_site_id
 _symmetry_equiv_pos_as_xyz
  1  'x, y, z'
loop_
 _atom_site_type_symbol
 _atom_site_label
 _atom_site_symmetry_multiplicity
 _atom_site_fract_x
 _atom_site_fract_y
 _atom_site_fract_z
 _atom_site_occupancy
  Sc  Sc0  1  0.41771238  0.22068883  0.19702155  1
  Sc  Sc1  1  0.58228762  0.77931117  0.80297845  1
  Sc  Sc2  1  0.02366728  0.22068883  0.80297845  1
  Sc  Sc3  1  0.97633272  0.77931117  0.19702155  1
  Sc  Sc4  1  0.18350734  0.28447301  0.46798135  1
  Sc  Sc5  1  0.81649266  0.71552699  0.53201865  1
  Sc  Sc6  1  0.18350734  0.71552699  0.89903333  1
  Sc  Sc7  1  0.81649266  0.28447301  0.10096667  1
  Sc  Sc8  1  0.32136565  0.62323364  0.30186800  1
  Sc  Sc9  1  0.67863435  0.37676636  0.69813200  1
  Sc  Sc10  1  0.32136565  0.01949765  0.69813200  1
  Sc  Sc11  1  0.67863435  0.98050235  0.30186800  1
  Ni  Ni0  1  0.35717324  0.00000000  0.35717324  1
  Ni  Ni1  1  0.64282676  1.00000000  0.64282676  1
  Ni  Ni2  1  0.12552102  0.62552102  0.50000000  1
  Ni  Ni3  1  0.87447898  0.37447898  0.50000000  1
  Sn  Sn0  1  0.50000000  0.50000000  0.00000000  1
  Rh  Rh0  1  0.00000000  0.00000000  0.00000000  1
loop_
_geom_bond_atom_site_label_1
_geom_bond_atom_site_label_2
_geom_bond_distance
_geom_bond_site_symmetry_2
Sc0 Sn0 3.122869 1_555
Sc0 Sc11 3.208980 1_545
Sc0 Sc9 3.208989 1_555
Sc0 Sc6 3.219301 1_544
Sc0 Sc4 3.219320 1_555
Sc0 Sc10 3.290729 1_554
Sc0 Sc8 3.290744 1_555
Sc0 Sc7 3.371756 1_555
Sc0 Sc5 3.371771 1_555
Sc1 Sn0 3.122869 1_556
Sc1 Sc10 3.208980 1_565
Sc1 Sc8 3.208989 1_555
Sc1 Sc7 3.219301 1_566
Sc1 Sc5 3.219320 1_555
Sc1 Sc11 3.290729 1_556
Sc1 Sc9 3.290744 1_555
Sc1 Sc6 3.371756 1_555
Sc1 Sc4 3.371771 1_555
Sc2 Sn0 3.122871 1_556
Sc2 Sc9 3.208991 1_455
Sc2 Sc5 3.219301 1_445
Sc2 Sc7 3.219307 1_456
Sc2 Sc8 3.290734 1_556
Sc2 Sc4 3.371768 1_555
Sc2 Sc6 3.371779 1_555
Sc3 Sn0 3.122871 1_555
Sc3 Sc8 3.208991 1_655
Sc3 Sc4 3.219301 1_665
Sc3 Sc6 3.219307 1_654
Sc3 Sc9 3.290734 1_554
Sc3 Sc5 3.371768 1_555
Sc3 Sc7 3.371779 1_555
Sc4 Sc7 3.241585 1_455
Sc4 Sc9 3.336333 1_555
Sc4 Sn0 3.368266 1_556
Sc4 Sc8 3.398748 1_555
Sc5 Sc6 3.241585 1_655
Sc5 Sc8 3.336333 1_555
Sc5 Sn0 3.368266 1_555
Sc5 Sc9 3.398748 1_555
Sc6 Sc8 3.336340 1_556
Sc6 Sn0 3.368274 1_556
Sc6 Sc9 3.398744 1_455
Sc7 Sc9 3.336340 1_554
Sc7 Sn0 3.368274 1_555
Sc7 Sc8 3.398744 1_655
Sc8 Sn0 3.110878 1_555
Sc9 Sn0 3.110878 1_556
Sc10 Sn0 3.110878 1_556
Sc10 Sc3 3.208991 1_445
Sc10 Sc2 3.290734 1_555
Sc10 Sc9 3.316856 1_555
Sc10 Sc4 3.336329 1_555
Sc10 Sc7 3.336336 1_556
Sc10 Sc6 3.398736 1_545
Sc10 Sc5 3.398740 1_445
Sc11 Sn0 3.110878 1_555
Sc11 Sc2 3.208991 1_665
Sc11 Sc3 3.290734 1_555
Sc11 Sc8 3.316856 1_555
Sc11 Sc5 3.336329 1_555
Sc11 Sc6 3.336336 1_554
Sc11 Sc7 3.398736 1_565
Sc11 Sc4 3.398740 1_665
Ni0 Sc3 2.489710 1_445
Ni0 Sc0 2.489713 1_555
Ni0 Ni1 2.522979 1_545
Ni0 Sc10 2.706651 1_555
Ni0 Sc11 2.706651 1_545
Ni0 Sc9 2.706652 1_555
Ni0 Sc8 2.706652 1_545
Ni0 Sc4 2.916264 1_555
Ni0 Sc6 2.916268 1_544
Ni1 Sc2 2.489710 1_665
Ni1 Sc1 2.489713 1_555
Ni1 Sc11 2.706651 1_555
Ni1 Sc10 2.706651 1_565
Ni1 Sc8 2.706652 1_555
Ni1 Sc9 2.706652 1_565
Ni1 Sc5 2.916264 1_555
Ni1 Sc7 2.916268 1_566
Ni2 Ni3 2.330655 1_455
Ni2 Sc8 2.508007 1_555
Ni2 Sc10 2.508007 1_565
Ni2 Sc6 2.741558 1_555
Ni2 Sc7 2.741562 1_455
Ni2 Sc5 2.741563 1_455
Ni2 Sc4 2.741568 1_555
Ni2 Sc1 3.033057 1_555
Ni2 Sc3 3.033069 1_455
Ni3 Sc9 2.508007 1_555
Ni3 Sc11 2.508007 1_545
Ni3 Sc7 2.741558 1_555
Ni3 Sc6 2.741562 1_655
Ni3 Sc4 2.741563 1_655
Ni3 Sc5 2.741568 1_555
Ni3 Sc0 3.033057 1_555
Ni3 Sc2 3.033069 1_655
Rh0 Sc2 2.688114 1_554
Rh0 Sc3 2.688114 1_445
Rh0 Sc0 2.688127 1_555
Rh0 Sc1 2.688127 1_444
Rh0 Sc7 2.962905 1_455
Rh0 Sc6 2.962905 1_544
Rh0 Sc4 2.962910 1_555
Rh0 Sc5 2.962910 1_444
