# generated using pymatgen
data_CdHgRu2O7
_symmetry_space_group_name_H-M   'P 1'
_cell_length_a   7.28086238
_cell_length_b   7.21695982
_cell_length_c   7.21695974
_cell_angle_alpha   59.43222611
_cell_angle_beta   59.70666519
_cell_angle_gamma   59.70666483
_symmetry_Int_Tables_number   1
_chemical_formula_structural   CdHgRu2O7
_chemical_formula_sum   'Cd2 Hg2 Ru4 O14'
_cell_volume   265.79990713
_cell_formula_units_Z   2
loop_
 _symmetry_equiv_pos_site_id
 _symmetry_equiv_pos_as_xyz
  1  'x, y, z'
loop_
 _atom_site_type_symbol
 _atom_site_label
 _atom_site_symmetry_multiplicity
 _atom_site_fract_x
 _atom_site_fract_y
 _atom_site_fract_z
 _atom_site_occupancy
  Cd  Cd0  1  0.62500000  0.12500000  0.12500000  1
  Cd  Cd1  1  0.12500000  0.12500000  0.12500000  1
  Hg  Hg0  1  0.12500000  0.12500000  0.62500000  1
  Hg  Hg1  1  0.12500000  0.62500000  0.12500000  1
  Ru  Ru0  1  0.62500000  0.62500000  0.12500000  1
  Ru  Ru1  1  0.62500000  0.12500000  0.62500000  1
  Ru  Ru2  1  0.12500000  0.62500000  0.62500000  1
  Ru  Ru3  1  0.62500000  0.62500000  0.62500000  1
  O  O0  1  0.24665388  0.25334612  0.25334612  1
  O  O1  1  0.00334612  0.99665388  0.99665388  1
  O  O2  1  0.56063062  0.94585413  0.54965256  1
  O  O3  1  0.30613732  0.70034744  0.30414587  1
  O  O4  1  0.56063062  0.54965256  0.94585413  1
  O  O5  1  0.94137265  0.55862735  0.55862735  1
  O  O6  1  0.55212775  0.94787225  0.94787225  1
  O  O7  1  0.94386268  0.94585413  0.54965256  1
  O  O8  1  0.94386268  0.54965256  0.94585413  1
  O  O9  1  0.69787225  0.30212775  0.30212775  1
  O  O10  1  0.30862735  0.69137265  0.69137265  1
  O  O11  1  0.68936938  0.30414587  0.70034744  1
  O  O12  1  0.30613732  0.30414587  0.70034744  1
  O  O13  1  0.68936938  0.70034744  0.30414587  1
loop_
_geom_bond_atom_site_label_1
_geom_bond_atom_site_label_2
_geom_bond_distance
_geom_bond_site_symmetry_2
Cd0 O1 2.242444 1_644
Cd0 O0 2.242444 1_555
Cd0 O2 2.532929 1_545
Cd0 O11 2.532929 1_554
Cd0 O4 2.532929 1_554
Cd0 O13 2.532929 1_545
Cd0 O9 2.565211 1_555
Cd0 O6 2.565211 1_544
Cd1 O0 2.242444 1_555
Cd1 O1 2.242444 1_544
Cd1 O7 2.532929 1_445
Cd1 O12 2.532929 1_554
Cd1 O8 2.532929 1_454
Cd1 O3 2.532929 1_545
Cd1 O6 2.565211 1_544
Cd1 O9 2.565211 1_455
Hg0 O1 2.177319 1_545
Hg0 O0 2.177319 1_555
Hg0 O5 2.590533 1_455
Hg0 O10 2.590533 1_545
Hg0 O12 2.620186 1_555
Hg0 O7 2.620186 1_445
Hg0 O2 2.620186 1_545
Hg0 O11 2.620186 1_455
Hg1 O1 2.177319 1_554
Hg1 O0 2.177319 1_555
Hg1 O5 2.590533 1_455
Hg1 O10 2.590533 1_554
Hg1 O3 2.620186 1_555
Hg1 O8 2.620186 1_454
Hg1 O4 2.620186 1_554
Hg1 O13 2.620186 1_455
O2 Ru3 1.938775 1_555
O2 Ru1 1.941748 1_565
O3 Ru2 1.938775 1_555
O3 Ru0 1.941748 1_555
O4 Ru3 1.938775 1_555
O4 Ru0 1.941748 1_556
O5 Ru2 1.942145 1_655
O5 Ru3 1.942146 1_555
O6 Ru1 1.937152 1_565
O6 Ru0 1.937152 1_556
O7 Ru2 1.938775 1_655
O7 Ru1 1.941748 1_565
O8 Ru2 1.938775 1_655
O8 Ru0 1.941748 1_556
O9 Ru1 1.937152 1_555
O9 Ru0 1.937152 1_555
O10 Ru2 1.942145 1_555
O10 Ru3 1.942146 1_555
O11 Ru3 1.938775 1_555
O11 Ru1 1.941748 1_555
O12 Ru2 1.938775 1_555
O12 Ru1 1.941748 1_555
O13 Ru3 1.938775 1_555
O13 Ru0 1.941748 1_555
