# generated using pymatgen
data_Ba12Lu(ScP4)3
_symmetry_space_group_name_H-M   'P 1'
_cell_length_a   4.59355466
_cell_length_b   13.57507042
_cell_length_c   14.69904280
_cell_angle_alpha   89.85843902
_cell_angle_beta   90.00000000
_cell_angle_gamma   90.00000000
_symmetry_Int_Tables_number   1
_chemical_formula_structural   Ba12Lu(ScP4)3
_chemical_formula_sum   'Ba12 Lu1 Sc3 P12'
_cell_volume   916.59758424
_cell_formula_units_Z   1
loop_
 _symmetry_equiv_pos_site_id
 _symmetry_equiv_pos_as_xyz
  1  'x, y, z'
loop_
 _atom_site_type_symbol
 _atom_site_label
 _atom_site_symmetry_multiplicity
 _atom_site_fract_x
 _atom_site_fract_y
 _atom_site_fract_z
 _atom_site_occupancy
  Ba  Ba0  1  0.25000000  0.41769882  0.09992932  1
  Ba  Ba1  1  0.25000000  0.14316746  0.00324301  1
  Ba  Ba2  1  0.25000000  0.22748067  0.29865580  1
  Ba  Ba3  1  0.75000000  0.27306932  0.79613666  1
  Ba  Ba4  1  0.75000000  0.36134185  0.50124922  1
  Ba  Ba5  1  0.25000000  0.91617160  0.39826228  1
  Ba  Ba6  1  0.75000000  0.77045865  0.70170893  1
  Ba  Ba7  1  0.75000000  0.85816925  0.00084401  1
  Ba  Ba8  1  0.25000000  0.72671342  0.20233391  1
  Ba  Ba9  1  0.75000000  0.08253974  0.59586758  1
  Ba  Ba10  1  0.75000000  0.58235053  0.90053435  1
  Ba  Ba11  1  0.25000000  0.64003896  0.49795089  1
  Lu  Lu0  1  0.25000000  0.95432531  0.79508769  1
  Sc  Sc0  1  0.75000000  0.54743020  0.29359140  1
  Sc  Sc1  1  0.75000000  0.04853676  0.20557567  1
  Sc  Sc2  1  0.25000000  0.45171300  0.70608416  1
  P  P0  1  0.75000000  0.22346743  0.13540496  1
  P  P1  1  0.75000000  0.72093700  0.36589663  1
  P  P2  1  0.75000000  0.58604865  0.12262804  1
  P  P3  1  0.25000000  0.27786671  0.63246433  1
  P  P4  1  0.25000000  0.77458899  0.86826787  1
  P  P5  1  0.75000000  0.08490212  0.37647178  1
  P  P6  1  0.25000000  0.91256967  0.61937624  1
  P  P7  1  0.25000000  0.41339678  0.87701054  1
  P  P8  1  0.75000000  0.03980955  0.85117725  1
  P  P9  1  0.25000000  0.46556992  0.34510561  1
  P  P10  1  0.25000000  0.96565281  0.15454373  1
  P  P11  1  0.75000000  0.53398583  0.65459812  1
loop_
_geom_bond_atom_site_label_1
_geom_bond_atom_site_label_2
_geom_bond_distance
_geom_bond_site_symmetry_2
Ba0 P2 3.257783 1_555
Ba0 P2 3.257783 1_455
Ba0 P7 3.277357 1_554
Ba0 P0 3.534476 1_455
Ba0 P0 3.534476 1_555
Ba0 P9 3.663559 1_555
Ba1 P0 3.201222 1_455
Ba1 P0 3.201222 1_555
Ba1 P10 3.275148 1_545
Ba1 P8 3.500794 1_554
Ba1 P8 3.500794 1_454
Ba2 P5 3.212287 1_555
Ba2 P5 3.212287 1_455
Ba2 P9 3.305058 1_555
Ba2 P0 3.322203 1_455
Ba2 P0 3.322203 1_555
Ba3 P7 3.213783 1_655
Ba3 P7 3.213783 1_555
Ba3 P8 3.266302 1_555
Ba3 P3 3.326658 1_555
Ba3 P3 3.326658 1_655
Ba4 P3 3.204452 1_655
Ba4 P3 3.204452 1_555
Ba4 P11 3.255719 1_555
Ba4 P9 3.539613 1_655
Ba4 P9 3.539613 1_555
Ba5 P6 3.250411 1_555
Ba5 P5 3.258938 1_565
Ba5 P5 3.258938 1_465
Ba5 P1 3.540051 1_455
Ba5 P1 3.540051 1_555
Ba5 P10 3.643227 1_555
Ba6 P6 3.232638 1_655
Ba6 P6 3.232638 1_555
Ba6 P11 3.285648 1_555
Ba6 P4 3.357524 1_655
Ba6 P4 3.357524 1_555
Ba7 P4 3.220410 1_554
Ba7 P4 3.220410 1_654
Ba7 P8 3.300467 1_564
Ba7 P10 3.539011 1_555
Ba7 P10 3.539011 1_655
Ba8 P2 3.210173 1_555
Ba8 P2 3.210173 1_455
Ba8 P10 3.317118 1_555
Ba8 P1 3.325756 1_555
Ba8 P1 3.325756 1_455
Ba9 P5 3.224988 1_555
Ba9 P6 3.273308 1_645
Ba9 P6 3.273308 1_545
Ba9 P3 3.549996 1_555
Ba9 P3 3.549996 1_655
Ba9 P8 3.795956 1_555
Ba10 P7 3.264825 1_555
Ba10 P7 3.264825 1_655
Ba10 P2 3.265075 1_556
Ba10 P4 3.507748 1_555
Ba10 P4 3.507748 1_655
Ba10 P11 3.675760 1_555
Ba11 P1 3.199757 1_555
Ba11 P1 3.199757 1_455
Ba11 P9 3.268535 1_555
Ba11 P11 3.554333 1_555
Ba11 P11 3.554333 1_455
Lu0 P6 2.645627 1_555
Lu0 P4 2.664093 1_555
Lu0 P8 2.703018 1_565
Lu0 P8 2.703018 1_465
P0 Sc1 2.586687 1_555
P1 Sc0 2.586446 1_555
P2 Sc0 2.565830 1_555
P3 Sc2 2.598679 1_555
P5 Sc1 2.561254 1_555
P7 Sc2 2.564473 1_555
P9 Sc0 2.660694 1_555
P9 Sc0 2.660694 1_455
P10 Sc1 2.666086 1_565
P10 Sc1 2.666086 1_465
P11 Sc2 2.662916 1_555
P11 Sc2 2.662916 1_655
