# generated using pymatgen
data_LiMnP2O7
_symmetry_space_group_name_H-M   'P 1'
_cell_length_a   8.03963100
_cell_length_b   5.13952900
_cell_length_c   14.06615208
_cell_angle_alpha   70.56861440
_cell_angle_beta   90.00000000
_cell_angle_gamma   90.00000000
_symmetry_Int_Tables_number   1
_chemical_formula_structural   LiMnP2O7
_chemical_formula_sum   'Li4 Mn4 P8 O28'
_cell_volume   548.10671132
_cell_formula_units_Z   4
loop_
 _symmetry_equiv_pos_site_id
 _symmetry_equiv_pos_as_xyz
  1  'x, y, z'
loop_
 _atom_site_type_symbol
 _atom_site_label
 _atom_site_symmetry_multiplicity
 _atom_site_fract_x
 _atom_site_fract_y
 _atom_site_fract_z
 _atom_site_occupancy
  Li  Li0  1  0.78569600  0.03504700  0.73681000  1
  Li  Li1  1  0.28569600  0.96495300  0.76319000  1
  Li  Li2  1  0.71430400  0.03504700  0.23681000  1
  Li  Li3  1  0.21430400  0.96495300  0.26319000  1
  Mn  Mn0  1  0.35237200  0.33978600  0.38051300  1
  Mn  Mn1  1  0.64762800  0.66021400  0.61948700  1
  Mn  Mn2  1  0.14762800  0.33978600  0.88051300  1
  Mn  Mn3  1  0.85237200  0.66021400  0.11948700  1
  P  P0  1  0.70515100  0.31581100  0.48058400  1
  P  P1  1  0.03273600  0.57929200  0.67578900  1
  P  P2  1  0.53273600  0.42070800  0.82421100  1
  P  P3  1  0.29484900  0.68418900  0.51941600  1
  P  P4  1  0.96726400  0.42070800  0.32421100  1
  P  P5  1  0.46726400  0.57929200  0.17578900  1
  P  P6  1  0.79484900  0.31581100  0.98058400  1
  P  P7  1  0.20515100  0.68418900  0.01941600  1
  O  O0  1  0.40871500  0.72959900  0.60076400  1
  O  O1  1  0.53609400  0.18777400  0.78105100  1
  O  O2  1  0.14202700  0.52872900  0.33866800  1
  O  O3  1  0.59128500  0.27040100  0.39923600  1
  O  O4  1  0.29376600  0.91607900  0.41893500  1
  O  O5  1  0.46390600  0.81222600  0.21894900  1
  O  O6  1  0.13438700  0.32630500  0.74157800  1
  O  O7  1  0.82920200  0.60203700  0.99124600  1
  O  O8  1  0.10910900  0.67439700  0.56342500  1
  O  O9  1  0.32920200  0.39796300  0.50875400  1
  O  O10  1  0.63438700  0.67369500  0.75842200  1
  O  O11  1  0.67079800  0.60203700  0.49124600  1
  O  O12  1  0.20623400  0.91607900  0.91893500  1
  O  O13  1  0.90871500  0.27040100  0.89923600  1
  O  O14  1  0.36561300  0.32630500  0.24157800  1
  O  O15  1  0.17079800  0.39796300  0.00875400  1
  O  O16  1  0.89089100  0.32560300  0.43657500  1
  O  O17  1  0.64202700  0.47127100  0.16133200  1
  O  O18  1  0.79376600  0.08392100  0.08106500  1
  O  O19  1  0.39089100  0.67439700  0.06342500  1
  O  O20  1  0.60910900  0.32560300  0.93657500  1
  O  O21  1  0.86561300  0.67369500  0.25842200  1
  O  O22  1  0.96390600  0.18777400  0.28105100  1
  O  O23  1  0.85797300  0.47127100  0.66133200  1
  O  O24  1  0.35797300  0.52872900  0.83866800  1
  O  O25  1  0.03609400  0.81222600  0.71894900  1
  O  O26  1  0.70623400  0.08392100  0.58106500  1
  O  O27  1  0.09128500  0.72959900  0.10076400  1
loop_
_geom_bond_atom_site_label_1
_geom_bond_atom_site_label_2
_geom_bond_distance
_geom_bond_site_symmetry_2
Li0 O10 2.155384 1_545
Li0 O26 2.214586 1_555
Li0 O23 2.215309 1_555
Li0 O1 2.314148 1_555
Li0 O25 2.370364 1_645
Li1 O6 2.155384 1_565
Li1 O12 2.214586 1_555
Li1 O24 2.215309 1_555
Li1 O25 2.314148 1_555
Li1 O1 2.370364 1_565
Li2 O21 2.155384 1_545
Li2 O18 2.214586 1_555
Li2 O17 2.215309 1_555
Li2 O22 2.314148 1_555
Li2 O5 2.370364 1_545
Li3 O14 2.155384 1_565
Li3 O4 2.214586 1_555
Li3 O2 2.215309 1_555
Li3 O5 2.314148 1_555
Li3 O22 2.370364 1_465
Mn0 O9 1.933098 1_555
Mn0 O2 1.941377 1_555
Mn0 O3 1.955353 1_555
Mn0 O14 1.981272 1_555
Mn0 O4 2.114994 1_545
Mn1 O11 1.933098 1_555
Mn1 O23 1.941377 1_555
Mn1 O0 1.955353 1_555
Mn1 O10 1.981272 1_555
Mn1 O26 2.114994 1_565
Mn2 O15 1.933098 1_556
Mn2 O24 1.941377 1_555
Mn2 O13 1.955353 1_455
Mn2 O6 1.981272 1_555
Mn2 O12 2.114994 1_545
Mn3 O7 1.933098 1_554
Mn3 O17 1.941377 1_555
Mn3 O27 1.955353 1_655
Mn3 O21 1.981272 1_555
Mn3 O18 2.114994 1_565
O0 P3 1.542563 1_555
O1 P2 1.511982 1_555
O2 P4 1.548806 1_455
O3 P0 1.542563 1_555
O4 P3 1.515700 1_555
O5 P5 1.511982 1_555
O6 P1 1.553791 1_555
O7 P6 1.552288 1_555
O8 P3 1.610869 1_555
O8 P1 1.612445 1_555
O9 P3 1.552288 1_555
O10 P2 1.553791 1_555
O11 P0 1.552288 1_555
O12 P7 1.515700 1_556
O13 P6 1.542563 1_555
O14 P5 1.553791 1_555
O15 P7 1.552288 1_555
O16 P0 1.610869 1_555
O16 P4 1.612445 1_555
O17 P5 1.548806 1_555
O18 P6 1.515700 1_554
O19 P7 1.610869 1_555
O19 P5 1.612445 1_555
O20 P6 1.610869 1_555
O20 P2 1.612445 1_555
O21 P4 1.553791 1_555
O22 P4 1.511982 1_555
O23 P1 1.548806 1_655
O24 P2 1.548806 1_555
O25 P1 1.511982 1_555
O26 P0 1.515700 1_555
O27 P7 1.542563 1_555
