# generated using pymatgen
data_ZrSO
_symmetry_space_group_name_H-M   'P 1'
_cell_length_a   5.72243600
_cell_length_b   5.72243600
_cell_length_c   5.72243600
_cell_angle_alpha   90.00000000
_cell_angle_beta   90.00000000
_cell_angle_gamma   90.00000000
_symmetry_Int_Tables_number   1
_chemical_formula_structural   ZrSO
_chemical_formula_sum   'Zr4 S4 O4'
_cell_volume   187.38845591
_cell_formula_units_Z   4
loop_
 _symmetry_equiv_pos_site_id
 _symmetry_equiv_pos_as_xyz
  1  'x, y, z'
loop_
 _atom_site_type_symbol
 _atom_site_label
 _atom_site_symmetry_multiplicity
 _atom_site_fract_x
 _atom_site_fract_y
 _atom_site_fract_z
 _atom_site_occupancy
  Zr  Zr0  1  0.92874290  0.57125710  0.42874290  1
  Zr  Zr1  1  0.57125710  0.42874290  0.92874290  1
  Zr  Zr2  1  0.42874290  0.92874290  0.57125710  1
  Zr  Zr3  1  0.07125710  0.07125710  0.07125710  1
  S  S0  1  0.16785540  0.66785540  0.83214460  1
  S  S1  1  0.83214460  0.16785540  0.66785540  1
  S  S2  1  0.66785540  0.83214460  0.16785540  1
  S  S3  1  0.33214460  0.33214460  0.33214460  1
  O  O0  1  0.15538670  0.84461330  0.34461330  1
  O  O1  1  0.84461330  0.34461330  0.15538670  1
  O  O2  1  0.65538670  0.65538670  0.65538670  1
  O  O3  1  0.34461330  0.15538670  0.84461330  1
loop_
_geom_bond_atom_site_label_1
_geom_bond_atom_site_label_2
_geom_bond_distance
_geom_bond_site_symmetry_2
S0 Zr2 2.585799 1_555
S0 Zr3 2.739840 1_566
S0 Zr1 2.739840 1_555
S0 Zr0 2.739840 1_455
S1 Zr1 2.585799 1_555
S1 Zr0 2.739840 1_555
S1 Zr3 2.739840 1_656
S1 Zr2 2.739840 1_545
S2 Zr0 2.585799 1_555
S2 Zr2 2.739840 1_555
S2 Zr3 2.739840 1_665
S2 Zr1 2.739840 1_554
S3 Zr3 2.585799 1_555
S3 Zr2 2.739840 1_545
S3 Zr1 2.739840 1_554
S3 Zr0 2.739840 1_455
O0 Zr3 2.088249 1_565
O0 Zr0 2.088249 1_455
O0 Zr2 2.088249 1_555
O1 Zr0 2.088249 1_555
O1 Zr1 2.088249 1_554
O1 Zr3 2.088249 1_655
O2 Zr0 2.088249 1_555
O2 Zr2 2.088249 1_555
O2 Zr1 2.088249 1_555
O3 Zr3 2.088249 1_556
O3 Zr1 2.088249 1_555
O3 Zr2 2.088249 1_545
