# generated using pymatgen
data_Zr10CuSb6P
_symmetry_space_group_name_H-M   'P 1'
_cell_length_a   8.60241029
_cell_length_b   8.60241006
_cell_length_c   5.84215428
_cell_angle_alpha   90.00000000
_cell_angle_beta   90.00000000
_cell_angle_gamma   119.99999704
_symmetry_Int_Tables_number   1
_chemical_formula_structural   Zr10CuSb6P
_chemical_formula_sum   'Zr10 Cu1 Sb6 P1'
_cell_volume   374.40699966
_cell_formula_units_Z   1
loop_
 _symmetry_equiv_pos_site_id
 _symmetry_equiv_pos_as_xyz
  1  'x, y, z'
loop_
 _atom_site_type_symbol
 _atom_site_label
 _atom_site_symmetry_multiplicity
 _atom_site_fract_x
 _atom_site_fract_y
 _atom_site_fract_z
 _atom_site_occupancy
  Zr  Zr0  1  0.66666700  0.33333300  0.00000000  1
  Zr  Zr1  1  0.33333300  0.66666700  0.00000000  1
  Zr  Zr2  1  0.33333300  0.66666700  0.50000000  1
  Zr  Zr3  1  0.66666700  0.33333300  0.50000000  1
  Zr  Zr4  1  0.74138275  0.74138275  0.74529659  1
  Zr  Zr5  1  0.25861725  0.00000000  0.74529659  1
  Zr  Zr6  1  0.00000000  0.25861725  0.74529659  1
  Zr  Zr7  1  0.25861725  0.25861725  0.25470341  1
  Zr  Zr8  1  0.74138275  1.00000000  0.25470341  1
  Zr  Zr9  1  1.00000000  0.74138275  0.25470341  1
  Cu  Cu0  1  0.00000000  0.00000000  0.00000000  1
  Sb  Sb0  1  0.39180298  0.39180298  0.75420304  1
  Sb  Sb1  1  0.60819702  1.00000000  0.75420304  1
  Sb  Sb2  1  1.00000000  0.60819702  0.75420304  1
  Sb  Sb3  1  0.60819702  0.60819702  0.24579696  1
  Sb  Sb4  1  0.39180298  0.00000000  0.24579696  1
  Sb  Sb5  1  0.00000000  0.39180298  0.24579696  1
  P  P0  1  0.00000000  0.00000000  0.50000000  1
loop_
_geom_bond_atom_site_label_1
_geom_bond_atom_site_label_2
_geom_bond_distance
_geom_bond_site_symmetry_2
Cu0 Zr6 2.676495 1_554
Cu0 Zr9 2.676495 1_445
Cu0 Zr5 2.676495 1_554
Cu0 Zr8 2.676495 1_445
Cu0 Zr7 2.676495 1_555
Cu0 Zr4 2.676495 1_444
Cu0 P0 2.921077 1_554
Cu0 P0 2.921077 1_555
Sb0 Zr5 2.968792 1_555
Sb0 Zr6 2.968792 1_555
Sb0 Zr4 3.007679 1_555
Sb0 Zr1 3.015820 1_556
Sb0 Zr0 3.015820 1_556
Sb0 Zr2 3.039510 1_555
Sb0 Zr3 3.039510 1_555
Sb0 Zr7 3.135011 1_555
Sb0 Zr7 3.140454 1_556
Sb1 Zr4 2.968792 1_555
Sb1 Zr6 2.968792 1_665
Sb1 Zr5 3.007679 1_565
Sb1 Zr0 3.015812 1_566
Sb1 Zr1 3.015815 1_556
Sb1 Zr3 3.039502 1_565
Sb1 Zr2 3.039505 1_555
Sb1 Zr8 3.135011 1_555
Sb1 Zr8 3.140454 1_556
Sb2 Zr4 2.968792 1_555
Sb2 Zr5 2.968792 1_665
Sb2 Zr6 3.007679 1_655
Sb2 Zr1 3.015812 1_656
Sb2 Zr0 3.015815 1_556
Sb2 Zr2 3.039503 1_655
Sb2 Zr3 3.039505 1_555
Sb2 Zr9 3.135011 1_555
Sb2 Zr9 3.140454 1_556
Sb3 Zr8 2.968792 1_555
Sb3 Zr9 2.968792 1_555
Sb3 Zr7 3.007679 1_555
Sb3 Zr0 3.015820 1_555
Sb3 Zr1 3.015820 1_555
Sb3 Zr3 3.039510 1_555
Sb3 Zr2 3.039510 1_555
Sb3 Zr4 3.135011 1_555
Sb3 Zr4 3.140454 1_554
Sb4 Zr7 2.968792 1_555
Sb4 Zr9 2.968792 1_445
Sb4 Zr8 3.007679 1_545
Sb4 Zr1 3.015812 1_545
Sb4 Zr0 3.015815 1_555
Sb4 Zr2 3.039502 1_545
Sb4 Zr3 3.039505 1_555
Sb4 Zr5 3.135011 1_555
Sb4 Zr5 3.140454 1_554
Sb5 Zr7 2.968792 1_555
Sb5 Zr8 2.968792 1_445
Sb5 Zr9 3.007679 1_455
Sb5 Zr0 3.015812 1_455
Sb5 Zr1 3.015815 1_555
Sb5 Zr3 3.039503 1_455
Sb5 Zr2 3.039505 1_555
Sb5 Zr6 3.135011 1_555
Sb5 Zr6 3.140454 1_554
P0 Zr6 2.646336 1_555
P0 Zr9 2.646336 1_445
P0 Zr5 2.646336 1_555
P0 Zr8 2.646336 1_445
P0 Zr7 2.646336 1_555
P0 Zr4 2.646336 1_445
