# generated using pymatgen
data_Hf(NbS2)5
_symmetry_space_group_name_H-M   'P 1'
_cell_length_a   5.84757300
_cell_length_b   7.32600386
_cell_length_c   8.09785514
_cell_angle_alpha   109.51948794
_cell_angle_beta   97.14110841
_cell_angle_gamma   105.20434451
_symmetry_Int_Tables_number   1
_chemical_formula_structural   Hf(NbS2)5
_chemical_formula_sum   'Hf1 Nb5 S10'
_cell_volume   306.83832702
_cell_formula_units_Z   1
loop_
 _symmetry_equiv_pos_site_id
 _symmetry_equiv_pos_as_xyz
  1  'x, y, z'
loop_
 _atom_site_type_symbol
 _atom_site_label
 _atom_site_symmetry_multiplicity
 _atom_site_fract_x
 _atom_site_fract_y
 _atom_site_fract_z
 _atom_site_occupancy
  Hf  Hf0  1  0.66922581  0.51329353  0.98942525  1
  Nb  Nb0  1  0.00414308  0.99829514  0.00131144  1
  Nb  Nb1  1  0.59902060  0.20213162  0.20386445  1
  Nb  Nb2  1  0.19857655  0.39953456  0.39833543  1
  Nb  Nb3  1  0.79640375  0.59895046  0.60193357  1
  Nb  Nb4  1  0.40061961  0.79549195  0.79926674  1
  S  S0  1  0.23403277  0.05203254  0.30043601  1
  S  S1  1  0.04378653  0.64488189  0.90270782  1
  S  S2  1  0.83472383  0.25109756  0.49869139  1
  S  S3  1  0.63427072  0.85551395  0.11011330  1
  S  S4  1  0.42204708  0.43356309  0.69228912  1
  S  S5  1  0.89981603  0.55622312  0.30094473  1
  S  S6  1  0.70007137  0.14879086  0.89871571  1
  S  S7  1  0.49847654  0.74964747  0.50329485  1
  S  S8  1  0.29922059  0.35272205  0.09778920  1
  S  S9  1  0.09836613  0.94542821  0.70247901  1
loop_
_geom_bond_atom_site_label_1
_geom_bond_atom_site_label_2
_geom_bond_distance
_geom_bond_site_symmetry_2
Hf0 S1 2.438649 1_655
Hf0 S3 2.442048 1_556
Hf0 S4 2.444024 1_555
Hf0 S8 2.581082 1_556
Hf0 S6 2.584115 1_555
Hf0 S5 2.585047 1_556
Nb0 S0 2.470844 1_565
Nb0 S9 2.475201 1_554
Nb0 S8 2.507762 1_565
Nb0 S6 2.518034 1_464
Nb0 S1 2.524700 1_554
Nb0 S3 2.539949 1_455
Nb1 S2 2.465475 1_555
Nb1 S3 2.468237 1_545
Nb1 S0 2.476803 1_555
Nb1 S8 2.510311 1_555
Nb1 S5 2.518173 1_555
Nb1 S6 2.539060 1_554
Nb2 S4 2.468854 1_555
Nb2 S0 2.474188 1_555
Nb2 S2 2.485306 1_455
Nb2 S7 2.487953 1_555
Nb2 S8 2.508281 1_555
Nb2 S5 2.511184 1_455
Nb3 S9 2.476753 1_655
Nb3 S7 2.478729 1_555
Nb3 S2 2.483089 1_555
Nb3 S5 2.521963 1_555
Nb3 S4 2.528815 1_555
Nb3 S1 2.541479 1_655
Nb4 S7 2.467482 1_555
Nb4 S1 2.473376 1_555
Nb4 S9 2.488766 1_555
Nb4 S6 2.508612 1_565
Nb4 S4 2.542216 1_555
Nb4 S3 2.546857 1_556
