# generated using pymatgen
data_Li2InSbPd4
_symmetry_space_group_name_H-M   'P 1'
_cell_length_a   7.72893514
_cell_length_b   7.72893592
_cell_length_c   7.72893647
_cell_angle_alpha   33.53150199
_cell_angle_beta   33.53149357
_cell_angle_gamma   33.53150173
_symmetry_Int_Tables_number   1
_chemical_formula_structural   Li2InSbPd4
_chemical_formula_sum   'Li2 In1 Sb1 Pd4'
_cell_volume   125.48263365
_cell_formula_units_Z   1
loop_
 _symmetry_equiv_pos_site_id
 _symmetry_equiv_pos_as_xyz
  1  'x, y, z'
loop_
 _atom_site_type_symbol
 _atom_site_label
 _atom_site_symmetry_multiplicity
 _atom_site_fract_x
 _atom_site_fract_y
 _atom_site_fract_z
 _atom_site_occupancy
  Li  Li0  1  0.25082042  0.25082042  0.25082042  1
  Li  Li1  1  0.74917958  0.74917958  0.74917958  1
  In  In0  1  0.00000000  0.00000000  0.00000000  1
  Sb  Sb0  1  0.50000000  0.50000000  0.50000000  1
  Pd  Pd0  1  0.62327080  0.62327080  0.62327080  1
  Pd  Pd1  1  0.12623712  0.12623712  0.12623712  1
  Pd  Pd2  1  0.87376288  0.87376288  0.87376288  1
  Pd  Pd3  1  0.37672920  0.37672920  0.37672920  1
loop_
_geom_bond_atom_site_label_1
_geom_bond_atom_site_label_2
_geom_bond_distance
_geom_bond_site_symmetry_2
Li0 Pd0 2.712720 1_554
Li0 Pd0 2.712720 1_455
Li0 Pd0 2.712720 1_545
Li0 Pd1 2.723736 1_555
Li0 Pd2 2.746138 1_445
Li0 Pd2 2.746138 1_544
Li0 Pd2 2.746139 1_454
Li0 Pd3 2.752715 1_555
Li0 Sb0 3.164247 1_455
Li0 Sb0 3.164248 1_545
Li0 Sb0 3.164248 1_554
Li1 Pd3 2.712720 1_556
Li1 Pd3 2.712720 1_655
Li1 Pd3 2.712720 1_565
Li1 Pd2 2.723736 1_555
Li1 Pd1 2.746138 1_665
Li1 Pd1 2.746138 1_566
Li1 Pd1 2.746139 1_656
Li1 Pd0 2.752715 1_555
Li1 Sb0 3.164247 1_655
Li1 Sb0 3.164248 1_565
Li1 Sb0 3.164248 1_556
In0 Pd3 2.743648 1_554
In0 Pd0 2.743648 1_445
In0 Pd3 2.743648 1_455
In0 Pd0 2.743648 1_544
In0 Pd3 2.743648 1_545
In0 Pd0 2.743648 1_454
In0 Pd1 2.759894 1_555
In0 Pd2 2.759894 1_444
In0 Li1 3.143524 1_544
In0 Li0 3.143524 1_455
In0 Li1 3.143525 1_454
In0 Li0 3.143525 1_545
In0 Li1 3.143525 1_445
In0 Li0 3.143525 1_554
Pd0 Sb0 2.695041 1_555
Pd1 Sb0 2.721902 1_554
Pd1 Sb0 2.721902 1_455
Pd1 Sb0 2.721903 1_545
Pd2 Sb0 2.721902 1_556
Pd2 Sb0 2.721902 1_655
Pd2 Sb0 2.721903 1_565
Pd3 Sb0 2.695041 1_555
