# generated using pymatgen
data_Cu13Se8
_symmetry_space_group_name_H-M   'P 1'
_cell_length_a   8.09644194
_cell_length_b   8.09644194
_cell_length_c   8.09644194
_cell_angle_alpha   60.00000000
_cell_angle_beta   60.00000000
_cell_angle_gamma   60.00000000
_symmetry_Int_Tables_number   1
_chemical_formula_structural   Cu13Se8
_chemical_formula_sum   'Cu13 Se8'
_cell_volume   375.29054237
_cell_formula_units_Z   1
loop_
 _symmetry_equiv_pos_site_id
 _symmetry_equiv_pos_as_xyz
  1  'x, y, z'
loop_
 _atom_site_type_symbol
 _atom_site_label
 _atom_site_symmetry_multiplicity
 _atom_site_fract_x
 _atom_site_fract_y
 _atom_site_fract_z
 _atom_site_occupancy
  Cu  Cu0  1  0.74682500  0.25317500  0.25317500  1
  Cu  Cu1  1  0.25317500  0.25317500  0.74682500  1
  Cu  Cu2  1  0.25317500  0.74682500  0.25317500  1
  Cu  Cu3  1  0.74682500  0.25317500  0.74682500  1
  Cu  Cu4  1  0.74682500  0.74682500  0.25317500  1
  Cu  Cu5  1  0.25317500  0.74682500  0.74682500  1
  Cu  Cu6  1  0.99579300  0.50420700  0.50420700  1
  Cu  Cu7  1  0.50420700  0.50420700  0.99579300  1
  Cu  Cu8  1  0.50420700  0.99579300  0.50420700  1
  Cu  Cu9  1  0.99579300  0.50420700  0.99579300  1
  Cu  Cu10  1  0.50420700  0.99579300  0.99579300  1
  Cu  Cu11  1  0.99579300  0.99579300  0.50420700  1
  Cu  Cu12  1  0.00000000  0.00000000  0.00000000  1
  Se  Se0  1  0.12725200  0.12725200  0.12725200  1
  Se  Se1  1  0.61824400  0.12725200  0.12725200  1
  Se  Se2  1  0.12725200  0.12725200  0.61824400  1
  Se  Se3  1  0.12725200  0.61824400  0.12725200  1
  Se  Se4  1  0.62492300  0.12523000  0.62492300  1
  Se  Se5  1  0.62492300  0.62492300  0.12523000  1
  Se  Se6  1  0.12523000  0.62492300  0.62492300  1
  Se  Se7  1  0.62492300  0.62492300  0.62492300  1
loop_
_geom_bond_atom_site_label_1
_geom_bond_atom_site_label_2
_geom_bond_distance
_geom_bond_site_symmetry_2
Cu0 Se4 2.457683 1_555
Cu0 Se5 2.457683 1_555
Cu0 Se1 2.514926 1_555
Cu0 Se0 2.514926 1_655
Cu1 Se4 2.457683 1_555
Cu1 Se6 2.457683 1_555
Cu1 Se2 2.514926 1_555
Cu1 Se0 2.514926 1_556
Cu2 Se5 2.457683 1_555
Cu2 Se6 2.457683 1_555
Cu2 Se3 2.514926 1_555
Cu2 Se0 2.514926 1_565
Cu3 Se7 2.457683 1_555
Cu3 Se4 2.457690 1_555
Cu3 Se2 2.514926 1_655
Cu3 Se1 2.514926 1_556
Cu4 Se7 2.457683 1_555
Cu4 Se5 2.457690 1_555
Cu4 Se3 2.514926 1_655
Cu4 Se1 2.514926 1_565
Cu5 Se7 2.457683 1_555
Cu5 Se6 2.457690 1_555
Cu5 Se3 2.514926 1_556
Cu5 Se2 2.514926 1_565
Cu6 Se6 2.452049 1_655
Cu6 Se7 2.452056 1_555
Cu6 Se2 2.493273 1_655
Cu6 Se3 2.493273 1_655
Cu7 Se5 2.452049 1_556
Cu7 Se7 2.452056 1_555
Cu7 Se1 2.493273 1_556
Cu7 Se3 2.493273 1_556
Cu8 Se4 2.452049 1_565
Cu8 Se7 2.452056 1_555
Cu8 Se2 2.493273 1_565
Cu8 Se1 2.493273 1_565
Cu9 Se5 2.452056 1_556
Cu9 Se6 2.452056 1_655
Cu9 Se0 2.493273 1_656
Cu9 Se3 2.493273 1_656
Cu10 Se5 2.452056 1_556
Cu10 Se4 2.452056 1_565
Cu10 Se0 2.493273 1_566
Cu10 Se1 2.493273 1_566
Cu11 Se6 2.452056 1_655
Cu11 Se4 2.452056 1_565
Cu11 Se0 2.493273 1_665
Cu11 Se2 2.493273 1_665
Cu12 Se3 2.523681 1_545
Cu12 Se2 2.523681 1_554
Cu12 Se1 2.523681 1_455
Cu12 Se0 2.523681 1_555
