# generated using pymatgen
data_RbBeVO4
_symmetry_space_group_name_H-M   'P 1'
_cell_length_a   5.41444191
_cell_length_b   5.41444109
_cell_length_c   5.40252881
_cell_angle_alpha   60.07349787
_cell_angle_beta   60.07350714
_cell_angle_gamma   60.19042155
_symmetry_Int_Tables_number   1
_chemical_formula_structural   RbBeVO4
_chemical_formula_sum   'Rb1 Be1 V1 O4'
_cell_volume   112.27770365
_cell_formula_units_Z   1
loop_
 _symmetry_equiv_pos_site_id
 _symmetry_equiv_pos_as_xyz
  1  'x, y, z'
loop_
 _atom_site_type_symbol
 _atom_site_label
 _atom_site_symmetry_multiplicity
 _atom_site_fract_x
 _atom_site_fract_y
 _atom_site_fract_z
 _atom_site_occupancy
  Rb  Rb0  1  0.00225982  0.00225982  0.98218342  1
  Be  Be0  1  0.74997869  0.74997869  0.73437134  1
  V  V0  1  0.49983384  0.49983384  0.48448691  1
  O  O0  1  0.62830457  0.11418152  0.59515897  1
  O  O1  1  0.64605682  0.64605682  0.09885370  1
  O  O2  1  0.11418152  0.62830457  0.59515897  1
  O  O3  1  0.61038573  0.61038573  0.64908368  1
loop_
_geom_bond_atom_site_label_1
_geom_bond_atom_site_label_2
_geom_bond_distance
_geom_bond_site_symmetry_2
Be0 O0 1.615924 1_565
Be0 O2 1.615924 1_655
Be0 O1 1.616914 1_556
Be0 O3 1.617951 1_555
O0 V0 1.710743 1_555
O0 Rb0 3.086390 1_654
O0 Rb0 3.152038 1_555
O0 Rb0 3.252504 1_655
O1 V0 1.710492 1_555
O1 Rb0 3.018100 1_664
O1 Rb0 3.250071 1_654
O1 Rb0 3.250071 1_564
O2 V0 1.710743 1_555
O2 Rb0 3.086390 1_564
O2 Rb0 3.152038 1_555
O2 Rb0 3.252504 1_565
O3 V0 1.710483 1_555
O3 Rb0 3.087653 1_655
O3 Rb0 3.087653 1_565
O3 Rb0 3.347507 1_664
