# generated using pymatgen
data_Sm(DyS2)2
_symmetry_space_group_name_H-M   'P 1'
_cell_length_a   7.24550812
_cell_length_b   7.24550812
_cell_length_c   7.24550812
_cell_angle_alpha   109.30465118
_cell_angle_beta   109.30465118
_cell_angle_gamma   109.80487565
_symmetry_Int_Tables_number   1
_chemical_formula_structural   Sm(DyS2)2
_chemical_formula_sum   'Sm2 Dy4 S8'
_cell_volume   292.80170346
_cell_formula_units_Z   2
loop_
 _symmetry_equiv_pos_site_id
 _symmetry_equiv_pos_as_xyz
  1  'x, y, z'
loop_
 _atom_site_type_symbol
 _atom_site_label
 _atom_site_symmetry_multiplicity
 _atom_site_fract_x
 _atom_site_fract_y
 _atom_site_fract_z
 _atom_site_occupancy
  Sm  Sm0  1  0.25000000  0.75000000  0.50000000  1
  Sm  Sm1  1  0.00000000  0.00000000  0.00000000  1
  Dy  Dy0  1  0.49917300  0.87500000  0.12417300  1
  Dy  Dy1  1  0.75082700  0.37500000  0.87582700  1
  Dy  Dy2  1  0.12500000  0.24917300  0.62417300  1
  Dy  Dy3  1  0.62500000  0.50082700  0.37582700  1
  S  S0  1  0.01659900  0.61971500  0.74778400  1
  S  S1  1  0.51881600  0.62193200  0.75221600  1
  S  S2  1  0.86971500  0.76659900  0.24778400  1
  S  S3  1  0.73118400  0.98340100  0.60311600  1
  S  S4  1  0.87193200  0.26881600  0.25221600  1
  S  S5  1  0.37806800  0.13028500  0.89688400  1
  S  S6  1  0.38028500  0.12806800  0.39688400  1
  S  S7  1  0.23340100  0.48118400  0.10311600  1
loop_
_geom_bond_atom_site_label_1
_geom_bond_atom_site_label_2
_geom_bond_distance
_geom_bond_site_symmetry_2
Dy0 S7 2.769084 1_555
Dy0 S4 2.769087 1_565
Dy0 S6 2.794388 1_565
Dy0 S1 2.794393 1_554
Dy0 S3 2.988505 1_555
Dy0 S2 2.988506 1_555
Dy0 S0 3.010257 1_554
Dy0 S5 3.010259 1_564
Dy1 S0 2.769079 1_655
Dy1 S5 2.769084 1_555
Dy1 S3 2.794388 1_545
Dy1 S2 2.794392 1_556
Dy1 S6 2.988505 1_555
Dy1 S1 2.988507 1_555
Dy1 S4 3.010253 1_556
Dy1 S7 3.010259 1_656
Dy2 S3 2.769084 1_445
Dy2 S1 2.769087 1_555
Dy2 S5 2.794388 1_555
Dy2 S4 2.794393 1_455
Dy2 S7 2.988505 1_556
Dy2 S0 2.988506 1_555
Dy2 S2 3.010257 1_445
Dy2 S6 3.010259 1_555
Dy3 S2 2.769079 1_555
Dy3 S6 2.769084 1_555
Dy3 S7 2.794388 1_555
Dy3 S0 2.794392 1_655
Dy3 S5 2.988505 1_554
Dy3 S4 2.988507 1_555
Dy3 S1 3.010253 1_555
Dy3 S3 3.010259 1_555
S0 Sm1 2.826065 1_566
S0 Sm0 3.003383 1_555
S1 Sm0 2.826063 1_555
S1 Sm1 3.003376 1_666
S2 Sm0 2.826065 1_655
S2 Sm1 3.003383 1_665
S3 Sm1 2.826067 1_666
S3 Sm0 3.003376 1_555
S4 Sm1 2.826063 1_655
S4 Sm0 3.003376 1_655
S5 Sm0 2.826067 1_545
S5 Sm1 3.003376 1_556
S6 Sm1 2.826067 1_555
S6 Sm0 3.003376 1_545
S7 Sm0 2.826067 1_555
S7 Sm1 3.003376 1_555
