# generated using pymatgen
data_Ca(AlBr4)2
_symmetry_space_group_name_H-M   'P 1'
_cell_length_a   7.26434390
_cell_length_b   7.61535145
_cell_length_c   14.04857148
_cell_angle_alpha   87.91448934
_cell_angle_beta   90.00000000
_cell_angle_gamma   90.00000000
_symmetry_Int_Tables_number   1
_chemical_formula_structural   Ca(AlBr4)2
_chemical_formula_sum   'Ca2 Al4 Br16'
_cell_volume   776.65966735
_cell_formula_units_Z   2
loop_
 _symmetry_equiv_pos_site_id
 _symmetry_equiv_pos_as_xyz
  1  'x, y, z'
loop_
 _atom_site_type_symbol
 _atom_site_label
 _atom_site_symmetry_multiplicity
 _atom_site_fract_x
 _atom_site_fract_y
 _atom_site_fract_z
 _atom_site_occupancy
  Ca  Ca0  1  0.73349874  0.99275547  0.50055592  1
  Ca  Ca1  1  0.26650126  0.99275547  0.00055592  1
  Al  Al0  1  0.92675796  0.43174326  0.54209882  1
  Al  Al1  1  0.43995696  0.85885424  0.23980332  1
  Al  Al2  1  0.56004304  0.85885424  0.73980332  1
  Al  Al3  1  0.07324204  0.43174326  0.04209882  1
  Br  Br0  1  0.92861309  0.45856876  0.18234477  1
  Br  Br1  1  0.07138691  0.45856876  0.68234477  1
  Br  Br2  1  0.61921910  0.34610997  0.55903960  1
  Br  Br3  1  0.38078090  0.34610997  0.05903960  1
  Br  Br4  1  0.94262848  0.68693098  0.44410560  1
  Br  Br5  1  0.05737152  0.68693098  0.94410560  1
  Br  Br6  1  0.41124604  0.83878211  0.59266012  1
  Br  Br7  1  0.58875396  0.83878211  0.09266012  1
  Br  Br8  1  0.05677311  0.20822502  0.45337098  1
  Br  Br9  1  0.94322689  0.20822502  0.95337098  1
  Br  Br10  1  0.14034041  0.94303714  0.19885887  1
  Br  Br11  1  0.85965959  0.94303714  0.69885887  1
  Br  Br12  1  0.44820795  0.60968099  0.33072876  1
  Br  Br13  1  0.55179205  0.60968099  0.83072876  1
  Br  Br14  1  0.57655991  0.09391206  0.31543326  1
  Br  Br15  1  0.42344009  0.09391206  0.81543326  1
loop_
_geom_bond_atom_site_label_1
_geom_bond_atom_site_label_2
_geom_bond_distance
_geom_bond_site_symmetry_2
Al0 Br1 2.248725 1_655
Al0 Br2 2.337023 1_555
Al0 Br4 2.343153 1_555
Al0 Br8 2.344696 1_655
Al1 Br12 2.249339 1_555
Al1 Br10 2.335004 1_555
Al1 Br14 2.335874 1_565
Al1 Br7 2.342616 1_555
Al2 Br13 2.249339 1_555
Al2 Br11 2.335004 1_555
Al2 Br15 2.335874 1_565
Al2 Br6 2.342616 1_555
Al3 Br0 2.248725 1_455
Al3 Br3 2.337023 1_555
Al3 Br5 2.343153 1_554
Al3 Br9 2.344696 1_454
Br2 Ca0 2.960773 1_545
Br3 Ca1 2.960773 1_545
Br4 Ca0 2.914678 1_555
Br5 Ca1 2.914678 1_556
Br6 Ca0 2.901517 1_555
Br7 Ca1 2.901517 1_555
Br8 Ca0 2.927045 1_445
Br9 Ca1 2.927045 1_646
Br10 Ca1 2.944079 1_555
Br11 Ca0 2.944079 1_555
Br14 Ca0 2.917367 1_545
Br15 Ca1 2.917367 1_546
