# generated using pymatgen
data_Ba3Te2(IO3)2
_symmetry_space_group_name_H-M   'P 1'
_cell_length_a   7.70758838
_cell_length_b   7.70758840
_cell_length_c   15.31348441
_cell_angle_alpha   87.69487905
_cell_angle_beta   87.69487872
_cell_angle_gamma   46.72080979
_symmetry_Int_Tables_number   1
_chemical_formula_structural   Ba3Te2(IO3)2
_chemical_formula_sum   'Ba6 Te4 I4 O12'
_cell_volume   661.66507213
_cell_formula_units_Z   2
loop_
 _symmetry_equiv_pos_site_id
 _symmetry_equiv_pos_as_xyz
  1  'x, y, z'
loop_
 _atom_site_type_symbol
 _atom_site_label
 _atom_site_symmetry_multiplicity
 _atom_site_fract_x
 _atom_site_fract_y
 _atom_site_fract_z
 _atom_site_occupancy
  Ba  Ba0  1  0.55204398  0.44795602  0.25000000  1
  Ba  Ba1  1  0.44795602  0.55204398  0.75000000  1
  Ba  Ba2  1  0.79500862  0.78724756  0.34458976  1
  Ba  Ba3  1  0.21275244  0.20499138  0.15541024  1
  Ba  Ba4  1  0.20499138  0.21275244  0.65541024  1
  Ba  Ba5  1  0.78724756  0.79500862  0.84458976  1
  Te  Te0  1  0.89226062  0.90927809  0.62111938  1
  Te  Te1  1  0.09072191  0.10773938  0.87888062  1
  Te  Te2  1  0.10773938  0.09072191  0.37888062  1
  Te  Te3  1  0.90927809  0.89226062  0.12111938  1
  I  I0  1  0.34947297  0.36384845  0.45250431  1
  I  I1  1  0.63615155  0.65052703  0.04749569  1
  I  I2  1  0.65052703  0.63615155  0.54749569  1
  I  I3  1  0.36384845  0.34947297  0.95250431  1
  O  O0  1  0.94296349  0.36697879  0.30707807  1
  O  O1  1  0.63302121  0.05703651  0.19292193  1
  O  O2  1  0.05703651  0.63302121  0.69292193  1
  O  O3  1  0.36697879  0.94296349  0.80707807  1
  O  O4  1  0.97727933  0.07077862  0.14982126  1
  O  O5  1  0.92922138  0.02272067  0.35017874  1
  O  O6  1  0.02272067  0.92922138  0.85017874  1
  O  O7  1  0.07077862  0.97727933  0.64982126  1
  O  O8  1  0.11085901  0.62165388  0.19509875  1
  O  O9  1  0.37834612  0.88914099  0.30490125  1
  O  O10  1  0.88914099  0.37834612  0.80490125  1
  O  O11  1  0.62165388  0.11085901  0.69509875  1
loop_
_geom_bond_atom_site_label_1
_geom_bond_atom_site_label_2
_geom_bond_distance
_geom_bond_site_symmetry_2
Ba0 O1 2.796695 1_555
Ba0 O0 2.796695 1_555
Ba0 O9 2.821317 1_555
Ba0 O8 2.821317 1_555
Ba0 O4 2.904675 1_555
Ba0 O5 2.904675 1_555
Ba0 I0 3.648436 1_555
Ba0 I1 3.648436 1_555
Ba1 O3 2.796695 1_555
Ba1 O2 2.796695 1_555
Ba1 O11 2.821317 1_555
Ba1 O10 2.821317 1_555
Ba1 O6 2.904675 1_555
Ba1 O7 2.904675 1_555
Ba1 I2 3.648436 1_555
Ba1 I3 3.648436 1_555
Ba2 O5 2.639171 1_565
Ba2 O0 2.674955 1_555
Ba2 O1 2.749943 1_565
Ba2 O9 2.821375 1_555
Ba2 O8 2.884891 1_655
Ba2 I0 3.557591 1_655
Ba2 I2 3.668758 1_555
Ba2 I0 3.671986 1_565
Ba3 O4 2.639171 1_455
Ba3 O1 2.674955 1_555
Ba3 O0 2.749943 1_455
Ba3 O8 2.821375 1_555
Ba3 O9 2.884891 1_545
Ba3 I1 3.557591 1_545
Ba3 I3 3.668758 1_554
Ba3 I1 3.671986 1_455
Ba4 O7 2.639171 1_545
Ba4 O2 2.674955 1_555
Ba4 O3 2.749943 1_545
Ba4 O11 2.821375 1_555
Ba4 O10 2.884891 1_455
Ba4 I2 3.557591 1_455
Ba4 I0 3.668758 1_555
Ba4 I2 3.671986 1_545
Ba5 O6 2.639171 1_655
Ba5 O3 2.674955 1_555
Ba5 O2 2.749943 1_655
Ba5 O10 2.821375 1_555
Ba5 O11 2.884891 1_565
Ba5 I3 3.557591 1_565
Ba5 I1 3.668758 1_556
Ba5 I3 3.671986 1_655
O0 Te2 1.889969 1_655
O1 Te3 1.889969 1_545
O2 Te0 1.889969 1_455
O3 Te1 1.889969 1_565
O4 Te3 1.848537 1_545
O5 Te2 1.848537 1_655
O6 Te1 1.848537 1_565
O7 Te0 1.848537 1_455
O8 Te3 1.885728 1_455
O9 Te2 1.885728 1_565
O10 Te1 1.885728 1_655
O11 Te0 1.885728 1_545
