# generated using pymatgen
data_LiY7(IO6)4
_symmetry_space_group_name_H-M   'P 1'
_cell_length_a   5.39634302
_cell_length_b   7.68117077
_cell_length_c   11.41769354
_cell_angle_alpha   76.08176081
_cell_angle_beta   89.39575252
_cell_angle_gamma   89.76745844
_symmetry_Int_Tables_number   1
_chemical_formula_structural   LiY7(IO6)4
_chemical_formula_sum   'Li1 Y7 I4 O24'
_cell_volume   459.34482835
_cell_formula_units_Z   1
loop_
 _symmetry_equiv_pos_site_id
 _symmetry_equiv_pos_as_xyz
  1  'x, y, z'
loop_
 _atom_site_type_symbol
 _atom_site_label
 _atom_site_symmetry_multiplicity
 _atom_site_fract_x
 _atom_site_fract_y
 _atom_site_fract_z
 _atom_site_occupancy
  Li  Li0  1  0.22856500  0.73173834  0.07742491  1
  Y  Y0  1  0.25117136  0.01450412  0.75608421  1
  Y  Y1  1  0.74429048  0.98700106  0.23866427  1
  Y  Y2  1  0.31531425  0.49840538  0.76542244  1
  Y  Y3  1  0.17984398  0.20670779  0.42618326  1
  Y  Y4  1  0.69576217  0.50199539  0.24578915  1
  Y  Y5  1  0.82422787  0.22107799  0.91876236  1
  Y  Y6  1  0.80810827  0.80040290  0.57807039  1
  I  I0  1  0.73907826  0.73608044  0.89119901  1
  I  I1  1  0.24786813  0.72815657  0.37527637  1
  I  I2  1  0.73224031  0.29240031  0.60976270  1
  I  I3  1  0.26020342  0.26596304  0.11985525  1
  O  O0  1  0.82326920  0.35098680  0.43451085  1
  O  O1  1  0.44962796  0.82713510  0.94114309  1
  O  O2  1  0.87017498  0.66285252  0.04394904  1
  O  O3  1  0.06475383  0.28610927  0.75729643  1
  O  O4  1  0.98514996  0.29419258  0.22246730  1
  O  O5  1  0.14925518  0.37227327  0.96725118  1
  O  O6  1  0.63584141  0.50386915  0.89261650  1
  O  O7  1  0.54227158  0.16371054  0.06694628  1
  O  O8  1  0.12480876  0.64009717  0.53202141  1
  O  O9  1  0.01124899  0.70187933  0.78453285  1
  O  O10  1  0.43772841  0.18437870  0.27111131  1
  O  O11  1  0.06096244  0.94301800  0.37865809  1
  O  O12  1  0.46559705  0.16349178  0.57049466  1
  O  O13  1  0.96483809  0.70057237  0.28466165  1
  O  O14  1  0.00970806  0.03457272  0.59576574  1
  O  O15  1  0.54638991  0.22863380  0.77422636  1
  O  O16  1  0.55963434  0.80169529  0.73557026  1
  O  O17  1  0.07021995  0.06510665  0.10445302  1
  O  O18  1  0.60476861  0.51937056  0.60638012  1
  O  O19  1  0.38461179  0.48635322  0.12292662  1
  O  O20  1  0.42794568  0.79240880  0.22651998  1
  O  O21  1  0.36170777  0.49821378  0.38081646  1
  O  O22  1  0.52448673  0.83797339  0.42923380  1
  O  O23  1  0.89832780  0.95666985  0.87395167  1
loop_
_geom_bond_atom_site_label_1
_geom_bond_atom_site_label_2
_geom_bond_distance
_geom_bond_site_symmetry_2
Li0 O1 1.949528 1_554
Li0 O19 2.014178 1_555
Li0 O2 2.070650 1_455
Li0 O20 2.167265 1_555
I0 O2 1.846467 1_556
I0 O1 1.848871 1_555
I0 O6 1.867093 1_555
I0 O23 1.869749 1_555
I0 O9 1.955112 1_655
I0 O16 1.987623 1_555
I1 O21 1.854514 1_555
I1 O8 1.870197 1_555
I1 O13 1.894586 1_455
I1 O22 1.897084 1_555
I1 O20 1.907476 1_555
I1 O11 1.938783 1_555
I2 O18 1.863475 1_555
I2 O12 1.868321 1_555
I2 O0 1.998893 1_555
I2 O15 2.072114 1_555
I2 O3 2.466468 1_655
I2 O14 2.512504 1_655
I3 O19 1.831933 1_555
I3 O5 1.842482 1_554
I3 O7 1.870260 1_555
I3 O17 1.899850 1_555
I3 O4 1.925011 1_455
I3 O10 1.949959 1_555
O0 Y3 2.229190 1_655
O0 Y4 2.298760 1_555
O1 Y0 2.501013 1_565
O2 Y4 2.513421 1_555
O3 Y2 2.142256 1_555
O3 Y5 2.201077 1_455
O3 Y0 2.315417 1_555
O4 Y4 2.287539 1_555
O4 Y3 2.501880 1_655
O4 Y1 2.664798 1_545
O5 Y5 2.253432 1_455
O5 Y2 2.437510 1_555
O6 Y2 2.277168 1_555
O6 Y5 2.348920 1_555
O7 Y5 2.228072 1_554
O7 Y1 2.372274 1_545
O8 Y6 2.233563 1_455
O8 Y2 2.827806 1_555
O9 Y2 2.306159 1_555
O9 Y6 2.553612 1_455
O9 Y0 2.681278 1_565
O10 Y3 2.278846 1_555
O10 Y1 2.325823 1_545
O10 Y4 2.766624 1_555
O11 Y3 2.314099 1_565
O11 Y1 2.320004 1_455
O11 Y6 2.644338 1_455
O12 Y3 2.233664 1_555
O12 Y0 2.435401 1_555
O13 Y4 2.233645 1_555
O13 Y1 2.443116 1_555
O14 Y6 2.157548 1_445
O14 Y0 2.232748 1_555
O14 Y3 2.254092 1_555
O15 Y5 2.231610 1_555
O15 Y0 2.340570 1_555
O15 Y2 2.395901 1_555
O16 Y6 2.233704 1_555
O16 Y0 2.377293 1_565
O16 Y2 2.629647 1_555
O17 Y1 2.304571 1_445
O17 Y5 2.552847 1_454
O18 Y2 2.358978 1_555
O18 Y6 2.375796 1_555
O19 Y4 2.221260 1_555
O20 Y1 2.300644 1_555
O20 Y4 2.618706 1_555
O21 Y4 2.355329 1_555
O21 Y3 2.386254 1_555
O22 Y6 2.264725 1_555
O22 Y1 2.491992 1_555
O23 Y5 2.243984 1_565
O23 Y0 2.301984 1_665
