# generated using pymatgen
data_Ca10TcGeN10
_symmetry_space_group_name_H-M   'P 1'
_cell_length_a   6.83769766
_cell_length_b   6.83769713
_cell_length_c   8.81606206
_cell_angle_alpha   80.94295269
_cell_angle_beta   80.94294578
_cell_angle_gamma   59.91251151
_symmetry_Int_Tables_number   1
_chemical_formula_structural   Ca10TcGeN10
_chemical_formula_sum   'Ca10 Tc1 Ge1 N10'
_cell_volume   350.71323218
_cell_formula_units_Z   1
loop_
 _symmetry_equiv_pos_site_id
 _symmetry_equiv_pos_as_xyz
  1  'x, y, z'
loop_
 _atom_site_type_symbol
 _atom_site_label
 _atom_site_symmetry_multiplicity
 _atom_site_fract_x
 _atom_site_fract_y
 _atom_site_fract_z
 _atom_site_occupancy
  Ca  Ca0  1  0.88507274  0.35328620  0.83394536  1
  Ca  Ca1  1  0.87701764  0.87701764  0.82012070  1
  Ca  Ca2  1  0.73796578  0.73796578  0.53835564  1
  Ca  Ca3  1  0.74500921  0.25165139  0.51600677  1
  Ca  Ca4  1  0.62621488  0.13496206  0.14152729  1
  Ca  Ca5  1  0.35328620  0.88507274  0.83394536  1
  Ca  Ca6  1  0.25165139  0.74500921  0.51600677  1
  Ca  Ca7  1  0.24341732  0.24341732  0.50269428  1
  Ca  Ca8  1  0.14012965  0.14012965  0.15906963  1
  Ca  Ca9  1  0.13496206  0.62621488  0.14152729  1
  Tc  Tc0  1  0.63219174  0.63219174  0.22866005  1
  Ge  Ge0  1  0.36955701  0.36955701  0.76893510  1
  N  N0  1  0.90451921  0.47403604  0.31774639  1
  N  N1  1  0.99490981  0.99490981  0.01983398  1
  N  N2  1  0.68101548  0.68101548  0.02570265  1
  N  N3  1  0.53580594  0.53580594  0.69722824  1
  N  N4  1  0.47403604  0.90451921  0.31774639  1
  N  N5  1  0.54126550  0.08280383  0.67295376  1
  N  N6  1  0.47522474  0.47522474  0.29139911  1
  N  N7  1  0.31375380  0.31375380  0.98090263  1
  N  N8  1  0.06247705  0.06247705  0.64854683  1
  N  N9  1  0.08280383  0.54126550  0.67295376  1
loop_
_geom_bond_atom_site_label_1
_geom_bond_atom_site_label_2
_geom_bond_distance
_geom_bond_site_symmetry_2
Ca0 N9 2.461389 1_655
Ca0 N8 2.465272 1_655
Ca0 N3 2.481534 1_555
Ca0 N1 2.555867 1_546
Ca0 N2 2.672369 1_556
Ca1 N8 2.430796 1_665
Ca1 N1 2.438210 1_556
Ca1 N9 2.461283 1_655
Ca1 N5 2.461283 1_565
Ca1 N2 2.673683 1_556
Ca2 N5 2.444472 1_565
Ca2 N9 2.444472 1_655
Ca2 N3 2.545591 1_555
Ca2 N0 2.585245 1_555
Ca2 N4 2.585245 1_555
Ca3 N8 2.293050 1_655
Ca3 N5 2.385606 1_555
Ca3 N3 2.417633 1_555
Ca3 N0 2.604377 1_555
Ca3 N6 2.651498 1_555
Ca4 N1 2.339866 1_545
Ca4 N7 2.419333 1_554
Ca4 N4 2.518611 1_545
Ca4 N6 2.520867 1_555
Ca5 N5 2.461389 1_565
Ca5 N8 2.465272 1_565
Ca5 N3 2.481534 1_555
Ca5 N1 2.555867 1_456
Ca5 N2 2.672369 1_556
Ca6 N8 2.293050 1_565
Ca6 N9 2.385606 1_555
Ca6 N3 2.417634 1_555
Ca6 N4 2.604377 1_555
Ca6 N6 2.651497 1_555
Ca7 N8 2.290813 1_555
Ca7 N9 2.409932 1_555
Ca7 N5 2.409932 1_555
Ca7 N4 2.689102 1_545
Ca7 N0 2.689102 1_455
Ca7 N6 3.025629 1_555
Ca8 N1 2.287979 1_445
Ca8 N7 2.350531 1_554
Ca8 N0 2.524520 1_455
Ca8 N4 2.524520 1_545
Ca9 N1 2.339866 1_455
Ca9 N7 2.419333 1_554
Ca9 N0 2.518611 1_455
Ca9 N6 2.520867 1_555
Ge0 N7 1.865554 1_555
Ge0 N3 1.956330 1_555
Ge0 N5 1.959688 1_555
Ge0 N9 1.959688 1_555
N0 Tc0 1.851407 1_555
N2 Tc0 1.777656 1_555
N4 Tc0 1.851406 1_555
N6 Tc0 1.841479 1_555
