# generated using pymatgen
data_Hf8Mn2Bi3Pb
_symmetry_space_group_name_H-M   'P 1'
_cell_length_a   8.19416215
_cell_length_b   8.19416271
_cell_length_c   8.20696727
_cell_angle_alpha   96.07290636
_cell_angle_beta   96.07290432
_cell_angle_gamma   142.00659724
_symmetry_Int_Tables_number   1
_chemical_formula_structural   Hf8Mn2Bi3Pb
_chemical_formula_sum   'Hf8 Mn2 Bi3 Pb1'
_cell_volume   320.79583057
_cell_formula_units_Z   1
loop_
 _symmetry_equiv_pos_site_id
 _symmetry_equiv_pos_as_xyz
  1  'x, y, z'
loop_
 _atom_site_type_symbol
 _atom_site_label
 _atom_site_symmetry_multiplicity
 _atom_site_fract_x
 _atom_site_fract_y
 _atom_site_fract_z
 _atom_site_occupancy
  Hf  Hf0  1  0.69406136  0.58097186  0.27503322  1
  Hf  Hf1  1  0.30485412  0.42011129  0.72496541  1
  Hf  Hf2  1  0.58175624  0.30463377  0.88639001  1
  Hf  Hf3  1  0.08097186  0.19406136  0.27503322  1
  Hf  Hf4  1  0.80463377  0.08175624  0.88639001  1
  Hf  Hf5  1  0.41811147  0.69428323  0.11239570  1
  Hf  Hf6  1  0.92011129  0.80485412  0.72496541  1
  Hf  Hf7  1  0.19428323  0.91811147  0.11239570  1
  Mn  Mn0  1  0.25001001  0.25001001  0.00001903  1
  Mn  Mn1  1  0.75001001  0.75001001  0.00001903  1
  Bi  Bi0  1  0.36183401  0.13807573  0.49990974  1
  Bi  Bi1  1  0.86208056  0.36208056  0.22416013  1
  Bi  Bi2  1  0.63807573  0.86183401  0.49990974  1
  Pb  Pb0  1  0.13920733  0.63920733  0.77841566  1
loop_
_geom_bond_atom_site_label_1
_geom_bond_atom_site_label_2
_geom_bond_distance
_geom_bond_site_symmetry_2
Hf0 Mn0 2.665046 1_555
Hf0 Mn1 2.665048 1_555
Hf1 Mn0 2.670859 1_556
Hf1 Mn1 2.670862 1_556
Hf1 Pb0 3.009672 1_555
Hf2 Mn0 2.677035 1_556
Hf2 Mn1 2.677038 1_556
Hf2 Pb0 3.286150 1_655
Hf2 Pb0 3.286155 1_545
Hf3 Mn1 2.665046 1_445
Hf3 Mn0 2.665048 1_555
Hf4 Mn1 2.677035 1_546
Hf4 Mn0 2.677038 1_656
Hf4 Pb0 3.286151 1_655
Hf4 Pb0 3.286155 1_545
Hf5 Mn0 2.667936 1_555
Hf5 Mn1 2.667941 1_555
Hf5 Pb0 3.118772 1_554
Hf6 Mn1 2.670859 1_556
Hf6 Mn0 2.670862 1_666
Hf6 Pb0 3.009672 1_655
Hf7 Mn1 2.667936 1_455
Hf7 Mn0 2.667941 1_565
Hf7 Pb0 3.118772 1_554
Mn0 Mn1 2.667312 1_555
Mn0 Mn1 2.667312 1_445
Bi0 Hf2 3.027999 1_555
Bi0 Hf7 3.034954 1_545
Bi0 Hf3 3.139690 1_555
Bi0 Hf1 3.154434 1_555
Bi0 Hf6 3.297332 1_445
Bi0 Hf6 3.297333 1_555
Bi0 Hf0 3.300919 1_445
Bi0 Hf0 3.300919 1_555
Bi1 Hf3 3.023631 1_655
Bi1 Hf0 3.023631 1_555
Bi1 Hf2 3.139206 1_554
Bi1 Hf4 3.139206 1_554
Bi1 Hf5 3.297640 1_655
Bi1 Hf7 3.297641 1_655
Bi1 Hf7 3.297649 1_545
Bi1 Hf5 3.297649 1_545
Bi2 Hf4 3.027999 1_565
Bi2 Hf5 3.034954 1_555
Bi2 Hf0 3.139690 1_555
Bi2 Hf6 3.154434 1_555
Bi2 Hf1 3.297332 1_665
Bi2 Hf1 3.297332 1_555
Bi2 Hf3 3.300919 1_665
Bi2 Hf3 3.300919 1_555
