# generated using pymatgen
data_AlCo3(BiO4)4
_symmetry_space_group_name_H-M   'P 1'
_cell_length_a   4.71902002
_cell_length_b   4.89560471
_cell_length_c   11.59597617
_cell_angle_alpha   90.00000000
_cell_angle_beta   90.00000000
_cell_angle_gamma   89.89983696
_symmetry_Int_Tables_number   1
_chemical_formula_structural   AlCo3(BiO4)4
_chemical_formula_sum   'Al1 Co3 Bi4 O16'
_cell_volume   267.89512778
_cell_formula_units_Z   1
loop_
 _symmetry_equiv_pos_site_id
 _symmetry_equiv_pos_as_xyz
  1  'x, y, z'
loop_
 _atom_site_type_symbol
 _atom_site_label
 _atom_site_symmetry_multiplicity
 _atom_site_fract_x
 _atom_site_fract_y
 _atom_site_fract_z
 _atom_site_occupancy
  Al  Al0  1  0.50000000  0.25000000  0.93579311  1
  Co  Co0  1  0.00000000  0.25000000  0.43560180  1
  Co  Co1  1  0.00000000  0.75000000  0.56478892  1
  Co  Co2  1  0.50000000  0.75000000  0.06515847  1
  Bi  Bi0  1  0.00000000  0.25000000  0.16337388  1
  Bi  Bi1  1  0.00000000  0.75000000  0.83658248  1
  Bi  Bi2  1  0.50000000  0.25000000  0.66413553  1
  Bi  Bi3  1  0.50000000  0.75000000  0.33666713  1
  O  O0  1  0.22400388  0.11122311  0.31805962  1
  O  O1  1  0.22383832  0.60884800  0.68222382  1
  O  O2  1  0.22145438  0.55596707  0.45783819  1
  O  O3  1  0.22282724  0.05562042  0.54230173  1
  O  O4  1  0.27963682  0.06166875  0.04571942  1
  O  O5  1  0.27695097  0.56212837  0.95500938  1
  O  O6  1  0.27413314  0.61081505  0.18161009  1
  O  O7  1  0.27778950  0.10153244  0.81618658  1
  O  O8  1  0.72586686  0.88918495  0.18161009  1
  O  O9  1  0.72221050  0.39846756  0.81618658  1
  O  O10  1  0.72036318  0.43833125  0.04571942  1
  O  O11  1  0.72304903  0.93787163  0.95500938  1
  O  O12  1  0.77854562  0.94403293  0.45783819  1
  O  O13  1  0.77717276  0.44437958  0.54230173  1
  O  O14  1  0.77599612  0.38877689  0.31805962  1
  O  O15  1  0.77616168  0.89115200  0.68222382  1
loop_
_geom_bond_atom_site_label_1
_geom_bond_atom_site_label_2
_geom_bond_distance
_geom_bond_site_symmetry_2
Al0 O5 1.867324 1_555
Al0 O11 1.867324 1_545
Al0 O9 1.885258 1_555
Al0 O7 1.885258 1_555
Al0 O10 1.886712 1_556
Al0 O4 1.886712 1_556
Co0 O12 1.846015 1_445
Co0 O2 1.846015 1_555
Co0 O0 1.853186 1_555
Co0 O14 1.853186 1_455
Co0 O3 1.881129 1_555
Co0 O13 1.881129 1_455
Co1 O3 1.848732 1_565
Co1 O13 1.848732 1_455
Co1 O15 1.856112 1_455
Co1 O1 1.856112 1_555
Co1 O2 1.878582 1_555
Co1 O12 1.878582 1_455
Co2 O8 1.851058 1_555
Co2 O6 1.851058 1_555
Co2 O4 1.858693 1_565
Co2 O10 1.858693 1_555
Co2 O11 1.894383 1_554
Co2 O5 1.894383 1_554
Bi0 O4 2.109161 1_555
Bi0 O10 2.109161 1_455
Bi0 O0 2.189511 1_555
Bi0 O14 2.189511 1_455
Bi0 O6 2.201456 1_555
Bi0 O8 2.201456 1_445
Bi1 O5 2.106110 1_555
Bi1 O11 2.106110 1_455
Bi1 O7 2.178069 1_565
Bi1 O9 2.178069 1_455
Bi1 O15 2.189660 1_455
Bi1 O1 2.189660 1_555
Bi2 O13 2.148646 1_555
Bi2 O3 2.148646 1_555
Bi2 O9 2.177007 1_555
Bi2 O7 2.177007 1_555
Bi2 O1 2.195592 1_555
Bi2 O15 2.195592 1_545
Bi3 O2 2.146812 1_555
Bi3 O12 2.146812 1_555
Bi3 O8 2.199058 1_555
Bi3 O6 2.199058 1_555
Bi3 O0 2.205015 1_565
Bi3 O14 2.205015 1_555
