# generated using pymatgen
data_Rb(NF4)2
_symmetry_space_group_name_H-M   'P 1'
_cell_length_a   6.41675447
_cell_length_b   6.41675405
_cell_length_c   14.14132187
_cell_angle_alpha   54.15605060
_cell_angle_beta   54.15605209
_cell_angle_gamma   67.38304467
_symmetry_Int_Tables_number   1
_chemical_formula_structural   Rb(NF4)2
_chemical_formula_sum   'Rb2 N4 F16'
_cell_volume   381.83450080
_cell_formula_units_Z   2
loop_
 _symmetry_equiv_pos_site_id
 _symmetry_equiv_pos_as_xyz
  1  'x, y, z'
loop_
 _atom_site_type_symbol
 _atom_site_label
 _atom_site_symmetry_multiplicity
 _atom_site_fract_x
 _atom_site_fract_y
 _atom_site_fract_z
 _atom_site_occupancy
  Rb  Rb0  1  0.75579106  0.24420894  0.75000000  1
  Rb  Rb1  1  0.24420894  0.75579106  0.25000000  1
  N  N0  1  0.53520831  0.15521651  0.57478186  1
  N  N1  1  0.84478349  0.46479169  0.92521814  1
  N  N2  1  0.46479169  0.84478349  0.42521814  1
  N  N3  1  0.15521651  0.53520831  0.07478186  1
  F  F0  1  0.38328803  0.23661949  0.67157147  1
  F  F1  1  0.76338051  0.61671197  0.82842853  1
  F  F2  1  0.61671197  0.76338051  0.32842853  1
  F  F3  1  0.23661949  0.38328803  0.17157147  1
  F  F4  1  0.75127254  0.04019382  0.59338461  1
  F  F5  1  0.95980618  0.24872746  0.90661539  1
  F  F6  1  0.24872746  0.95980618  0.40661539  1
  F  F7  1  0.04019382  0.75127254  0.09338461  1
  F  F8  1  0.41026227  0.93958754  0.63682046  1
  F  F9  1  0.06041246  0.58973773  0.86317954  1
  F  F10  1  0.58973773  0.06041246  0.36317954  1
  F  F11  1  0.93958754  0.41026227  0.13682046  1
  F  F12  1  0.83693038  0.59435647  0.49925107  1
  F  F13  1  0.40564353  0.16306962  0.00074893  1
  F  F14  1  0.16306962  0.40564353  0.50074893  1
  F  F15  1  0.59435647  0.83693038  0.99925107  1
loop_
_geom_bond_atom_site_label_1
_geom_bond_atom_site_label_2
_geom_bond_distance
_geom_bond_site_symmetry_2
F0 N0 1.406977 1_555
F0 Rb0 3.194262 1_555
F1 N1 1.406977 1_555
F1 Rb0 3.194262 1_555
F2 N2 1.406977 1_555
F2 Rb1 3.194262 1_555
F3 N3 1.406977 1_555
F3 Rb1 3.194262 1_555
F4 N0 1.396014 1_555
F4 Rb0 3.181155 1_555
F5 N1 1.396014 1_555
F5 Rb0 3.181155 1_555
F6 N2 1.396014 1_555
F6 Rb1 3.181155 1_555
F7 N3 1.396014 1_555
F7 Rb1 3.181155 1_555
F8 N0 1.390948 1_565
F9 N1 1.390948 1_455
F10 N2 1.390948 1_545
F11 N3 1.390948 1_655
F12 Rb0 2.701798 1_555
F12 Rb1 2.710083 1_655
F13 Rb0 2.701798 1_554
F13 Rb1 2.710083 1_545
F14 Rb1 2.701798 1_555
F14 Rb0 2.710083 1_455
F15 Rb1 2.701798 1_556
F15 Rb0 2.710083 1_565
