# generated using pymatgen
data_Na2ScIO6
_symmetry_space_group_name_H-M   'P 1'
_cell_length_a   5.54474315
_cell_length_b   5.54474366
_cell_length_c   5.54474360
_cell_angle_alpha   119.99999963
_cell_angle_beta   120.00000267
_cell_angle_gamma   59.99999792
_symmetry_Int_Tables_number   1
_chemical_formula_structural   Na2ScIO6
_chemical_formula_sum   'Na2 Sc1 I1 O6'
_cell_volume   120.53949369
_cell_formula_units_Z   1
loop_
 _symmetry_equiv_pos_site_id
 _symmetry_equiv_pos_as_xyz
  1  'x, y, z'
loop_
 _atom_site_type_symbol
 _atom_site_label
 _atom_site_symmetry_multiplicity
 _atom_site_fract_x
 _atom_site_fract_y
 _atom_site_fract_z
 _atom_site_occupancy
  Na  Na0  1  0.74999900  0.74999900  0.24999900  1
  Na  Na1  1  0.24999900  0.24999900  0.75000000  1
  Sc  Sc0  1  0.50000000  0.50000000  0.49999900  1
  I  I0  1  0.00000000  0.00000000  0.00000000  1
  O  O0  1  0.76350245  0.23649755  0.23649755  1
  O  O1  1  0.23649755  0.76350245  0.23649755  1
  O  O2  1  0.23649955  0.23649955  0.23650055  1
  O  O3  1  0.76350045  0.23649955  0.76350145  1
  O  O4  1  0.23649955  0.76350045  0.76350145  1
  O  O5  1  0.76350145  0.76350145  0.76350145  1
loop_
_geom_bond_atom_site_label_1
_geom_bond_atom_site_label_2
_geom_bond_distance
_geom_bond_site_symmetry_2
Na0 O4 2.774384 1_554
Na0 O3 2.774384 1_554
Na0 O1 2.774387 1_555
Na0 O0 2.774387 1_555
Na0 O2 2.774392 1_565
Na0 O2 2.774392 1_655
Na0 O5 2.774393 1_554
Na0 O5 2.774393 1_555
Na0 O1 2.774398 1_655
Na0 O0 2.774398 1_565
Na0 O4 2.774401 1_655
Na0 O3 2.774401 1_565
Na1 O3 2.774387 1_455
Na1 O4 2.774387 1_545
Na1 O0 2.774390 1_455
Na1 O1 2.774390 1_545
Na1 O2 2.774392 1_556
Na1 O2 2.774392 1_555
Na1 O5 2.774393 1_545
Na1 O5 2.774393 1_455
Na1 O0 2.774396 1_556
Na1 O1 2.774396 1_556
Na1 O3 2.774398 1_555
Na1 O4 2.774398 1_555
I0 O0 1.854484 1_455
I0 O1 1.854484 1_545
I0 O5 1.854492 1_444
I0 O3 1.854496 1_454
I0 O4 1.854496 1_544
I0 O2 1.854500 1_555
O0 Sc0 2.066238 1_555
O1 Sc0 2.066238 1_555
O2 Sc0 2.066226 1_555
O3 Sc0 2.066234 1_555
O4 Sc0 2.066234 1_555
O5 Sc0 2.066234 1_555
