# generated using pymatgen
data_Lu12Co4TcTe
_symmetry_space_group_name_H-M   'P 1'
_cell_length_a   8.07234662
_cell_length_b   8.07234583
_cell_length_c   8.07234669
_cell_angle_alpha   111.71189895
_cell_angle_beta   110.10108135
_cell_angle_gamma   106.64152923
_symmetry_Int_Tables_number   1
_chemical_formula_structural   Lu12Co4TcTe
_chemical_formula_sum   'Lu12 Co4 Tc1 Te1'
_cell_volume   404.10731873
_cell_formula_units_Z   1
loop_
 _symmetry_equiv_pos_site_id
 _symmetry_equiv_pos_as_xyz
  1  'x, y, z'
loop_
 _atom_site_type_symbol
 _atom_site_label
 _atom_site_symmetry_multiplicity
 _atom_site_fract_x
 _atom_site_fract_y
 _atom_site_fract_z
 _atom_site_occupancy
  Lu  Lu0  1  0.41897613  0.21862387  0.20035126  1
  Lu  Lu1  1  0.58102387  0.78137613  0.79964874  1
  Lu  Lu2  1  0.01827260  0.21862387  0.79964874  1
  Lu  Lu3  1  0.98172740  0.78137613  0.20035126  1
  Lu  Lu4  1  0.18038180  0.27546685  0.45585065  1
  Lu  Lu5  1  0.81961820  0.72453315  0.54414935  1
  Lu  Lu6  1  0.18038180  0.72453315  0.90491595  1
  Lu  Lu7  1  0.81961820  0.27546685  0.09508405  1
  Lu  Lu8  1  0.30964480  0.61870412  0.30905932  1
  Lu  Lu9  1  0.69035520  0.38129588  0.69094068  1
  Lu  Lu10  1  0.30964480  0.00058547  0.69094068  1
  Lu  Lu11  1  0.69035520  0.99941453  0.30905932  1
  Co  Co0  1  0.37410491  1.00000000  0.37410491  1
  Co  Co1  1  0.62589509  0.00000000  0.62589509  1
  Co  Co2  1  0.11092759  0.61092759  0.50000000  1
  Co  Co3  1  0.88907241  0.38907241  0.50000000  1
  Tc  Tc0  1  0.00000000  0.00000000  0.00000000  1
  Te  Te0  1  0.50000000  0.50000000  0.00000000  1
loop_
_geom_bond_atom_site_label_1
_geom_bond_atom_site_label_2
_geom_bond_distance
_geom_bond_site_symmetry_2
Lu0 Tc0 2.806898 1_555
Lu0 Te0 3.285832 1_555
Lu1 Tc0 2.806898 1_666
Lu1 Te0 3.285832 1_556
Lu2 Tc0 2.806891 1_556
Lu2 Te0 3.285833 1_556
Lu3 Tc0 2.806891 1_665
Lu3 Te0 3.285833 1_555
Lu4 Tc0 3.002348 1_555
Lu4 Te0 3.588538 1_556
Lu5 Tc0 3.002348 1_666
Lu5 Te0 3.588538 1_555
Lu6 Tc0 3.002334 1_566
Lu6 Te0 3.588549 1_556
Lu7 Tc0 3.002334 1_655
Lu7 Te0 3.588549 1_555
Lu8 Te0 3.348611 1_555
Lu9 Te0 3.348611 1_556
Lu10 Te0 3.348611 1_556
Lu11 Te0 3.348611 1_555
Co0 Co1 2.328693 1_565
Co0 Lu3 2.650950 1_455
Co0 Lu0 2.650951 1_565
Co0 Lu8 2.778374 1_555
Co0 Lu9 2.778374 1_565
Co0 Lu11 2.778374 1_555
Co0 Lu10 2.778374 1_565
Co0 Lu6 3.072603 1_554
Co0 Lu4 3.072611 1_565
Co1 Lu2 2.650950 1_655
Co1 Lu1 2.650951 1_545
Co1 Lu9 2.778374 1_555
Co1 Lu8 2.778374 1_545
Co1 Lu10 2.778374 1_555
Co1 Lu11 2.778374 1_545
Co1 Lu7 3.072603 1_556
Co1 Lu5 3.072611 1_545
Co2 Co3 2.139523 1_455
Co2 Lu10 2.581905 1_565
Co2 Lu8 2.581906 1_555
Co2 Lu5 2.840286 1_455
Co2 Lu4 2.840293 1_555
Co2 Lu7 2.840294 1_455
Co2 Lu6 2.840298 1_555
Co2 Lu1 3.222130 1_555
Co2 Lu3 3.222136 1_455
Co3 Lu11 2.581905 1_545
Co3 Lu9 2.581906 1_555
Co3 Lu4 2.840286 1_655
Co3 Lu5 2.840293 1_555
Co3 Lu6 2.840294 1_655
Co3 Lu7 2.840298 1_555
Co3 Lu0 3.222130 1_555
Co3 Lu2 3.222136 1_655
