# generated using pymatgen
data_Rb2BaCaSb2
_symmetry_space_group_name_H-M   'P 1'
_cell_length_a   5.41140582
_cell_length_b   8.80261318
_cell_length_c   10.47380165
_cell_angle_alpha   90.00000000
_cell_angle_beta   90.00000000
_cell_angle_gamma   90.00000000
_symmetry_Int_Tables_number   1
_chemical_formula_structural   Rb2BaCaSb2
_chemical_formula_sum   'Rb4 Ba2 Ca2 Sb4'
_cell_volume   498.91443238
_cell_formula_units_Z   2
loop_
 _symmetry_equiv_pos_site_id
 _symmetry_equiv_pos_as_xyz
  1  'x, y, z'
loop_
 _atom_site_type_symbol
 _atom_site_label
 _atom_site_symmetry_multiplicity
 _atom_site_fract_x
 _atom_site_fract_y
 _atom_site_fract_z
 _atom_site_occupancy
  Rb  Rb0  1  0.50000000  0.02620869  0.41594338  1
  Rb  Rb1  1  0.00000000  0.33576120  0.34282300  1
  Rb  Rb2  1  0.50000000  0.52620869  0.58405662  1
  Rb  Rb3  1  0.00000000  0.83576120  0.65717700  1
  Ba  Ba0  1  0.00000000  0.99811979  0.05283882  1
  Ba  Ba1  1  0.00000000  0.49811979  0.94716118  1
  Ca  Ca0  1  0.50000000  0.15098392  0.82086814  1
  Ca  Ca1  1  0.50000000  0.65098392  0.17913186  1
  Sb  Sb0  1  0.00000000  0.24603089  0.68746873  1
  Sb  Sb1  1  0.50000000  0.28849652  0.10688066  1
  Sb  Sb2  1  0.00000000  0.74603089  0.31253127  1
  Sb  Sb3  1  0.50000000  0.78849652  0.89311934  1
loop_
_geom_bond_atom_site_label_1
_geom_bond_atom_site_label_2
_geom_bond_distance
_geom_bond_site_symmetry_2
Rb0 Sb2 3.817930 1_645
Rb0 Sb2 3.817930 1_545
Rb0 Sb1 3.976080 1_555
Rb1 Sb2 3.625355 1_555
Rb1 Sb1 3.687929 1_555
Rb1 Sb1 3.687929 1_455
Rb1 Sb0 3.695157 1_555
Rb2 Sb0 3.817930 1_555
Rb2 Sb0 3.817930 1_655
Rb2 Sb3 3.976080 1_555
Rb3 Sb0 3.625355 1_565
Rb3 Sb3 3.687929 1_555
Rb3 Sb3 3.687929 1_455
Rb3 Sb2 3.695157 1_555
Ba0 Sb2 3.510323 1_555
Ba0 Sb3 3.677527 1_454
Ba0 Sb3 3.677527 1_554
Ba0 Sb1 3.764934 1_565
Ba0 Sb1 3.764934 1_465
Ba1 Sb0 3.510323 1_555
Ba1 Sb1 3.677527 1_556
Ba1 Sb1 3.677527 1_456
Ba1 Sb3 3.764934 1_455
Ba1 Sb3 3.764934 1_555
Ca0 Sb0 3.158005 1_655
Ca0 Sb0 3.158005 1_555
Ca0 Sb1 3.230958 1_556
Ca0 Sb3 3.279344 1_545
Ca1 Sb2 3.158005 1_655
Ca1 Sb2 3.158005 1_555
Ca1 Sb3 3.230958 1_554
Ca1 Sb1 3.279344 1_555
