# generated using pymatgen
data_K4Hf4ZrO12
_symmetry_space_group_name_H-M   'P 1'
_cell_length_a   5.78136884
_cell_length_b   5.78136909
_cell_length_c   10.32971345
_cell_angle_alpha   90.00000000
_cell_angle_beta   90.00000000
_cell_angle_gamma   119.99999859
_symmetry_Int_Tables_number   1
_chemical_formula_structural   K4Hf4ZrO12
_chemical_formula_sum   'K4 Hf4 Zr1 O12'
_cell_volume   299.00626361
_cell_formula_units_Z   1
loop_
 _symmetry_equiv_pos_site_id
 _symmetry_equiv_pos_as_xyz
  1  'x, y, z'
loop_
 _atom_site_type_symbol
 _atom_site_label
 _atom_site_symmetry_multiplicity
 _atom_site_fract_x
 _atom_site_fract_y
 _atom_site_fract_z
 _atom_site_occupancy
  K  K0  1  0.66666700  0.33333300  0.61334876  1
  K  K1  1  0.33333300  0.66666700  0.38791528  1
  K  K2  1  0.00000000  0.00000000  0.82198515  1
  K  K3  1  0.00000000  0.00000000  0.17813063  1
  Hf  Hf0  1  0.66666700  0.33333300  0.28422484  1
  Hf  Hf1  1  0.33333300  0.66666700  0.71613203  1
  Hf  Hf2  1  0.66666700  0.33333300  0.97598550  1
  Hf  Hf3  1  0.00000000  0.00000000  0.50015671  1
  Zr  Zr0  1  0.33333300  0.66666700  0.02439198  1
  O  O0  1  0.97732973  0.48866536  0.12316020  1
  O  O1  1  0.51133464  0.48866536  0.12316020  1
  O  O2  1  0.51133464  0.02267027  0.12316020  1
  O  O3  1  0.49121280  0.50878720  0.87614623  1
  O  O4  1  0.01757440  0.50878720  0.87614623  1
  O  O5  1  0.49121280  0.98242560  0.87614623  1
  O  O6  1  0.33006238  0.16503069  0.37910257  1
  O  O7  1  0.83496931  0.16503069  0.37910257  1
  O  O8  1  0.83496931  0.66993762  0.37910257  1
  O  O9  1  0.16525738  0.33051475  0.62083471  1
  O  O10  1  0.66948525  0.83474262  0.62083471  1
  O  O11  1  0.16525738  0.83474262  0.62083471  1
loop_
_geom_bond_atom_site_label_1
_geom_bond_atom_site_label_2
_geom_bond_distance
_geom_bond_site_symmetry_2
K0 O9 2.891750 1_655
K0 O10 2.891750 1_545
K0 O11 2.891753 1_545
K0 O11 2.891753 1_655
K0 O9 2.891756 1_555
K0 O10 2.891756 1_555
K0 O6 2.948766 1_555
K0 O7 2.948766 1_555
K0 O8 2.948766 1_555
K0 O4 3.233569 1_655
K0 O5 3.233569 1_545
K0 O3 3.233572 1_555
K1 O8 2.892158 1_455
K1 O6 2.892158 1_565
K1 O7 2.892164 1_565
K1 O7 2.892164 1_455
K1 O8 2.892170 1_555
K1 O6 2.892170 1_555
K1 O11 2.936228 1_555
K1 O10 2.936231 1_555
K1 O9 2.936231 1_555
K1 O1 3.264425 1_555
K1 O0 3.264425 1_455
K1 O2 3.264425 1_565
K2 O10 2.656277 1_445
K2 O11 2.656277 1_545
K2 O9 2.656277 1_555
K2 O5 2.945642 1_445
K2 O5 2.945642 1_545
K2 O3 2.945642 1_445
K2 O4 2.945642 1_545
K2 O4 2.945642 1_555
K2 O3 2.945642 1_555
K3 O7 2.653421 1_455
K3 O6 2.653424 1_555
K3 O8 2.653424 1_445
K3 O2 2.948110 1_555
K3 O0 2.948110 1_445
K3 O1 2.948113 1_555
K3 O1 2.948113 1_445
K3 O2 2.948116 1_455
K3 O0 2.948116 1_455
Hf0 O6 1.949566 1_555
Hf0 O7 1.949566 1_555
Hf0 O8 1.949566 1_555
Hf0 O0 2.277593 1_555
Hf0 O2 2.277593 1_555
Hf0 O1 2.277600 1_555
Hf1 O11 1.949789 1_555
Hf1 O10 1.949793 1_555
Hf1 O9 1.949793 1_555
Hf1 O4 2.287240 1_555
Hf1 O5 2.287240 1_555
Hf1 O3 2.287243 1_555
Hf2 O4 2.037252 1_655
Hf2 O5 2.037252 1_545
Hf2 O3 2.037257 1_555
Hf2 O0 2.174992 1_556
Hf2 O2 2.174992 1_556
Hf2 O1 2.174999 1_556
Hf3 O10 2.071806 1_445
Hf3 O11 2.071806 1_545
Hf3 O9 2.071806 1_555
Hf3 O7 2.072336 1_455
Hf3 O6 2.072340 1_555
Hf3 O8 2.072340 1_445
O0 Zr0 2.053778 1_655
O1 Zr0 2.053778 1_555
O2 Zr0 2.053778 1_545
O3 Zr0 2.200998 1_556
O4 Zr0 2.200994 1_556
O5 Zr0 2.200994 1_556
