# generated using pymatgen
data_Hf12Al9Ni3C4
_symmetry_space_group_name_H-M   'P 1'
_cell_length_a   8.48640105
_cell_length_b   8.51332775
_cell_length_c   8.48640069
_cell_angle_alpha   60.10457385
_cell_angle_beta   60.00000140
_cell_angle_gamma   60.10458000
_symmetry_Int_Tables_number   1
_chemical_formula_structural   Hf12Al9Ni3C4
_chemical_formula_sum   'Hf12 Al9 Ni3 C4'
_cell_volume   434.22629584
_cell_formula_units_Z   1
loop_
 _symmetry_equiv_pos_site_id
 _symmetry_equiv_pos_as_xyz
  1  'x, y, z'
loop_
 _atom_site_type_symbol
 _atom_site_label
 _atom_site_symmetry_multiplicity
 _atom_site_fract_x
 _atom_site_fract_y
 _atom_site_fract_z
 _atom_site_occupancy
  Hf  Hf0  1  0.81026635  0.81152847  0.18910259  1
  Hf  Hf1  1  0.18730043  0.19192944  0.81038457  1
  Hf  Hf2  1  0.81038457  0.19192944  0.81038457  1
  Hf  Hf3  1  0.18910259  0.81152847  0.18910259  1
  Hf  Hf4  1  0.18910259  0.81152847  0.81026635  1
  Hf  Hf5  1  0.81038457  0.19192944  0.18730043  1
  Hf  Hf6  1  0.43973365  0.43847153  0.06089741  1
  Hf  Hf7  1  0.06269957  0.05807056  0.43961543  1
  Hf  Hf8  1  0.43961543  0.05807056  0.43961543  1
  Hf  Hf9  1  0.06089741  0.43847153  0.06089741  1
  Hf  Hf10  1  0.06089741  0.43847153  0.43973365  1
  Hf  Hf11  1  0.43961543  0.05807056  0.06269957  1
  Al  Al0  1  0.62500000  0.12500000  0.62500000  1
  Al  Al1  1  0.73975068  0.43668095  0.41178468  1
  Al  Al2  1  0.41853992  0.74438124  0.41853992  1
  Al  Al3  1  0.41178468  0.43668095  0.73975068  1
  Al  Al4  1  0.41178468  0.43668095  0.41178468  1
  Al  Al5  1  0.51024932  0.81331905  0.83821532  1
  Al  Al6  1  0.83146008  0.50561876  0.83146008  1
  Al  Al7  1  0.83821532  0.81331905  0.51024932  1
  Al  Al8  1  0.83821532  0.81331905  0.83821532  1
  Ni  Ni0  1  0.12500000  0.62500000  0.62500000  1
  Ni  Ni1  1  0.62500000  0.62500000  0.12500000  1
  Ni  Ni2  1  0.62500000  0.62500000  0.62500000  1
  C  C0  1  0.62500000  0.12500000  0.12500000  1
  C  C1  1  0.12500000  0.62500000  0.12500000  1
  C  C2  1  0.12500000  0.12500000  0.62500000  1
  C  C3  1  0.12500000  0.12500000  0.12500000  1
loop_
_geom_bond_atom_site_label_1
_geom_bond_atom_site_label_2
_geom_bond_distance
_geom_bond_site_symmetry_2
Hf0 Ni1 3.081361 1_555
Hf0 Ni2 3.081361 1_555
Hf1 Ni0 3.074788 1_555
Hf2 Ni2 3.074787 1_555
Hf3 Ni0 3.081361 1_555
Hf3 Ni1 3.081361 1_555
Hf4 Ni0 3.081361 1_555
Hf4 Ni2 3.081361 1_555
Hf5 Ni1 3.074789 1_555
Hf6 Ni2 3.081361 1_554
Hf6 Ni1 3.081361 1_555
Hf7 Ni0 3.074788 1_545
Hf8 Ni2 3.074787 1_545
Hf9 Ni0 3.081361 1_554
Hf9 Ni1 3.081361 1_455
Hf10 Ni0 3.081361 1_555
Hf10 Ni2 3.081361 1_455
Hf11 Ni1 3.074789 1_545
Al0 Al4 2.700149 1_555
Al0 Al8 2.700149 1_545
Al0 Al1 2.700153 1_555
Al0 Al5 2.700153 1_545
Al0 Al3 2.700154 1_555
Al0 Al7 2.700154 1_545
Al0 Hf2 3.088230 1_555
Al0 Hf8 3.088230 1_555
Al0 Hf11 3.088238 1_556
Al0 Hf5 3.088238 1_555
Al0 Hf7 3.088238 1_655
Al0 Hf1 3.088238 1_555
Al1 Ni2 2.523105 1_555
Al1 Ni1 2.523112 1_555
Al1 Al2 2.677931 1_555
Al1 Al3 2.783251 1_555
Al1 Al4 2.783251 1_555
Al1 Hf10 2.859305 1_655
Al1 Hf9 2.859310 1_655
Al1 Hf0 2.978977 1_555
Al1 Hf7 3.006469 1_655
Al1 Hf2 3.146430 1_555
Al1 Hf5 3.146444 1_555
Al2 Ni2 2.586958 1_555
Al2 Ni0 2.586965 1_555
Al2 Ni1 2.586965 1_555
Al2 Al3 2.677931 1_555
Al2 Al4 2.677931 1_555
Al2 Hf8 2.860072 1_565
Al2 Hf11 2.860072 1_565
Al2 Hf7 2.860072 1_565
Al2 Hf4 3.079162 1_555
Al2 Hf0 3.079162 1_555
Al2 Hf3 3.079169 1_555
Al3 Ni2 2.523104 1_555
Al3 Ni0 2.523112 1_555
Al3 Al4 2.783251 1_555
Al3 Hf6 2.859305 1_556
Al3 Hf9 2.859310 1_556
Al3 Hf4 2.978977 1_555
Al3 Hf11 3.006469 1_556
Al3 Hf2 3.146430 1_555
Al3 Hf1 3.146444 1_555
Al4 Ni1 2.523107 1_555
Al4 Ni0 2.523107 1_555
Al4 Hf6 2.859313 1_555
Al4 Hf10 2.859314 1_555
Al4 Hf3 2.978981 1_555
Al4 Hf8 3.006469 1_555
Al4 Hf1 3.146437 1_555
Al4 Hf5 3.146437 1_555
Al5 Ni2 2.523105 1_555
Al5 Ni1 2.523112 1_556
Al5 Al6 2.677931 1_555
Al5 Al8 2.783251 1_555
Al5 Al7 2.783251 1_555
Al5 Hf4 2.859305 1_555
Al5 Hf3 2.859310 1_556
Al5 Hf6 2.978977 1_556
Al5 Hf1 3.006469 1_565
Al5 Hf8 3.146430 1_565
Al5 Hf11 3.146444 1_566
Al6 Ni2 2.586958 1_555
Al6 Ni0 2.586965 1_655
Al6 Ni1 2.586965 1_556
Al6 Al7 2.677931 1_555
Al6 Al8 2.677931 1_555
Al6 Hf2 2.860072 1_555
Al6 Hf5 2.860072 1_556
Al6 Hf1 2.860072 1_655
Al6 Hf10 3.079162 1_655
Al6 Hf6 3.079162 1_556
Al6 Hf9 3.079169 1_656
Al7 Ni2 2.523104 1_555
Al7 Ni0 2.523112 1_655
Al7 Al8 2.783251 1_555
Al7 Hf0 2.859305 1_555
Al7 Hf3 2.859310 1_655
Al7 Hf10 2.978977 1_655
Al7 Hf5 3.006469 1_565
Al7 Hf8 3.146430 1_565
Al7 Hf7 3.146444 1_665
Al8 Ni1 2.523107 1_556
Al8 Ni0 2.523107 1_655
Al8 Hf0 2.859313 1_556
Al8 Hf4 2.859314 1_655
Al8 Hf9 2.978981 1_656
Al8 Hf2 3.006469 1_565
Al8 Hf7 3.146437 1_665
Al8 Hf11 3.146437 1_566
C0 Hf5 2.259420 1_555
C0 Hf11 2.259420 1_555
C0 Hf8 2.259426 1_555
C0 Hf2 2.259426 1_554
C0 Hf6 2.261713 1_555
C0 Hf0 2.261713 1_545
C1 Hf10 2.265334 1_555
C1 Hf4 2.265334 1_554
C1 Hf3 2.265334 1_555
C1 Hf9 2.265334 1_555
C1 Hf6 2.265335 1_555
C1 Hf0 2.265335 1_455
C2 Hf1 2.259420 1_555
C2 Hf7 2.259420 1_555
C2 Hf8 2.259426 1_555
C2 Hf2 2.259426 1_455
C2 Hf10 2.261713 1_555
C2 Hf4 2.261713 1_545
C3 Hf7 2.259428 1_555
C3 Hf1 2.259428 1_554
C3 Hf11 2.259428 1_555
C3 Hf5 2.259428 1_455
C3 Hf9 2.261713 1_555
C3 Hf3 2.261713 1_545
