# generated using pymatgen
data_K10CaSn12
_symmetry_space_group_name_H-M   'P 1'
_cell_length_a   10.44165035
_cell_length_b   10.44165092
_cell_length_c   10.44165115
_cell_angle_alpha   109.47121543
_cell_angle_beta   109.47121655
_cell_angle_gamma   109.47122094
_symmetry_Int_Tables_number   1
_chemical_formula_structural   K10CaSn12
_chemical_formula_sum   'K10 Ca1 Sn12'
_cell_volume   876.36626910
_cell_formula_units_Z   1
loop_
 _symmetry_equiv_pos_site_id
 _symmetry_equiv_pos_as_xyz
  1  'x, y, z'
loop_
 _atom_site_type_symbol
 _atom_site_label
 _atom_site_symmetry_multiplicity
 _atom_site_fract_x
 _atom_site_fract_y
 _atom_site_fract_z
 _atom_site_occupancy
  K  K0  1  0.50000000  0.25000000  0.75000000  1
  K  K1  1  0.75000000  0.25000000  0.50000000  1
  K  K2  1  0.25000000  0.75000000  0.50000000  1
  K  K3  1  0.50000000  0.75000000  0.25000000  1
  K  K4  1  0.59946177  0.00000000  1.00000000  1
  K  K5  1  0.40053823  0.40053823  0.40053823  1
  K  K6  1  1.00000000  0.59946177  1.00000000  1
  K  K7  1  1.00000000  1.00000000  0.59946177  1
  K  K8  1  0.75000000  0.50000000  0.25000000  1
  K  K9  1  0.25000000  0.50000000  0.75000000  1
  Ca  Ca0  1  0.00000000  0.00000000  0.00000000  1
  Sn  Sn0  1  1.00000000  0.17646969  0.34657316  1
  Sn  Sn1  1  0.82353031  0.17010347  0.82353031  1
  Sn  Sn2  1  0.65342684  0.65342684  0.82989653  1
  Sn  Sn3  1  0.34657316  0.17646969  1.00000000  1
  Sn  Sn4  1  0.17646969  0.34657316  1.00000000  1
  Sn  Sn5  1  0.34657316  1.00000000  0.17646969  1
  Sn  Sn6  1  0.65342684  0.82989653  0.65342684  1
  Sn  Sn7  1  0.82989653  0.65342684  0.65342684  1
  Sn  Sn8  1  1.00000000  0.34657316  0.17646969  1
  Sn  Sn9  1  0.82353031  0.82353031  0.17010347  1
  Sn  Sn10  1  0.17010347  0.82353031  0.82353031  1
  Sn  Sn11  1  0.17646969  1.00000000  0.34657316  1
loop_
_geom_bond_atom_site_label_1
_geom_bond_atom_site_label_2
_geom_bond_distance
_geom_bond_site_symmetry_2
K0 Sn1 3.643398 1_555
K0 Sn3 3.643398 1_555
K0 Sn2 3.643398 1_555
K0 Sn11 3.643399 1_545
K1 Sn0 3.643398 1_555
K1 Sn1 3.643398 1_555
K1 Sn7 3.643398 1_555
K1 Sn5 3.643399 1_545
K2 Sn6 3.643398 1_555
K2 Sn11 3.643398 1_555
K2 Sn10 3.643398 1_555
K2 Sn8 3.643399 1_455
K3 Sn9 3.643398 1_555
K3 Sn5 3.643398 1_555
K3 Sn6 3.643399 1_555
K3 Sn4 3.643399 1_554
K4 Sn5 3.689401 1_546
K4 Sn3 3.689401 1_555
K4 Sn10 3.689401 1_545
K4 Sn1 3.782797 1_555
K4 Sn9 3.782797 1_546
K4 Sn8 3.782797 1_556
K4 Sn2 3.782797 1_545
K4 Sn6 3.782797 1_545
K4 Sn0 3.782797 1_556
K5 Sn7 3.689401 1_555
K5 Sn6 3.689401 1_555
K5 Sn2 3.689402 1_555
K5 Sn0 3.782797 1_455
K5 Sn8 3.782797 1_455
K5 Sn11 3.782797 1_545
K5 Sn5 3.782797 1_545
K5 Sn4 3.782797 1_554
K5 Sn3 3.782797 1_554
K6 Sn8 3.689401 1_556
K6 Sn4 3.689401 1_655
K6 Sn1 3.689401 1_555
K6 Sn10 3.782797 1_655
K6 Sn2 3.782797 1_555
K6 Sn9 3.782797 1_556
K6 Sn7 3.782797 1_555
K6 Sn5 3.782797 1_656
K6 Sn11 3.782798 1_656
K7 Sn11 3.689401 1_655
K7 Sn0 3.689401 1_565
K7 Sn9 3.689402 1_555
K7 Sn6 3.782797 1_555
K7 Sn7 3.782797 1_555
K7 Sn1 3.782797 1_565
K7 Sn10 3.782797 1_655
K7 Sn3 3.782797 1_665
K7 Sn4 3.782798 1_665
K8 Sn8 3.643398 1_555
K8 Sn9 3.643398 1_555
K8 Sn3 3.643398 1_554
K8 Sn7 3.643399 1_555
K9 Sn2 3.643398 1_555
K9 Sn4 3.643398 1_555
K9 Sn10 3.643398 1_555
K9 Sn0 3.643399 1_455
Ca0 Sn3 3.470673 1_554
Ca0 Sn9 3.470673 1_445
Ca0 Sn1 3.470673 1_454
Ca0 Sn10 3.470673 1_544
Ca0 Sn5 3.470673 1_545
Ca0 Sn4 3.470673 1_554
Ca0 Sn2 3.470674 1_444
Ca0 Sn8 3.470674 1_455
Ca0 Sn11 3.470674 1_545
Ca0 Sn0 3.470674 1_455
Ca0 Sn6 3.470674 1_444
Ca0 Sn7 3.470674 1_444
Sn0 Sn8 2.900459 1_555
Sn0 Sn11 3.009010 1_645
Sn0 Sn9 3.009010 1_545
Sn1 Sn6 2.900459 1_545
Sn1 Sn4 3.009010 1_655
Sn1 Sn8 3.009011 1_556
Sn2 Sn9 2.900459 1_556
Sn2 Sn7 3.009010 1_555
Sn2 Sn6 3.009010 1_555
Sn3 Sn4 2.900459 1_555
Sn3 Sn5 3.009010 1_546
Sn4 Sn8 3.009010 1_456
Sn6 Sn7 3.009010 1_555
Sn10 Sn7 2.900459 1_455
Sn10 Sn3 3.009010 1_565
Sn10 Sn5 3.009011 1_556
Sn11 Sn5 2.900459 1_555
Sn11 Sn9 3.009010 1_455
