# generated using pymatgen
data_Rb2Mn2CoSe4
_symmetry_space_group_name_H-M   'P 1'
_cell_length_a   9.66257948
_cell_length_b   9.66258013
_cell_length_c   9.66258012
_cell_angle_alpha   144.19296031
_cell_angle_beta   104.39697150
_cell_angle_gamma   86.58138598
_symmetry_Int_Tables_number   1
_chemical_formula_structural   Rb2Mn2CoSe4
_chemical_formula_sum   'Rb4 Mn4 Co2 Se8'
_cell_volume   494.92128172
_cell_formula_units_Z   2
loop_
 _symmetry_equiv_pos_site_id
 _symmetry_equiv_pos_as_xyz
  1  'x, y, z'
loop_
 _atom_site_type_symbol
 _atom_site_label
 _atom_site_symmetry_multiplicity
 _atom_site_fract_x
 _atom_site_fract_y
 _atom_site_fract_z
 _atom_site_occupancy
  Rb  Rb0  1  0.11899218  0.23211028  0.35769686  1
  Rb  Rb1  1  0.38100782  0.73870568  0.11311910  1
  Rb  Rb2  1  0.62558658  0.26788972  0.88688090  1
  Rb  Rb3  1  0.87441342  0.76129432  0.64230314  1
  Mn  Mn0  1  0.48079349  0.25000000  0.23079349  1
  Mn  Mn1  1  0.75000000  0.25000000  0.50000000  1
  Mn  Mn2  1  0.25000000  0.75000000  0.50000000  1
  Mn  Mn3  1  0.01920651  0.25000000  0.76920651  1
  Co  Co0  1  0.50895209  0.75000000  0.75895209  1
  Co  Co1  1  0.99104791  0.75000000  0.24104791  1
  Se  Se0  1  0.22064691  0.07255118  0.58389991  1
  Se  Se1  1  0.27935309  0.86325299  0.85190527  1
  Se  Se2  1  0.01134873  0.42744882  0.14809473  1
  Se  Se3  1  0.48865127  0.63674701  0.41610009  1
  Se  Se4  1  0.78605459  0.91092038  0.39392192  1
  Se  Se5  1  0.71394541  0.10786733  0.12486679  1
  Se  Se6  1  0.98300054  0.58907962  0.87513321  1
  Se  Se7  1  0.51699946  0.39213267  0.60607808  1
loop_
_geom_bond_atom_site_label_1
_geom_bond_atom_site_label_2
_geom_bond_distance
_geom_bond_site_symmetry_2
Rb0 Se0 3.512363 1_555
Rb0 Se1 3.550736 1_555
Rb0 Se6 3.606853 1_444
Rb0 Se7 3.611247 1_555
Rb0 Se6 3.657369 1_455
Rb0 Se5 3.690727 1_455
Rb0 Se2 3.696608 1_555
Rb0 Se1 3.720665 1_544
Rb1 Se1 3.512354 1_554
Rb1 Se0 3.550733 1_565
Rb1 Se7 3.606865 1_554
Rb1 Se6 3.611247 1_454
Rb1 Se7 3.657366 1_565
Rb1 Se4 3.690727 1_555
Rb1 Se3 3.696599 1_555
Rb1 Se0 3.720677 1_554
Rb2 Se2 3.512363 1_656
Rb2 Se3 3.550740 1_545
Rb2 Se4 3.606853 1_556
Rb2 Se5 3.611256 1_556
Rb2 Se4 3.657364 1_545
Rb2 Se7 3.690718 1_555
Rb2 Se0 3.696598 1_555
Rb2 Se3 3.720678 1_556
Rb3 Se3 3.512363 1_555
Rb3 Se2 3.550747 1_655
Rb3 Se5 3.606859 1_566
Rb3 Se4 3.611247 1_555
Rb3 Se5 3.657365 1_555
Rb3 Se6 3.690709 1_555
Rb3 Se1 3.696599 1_655
Rb3 Se2 3.720680 1_666
Mn0 Se1 2.507984 1_544
Mn0 Se3 2.507984 1_555
Mn0 Se5 2.550831 1_555
Mn0 Se7 2.550831 1_555
Mn1 Se7 2.549710 1_555
Mn1 Se5 2.549710 1_555
Mn1 Se6 2.549712 1_555
Mn1 Se4 2.549720 1_545
Mn2 Se3 2.522311 1_555
Mn2 Se0 2.522311 1_565
Mn2 Se2 2.522312 1_555
Mn2 Se1 2.522321 1_555
Mn3 Se2 2.507976 1_556
Mn3 Se0 2.507984 1_555
Mn3 Se4 2.550833 1_445
Mn3 Se6 2.550841 1_455
Co0 Se7 2.425982 1_555
Co0 Se5 2.425983 1_566
Co0 Se3 2.456251 1_555
Co0 Se1 2.456253 1_555
Co1 Se4 2.425981 1_555
Co1 Se6 2.425988 1_554
Co1 Se2 2.456245 1_655
Co1 Se0 2.456251 1_665
