# generated using pymatgen
data_Sc2In
_symmetry_space_group_name_H-M   'P 1'
_cell_length_a   5.04304442
_cell_length_b   5.04304377
_cell_length_c   6.30226521
_cell_angle_alpha   90.00000087
_cell_angle_beta   89.99999930
_cell_angle_gamma   120.00009398
_symmetry_Int_Tables_number   1
_chemical_formula_structural   Sc2In
_chemical_formula_sum   'Sc4 In2'
_cell_volume   138.80733844
_cell_formula_units_Z   2
loop_
 _symmetry_equiv_pos_site_id
 _symmetry_equiv_pos_as_xyz
  1  'x, y, z'
loop_
 _atom_site_type_symbol
 _atom_site_label
 _atom_site_symmetry_multiplicity
 _atom_site_fract_x
 _atom_site_fract_y
 _atom_site_fract_z
 _atom_site_occupancy
  Sc  Sc0  1  0.00000000  0.00000000  -0.00000000  1
  Sc  Sc1  1  0.00000000  0.00000000  0.50000000  1
  Sc  Sc2  1  0.33333317  0.66666682  0.74998612  1
  Sc  Sc3  1  0.66666683  0.33333318  0.25001388  1
  In  In0  1  0.33333318  0.66666679  0.24998663  1
  In  In1  1  0.66666682  0.33333321  0.75001337  1
loop_
_geom_bond_atom_site_label_1
_geom_bond_atom_site_label_2
_geom_bond_distance
_geom_bond_site_symmetry_2
Sc0 Sc1 3.151133 1_555
Sc0 Sc1 3.151133 1_554
Sc0 Sc2 3.310605 1_554
Sc0 Sc3 3.310605 1_445
Sc0 Sc2 3.310605 1_444
Sc0 Sc3 3.310605 1_555
Sc0 Sc2 3.310607 1_544
Sc0 Sc3 3.310607 1_455
Sc1 Sc2 3.310521 1_555
Sc1 Sc3 3.310521 1_445
Sc1 Sc2 3.310522 1_445
Sc1 Sc3 3.310522 1_555
Sc1 Sc3 3.310523 1_455
Sc1 Sc2 3.310523 1_545
In0 Sc3 2.911599 1_565
In0 Sc3 2.911599 1_455
In0 Sc3 2.911607 1_555
In0 Sc2 3.151129 1_555
In0 Sc2 3.151136 1_554
In0 Sc0 3.310523 1_555
In0 Sc0 3.310523 1_665
In0 Sc0 3.310525 1_565
In0 Sc1 3.310603 1_555
In0 Sc1 3.310603 1_665
In0 Sc1 3.310605 1_565
In1 Sc2 2.911599 1_545
In1 Sc2 2.911599 1_655
In1 Sc2 2.911607 1_555
In1 Sc3 3.151129 1_555
In1 Sc3 3.151136 1_556
In1 Sc0 3.310523 1_666
In1 Sc0 3.310523 1_556
In1 Sc0 3.310525 1_656
In1 Sc1 3.310603 1_665
In1 Sc1 3.310603 1_555
In1 Sc1 3.310605 1_655
