# generated using pymatgen
data_CsTc6Te7
_symmetry_space_group_name_H-M   'P 1'
_cell_length_a   10.19505447
_cell_length_b   10.19505465
_cell_length_c   10.19505438
_cell_angle_alpha   61.94769743
_cell_angle_beta   61.94770032
_cell_angle_gamma   61.94770485
_symmetry_Int_Tables_number   1
_chemical_formula_structural   CsTc6Te7
_chemical_formula_sum   'Cs2 Tc12 Te14'
_cell_volume   781.95212414
_cell_formula_units_Z   2
loop_
 _symmetry_equiv_pos_site_id
 _symmetry_equiv_pos_as_xyz
  1  'x, y, z'
loop_
 _atom_site_type_symbol
 _atom_site_label
 _atom_site_symmetry_multiplicity
 _atom_site_fract_x
 _atom_site_fract_y
 _atom_site_fract_z
 _atom_site_occupancy
  Cs  Cs0  1  0.61475876  0.61475876  0.61475876  1
  Cs  Cs1  1  0.38524224  0.38524224  0.38524224  1
  Tc  Tc0  1  0.70822619  0.87371116  0.00157367  1
  Tc  Tc1  1  0.00157367  0.70822619  0.87371116  1
  Tc  Tc2  1  0.87371116  0.00157367  0.70822619  1
  Tc  Tc3  1  0.29177381  0.12628884  0.99842633  1
  Tc  Tc4  1  0.99842633  0.29177381  0.12628884  1
  Tc  Tc5  1  0.12628884  0.99842633  0.29177381  1
  Tc  Tc6  1  0.94153331  0.81112560  0.10359696  1
  Tc  Tc7  1  0.10359696  0.94153331  0.81112560  1
  Tc  Tc8  1  0.81112560  0.10359696  0.94153331  1
  Tc  Tc9  1  0.05846669  0.18887440  0.89640304  1
  Tc  Tc10  1  0.89640304  0.05846669  0.18887440  1
  Tc  Tc11  1  0.18887440  0.89640304  0.05846669  1
  Te  Te0  1  0.42154555  0.81781972  0.16259650  1
  Te  Te1  1  0.16259650  0.42154555  0.81781972  1
  Te  Te2  1  0.81781972  0.16259650  0.42154555  1
  Te  Te3  1  0.57845445  0.18218028  0.83740350  1
  Te  Te4  1  0.83740350  0.57845445  0.18218028  1
  Te  Te5  1  0.18218028  0.83740350  0.57845445  1
  Te  Te6  1  0.64828836  0.98104844  0.24145931  1
  Te  Te7  1  0.24145931  0.64828836  0.98104844  1
  Te  Te8  1  0.98104844  0.24145931  0.64828836  1
  Te  Te9  1  0.35171164  0.01895156  0.75854069  1
  Te  Te10  1  0.75854069  0.35171164  0.01895156  1
  Te  Te11  1  0.01895156  0.75854069  0.35171164  1
  Te  Te12  1  0.77486952  0.77486952  0.77486952  1
  Te  Te13  1  0.22513048  0.22513048  0.22513048  1
loop_
_geom_bond_atom_site_label_1
_geom_bond_atom_site_label_2
_geom_bond_distance
_geom_bond_site_symmetry_2
Cs0 Te6 3.893074 1_555
Cs0 Te7 3.893074 1_555
Cs0 Te8 3.893074 1_555
Cs0 Te12 3.938525 1_555
Cs0 Te3 4.008552 1_555
Cs0 Te4 4.008552 1_555
Cs0 Te5 4.008553 1_555
Cs0 Te11 4.232178 1_655
Cs0 Te10 4.232179 1_556
Cs0 Te9 4.232179 1_565
Cs1 Te9 3.893075 1_555
Cs1 Te10 3.893075 1_555
Cs1 Te11 3.893076 1_555
Cs1 Te13 3.938550 1_555
Cs1 Te0 4.008540 1_555
Cs1 Te1 4.008540 1_555
Cs1 Te2 4.008540 1_555
Cs1 Te8 4.232192 1_455
Cs1 Te7 4.232192 1_554
Cs1 Te6 4.232192 1_545
Tc0 Te12 2.624624 1_554
Tc0 Tc2 2.673186 1_564
Tc0 Tc1 2.673186 1_654
Tc0 Tc8 2.706912 1_564
Tc0 Tc6 2.724321 1_555
Tc0 Te4 2.743150 1_555
Tc0 Te3 2.767764 1_564
Tc0 Te0 2.781320 1_555
Tc0 Te6 2.834562 1_555
Tc1 Te12 2.624623 1_455
Tc1 Tc2 2.673186 1_465
Tc1 Tc6 2.706912 1_456
Tc1 Tc7 2.724321 1_555
Tc1 Te5 2.743149 1_555
Tc1 Te4 2.767764 1_456
Tc1 Te1 2.781320 1_555
Tc1 Te7 2.834562 1_555
Tc2 Te12 2.624623 1_545
Tc2 Tc7 2.706912 1_645
Tc2 Tc8 2.724321 1_555
Tc2 Te3 2.743150 1_555
Tc2 Te5 2.767764 1_645
Tc2 Te2 2.781320 1_555
Tc2 Te8 2.834562 1_555
Tc3 Te13 2.624624 1_556
Tc3 Tc5 2.673186 1_546
Tc3 Tc4 2.673186 1_456
Tc3 Tc9 2.724321 1_555
Tc3 Te1 2.743150 1_555
Tc3 Te0 2.767764 1_546
Tc3 Te3 2.781320 1_555
Tc3 Te9 2.834562 1_555
Tc4 Te13 2.624623 1_655
Tc4 Tc5 2.673186 1_645
Tc4 Tc9 2.706912 1_654
Tc4 Te2 2.743149 1_555
Tc4 Te1 2.767764 1_654
Tc4 Te4 2.781320 1_555
Tc4 Te10 2.834562 1_555
Tc5 Te13 2.624623 1_565
Tc5 Te0 2.743150 1_555
Tc5 Te2 2.767764 1_465
Tc5 Te5 2.781320 1_555
Tc5 Te11 2.834562 1_555
Tc6 Tc7 2.663110 1_654
Tc6 Tc8 2.663110 1_564
Tc6 Te4 2.678960 1_555
Tc6 Te7 2.692585 1_654
Tc6 Te6 2.716837 1_555
Tc6 Te11 2.741045 1_655
Tc7 Tc8 2.663110 1_465
Tc7 Te5 2.678960 1_555
Tc7 Te8 2.692585 1_465
Tc7 Te7 2.716837 1_555
Tc7 Te9 2.741045 1_565
Tc7 Tc9 2.814399 1_565
Tc8 Te3 2.678960 1_555
Tc8 Te6 2.692585 1_546
Tc8 Te8 2.716837 1_555
Tc8 Te10 2.741046 1_556
Tc8 Tc9 2.814399 1_655
Tc9 Te1 2.678960 1_555
Tc9 Te10 2.692585 1_456
Tc9 Te9 2.716837 1_555
Tc9 Te8 2.741045 1_455
Tc10 Tc9 2.663110 1_654
Tc10 Tc11 2.663110 1_645
Tc10 Te2 2.678960 1_555
Tc10 Te11 2.692585 1_645
Tc10 Tc5 2.706912 1_645
Tc10 Te10 2.716837 1_555
Tc10 Tc4 2.724321 1_555
Tc10 Te6 2.741045 1_545
Tc10 Tc8 2.814399 1_554
Tc10 Tc6 2.814399 1_545
Tc11 Tc9 2.663110 1_564
Tc11 Te0 2.678960 1_555
Tc11 Te9 2.692585 1_564
Tc11 Tc3 2.706912 1_564
Tc11 Te11 2.716837 1_555
Tc11 Tc5 2.724321 1_555
Tc11 Te7 2.741046 1_554
Tc11 Tc6 2.814399 1_455
Tc11 Tc7 2.814399 1_554
