# generated using pymatgen
data_BaCrNiP2
_symmetry_space_group_name_H-M   'P 1'
_cell_length_a   7.00196331
_cell_length_b   7.00196376
_cell_length_c   7.00196390
_cell_angle_alpha   147.90680811
_cell_angle_beta   147.90680737
_cell_angle_gamma   46.02295095
_symmetry_Int_Tables_number   1
_chemical_formula_structural   BaCrNiP2
_chemical_formula_sum   'Ba1 Cr1 Ni1 P2'
_cell_volume   96.57051182
_cell_formula_units_Z   1
loop_
 _symmetry_equiv_pos_site_id
 _symmetry_equiv_pos_as_xyz
  1  'x, y, z'
loop_
 _atom_site_type_symbol
 _atom_site_label
 _atom_site_symmetry_multiplicity
 _atom_site_fract_x
 _atom_site_fract_y
 _atom_site_fract_z
 _atom_site_occupancy
  Ba  Ba0  1  0.00000000  0.00000000  0.00000000  1
  Cr  Cr0  1  0.75000000  0.25000000  0.50000000  1
  Ni  Ni0  1  0.25000000  0.75000000  0.50000000  1
  P  P0  1  0.65215450  0.65215450  0.00000000  1
  P  P1  1  0.34784550  0.34784550  1.00000000  1
loop_
_geom_bond_atom_site_label_1
_geom_bond_atom_site_label_2
_geom_bond_distance
_geom_bond_site_symmetry_2
Ba0 P0 3.367265 1_545
Ba0 P1 3.367265 1_454
Ba0 P0 3.367265 1_455
Ba0 P1 3.367265 1_544
Ba0 P0 3.367265 1_556
Ba0 P1 3.367265 1_443
Ba0 P0 3.367265 1_444
Ba0 P1 3.367265 1_555
Cr0 P1 2.310122 1_655
Cr0 P0 2.310122 1_556
Cr0 P0 2.310122 1_545
Cr0 P1 2.310122 1_554
Ni0 P0 2.310122 1_455
Ni0 P1 2.310122 1_554
Ni0 P1 2.310122 1_565
Ni0 P0 2.310122 1_556
