# generated using pymatgen
data_Na4Ni3IrO8
_symmetry_space_group_name_H-M   'P 1'
_cell_length_a   6.23225483
_cell_length_b   6.23225528
_cell_length_c   6.23225490
_cell_angle_alpha   58.12172943
_cell_angle_beta   58.12172460
_cell_angle_gamma   58.12172809
_symmetry_Int_Tables_number   1
_chemical_formula_structural   Na4Ni3IrO8
_chemical_formula_sum   'Na4 Ni3 Ir1 O8'
_cell_volume   163.79728644
_cell_formula_units_Z   1
loop_
 _symmetry_equiv_pos_site_id
 _symmetry_equiv_pos_as_xyz
  1  'x, y, z'
loop_
 _atom_site_type_symbol
 _atom_site_label
 _atom_site_symmetry_multiplicity
 _atom_site_fract_x
 _atom_site_fract_y
 _atom_site_fract_z
 _atom_site_occupancy
  Na  Na0  1  0.50000000  0.50000000  0.00000000  1
  Na  Na1  1  0.00000000  0.50000000  0.50000000  1
  Na  Na2  1  0.00000000  0.00000000  0.00000000  1
  Na  Na3  1  0.50000000  0.00000000  0.50000000  1
  Ni  Ni0  1  0.00000000  0.00000000  0.50000000  1
  Ni  Ni1  1  0.50000000  0.00000000  0.00000000  1
  Ni  Ni2  1  0.00000000  0.50000000  0.00000000  1
  Ir  Ir0  1  0.50000000  0.50000000  0.50000000  1
  O  O0  1  0.27026937  0.27026937  0.75390468  1
  O  O1  1  0.72973063  0.72973063  0.24609532  1
  O  O2  1  0.75390468  0.27026937  0.27026937  1
  O  O3  1  0.24609532  0.72973063  0.72973063  1
  O  O4  1  0.22675170  0.22675170  0.22675170  1
  O  O5  1  0.77324830  0.77324830  0.77324830  1
  O  O6  1  0.27026937  0.75390468  0.27026937  1
  O  O7  1  0.72973063  0.24609532  0.72973063  1
loop_
_geom_bond_atom_site_label_1
_geom_bond_atom_site_label_2
_geom_bond_distance
_geom_bond_site_symmetry_2
Na0 O6 2.294794 1_555
Na0 O7 2.294794 1_554
Na0 O2 2.294794 1_555
Na0 O3 2.294794 1_554
Na0 O5 2.403433 1_554
Na0 O4 2.403433 1_555
Na1 O6 2.294794 1_555
Na1 O7 2.294794 1_455
Na1 O0 2.294794 1_555
Na1 O1 2.294794 1_455
Na1 O5 2.403433 1_455
Na1 O4 2.403433 1_555
Na2 O2 2.359241 1_455
Na2 O3 2.359241 1_544
Na2 O0 2.359241 1_554
Na2 O1 2.359241 1_445
Na2 O6 2.359242 1_545
Na2 O7 2.359242 1_454
Na3 O0 2.294794 1_555
Na3 O1 2.294794 1_545
Na3 O2 2.294794 1_555
Na3 O3 2.294794 1_545
Na3 O5 2.403433 1_545
Na3 O4 2.403433 1_555
Ni0 O4 1.979833 1_555
Ni0 O5 1.979833 1_445
Ni0 O7 2.069509 1_455
Ni0 O6 2.069509 1_545
Ni0 O3 2.069509 1_545
Ni0 O2 2.069509 1_455
Ni1 O4 1.979833 1_555
Ni1 O5 1.979833 1_544
Ni1 O7 2.069509 1_554
Ni1 O6 2.069509 1_545
Ni1 O1 2.069509 1_545
Ni1 O0 2.069509 1_554
Ni2 O4 1.979833 1_555
Ni2 O5 1.979833 1_454
Ni2 O1 2.069509 1_455
Ni2 O0 2.069509 1_554
Ni2 O3 2.069509 1_554
Ni2 O2 2.069509 1_455
Ir0 O3 1.995727 1_555
Ir0 O2 1.995727 1_555
Ir0 O1 1.995727 1_555
Ir0 O0 1.995727 1_555
Ir0 O7 1.995727 1_555
Ir0 O6 1.995727 1_555
