# generated using pymatgen
data_Ti2AlZnAu2
_symmetry_space_group_name_H-M   'P 1'
_cell_length_a   4.41116242
_cell_length_b   4.41116305
_cell_length_c   5.76260749
_cell_angle_alpha   90.00000000
_cell_angle_beta   90.00000000
_cell_angle_gamma   120.00000945
_symmetry_Int_Tables_number   1
_chemical_formula_structural   Ti2AlZnAu2
_chemical_formula_sum   'Ti2 Al1 Zn1 Au2'
_cell_volume   97.10817433
_cell_formula_units_Z   1
loop_
 _symmetry_equiv_pos_site_id
 _symmetry_equiv_pos_as_xyz
  1  'x, y, z'
loop_
 _atom_site_type_symbol
 _atom_site_label
 _atom_site_symmetry_multiplicity
 _atom_site_fract_x
 _atom_site_fract_y
 _atom_site_fract_z
 _atom_site_occupancy
  Ti  Ti0  1  0.00000000  0.00000000  0.00826559  1
  Ti  Ti1  1  0.00000000  0.00000000  0.49173441  1
  Al  Al0  1  0.66666700  0.33333300  0.75000000  1
  Zn  Zn0  1  0.33333300  0.66666700  0.25000000  1
  Au  Au0  1  0.33333300  0.66666700  0.75000000  1
  Au  Au1  1  0.66666700  0.33333300  0.25000000  1
loop_
_geom_bond_atom_site_label_1
_geom_bond_atom_site_label_2
_geom_bond_distance
_geom_bond_site_symmetry_2
Ti0 Ti1 2.786041 1_555
Ti0 Zn0 2.902863 1_545
Ti0 Zn0 2.902866 1_445
Ti0 Zn0 2.902866 1_555
Ti0 Ti1 2.976566 1_554
Ti1 Zn0 2.902863 1_545
Ti1 Zn0 2.902866 1_445
Ti1 Zn0 2.902866 1_555
Al0 Au0 2.546783 1_655
Al0 Au0 2.546783 1_545
Al0 Au0 2.546791 1_555
Al0 Au1 2.881304 1_555
Al0 Au1 2.881304 1_556
Al0 Ti0 2.949762 1_656
Al0 Ti1 2.949762 1_655
Al0 Ti0 2.949764 1_556
Al0 Ti1 2.949764 1_555
Al0 Ti0 2.949765 1_666
Al0 Ti1 2.949765 1_665
Au0 Zn0 2.881304 1_556
Au0 Zn0 2.881304 1_555
Au0 Ti0 2.949762 1_566
Au0 Ti1 2.949762 1_565
Au0 Ti0 2.949764 1_666
Au0 Ti1 2.949764 1_665
Au0 Ti0 2.949765 1_556
Au0 Ti1 2.949765 1_555
Au1 Zn0 2.546783 1_655
Au1 Zn0 2.546783 1_545
Au1 Zn0 2.546791 1_555
Au1 Ti1 2.902863 1_655
Au1 Ti0 2.902863 1_655
Au1 Ti1 2.902866 1_555
Au1 Ti0 2.902866 1_555
Au1 Ti1 2.902866 1_665
Au1 Ti0 2.902866 1_665
