# generated using pymatgen
data_Y3Lu2InSn2
_symmetry_space_group_name_H-M   'P 1'
_cell_length_a   8.86865473
_cell_length_b   8.87650687
_cell_length_c   6.52690301
_cell_angle_alpha   90.00000000
_cell_angle_beta   90.00000000
_cell_angle_gamma   120.02929158
_symmetry_Int_Tables_number   1
_chemical_formula_structural   Y3Lu2InSn2
_chemical_formula_sum   'Y6 Lu4 In2 Sn4'
_cell_volume   444.84567147
_cell_formula_units_Z   2
loop_
 _symmetry_equiv_pos_site_id
 _symmetry_equiv_pos_as_xyz
  1  'x, y, z'
loop_
 _atom_site_type_symbol
 _atom_site_label
 _atom_site_symmetry_multiplicity
 _atom_site_fract_x
 _atom_site_fract_y
 _atom_site_fract_z
 _atom_site_occupancy
  Y  Y0  1  0.76012226  0.76261628  0.75000000  1
  Y  Y1  1  0.23987774  0.00249401  0.75000000  1
  Y  Y2  1  1.00000000  0.23930475  0.75000000  1
  Y  Y3  1  0.23863885  0.23789015  0.25000000  1
  Y  Y4  1  0.76136115  0.99925130  0.25000000  1
  Y  Y5  1  0.00000000  0.75953645  0.25000000  1
  Lu  Lu0  1  0.66550044  0.33221781  0.99701195  1
  Lu  Lu1  1  0.33449956  0.66671838  0.99701195  1
  Lu  Lu2  1  0.33449956  0.66671838  0.50298805  1
  Lu  Lu3  1  0.66550044  0.33221781  0.50298805  1
  In  In0  1  0.39986843  0.40036911  0.75000000  1
  In  In1  1  0.60013157  0.00050068  0.75000000  1
  Sn  Sn0  1  1.00000000  0.60362803  0.75000000  1
  Sn  Sn1  1  0.60134228  0.60010782  0.25000000  1
  Sn  Sn2  1  0.39865772  0.99876554  0.25000000  1
  Sn  Sn3  1  0.00000000  0.39766249  0.25000000  1
loop_
_geom_bond_atom_site_label_1
_geom_bond_atom_site_label_2
_geom_bond_distance
_geom_bond_site_symmetry_2
Y0 Y2 3.663369 1_565
Y0 Y1 3.683664 1_665
Y0 Y4 3.878041 1_556
Y0 Y4 3.878041 1_555
Y0 Y5 3.903188 1_656
Y0 Y5 3.903188 1_655
Y1 Y2 3.663369 1_455
Y1 Y3 3.878041 1_555
Y1 Y3 3.878041 1_556
Y1 Y5 3.903188 1_546
Y1 Y5 3.903188 1_545
Y2 Y3 3.893076 1_656
Y2 Y3 3.893076 1_655
Y2 Y4 3.893076 1_545
Y2 Y4 3.893076 1_546
Y3 Y4 3.664639 1_445
Y3 Y5 3.676163 1_545
Y4 Y5 3.676163 1_655
Lu0 Sn0 3.170265 1_555
Lu0 Sn1 3.171606 1_556
Lu0 Sn2 3.174447 1_546
Lu0 Sn3 3.184281 1_656
Lu0 Lu3 3.224446 1_555
Lu0 Lu3 3.302457 1_556
Lu0 Y1 3.788958 1_555
Lu0 Y2 3.811662 1_555
Lu0 Y3 3.819227 1_556
Lu0 Y5 3.827820 1_656
Lu0 Y0 3.832801 1_555
Lu0 Y4 3.834018 1_546
Lu1 Sn0 3.170262 1_455
Lu1 Sn2 3.171598 1_556
Lu1 Sn1 3.174452 1_556
Lu1 Sn3 3.184284 1_556
Lu1 Lu2 3.224446 1_555
Lu1 Lu2 3.302457 1_556
Lu1 Y0 3.788960 1_555
Lu1 Y2 3.811668 1_455
Lu1 Y4 3.819225 1_556
Lu1 Y5 3.827815 1_556
Lu1 Y1 3.832793 1_565
Lu1 Y3 3.834026 1_556
Lu2 Sn0 3.170262 1_455
Lu2 Sn2 3.171598 1_555
Lu2 Sn1 3.174452 1_555
Lu2 Sn3 3.184284 1_555
Lu2 Y0 3.788960 1_555
Lu2 Y2 3.811668 1_455
Lu2 Y4 3.819225 1_555
Lu2 Y5 3.827815 1_555
Lu2 Y1 3.832793 1_565
Lu2 Y3 3.834026 1_555
Lu3 Sn0 3.170265 1_555
Lu3 Sn1 3.171606 1_555
Lu3 Sn2 3.174447 1_545
Lu3 Sn3 3.184281 1_655
Lu3 Y1 3.788958 1_555
Lu3 Y2 3.811662 1_555
Lu3 Y3 3.819227 1_555
Lu3 Y5 3.827820 1_655
Lu3 Y0 3.832801 1_555
Lu3 Y4 3.834018 1_545
In0 Y1 3.077474 1_555
In0 Y2 3.089601 1_455
In0 Lu1 3.145932 1_555
In0 Lu2 3.145932 1_555
In0 Lu0 3.152999 1_555
In0 Lu3 3.152999 1_555
In0 Y0 3.203858 1_555
In0 Y3 3.565206 1_555
In0 Y3 3.565206 1_556
In1 Y0 3.077474 1_545
In1 Y2 3.089601 1_555
In1 Lu0 3.145924 1_555
In1 Lu3 3.145924 1_555
In1 Lu1 3.152994 1_545
In1 Lu2 3.152994 1_545
In1 Y1 3.203858 1_555
In1 Y4 3.565206 1_545
In1 Y4 3.565206 1_546
Sn0 Y0 3.085842 1_555
Sn0 Y1 3.085842 1_665
Sn0 Y2 3.233918 1_555
Sn0 Y5 3.544765 1_656
Sn0 Y5 3.544765 1_655
Sn1 Y5 3.081401 1_655
Sn1 Y4 3.087772 1_555
Sn1 Y3 3.214536 1_555
Sn1 Y0 3.561009 1_554
Sn1 Y0 3.561009 1_555
Sn2 Y5 3.081401 1_555
Sn2 Y3 3.087772 1_565
Sn2 Y4 3.214536 1_555
Sn2 Y1 3.561009 1_564
Sn2 Y1 3.561009 1_565
Sn3 Y3 3.081348 1_555
Sn3 Y4 3.081348 1_445
Sn3 Y5 3.212177 1_555
Sn3 Y2 3.553309 1_455
Sn3 Y2 3.553309 1_454
