# generated using pymatgen
data_Hf10AlSn6Au
_symmetry_space_group_name_H-M   'P 1'
_cell_length_a   8.62666132
_cell_length_b   8.62666194
_cell_length_c   5.81779125
_cell_angle_alpha   90.00000000
_cell_angle_beta   90.00000000
_cell_angle_gamma   119.99999764
_symmetry_Int_Tables_number   1
_chemical_formula_structural   Hf10AlSn6Au
_chemical_formula_sum   'Hf10 Al1 Sn6 Au1'
_cell_volume   374.95081661
_cell_formula_units_Z   1
loop_
 _symmetry_equiv_pos_site_id
 _symmetry_equiv_pos_as_xyz
  1  'x, y, z'
loop_
 _atom_site_type_symbol
 _atom_site_label
 _atom_site_symmetry_multiplicity
 _atom_site_fract_x
 _atom_site_fract_y
 _atom_site_fract_z
 _atom_site_occupancy
  Hf  Hf0  1  0.33333300  0.66666700  0.00000000  1
  Hf  Hf1  1  0.66666700  0.33333300  0.50000000  1
  Hf  Hf2  1  0.66666700  0.33333300  0.00000000  1
  Hf  Hf3  1  0.33333300  0.66666700  0.50000000  1
  Hf  Hf4  1  0.27334087  0.00000000  0.24239596  1
  Hf  Hf5  1  0.27334087  0.27334087  0.75760404  1
  Hf  Hf6  1  1.00000000  0.72665913  0.75760404  1
  Hf  Hf7  1  0.00000000  0.27334087  0.24239596  1
  Hf  Hf8  1  0.72665913  0.72665913  0.24239596  1
  Hf  Hf9  1  0.72665913  0.00000000  0.75760404  1
  Al  Al0  1  0.00000000  0.00000000  0.00000000  1
  Sn  Sn0  1  0.61453964  0.00000000  0.25227917  1
  Sn  Sn1  1  0.61453964  0.61453964  0.74772083  1
  Sn  Sn2  1  1.00000000  0.38546036  0.74772083  1
  Sn  Sn3  1  0.00000000  0.61453964  0.25227917  1
  Sn  Sn4  1  0.38546036  0.38546036  0.25227917  1
  Sn  Sn5  1  0.38546036  0.00000000  0.74772083  1
  Au  Au0  1  0.00000000  0.00000000  0.50000000  1
loop_
_geom_bond_atom_site_label_1
_geom_bond_atom_site_label_2
_geom_bond_distance
_geom_bond_site_symmetry_2
Hf0 Hf3 2.908896 1_554
Hf0 Hf3 2.908896 1_555
Hf0 Sn3 3.054846 1_555
Hf0 Sn5 3.054846 1_564
Hf0 Sn2 3.054849 1_454
Hf0 Sn0 3.054849 1_565
Hf0 Sn1 3.054853 1_554
Hf0 Sn4 3.054853 1_555
Hf1 Hf2 2.908896 1_556
Hf1 Hf2 2.908896 1_555
Hf1 Sn2 3.042193 1_555
Hf1 Sn0 3.042194 1_555
Hf1 Sn3 3.042196 1_655
Hf1 Sn5 3.042196 1_555
Hf1 Sn4 3.042201 1_555
Hf1 Sn1 3.042201 1_555
Hf2 Sn2 3.054846 1_554
Hf2 Sn0 3.054846 1_555
Hf2 Sn3 3.054849 1_655
Hf2 Sn5 3.054849 1_554
Hf2 Sn4 3.054853 1_555
Hf2 Sn1 3.054853 1_554
Hf3 Sn3 3.042193 1_555
Hf3 Sn5 3.042194 1_565
Hf3 Sn2 3.042196 1_455
Hf3 Sn0 3.042196 1_565
Hf3 Sn1 3.042201 1_555
Hf3 Sn4 3.042201 1_555
Hf4 Sn0 2.943968 1_555
Hf4 Sn4 2.963070 1_555
Hf4 Sn3 2.963070 1_545
Hf4 Sn5 3.036102 1_554
Hf4 Sn5 3.094894 1_555
Hf5 Sn1 2.943968 1_555
Hf5 Sn2 2.963070 1_455
Hf5 Sn5 2.963070 1_555
Hf5 Sn4 3.036102 1_556
Hf5 Sn4 3.094894 1_555
Hf6 Sn2 2.943968 1_555
Hf6 Sn1 2.963070 1_555
Hf6 Sn5 2.963070 1_665
Hf6 Sn3 3.036102 1_656
Hf6 Sn3 3.094894 1_655
Hf7 Sn3 2.943968 1_555
Hf7 Sn4 2.963070 1_555
Hf7 Sn0 2.963070 1_455
Hf7 Sn2 3.036102 1_454
Hf7 Sn2 3.094894 1_455
Hf8 Sn4 2.943968 1_555
Hf8 Sn3 2.963070 1_655
Hf8 Sn0 2.963070 1_565
Hf8 Sn1 3.036102 1_554
Hf8 Sn1 3.094894 1_555
Hf9 Sn5 2.943968 1_555
Hf9 Sn2 2.963070 1_555
Hf9 Sn1 2.963070 1_545
Hf9 Sn0 3.036102 1_556
Hf9 Sn0 3.094894 1_555
Al0 Hf4 2.747534 1_555
Al0 Hf9 2.747534 1_454
Al0 Hf5 2.747534 1_554
Al0 Hf8 2.747534 1_445
Al0 Hf7 2.747534 1_555
Al0 Hf6 2.747534 1_444
Al0 Au0 2.908896 1_555
Al0 Au0 2.908896 1_554
Au0 Hf4 2.793978 1_555
Au0 Hf9 2.793978 1_455
Au0 Hf5 2.793979 1_555
Au0 Hf8 2.793979 1_445
Au0 Hf7 2.793979 1_555
Au0 Hf6 2.793979 1_445
