# generated using pymatgen
data_Lu6CdTcNi
_symmetry_space_group_name_H-M   'P 1'
_cell_length_a   8.22448999
_cell_length_b   8.22449114
_cell_length_c   8.22449063
_cell_angle_alpha   114.24290350
_cell_angle_beta   110.56974687
_cell_angle_gamma   103.77128287
_symmetry_Int_Tables_number   1
_chemical_formula_structural   Lu6CdTcNi
_chemical_formula_sum   'Lu12 Cd2 Tc2 Ni2'
_cell_volume   424.63441295
_cell_formula_units_Z   2
loop_
 _symmetry_equiv_pos_site_id
 _symmetry_equiv_pos_as_xyz
  1  'x, y, z'
loop_
 _atom_site_type_symbol
 _atom_site_label
 _atom_site_symmetry_multiplicity
 _atom_site_fract_x
 _atom_site_fract_y
 _atom_site_fract_z
 _atom_site_occupancy
  Lu  Lu0  1  0.66687595  0.84914977  0.18227382  1
  Lu  Lu1  1  0.33312405  0.51539887  0.18227382  1
  Lu  Lu2  1  0.81618756  0.78846492  0.60465147  1
  Lu  Lu3  1  0.18381244  0.78846492  0.97227736  1
  Lu  Lu4  1  0.81618756  0.21153508  0.02772264  1
  Lu  Lu5  1  0.18381244  0.21153508  0.39534853  1
  Lu  Lu6  1  0.66687595  0.48460113  0.81772618  1
  Lu  Lu7  1  0.33312405  0.15085023  0.81772618  1
  Lu  Lu8  1  0.55877780  0.25688599  0.30189081  1
  Lu  Lu9  1  0.44122220  0.74311401  0.69810919  1
  Lu  Lu10  1  0.04500482  0.74311401  0.30189081  1
  Lu  Lu11  1  0.95499518  0.25688599  0.69810919  1
  Cd  Cd0  1  0.00000000  0.50000000  0.50000000  1
  Cd  Cd1  1  0.50000000  0.00000000  0.50000000  1
  Tc  Tc0  1  0.32021941  0.50000000  0.82021941  1
  Tc  Tc1  1  0.67978059  0.50000000  0.17978059  1
  Ni  Ni0  1  0.88134336  0.88134336  0.00000000  1
  Ni  Ni1  1  0.11865664  0.11865664  1.00000000  1
loop_
_geom_bond_atom_site_label_1
_geom_bond_atom_site_label_2
_geom_bond_distance
_geom_bond_site_symmetry_2
Lu0 Ni0 2.718537 1_555
Lu0 Tc0 2.890662 1_554
Lu0 Tc1 2.890662 1_555
Lu0 Lu10 3.353484 1_655
Lu0 Lu9 3.353485 1_554
Lu0 Lu8 3.511194 1_565
Lu0 Lu11 3.511199 1_565
Lu1 Ni1 2.718544 1_554
Lu1 Tc0 2.890658 1_554
Lu1 Tc1 2.890664 1_555
Lu1 Lu11 3.353484 1_454
Lu1 Lu8 3.353497 1_555
Lu1 Lu10 3.511194 1_555
Lu1 Lu9 3.511202 1_555
Lu2 Ni1 2.825629 1_665
Lu2 Ni0 2.825634 1_556
Lu2 Tc1 2.875369 1_555
Lu2 Lu9 3.404974 1_555
Lu2 Lu8 3.570074 1_555
Lu3 Ni0 2.825625 1_456
Lu3 Ni1 2.825626 1_565
Lu3 Tc0 2.875375 1_555
Lu3 Lu8 3.404965 1_566
Lu3 Lu9 3.570067 1_555
Lu4 Ni1 2.825625 1_654
Lu4 Ni0 2.825626 1_545
Lu4 Tc1 2.875375 1_555
Lu4 Lu9 3.404965 1_544
Lu4 Lu8 3.570067 1_555
Lu5 Ni0 2.825629 1_445
Lu5 Ni1 2.825634 1_554
Lu5 Tc0 2.875369 1_555
Lu5 Lu8 3.404974 1_555
Lu5 Lu9 3.570074 1_555
Lu6 Ni0 2.718544 1_556
Lu6 Tc1 2.890658 1_556
Lu6 Tc0 2.890664 1_555
Lu6 Lu9 3.353497 1_555
Lu6 Lu8 3.511202 1_555
Lu7 Ni1 2.718537 1_555
Lu7 Tc1 2.890662 1_556
Lu7 Tc0 2.890662 1_555
Lu7 Lu8 3.353485 1_556
Lu7 Lu9 3.511194 1_545
Lu8 Tc1 2.720472 1_555
Lu8 Ni1 3.157094 1_554
Lu9 Tc0 2.720472 1_555
Lu9 Ni0 3.157094 1_556
Lu10 Tc1 2.720475 1_455
Lu10 Ni0 3.157087 1_455
Lu10 Lu6 3.353484 1_454
Lu10 Lu5 3.404959 1_565
Lu10 Lu3 3.404961 1_554
Lu10 Lu7 3.511199 1_565
Lu10 Lu2 3.570067 1_455
Lu10 Lu4 3.570075 1_455
Lu10 Lu9 3.711626 1_555
Lu11 Tc0 2.720475 1_655
Lu11 Ni1 3.157087 1_655
Lu11 Lu7 3.353484 1_655
Lu11 Lu2 3.404959 1_545
Lu11 Lu4 3.404961 1_556
Lu11 Lu6 3.511194 1_555
Lu11 Lu5 3.570067 1_655
Lu11 Lu3 3.570075 1_655
Lu11 Lu8 3.711626 1_555
Cd0 Tc0 2.999699 1_555
Cd0 Tc1 2.999699 1_455
Cd0 Lu9 3.088125 1_555
Cd0 Lu8 3.088125 1_455
Cd0 Lu11 3.088132 1_455
Cd0 Lu10 3.088132 1_555
Cd0 Lu2 3.098367 1_455
Cd0 Lu5 3.098367 1_555
Cd0 Lu3 3.098368 1_555
Cd0 Lu4 3.098368 1_455
Cd1 Lu10 3.200995 1_545
Cd1 Lu11 3.200995 1_555
Cd1 Lu8 3.200997 1_555
Cd1 Lu9 3.200997 1_545
Cd1 Lu6 3.304517 1_555
Cd1 Lu1 3.304517 1_545
Cd1 Lu7 3.304523 1_555
Cd1 Lu0 3.304523 1_545
Cd1 Lu2 3.512972 1_545
Cd1 Lu5 3.512972 1_555
Cd1 Lu4 3.512973 1_556
Cd1 Lu3 3.512973 1_544
Ni0 Ni1 2.409407 1_664
