# generated using pymatgen
data_Sn4BRh6
_symmetry_space_group_name_H-M   'P 1'
_cell_length_a   5.61949985
_cell_length_b   5.61949954
_cell_length_c   13.76483252
_cell_angle_alpha   90.00000587
_cell_angle_beta   89.99999607
_cell_angle_gamma   120.00024409
_symmetry_Int_Tables_number   1
_chemical_formula_structural   Sn4BRh6
_chemical_formula_sum   'Sn8 B2 Rh12'
_cell_volume   376.44002939
_cell_formula_units_Z   2
loop_
 _symmetry_equiv_pos_site_id
 _symmetry_equiv_pos_as_xyz
  1  'x, y, z'
loop_
 _atom_site_type_symbol
 _atom_site_label
 _atom_site_symmetry_multiplicity
 _atom_site_fract_x
 _atom_site_fract_y
 _atom_site_fract_z
 _atom_site_occupancy
  Sn  Sn0  1  0.00000019  0.00000035  0.74996826  1
  Sn  Sn1  1  -0.00000473  0.00000518  0.25004221  1
  Sn  Sn2  1  0.33333331  0.66666573  0.74996211  1
  Sn  Sn3  1  0.66667127  0.33332763  0.25004623  1
  Sn  Sn4  1  0.33333162  0.66666424  0.42380089  1
  Sn  Sn5  1  0.66666842  0.33333475  0.92382863  1
  Sn  Sn6  1  0.66666517  0.33333090  0.57611345  1
  Sn  Sn7  1  0.33333499  0.66666861  0.07623263  1
  B  B0  1  0.00000213  0.00000209  0.49996921  1
  B  B1  1  -0.00000229  0.99999613  0.00003013  1
  Rh  Rh0  1  0.33586406  0.16793347  0.40642588  1
  Rh  Rh1  1  0.83207033  0.16793298  0.40642576  1
  Rh  Rh2  1  0.83207017  0.66414040  0.40642478  1
  Rh  Rh3  1  0.16792290  0.33585019  0.90639847  1
  Rh  Rh4  1  0.66412474  0.83206354  0.59351859  1
  Rh  Rh5  1  0.66414677  0.83207383  0.90639941  1
  Rh  Rh6  1  0.33582313  0.16790973  0.09365943  1
  Rh  Rh7  1  0.16794130  0.33587982  0.59351752  1
  Rh  Rh8  1  0.16793954  0.83206403  0.59351814  1
  Rh  Rh9  1  0.83208682  0.16790985  0.09365914  1
  Rh  Rh10  1  0.83208587  0.66417314  0.09365845  1
  Rh  Rh11  1  0.16792430  0.83207142  0.90639868  1
loop_
_geom_bond_atom_site_label_1
_geom_bond_atom_site_label_2
_geom_bond_distance
_geom_bond_site_symmetry_2
B0 Rh0 2.080760 1_555
B0 Rh2 2.080769 1_445
B0 Rh1 2.080769 1_455
B0 Rh7 2.080863 1_555
B0 Rh8 2.080865 1_545
B0 Rh4 2.080871 1_445
B1 Rh10 2.081336 1_455
B1 Rh9 2.081352 1_465
B1 Rh6 2.081353 1_565
B1 Rh5 2.081463 1_454
B1 Rh11 2.081475 1_554
B1 Rh3 2.081483 1_564
Rh0 Sn3 2.687981 1_555
Rh0 Sn1 2.702851 1_555
Rh0 Sn4 2.819920 1_555
Rh0 Sn4 2.819954 1_545
Rh0 Sn6 2.836779 1_555
Rh1 Sn3 2.687944 1_555
Rh1 Sn1 2.702806 1_655
Rh1 Sn4 2.819906 1_655
Rh1 Sn4 2.819948 1_545
Rh1 Sn6 2.836789 1_555
Rh2 Sn3 2.687985 1_555
Rh2 Sn1 2.702827 1_665
Rh2 Sn4 2.819936 1_655
Rh2 Sn4 2.819941 1_555
Rh2 Sn6 2.836815 1_555
Rh3 Sn2 2.688631 1_555
Rh3 Sn0 2.703305 1_555
Rh3 Sn5 2.819983 1_455
Rh3 Sn5 2.820020 1_555
Rh3 Sn7 2.838488 1_556
Rh4 Sn2 2.688640 1_555
Rh4 Sn0 2.703594 1_665
Rh4 Sn6 2.819956 1_565
Rh4 Sn6 2.819988 1_555
Rh4 Sn4 2.837098 1_555
Rh5 Sn2 2.688635 1_555
Rh5 Sn0 2.703326 1_665
Rh5 Sn5 2.820000 1_555
Rh5 Sn5 2.820001 1_565
Rh5 Sn7 2.838459 1_556
Rh6 Sn3 2.688180 1_555
Rh6 Sn1 2.702721 1_555
Rh6 Sn7 2.819980 1_545
Rh6 Sn7 2.820013 1_555
Rh6 Sn5 2.838524 1_554
Rh7 Sn2 2.688635 1_555
Rh7 Sn0 2.703618 1_555
Rh7 Sn6 2.819962 1_555
Rh7 Sn6 2.819981 1_455
Rh7 Sn4 2.837062 1_555
Rh8 Sn2 2.688650 1_555
Rh8 Sn0 2.703603 1_565
Rh8 Sn6 2.819941 1_565
Rh8 Sn6 2.819983 1_455
Rh8 Sn4 2.837093 1_555
Rh9 Sn3 2.688143 1_555
Rh9 Sn1 2.702684 1_655
Rh9 Sn7 2.819967 1_545
Rh9 Sn7 2.820006 1_655
Rh9 Sn5 2.838519 1_554
Rh10 Sn3 2.688183 1_555
Rh10 Sn1 2.702744 1_665
Rh10 Sn7 2.819988 1_555
Rh10 Sn7 2.820004 1_655
Rh10 Sn5 2.838494 1_554
Rh11 Sn2 2.688634 1_555
Rh11 Sn0 2.703321 1_565
Rh11 Sn5 2.819970 1_455
Rh11 Sn5 2.820012 1_565
Rh11 Sn7 2.838476 1_556
