# generated using pymatgen
data_SrZn4Cu9
_symmetry_space_group_name_H-M   'P 1'
_cell_length_a   8.28590251
_cell_length_b   8.28590181
_cell_length_c   8.28590292
_cell_angle_alpha   120.46798782
_cell_angle_beta   120.46798544
_cell_angle_gamma   89.19131396
_symmetry_Int_Tables_number   1
_chemical_formula_structural   SrZn4Cu9
_chemical_formula_sum   'Sr2 Zn8 Cu18'
_cell_volume   399.36923659
_cell_formula_units_Z   2
loop_
 _symmetry_equiv_pos_site_id
 _symmetry_equiv_pos_as_xyz
  1  'x, y, z'
loop_
 _atom_site_type_symbol
 _atom_site_label
 _atom_site_symmetry_multiplicity
 _atom_site_fract_x
 _atom_site_fract_y
 _atom_site_fract_z
 _atom_site_occupancy
  Sr  Sr0  1  0.25000000  0.25000000  0.00000000  1
  Sr  Sr1  1  0.75000000  0.75000000  0.00000000  1
  Zn  Zn0  1  0.80068849  0.30068849  0.86161115  1
  Zn  Zn1  1  0.56092266  0.06092266  0.86161115  1
  Zn  Zn2  1  0.19931151  0.69931151  0.13838885  1
  Zn  Zn3  1  0.69931151  0.56092266  0.50000000  1
  Zn  Zn4  1  0.06092266  0.19931151  0.50000000  1
  Zn  Zn5  1  0.30068849  0.43907734  0.50000000  1
  Zn  Zn6  1  0.93907734  0.80068849  0.50000000  1
  Zn  Zn7  1  0.43907734  0.93907734  0.13838885  1
  Cu  Cu0  1  0.06472062  0.56472062  0.27331129  1
  Cu  Cu1  1  0.70858967  0.20858967  0.27331129  1
  Cu  Cu2  1  0.93527938  0.43527938  0.72668871  1
  Cu  Cu3  1  0.43527938  0.70858967  0.50000000  1
  Cu  Cu4  1  0.20858967  0.93527938  0.50000000  1
  Cu  Cu5  1  0.56472062  0.29141033  0.50000000  1
  Cu  Cu6  1  0.79141033  0.06472062  0.50000000  1
  Cu  Cu7  1  0.29141033  0.79141033  0.72668871  1
  Cu  Cu8  1  0.43602329  0.29514828  0.73117258  1
  Cu  Cu9  1  0.79514828  0.93602329  0.73117258  1
  Cu  Cu10  1  0.00000000  0.50000000  0.50000000  1
  Cu  Cu11  1  0.50000000  0.00000000  0.50000000  1
  Cu  Cu12  1  0.56397671  0.70485172  0.26882742  1
  Cu  Cu13  1  0.70485172  0.43602329  0.14087401  1
  Cu  Cu14  1  0.29514828  0.56397671  0.85912599  1
  Cu  Cu15  1  0.93602329  0.20485172  0.14087401  1
  Cu  Cu16  1  0.06397671  0.79514828  0.85912599  1
  Cu  Cu17  1  0.20485172  0.06397671  0.26882742  1
loop_
_geom_bond_atom_site_label_1
_geom_bond_atom_site_label_2
_geom_bond_distance
_geom_bond_site_symmetry_2
Sr0 Zn2 3.386240 1_555
Sr0 Zn7 3.386240 1_545
Sr0 Zn1 3.386240 1_554
Sr0 Zn0 3.386241 1_454
Sr0 Zn6 3.386241 1_444
Sr0 Zn3 3.386241 1_555
Sr0 Zn5 3.386241 1_555
Sr0 Zn4 3.386241 1_554
Sr1 Zn0 3.386240 1_554
Sr1 Zn1 3.386240 1_564
Sr1 Zn7 3.386240 1_555
Sr1 Zn2 3.386241 1_655
Sr1 Zn4 3.386241 1_665
Sr1 Zn5 3.386241 1_554
Sr1 Zn3 3.386241 1_554
Sr1 Zn6 3.386241 1_555
Cu0 Cu10 2.480802 1_555
Cu0 Zn0 2.491540 1_454
Cu0 Zn2 2.510178 1_555
Cu0 Cu4 2.522018 1_555
Cu0 Cu3 2.522018 1_555
Cu0 Zn6 2.576045 1_455
Cu0 Zn5 2.576045 1_555
Cu0 Cu15 2.611019 1_455
Cu0 Cu13 2.611019 1_455
Cu0 Cu7 2.637535 1_555
Cu0 Sr0 3.421922 1_555
Cu0 Sr1 3.421923 1_455
Cu1 Cu10 2.480812 1_655
Cu1 Zn1 2.491543 1_554
Cu1 Zn7 2.510167 1_545
Cu1 Cu6 2.522010 1_555
Cu1 Cu5 2.522010 1_555
Cu1 Zn3 2.576048 1_555
Cu1 Zn4 2.576048 1_655
Cu1 Cu13 2.611038 1_555
Cu1 Cu15 2.611038 1_555
Cu1 Cu2 2.637535 1_555
Cu1 Sr1 3.421919 1_545
Cu1 Sr0 3.421920 1_555
Cu2 Zn2 2.491540 1_656
Cu2 Zn0 2.510178 1_555
Cu2 Cu6 2.522018 1_555
Cu2 Cu5 2.522018 1_555
Cu2 Zn4 2.576045 1_655
Cu2 Zn3 2.576045 1_555
Cu2 Sr1 3.421922 1_556
Cu2 Sr0 3.421923 1_656
Cu3 Zn3 2.491536 1_555
Cu3 Zn5 2.510171 1_555
Cu3 Cu7 2.522010 1_555
Cu3 Zn1 2.576049 1_565
Cu3 Zn2 2.576050 1_555
Cu3 Cu9 2.611023 1_555
Cu3 Cu4 2.637546 1_555
Cu3 Sr0 3.421918 1_555
Cu3 Sr1 3.421919 1_556
Cu4 Zn4 2.491536 1_565
Cu4 Zn6 2.510171 1_455
Cu4 Cu7 2.522010 1_555
Cu4 Zn2 2.576050 1_555
Cu4 Zn1 2.576050 1_565
Cu4 Cu8 2.611023 1_565
Cu4 Sr0 3.421919 1_566
Cu4 Sr1 3.421919 1_455
Cu5 Zn5 2.491536 1_555
Cu5 Zn3 2.510171 1_555
Cu5 Zn7 2.576049 1_545
Cu5 Zn0 2.576050 1_555
Cu5 Cu8 2.611033 1_555
Cu5 Cu6 2.637546 1_555
Cu5 Sr1 3.421918 1_556
Cu5 Sr0 3.421919 1_555
Cu6 Zn6 2.491536 1_545
Cu6 Zn4 2.510171 1_655
Cu6 Zn0 2.576050 1_555
Cu6 Zn7 2.576050 1_545
Cu6 Cu9 2.611033 1_545
Cu6 Sr1 3.421919 1_545
Cu6 Sr0 3.421919 1_656
Cu7 Zn7 2.491543 1_556
Cu7 Zn1 2.510167 1_565
Cu7 Zn5 2.576048 1_555
Cu7 Zn6 2.576048 1_455
Cu7 Sr0 3.421919 1_566
Cu7 Sr1 3.421920 1_556
Cu8 Zn4 2.539549 1_555
Cu8 Zn5 2.539556 1_555
Cu8 Zn1 2.634755 1_555
Cu8 Zn0 2.634761 1_555
Cu8 Sr0 3.438107 1_556
Cu8 Sr1 3.438117 1_556
Cu9 Zn3 2.539549 1_555
Cu9 Zn6 2.539556 1_555
Cu9 Zn1 2.634755 1_565
Cu9 Zn0 2.634761 1_565
Cu9 Sr1 3.438107 1_556
Cu9 Sr0 3.438117 1_666
Cu10 Cu2 2.480802 1_455
Cu10 Cu7 2.480812 1_555
Cu10 Cu16 2.484647 1_555
Cu10 Cu15 2.484647 1_455
Cu10 Cu14 2.484647 1_555
Cu10 Cu13 2.484647 1_455
Cu10 Zn6 2.535107 1_455
Cu10 Zn4 2.535107 1_555
Cu10 Zn5 2.535108 1_555
Cu10 Zn3 2.535108 1_455
Cu11 Cu5 2.480809 1_555
Cu11 Cu3 2.480809 1_545
Cu11 Cu6 2.480810 1_555
Cu11 Cu4 2.480810 1_545
Cu11 Cu8 2.484645 1_555
Cu11 Cu12 2.484645 1_545
Cu11 Cu17 2.484645 1_555
Cu11 Cu9 2.484645 1_545
Cu11 Zn0 2.535108 1_555
Cu11 Zn2 2.535108 1_545
Cu11 Zn1 2.535108 1_555
Cu11 Zn7 2.535108 1_545
Cu12 Cu14 2.496981 1_554
Cu12 Cu13 2.496992 1_555
Cu12 Zn6 2.539549 1_555
Cu12 Zn3 2.539556 1_555
Cu12 Cu6 2.611023 1_565
Cu12 Cu3 2.611033 1_555
Cu12 Zn7 2.634755 1_555
Cu12 Zn2 2.634761 1_555
Cu12 Cu9 2.689705 1_555
Cu12 Sr1 3.438107 1_555
Cu12 Sr0 3.438117 1_555
Cu13 Cu8 2.496981 1_554
Cu13 Zn0 2.539542 1_554
Cu13 Zn1 2.539549 1_554
Cu13 Zn6 2.634761 1_555
Cu13 Zn3 2.634768 1_555
Cu13 Cu15 2.689693 1_555
Cu13 Sr1 3.438108 1_555
Cu13 Sr0 3.438118 1_555
Cu14 Cu8 2.496992 1_555
Cu14 Zn2 2.539542 1_556
Cu14 Zn7 2.539549 1_556
Cu14 Cu2 2.611019 1_455
Cu14 Cu7 2.611038 1_555
Cu14 Zn4 2.634761 1_555
Cu14 Zn5 2.634768 1_555
Cu14 Cu16 2.689693 1_555
Cu14 Sr0 3.438108 1_556
Cu14 Sr1 3.438118 1_556
Cu15 Cu9 2.496981 1_544
Cu15 Cu17 2.496992 1_655
Cu15 Zn0 2.539542 1_554
Cu15 Zn1 2.539549 1_554
Cu15 Zn5 2.634761 1_655
Cu15 Zn4 2.634768 1_655
Cu15 Sr0 3.438108 1_655
Cu15 Sr1 3.438118 1_545
Cu16 Cu17 2.496981 1_566
Cu16 Cu9 2.496992 1_455
Cu16 Zn2 2.539542 1_556
Cu16 Zn7 2.539549 1_556
Cu16 Cu2 2.611019 1_455
Cu16 Cu7 2.611038 1_555
Cu16 Zn3 2.634761 1_455
Cu16 Zn6 2.634768 1_455
Cu16 Sr1 3.438108 1_456
Cu16 Sr0 3.438118 1_566
Cu17 Zn5 2.539549 1_555
Cu17 Zn4 2.539556 1_555
Cu17 Cu5 2.611023 1_555
Cu17 Cu4 2.611033 1_545
Cu17 Zn7 2.634755 1_545
Cu17 Zn2 2.634761 1_545
Cu17 Cu8 2.689705 1_555
Cu17 Sr0 3.438107 1_555
Cu17 Sr1 3.438117 1_445
