# generated using pymatgen
data_CuIrPtSe4
_symmetry_space_group_name_H-M   'P 1'
_cell_length_a   7.36981211
_cell_length_b   7.37647429
_cell_length_c   7.36981379
_cell_angle_alpha   59.97008651
_cell_angle_beta   60.16028710
_cell_angle_gamma   59.97009250
_symmetry_Int_Tables_number   1
_chemical_formula_structural   CuIrPtSe4
_chemical_formula_sum   'Cu2 Ir2 Pt2 Se8'
_cell_volume   283.51309777
_cell_formula_units_Z   2
loop_
 _symmetry_equiv_pos_site_id
 _symmetry_equiv_pos_as_xyz
  1  'x, y, z'
loop_
 _atom_site_type_symbol
 _atom_site_label
 _atom_site_symmetry_multiplicity
 _atom_site_fract_x
 _atom_site_fract_y
 _atom_site_fract_z
 _atom_site_occupancy
  Cu  Cu0  1  0.00359670  0.99640330  0.00359670  1
  Cu  Cu1  1  0.24640330  0.25359670  0.24640330  1
  Ir  Ir0  1  0.62500000  0.62500000  0.62500000  1
  Ir  Ir1  1  0.62500000  0.12500000  0.62500000  1
  Pt  Pt0  1  0.62500000  0.62500000  0.12500000  1
  Pt  Pt1  1  0.12500000  0.62500000  0.62500000  1
  Se  Se0  1  0.38965287  0.38324974  0.84384765  1
  Se  Se1  1  0.38622497  0.38232683  0.38622497  1
  Se  Se2  1  0.86377503  0.86767317  0.86377503  1
  Se  Se3  1  0.86034713  0.86675026  0.40615235  1
  Se  Se4  1  0.38622497  0.84522323  0.38622497  1
  Se  Se5  1  0.84384765  0.38324974  0.38965287  1
  Se  Se6  1  0.40615235  0.86675026  0.86034713  1
  Se  Se7  1  0.86377503  0.40477677  0.86377503  1
loop_
_geom_bond_atom_site_label_1
_geom_bond_atom_site_label_2
_geom_bond_distance
_geom_bond_site_symmetry_2
Cu0 Se6 2.425832 1_554
Cu0 Se3 2.425832 1_455
Cu0 Se7 2.457813 1_464
Cu0 Se2 2.457814 1_454
Cu1 Se5 2.425832 1_455
Cu1 Se0 2.425832 1_554
Cu1 Se4 2.457813 1_545
Cu1 Se1 2.457814 1_555
Ir0 Se7 2.488250 1_555
Ir0 Se4 2.488250 1_555
Ir0 Se3 2.494570 1_555
Ir0 Se0 2.494570 1_555
Ir0 Se6 2.494571 1_555
Ir0 Se5 2.494571 1_555
Ir1 Se2 2.488250 1_545
Ir1 Se1 2.488250 1_555
Ir1 Se5 2.494570 1_555
Ir1 Se6 2.494570 1_545
Ir1 Se0 2.494571 1_555
Ir1 Se3 2.494571 1_545
Pt0 Se2 2.517839 1_554
Pt0 Se1 2.517839 1_555
Pt0 Se4 2.517839 1_555
Pt0 Se7 2.517839 1_554
Pt0 Se5 2.521126 1_555
Pt0 Se6 2.521126 1_554
Pt1 Se4 2.517839 1_555
Pt1 Se7 2.517839 1_455
Pt1 Se2 2.517839 1_455
Pt1 Se1 2.517839 1_555
Pt1 Se0 2.521126 1_555
Pt1 Se3 2.521126 1_455
