# generated using pymatgen
data_Rb4Sr2ZrAs4
_symmetry_space_group_name_H-M   'P 1'
_cell_length_a   10.73514527
_cell_length_b   10.73514451
_cell_length_c   7.90763389
_cell_angle_alpha   87.51765077
_cell_angle_beta   87.51764895
_cell_angle_gamma   119.65894552
_symmetry_Int_Tables_number   1
_chemical_formula_structural   Rb4Sr2ZrAs4
_chemical_formula_sum   'Rb8 Sr4 Zr2 As8'
_cell_volume   788.96286174
_cell_formula_units_Z   2
loop_
 _symmetry_equiv_pos_site_id
 _symmetry_equiv_pos_as_xyz
  1  'x, y, z'
loop_
 _atom_site_type_symbol
 _atom_site_label
 _atom_site_symmetry_multiplicity
 _atom_site_fract_x
 _atom_site_fract_y
 _atom_site_fract_z
 _atom_site_occupancy
  Rb  Rb0  1  0.47813700  0.94486498  0.38802225  1
  Rb  Rb1  1  0.94486498  0.47813700  0.88802225  1
  Rb  Rb2  1  0.86766122  0.71892129  0.15427885  1
  Rb  Rb3  1  0.25908615  0.12155083  0.24324639  1
  Rb  Rb4  1  0.85431359  0.14235056  0.18788712  1
  Rb  Rb5  1  0.12155083  0.25908615  0.74324639  1
  Rb  Rb6  1  0.71892129  0.86766122  0.65427885  1
  Rb  Rb7  1  0.14235056  0.85431359  0.68788712  1
  Sr  Sr0  1  0.07717679  0.53130313  0.39823769  1
  Sr  Sr1  1  0.47427149  0.52879819  0.37641085  1
  Sr  Sr2  1  0.53130313  0.07717679  0.89823769  1
  Sr  Sr3  1  0.52879819  0.47427149  0.87641085  1
  Zr  Zr0  1  0.66452336  0.33821809  0.48998288  1
  Zr  Zr1  1  0.33821809  0.66452336  0.98998288  1
  As  As0  1  0.63356133  0.32837370  0.15932875  1
  As  As1  1  0.32837370  0.63356133  0.65932875  1
  As  As2  1  0.21412248  0.40550624  0.14224561  1
  As  As3  1  0.60359980  0.79386353  0.07384277  1
  As  As4  1  0.21533445  0.80457880  0.10054785  1
  As  As5  1  0.79386353  0.60359980  0.57384277  1
  As  As6  1  0.40550624  0.21412248  0.64224561  1
  As  As7  1  0.80457880  0.21533445  0.60054785  1
loop_
_geom_bond_atom_site_label_1
_geom_bond_atom_site_label_2
_geom_bond_distance
_geom_bond_site_symmetry_2
As0 Zr0 2.650040 1_555
As0 Sr3 3.221914 1_554
As0 Sr2 3.238589 1_554
As0 Rb1 3.481167 1_554
As0 Rb3 3.512635 1_555
As0 Rb2 3.666642 1_555
As0 Sr1 3.769222 1_555
As0 Rb4 3.787588 1_555
As0 Rb0 3.911462 1_545
As1 Zr1 2.650040 1_555
As1 Sr1 3.221914 1_555
As1 Sr0 3.238589 1_555
As1 Rb0 3.481167 1_555
As1 Rb5 3.512635 1_555
As1 Rb6 3.666643 1_555
As1 Sr3 3.769222 1_555
As1 Rb7 3.787588 1_555
As1 Rb1 3.911462 1_455
As2 Zr1 2.619376 1_554
As2 Sr1 3.159435 1_555
As2 Sr0 3.166481 1_555
As2 Rb3 3.382561 1_555
As2 Rb4 3.467328 1_455
As2 Rb5 3.545202 1_554
As2 Sr3 3.627374 1_554
As2 Rb1 3.949987 1_454
As3 Zr1 2.610081 1_554
As3 Sr1 3.310851 1_555
As3 Rb2 3.384738 1_555
As3 Rb6 3.407881 1_554
As3 Rb4 3.548284 1_565
As3 Sr3 3.563579 1_554
As3 Rb0 3.582432 1_555
As3 Sr2 3.720808 1_564
As4 Zr1 2.596549 1_554
As4 Sr0 3.337772 1_555
As4 Rb2 3.374687 1_455
As4 Rb3 3.445195 1_565
As4 Sr2 3.453871 1_564
As4 Rb7 3.468680 1_554
As4 Rb0 3.470185 1_555
As4 Rb1 3.794527 1_454
As5 Zr0 2.610081 1_555
As5 Sr3 3.310851 1_555
As5 Rb6 3.384738 1_555
As5 Rb2 3.407881 1_555
As5 Rb7 3.548284 1_655
As5 Sr1 3.563579 1_555
As5 Rb1 3.582432 1_555
As5 Sr0 3.720808 1_655
As6 Zr0 2.619377 1_555
As6 Sr3 3.159435 1_555
As6 Sr2 3.166481 1_555
As6 Rb5 3.382561 1_555
As6 Rb7 3.467328 1_545
As6 Rb3 3.545202 1_555
As6 Sr1 3.627374 1_555
As6 Rb0 3.949987 1_545
As7 Zr0 2.596549 1_555
As7 Sr2 3.337772 1_555
As7 Rb6 3.374687 1_545
As7 Rb5 3.445195 1_655
As7 Sr0 3.453871 1_655
As7 Rb4 3.468680 1_555
As7 Rb1 3.470184 1_555
As7 Rb0 3.794527 1_545
