# generated using pymatgen
data_Rb3H6Rh
_symmetry_space_group_name_H-M   'P 1'
_cell_length_a   6.15400043
_cell_length_b   6.15400159
_cell_length_c   6.15396425
_cell_angle_alpha   60.00020072
_cell_angle_beta   60.00019446
_cell_angle_gamma   60.00015939
_symmetry_Int_Tables_number   1
_chemical_formula_structural   Rb3H6Rh
_chemical_formula_sum   'Rb3 H6 Rh1'
_cell_volume   164.79989007
_cell_formula_units_Z   1
loop_
 _symmetry_equiv_pos_site_id
 _symmetry_equiv_pos_as_xyz
  1  'x, y, z'
loop_
 _atom_site_type_symbol
 _atom_site_label
 _atom_site_symmetry_multiplicity
 _atom_site_fract_x
 _atom_site_fract_y
 _atom_site_fract_z
 _atom_site_occupancy
  Rb  Rb0  1  0.75000653  0.75000203  0.74999572  1
  Rb  Rb1  1  0.24999347  0.24999797  0.25000428  1
  Rb  Rb2  1  0.50000000  0.50000000  0.50000000  1
  H  H0  1  0.80859237  0.80859195  0.19140784  1
  H  H1  1  0.19140589  0.80859386  0.19140680  1
  H  H2  1  0.80859411  0.19140614  0.19140655  1
  H  H3  1  0.19140763  0.19140805  0.80859216  1
  H  H4  1  0.80859411  0.19140614  0.80859320  1
  H  H5  1  0.19140589  0.80859386  0.80859345  1
  Rh  Rh0  1  0.00000000  0.00000000  0.00000000  1
loop_
_geom_bond_atom_site_label_1
_geom_bond_atom_site_label_2
_geom_bond_distance
_geom_bond_site_symmetry_2
H0 Rh0 1.665839 1_665
H0 Rb2 2.685704 1_555
H0 Rb0 3.118944 1_554
H0 Rb0 3.118944 1_555
H0 Rb1 3.118967 1_655
H0 Rb1 3.118997 1_565
H1 Rh0 1.665820 1_565
H1 Rb2 2.685708 1_555
H1 Rb0 3.118933 1_455
H1 Rb1 3.118945 1_565
H1 Rb1 3.118992 1_555
H1 Rb0 3.119010 1_554
H2 Rh0 1.665820 1_655
H2 Rb2 2.685708 1_555
H2 Rb1 3.118933 1_655
H2 Rb0 3.118945 1_545
H2 Rb0 3.118992 1_554
H2 Rb1 3.119010 1_555
H3 Rh0 1.665839 1_556
H3 Rb2 2.685704 1_555
H3 Rb1 3.118944 1_556
H3 Rb1 3.118944 1_555
H3 Rb0 3.118967 1_455
H3 Rb0 3.118997 1_545
H4 Rh0 1.665820 1_656
H4 Rb2 2.685708 1_555
H4 Rb1 3.118933 1_655
H4 Rb0 3.118945 1_545
H4 Rb0 3.118992 1_555
H4 Rb1 3.119010 1_556
H5 Rh0 1.665820 1_566
H5 Rb2 2.685708 1_555
H5 Rb0 3.118933 1_455
H5 Rb1 3.118945 1_565
H5 Rb1 3.118992 1_556
H5 Rb0 3.119010 1_555
