# generated using pymatgen
data_Y4Bi4Sb2Rh7
_symmetry_space_group_name_H-M   'P 1'
_cell_length_a   7.70553575
_cell_length_b   7.69293556
_cell_length_c   7.69293509
_cell_angle_alpha   110.01052503
_cell_angle_beta   109.16961056
_cell_angle_gamma   109.16961357
_symmetry_Int_Tables_number   1
_chemical_formula_structural   Y4Bi4Sb2Rh7
_chemical_formula_sum   'Y4 Bi4 Sb2 Rh7'
_cell_volume   351.30452977
_cell_formula_units_Z   1
loop_
 _symmetry_equiv_pos_site_id
 _symmetry_equiv_pos_as_xyz
  1  'x, y, z'
loop_
 _atom_site_type_symbol
 _atom_site_label
 _atom_site_symmetry_multiplicity
 _atom_site_fract_x
 _atom_site_fract_y
 _atom_site_fract_z
 _atom_site_occupancy
  Y  Y0  1  0.47329167  0.00223363  0.00223363  1
  Y  Y1  1  0.00278390  0.50139245  0.00139245  1
  Y  Y2  1  0.00278390  0.00139245  0.50139245  1
  Y  Y3  1  0.47329167  0.47105804  0.47105804  1
  Bi  Bi0  1  0.98592378  0.30706436  0.30706436  1
  Bi  Bi1  1  0.68796764  0.99272800  0.69523964  1
  Bi  Bi2  1  0.68796764  0.69523964  0.99272800  1
  Bi  Bi3  1  0.98592378  0.67885842  0.67885842  1
  Sb  Sb0  1  0.32631095  0.99329464  0.33301531  1
  Sb  Sb1  1  0.32631095  0.33301531  0.99329464  1
  Rh  Rh0  1  0.07998041  0.03999070  0.03999070  1
  Rh  Rh1  1  0.49654637  0.74827269  0.24827269  1
  Rh  Rh2  1  0.74172469  0.49991445  0.24180824  1
  Rh  Rh3  1  0.24546129  0.74679334  0.49866895  1
  Rh  Rh4  1  0.24546129  0.49866895  0.74679334  1
  Rh  Rh5  1  0.49654637  0.24827269  0.74827269  1
  Rh  Rh6  1  0.74172469  0.24180824  0.49991445  1
loop_
_geom_bond_atom_site_label_1
_geom_bond_atom_site_label_2
_geom_bond_distance
_geom_bond_site_symmetry_2
Bi0 Rh6 2.777854 1_555
Bi0 Rh2 2.777854 1_555
Bi0 Rh4 2.797177 1_655
Bi0 Rh3 2.797177 1_655
Bi0 Rh0 2.834557 1_655
Bi0 Y3 3.158205 1_655
Bi0 Y1 3.203179 1_655
Bi0 Y2 3.203179 1_655
Bi0 Y0 3.266706 1_555
Bi1 Rh3 2.812775 1_555
Bi1 Rh5 2.820889 1_565
Bi1 Rh1 2.820896 1_555
Bi1 Rh6 2.821198 1_565
Bi1 Rh0 3.106132 1_666
Bi1 Y2 3.232724 1_665
Bi1 Y1 3.232730 1_666
Bi1 Y0 3.293349 1_566
Bi1 Y3 3.293349 1_555
Bi2 Rh4 2.812775 1_555
Bi2 Rh1 2.820889 1_556
Bi2 Rh5 2.820896 1_555
Bi2 Rh2 2.821198 1_556
Bi2 Rh0 3.106131 1_666
Bi2 Y1 3.232724 1_656
Bi2 Y2 3.232730 1_666
Bi2 Y0 3.293349 1_566
Bi2 Y3 3.293349 1_555
Bi3 Rh2 2.777860 1_555
Bi3 Rh6 2.777860 1_555
Bi3 Rh3 2.797166 1_655
Bi3 Rh4 2.797166 1_655
Bi3 Rh0 2.834575 1_666
Bi3 Y0 3.158207 1_666
Bi3 Y1 3.203182 1_656
Bi3 Y2 3.203182 1_665
Bi3 Y3 3.266707 1_555
Sb0 Y0 3.118359 1_565
Sb0 Y3 3.118365 1_565
Sb0 Y1 3.172364 1_555
Sb0 Y2 3.172376 1_565
Sb1 Y0 3.118359 1_556
Sb1 Y3 3.118365 1_556
Sb1 Y2 3.172364 1_555
Sb1 Y1 3.172376 1_556
Rh0 Sb1 2.646767 1_554
Rh0 Sb0 2.646767 1_545
Rh0 Y3 3.232984 1_555
Rh0 Y0 3.232989 1_555
Rh1 Sb0 2.653889 1_555
Rh1 Sb1 2.653890 1_554
Rh1 Y1 3.119327 1_555
Rh1 Y3 3.157464 1_555
Rh1 Y0 3.157465 1_565
Rh1 Y2 3.198138 1_665
Rh2 Sb1 2.674289 1_554
Rh2 Y0 3.130484 1_555
Rh2 Y3 3.130495 1_555
Rh2 Y1 3.148022 1_655
Rh2 Y2 3.148041 1_665
Rh3 Sb0 2.647180 1_555
Rh3 Y2 3.120305 1_565
Rh3 Y1 3.120305 1_555
Rh3 Y0 3.163659 1_566
Rh3 Y3 3.163666 1_555
Rh4 Sb1 2.647180 1_555
Rh4 Y1 3.120305 1_556
Rh4 Y2 3.120305 1_555
Rh4 Y0 3.163659 1_566
Rh4 Y3 3.163665 1_555
Rh5 Sb1 2.653889 1_555
Rh5 Sb0 2.653890 1_545
Rh5 Y2 3.119327 1_555
Rh5 Y3 3.157464 1_555
Rh5 Y0 3.157465 1_556
Rh5 Y1 3.198138 1_656
Rh6 Sb0 2.674289 1_545
Rh6 Y0 3.130484 1_555
Rh6 Y3 3.130496 1_555
Rh6 Y2 3.148023 1_655
Rh6 Y1 3.148041 1_656
