# generated using pymatgen
data_LuSc5H18
_symmetry_space_group_name_H-M   'P 1'
_cell_length_a   5.86486406
_cell_length_b   5.88383846
_cell_length_c   6.14958884
_cell_angle_alpha   90.11406892
_cell_angle_beta   89.99980971
_cell_angle_gamma   119.89426183
_symmetry_Int_Tables_number   1
_chemical_formula_structural   LuSc5H18
_chemical_formula_sum   'Lu1 Sc5 H18'
_cell_volume   183.97381291
_cell_formula_units_Z   1
loop_
 _symmetry_equiv_pos_site_id
 _symmetry_equiv_pos_as_xyz
  1  'x, y, z'
loop_
 _atom_site_type_symbol
 _atom_site_label
 _atom_site_symmetry_multiplicity
 _atom_site_fract_x
 _atom_site_fract_y
 _atom_site_fract_z
 _atom_site_occupancy
  Lu  Lu0  1  0.33444593  0.99998869  0.24999733  1
  Sc  Sc0  1  0.65786332  0.00000327  0.75000558  1
  Sc  Sc1  1  0.34107513  0.34414274  0.74959910  1
  Sc  Sc2  1  0.99693645  0.65586242  0.75041120  1
  Sc  Sc3  1  0.67246739  0.67000388  0.25023077  1
  Sc  Sc4  1  0.00248397  0.33000069  0.24976428  1
  H  H0  1  0.33010943  0.95047826  0.90601041  1
  H  H1  1  0.62541614  0.66990249  0.91076661  1
  H  H2  1  0.04341330  0.37652437  0.91129192  1
  H  H3  1  0.30458812  0.32972789  0.41362652  1
  H  H4  1  0.01666855  0.68813895  0.41579357  1
  H  H5  1  0.67097985  0.97484844  0.41371528  1
  H  H6  1  0.69614087  0.02515189  0.08628645  1
  H  H7  1  0.32851340  0.31185571  0.08420228  1
  H  H8  1  0.97486268  0.67028421  0.08637289  1
  H  H9  1  0.66689333  0.62347466  0.58870557  1
  H  H10  1  0.95550964  0.33009754  0.58922854  1
  H  H11  1  0.37963019  0.04952616  0.59398050  1
  H  H12  1  0.00078839  0.00000112  0.74999814  1
  H  H13  1  0.99314858  0.99999600  0.25001935  1
  H  H14  1  0.66455667  0.33207404  0.82457640  1
  H  H15  1  0.67690118  0.34277243  0.28654890  1
  H  H16  1  0.33412356  0.65721937  0.21344665  1
  H  H17  1  0.33248495  0.66792777  0.67542475  1
loop_
_geom_bond_atom_site_label_1
_geom_bond_atom_site_label_2
_geom_bond_distance
_geom_bond_site_symmetry_2
H0 Sc0 2.035443 1_565
H0 Sc2 2.087034 1_455
H0 Lu0 2.133189 1_556
H1 Sc1 2.059948 1_555
H1 Sc0 2.103607 1_565
H1 Sc3 2.105685 1_556
H2 Sc2 2.051224 1_455
H2 Sc4 2.098052 1_556
H2 Sc1 2.098437 1_555
H3 Sc4 2.039010 1_555
H3 Sc1 2.074353 1_555
H3 Lu0 2.266760 1_545
H3 Sc3 2.318479 1_555
H4 Sc2 2.064821 1_455
H4 Lu0 2.116232 1_555
H4 Sc3 2.215399 1_455
H4 Sc4 2.303581 1_555
H5 Sc3 2.058264 1_555
H5 Sc0 2.077203 1_565
H5 Sc4 2.263144 1_665
H5 Lu0 2.285332 1_555
H6 Sc4 2.058265 1_655
H6 Sc0 2.077148 1_554
H6 Sc3 2.263069 1_545
H6 Lu0 2.285359 1_545
H7 Sc1 2.064736 1_554
H7 Lu0 2.116356 1_545
H7 Sc4 2.215230 1_555
H7 Sc3 2.303587 1_555
H8 Sc3 2.039065 1_555
H8 Sc2 2.074289 1_554
H8 Lu0 2.266604 1_655
H8 Sc4 2.318590 1_655
H9 Sc1 2.051234 1_555
H9 Sc3 2.098077 1_555
H9 Sc2 2.098460 1_555
H10 Sc2 2.060018 1_555
H10 Sc0 2.103596 1_555
H10 Sc4 2.105701 1_655
H11 Sc0 2.035529 1_555
H11 Sc1 2.087107 1_555
H11 Lu0 2.133181 1_545
H12 Sc0 2.011215 1_455
H12 Sc1 2.013681 1_555
H12 Sc2 2.013699 1_445
H13 Sc3 1.914968 1_555
H13 Sc4 1.914999 1_665
H13 Lu0 2.001684 1_655
H14 Sc2 1.984709 1_555
H14 Sc0 1.987296 1_555
H14 Sc1 1.987796 1_555
H15 Sc3 1.951731 1_555
H15 Sc4 1.961114 1_655
H15 Lu0 2.027946 1_545
H16 Sc4 1.951591 1_555
H16 Sc3 1.961016 1_555
H16 Lu0 2.027905 1_555
H17 Sc1 1.984726 1_555
H17 Sc0 1.987304 1_565
H17 Sc2 1.987804 1_455
