# generated using pymatgen
data_Cd2InSbO6
_symmetry_space_group_name_H-M   'P 1'
_cell_length_a   6.43725368
_cell_length_b   6.45353693
_cell_length_c   6.45621657
_cell_angle_alpha   91.02999816
_cell_angle_beta   90.28628171
_cell_angle_gamma   90.17186614
_symmetry_Int_Tables_number   1
_chemical_formula_structural   Cd2InSbO6
_chemical_formula_sum   'Cd4 In2 Sb2 O12'
_cell_volume   268.16299099
_cell_formula_units_Z   2
loop_
 _symmetry_equiv_pos_site_id
 _symmetry_equiv_pos_as_xyz
  1  'x, y, z'
loop_
 _atom_site_type_symbol
 _atom_site_label
 _atom_site_symmetry_multiplicity
 _atom_site_fract_x
 _atom_site_fract_y
 _atom_site_fract_z
 _atom_site_occupancy
  Cd  Cd0  1  0.56277961  0.05296880  0.74862556  1
  Cd  Cd1  1  0.94590968  0.24863220  0.44027511  1
  Cd  Cd2  1  0.25260346  0.43113872  0.94982719  1
  Cd  Cd3  1  0.43811601  0.95935304  0.25375978  1
  In  In0  1  0.05956376  0.74704672  0.56355433  1
  In  In1  1  0.74916859  0.56493814  0.05604772  1
  Sb  Sb0  1  0.50440081  0.50704098  0.50219396  1
  Sb  Sb1  1  0.99725311  0.99600493  0.00152115  1
  O  O0  1  0.03392274  0.69529647  0.91082053  1
  O  O1  1  0.70659512  0.90175091  0.04238998  1
  O  O2  1  0.92611393  0.02552862  0.70267217  1
  O  O3  1  0.93560507  0.29033625  0.08139589  1
  O  O4  1  0.28714673  0.08168375  0.95820457  1
  O  O5  1  0.07748937  0.94252870  0.29313665  1
  O  O6  1  0.79863146  0.58874489  0.42151593  1
  O  O7  1  0.57975043  0.44571399  0.79449915  1
  O  O8  1  0.40691065  0.79546583  0.56701765  1
  O  O9  1  0.20699337  0.44206271  0.56706176  1
  O  O10  1  0.44951449  0.56673475  0.20522380  1
  O  O11  1  0.58152960  0.21703162  0.44025511  1
loop_
_geom_bond_atom_site_label_1
_geom_bond_atom_site_label_2
_geom_bond_distance
_geom_bond_site_symmetry_2
Cd0 O4 2.242843 1_555
Cd0 O8 2.247507 1_545
Cd0 O11 2.275241 1_555
Cd0 O1 2.336869 1_546
Cd0 O2 2.365851 1_555
Cd0 O7 2.548500 1_555
Cd1 O9 2.233804 1_655
Cd1 O2 2.246771 1_555
Cd1 O3 2.338017 1_555
Cd1 O5 2.339415 1_645
Cd1 O11 2.353845 1_555
Cd1 O6 2.398356 1_555
Cd2 O0 2.231035 1_555
Cd2 O10 2.238732 1_556
Cd2 O4 2.268406 1_555
Cd2 O7 2.339393 1_555
Cd2 O3 2.396919 1_456
Cd2 O9 2.489422 1_555
Cd3 O11 2.230490 1_565
Cd3 O1 2.235297 1_555
Cd3 O4 2.291079 1_564
Cd3 O8 2.308466 1_555
Cd3 O5 2.338997 1_555
Cd3 O10 2.548804 1_555
In0 O6 2.155599 1_455
In0 O5 2.175598 1_555
In0 O2 2.175667 1_465
In0 O9 2.188081 1_555
In0 O8 2.256705 1_555
In0 O0 2.279418 1_555
In1 O7 2.136037 1_554
In1 O3 2.151480 1_555
In1 O10 2.160293 1_555
In1 O1 2.194946 1_555
In1 O0 2.232300 1_654
In1 O6 2.381510 1_555
O0 Sb1 2.031738 1_456
O1 Sb1 1.986021 1_555
O2 Sb1 1.993399 1_546
O3 Sb1 2.000697 1_545
O4 Sb1 1.967467 1_446
O5 Sb1 1.986270 1_455
O6 Sb0 2.037266 1_555
O7 Sb0 1.993046 1_555
O8 Sb0 2.003818 1_555
O9 Sb0 2.006492 1_555
O10 Sb0 1.992459 1_555
O11 Sb0 1.972285 1_555
