# generated using pymatgen
data_Ba4Ga2O7
_symmetry_space_group_name_H-M   'P 1'
_cell_length_a   10.77175705
_cell_length_b   7.34326578
_cell_length_c   17.86847447
_cell_angle_alpha   81.25349426
_cell_angle_beta   90.00000000
_cell_angle_gamma   90.00000000
_symmetry_Int_Tables_number   1
_chemical_formula_structural   Ba4Ga2O7
_chemical_formula_sum   'Ba24 Ga12 O42'
_cell_volume   1396.95743320
_cell_formula_units_Z   6
loop_
 _symmetry_equiv_pos_site_id
 _symmetry_equiv_pos_as_xyz
  1  'x, y, z'
loop_
 _atom_site_type_symbol
 _atom_site_label
 _atom_site_symmetry_multiplicity
 _atom_site_fract_x
 _atom_site_fract_y
 _atom_site_fract_z
 _atom_site_occupancy
  Ba  Ba0  1  0.78687738  0.03862830  0.74306036  1
  Ba  Ba1  1  0.28687738  0.46137170  0.25693964  1
  Ba  Ba2  1  0.21312262  0.96137170  0.25693964  1
  Ba  Ba3  1  0.71312262  0.53862830  0.74306036  1
  Ba  Ba4  1  0.26701736  0.45544340  0.90716330  1
  Ba  Ba5  1  0.76701736  0.04455660  0.09283670  1
  Ba  Ba6  1  0.73298264  0.54455660  0.09283670  1
  Ba  Ba7  1  0.23298264  0.95544340  0.90716330  1
  Ba  Ba8  1  0.28834825  0.49814232  0.59133795  1
  Ba  Ba9  1  0.78834825  0.00185768  0.40866205  1
  Ba  Ba10  1  0.71165175  0.50185768  0.40866205  1
  Ba  Ba11  1  0.21165175  -0.00185768  0.59133795  1
  Ba  Ba12  1  0.89556302  0.33803185  0.91807059  1
  Ba  Ba13  1  0.39556302  0.16196815  0.08192941  1
  Ba  Ba14  1  0.10443698  0.66196815  0.08192941  1
  Ba  Ba15  1  0.60443698  0.83803185  0.91807059  1
  Ba  Ba16  1  0.44825670  0.19806125  0.75084987  1
  Ba  Ba17  1  0.94825670  0.30193875  0.24915013  1
  Ba  Ba18  1  0.55174330  0.80193875  0.24915013  1
  Ba  Ba19  1  0.05174330  0.69806125  0.75084987  1
  Ba  Ba20  1  0.92362365  0.33696045  0.58561289  1
  Ba  Ba21  1  0.42362365  0.16303955  0.41438711  1
  Ba  Ba22  1  0.07637635  0.66303955  0.41438711  1
  Ba  Ba23  1  0.57637635  0.83696045  0.58561289  1
  Ga  Ga0  1  0.56954000  0.29550718  0.56586438  1
  Ga  Ga1  1  0.06954000  0.20449282  0.43413562  1
  Ga  Ga2  1  0.43046000  0.70449282  0.43413562  1
  Ga  Ga3  1  0.93046000  0.79550718  0.56586438  1
  Ga  Ga4  1  0.92813295  0.81237636  0.90888682  1
  Ga  Ga5  1  0.42813295  0.68762364  0.09111318  1
  Ga  Ga6  1  0.07186705  0.18762364  0.09111318  1
  Ga  Ga7  1  0.57186705  0.31237636  0.90888682  1
  Ga  Ga8  1  0.05883867  0.19588233  0.76702225  1
  Ga  Ga9  1  0.55883867  0.30411767  0.23297775  1
  Ga  Ga10  1  0.94116133  0.80411767  0.23297775  1
  Ga  Ga11  1  0.44116133  0.69588233  0.76702225  1
  O  O0  1  0.50000000  0.50000000  0.50000000  1
  O  O1  1  0.00000000  -0.00000000  0.50000000  1
  O  O2  1  0.43630841  0.15450575  0.92628929  1
  O  O3  1  0.93630841  0.34549425  0.07371071  1
  O  O4  1  0.56369159  0.84549425  0.07371071  1
  O  O5  1  0.06369159  0.65450575  0.92628929  1
  O  O6  1  0.14465763  0.32495576  0.50712697  1
  O  O7  1  0.64465763  0.17504424  0.49287303  1
  O  O8  1  0.85534237  0.67504424  0.49287303  1
  O  O9  1  0.35534237  0.82495576  0.50712697  1
  O  O10  1  0.93632009  0.37568016  0.75250547  1
  O  O11  1  0.43632009  0.12431984  0.24749453  1
  O  O12  1  0.06367991  0.62431984  0.24749453  1
  O  O13  1  0.56367991  0.87568016  0.75250547  1
  O  O14  1  0.42762465  0.16596314  0.60249304  1
  O  O15  1  0.92762465  0.33403686  0.39750696  1
  O  O16  1  0.57237535  0.83403686  0.39750696  1
  O  O17  1  0.07237535  0.66596314  0.60249304  1
  O  O18  1  0.21321247  0.27327331  0.79008287  1
  O  O19  1  0.71321247  0.22672669  0.20991713  1
  O  O20  1  0.78678753  0.72672669  0.20991713  1
  O  O21  1  0.28678753  0.77327331  0.79008287  1
  O  O22  1  0.68395898  0.31500236  0.63963072  1
  O  O23  1  0.18395898  0.18499764  0.36036928  1
  O  O24  1  0.31604102  0.68499764  0.36036928  1
  O  O25  1  0.81604102  0.81500236  0.63963072  1
  O  O26  1  0.99354892  0.03743318  0.85551498  1
  O  O27  1  0.49354892  0.46256682  0.14448502  1
  O  O28  1  0.00645108  0.96256682  0.14448502  1
  O  O29  1  0.50645108  0.53743318  0.85551498  1
  O  O30  1  0.67126036  0.21212986  0.84076698  1
  O  O31  1  0.17126036  0.28787014  0.15923302  1
  O  O32  1  0.32873964  0.78787014  0.15923302  1
  O  O33  1  0.82873964  0.71212986  0.84076698  1
  O  O34  1  0.33315240  0.65928057  0.00875369  1
  O  O35  1  0.83315240  0.84071943  0.99124631  1
  O  O36  1  0.66684760  0.34071943  0.99124631  1
  O  O37  1  0.16684760  0.15928057  0.00875369  1
  O  O38  1  0.04040002  0.06683506  0.68713375  1
  O  O39  1  0.54040002  0.43316494  0.31286625  1
  O  O40  1  0.95959998  0.93316494  0.31286625  1
  O  O41  1  0.45959998  0.56683506  0.68713375  1
loop_
_geom_bond_atom_site_label_1
_geom_bond_atom_site_label_2
_geom_bond_distance
_geom_bond_site_symmetry_2
Ba0 O30 2.626558 1_555
Ba0 O25 2.670936 1_545
Ba0 O13 2.679397 1_545
Ba0 O22 2.760928 1_555
Ba0 O33 2.779692 1_545
Ba0 O38 2.904536 1_655
Ba0 O10 2.978721 1_555
Ba0 O26 2.998067 1_555
Ba1 O31 2.626558 1_555
Ba1 O24 2.670936 1_555
Ba1 O12 2.679397 1_555
Ba1 O23 2.760928 1_555
Ba1 O32 2.779692 1_555
Ba1 O39 2.904536 1_555
Ba1 O11 2.978721 1_555
Ba1 O27 2.998067 1_555
Ba2 O32 2.626558 1_555
Ba2 O23 2.670936 1_565
Ba2 O11 2.679397 1_565
Ba2 O24 2.760928 1_555
Ba2 O31 2.779692 1_565
Ba2 O40 2.904536 1_455
Ba2 O12 2.978721 1_555
Ba2 O28 2.998067 1_555
Ba3 O33 2.626558 1_555
Ba3 O22 2.670936 1_555
Ba3 O10 2.679397 1_555
Ba3 O25 2.760928 1_555
Ba3 O30 2.779692 1_555
Ba3 O41 2.904536 1_555
Ba3 O13 2.978721 1_555
Ba3 O29 2.998067 1_555
Ba4 O34 2.620982 1_556
Ba4 O5 2.683721 1_555
Ba4 O18 2.711678 1_555
Ba4 O29 2.774361 1_555
Ba4 O37 2.826404 1_556
Ba4 O2 2.845346 1_555
Ba4 O21 2.895550 1_555
Ba5 O35 2.620982 1_544
Ba5 O4 2.683721 1_545
Ba5 O19 2.711678 1_555
Ba5 O28 2.774361 1_645
Ba5 O36 2.826404 1_554
Ba5 O3 2.845346 1_555
Ba5 O20 2.895550 1_545
Ba6 O36 2.620982 1_554
Ba6 O3 2.683721 1_555
Ba6 O20 2.711678 1_555
Ba6 O27 2.774361 1_555
Ba6 O35 2.826404 1_554
Ba6 O4 2.845346 1_555
Ba6 O19 2.895550 1_555
Ba7 O37 2.620982 1_566
Ba7 O2 2.683721 1_565
Ba7 O21 2.711678 1_555
Ba7 O26 2.774361 1_465
Ba7 O34 2.826404 1_556
Ba7 O5 2.845346 1_555
Ba7 O18 2.895550 1_565
Ba8 O41 2.617231 1_555
Ba8 O6 2.619012 1_555
Ba8 O17 2.654299 1_555
Ba8 O9 2.728759 1_555
Ba8 O0 2.802648 1_555
Ba8 O14 2.844768 1_555
Ba9 O40 2.617231 1_545
Ba9 O7 2.619012 1_555
Ba9 O16 2.654299 1_545
Ba9 O8 2.728759 1_545
Ba9 O1 2.802648 1_655
Ba9 O15 2.844768 1_555
Ba10 O39 2.617231 1_555
Ba10 O8 2.619012 1_555
Ba10 O15 2.654299 1_555
Ba10 O7 2.728759 1_555
Ba10 O0 2.802648 1_555
Ba10 O16 2.844768 1_555
Ba11 O38 2.617231 1_555
Ba11 O9 2.619012 1_545
Ba11 O14 2.654299 1_555
Ba11 O6 2.728759 1_555
Ba11 O1 2.802648 1_555
Ba11 O17 2.844768 1_545
Ba12 O36 2.790618 1_555
Ba12 O3 2.824222 1_556
Ba12 O26 2.826013 1_555
Ba12 O10 2.961848 1_555
Ba12 O5 2.967487 1_655
Ba12 O33 2.969620 1_555
Ba12 O30 2.998138 1_555
Ba13 O37 2.790618 1_555
Ba13 O2 2.824222 1_554
Ba13 O27 2.826013 1_555
Ba13 O11 2.961848 1_555
Ba13 O4 2.967487 1_545
Ba13 O32 2.969620 1_545
Ba13 O31 2.998138 1_555
Ba14 O34 2.790618 1_555
Ba14 O5 2.824222 1_554
Ba14 O28 2.826013 1_555
Ba14 O12 2.961848 1_555
Ba14 O3 2.967487 1_455
Ba14 O31 2.969620 1_555
Ba14 O32 2.998138 1_555
Ba15 O35 2.790618 1_555
Ba15 O4 2.824222 1_556
Ba15 O29 2.826013 1_555
Ba15 O13 2.961848 1_555
Ba15 O2 2.967487 1_565
Ba15 O30 2.969620 1_565
Ba15 O33 2.998138 1_555
Ba16 O13 2.670140 1_545
Ba16 O14 2.705975 1_555
Ba16 O18 2.706372 1_555
Ba16 O41 2.776107 1_555
Ba16 O30 2.900493 1_555
Ba16 O2 3.105015 1_555
Ba16 O22 3.257911 1_555
Ba17 O12 2.670140 1_655
Ba17 O15 2.705975 1_555
Ba17 O19 2.706372 1_555
Ba17 O40 2.776107 1_545
Ba17 O31 2.900493 1_655
Ba17 O3 3.105015 1_555
Ba17 O23 3.257911 1_655
Ba18 O11 2.670140 1_565
Ba18 O16 2.705975 1_555
Ba18 O20 2.706372 1_555
Ba18 O39 2.776107 1_555
Ba18 O32 2.900493 1_555
Ba18 O4 3.105015 1_555
Ba18 O24 3.257911 1_555
Ba19 O10 2.670140 1_455
Ba19 O17 2.705975 1_555
Ba19 O21 2.706372 1_555
Ba19 O38 2.776107 1_565
Ba19 O33 2.900493 1_455
Ba19 O5 3.105015 1_555
Ba19 O25 3.257911 1_455
Ba20 O22 2.752275 1_555
Ba20 O6 2.771455 1_655
Ba20 O38 2.777283 1_655
Ba20 O8 2.863448 1_555
Ba20 O17 2.952431 1_655
Ba20 O10 3.041452 1_555
Ba20 O1 3.207935 1_655
Ba20 O15 3.364774 1_555
Ba21 O23 2.752275 1_555
Ba21 O7 2.771455 1_555
Ba21 O39 2.777283 1_555
Ba21 O9 2.863448 1_545
Ba21 O16 2.952431 1_545
Ba21 O11 3.041452 1_555
Ba21 O0 3.207935 1_555
Ba21 O14 3.364774 1_555
Ba22 O24 2.752275 1_555
Ba22 O8 2.771455 1_455
Ba22 O40 2.777283 1_455
Ba22 O6 2.863448 1_555
Ba22 O15 2.952431 1_455
Ba22 O12 3.041452 1_555
Ba22 O1 3.207935 1_565
Ba22 O17 3.364774 1_555
Ba23 O25 2.752275 1_555
Ba23 O9 2.771455 1_555
Ba23 O41 2.777283 1_555
Ba23 O7 2.863448 1_565
Ba23 O14 2.952431 1_565
Ba23 O13 3.041452 1_555
Ba23 O0 3.207935 1_555
Ba23 O16 3.364774 1_555
Ga0 O22 1.826003 1_555
Ga0 O14 1.865690 1_555
Ga0 O7 1.867928 1_555
Ga0 O0 1.914066 1_555
Ga1 O23 1.826003 1_555
Ga1 O15 1.865690 1_455
Ga1 O6 1.867928 1_555
Ga1 O1 1.914066 1_555
Ga2 O24 1.826003 1_555
Ga2 O16 1.865690 1_555
Ga2 O9 1.867928 1_555
Ga2 O0 1.914066 1_555
Ga3 O25 1.826003 1_555
Ga3 O17 1.865690 1_655
Ga3 O8 1.867928 1_555
Ga3 O1 1.914066 1_665
Ga4 O35 1.830011 1_555
Ga4 O33 1.855328 1_555
Ga4 O5 1.860968 1_655
Ga4 O26 1.912576 1_565
Ga5 O34 1.830011 1_555
Ga5 O32 1.855328 1_555
Ga5 O4 1.860968 1_555
Ga5 O27 1.912576 1_555
Ga6 O37 1.830011 1_555
Ga6 O31 1.855328 1_555
Ga6 O3 1.860968 1_455
Ga6 O28 1.912576 1_545
Ga7 O36 1.830011 1_555
Ga7 O30 1.855328 1_555
Ga7 O2 1.860968 1_555
Ga7 O29 1.912576 1_555
Ga8 O18 1.824593 1_555
Ga8 O38 1.840262 1_555
Ga8 O10 1.856891 1_455
Ga8 O26 1.946580 1_455
Ga9 O19 1.824593 1_555
Ga9 O39 1.840262 1_555
Ga9 O11 1.856891 1_555
Ga9 O27 1.946580 1_555
Ga10 O20 1.824593 1_555
Ga10 O40 1.840262 1_555
Ga10 O12 1.856891 1_655
Ga10 O28 1.946580 1_655
Ga11 O21 1.824593 1_555
Ga11 O41 1.840262 1_555
Ga11 O13 1.856891 1_555
Ga11 O29 1.946580 1_555
