# generated using pymatgen
data_Ti5Nb(ReSi)6
_symmetry_space_group_name_H-M   'P 1'
_cell_length_a   7.51879346
_cell_length_b   7.51888343
_cell_length_c   7.51879368
_cell_angle_alpha   126.12958442
_cell_angle_beta   128.83515542
_cell_angle_gamma   77.48472639
_symmetry_Int_Tables_number   1
_chemical_formula_structural   Ti5Nb(ReSi)6
_chemical_formula_sum   'Ti5 Nb1 Re6 Si6'
_cell_volume   259.39385834
_cell_formula_units_Z   1
loop_
 _symmetry_equiv_pos_site_id
 _symmetry_equiv_pos_as_xyz
  1  'x, y, z'
loop_
 _atom_site_type_symbol
 _atom_site_label
 _atom_site_symmetry_multiplicity
 _atom_site_fract_x
 _atom_site_fract_y
 _atom_site_fract_z
 _atom_site_occupancy
  Ti  Ti0  1  0.54847929  0.09573624  0.04725695  1
  Ti  Ti1  1  0.45001802  0.49093783  0.54092081  1
  Ti  Ti2  1  0.95148302  0.49885230  0.04737028  1
  Ti  Ti3  1  0.04995678  0.09072802  0.54077224  1
  Ti  Ti4  1  0.75000462  0.89903225  0.64902764  1
  Nb  Nb0  1  0.25002495  0.90223704  0.15221209  1
  Re  Re0  1  0.50202382  0.23689860  0.73895857  1
  Re  Re1  1  0.99794003  0.23689860  0.23487478  1
  Re  Re2  1  0.13027884  0.75792212  0.62723990  1
  Re  Re3  1  0.86934912  0.49700931  0.62724776  1
  Re  Re4  1  0.63068323  0.75792212  0.12764228  1
  Re  Re5  1  0.36976155  0.49700931  0.12766019  1
  Si  Si0  1  0.74997926  0.49833729  0.24835803  1
  Si  Si1  1  0.24997359  0.49461907  0.74464548  1
  Si  Si2  1  0.33705297  0.82878417  0.50222275  1
  Si  Si3  1  0.67345494  0.16524428  0.50226872  1
  Si  Si4  1  0.82655942  0.82878417  0.99173020  1
  Si  Si5  1  0.16297656  0.16524428  0.99179034  1
loop_
_geom_bond_atom_site_label_1
_geom_bond_atom_site_label_2
_geom_bond_distance
_geom_bond_site_symmetry_2
Nb0 Si5 2.656225 1_564
Nb0 Si3 2.656229 1_565
Nb0 Si2 2.656391 1_555
Nb0 Si4 2.656402 1_454
Nb0 Si1 2.776265 1_554
Nb0 Re1 2.806528 1_465
Nb0 Re0 2.806528 1_565
Nb0 Re2 2.912697 1_554
Nb0 Re4 2.912707 1_555
Nb0 Re5 2.912779 1_555
Nb0 Re3 2.912779 1_454
Re0 Si1 2.400122 1_555
Re0 Si0 2.400818 1_556
Re0 Si2 2.561768 1_545
Re0 Si3 2.562029 1_555
Re0 Ti4 2.808895 1_545
Re0 Ti3 2.883938 1_555
Re0 Ti1 2.884172 1_555
Re0 Ti0 2.889111 1_556
Re0 Ti2 2.889214 1_556
Re1 Si1 2.400123 1_655
Re1 Si0 2.400818 1_555
Re1 Si4 2.561771 1_544
Re1 Si5 2.562029 1_654
Re1 Ti4 2.808895 1_544
Re1 Ti3 2.883942 1_655
Re1 Ti1 2.884176 1_655
Re1 Ti0 2.889111 1_555
Re1 Ti2 2.889210 1_555
Re2 Si0 2.397298 1_455
Re2 Si1 2.408497 1_555
Re2 Si2 2.523272 1_555
Re2 Si5 2.556382 1_565
Re2 Ti3 2.796441 1_565
Re2 Ti0 2.803619 1_566
Re2 Ti2 2.894765 1_455
Re2 Ti4 2.897464 1_455
Re2 Ti1 2.925637 1_555
Re3 Si0 2.396711 1_555
Re3 Si1 2.407868 1_655
Re3 Si3 2.523352 1_555
Re3 Si4 2.555967 1_555
Re3 Ti1 2.797284 1_555
Re3 Ti2 2.804503 1_556
Re3 Ti0 2.895685 1_555
Re3 Ti4 2.897262 1_555
Re3 Ti3 2.926737 1_655
Re4 Si0 2.397303 1_555
Re4 Si1 2.408502 1_554
Re4 Si4 2.523252 1_554
Re4 Si3 2.556387 1_565
Re4 Ti3 2.796439 1_665
Re4 Ti0 2.803613 1_565
Re4 Ti2 2.894760 1_555
Re4 Ti4 2.897475 1_555
Re4 Ti1 2.925625 1_554
Re5 Si0 2.396711 1_555
Re5 Si1 2.407868 1_554
Re5 Si5 2.523352 1_554
Re5 Si2 2.555963 1_555
Re5 Ti1 2.797287 1_555
Re5 Ti2 2.804499 1_455
Re5 Ti0 2.895685 1_555
Re5 Ti4 2.897262 1_555
Re5 Ti3 2.926734 1_554
Si0 Ti4 2.729284 1_555
Si0 Ti2 2.731305 1_555
Si0 Ti0 2.731697 1_555
Si1 Ti1 2.725951 1_555
Si1 Ti3 2.726238 1_555
Si2 Ti0 2.619627 1_566
Si2 Ti4 2.619687 1_555
Si2 Ti1 2.623999 1_555
Si2 Ti3 2.625187 1_565
Si2 Ti2 2.632927 1_455
Si3 Ti2 2.619880 1_556
Si3 Ti4 2.619935 1_545
Si3 Ti3 2.624391 1_655
Si3 Ti1 2.625592 1_555
Si3 Ti0 2.633045 1_555
Si4 Ti0 2.619617 1_566
Si4 Ti4 2.619687 1_555
Si4 Ti1 2.623988 1_555
Si4 Ti3 2.625194 1_666
Si4 Ti2 2.632936 1_556
Si5 Ti2 2.619880 1_456
Si5 Ti4 2.619939 1_445
Si5 Ti3 2.624391 1_555
Si5 Ti1 2.625592 1_556
Si5 Ti0 2.633041 1_556
