# generated using pymatgen
data_Zr6BeI12
_symmetry_space_group_name_H-M   'P 1'
_cell_length_a   9.22964341
_cell_length_b   9.22964405
_cell_length_c   9.22964479
_cell_angle_alpha   107.10521027
_cell_angle_beta   107.10521256
_cell_angle_gamma   107.10520386
_symmetry_Int_Tables_number   1
_chemical_formula_structural   Zr6BeI12
_chemical_formula_sum   'Zr6 Be1 I12'
_cell_volume   652.89944269
_cell_formula_units_Z   1
loop_
 _symmetry_equiv_pos_site_id
 _symmetry_equiv_pos_as_xyz
  1  'x, y, z'
loop_
 _atom_site_type_symbol
 _atom_site_label
 _atom_site_symmetry_multiplicity
 _atom_site_fract_x
 _atom_site_fract_y
 _atom_site_fract_z
 _atom_site_occupancy
  Zr  Zr0  1  0.97115431  0.71674850  0.90628673  1
  Zr  Zr1  1  0.28325150  0.09371327  0.02884569  1
  Zr  Zr2  1  0.09371327  0.02884569  0.28325150  1
  Zr  Zr3  1  0.90628673  0.97115431  0.71674850  1
  Zr  Zr4  1  0.71674850  0.90628673  0.97115431  1
  Zr  Zr5  1  0.02884569  0.28325150  0.09371327  1
  Be  Be0  1  0.00000000  0.00000000  0.00000000  1
  I  I0  1  0.92136989  0.31181333  0.77453805  1
  I  I1  1  0.68818667  0.22546195  0.07863011  1
  I  I2  1  0.44668407  0.14461162  0.37114844  1
  I  I3  1  0.85538838  0.62885156  0.55331593  1
  I  I4  1  0.22546195  0.07863011  0.68818667  1
  I  I5  1  0.62885156  0.55331593  0.85538838  1
  I  I6  1  0.37114844  0.44668407  0.14461162  1
  I  I7  1  0.77453805  0.92136989  0.31181333  1
  I  I8  1  0.14461162  0.37114844  0.44668407  1
  I  I9  1  0.55331593  0.85538838  0.62885156  1
  I  I10  1  0.31181333  0.77453805  0.92136989  1
  I  I11  1  0.07863011  0.68818667  0.22546195  1
loop_
_geom_bond_atom_site_label_1
_geom_bond_atom_site_label_2
_geom_bond_distance
_geom_bond_site_symmetry_2
Be0 Zr1 2.403861 1_555
Be0 Zr4 2.403861 1_444
Be0 Zr5 2.403861 1_555
Be0 Zr0 2.403861 1_444
Be0 Zr2 2.403861 1_555
Be0 Zr3 2.403861 1_444
I0 Zr5 2.936548 1_656
I0 Zr3 2.983613 1_545
I0 Zr0 3.412576 1_555
I1 Zr4 2.936548 1_544
I1 Zr5 2.983613 1_655
I1 Zr1 3.412576 1_555
I2 Zr2 2.881103 1_555
I2 Zr1 2.895531 1_555
I3 Zr0 2.881104 1_555
I3 Zr3 2.895531 1_555
I4 Zr3 2.936548 1_445
I4 Zr1 2.983613 1_556
I4 Zr2 3.412576 1_555
I5 Zr4 2.881104 1_555
I5 Zr0 2.895531 1_555
I6 Zr1 2.881104 1_555
I6 Zr5 2.895531 1_555
I7 Zr2 2.936548 1_665
I7 Zr4 2.983613 1_554
I7 Zr3 3.412576 1_555
I8 Zr5 2.881104 1_555
I8 Zr2 2.895531 1_555
I9 Zr3 2.881103 1_555
I9 Zr4 2.895531 1_555
I10 Zr1 2.936548 1_566
I10 Zr0 2.983613 1_455
I10 Zr4 3.412576 1_555
I11 Zr0 2.936548 1_454
I11 Zr2 2.983613 1_565
I11 Zr5 3.412576 1_555
