# generated using pymatgen
data_Ca2CdPtRh
_symmetry_space_group_name_H-M   'P 1'
_cell_length_a   5.63216586
_cell_length_b   5.63216452
_cell_length_c   5.63216604
_cell_angle_alpha   134.31103965
_cell_angle_beta   116.65610194
_cell_angle_gamma   81.53601821
_symmetry_Int_Tables_number   1
_chemical_formula_structural   Ca2CdPtRh
_chemical_formula_sum   'Ca2 Cd1 Pt1 Rh1'
_cell_volume   110.32746549
_cell_formula_units_Z   1
loop_
 _symmetry_equiv_pos_site_id
 _symmetry_equiv_pos_as_xyz
  1  'x, y, z'
loop_
 _atom_site_type_symbol
 _atom_site_label
 _atom_site_symmetry_multiplicity
 _atom_site_fract_x
 _atom_site_fract_y
 _atom_site_fract_z
 _atom_site_occupancy
  Ca  Ca0  1  0.29664333  0.79593521  0.50070812  1
  Ca  Ca1  1  0.70477290  0.20406479  0.50070812  1
  Cd  Cd0  1  0.99328083  0.00000000  0.99328083  1
  Pt  Pt0  1  0.28420537  0.50000000  0.78420537  1
  Rh  Rh0  1  0.72109657  0.50000000  0.22109657  1
loop_
_geom_bond_atom_site_label_1
_geom_bond_atom_site_label_2
_geom_bond_distance
_geom_bond_site_symmetry_2
Ca0 Rh0 3.018076 1_455
Ca0 Pt0 3.030729 1_555
Ca0 Pt0 3.074334 1_565
Ca0 Pt0 3.074335 1_554
Ca0 Rh0 3.083978 1_566
Ca0 Rh0 3.083978 1_555
Ca0 Cd0 3.340212 1_454
Ca0 Cd0 3.340213 1_465
Ca0 Cd0 3.393803 1_565
Ca0 Cd0 3.469511 1_464
Ca0 Ca1 3.481815 1_565
Ca0 Ca1 3.760376 1_555
Ca0 Ca1 3.760377 1_465
Ca0 Ca1 3.760378 1_454
Ca0 Ca1 3.760378 1_566
Ca1 Rh0 3.018076 1_555
Ca1 Pt0 3.030729 1_655
Ca1 Pt0 3.074335 1_544
Ca1 Pt0 3.074335 1_555
Ca1 Rh0 3.083977 1_545
Ca1 Rh0 3.083978 1_556
Ca1 Cd0 3.340212 1_565
Ca1 Cd0 3.340213 1_554
Ca1 Cd0 3.393802 1_555
Ca1 Cd0 3.469512 1_454
Cd0 Rh0 2.715255 1_556
Cd0 Rh0 2.715256 1_545
Cd0 Pt0 2.782400 1_645
Cd0 Pt0 2.782401 1_656
Pt0 Rh0 2.583947 1_556
