# generated using pymatgen
data_CsK2AsSe4
_symmetry_space_group_name_H-M   'P 1'
_cell_length_a   9.92610671
_cell_length_b   10.09353238
_cell_length_c   10.97188369
_cell_angle_alpha   90.00000000
_cell_angle_beta   90.00000000
_cell_angle_gamma   90.00000000
_symmetry_Int_Tables_number   1
_chemical_formula_structural   CsK2AsSe4
_chemical_formula_sum   'Cs4 K8 As4 Se16'
_cell_volume   1099.26731530
_cell_formula_units_Z   4
loop_
 _symmetry_equiv_pos_site_id
 _symmetry_equiv_pos_as_xyz
  1  'x, y, z'
loop_
 _atom_site_type_symbol
 _atom_site_label
 _atom_site_symmetry_multiplicity
 _atom_site_fract_x
 _atom_site_fract_y
 _atom_site_fract_z
 _atom_site_occupancy
  Cs  Cs0  1  0.65292579  0.40150150  0.75000000  1
  Cs  Cs1  1  0.15292579  0.09849850  0.75000000  1
  Cs  Cs2  1  0.34707421  0.59849850  0.25000000  1
  Cs  Cs3  1  0.84707421  0.90150150  0.25000000  1
  K  K0  1  0.55894524  0.19873683  0.05008580  1
  K  K1  1  0.05894524  0.30126317  0.44991420  1
  K  K2  1  0.44105476  0.80126317  0.55008580  1
  K  K3  1  0.94105476  0.69873683  0.94991420  1
  K  K4  1  0.44105476  0.80126317  0.94991420  1
  K  K5  1  0.94105476  0.69873683  0.55008580  1
  K  K6  1  0.55894524  0.19873683  0.44991420  1
  K  K7  1  0.05894524  0.30126317  0.05008580  1
  As  As0  1  0.72206411  0.97426075  0.75000000  1
  As  As1  1  0.22206411  0.52573925  0.75000000  1
  As  As2  1  0.27793589  0.02573925  0.25000000  1
  As  As3  1  0.77793589  0.47426075  0.25000000  1
  Se  Se0  1  0.83705525  0.03487132  0.57465198  1
  Se  Se1  1  0.33705525  0.46512868  0.92534802  1
  Se  Se2  1  0.16294475  0.96512868  0.07465198  1
  Se  Se3  1  0.66294475  0.53487132  0.42534802  1
  Se  Se4  1  0.16294475  0.96512868  0.42534802  1
  Se  Se5  1  0.66294475  0.53487132  0.07465198  1
  Se  Se6  1  0.83705525  0.03487132  0.92534802  1
  Se  Se7  1  0.33705525  0.46512868  0.57465198  1
  Se  Se8  1  0.68995295  0.74638152  0.75000000  1
  Se  Se9  1  0.18995295  0.75361848  0.75000000  1
  Se  Se10  1  0.31004705  0.25361848  0.25000000  1
  Se  Se11  1  0.81004705  0.24638152  0.25000000  1
  Se  Se12  1  0.50858870  0.07094233  0.75000000  1
  Se  Se13  1  0.00858870  0.42905767  0.75000000  1
  Se  Se14  1  0.49141130  0.92905767  0.25000000  1
  Se  Se15  1  0.99141130  0.57094233  0.25000000  1
loop_
_geom_bond_atom_site_label_1
_geom_bond_atom_site_label_2
_geom_bond_distance
_geom_bond_site_symmetry_2
Cs0 Se8 3.500406 1_555
Cs0 Se13 3.541288 1_655
Cs0 Se12 3.631107 1_555
Cs0 Se1 3.734213 1_555
Cs0 Se7 3.734213 1_555
Cs0 Se5 3.809229 1_556
Cs0 Se3 3.809229 1_555
Cs1 Se9 3.500406 1_545
Cs1 Se12 3.541288 1_555
Cs1 Se13 3.631107 1_555
Cs1 Se6 3.734213 1_455
Cs1 Se0 3.734213 1_455
Cs1 Se2 3.809229 1_546
Cs1 Se4 3.809229 1_545
Cs2 Se10 3.500406 1_555
Cs2 Se15 3.541288 1_455
Cs2 Se14 3.631107 1_555
Cs2 Se3 3.734213 1_555
Cs2 Se5 3.734213 1_555
Cs2 Se7 3.809229 1_555
Cs2 Se1 3.809229 1_554
Cs3 Se11 3.500406 1_565
Cs3 Se14 3.541288 1_555
Cs3 Se15 3.631107 1_555
Cs3 Se4 3.734213 1_655
Cs3 Se2 3.734213 1_655
Cs3 Se0 3.809229 1_565
Cs3 Se6 3.809229 1_564
K0 Se10 3.349901 1_555
K0 Se11 3.354817 1_555
K0 Se6 3.497053 1_554
K0 Se5 3.556585 1_555
K0 Se14 3.559480 1_545
K0 Se12 3.571313 1_554
K0 Se1 3.735498 1_554
K1 Se11 3.349901 1_455
K1 Se10 3.354817 1_555
K1 Se7 3.497053 1_555
K1 Se4 3.556585 1_545
K1 Se15 3.559480 1_455
K1 Se13 3.571313 1_555
K1 Se0 3.735498 1_455
K2 Se8 3.349901 1_555
K2 Se9 3.354817 1_555
K2 Se4 3.497053 1_555
K2 Se7 3.556585 1_555
K2 Se12 3.559480 1_565
K2 Se14 3.571313 1_555
K2 Se3 3.735498 1_555
K3 Se9 3.349901 1_655
K3 Se8 3.354817 1_555
K3 Se5 3.497053 1_556
K3 Se6 3.556585 1_565
K3 Se13 3.559480 1_655
K3 Se15 3.571313 1_556
K3 Se2 3.735498 1_656
K4 Se8 3.349901 1_555
K4 Se9 3.354817 1_555
K4 Se2 3.497053 1_556
K4 Se1 3.556585 1_555
K4 Se12 3.559480 1_565
K4 Se14 3.571313 1_556
K4 Se5 3.735498 1_556
K5 Se9 3.349901 1_655
K5 Se8 3.354817 1_555
K5 Se3 3.497053 1_555
K5 Se0 3.556585 1_565
K5 Se13 3.559480 1_655
K5 Se15 3.571313 1_555
K5 Se4 3.735498 1_655
K6 Se10 3.349901 1_555
K6 Se11 3.354817 1_555
K6 Se0 3.497053 1_555
K6 Se3 3.556585 1_555
K6 Se14 3.559480 1_545
K6 Se12 3.571313 1_555
K6 Se7 3.735498 1_555
K7 Se11 3.349901 1_455
K7 Se10 3.354817 1_555
K7 Se1 3.497053 1_554
K7 Se2 3.556585 1_545
K7 Se15 3.559480 1_455
K7 Se13 3.571313 1_554
K7 Se6 3.735498 1_454
As0 Se6 2.319155 1_565
As0 Se0 2.319155 1_565
As0 Se8 2.322086 1_555
As0 Se12 2.332890 1_565
As1 Se1 2.319155 1_555
As1 Se7 2.319155 1_555
As1 Se9 2.322086 1_555
As1 Se13 2.332890 1_555
As2 Se4 2.319155 1_545
As2 Se2 2.319155 1_545
As2 Se10 2.322086 1_555
As2 Se14 2.332890 1_545
As3 Se3 2.319155 1_555
As3 Se5 2.319155 1_555
As3 Se11 2.322086 1_555
As3 Se15 2.332890 1_555
