# generated using pymatgen
data_HfNi4Pt
_symmetry_space_group_name_H-M   'P 1'
_cell_length_a   4.73753938
_cell_length_b   4.73753969
_cell_length_c   4.73753976
_cell_angle_alpha   60.00000633
_cell_angle_beta   60.00000412
_cell_angle_gamma   59.99999714
_symmetry_Int_Tables_number   1
_chemical_formula_structural   HfNi4Pt
_chemical_formula_sum   'Hf1 Ni4 Pt1'
_cell_volume   75.18714411
_cell_formula_units_Z   1
loop_
 _symmetry_equiv_pos_site_id
 _symmetry_equiv_pos_as_xyz
  1  'x, y, z'
loop_
 _atom_site_type_symbol
 _atom_site_label
 _atom_site_symmetry_multiplicity
 _atom_site_fract_x
 _atom_site_fract_y
 _atom_site_fract_z
 _atom_site_occupancy
  Hf  Hf0  1  0.25000000  0.25000000  0.25000000  1
  Ni  Ni0  1  0.62575358  0.62575358  0.62575358  1
  Ni  Ni1  1  0.12274025  0.62575358  0.62575358  1
  Ni  Ni2  1  0.62575358  0.12274025  0.62575358  1
  Ni  Ni3  1  0.62575358  0.62575358  0.12274025  1
  Pt  Pt0  1  0.00000000  0.00000000  0.00000000  1
loop_
_geom_bond_atom_site_label_1
_geom_bond_atom_site_label_2
_geom_bond_distance
_geom_bond_site_symmetry_2
Hf0 Ni3 2.779162 1_455
Hf0 Ni3 2.779162 1_545
Hf0 Ni2 2.779162 1_455
Hf0 Ni2 2.779163 1_554
Hf0 Ni1 2.779163 1_554
Hf0 Ni1 2.779163 1_545
Hf0 Ni0 2.779164 1_455
Hf0 Ni0 2.779164 1_545
Hf0 Ni0 2.779165 1_554
Hf0 Ni2 2.779166 1_555
Hf0 Ni1 2.779166 1_555
Hf0 Ni3 2.779167 1_555
Hf0 Pt0 2.901139 1_655
Hf0 Pt0 2.901139 1_555
Hf0 Pt0 2.901139 1_565
Hf0 Pt0 2.901139 1_556
Ni0 Ni1 2.354494 1_655
Ni0 Ni2 2.354494 1_565
Ni0 Ni3 2.354494 1_556
Ni0 Ni1 2.383045 1_555
Ni0 Ni2 2.383046 1_555
Ni0 Ni3 2.383046 1_555
Ni0 Pt0 2.776120 1_566
Ni0 Pt0 2.776120 1_656
Ni0 Pt0 2.776120 1_665
Ni1 Ni2 2.354494 1_465
Ni1 Ni3 2.354494 1_456
Ni1 Ni2 2.383045 1_555
Ni1 Ni3 2.383046 1_555
Ni1 Pt0 2.776118 1_566
Ni1 Pt0 2.776122 1_565
Ni1 Pt0 2.776122 1_556
Ni2 Ni3 2.354494 1_546
Ni2 Ni3 2.383046 1_555
Ni2 Pt0 2.776118 1_656
Ni2 Pt0 2.776122 1_556
Ni2 Pt0 2.776122 1_655
Ni3 Pt0 2.776118 1_665
Ni3 Pt0 2.776122 1_565
Ni3 Pt0 2.776122 1_655
