# generated using pymatgen
data_Rb2Si(PdSe2)3
_symmetry_space_group_name_H-M   'P 1'
_cell_length_a   8.23986400
_cell_length_b   8.23986407
_cell_length_c   8.23986426
_cell_angle_alpha   51.46880079
_cell_angle_beta   51.46879432
_cell_angle_gamma   51.46880223
_symmetry_Int_Tables_number   1
_chemical_formula_structural   Rb2Si(PdSe2)3
_chemical_formula_sum   'Rb2 Si1 Pd3 Se6'
_cell_volume   316.12816832
_cell_formula_units_Z   1
loop_
 _symmetry_equiv_pos_site_id
 _symmetry_equiv_pos_as_xyz
  1  'x, y, z'
loop_
 _atom_site_type_symbol
 _atom_site_label
 _atom_site_symmetry_multiplicity
 _atom_site_fract_x
 _atom_site_fract_y
 _atom_site_fract_z
 _atom_site_occupancy
  Rb  Rb0  1  0.79857777  0.79857777  0.79857777  1
  Rb  Rb1  1  0.20142223  0.20142223  0.20142223  1
  Si  Si0  1  0.00000000  0.00000000  0.00000000  1
  Pd  Pd0  1  0.50000000  0.50000000  0.00000000  1
  Pd  Pd1  1  0.50000000  0.00000000  0.50000000  1
  Pd  Pd2  1  0.00000000  0.50000000  0.50000000  1
  Se  Se0  1  0.77168706  0.77168706  0.26932036  1
  Se  Se1  1  0.26932036  0.77168706  0.77168706  1
  Se  Se2  1  0.77168706  0.26932036  0.77168706  1
  Se  Se3  1  0.73067964  0.22831294  0.22831294  1
  Se  Se4  1  0.22831294  0.22831294  0.73067964  1
  Se  Se5  1  0.22831294  0.73067964  0.22831294  1
loop_
_geom_bond_atom_site_label_1
_geom_bond_atom_site_label_2
_geom_bond_distance
_geom_bond_site_symmetry_2
Rb0 Se1 3.614319 1_655
Rb0 Se2 3.614319 1_565
Rb0 Se0 3.614319 1_556
Rb0 Se5 3.874077 1_556
Rb0 Se5 3.874077 1_655
Rb0 Se3 3.874077 1_556
Rb0 Se4 3.874077 1_655
Rb0 Se4 3.874077 1_565
Rb0 Se3 3.874077 1_565
Rb1 Se3 3.614319 1_455
Rb1 Se5 3.614319 1_545
Rb1 Se4 3.614319 1_554
Rb1 Se2 3.874077 1_554
Rb1 Se2 3.874077 1_455
Rb1 Se1 3.874077 1_554
Rb1 Se0 3.874077 1_455
Rb1 Se0 3.874077 1_545
Rb1 Se1 3.874077 1_545
Pd0 Se5 2.463794 1_555
Pd0 Se2 2.463794 1_554
Pd0 Se3 2.463795 1_555
Pd0 Se1 2.463795 1_554
Pd0 Rb0 3.496673 1_554
Pd0 Rb1 3.496673 1_555
Pd1 Se3 2.463794 1_555
Pd1 Se1 2.463794 1_545
Pd1 Se0 2.463794 1_545
Pd1 Se4 2.463794 1_555
Pd1 Rb0 3.496673 1_545
Pd1 Rb1 3.496673 1_555
Pd2 Se5 2.463794 1_555
Pd2 Se2 2.463794 1_455
Pd2 Se4 2.463795 1_555
Pd2 Se0 2.463795 1_455
Pd2 Rb0 3.496673 1_455
Pd2 Rb1 3.496673 1_555
Se0 Si0 2.451467 1_665
Se1 Si0 2.451468 1_566
Se2 Si0 2.451468 1_656
Se3 Si0 2.451468 1_655
Se4 Si0 2.451467 1_556
Se5 Si0 2.451468 1_565
