# generated using pymatgen
data_Ca4CuSi6Hg
_symmetry_space_group_name_H-M   'P 1'
_cell_length_a   8.32695824
_cell_length_b   8.17149104
_cell_length_c   5.99357360
_cell_angle_alpha   70.08953486
_cell_angle_beta   67.31983179
_cell_angle_gamma   42.59061775
_symmetry_Int_Tables_number   1
_chemical_formula_structural   Ca4CuSi6Hg
_chemical_formula_sum   'Ca4 Cu1 Si6 Hg1'
_cell_volume   253.60387441
_cell_formula_units_Z   1
loop_
 _symmetry_equiv_pos_site_id
 _symmetry_equiv_pos_as_xyz
  1  'x, y, z'
loop_
 _atom_site_type_symbol
 _atom_site_label
 _atom_site_symmetry_multiplicity
 _atom_site_fract_x
 _atom_site_fract_y
 _atom_site_fract_z
 _atom_site_occupancy
  Ca  Ca0  1  0.74731969  0.74731969  0.75268031  1
  Ca  Ca1  1  0.75558464  0.24881750  0.75118250  1
  Ca  Ca2  1  0.24731969  0.24731969  0.25268031  1
  Ca  Ca3  1  0.24881750  0.75558464  0.24441536  1
  Cu  Cu0  1  0.66683490  0.66683490  0.33316510  1
  Si  Si0  1  0.82774247  0.34243883  0.17225753  1
  Si  Si1  1  0.68240105  0.15934229  0.31759895  1
  Si  Si2  1  0.15934229  0.68240105  0.84065771  1
  Si  Si3  1  0.34243883  0.82774247  0.65756117  1
  Si  Si4  1  0.15818779  0.15818779  0.84181221  1
  Si  Si5  1  0.83005697  0.83005697  0.16994303  1
  Hg  Hg0  1  0.33395518  0.33395518  0.66604482  1
loop_
_geom_bond_atom_site_label_1
_geom_bond_atom_site_label_2
_geom_bond_distance
_geom_bond_site_symmetry_2
Ca0 Si0 3.176187 1_556
Ca0 Si3 3.176188 1_555
Ca0 Cu0 3.206046 1_556
Ca0 Cu0 3.206047 1_555
Ca0 Si5 3.217515 1_555
Ca0 Si5 3.217515 1_556
Ca0 Hg0 3.238009 1_565
Ca0 Hg0 3.238009 1_655
Ca0 Si4 3.251558 1_655
Ca0 Si4 3.251558 1_565
Ca0 Si1 3.294734 1_565
Ca0 Si2 3.294734 1_655
Ca1 Si4 3.091471 1_655
Ca1 Si1 3.130662 1_556
Ca1 Si2 3.130662 1_645
Ca1 Si0 3.201101 1_555
Ca1 Si3 3.201101 1_555
Ca1 Cu0 3.220741 1_555
Ca1 Si0 3.236794 1_556
Ca1 Si3 3.236794 1_645
Ca1 Hg0 3.257930 1_555
Ca1 Si5 3.258763 1_546
Ca1 Si1 3.291002 1_555
Ca1 Si2 3.291002 1_555
Ca2 Si3 3.176187 1_545
Ca2 Si0 3.176188 1_455
Ca2 Cu0 3.206047 1_545
Ca2 Cu0 3.206047 1_455
Ca2 Si5 3.217515 1_455
Ca2 Si5 3.217515 1_545
Ca2 Hg0 3.238009 1_554
Ca2 Hg0 3.238009 1_555
Ca2 Si4 3.251557 1_555
Ca2 Si4 3.251558 1_554
Ca2 Si2 3.294734 1_554
Ca2 Si1 3.294734 1_555
Ca3 Si4 3.091470 1_564
Ca3 Si2 3.130662 1_554
Ca3 Si1 3.130663 1_465
Ca3 Si3 3.201101 1_555
Ca3 Si0 3.201101 1_555
Ca3 Cu0 3.220742 1_555
Ca3 Si3 3.236794 1_554
Ca3 Si0 3.236794 1_465
Ca3 Hg0 3.257929 1_555
Ca3 Si5 3.258763 1_455
Ca3 Si2 3.291002 1_555
Ca3 Si1 3.291002 1_555
Cu0 Si3 2.295032 1_555
Cu0 Si0 2.295032 1_555
Cu0 Si5 2.310484 1_555
Si0 Si1 2.329704 1_555
Si0 Si4 2.342887 1_654
Si1 Si5 2.333793 1_545
Si2 Si3 2.329704 1_555
Si2 Si5 2.333793 1_456
Si3 Si4 2.342888 1_565
Hg0 Si1 2.465148 1_555
Hg0 Si2 2.465148 1_555
Hg0 Si4 2.488069 1_555
