# generated using pymatgen
data_Sc3NiSb4Au3
_symmetry_space_group_name_H-M   'P 1'
_cell_length_a   7.68325038
_cell_length_b   7.81958493
_cell_length_c   7.72631013
_cell_angle_alpha   131.82376579
_cell_angle_beta   131.36642307
_cell_angle_gamma   71.13052928
_symmetry_Int_Tables_number   1
_chemical_formula_structural   Sc3NiSb4Au3
_chemical_formula_sum   'Sc3 Ni1 Sb4 Au3'
_cell_volume   253.83833804
_cell_formula_units_Z   1
loop_
 _symmetry_equiv_pos_site_id
 _symmetry_equiv_pos_as_xyz
  1  'x, y, z'
loop_
 _atom_site_type_symbol
 _atom_site_label
 _atom_site_symmetry_multiplicity
 _atom_site_fract_x
 _atom_site_fract_y
 _atom_site_fract_z
 _atom_site_occupancy
  Sc  Sc0  1  0.99126290  0.99818963  1.00000000  1
  Sc  Sc1  1  0.74997335  0.24625228  0.49129985  1
  Sc  Sc2  1  0.25867250  0.75495442  0.50870215  1
  Ni  Ni0  1  0.63068340  0.10667948  1.00000000  1
  Sb  Sb0  1  0.27778304  0.25269298  1.00000000  1
  Sb  Sb1  1  0.73982420  0.75920695  0.00000000  1
  Sb  Sb2  1  0.50589461  0.01937317  0.53512900  1
  Sb  Sb3  1  0.97076561  0.48424617  0.46487300  1
  Au  Au0  1  0.13245127  0.62603906  0.00000000  1
  Au  Au1  1  0.87448709  0.87932597  0.50628506  1
  Au  Au2  1  0.36820303  0.37304191  0.49371594  1
loop_
_geom_bond_atom_site_label_1
_geom_bond_atom_site_label_2
_geom_bond_distance
_geom_bond_site_symmetry_2
Ni0 Sb1 2.571383 1_546
Ni0 Sb0 2.579338 1_555
Ni0 Sc0 2.621967 1_545
Ni0 Sb2 2.624372 1_555
Ni0 Sb3 2.624380 1_556
Ni0 Sc2 2.638851 1_545
Ni0 Sc1 2.638854 1_556
Sb0 Sc2 3.083509 1_545
Sb0 Sc1 3.083525 1_556
Sb0 Sc1 3.270604 1_455
Sb0 Sc2 3.270619 1_556
Sb0 Sc0 3.411818 1_445
Sb1 Sc1 3.072441 1_565
Sb1 Sc2 3.072445 1_554
Sb1 Sc0 3.091839 1_554
Sb1 Sc2 3.274127 1_655
Sb1 Sc1 3.274130 1_554
Sb2 Sc2 3.064233 1_545
Sb2 Sc0 3.086266 1_545
Sb2 Sc1 3.251391 1_555
Sb2 Sc0 3.264750 1_444
Sb3 Sc1 3.064227 1_555
Sb3 Sc0 3.086278 1_544
Sb3 Sc2 3.251385 1_655
Sb3 Sc0 3.264736 1_555
Au0 Sc0 2.757413 1_454
Au0 Sb0 2.767893 1_554
Au0 Sc1 2.777543 1_454
Au0 Sc2 2.777553 1_555
Au0 Sb3 2.802742 1_454
Au0 Sb2 2.802749 1_565
Au0 Sb1 2.855286 1_455
Au1 Sc0 2.739915 1_555
Au1 Sb1 2.762828 1_555
Au1 Sc1 2.771674 1_565
Au1 Sb3 2.776698 1_555
Au1 Sc2 2.784557 1_655
Au1 Sb2 2.787788 1_565
Au1 Sb0 2.837589 1_665
Au2 Sc0 2.739922 1_444
Au2 Sb1 2.762821 1_556
Au2 Sc2 2.771677 1_555
Au2 Sb2 2.776710 1_555
Au2 Sc1 2.784568 1_555
Au2 Sb3 2.787799 1_455
Au2 Sb0 2.837588 1_554
