# generated using pymatgen
data_Hg3Bi(Pt2O7)2
_symmetry_space_group_name_H-M   'P 1'
_cell_length_a   7.16479888
_cell_length_b   7.31216759
_cell_length_c   7.16479957
_cell_angle_alpha   60.66447725
_cell_angle_beta   60.00000120
_cell_angle_gamma   60.66447187
_symmetry_Int_Tables_number   1
_chemical_formula_structural   Hg3Bi(Pt2O7)2
_chemical_formula_sum   'Hg3 Bi1 Pt4 O14'
_cell_volume   268.05801488
_cell_formula_units_Z   1
loop_
 _symmetry_equiv_pos_site_id
 _symmetry_equiv_pos_as_xyz
  1  'x, y, z'
loop_
 _atom_site_type_symbol
 _atom_site_label
 _atom_site_symmetry_multiplicity
 _atom_site_fract_x
 _atom_site_fract_y
 _atom_site_fract_z
 _atom_site_occupancy
  Hg  Hg0  1  0.12500000  0.12500000  0.62500000  1
  Hg  Hg1  1  0.62500000  0.12500000  0.12500000  1
  Hg  Hg2  1  0.12500000  0.12500000  0.12500000  1
  Bi  Bi0  1  0.12500000  0.62500000  0.12500000  1
  Pt  Pt0  1  0.62500000  0.62500000  0.12500000  1
  Pt  Pt1  1  0.62500000  0.12500000  0.62500000  1
  Pt  Pt2  1  0.12500000  0.62500000  0.62500000  1
  Pt  Pt3  1  0.62500000  0.62500000  0.62500000  1
  O  O0  1  0.24405458  0.26783727  0.24405458  1
  O  O1  1  0.00594542  0.98216273  0.00594542  1
  O  O2  1  0.54468898  0.95300255  0.54468898  1
  O  O3  1  0.29178153  0.69772695  0.29178153  1
  O  O4  1  0.53129001  0.55227305  0.95821847  1
  O  O5  1  0.95821847  0.55227305  0.53129001  1
  O  O6  1  0.54468898  0.95300255  0.95761848  1
  O  O7  1  0.95761848  0.95300255  0.54468898  1
  O  O8  1  0.95821847  0.55227305  0.95821847  1
  O  O9  1  0.70531102  0.29699745  0.29238152  1
  O  O10  1  0.29178153  0.69772695  0.71870999  1
  O  O11  1  0.70531102  0.29699745  0.70531102  1
  O  O12  1  0.29238152  0.29699745  0.70531102  1
  O  O13  1  0.71870999  0.69772695  0.29178153  1
loop_
_geom_bond_atom_site_label_1
_geom_bond_atom_site_label_2
_geom_bond_distance
_geom_bond_site_symmetry_2
Hg0 O1 2.240450 1_546
Hg0 O0 2.240450 1_555
Hg0 O2 2.495609 1_545
Hg0 O11 2.495609 1_455
Hg0 O12 2.495615 1_555
Hg0 O7 2.495615 1_445
Hg0 O5 2.593967 1_455
Hg0 O10 2.593967 1_545
Hg1 O1 2.240449 1_645
Hg1 O0 2.240449 1_555
Hg1 O2 2.495609 1_545
Hg1 O11 2.495609 1_554
Hg1 O9 2.495615 1_555
Hg1 O6 2.495615 1_544
Hg1 O4 2.593967 1_554
Hg1 O13 2.593967 1_545
Hg2 O0 2.240455 1_555
Hg2 O1 2.240455 1_545
Hg2 O6 2.495609 1_544
Hg2 O9 2.495609 1_455
Hg2 O7 2.495610 1_445
Hg2 O12 2.495610 1_554
Hg2 O8 2.593967 1_454
Hg2 O3 2.593967 1_545
Bi0 O1 2.153556 1_555
Bi0 O0 2.153556 1_555
Bi0 O4 2.410785 1_554
Bi0 O13 2.410785 1_455
Bi0 O3 2.410785 1_555
Bi0 O8 2.410785 1_454
Bi0 O5 2.410785 1_455
Bi0 O10 2.410785 1_554
O2 Pt1 1.998308 1_565
O2 Pt3 2.010260 1_555
O3 Pt0 1.984022 1_555
O3 Pt2 1.984022 1_555
O4 Pt0 1.984022 1_556
O4 Pt3 1.984022 1_555
O5 Pt3 1.984022 1_555
O5 Pt2 1.984022 1_655
O6 Pt1 1.998303 1_565
O6 Pt0 2.010261 1_556
O7 Pt1 1.998303 1_565
O7 Pt2 2.010261 1_655
O8 Pt0 1.984022 1_556
O8 Pt2 1.984022 1_655
O9 Pt1 1.998303 1_555
O9 Pt0 2.010261 1_555
O10 Pt3 1.984022 1_555
O10 Pt2 1.984022 1_555
O11 Pt1 1.998308 1_555
O11 Pt3 2.010260 1_555
O12 Pt1 1.998303 1_555
O12 Pt2 2.010261 1_555
O13 Pt0 1.984022 1_555
O13 Pt3 1.984022 1_555
