# generated using pymatgen
data_CsRb(Pt2Br9)2
_symmetry_space_group_name_H-M   'P 1'
_cell_length_a   6.57286085
_cell_length_b   10.28990388
_cell_length_c   12.32812011
_cell_angle_alpha   66.84539547
_cell_angle_beta   90.00000000
_cell_angle_gamma   90.00000000
_symmetry_Int_Tables_number   1
_chemical_formula_structural   CsRb(Pt2Br9)2
_chemical_formula_sum   'Cs1 Rb1 Pt4 Br18'
_cell_volume   766.63632687
_cell_formula_units_Z   1
loop_
 _symmetry_equiv_pos_site_id
 _symmetry_equiv_pos_as_xyz
  1  'x, y, z'
loop_
 _atom_site_type_symbol
 _atom_site_label
 _atom_site_symmetry_multiplicity
 _atom_site_fract_x
 _atom_site_fract_y
 _atom_site_fract_z
 _atom_site_occupancy
  Cs  Cs0  1  0.42543886  0.50000000  0.25000000  1
  Rb  Rb0  1  0.57627536  0.50000000  0.75000000  1
  Pt  Pt0  1  0.24643858  0.83868094  0.84953838  1
  Pt  Pt1  1  0.75297582  0.16019421  0.14658985  1
  Pt  Pt2  1  0.24643858  0.16131906  0.65046162  1
  Pt  Pt3  1  0.75297582  0.83980579  0.35341015  1
  Br  Br0  1  0.09288945  0.76598897  0.04557566  1
  Br  Br1  1  0.90221485  0.23161526  0.94953858  1
  Br  Br2  1  0.09288945  0.23401103  0.45442434  1
  Br  Br3  1  0.90221485  0.76838474  0.55046142  1
  Br  Br4  1  0.10641454  0.62955535  0.82701292  1
  Br  Br5  1  0.89889543  0.37020790  0.16438186  1
  Br  Br6  1  0.10641454  0.37044465  0.67298708  1
  Br  Br7  1  0.89889543  0.62979210  0.33561814  1
  Br  Br8  1  0.94989956  0.00000000  0.75000000  1
  Br  Br9  1  0.04875443  0.00000000  0.25000000  1
  Br  Br10  1  0.39004450  0.06141639  0.85881567  1
  Br  Br11  1  0.60861001  0.93391606  0.14409218  1
  Br  Br12  1  0.39004450  0.93858361  0.64118433  1
  Br  Br13  1  0.60861001  0.06608394  0.35590782  1
  Br  Br14  1  0.56322329  0.71010130  0.93015947  1
  Br  Br15  1  0.43810893  0.28815820  0.06131693  1
  Br  Br16  1  0.56322329  0.28989870  0.56984053  1
  Br  Br17  1  0.43810893  0.71184180  0.43868307  1
loop_
_geom_bond_atom_site_label_1
_geom_bond_atom_site_label_2
_geom_bond_distance
_geom_bond_site_symmetry_2
Br0 Pt0 2.448924 1_554
Br0 Cs0 3.632576 1_555
Br1 Pt1 2.449421 1_556
Br1 Rb0 3.595151 1_555
Br2 Pt2 2.448924 1_555
Br2 Cs0 3.632576 1_555
Br3 Pt3 2.449421 1_555
Br3 Rb0 3.595151 1_555
Br4 Pt0 2.454530 1_555
Br4 Rb0 3.634797 1_555
Br4 Rb0 3.976924 1_455
Br5 Pt1 2.451689 1_555
Br5 Cs0 3.700098 1_555
Br5 Cs0 3.998026 1_655
Br6 Pt2 2.454530 1_555
Br6 Rb0 3.634797 1_555
Br6 Rb0 3.976924 1_455
Br7 Pt3 2.451689 1_555
Br7 Cs0 3.700098 1_555
Br7 Cs0 3.998026 1_655
Br8 Pt2 2.541336 1_655
Br8 Pt0 2.541336 1_645
Br9 Pt3 2.543492 1_445
Br9 Pt1 2.543492 1_455
Br10 Pt0 2.522520 1_545
Br10 Pt2 2.543408 1_555
Br11 Pt1 2.525686 1_565
Br11 Pt3 2.555763 1_555
Br11 Cs0 4.301796 1_555
Br12 Pt2 2.522520 1_565
Br12 Pt0 2.543408 1_555
Br13 Pt3 2.525686 1_545
Br13 Pt1 2.555763 1_555
Br13 Cs0 4.301796 1_555
Br14 Pt0 2.457578 1_555
Br14 Rb0 3.659291 1_555
Br14 Cs0 3.786512 1_556
Br15 Pt1 2.456316 1_555
Br15 Rb0 3.704991 1_554
Br15 Cs0 3.762576 1_555
Br16 Pt2 2.457578 1_555
Br16 Rb0 3.659291 1_555
Br16 Cs0 3.786512 1_555
Br17 Pt3 2.456316 1_555
Br17 Rb0 3.704991 1_555
Br17 Cs0 3.762576 1_555
