# generated using pymatgen
data_Rb2Si2Hg3S8
_symmetry_space_group_name_H-M   'P 1'
_cell_length_a   6.37303904
_cell_length_b   9.96017857
_cell_length_c   13.19252010
_cell_angle_alpha   84.34637768
_cell_angle_beta   90.00000000
_cell_angle_gamma   90.00000000
_symmetry_Int_Tables_number   1
_chemical_formula_structural   Rb2Si2Hg3S8
_chemical_formula_sum   'Rb4 Si4 Hg6 S16'
_cell_volume   833.34291543
_cell_formula_units_Z   2
loop_
 _symmetry_equiv_pos_site_id
 _symmetry_equiv_pos_as_xyz
  1  'x, y, z'
loop_
 _atom_site_type_symbol
 _atom_site_label
 _atom_site_symmetry_multiplicity
 _atom_site_fract_x
 _atom_site_fract_y
 _atom_site_fract_z
 _atom_site_occupancy
  Rb  Rb0  1  0.15693889  0.22924108  0.68041933  1
  Rb  Rb1  1  0.84306111  0.77075892  0.31958067  1
  Rb  Rb2  1  0.65693889  0.77075892  0.81958067  1
  Rb  Rb3  1  0.34306111  0.22924108  0.18041933  1
  Si  Si0  1  0.20289640  0.71781598  0.58299805  1
  Si  Si1  1  0.79710360  0.28218402  0.41700195  1
  Si  Si2  1  0.70289640  0.28218402  0.91700195  1
  Si  Si3  1  0.29710360  0.71781598  0.08299805  1
  Hg  Hg0  1  0.22170845  0.49106303  0.89538721  1
  Hg  Hg1  1  0.77829155  0.50893697  0.10461279  1
  Hg  Hg2  1  0.72170845  0.50893697  0.60461279  1
  Hg  Hg3  1  0.27829155  0.49106303  0.39538721  1
  Hg  Hg4  1  0.50000000  0.00000000  0.50000000  1
  Hg  Hg5  1  0.00000000  0.00000000  0.00000000  1
  S  S0  1  0.86814789  0.73472415  0.58628954  1
  S  S1  1  0.13185211  0.26527585  0.41371046  1
  S  S2  1  0.36814789  0.26527585  0.91371046  1
  S  S3  1  0.63185211  0.73472415  0.08628954  1
  S  S4  1  0.32024271  0.55147720  0.67359244  1
  S  S5  1  0.67975729  0.44852280  0.32640756  1
  S  S6  1  0.82024271  0.44852280  0.82640756  1
  S  S7  1  0.17975729  0.55147720  0.17359244  1
  S  S8  1  0.29718070  0.90691127  0.63884411  1
  S  S9  1  0.70281930  0.09308873  0.36115589  1
  S  S10  1  0.79718070  0.09308873  0.86115589  1
  S  S11  1  0.20281930  0.90691127  0.13884411  1
  S  S12  1  0.18202099  0.72626150  0.92992928  1
  S  S13  1  0.81797901  0.27373850  0.07007072  1
  S  S14  1  0.68202099  0.27373850  0.57007072  1
  S  S15  1  0.31797901  0.72626150  0.42992928  1
loop_
_geom_bond_atom_site_label_1
_geom_bond_atom_site_label_2
_geom_bond_distance
_geom_bond_site_symmetry_2
Rb0 S4 3.366806 1_555
Rb0 S14 3.368876 1_455
Rb0 S2 3.410355 1_555
Rb0 S8 3.428362 1_545
Rb0 S10 3.484806 1_455
Rb0 S1 3.505116 1_555
Rb0 S14 3.658794 1_555
Rb0 S6 3.729970 1_455
Rb1 S5 3.366806 1_555
Rb1 S15 3.368876 1_655
Rb1 S3 3.410355 1_555
Rb1 S9 3.428362 1_565
Rb1 S11 3.484806 1_655
Rb1 S0 3.505116 1_555
Rb1 S15 3.658794 1_555
Rb1 S7 3.729970 1_655
Rb2 S6 3.366806 1_555
Rb2 S12 3.368876 1_555
Rb2 S0 3.410355 1_555
Rb2 S10 3.428362 1_565
Rb2 S8 3.484806 1_555
Rb2 S3 3.505116 1_556
Rb2 S12 3.658794 1_655
Rb2 S4 3.729970 1_555
Rb3 S7 3.366806 1_555
Rb3 S13 3.368876 1_555
Rb3 S1 3.410355 1_555
Rb3 S11 3.428362 1_545
Rb3 S9 3.484806 1_555
Rb3 S2 3.505116 1_554
Rb3 S13 3.658794 1_455
Rb3 S5 3.729970 1_555
Hg0 S2 2.424824 1_555
Hg0 S12 2.443323 1_555
Hg0 S6 2.762217 1_455
Hg0 S4 2.995193 1_555
Hg1 S3 2.424824 1_555
Hg1 S13 2.443323 1_555
Hg1 S7 2.762217 1_655
Hg1 S5 2.995193 1_555
Hg2 S0 2.424824 1_555
Hg2 S14 2.443323 1_555
Hg2 S4 2.762217 1_555
Hg2 S6 2.995193 1_555
Hg3 S1 2.424824 1_555
Hg3 S15 2.443323 1_555
Hg3 S5 2.762217 1_555
Hg3 S7 2.995193 1_555
Hg4 S8 2.356042 1_545
Hg4 S9 2.356042 1_555
Hg5 S11 2.356042 1_545
Hg5 S10 2.356042 1_454
S0 Si0 2.140779 1_655
S1 Si1 2.140779 1_455
S2 Si2 2.140779 1_555
S3 Si3 2.140779 1_555
S4 Si0 2.083852 1_555
S5 Si1 2.083852 1_555
S6 Si2 2.083852 1_555
S7 Si3 2.083852 1_555
S8 Si0 2.173600 1_555
S9 Si1 2.173600 1_555
S10 Si2 2.173600 1_555
S11 Si3 2.173600 1_555
S12 Si3 2.142276 1_556
S13 Si2 2.142276 1_554
S14 Si1 2.142276 1_555
S15 Si0 2.142276 1_555
