# generated using pymatgen
data_BeFe5B2
_symmetry_space_group_name_H-M   'P 1'
_cell_length_a   6.29469887
_cell_length_b   6.29469874
_cell_length_c   6.29469939
_cell_angle_alpha   128.64317061
_cell_angle_beta   128.64317189
_cell_angle_gamma   75.58541088
_symmetry_Int_Tables_number   1
_chemical_formula_structural   BeFe5B2
_chemical_formula_sum   'Be2 Fe10 B4'
_cell_volume   148.03237530
_cell_formula_units_Z   2
loop_
 _symmetry_equiv_pos_site_id
 _symmetry_equiv_pos_as_xyz
  1  'x, y, z'
loop_
 _atom_site_type_symbol
 _atom_site_label
 _atom_site_symmetry_multiplicity
 _atom_site_fract_x
 _atom_site_fract_y
 _atom_site_fract_z
 _atom_site_occupancy
  Be  Be0  1  0.25000000  0.25000000  0.00000000  1
  Be  Be1  1  0.75000000  0.75000000  0.00000000  1
  Fe  Fe0  1  0.50000000  0.50000000  0.00000000  1
  Fe  Fe1  1  0.31277816  0.47591559  0.50000000  1
  Fe  Fe2  1  0.81277816  0.31277816  0.83686157  1
  Fe  Fe3  1  0.68722184  0.52408441  0.50000000  1
  Fe  Fe4  1  0.02408441  0.18722184  0.50000000  1
  Fe  Fe5  1  0.52408441  0.02408441  0.83686157  1
  Fe  Fe6  1  0.18722184  0.68722184  0.16313843  1
  Fe  Fe7  1  0.47591559  0.97591559  0.16313843  1
  Fe  Fe8  1  0.00000000  0.00000000  0.00000000  1
  Fe  Fe9  1  0.97591559  0.81277816  0.50000000  1
  B  B0  1  0.88075977  0.38075977  0.26151953  1
  B  B1  1  0.38075977  0.11924023  0.50000000  1
  B  B2  1  0.11924023  0.61924023  0.73848047  1
  B  B3  1  0.61924023  0.88075977  0.50000000  1
loop_
_geom_bond_atom_site_label_1
_geom_bond_atom_site_label_2
_geom_bond_distance
_geom_bond_site_symmetry_2
Be0 Fe6 2.284896 1_555
Be0 Fe2 2.284896 1_454
Be0 Fe3 2.284897 1_555
Be0 Fe9 2.284897 1_444
Be0 Fe4 2.284898 1_554
Be0 Fe1 2.284898 1_555
Be0 Fe7 2.284901 1_545
Be0 Fe5 2.284901 1_554
Be0 Fe0 2.487139 1_555
Be0 Fe8 2.487139 1_555
Be1 Fe2 2.284896 1_554
Be1 Fe6 2.284896 1_655
Be1 Fe1 2.284897 1_554
Be1 Fe4 2.284897 1_665
Be1 Fe9 2.284898 1_555
Be1 Fe3 2.284898 1_554
Be1 Fe5 2.284901 1_564
Be1 Fe7 2.284901 1_555
Be1 Fe8 2.487139 1_665
Be1 Fe0 2.487139 1_555
B0 B2 1.839844 1_655
B0 Fe9 2.144057 1_555
B0 Fe1 2.144057 1_655
B0 Fe4 2.144057 1_655
B0 Fe3 2.144057 1_555
B0 Fe0 2.176605 1_555
B0 Fe8 2.176605 1_655
B0 Fe5 2.178426 1_554
B0 Fe2 2.178433 1_554
B1 B3 1.839844 1_545
B1 Fe5 2.144052 1_555
B1 Fe7 2.144052 1_545
B1 Fe6 2.144058 1_545
B1 Fe2 2.144058 1_555
B1 Fe8 2.176605 1_555
B1 Fe0 2.176605 1_556
B1 Fe1 2.178427 1_555
B1 Fe4 2.178427 1_555
B2 Fe4 2.144057 1_555
B2 Fe3 2.144057 1_455
B2 Fe9 2.144057 1_455
B2 Fe1 2.144057 1_555
B2 Fe0 2.176605 1_556
B2 Fe8 2.176605 1_566
B2 Fe7 2.178426 1_556
B2 Fe6 2.178433 1_556
B3 Fe7 2.144052 1_555
B3 Fe5 2.144052 1_565
B3 Fe2 2.144058 1_565
B3 Fe6 2.144058 1_555
B3 Fe8 2.176605 1_666
B3 Fe0 2.176605 1_555
B3 Fe3 2.178427 1_555
B3 Fe9 2.178427 1_555
