# generated using pymatgen
data_Rb12Ga2SbAs5
_symmetry_space_group_name_H-M   'P 1'
_cell_length_a   5.99999197
_cell_length_b   10.23354214
_cell_length_c   11.94821577
_cell_angle_alpha   78.74773351
_cell_angle_beta   90.00000000
_cell_angle_gamma   90.00000000
_symmetry_Int_Tables_number   1
_chemical_formula_structural   Rb12Ga2SbAs5
_chemical_formula_sum   'Rb12 Ga2 Sb1 As5'
_cell_volume   719.53219371
_cell_formula_units_Z   1
loop_
 _symmetry_equiv_pos_site_id
 _symmetry_equiv_pos_as_xyz
  1  'x, y, z'
loop_
 _atom_site_type_symbol
 _atom_site_label
 _atom_site_symmetry_multiplicity
 _atom_site_fract_x
 _atom_site_fract_y
 _atom_site_fract_z
 _atom_site_occupancy
  Rb  Rb0  1  0.75000000  0.45846272  0.07556120  1
  Rb  Rb1  1  0.25000000  0.54164401  0.92189068  1
  Rb  Rb2  1  0.75000000  0.74370994  0.22776148  1
  Rb  Rb3  1  0.25000000  0.26554480  0.77103011  1
  Rb  Rb4  1  0.25000000  0.56157100  0.54076461  1
  Rb  Rb5  1  0.75000000  0.44194995  0.46299544  1
  Rb  Rb6  1  0.25000000  0.85480448  0.01959946  1
  Rb  Rb7  1  0.75000000  0.13219315  0.96404825  1
  Rb  Rb8  1  0.25000000  0.87760027  0.67800132  1
  Rb  Rb9  1  0.75000000  0.12242903  0.32662966  1
  Rb  Rb10  1  0.25000000  0.90945775  0.37617269  1
  Rb  Rb11  1  0.75000000  0.08342926  0.62859490  1
  Ga  Ga0  1  0.25000000  0.33088282  0.28998649  1
  Ga  Ga1  1  0.75000000  0.67647613  0.71811231  1
  Sb  Sb0  1  0.25000000  0.18073115  0.12377227  1
  As  As0  1  0.75000000  0.81279465  0.86951679  1
  As  As1  1  0.25000000  0.21590434  0.48674685  1
  As  As2  1  0.75000000  0.78567630  0.51731782  1
  As  As3  1  0.25000000  0.56787309  0.23137323  1
  As  As4  1  0.75000000  0.43686317  0.77012743  1
loop_
_geom_bond_atom_site_label_1
_geom_bond_atom_site_label_2
_geom_bond_distance
_geom_bond_site_symmetry_2
Rb0 Sb0 4.095221 1_555
Rb0 Sb0 4.095221 1_655
Rb1 Sb0 3.997858 1_556
Rb3 Sb0 4.133875 1_556
Rb6 Sb0 3.780763 1_565
Rb7 Sb0 3.641250 1_556
Rb7 Sb0 3.641250 1_656
Rb9 Sb0 3.829663 1_555
Rb9 Sb0 3.829663 1_655
Rb10 Sb0 3.678872 1_565
Ga0 Sb0 2.737892 1_555
Ga0 Rb9 3.657568 1_455
Ga0 Rb9 3.657568 1_555
Ga1 Rb8 3.616759 1_555
Ga1 Rb8 3.616759 1_655
As0 Ga1 2.490677 1_555
As0 Rb6 3.563888 1_556
As0 Rb6 3.563888 1_656
As0 Rb11 3.584045 1_565
As0 Rb7 3.660613 1_565
As0 Rb8 3.752830 1_655
As0 Rb8 3.752830 1_555
As0 Rb0 3.965522 1_556
As1 Ga0 2.414920 1_555
As1 Rb3 3.531129 1_555
As1 Rb11 3.579614 1_555
As1 Rb11 3.579614 1_455
As1 Rb10 3.632782 1_545
As1 Rb4 3.717622 1_555
As1 Rb8 3.757691 1_545
As1 Rb5 3.765027 1_455
As1 Rb5 3.765027 1_555
As1 Rb9 3.780110 1_455
As1 Rb9 3.780110 1_555
As2 Ga1 2.440977 1_555
As2 Rb10 3.551750 1_655
As2 Rb10 3.551750 1_555
As2 Rb11 3.554349 1_565
As2 Rb2 3.568429 1_555
As2 Rb5 3.699370 1_555
As2 Rb9 3.742051 1_565
As2 Rb4 3.753314 1_655
As2 Rb4 3.753314 1_555
As2 Rb8 3.778316 1_555
As2 Rb8 3.778316 1_655
As3 Ga0 2.389446 1_555
As3 Rb6 3.482091 1_555
As3 Rb2 3.494209 1_455
As3 Rb2 3.494209 1_555
As3 Rb4 3.684634 1_555
As3 Rb1 3.759369 1_554
As3 Rb0 3.812205 1_455
As3 Rb0 3.812205 1_555
As4 Ga1 2.409203 1_555
As4 Rb3 3.473673 1_655
As4 Rb3 3.473673 1_555
As4 Rb7 3.502895 1_555
As4 Rb5 3.659878 1_555
As4 Rb0 3.698878 1_556
As4 Rb1 3.767840 1_655
As4 Rb1 3.767840 1_555
