# generated using pymatgen
data_CrCoAg2F7
_symmetry_space_group_name_H-M   'P 1'
_cell_length_a   7.42064515
_cell_length_b   7.42064528
_cell_length_c   7.42064474
_cell_angle_alpha   120.81950961
_cell_angle_beta   118.54940509
_cell_angle_gamma   90.55854478
_symmetry_Int_Tables_number   1
_chemical_formula_structural   CrCoAg2F7
_chemical_formula_sum   'Cr2 Co2 Ag4 F14'
_cell_volume   290.16395700
_cell_formula_units_Z   2
loop_
 _symmetry_equiv_pos_site_id
 _symmetry_equiv_pos_as_xyz
  1  'x, y, z'
loop_
 _atom_site_type_symbol
 _atom_site_label
 _atom_site_symmetry_multiplicity
 _atom_site_fract_x
 _atom_site_fract_y
 _atom_site_fract_z
 _atom_site_occupancy
  Cr  Cr0  1  0.00000000  0.00000000  0.50000000  1
  Cr  Cr1  1  0.00000000  0.50000000  0.00000000  1
  Co  Co0  1  0.50000000  0.00000000  0.50000000  1
  Co  Co1  1  0.00000000  0.50000000  0.50000000  1
  Ag  Ag0  1  0.00000000  0.00000000  0.00000000  1
  Ag  Ag1  1  0.50000000  0.50000000  0.00000000  1
  Ag  Ag2  1  0.50000000  0.00000000  0.00000000  1
  Ag  Ag3  1  0.50000000  0.50000000  0.50000000  1
  F  F0  1  0.36893296  0.09617361  0.27275935  1
  F  F1  1  0.67658474  0.40382639  0.27275935  1
  F  F2  1  0.70007066  0.32304220  0.77902938  1
  F  F3  1  0.95598718  0.17695780  0.37702846  1
  F  F4  1  0.95598718  0.57895972  0.77902938  1
  F  F5  1  0.70007066  0.92104028  0.37702846  1
  F  F6  1  0.29992934  0.07895972  0.62297154  1
  F  F7  1  0.04401282  0.42104028  0.22097062  1
  F  F8  1  0.04401282  0.82304220  0.62297154  1
  F  F9  1  0.29992934  0.67695780  0.22097062  1
  F  F10  1  0.91750049  0.75000000  0.16750049  1
  F  F11  1  0.63106704  0.90382639  0.72724065  1
  F  F12  1  0.32341526  0.59617361  0.72724065  1
  F  F13  1  0.08249951  0.25000000  0.83249951  1
loop_
_geom_bond_atom_site_label_1
_geom_bond_atom_site_label_2
_geom_bond_distance
_geom_bond_site_symmetry_2
Cr0 F3 1.901328 1_455
Cr0 F8 1.901328 1_545
Cr0 F6 1.901328 1_555
Cr0 F5 1.901328 1_445
Cr0 F13 1.935990 1_555
Cr0 F10 1.935990 1_445
Cr1 F9 1.901328 1_555
Cr1 F2 1.901328 1_454
Cr1 F4 1.901333 1_454
Cr1 F7 1.901333 1_555
Cr1 F10 1.935990 1_455
Cr1 F13 1.935990 1_554
Co0 F11 1.994448 1_545
Co0 F0 1.994448 1_555
Co0 F2 2.035745 1_555
Co0 F9 2.035745 1_545
Co0 F5 2.035746 1_545
Co0 F6 2.035746 1_555
Co1 F12 1.994454 1_555
Co1 F1 1.994454 1_455
Co1 F7 2.035743 1_555
Co1 F4 2.035743 1_455
Co1 F8 2.035745 1_555
Co1 F3 2.035745 1_455
Ag0 F0 2.299227 1_555
Ag0 F11 2.299227 1_444
Ag0 F4 2.603049 1_444
Ag0 F7 2.603049 1_555
Ag0 F3 2.603056 1_455
Ag0 F8 2.603056 1_544
Ag1 F1 2.299226 1_555
Ag1 F12 2.299226 1_554
Ag1 F5 2.603051 1_555
Ag1 F6 2.603051 1_554
Ag1 F2 2.603056 1_554
Ag1 F9 2.603056 1_555
Ag2 F1 2.442764 1_555
Ag2 F12 2.442764 1_544
Ag2 F11 2.442765 1_544
Ag2 F0 2.442765 1_555
Ag3 F12 2.442758 1_555
Ag3 F1 2.442758 1_555
Ag3 F11 2.442765 1_555
Ag3 F0 2.442765 1_555
