# generated using pymatgen
data_Zr10Bi6C
_symmetry_space_group_name_H-M   'P 1'
_cell_length_a   8.63172058
_cell_length_b   8.63172141
_cell_length_c   5.88703422
_cell_angle_alpha   90.00000000
_cell_angle_beta   90.00000000
_cell_angle_gamma   120.00000057
_symmetry_Int_Tables_number   1
_chemical_formula_structural   Zr10Bi6C
_chemical_formula_sum   'Zr10 Bi6 C1'
_cell_volume   379.85861258
_cell_formula_units_Z   1
loop_
 _symmetry_equiv_pos_site_id
 _symmetry_equiv_pos_as_xyz
  1  'x, y, z'
loop_
 _atom_site_type_symbol
 _atom_site_label
 _atom_site_symmetry_multiplicity
 _atom_site_fract_x
 _atom_site_fract_y
 _atom_site_fract_z
 _atom_site_occupancy
  Zr  Zr0  1  0.00000000  0.77710823  0.26819686  1
  Zr  Zr1  1  0.22289177  0.22289177  0.26819686  1
  Zr  Zr2  1  0.77710823  0.00000000  0.26819686  1
  Zr  Zr3  1  0.00000000  0.22289177  0.73180314  1
  Zr  Zr4  1  0.77710823  0.77710823  0.73180314  1
  Zr  Zr5  1  0.22289177  0.00000000  0.73180314  1
  Zr  Zr6  1  0.33333300  0.66666700  0.00000000  1
  Zr  Zr7  1  0.66666700  0.33333300  0.00000000  1
  Zr  Zr8  1  0.66666700  0.33333300  0.50000000  1
  Zr  Zr9  1  0.33333300  0.66666700  0.50000000  1
  Bi  Bi0  1  0.00000000  0.39684215  0.24342126  1
  Bi  Bi1  1  0.60315785  0.60315785  0.24342126  1
  Bi  Bi2  1  0.39684215  1.00000000  0.24342126  1
  Bi  Bi3  1  1.00000000  0.60315785  0.75657874  1
  Bi  Bi4  1  0.39684215  0.39684215  0.75657874  1
  Bi  Bi5  1  0.60315785  0.00000000  0.75657874  1
  C  C0  1  0.00000000  0.00000000  0.50000000  1
loop_
_geom_bond_atom_site_label_1
_geom_bond_atom_site_label_2
_geom_bond_distance
_geom_bond_site_symmetry_2
Bi0 Zr1 2.977595 1_555
Bi0 Zr2 2.977595 1_455
Bi0 Zr7 3.009203 1_455
Bi0 Zr6 3.009205 1_555
Bi0 Zr8 3.046851 1_455
Bi0 Zr9 3.046854 1_555
Bi0 Zr3 3.243578 1_555
Bi0 Zr0 3.285590 1_555
Bi0 Zr3 3.365427 1_554
Bi1 Zr0 2.977595 1_655
Bi1 Zr2 2.977595 1_565
Bi1 Zr6 3.009210 1_555
Bi1 Zr7 3.009210 1_555
Bi1 Zr9 3.046859 1_555
Bi1 Zr8 3.046859 1_555
Bi1 Zr4 3.243578 1_555
Bi1 Zr1 3.285590 1_555
Bi1 Zr4 3.365427 1_554
Bi2 Zr0 2.977595 1_555
Bi2 Zr1 2.977595 1_565
Bi2 Zr6 3.009203 1_555
Bi2 Zr7 3.009205 1_565
Bi2 Zr9 3.046851 1_555
Bi2 Zr8 3.046854 1_565
Bi2 Zr5 3.243578 1_565
Bi2 Zr2 3.285590 1_565
Bi2 Zr5 3.365427 1_564
Bi3 Zr4 2.977595 1_555
Bi3 Zr5 2.977595 1_665
Bi3 Zr6 3.009203 1_656
Bi3 Zr7 3.009205 1_556
Bi3 Zr9 3.046851 1_655
Bi3 Zr8 3.046854 1_555
Bi3 Zr0 3.243578 1_655
Bi3 Zr3 3.285590 1_655
Bi3 Zr0 3.365427 1_656
Bi4 Zr3 2.977595 1_555
Bi4 Zr5 2.977595 1_555
Bi4 Zr7 3.009210 1_556
Bi4 Zr6 3.009210 1_556
Bi4 Zr8 3.046859 1_555
Bi4 Zr9 3.046859 1_555
Bi4 Zr1 3.243578 1_555
Bi4 Zr4 3.285590 1_555
Bi4 Zr1 3.365427 1_556
Bi5 Zr3 2.977595 1_655
Bi5 Zr4 2.977595 1_545
Bi5 Zr7 3.009203 1_556
Bi5 Zr6 3.009205 1_546
Bi5 Zr8 3.046851 1_555
Bi5 Zr9 3.046854 1_545
Bi5 Zr2 3.243578 1_555
Bi5 Zr5 3.285590 1_555
Bi5 Zr2 3.365427 1_556
C0 Zr5 2.358764 1_555
C0 Zr2 2.358764 1_455
C0 Zr1 2.358764 1_555
C0 Zr4 2.358764 1_445
C0 Zr3 2.358764 1_555
C0 Zr0 2.358764 1_545
