# generated using pymatgen
data_Cs2NaScP2
_symmetry_space_group_name_H-M   'P 1'
_cell_length_a   9.43203559
_cell_length_b   9.43203602
_cell_length_c   9.43203610
_cell_angle_alpha   137.88396391
_cell_angle_beta   136.92191401
_cell_angle_gamma   61.82203673
_symmetry_Int_Tables_number   1
_chemical_formula_structural   Cs2NaScP2
_chemical_formula_sum   'Cs4 Na2 Sc2 P4'
_cell_volume   379.87919844
_cell_formula_units_Z   2
loop_
 _symmetry_equiv_pos_site_id
 _symmetry_equiv_pos_as_xyz
  1  'x, y, z'
loop_
 _atom_site_type_symbol
 _atom_site_label
 _atom_site_symmetry_multiplicity
 _atom_site_fract_x
 _atom_site_fract_y
 _atom_site_fract_z
 _atom_site_occupancy
  Cs  Cs0  1  0.53582158  0.31942505  0.21639553  1
  Cs  Cs1  1  0.46417842  0.68057495  0.78360447  1
  Cs  Cs2  1  0.10303052  0.81942505  0.28360447  1
  Cs  Cs3  1  0.89696948  0.18057495  0.71639553  1
  Na  Na0  1  0.50000000  0.25000000  0.75000000  1
  Na  Na1  1  0.50000000  0.75000000  0.25000000  1
  Sc  Sc0  1  0.00000000  0.25000000  0.25000000  1
  Sc  Sc1  1  0.00000000  0.75000000  0.75000000  1
  P  P0  1  0.29301549  0.08364604  0.20936945  1
  P  P1  1  0.70698451  0.91635396  0.79063055  1
  P  P2  1  0.87427659  0.58364604  0.29063055  1
  P  P3  1  0.12572341  0.41635396  0.70936945  1
loop_
_geom_bond_atom_site_label_1
_geom_bond_atom_site_label_2
_geom_bond_distance
_geom_bond_site_symmetry_2
Cs0 P3 3.757333 1_655
Cs0 P1 3.769748 1_544
Cs0 P1 3.769754 1_555
Cs0 P0 3.816339 1_555
Cs0 P3 3.845986 1_554
Cs1 P2 3.757333 1_455
Cs1 P0 3.769748 1_566
Cs1 P0 3.769754 1_555
Cs1 P1 3.816339 1_555
Cs1 P2 3.845986 1_556
Cs2 P1 3.757340 1_454
Cs2 P3 3.769749 1_554
Cs2 P3 3.769755 1_565
Cs2 P2 3.816339 1_455
Cs2 P1 3.845980 1_555
Cs3 P0 3.757340 1_656
Cs3 P2 3.769749 1_556
Cs3 P2 3.769755 1_545
Cs3 P3 3.816339 1_655
Cs3 P0 3.845980 1_555
Na0 P3 2.958981 1_555
Na0 P1 2.958981 1_545
Na0 P2 2.958981 1_556
Na0 P0 2.958981 1_555
Na1 P2 2.958981 1_555
Na1 P0 2.958981 1_565
Na1 P3 2.958981 1_554
Na1 P1 2.958981 1_555
P0 Sc0 2.608971 1_555
P0 Sc1 2.608972 1_544
P1 Sc1 2.608971 1_655
P1 Sc0 2.608972 1_666
P2 Sc0 2.608971 1_655
P2 Sc1 2.608972 1_655
P3 Sc1 2.608971 1_555
P3 Sc0 2.608972 1_555
