# generated using pymatgen
data_Nb3Ga2RhN
_symmetry_space_group_name_H-M   'P 1'
_cell_length_a   8.27560008
_cell_length_b   8.27559910
_cell_length_c   8.27559982
_cell_angle_alpha   59.99999713
_cell_angle_beta   60.00000102
_cell_angle_gamma   59.99999907
_symmetry_Int_Tables_number   1
_chemical_formula_structural   Nb3Ga2RhN
_chemical_formula_sum   'Nb12 Ga8 Rh4 N4'
_cell_volume   400.75911929
_cell_formula_units_Z   4
loop_
 _symmetry_equiv_pos_site_id
 _symmetry_equiv_pos_as_xyz
  1  'x, y, z'
loop_
 _atom_site_type_symbol
 _atom_site_label
 _atom_site_symmetry_multiplicity
 _atom_site_fract_x
 _atom_site_fract_y
 _atom_site_fract_z
 _atom_site_occupancy
  Nb  Nb0  1  0.81399744  0.81399744  0.18600256  1
  Nb  Nb1  1  0.18600256  0.18600256  0.81399744  1
  Nb  Nb2  1  0.81399744  0.18600256  0.81399744  1
  Nb  Nb3  1  0.18600256  0.81399744  0.18600256  1
  Nb  Nb4  1  0.18600256  0.81399744  0.81399744  1
  Nb  Nb5  1  0.81399744  0.18600256  0.18600256  1
  Nb  Nb6  1  0.43600256  0.43600256  0.06399744  1
  Nb  Nb7  1  0.06399744  0.06399744  0.43600256  1
  Nb  Nb8  1  0.43600256  0.06399744  0.43600256  1
  Nb  Nb9  1  0.06399744  0.43600256  0.06399744  1
  Nb  Nb10  1  0.06399744  0.43600256  0.43600256  1
  Nb  Nb11  1  0.43600256  0.06399744  0.06399744  1
  Ga  Ga0  1  0.75377732  0.41540789  0.41540789  1
  Ga  Ga1  1  0.41540789  0.75377732  0.41540789  1
  Ga  Ga2  1  0.41540789  0.41540789  0.75377732  1
  Ga  Ga3  1  0.41540789  0.41540789  0.41540789  1
  Ga  Ga4  1  0.49622268  0.83459211  0.83459211  1
  Ga  Ga5  1  0.83459211  0.49622268  0.83459211  1
  Ga  Ga6  1  0.83459211  0.83459211  0.49622268  1
  Ga  Ga7  1  0.83459211  0.83459211  0.83459211  1
  Rh  Rh0  1  0.12500000  0.62500000  0.62500000  1
  Rh  Rh1  1  0.62500000  0.12500000  0.62500000  1
  Rh  Rh2  1  0.62500000  0.62500000  0.12500000  1
  Rh  Rh3  1  0.62500000  0.62500000  0.62500000  1
  N  N0  1  0.62500000  0.12500000  0.12500000  1
  N  N1  1  0.12500000  0.62500000  0.12500000  1
  N  N2  1  0.12500000  0.12500000  0.62500000  1
  N  N3  1  0.12500000  0.12500000  0.12500000  1
loop_
_geom_bond_atom_site_label_1
_geom_bond_atom_site_label_2
_geom_bond_distance
_geom_bond_site_symmetry_2
Nb0 Rh2 3.028689 1_555
Nb0 Rh3 3.028689 1_555
Nb1 Rh0 3.028689 1_555
Nb1 Rh1 3.028690 1_555
Nb2 Rh3 3.028689 1_555
Nb2 Rh1 3.028689 1_555
Nb3 Rh0 3.028689 1_555
Nb3 Rh2 3.028690 1_555
Nb4 Rh0 3.028689 1_555
Nb4 Rh3 3.028690 1_555
Nb5 Rh2 3.028689 1_555
Nb5 Rh1 3.028689 1_555
Nb6 Rh3 3.028689 1_554
Nb6 Rh2 3.028689 1_555
Nb7 Rh0 3.028689 1_545
Nb7 Rh1 3.028690 1_455
Nb8 Rh3 3.028689 1_545
Nb8 Rh1 3.028689 1_555
Nb9 Rh0 3.028689 1_554
Nb9 Rh2 3.028690 1_455
Nb10 Rh0 3.028689 1_555
Nb10 Rh3 3.028690 1_455
Nb11 Rh2 3.028689 1_545
Nb11 Rh1 3.028689 1_554
Ga0 Rh3 2.542492 1_555
Ga0 Rh1 2.542498 1_555
Ga0 Rh2 2.542498 1_555
Ga0 Nb10 2.748281 1_655
Ga0 Nb7 2.748285 1_655
Ga0 Nb9 2.748285 1_655
Ga0 Ga1 2.800210 1_555
Ga0 Ga3 2.800210 1_555
Ga0 Ga2 2.800210 1_555
Ga0 Nb0 3.027972 1_555
Ga0 Nb2 3.027972 1_555
Ga0 Nb5 3.027979 1_555
Ga1 Rh3 2.542492 1_555
Ga1 Rh2 2.542499 1_555
Ga1 Rh0 2.542499 1_555
Ga1 Nb8 2.748280 1_565
Ga1 Nb11 2.748285 1_565
Ga1 Nb7 2.748285 1_565
Ga1 Ga3 2.800210 1_555
Ga1 Ga2 2.800210 1_555
Ga1 Nb4 3.027972 1_555
Ga1 Nb0 3.027972 1_555
Ga1 Nb3 3.027979 1_555
Ga2 Rh3 2.542492 1_555
Ga2 Rh1 2.542498 1_555
Ga2 Rh0 2.542499 1_555
Ga2 Nb6 2.748281 1_556
Ga2 Nb11 2.748285 1_556
Ga2 Nb9 2.748285 1_556
Ga2 Ga3 2.800210 1_555
Ga2 Nb4 3.027972 1_555
Ga2 Nb2 3.027972 1_555
Ga2 Nb1 3.027979 1_555
Ga3 Rh1 2.542494 1_555
Ga3 Rh2 2.542494 1_555
Ga3 Rh0 2.542494 1_555
Ga3 Nb8 2.748288 1_555
Ga3 Nb6 2.748289 1_555
Ga3 Nb10 2.748289 1_555
Ga3 Nb3 3.027975 1_555
Ga3 Nb1 3.027975 1_555
Ga3 Nb5 3.027975 1_555
Ga4 Rh3 2.542492 1_555
Ga4 Rh1 2.542498 1_565
Ga4 Rh2 2.542498 1_556
Ga4 Nb4 2.748281 1_555
Ga4 Nb1 2.748285 1_565
Ga4 Nb3 2.748285 1_556
Ga4 Ga5 2.800210 1_555
Ga4 Ga7 2.800210 1_555
Ga4 Ga6 2.800210 1_555
Ga4 Nb6 3.027972 1_556
Ga4 Nb8 3.027972 1_565
Ga4 Nb11 3.027979 1_566
Ga5 Rh3 2.542492 1_555
Ga5 Rh2 2.542499 1_556
Ga5 Rh0 2.542499 1_655
Ga5 Nb2 2.748280 1_555
Ga5 Nb5 2.748285 1_556
Ga5 Nb1 2.748285 1_655
Ga5 Ga7 2.800210 1_555
Ga5 Ga6 2.800210 1_555
Ga5 Nb10 3.027972 1_655
Ga5 Nb6 3.027972 1_556
Ga5 Nb9 3.027979 1_656
Ga6 Rh3 2.542492 1_555
Ga6 Rh1 2.542498 1_565
Ga6 Rh0 2.542499 1_655
Ga6 Nb0 2.748281 1_555
Ga6 Nb5 2.748285 1_565
Ga6 Nb3 2.748285 1_655
Ga6 Ga7 2.800210 1_555
Ga6 Nb10 3.027972 1_655
Ga6 Nb8 3.027972 1_565
Ga6 Nb7 3.027979 1_665
Ga7 Rh1 2.542494 1_565
Ga7 Rh2 2.542494 1_556
Ga7 Rh0 2.542494 1_655
Ga7 Nb2 2.748288 1_565
Ga7 Nb0 2.748289 1_556
Ga7 Nb4 2.748289 1_655
Ga7 Nb9 3.027975 1_656
Ga7 Nb7 3.027975 1_665
Ga7 Nb11 3.027975 1_566
N0 Nb6 2.188620 1_555
N0 Nb0 2.188620 1_545
N0 Nb5 2.188620 1_555
N0 Nb11 2.188620 1_555
N0 Nb8 2.188620 1_555
N0 Nb2 2.188620 1_554
N1 Nb10 2.188620 1_555
N1 Nb4 2.188620 1_554
N1 Nb3 2.188620 1_555
N1 Nb9 2.188620 1_555
N1 Nb6 2.188620 1_555
N1 Nb0 2.188620 1_455
N2 Nb10 2.188620 1_555
N2 Nb4 2.188620 1_545
N2 Nb1 2.188620 1_555
N2 Nb7 2.188620 1_555
N2 Nb8 2.188620 1_555
N2 Nb2 2.188620 1_455
N3 Nb9 2.188620 1_555
N3 Nb3 2.188620 1_545
N3 Nb7 2.188620 1_555
N3 Nb1 2.188620 1_554
N3 Nb11 2.188620 1_555
N3 Nb5 2.188620 1_455
