# generated using pymatgen
data_Lu9Mg(ZnTe)4
_symmetry_space_group_name_H-M   'P 1'
_cell_length_a   8.45000619
_cell_length_b   8.45000794
_cell_length_c   7.63351374
_cell_angle_alpha   90.04098380
_cell_angle_beta   90.04098160
_cell_angle_gamma   126.43698503
_symmetry_Int_Tables_number   1
_chemical_formula_structural   Lu9Mg(ZnTe)4
_chemical_formula_sum   'Lu9 Mg1 Zn4 Te4'
_cell_volume   438.50024864
_cell_formula_units_Z   1
loop_
 _symmetry_equiv_pos_site_id
 _symmetry_equiv_pos_as_xyz
  1  'x, y, z'
loop_
 _atom_site_type_symbol
 _atom_site_label
 _atom_site_symmetry_multiplicity
 _atom_site_fract_x
 _atom_site_fract_y
 _atom_site_fract_z
 _atom_site_occupancy
  Lu  Lu0  1  0.50000000  0.50000000  0.50000000  1
  Lu  Lu1  1  0.78905069  0.54672499  0.16188686  1
  Lu  Lu2  1  0.45327501  0.21094931  0.83811314  1
  Lu  Lu3  1  0.95849661  0.71635363  0.66764556  1
  Lu  Lu4  1  0.28364637  0.04150339  0.33235444  1
  Lu  Lu5  1  0.21094931  0.45327501  0.83811314  1
  Lu  Lu6  1  0.54672499  0.78905069  0.16188686  1
  Lu  Lu7  1  0.04150339  0.28364637  0.33235444  1
  Lu  Lu8  1  0.71635363  0.95849661  0.66764556  1
  Mg  Mg0  1  0.00000000  0.00000000  0.00000000  1
  Zn  Zn0  1  0.86871645  0.86871645  0.37705794  1
  Zn  Zn1  1  0.13128355  0.13128355  0.62294206  1
  Zn  Zn2  1  0.62528969  0.62528969  0.87062267  1
  Zn  Zn3  1  0.37471031  0.37471031  0.12937733  1
  Te  Te0  1  0.20715108  0.79284892  1.00000000  1
  Te  Te1  1  0.70671969  0.29328031  0.50000000  1
  Te  Te2  1  0.79284892  0.20715108  0.00000000  1
  Te  Te3  1  0.29328031  0.70671969  0.50000000  1
loop_
_geom_bond_atom_site_label_1
_geom_bond_atom_site_label_2
_geom_bond_distance
_geom_bond_site_symmetry_2
Lu0 Zn0 2.961866 1_555
Lu0 Zn1 2.961866 1_555
Lu0 Zn2 2.984259 1_555
Lu0 Zn3 2.984259 1_555
Lu0 Te3 3.118815 1_555
Lu0 Te1 3.118815 1_555
Lu1 Zn0 2.893137 1_555
Lu1 Zn3 2.895798 1_555
Lu1 Zn2 2.896188 1_554
Lu1 Te0 3.100973 1_654
Lu1 Te2 3.141018 1_555
Lu1 Te1 3.157950 1_555
Lu2 Zn1 2.893136 1_555
Lu2 Zn2 2.895799 1_555
Lu2 Zn3 2.896188 1_556
Lu2 Te0 3.100974 1_545
Lu2 Te2 3.141018 1_556
Lu2 Te1 3.157949 1_555
Lu3 Zn0 2.883653 1_555
Lu3 Zn2 2.890462 1_555
Lu3 Zn1 2.909096 1_665
Lu3 Te0 3.105773 1_655
Lu3 Te1 3.146306 1_555
Lu3 Te3 3.150512 1_655
Lu4 Zn1 2.883653 1_555
Lu4 Zn3 2.890462 1_555
Lu4 Zn0 2.909095 1_445
Lu4 Te0 3.105773 1_544
Lu4 Te1 3.146306 1_555
Lu4 Te3 3.150513 1_545
Lu5 Zn1 2.893137 1_555
Lu5 Zn2 2.895798 1_555
Lu5 Zn3 2.896188 1_556
Lu5 Te2 3.100973 1_456
Lu5 Te0 3.141018 1_555
Lu5 Te3 3.157950 1_555
Lu6 Zn0 2.893136 1_555
Lu6 Zn3 2.895799 1_555
Lu6 Zn2 2.896188 1_554
Lu6 Te2 3.100974 1_565
Lu6 Te0 3.141018 1_554
Lu6 Te3 3.157949 1_555
Lu7 Zn1 2.883653 1_555
Lu7 Zn3 2.890462 1_555
Lu7 Zn0 2.909096 1_445
Lu7 Te2 3.105773 1_455
Lu7 Te3 3.146306 1_555
Lu7 Te1 3.150512 1_455
Lu8 Zn0 2.883653 1_555
Lu8 Zn2 2.890462 1_555
Lu8 Zn1 2.909095 1_665
Lu8 Te2 3.105773 1_566
Lu8 Te3 3.146306 1_555
Lu8 Te1 3.150513 1_565
Mg0 Zn3 3.018004 1_555
Mg0 Zn2 3.018004 1_444
Mg0 Zn0 3.048451 1_445
Mg0 Zn1 3.048451 1_554
Mg0 Te2 3.125324 1_455
Mg0 Te0 3.125324 1_544
Zn0 Zn1 2.740223 1_665
Zn2 Zn3 2.748538 1_556
