# generated using pymatgen
data_BaYPPt8
_symmetry_space_group_name_H-M   'P 1'
_cell_length_a   9.33490012
_cell_length_b   9.30842052
_cell_length_c   4.24218870
_cell_angle_alpha   90.00000000
_cell_angle_beta   90.00000000
_cell_angle_gamma   145.70248823
_symmetry_Int_Tables_number   1
_chemical_formula_structural   BaYPPt8
_chemical_formula_sum   'Ba1 Y1 P1 Pt8'
_cell_volume   207.71219713
_cell_formula_units_Z   1
loop_
 _symmetry_equiv_pos_site_id
 _symmetry_equiv_pos_as_xyz
  1  'x, y, z'
loop_
 _atom_site_type_symbol
 _atom_site_label
 _atom_site_symmetry_multiplicity
 _atom_site_fract_x
 _atom_site_fract_y
 _atom_site_fract_z
 _atom_site_occupancy
  Ba  Ba0  1  0.62374599  0.38585645  0.50000000  1
  Y  Y0  1  0.36544238  0.62581347  0.50000000  1
  P  P0  1  0.20900459  0.20734903  0.00000000  1
  Pt  Pt0  1  0.11562877  0.89113312  0.00000000  1
  Pt  Pt1  1  0.89003705  0.10522871  0.00000000  1
  Pt  Pt2  1  0.49951063  0.98079156  0.00000000  1
  Pt  Pt3  1  0.00559820  0.49329329  0.00000000  1
  Pt  Pt4  1  0.20733538  0.79608874  0.50000000  1
  Pt  Pt5  1  0.80118953  0.19429184  0.50000000  1
  Pt  Pt6  1  0.00253669  0.00587426  0.50000000  1
  Pt  Pt7  1  0.59356879  0.62787852  0.00000000  1
loop_
_geom_bond_atom_site_label_1
_geom_bond_atom_site_label_2
_geom_bond_distance
_geom_bond_site_symmetry_2
Ba0 Pt4 3.144577 1_655
Ba0 Pt4 3.160614 1_545
Ba0 Pt7 3.271431 1_555
Ba0 Pt7 3.271431 1_556
Ba0 Pt5 3.286879 1_555
Ba0 P0 3.408818 1_555
Ba0 P0 3.408818 1_556
Ba0 Pt0 3.467228 1_656
Ba0 Pt0 3.467228 1_655
Ba0 Pt6 3.477623 1_665
Ba0 Pt0 3.480534 1_546
Ba0 Pt0 3.480534 1_545
Ba0 Pt6 3.499850 1_555
Ba0 Pt3 3.509316 1_655
Ba0 Pt3 3.509316 1_656
Ba0 Pt2 3.582724 1_545
Ba0 Pt2 3.582724 1_546
P0 Pt7 2.234313 1_555
P0 Pt1 2.256725 1_455
P0 Pt0 2.276983 1_545
P0 Pt6 2.399735 1_554
P0 Pt6 2.399735 1_555
P0 Y0 3.522213 1_554
P0 Y0 3.522213 1_555
Pt0 Pt4 2.695551 1_555
Pt0 Pt4 2.695551 1_554
Pt0 Pt3 2.912810 1_555
Pt0 Pt2 2.931995 1_555
Pt0 Pt7 3.165966 1_455
Pt1 Pt5 2.647694 1_555
Pt1 Pt5 2.647694 1_554
Pt1 Pt7 2.661750 1_545
Pt1 Pt2 2.766708 1_545
Pt1 Pt3 2.788156 1_655
Pt1 Y0 3.484819 1_654
Pt1 Y0 3.484819 1_655
Pt1 Y0 3.505344 1_544
Pt1 Y0 3.505344 1_545
Pt2 Pt5 2.670618 1_565
Pt2 Pt5 2.670618 1_564
Pt2 Pt4 2.673216 1_555
Pt2 Pt4 2.673216 1_554
Pt2 Pt3 2.698353 1_555
Pt2 Pt3 2.799942 1_665
Pt2 Y0 3.186064 1_555
Pt2 Y0 3.186064 1_554
Pt3 Pt5 2.666774 1_454
Pt3 Pt5 2.666774 1_455
Pt3 Pt4 2.686961 1_555
Pt3 Pt4 2.686961 1_554
Pt3 Y0 3.233883 1_555
Pt3 Y0 3.233883 1_554
Pt4 Y0 2.925003 1_555
Pt5 Y0 2.986842 1_655
Pt5 Y0 2.997230 1_545
Pt6 Pt7 3.042990 1_446
Pt6 Pt7 3.042990 1_445
Pt6 Y0 3.532258 1_555
Pt6 Y0 3.622448 1_445
Pt7 Y0 2.994446 1_554
Pt7 Y0 2.994446 1_555
