# generated using pymatgen
data_Sr3HfMn2O9
_symmetry_space_group_name_H-M   'P 1'
_cell_length_a   5.55789546
_cell_length_b   5.55789561
_cell_length_c   13.83340518
_cell_angle_alpha   90.00000000
_cell_angle_beta   90.00000000
_cell_angle_gamma   120.00000489
_symmetry_Int_Tables_number   1
_chemical_formula_structural   Sr3HfMn2O9
_chemical_formula_sum   'Sr6 Hf2 Mn4 O18'
_cell_volume   370.06709189
_cell_formula_units_Z   2
loop_
 _symmetry_equiv_pos_site_id
 _symmetry_equiv_pos_as_xyz
  1  'x, y, z'
loop_
 _atom_site_type_symbol
 _atom_site_label
 _atom_site_symmetry_multiplicity
 _atom_site_fract_x
 _atom_site_fract_y
 _atom_site_fract_z
 _atom_site_occupancy
  Sr  Sr0  1  0.33333300  0.66666700  0.10183024  1
  Sr  Sr1  1  0.66666700  0.33333300  0.89816976  1
  Sr  Sr2  1  0.66666700  0.33333300  0.60183024  1
  Sr  Sr3  1  0.33333300  0.66666700  0.39816976  1
  Sr  Sr4  1  0.00000000  0.00000000  0.25000000  1
  Sr  Sr5  1  0.00000000  0.00000000  0.75000000  1
  Hf  Hf0  1  0.00000000  0.00000000  0.00000000  1
  Hf  Hf1  1  0.00000000  0.00000000  0.50000000  1
  Mn  Mn0  1  0.33333300  0.66666700  0.65898043  1
  Mn  Mn1  1  0.66666700  0.33333300  0.34101957  1
  Mn  Mn2  1  0.66666700  0.33333300  0.15898043  1
  Mn  Mn3  1  0.33333300  0.66666700  0.84101957  1
  O  O0  1  0.51490455  0.02980709  0.25000000  1
  O  O1  1  0.48509545  0.97019291  0.75000000  1
  O  O2  1  0.97019291  0.48509545  0.25000000  1
  O  O3  1  0.02980709  0.51490455  0.75000000  1
  O  O4  1  0.51490455  0.48509545  0.25000000  1
  O  O5  1  0.48509545  0.51490455  0.75000000  1
  O  O6  1  0.17112020  0.34223940  0.58650418  1
  O  O7  1  0.82887980  0.65776060  0.41349582  1
  O  O8  1  0.65776060  0.82887980  0.58650418  1
  O  O9  1  0.82887980  0.65776060  0.08650418  1
  O  O10  1  0.34223940  0.17112020  0.41349582  1
  O  O11  1  0.17112020  0.34223940  0.91349582  1
  O  O12  1  0.17112020  0.82887980  0.58650418  1
  O  O13  1  0.34223940  0.17112020  0.08650418  1
  O  O14  1  0.82887980  0.17112020  0.41349582  1
  O  O15  1  0.65776060  0.82887980  0.91349582  1
  O  O16  1  0.82887980  0.17112020  0.08650418  1
  O  O17  1  0.17112020  0.82887980  0.91349582  1
loop_
_geom_bond_atom_site_label_1
_geom_bond_atom_site_label_2
_geom_bond_distance
_geom_bond_site_symmetry_2
Hf0 O13 2.036060 1_555
Hf0 O15 2.036060 1_444
Hf0 O11 2.036060 1_554
Hf0 O9 2.036060 1_445
Hf0 O17 2.036064 1_544
Hf0 O16 2.036064 1_455
Hf1 O10 2.036060 1_555
Hf1 O8 2.036060 1_445
Hf1 O6 2.036060 1_555
Hf1 O7 2.036060 1_445
Hf1 O14 2.036064 1_455
Hf1 O12 2.036064 1_545
Mn0 O12 1.855703 1_555
Mn0 O8 1.855711 1_555
Mn0 O6 1.855711 1_555
Mn0 O5 1.928661 1_555
Mn0 O3 1.928665 1_555
Mn0 O1 1.928665 1_555
Mn1 O14 1.855703 1_555
Mn1 O10 1.855711 1_555
Mn1 O7 1.855711 1_555
Mn1 O4 1.928661 1_555
Mn1 O2 1.928665 1_555
Mn1 O0 1.928665 1_555
Mn2 O16 1.855703 1_555
Mn2 O13 1.855711 1_555
Mn2 O9 1.855711 1_555
Mn2 O4 1.928661 1_555
Mn2 O2 1.928665 1_555
Mn2 O0 1.928665 1_555
Mn3 O17 1.855703 1_555
Mn3 O15 1.855711 1_555
Mn3 O11 1.855711 1_555
Mn3 O5 1.928661 1_555
Mn3 O3 1.928665 1_555
Mn3 O1 1.928665 1_555
O0 Sr3 2.693766 1_545
O0 Sr0 2.693766 1_545
O0 Sr4 2.782643 1_655
O0 Sr4 2.782654 1_555
O1 Sr1 2.693766 1_565
O1 Sr2 2.693766 1_565
O1 Sr5 2.782643 1_565
O1 Sr5 2.782654 1_665
O2 Sr3 2.693766 1_655
O2 Sr0 2.693766 1_655
O2 Sr4 2.782643 1_655
O2 Sr4 2.782654 1_665
O3 Sr1 2.693766 1_455
O3 Sr2 2.693766 1_455
O3 Sr5 2.782643 1_565
O3 Sr5 2.782654 1_555
O4 Sr3 2.693775 1_555
O4 Sr0 2.693775 1_555
O4 Sr4 2.782649 1_555
O4 Sr4 2.782649 1_665
O5 Sr1 2.693775 1_555
O5 Sr2 2.693775 1_555
O5 Sr5 2.782649 1_665
O5 Sr5 2.782649 1_555
O6 Sr2 2.787353 1_455
O6 Sr2 2.787353 1_555
O6 Sr5 2.798014 1_555
O6 Sr3 3.037448 1_555
O7 Sr3 2.787353 1_655
O7 Sr3 2.787353 1_555
O7 Sr4 2.798014 1_665
O7 Sr2 3.037448 1_555
O8 Sr2 2.787353 1_565
O8 Sr2 2.787353 1_555
O8 Sr5 2.798014 1_665
O8 Sr3 3.037448 1_555
O9 Sr0 2.787353 1_655
O9 Sr0 2.787353 1_555
O9 Sr4 2.798014 1_665
O9 Sr1 3.037448 1_554
O10 Sr3 2.787353 1_545
O10 Sr3 2.787353 1_555
O10 Sr4 2.798014 1_555
O10 Sr2 3.037448 1_555
O11 Sr1 2.787353 1_455
O11 Sr1 2.787353 1_555
O11 Sr5 2.798014 1_555
O11 Sr0 3.037448 1_556
O12 Sr2 2.787353 1_455
O12 Sr2 2.787353 1_565
O12 Sr5 2.798017 1_565
O12 Sr3 3.037443 1_555
O13 Sr0 2.787353 1_545
O13 Sr0 2.787353 1_555
O13 Sr4 2.798014 1_555
O13 Sr1 3.037448 1_554
O14 Sr3 2.787353 1_655
O14 Sr3 2.787353 1_545
O14 Sr4 2.798017 1_655
O14 Sr2 3.037443 1_555
O15 Sr1 2.787353 1_565
O15 Sr1 2.787353 1_555
O15 Sr5 2.798014 1_665
O15 Sr0 3.037448 1_556
O16 Sr0 2.787353 1_655
O16 Sr0 2.787353 1_545
O16 Sr4 2.798017 1_655
O16 Sr1 3.037443 1_554
O17 Sr1 2.787353 1_455
O17 Sr1 2.787353 1_565
O17 Sr5 2.798017 1_565
O17 Sr0 3.037443 1_556
