# generated using pymatgen
data_Sr5Bi2PbCl
_symmetry_space_group_name_H-M   'P 1'
_cell_length_a   9.79535044
_cell_length_b   9.89537815
_cell_length_c   7.42271347
_cell_angle_alpha   90.00000000
_cell_angle_beta   90.00000000
_cell_angle_gamma   119.66617545
_symmetry_Int_Tables_number   1
_chemical_formula_structural   Sr5Bi2PbCl
_chemical_formula_sum   'Sr10 Bi4 Pb2 Cl2'
_cell_volume   625.16807356
_cell_formula_units_Z   2
loop_
 _symmetry_equiv_pos_site_id
 _symmetry_equiv_pos_as_xyz
  1  'x, y, z'
loop_
 _atom_site_type_symbol
 _atom_site_label
 _atom_site_symmetry_multiplicity
 _atom_site_fract_x
 _atom_site_fract_y
 _atom_site_fract_z
 _atom_site_occupancy
  Sr  Sr0  1  0.24367587  0.00000000  0.25000000  1
  Sr  Sr1  1  0.75632413  1.00000000  0.75000000  1
  Sr  Sr2  1  0.99609571  0.25694746  0.25000000  1
  Sr  Sr3  1  0.00390429  0.74305254  0.75000000  1
  Sr  Sr4  1  0.73914825  0.74305254  0.25000000  1
  Sr  Sr5  1  0.26085175  0.25694746  0.75000000  1
  Sr  Sr6  1  0.33009736  0.66019571  0.00000000  1
  Sr  Sr7  1  0.66990264  0.33980429  0.00000000  1
  Sr  Sr8  1  0.66990264  0.33980429  0.50000000  1
  Sr  Sr9  1  0.33009736  0.66019571  0.50000000  1
  Bi  Bi0  1  0.99800970  0.61127386  0.25000000  1
  Bi  Bi1  1  0.00199030  0.38872614  0.75000000  1
  Bi  Bi2  1  0.38673584  0.38872614  0.25000000  1
  Bi  Bi3  1  0.61326416  0.61127386  0.75000000  1
  Pb  Pb0  1  0.58360539  0.00000000  0.25000000  1
  Pb  Pb1  1  0.41639461  1.00000000  0.75000000  1
  Cl  Cl0  1  0.00000000  0.00000000  0.00000000  1
  Cl  Cl1  1  0.00000000  0.00000000  0.50000000  1
loop_
_geom_bond_atom_site_label_1
_geom_bond_atom_site_label_2
_geom_bond_distance
_geom_bond_site_symmetry_2
Bi0 Sr4 3.376822 1_555
Bi0 Sr0 3.379963 1_665
Bi0 Sr2 3.496952 1_555
Bi0 Sr8 3.527428 1_555
Bi0 Sr7 3.527428 1_555
Bi0 Sr9 3.563781 1_655
Bi0 Sr6 3.563781 1_655
Bi0 Sr3 3.924715 1_655
Bi0 Sr3 3.924715 1_654
Bi1 Sr5 3.376822 1_555
Bi1 Sr1 3.379963 1_445
Bi1 Sr3 3.496952 1_555
Bi1 Sr6 3.527428 1_556
Bi1 Sr9 3.527428 1_555
Bi1 Sr8 3.563781 1_455
Bi1 Sr7 3.563781 1_456
Bi1 Sr2 3.924715 1_456
Bi1 Sr2 3.924715 1_455
Bi2 Sr2 3.376822 1_455
Bi2 Sr0 3.379963 1_555
Bi2 Sr4 3.496952 1_555
Bi2 Sr9 3.527434 1_555
Bi2 Sr6 3.527434 1_555
Bi2 Sr8 3.563789 1_555
Bi2 Sr7 3.563789 1_555
Bi2 Sr5 3.924715 1_555
Bi2 Sr5 3.924715 1_554
Bi3 Sr3 3.376822 1_655
Bi3 Sr1 3.379963 1_555
Bi3 Sr5 3.496952 1_555
Bi3 Sr7 3.527434 1_556
Bi3 Sr8 3.527434 1_555
Bi3 Sr9 3.563789 1_555
Bi3 Sr6 3.563789 1_556
Bi3 Sr4 3.924715 1_556
Bi3 Sr4 3.924715 1_555
Pb0 Sr0 3.329729 1_555
Pb0 Sr2 3.552583 1_555
Pb0 Sr4 3.552583 1_545
Pb0 Sr8 3.556800 1_555
Pb0 Sr7 3.556800 1_555
Pb0 Sr6 3.556802 1_545
Pb0 Sr9 3.556802 1_545
Pb1 Sr1 3.329729 1_555
Pb1 Sr3 3.552583 1_555
Pb1 Sr5 3.552583 1_565
Pb1 Sr9 3.556800 1_555
Pb1 Sr6 3.556800 1_556
Pb1 Sr8 3.556802 1_565
Pb1 Sr7 3.556802 1_566
Cl0 Sr0 3.023374 1_555
Cl0 Sr1 3.023374 1_444
Cl0 Sr5 3.163232 1_554
Cl0 Sr4 3.163232 1_445
Cl0 Sr2 3.163232 1_455
Cl0 Sr3 3.163232 1_544
Cl1 Sr0 3.023374 1_555
Cl1 Sr1 3.023374 1_445
Cl1 Sr5 3.163232 1_555
Cl1 Sr4 3.163232 1_445
Cl1 Sr2 3.163232 1_455
Cl1 Sr3 3.163232 1_545
