# generated using pymatgen
data_Ta3VSi3Os2
_symmetry_space_group_name_H-M   'P 1'
_cell_length_a   7.44674430
_cell_length_b   7.44674578
_cell_length_c   7.44674514
_cell_angle_alpha   127.25042761
_cell_angle_beta   124.01294663
_cell_angle_gamma   80.52134381
_symmetry_Int_Tables_number   1
_chemical_formula_structural   Ta3VSi3Os2
_chemical_formula_sum   'Ta6 V2 Si6 Os4'
_cell_volume   262.83512206
_cell_formula_units_Z   2
loop_
 _symmetry_equiv_pos_site_id
 _symmetry_equiv_pos_as_xyz
  1  'x, y, z'
loop_
 _atom_site_type_symbol
 _atom_site_label
 _atom_site_symmetry_multiplicity
 _atom_site_fract_x
 _atom_site_fract_y
 _atom_site_fract_z
 _atom_site_occupancy
  Ta  Ta0  1  0.56115182  0.09732106  0.03617023  1
  Ta  Ta1  1  0.43884818  0.47501841  0.53617023  1
  Ta  Ta2  1  0.96089758  0.48593279  0.02503721  1
  Ta  Ta3  1  0.03910242  0.06413964  0.52503721  1
  Ta  Ta4  1  0.75304141  0.92264899  0.66960758  1
  Ta  Ta5  1  0.24695859  0.91656617  0.16960758  1
  V  V0  1  0.50000000  0.24808575  0.74808575  1
  V  V1  1  0.00000000  0.24808575  0.24808575  1
  Si  Si0  1  0.77954609  0.54285513  0.26330804  1
  Si  Si1  1  0.22045391  0.48376195  0.76330804  1
  Si  Si2  1  0.33843329  0.82433175  0.49846928  1
  Si  Si3  1  0.66156671  0.16003699  0.48589745  1
  Si  Si4  1  0.82586147  0.82433175  0.98589745  1
  Si  Si5  1  0.17413853  0.16003699  0.99846928  1
  Os  Os0  1  0.16322612  0.74907852  0.65867106  1
  Os  Os1  1  0.83677388  0.49544493  0.58585240  1
  Os  Os2  1  0.59040747  0.74907852  0.08585240  1
  Os  Os3  1  0.40959253  0.49544493  0.15867106  1
loop_
_geom_bond_atom_site_label_1
_geom_bond_atom_site_label_2
_geom_bond_distance
_geom_bond_site_symmetry_2
Ta0 V1 2.779303 1_655
Ta0 V0 2.779308 1_554
Ta1 V1 2.779301 1_555
Ta1 V0 2.779302 1_555
Ta2 V1 2.971748 1_655
Ta2 V0 2.971756 1_554
Ta3 V0 2.971761 1_555
Ta3 V1 2.971762 1_555
Ta4 V0 2.789039 1_565
Ta4 V1 2.789039 1_666
Ta5 V1 2.789039 1_565
Ta5 V0 2.789039 1_565
Si0 V0 2.499264 1_554
Si0 V1 2.499269 1_655
Si0 Ta2 2.594897 1_555
Si0 Ta4 2.705022 1_555
Si0 Ta0 2.901643 1_555
Si1 V0 2.499263 1_555
Si1 V1 2.499264 1_555
Si1 Ta3 2.594905 1_555
Si1 Ta5 2.705025 1_556
Si1 Ta1 2.901630 1_555
Si2 V0 2.551067 1_565
Si2 Ta0 2.596726 1_566
Si2 Ta4 2.627855 1_555
Si2 Ta5 2.636097 1_555
Si2 Ta3 2.636554 1_565
Si2 Ta2 2.678241 1_455
Si2 Ta1 2.722691 1_555
Si3 V0 2.551075 1_555
Si3 Ta1 2.596720 1_555
Si3 Ta5 2.627859 1_545
Si3 Ta4 2.636110 1_545
Si3 Ta2 2.636555 1_556
Si3 Ta3 2.678235 1_655
Si3 Ta0 2.722676 1_555
Si4 V1 2.551067 1_666
Si4 Ta0 2.596716 1_566
Si4 Ta4 2.627851 1_555
Si4 Ta5 2.636102 1_656
Si4 Ta3 2.636559 1_666
Si4 Ta2 2.678255 1_556
Si4 Ta1 2.722687 1_555
Si5 V1 2.551075 1_556
Si5 Ta1 2.596724 1_556
Si5 Ta5 2.627864 1_546
Si5 Ta4 2.636105 1_445
Si5 Ta2 2.636540 1_456
Si5 Ta3 2.678230 1_555
Si5 Ta0 2.722685 1_556
Os0 Si0 2.398021 1_455
Os0 Si1 2.430484 1_555
Os0 Si2 2.496208 1_555
Os0 Si5 2.500440 1_565
Os0 Ta1 2.769696 1_555
Os0 Ta0 2.791893 1_566
Os0 V1 2.875950 1_555
Os0 Ta5 2.877161 1_556
Os0 Ta3 2.903856 1_565
Os0 Os1 2.927249 1_455
Os0 Os2 2.986247 1_556
Os0 Ta4 3.139749 1_455
Os0 Ta2 3.193686 1_455
Os1 Si1 2.398022 1_655
Os1 Si0 2.430489 1_555
Os1 Si3 2.496197 1_555
Os1 Si4 2.500437 1_555
Os1 Ta0 2.769699 1_555
Os1 Ta1 2.791897 1_555
Os1 V1 2.875950 1_655
Os1 Ta4 2.877161 1_555
Os1 Ta2 2.903865 1_556
Os1 Os3 2.986247 1_555
Os1 Ta5 3.139750 1_656
Os1 Ta3 3.193689 1_655
Os2 Si0 2.398015 1_555
Os2 Si1 2.430484 1_554
Os2 Si4 2.496207 1_554
Os2 Si3 2.500440 1_565
Os2 Ta1 2.769697 1_554
Os2 Ta0 2.791890 1_565
Os2 V0 2.875950 1_554
Os2 Ta5 2.877161 1_555
Os2 Ta3 2.903855 1_665
Os2 Os3 2.927249 1_555
Os2 Ta4 3.139750 1_555
Os2 Ta2 3.193694 1_555
Os3 Si1 2.398022 1_554
Os3 Si0 2.430485 1_555
Os3 Si5 2.496197 1_554
Os3 Si2 2.500438 1_555
Os3 Ta0 2.769703 1_555
Os3 Ta1 2.791897 1_555
Os3 V0 2.875950 1_554
Os3 Ta4 2.877161 1_555
Os3 Ta2 2.903855 1_455
Os3 Ta5 3.139750 1_555
Os3 Ta3 3.193689 1_554
