# generated using pymatgen
data_Zr6Zn22FePd
_symmetry_space_group_name_H-M   'P 1'
_cell_length_a   8.68710997
_cell_length_b   8.68710936
_cell_length_c   8.68711005
_cell_angle_alpha   60.00000468
_cell_angle_beta   60.00000699
_cell_angle_gamma   60.00000023
_symmetry_Int_Tables_number   1
_chemical_formula_structural   Zr6Zn22FePd
_chemical_formula_sum   'Zr6 Zn22 Fe1 Pd1'
_cell_volume   463.56535657
_cell_formula_units_Z   1
loop_
 _symmetry_equiv_pos_site_id
 _symmetry_equiv_pos_as_xyz
  1  'x, y, z'
loop_
 _atom_site_type_symbol
 _atom_site_label
 _atom_site_symmetry_multiplicity
 _atom_site_fract_x
 _atom_site_fract_y
 _atom_site_fract_z
 _atom_site_occupancy
  Zr  Zr0  1  0.69990181  0.30009819  0.30009819  1
  Zr  Zr1  1  0.30009819  0.69990181  0.69990181  1
  Zr  Zr2  1  0.30009819  0.69990181  0.30009819  1
  Zr  Zr3  1  0.69990181  0.30009819  0.69990181  1
  Zr  Zr4  1  0.30009819  0.30009819  0.69990181  1
  Zr  Zr5  1  0.69990181  0.69990181  0.30009819  1
  Zn  Zn0  1  0.12128722  0.12128722  0.12128722  1
  Zn  Zn1  1  0.87871278  0.87871278  0.87871278  1
  Zn  Zn2  1  0.12128722  0.12128722  0.63613934  1
  Zn  Zn3  1  0.12128722  0.63613934  0.12128722  1
  Zn  Zn4  1  0.87871278  0.87871278  0.36386066  1
  Zn  Zn5  1  0.87871278  0.36386066  0.87871278  1
  Zn  Zn6  1  0.63613934  0.12128722  0.12128722  1
  Zn  Zn7  1  0.36386066  0.87871278  0.87871278  1
  Zn  Zn8  1  0.50000000  0.00000000  0.00000000  1
  Zn  Zn9  1  0.00000000  0.50000000  0.50000000  1
  Zn  Zn10  1  0.00000000  0.50000000  0.00000000  1
  Zn  Zn11  1  0.50000000  0.00000000  0.50000000  1
  Zn  Zn12  1  0.00000000  0.00000000  0.50000000  1
  Zn  Zn13  1  0.50000000  0.50000000  0.00000000  1
  Zn  Zn14  1  0.33065337  0.33065337  0.33065337  1
  Zn  Zn15  1  0.66934663  0.66934663  0.66934663  1
  Zn  Zn16  1  0.33065337  0.33065337  0.00804088  1
  Zn  Zn17  1  0.33065337  0.00804088  0.33065337  1
  Zn  Zn18  1  0.66934663  0.66934663  0.99195912  1
  Zn  Zn19  1  0.66934663  0.99195912  0.66934663  1
  Zn  Zn20  1  0.00804088  0.33065337  0.33065337  1
  Zn  Zn21  1  0.99195912  0.66934663  0.66934663  1
  Fe  Fe0  1  0.50000000  0.50000000  0.50000000  1
  Pd  Pd0  1  0.00000000  0.00000000  0.00000000  1
loop_
_geom_bond_atom_site_label_1
_geom_bond_atom_site_label_2
_geom_bond_distance
_geom_bond_site_symmetry_2
Zn0 Zn10 2.687240 1_555
Zn0 Zn8 2.687241 1_555
Zn0 Zn12 2.687241 1_555
Zn0 Zn20 2.704293 1_555
Zn0 Zn17 2.704293 1_555
Zn0 Zn16 2.704293 1_555
Zn0 Zn7 2.980131 1_544
Zn0 Zn5 2.980131 1_454
Zn0 Zn4 2.980131 1_445
Zn0 Zr2 3.044074 1_545
Zn0 Zr0 3.044074 1_455
Zn0 Zr4 3.044074 1_554
Zn1 Zn10 2.687240 1_656
Zn1 Zn8 2.687241 1_566
Zn1 Zn12 2.687241 1_665
Zn1 Zn21 2.704293 1_555
Zn1 Zn19 2.704293 1_555
Zn1 Zn18 2.704293 1_555
Zn1 Zn6 2.980131 1_566
Zn1 Zn3 2.980131 1_656
Zn1 Zn2 2.980131 1_665
Zn1 Zr3 3.044074 1_565
Zn1 Zr1 3.044074 1_655
Zn1 Zr5 3.044074 1_556
Zn2 Zn9 2.687241 1_555
Zn2 Zn20 2.704293 1_555
Zn2 Zn7 2.980119 1_545
Zn2 Zn5 2.980119 1_455
Zn2 Zr4 3.044068 1_555
Zn2 Zr1 3.044075 1_545
Zn2 Zr3 3.044075 1_455
Zn3 Zn9 2.687241 1_555
Zn3 Zn4 2.980119 1_455
Zn3 Zn7 2.980119 1_554
Zn3 Zr2 3.044068 1_555
Zn3 Zr5 3.044076 1_455
Zn3 Zr1 3.044076 1_554
Zn4 Zn9 2.687241 1_655
Zn4 Zn6 2.980119 1_565
Zn4 Zr5 3.044068 1_555
Zn4 Zr0 3.044075 1_565
Zn4 Zr2 3.044075 1_655
Zn5 Zn9 2.687241 1_655
Zn5 Zn6 2.980119 1_556
Zn5 Zr3 3.044068 1_555
Zn5 Zr4 3.044076 1_655
Zn5 Zr0 3.044076 1_556
Zn6 Zn8 2.687248 1_555
Zn6 Zr0 3.044068 1_555
Zn6 Zr5 3.044075 1_545
Zn6 Zr3 3.044076 1_554
Zn7 Zn8 2.687248 1_566
Zn7 Zr1 3.044068 1_555
Zn7 Zr4 3.044075 1_565
Zn7 Zr2 3.044076 1_556
Zn8 Zr5 3.132419 1_545
Zn8 Zr4 3.132419 1_554
Zn8 Zr3 3.132419 1_554
Zn8 Zr2 3.132419 1_545
Zn9 Zr4 3.132419 1_555
Zn9 Zr5 3.132419 1_455
Zn9 Zr2 3.132419 1_555
Zn9 Zr3 3.132419 1_455
Zn10 Zn16 2.508404 1_555
Zn10 Zn18 2.508404 1_454
Zn10 Zn20 2.508404 1_555
Zn10 Zn21 2.508404 1_454
Zn10 Zn3 2.687248 1_555
Zn10 Zn5 2.687248 1_454
Zn10 Zr5 3.132419 1_455
Zn10 Zr4 3.132419 1_554
Zn10 Zr1 3.132419 1_554
Zn10 Zr0 3.132419 1_455
Zn11 Zn17 2.508396 1_555
Zn11 Zn19 2.508396 1_545
Zn11 Zn15 2.508401 1_545
Zn11 Zn14 2.508401 1_555
Zn11 Zn4 2.687241 1_545
Zn11 Zn2 2.687241 1_555
Zn11 Zn7 2.687241 1_545
Zn11 Zn6 2.687241 1_555
Zn11 Zr4 3.132419 1_555
Zn11 Zr5 3.132419 1_545
Zn11 Zr0 3.132419 1_555
Zn11 Zr1 3.132419 1_545
Zn12 Zn20 2.508404 1_555
Zn12 Zn21 2.508404 1_445
Zn12 Zn19 2.508404 1_445
Zn12 Zn17 2.508404 1_555
Zn12 Zn2 2.687248 1_555
Zn12 Zn4 2.687248 1_445
Zn12 Zr3 3.132419 1_455
Zn12 Zr1 3.132419 1_545
Zn12 Zr2 3.132419 1_545
Zn12 Zr0 3.132419 1_455
Zn13 Zn18 2.508396 1_554
Zn13 Zn16 2.508396 1_555
Zn13 Zn15 2.508401 1_554
Zn13 Zn14 2.508401 1_555
Zn13 Zn7 2.687241 1_554
Zn13 Zn6 2.687241 1_555
Zn13 Zn5 2.687241 1_554
Zn13 Zn3 2.687241 1_555
Zn13 Zr2 3.132419 1_555
Zn13 Zr0 3.132419 1_555
Zn13 Zr3 3.132419 1_554
Zn13 Zr1 3.132419 1_554
Zn14 Zn9 2.508401 1_555
Zn14 Zn3 2.704293 1_555
Zn14 Zn6 2.704293 1_555
Zn14 Zn2 2.704293 1_555
Zn14 Zn17 2.802570 1_555
Zn14 Zn20 2.802570 1_555
Zn14 Zn16 2.802570 1_555
Zn14 Zr2 2.966115 1_555
Zn14 Zr0 2.966115 1_555
Zn14 Zr4 2.966115 1_555
Zn15 Zn9 2.508401 1_655
Zn15 Zn5 2.704293 1_555
Zn15 Zn7 2.704293 1_555
Zn15 Zn4 2.704293 1_555
Zn15 Zn19 2.802570 1_555
Zn15 Zn21 2.802570 1_555
Zn15 Zn18 2.802570 1_555
Zn15 Zr3 2.966115 1_555
Zn15 Zr1 2.966115 1_555
Zn15 Zr5 2.966115 1_555
Zn16 Zn8 2.508403 1_555
Zn16 Zn3 2.704293 1_555
Zn16 Zn6 2.704293 1_555
Zn16 Zn17 2.802570 1_555
Zn16 Zn20 2.802570 1_555
Zn16 Zr1 2.966119 1_554
Zn16 Zr3 2.966119 1_554
Zn16 Zr4 2.966124 1_554
Zn17 Zn8 2.508404 1_555
Zn17 Zn2 2.704293 1_555
Zn17 Zn6 2.704293 1_555
Zn17 Zn20 2.802570 1_555
Zn17 Zr5 2.966119 1_545
Zn17 Zr1 2.966119 1_545
Zn17 Zr2 2.966124 1_545
Zn18 Zn8 2.508403 1_566
Zn18 Zn5 2.704293 1_555
Zn18 Zn7 2.704293 1_555
Zn18 Zn19 2.802570 1_555
Zn18 Zn21 2.802570 1_555
Zn18 Zr0 2.966119 1_556
Zn18 Zr2 2.966119 1_556
Zn18 Zr5 2.966124 1_556
Zn19 Zn8 2.508404 1_566
Zn19 Zn4 2.704293 1_555
Zn19 Zn7 2.704293 1_555
Zn19 Zn21 2.802570 1_555
Zn19 Zr4 2.966119 1_565
Zn19 Zr0 2.966119 1_565
Zn19 Zr3 2.966124 1_565
Zn20 Zn9 2.508396 1_555
Zn20 Zn3 2.704293 1_555
Zn20 Zr5 2.966119 1_455
Zn20 Zr3 2.966119 1_455
Zn20 Zr0 2.966124 1_455
Zn21 Zn9 2.508396 1_655
Zn21 Zn5 2.704293 1_555
Zn21 Zn4 2.704293 1_555
Zn21 Zr4 2.966119 1_655
Zn21 Zr2 2.966119 1_655
Zn21 Zr1 2.966124 1_655
Fe0 Zr1 2.455879 1_555
Fe0 Zr3 2.455879 1_555
Fe0 Zr0 2.455879 1_555
Fe0 Zr2 2.455879 1_555
Fe0 Zr5 2.455880 1_555
Fe0 Zr4 2.455880 1_555
Pd0 Zn5 2.580862 1_454
Pd0 Zn3 2.580862 1_545
Pd0 Zn7 2.580862 1_544
Pd0 Zn6 2.580862 1_455
Pd0 Zn4 2.580862 1_445
Pd0 Zn2 2.580862 1_554
Pd0 Zn0 2.580869 1_555
Pd0 Zn1 2.580869 1_444
