# generated using pymatgen
data_Pd(NF7)2
_symmetry_space_group_name_H-M   'P 1'
_cell_length_a   6.67815114
_cell_length_b   6.67815129
_cell_length_c   6.67815103
_cell_angle_alpha   118.86293806
_cell_angle_beta   118.86293733
_cell_angle_gamma   91.98099638
_symmetry_Int_Tables_number   1
_chemical_formula_structural   Pd(NF7)2
_chemical_formula_sum   'Pd1 N2 F14'
_cell_volume   214.07878664
_cell_formula_units_Z   1
loop_
 _symmetry_equiv_pos_site_id
 _symmetry_equiv_pos_as_xyz
  1  'x, y, z'
loop_
 _atom_site_type_symbol
 _atom_site_label
 _atom_site_symmetry_multiplicity
 _atom_site_fract_x
 _atom_site_fract_y
 _atom_site_fract_z
 _atom_site_occupancy
  Pd  Pd0  1  0.00000000  0.00000000  0.00000000  1
  N  N0  1  0.75000000  0.25000000  0.50000000  1
  N  N1  1  0.25000000  0.75000000  0.50000000  1
  F  F0  1  0.41590489  0.96843029  0.72033119  1
  F  F1  1  0.24740342  0.13932287  0.38672430  1
  F  F2  1  0.13932287  0.75259658  0.89191945  1
  F  F3  1  0.86067713  0.24740342  0.10808055  1
  F  F4  1  0.75259658  0.86067713  0.61327570  1
  F  F5  1  0.20701031  0.20701031  1.00000000  1
  F  F6  1  0.79298969  0.79298969  0.00000000  1
  F  F7  1  0.75190090  0.30442730  0.72033119  1
  F  F8  1  0.30442730  0.58409511  0.55252641  1
  F  F9  1  0.03156971  0.75190090  0.44747359  1
  F  F10  1  0.58409511  0.03156971  0.27966881  1
  F  F11  1  0.24809910  0.69557270  0.27966881  1
  F  F12  1  0.69557270  0.41590489  0.44747359  1
  F  F13  1  0.96843029  0.24809910  0.55252641  1
loop_
_geom_bond_atom_site_label_1
_geom_bond_atom_site_label_2
_geom_bond_distance
_geom_bond_site_symmetry_2
F0 N1 1.327641 1_555
F1 Pd0 1.928649 1_555
F2 Pd0 1.928658 1_566
F3 Pd0 1.928658 1_655
F4 Pd0 1.928649 1_666
F5 Pd0 1.920985 1_556
F6 Pd0 1.920985 1_665
F7 N0 1.327639 1_555
F8 N1 1.327646 1_555
F9 N1 1.327639 1_555
F10 N0 1.327641 1_555
F11 N1 1.327639 1_555
F12 N0 1.327646 1_555
F13 N0 1.327639 1_555
