# generated using pymatgen
data_Mg2Tc2Sn7Sb
_symmetry_space_group_name_H-M   'P 1'
_cell_length_a   7.39963117
_cell_length_b   7.42701257
_cell_length_c   7.38511161
_cell_angle_alpha   124.90712527
_cell_angle_beta   124.79563265
_cell_angle_gamma   82.03606595
_symmetry_Int_Tables_number   1
_chemical_formula_structural   Mg2Tc2Sn7Sb
_chemical_formula_sum   'Mg2 Tc2 Sn7 Sb1'
_cell_volume   262.46041372
_cell_formula_units_Z   1
loop_
 _symmetry_equiv_pos_site_id
 _symmetry_equiv_pos_as_xyz
  1  'x, y, z'
loop_
 _atom_site_type_symbol
 _atom_site_label
 _atom_site_symmetry_multiplicity
 _atom_site_fract_x
 _atom_site_fract_y
 _atom_site_fract_z
 _atom_site_occupancy
  Mg  Mg0  1  0.49827361  0.49889765  0.99608611  1
  Mg  Mg1  1  0.00218650  0.00281153  0.00391389  1
  Tc  Tc0  1  0.74852419  0.74850397  0.99585131  1
  Tc  Tc1  1  0.25267188  0.25265266  0.00414869  1
  Sn  Sn0  1  0.51405892  0.01371956  0.80903336  1
  Sn  Sn1  1  0.20502556  0.70468620  0.19096664  1
  Sn  Sn2  1  0.79462000  0.29350968  0.80933672  1
  Sn  Sn3  1  0.48528228  0.98417296  0.19066328  1
  Sn  Sn4  1  0.29015602  0.48859562  0.50000000  1
  Sn  Sn5  1  0.98952500  0.79690697  0.50000000  1
  Sn  Sn6  1  0.01419894  0.20246245  0.50000000  1
  Sb  Sb0  1  0.70547809  0.51308174  0.50000000  1
loop_
_geom_bond_atom_site_label_1
_geom_bond_atom_site_label_2
_geom_bond_distance
_geom_bond_site_symmetry_2
Mg0 Tc1 2.796467 1_556
Mg0 Tc0 2.797194 1_555
Mg0 Sn4 3.012039 1_555
Mg0 Sn6 3.012702 1_555
Mg0 Sn2 3.025650 1_555
Mg0 Sn3 3.032859 1_556
Mg0 Sn1 3.040338 1_556
Mg0 Sn0 3.045826 1_555
Mg0 Sb0 3.048790 1_556
Mg0 Sn5 3.053688 1_556
Mg1 Tc0 2.796456 1_444
Mg1 Tc1 2.797194 1_555
Mg1 Sn4 3.012040 1_555
Mg1 Sn6 3.012698 1_555
Mg1 Sn3 3.025650 1_545
Mg1 Sn2 3.032857 1_454
Mg1 Sn0 3.040331 1_454
Mg1 Sn1 3.045826 1_545
Mg1 Sb0 3.048788 1_444
Mg1 Sn5 3.053693 1_444
Sn0 Tc0 2.867918 1_545
Sn0 Tc1 2.875696 1_556
Sn0 Sn1 2.980464 1_545
Sn0 Sn3 3.072863 1_546
Sn0 Sn2 3.132550 1_555
Sn0 Sn5 3.206631 1_445
Sn0 Sn4 3.233000 1_545
Sn1 Tc1 2.867916 1_555
Sn1 Tc0 2.875690 1_454
Sn1 Sn2 3.072858 1_454
Sn1 Sn3 3.132544 1_555
Sn1 Sn5 3.206631 1_455
Sn1 Sn4 3.233000 1_555
Sn2 Tc1 2.880855 1_656
Sn2 Tc0 2.884881 1_555
Sn2 Sn3 2.983389 1_545
Sn2 Sn6 3.237282 1_655
Sn3 Tc0 2.880869 1_554
Sn3 Tc1 2.884881 1_565
Sn3 Sn6 3.237289 1_665
Sn4 Tc1 2.861569 1_555
Sn4 Tc0 2.861573 1_555
Sn4 Sn5 2.963188 1_455
Sn4 Sn6 3.144560 1_555
Sn5 Tc1 2.870469 1_666
Sn5 Tc0 2.870469 1_554
Sn5 Sn6 3.042739 1_665
Sn6 Tc0 2.865396 1_444
Sn6 Tc1 2.865397 1_556
Sb0 Tc0 2.839614 1_555
Sb0 Tc1 2.839618 1_555
Sb0 Sn6 3.013364 1_655
Sb0 Sn4 3.103657 1_555
Sb0 Sn5 3.176322 1_555
Sb0 Sn2 3.249501 1_555
Sb0 Sn3 3.249503 1_545
