# generated using pymatgen
data_Ca7NbAs2N9
_symmetry_space_group_name_H-M   'P 1'
_cell_length_a   10.14173095
_cell_length_b   5.92138934
_cell_length_c   9.16858559
_cell_angle_alpha   91.52148730
_cell_angle_beta   90.00000000
_cell_angle_gamma   90.00000000
_symmetry_Int_Tables_number   1
_chemical_formula_structural   Ca7NbAs2N9
_chemical_formula_sum   'Ca14 Nb2 As4 N18'
_cell_volume   550.40820961
_cell_formula_units_Z   2
loop_
 _symmetry_equiv_pos_site_id
 _symmetry_equiv_pos_as_xyz
  1  'x, y, z'
loop_
 _atom_site_type_symbol
 _atom_site_label
 _atom_site_symmetry_multiplicity
 _atom_site_fract_x
 _atom_site_fract_y
 _atom_site_fract_z
 _atom_site_occupancy
  Ca  Ca0  1  0.93583553  0.41628315  0.17799368  1
  Ca  Ca1  1  0.07682282  0.24068656  0.51283965  1
  Ca  Ca2  1  0.25000000  0.05618702  0.82627601  1
  Ca  Ca3  1  0.43583553  0.58371685  0.82200632  1
  Ca  Ca4  1  0.57682282  0.75931344  0.48716035  1
  Ca  Ca5  1  0.59004497  0.07844401  0.82979477  1
  Ca  Ca6  1  0.90995503  0.07844401  0.82979477  1
  Ca  Ca7  1  0.40995503  0.92155599  0.17020523  1
  Ca  Ca8  1  0.42317718  0.24068656  0.51283965  1
  Ca  Ca9  1  0.09004497  0.92155599  0.17020523  1
  Ca  Ca10  1  0.92317718  0.75931344  0.48716035  1
  Ca  Ca11  1  0.06416447  0.58371685  0.82200632  1
  Ca  Ca12  1  0.75000000  0.94381298  0.17372399  1
  Ca  Ca13  1  0.56416447  0.41628315  0.17799368  1
  Nb  Nb0  1  0.75000000  0.26892548  0.44543224  1
  Nb  Nb1  1  0.25000000  0.73107452  0.55456776  1
  As  As0  1  0.25000000  0.41873103  0.03712659  1
  As  As1  1  0.75000000  0.56579063  0.70809954  1
  As  As2  1  0.75000000  0.58126897  0.96287341  1
  As  As3  1  0.25000000  0.43420937  0.29190046  1
  N  N0  1  0.40063845  0.26071758  0.98735884  1
  N  N1  1  0.25000000  0.13760710  0.33164166  1
  N  N2  1  0.90053436  0.10778294  0.34843102  1
  N  N3  1  0.60856764  0.40262912  0.64500780  1
  N  N4  1  0.75000000  0.54579654  0.34272479  1
  N  N5  1  0.25000000  0.71618644  0.99026353  1
  N  N6  1  0.89143236  0.40262912  0.64500780  1
  N  N7  1  0.39143236  0.59737088  0.35499220  1
  N  N8  1  0.75000000  0.28381356  0.00973647  1
  N  N9  1  0.09946564  0.89221706  0.65156898  1
  N  N10  1  0.75000000  0.86239290  0.66835834  1
  N  N11  1  0.10856764  0.59737088  0.35499220  1
  N  N12  1  0.59936155  0.73928242  0.01264116  1
  N  N13  1  0.25000000  0.45420346  0.65727521  1
  N  N14  1  0.40053436  0.89221706  0.65156898  1
  N  N15  1  0.59946564  0.10778294  0.34843102  1
  N  N16  1  0.09936155  0.26071758  0.98735884  1
  N  N17  1  0.90063845  0.73928242  0.01264116  1
loop_
_geom_bond_atom_site_label_1
_geom_bond_atom_site_label_2
_geom_bond_distance
_geom_bond_site_symmetry_2
Ca0 N2 2.461446 1_555
Ca0 N17 2.497571 1_555
Ca0 N4 2.521876 1_555
Ca0 N8 2.546167 1_555
Ca0 N16 2.562897 1_654
Ca0 N11 2.599957 1_655
Ca1 N6 2.421023 1_455
Ca1 N2 2.454598 1_455
Ca1 N9 2.463267 1_545
Ca1 N1 2.482613 1_555
Ca1 N13 2.519509 1_555
Ca1 N11 2.611761 1_555
Ca2 N14 2.399308 1_545
Ca2 N9 2.399308 1_545
Ca2 N0 2.426314 1_555
Ca2 N16 2.426314 1_555
Ca2 N5 2.544531 1_545
Ca2 N13 2.854720 1_555
Ca3 N14 2.461446 1_555
Ca3 N0 2.497571 1_555
Ca3 N13 2.521876 1_555
Ca3 N5 2.546167 1_555
Ca3 N12 2.562897 1_556
Ca3 N3 2.599957 1_555
Ca4 N7 2.421023 1_555
Ca4 N14 2.454598 1_555
Ca4 N15 2.463267 1_565
Ca4 N10 2.482613 1_555
Ca4 N4 2.519509 1_555
Ca4 N3 2.611761 1_555
Ca5 N10 2.521614 1_545
Ca5 N8 2.593409 1_556
Ca5 N3 2.600653 1_555
Ca5 N0 2.618968 1_555
Ca5 N12 2.651694 1_546
Ca5 N14 2.735776 1_545
Ca6 N10 2.521614 1_545
Ca6 N8 2.593409 1_556
Ca6 N6 2.600653 1_555
Ca6 N16 2.618968 1_655
Ca6 N17 2.651694 1_546
Ca6 N9 2.735776 1_645
Ca7 N1 2.521614 1_565
Ca7 N5 2.593409 1_554
Ca7 N7 2.600653 1_555
Ca7 N12 2.618968 1_555
Ca7 N0 2.651694 1_564
Ca7 N15 2.735776 1_565
Ca8 N3 2.421023 1_555
Ca8 N15 2.454598 1_555
Ca8 N14 2.463267 1_545
Ca8 N1 2.482613 1_555
Ca8 N13 2.519509 1_555
Ca8 N7 2.611761 1_555
Ca9 N1 2.521614 1_565
Ca9 N5 2.593409 1_554
Ca9 N11 2.600653 1_555
Ca9 N17 2.618968 1_455
Ca9 N16 2.651694 1_564
Ca9 N2 2.735776 1_465
Ca10 N11 2.421023 1_655
Ca10 N9 2.454598 1_655
Ca10 N2 2.463267 1_565
Ca10 N10 2.482613 1_555
Ca10 N4 2.519509 1_555
Ca10 N6 2.611761 1_555
Ca11 N9 2.461446 1_555
Ca11 N16 2.497571 1_555
Ca11 N13 2.521876 1_555
Ca11 N5 2.546167 1_555
Ca11 N17 2.562897 1_456
Ca11 N6 2.599957 1_455
Ca12 N2 2.399308 1_565
Ca12 N15 2.399308 1_565
Ca12 N17 2.426314 1_555
Ca12 N12 2.426314 1_555
Ca12 N8 2.544531 1_565
Ca12 N4 2.854720 1_555
Ca13 N15 2.461446 1_555
Ca13 N12 2.497571 1_555
Ca13 N4 2.521876 1_555
Ca13 N8 2.546167 1_555
Ca13 N0 2.562897 1_554
Ca13 N7 2.599957 1_555
As0 N5 1.824049 1_554
As0 N0 1.842544 1_554
As0 N16 1.842544 1_554
As1 N10 1.803144 1_555
As1 N6 1.815430 1_555
As1 N3 1.815430 1_555
As2 N8 1.824049 1_556
As2 N17 1.842544 1_556
As2 N12 1.842544 1_556
As3 N1 1.803144 1_555
As3 N7 1.815430 1_555
As3 N11 1.815430 1_555
N2 Nb0 1.996779 1_555
N3 Nb0 2.440400 1_555
N4 Nb0 1.912219 1_555
N6 Nb0 2.440400 1_555
N7 Nb1 2.440400 1_555
N9 Nb1 1.996779 1_555
N11 Nb1 2.440400 1_555
N13 Nb1 1.912219 1_555
N14 Nb1 1.996779 1_555
N15 Nb0 1.996779 1_555
