# generated using pymatgen
data_Cs4NaAgAs2
_symmetry_space_group_name_H-M   'P 1'
_cell_length_a   7.09350524
_cell_length_b   7.09350523
_cell_length_c   6.44343901
_cell_angle_alpha   88.52717322
_cell_angle_beta   88.52717301
_cell_angle_gamma   104.79972507
_symmetry_Int_Tables_number   1
_chemical_formula_structural   Cs4NaAgAs2
_chemical_formula_sum   'Cs4 Na1 Ag1 As2'
_cell_volume   313.18541005
_cell_formula_units_Z   1
loop_
 _symmetry_equiv_pos_site_id
 _symmetry_equiv_pos_as_xyz
  1  'x, y, z'
loop_
 _atom_site_type_symbol
 _atom_site_label
 _atom_site_symmetry_multiplicity
 _atom_site_fract_x
 _atom_site_fract_y
 _atom_site_fract_z
 _atom_site_occupancy
  Cs  Cs0  1  0.03118662  0.69213738  0.24655105  1
  Cs  Cs1  1  0.96881338  0.30786262  0.75344895  1
  Cs  Cs2  1  0.69213738  0.03118662  0.24655105  1
  Cs  Cs3  1  0.30786262  0.96881338  0.75344895  1
  Na  Na0  1  0.50000000  0.50000000  0.50000000  1
  Ag  Ag0  1  0.50000000  0.50000000  0.00000000  1
  As  As0  1  0.74749210  0.74749210  0.77174713  1
  As  As1  1  0.25250790  0.25250790  0.22825287  1
loop_
_geom_bond_atom_site_label_1
_geom_bond_atom_site_label_2
_geom_bond_distance
_geom_bond_site_symmetry_2
Ag0 As1 2.546995 1_555
Ag0 As0 2.546995 1_554
Ag0 Na0 3.221720 1_554
Ag0 Na0 3.221720 1_555
As0 Na0 2.823399 1_555
As0 Cs2 3.771214 1_566
As0 Cs0 3.771214 1_656
As0 Cs1 3.835931 1_555
As0 Cs3 3.835931 1_555
As0 Cs1 3.880387 1_565
As0 Cs3 3.880387 1_655
As0 Cs0 3.972119 1_655
As0 Cs2 3.972119 1_565
As1 Na0 2.823399 1_555
As1 Cs3 3.771214 1_544
As1 Cs1 3.771214 1_454
As1 Cs0 3.835931 1_555
As1 Cs2 3.835931 1_555
As1 Cs0 3.880387 1_545
As1 Cs2 3.880387 1_455
As1 Cs1 3.972119 1_455
As1 Cs3 3.972119 1_545
