# generated using pymatgen
data_YTa6Sn5Sb
_symmetry_space_group_name_H-M   'P 1'
_cell_length_a   5.74087765
_cell_length_b   5.74087848
_cell_length_c   9.59196288
_cell_angle_alpha   90.00000000
_cell_angle_beta   90.00000000
_cell_angle_gamma   120.00000089
_symmetry_Int_Tables_number   1
_chemical_formula_structural   YTa6Sn5Sb
_chemical_formula_sum   'Y1 Ta6 Sn5 Sb1'
_cell_volume   273.77561429
_cell_formula_units_Z   1
loop_
 _symmetry_equiv_pos_site_id
 _symmetry_equiv_pos_as_xyz
  1  'x, y, z'
loop_
 _atom_site_type_symbol
 _atom_site_label
 _atom_site_symmetry_multiplicity
 _atom_site_fract_x
 _atom_site_fract_y
 _atom_site_fract_z
 _atom_site_occupancy
  Y  Y0  1  0.00000000  0.00000000  0.99596935  1
  Ta  Ta0  1  0.00000000  0.50000000  0.75225244  1
  Ta  Ta1  1  0.50000000  0.50000000  0.75225244  1
  Ta  Ta2  1  0.50000000  0.00000000  0.75225244  1
  Ta  Ta3  1  0.00000000  0.50000000  0.25019708  1
  Ta  Ta4  1  0.50000000  0.50000000  0.25019708  1
  Ta  Ta5  1  0.50000000  0.00000000  0.25019708  1
  Sn  Sn0  1  0.66666700  0.33333300  0.50051420  1
  Sn  Sn1  1  0.33333300  0.66666700  0.50051420  1
  Sn  Sn2  1  0.66666700  0.33333300  0.00115456  1
  Sn  Sn3  1  0.33333300  0.66666700  0.00115456  1
  Sn  Sn4  1  0.00000000  0.00000000  0.33359061  1
  Sb  Sb0  1  0.00000000  0.00000000  0.65974997  1
loop_
_geom_bond_atom_site_label_1
_geom_bond_atom_site_label_2
_geom_bond_distance
_geom_bond_site_symmetry_2
Sn0 Ta3 2.917435 1_655
Sn0 Ta5 2.917435 1_555
Sn0 Ta4 2.917437 1_555
Sn0 Ta0 2.928663 1_655
Sn0 Ta2 2.928663 1_555
Sn0 Ta1 2.928666 1_555
Sn1 Ta3 2.917435 1_555
Sn1 Ta5 2.917435 1_565
Sn1 Ta4 2.917437 1_555
Sn1 Ta0 2.928663 1_555
Sn1 Ta2 2.928663 1_565
Sn1 Ta1 2.928666 1_555
Sn2 Ta0 2.906275 1_654
Sn2 Ta2 2.906275 1_554
Sn2 Ta1 2.906278 1_554
Sn2 Ta3 2.907381 1_655
Sn2 Ta5 2.907381 1_555
Sn2 Ta4 2.907384 1_555
Sn2 Y0 3.314867 1_654
Sn2 Y0 3.314872 1_554
Sn2 Y0 3.314873 1_664
Sn3 Ta0 2.906275 1_554
Sn3 Ta2 2.906275 1_564
Sn3 Ta1 2.906278 1_554
Sn3 Ta3 2.907381 1_555
Sn3 Ta5 2.907381 1_565
Sn3 Ta4 2.907384 1_555
Sn3 Y0 3.314867 1_564
Sn3 Y0 3.314872 1_664
Sn3 Y0 3.314873 1_554
Sn4 Ta5 2.979811 1_455
Sn4 Ta5 2.979811 1_555
Sn4 Ta4 2.979811 1_555
Sn4 Ta4 2.979811 1_445
Sn4 Ta3 2.979811 1_555
Sn4 Ta3 2.979811 1_545
Sn4 Y0 3.238451 1_554
Sb0 Ta2 3.004444 1_455
Sb0 Ta2 3.004444 1_555
Sb0 Ta1 3.004444 1_445
Sb0 Ta1 3.004444 1_555
Sb0 Ta0 3.004445 1_555
Sb0 Ta0 3.004445 1_545
Sb0 Sn4 3.128508 1_555
Sb0 Y0 3.225004 1_555
