# generated using pymatgen
data_Cs4MgP4W
_symmetry_space_group_name_H-M   'P 1'
_cell_length_a   8.73172135
_cell_length_b   8.73172186
_cell_length_c   8.73172285
_cell_angle_alpha   137.13136322
_cell_angle_beta   126.92196578
_cell_angle_gamma   70.51001226
_symmetry_Int_Tables_number   1
_chemical_formula_structural   Cs4MgP4W
_chemical_formula_sum   'Cs4 Mg1 P4 W1'
_cell_volume   355.05356059
_cell_formula_units_Z   1
loop_
 _symmetry_equiv_pos_site_id
 _symmetry_equiv_pos_as_xyz
  1  'x, y, z'
loop_
 _atom_site_type_symbol
 _atom_site_label
 _atom_site_symmetry_multiplicity
 _atom_site_fract_x
 _atom_site_fract_y
 _atom_site_fract_z
 _atom_site_occupancy
  Cs  Cs0  1  0.00064531  0.13758595  0.83269601  1
  Cs  Cs1  1  0.99935469  0.83205170  0.13694164  1
  Cs  Cs2  1  0.69511006  0.36241405  0.36305836  1
  Cs  Cs3  1  0.30488994  0.66794830  0.66730399  1
  Mg  Mg0  1  0.50000000  0.75000000  0.25000000  1
  P  P0  1  0.76043693  0.55945487  0.13705115  1
  P  P1  1  0.57759728  0.94054513  0.70098206  1
  P  P2  1  0.42240272  0.12338578  0.36294885  1
  P  P3  1  0.23956307  0.37661422  0.79901794  1
  W  W0  1  0.50000000  0.25000000  0.75000000  1
loop_
_geom_bond_atom_site_label_1
_geom_bond_atom_site_label_2
_geom_bond_distance
_geom_bond_site_symmetry_2
Cs0 P0 3.496095 1_456
Cs0 P3 3.651958 1_555
Cs0 P0 3.686431 1_445
Cs0 P1 3.763536 1_445
Cs0 P2 3.881436 1_556
Cs1 P3 3.496089 1_665
Cs1 P0 3.651958 1_555
Cs1 P3 3.686437 1_654
Cs1 P2 3.763536 1_665
Cs1 P1 3.881435 1_554
Cs2 P1 3.496092 1_544
Cs2 P2 3.651972 1_555
Cs2 P1 3.686428 1_555
Cs2 P0 3.763537 1_555
Cs2 P3 3.881440 1_655
Cs3 P2 3.496086 1_555
Cs3 P1 3.651972 1_555
Cs3 P2 3.686434 1_566
Cs3 P3 3.763537 1_555
Cs3 P0 3.881440 1_455
Mg0 P1 2.583951 1_555
Mg0 P3 2.583954 1_554
Mg0 P0 2.583954 1_555
Mg0 P2 2.583955 1_565
P0 W0 2.318399 1_554
P1 W0 2.318399 1_565
P2 W0 2.318396 1_555
P3 W0 2.318399 1_555
