# generated using pymatgen
data_DyAl4Ni
_symmetry_space_group_name_H-M   'P 1'
_cell_length_a   4.04611252
_cell_length_b   6.54957622
_cell_length_c   7.92753761
_cell_angle_alpha   90.00000000
_cell_angle_beta   104.78503715
_cell_angle_gamma   90.00000000
_symmetry_Int_Tables_number   1
_chemical_formula_structural   DyAl4Ni
_chemical_formula_sum   'Dy2 Al8 Ni2'
_cell_volume   203.12649102
_cell_formula_units_Z   2
loop_
 _symmetry_equiv_pos_site_id
 _symmetry_equiv_pos_as_xyz
  1  'x, y, z'
loop_
 _atom_site_type_symbol
 _atom_site_label
 _atom_site_symmetry_multiplicity
 _atom_site_fract_x
 _atom_site_fract_y
 _atom_site_fract_z
 _atom_site_occupancy
  Dy  Dy0  1  0.88257285  0.25000000  0.76514470  1
  Dy  Dy1  1  0.11742715  0.75000000  0.23485530  1
  Al  Al0  1  0.50000000  -0.00000000  0.00000000  1
  Al  Al1  1  0.50000000  0.50000000  0.00000000  1
  Al  Al2  1  0.07690461  0.25000000  0.15381122  1
  Al  Al3  1  0.92309539  0.75000000  0.84618878  1
  Al  Al4  1  0.68917396  0.05299974  0.37834891  1
  Al  Al5  1  0.31082604  0.94700026  0.62165109  1
  Al  Al6  1  0.31082604  0.55299974  0.62165109  1
  Al  Al7  1  0.68917396  0.44700026  0.37834891  1
  Ni  Ni0  1  0.22613700  0.25000000  0.45227401  1
  Ni  Ni1  1  0.77386300  0.75000000  0.54772599  1
loop_
_geom_bond_atom_site_label_1
_geom_bond_atom_site_label_2
_geom_bond_distance
_geom_bond_site_symmetry_2
Dy0 Ni0 3.137511 1_655
Dy0 Ni0 3.137514 1_555
Dy1 Ni1 3.137511 1_455
Dy1 Ni1 3.137514 1_555
Al0 Al3 2.857232 1_444
Al0 Al2 2.857232 1_655
Al0 Al3 2.857237 1_544
Al0 Al2 2.857237 1_555
Al0 Al4 2.920767 1_555
Al0 Al5 2.920767 1_544
Al0 Dy1 3.164562 1_645
Al0 Dy0 3.164562 1_454
Al0 Dy0 3.164564 1_554
Al0 Dy1 3.164564 1_545
Al1 Al3 2.857232 1_454
Al1 Al2 2.857232 1_655
Al1 Al2 2.857237 1_555
Al1 Al3 2.857237 1_554
Al1 Al7 2.920767 1_555
Al1 Al6 2.920767 1_554
Al1 Dy1 3.164562 1_655
Al1 Dy0 3.164562 1_454
Al1 Dy0 3.164564 1_554
Al1 Dy1 3.164564 1_555
Al2 Ni0 2.287734 1_555
Al2 Al7 2.952915 1_455
Al2 Al4 2.952915 1_455
Al2 Al7 2.952918 1_555
Al2 Al4 2.952918 1_555
Al2 Dy0 2.979151 1_454
Al2 Dy1 3.333187 1_555
Al2 Dy1 3.333187 1_545
Al3 Ni1 2.287734 1_555
Al3 Al6 2.952915 1_655
Al3 Al5 2.952915 1_655
Al3 Al6 2.952918 1_555
Al3 Al5 2.952918 1_555
Al3 Dy1 2.979151 1_656
Al3 Dy0 3.333187 1_565
Al3 Dy0 3.333187 1_555
Al4 Ni1 2.371469 1_545
Al4 Ni0 2.465486 1_555
Al4 Ni0 2.465489 1_655
Al4 Al7 2.580536 1_555
Al4 Al5 2.837723 1_545
Al4 Al5 2.837729 1_645
Al4 Dy1 3.039873 1_645
Al4 Dy1 3.039873 1_545
Al4 Dy0 3.233404 1_555
Al5 Ni0 2.371469 1_565
Al5 Ni1 2.465486 1_555
Al5 Ni1 2.465489 1_455
Al5 Al6 2.580536 1_555
Al5 Dy0 3.039873 1_465
Al5 Dy0 3.039873 1_565
Al5 Dy1 3.233404 1_555
Al6 Ni0 2.371469 1_555
Al6 Ni1 2.465486 1_555
Al6 Ni1 2.465489 1_455
Al6 Al7 2.837723 1_555
Al6 Al7 2.837729 1_455
Al6 Dy0 3.039873 1_455
Al6 Dy0 3.039873 1_555
Al6 Dy1 3.233404 1_555
Al7 Ni1 2.371469 1_555
Al7 Ni0 2.465486 1_555
Al7 Ni0 2.465489 1_655
Al7 Dy1 3.039873 1_655
Al7 Dy1 3.039873 1_555
Al7 Dy0 3.233404 1_555
