# generated using pymatgen
data_Ca(GdS2)2
_symmetry_space_group_name_H-M   'P 1'
_cell_length_a   7.30841416
_cell_length_b   7.30841416
_cell_length_c   7.30841416
_cell_angle_alpha   109.50831487
_cell_angle_beta   109.50831487
_cell_angle_gamma   109.39705761
_symmetry_Int_Tables_number   1
_chemical_formula_structural   Ca(GdS2)2
_chemical_formula_sum   'Ca2 Gd4 S8'
_cell_volume   300.50175663
_cell_formula_units_Z   2
loop_
 _symmetry_equiv_pos_site_id
 _symmetry_equiv_pos_as_xyz
  1  'x, y, z'
loop_
 _atom_site_type_symbol
 _atom_site_label
 _atom_site_symmetry_multiplicity
 _atom_site_fract_x
 _atom_site_fract_y
 _atom_site_fract_z
 _atom_site_occupancy
  Ca  Ca0  1  0.00000000  0.00000000  0.00000000  1
  Ca  Ca1  1  0.75000000  0.25000000  0.50000000  1
  Gd  Gd0  1  0.37500000  0.75308700  0.87808700  1
  Gd  Gd1  1  0.24691300  0.12500000  0.62191300  1
  Gd  Gd2  1  0.87500000  0.49691300  0.12191300  1
  Gd  Gd3  1  0.50308700  0.62500000  0.37808700  1
  S  S0  1  0.48542300  0.23507300  0.10477600  1
  S  S1  1  0.61970300  0.01492700  0.75035000  1
  S  S2  1  0.76492700  0.86970300  0.25035000  1
  S  S3  1  0.13064600  0.38029700  0.39522400  1
  S  S4  1  0.26457700  0.86935400  0.24965000  1
  S  S5  1  0.61935400  0.51457700  0.74965000  1
  S  S6  1  0.13029700  0.38064600  0.89522400  1
  S  S7  1  0.98507300  0.73542300  0.60477600  1
loop_
_geom_bond_atom_site_label_1
_geom_bond_atom_site_label_2
_geom_bond_distance
_geom_bond_site_symmetry_2
Ca0 S4 2.830750 1_545
Ca0 S1 2.830756 1_454
Ca0 S7 2.830756 1_444
Ca0 S3 2.830759 1_555
Ca0 S6 3.063073 1_554
Ca0 S5 3.063077 1_444
Ca0 S0 3.063079 1_555
Ca0 S2 3.063079 1_445
Ca1 S5 2.830750 1_555
Ca1 S0 2.830756 1_555
Ca1 S2 2.830756 1_545
Ca1 S6 2.830759 1_655
Ca1 S3 3.063073 1_655
Ca1 S4 3.063077 1_545
Ca1 S7 3.063079 1_555
Ca1 S1 3.063079 1_555
Gd0 S1 2.786919 1_565
Gd0 S6 2.786925 1_555
Gd0 S2 2.812334 1_556
Gd0 S7 2.812334 1_455
Gd0 S0 3.020840 1_566
Gd0 S4 3.020840 1_556
Gd0 S3 3.033688 1_555
Gd0 S5 3.033695 1_555
Gd1 S7 2.786919 1_445
Gd1 S5 2.786923 1_555
Gd1 S6 2.812330 1_555
Gd1 S4 2.812331 1_545
Gd1 S2 3.020840 1_445
Gd1 S3 3.020842 1_555
Gd1 S1 3.033689 1_555
Gd1 S0 3.033689 1_556
Gd2 S0 2.786919 1_555
Gd2 S4 2.786923 1_655
Gd2 S3 2.812330 1_655
Gd2 S5 2.812331 1_554
Gd2 S1 3.020840 1_554
Gd2 S6 3.020842 1_654
Gd2 S7 3.033689 1_555
Gd2 S2 3.033689 1_555
Gd3 S2 2.786919 1_555
Gd3 S3 2.786925 1_555
Gd3 S1 2.812334 1_565
Gd3 S0 2.812334 1_555
Gd3 S7 3.020840 1_555
Gd3 S5 3.020840 1_555
Gd3 S6 3.033688 1_554
Gd3 S4 3.033695 1_555
