# generated using pymatgen
data_Rb2Ca(NbCl3)6
_symmetry_space_group_name_H-M   'P 1'
_cell_length_a   10.22106359
_cell_length_b   10.22106384
_cell_length_c   10.22106430
_cell_angle_alpha   54.74832761
_cell_angle_beta   54.74832354
_cell_angle_gamma   54.74832382
_symmetry_Int_Tables_number   1
_chemical_formula_structural   Rb2Ca(NbCl3)6
_chemical_formula_sum   'Rb2 Ca1 Nb6 Cl18'
_cell_volume   662.69241568
_cell_formula_units_Z   1
loop_
 _symmetry_equiv_pos_site_id
 _symmetry_equiv_pos_as_xyz
  1  'x, y, z'
loop_
 _atom_site_type_symbol
 _atom_site_label
 _atom_site_symmetry_multiplicity
 _atom_site_fract_x
 _atom_site_fract_y
 _atom_site_fract_z
 _atom_site_occupancy
  Rb  Rb0  1  0.22336327  0.22336327  0.22336327  1
  Rb  Rb1  1  0.77663673  0.77663673  0.77663673  1
  Ca  Ca0  1  0.50000000  0.50000000  0.50000000  1
  Nb  Nb0  1  0.91631343  0.79541159  0.15028245  1
  Nb  Nb1  1  0.08368657  0.20458841  0.84971755  1
  Nb  Nb2  1  0.15028245  0.91631343  0.79541159  1
  Nb  Nb3  1  0.84971755  0.08368657  0.20458841  1
  Nb  Nb4  1  0.79541159  0.15028245  0.91631343  1
  Nb  Nb5  1  0.20458841  0.84971755  0.08368657  1
  Cl  Cl0  1  0.18322584  0.46908849  0.66355436  1
  Cl  Cl1  1  0.93498068  0.07760946  0.66004715  1
  Cl  Cl2  1  0.33995285  0.06501932  0.92239054  1
  Cl  Cl3  1  0.66004715  0.93498068  0.07760946  1
  Cl  Cl4  1  0.58263601  0.27623126  0.14176899  1
  Cl  Cl5  1  0.07760946  0.66004715  0.93498068  1
  Cl  Cl6  1  0.66355436  0.18322584  0.46908849  1
  Cl  Cl7  1  0.72376874  0.85823101  0.41736399  1
  Cl  Cl8  1  0.41736399  0.72376874  0.85823101  1
  Cl  Cl9  1  0.33644564  0.81677416  0.53091151  1
  Cl  Cl10  1  0.27623126  0.14176899  0.58263601  1
  Cl  Cl11  1  0.85823101  0.41736399  0.72376874  1
  Cl  Cl12  1  0.06501932  0.92239054  0.33995285  1
  Cl  Cl13  1  0.53091151  0.33644564  0.81677416  1
  Cl  Cl14  1  0.14176899  0.58263601  0.27623126  1
  Cl  Cl15  1  0.92239054  0.33995285  0.06501932  1
  Cl  Cl16  1  0.81677416  0.53091151  0.33644564  1
  Cl  Cl17  1  0.46908849  0.66355436  0.18322584  1
loop_
_geom_bond_atom_site_label_1
_geom_bond_atom_site_label_2
_geom_bond_distance
_geom_bond_site_symmetry_2
Ca0 Cl16 2.775026 1_555
Ca0 Cl0 2.775026 1_555
Ca0 Cl9 2.775026 1_555
Ca0 Cl6 2.775026 1_555
Ca0 Cl13 2.775026 1_555
Ca0 Cl17 2.775026 1_555
Cl0 Nb1 2.639457 1_555
Cl0 Rb1 3.472377 1_455
Cl1 Nb4 2.481339 1_555
Cl1 Nb2 2.483665 1_645
Cl1 Rb1 3.576591 1_545
Cl1 Rb0 3.610536 1_655
Cl2 Nb1 2.481339 1_555
Cl2 Nb5 2.483665 1_546
Cl2 Rb0 3.576591 1_556
Cl2 Rb1 3.610536 1_545
Cl3 Nb0 2.481339 1_555
Cl3 Nb4 2.483665 1_564
Cl3 Rb1 3.576591 1_554
Cl3 Rb0 3.610536 1_565
Cl4 Nb3 2.469933 1_555
Cl4 Nb4 2.470772 1_554
Cl4 Rb0 3.564743 1_555
Cl5 Nb2 2.481339 1_555
Cl5 Nb0 2.483665 1_456
Cl5 Rb1 3.576591 1_455
Cl5 Rb0 3.610536 1_556
Cl6 Nb3 2.639457 1_555
Cl6 Rb1 3.472377 1_545
Cl7 Nb0 2.469933 1_555
Cl7 Nb3 2.470772 1_565
Cl7 Rb1 3.564744 1_555
Cl8 Nb2 2.469933 1_555
Cl8 Nb5 2.470772 1_556
Cl8 Rb1 3.564743 1_555
Cl9 Nb2 2.639457 1_555
Cl9 Rb0 3.472377 1_565
Cl10 Nb1 2.469933 1_555
Cl10 Nb2 2.470772 1_545
Cl10 Rb0 3.564744 1_555
Cl11 Nb4 2.469933 1_555
Cl11 Nb1 2.470772 1_655
Cl11 Rb1 3.564743 1_555
Cl12 Nb5 2.481339 1_555
Cl12 Nb3 2.483665 1_465
Cl12 Rb0 3.576591 1_565
Cl12 Rb1 3.610536 1_455
Cl13 Nb4 2.639457 1_555
Cl13 Rb0 3.472377 1_556
Cl14 Nb5 2.469933 1_555
Cl14 Nb0 2.470772 1_455
Cl14 Rb0 3.564743 1_555
Cl15 Nb3 2.481339 1_555
Cl15 Nb1 2.483665 1_654
Cl15 Rb0 3.576591 1_655
Cl15 Rb1 3.610536 1_554
Cl16 Nb0 2.639457 1_555
Cl16 Rb0 3.472377 1_655
Cl17 Nb5 2.639457 1_555
Cl17 Rb1 3.472377 1_554
