# generated using pymatgen
data_MnReO4
_symmetry_space_group_name_H-M   'P 1'
_cell_length_a   5.73419018
_cell_length_b   6.89144320
_cell_length_c   7.25773250
_cell_angle_alpha   86.25657868
_cell_angle_beta   89.55676937
_cell_angle_gamma   90.13309705
_symmetry_Int_Tables_number   1
_chemical_formula_structural   MnReO4
_chemical_formula_sum   'Mn4 Re4 O16'
_cell_volume   286.18106967
_cell_formula_units_Z   4
loop_
 _symmetry_equiv_pos_site_id
 _symmetry_equiv_pos_as_xyz
  1  'x, y, z'
loop_
 _atom_site_type_symbol
 _atom_site_label
 _atom_site_symmetry_multiplicity
 _atom_site_fract_x
 _atom_site_fract_y
 _atom_site_fract_z
 _atom_site_occupancy
  Mn  Mn0  1  0.67549900  0.87449400  0.37604500  1
  Mn  Mn1  1  0.32452300  0.12553100  0.62393200  1
  Mn  Mn2  1  0.67548700  0.37447200  0.87606700  1
  Mn  Mn3  1  0.32451700  0.62551700  0.12394900  1
  Re  Re0  1  0.16746700  0.62399700  0.62535500  1
  Re  Re1  1  0.16740800  0.12397100  0.12531700  1
  Re  Re2  1  0.83258300  0.87601300  0.87464500  1
  Re  Re3  1  0.83265600  0.37603300  0.37468000  1
  O  O0  1  0.36888900  0.42662800  0.68781900  1
  O  O1  1  0.36892300  0.92657400  0.18780800  1
  O  O2  1  0.36950700  0.32482800  0.06267400  1
  O  O3  1  0.36948300  0.82478100  0.56269900  1
  O  O4  1  0.63110600  0.57341800  0.31218500  1
  O  O5  1  0.63108600  0.07335600  0.81219500  1
  O  O6  1  0.63051600  0.67521100  0.93728000  1
  O  O7  1  0.63051900  0.17518200  0.43733000  1
  O  O8  1  0.89703500  0.42513700  0.63091500  1
  O  O9  1  0.89701000  0.92507700  0.13084800  1
  O  O10  1  0.89660900  0.32259800  0.11744300  1
  O  O11  1  0.89661800  0.82263600  0.61745400  1
  O  O12  1  0.10333300  0.67738700  0.88257500  1
  O  O13  1  0.10336200  0.17741300  0.38258900  1
  O  O14  1  0.10295400  0.57490400  0.36913600  1
  O  O15  1  0.10291100  0.07484100  0.86906800  1
loop_
_geom_bond_atom_site_label_1
_geom_bond_atom_site_label_2
_geom_bond_distance
_geom_bond_site_symmetry_2
Mn0 O7 2.163175 1_565
Mn0 O4 2.170149 1_555
Mn0 O11 2.181718 1_555
Mn0 O9 2.187177 1_555
Mn0 O3 2.220705 1_555
Mn0 O1 2.249833 1_555
Mn1 O3 2.163476 1_545
Mn1 O0 2.170326 1_555
Mn1 O13 2.181496 1_555
Mn1 O15 2.187233 1_555
Mn1 O7 2.220343 1_555
Mn1 O5 2.249968 1_555
Mn2 O6 2.163371 1_555
Mn2 O5 2.170446 1_555
Mn2 O10 2.181549 1_556
Mn2 O8 2.187097 1_555
Mn2 O2 2.220287 1_556
Mn2 O0 2.250044 1_555
Mn3 O2 2.163170 1_555
Mn3 O1 2.170029 1_555
Mn3 O12 2.181744 1_554
Mn3 O14 2.187311 1_555
Mn3 O6 2.220678 1_554
Mn3 O4 2.249903 1_555
O0 Re0 1.823305 1_555
O1 Re1 1.823826 1_565
O2 Re1 1.835186 1_555
O3 Re0 1.834535 1_555
O4 Re3 1.823899 1_555
O5 Re2 1.823427 1_545
O6 Re2 1.834781 1_555
O7 Re3 1.835302 1_555
O8 Re3 1.949727 1_555
O8 Re0 2.065514 1_655
O9 Re2 1.949492 1_554
O9 Re1 2.065529 1_665
O10 Re3 1.958423 1_555
O10 Re1 2.071042 1_655
O11 Re2 1.958086 1_555
O11 Re0 2.071310 1_655
O12 Re0 1.958414 1_555
O12 Re2 2.070822 1_455
O13 Re1 1.958777 1_555
O13 Re3 2.070607 1_455
O14 Re0 1.949748 1_555
O14 Re3 2.064992 1_455
O15 Re1 1.950001 1_556
O15 Re2 2.064918 1_445
