# generated using pymatgen
data_Sr8As5Br
_symmetry_space_group_name_H-M   'P 1'
_cell_length_a   8.24291860
_cell_length_b   8.24291873
_cell_length_c   8.24291862
_cell_angle_alpha   109.37773764
_cell_angle_beta   109.37773522
_cell_angle_gamma   109.65835189
_symmetry_Int_Tables_number   1
_chemical_formula_structural   Sr8As5Br
_chemical_formula_sum   'Sr8 As5 Br1'
_cell_volume   431.13935865
_cell_formula_units_Z   1
loop_
 _symmetry_equiv_pos_site_id
 _symmetry_equiv_pos_as_xyz
  1  'x, y, z'
loop_
 _atom_site_type_symbol
 _atom_site_label
 _atom_site_symmetry_multiplicity
 _atom_site_fract_x
 _atom_site_fract_y
 _atom_site_fract_z
 _atom_site_occupancy
  Sr  Sr0  1  0.73929027  0.36203499  0.24066739  1
  Sr  Sr1  1  0.97929507  0.73589768  0.09799358  1
  Sr  Sr2  1  0.63790610  0.88130149  0.90200642  1
  Sr  Sr3  1  0.12136760  0.49862288  0.75933261  1
  Sr  Sr4  1  0.63796501  0.87863240  0.37725728  1
  Sr  Sr5  1  0.50137712  0.26070973  0.62274272  1
  Sr  Sr6  1  0.26410232  0.36209390  0.24339639  1
  Sr  Sr7  1  0.11869851  0.02070493  0.75660361  1
  As  As0  1  0.74613278  0.63252477  0.61927518  1
  As  As1  1  0.36747523  0.98675041  0.11360801  1
  As  As2  1  0.01324959  0.12685760  0.38072482  1
  As  As3  1  0.50000000  0.50000000  0.00000000  1
  As  As4  1  0.87314240  0.25386722  0.88639199  1
  Br  Br0  1  0.25000000  0.75000000  0.50000000  1
loop_
_geom_bond_atom_site_label_1
_geom_bond_atom_site_label_2
_geom_bond_distance
_geom_bond_site_symmetry_2
As0 Sr5 3.066024 1_555
As0 Sr7 3.103067 1_665
As0 Sr2 3.141898 1_555
As0 Sr0 3.145655 1_555
As0 Sr4 3.407689 1_555
As0 Sr1 3.409592 1_556
As0 Sr6 3.412400 1_555
As0 Sr3 3.590385 1_655
As1 Sr0 3.066033 1_565
As1 Sr1 3.103069 1_455
As1 Sr7 3.141904 1_564
As1 Sr4 3.145664 1_555
As1 Sr3 3.407701 1_554
As1 Sr6 3.409577 1_565
As1 Sr2 3.412413 1_554
As1 Sr5 3.590371 1_565
As2 Sr4 3.066042 1_445
As2 Sr6 3.103067 1_555
As2 Sr1 3.141910 1_445
As2 Sr3 3.145655 1_555
As2 Sr5 3.407699 1_555
As2 Sr2 3.409587 1_444
As2 Sr7 3.412405 1_555
As2 Sr0 3.590385 1_455
As3 Sr3 3.086918 1_554
As3 Sr0 3.086918 1_555
As3 Sr4 3.086927 1_555
As3 Sr5 3.086931 1_554
As3 Sr6 3.422495 1_555
As3 Sr1 3.422496 1_555
As3 Sr7 3.422497 1_554
As3 Sr2 3.422498 1_554
As4 Sr3 3.066033 1_655
As4 Sr2 3.103064 1_545
As4 Sr6 3.141912 1_656
As4 Sr5 3.145661 1_555
As4 Sr0 3.407700 1_556
As4 Sr7 3.409590 1_655
As4 Sr1 3.412398 1_556
As4 Sr4 3.590374 1_545
Br0 Sr1 3.261358 1_455
Br0 Sr7 3.261362 1_565
Br0 Sr2 3.261367 1_555
Br0 Sr6 3.261373 1_555
Br0 Sr4 3.598948 1_555
Br0 Sr0 3.598959 1_455
Br0 Sr3 3.598959 1_555
Br0 Sr5 3.598964 1_565
