# generated using pymatgen
data_Ti2PdAu7
_symmetry_space_group_name_H-M   'P 1'
_cell_length_a   4.97772268
_cell_length_b   4.97772413
_cell_length_c   9.21000562
_cell_angle_alpha   89.71502822
_cell_angle_beta   89.71502710
_cell_angle_gamma   46.88093357
_symmetry_Int_Tables_number   1
_chemical_formula_structural   Ti2PdAu7
_chemical_formula_sum   'Ti2 Pd1 Au7'
_cell_volume   166.57090370
_cell_formula_units_Z   1
loop_
 _symmetry_equiv_pos_site_id
 _symmetry_equiv_pos_as_xyz
  1  'x, y, z'
loop_
 _atom_site_type_symbol
 _atom_site_label
 _atom_site_symmetry_multiplicity
 _atom_site_fract_x
 _atom_site_fract_y
 _atom_site_fract_z
 _atom_site_occupancy
  Ti  Ti0  1  0.69957150  0.69957150  0.89802733  1
  Ti  Ti1  1  0.19827780  0.19827780  0.40426596  1
  Pd  Pd0  1  0.50307731  0.50307731  0.49379998  1
  Au  Au0  1  0.00161117  0.00161117  0.99421720  1
  Au  Au1  1  0.79496901  0.79496901  0.59667018  1
  Au  Au2  1  0.29558127  0.29558127  0.09943399  1
  Au  Au3  1  0.39822461  0.39822461  0.80255377  1
  Au  Au4  1  0.90051396  0.90051396  0.30838364  1
  Au  Au5  1  0.10262011  0.10262011  0.69748497  1
  Au  Au6  1  0.60555326  0.60555326  0.20516299  1
loop_
_geom_bond_atom_site_label_1
_geom_bond_atom_site_label_2
_geom_bond_distance
_geom_bond_site_symmetry_2
Pd0 Ti1 2.786353 1_655
Pd0 Ti1 2.786354 1_565
Pd0 Ti1 2.907836 1_555
Au0 Au3 2.818986 1_455
Au0 Au3 2.818987 1_545
Au0 Ti0 2.820942 1_545
Au0 Ti0 2.820943 1_455
Au0 Au2 2.859533 1_556
Au0 Au5 2.879693 1_555
Au0 Au2 2.895082 1_456
Au0 Au2 2.895083 1_546
Au0 Ti0 2.902111 1_445
Au0 Au6 2.935427 1_546
Au0 Au6 2.935427 1_456
Au0 Au4 3.032476 1_446
Au1 Au5 2.802134 1_565
Au1 Au5 2.802135 1_655
Au1 Ti1 2.803204 1_565
Au1 Ti1 2.803205 1_655
Au1 Au4 2.819800 1_555
Au1 Pd0 2.834273 1_555
Au1 Pd0 2.900369 1_655
Au1 Pd0 2.900370 1_565
Au1 Au3 2.902631 1_655
Au1 Au3 2.902632 1_565
Au1 Ti0 2.904554 1_555
Au1 Au5 2.964245 1_665
Au2 Au6 2.804171 1_455
Au2 Au6 2.804172 1_545
Au2 Ti0 2.854539 1_454
Au2 Ti0 2.854539 1_544
Au2 Au3 2.885722 1_554
Au2 Au4 2.926242 1_545
Au2 Au4 2.926243 1_455
Au2 Ti1 2.940224 1_555
Au2 Au6 2.999006 1_555
Au3 Ti0 2.822952 1_455
Au3 Ti0 2.822953 1_545
Au3 Au5 2.873117 1_555
Au3 Au5 2.884975 1_655
Au3 Au5 2.884976 1_565
Au3 Ti0 2.894041 1_555
Au3 Pd0 2.995643 1_555
Au4 Pd0 2.780647 1_655
Au4 Pd0 2.780647 1_565
Au4 Ti1 2.845196 1_565
Au4 Ti1 2.845197 1_655
Au4 Au6 2.861795 1_555
Au4 Ti1 2.864056 1_665
Au4 Au6 2.883176 1_655
Au4 Au6 2.883177 1_565
Au5 Ti1 2.833862 1_555
Au5 Ti0 2.852048 1_545
Au5 Ti0 2.852049 1_455
Au5 Pd0 2.878398 1_455
Au5 Pd0 2.878398 1_545
Au6 Pd0 2.813527 1_555
Au6 Ti1 2.831537 1_655
Au6 Ti1 2.831538 1_565
Au6 Ti0 2.951741 1_554
