# generated using pymatgen
data_Zr5InGaSb2
_symmetry_space_group_name_H-M   'P 1'
_cell_length_a   8.70280394
_cell_length_b   8.67873366
_cell_length_c   5.86047657
_cell_angle_alpha   90.00000000
_cell_angle_beta   90.00000000
_cell_angle_gamma   120.09178842
_symmetry_Int_Tables_number   1
_chemical_formula_structural   Zr5InGaSb2
_chemical_formula_sum   'Zr10 In2 Ga2 Sb4'
_cell_volume   382.98052839
_cell_formula_units_Z   2
loop_
 _symmetry_equiv_pos_site_id
 _symmetry_equiv_pos_as_xyz
  1  'x, y, z'
loop_
 _atom_site_type_symbol
 _atom_site_label
 _atom_site_symmetry_multiplicity
 _atom_site_fract_x
 _atom_site_fract_y
 _atom_site_fract_z
 _atom_site_occupancy
  Zr  Zr0  1  0.00060125  0.26169468  0.25000000  1
  Zr  Zr1  1  0.72710687  0.00000000  0.75000000  1
  Zr  Zr2  1  0.73890657  0.73830532  0.25000000  1
  Zr  Zr3  1  0.66509003  0.33138036  0.50164128  1
  Zr  Zr4  1  0.00047538  0.72959436  0.75000000  1
  Zr  Zr5  1  0.27088102  0.27040564  0.75000000  1
  Zr  Zr6  1  0.33370967  0.66861964  0.99835872  1
  Zr  Zr7  1  0.66509003  0.33138036  0.99835872  1
  Zr  Zr8  1  0.33370967  0.66861964  0.50164128  1
  Zr  Zr9  1  0.26339433  0.00000000  0.25000000  1
  In  In0  1  0.99978144  0.38418433  0.75000000  1
  In  In1  1  0.61559711  0.61581567  0.75000000  1
  Ga  Ga0  1  0.99806028  0.00000000  0.98826578  1
  Ga  Ga1  1  0.99806028  0.00000000  0.51173422  1
  Sb  Sb0  1  0.61140646  0.00000000  0.25000000  1
  Sb  Sb1  1  0.38622230  0.00000000  0.75000000  1
  Sb  Sb2  1  0.39339494  0.39487958  0.25000000  1
  Sb  Sb3  1  0.99851636  0.60512042  0.25000000  1
loop_
_geom_bond_atom_site_label_1
_geom_bond_atom_site_label_2
_geom_bond_distance
_geom_bond_site_symmetry_2
Zr3 Zr7 2.911001 1_555
Zr3 Zr7 2.949476 1_554
Zr6 Zr8 2.911001 1_555
Zr6 Zr8 2.949476 1_556
In0 Zr1 2.968873 1_555
In0 Zr5 2.979543 1_655
In0 Zr4 2.994698 1_655
In0 Zr6 3.076346 1_655
In0 Zr8 3.076346 1_655
In0 Zr7 3.078002 1_555
In0 Zr3 3.078002 1_555
In0 Zr0 3.118339 1_655
In0 Zr0 3.118339 1_656
In1 Zr1 2.968873 1_565
In1 Zr4 2.979543 1_655
In1 Zr5 2.994698 1_555
In1 Zr7 3.076346 1_555
In1 Zr3 3.076346 1_555
In1 Zr6 3.078002 1_555
In1 Zr8 3.078002 1_555
In1 Zr2 3.118339 1_556
In1 Zr2 3.118339 1_555
Ga0 Zr2 2.731517 1_546
Ga0 Zr0 2.731517 1_656
Ga0 Zr4 2.739903 1_645
Ga0 Zr5 2.739903 1_655
Ga0 Zr1 2.740477 1_555
Ga0 Zr9 2.772181 1_656
Ga1 Zr2 2.731517 1_545
Ga1 Zr0 2.731517 1_655
Ga1 Zr4 2.739903 1_645
Ga1 Zr5 2.739903 1_655
Ga1 Zr1 2.740477 1_555
Ga1 Zr9 2.772181 1_655
Sb0 Zr0 2.986066 1_655
Sb0 Zr2 2.986066 1_545
Sb0 Zr9 3.028681 1_555
Sb0 Zr3 3.052362 1_555
Sb0 Zr7 3.052362 1_554
Sb0 Zr8 3.052362 1_545
Sb0 Zr6 3.052362 1_544
Sb0 Zr1 3.098416 1_555
Sb0 Zr1 3.098416 1_554
Sb1 Zr1 2.966652 1_555
Sb1 Zr5 2.979460 1_555
Sb1 Zr4 2.979460 1_545
Sb1 Zr7 3.046394 1_555
Sb1 Zr3 3.046394 1_555
Sb1 Zr6 3.046394 1_545
Sb1 Zr8 3.046394 1_545
Sb1 Zr9 3.119126 1_556
Sb1 Zr9 3.119126 1_555
Sb2 Zr2 2.989644 1_555
Sb2 Zr0 3.009874 1_555
Sb2 Zr9 3.022694 1_555
Sb2 Zr8 3.053871 1_555
Sb2 Zr6 3.053871 1_554
Sb2 Zr3 3.062048 1_555
Sb2 Zr7 3.062048 1_554
Sb2 Zr5 3.120113 1_555
Sb2 Zr5 3.120113 1_554
Sb3 Zr0 2.989639 1_655
Sb3 Zr2 3.009882 1_555
Sb3 Zr9 3.022693 1_665
Sb3 Zr3 3.053876 1_555
Sb3 Zr7 3.053876 1_554
Sb3 Zr8 3.062040 1_655
Sb3 Zr6 3.062040 1_654
Sb3 Zr4 3.120115 1_655
Sb3 Zr4 3.120115 1_654
