# generated using pymatgen
data_Nb12Zn12CN
_symmetry_space_group_name_H-M   'P 1'
_cell_length_a   8.16388060
_cell_length_b   8.16388159
_cell_length_c   8.16388120
_cell_angle_alpha   60.00000158
_cell_angle_beta   59.99999757
_cell_angle_gamma   60.00000469
_symmetry_Int_Tables_number   1
_chemical_formula_structural   Nb12Zn12CN
_chemical_formula_sum   'Nb12 Zn12 C1 N1'
_cell_volume   384.74681355
_cell_formula_units_Z   1
loop_
 _symmetry_equiv_pos_site_id
 _symmetry_equiv_pos_as_xyz
  1  'x, y, z'
loop_
 _atom_site_type_symbol
 _atom_site_label
 _atom_site_symmetry_multiplicity
 _atom_site_fract_x
 _atom_site_fract_y
 _atom_site_fract_z
 _atom_site_occupancy
  Nb  Nb0  1  0.19152933  0.80847067  0.19152933  1
  Nb  Nb1  1  0.44065404  0.05934596  0.44065404  1
  Nb  Nb2  1  0.44065404  0.05934596  0.05934596  1
  Nb  Nb3  1  0.44065404  0.44065404  0.05934596  1
  Nb  Nb4  1  0.19152933  0.80847067  0.80847067  1
  Nb  Nb5  1  0.05934596  0.44065404  0.05934596  1
  Nb  Nb6  1  0.80847067  0.80847067  0.19152933  1
  Nb  Nb7  1  0.05934596  0.44065404  0.44065404  1
  Nb  Nb8  1  0.19152933  0.19152933  0.80847067  1
  Nb  Nb9  1  0.80847067  0.19152933  0.19152933  1
  Nb  Nb10  1  0.80847067  0.19152933  0.80847067  1
  Nb  Nb11  1  0.05934596  0.05934596  0.44065404  1
  Zn  Zn0  1  0.83268947  0.50193259  0.83268947  1
  Zn  Zn1  1  0.41765981  0.41765981  0.74701958  1
  Zn  Zn2  1  0.74701958  0.41765981  0.41765981  1
  Zn  Zn3  1  0.41765981  0.41765981  0.41765981  1
  Zn  Zn4  1  0.83268947  0.83268947  0.50193259  1
  Zn  Zn5  1  0.41765981  0.74701958  0.41765981  1
  Zn  Zn6  1  0.83268947  0.83268947  0.83268947  1
  Zn  Zn7  1  0.50193259  0.83268947  0.83268947  1
  Zn  Zn8  1  0.62513246  0.12460362  0.62513246  1
  Zn  Zn9  1  0.62513246  0.62513246  0.12460362  1
  Zn  Zn10  1  0.12460362  0.62513246  0.62513246  1
  Zn  Zn11  1  0.62513246  0.62513246  0.62513246  1
  C  C0  1  0.00000000  0.00000000  0.00000000  1
  N  N0  1  0.25000000  0.25000000  0.25000000  1
loop_
_geom_bond_atom_site_label_1
_geom_bond_atom_site_label_2
_geom_bond_distance
_geom_bond_site_symmetry_2
Nb0 Zn4 2.746083 1_455
Nb0 Zn7 2.746083 1_554
Nb0 Zn5 2.936607 1_555
Nb0 Zn3 2.936611 1_555
Nb0 Zn9 2.941926 1_555
Nb0 Zn10 2.941926 1_555
Nb1 Zn3 2.750352 1_555
Nb1 Zn5 2.750360 1_545
Nb1 Zn4 2.944625 1_545
Nb1 Zn7 2.944625 1_545
Nb1 Zn11 2.948418 1_545
Nb1 Zn8 2.948424 1_555
Nb2 Zn5 2.750356 1_545
Nb2 Zn1 2.750356 1_554
Nb2 Zn7 2.944618 1_544
Nb2 Zn6 2.944622 1_544
Nb2 Zn8 2.948417 1_554
Nb2 Zn9 2.948417 1_545
Nb3 Zn3 2.750352 1_555
Nb3 Zn1 2.750360 1_554
Nb3 Zn0 2.944625 1_554
Nb3 Zn7 2.944625 1_554
Nb3 Zn11 2.948418 1_554
Nb3 Zn9 2.948424 1_555
Nb4 Zn6 2.746079 1_455
Nb4 Zn7 2.746088 1_555
Nb4 Zn5 2.936614 1_555
Nb4 Zn1 2.936614 1_555
Nb4 Zn10 2.941919 1_555
Nb4 Zn11 2.941925 1_555
Nb5 Zn1 2.750356 1_554
Nb5 Zn2 2.750356 1_455
Nb5 Zn0 2.944618 1_454
Nb5 Zn6 2.944622 1_454
Nb5 Zn9 2.948417 1_455
Nb5 Zn10 2.948417 1_554
Nb6 Zn6 2.746080 1_554
Nb6 Zn4 2.746088 1_555
Nb6 Zn5 2.936614 1_555
Nb6 Zn2 2.936614 1_555
Nb6 Zn9 2.941919 1_555
Nb6 Zn11 2.941925 1_555
Nb7 Zn3 2.750352 1_555
Nb7 Zn2 2.750360 1_455
Nb7 Zn0 2.944625 1_455
Nb7 Zn4 2.944625 1_455
Nb7 Zn11 2.948418 1_455
Nb7 Zn10 2.948424 1_555
Nb8 Zn0 2.746083 1_455
Nb8 Zn7 2.746083 1_545
Nb8 Zn1 2.936607 1_555
Nb8 Zn3 2.936611 1_555
Nb8 Zn8 2.941926 1_555
Nb8 Zn10 2.941926 1_555
Nb9 Zn0 2.746083 1_554
Nb9 Zn4 2.746083 1_545
Nb9 Zn2 2.936607 1_555
Nb9 Zn3 2.936611 1_555
Nb9 Zn8 2.941926 1_555
Nb9 Zn9 2.941926 1_555
Nb10 Zn6 2.746080 1_545
Nb10 Zn0 2.746088 1_555
Nb10 Zn1 2.936614 1_555
Nb10 Zn2 2.936614 1_555
Nb10 Zn8 2.941919 1_555
Nb10 Zn11 2.941925 1_555
Nb11 Zn5 2.750356 1_545
Nb11 Zn2 2.750356 1_455
Nb11 Zn4 2.944618 1_445
Nb11 Zn6 2.944622 1_445
Nb11 Zn8 2.948416 1_455
Nb11 Zn10 2.948417 1_545
Zn0 Zn10 2.493340 1_655
Zn0 Zn9 2.493340 1_556
Zn0 Zn11 2.493340 1_555
Zn0 Zn6 2.700260 1_555
Zn0 Zn4 2.700260 1_555
Zn0 Zn7 2.700260 1_555
Zn1 Zn10 2.495180 1_555
Zn1 Zn8 2.495180 1_555
Zn1 Zn11 2.495194 1_555
Zn1 Zn2 2.688854 1_555
Zn1 Zn3 2.688854 1_555
Zn1 Zn5 2.688854 1_555
Zn2 Zn8 2.495180 1_555
Zn2 Zn9 2.495180 1_555
Zn2 Zn3 2.688854 1_555
Zn2 Zn5 2.688854 1_555
Zn3 Zn9 2.495189 1_555
Zn3 Zn8 2.495189 1_555
Zn3 Zn5 2.688854 1_555
Zn4 Zn8 2.493340 1_565
Zn4 Zn7 2.700260 1_555
Zn4 Zn6 2.700260 1_555
Zn5 Zn9 2.495180 1_555
Zn6 Zn9 2.493340 1_556
Zn6 Zn8 2.493340 1_565
Zn6 Zn7 2.700260 1_555
Zn7 Zn8 2.493340 1_565
Zn7 Zn9 2.493340 1_556
Zn10 Zn4 2.493340 1_455
Zn10 Zn6 2.493340 1_455
Zn10 Zn5 2.495180 1_555
Zn10 Zn3 2.495189 1_555
Zn11 Zn4 2.493340 1_555
Zn11 Zn7 2.493340 1_555
Zn11 Zn5 2.495194 1_555
Zn11 Zn2 2.495194 1_555
C0 Nb8 2.211296 1_554
C0 Nb6 2.211296 1_445
C0 Nb0 2.211297 1_545
C0 Nb10 2.211297 1_454
C0 Nb4 2.211297 1_544
C0 Nb9 2.211297 1_455
N0 Nb3 2.201191 1_555
N0 Nb11 2.201191 1_555
N0 Nb1 2.201191 1_555
N0 Nb7 2.201191 1_555
N0 Nb2 2.201191 1_555
N0 Nb5 2.201191 1_555
