# generated using pymatgen
data_Na2LiInP2
_symmetry_space_group_name_H-M   'P 1'
_cell_length_a   9.24116569
_cell_length_b   9.24116575
_cell_length_c   5.91518766
_cell_angle_alpha   90.00000000
_cell_angle_beta   90.00000000
_cell_angle_gamma   97.97781464
_symmetry_Int_Tables_number   1
_chemical_formula_structural   Na2LiInP2
_chemical_formula_sum   'Na8 Li4 In4 P8'
_cell_volume   500.26304262
_cell_formula_units_Z   4
loop_
 _symmetry_equiv_pos_site_id
 _symmetry_equiv_pos_as_xyz
  1  'x, y, z'
loop_
 _atom_site_type_symbol
 _atom_site_label
 _atom_site_symmetry_multiplicity
 _atom_site_fract_x
 _atom_site_fract_y
 _atom_site_fract_z
 _atom_site_occupancy
  Na  Na0  1  0.43171396  0.06828604  0.25000000  1
  Na  Na1  1  0.06828604  0.43171396  0.75000000  1
  Na  Na2  1  0.56828604  0.93171396  0.75000000  1
  Na  Na3  1  0.31986668  0.68013332  0.27900757  1
  Na  Na4  1  0.81986668  0.18013332  0.22099243  1
  Na  Na5  1  0.68013332  0.31986668  0.72099243  1
  Na  Na6  1  0.18013332  0.81986668  0.77900757  1
  Na  Na7  1  0.93171396  0.56828604  0.25000000  1
  Li  Li0  1  0.38202664  0.38202664  0.50000000  1
  Li  Li1  1  0.11797336  0.11797336  0.00000000  1
  Li  Li2  1  0.61797336  0.61797336  0.50000000  1
  Li  Li3  1  0.88202664  0.88202664  0.00000000  1
  In  In0  1  0.86734032  0.86734032  0.50000000  1
  In  In1  1  0.13265968  0.13265968  0.50000000  1
  In  In2  1  0.63265968  0.63265968  0.00000000  1
  In  In3  1  0.36734032  0.36734032  0.00000000  1
  P  P0  1  0.10838998  0.89161002  0.26365734  1
  P  P1  1  0.60838998  0.39161002  0.23634266  1
  P  P2  1  0.89161002  0.10838998  0.73634266  1
  P  P3  1  0.39161002  0.60838998  0.76365734  1
  P  P4  1  0.13810886  0.36189114  0.25000000  1
  P  P5  1  0.36189114  0.13810886  0.75000000  1
  P  P6  1  0.86189114  0.63810886  0.75000000  1
  P  P7  1  0.63810886  0.86189114  0.25000000  1
loop_
_geom_bond_atom_site_label_1
_geom_bond_atom_site_label_2
_geom_bond_distance
_geom_bond_site_symmetry_2
Na0 P7 2.878475 1_545
Na0 P5 3.113777 1_555
Na0 P5 3.113777 1_554
Na0 P0 3.200872 1_545
Na0 P1 3.200872 1_555
Na1 P6 2.878475 1_455
Na1 P4 3.113777 1_556
Na1 P4 3.113777 1_555
Na1 P3 3.200872 1_555
Na1 P2 3.200872 1_455
Na2 P5 2.878475 1_565
Na2 P7 3.113777 1_556
Na2 P7 3.113777 1_555
Na2 P2 3.200872 1_565
Na2 P3 3.200872 1_555
Na3 P0 2.950745 1_555
Na3 P3 3.036386 1_555
Na3 P7 3.182542 1_555
Na3 P4 3.182542 1_555
Na3 P3 3.208400 1_554
Na4 P1 2.950745 1_555
Na4 P2 3.036386 1_554
Na4 P4 3.182542 1_655
Na4 P7 3.182542 1_545
Na4 P2 3.208400 1_555
Na5 P2 2.950745 1_555
Na5 P1 3.036386 1_555
Na5 P5 3.182542 1_555
Na5 P6 3.182542 1_555
Na5 P1 3.208400 1_556
Na6 P3 2.950745 1_555
Na6 P0 3.036386 1_556
Na6 P6 3.182542 1_455
Na6 P5 3.182542 1_565
Na6 P0 3.208400 1_555
Na7 P4 2.878475 1_655
Na7 P6 3.113777 1_555
Na7 P6 3.113777 1_554
Na7 P1 3.200872 1_555
Na7 P0 3.200872 1_655
Li0 P1 2.600884 1_555
Li0 P3 2.600884 1_555
Li0 P4 2.680660 1_555
Li0 P5 2.680660 1_555
Li1 P2 2.600884 1_454
Li1 P0 2.600884 1_545
Li1 P5 2.680660 1_554
Li1 P4 2.680660 1_555
Li2 P3 2.600884 1_555
Li2 P1 2.600884 1_555
Li2 P6 2.680660 1_555
Li2 P7 2.680660 1_555
Li3 P0 2.600884 1_655
Li3 P2 2.600884 1_564
Li3 P7 2.680660 1_555
Li3 P6 2.680660 1_554
In0 P7 2.578224 1_555
In0 P6 2.578224 1_555
In0 P0 2.613077 1_655
In0 P2 2.613077 1_565
In0 Na2 3.261077 1_555
In0 Na7 3.261077 1_555
In1 P5 2.578224 1_555
In1 P4 2.578224 1_555
In1 P2 2.613077 1_455
In1 P0 2.613077 1_545
In1 Na0 3.261077 1_555
In1 Na1 3.261077 1_555
In2 P6 2.578224 1_554
In2 P7 2.578224 1_555
In2 P3 2.613077 1_554
In2 P1 2.613077 1_555
In2 Na7 3.261077 1_555
In2 Na2 3.261077 1_554
In3 P4 2.578224 1_555
In3 P5 2.578224 1_554
In3 P1 2.613077 1_555
In3 P3 2.613077 1_554
In3 Na1 3.261077 1_554
In3 Na0 3.261077 1_555
