# generated using pymatgen
data_Li3Fe2P5O16
_symmetry_space_group_name_H-M   'P 1'
_cell_length_a   6.98597000
_cell_length_b   5.07543800
_cell_length_c   18.25207318
_cell_angle_alpha   88.01159097
_cell_angle_beta   90.00000000
_cell_angle_gamma   90.00000000
_symmetry_Int_Tables_number   1
_chemical_formula_structural   Li3Fe2P5O16
_chemical_formula_sum   'Li6 Fe4 P10 O32'
_cell_volume   646.77148249
_cell_formula_units_Z   2
loop_
 _symmetry_equiv_pos_site_id
 _symmetry_equiv_pos_as_xyz
  1  'x, y, z'
loop_
 _atom_site_type_symbol
 _atom_site_label
 _atom_site_symmetry_multiplicity
 _atom_site_fract_x
 _atom_site_fract_y
 _atom_site_fract_z
 _atom_site_occupancy
  Li  Li0  1  0.02219600  0.50000000  0.25000000  1
  Li  Li1  1  0.34281100  0.74139900  0.53538600  1
  Li  Li2  1  0.65718900  0.25860100  0.46461400  1
  Li  Li3  1  0.34281100  0.25860100  0.96461400  1
  Li  Li4  1  0.65718900  0.74139900  0.03538600  1
  Li  Li5  1  0.97780400  0.50000000  0.75000000  1
  Fe  Fe0  1  0.82887300  0.27289300  0.91163100  1
  Fe  Fe1  1  0.17112700  0.27289300  0.41163100  1
  Fe  Fe2  1  0.82887300  0.72710700  0.58836900  1
  Fe  Fe3  1  0.17112700  0.72710700  0.08836900  1
  P  P0  1  0.12933500  0.22373500  0.58725700  1
  P  P1  1  0.87066500  0.22373500  0.08725700  1
  P  P2  1  0.47230600  0.25358000  0.12509800  1
  P  P3  1  0.24427900  0.00000000  0.25000000  1
  P  P4  1  0.52769400  0.25358000  0.62509800  1
  P  P5  1  0.12933500  0.77626500  0.91274300  1
  P  P6  1  0.47230600  0.74642000  0.37490200  1
  P  P7  1  0.87066500  0.77626500  0.41274300  1
  P  P8  1  0.75572100  0.00000000  0.75000000  1
  P  P9  1  0.52769400  0.74642000  0.87490200  1
  O  O0  1  0.30939800  0.19945500  0.64619000  1
  O  O1  1  0.21113700  0.61938600  0.97928400  1
  O  O2  1  0.13347200  0.17956900  0.29845300  1
  O  O3  1  0.38635600  0.18914800  0.20505900  1
  O  O4  1  0.08845400  0.06436100  0.92941000  1
  O  O5  1  0.78886300  0.61938600  0.47928400  1
  O  O6  1  0.08845400  0.93563900  0.57059000  1
  O  O7  1  0.44718300  0.45464500  0.39265900  1
  O  O8  1  0.86652800  0.17956900  0.79845300  1
  O  O9  1  0.30939800  0.80054500  0.85381000  1
  O  O10  1  0.55281700  0.45464500  0.89265900  1
  O  O11  1  0.69060200  0.19945500  0.14619000  1
  O  O12  1  0.97673500  0.62853000  0.87089700  1
  O  O13  1  0.39517900  0.93106700  0.43124500  1
  O  O14  1  0.38635600  0.81085200  0.29494100  1
  O  O15  1  0.44718300  0.54535500  0.10734100  1
  O  O16  1  0.61364400  0.18914800  0.70505900  1
  O  O17  1  0.13347200  0.82043100  0.20154700  1
  O  O18  1  0.61364400  0.81085200  0.79494100  1
  O  O19  1  0.69060200  0.80054500  0.35381000  1
  O  O20  1  0.97673500  0.37147000  0.62910300  1
  O  O21  1  0.55281700  0.54535500  0.60734100  1
  O  O22  1  0.21113700  0.38061400  0.52071600  1
  O  O23  1  0.60482100  0.06893300  0.56875500  1
  O  O24  1  0.39517900  0.06893300  0.06875500  1
  O  O25  1  0.91154600  0.93563900  0.07059000  1
  O  O26  1  0.02326500  0.37147000  0.12910300  1
  O  O27  1  0.60482100  0.93106700  0.93124500  1
  O  O28  1  0.78886300  0.38061400  0.02071600  1
  O  O29  1  0.91154600  0.06436100  0.42941000  1
  O  O30  1  0.86652800  0.82043100  0.70154700  1
  O  O31  1  0.02326500  0.62853000  0.37089700  1
loop_
_geom_bond_atom_site_label_1
_geom_bond_atom_site_label_2
_geom_bond_distance
_geom_bond_site_symmetry_2
Li0 O17 1.982812 1_555
Li0 O2 1.982812 1_555
Li0 O31 2.322645 1_555
Li0 O26 2.322645 1_555
Li1 O22 2.074840 1_555
Li1 O13 2.132265 1_555
Li1 O6 2.141544 1_555
Li1 O21 2.185534 1_555
Li1 O23 2.560283 1_565
Li2 O5 2.074840 1_555
Li2 O23 2.132265 1_555
Li2 O29 2.141544 1_555
Li2 O7 2.185534 1_555
Li2 O13 2.560283 1_545
Li3 O1 2.074840 1_555
Li3 O24 2.132265 1_556
Li3 O4 2.141544 1_555
Li3 O10 2.185534 1_555
Li3 O27 2.560283 1_545
Li4 O28 2.074840 1_555
Li4 O27 2.132265 1_554
Li4 O25 2.141544 1_555
Li4 O15 2.185534 1_555
Li4 O24 2.560283 1_565
Li5 O30 1.982812 1_555
Li5 O8 1.982812 1_555
Li5 O20 2.322645 1_555
Li5 O12 2.322645 1_555
Fe0 O28 2.101611 1_556
Fe0 O4 2.119002 1_655
Fe0 O8 2.151443 1_555
Fe0 O10 2.160528 1_555
Fe0 O12 2.187399 1_555
Fe0 O27 2.354764 1_545
Fe1 O22 2.101611 1_555
Fe1 O29 2.119002 1_455
Fe1 O2 2.151443 1_555
Fe1 O7 2.160528 1_555
Fe1 O31 2.187399 1_555
Fe1 O13 2.354764 1_545
Fe2 O5 2.101611 1_555
Fe2 O6 2.119002 1_655
Fe2 O30 2.151443 1_555
Fe2 O21 2.160528 1_555
Fe2 O20 2.187399 1_555
Fe2 O23 2.354764 1_565
Fe3 O1 2.101611 1_554
Fe3 O25 2.119002 1_455
Fe3 O17 2.151443 1_555
Fe3 O15 2.160528 1_555
Fe3 O26 2.187399 1_555
Fe3 O24 2.354764 1_565
O0 P4 1.594360 1_555
O0 P0 1.656912 1_555
O1 P5 1.538989 1_555
O2 P3 1.505953 1_555
O3 P3 1.589011 1_555
O3 P2 1.601362 1_555
O4 P5 1.530700 1_545
O5 P7 1.538989 1_555
O6 P0 1.530700 1_565
O7 P6 1.515111 1_555
O8 P8 1.505953 1_555
O9 P9 1.594360 1_555
O9 P5 1.656912 1_555
O10 P9 1.515111 1_555
O11 P2 1.594360 1_555
O11 P1 1.656912 1_555
O12 P5 1.523748 1_655
O13 P6 1.514275 1_555
O14 P3 1.589011 1_565
O14 P6 1.601362 1_555
O15 P2 1.515111 1_555
O16 P8 1.589011 1_555
O16 P4 1.601362 1_555
O17 P3 1.505953 1_565
O18 P8 1.589011 1_565
O18 P9 1.601362 1_555
O19 P6 1.594360 1_555
O19 P7 1.656912 1_555
O20 P0 1.523748 1_655
O21 P4 1.515111 1_555
O22 P0 1.538989 1_555
O23 P4 1.514275 1_555
O24 P2 1.514275 1_555
O25 P1 1.530700 1_565
O26 P1 1.523748 1_455
O27 P9 1.514275 1_555
O28 P1 1.538989 1_555
O29 P7 1.530700 1_545
O30 P8 1.505953 1_565
O31 P7 1.523748 1_455
