# generated using pymatgen
data_Hf3Mn(PN3)4
_symmetry_space_group_name_H-M   'P 1'
_cell_length_a   6.42991688
_cell_length_b   6.42991720
_cell_length_c   5.16780990
_cell_angle_alpha   78.40316388
_cell_angle_beta   78.40315636
_cell_angle_gamma   82.69623044
_symmetry_Int_Tables_number   1
_chemical_formula_structural   Hf3Mn(PN3)4
_chemical_formula_sum   'Hf3 Mn1 P4 N12'
_cell_volume   204.18413488
_cell_formula_units_Z   1
loop_
 _symmetry_equiv_pos_site_id
 _symmetry_equiv_pos_as_xyz
  1  'x, y, z'
loop_
 _atom_site_type_symbol
 _atom_site_label
 _atom_site_symmetry_multiplicity
 _atom_site_fract_x
 _atom_site_fract_y
 _atom_site_fract_z
 _atom_site_occupancy
  Hf  Hf0  1  0.67903536  0.32096464  0.75000000  1
  Hf  Hf1  1  0.90991325  0.09008675  0.25000000  1
  Hf  Hf2  1  0.31910947  0.68089053  0.25000000  1
  Mn  Mn0  1  0.09878040  0.90121960  0.75000000  1
  P  P0  1  0.19465537  0.38880065  0.76167925  1
  P  P1  1  0.38423875  0.19460167  0.26548623  1
  P  P2  1  0.80539833  0.61576125  0.23451377  1
  P  P3  1  0.61119935  0.80534463  0.73832075  1
  N  N0  1  0.32168602  0.38763816  0.01139178  1
  N  N1  1  0.01746788  0.21970340  0.83963577  1
  N  N2  1  0.99376053  0.77403714  0.13129480  1
  N  N3  1  0.38755876  0.33124495  0.50611599  1
  N  N4  1  0.61846934  0.11945501  0.13850679  1
  N  N5  1  0.36899449  0.87819165  0.85683262  1
  N  N6  1  0.88054499  0.38153066  0.36149321  1
  N  N7  1  0.66875505  0.61244124  0.99388401  1
  N  N8  1  0.78029660  0.98253212  0.66036423  1
  N  N9  1  0.12180835  0.63100551  0.64316738  1
  N  N10  1  0.22596286  0.00623947  0.36870520  1
  N  N11  1  0.61236184  0.67831398  0.48860822  1
loop_
_geom_bond_atom_site_label_1
_geom_bond_atom_site_label_2
_geom_bond_distance
_geom_bond_site_symmetry_2
Hf0 N6 2.151629 1_555
Hf0 N4 2.151629 1_556
Hf0 N1 2.301662 1_655
Hf0 N8 2.301662 1_545
Hf0 N7 2.447456 1_555
Hf0 N3 2.447456 1_555
Hf0 N0 2.454087 1_556
Hf0 N11 2.454087 1_555
Hf1 N4 2.044443 1_555
Hf1 N6 2.044443 1_555
Hf1 N8 2.125201 1_545
Hf1 N1 2.125201 1_654
Hf1 N10 2.210514 1_655
Hf1 N2 2.210514 1_545
Hf2 N9 2.155387 1_555
Hf2 N5 2.155387 1_554
Hf2 N2 2.271787 1_455
Hf2 N10 2.271787 1_565
Hf2 N7 2.405445 1_554
Hf2 N3 2.405445 1_555
Hf2 N0 2.448438 1_555
Hf2 N11 2.448438 1_555
Mn0 N5 1.906005 1_555
Mn0 N9 1.906005 1_555
Mn0 N10 1.991241 1_565
Mn0 N2 1.991241 1_456
Mn0 N8 2.166401 1_455
Mn0 N1 2.166401 1_565
N0 P0 1.658573 1_554
N0 P1 1.690197 1_555
N1 P0 1.611461 1_555
N2 P2 1.619426 1_555
N3 P1 1.665375 1_555
N3 P0 1.685489 1_555
N4 P1 1.573997 1_555
N5 P3 1.601949 1_555
N6 P2 1.573997 1_555
N7 P2 1.665375 1_556
N7 P3 1.685489 1_555
N8 P3 1.611461 1_555
N9 P0 1.601949 1_555
N10 P1 1.619426 1_555
N11 P3 1.658573 1_555
N11 P2 1.690196 1_555
