# generated using pymatgen
data_Ca3Nb2RuN6
_symmetry_space_group_name_H-M   'P 1'
_cell_length_a   5.49641254
_cell_length_b   5.49641297
_cell_length_c   5.80533816
_cell_angle_alpha   99.05770609
_cell_angle_beta   99.05771228
_cell_angle_gamma   119.86030389
_symmetry_Int_Tables_number   1
_chemical_formula_structural   Ca3Nb2RuN6
_chemical_formula_sum   'Ca3 Nb2 Ru1 N6'
_cell_volume   144.39649546
_cell_formula_units_Z   1
loop_
 _symmetry_equiv_pos_site_id
 _symmetry_equiv_pos_as_xyz
  1  'x, y, z'
loop_
 _atom_site_type_symbol
 _atom_site_label
 _atom_site_symmetry_multiplicity
 _atom_site_fract_x
 _atom_site_fract_y
 _atom_site_fract_z
 _atom_site_occupancy
  Ca  Ca0  1  0.83773124  0.16226876  0.50000000  1
  Ca  Ca1  1  0.16226876  0.83773124  0.50000000  1
  Ca  Ca2  1  0.50000000  0.50000000  0.50000000  1
  Nb  Nb0  1  0.33209181  0.66790819  1.00000000  1
  Nb  Nb1  1  0.66790819  0.33209181  0.00000000  1
  Ru  Ru0  1  0.00000000  0.00000000  0.00000000  1
  N  N0  1  0.41959216  0.07178108  0.21629639  1
  N  N1  1  0.92821892  0.58040784  0.78370361  1
  N  N2  1  0.58040784  0.92821892  0.78370361  1
  N  N3  1  0.07178108  0.41959216  0.21629639  1
  N  N4  1  0.72418361  0.72418361  0.21555609  1
  N  N5  1  0.27581639  0.27581639  0.78444391  1
loop_
_geom_bond_atom_site_label_1
_geom_bond_atom_site_label_2
_geom_bond_distance
_geom_bond_site_symmetry_2
Ca0 N0 2.377819 1_555
Ca0 N1 2.377819 1_555
Ca0 N5 2.416900 1_655
Ca0 N4 2.416900 1_545
Ca0 N2 2.440629 1_545
Ca0 N3 2.440629 1_655
Ca1 N2 2.377819 1_555
Ca1 N3 2.377819 1_555
Ca1 N4 2.416900 1_455
Ca1 N5 2.416900 1_565
Ca1 N0 2.440629 1_565
Ca1 N1 2.440629 1_455
Ca2 N5 2.352195 1_555
Ca2 N4 2.352195 1_555
Ca2 N3 2.441746 1_555
Ca2 N1 2.441746 1_555
Ca2 N2 2.441746 1_555
Ca2 N0 2.441746 1_555
N0 Nb0 2.145898 1_544
N0 Nb1 2.155778 1_555
N0 Ru0 2.253293 1_555
N1 Nb0 2.145898 1_655
N1 Nb1 2.155778 1_556
N1 Ru0 2.253294 1_666
N2 Nb1 2.145898 1_566
N2 Nb0 2.155778 1_555
N2 Ru0 2.253293 1_666
N3 Nb1 2.145898 1_455
N3 Nb0 2.155778 1_554
N3 Ru0 2.253294 1_555
N4 Nb0 2.161316 1_554
N4 Nb1 2.161317 1_555
N4 Ru0 2.251342 1_665
N5 Nb1 2.161316 1_556
N5 Nb0 2.161317 1_555
N5 Ru0 2.251342 1_556
