# generated using pymatgen
data_Be2V3RhC
_symmetry_space_group_name_H-M   'P 1'
_cell_length_a   7.53411443
_cell_length_b   7.53411417
_cell_length_c   7.53411427
_cell_angle_alpha   60.00000825
_cell_angle_beta   60.00000939
_cell_angle_gamma   60.00000512
_symmetry_Int_Tables_number   1
_chemical_formula_structural   Be2V3RhC
_chemical_formula_sum   'Be8 V12 Rh4 C4'
_cell_volume   302.39993222
_cell_formula_units_Z   4
loop_
 _symmetry_equiv_pos_site_id
 _symmetry_equiv_pos_as_xyz
  1  'x, y, z'
loop_
 _atom_site_type_symbol
 _atom_site_label
 _atom_site_symmetry_multiplicity
 _atom_site_fract_x
 _atom_site_fract_y
 _atom_site_fract_z
 _atom_site_occupancy
  Be  Be0  1  0.74973735  0.41675422  0.41675422  1
  Be  Be1  1  0.41675422  0.74973735  0.41675422  1
  Be  Be2  1  0.41675422  0.41675422  0.74973735  1
  Be  Be3  1  0.41675422  0.41675422  0.41675422  1
  Be  Be4  1  0.50026265  0.83324578  0.83324578  1
  Be  Be5  1  0.83324578  0.50026265  0.83324578  1
  Be  Be6  1  0.83324578  0.83324578  0.50026265  1
  Be  Be7  1  0.83324578  0.83324578  0.83324578  1
  V  V0  1  0.81107788  0.81107788  0.18892212  1
  V  V1  1  0.18892212  0.18892212  0.81107788  1
  V  V2  1  0.81107788  0.18892212  0.81107788  1
  V  V3  1  0.18892212  0.81107788  0.18892212  1
  V  V4  1  0.18892212  0.81107788  0.81107788  1
  V  V5  1  0.81107788  0.18892212  0.18892212  1
  V  V6  1  0.43892212  0.43892212  0.06107788  1
  V  V7  1  0.06107788  0.06107788  0.43892212  1
  V  V8  1  0.43892212  0.06107788  0.43892212  1
  V  V9  1  0.06107788  0.43892212  0.06107788  1
  V  V10  1  0.06107788  0.43892212  0.43892212  1
  V  V11  1  0.43892212  0.06107788  0.06107788  1
  Rh  Rh0  1  0.12500000  0.62500000  0.62500000  1
  Rh  Rh1  1  0.62500000  0.12500000  0.62500000  1
  Rh  Rh2  1  0.62500000  0.62500000  0.12500000  1
  Rh  Rh3  1  0.62500000  0.62500000  0.62500000  1
  C  C0  1  0.62500000  0.12500000  0.12500000  1
  C  C1  1  0.12500000  0.62500000  0.12500000  1
  C  C2  1  0.12500000  0.12500000  0.62500000  1
  C  C3  1  0.12500000  0.12500000  0.12500000  1
loop_
_geom_bond_atom_site_label_1
_geom_bond_atom_site_label_2
_geom_bond_distance
_geom_bond_site_symmetry_2
Be0 Rh3 2.306304 1_555
Be0 Rh2 2.306304 1_555
Be0 Rh1 2.306304 1_555
Be1 Rh3 2.306304 1_555
Be1 Rh2 2.306304 1_555
Be1 Rh0 2.306304 1_555
Be2 Rh1 2.306304 1_555
Be2 Rh3 2.306304 1_555
Be2 Rh0 2.306304 1_555
Be3 Rh1 2.306304 1_555
Be3 Rh0 2.306304 1_555
Be3 Rh2 2.306304 1_555
Be4 Rh3 2.306304 1_555
Be4 Rh2 2.306304 1_556
Be4 Rh1 2.306304 1_565
Be5 Rh3 2.306304 1_555
Be5 Rh2 2.306304 1_556
Be5 Rh0 2.306304 1_655
Be6 Rh1 2.306304 1_565
Be6 Rh3 2.306304 1_555
Be6 Rh0 2.306304 1_655
Be7 Rh1 2.306304 1_565
Be7 Rh0 2.306304 1_655
Be7 Rh2 2.306304 1_556
Rh0 V4 2.734686 1_555
Rh0 V10 2.734686 1_555
Rh0 V7 2.734686 1_565
Rh0 V1 2.734686 1_555
Rh0 V9 2.734686 1_556
Rh0 V3 2.734686 1_555
Rh1 V2 2.734686 1_555
Rh1 V8 2.734686 1_555
Rh1 V11 2.734686 1_556
Rh1 V5 2.734686 1_555
Rh1 V7 2.734686 1_655
Rh1 V1 2.734686 1_555
Rh2 V0 2.734686 1_555
Rh2 V6 2.734686 1_555
Rh2 V11 2.734686 1_565
Rh2 V5 2.734686 1_555
Rh2 V9 2.734686 1_655
Rh2 V3 2.734686 1_555
Rh3 V8 2.734686 1_565
Rh3 V2 2.734686 1_555
Rh3 V10 2.734686 1_655
Rh3 V4 2.734686 1_555
Rh3 V6 2.734686 1_556
Rh3 V0 2.734686 1_555
C0 V5 2.002885 1_555
C0 V11 2.002885 1_555
C0 V6 2.002886 1_555
C0 V0 2.002886 1_545
C0 V8 2.002886 1_555
C0 V2 2.002886 1_554
C1 V3 2.002885 1_555
C1 V9 2.002885 1_555
C1 V6 2.002886 1_555
C1 V0 2.002886 1_455
C1 V10 2.002886 1_555
C1 V4 2.002886 1_554
C2 V1 2.002885 1_555
C2 V7 2.002885 1_555
C2 V10 2.002886 1_555
C2 V4 2.002886 1_545
C2 V8 2.002886 1_555
C2 V2 2.002886 1_455
C3 V9 2.002886 1_555
C3 V3 2.002886 1_545
C3 V7 2.002886 1_555
C3 V1 2.002886 1_554
C3 V11 2.002886 1_555
C3 V5 2.002886 1_455
