# generated using pymatgen
data_Y10Al2CoHg
_symmetry_space_group_name_H-M   'P 1'
_cell_length_a   9.64464787
_cell_length_b   9.64464746
_cell_length_c   9.55894928
_cell_angle_alpha   90.00000000
_cell_angle_beta   90.00000000
_cell_angle_gamma   120.40845575
_symmetry_Int_Tables_number   1
_chemical_formula_structural   Y10Al2CoHg
_chemical_formula_sum   'Y20 Al4 Co2 Hg2'
_cell_volume   766.85149268
_cell_formula_units_Z   2
loop_
 _symmetry_equiv_pos_site_id
 _symmetry_equiv_pos_as_xyz
  1  'x, y, z'
loop_
 _atom_site_type_symbol
 _atom_site_label
 _atom_site_symmetry_multiplicity
 _atom_site_fract_x
 _atom_site_fract_y
 _atom_site_fract_z
 _atom_site_occupancy
  Y  Y0  1  0.99675293  0.00324707  0.51246401  1
  Y  Y1  1  0.99675293  0.00324707  0.98753599  1
  Y  Y2  1  0.54571664  0.45428336  0.25000000  1
  Y  Y3  1  0.54177896  0.08295681  0.25000000  1
  Y  Y4  1  0.91704319  0.45822104  0.25000000  1
  Y  Y5  1  0.45995842  0.54004158  0.75000000  1
  Y  Y6  1  0.46163812  0.91262823  0.75000000  1
  Y  Y7  1  0.08737177  0.53836188  0.75000000  1
  Y  Y8  1  0.20848040  0.79151960  0.43797949  1
  Y  Y9  1  0.21197767  0.42098079  0.43205997  1
  Y  Y10  1  0.57901921  0.78802233  0.43205997  1
  Y  Y11  1  0.78849243  0.21150757  0.56257544  1
  Y  Y12  1  0.79271783  0.58084164  0.56529903  1
  Y  Y13  1  0.41915836  0.20728217  0.56529903  1
  Y  Y14  1  0.78849243  0.21150757  0.93742456  1
  Y  Y15  1  0.79271783  0.58084164  0.93470097  1
  Y  Y16  1  0.41915836  0.20728217  0.93470097  1
  Y  Y17  1  0.20848040  0.79151960  0.06202051  1
  Y  Y18  1  0.21197767  0.42098079  0.06794003  1
  Y  Y19  1  0.57901921  0.78802233  0.06794003  1
  Al  Al0  1  0.88836902  0.11163098  0.25000000  1
  Al  Al1  1  0.89008669  0.78147650  0.25000000  1
  Al  Al2  1  0.21852350  0.10991331  0.25000000  1
  Al  Al3  1  0.12074271  0.87925729  0.75000000  1
  Co  Co0  1  0.32833336  0.67166664  0.25000000  1
  Co  Co1  1  0.66614642  0.33385358  0.75000000  1
  Hg  Hg0  1  0.12371354  0.24261700  0.75000000  1
  Hg  Hg1  1  0.75738300  0.87628646  0.75000000  1
loop_
_geom_bond_atom_site_label_1
_geom_bond_atom_site_label_2
_geom_bond_distance
_geom_bond_site_symmetry_2
Y2 Y3 3.562242 1_555
Y2 Y4 3.562242 1_555
Y3 Y8 3.509408 1_545
Y3 Y4 3.596924 1_555
Y4 Y9 3.504756 1_655
Y4 Y8 3.509408 1_655
Y10 Y3 3.504756 1_565
Y11 Y4 3.624921 1_555
Y11 Y3 3.624921 1_555
Y12 Y4 3.654544 1_555
Y13 Y3 3.654544 1_555
Y14 Y4 3.624921 1_556
Y14 Y3 3.624921 1_556
Y15 Y4 3.654544 1_556
Y16 Y3 3.654544 1_556
Y17 Y4 3.509408 1_455
Y17 Y3 3.509408 1_565
Y18 Y4 3.504756 1_455
Y19 Y3 3.504756 1_565
Al0 Y0 3.096135 1_555
Al0 Y1 3.096135 1_554
Al0 Y4 3.211628 1_555
Al0 Y3 3.211628 1_555
Al0 Y11 3.423833 1_555
Al0 Y14 3.423833 1_554
Al0 Y10 3.499259 1_545
Al0 Y19 3.499259 1_545
Al0 Y9 3.499259 1_655
Al0 Y18 3.499259 1_655
Al1 Y0 3.114513 1_565
Al1 Y1 3.114513 1_564
Al1 Y2 3.221690 1_555
Al1 Y4 3.257007 1_555
Al1 Y12 3.445359 1_555
Al1 Y15 3.445359 1_554
Al1 Y10 3.496455 1_555
Al1 Y19 3.496455 1_555
Al1 Y8 3.516654 1_655
Al1 Y17 3.516654 1_655
Al2 Y0 3.114513 1_455
Al2 Y1 3.114513 1_454
Al2 Y2 3.221690 1_555
Al2 Y3 3.257007 1_555
Al2 Y13 3.445359 1_555
Al2 Y16 3.445359 1_554
Al2 Y9 3.496454 1_555
Al2 Y18 3.496454 1_555
Al2 Y8 3.516654 1_545
Al2 Y17 3.516654 1_545
Al3 Y1 3.076248 1_465
Al3 Y0 3.076248 1_465
Al3 Y7 3.137212 1_555
Al3 Y6 3.137212 1_555
Al3 Y17 3.324577 1_556
Al3 Y8 3.324577 1_555
Al3 Y16 3.491698 1_565
Al3 Y13 3.491698 1_565
Al3 Y15 3.491698 1_455
Al3 Y12 3.491698 1_455
Co0 Y8 2.693298 1_555
Co0 Y17 2.693298 1_555
Co0 Y9 2.717897 1_555
Co0 Y18 2.717897 1_555
Co0 Y10 2.717897 1_555
Co0 Y19 2.717897 1_555
Co0 Y3 3.421456 1_565
Co0 Y4 3.421456 1_455
Co1 Y15 2.708884 1_555
Co1 Y12 2.708884 1_555
Co1 Y16 2.708884 1_555
Co1 Y13 2.708884 1_555
Co1 Y14 2.721031 1_555
Co1 Y11 2.721031 1_555
Hg0 Y1 3.020439 1_455
Hg0 Y0 3.020439 1_455
Hg0 Y7 3.044809 1_555
Hg0 Y5 3.054206 1_555
Hg0 Y18 3.382021 1_556
Hg0 Y9 3.382021 1_555
Hg0 Y16 3.512231 1_555
Hg0 Y13 3.512231 1_555
Hg0 Y14 3.573605 1_455
Hg0 Y11 3.573605 1_455
Hg1 Y1 3.020439 1_565
Hg1 Y0 3.020439 1_565
Hg1 Y6 3.044809 1_555
Hg1 Y5 3.054206 1_555
Hg1 Y19 3.382021 1_556
Hg1 Y10 3.382021 1_555
Hg1 Y15 3.512231 1_555
Hg1 Y12 3.512231 1_555
Hg1 Y14 3.573604 1_565
Hg1 Y11 3.573604 1_565
