# generated using pymatgen
data_Zr16Ir5Au3O4
_symmetry_space_group_name_H-M   'P 1'
_cell_length_a   8.84936917
_cell_length_b   8.84936905
_cell_length_c   8.84936909
_cell_angle_alpha   60.36227253
_cell_angle_beta   60.36226145
_cell_angle_gamma   60.36226349
_symmetry_Int_Tables_number   1
_chemical_formula_structural   Zr16Ir5Au3O4
_chemical_formula_sum   'Zr16 Ir5 Au3 O4'
_cell_volume   494.04471261
_cell_formula_units_Z   1
loop_
 _symmetry_equiv_pos_site_id
 _symmetry_equiv_pos_as_xyz
  1  'x, y, z'
loop_
 _atom_site_type_symbol
 _atom_site_label
 _atom_site_symmetry_multiplicity
 _atom_site_fract_x
 _atom_site_fract_y
 _atom_site_fract_z
 _atom_site_occupancy
  Zr  Zr0  1  0.10136980  0.63134394  0.63134394  1
  Zr  Zr1  1  0.63134394  0.10136980  0.63134394  1
  Zr  Zr2  1  0.63134394  0.63134394  0.10136980  1
  Zr  Zr3  1  0.63612670  0.63612670  0.63612670  1
  Zr  Zr4  1  0.81712324  0.81712324  0.18236243  1
  Zr  Zr5  1  0.18424525  0.18424525  0.81535007  1
  Zr  Zr6  1  0.81712324  0.18236243  0.81712324  1
  Zr  Zr7  1  0.18424525  0.81535007  0.18424525  1
  Zr  Zr8  1  0.18236243  0.81712324  0.81712324  1
  Zr  Zr9  1  0.81535007  0.18424525  0.18424525  1
  Zr  Zr10  1  0.43459690  0.43459690  0.07005008  1
  Zr  Zr11  1  0.06610941  0.06610941  0.43432406  1
  Zr  Zr12  1  0.43459690  0.07005008  0.43459690  1
  Zr  Zr13  1  0.06610941  0.43432406  0.06610941  1
  Zr  Zr14  1  0.07005008  0.43459690  0.43459690  1
  Zr  Zr15  1  0.43432406  0.06610941  0.06610941  1
  Ir  Ir0  1  0.40161508  0.40161508  0.40161508  1
  Ir  Ir1  1  0.44835934  0.85225801  0.85225801  1
  Ir  Ir2  1  0.85225801  0.44835934  0.85225801  1
  Ir  Ir3  1  0.85225801  0.85225801  0.44835934  1
  Ir  Ir4  1  0.84985242  0.84985242  0.84985242  1
  Au  Au0  1  0.76362942  0.41269175  0.41269175  1
  Au  Au1  1  0.41269175  0.76362942  0.41269175  1
  Au  Au2  1  0.41269175  0.41269175  0.76362942  1
  O  O0  1  0.62410282  0.12495857  0.12495857  1
  O  O1  1  0.12495857  0.62410282  0.12495857  1
  O  O2  1  0.12495857  0.12495857  0.62410282  1
  O  O3  1  0.12620365  0.12620365  0.12620365  1
loop_
_geom_bond_atom_site_label_1
_geom_bond_atom_site_label_2
_geom_bond_distance
_geom_bond_site_symmetry_2
Ir0 Zr14 2.677655 1_555
Ir0 Zr12 2.677655 1_555
Ir0 Zr10 2.677655 1_555
Ir0 Zr0 2.954387 1_555
Ir0 Zr2 2.954387 1_555
Ir0 Zr1 2.954387 1_555
Ir0 Zr9 3.245602 1_555
Ir0 Zr5 3.245602 1_555
Ir0 Zr7 3.245603 1_555
Ir1 Zr7 2.686128 1_556
Ir1 Zr5 2.686128 1_565
Ir1 Zr8 2.697688 1_555
Ir1 Zr3 2.721925 1_555
Ir1 Zr1 2.727813 1_565
Ir1 Zr2 2.727813 1_556
Ir1 Zr15 3.202389 1_566
Ir1 Zr10 3.249283 1_556
Ir1 Zr12 3.249283 1_565
Ir2 Zr5 2.686128 1_655
Ir2 Zr9 2.686128 1_556
Ir2 Zr6 2.697687 1_555
Ir2 Zr3 2.721925 1_555
Ir2 Zr2 2.727812 1_556
Ir2 Zr0 2.727813 1_655
Ir2 Zr13 3.202389 1_656
Ir2 Zr14 3.249283 1_655
Ir2 Zr10 3.249283 1_556
Ir3 Zr7 2.686128 1_655
Ir3 Zr9 2.686128 1_565
Ir3 Zr4 2.697688 1_555
Ir3 Zr3 2.721925 1_555
Ir3 Zr1 2.727812 1_565
Ir3 Zr0 2.727813 1_655
Ir3 Zr11 3.202389 1_665
Ir3 Zr14 3.249283 1_655
Ir3 Zr12 3.249283 1_565
Ir4 Zr8 2.687616 1_655
Ir4 Zr6 2.687616 1_565
Ir4 Zr4 2.687616 1_556
Ir4 Zr0 2.759862 1_655
Ir4 Zr2 2.759863 1_556
Ir4 Zr1 2.759863 1_565
Au0 Zr1 2.895104 1_555
Au0 Zr2 2.895104 1_555
Au0 Zr13 2.900836 1_655
Au0 Zr11 2.900836 1_655
Au0 Zr14 2.916333 1_655
Au0 Zr3 2.923330 1_555
Au0 Ir0 3.303470 1_555
Au1 Zr2 2.895104 1_555
Au1 Zr0 2.895104 1_555
Au1 Zr11 2.900836 1_565
Au1 Zr15 2.900836 1_565
Au1 Zr12 2.916333 1_565
Au1 Zr3 2.923330 1_555
Au1 Ir0 3.303470 1_555
Au2 Zr1 2.895104 1_555
Au2 Zr0 2.895104 1_555
Au2 Zr13 2.900836 1_556
Au2 Zr15 2.900836 1_556
Au2 Zr10 2.916333 1_556
Au2 Zr3 2.923330 1_555
Au2 Ir0 3.303470 1_555
O0 Zr15 2.315412 1_555
O0 Zr9 2.333109 1_555
O0 Zr6 2.341817 1_554
O0 Zr4 2.341817 1_545
O0 Zr12 2.345415 1_555
O0 Zr10 2.345415 1_555
O1 Zr13 2.315412 1_555
O1 Zr7 2.333109 1_555
O1 Zr4 2.341817 1_455
O1 Zr8 2.341817 1_554
O1 Zr10 2.345415 1_555
O1 Zr14 2.345415 1_555
O2 Zr11 2.315412 1_555
O2 Zr5 2.333109 1_555
O2 Zr6 2.341817 1_455
O2 Zr8 2.341817 1_545
O2 Zr12 2.345415 1_555
O2 Zr14 2.345415 1_555
O3 Zr15 2.326329 1_555
O3 Zr11 2.326329 1_555
O3 Zr13 2.326329 1_555
O3 Zr9 2.358161 1_455
O3 Zr5 2.358162 1_554
O3 Zr7 2.358162 1_545
