# generated using pymatgen
data_Sr5BiPb2F
_symmetry_space_group_name_H-M   'P 1'
_cell_length_a   10.02958564
_cell_length_b   10.02958604
_cell_length_c   10.02958569
_cell_angle_alpha   128.36872675
_cell_angle_beta   128.36872846
_cell_angle_gamma   76.02845598
_symmetry_Int_Tables_number   1
_chemical_formula_structural   Sr5BiPb2F
_chemical_formula_sum   'Sr10 Bi2 Pb4 F2'
_cell_volume   602.95771969
_cell_formula_units_Z   2
loop_
 _symmetry_equiv_pos_site_id
 _symmetry_equiv_pos_as_xyz
  1  'x, y, z'
loop_
 _atom_site_type_symbol
 _atom_site_label
 _atom_site_symmetry_multiplicity
 _atom_site_fract_x
 _atom_site_fract_y
 _atom_site_fract_z
 _atom_site_occupancy
  Sr  Sr0  1  0.50000000  0.50000000  0.00000000  1
  Sr  Sr1  1  0.00000000  0.00000000  0.00000000  1
  Sr  Sr2  1  0.51046220  0.01046220  0.81562670  1
  Sr  Sr3  1  0.19483550  0.69483550  0.18437330  1
  Sr  Sr4  1  0.01046220  0.19483550  0.50000000  1
  Sr  Sr5  1  0.69483550  0.51046220  0.50000000  1
  Sr  Sr6  1  0.48953780  0.98953780  0.18437330  1
  Sr  Sr7  1  0.80516450  0.30516450  0.81562670  1
  Sr  Sr8  1  0.98953780  0.80516450  0.50000000  1
  Sr  Sr9  1  0.30516450  0.48953780  0.50000000  1
  Bi  Bi0  1  0.25000000  0.25000000  0.00000000  1
  Bi  Bi1  1  0.75000000  0.75000000  0.00000000  1
  Pb  Pb0  1  0.87011950  0.37011950  0.24024000  1
  Pb  Pb1  1  0.12988050  0.62988050  0.75976100  1
  Pb  Pb2  1  0.37011950  0.12988050  0.50000000  1
  Pb  Pb3  1  0.62988050  0.87011950  0.50000000  1
  F  F0  1  0.25000000  0.75000000  0.50000000  1
  F  F1  1  0.75000000  0.25000000  0.50000000  1
loop_
_geom_bond_atom_site_label_1
_geom_bond_atom_site_label_2
_geom_bond_distance
_geom_bond_site_symmetry_2
Bi0 Sr2 3.669713 1_554
Bi0 Sr7 3.669713 1_454
Bi0 Sr6 3.669713 1_545
Bi0 Sr4 3.669714 1_554
Bi0 Sr9 3.669714 1_555
Bi0 Sr3 3.669714 1_555
Bi0 Sr5 3.669714 1_555
Bi0 Sr8 3.669714 1_444
Bi0 Sr1 3.950944 1_555
Bi0 Sr0 3.950944 1_555
Bi1 Sr6 3.669713 1_555
Bi1 Sr3 3.669713 1_655
Bi1 Sr2 3.669713 1_564
Bi1 Sr8 3.669714 1_555
Bi1 Sr5 3.669714 1_554
Bi1 Sr7 3.669714 1_554
Bi1 Sr9 3.669714 1_554
Bi1 Sr4 3.669714 1_665
Bi1 Sr1 3.950944 1_665
Bi1 Sr0 3.950944 1_555
Pb0 Sr0 3.426396 1_555
Pb0 Sr1 3.426396 1_655
Pb0 Sr5 3.434819 1_555
Pb0 Sr4 3.434819 1_655
Pb0 Sr9 3.434830 1_655
Pb0 Sr8 3.434830 1_555
Pb0 Sr2 3.507369 1_554
Pb0 Sr7 3.507379 1_554
Pb1 Sr0 3.426393 1_556
Pb1 Sr1 3.426393 1_566
Pb1 Sr9 3.434827 1_555
Pb1 Sr8 3.434827 1_455
Pb1 Sr5 3.434827 1_455
Pb1 Sr4 3.434827 1_555
Pb1 Sr3 3.507369 1_556
Pb1 Sr6 3.507370 1_556
Pb2 Sr1 3.426393 1_555
Pb2 Sr0 3.426393 1_556
Pb2 Sr2 3.434827 1_555
Pb2 Sr6 3.434827 1_545
Pb2 Sr7 3.434827 1_555
Pb2 Sr3 3.434828 1_545
Pb2 Sr4 3.507369 1_555
Pb2 Sr9 3.507369 1_555
Pb3 Sr1 3.426393 1_666
Pb3 Sr0 3.426393 1_555
Pb3 Sr6 3.434827 1_555
Pb3 Sr2 3.434827 1_565
Pb3 Sr3 3.434827 1_555
Pb3 Sr7 3.434828 1_565
Pb3 Sr8 3.507369 1_555
Pb3 Sr5 3.507369 1_555
F0 Sr8 2.536227 1_455
F0 Sr3 2.536227 1_555
F0 Sr9 2.536227 1_555
F0 Sr2 2.536227 1_565
F1 Sr4 2.536227 1_655
F1 Sr7 2.536227 1_555
F1 Sr5 2.536227 1_555
F1 Sr6 2.536227 1_545
