# generated using pymatgen
data_Li2VAgS4
_symmetry_space_group_name_H-M   'P 1'
_cell_length_a   6.00512400
_cell_length_b   6.00512400
_cell_length_c   5.78352068
_cell_angle_alpha   90.00000000
_cell_angle_beta   90.00000000
_cell_angle_gamma   90.00000000
_symmetry_Int_Tables_number   1
_chemical_formula_structural   Li2VAgS4
_chemical_formula_sum   'Li2 V1 Ag1 S4'
_cell_volume   208.56251356
_cell_formula_units_Z   1
loop_
 _symmetry_equiv_pos_site_id
 _symmetry_equiv_pos_as_xyz
  1  'x, y, z'
loop_
 _atom_site_type_symbol
 _atom_site_label
 _atom_site_symmetry_multiplicity
 _atom_site_fract_x
 _atom_site_fract_y
 _atom_site_fract_z
 _atom_site_occupancy
  Li  Li0  1  0.00000000  0.50000000  0.00000000  1
  Li  Li1  1  0.50000000  0.00000000  0.00000000  1
  V  V0  1  0.00000000  0.00000000  0.00000000  1
  Ag  Ag0  1  0.00000000  0.00000000  0.50000000  1
  S  S0  1  0.21572033  0.21572033  0.20226079  1
  S  S1  1  0.21572033  0.78427967  0.79773921  1
  S  S2  1  0.78427967  0.21572033  0.79773921  1
  S  S3  1  0.78427967  0.78427967  0.20226079  1
loop_
_geom_bond_atom_site_label_1
_geom_bond_atom_site_label_2
_geom_bond_distance
_geom_bond_site_symmetry_2
Li0 S1 2.441480 1_554
Li0 S3 2.441480 1_455
Li0 S0 2.441480 1_555
Li0 S2 2.441480 1_454
Li1 S2 2.441480 1_554
Li1 S3 2.441480 1_545
Li1 S0 2.441480 1_555
Li1 S1 2.441480 1_544
Ag0 S2 2.514256 1_455
Ag0 S1 2.514256 1_545
Ag0 S0 2.514256 1_555
Ag0 S3 2.514256 1_445
S0 V0 2.173626 1_555
S1 V0 2.173626 1_566
S2 V0 2.173626 1_656
S3 V0 2.173626 1_665
