# generated using pymatgen
data_K14Ta2As3P5
_symmetry_space_group_name_H-M   'P 1'
_cell_length_a   8.18384971
_cell_length_b   9.10121750
_cell_length_c   10.03744037
_cell_angle_alpha   90.86684667
_cell_angle_beta   89.85080985
_cell_angle_gamma   89.99563378
_symmetry_Int_Tables_number   1
_chemical_formula_structural   K14Ta2As3P5
_chemical_formula_sum   'K14 Ta2 As3 P5'
_cell_volume   747.53053231
_cell_formula_units_Z   1
loop_
 _symmetry_equiv_pos_site_id
 _symmetry_equiv_pos_as_xyz
  1  'x, y, z'
loop_
 _atom_site_type_symbol
 _atom_site_label
 _atom_site_symmetry_multiplicity
 _atom_site_fract_x
 _atom_site_fract_y
 _atom_site_fract_z
 _atom_site_occupancy
  K  K0  1  0.71161051  0.82775176  0.71327450  1
  K  K1  1  0.20040951  0.16604283  0.78494692  1
  K  K2  1  0.20264490  0.17573911  0.20946998  1
  K  K3  1  0.69987935  0.82669530  0.28784329  1
  K  K4  1  0.87656134  0.46451054  0.70846037  1
  K  K5  1  0.37510239  0.53414326  0.79493254  1
  K  K6  1  0.37448498  0.53529170  0.20897865  1
  K  K7  1  0.87596922  0.46933559  0.29220357  1
  K  K8  1  0.17149065  0.65503828  0.50880694  1
  K  K9  1  0.67261122  0.34769601  0.99747030  1
  K  K10  1  0.86057756  0.03530341  0.00439269  1
  K  K11  1  0.36339533  0.96376864  0.48964103  1
  K  K12  1  0.39635791  0.90282256  0.99983560  1
  K  K13  1  0.89790474  0.09767718  0.48952668  1
  Ta  Ta0  1  0.99792425  0.67743230  0.00108015  1
  Ta  Ta1  1  0.49674011  0.32395369  0.49863646  1
  As  As0  1  0.59585368  0.18707776  0.70261225  1
  As  As1  1  0.59430199  0.19042382  0.28834107  1
  As  As2  1  0.09468149  0.81293181  0.21288905  1
  P  P0  1  0.70600872  0.68641071  0.99958999  1
  P  P1  1  0.20580483  0.31497999  0.50061026  1
  P  P2  1  0.09350682  0.80469072  0.80519828  1
  P  P3  1  0.57622455  0.57752195  0.50204474  1
  P  P4  1  0.07665395  0.42276108  0.99921567  1
loop_
_geom_bond_atom_site_label_1
_geom_bond_atom_site_label_2
_geom_bond_distance
_geom_bond_site_symmetry_2
K0 P0 3.166576 1_555
K0 P2 3.268666 1_655
K0 P3 3.282673 1_555
K1 P1 3.178231 1_555
K1 P4 3.308558 1_555
K1 P2 3.412082 1_545
K2 P1 3.167779 1_555
K2 P4 3.275049 1_554
K3 P0 3.145064 1_554
K3 P3 3.305467 1_555
K4 P4 3.376612 1_655
K4 P3 3.388590 1_555
K4 P1 3.653646 1_655
K4 P2 3.687745 1_655
K5 P4 3.351845 1_555
K5 P2 3.372640 1_555
K5 P3 3.393778 1_555
K6 P4 3.374133 1_554
K6 P3 3.393808 1_555
K7 P3 3.366506 1_555
K7 P4 3.385658 1_654
K8 P1 3.107467 1_555
K8 P2 3.313679 1_555
K8 P3 3.386821 1_555
K9 P0 3.094587 1_555
K9 P4 3.376551 1_655
K10 P0 3.417836 1_544
K10 P2 3.448071 1_644
K11 K8 3.227088 1_555
K11 P1 3.446842 1_565
K11 Ta1 3.455028 1_565
K12 P0 3.209405 1_555
K12 P2 3.275685 1_555
K13 P1 3.204489 1_655
As0 Ta1 2.547015 1_555
As0 K9 3.342123 1_555
As0 K1 3.344240 1_555
As0 K13 3.356581 1_555
As0 K0 3.407996 1_545
As0 K4 3.413722 1_555
As0 K11 3.494244 1_545
As1 Ta1 2.546264 1_555
As1 K2 3.305810 1_555
As1 K13 3.322840 1_555
As1 K9 3.331730 1_554
As1 K3 3.421137 1_545
As1 K7 3.428867 1_555
As1 K11 3.466364 1_545
As1 K6 3.715452 1_555
As1 K10 3.835422 1_555
As2 Ta0 2.568535 1_455
As2 K3 3.317456 1_455
As2 K12 3.370999 1_554
As2 K8 3.379547 1_555
As2 K6 3.409652 1_555
As2 K2 3.418873 1_565
As2 K10 3.506376 1_465
As2 K7 3.699373 1_455
As2 K11 3.788692 1_555
P0 Ta0 2.390477 1_556
P1 Ta1 2.382418 1_555
P2 Ta0 2.424896 1_456
P3 Ta1 2.397522 1_555
P4 Ta0 2.405445 1_456
