# generated using pymatgen
data_Na3MnH6
_symmetry_space_group_name_H-M   'P 1'
_cell_length_a   5.30738680
_cell_length_b   5.31538303
_cell_length_c   9.17978628
_cell_angle_alpha   54.55971293
_cell_angle_beta   90.00000000
_cell_angle_gamma   90.00000000
_symmetry_Int_Tables_number   1
_chemical_formula_structural   Na3MnH6
_chemical_formula_sum   'Na6 Mn2 H12'
_cell_volume   210.98734183
_cell_formula_units_Z   2
loop_
 _symmetry_equiv_pos_site_id
 _symmetry_equiv_pos_as_xyz
  1  'x, y, z'
loop_
 _atom_site_type_symbol
 _atom_site_label
 _atom_site_symmetry_multiplicity
 _atom_site_fract_x
 _atom_site_fract_y
 _atom_site_fract_z
 _atom_site_occupancy
  Na  Na0  1  0.02254696  0.25235060  0.25004909  1
  Na  Na1  1  0.52254696  0.74764940  0.24995091  1
  Na  Na2  1  0.97745304  0.74764940  0.74995091  1
  Na  Na3  1  0.47745304  0.25235060  0.75004909  1
  Na  Na4  1  0.00000000  0.50000000  0.50000000  1
  Na  Na5  1  0.50000000  0.50000000  0.00000000  1
  Mn  Mn0  1  0.00000000  0.00000000  0.00000000  1
  Mn  Mn1  1  0.50000000  0.00000000  0.50000000  1
  H  H0  1  0.25086133  0.78840096  0.53254343  1
  H  H1  1  0.75086133  0.21159904  0.96745657  1
  H  H2  1  0.74913867  0.21159904  0.46745657  1
  H  H3  1  0.24913867  0.78840096  0.03254343  1
  H  H4  1  0.18373918  0.27559816  0.96926821  1
  H  H5  1  0.68373918  0.72440184  0.53073179  1
  H  H6  1  0.81626082  0.72440184  0.03073179  1
  H  H7  1  0.31626082  0.27559816  0.46926821  1
  H  H8  1  0.01709002  0.15198616  0.78521726  1
  H  H9  1  0.51709002  0.84801384  0.71478274  1
  H  H10  1  0.98290998  0.84801384  0.21478274  1
  H  H11  1  0.48290998  0.15198616  0.28521726  1
loop_
_geom_bond_atom_site_label_1
_geom_bond_atom_site_label_2
_geom_bond_distance
_geom_bond_site_symmetry_2
H0 Mn1 1.647122 1_565
H0 Na4 2.177841 1_555
H0 Na2 2.373659 1_455
H0 Na0 2.618830 1_565
H0 Na3 2.637005 1_555
H1 Mn0 1.647122 1_656
H1 Na5 2.177841 1_556
H1 Na3 2.373659 1_555
H1 Na1 2.618830 1_546
H1 Na2 2.637005 1_555
H2 Mn1 1.647122 1_555
H2 Na4 2.177841 1_655
H2 Na0 2.373659 1_655
H2 Na2 2.618830 1_545
H2 Na1 2.637005 1_555
H3 Mn0 1.647122 1_565
H3 Na5 2.177841 1_555
H3 Na1 2.373659 1_555
H3 Na3 2.618830 1_564
H3 Na0 2.637005 1_555
H4 Mn0 1.642329 1_556
H4 Na5 2.170248 1_556
H4 Na2 2.385238 1_455
H4 Na3 2.604490 1_555
H4 Na0 2.649782 1_556
H5 Mn1 1.642329 1_565
H5 Na4 2.170248 1_655
H5 Na3 2.385238 1_555
H5 Na2 2.604490 1_555
H5 Na1 2.649782 1_555
H6 Mn0 1.642329 1_665
H6 Na5 2.170248 1_555
H6 Na0 2.385238 1_655
H6 Na1 2.604490 1_555
H6 Na2 2.649782 1_554
H7 Mn1 1.642329 1_555
H7 Na4 2.170248 1_555
H7 Na1 2.385238 1_555
H7 Na0 2.604490 1_555
H7 Na3 2.649782 1_555
H8 Mn0 1.643500 1_556
H8 Na4 2.160658 1_555
H8 Na2 2.361153 1_445
H8 Na3 2.481718 1_555
H9 Mn1 1.643500 1_565
H9 Na5 2.160658 1_556
H9 Na3 2.361153 1_565
H9 Na2 2.481718 1_555
H10 Mn0 1.643500 1_665
H10 Na4 2.160658 1_655
H10 Na0 2.361153 1_665
H10 Na1 2.481718 1_555
H11 Mn1 1.643500 1_555
H11 Na5 2.160658 1_555
H11 Na1 2.361153 1_545
H11 Na0 2.481718 1_555
