# generated using pymatgen
data_Ti4Re9Tc15Sn
_symmetry_space_group_name_H-M   'P 1'
_cell_length_a   8.27119747
_cell_length_b   8.30333763
_cell_length_c   8.30333824
_cell_angle_alpha   109.54949805
_cell_angle_beta   109.39281946
_cell_angle_gamma   109.39283587
_symmetry_Int_Tables_number   1
_chemical_formula_structural   Ti4Re9Tc15Sn
_chemical_formula_sum   'Ti4 Re9 Tc15 Sn1'
_cell_volume   439.41126760
_cell_formula_units_Z   1
loop_
 _symmetry_equiv_pos_site_id
 _symmetry_equiv_pos_as_xyz
  1  'x, y, z'
loop_
 _atom_site_type_symbol
 _atom_site_label
 _atom_site_symmetry_multiplicity
 _atom_site_fract_x
 _atom_site_fract_y
 _atom_site_fract_z
 _atom_site_occupancy
  Ti  Ti0  1  0.63159446  0.00000000  1.00000000  1
  Ti  Ti1  1  0.99953974  0.62918818  1.00000000  1
  Ti  Ti2  1  0.99953974  0.00000000  0.62918818  1
  Ti  Ti3  1  0.37035155  0.37081182  0.37081182  1
  Re  Re0  1  0.19772891  0.37690614  1.00000000  1
  Re  Re1  1  0.99987729  0.37737316  0.19422779  1
  Re  Re2  1  0.80564950  0.18314637  0.80577221  1
  Re  Re3  1  0.80564950  0.80577221  0.18314637  1
  Re  Re4  1  0.99987729  0.19422779  0.37737316  1
  Re  Re5  1  0.19772891  0.00000000  0.37690614  1
  Re  Re6  1  0.62250413  0.62262684  0.81685363  1
  Re  Re7  1  0.82082176  0.62309386  0.62309386  1
  Re  Re8  1  0.62250413  0.81685363  0.62262684  1
  Tc  Tc0  1  0.39809747  0.68002871  1.00000000  1
  Tc  Tc1  1  0.71806876  0.31997129  0.31997129  1
  Tc  Tc2  1  0.39809747  0.00000000  0.68002871  1
  Tc  Tc3  1  0.67697432  0.39670494  0.00000000  1
  Tc  Tc4  1  0.99949164  0.39787075  0.68042147  1
  Tc  Tc5  1  0.31907017  0.71744927  0.31957853  1
  Tc  Tc6  1  0.31907017  0.31957853  0.71744927  1
  Tc  Tc7  1  0.99949164  0.68042147  0.39787075  1
  Tc  Tc8  1  0.67697432  0.00000000  0.39670494  1
  Tc  Tc9  1  0.60162090  0.60212925  0.28255073  1
  Tc  Tc10  1  0.28026938  0.60329506  0.60329506  1
  Tc  Tc11  1  0.60162090  0.28255073  0.60212925  1
  Tc  Tc12  1  0.37608736  0.19329391  0.00000000  1
  Tc  Tc13  1  0.18279445  0.80670609  0.80670609  1
  Tc  Tc14  1  0.37608736  1.00000000  0.19329391  1
  Sn  Sn0  1  0.00281080  1.00000000  0.00000000  1
loop_
_geom_bond_atom_site_label_1
_geom_bond_atom_site_label_2
_geom_bond_distance
_geom_bond_site_symmetry_2
Re0 Tc12 2.448334 1_556
Re0 Tc0 2.512259 1_555
Re0 Re1 2.651728 1_456
Re0 Re2 2.651728 1_455
Re0 Tc5 2.714681 1_556
Re0 Tc4 2.714681 1_455
Re0 Tc6 2.805652 1_555
Re0 Tc9 2.805652 1_556
Re0 Ti2 2.958730 1_455
Re0 Ti3 2.958731 1_556
Re0 Sn0 3.007126 1_546
Re0 Ti1 3.058709 1_455
Re1 Re4 2.484521 1_555
Re1 Tc7 2.520398 1_555
Re1 Re2 2.634863 1_554
Re1 Tc5 2.698994 1_655
Re1 Tc3 2.712448 1_555
Re1 Tc1 2.821665 1_555
Re1 Tc10 2.837256 1_655
Re1 Ti0 2.952184 1_554
Re1 Ti3 2.953502 1_655
Re1 Sn0 3.019033 1_645
Re1 Ti1 3.038165 1_554
Re2 Re8 2.484534 1_545
Re2 Tc11 2.520392 1_555
Re2 Tc4 2.698989 1_555
Re2 Tc3 2.712443 1_556
Re2 Tc2 2.821665 1_555
Re2 Tc8 2.837256 1_555
Re2 Ti0 2.952188 1_555
Re2 Ti2 2.953506 1_555
Re2 Sn0 3.019041 1_646
Re2 Ti1 3.038158 1_555
Re3 Re6 2.484535 1_554
Re3 Tc9 2.520392 1_555
Re3 Re4 2.634863 1_565
Re3 Re5 2.651728 1_665
Re3 Tc7 2.698990 1_555
Re3 Tc8 2.712443 1_565
Re3 Tc0 2.821665 1_554
Re3 Tc3 2.837256 1_555
Re3 Ti0 2.952189 1_564
Re3 Ti1 2.953506 1_554
Re3 Sn0 3.019040 1_655
Re3 Ti2 3.038158 1_565
Re4 Tc4 2.520398 1_555
Re4 Re5 2.651728 1_655
Re4 Tc6 2.698995 1_655
Re4 Tc8 2.712447 1_555
Re4 Tc1 2.821665 1_555
Re4 Tc10 2.837255 1_655
Re4 Ti0 2.952184 1_554
Re4 Ti3 2.953501 1_655
Re4 Sn0 3.019034 1_645
Re4 Ti2 3.038165 1_555
Re5 Tc14 2.448334 1_545
Re5 Tc2 2.512260 1_555
Re5 Tc7 2.714681 1_445
Re5 Tc6 2.714681 1_555
Re5 Tc11 2.805652 1_555
Re5 Tc5 2.805652 1_545
Re5 Ti3 2.958730 1_555
Re5 Ti1 2.958730 1_444
Re5 Sn0 3.007127 1_545
Re5 Ti2 3.058709 1_455
Re6 Tc6 2.520401 1_555
Re6 Re8 2.634850 1_555
Re6 Re7 2.651714 1_555
Re6 Tc11 2.698992 1_555
Re6 Tc10 2.712445 1_555
Re6 Tc0 2.821671 1_555
Re6 Tc3 2.837262 1_556
Re6 Ti0 2.952185 1_565
Re6 Ti1 2.953503 1_555
Re6 Sn0 3.019032 1_656
Re6 Ti3 3.038159 1_555
Re7 Tc13 2.448347 1_655
Re7 Tc1 2.512262 1_555
Re7 Re8 2.651714 1_555
Re7 Tc11 2.714678 1_555
Re7 Tc9 2.714679 1_555
Re7 Tc7 2.805658 1_555
Re7 Tc4 2.805658 1_555
Re7 Ti2 2.958731 1_565
Re7 Ti1 2.958732 1_555
Re7 Sn0 3.007125 1_656
Re7 Ti3 3.058702 1_555
Re8 Tc5 2.520402 1_555
Re8 Tc9 2.698992 1_555
Re8 Tc10 2.712445 1_555
Re8 Tc2 2.821671 1_565
Re8 Tc8 2.837261 1_565
Re8 Ti0 2.952185 1_565
Re8 Ti2 2.953503 1_565
Re8 Sn0 3.019032 1_656
Re8 Ti3 3.038159 1_555
Tc0 Tc13 2.707271 1_555
Tc0 Tc14 2.707275 1_556
Tc0 Ti0 2.716826 1_565
Tc0 Tc6 2.805771 1_555
Tc0 Tc9 2.805771 1_556
Tc0 Tc8 2.873539 1_566
Tc0 Tc10 2.873539 1_555
Tc0 Tc5 2.881002 1_556
Tc0 Tc4 2.881002 1_455
Tc0 Ti1 3.181397 1_455
Tc1 Tc14 2.707275 1_545
Tc1 Tc12 2.707276 1_555
Tc1 Ti0 2.716827 1_554
Tc1 Tc7 2.805771 1_555
Tc1 Tc4 2.805771 1_555
Tc1 Tc8 2.873539 1_555
Tc1 Tc3 2.873539 1_555
Tc1 Tc11 2.881002 1_555
Tc1 Tc9 2.881002 1_555
Tc1 Ti3 3.181397 1_555
Tc2 Ti0 2.716827 1_555
Tc2 Tc5 2.805771 1_545
Tc2 Tc3 2.873539 1_556
Tc2 Tc6 2.881002 1_555
Tc2 Tc7 2.881002 1_445
Tc2 Ti2 3.181397 1_455
Tc3 Ti1 2.724775 1_554
Tc3 Tc9 2.793033 1_555
Tc3 Tc6 2.793033 1_554
Tc3 Tc7 2.888886 1_555
Tc3 Ti0 3.189058 1_554
Tc4 Ti1 2.705252 1_555
Tc4 Tc6 2.870431 1_655
Tc4 Tc8 2.888886 1_555
Tc4 Ti2 3.186776 1_555
Tc5 Ti1 2.705252 1_454
Tc5 Tc8 2.793033 1_565
Tc5 Tc7 2.870431 1_455
Tc5 Tc9 2.870431 1_555
Tc5 Ti3 3.186776 1_555
Tc6 Ti2 2.705252 1_455
Tc6 Ti3 3.186776 1_555
Tc7 Ti2 2.705252 1_565
Tc7 Tc9 2.870431 1_555
Tc7 Ti1 3.186776 1_554
Tc8 Ti2 2.724776 1_555
Tc8 Tc9 2.888886 1_545
Tc8 Ti0 3.189059 1_554
Tc9 Ti3 2.705252 1_555
Tc9 Ti2 3.186776 1_565
Tc10 Tc13 2.500971 1_555
Tc10 Ti3 2.724776 1_555
Tc10 Tc4 2.793033 1_455
Tc10 Tc7 2.793033 1_455
Tc10 Tc2 2.873539 1_565
Tc10 Tc6 2.888886 1_555
Tc10 Tc5 2.888886 1_555
Tc10 Ti0 3.189059 1_565
Tc11 Ti3 2.705252 1_555
Tc11 Tc8 2.793033 1_555
Tc11 Tc2 2.805771 1_555
Tc11 Tc14 2.840110 1_545
Tc11 Tc6 2.870431 1_555
Tc11 Tc4 2.870431 1_555
Tc11 Tc3 2.888886 1_556
Tc11 Ti1 3.186776 1_555
Tc12 Tc3 2.500977 1_555
Tc12 Tc13 2.622194 1_544
Tc12 Tc14 2.622194 1_545
Tc12 Tc2 2.707275 1_554
Tc12 Tc9 2.840110 1_555
Tc12 Tc6 2.840110 1_554
Tc12 Ti3 2.959926 1_555
Tc12 Ti2 2.959926 1_454
Tc12 Ti0 3.048726 1_554
Tc13 Tc14 2.622195 1_556
Tc13 Tc2 2.707270 1_565
Tc13 Tc4 2.840110 1_455
Tc13 Tc7 2.840110 1_455
Tc13 Ti1 2.959930 1_455
Tc13 Ti2 2.959930 1_465
Tc13 Ti0 3.048719 1_565
Tc14 Tc8 2.500977 1_565
Tc14 Tc5 2.840110 1_555
Tc14 Ti1 2.959925 1_454
Tc14 Ti3 2.959925 1_565
Tc14 Ti0 3.048726 1_564
Sn0 Tc12 2.969434 1_565
Sn0 Tc14 2.969435 1_555
Sn0 Tc13 2.969442 1_554
Sn0 Ti1 3.070098 1_454
Sn0 Ti2 3.070098 1_464
Sn0 Ti3 3.070098 1_565
Sn0 Ti0 3.070404 1_464
