# generated using pymatgen
data_UGeTe
_symmetry_space_group_name_H-M   'P 1'
_cell_length_a   9.23139522
_cell_length_b   9.23139522
_cell_length_c   9.23139522
_cell_angle_alpha   154.26676400
_cell_angle_beta   154.26676400
_cell_angle_gamma   36.71198396
_symmetry_Int_Tables_number   1
_chemical_formula_structural   UGeTe
_chemical_formula_sum   'U2 Ge2 Te2'
_cell_volume   148.09935086
_cell_formula_units_Z   2
loop_
 _symmetry_equiv_pos_site_id
 _symmetry_equiv_pos_as_xyz
  1  'x, y, z'
loop_
 _atom_site_type_symbol
 _atom_site_label
 _atom_site_symmetry_multiplicity
 _atom_site_fract_x
 _atom_site_fract_y
 _atom_site_fract_z
 _atom_site_occupancy
  U  U0  1  0.87740300  0.87740300  0.00000000  1
  U  U1  1  0.12259700  0.12259700  0.00000000  1
  Ge  Ge0  1  0.50000000  0.00000000  0.50000000  1
  Ge  Ge1  1  0.00000000  0.50000000  0.50000000  1
  Te  Te0  1  0.31526100  0.31526100  0.00000000  1
  Te  Te1  1  0.68473900  0.68473900  0.00000000  1
loop_
_geom_bond_atom_site_label_1
_geom_bond_atom_site_label_2
_geom_bond_distance
_geom_bond_site_symmetry_2
Ge0 Ge1 2.907152 1_544
Ge0 Ge1 2.907152 1_645
Ge0 Ge1 2.907152 1_555
Ge0 Ge1 2.907152 1_656
Ge0 U1 2.973384 1_555
Ge0 U1 2.973384 1_656
Ge0 U0 2.973384 1_546
Ge0 U0 2.973384 1_445
Ge1 U1 2.973384 1_555
Ge1 U1 2.973384 1_566
Ge1 U0 2.973384 1_445
Ge1 U0 2.973384 1_456
Te0 U0 3.104403 1_455
Te0 U0 3.104403 1_545
Te0 U0 3.104403 1_444
Te0 U0 3.104403 1_556
Te0 U1 3.376123 1_555
Te1 U1 3.104403 1_666
Te1 U1 3.104403 1_554
Te1 U1 3.104403 1_565
Te1 U1 3.104403 1_655
Te1 U0 3.376123 1_555
