# generated using pymatgen
data_Ca2Zn3AgAu8
_symmetry_space_group_name_H-M   'P 1'
_cell_length_a   5.65207410
_cell_length_b   5.65207420
_cell_length_c   9.84414251
_cell_angle_alpha   90.00000000
_cell_angle_beta   90.00000000
_cell_angle_gamma   123.90763160
_symmetry_Int_Tables_number   1
_chemical_formula_structural   Ca2Zn3AgAu8
_chemical_formula_sum   'Ca2 Zn3 Ag1 Au8'
_cell_volume   260.99923651
_cell_formula_units_Z   1
loop_
 _symmetry_equiv_pos_site_id
 _symmetry_equiv_pos_as_xyz
  1  'x, y, z'
loop_
 _atom_site_type_symbol
 _atom_site_label
 _atom_site_symmetry_multiplicity
 _atom_site_fract_x
 _atom_site_fract_y
 _atom_site_fract_z
 _atom_site_occupancy
  Ca  Ca0  1  0.00000000  0.50000000  0.75576112  1
  Ca  Ca1  1  0.50000000  0.00000000  0.24423888  1
  Zn  Zn0  1  0.00000000  0.00000000  0.50000000  1
  Zn  Zn1  1  0.00000000  0.00000000  0.00000000  1
  Zn  Zn2  1  0.50000000  0.50000000  0.50000000  1
  Ag  Ag0  1  0.50000000  0.50000000  0.00000000  1
  Au  Au0  1  0.00000000  0.50000000  0.05774954  1
  Au  Au1  1  0.50000000  0.00000000  0.54417306  1
  Au  Au2  1  0.50000000  0.00000000  0.94225046  1
  Au  Au3  1  0.00000000  0.50000000  0.45582694  1
  Au  Au4  1  0.70343370  0.80132735  0.74267318  1
  Au  Au5  1  0.19867265  0.29656630  0.25732682  1
  Au  Au6  1  0.80132735  0.70343370  0.25732682  1
  Au  Au7  1  0.29656630  0.19867265  0.74267318  1
loop_
_geom_bond_atom_site_label_1
_geom_bond_atom_site_label_2
_geom_bond_distance
_geom_bond_site_symmetry_2
Zn0 Zn2 2.657510 1_555
Zn0 Zn2 2.657510 1_445
Ag0 Zn1 2.657510 1_555
Ag0 Zn1 2.657510 1_665
Ag0 Au0 2.882650 1_655
Ag0 Au0 2.882650 1_555
Ag0 Au2 2.882650 1_554
Ag0 Au2 2.882650 1_564
Ag0 Au6 2.907705 1_555
Ag0 Au5 2.907705 1_555
Ag0 Au4 2.907705 1_554
Ag0 Au7 2.907705 1_554
Au0 Au6 2.807756 1_455
Au0 Au5 2.807756 1_555
Au0 Zn1 2.882650 1_565
Au0 Zn1 2.882650 1_555
Au0 Au2 2.890520 1_564
Au0 Au2 2.890520 1_454
Au0 Ca0 2.972817 1_554
Au0 Ca1 3.229957 1_455
Au0 Ca1 3.229957 1_565
Au1 Au3 2.796198 1_545
Au1 Au3 2.796198 1_655
Au1 Au7 2.800346 1_555
Au1 Au4 2.800346 1_545
Au1 Zn0 2.859296 1_555
Au1 Zn0 2.859296 1_655
Au1 Zn2 2.859297 1_545
Au1 Zn2 2.859297 1_555
Au1 Ca1 2.952595 1_555
Au1 Ca0 3.376514 1_545
Au1 Ca0 3.376514 1_655
Au2 Au4 2.807756 1_545
Au2 Au7 2.807756 1_555
Au2 Zn1 2.882650 1_656
Au2 Zn1 2.882650 1_556
Au2 Ca1 2.972817 1_556
Au2 Ca0 3.229957 1_545
Au2 Ca0 3.229957 1_655
Au3 Au5 2.800346 1_555
Au3 Au6 2.800346 1_455
Au3 Zn2 2.859296 1_455
Au3 Zn2 2.859296 1_555
Au3 Zn0 2.859297 1_565
Au3 Zn0 2.859297 1_555
Au3 Ca0 2.952595 1_555
Au3 Ca1 3.376514 1_455
Au3 Ca1 3.376514 1_565
Au4 Zn0 2.770826 1_665
Au4 Zn2 2.782935 1_555
Au4 Au7 2.807553 1_665
Au4 Au7 2.855057 1_555
Au4 Zn1 2.896118 1_666
Au4 Ca0 2.985308 1_655
Au4 Ca0 3.321940 1_665
Au4 Ca0 3.342122 1_555
Au5 Zn0 2.770826 1_555
Au5 Zn2 2.782935 1_555
Au5 Au6 2.807553 1_445
Au5 Au6 2.855057 1_555
Au5 Zn1 2.896118 1_555
Au5 Ca1 2.985308 1_555
Au5 Ca1 3.321940 1_455
Au5 Ca1 3.342122 1_565
Au6 Zn0 2.770826 1_665
Au6 Zn2 2.782935 1_555
Au6 Zn1 2.896118 1_665
Au6 Ca1 2.985308 1_565
Au6 Ca1 3.321940 1_665
Au6 Ca1 3.342122 1_555
Au7 Zn0 2.770826 1_555
Au7 Zn2 2.782935 1_555
Au7 Zn1 2.896118 1_556
Au7 Ca0 2.985308 1_555
Au7 Ca0 3.321940 1_545
Au7 Ca0 3.342122 1_655
