# generated using pymatgen
data_Li3LuAs6Ir7
_symmetry_space_group_name_H-M   'P 1'
_cell_length_a   6.90776393
_cell_length_b   7.02059699
_cell_length_c   7.02059523
_cell_angle_alpha   109.79448360
_cell_angle_beta   109.14597823
_cell_angle_gamma   109.14599060
_symmetry_Int_Tables_number   1
_chemical_formula_structural   Li3LuAs6Ir7
_chemical_formula_sum   'Li3 Lu1 As6 Ir7'
_cell_volume   263.14254940
_cell_formula_units_Z   1
loop_
 _symmetry_equiv_pos_site_id
 _symmetry_equiv_pos_as_xyz
  1  'x, y, z'
loop_
 _atom_site_type_symbol
 _atom_site_label
 _atom_site_symmetry_multiplicity
 _atom_site_fract_x
 _atom_site_fract_y
 _atom_site_fract_z
 _atom_site_occupancy
  Li  Li0  1  0.00000000  0.00000000  0.50000000  1
  Li  Li1  1  0.00000000  0.50000000  0.00000000  1
  Li  Li2  1  0.50000000  0.50000000  0.50000000  1
  Lu  Lu0  1  0.50000000  0.00000000  0.00000000  1
  As  As0  1  0.69377073  0.68026637  0.00000000  1
  As  As1  1  0.30622927  0.31973363  1.00000000  1
  As  As2  1  0.98649664  0.68026637  0.68026637  1
  As  As3  1  0.01350336  0.31973363  0.31973363  1
  As  As4  1  0.69377073  1.00000000  0.68026637  1
  As  As5  1  0.30622927  0.00000000  0.31973363  1
  Ir  Ir0  1  0.00000000  0.00000000  0.00000000  1
  Ir  Ir1  1  0.24950978  0.49901856  0.74950978  1
  Ir  Ir2  1  0.75049022  0.25049022  0.50098144  1
  Ir  Ir3  1  0.50000000  0.25049022  0.74950978  1
  Ir  Ir4  1  0.50000000  0.74950978  0.25049022  1
  Ir  Ir5  1  0.75049022  0.50098144  0.25049022  1
  Ir  Ir6  1  0.24950978  0.74950978  0.49901856  1
loop_
_geom_bond_atom_site_label_1
_geom_bond_atom_site_label_2
_geom_bond_distance
_geom_bond_site_symmetry_2
As0 Ir5 2.490215 1_555
As0 Ir3 2.490221 1_554
As0 Ir0 2.529585 1_665
As0 Ir1 2.551952 1_554
As0 Ir4 2.551953 1_555
As0 Li1 2.798663 1_655
As0 Li2 2.917764 1_554
As0 Li0 2.917765 1_665
As0 Lu0 2.966698 1_565
As1 Ir1 2.490215 1_555
As1 Ir4 2.490221 1_556
As1 Ir0 2.529585 1_556
As1 Ir5 2.551952 1_556
As1 Ir3 2.551953 1_555
As1 Li1 2.798663 1_556
As1 Li2 2.917764 1_556
As1 Li0 2.917765 1_555
As1 Lu0 2.966698 1_556
As2 Ir5 2.490222 1_555
As2 Ir2 2.490222 1_555
As2 Ir0 2.529589 1_666
As2 Ir6 2.551953 1_655
As2 Ir1 2.551953 1_655
As2 Li2 2.798669 1_555
As2 Li1 2.917765 1_656
As2 Li0 2.917765 1_665
As2 Lu0 2.966693 1_666
As3 Ir1 2.490222 1_555
As3 Ir6 2.490222 1_555
As3 Ir0 2.529589 1_555
As3 Ir2 2.551953 1_455
As3 Ir5 2.551953 1_455
As3 Li2 2.798669 1_555
As3 Li1 2.917765 1_555
As3 Li0 2.917765 1_555
As3 Lu0 2.966693 1_455
As4 Ir2 2.490215 1_565
As4 Ir4 2.490220 1_555
As4 Ir0 2.529585 1_666
As4 Ir6 2.551952 1_555
As4 Ir3 2.551953 1_565
As4 Li0 2.798663 1_665
As4 Li1 2.917765 1_666
As4 Li2 2.917765 1_555
As4 Lu0 2.966697 1_566
As5 Ir6 2.490215 1_545
As5 Ir3 2.490220 1_555
As5 Ir0 2.529585 1_555
As5 Ir2 2.551952 1_555
As5 Ir4 2.551953 1_545
As5 Li0 2.798663 1_555
As5 Li1 2.917765 1_545
As5 Li2 2.917765 1_555
As5 Lu0 2.966697 1_555
Ir1 Li1 2.837450 1_556
Ir1 Li2 2.837450 1_555
Ir1 Li0 2.866216 1_555
Ir1 Lu0 2.877490 1_566
Ir2 Li0 2.837450 1_655
Ir2 Li2 2.837450 1_555
Ir2 Li1 2.866215 1_656
Ir2 Lu0 2.877489 1_555
Ir3 Li0 2.837450 1_555
Ir3 Li1 2.837450 1_656
Ir3 Li2 2.866221 1_555
Ir3 Lu0 2.877484 1_556
Ir4 Li0 2.837450 1_665
Ir4 Li1 2.837450 1_555
Ir4 Li2 2.866221 1_555
Ir4 Lu0 2.877484 1_565
Ir5 Li1 2.837450 1_655
Ir5 Li2 2.837450 1_555
Ir5 Li0 2.866216 1_665
Ir5 Lu0 2.877490 1_555
Ir6 Li0 2.837450 1_565
Ir6 Li2 2.837450 1_555
Ir6 Li1 2.866215 1_555
Ir6 Lu0 2.877489 1_566
