# generated using pymatgen
data_Cs2Zn3Se4
_symmetry_space_group_name_H-M   'P 1'
_cell_length_a   9.85360614
_cell_length_b   9.85360650
_cell_length_c   9.85360607
_cell_angle_alpha   144.15365624
_cell_angle_beta   105.94179790
_cell_angle_gamma   85.10953250
_symmetry_Int_Tables_number   1
_chemical_formula_structural   Cs2Zn3Se4
_chemical_formula_sum   'Cs4 Zn6 Se8'
_cell_volume   522.44106856
_cell_formula_units_Z   2
loop_
 _symmetry_equiv_pos_site_id
 _symmetry_equiv_pos_as_xyz
  1  'x, y, z'
loop_
 _atom_site_type_symbol
 _atom_site_label
 _atom_site_symmetry_multiplicity
 _atom_site_fract_x
 _atom_site_fract_y
 _atom_site_fract_z
 _atom_site_occupancy
  Cs  Cs0  1  0.87899983  0.76679197  0.64579180  1
  Cs  Cs1  1  0.62100017  0.26679197  0.88779314  1
  Cs  Cs2  1  0.37899983  0.73320803  0.11220686  1
  Cs  Cs3  1  0.12100017  0.23320803  0.35420820  1
  Zn  Zn0  1  0.25000000  0.75000000  0.50000000  1
  Zn  Zn1  1  0.75000000  0.25000000  0.50000000  1
  Zn  Zn2  1  0.02285437  0.25000000  0.77285437  1
  Zn  Zn3  1  0.47714563  0.25000000  0.22714563  1
  Zn  Zn4  1  0.97714563  0.75000000  0.22714563  1
  Zn  Zn5  1  0.52285437  0.75000000  0.77285437  1
  Se  Se0  1  0.78762298  0.93334337  0.41144864  1
  Se  Se1  1  0.71237702  0.12382565  0.14572138  1
  Se  Se2  1  0.97810427  0.56665663  0.85427862  1
  Se  Se3  1  0.52189573  0.37617435  0.58855136  1
  Se  Se4  1  0.21237702  0.06665663  0.58855136  1
  Se  Se5  1  0.28762298  0.87617435  0.85427862  1
  Se  Se6  1  0.02189573  0.43334337  0.14572138  1
  Se  Se7  1  0.47810427  0.62382565  0.41144864  1
loop_
_geom_bond_atom_site_label_1
_geom_bond_atom_site_label_2
_geom_bond_distance
_geom_bond_site_symmetry_2
Cs0 Se0 3.685868 1_555
Cs0 Se7 3.685877 1_555
Cs0 Se6 3.719375 1_655
Cs0 Se1 3.719377 1_555
Cs0 Se2 3.768350 1_555
Cs0 Se5 3.768359 1_655
Cs0 Se6 3.834219 1_666
Cs0 Se1 3.834225 1_566
Cs1 Se1 3.685868 1_556
Cs1 Se6 3.685877 1_656
Cs1 Se7 3.719375 1_545
Cs1 Se0 3.719382 1_545
Cs1 Se4 3.768360 1_555
Cs1 Se3 3.768369 1_555
Cs1 Se7 3.834219 1_556
Cs1 Se0 3.834221 1_556
Cs2 Se5 3.685868 1_554
Cs2 Se2 3.685877 1_454
Cs2 Se3 3.719375 1_565
Cs2 Se4 3.719382 1_565
Cs2 Se0 3.768360 1_555
Cs2 Se7 3.768369 1_555
Cs2 Se3 3.834219 1_554
Cs2 Se4 3.834221 1_554
Cs3 Se4 3.685868 1_555
Cs3 Se3 3.685877 1_555
Cs3 Se2 3.719375 1_455
Cs3 Se5 3.719377 1_555
Cs3 Se6 3.768350 1_555
Cs3 Se1 3.768359 1_455
Cs3 Se2 3.834219 1_444
Cs3 Se5 3.834225 1_544
Se0 Zn4 2.453199 1_555
Se0 Zn1 2.490226 1_565
Se0 Zn2 2.544621 1_665
Se1 Zn5 2.453199 1_544
Se1 Zn1 2.490216 1_555
Se1 Zn3 2.544619 1_555
Se2 Zn4 2.453204 1_556
Se2 Zn1 2.490218 1_555
Se2 Zn2 2.544629 1_655
Se3 Zn5 2.453199 1_555
Se3 Zn1 2.490216 1_555
Se3 Zn3 2.544619 1_555
Se4 Zn2 2.453199 1_555
Se4 Zn0 2.490226 1_545
Se4 Zn4 2.544621 1_445
Se5 Zn3 2.453199 1_566
Se5 Zn0 2.490216 1_555
Se5 Zn5 2.544619 1_555
Se6 Zn2 2.453204 1_554
Se6 Zn0 2.490218 1_555
Se6 Zn4 2.544629 1_455
Se7 Zn3 2.453199 1_555
Se7 Zn0 2.490216 1_555
Se7 Zn5 2.544619 1_555
