# generated using pymatgen
data_Li2Sc2As6Ir7
_symmetry_space_group_name_H-M   'P 1'
_cell_length_a   7.04331879
_cell_length_b   7.04331989
_cell_length_c   6.98111002
_cell_angle_alpha   109.35762691
_cell_angle_beta   109.35763379
_cell_angle_gamma   110.05538199
_symmetry_Int_Tables_number   1
_chemical_formula_structural   Li2Sc2As6Ir7
_chemical_formula_sum   'Li2 Sc2 As6 Ir7'
_cell_volume   265.40741204
_cell_formula_units_Z   1
loop_
 _symmetry_equiv_pos_site_id
 _symmetry_equiv_pos_as_xyz
  1  'x, y, z'
loop_
 _atom_site_type_symbol
 _atom_site_label
 _atom_site_symmetry_multiplicity
 _atom_site_fract_x
 _atom_site_fract_y
 _atom_site_fract_z
 _atom_site_occupancy
  Li  Li0  1  0.50000000  0.00000000  0.00000000  1
  Li  Li1  1  0.00000000  0.50000000  0.00000000  1
  Sc  Sc0  1  0.00000000  0.00000000  0.50000000  1
  Sc  Sc1  1  0.50000000  0.50000000  0.50000000  1
  As  As0  1  0.68628690  0.68628690  1.00000000  1
  As  As1  1  0.31371310  0.31371310  0.00000000  1
  As  As2  1  0.01180615  0.68600791  0.69781505  1
  As  As3  1  0.98819385  0.31399209  0.30218495  1
  As  As4  1  0.68600791  0.01180615  0.69781505  1
  As  As5  1  0.31399209  0.98819385  0.30218495  1
  Ir  Ir0  1  0.00000000  0.00000000  0.00000000  1
  Ir  Ir1  1  0.25004915  0.49507953  0.74512868  1
  Ir  Ir2  1  0.75000000  0.25000000  0.50000000  1
  Ir  Ir3  1  0.49507953  0.25004915  0.74512868  1
  Ir  Ir4  1  0.50492047  0.74995085  0.25487132  1
  Ir  Ir5  1  0.74995085  0.50492047  0.25487132  1
  Ir  Ir6  1  0.25000000  0.75000000  0.50000000  1
loop_
_geom_bond_atom_site_label_1
_geom_bond_atom_site_label_2
_geom_bond_distance
_geom_bond_site_symmetry_2
As0 Ir1 2.523775 1_555
As0 Ir4 2.523776 1_556
As0 Ir5 2.523776 1_556
As0 Ir3 2.523776 1_555
As0 Ir0 2.532978 1_666
As0 Sc0 2.893801 1_666
As0 Sc1 2.893801 1_555
As0 Li1 2.931245 1_656
As0 Li0 2.931245 1_566
As1 Ir5 2.523775 1_555
As1 Ir3 2.523776 1_554
As1 Ir1 2.523776 1_554
As1 Ir4 2.523776 1_555
As1 Ir0 2.532978 1_555
As1 Sc0 2.893801 1_554
As1 Sc1 2.893801 1_555
As1 Li1 2.931245 1_555
As1 Li0 2.931245 1_555
As2 Ir1 2.491578 1_555
As2 Ir2 2.520847 1_455
As2 Ir6 2.520854 1_555
As2 Ir0 2.549074 1_566
As2 Ir5 2.565455 1_455
As2 Li1 2.836800 1_556
As2 Li0 2.836805 1_566
As2 Sc1 2.979853 1_455
As2 Sc0 2.979859 1_565
As3 Ir5 2.491578 1_555
As3 Ir6 2.520847 1_655
As3 Ir2 2.520854 1_555
As3 Ir0 2.549074 1_655
As3 Ir1 2.565455 1_655
As3 Li1 2.836800 1_655
As3 Li0 2.836805 1_555
As3 Sc1 2.979853 1_655
As3 Sc0 2.979859 1_655
As4 Ir3 2.491578 1_555
As4 Ir6 2.520847 1_545
As4 Ir2 2.520854 1_555
As4 Ir0 2.549073 1_656
As4 Ir4 2.565455 1_545
As4 Li0 2.836800 1_556
As4 Li1 2.836806 1_656
As4 Sc1 2.979854 1_545
As4 Sc0 2.979859 1_655
As5 Ir4 2.491578 1_555
As5 Ir2 2.520847 1_565
As5 Ir6 2.520854 1_555
As5 Ir0 2.549073 1_565
As5 Ir3 2.565455 1_565
As5 Li0 2.836800 1_565
As5 Li1 2.836806 1_555
As5 Sc1 2.979854 1_565
As5 Sc0 2.979859 1_565
Ir1 Sc1 2.832595 1_555
Ir1 Sc0 2.832595 1_555
Ir1 Li1 2.889143 1_556
Ir1 Li0 2.889143 1_566
Ir2 Li1 2.847708 1_656
Ir2 Li0 2.847708 1_555
Ir2 Sc0 2.885751 1_655
Ir2 Sc1 2.885751 1_555
Ir3 Sc0 2.832595 1_555
Ir3 Sc1 2.832595 1_555
Ir3 Li1 2.889143 1_656
Ir3 Li0 2.889144 1_556
Ir4 Sc0 2.832595 1_665
Ir4 Sc1 2.832595 1_555
Ir4 Li1 2.889143 1_555
Ir4 Li0 2.889144 1_565
Ir5 Sc1 2.832595 1_555
Ir5 Sc0 2.832595 1_665
Ir5 Li1 2.889143 1_655
Ir5 Li0 2.889143 1_555
Ir6 Li1 2.847708 1_555
Ir6 Li0 2.847708 1_566
Ir6 Sc0 2.885751 1_565
Ir6 Sc1 2.885751 1_555
