# generated using pymatgen
data_Cs4Ba2ZrBi4
_symmetry_space_group_name_H-M   'P 1'
_cell_length_a   11.97947418
_cell_length_b   11.97947578
_cell_length_c   8.82963926
_cell_angle_alpha   87.45344869
_cell_angle_beta   87.45344525
_cell_angle_gamma   119.29181590
_symmetry_Int_Tables_number   1
_chemical_formula_structural   Cs4Ba2ZrBi4
_chemical_formula_sum   'Cs8 Ba4 Zr2 Bi8'
_cell_volume   1100.82722435
_cell_formula_units_Z   2
loop_
 _symmetry_equiv_pos_site_id
 _symmetry_equiv_pos_as_xyz
  1  'x, y, z'
loop_
 _atom_site_type_symbol
 _atom_site_label
 _atom_site_symmetry_multiplicity
 _atom_site_fract_x
 _atom_site_fract_y
 _atom_site_fract_z
 _atom_site_occupancy
  Cs  Cs0  1  0.47999473  0.95090701  0.38963374  1
  Cs  Cs1  1  0.95090701  0.47999473  0.88963374  1
  Cs  Cs2  1  0.86502361  0.71526975  0.14744478  1
  Cs  Cs3  1  0.25772206  0.12008433  0.24379111  1
  Cs  Cs4  1  0.85199140  0.14600175  0.18310024  1
  Cs  Cs5  1  0.12008433  0.25772206  0.74379111  1
  Cs  Cs6  1  0.71526975  0.86502361  0.64744478  1
  Cs  Cs7  1  0.14600175  0.85199140  0.68310024  1
  Ba  Ba0  1  0.07084343  0.53184711  0.40087090  1
  Ba  Ba1  1  0.47810207  0.52560116  0.37773382  1
  Ba  Ba2  1  0.53184711  0.07084343  0.90087090  1
  Ba  Ba3  1  0.52560116  0.47810207  0.87773382  1
  Zr  Zr0  1  0.66489059  0.33853351  0.49396263  1
  Zr  Zr1  1  0.33853351  0.66489059  0.99396263  1
  Bi  Bi0  1  0.63570472  0.32998515  0.16700698  1
  Bi  Bi1  1  0.32998515  0.63570472  0.66700698  1
  Bi  Bi2  1  0.21351729  0.40620147  0.13952059  1
  Bi  Bi3  1  0.60208426  0.79684363  0.07415370  1
  Bi  Bi4  1  0.21496495  0.80369701  0.10044750  1
  Bi  Bi5  1  0.79684363  0.60208426  0.57415370  1
  Bi  Bi6  1  0.40620147  0.21351729  0.63952059  1
  Bi  Bi7  1  0.80369701  0.21496495  0.60044750  1
loop_
_geom_bond_atom_site_label_1
_geom_bond_atom_site_label_2
_geom_bond_distance
_geom_bond_site_symmetry_2
Cs0 Cs4 4.165867 1_565
Cs0 Cs6 4.169371 1_555
Cs0 Zr0 4.220711 1_565
Cs0 Cs3 4.267185 1_565
Cs0 Cs7 4.277100 1_555
Cs1 Cs7 4.165867 1_655
Cs1 Cs2 4.169371 1_556
Cs1 Zr1 4.220710 1_655
Cs1 Cs5 4.267185 1_655
Cs1 Cs4 4.277100 1_556
Cs2 Cs7 4.858465 1_654
Cs2 Cs4 5.260870 1_565
Cs3 Cs7 4.623589 1_545
Cs3 Cs4 5.069590 1_455
Cs4 Cs5 4.623588 1_654
Cs4 Cs6 4.858466 1_545
Cs5 Cs7 5.069590 1_545
Cs6 Cs7 5.260869 1_655
Ba0 Bi2 3.603800 1_555
Ba0 Bi1 3.719645 1_555
Ba0 Bi4 3.734494 1_555
Ba0 Bi7 3.843726 1_455
Ba0 Bi5 4.024115 1_455
Ba0 Cs7 4.404418 1_555
Ba0 Cs1 4.405912 1_455
Ba0 Cs4 4.616884 1_455
Ba0 Cs1 4.772727 1_454
Ba1 Bi2 3.597186 1_555
Ba1 Bi1 3.687631 1_555
Ba1 Bi3 3.754882 1_555
Ba1 Bi5 3.966550 1_555
Ba1 Bi6 3.995766 1_555
Ba2 Bi6 3.603800 1_555
Ba2 Bi0 3.719645 1_556
Ba2 Bi7 3.734494 1_555
Ba2 Bi4 3.843726 1_546
Ba2 Bi3 4.024116 1_546
Ba2 Cs4 4.404418 1_556
Ba2 Cs0 4.405912 1_546
Ba2 Cs7 4.616883 1_545
Ba2 Cs0 4.772727 1_545
Ba3 Bi6 3.597187 1_555
Ba3 Bi0 3.687631 1_556
Ba3 Bi5 3.754881 1_555
Ba3 Bi3 3.966551 1_556
Ba3 Bi2 3.995766 1_556
Bi0 Zr0 2.923671 1_555
Bi0 Cs1 3.953820 1_554
Bi0 Cs3 3.964850 1_555
Bi0 Cs2 4.044683 1_555
Bi0 Cs4 4.145362 1_555
Bi0 Cs0 4.307872 1_545
Bi1 Zr1 2.923671 1_555
Bi1 Cs0 3.953821 1_555
Bi1 Cs5 3.964851 1_555
Bi1 Cs6 4.044682 1_555
Bi1 Cs7 4.145362 1_555
Bi1 Cs1 4.307872 1_455
Bi2 Zr1 2.903773 1_554
Bi2 Cs3 3.796710 1_555
Bi2 Cs4 3.893128 1_455
Bi2 Cs5 3.946818 1_554
Bi2 Cs1 4.325664 1_454
Bi3 Zr1 2.895274 1_554
Bi3 Cs2 3.798993 1_555
Bi3 Cs6 3.858750 1_554
Bi3 Cs4 3.967819 1_565
Bi3 Cs0 4.005109 1_555
Bi4 Zr1 2.874734 1_554
Bi4 Cs2 3.785387 1_455
Bi4 Cs3 3.848870 1_565
Bi4 Cs7 3.891710 1_554
Bi4 Cs0 3.918137 1_555
Bi4 Cs1 4.203576 1_454
Bi5 Zr0 2.895274 1_555
Bi5 Cs6 3.798993 1_555
Bi5 Cs2 3.858750 1_555
Bi5 Cs7 3.967819 1_655
Bi5 Cs1 4.005109 1_555
Bi6 Zr0 2.903773 1_555
Bi6 Cs5 3.796709 1_555
Bi6 Cs7 3.893128 1_545
Bi6 Cs3 3.946818 1_555
Bi6 Cs0 4.325664 1_545
Bi7 Zr0 2.874734 1_555
Bi7 Cs6 3.785388 1_545
Bi7 Cs5 3.848870 1_655
Bi7 Cs4 3.891710 1_555
Bi7 Cs1 3.918137 1_555
Bi7 Cs0 4.203576 1_545
