# generated using pymatgen
data_BaGa2(Pd3O8)2
_symmetry_space_group_name_H-M   'P 1'
_cell_length_a   6.08418535
_cell_length_b   7.24958869
_cell_length_c   7.29310167
_cell_angle_alpha   87.51472644
_cell_angle_beta   77.93168267
_cell_angle_gamma   77.88267018
_symmetry_Int_Tables_number   1
_chemical_formula_structural   BaGa2(Pd3O8)2
_chemical_formula_sum   'Ba1 Ga2 Pd6 O16'
_cell_volume   307.56464692
_cell_formula_units_Z   1
loop_
 _symmetry_equiv_pos_site_id
 _symmetry_equiv_pos_as_xyz
  1  'x, y, z'
loop_
 _atom_site_type_symbol
 _atom_site_label
 _atom_site_symmetry_multiplicity
 _atom_site_fract_x
 _atom_site_fract_y
 _atom_site_fract_z
 _atom_site_occupancy
  Ba  Ba0  1  0.24205488  0.99504290  0.01679944  1
  Ga  Ga0  1  0.07578524  0.18844330  0.49203882  1
  Ga  Ga1  1  0.58076898  0.18506907  0.48013298  1
  Pd  Pd0  1  0.32283436  0.51325248  0.18044658  1
  Pd  Pd1  1  0.82235244  0.51783140  0.18080693  1
  Pd  Pd2  1  0.17311126  0.47848864  0.81647822  1
  Pd  Pd3  1  0.67325753  0.47556493  0.81667932  1
  Pd  Pd4  1  0.41336676  0.81947690  0.51387632  1
  Pd  Pd5  1  0.91216528  0.81930983  0.51813596  1
  O  O0  1  0.39118414  0.04926803  0.35535060  1
  O  O1  1  0.89937922  0.04811282  0.35797181  1
  O  O2  1  0.08231952  0.36834888  0.28246479  1
  O  O3  1  0.57978904  0.38035718  0.29222601  1
  O  O4  1  0.07486153  0.64883228  0.04727989  1
  O  O5  1  0.56996540  0.64874927  0.04807826  1
  O  O6  1  0.27120565  0.28856666  0.61907553  1
  O  O7  1  0.76794290  0.29369614  0.61354191  1
  O  O8  1  0.22342162  0.72286086  0.36308652  1
  O  O9  1  0.72635573  0.72393979  0.36461644  1
  O  O10  1  0.42068973  0.34305943  0.95236653  1
  O  O11  1  0.92427668  0.34441724  0.95245947  1
  O  O12  1  0.41140722  0.62657416  0.72033268  1
  O  O13  1  0.90972197  0.62283449  0.71859413  1
  O  O14  1  0.59418682  0.94996722  0.64679505  1
  O  O15  1  0.10017310  0.94793811  0.65036583  1
loop_
_geom_bond_atom_site_label_1
_geom_bond_atom_site_label_2
_geom_bond_distance
_geom_bond_site_symmetry_2
Ba0 O0 2.871391 1_565
Ba0 O1 2.874546 1_465
Ba0 O4 2.883165 1_555
Ba0 O5 2.893574 1_555
Ba0 O11 2.931530 1_464
Ba0 O10 2.932967 1_564
Ba0 O15 3.028412 1_554
Ba0 O14 3.056741 1_554
Ga0 O7 1.907907 1_455
Ga0 O6 1.918380 1_555
Ga0 O2 1.965260 1_555
Ga0 O1 2.031365 1_455
Ga0 O0 2.041714 1_555
Ga0 O15 2.045429 1_545
Ga1 O3 1.927195 1_555
Ga1 O7 1.941640 1_555
Ga1 O6 1.952364 1_555
Ga1 O1 2.020839 1_555
Ga1 O0 2.030105 1_555
Ga1 O14 2.047542 1_545
O0 Pd4 1.983406 1_545
O1 Pd5 1.984354 1_545
O2 Pd0 1.980096 1_555
O2 Pd1 1.981630 1_455
O3 Pd0 1.967068 1_555
O3 Pd1 1.969103 1_555
O4 Pd0 2.023087 1_555
O4 Pd1 2.029104 1_455
O4 Pd2 2.040915 1_554
O5 Pd0 2.022007 1_555
O5 Pd1 2.031211 1_555
O5 Pd3 2.056289 1_554
O6 Pd2 1.947365 1_555
O7 Pd3 1.938745 1_555
O8 Pd0 1.975343 1_555
O8 Pd5 1.992752 1_455
O8 Pd4 1.993394 1_555
O9 Pd1 1.962331 1_555
O9 Pd5 1.983480 1_555
O9 Pd4 1.983893 1_555
O10 Pd0 2.024651 1_556
O10 Pd2 2.033239 1_555
O10 Pd3 2.040786 1_555
O11 Pd2 2.031415 1_655
O11 Pd3 2.039164 1_555
O11 Pd1 2.039832 1_556
O12 Pd3 1.974717 1_555
O12 Pd2 1.977195 1_555
O12 Pd4 2.009945 1_555
O13 Pd3 1.967155 1_555
O13 Pd2 1.970347 1_655
O13 Pd5 1.996391 1_555
O14 Pd4 2.001839 1_555
O14 Pd5 2.017213 1_555
O15 Pd4 2.007841 1_555
O15 Pd5 2.023633 1_455
