# generated using pymatgen
data_SrTa8PbO22
_symmetry_space_group_name_H-M   'P 1'
_cell_length_a   6.27493919
_cell_length_b   6.27493961
_cell_length_c   12.40007957
_cell_angle_alpha   90.00000000
_cell_angle_beta   90.00000000
_cell_angle_gamma   120.00000296
_symmetry_Int_Tables_number   1
_chemical_formula_structural   SrTa8PbO22
_chemical_formula_sum   'Sr1 Ta8 Pb1 O22'
_cell_volume   422.83814862
_cell_formula_units_Z   1
loop_
 _symmetry_equiv_pos_site_id
 _symmetry_equiv_pos_as_xyz
  1  'x, y, z'
loop_
 _atom_site_type_symbol
 _atom_site_label
 _atom_site_symmetry_multiplicity
 _atom_site_fract_x
 _atom_site_fract_y
 _atom_site_fract_z
 _atom_site_occupancy
  Sr  Sr0  1  0.33333300  0.66666700  0.75000000  1
  Ta  Ta0  1  0.33333300  0.66666700  0.25000000  1
  Ta  Ta1  1  0.66666700  0.33333300  0.75000000  1
  Ta  Ta2  1  0.35635573  0.99992437  0.99933578  1
  Ta  Ta3  1  0.35635573  0.35643236  0.50066422  1
  Ta  Ta4  1  0.00007563  0.64364427  0.50066422  1
  Ta  Ta5  1  0.00007563  0.35643236  0.99933578  1
  Ta  Ta6  1  0.64356764  0.64364427  0.99933578  1
  Ta  Ta7  1  0.64356764  0.99992437  0.50066422  1
  Pb  Pb0  1  0.66666700  0.33333300  0.25000000  1
  O  O0  1  0.33333300  0.66666700  0.53465540  1
  O  O1  1  0.66666700  0.33333300  0.03204574  1
  O  O2  1  0.66666700  0.33333300  0.46795426  1
  O  O3  1  0.33333300  0.66666700  0.96534460  1
  O  O4  1  0.75497179  0.99992994  0.99946272  1
  O  O5  1  0.75497179  0.75504185  0.50053728  1
  O  O6  1  0.00007006  0.24502821  0.50053728  1
  O  O7  1  0.00007006  0.75504185  0.99946272  1
  O  O8  1  0.24495815  0.24502821  0.99946272  1
  O  O9  1  0.24495815  0.99992994  0.50053728  1
  O  O10  1  0.37143071  0.43491400  0.34647418  1
  O  O11  1  0.93770069  0.37148774  0.84542623  1
  O  O12  1  0.43378705  0.06229931  0.84542623  1
  O  O13  1  0.56508600  0.93651571  0.34647418  1
  O  O14  1  0.06348429  0.62856929  0.34647418  1
  O  O15  1  0.93770069  0.56621295  0.65457377  1
  O  O16  1  0.62851226  0.06229931  0.65457377  1
  O  O17  1  0.62851226  0.56621295  0.84542623  1
  O  O18  1  0.43378705  0.37148774  0.65457377  1
  O  O19  1  0.56508600  0.62856929  0.15352582  1
  O  O20  1  0.06348429  0.43491400  0.15352582  1
  O  O21  1  0.37143071  0.93651571  0.15352582  1
loop_
_geom_bond_atom_site_label_1
_geom_bond_atom_site_label_2
_geom_bond_distance
_geom_bond_site_symmetry_2
O0 Ta7 2.066256 1_555
O0 Ta4 2.066256 1_555
O0 Ta3 2.066256 1_555
O0 Sr0 2.670290 1_555
O1 Ta5 2.063793 1_654
O1 Ta2 2.063798 1_544
O1 Ta6 2.063805 1_554
O1 Pb0 2.702650 1_555
O2 Ta7 2.063793 1_545
O2 Ta4 2.063798 1_655
O2 Ta3 2.063805 1_555
O2 Pb0 2.702650 1_555
O3 Ta5 2.066256 1_555
O3 Ta6 2.066256 1_555
O3 Ta2 2.066256 1_555
O3 Sr0 2.670290 1_555
O4 Ta6 1.980921 1_555
O4 Ta5 1.982224 1_665
O4 Ta2 2.501275 1_555
O5 Ta7 1.980927 1_555
O5 Ta4 1.982219 1_655
O5 Ta3 2.501271 1_555
O6 Ta3 1.980921 1_555
O6 Ta7 1.982224 1_445
O6 Ta4 2.501275 1_555
O7 Ta2 1.980922 1_555
O7 Ta6 1.982225 1_455
O7 Ta5 2.501268 1_555
O8 Ta5 1.980927 1_555
O8 Ta2 1.982219 1_545
O8 Ta6 2.501271 1_555
O9 Ta4 1.980922 1_555
O9 Ta3 1.982225 1_565
O9 Ta7 2.501268 1_555
O10 Ta3 1.964819 1_555
O10 Ta0 1.987639 1_555
O10 Pb0 2.539756 1_555
O11 Ta5 1.959957 1_655
O11 Ta1 1.985640 1_555
O11 Sr0 2.528992 1_655
O12 Ta2 1.959958 1_545
O12 Ta1 1.985642 1_555
O12 Sr0 2.528990 1_545
O13 Ta7 1.964820 1_555
O13 Ta0 1.987632 1_555
O13 Pb0 2.539756 1_565
O14 Ta4 1.964821 1_555
O14 Ta0 1.987629 1_555
O14 Pb0 2.539755 1_455
O15 Ta4 1.959958 1_655
O15 Ta1 1.985642 1_555
O15 Sr0 2.528990 1_655
O16 Ta7 1.959957 1_545
O16 Ta1 1.985640 1_555
O16 Sr0 2.528992 1_545
O17 Ta6 1.959958 1_555
O17 Ta1 1.985645 1_555
O17 Sr0 2.528996 1_555
O18 Ta3 1.959958 1_555
O18 Ta1 1.985645 1_555
O18 Sr0 2.528996 1_555
O19 Ta6 1.964819 1_554
O19 Ta0 1.987639 1_555
O19 Pb0 2.539756 1_555
O20 Ta5 1.964820 1_554
O20 Ta0 1.987632 1_555
O20 Pb0 2.539755 1_455
O21 Ta2 1.964821 1_554
O21 Ta0 1.987629 1_555
O21 Pb0 2.539755 1_565
