# generated using pymatgen
data_InCu4BiO8
_symmetry_space_group_name_H-M   'P 1'
_cell_length_a   6.24831773
_cell_length_b   6.24831748
_cell_length_c   6.24831825
_cell_angle_alpha   126.40045448
_cell_angle_beta   126.40045641
_cell_angle_gamma   79.23096308
_symmetry_Int_Tables_number   1
_chemical_formula_structural   InCu4BiO8
_chemical_formula_sum   'In1 Cu4 Bi1 O8'
_cell_volume   152.80680630
_cell_formula_units_Z   1
loop_
 _symmetry_equiv_pos_site_id
 _symmetry_equiv_pos_as_xyz
  1  'x, y, z'
loop_
 _atom_site_type_symbol
 _atom_site_label
 _atom_site_symmetry_multiplicity
 _atom_site_fract_x
 _atom_site_fract_y
 _atom_site_fract_z
 _atom_site_occupancy
  In  In0  1  0.25000000  0.75000000  0.50000000  1
  Cu  Cu0  1  0.36982496  0.12010266  0.23887268  1
  Cu  Cu1  1  0.88122997  0.13095327  0.76112732  1
  Cu  Cu2  1  0.86904673  0.63017504  0.75027770  1
  Cu  Cu3  1  0.87989734  0.11877003  0.24972230  1
  Bi  Bi0  1  0.50000000  0.50000000  0.00000000  1
  O  O0  1  0.91907391  0.34233122  0.15818517  1
  O  O1  1  0.18414505  0.76088673  0.84181483  1
  O  O2  1  0.86771902  0.91459594  0.37623423  1
  O  O3  1  0.53836471  0.49148680  0.62376577  1
  O  O4  1  0.50851320  0.13228098  0.04687692  1
  O  O5  1  0.08540406  0.46163529  0.95312308  1
  O  O6  1  0.65766878  0.81585495  0.57674269  1
  O  O7  1  0.23911327  0.08092609  0.42325731  1
loop_
_geom_bond_atom_site_label_1
_geom_bond_atom_site_label_2
_geom_bond_distance
_geom_bond_site_symmetry_2
In0 O3 2.279209 1_555
In0 O4 2.279210 1_566
In0 O5 2.279210 1_554
In0 O2 2.279210 1_455
In0 O0 2.365491 1_455
In0 O6 2.365493 1_555
In0 O7 2.365494 1_565
In0 O1 2.365502 1_555
Cu0 O1 1.867320 1_544
Cu0 O3 1.887185 1_555
Cu0 O4 1.887512 1_555
Cu0 O7 1.892215 1_555
Cu1 O0 1.867314 1_556
Cu1 O2 1.887177 1_545
Cu1 O5 1.887501 1_655
Cu1 O6 1.892224 1_545
Cu2 O6 1.867317 1_555
Cu2 O5 1.887194 1_655
Cu2 O3 1.887494 1_555
Cu2 O1 1.892219 1_655
Cu3 O7 1.867324 1_655
Cu3 O4 1.887187 1_555
Cu3 O2 1.887523 1_545
Cu3 O0 1.892225 1_555
Bi0 O1 2.433919 1_554
Bi0 O7 2.433926 1_554
Bi0 O0 2.433926 1_555
Bi0 O6 2.433926 1_555
Bi0 O2 2.470273 1_555
Bi0 O4 2.470276 1_555
Bi0 O5 2.470277 1_554
Bi0 O3 2.470293 1_554
