# generated using pymatgen
data_Ti6PdAuN2
_symmetry_space_group_name_H-M   'P 1'
_cell_length_a   5.81693883
_cell_length_b   5.81693876
_cell_length_c   5.81693844
_cell_angle_alpha   120.29073966
_cell_angle_beta   120.29072449
_cell_angle_gamma   89.49717232
_symmetry_Int_Tables_number   1
_chemical_formula_structural   Ti6PdAuN2
_chemical_formula_sum   'Ti6 Pd1 Au1 N2'
_cell_volume   138.55992853
_cell_formula_units_Z   1
loop_
 _symmetry_equiv_pos_site_id
 _symmetry_equiv_pos_as_xyz
  1  'x, y, z'
loop_
 _atom_site_type_symbol
 _atom_site_label
 _atom_site_symmetry_multiplicity
 _atom_site_fract_x
 _atom_site_fract_y
 _atom_site_fract_z
 _atom_site_occupancy
  Ti  Ti0  1  0.22962114  0.72962114  0.95368402  1
  Ti  Ti1  1  0.72406388  0.77037886  0.50000000  1
  Ti  Ti2  1  0.25000000  0.25000000  0.00000000  1
  Ti  Ti3  1  0.27037886  0.22406388  0.50000000  1
  Ti  Ti4  1  0.77593612  0.27593612  0.04631598  1
  Ti  Ti5  1  0.75000000  0.75000000  0.00000000  1
  Pd  Pd0  1  0.25000000  0.75000000  0.50000000  1
  Au  Au0  1  0.75000000  0.25000000  0.50000000  1
  N  N0  1  0.50000000  0.50000000  0.00000000  1
  N  N1  1  0.00000000  0.00000000  0.00000000  1
loop_
_geom_bond_atom_site_label_1
_geom_bond_atom_site_label_2
_geom_bond_distance
_geom_bond_site_symmetry_2
Pd0 Ti0 2.761181 1_555
Pd0 Ti3 2.761186 1_565
Pd0 Ti1 2.761186 1_555
Pd0 Ti4 2.761187 1_455
Pd0 Ti2 2.895679 1_555
Pd0 Ti2 2.895679 1_566
Pd0 Ti5 2.895679 1_556
Pd0 Ti5 2.895679 1_455
Pd0 Ti3 3.060594 1_555
Pd0 Ti1 3.060594 1_455
Pd0 Ti4 3.060594 1_566
Pd0 Ti0 3.060600 1_554
Au0 Ti4 2.795319 1_555
Au0 Ti1 2.795325 1_545
Au0 Ti3 2.795325 1_555
Au0 Ti0 2.795325 1_655
Au0 Ti5 2.895679 1_556
Au0 Ti5 2.895679 1_545
Au0 Ti2 2.895679 1_555
Au0 Ti2 2.895679 1_656
Au0 Ti1 3.029447 1_555
Au0 Ti3 3.029447 1_655
Au0 Ti0 3.029447 1_544
Au0 Ti4 3.029452 1_556
N0 Ti1 2.056448 1_555
N0 Ti3 2.056448 1_554
N0 Ti4 2.056448 1_555
N0 Ti0 2.056448 1_554
N0 Ti2 2.065603 1_555
N0 Ti5 2.065603 1_555
N1 Ti3 2.056448 1_555
N1 Ti1 2.056448 1_444
N1 Ti4 2.056448 1_455
N1 Ti0 2.056448 1_544
N1 Ti2 2.065603 1_555
N1 Ti5 2.065603 1_445
