# generated using pymatgen
data_Sr4Ga2Ir3Pd
_symmetry_space_group_name_H-M   'P 1'
_cell_length_a   5.92363108
_cell_length_b   5.87809181
_cell_length_c   7.80879156
_cell_angle_alpha   79.92622622
_cell_angle_beta   79.96626444
_cell_angle_gamma   61.52613225
_symmetry_Int_Tables_number   1
_chemical_formula_structural   Sr4Ga2Ir3Pd
_chemical_formula_sum   'Sr4 Ga2 Ir3 Pd1'
_cell_volume   234.02458493
_cell_formula_units_Z   1
loop_
 _symmetry_equiv_pos_site_id
 _symmetry_equiv_pos_as_xyz
  1  'x, y, z'
loop_
 _atom_site_type_symbol
 _atom_site_label
 _atom_site_symmetry_multiplicity
 _atom_site_fract_x
 _atom_site_fract_y
 _atom_site_fract_z
 _atom_site_occupancy
  Sr  Sr0  1  0.78332337  0.51408022  0.35744829  1
  Sr  Sr1  1  0.49014491  0.21424498  0.14356861  1
  Sr  Sr2  1  0.21891274  0.48696654  0.64210398  1
  Sr  Sr3  1  0.50877326  0.78230847  0.85676398  1
  Ga  Ga0  1  0.09374960  0.91675016  0.23842471  1
  Ga  Ga1  1  0.92935748  0.07982969  0.75915105  1
  Ir  Ir0  1  0.00637647  0.71476737  0.01015805  1
  Ir  Ir1  1  0.25745953  0.99383106  0.48989063  1
  Ir  Ir2  1  0.99211744  0.29007103  0.99241184  1
  Pd  Pd0  1  0.71978620  0.00715049  0.51007886  1
loop_
_geom_bond_atom_site_label_1
_geom_bond_atom_site_label_2
_geom_bond_distance
_geom_bond_site_symmetry_2
Ga0 Ir1 2.528909 1_555
Ga0 Ir0 2.550000 1_555
Ga0 Ir2 2.556743 1_464
Ga0 Pd0 2.706276 1_465
Ga0 Sr3 3.459629 1_554
Ga1 Ir2 2.538658 1_555
Ga1 Ir1 2.542619 1_645
Ga1 Ir0 2.561530 1_646
Ga1 Pd0 2.672867 1_555
Ga1 Sr3 3.184591 1_645
Ir0 Ir2 2.566034 1_454
Ir0 Sr0 3.100054 1_455
Ir0 Sr1 3.143598 1_555
Ir0 Sr2 3.180608 1_554
Ir0 Sr3 3.188594 1_554
Ir0 Sr3 3.198272 1_454
Ir0 Sr1 3.233505 1_465
Ir1 Pd0 2.808987 1_565
Ir1 Sr2 3.107565 1_555
Ir1 Sr0 3.166347 1_465
Ir1 Sr1 3.173350 1_565
Ir1 Sr0 3.201108 1_555
Ir1 Sr2 3.216672 1_565
Ir1 Sr3 3.231796 1_555
Ir2 Sr2 3.117963 1_655
Ir2 Sr3 3.126805 1_555
Ir2 Sr0 3.149688 1_556
Ir2 Sr1 3.173440 1_656
Ir2 Sr1 3.207844 1_556
Ir2 Sr3 3.265465 1_645
Pd0 Sr3 3.127688 1_545
Pd0 Sr2 3.129344 1_555
Pd0 Sr0 3.158229 1_545
Pd0 Sr1 3.175251 1_555
Pd0 Sr0 3.179923 1_555
Pd0 Sr2 3.239317 1_645
