# generated using pymatgen
data_CaSb2Br2O3
_symmetry_space_group_name_H-M   'P 1'
_cell_length_a   5.77120835
_cell_length_b   8.00742926
_cell_length_c   8.18469908
_cell_angle_alpha   87.66223554
_cell_angle_beta   84.69573050
_cell_angle_gamma   79.40119124
_symmetry_Int_Tables_number   1
_chemical_formula_structural   CaSb2Br2O3
_chemical_formula_sum   'Ca2 Sb4 Br4 O6'
_cell_volume   370.08134899
_cell_formula_units_Z   2
loop_
 _symmetry_equiv_pos_site_id
 _symmetry_equiv_pos_as_xyz
  1  'x, y, z'
loop_
 _atom_site_type_symbol
 _atom_site_label
 _atom_site_symmetry_multiplicity
 _atom_site_fract_x
 _atom_site_fract_y
 _atom_site_fract_z
 _atom_site_occupancy
  Ca  Ca0  1  0.49998914  0.48900681  0.27237062  1
  Ca  Ca1  1  0.50004028  0.51091027  0.72765246  1
  Sb  Sb0  1  0.07218372  0.30140359  0.03154341  1
  Sb  Sb1  1  0.05118325  0.29709103  0.47255226  1
  Sb  Sb2  1  0.94887482  0.70294870  0.52742111  1
  Sb  Sb3  1  0.92771937  0.69864562  0.96843986  1
  Br  Br0  1  0.34410711  0.83085424  0.19867437  1
  Br  Br1  1  0.74823988  0.13873784  0.29890211  1
  Br  Br2  1  0.25159851  0.86123608  0.70115791  1
  Br  Br3  1  0.65620931  0.16911954  0.80133945  1
  O  O0  1  0.78904080  0.49206870  0.05941702  1
  O  O1  1  0.18092005  0.35218548  0.24594487  1
  O  O2  1  0.77778407  0.49460345  0.47500278  1
  O  O3  1  0.22226343  0.50538125  0.52497582  1
  O  O4  1  0.81899327  0.64783022  0.75401896  1
  O  O5  1  0.21085200  0.50797518  0.94058897  1
loop_
_geom_bond_atom_site_label_1
_geom_bond_atom_site_label_2
_geom_bond_distance
_geom_bond_site_symmetry_2
Ca0 O0 2.301154 1_555
Ca0 O1 2.339445 1_555
Ca0 O2 2.418049 1_555
Ca0 O3 2.488547 1_555
Ca1 O5 2.301461 1_555
Ca1 O4 2.339252 1_555
Ca1 O3 2.418154 1_555
Ca1 O2 2.488904 1_555
Br0 Ca0 2.779536 1_555
Br1 Sb1 2.847199 1_655
Br1 Ca0 2.914802 1_555
Br1 Sb0 3.144380 1_655
Br2 Sb2 2.846361 1_455
Br2 Ca1 2.915528 1_555
Br2 Sb3 3.143463 1_455
Br3 Ca1 2.779374 1_555
O0 Sb0 2.023592 1_655
O0 Sb3 2.051234 1_554
O1 Sb1 1.998299 1_555
O1 Sb0 1.998551 1_555
O2 Sb1 2.017448 1_655
O2 Sb2 2.164480 1_555
O3 Sb2 2.017693 1_455
O3 Sb1 2.164074 1_555
O4 Sb2 1.998554 1_555
O4 Sb3 1.998751 1_555
O5 Sb3 2.023567 1_455
O5 Sb0 2.051112 1_556
