# generated using pymatgen
data_Ta12Fe5Os7N4
_symmetry_space_group_name_H-M   'P 1'
_cell_length_a   8.19780480
_cell_length_b   8.19780494
_cell_length_c   8.19780452
_cell_angle_alpha   59.93886512
_cell_angle_beta   59.93886377
_cell_angle_gamma   59.93886408
_symmetry_Int_Tables_number   1
_chemical_formula_structural   Ta12Fe5Os7N4
_chemical_formula_sum   'Ta12 Fe5 Os7 N4'
_cell_volume   389.02283076
_cell_formula_units_Z   1
loop_
 _symmetry_equiv_pos_site_id
 _symmetry_equiv_pos_as_xyz
  1  'x, y, z'
loop_
 _atom_site_type_symbol
 _atom_site_label
 _atom_site_symmetry_multiplicity
 _atom_site_fract_x
 _atom_site_fract_y
 _atom_site_fract_z
 _atom_site_occupancy
  Ta  Ta0  1  0.80715561  0.80715561  0.19173126  1
  Ta  Ta1  1  0.19433664  0.19433664  0.80454144  1
  Ta  Ta2  1  0.80715561  0.19173126  0.80715561  1
  Ta  Ta3  1  0.19433664  0.80454144  0.19433664  1
  Ta  Ta4  1  0.19173126  0.80715561  0.80715561  1
  Ta  Ta5  1  0.80454144  0.19433664  0.19433664  1
  Ta  Ta6  1  0.44317683  0.44317683  0.05676645  1
  Ta  Ta7  1  0.05631966  0.05631966  0.44214568  1
  Ta  Ta8  1  0.44317683  0.05676645  0.44317683  1
  Ta  Ta9  1  0.05631966  0.44214568  0.05631966  1
  Ta  Ta10  1  0.05676645  0.44317683  0.44317683  1
  Ta  Ta11  1  0.44214568  0.05631966  0.05631966  1
  Fe  Fe0  1  0.11802920  0.63166305  0.63166305  1
  Fe  Fe1  1  0.63166305  0.11802920  0.63166305  1
  Fe  Fe2  1  0.63166305  0.63166305  0.11802920  1
  Fe  Fe3  1  0.62474450  0.62474450  0.62474450  1
  Fe  Fe4  1  0.83405166  0.83405166  0.83405166  1
  Os  Os0  1  0.75225177  0.41528823  0.41528823  1
  Os  Os1  1  0.41528823  0.75225177  0.41528823  1
  Os  Os2  1  0.41528823  0.41528823  0.75225177  1
  Os  Os3  1  0.41647018  0.41647018  0.41647018  1
  Os  Os4  1  0.49728880  0.83440062  0.83440062  1
  Os  Os5  1  0.83440062  0.49728880  0.83440062  1
  Os  Os6  1  0.83440062  0.83440062  0.49728880  1
  N  N0  1  0.62436283  0.12420375  0.12420375  1
  N  N1  1  0.12420375  0.62436283  0.12420375  1
  N  N2  1  0.12420375  0.12420375  0.62436283  1
  N  N3  1  0.12452446  0.12452446  0.12452446  1
loop_
_geom_bond_atom_site_label_1
_geom_bond_atom_site_label_2
_geom_bond_distance
_geom_bond_site_symmetry_2
Fe0 Fe4 2.437966 1_455
Fe0 Os6 2.498455 1_455
Fe0 Os5 2.498455 1_455
Fe0 Os2 2.527480 1_555
Fe0 Os1 2.527480 1_555
Fe0 Os3 2.584512 1_555
Fe0 Ta4 2.884392 1_555
Fe0 Ta9 2.897115 1_556
Fe0 Ta7 2.897115 1_565
Fe0 Ta3 2.967147 1_555
Fe0 Ta1 2.967147 1_555
Fe0 Ta10 2.995700 1_555
Fe1 Fe4 2.437967 1_545
Fe1 Os6 2.498455 1_545
Fe1 Os4 2.498455 1_545
Fe1 Os2 2.527480 1_555
Fe1 Os0 2.527480 1_555
Fe1 Os3 2.584512 1_555
Fe1 Ta2 2.884392 1_555
Fe1 Ta11 2.897115 1_556
Fe1 Ta7 2.897115 1_655
Fe1 Ta5 2.967147 1_555
Fe1 Ta1 2.967147 1_555
Fe1 Ta8 2.995700 1_555
Fe2 Fe4 2.437967 1_554
Fe2 Os5 2.498455 1_554
Fe2 Os4 2.498455 1_554
Fe2 Os1 2.527480 1_555
Fe2 Os0 2.527480 1_555
Fe2 Os3 2.584512 1_555
Fe2 Ta0 2.884392 1_555
Fe2 Ta9 2.897115 1_655
Fe2 Ta11 2.897115 1_565
Fe2 Ta3 2.967147 1_555
Fe2 Ta5 2.967147 1_555
Fe2 Ta6 2.995700 1_555
Fe3 Os0 2.519300 1_555
Fe3 Os1 2.519300 1_555
Fe3 Os2 2.519300 1_555
Fe3 Os4 2.522084 1_555
Fe3 Os5 2.522084 1_555
Fe3 Os6 2.522084 1_555
Fe3 Ta6 2.937881 1_556
Fe3 Ta10 2.937881 1_655
Fe3 Ta8 2.937882 1_565
Fe3 Ta0 2.945724 1_555
Fe3 Ta4 2.945724 1_555
Fe3 Ta2 2.945724 1_555
Fe4 Ta0 2.729147 1_556
Fe4 Ta4 2.729147 1_655
Fe4 Ta2 2.729147 1_565
Fe4 Os6 2.757853 1_555
Fe4 Os4 2.757853 1_555
Fe4 Os5 2.757853 1_555
Fe4 Ta11 2.925509 1_566
Fe4 Ta7 2.925509 1_665
Fe4 Ta9 2.925509 1_656
Os0 Ta9 2.733785 1_655
Os0 Ta7 2.733785 1_655
Os0 Os3 2.742999 1_555
Os0 Ta10 2.744494 1_655
Os0 Os2 2.759808 1_555
Os0 Os1 2.759808 1_555
Os0 Ta5 2.911474 1_555
Os0 Ta2 2.933435 1_555
Os0 Ta0 2.933435 1_555
Os1 Ta11 2.733785 1_565
Os1 Ta7 2.733785 1_565
Os1 Os3 2.742999 1_555
Os1 Ta8 2.744494 1_565
Os1 Os2 2.759808 1_555
Os1 Ta3 2.911474 1_555
Os1 Ta4 2.933435 1_555
Os1 Ta0 2.933435 1_555
Os2 Ta9 2.733785 1_556
Os2 Ta11 2.733785 1_556
Os2 Os3 2.742999 1_555
Os2 Ta6 2.744494 1_556
Os2 Ta1 2.911474 1_555
Os2 Ta2 2.933435 1_555
Os2 Ta4 2.933435 1_555
Os3 Ta6 2.746930 1_555
Os3 Ta10 2.746930 1_555
Os3 Ta8 2.746930 1_555
Os3 Ta5 2.909869 1_555
Os3 Ta1 2.909869 1_555
Os3 Ta3 2.909869 1_555
Os4 Ta3 2.734629 1_556
Os4 Ta1 2.734629 1_565
Os4 Ta4 2.746867 1_555
Os4 Os6 2.761023 1_555
Os4 Os5 2.761023 1_555
Os4 Ta11 2.914041 1_566
Os4 Ta8 2.926390 1_565
Os4 Ta6 2.926390 1_556
Os5 Ta5 2.734629 1_556
Os5 Ta1 2.734629 1_655
Os5 Ta2 2.746867 1_555
Os5 Os6 2.761023 1_555
Os5 Ta9 2.914041 1_656
Os5 Ta10 2.926390 1_655
Os5 Ta6 2.926390 1_556
Os6 Ta3 2.734629 1_655
Os6 Ta5 2.734629 1_565
Os6 Ta0 2.746867 1_555
Os6 Ta7 2.914041 1_665
Os6 Ta8 2.926390 1_565
Os6 Ta10 2.926390 1_655
N0 Ta2 2.189732 1_554
N0 Ta0 2.189732 1_545
N0 Ta11 2.196971 1_555
N0 Ta8 2.198336 1_555
N0 Ta6 2.198336 1_555
N0 Ta5 2.208070 1_555
N1 Ta4 2.189732 1_554
N1 Ta0 2.189732 1_455
N1 Ta9 2.196971 1_555
N1 Ta10 2.198336 1_555
N1 Ta6 2.198336 1_555
N1 Ta3 2.208070 1_555
N2 Ta2 2.189732 1_455
N2 Ta4 2.189732 1_545
N2 Ta7 2.196971 1_555
N2 Ta8 2.198336 1_555
N2 Ta10 2.198336 1_555
N2 Ta1 2.208070 1_555
N3 Ta7 2.191144 1_555
N3 Ta11 2.191144 1_555
N3 Ta9 2.191144 1_555
N3 Ta1 2.203661 1_554
N3 Ta5 2.203661 1_455
N3 Ta3 2.203661 1_545
