# generated using pymatgen
data_Ti8Al14PRu7
_symmetry_space_group_name_H-M   'P 1'
_cell_length_a   8.58189030
_cell_length_b   8.58191107
_cell_length_c   8.58189323
_cell_angle_alpha   120.11699413
_cell_angle_beta   120.00212373
_cell_angle_gamma   89.89697614
_symmetry_Int_Tables_number   1
_chemical_formula_structural   Ti8Al14PRu7
_chemical_formula_sum   'Ti8 Al14 P1 Ru7'
_cell_volume   446.52146594
_cell_formula_units_Z   1
loop_
 _symmetry_equiv_pos_site_id
 _symmetry_equiv_pos_as_xyz
  1  'x, y, z'
loop_
 _atom_site_type_symbol
 _atom_site_label
 _atom_site_symmetry_multiplicity
 _atom_site_fract_x
 _atom_site_fract_y
 _atom_site_fract_z
 _atom_site_occupancy
  Ti  Ti0  1  0.80185294  0.29887023  0.09398434  1
  Ti  Ti1  1  0.20489283  0.29887278  0.49702495  1
  Ti  Ti2  1  0.20012519  0.70012085  0.50001202  1
  Ti  Ti3  1  0.20488801  0.70787110  0.90601778  1
  Ti  Ti4  1  0.80185789  0.70787065  0.50299031  1
  Ti  Ti5  1  0.79180441  0.29180159  0.50000723  1
  Ti  Ti6  1  0.37900922  0.11773589  0.73870256  1
  Ti  Ti7  1  0.37901338  0.64030774  0.26127208  1
  Al  Al0  1  0.16052406  0.33813418  0.17760714  1
  Al  Al1  1  0.16052234  0.98292333  0.82239448  1
  Al  Al2  1  0.15792906  0.34109875  0.81683111  1
  Al  Al3  1  0.52426164  0.34110036  0.18316269  1
  Al  Al4  1  0.84088942  0.65999581  0.81910148  1
  Al  Al5  1  0.84089178  0.02179110  0.18089278  1
  Al  Al6  1  0.83950090  0.66001140  0.17949070  1
  Al  Al7  1  0.48052892  0.66001144  0.82051673  1
  Al  Al8  1  0.37966587  0.11931256  0.26035253  1
  Al  Al9  1  0.85895809  0.11931158  0.73964434  1
  Al  Al10  1  0.61984786  0.87859538  0.25874956  1
  Al  Al11  1  0.61984636  0.36109693  0.74125269  1
  Al  Al12  1  0.62174323  0.87963455  0.74210846  1
  Al  Al13  1  0.13752084  0.87963826  0.25788837  1
  P  P0  1  0.99635944  0.49635371  0.50000715  1
  Ru  Ru0  1  0.00054168  0.00040266  0.50099685  1
  Ru  Ru1  1  0.49939929  0.00039740  0.99986285  1
  Ru  Ru2  1  0.49870048  0.49870408  0.00000066  1
  Ru  Ru3  1  0.49939649  0.49953025  0.49898917  1
  Ru  Ru4  1  0.00055145  0.49953685  0.00013747  1
  Ru  Ru5  1  0.00048656  0.00048341  0.99999880  1
  Ru  Ru6  1  0.49848338  0.99848215  0.50000273  1
loop_
_geom_bond_atom_site_label_1
_geom_bond_atom_site_label_2
_geom_bond_distance
_geom_bond_site_symmetry_2
Al0 Ru5 2.468724 1_554
Al0 Ru4 2.478341 1_555
Al0 Ru3 2.478350 1_555
Al1 Ru5 2.468664 1_565
Al1 Ru0 2.478410 1_565
Al1 Ru1 2.478419 1_565
Al2 Ru4 2.473711 1_556
Al2 Ru0 2.473814 1_555
Al2 Ru2 2.477111 1_556
Al3 Ru3 2.473772 1_555
Al3 Ru1 2.473867 1_554
Al3 Ru2 2.477080 1_555
Al4 Ru5 2.481920 1_665
Al4 Ru3 2.489694 1_555
Al4 Ru4 2.489728 1_656
Al5 Ru5 2.481910 1_654
Al5 Ru1 2.489665 1_554
Al5 Ru0 2.489678 1_655
Al6 Ru0 2.483718 1_665
Al6 Ru4 2.483824 1_655
Al6 Ru2 2.492441 1_555
Al7 Ru1 2.483712 1_565
Al7 Ru3 2.483781 1_555
Al7 Ru2 2.492402 1_556
Al8 Ru6 2.526653 1_545
Al8 Ru5 2.659962 1_554
Al8 Ru3 2.664314 1_555
Al8 Ru1 2.664346 1_554
Al9 Ru6 2.526607 1_545
Al9 Ru5 2.659991 1_655
Al9 Ru4 2.664370 1_656
Al9 Ru0 2.664404 1_655
Al10 Ru6 2.538690 1_555
Al10 Ru2 2.660640 1_555
Al10 Ru1 2.669688 1_564
Al10 Ru0 2.669721 1_665
Al11 Ru6 2.538673 1_545
Al11 Ru2 2.660656 1_556
Al11 Ru3 2.669743 1_555
Al11 Ru4 2.669797 1_656
Al12 Ru6 2.530013 1_555
Al12 Ru5 2.655766 1_665
Al12 Ru1 2.662260 1_565
Al12 Ru3 2.662304 1_555
Al13 Ru6 2.530073 1_555
Al13 Ru5 2.655710 1_564
Al13 Ru0 2.662184 1_565
Al13 Ru4 2.662280 1_555
P0 Ti3 2.463092 1_655
P0 Ti1 2.463119 1_655
P0 Ti4 2.463144 1_555
P0 Ti0 2.463165 1_555
P0 Ti2 2.475233 1_655
P0 Ti5 2.484825 1_555
Ru0 Ti6 2.654974 1_555
Ru1 Ti6 2.655197 1_555
Ru2 Ti7 2.669003 1_555
Ru2 Ti6 2.669074 1_554
Ru3 Ti7 2.655171 1_555
Ru4 Ti7 2.654938 1_555
Ru6 Ti6 2.507554 1_565
Ru6 Ti7 2.507560 1_555
