# generated using pymatgen
data_CsH2Au
_symmetry_space_group_name_H-M   'P 1'
_cell_length_a   5.33274298
_cell_length_b   6.22875264
_cell_length_c   7.06735079
_cell_angle_alpha   90.00000000
_cell_angle_beta   89.82370547
_cell_angle_gamma   90.00000000
_symmetry_Int_Tables_number   1
_chemical_formula_structural   CsH2Au
_chemical_formula_sum   'Cs2 H4 Au2'
_cell_volume   234.75039356
_cell_formula_units_Z   2
loop_
 _symmetry_equiv_pos_site_id
 _symmetry_equiv_pos_as_xyz
  1  'x, y, z'
loop_
 _atom_site_type_symbol
 _atom_site_label
 _atom_site_symmetry_multiplicity
 _atom_site_fract_x
 _atom_site_fract_y
 _atom_site_fract_z
 _atom_site_occupancy
  Cs  Cs0  1  0.25931196  0.75000000  0.25202714  1
  Cs  Cs1  1  0.74068704  0.24999900  0.74797386  1
  H  H0  1  0.76019084  0.98718340  0.24708223  1
  H  H1  1  0.76019084  0.51281560  0.24708223  1
  H  H2  1  0.23980816  0.48718440  0.75291777  1
  H  H3  1  0.23980816  0.01281560  0.75291777  1
  Au  Au0  1  0.76019412  0.24999900  0.24726943  1
  Au  Au1  1  0.23980588  0.75000000  0.75273057  1
loop_
_geom_bond_atom_site_label_1
_geom_bond_atom_site_label_2
_geom_bond_distance
_geom_bond_site_symmetry_2
Cs0 H0 3.044494 1_455
Cs0 H1 3.044497 1_455
Cs0 H0 3.052504 1_555
Cs0 H1 3.052507 1_555
Cs1 H3 3.044494 1_655
Cs1 H2 3.044500 1_655
Cs1 H3 3.052504 1_555
Cs1 H2 3.052510 1_555
Au0 H0 1.637014 1_545
Au0 H1 1.637020 1_555
Au0 Cs1 3.530550 1_554
Au0 Cs1 3.539863 1_555
Au1 H3 1.637014 1_565
Au1 H2 1.637014 1_555
Au1 Cs0 3.530557 1_556
Au1 Cs0 3.539855 1_555
