# generated using pymatgen
data_Ba2Ga6TcOs
_symmetry_space_group_name_H-M   'P 1'
_cell_length_a   6.89720749
_cell_length_b   6.89720737
_cell_length_c   6.89720612
_cell_angle_alpha   119.99999869
_cell_angle_beta   119.99999808
_cell_angle_gamma   59.99999797
_symmetry_Int_Tables_number   1
_chemical_formula_structural   Ba2Ga6TcOs
_chemical_formula_sum   'Ba2 Ga6 Tc1 Os1'
_cell_volume   232.00897517
_cell_formula_units_Z   1
loop_
 _symmetry_equiv_pos_site_id
 _symmetry_equiv_pos_as_xyz
  1  'x, y, z'
loop_
 _atom_site_type_symbol
 _atom_site_label
 _atom_site_symmetry_multiplicity
 _atom_site_fract_x
 _atom_site_fract_y
 _atom_site_fract_z
 _atom_site_occupancy
  Ba  Ba0  1  0.75000000  0.75000000  0.24999900  1
  Ba  Ba1  1  0.25000100  0.25000100  0.74999900  1
  Ga  Ga0  1  0.74991682  0.25008418  0.25008418  1
  Ga  Ga1  1  0.25008418  0.74991682  0.25008418  1
  Ga  Ga2  1  0.25008418  0.25008418  0.25008418  1
  Ga  Ga3  1  0.74991582  0.74991582  0.74991582  1
  Ga  Ga4  1  0.74991582  0.25008318  0.74991582  1
  Ga  Ga5  1  0.25008318  0.74991582  0.74991582  1
  Tc  Tc0  1  0.00000000  0.00000000  0.00000000  1
  Os  Os0  1  0.49999900  0.49999900  0.50000000  1
loop_
_geom_bond_atom_site_label_1
_geom_bond_atom_site_label_2
_geom_bond_distance
_geom_bond_site_symmetry_2
Ba0 Ga3 3.448596 1_554
Ba0 Ga4 3.448604 1_554
Ba0 Ga4 3.448604 1_565
Ba0 Ga5 3.448604 1_554
Ba0 Ga5 3.448604 1_655
Ba0 Ga2 3.448604 1_565
Ba0 Ga2 3.448604 1_655
Ba0 Ga0 3.448604 1_555
Ba0 Ga0 3.448604 1_565
Ba0 Ga1 3.448604 1_555
Ba0 Ga1 3.448604 1_655
Ba0 Ga3 3.448610 1_555
Ba1 Ga5 3.448587 1_555
Ba1 Ga4 3.448587 1_555
Ba1 Ga2 3.448589 1_555
Ba1 Ga1 3.448600 1_545
Ba1 Ga0 3.448600 1_455
Ba1 Ga3 3.448604 1_545
Ba1 Ga3 3.448604 1_455
Ba1 Ga1 3.448607 1_556
Ba1 Ga0 3.448607 1_556
Ba1 Ga2 3.448617 1_556
Ba1 Ga5 3.448621 1_545
Ba1 Ga4 3.448621 1_455
Ga0 Os0 2.437719 1_555
Ga0 Tc0 2.439347 1_655
Ga1 Os0 2.437719 1_555
Ga1 Tc0 2.439347 1_565
Ga2 Os0 2.437700 1_555
Ga2 Tc0 2.439352 1_555
Ga3 Os0 2.437720 1_555
Ga3 Tc0 2.439352 1_666
Ga4 Os0 2.437710 1_555
Ga4 Tc0 2.439347 1_656
Ga5 Os0 2.437710 1_555
Ga5 Tc0 2.439347 1_566
