# generated using pymatgen
data_Zr10In3Cu2Te3
_symmetry_space_group_name_H-M   'P 1'
_cell_length_a   8.64282407
_cell_length_b   8.64282505
_cell_length_c   5.83376639
_cell_angle_alpha   90.00000000
_cell_angle_beta   90.00000000
_cell_angle_gamma   119.99999625
_symmetry_Int_Tables_number   1
_chemical_formula_structural   Zr10In3Cu2Te3
_chemical_formula_sum   'Zr10 In3 Cu2 Te3'
_cell_volume   377.39059856
_cell_formula_units_Z   1
loop_
 _symmetry_equiv_pos_site_id
 _symmetry_equiv_pos_as_xyz
  1  'x, y, z'
loop_
 _atom_site_type_symbol
 _atom_site_label
 _atom_site_symmetry_multiplicity
 _atom_site_fract_x
 _atom_site_fract_y
 _atom_site_fract_z
 _atom_site_occupancy
  Zr  Zr0  1  0.74887887  0.74887887  0.25000000  1
  Zr  Zr1  1  0.25112113  0.00000000  0.25000000  1
  Zr  Zr2  1  0.00000000  0.25112113  0.25000000  1
  Zr  Zr3  1  0.27248210  0.27248210  0.75000000  1
  Zr  Zr4  1  0.72751790  0.00000000  0.75000000  1
  Zr  Zr5  1  1.00000000  0.72751790  0.75000000  1
  Zr  Zr6  1  0.66666700  0.33333300  0.50463467  1
  Zr  Zr7  1  0.33333300  0.66666700  0.50463467  1
  Zr  Zr8  1  0.33333300  0.66666700  0.99536533  1
  Zr  Zr9  1  0.66666700  0.33333300  0.99536533  1
  In  In0  1  0.62209027  0.62209027  0.75000000  1
  In  In1  1  0.37790973  0.00000000  0.75000000  1
  In  In2  1  1.00000000  0.37790973  0.75000000  1
  Cu  Cu0  1  0.00000000  0.00000000  0.52744788  1
  Cu  Cu1  1  0.00000000  0.00000000  0.97255212  1
  Te  Te0  1  0.39219453  0.39219453  0.25000000  1
  Te  Te1  1  0.60780547  0.00000000  0.25000000  1
  Te  Te2  1  0.00000000  0.60780547  0.25000000  1
loop_
_geom_bond_atom_site_label_1
_geom_bond_atom_site_label_2
_geom_bond_distance
_geom_bond_site_symmetry_2
Zr6 Zr9 2.862808 1_555
Zr6 Zr9 2.970958 1_554
Zr7 Zr8 2.862808 1_555
Zr7 Zr8 2.970958 1_554
In0 Zr5 2.919287 1_555
In0 Zr4 2.919288 1_565
In0 Zr3 3.021602 1_555
In0 Zr8 3.063865 1_555
In0 Zr7 3.063865 1_555
In0 Zr9 3.063865 1_555
In0 Zr6 3.063865 1_555
In0 Zr0 3.115929 1_555
In0 Zr0 3.115929 1_556
In1 Zr3 2.919288 1_555
In1 Zr5 2.919288 1_445
In1 Zr4 3.021602 1_555
In1 Zr8 3.063857 1_545
In1 Zr7 3.063857 1_545
In1 Zr9 3.063860 1_555
In1 Zr6 3.063860 1_555
In1 Zr1 3.115929 1_555
In1 Zr1 3.115929 1_556
In2 Zr3 2.919287 1_655
In2 Zr4 2.919288 1_555
In2 Zr5 3.021602 1_555
In2 Zr9 3.063857 1_555
In2 Zr6 3.063857 1_555
In2 Zr8 3.063860 1_655
In2 Zr7 3.063860 1_655
In2 Zr2 3.115929 1_655
In2 Zr2 3.115929 1_656
Cu0 Zr4 2.689186 1_455
Cu0 Zr3 2.689186 1_555
Cu0 Zr5 2.689186 1_445
Cu0 Zr1 2.707466 1_555
Cu0 Zr2 2.707467 1_555
Cu0 Zr0 2.707467 1_445
Cu1 Zr4 2.689186 1_455
Cu1 Zr3 2.689186 1_555
Cu1 Zr5 2.689186 1_445
Cu1 Zr1 2.707466 1_556
Cu1 Zr2 2.707467 1_556
Cu1 Zr0 2.707467 1_446
Te0 Zr2 2.973810 1_555
Te0 Zr1 2.973811 1_555
Te0 Zr6 3.049539 1_555
Te0 Zr9 3.049539 1_554
Te0 Zr7 3.049539 1_555
Te0 Zr8 3.049539 1_554
Te0 Zr0 3.082760 1_555
Te0 Zr3 3.094950 1_554
Te0 Zr3 3.094950 1_555
Te1 Zr0 2.973810 1_545
Te1 Zr2 2.973810 1_655
Te1 Zr6 3.049532 1_555
Te1 Zr9 3.049532 1_554
Te1 Zr7 3.049534 1_545
Te1 Zr8 3.049534 1_544
Te1 Zr1 3.082760 1_555
Te1 Zr4 3.094950 1_555
Te1 Zr4 3.094950 1_554
Te2 Zr0 2.973810 1_455
Te2 Zr1 2.973811 1_565
Te2 Zr7 3.049531 1_555
Te2 Zr8 3.049531 1_554
Te2 Zr6 3.049534 1_455
Te2 Zr9 3.049534 1_454
Te2 Zr2 3.082760 1_555
Te2 Zr5 3.094950 1_455
Te2 Zr5 3.094950 1_454
