# generated using pymatgen
data_RbSc(CO3)2
_symmetry_space_group_name_H-M   'P 1'
_cell_length_a   6.72167277
_cell_length_b   6.72167321
_cell_length_c   6.72167244
_cell_angle_alpha   44.57445373
_cell_angle_beta   44.57445243
_cell_angle_gamma   44.57445481
_symmetry_Int_Tables_number   1
_chemical_formula_structural   RbSc(CO3)2
_chemical_formula_sum   'Rb1 Sc1 C2 O6'
_cell_volume   136.03168269
_cell_formula_units_Z   1
loop_
 _symmetry_equiv_pos_site_id
 _symmetry_equiv_pos_as_xyz
  1  'x, y, z'
loop_
 _atom_site_type_symbol
 _atom_site_label
 _atom_site_symmetry_multiplicity
 _atom_site_fract_x
 _atom_site_fract_y
 _atom_site_fract_z
 _atom_site_occupancy
  Rb  Rb0  1  0.50000000  0.50000000  0.50000000  1
  Sc  Sc0  1  0.00000000  0.00000000  0.00000000  1
  C  C0  1  0.26804580  0.26804580  0.26804580  1
  C  C1  1  0.73195420  0.73195420  0.73195420  1
  O  O0  1  0.17826541  0.55131522  0.07034906  1
  O  O1  1  0.55131622  0.07034906  0.17826541  1
  O  O2  1  0.92965094  0.82173359  0.44868378  1
  O  O3  1  0.07034806  0.17826641  0.55131622  1
  O  O4  1  0.44868378  0.92965094  0.82173459  1
  O  O5  1  0.82173359  0.44868478  0.92964994  1
loop_
_geom_bond_atom_site_label_1
_geom_bond_atom_site_label_2
_geom_bond_distance
_geom_bond_site_symmetry_2
C0 O0 1.286926 1_555
C0 O1 1.286929 1_555
C0 O3 1.286930 1_555
C1 O5 1.286923 1_555
C1 O2 1.286928 1_555
C1 O4 1.286929 1_555
O0 Sc0 2.093346 1_565
O0 Rb0 2.915922 1_554
O1 Sc0 2.093339 1_655
O1 Rb0 2.915925 1_545
O2 Sc0 2.093337 1_665
O2 Rb0 2.915927 1_655
O3 Sc0 2.093340 1_556
O3 Rb0 2.915921 1_455
O4 Sc0 2.093339 1_566
O4 Rb0 2.915925 1_565
O5 Sc0 2.093341 1_656
O5 Rb0 2.915929 1_556
