# generated using pymatgen
data_Hf16MnCo4Ir3
_symmetry_space_group_name_H-M   'P 1'
_cell_length_a   8.54627377
_cell_length_b   8.54627332
_cell_length_c   8.54627407
_cell_angle_alpha   59.81574124
_cell_angle_beta   59.81574491
_cell_angle_gamma   59.81574216
_symmetry_Int_Tables_number   1
_chemical_formula_structural   Hf16MnCo4Ir3
_chemical_formula_sum   'Hf16 Mn1 Co4 Ir3'
_cell_volume   439.53675710
_cell_formula_units_Z   1
loop_
 _symmetry_equiv_pos_site_id
 _symmetry_equiv_pos_as_xyz
  1  'x, y, z'
loop_
 _atom_site_type_symbol
 _atom_site_label
 _atom_site_symmetry_multiplicity
 _atom_site_fract_x
 _atom_site_fract_y
 _atom_site_fract_z
 _atom_site_occupancy
  Hf  Hf0  1  0.06080643  0.64623526  0.64623526  1
  Hf  Hf1  1  0.64623526  0.06080643  0.64623526  1
  Hf  Hf2  1  0.64623526  0.64623526  0.06080643  1
  Hf  Hf3  1  0.64481416  0.64481416  0.64481416  1
  Hf  Hf4  1  0.80135242  0.80135242  0.19899647  1
  Hf  Hf5  1  0.19780759  0.19780759  0.80120035  1
  Hf  Hf6  1  0.80135242  0.19899647  0.80135242  1
  Hf  Hf7  1  0.19780759  0.80120035  0.19780759  1
  Hf  Hf8  1  0.19899647  0.80135242  0.80135242  1
  Hf  Hf9  1  0.80120035  0.19780759  0.19780759  1
  Hf  Hf10  1  0.43627406  0.43627406  0.06603911  1
  Hf  Hf11  1  0.06307583  0.06307583  0.43695662  1
  Hf  Hf12  1  0.43627406  0.06603911  0.43627406  1
  Hf  Hf13  1  0.06307583  0.43695662  0.06307583  1
  Hf  Hf14  1  0.06603911  0.43627406  0.43627406  1
  Hf  Hf15  1  0.43695662  0.06307583  0.06307583  1
  Mn  Mn0  1  0.42110859  0.42110859  0.42110859  1
  Co  Co0  1  0.42538648  0.85755039  0.85755039  1
  Co  Co1  1  0.85755039  0.42538648  0.85755039  1
  Co  Co2  1  0.85755039  0.85755039  0.42538648  1
  Co  Co3  1  0.85818113  0.85818113  0.85818113  1
  Ir  Ir0  1  0.75427036  0.41382559  0.41382559  1
  Ir  Ir1  1  0.41382559  0.75427036  0.41382559  1
  Ir  Ir2  1  0.41382559  0.41382559  0.75427036  1
loop_
_geom_bond_atom_site_label_1
_geom_bond_atom_site_label_2
_geom_bond_distance
_geom_bond_site_symmetry_2
Hf0 Mn0 2.948349 1_555
Hf0 Ir2 2.971711 1_555
Hf0 Ir1 2.971712 1_555
Hf0 Hf14 3.085125 1_555
Hf1 Mn0 2.948349 1_555
Hf1 Ir0 2.971711 1_555
Hf1 Ir2 2.971711 1_555
Hf1 Hf12 3.085125 1_555
Hf2 Mn0 2.948349 1_555
Hf2 Ir0 2.971712 1_555
Hf2 Ir1 2.971712 1_555
Hf3 Ir2 2.978926 1_555
Hf3 Ir1 2.978926 1_555
Hf3 Ir0 2.978926 1_555
Hf4 Ir0 2.997369 1_555
Hf4 Ir1 2.997370 1_555
Hf5 Ir2 2.985882 1_555
Hf5 Mn0 3.005117 1_555
Hf6 Ir2 2.997369 1_555
Hf6 Ir0 2.997370 1_555
Hf7 Ir1 2.985882 1_555
Hf7 Mn0 3.005116 1_555
Hf8 Ir2 2.997369 1_555
Hf8 Ir1 2.997370 1_555
Hf9 Ir0 2.985882 1_555
Hf9 Mn0 3.005117 1_555
Hf10 Ir2 2.870196 1_554
Hf10 Mn0 2.909954 1_555
Hf10 Hf2 3.085125 1_555
Hf10 Hf3 3.098860 1_554
Hf10 Hf12 3.155313 1_555
Hf10 Hf14 3.155313 1_555
Hf10 Hf7 3.159228 1_555
Hf10 Hf9 3.159228 1_555
Hf10 Hf8 3.180770 1_554
Hf10 Hf6 3.180770 1_554
Hf10 Hf15 3.199321 1_555
Hf10 Hf13 3.199322 1_555
Hf11 Ir0 2.821946 1_455
Hf11 Ir1 2.821946 1_545
Hf11 Hf14 3.199321 1_555
Hf11 Hf12 3.199322 1_555
Hf12 Ir1 2.870196 1_545
Hf12 Mn0 2.909954 1_555
Hf12 Hf3 3.098860 1_545
Hf12 Hf14 3.155313 1_555
Hf12 Hf9 3.159228 1_555
Hf12 Hf5 3.159228 1_555
Hf12 Hf8 3.180770 1_545
Hf12 Hf4 3.180770 1_545
Hf12 Hf15 3.199322 1_555
Hf13 Ir2 2.821946 1_554
Hf13 Ir0 2.821946 1_455
Hf13 Hf14 3.199322 1_555
Hf14 Ir0 2.870196 1_455
Hf14 Mn0 2.909954 1_555
Hf14 Hf3 3.098860 1_455
Hf14 Hf7 3.159228 1_555
Hf14 Hf5 3.159228 1_555
Hf14 Hf4 3.180770 1_455
Hf14 Hf6 3.180770 1_455
Hf15 Ir2 2.821946 1_554
Hf15 Ir1 2.821946 1_545
Co0 Hf8 2.511086 1_555
Co0 Hf5 2.513409 1_565
Co0 Hf7 2.513410 1_556
Co0 Hf2 2.560482 1_556
Co0 Hf1 2.560482 1_565
Co0 Hf3 2.568017 1_555
Co0 Hf10 3.086259 1_556
Co0 Hf12 3.086259 1_565
Co1 Hf6 2.511086 1_555
Co1 Hf5 2.513410 1_655
Co1 Hf9 2.513410 1_556
Co1 Hf0 2.560482 1_655
Co1 Hf2 2.560482 1_556
Co1 Hf3 2.568016 1_555
Co1 Hf10 3.086259 1_556
Co1 Hf14 3.086259 1_655
Co2 Hf4 2.511086 1_555
Co2 Hf9 2.513409 1_565
Co2 Hf7 2.513410 1_655
Co2 Hf0 2.560482 1_655
Co2 Hf1 2.560482 1_565
Co2 Hf3 2.568016 1_555
Co2 Hf14 3.086259 1_655
Co2 Hf12 3.086259 1_565
Co3 Hf6 2.519482 1_565
Co3 Hf8 2.519482 1_655
Co3 Hf4 2.519482 1_556
Co3 Hf2 2.559619 1_556
Co3 Hf1 2.559619 1_565
Co3 Hf0 2.559620 1_655
Ir0 Mn0 2.786090 1_555
Ir1 Mn0 2.786090 1_555
Ir2 Mn0 2.786090 1_555
