# generated using pymatgen
data_Y4BI5
_symmetry_space_group_name_H-M   'P 1'
_cell_length_a   9.71083201
_cell_length_b   9.71083256
_cell_length_c   8.61824556
_cell_angle_alpha   77.59107460
_cell_angle_beta   77.59107250
_cell_angle_gamma   24.18720438
_symmetry_Int_Tables_number   1
_chemical_formula_structural   Y4BI5
_chemical_formula_sum   'Y4 B1 I5'
_cell_volume   324.83965163
_cell_formula_units_Z   1
loop_
 _symmetry_equiv_pos_site_id
 _symmetry_equiv_pos_as_xyz
  1  'x, y, z'
loop_
 _atom_site_type_symbol
 _atom_site_label
 _atom_site_symmetry_multiplicity
 _atom_site_fract_x
 _atom_site_fract_y
 _atom_site_fract_z
 _atom_site_occupancy
  Y  Y0  1  0.36431520  0.36431520  0.06924634  1
  Y  Y1  1  0.00069183  0.00069183  0.19567309  1
  Y  Y2  1  0.63568480  0.63568480  0.93075366  1
  Y  Y3  1  0.99930817  0.99930817  0.80432691  1
  B  B0  1  0.50000000  0.50000000  0.00000000  1
  I  I0  1  0.83400638  0.83400638  0.34228086  1
  I  I1  1  0.82811335  0.82811335  0.82600700  1
  I  I2  1  0.17188665  0.17188665  0.17399300  1
  I  I3  1  0.50000000  0.50000000  0.50000000  1
  I  I4  1  0.16599362  0.16599362  0.65771914  1
loop_
_geom_bond_atom_site_label_1
_geom_bond_atom_site_label_2
_geom_bond_distance
_geom_bond_site_symmetry_2
B0 Y2 2.513931 1_554
B0 Y0 2.513931 1_555
B0 Y1 2.644418 1_565
B0 Y3 2.644418 1_544
B0 Y1 2.644419 1_655
B0 Y3 2.644419 1_454
I0 Y0 3.067933 1_655
I0 Y0 3.067933 1_565
I0 Y1 3.139850 1_665
I1 Y0 3.104801 1_566
I1 Y0 3.104801 1_656
I1 Y3 3.215207 1_555
I1 Y2 3.566394 1_555
I2 Y2 3.104801 1_544
I2 Y2 3.104801 1_454
I2 Y1 3.215207 1_555
I2 Y0 3.566394 1_555
I3 Y3 3.317100 1_455
I3 Y1 3.317100 1_655
I3 Y3 3.317100 1_545
I3 Y1 3.317100 1_565
I4 Y2 3.067933 1_455
I4 Y2 3.067933 1_545
I4 Y3 3.139850 1_445
