# generated using pymatgen
data_PuZn2
_symmetry_space_group_name_H-M   'P 1'
_cell_length_a   5.41333625
_cell_length_b   5.41333571
_cell_length_c   5.41333622
_cell_angle_alpha   59.99996324
_cell_angle_beta   59.99996956
_cell_angle_gamma   59.99996958
_symmetry_Int_Tables_number   1
_chemical_formula_structural   PuZn2
_chemical_formula_sum   'Pu2 Zn4'
_cell_volume   112.17075654
_cell_formula_units_Z   2
loop_
 _symmetry_equiv_pos_site_id
 _symmetry_equiv_pos_as_xyz
  1  'x, y, z'
loop_
 _atom_site_type_symbol
 _atom_site_label
 _atom_site_symmetry_multiplicity
 _atom_site_fract_x
 _atom_site_fract_y
 _atom_site_fract_z
 _atom_site_occupancy
  Pu  Pu0  1  0.12500000  0.12500000  0.12500000  1
  Pu  Pu1  1  0.87500000  0.87500000  0.87500000  1
  Zn  Zn0  1  0.50000000  -0.00000000  0.50000000  1
  Zn  Zn1  1  0.00000000  0.50000000  0.50000000  1
  Zn  Zn2  1  0.50000000  0.50000000  0.50000000  1
  Zn  Zn3  1  0.50000000  0.50000000  0.00000000  1
loop_
_geom_bond_atom_site_label_1
_geom_bond_atom_site_label_2
_geom_bond_distance
_geom_bond_site_symmetry_2
Pu0 Zn2 3.173848 1_545
Pu0 Zn2 3.173848 1_554
Pu0 Zn2 3.173848 1_455
Pu0 Zn1 3.173848 1_545
Pu0 Zn1 3.173849 1_554
Pu0 Zn3 3.173849 1_545
Pu0 Zn0 3.173849 1_455
Pu0 Zn3 3.173849 1_455
Pu0 Zn0 3.173849 1_554
Pu0 Zn3 3.173850 1_555
Pu0 Zn1 3.173850 1_555
Pu0 Zn0 3.173850 1_555
Pu0 Pu1 3.314976 1_454
Pu0 Pu1 3.314976 1_445
Pu0 Pu1 3.314977 1_544
Pu0 Pu1 3.314979 1_444
Pu1 Zn2 3.173848 1_565
Pu1 Zn2 3.173848 1_556
Pu1 Zn2 3.173848 1_655
Pu1 Zn1 3.173848 1_665
Pu1 Zn1 3.173849 1_656
Pu1 Zn3 3.173849 1_566
Pu1 Zn0 3.173849 1_665
Pu1 Zn3 3.173849 1_656
Pu1 Zn0 3.173849 1_566
Pu1 Zn3 3.173850 1_556
Pu1 Zn1 3.173850 1_655
Pu1 Zn0 3.173850 1_565
Zn0 Zn3 2.706666 1_555
Zn0 Zn3 2.706666 1_546
Zn0 Zn1 2.706667 1_645
Zn0 Zn1 2.706667 1_555
Zn0 Zn2 2.706668 1_545
Zn0 Zn2 2.706668 1_555
Zn1 Zn3 2.706667 1_555
Zn1 Zn3 2.706667 1_456
Zn1 Zn2 2.706668 1_455
Zn1 Zn2 2.706668 1_555
Zn2 Zn3 2.706668 1_555
Zn2 Zn3 2.706668 1_556
