# generated using pymatgen
data_CaSn4(Rh2Pb)2
_symmetry_space_group_name_H-M   'P 1'
_cell_length_a   6.99310775
_cell_length_b   6.99310820
_cell_length_c   6.97411202
_cell_angle_alpha   120.00745365
_cell_angle_beta   120.00745408
_cell_angle_gamma   90.14277383
_symmetry_Int_Tables_number   1
_chemical_formula_structural   CaSn4(Rh2Pb)2
_chemical_formula_sum   'Ca1 Sn4 Rh4 Pb2'
_cell_volume   240.80834218
_cell_formula_units_Z   1
loop_
 _symmetry_equiv_pos_site_id
 _symmetry_equiv_pos_as_xyz
  1  'x, y, z'
loop_
 _atom_site_type_symbol
 _atom_site_label
 _atom_site_symmetry_multiplicity
 _atom_site_fract_x
 _atom_site_fract_y
 _atom_site_fract_z
 _atom_site_occupancy
  Ca  Ca0  1  0.99687767  0.99687767  0.00000000  1
  Sn  Sn0  1  0.87323685  0.87323685  0.34032506  1
  Sn  Sn1  1  0.50298468  0.00298468  0.50000000  1
  Sn  Sn2  1  0.00298468  0.50298468  0.50000000  1
  Sn  Sn3  1  0.53291079  0.53291079  0.65967394  1
  Rh  Rh0  1  0.74844099  0.40326038  0.00000000  1
  Rh  Rh1  1  0.40326038  0.74844099  0.00000000  1
  Rh  Rh2  1  0.61519814  0.61519814  0.37884763  1
  Rh  Rh3  1  0.23634851  0.23634851  0.62115237  1
  Pb  Pb0  1  0.46251082  0.12524647  0.00000000  1
  Pb  Pb1  1  0.12524647  0.46251082  0.00000000  1
loop_
_geom_bond_atom_site_label_1
_geom_bond_atom_site_label_2
_geom_bond_distance
_geom_bond_site_symmetry_2
Ca0 Rh2 3.138251 1_554
Ca0 Rh3 3.138256 1_665
Ca0 Rh1 3.334553 1_655
Ca0 Rh0 3.334553 1_565
Ca0 Sn0 3.351130 1_555
Ca0 Sn3 3.351136 1_554
Ca0 Pb0 3.375541 1_665
Ca0 Pb1 3.375541 1_665
Ca0 Sn1 3.491942 1_665
Ca0 Sn1 3.491942 1_564
Ca0 Sn2 3.491942 1_665
Ca0 Sn2 3.491942 1_654
Rh0 Sn1 2.677200 1_554
Rh0 Sn2 2.677200 1_655
Rh0 Sn0 2.703366 1_555
Rh0 Sn3 2.703367 1_554
Rh0 Rh2 2.932271 1_555
Rh0 Rh3 2.932280 1_554
Rh1 Sn2 2.677200 1_554
Rh1 Sn1 2.677200 1_565
Rh1 Sn0 2.703366 1_555
Rh1 Sn3 2.703367 1_554
Rh1 Rh2 2.932271 1_555
Rh1 Rh3 2.932280 1_554
Rh2 Sn3 2.598257 1_555
Rh2 Sn2 2.658138 1_655
Rh2 Sn1 2.658138 1_565
Rh2 Sn0 2.745569 1_555
Rh3 Sn0 2.598238 1_445
Rh3 Sn1 2.658143 1_555
Rh3 Sn2 2.658143 1_555
Rh3 Sn3 2.745583 1_555
Pb0 Rh1 2.666399 1_545
Pb0 Rh0 2.785432 1_555
Pb0 Rh3 2.822336 1_554
Pb0 Rh2 2.822345 1_555
Pb1 Rh0 2.666399 1_455
Pb1 Rh1 2.785432 1_555
Pb1 Rh3 2.822336 1_554
Pb1 Rh2 2.822345 1_555
