# generated using pymatgen
data_Ho10Ti6O27
_symmetry_space_group_name_H-M   'P 1'
_cell_length_a   7.44523069
_cell_length_b   7.44523069
_cell_length_c   12.15810288
_cell_angle_alpha   71.14871072
_cell_angle_beta   71.14871072
_cell_angle_gamma   61.41629314
_symmetry_Int_Tables_number   1
_chemical_formula_structural   Ho10Ti6O27
_chemical_formula_sum   'Ho10 Ti6 O27'
_cell_volume   548.42008862
_cell_formula_units_Z   1
loop_
 _symmetry_equiv_pos_site_id
 _symmetry_equiv_pos_as_xyz
  1  'x, y, z'
loop_
 _atom_site_type_symbol
 _atom_site_label
 _atom_site_symmetry_multiplicity
 _atom_site_fract_x
 _atom_site_fract_y
 _atom_site_fract_z
 _atom_site_occupancy
  Ho  Ho0  1  0.51787400  0.98949600  0.01844500  1
  Ho  Ho1  1  0.27869300  0.72117700  0.24679200  1
  Ho  Ho2  1  0.98949600  0.51787400  0.01844500  1
  Ho  Ho3  1  0.26002400  0.26002400  0.74949000  1
  Ho  Ho4  1  0.72117700  0.27869300  0.24679200  1
  Ho  Ho5  1  0.75071200  0.26559000  0.75089100  1
  Ho  Ho6  1  0.26712800  0.26712800  0.24330800  1
  Ho  Ho7  1  0.26559000  0.75071200  0.75089100  1
  Ho  Ho8  1  0.00354600  0.00354600  0.47874300  1
  Ho  Ho9  1  0.74581000  0.74581000  0.75405200  1
  Ti  Ti0  1  0.99771500  0.99771500  0.00393100  1
  Ti  Ti1  1  0.49765500  0.49765500  0.48871900  1
  Ti  Ti2  1  0.98463200  0.49119800  0.50037000  1
  Ti  Ti3  1  0.49141500  0.49141500  0.98353000  1
  Ti  Ti4  1  0.49119800  0.98463200  0.50037000  1
  Ti  Ti5  1  0.73887800  0.73887800  0.28211200  1
  O  O0  1  0.58057500  0.58057500  0.30646800  1
  O  O1  1  0.23327000  0.90702300  0.06471000  1
  O  O2  1  0.00561900  0.63841500  0.31539600  1
  O  O3  1  0.45214800  0.45214800  0.16120300  1
  O  O4  1  0.90702300  0.23327000  0.06471000  1
  O  O5  1  0.87136800  0.27614700  0.55242900  1
  O  O6  1  0.06300900  0.06300900  0.83238900  1
  O  O7  1  0.95581800  0.37962000  0.22985600  1
  O  O8  1  0.24494600  0.24494600  0.43839000  1
  O  O9  1  0.30521300  0.30521300  0.04418000  1
  O  O10  1  0.63841500  0.00561900  0.31539600  1
  O  O11  1  0.61529500  0.22867200  0.45624000  1
  O  O12  1  0.58335800  0.05317800  0.81549900  1
  O  O13  1  0.37962000  0.95581800  0.22985600  1
  O  O14  1  0.27614700  0.87136800  0.55242900  1
  O  O15  1  0.43352000  0.98621500  0.66018400  1
  O  O16  1  0.65024900  0.65024900  0.97064900  1
  O  O17  1  0.82414800  0.82414800  0.54939800  1
  O  O18  1  0.82568600  0.82568600  0.09989400  1
  O  O19  1  0.05317800  0.58335800  0.81549900  1
  O  O20  1  0.22867200  0.61529500  0.45624000  1
  O  O21  1  0.56628800  0.56628800  0.80033500  1
  O  O22  1  0.21590500  0.68124200  0.95329800  1
  O  O23  1  0.98621500  0.43352000  0.66018400  1
  O  O24  1  0.66516400  0.66516400  0.46599400  1
  O  O25  1  0.44386700  0.44386700  0.65649600  1
  O  O26  1  0.68124200  0.21590500  0.95329800  1
loop_
_geom_bond_atom_site_label_1
_geom_bond_atom_site_label_2
_geom_bond_distance
_geom_bond_site_symmetry_2
Ho0 O9 2.173459 1_565
Ho0 O12 2.288784 1_564
Ho0 O26 2.329113 1_564
Ho0 O1 2.331291 1_555
Ho0 O18 2.394094 1_555
Ho0 O13 2.418648 1_555
Ho0 O16 2.425893 1_554
Ho1 O13 2.140691 1_555
Ho1 O3 2.183092 1_555
Ho1 O2 2.231509 1_555
Ho1 O0 2.232824 1_555
Ho1 O1 2.232995 1_555
Ho1 O20 2.369718 1_555
Ho2 O9 2.173459 1_655
Ho2 O19 2.288784 1_654
Ho2 O22 2.329113 1_654
Ho2 O4 2.331291 1_555
Ho2 O18 2.394094 1_555
Ho2 O7 2.418648 1_555
Ho2 O16 2.425893 1_554
Ho3 O25 2.194964 1_555
Ho3 O23 2.237760 1_455
Ho3 O15 2.237760 1_545
Ho3 O6 2.338167 1_555
Ho3 O19 2.390222 1_555
Ho3 O12 2.390222 1_555
Ho4 O7 2.140691 1_555
Ho4 O3 2.183092 1_555
Ho4 O10 2.231509 1_555
Ho4 O0 2.232824 1_555
Ho4 O4 2.232995 1_555
Ho4 O11 2.369718 1_555
Ho5 O21 2.157227 1_555
Ho5 O12 2.262914 1_555
Ho5 O5 2.275874 1_555
Ho5 O26 2.287485 1_555
Ho5 O23 2.410560 1_555
Ho5 O6 2.414584 1_655
Ho5 O25 2.471103 1_555
Ho6 O13 2.097433 1_545
Ho6 O7 2.097433 1_455
Ho6 O3 2.197745 1_555
Ho6 O8 2.280339 1_555
Ho6 O9 2.282942 1_555
Ho6 O10 2.741035 1_555
Ho6 O2 2.741035 1_555
Ho7 O21 2.157227 1_555
Ho7 O19 2.262914 1_555
Ho7 O14 2.275874 1_555
Ho7 O22 2.287485 1_555
Ho7 O15 2.410560 1_555
Ho7 O6 2.414584 1_565
Ho7 O25 2.471103 1_555
Ho8 O17 2.128392 1_445
Ho8 O14 2.141103 1_545
Ho8 O5 2.141103 1_455
Ho8 O20 2.611227 1_545
Ho8 O11 2.611227 1_455
Ho9 O21 2.151026 1_555
Ho9 O19 2.265013 1_655
Ho9 O12 2.265013 1_565
Ho9 O17 2.306809 1_555
Ho9 O16 2.451543 1_555
Ho9 O23 2.514881 1_555
Ho9 O15 2.514881 1_555
O0 Ti5 1.934949 1_555
O0 Ti1 2.066114 1_555
O1 Ti0 1.859994 1_455
O2 Ti5 1.889329 1_455
O2 Ti2 2.151124 1_455
O3 Ti3 2.025543 1_554
O4 Ti0 1.859994 1_545
O5 Ti2 1.991838 1_555
O6 Ti0 1.933446 1_446
O7 Ti5 2.543201 1_555
O8 Ti4 2.057753 1_545
O8 Ti2 2.057753 1_455
O9 Ti3 2.214788 1_554
O10 Ti5 1.889329 1_545
O10 Ti4 2.151124 1_545
O11 Ti1 1.882223 1_555
O11 Ti4 2.258050 1_545
O13 Ti5 2.543201 1_555
O14 Ti4 1.991838 1_555
O15 Ti4 1.852210 1_555
O16 Ti3 1.979946 1_555
O17 Ti2 2.363960 1_555
O17 Ti4 2.363960 1_555
O18 Ti0 2.068931 1_555
O18 Ti5 2.071870 1_555
O20 Ti1 1.882223 1_555
O20 Ti2 2.258050 1_455
O21 Ti3 2.067610 1_555
O22 Ti3 1.928108 1_555
O22 Ti0 2.279945 1_456
O23 Ti2 1.852210 1_555
O24 Ti1 2.056703 1_555
O24 Ti5 2.074362 1_555
O24 Ti2 2.203250 1_555
O24 Ti4 2.203250 1_555
O25 Ti1 1.891931 1_555
O26 Ti3 1.928108 1_555
O26 Ti0 2.279945 1_546
