# generated using pymatgen
data_CsRb3(SnTe5)2
_symmetry_space_group_name_H-M   'P 1'
_cell_length_a   10.05471185
_cell_length_b   10.05471224
_cell_length_c   10.05471188
_cell_angle_alpha   127.57023228
_cell_angle_beta   127.57023308
_cell_angle_gamma   77.32227806
_symmetry_Int_Tables_number   1
_chemical_formula_structural   CsRb3(SnTe5)2
_chemical_formula_sum   'Cs1 Rb3 Sn2 Te10'
_cell_volume   619.54125012
_cell_formula_units_Z   1
loop_
 _symmetry_equiv_pos_site_id
 _symmetry_equiv_pos_as_xyz
  1  'x, y, z'
loop_
 _atom_site_type_symbol
 _atom_site_label
 _atom_site_symmetry_multiplicity
 _atom_site_fract_x
 _atom_site_fract_y
 _atom_site_fract_z
 _atom_site_occupancy
  Cs  Cs0  1  0.99659583  0.99659583  0.00000000  1
  Rb  Rb0  1  0.24529654  0.24529654  0.00000000  1
  Rb  Rb1  1  0.74773239  0.74773239  0.00000000  1
  Rb  Rb2  1  0.49645233  0.49645233  0.00000000  1
  Sn  Sn0  1  0.24674271  0.74674271  0.50000000  1
  Sn  Sn1  1  0.74674271  0.24674271  0.50000000  1
  Te  Te0  1  0.96042483  0.46528045  0.15573023  1
  Te  Te1  1  0.46528045  0.30955023  0.50485562  1
  Te  Te2  1  0.80469461  0.96042483  0.49514438  1
  Te  Te3  1  0.30955023  0.80469461  0.84426977  1
  Te  Te4  1  0.68339623  0.18865716  0.15542674  1
  Te  Te5  1  0.18865716  0.03323042  0.50526093  1
  Te  Te6  1  0.52796849  0.68339623  0.49473907  1
  Te  Te7  1  0.03323042  0.52796849  0.84457326  1
  Te  Te8  1  0.99671704  0.49671704  0.50000000  1
  Te  Te9  1  0.49671704  0.99671704  0.50000000  1
loop_
_geom_bond_atom_site_label_1
_geom_bond_atom_site_label_2
_geom_bond_distance
_geom_bond_site_symmetry_2
Cs0 Te1 3.966792 1_665
Cs0 Te2 3.966793 1_554
Cs0 Te3 3.966793 1_654
Cs0 Te0 3.966793 1_565
Cs0 Te5 3.967420 1_665
Cs0 Te4 3.967420 1_565
Cs0 Te6 3.967426 1_554
Cs0 Te7 3.967430 1_654
Rb0 Te7 3.709405 1_554
Rb0 Te6 3.709412 1_555
Rb0 Te5 3.709414 1_554
Rb0 Te4 3.709414 1_555
Rb0 Te2 3.743442 1_444
Rb0 Te1 3.743442 1_555
Rb0 Te0 3.743442 1_455
Rb0 Te3 3.743442 1_544
Rb1 Te1 3.710009 1_554
Rb1 Te2 3.710009 1_555
Rb1 Te3 3.710009 1_554
Rb1 Te0 3.710009 1_555
Rb1 Te6 3.747076 1_554
Rb1 Te5 3.747078 1_665
Rb1 Te4 3.747078 1_565
Rb1 Te7 3.747080 1_654
Rb2 Te7 3.913502 1_554
Rb2 Te5 3.913503 1_554
Rb2 Te4 3.913503 1_555
Rb2 Te6 3.913509 1_555
Rb2 Te2 3.919450 1_555
Rb2 Te1 3.919450 1_554
Rb2 Te0 3.919450 1_555
Rb2 Te3 3.919450 1_554
Sn0 Te6 2.784751 1_555
Sn0 Te5 2.784761 1_565
Sn0 Te0 2.785076 1_455
Sn0 Te3 2.785076 1_555
Sn1 Te7 2.784756 1_655
Sn1 Te4 2.784761 1_555
Sn1 Te1 2.785076 1_555
Sn1 Te2 2.785076 1_545
Te0 Te8 3.064520 1_555
Te1 Te9 3.064520 1_545
Te2 Te9 3.064520 1_555
Te3 Te8 3.064520 1_455
Te4 Te8 3.067373 1_555
Te5 Te9 3.067373 1_545
Te6 Te9 3.067375 1_555
Te7 Te8 3.067379 1_455
