# generated using pymatgen
data_RbNi6(BIr)6
_symmetry_space_group_name_H-M   'P 1'
_cell_length_a   6.30718433
_cell_length_b   6.30718348
_cell_length_c   6.30718505
_cell_angle_alpha   103.40513416
_cell_angle_beta   103.40512975
_cell_angle_gamma   103.40511401
_symmetry_Int_Tables_number   1
_chemical_formula_structural   RbNi6(BIr)6
_chemical_formula_sum   'Rb1 Ni6 B6 Ir6'
_cell_volume   226.34722672
_cell_formula_units_Z   1
loop_
 _symmetry_equiv_pos_site_id
 _symmetry_equiv_pos_as_xyz
  1  'x, y, z'
loop_
 _atom_site_type_symbol
 _atom_site_label
 _atom_site_symmetry_multiplicity
 _atom_site_fract_x
 _atom_site_fract_y
 _atom_site_fract_z
 _atom_site_occupancy
  Rb  Rb0  1  0.00000000  0.00000000  0.00000000  1
  Ni  Ni0  1  0.53814541  0.79847762  0.53814541  1
  Ni  Ni1  1  0.53814541  0.53814541  0.79847762  1
  Ni  Ni2  1  0.79847762  0.53814541  0.53814541  1
  Ni  Ni3  1  0.46185459  0.20152238  0.46185459  1
  Ni  Ni4  1  0.46185459  0.46185459  0.20152238  1
  Ni  Ni5  1  0.20152238  0.46185459  0.46185459  1
  B  B0  1  0.77021213  0.34738021  0.77021213  1
  B  B1  1  0.77021213  0.77021213  0.34738021  1
  B  B2  1  0.34738021  0.77021213  0.77021213  1
  B  B3  1  0.22978787  0.65261979  0.22978787  1
  B  B4  1  0.22978787  0.22978787  0.65261979  1
  B  B5  1  0.65261979  0.22978787  0.22978787  1
  Ir  Ir0  1  0.13931739  0.86068261  0.50000000  1
  Ir  Ir1  1  0.50000000  0.13931739  0.86068261  1
  Ir  Ir2  1  0.86068261  0.50000000  0.13931739  1
  Ir  Ir3  1  0.50000000  0.86068261  0.13931739  1
  Ir  Ir4  1  0.13931739  0.50000000  0.86068261  1
  Ir  Ir5  1  0.86068261  0.13931739  0.50000000  1
loop_
_geom_bond_atom_site_label_1
_geom_bond_atom_site_label_2
_geom_bond_distance
_geom_bond_site_symmetry_2
Ni0 Rb0 3.349430 1_666
Ni1 Rb0 3.349430 1_666
Ni2 Rb0 3.349430 1_666
Ni3 Rb0 3.349430 1_555
Ni4 Rb0 3.349430 1_555
Ni5 Rb0 3.349430 1_555
B0 Ni1 2.111855 1_555
B0 Ni2 2.111855 1_555
B0 Ir5 2.171032 1_555
B0 Ir1 2.171033 1_555
B0 Ir2 2.182241 1_556
B0 Ir4 2.182241 1_655
B0 Ni3 2.235691 1_555
B0 Rb0 3.312435 1_656
B1 Ni2 2.111855 1_555
B1 Ni0 2.111855 1_555
B1 Ir2 2.171032 1_555
B1 Ir3 2.171032 1_555
B1 Ir5 2.182240 1_565
B1 Ir0 2.182241 1_655
B1 Ni4 2.235691 1_555
B1 Rb0 3.312436 1_665
B2 Ni1 2.111855 1_555
B2 Ni0 2.111856 1_555
B2 Ir0 2.171032 1_555
B2 Ir4 2.171032 1_555
B2 Ir1 2.182240 1_565
B2 Ir3 2.182241 1_556
B2 Ni5 2.235691 1_555
B2 Rb0 3.312435 1_566
B3 Ni4 2.111855 1_555
B3 Ni5 2.111855 1_555
B3 Ir0 2.171032 1_555
B3 Ir3 2.171033 1_555
B3 Ir4 2.182241 1_554
B3 Ir2 2.182241 1_455
B3 Ni0 2.235691 1_555
B3 Rb0 3.312435 1_565
B4 Ni5 2.111855 1_555
B4 Ni3 2.111855 1_555
B4 Ir4 2.171032 1_555
B4 Ir1 2.171032 1_555
B4 Ir0 2.182240 1_545
B4 Ir5 2.182241 1_455
B4 Ni1 2.235691 1_555
B4 Rb0 3.312436 1_556
B5 Ni4 2.111855 1_555
B5 Ni3 2.111856 1_555
B5 Ir5 2.171032 1_555
B5 Ir2 2.171032 1_555
B5 Ir3 2.182240 1_545
B5 Ir1 2.182241 1_554
B5 Ni2 2.235691 1_555
B5 Rb0 3.312435 1_655
Ir0 Rb0 3.442002 1_566
Ir0 Rb0 3.442002 1_565
Ir1 Rb0 3.442002 1_656
Ir1 Rb0 3.442002 1_556
Ir2 Rb0 3.442002 1_655
Ir2 Rb0 3.442002 1_665
Ir3 Rb0 3.442002 1_565
Ir3 Rb0 3.442002 1_665
Ir4 Rb0 3.442002 1_566
Ir4 Rb0 3.442002 1_556
Ir5 Rb0 3.442002 1_655
Ir5 Rb0 3.442002 1_656
