# generated using pymatgen
data_Hf6Al9(CoSi)7
_symmetry_space_group_name_H-M   'P 1'
_cell_length_a   8.23295031
_cell_length_b   8.25699571
_cell_length_c   8.25795915
_cell_angle_alpha   60.01083554
_cell_angle_beta   59.91578541
_cell_angle_gamma   59.91065346
_symmetry_Int_Tables_number   1
_chemical_formula_structural   Hf6Al9(CoSi)7
_chemical_formula_sum   'Hf6 Al9 Co7 Si7'
_cell_volume   396.46041954
_cell_formula_units_Z   1
loop_
 _symmetry_equiv_pos_site_id
 _symmetry_equiv_pos_as_xyz
  1  'x, y, z'
loop_
 _atom_site_type_symbol
 _atom_site_label
 _atom_site_symmetry_multiplicity
 _atom_site_fract_x
 _atom_site_fract_y
 _atom_site_fract_z
 _atom_site_occupancy
  Hf  Hf0  1  0.69283033  0.30693328  0.30692234  1
  Hf  Hf1  1  0.30866937  0.69314353  0.69315296  1
  Hf  Hf2  1  0.30864358  0.69316578  0.30502235  1
  Hf  Hf3  1  0.69286781  0.30689890  0.69333693  1
  Hf  Hf4  1  0.30865520  0.30502879  0.69316113  1
  Hf  Hf5  1  0.69285122  0.69332559  0.30690648  1
  Al  Al0  1  0.99866029  0.66710520  0.66712993  1
  Al  Al1  1  0.11999002  0.12034055  0.12034391  1
  Al  Al2  1  0.88178893  0.88138173  0.88136721  1
  Al  Al3  1  0.11998882  0.12036238  0.63928925  1
  Al  Al4  1  0.11998995  0.63931375  0.12035398  1
  Al  Al5  1  0.88179712  0.88136325  0.35546166  1
  Al  Al6  1  0.88179463  0.35546294  0.88135881  1
  Al  Al7  1  0.63884609  0.12039165  0.12038045  1
  Al  Al8  1  0.35976070  0.88007796  0.88007279  1
  Co  Co0  1  0.49935618  0.00088421  0.00088680  1
  Co  Co1  1  0.00033893  0.49583525  0.49584481  1
  Co  Co2  1  0.00035028  0.49583682  0.00798534  1
  Co  Co3  1  0.49936409  0.00087228  0.49888542  1
  Co  Co4  1  0.00034212  0.00797939  0.49584958  1
  Co  Co5  1  0.49936313  0.49887506  0.00087868  1
  Co  Co6  1  0.00122179  0.99959094  0.99958755  1
  Si  Si0  1  0.33795595  0.33957507  0.33956495  1
  Si  Si1  1  0.66556040  0.66169648  0.66170704  1
  Si  Si2  1  0.33793332  0.33955995  0.98294431  1
  Si  Si3  1  0.33794984  0.98292549  0.33955562  1
  Si  Si4  1  0.66557235  0.66171696  0.01100088  1
  Si  Si5  1  0.66556563  0.01101807  0.66171934  1
  Si  Si6  1  0.98199093  0.33933976  0.33933150  1
loop_
_geom_bond_atom_site_label_1
_geom_bond_atom_site_label_2
_geom_bond_distance
_geom_bond_site_symmetry_2
Hf0 Si6 2.675777 1_555
Hf0 Si0 2.678600 1_555
Hf0 Si4 2.708870 1_555
Hf0 Si5 2.709034 1_555
Hf1 Si2 2.682708 1_555
Hf1 Si3 2.682875 1_555
Hf1 Si1 2.702909 1_555
Hf2 Si0 2.682096 1_555
Hf2 Si3 2.682104 1_555
Hf2 Si4 2.703704 1_555
Hf3 Si6 2.676570 1_555
Hf3 Si2 2.679473 1_555
Hf3 Si5 2.708231 1_555
Hf3 Si1 2.708251 1_555
Hf4 Si2 2.682391 1_555
Hf4 Si0 2.682541 1_555
Hf4 Si5 2.703283 1_555
Hf5 Si6 2.676104 1_555
Hf5 Si3 2.678997 1_555
Hf5 Si4 2.708529 1_555
Hf5 Si1 2.708706 1_555
Al0 Co1 2.441567 1_655
Al0 Co4 2.441814 1_665
Al0 Co2 2.441982 1_656
Al0 Al2 2.627095 1_555
Al0 Al6 2.627202 1_555
Al0 Al5 2.627494 1_555
Al0 Hf1 2.784397 1_655
Al0 Hf4 2.784728 1_655
Al0 Hf2 2.785264 1_655
Al0 Si1 2.787948 1_555
Al0 Si5 2.788166 1_565
Al0 Si4 2.788352 1_556
Al1 Co6 2.427675 1_544
Al1 Co2 2.534220 1_555
Al1 Co4 2.534715 1_555
Al1 Co0 2.548694 1_555
Al1 Si2 2.635498 1_554
Al1 Si3 2.635574 1_545
Al1 Si6 2.641994 1_455
Al1 Al5 2.782431 1_445
Al1 Al6 2.782444 1_454
Al1 Al8 2.801922 1_544
Al1 Hf0 2.936543 1_455
Al1 Hf2 2.946755 1_545
Al1 Hf4 2.947283 1_554
Al2 Co6 2.397893 1_655
Al2 Co0 2.569839 1_566
Al2 Co2 2.600057 1_656
Al2 Co4 2.600311 1_665
Al2 Si5 2.643926 1_565
Al2 Si4 2.643944 1_556
Al2 Al4 2.782496 1_656
Al2 Al3 2.782512 1_665
Al2 Al7 2.787324 1_566
Al2 Hf1 2.940157 1_655
Al2 Hf3 2.943259 1_565
Al2 Hf5 2.943893 1_556
Al3 Co6 2.428594 1_545
Al3 Co4 2.533694 1_555
Al3 Co1 2.534090 1_555
Al3 Co3 2.548778 1_555
Al3 Si3 2.635831 1_545
Al3 Si0 2.635924 1_555
Al3 Si6 2.641986 1_455
Al3 Al6 2.782459 1_455
Al3 Al8 2.801984 1_545
Al3 Hf3 2.935983 1_455
Al3 Hf4 2.946401 1_555
Al3 Hf1 2.946889 1_545
Al4 Co6 2.428044 1_554
Al4 Co2 2.533790 1_555
Al4 Co1 2.534632 1_555
Al4 Co5 2.548753 1_555
Al4 Si2 2.635610 1_554
Al4 Si0 2.635760 1_555
Al4 Si6 2.642008 1_455
Al4 Al5 2.782372 1_455
Al4 Al8 2.801917 1_554
Al4 Hf5 2.936275 1_455
Al4 Hf2 2.946288 1_555
Al4 Hf1 2.947339 1_554
Al5 Co6 2.398721 1_654
Al5 Co3 2.569888 1_565
Al5 Co4 2.599737 1_665
Al5 Co1 2.599970 1_655
Al5 Si5 2.644493 1_565
Al5 Si1 2.644501 1_555
Al5 Al7 2.787301 1_565
Al5 Hf2 2.939697 1_655
Al5 Hf5 2.942905 1_555
Al5 Hf0 2.943521 1_565
Al6 Co6 2.398303 1_645
Al6 Co5 2.569850 1_556
Al6 Co2 2.599770 1_656
Al6 Co1 2.600299 1_655
Al6 Si4 2.644162 1_556
Al6 Si1 2.644203 1_555
Al6 Al7 2.787287 1_556
Al6 Hf4 2.939920 1_655
Al6 Hf3 2.942783 1_555
Al6 Hf0 2.944013 1_556
Al7 Co6 2.432686 1_644
Al7 Co0 2.551879 1_555
Al7 Co5 2.552199 1_555
Al7 Co3 2.552780 1_555
Al7 Si2 2.640226 1_554
Al7 Si3 2.640394 1_545
Al7 Si0 2.640499 1_555
Al7 Hf0 2.947498 1_555
Al7 Hf5 2.947817 1_545
Al7 Hf3 2.948045 1_554
Al8 Co6 2.406929 1_555
Al8 Co0 2.570038 1_566
Al8 Co5 2.570328 1_556
Al8 Co3 2.570665 1_565
Al8 Si4 2.643366 1_556
Al8 Si5 2.643519 1_565
Al8 Si1 2.643613 1_555
Al8 Hf1 2.936953 1_555
Al8 Hf4 2.937328 1_565
Al8 Hf2 2.937709 1_556
Co0 Si2 2.380125 1_554
Co0 Si3 2.380456 1_545
Co0 Si4 2.400107 1_545
Co0 Si5 2.400477 1_554
Co0 Hf4 2.982635 1_554
Co0 Hf2 2.982678 1_545
Co0 Hf5 2.989508 1_545
Co0 Hf3 2.989594 1_554
Co1 Si6 2.328968 1_455
Co1 Si0 2.351291 1_555
Co1 Si1 2.377792 1_455
Co1 Hf3 2.962922 1_455
Co1 Hf5 2.962989 1_455
Co1 Hf4 3.025026 1_555
Co1 Hf2 3.025049 1_555
Co2 Si6 2.329430 1_455
Co2 Si2 2.350934 1_554
Co2 Si4 2.377668 1_455
Co2 Hf5 2.963271 1_455
Co2 Hf0 2.963357 1_455
Co2 Hf1 3.025388 1_554
Co2 Hf4 3.025394 1_554
Co3 Si3 2.380015 1_545
Co3 Si0 2.380398 1_555
Co3 Si5 2.399935 1_555
Co3 Si1 2.400222 1_545
Co3 Hf1 2.982395 1_545
Co3 Hf4 2.982434 1_555
Co3 Hf5 2.989329 1_545
Co3 Hf0 2.989373 1_555
Co4 Si6 2.329252 1_455
Co4 Si3 2.351190 1_545
Co4 Si5 2.377726 1_455
Co4 Hf3 2.963074 1_455
Co4 Hf0 2.963226 1_455
Co4 Hf1 3.025198 1_545
Co4 Hf2 3.025231 1_545
Co5 Si2 2.379886 1_554
Co5 Si0 2.380612 1_555
Co5 Si4 2.399856 1_555
Co5 Si1 2.400541 1_554
Co5 Hf1 2.982478 1_554
Co5 Hf2 2.982571 1_555
Co5 Hf0 2.989395 1_555
Co5 Hf3 2.989419 1_554
