# generated using pymatgen
data_Cs6Ge2S6O
_symmetry_space_group_name_H-M   'P 1'
_cell_length_a   12.68695893
_cell_length_b   9.12324093
_cell_length_c   9.41411861
_cell_angle_alpha   69.58350012
_cell_angle_beta   90.00000000
_cell_angle_gamma   90.00000000
_symmetry_Int_Tables_number   1
_chemical_formula_structural   Cs6Ge2S6O
_chemical_formula_sum   'Cs12 Ge4 S12 O2'
_cell_volume   1021.19830012
_cell_formula_units_Z   2
loop_
 _symmetry_equiv_pos_site_id
 _symmetry_equiv_pos_as_xyz
  1  'x, y, z'
loop_
 _atom_site_type_symbol
 _atom_site_label
 _atom_site_symmetry_multiplicity
 _atom_site_fract_x
 _atom_site_fract_y
 _atom_site_fract_z
 _atom_site_occupancy
  Cs  Cs0  1  0.32716272  0.99201145  0.00664863  1
  Cs  Cs1  1  0.22262301  0.69338763  0.45276386  1
  Cs  Cs2  1  0.55890551  0.27649308  0.23338807  1
  Cs  Cs3  1  0.82716272  0.50798855  0.99335137  1
  Cs  Cs4  1  0.44109449  0.72350692  0.76661193  1
  Cs  Cs5  1  0.77737699  0.30661237  0.54723614  1
  Cs  Cs6  1  0.05890551  0.22350692  0.76661193  1
  Cs  Cs7  1  0.94109449  0.77649308  0.23338807  1
  Cs  Cs8  1  0.27737699  0.19338763  0.45276386  1
  Cs  Cs9  1  0.72262301  0.80661237  0.54723614  1
  Cs  Cs10  1  0.67283728  0.00798855  0.99335137  1
  Cs  Cs11  1  0.17283728  0.49201145  0.00664863  1
  Ge  Ge0  1  0.48986807  0.35118448  0.68268667  1
  Ge  Ge1  1  0.98986807  0.14881552  0.31731333  1
  Ge  Ge2  1  0.51013193  0.64881552  0.31731333  1
  Ge  Ge3  1  0.01013193  0.85118448  0.68268667  1
  S  S0  1  0.97961321  0.62314416  0.65687275  1
  S  S1  1  0.88787916  0.90933981  0.82239077  1
  S  S2  1  0.82647585  0.12866327  0.24412673  1
  S  S3  1  0.61212084  0.40933981  0.82239077  1
  S  S4  1  0.32647585  0.37133673  0.75587327  1
  S  S5  1  0.11212084  0.09066019  0.17760923  1
  S  S6  1  0.47961321  0.87685584  0.34312725  1
  S  S7  1  0.38787916  0.59066019  0.17760923  1
  S  S8  1  0.02038679  0.37685584  0.34312725  1
  S  S9  1  0.67352415  0.62866327  0.24412673  1
  S  S10  1  0.52038679  0.12314416  0.65687275  1
  S  S11  1  0.17352415  0.87133673  0.75587327  1
  O  O0  1  0.50000000  0.50000000  0.50000000  1
  O  O1  1  0.00000000  0.00000000  0.50000000  1
loop_
_geom_bond_atom_site_label_1
_geom_bond_atom_site_label_2
_geom_bond_distance
_geom_bond_site_symmetry_2
Cs0 S4 3.442346 1_564
Cs0 S5 3.442981 1_565
Cs0 S11 3.521133 1_554
Cs0 S7 3.532648 1_555
Cs0 S6 3.543556 1_555
Cs0 S10 3.941452 1_564
Cs1 S4 3.558346 1_555
Cs1 S0 3.570571 1_455
Cs1 S6 3.645823 1_555
Cs1 S7 3.698336 1_555
Cs1 S11 3.794506 1_555
Cs1 S5 3.906594 1_565
Cs2 S7 3.485535 1_555
Cs2 S9 3.560107 1_555
Cs2 S6 3.569953 1_545
Cs2 S2 3.641116 1_555
Cs2 S3 3.691009 1_554
Cs2 S10 3.768127 1_555
Cs3 S2 3.442346 1_556
Cs3 S3 3.442981 1_555
Cs3 S9 3.521133 1_556
Cs3 S1 3.532648 1_555
Cs3 S0 3.543556 1_555
Cs3 S8 3.941452 1_656
Cs4 S3 3.485535 1_555
Cs4 S4 3.560107 1_555
Cs4 S10 3.569953 1_565
Cs4 S11 3.641116 1_555
Cs4 S7 3.691009 1_556
Cs4 S6 3.768127 1_555
Cs5 S9 3.558346 1_555
Cs5 S8 3.570571 1_655
Cs5 S10 3.645823 1_555
Cs5 S3 3.698336 1_555
Cs5 S2 3.794506 1_555
Cs5 S1 3.906594 1_545
Cs6 S1 3.485535 1_445
Cs6 S11 3.560107 1_545
Cs6 S0 3.569953 1_455
Cs6 S4 3.641116 1_555
Cs6 S5 3.691009 1_556
Cs6 S8 3.768127 1_555
Cs7 S5 3.485535 1_665
Cs7 S2 3.560107 1_565
Cs7 S8 3.569953 1_655
Cs7 S9 3.641116 1_555
Cs7 S1 3.691009 1_554
Cs7 S0 3.768127 1_555
Cs8 S11 3.558346 1_545
Cs8 S10 3.570571 1_555
Cs8 S8 3.645823 1_555
Cs8 S5 3.698336 1_555
Cs8 S4 3.794506 1_555
Cs8 S7 3.906594 1_555
Cs9 S2 3.558346 1_565
Cs9 S6 3.570571 1_555
Cs9 S0 3.645823 1_555
Cs9 S1 3.698336 1_555
Cs9 S9 3.794506 1_555
Cs9 S3 3.906594 1_555
Cs10 S9 3.442346 1_546
Cs10 S1 3.442981 1_545
Cs10 S2 3.521133 1_556
Cs10 S3 3.532648 1_555
Cs10 S10 3.543556 1_555
Cs10 S6 3.941452 1_546
Cs11 S11 3.442346 1_554
Cs11 S7 3.442981 1_555
Cs11 S4 3.521133 1_554
Cs11 S5 3.532648 1_555
Cs11 S8 3.543556 1_555
Cs11 S0 3.941452 1_454
Ge0 O0 1.785656 1_555
Ge0 S10 2.211346 1_555
Ge0 S4 2.212240 1_555
Ge0 S3 2.214434 1_555
Ge1 O1 1.785656 1_655
Ge1 S8 2.211346 1_655
Ge1 S2 2.212240 1_555
Ge1 S5 2.214434 1_655
Ge2 O0 1.785656 1_555
Ge2 S6 2.211346 1_555
Ge2 S9 2.212240 1_555
Ge2 S7 2.214434 1_555
Ge3 O1 1.785656 1_565
Ge3 S0 2.211346 1_455
Ge3 S11 2.212240 1_555
Ge3 S1 2.214434 1_455
