# generated using pymatgen
data_KCaH6Rh
_symmetry_space_group_name_H-M   'P 1'
_cell_length_a   5.32436335
_cell_length_b   5.32436364
_cell_length_c   5.32436388
_cell_angle_alpha   59.99999238
_cell_angle_beta   59.99999058
_cell_angle_gamma   59.99999552
_symmetry_Int_Tables_number   1
_chemical_formula_structural   KCaH6Rh
_chemical_formula_sum   'K1 Ca1 H6 Rh1'
_cell_volume   106.73037984
_cell_formula_units_Z   1
loop_
 _symmetry_equiv_pos_site_id
 _symmetry_equiv_pos_as_xyz
  1  'x, y, z'
loop_
 _atom_site_type_symbol
 _atom_site_label
 _atom_site_symmetry_multiplicity
 _atom_site_fract_x
 _atom_site_fract_y
 _atom_site_fract_z
 _atom_site_occupancy
  K  K0  1  0.25000000  0.25000000  0.25000000  1
  Ca  Ca0  1  0.75000000  0.75000000  0.75000000  1
  H  H0  1  0.77967005  0.22032995  0.22032995  1
  H  H1  1  0.22032995  0.77967005  0.22032995  1
  H  H2  1  0.77967005  0.77967005  0.22032995  1
  H  H3  1  0.22032995  0.77967005  0.77967005  1
  H  H4  1  0.77967005  0.22032995  0.77967005  1
  H  H5  1  0.22032995  0.22032995  0.77967005  1
  Rh  Rh0  1  0.00000000  0.00000000  0.00000000  1
loop_
_geom_bond_atom_site_label_1
_geom_bond_atom_site_label_2
_geom_bond_distance
_geom_bond_site_symmetry_2
Ca0 H1 2.671539 1_556
Ca0 H1 2.671539 1_655
Ca0 H5 2.671539 1_565
Ca0 H0 2.671539 1_565
Ca0 H0 2.671539 1_556
Ca0 H5 2.671539 1_655
Ca0 H3 2.671539 1_555
Ca0 H3 2.671539 1_655
Ca0 H4 2.671540 1_555
Ca0 H4 2.671540 1_565
Ca0 H2 2.671540 1_555
Ca0 H2 2.671540 1_556
H0 Rh0 1.659038 1_655
H0 K0 2.671539 1_555
H0 K0 2.671539 1_655
H1 Rh0 1.659038 1_565
H1 K0 2.671540 1_555
H1 K0 2.671540 1_565
H2 Rh0 1.659037 1_665
H2 K0 2.671539 1_565
H2 K0 2.671539 1_655
H3 Rh0 1.659038 1_566
H3 K0 2.671539 1_565
H3 K0 2.671539 1_556
H4 Rh0 1.659038 1_656
H4 K0 2.671539 1_556
H4 K0 2.671539 1_655
H5 Rh0 1.659037 1_556
H5 K0 2.671540 1_555
H5 K0 2.671540 1_556
