# generated using pymatgen
data_Na3Si4NiPt3
_symmetry_space_group_name_H-M   'P 1'
_cell_length_a   6.16009421
_cell_length_b   6.40931862
_cell_length_c   6.40931956
_cell_angle_alpha   110.24546733
_cell_angle_beta   108.68539748
_cell_angle_gamma   108.68541837
_symmetry_Int_Tables_number   1
_chemical_formula_structural   Na3Si4NiPt3
_chemical_formula_sum   'Na3 Si4 Ni1 Pt3'
_cell_volume   196.65701704
_cell_formula_units_Z   1
loop_
 _symmetry_equiv_pos_site_id
 _symmetry_equiv_pos_as_xyz
  1  'x, y, z'
loop_
 _atom_site_type_symbol
 _atom_site_label
 _atom_site_symmetry_multiplicity
 _atom_site_fract_x
 _atom_site_fract_y
 _atom_site_fract_z
 _atom_site_occupancy
  Na  Na0  1  0.49073085  0.51358376  1.00000000  1
  Na  Na1  1  0.49073085  0.00000000  0.51358376  1
  Na  Na2  1  0.97714709  0.48641624  0.48641624  1
  Si  Si0  1  0.38685552  1.00000000  0.00000000  1
  Si  Si1  1  0.98984365  0.35768797  1.00000000  1
  Si  Si2  1  0.98984365  0.00000000  0.35768797  1
  Si  Si3  1  0.63215468  0.64231203  0.64231203  1
  Ni  Ni0  1  0.74386920  0.00000000  1.00000000  1
  Pt  Pt0  1  0.00549631  0.71766343  0.00000000  1
  Pt  Pt1  1  0.28783388  0.28233757  0.28233757  1
  Pt  Pt2  1  0.00549631  1.00000000  0.71766343  1
loop_
_geom_bond_atom_site_label_1
_geom_bond_atom_site_label_2
_geom_bond_distance
_geom_bond_site_symmetry_2
Na0 Si1 2.922900 1_455
Na0 Si3 2.970460 1_555
Na0 Si2 2.970462 1_566
Na0 Ni0 3.006004 1_565
Na0 Pt0 3.018036 1_656
Na0 Pt1 3.025218 1_556
Na0 Pt2 3.025219 1_545
Na0 Si0 3.145676 1_546
Na0 Si0 3.377436 1_556
Na1 Si2 2.922901 1_455
Na1 Si3 2.970460 1_545
Na1 Si1 2.970463 1_555
Na1 Ni0 3.006005 1_555
Na1 Pt2 3.018036 1_645
Na1 Pt1 3.025219 1_555
Na1 Pt0 3.025220 1_545
Na1 Si0 3.145676 1_545
Na1 Si0 3.377436 1_546
Na2 Si3 2.922906 1_555
Na2 Si2 2.970462 1_555
Na2 Si1 2.970463 1_554
Na2 Ni0 3.006005 1_554
Na2 Pt1 3.018035 1_655
Na2 Pt2 3.025219 1_655
Na2 Pt0 3.025220 1_656
Na2 Si0 3.145676 1_656
Na2 Si0 3.377436 1_545
Ni0 Si0 2.199238 1_546
Ni0 Si3 2.307784 1_545
Ni0 Si1 2.307785 1_555
Ni0 Si2 2.307786 1_556
Ni0 Pt2 2.782208 1_645
Ni0 Pt0 2.782208 1_646
Ni0 Pt1 2.782213 1_656
Pt0 Si1 2.278138 1_454
Pt0 Si2 2.433497 1_465
Pt0 Si3 2.433501 1_454
Pt0 Si0 2.463639 1_555
Pt1 Si3 2.278131 1_555
Pt1 Si2 2.433500 1_455
Pt1 Si1 2.433500 1_454
Pt1 Si0 2.463642 1_545
Pt2 Si2 2.278139 1_465
Pt2 Si1 2.433497 1_465
Pt2 Si3 2.433500 1_455
Pt2 Si0 2.463640 1_556
