# generated using pymatgen
data_TiNb4Si3
_symmetry_space_group_name_H-M   'P 1'
_cell_length_a   7.54675698
_cell_length_b   7.54675699
_cell_length_c   7.54675683
_cell_angle_alpha   128.63933279
_cell_angle_beta   128.63932882
_cell_angle_gamma   75.59160421
_symmetry_Int_Tables_number   1
_chemical_formula_structural   TiNb4Si3
_chemical_formula_sum   'Ti2 Nb8 Si6'
_cell_volume   255.12629984
_cell_formula_units_Z   2
loop_
 _symmetry_equiv_pos_site_id
 _symmetry_equiv_pos_as_xyz
  1  'x, y, z'
loop_
 _atom_site_type_symbol
 _atom_site_label
 _atom_site_symmetry_multiplicity
 _atom_site_fract_x
 _atom_site_fract_y
 _atom_site_fract_z
 _atom_site_occupancy
  Ti  Ti0  1  0.50000000  0.50000000  0.00000000  1
  Ti  Ti1  1  0.00000000  0.00000000  0.00000000  1
  Nb  Nb0  1  0.01871608  0.18493162  0.50000000  1
  Nb  Nb1  1  0.51871608  0.01871608  0.83378546  1
  Nb  Nb2  1  0.18493162  0.68493162  0.16621454  1
  Nb  Nb3  1  0.48128392  0.98128392  0.16621454  1
  Nb  Nb4  1  0.68493162  0.51871608  0.50000000  1
  Nb  Nb5  1  0.98128392  0.81506838  0.50000000  1
  Nb  Nb6  1  0.31506838  0.48128392  0.50000000  1
  Nb  Nb7  1  0.81506838  0.31506838  0.83378546  1
  Si  Si0  1  0.12977336  0.62977336  0.75954771  1
  Si  Si1  1  0.62977336  0.87022664  0.50000000  1
  Si  Si2  1  0.37022664  0.12977336  0.50000000  1
  Si  Si3  1  0.87022664  0.37022664  0.24045229  1
  Si  Si4  1  0.75000000  0.75000000  0.00000000  1
  Si  Si5  1  0.25000000  0.25000000  0.00000000  1
loop_
_geom_bond_atom_site_label_1
_geom_bond_atom_site_label_2
_geom_bond_distance
_geom_bond_site_symmetry_2
Nb0 Si2 2.580870 1_555
Nb0 Si0 2.635802 1_555
Nb0 Si3 2.635810 1_455
Nb0 Si4 2.722785 1_445
Nb0 Si5 2.722785 1_556
Nb0 Ti1 3.010311 1_555
Nb0 Ti0 3.010311 1_556
Nb1 Si3 2.580871 1_556
Nb1 Si1 2.635811 1_545
Nb1 Si2 2.635811 1_555
Nb1 Si5 2.722781 1_556
Nb1 Si4 2.722781 1_546
Nb1 Ti0 3.010313 1_556
Nb1 Ti1 3.010313 1_656
Nb2 Si0 2.580855 1_554
Nb2 Si2 2.635803 1_565
Nb2 Si1 2.635803 1_555
Nb2 Si5 2.722786 1_555
Nb2 Si4 2.722787 1_455
Nb2 Ti0 3.010306 1_555
Nb2 Ti1 3.010306 1_565
Nb3 Si0 2.580871 1_554
Nb3 Si2 2.635811 1_565
Nb3 Si1 2.635811 1_555
Nb3 Si4 2.722781 1_555
Nb3 Si5 2.722781 1_565
Nb3 Ti0 3.010313 1_555
Nb3 Ti1 3.010313 1_565
Nb4 Si1 2.580870 1_555
Nb4 Si0 2.635802 1_655
Nb4 Si3 2.635810 1_555
Nb4 Si4 2.722785 1_556
Nb4 Si5 2.722785 1_555
Nb4 Ti1 3.010311 1_666
Nb4 Ti0 3.010311 1_555
Nb5 Si1 2.580870 1_555
Nb5 Si3 2.635802 1_555
Nb5 Si0 2.635810 1_655
Nb5 Si5 2.722785 1_666
Nb5 Si4 2.722785 1_555
Nb5 Ti1 3.010311 1_666
Nb5 Ti0 3.010311 1_555
Nb6 Si2 2.580870 1_555
Nb6 Si3 2.635802 1_455
Nb6 Si0 2.635810 1_555
Nb6 Si5 2.722785 1_555
Nb6 Si4 2.722785 1_556
Nb6 Ti1 3.010311 1_555
Nb6 Ti0 3.010311 1_556
Nb7 Si3 2.580855 1_556
Nb7 Si1 2.635803 1_545
Nb7 Si2 2.635803 1_555
Nb7 Si4 2.722786 1_556
Nb7 Si5 2.722787 1_656
Nb7 Ti0 3.010306 1_556
Nb7 Ti1 3.010306 1_656
Si0 Si3 2.400828 1_455
Si0 Ti1 2.566022 1_566
Si0 Ti0 2.566023 1_556
Si1 Si2 2.400819 1_565
Si1 Ti0 2.566024 1_555
Si1 Ti1 2.566025 1_666
Si2 Ti0 2.566024 1_556
Si2 Ti1 2.566025 1_555
Si3 Ti1 2.566022 1_655
Si3 Ti0 2.566023 1_555
Si4 Ti1 2.981723 1_665
Si4 Ti0 2.981723 1_555
Si5 Ti1 2.981723 1_555
Si5 Ti0 2.981723 1_555
