# generated using pymatgen
data_K3NaH6Ru
_symmetry_space_group_name_H-M   'P 1'
_cell_length_a   7.00159545
_cell_length_b   7.00159434
_cell_length_c   7.00159594
_cell_angle_alpha   93.15228311
_cell_angle_beta   93.15229771
_cell_angle_gamma   93.15228684
_symmetry_Int_Tables_number   1
_chemical_formula_structural   K3NaH6Ru
_chemical_formula_sum   'K6 Na2 H12 Ru2'
_cell_volume   341.61680229
_cell_formula_units_Z   2
loop_
 _symmetry_equiv_pos_site_id
 _symmetry_equiv_pos_as_xyz
  1  'x, y, z'
loop_
 _atom_site_type_symbol
 _atom_site_label
 _atom_site_symmetry_multiplicity
 _atom_site_fract_x
 _atom_site_fract_y
 _atom_site_fract_z
 _atom_site_occupancy
  K  K0  1  0.88994522  0.61005478  0.25000000  1
  K  K1  1  0.25000000  0.88994522  0.61005478  1
  K  K2  1  0.61005478  0.25000000  0.88994522  1
  K  K3  1  0.75000000  0.11005478  0.38994522  1
  K  K4  1  0.38994522  0.75000000  0.11005478  1
  K  K5  1  0.11005478  0.38994522  0.75000000  1
  Na  Na0  1  0.25000000  0.25000000  0.25000000  1
  Na  Na1  1  0.75000000  0.75000000  0.75000000  1
  H  H0  1  0.26322864  0.54344221  0.42715291  1
  H  H1  1  0.42715291  0.26322864  0.54344221  1
  H  H2  1  0.54344221  0.42715291  0.26322864  1
  H  H3  1  0.92715291  0.04344221  0.76322864  1
  H  H4  1  0.76322864  0.92715291  0.04344221  1
  H  H5  1  0.04344221  0.76322864  0.92715291  1
  H  H6  1  0.73677136  0.45655779  0.57284709  1
  H  H7  1  0.57284709  0.73677136  0.45655779  1
  H  H8  1  0.45655779  0.57284709  0.73677136  1
  H  H9  1  0.07284709  0.95655779  0.23677136  1
  H  H10  1  0.23677136  0.07284709  0.95655779  1
  H  H11  1  0.95655779  0.23677136  0.07284709  1
  Ru  Ru0  1  0.50000000  0.50000000  0.50000000  1
  Ru  Ru1  1  0.00000000  0.00000000  0.00000000  1
loop_
_geom_bond_atom_site_label_1
_geom_bond_atom_site_label_2
_geom_bond_distance
_geom_bond_site_symmetry_2
H0 Ru0 1.755111 1_555
H0 Na0 2.335476 1_555
H0 K1 2.688946 1_555
H0 K5 2.796757 1_555
H0 K4 2.869959 1_555
H0 K0 2.903093 1_455
H1 Ru0 1.755111 1_555
H1 Na0 2.335477 1_555
H1 K2 2.688946 1_555
H1 K3 2.796757 1_555
H1 K5 2.869959 1_555
H1 K1 2.903093 1_545
H2 Ru0 1.755111 1_555
H2 Na0 2.335477 1_555
H2 K0 2.688946 1_555
H2 K4 2.796757 1_555
H2 K3 2.869958 1_555
H2 K2 2.903094 1_554
H3 Ru1 1.755111 1_656
H3 Na1 2.335476 1_545
H3 K5 2.688945 1_655
H3 K1 2.796757 1_645
H3 K2 2.869959 1_555
H3 K3 2.903093 1_555
H4 Ru1 1.755111 1_665
H4 Na1 2.335477 1_554
H4 K3 2.688946 1_565
H4 K2 2.796757 1_564
H4 K0 2.869958 1_555
H4 K4 2.903093 1_555
H5 Ru1 1.755111 1_566
H5 Na1 2.335476 1_455
H5 K4 2.688946 1_556
H5 K0 2.796757 1_456
H5 K1 2.869959 1_555
H5 K5 2.903093 1_555
H6 Ru0 1.755111 1_555
H6 Na1 2.335476 1_555
H6 K3 2.688946 1_555
H6 K0 2.796757 1_555
H6 K2 2.869959 1_555
H6 K5 2.903093 1_655
H7 Ru0 1.755111 1_555
H7 Na1 2.335477 1_555
H7 K4 2.688946 1_555
H7 K1 2.796757 1_555
H7 K0 2.869959 1_555
H7 K3 2.903093 1_565
H8 Ru0 1.755111 1_555
H8 Na1 2.335477 1_555
H8 K5 2.688946 1_555
H8 K2 2.796757 1_555
H8 K1 2.869958 1_555
H8 K4 2.903094 1_556
H9 Ru1 1.755111 1_565
H9 Na0 2.335476 1_565
H9 K0 2.688945 1_455
H9 K3 2.796757 1_465
H9 K4 2.869959 1_555
H9 K1 2.903093 1_555
H10 Ru1 1.755111 1_556
H10 Na0 2.335477 1_556
H10 K1 2.688946 1_545
H10 K4 2.796757 1_546
H10 K5 2.869958 1_555
H10 K2 2.903093 1_555
H11 Ru1 1.755111 1_655
H11 Na0 2.335476 1_655
H11 K2 2.688946 1_554
H11 K5 2.796757 1_654
H11 K3 2.869959 1_555
H11 K0 2.903093 1_555
