# generated using pymatgen
data_Lu12InFe3Bi
_symmetry_space_group_name_H-M   'P 1'
_cell_length_a   8.19987997
_cell_length_b   8.19988033
_cell_length_c   8.19988003
_cell_angle_alpha   109.02396514
_cell_angle_beta   108.45400750
_cell_angle_gamma   110.94631115
_symmetry_Int_Tables_number   1
_chemical_formula_structural   Lu12InFe3Bi
_chemical_formula_sum   'Lu12 In1 Fe3 Bi1'
_cell_volume   424.20288052
_cell_formula_units_Z   1
loop_
 _symmetry_equiv_pos_site_id
 _symmetry_equiv_pos_as_xyz
  1  'x, y, z'
loop_
 _atom_site_type_symbol
 _atom_site_label
 _atom_site_symmetry_multiplicity
 _atom_site_fract_x
 _atom_site_fract_y
 _atom_site_fract_z
 _atom_site_occupancy
  Lu  Lu0  1  0.31441919  0.30442622  0.61884541  1
  Lu  Lu1  1  0.68558081  0.69557378  0.38115459  1
  Lu  Lu2  1  0.68558081  0.30442622  0.99000703  1
  Lu  Lu3  1  0.31441919  0.69557378  0.00999297  1
  Lu  Lu4  1  0.19305532  0.42598228  0.23292696  1
  Lu  Lu5  1  0.80694468  0.57401772  0.76707304  1
  Lu  Lu6  1  0.19305532  0.96012737  0.76707304  1
  Lu  Lu7  1  0.95215942  0.18971590  0.76244552  1
  Lu  Lu8  1  0.80694468  0.03987263  0.23292696  1
  Lu  Lu9  1  0.04784058  0.81028410  0.23755448  1
  Lu  Lu10  1  0.42727038  0.18971590  0.23755448  1
  Lu  Lu11  1  0.57272962  0.81028410  0.76244552  1
  In  In0  1  0.50000000  0.00000000  0.50000000  1
  Fe  Fe0  1  0.37882674  0.37882674  1.00000000  1
  Fe  Fe1  1  0.62117326  0.62117326  0.00000000  1
  Fe  Fe2  1  0.00000000  0.00000000  0.00000000  1
  Bi  Bi0  1  0.00000000  0.50000000  0.50000000  1
loop_
_geom_bond_atom_site_label_1
_geom_bond_atom_site_label_2
_geom_bond_distance
_geom_bond_site_symmetry_2
In0 Lu7 3.072483 1_555
In0 Lu9 3.072483 1_545
In0 Lu11 3.072496 1_545
In0 Lu10 3.072496 1_555
In0 Lu1 3.400824 1_545
In0 Lu0 3.400824 1_555
In0 Lu2 3.400825 1_555
In0 Lu3 3.400825 1_545
In0 Lu8 3.821734 1_555
In0 Lu6 3.821734 1_545
In0 Lu4 3.821734 1_545
In0 Lu5 3.821734 1_555
Fe0 Fe1 2.252673 1_556
Fe0 Lu4 2.810619 1_556
Fe0 Lu6 2.810626 1_545
Fe0 Lu2 2.810863 1_555
Fe0 Lu0 2.810863 1_555
Fe0 Lu3 2.810863 1_556
Fe0 Lu1 2.810864 1_556
Fe0 Lu10 2.876904 1_556
Fe0 Lu7 2.876917 1_455
Fe1 Lu5 2.810619 1_554
Fe1 Lu8 2.810626 1_565
Fe1 Lu3 2.810863 1_555
Fe1 Lu1 2.810863 1_555
Fe1 Lu2 2.810863 1_554
Fe1 Lu0 2.810864 1_554
Fe1 Lu11 2.876904 1_554
Fe1 Lu9 2.876917 1_655
Fe2 Lu4 2.852717 1_555
Fe2 Lu5 2.852717 1_444
Fe2 Lu8 2.852717 1_455
Fe2 Lu6 2.852717 1_544
Fe2 Lu10 2.880344 1_555
Fe2 Lu11 2.880344 1_444
Fe2 Lu9 2.880346 1_545
Fe2 Lu7 2.880346 1_454
Bi0 Lu6 3.112151 1_555
Bi0 Lu8 3.112151 1_455
Bi0 Lu5 3.112157 1_455
Bi0 Lu4 3.112157 1_555
Bi0 Lu0 3.543020 1_555
Bi0 Lu1 3.543020 1_455
Bi0 Lu2 3.543021 1_454
Bi0 Lu3 3.543021 1_556
Bi0 Lu11 3.827387 1_555
Bi0 Lu10 3.827387 1_455
Bi0 Lu9 3.827387 1_555
Bi0 Lu7 3.827387 1_455
