# generated using pymatgen
data_Na2Ga2SiSe6
_symmetry_space_group_name_H-M   'P 1'
_cell_length_a   7.29626787
_cell_length_b   7.29626775
_cell_length_c   12.30306386
_cell_angle_alpha   76.49911362
_cell_angle_beta   76.49911407
_cell_angle_gamma   69.63617077
_symmetry_Int_Tables_number   1
_chemical_formula_structural   Na2Ga2SiSe6
_chemical_formula_sum   'Na4 Ga4 Si2 Se12'
_cell_volume   588.67562928
_cell_formula_units_Z   2
loop_
 _symmetry_equiv_pos_site_id
 _symmetry_equiv_pos_as_xyz
  1  'x, y, z'
loop_
 _atom_site_type_symbol
 _atom_site_label
 _atom_site_symmetry_multiplicity
 _atom_site_fract_x
 _atom_site_fract_y
 _atom_site_fract_z
 _atom_site_occupancy
  Na  Na0  1  0.20777056  0.33277422  0.00087076  1
  Na  Na1  1  0.33277422  0.20777056  0.50087076  1
  Na  Na2  1  0.33640839  0.77028380  0.18021970  1
  Na  Na3  1  0.77028380  0.33640839  0.68021970  1
  Ga  Ga0  1  0.85393867  0.95762317  0.01398405  1
  Ga  Ga1  1  0.95762317  0.85393867  0.51398405  1
  Ga  Ga2  1  0.65581953  0.79981843  0.81297788  1
  Ga  Ga3  1  0.79981843  0.65581953  0.31297788  1
  Si  Si0  1  0.18561989  0.75193809  0.76150942  1
  Si  Si1  1  0.75193809  0.18561989  0.26150942  1
  Se  Se0  1  0.05829578  0.03816805  0.83226186  1
  Se  Se1  1  0.03816805  0.05829578  0.33226186  1
  Se  Se2  1  0.81246216  0.26819352  0.07134803  1
  Se  Se3  1  0.26819352  0.81246216  0.57134803  1
  Se  Se4  1  0.02211798  0.66049322  0.13339085  1
  Se  Se5  1  0.66049322  0.02211798  0.63339085  1
  Se  Se6  1  0.54285962  0.96031648  0.97681439  1
  Se  Se7  1  0.96031648  0.54285962  0.47681439  1
  Se  Se8  1  0.46613257  0.56702399  0.83720097  1
  Se  Se9  1  0.56702399  0.46613257  0.33720097  1
  Se  Se10  1  0.98538128  0.55641760  0.81119209  1
  Se  Se11  1  0.55641760  0.98538128  0.31119209  1
loop_
_geom_bond_atom_site_label_1
_geom_bond_atom_site_label_2
_geom_bond_distance
_geom_bond_site_symmetry_2
Na0 Se4 2.957275 1_555
Na0 Se6 2.977219 1_544
Na0 Se2 2.979978 1_455
Na0 Se10 2.981386 1_454
Na0 Se8 3.064707 1_554
Na1 Se5 2.957275 1_555
Na1 Se7 2.977219 1_455
Na1 Se3 2.979978 1_545
Na1 Se11 2.981386 1_545
Na1 Se9 3.064707 1_555
Na2 Se4 2.888422 1_555
Na2 Se9 2.898877 1_555
Na2 Se6 2.920164 1_554
Na2 Se1 3.066355 1_565
Na2 Se11 3.431940 1_555
Na3 Se5 2.888422 1_555
Na3 Se8 2.898877 1_555
Na3 Se7 2.920164 1_555
Na3 Se0 3.066355 1_655
Na3 Se10 3.431940 1_555
Ga0 Se6 2.410502 1_554
Ga0 Se4 2.422202 1_655
Ga0 Se2 2.427794 1_565
Ga0 Se0 2.450906 1_664
Ga1 Se7 2.410502 1_555
Ga1 Se5 2.422202 1_565
Ga1 Se3 2.427794 1_655
Ga1 Se1 2.450906 1_665
Ga2 Se6 2.401740 1_555
Ga2 Se5 2.417373 1_565
Ga2 Se10 2.440882 1_555
Ga2 Se8 2.469090 1_555
Ga3 Se7 2.401740 1_555
Ga3 Se4 2.417373 1_655
Ga3 Se11 2.440882 1_555
Ga3 Se9 2.469090 1_555
Se0 Si0 2.259026 1_545
Se1 Si1 2.259026 1_455
Se2 Si1 2.253040 1_555
Se3 Si0 2.253040 1_555
Se8 Si0 2.293022 1_555
Se9 Si1 2.293022 1_555
Se10 Si0 2.273683 1_655
Se11 Si1 2.273683 1_565
