# generated using pymatgen
data_NaMg2H7Ru
_symmetry_space_group_name_H-M   'P 1'
_cell_length_a   4.63865536
_cell_length_b   4.63865650
_cell_length_c   11.58058374
_cell_angle_alpha   90.00000000
_cell_angle_beta   90.00000000
_cell_angle_gamma   119.99999182
_symmetry_Int_Tables_number   1
_chemical_formula_structural   NaMg2H7Ru
_chemical_formula_sum   'Na2 Mg4 H14 Ru2'
_cell_volume   215.79701822
_cell_formula_units_Z   2
loop_
 _symmetry_equiv_pos_site_id
 _symmetry_equiv_pos_as_xyz
  1  'x, y, z'
loop_
 _atom_site_type_symbol
 _atom_site_label
 _atom_site_symmetry_multiplicity
 _atom_site_fract_x
 _atom_site_fract_y
 _atom_site_fract_z
 _atom_site_occupancy
  Na  Na0  1  0.00000000  0.00000000  0.25000000  1
  Na  Na1  1  0.00000000  0.00000000  0.75000000  1
  Mg  Mg0  1  0.33333300  0.66666700  0.42485520  1
  Mg  Mg1  1  0.66666700  0.33333300  0.57514480  1
  Mg  Mg2  1  0.66666700  0.33333300  0.92485520  1
  Mg  Mg3  1  0.33333300  0.66666700  0.07514480  1
  H  H0  1  0.16875213  0.83124787  0.91422442  1
  H  H1  1  0.16875213  0.33750425  0.91422442  1
  H  H2  1  0.66249575  0.83124787  0.91422442  1
  H  H3  1  0.83124787  0.16875213  0.08577558  1
  H  H4  1  0.83124787  0.66249575  0.08577558  1
  H  H5  1  0.33750425  0.16875213  0.08577558  1
  H  H6  1  0.83124787  0.16875213  0.41422442  1
  H  H7  1  0.83124787  0.66249575  0.41422442  1
  H  H8  1  0.33750425  0.16875213  0.41422442  1
  H  H9  1  0.16875213  0.83124787  0.58577558  1
  H  H10  1  0.16875213  0.33750425  0.58577558  1
  H  H11  1  0.66249575  0.83124787  0.58577558  1
  H  H12  1  0.33333300  0.66666700  0.25000000  1
  H  H13  1  0.66666700  0.33333300  0.75000000  1
  Ru  Ru0  1  0.00000000  0.00000000  0.50000000  1
  Ru  Ru1  1  0.00000000  0.00000000  0.00000000  1
loop_
_geom_bond_atom_site_label_1
_geom_bond_atom_site_label_2
_geom_bond_distance
_geom_bond_site_symmetry_2
H0 Ru1 1.680760 1_566
H0 Mg3 2.285021 1_556
H0 Mg2 2.322654 1_455
H0 Mg2 2.322654 1_565
H0 Na1 2.335626 1_565
H1 Ru1 1.680760 1_556
H1 Mg3 2.285023 1_556
H1 Mg2 2.322651 1_455
H1 Mg2 2.322656 1_555
H1 Na1 2.335626 1_555
H2 Ru1 1.680760 1_666
H2 Mg3 2.285023 1_556
H2 Mg2 2.322651 1_565
H2 Mg2 2.322656 1_555
H2 Na1 2.335626 1_665
H3 Ru1 1.680760 1_655
H3 Mg2 2.285021 1_554
H3 Mg3 2.322654 1_655
H3 Mg3 2.322654 1_545
H3 Na0 2.335626 1_655
H4 Ru1 1.680760 1_665
H4 Mg2 2.285023 1_554
H4 Mg3 2.322651 1_655
H4 Mg3 2.322656 1_555
H4 Na0 2.335626 1_665
H5 Ru1 1.680760 1_555
H5 Mg2 2.285023 1_554
H5 Mg3 2.322651 1_545
H5 Mg3 2.322656 1_555
H5 Na0 2.335626 1_555
H6 Ru0 1.680760 1_655
H6 Mg1 2.285021 1_555
H6 Mg0 2.322654 1_655
H6 Mg0 2.322654 1_545
H6 Na0 2.335626 1_655
H7 Ru0 1.680760 1_665
H7 Mg1 2.285023 1_555
H7 Mg0 2.322651 1_655
H7 Mg0 2.322656 1_555
H7 Na0 2.335626 1_665
H8 Ru0 1.680760 1_555
H8 Mg1 2.285023 1_555
H8 Mg0 2.322651 1_545
H8 Mg0 2.322656 1_555
H8 Na0 2.335626 1_555
H9 Ru0 1.680760 1_565
H9 Mg0 2.285021 1_555
H9 Mg1 2.322654 1_455
H9 Mg1 2.322654 1_565
H9 Na1 2.335626 1_565
H10 Ru0 1.680760 1_555
H10 Mg0 2.285023 1_555
H10 Mg1 2.322651 1_455
H10 Mg1 2.322656 1_555
H10 Na1 2.335626 1_555
H11 Ru0 1.680760 1_665
H11 Mg0 2.285023 1_555
H11 Mg1 2.322651 1_565
H11 Mg1 2.322656 1_555
H11 Na1 2.335626 1_665
H12 Mg0 2.024925 1_555
H12 Mg3 2.024925 1_555
H12 Na0 2.678126 1_565
H12 Na0 2.678130 1_665
H12 Na0 2.678131 1_555
H13 Mg2 2.024925 1_555
H13 Mg1 2.024925 1_555
H13 Na1 2.678126 1_655
H13 Na1 2.678130 1_555
H13 Na1 2.678131 1_665
