# generated using pymatgen
data_VSb2RhO8
_symmetry_space_group_name_H-M   'P 1'
_cell_length_a   5.57440353
_cell_length_b   5.57440306
_cell_length_c   5.57440330
_cell_angle_alpha   108.08256648
_cell_angle_beta   112.01850019
_cell_angle_gamma   108.34312401
_symmetry_Int_Tables_number   1
_chemical_formula_structural   VSb2RhO8
_chemical_formula_sum   'V1 Sb2 Rh1 O8'
_cell_volume   133.14463019
_cell_formula_units_Z   1
loop_
 _symmetry_equiv_pos_site_id
 _symmetry_equiv_pos_as_xyz
  1  'x, y, z'
loop_
 _atom_site_type_symbol
 _atom_site_label
 _atom_site_symmetry_multiplicity
 _atom_site_fract_x
 _atom_site_fract_y
 _atom_site_fract_z
 _atom_site_occupancy
  V  V0  1  0.75534660  0.50000000  0.25534660  1
  Sb  Sb0  1  0.49527086  0.00000000  0.49527086  1
  Sb  Sb1  1  0.24614806  0.50000000  0.74614806  1
  Rh  Rh0  1  0.00678396  0.00000000  0.00678396  1
  O  O0  1  0.49457509  0.69263357  0.18720965  1
  O  O1  1  0.05673991  0.80177164  0.25496826  1
  O  O2  1  0.45319662  0.19822736  0.25496926  1
  O  O3  1  0.00331455  0.30822458  0.31153913  1
  O  O4  1  0.00331455  0.69177542  0.69509097  1
  O  O5  1  0.93724477  0.19188041  0.74536536  1
  O  O6  1  0.55348595  0.80811859  0.74536636  1
  O  O7  1  0.49457509  0.30736643  0.80194152  1
loop_
_geom_bond_atom_site_label_1
_geom_bond_atom_site_label_2
_geom_bond_distance
_geom_bond_site_symmetry_2
O0 Sb1 1.996983 1_554
O0 Sb0 2.012208 1_565
O0 V0 2.057210 1_555
O1 V0 1.969383 1_455
O1 Sb0 1.979102 1_565
O1 Rh0 2.016535 1_565
O2 V0 1.969390 1_555
O2 Sb0 1.979093 1_555
O2 Rh0 2.016536 1_555
O3 Sb1 1.966478 1_555
O3 V0 1.991214 1_455
O3 Rh0 2.017940 1_555
O4 Sb1 1.966478 1_555
O4 V0 1.991218 1_455
O4 Rh0 2.017937 1_566
O5 Sb0 1.999476 1_555
O5 Sb1 2.010818 1_655
O5 Rh0 2.054982 1_656
O6 Sb0 1.999490 1_565
O6 Sb1 2.010812 1_555
O6 Rh0 2.054976 1_666
O7 Sb1 1.996979 1_555
O7 Sb0 2.012211 1_555
O7 V0 2.057211 1_556
