# generated using pymatgen
data_TbAgSn
_symmetry_space_group_name_H-M   'P 1'
_cell_length_a   4.70786159
_cell_length_b   4.70786163
_cell_length_c   7.44428890
_cell_angle_alpha   90.00000000
_cell_angle_beta   90.00000000
_cell_angle_gamma   120.00000681
_symmetry_Int_Tables_number   1
_chemical_formula_structural   TbAgSn
_chemical_formula_sum   'Tb2 Ag2 Sn2'
_cell_volume   142.88978971
_cell_formula_units_Z   2
loop_
 _symmetry_equiv_pos_site_id
 _symmetry_equiv_pos_as_xyz
  1  'x, y, z'
loop_
 _atom_site_type_symbol
 _atom_site_label
 _atom_site_symmetry_multiplicity
 _atom_site_fract_x
 _atom_site_fract_y
 _atom_site_fract_z
 _atom_site_occupancy
  Tb  Tb0  1  -0.00000000  -0.00000000  0.72591473  1
  Tb  Tb1  1  -0.00000000  -0.00000000  0.22591473  1
  Ag  Ag0  1  0.66666700  0.33333300  0.54033502  1
  Ag  Ag1  1  0.33333300  0.66666700  0.04033502  1
  Sn  Sn0  1  0.33333300  0.66666700  0.44574925  1
  Sn  Sn1  1  0.66666700  0.33333300  0.94574925  1
loop_
_geom_bond_atom_site_label_1
_geom_bond_atom_site_label_2
_geom_bond_distance
_geom_bond_site_symmetry_2
Tb0 Tb1 3.722144 1_556
Tb0 Tb1 3.722144 1_555
Ag0 Sn0 2.807804 1_655
Ag0 Sn0 2.807804 1_545
Ag0 Sn0 2.807812 1_555
Ag0 Sn1 3.018021 1_555
Ag0 Tb0 3.049023 1_655
Ag0 Tb0 3.049026 1_555
Ag0 Tb0 3.049026 1_665
Ag0 Tb1 3.586997 1_655
Ag0 Tb1 3.587000 1_555
Ag0 Tb1 3.587000 1_665
Ag1 Sn1 2.807804 1_454
Ag1 Sn1 2.807804 1_564
Ag1 Sn1 2.807812 1_554
Ag1 Sn0 3.018021 1_555
Ag1 Tb1 3.049023 1_565
Ag1 Tb1 3.049026 1_665
Ag1 Tb1 3.049026 1_555
Ag1 Tb0 3.586997 1_564
Ag1 Tb0 3.587000 1_664
Ag1 Tb0 3.587000 1_554
Sn0 Tb1 3.172719 1_565
Sn0 Tb1 3.172722 1_665
Sn0 Tb1 3.172722 1_555
Sn0 Tb0 3.426053 1_565
Sn0 Tb0 3.426056 1_665
Sn0 Tb0 3.426056 1_555
Sn1 Tb0 3.172719 1_655
Sn1 Tb0 3.172722 1_555
Sn1 Tb0 3.172722 1_665
Sn1 Tb1 3.426053 1_656
Sn1 Tb1 3.426056 1_556
Sn1 Tb1 3.426056 1_666
