# generated using pymatgen
data_RbAsRh2Pb
_symmetry_space_group_name_H-M   'P 1'
_cell_length_a   8.15256207
_cell_length_b   8.15256220
_cell_length_c   8.15256123
_cell_angle_alpha   150.83017514
_cell_angle_beta   150.83017500
_cell_angle_gamma   41.72414072
_symmetry_Int_Tables_number   1
_chemical_formula_structural   RbAsRh2Pb
_chemical_formula_sum   'Rb1 As1 Rh2 Pb1'
_cell_volume   128.42674382
_cell_formula_units_Z   1
loop_
 _symmetry_equiv_pos_site_id
 _symmetry_equiv_pos_as_xyz
  1  'x, y, z'
loop_
 _atom_site_type_symbol
 _atom_site_label
 _atom_site_symmetry_multiplicity
 _atom_site_fract_x
 _atom_site_fract_y
 _atom_site_fract_z
 _atom_site_occupancy
  Rb  Rb0  1  0.02007377  0.02007377  1.00000000  1
  As  As0  1  0.65597908  0.65597908  1.00000000  1
  Rh  Rh0  1  0.73579526  0.23579526  0.50000000  1
  Rh  Rh1  1  0.23579526  0.73579526  0.50000000  1
  Pb  Pb0  1  0.35235663  0.35235663  0.00000000  1
loop_
_geom_bond_atom_site_label_1
_geom_bond_atom_site_label_2
_geom_bond_distance
_geom_bond_site_symmetry_2
As0 Rh0 2.386088 1_555
As0 Rh1 2.386088 1_555
As0 Rh1 2.386089 1_656
As0 Rh0 2.386089 1_566
As0 Rb0 3.566058 1_666
As0 Rb0 3.566058 1_565
As0 Rb0 3.566058 1_655
As0 Rb0 3.566059 1_554
Pb0 Rh1 2.714503 1_555
Pb0 Rh0 2.714503 1_555
Pb0 Rh0 2.714504 1_454
Pb0 Rh1 2.714504 1_544
Pb0 Rb0 3.867682 1_553
Pb0 Rb0 3.867683 1_654
Pb0 Rb0 3.867683 1_564
Pb0 Rb0 3.867683 1_665
