# generated using pymatgen
data_Be4Mo6Ru2C
_symmetry_space_group_name_H-M   'P 1'
_cell_length_a   7.65658246
_cell_length_b   7.65658302
_cell_length_c   7.65658160
_cell_angle_alpha   59.99999338
_cell_angle_beta   59.99999094
_cell_angle_gamma   60.00000132
_symmetry_Int_Tables_number   1
_chemical_formula_structural   Be4Mo6Ru2C
_chemical_formula_sum   'Be8 Mo12 Ru4 C2'
_cell_volume   317.38750878
_cell_formula_units_Z   2
loop_
 _symmetry_equiv_pos_site_id
 _symmetry_equiv_pos_as_xyz
  1  'x, y, z'
loop_
 _atom_site_type_symbol
 _atom_site_label
 _atom_site_symmetry_multiplicity
 _atom_site_fract_x
 _atom_site_fract_y
 _atom_site_fract_z
 _atom_site_occupancy
  Be  Be0  1  0.33328696  0.33328696  0.00013912  1
  Be  Be1  1  0.33328696  0.33328696  0.33328696  1
  Be  Be2  1  0.24986088  0.91671304  0.91671304  1
  Be  Be3  1  0.91671304  0.91671304  0.91671304  1
  Be  Be4  1  0.00013912  0.33328696  0.33328696  1
  Be  Be5  1  0.33328696  0.00013912  0.33328696  1
  Be  Be6  1  0.91671304  0.91671304  0.24986088  1
  Be  Be7  1  0.91671304  0.24986088  0.91671304  1
  Mo  Mo0  1  0.30270487  0.69729513  0.69729513  1
  Mo  Mo1  1  0.69729513  0.69729513  0.30270487  1
  Mo  Mo2  1  0.69729513  0.30270487  0.69729513  1
  Mo  Mo3  1  0.30270487  0.69729513  0.30270487  1
  Mo  Mo4  1  0.55270487  0.94729513  0.55270487  1
  Mo  Mo5  1  0.55270487  0.94729513  0.94729513  1
  Mo  Mo6  1  0.94729513  0.55270487  0.55270487  1
  Mo  Mo7  1  0.94729513  0.55270487  0.94729513  1
  Mo  Mo8  1  0.30270487  0.30270487  0.69729513  1
  Mo  Mo9  1  0.55270487  0.55270487  0.94729513  1
  Mo  Mo10  1  0.94729513  0.94729513  0.55270487  1
  Mo  Mo11  1  0.69729513  0.30270487  0.30270487  1
  Ru  Ru0  1  0.12500000  0.62500000  0.12500000  1
  Ru  Ru1  1  0.12500000  0.12500000  0.62500000  1
  Ru  Ru2  1  0.62500000  0.12500000  0.12500000  1
  Ru  Ru3  1  0.12500000  0.12500000  0.12500000  1
  C  C0  1  0.50000000  0.50000000  0.50000000  1
  C  C1  1  0.75000000  0.75000000  0.75000000  1
loop_
_geom_bond_atom_site_label_1
_geom_bond_atom_site_label_2
_geom_bond_distance
_geom_bond_site_symmetry_2
Be0 Ru3 2.344050 1_555
Be0 Ru2 2.344050 1_555
Be0 Ru0 2.344050 1_555
Be0 Mo2 2.574291 1_554
Be0 Mo0 2.574291 1_554
Be0 Mo8 2.574291 1_554
Be0 Mo9 2.696545 1_554
Be0 Mo7 2.696545 1_454
Be0 Mo5 2.696545 1_544
Be1 Ru1 2.344050 1_555
Be1 Ru2 2.344050 1_555
Be1 Ru0 2.344050 1_555
Be1 Mo8 2.574291 1_555
Be1 Mo11 2.574291 1_555
Be1 Mo3 2.574292 1_555
Be1 Mo9 2.696544 1_554
Be1 Mo6 2.696545 1_455
Be1 Mo4 2.696545 1_545
Be2 Ru1 2.344050 1_565
Be2 Ru0 2.344050 1_556
Be2 Ru3 2.344050 1_566
Be2 Mo4 2.574291 1_555
Be2 Mo5 2.574292 1_555
Be2 Mo9 2.574292 1_555
Be2 Mo3 2.696544 1_556
Be2 Mo8 2.696545 1_565
Be2 Mo0 2.696545 1_555
Be3 Ru1 2.344050 1_665
Be3 Ru2 2.344050 1_566
Be3 Ru0 2.344050 1_656
Be3 Mo10 2.574291 1_555
Be3 Mo5 2.574291 1_555
Be3 Mo7 2.574292 1_555
Be3 Mo1 2.696544 1_556
Be3 Mo0 2.696545 1_655
Be3 Mo2 2.696545 1_565
Be4 Ru1 2.344050 1_555
Be4 Ru0 2.344050 1_555
Be4 Ru3 2.344050 1_555
Be4 Mo2 2.574291 1_455
Be4 Mo11 2.574292 1_455
Be4 Mo1 2.574292 1_455
Be4 Mo7 2.696544 1_454
Be4 Mo10 2.696545 1_445
Be4 Mo6 2.696545 1_455
Be5 Ru1 2.344050 1_555
Be5 Ru2 2.344050 1_555
Be5 Ru3 2.344050 1_555
Be5 Mo0 2.574291 1_545
Be5 Mo1 2.574292 1_545
Be5 Mo3 2.574292 1_545
Be5 Mo5 2.696544 1_544
Be5 Mo10 2.696544 1_445
Be5 Mo4 2.696545 1_545
Be6 Ru3 2.344050 1_665
Be6 Ru2 2.344050 1_565
Be6 Ru0 2.344050 1_655
Be6 Mo4 2.574291 1_555
Be6 Mo6 2.574291 1_555
Be6 Mo10 2.574291 1_555
Be6 Mo1 2.696545 1_555
Be6 Mo3 2.696545 1_655
Be6 Mo11 2.696545 1_565
Be7 Ru1 2.344050 1_655
Be7 Ru2 2.344050 1_556
Be7 Ru3 2.344050 1_656
Be7 Mo6 2.574291 1_555
Be7 Mo9 2.574292 1_555
Be7 Mo7 2.574292 1_555
Be7 Mo11 2.696544 1_556
Be7 Mo8 2.696544 1_655
Be7 Mo2 2.696545 1_555
C0 Mo1 2.136320 1_555
C0 Mo8 2.136320 1_555
C0 Mo0 2.136320 1_555
C0 Mo11 2.136320 1_555
C0 Mo2 2.136320 1_555
C0 Mo3 2.136320 1_555
C1 Mo10 2.136320 1_555
C1 Mo9 2.136320 1_555
C1 Mo5 2.136320 1_555
C1 Mo6 2.136320 1_555
C1 Mo7 2.136320 1_555
C1 Mo4 2.136320 1_555
