# generated using pymatgen
data_HfTiF6
_symmetry_space_group_name_H-M   'P 1'
_cell_length_a   5.50236697
_cell_length_b   5.50236697
_cell_length_c   5.50236697
_cell_angle_alpha   60.00000000
_cell_angle_beta   60.00000000
_cell_angle_gamma   60.00000000
_symmetry_Int_Tables_number   1
_chemical_formula_structural   HfTiF6
_chemical_formula_sum   'Hf1 Ti1 F6'
_cell_volume   117.79684469
_cell_formula_units_Z   1
loop_
 _symmetry_equiv_pos_site_id
 _symmetry_equiv_pos_as_xyz
  1  'x, y, z'
loop_
 _atom_site_type_symbol
 _atom_site_label
 _atom_site_symmetry_multiplicity
 _atom_site_fract_x
 _atom_site_fract_y
 _atom_site_fract_z
 _atom_site_occupancy
  Hf  Hf0  1  0.50000000  0.50000000  0.50000000  1
  Ti  Ti0  1  0.00000000  0.00000000  0.00000000  1
  F  F0  1  0.75179200  0.24820800  0.24820800  1
  F  F1  1  0.75179200  0.24820800  0.75179200  1
  F  F2  1  0.75179200  0.75179200  0.24820800  1
  F  F3  1  0.24820800  0.75179200  0.75179200  1
  F  F4  1  0.24820800  0.24820800  0.75179200  1
  F  F5  1  0.24820800  0.75179200  0.24820800  1
loop_
_geom_bond_atom_site_label_1
_geom_bond_atom_site_label_2
_geom_bond_distance
_geom_bond_site_symmetry_2
F0 Ti0 1.931436 1_655
F0 Hf0 1.959325 1_555
F1 Ti0 1.931436 1_656
F1 Hf0 1.959325 1_555
F2 Ti0 1.931436 1_665
F2 Hf0 1.959325 1_555
F3 Ti0 1.931436 1_566
F3 Hf0 1.959325 1_555
F4 Ti0 1.931436 1_556
F4 Hf0 1.959325 1_555
F5 Ti0 1.931436 1_565
F5 Hf0 1.959325 1_555
