# generated using pymatgen
data_Ta2Ni4P4Ru3
_symmetry_space_group_name_H-M   'P 1'
_cell_length_a   6.94142561
_cell_length_b   6.94142519
_cell_length_c   6.79746577
_cell_angle_alpha   94.53439908
_cell_angle_beta   93.58017864
_cell_angle_gamma   149.47775108
_symmetry_Int_Tables_number   1
_chemical_formula_structural   Ta2Ni4P4Ru3
_chemical_formula_sum   'Ta2 Ni4 P4 Ru3'
_cell_volume   160.21292258
_cell_formula_units_Z   1
loop_
 _symmetry_equiv_pos_site_id
 _symmetry_equiv_pos_as_xyz
  1  'x, y, z'
loop_
 _atom_site_type_symbol
 _atom_site_label
 _atom_site_symmetry_multiplicity
 _atom_site_fract_x
 _atom_site_fract_y
 _atom_site_fract_z
 _atom_site_occupancy
  Ta  Ta0  1  0.19109822  0.12275995  0.31385918  1
  Ta  Ta1  1  0.80890178  0.87724005  0.68614082  1
  Ni  Ni0  1  0.60709452  0.08967325  0.69676877  1
  Ni  Ni1  1  0.39290548  0.91032675  0.30323123  1
  Ni  Ni2  1  0.09276933  0.39599647  0.48876480  1
  Ni  Ni3  1  0.90723067  0.60400353  0.51123520  1
  P  P0  1  0.75049094  0.42309940  0.17359034  1
  P  P1  1  0.24950906  0.57690060  0.82640966  1
  P  P2  1  0.44213790  0.24530568  0.68744458  1
  P  P3  1  0.55786210  0.75469432  0.31255542  1
  Ru  Ru0  1  0.87517588  0.18967689  0.06485276  1
  Ru  Ru1  1  0.12482412  0.81032311  0.93514724  1
  Ru  Ru2  1  0.50000000  0.50000000  0.00000000  1
loop_
_geom_bond_atom_site_label_1
_geom_bond_atom_site_label_2
_geom_bond_distance
_geom_bond_site_symmetry_2
Ni0 P2 2.148284 1_555
Ni0 P1 2.270367 1_545
Ni0 P1 2.270370 1_655
Ni0 Ru0 2.668945 1_556
Ni0 Ru1 2.753704 1_545
Ni0 Ru1 2.753705 1_655
Ni0 Ta1 2.774272 1_545
Ni1 P3 2.148284 1_555
Ni1 P0 2.270367 1_565
Ni1 P0 2.270370 1_455
Ni1 Ru1 2.668945 1_554
Ni1 Ru0 2.753704 1_565
Ni1 Ru0 2.753705 1_455
Ni1 Ta0 2.774272 1_565
Ni2 P1 2.215135 1_555
Ni2 P3 2.272069 1_445
Ni2 P3 2.272070 1_555
Ni2 Ta0 2.729798 1_555
Ni2 Ta1 2.742060 1_555
Ni2 Ta1 2.742060 1_445
Ni2 Ru0 2.777182 1_455
Ni3 P0 2.215135 1_555
Ni3 P2 2.272069 1_665
Ni3 P2 2.272070 1_555
Ni3 Ta1 2.729798 1_555
Ni3 Ta0 2.742060 1_555
Ni3 Ta0 2.742060 1_665
Ni3 Ru1 2.777182 1_655
P0 Ru1 2.405289 1_544
P0 Ru1 2.405290 1_654
P0 Ru2 2.478511 1_555
P0 Ru0 2.495457 1_555
P0 Ta0 2.676334 1_665
P0 Ta0 2.676337 1_555
P1 Ru0 2.405289 1_566
P1 Ru0 2.405290 1_456
P1 Ru2 2.478511 1_556
P1 Ru1 2.495457 1_555
P1 Ta1 2.676334 1_445
P1 Ta1 2.676337 1_555
P2 Ru2 2.424240 1_556
P2 Ta1 2.547934 1_445
P2 Ta1 2.547939 1_555
P2 Ru1 2.571437 1_545
P2 Ru1 2.571439 1_655
P2 Ta0 2.600164 1_555
P3 Ru2 2.424240 1_555
P3 Ta0 2.547934 1_665
P3 Ta0 2.547939 1_555
P3 Ru0 2.571437 1_565
P3 Ru0 2.571439 1_455
P3 Ta1 2.600164 1_555
Ru0 Ru2 2.817500 1_545
Ru0 Ru2 2.817501 1_655
Ru0 Ta1 2.965214 1_544
Ru0 Ta0 3.050479 1_655
Ru1 Ru2 2.817500 1_566
Ru1 Ru2 2.817501 1_456
Ru1 Ta0 2.965214 1_566
Ru1 Ta1 3.050479 1_455
Ru2 Ta0 2.790576 1_665
Ru2 Ta1 2.790576 1_444
Ru2 Ta0 2.790580 1_555
Ru2 Ta1 2.790580 1_554
