# generated using pymatgen
data_Zr6Zn16SiPd7
_symmetry_space_group_name_H-M   'P 1'
_cell_length_a   8.74447265
_cell_length_b   8.74447216
_cell_length_c   8.74447198
_cell_angle_alpha   60.00000070
_cell_angle_beta   60.00000254
_cell_angle_gamma   59.99999985
_symmetry_Int_Tables_number   1
_chemical_formula_structural   Zr6Zn16SiPd7
_chemical_formula_sum   'Zr6 Zn16 Si1 Pd7'
_cell_volume   472.80909899
_cell_formula_units_Z   1
loop_
 _symmetry_equiv_pos_site_id
 _symmetry_equiv_pos_as_xyz
  1  'x, y, z'
loop_
 _atom_site_type_symbol
 _atom_site_label
 _atom_site_symmetry_multiplicity
 _atom_site_fract_x
 _atom_site_fract_y
 _atom_site_fract_z
 _atom_site_occupancy
  Zr  Zr0  1  0.71474182  0.28525818  0.28525818  1
  Zr  Zr1  1  0.28525818  0.71474182  0.71474182  1
  Zr  Zr2  1  0.28525818  0.71474182  0.28525818  1
  Zr  Zr3  1  0.71474182  0.28525818  0.71474182  1
  Zr  Zr4  1  0.28525818  0.28525818  0.71474182  1
  Zr  Zr5  1  0.71474182  0.71474182  0.28525818  1
  Zn  Zn0  1  0.12278469  0.12278469  0.12278469  1
  Zn  Zn1  1  0.87721531  0.87721531  0.87721531  1
  Zn  Zn2  1  0.12278469  0.12278469  0.63164592  1
  Zn  Zn3  1  0.12278469  0.63164592  0.12278469  1
  Zn  Zn4  1  0.87721531  0.87721531  0.36835408  1
  Zn  Zn5  1  0.87721531  0.36835408  0.87721531  1
  Zn  Zn6  1  0.63164592  0.12278469  0.12278469  1
  Zn  Zn7  1  0.36835408  0.87721531  0.87721531  1
  Zn  Zn8  1  0.33976059  0.33976059  0.33976059  1
  Zn  Zn9  1  0.66023941  0.66023941  0.66023941  1
  Zn  Zn10  1  0.33976059  0.33976059  0.98072023  1
  Zn  Zn11  1  0.33976059  0.98072023  0.33976059  1
  Zn  Zn12  1  0.66023941  0.66023941  0.01927977  1
  Zn  Zn13  1  0.66023941  0.01927977  0.66023941  1
  Zn  Zn14  1  0.98072023  0.33976059  0.33976059  1
  Zn  Zn15  1  0.01927977  0.66023941  0.66023941  1
  Si  Si0  1  0.50000000  0.50000000  0.50000000  1
  Pd  Pd0  1  0.50000000  0.00000000  0.00000000  1
  Pd  Pd1  1  0.00000000  0.50000000  0.50000000  1
  Pd  Pd2  1  0.00000000  0.50000000  0.00000000  1
  Pd  Pd3  1  0.50000000  0.00000000  0.50000000  1
  Pd  Pd4  1  0.00000000  0.00000000  0.50000000  1
  Pd  Pd5  1  0.50000000  0.50000000  0.00000000  1
  Pd  Pd6  1  0.00000000  0.00000000  0.00000000  1
loop_
_geom_bond_atom_site_label_1
_geom_bond_atom_site_label_2
_geom_bond_distance
_geom_bond_site_symmetry_2
Zn0 Zr2 2.940791 1_545
Zn0 Zr4 2.940791 1_554
Zn0 Zr0 2.940791 1_455
Zn1 Zr3 2.940791 1_565
Zn1 Zr5 2.940791 1_556
Zn1 Zr1 2.940791 1_655
Zn2 Zr1 2.940791 1_545
Zn2 Zr4 2.940791 1_555
Zn2 Zr3 2.940791 1_455
Zn3 Zr1 2.940791 1_554
Zn3 Zr2 2.940791 1_555
Zn3 Zr5 2.940791 1_455
Zn4 Zr0 2.940791 1_565
Zn4 Zr5 2.940791 1_555
Zn4 Zr2 2.940791 1_655
Zn5 Zr3 2.940791 1_555
Zn5 Zr0 2.940791 1_556
Zn5 Zr4 2.940791 1_655
Zn6 Zr3 2.940791 1_554
Zn6 Zr0 2.940791 1_555
Zn6 Zr5 2.940791 1_545
Zn7 Zr2 2.940791 1_556
Zn7 Zr1 2.940791 1_555
Zn7 Zr4 2.940791 1_565
Zn8 Zr4 2.882331 1_555
Zn8 Zr2 2.882331 1_555
Zn8 Zr0 2.882331 1_555
Zn9 Zr5 2.882331 1_555
Zn9 Zr3 2.882331 1_555
Zn9 Zr1 2.882331 1_555
Zn10 Zr1 2.882337 1_555
Zn10 Zr3 2.882337 1_555
Zn10 Zr4 2.882348 1_555
Zn11 Zr1 2.882337 1_555
Zn11 Zr5 2.882337 1_555
Zn11 Zr2 2.882348 1_555
Zn12 Zr0 2.882337 1_555
Zn12 Zr2 2.882337 1_555
Zn12 Zr5 2.882348 1_555
Zn13 Zr0 2.882337 1_555
Zn13 Zr4 2.882337 1_555
Zn13 Zr3 2.882348 1_555
Zn14 Zr5 2.882337 1_555
Zn14 Zr3 2.882337 1_555
Zn14 Zr0 2.882348 1_555
Zn15 Zr4 2.882337 1_555
Zn15 Zr2 2.882337 1_555
Zn15 Zr1 2.882348 1_555
Si0 Zr1 2.655616 1_555
Si0 Zr3 2.655616 1_555
Si0 Zr2 2.655616 1_555
Si0 Zr0 2.655616 1_555
Si0 Zr5 2.655616 1_555
Si0 Zr4 2.655616 1_555
Pd0 Zn10 2.528067 1_554
Pd0 Zn12 2.528067 1_545
Pd0 Zn11 2.528067 1_545
Pd0 Zn13 2.528067 1_554
Pd0 Zn6 2.693625 1_555
Pd0 Zn7 2.693625 1_544
Pd0 Zn1 2.693625 1_544
Pd0 Zn0 2.693625 1_555
Pd0 Zr5 3.122233 1_545
Pd0 Zr4 3.122233 1_554
Pd0 Zr3 3.122233 1_554
Pd0 Zr2 3.122233 1_545
Pd1 Zn15 2.528052 1_555
Pd1 Zn14 2.528052 1_455
Pd1 Zn8 2.528063 1_555
Pd1 Zn9 2.528063 1_455
Pd1 Zn4 2.693625 1_455
Pd1 Zn2 2.693625 1_555
Pd1 Zn5 2.693625 1_455
Pd1 Zn3 2.693625 1_555
Pd1 Zr4 3.122233 1_555
Pd1 Zr5 3.122233 1_455
Pd1 Zr2 3.122233 1_555
Pd1 Zr3 3.122233 1_455
Pd2 Zn14 2.528067 1_455
Pd2 Zn15 2.528067 1_554
Pd2 Zn10 2.528067 1_554
Pd2 Zn12 2.528067 1_455
Pd2 Zn1 2.693625 1_454
Pd2 Zn0 2.693625 1_555
Pd2 Zn3 2.693625 1_555
Pd2 Zn5 2.693625 1_454
Pd2 Zr5 3.122233 1_455
Pd2 Zr4 3.122233 1_554
Pd2 Zr1 3.122233 1_554
Pd2 Zr0 3.122233 1_455
Pd3 Zn13 2.528052 1_555
Pd3 Zn11 2.528052 1_545
Pd3 Zn8 2.528063 1_555
Pd3 Zn9 2.528063 1_545
Pd3 Zn7 2.693625 1_545
Pd3 Zn6 2.693625 1_555
Pd3 Zn4 2.693625 1_545
Pd3 Zn2 2.693625 1_555
Pd3 Zr4 3.122233 1_555
Pd3 Zr5 3.122233 1_545
Pd3 Zr0 3.122233 1_555
Pd3 Zr1 3.122233 1_545
Pd4 Zn14 2.528067 1_455
Pd4 Zn15 2.528067 1_545
Pd4 Zn11 2.528067 1_545
Pd4 Zn13 2.528067 1_455
Pd4 Zn2 2.693625 1_555
Pd4 Zn4 2.693625 1_445
Pd4 Zn1 2.693625 1_445
Pd4 Zn0 2.693625 1_555
Pd4 Zr1 3.122233 1_545
Pd4 Zr3 3.122233 1_455
Pd4 Zr0 3.122233 1_455
Pd4 Zr2 3.122233 1_545
Pd5 Zn12 2.528052 1_555
Pd5 Zn10 2.528052 1_554
Pd5 Zn8 2.528063 1_555
Pd5 Zn9 2.528063 1_554
Pd5 Zn7 2.693625 1_554
Pd5 Zn6 2.693625 1_555
Pd5 Zn5 2.693625 1_554
Pd5 Zn3 2.693625 1_555
Pd5 Zr2 3.122233 1_555
Pd5 Zr0 3.122233 1_555
Pd5 Zr3 3.122233 1_554
Pd5 Zr1 3.122233 1_554
Pd6 Zn5 2.629986 1_454
Pd6 Zn3 2.629986 1_545
Pd6 Zn0 2.629986 1_555
Pd6 Zn1 2.629986 1_444
Pd6 Zn4 2.629986 1_445
Pd6 Zn2 2.629986 1_554
Pd6 Zn6 2.629986 1_455
Pd6 Zn7 2.629986 1_544
