# generated using pymatgen
data_KSbCO5
_symmetry_space_group_name_H-M   'P 1'
_cell_length_a   6.67184098
_cell_length_b   6.67184087
_cell_length_c   5.84180411
_cell_angle_alpha   90.00000000
_cell_angle_beta   90.00000000
_cell_angle_gamma   107.65652252
_symmetry_Int_Tables_number   1
_chemical_formula_structural   KSbCO5
_chemical_formula_sum   'K2 Sb2 C2 O10'
_cell_volume   247.78898567
_cell_formula_units_Z   2
loop_
 _symmetry_equiv_pos_site_id
 _symmetry_equiv_pos_as_xyz
  1  'x, y, z'
loop_
 _atom_site_type_symbol
 _atom_site_label
 _atom_site_symmetry_multiplicity
 _atom_site_fract_x
 _atom_site_fract_y
 _atom_site_fract_z
 _atom_site_occupancy
  K  K0  1  0.39101682  0.60898318  0.25000000  1
  K  K1  1  0.60898318  0.39101682  0.75000000  1
  Sb  Sb0  1  0.00000000  0.00000000  0.00000000  1
  Sb  Sb1  1  0.00000000  0.00000000  0.50000000  1
  C  C0  1  0.75029578  0.24970422  0.25000000  1
  C  C1  1  0.24970422  0.75029578  0.75000000  1
  O  O0  1  0.63579738  0.36420262  0.25000000  1
  O  O1  1  0.36420262  0.63579738  0.75000000  1
  O  O2  1  0.81110935  0.18889065  0.05269075  1
  O  O3  1  0.18889065  0.81110935  0.94730925  1
  O  O4  1  0.18889065  0.81110935  0.55269075  1
  O  O5  1  0.81110935  0.18889065  0.44730925  1
  O  O6  1  0.85098071  0.81676567  0.25000000  1
  O  O7  1  0.14901929  0.18323433  0.75000000  1
  O  O8  1  0.18323433  0.14901929  0.25000000  1
  O  O9  1  0.81676567  0.85098071  0.75000000  1
loop_
_geom_bond_atom_site_label_1
_geom_bond_atom_site_label_2
_geom_bond_distance
_geom_bond_site_symmetry_2
K0 O0 2.636705 1_555
K0 O4 2.804841 1_555
K0 O3 2.804841 1_554
K0 O1 2.935148 1_555
K0 O1 2.935148 1_554
K0 O8 2.959502 1_555
K0 O6 2.959502 1_555
K1 O1 2.636705 1_555
K1 O2 2.804841 1_556
K1 O5 2.804841 1_555
K1 O0 2.935148 1_556
K1 O0 2.935148 1_555
K1 O9 2.959502 1_555
K1 O7 2.959502 1_555
C0 O0 1.233343 1_555
C0 O5 1.325781 1_555
C0 O2 1.325781 1_555
C1 O1 1.233343 1_555
C1 O3 1.325781 1_555
C1 O4 1.325781 1_555
O2 Sb0 2.057826 1_655
O3 Sb0 2.057826 1_566
O4 Sb1 2.057826 1_565
O5 Sb1 2.057826 1_655
O6 Sb0 1.969423 1_665
O6 Sb1 1.969423 1_665
O7 Sb1 1.969423 1_555
O7 Sb0 1.969423 1_556
O8 Sb1 1.969423 1_555
O8 Sb0 1.969423 1_555
O9 Sb0 1.969423 1_666
O9 Sb1 1.969423 1_665
