# generated using pymatgen
data_Ti3Be2IrN
_symmetry_space_group_name_H-M   'P 1'
_cell_length_a   7.77402508
_cell_length_b   7.77402504
_cell_length_c   7.77399863
_cell_angle_alpha   59.99953409
_cell_angle_beta   59.99953428
_cell_angle_gamma   59.99964384
_symmetry_Int_Tables_number   1
_chemical_formula_structural   Ti3Be2IrN
_chemical_formula_sum   'Ti12 Be8 Ir4 N4'
_cell_volume   332.21337073
_cell_formula_units_Z   4
loop_
 _symmetry_equiv_pos_site_id
 _symmetry_equiv_pos_as_xyz
  1  'x, y, z'
loop_
 _atom_site_type_symbol
 _atom_site_label
 _atom_site_symmetry_multiplicity
 _atom_site_fract_x
 _atom_site_fract_y
 _atom_site_fract_z
 _atom_site_occupancy
  Ti  Ti0  1  0.80772441  0.80772441  0.19227523  1
  Ti  Ti1  1  0.19227590  0.19227590  0.80772955  1
  Ti  Ti2  1  0.80771860  0.19227599  0.80772988  1
  Ti  Ti3  1  0.19227632  0.80772404  0.19227522  1
  Ti  Ti4  1  0.19227599  0.80771860  0.80772988  1
  Ti  Ti5  1  0.80772404  0.19227632  0.19227522  1
  Ti  Ti6  1  0.44227559  0.44227559  0.05772477  1
  Ti  Ti7  1  0.05772410  0.05772410  0.44227045  1
  Ti  Ti8  1  0.44228140  0.05772401  0.44227012  1
  Ti  Ti9  1  0.05772368  0.44227596  0.05772478  1
  Ti  Ti10  1  0.05772401  0.44228140  0.44227012  1
  Ti  Ti11  1  0.44227596  0.05772368  0.05772478  1
  Be  Be0  1  0.73904181  0.42031580  0.42031084  1
  Be  Be1  1  0.42031580  0.73904181  0.42031084  1
  Be  Be2  1  0.42031316  0.42031316  0.73904483  1
  Be  Be3  1  0.42032829  0.42032829  0.42032324  1
  Be  Be4  1  0.51095819  0.82968420  0.82968916  1
  Be  Be5  1  0.82968420  0.51095819  0.82968916  1
  Be  Be6  1  0.82968684  0.82968684  0.51095517  1
  Be  Be7  1  0.82967171  0.82967171  0.82967676  1
  Ir  Ir0  1  0.12500000  0.62500000  0.62500000  1
  Ir  Ir1  1  0.62500000  0.12500000  0.62500000  1
  Ir  Ir2  1  0.62500000  0.62500000  0.12500000  1
  Ir  Ir3  1  0.62500000  0.62500000  0.62500000  1
  N  N0  1  0.62500000  0.12500000  0.12500000  1
  N  N1  1  0.12500000  0.62500000  0.12500000  1
  N  N2  1  0.12500000  0.12500000  0.62500000  1
  N  N3  1  0.12500000  0.12500000  0.12500000  1
loop_
_geom_bond_atom_site_label_1
_geom_bond_atom_site_label_2
_geom_bond_distance
_geom_bond_site_symmetry_2
Be0 Ir2 2.357957 1_555
Be0 Ir1 2.357992 1_555
Be0 Ir3 2.358099 1_555
Be1 Ir2 2.357957 1_555
Be1 Ir0 2.357992 1_555
Be1 Ir3 2.358099 1_555
Be2 Ir1 2.357990 1_555
Be2 Ir0 2.357990 1_555
Be2 Ir3 2.358097 1_555
Be3 Ir2 2.357944 1_555
Be3 Ir1 2.357980 1_555
Be3 Ir0 2.357980 1_555
Be4 Ir2 2.357957 1_556
Be4 Ir1 2.357992 1_565
Be4 Ir3 2.358099 1_555
Be5 Ir2 2.357957 1_556
Be5 Ir0 2.357992 1_655
Be5 Ir3 2.358099 1_555
Be6 Ir1 2.357990 1_565
Be6 Ir0 2.357990 1_655
Be6 Ir3 2.358097 1_555
Be7 Ir2 2.357944 1_556
Be7 Ir1 2.357980 1_565
Be7 Ir0 2.357980 1_655
Ir0 Ti9 2.795130 1_556
Ir0 Ti3 2.795130 1_555
Ir0 Ti7 2.795137 1_565
Ir0 Ti1 2.795137 1_555
Ir0 Ti4 2.795157 1_555
Ir0 Ti10 2.795157 1_555
Ir1 Ti11 2.795130 1_556
Ir1 Ti5 2.795130 1_555
Ir1 Ti7 2.795137 1_655
Ir1 Ti1 2.795137 1_555
Ir1 Ti2 2.795157 1_555
Ir1 Ti8 2.795157 1_555
Ir2 Ti11 2.795137 1_565
Ir2 Ti5 2.795137 1_555
Ir2 Ti9 2.795137 1_655
Ir2 Ti3 2.795137 1_555
Ir2 Ti0 2.795157 1_555
Ir2 Ti6 2.795157 1_555
Ir3 Ti0 2.795127 1_555
Ir3 Ti6 2.795127 1_556
Ir3 Ti8 2.795134 1_565
Ir3 Ti2 2.795134 1_555
Ir3 Ti10 2.795134 1_655
Ir3 Ti4 2.795134 1_555
N0 Ti8 2.079429 1_555
N0 Ti2 2.079429 1_554
N0 Ti6 2.079479 1_555
N0 Ti0 2.079479 1_545
N0 Ti5 2.079494 1_555
N0 Ti11 2.079494 1_555
N1 Ti10 2.079429 1_555
N1 Ti4 2.079429 1_554
N1 Ti0 2.079479 1_455
N1 Ti6 2.079479 1_555
N1 Ti3 2.079494 1_555
N1 Ti9 2.079494 1_555
N2 Ti10 2.079518 1_555
N2 Ti4 2.079518 1_545
N2 Ti8 2.079518 1_555
N2 Ti2 2.079518 1_455
N2 Ti1 2.079532 1_555
N2 Ti7 2.079532 1_555
N3 Ti7 2.079436 1_555
N3 Ti1 2.079436 1_554
N3 Ti9 2.079486 1_555
N3 Ti3 2.079486 1_545
N3 Ti11 2.079486 1_555
N3 Ti5 2.079486 1_455
