# generated using pymatgen
data_Al(FeB)2
_symmetry_space_group_name_H-M   'P 1'
_cell_length_a   2.86232583
_cell_length_b   2.89002629
_cell_length_c   5.65089181
_cell_angle_alpha   104.81589389
_cell_angle_beta   90.00000000
_cell_angle_gamma   90.00000000
_symmetry_Int_Tables_number   1
_chemical_formula_structural   Al(FeB)2
_chemical_formula_sum   'Al1 Fe2 B2'
_cell_volume   45.19112515
_cell_formula_units_Z   1
loop_
 _symmetry_equiv_pos_site_id
 _symmetry_equiv_pos_as_xyz
  1  'x, y, z'
loop_
 _atom_site_type_symbol
 _atom_site_label
 _atom_site_symmetry_multiplicity
 _atom_site_fract_x
 _atom_site_fract_y
 _atom_site_fract_z
 _atom_site_occupancy
  Al  Al0  1  0.00000000  -0.00000000  0.00000000  1
  Fe  Fe0  1  0.50000000  0.64693490  0.29386779  1
  Fe  Fe1  1  0.50000000  0.35306510  0.70613221  1
  B  B0  1  -0.00000000  0.79421096  0.58842093  1
  B  B1  1  0.00000000  0.20579004  0.41157907  1
loop_
_geom_bond_atom_site_label_1
_geom_bond_atom_site_label_2
_geom_bond_distance
_geom_bond_site_symmetry_2
Al0 B0 2.248462 1_544
Al0 B1 2.248462 1_555
Al0 Fe1 2.591062 1_554
Al0 Fe0 2.591062 1_545
Al0 Fe1 2.591062 1_454
Al0 Fe0 2.591062 1_445
Al0 Fe1 2.591066 1_544
Al0 Fe1 2.591066 1_444
Al0 Fe0 2.591066 1_455
Al0 Fe0 2.591066 1_555
B0 B1 1.738215 1_565
B0 B1 1.738215 1_555
B0 Fe1 2.133027 1_565
B0 Fe1 2.133027 1_465
B0 Fe1 2.133032 1_455
B0 Fe1 2.133032 1_555
B0 Fe0 2.153505 1_555
B0 Fe0 2.153505 1_455
B1 Fe0 2.133028 1_545
B1 Fe0 2.133028 1_445
B1 Fe0 2.133030 1_455
B1 Fe0 2.133030 1_555
B1 Fe1 2.153505 1_455
B1 Fe1 2.153505 1_555
