# generated using pymatgen
data_TaIrSe4
_symmetry_space_group_name_H-M   'P 1'
_cell_length_a   3.61893416
_cell_length_b   11.78383940
_cell_length_c   13.01177244
_cell_angle_alpha   90.00000000
_cell_angle_beta   90.00000000
_cell_angle_gamma   90.00000000
_symmetry_Int_Tables_number   1
_chemical_formula_structural   TaIrSe4
_chemical_formula_sum   'Ta4 Ir4 Se16'
_cell_volume   554.88624129
_cell_formula_units_Z   4
loop_
 _symmetry_equiv_pos_site_id
 _symmetry_equiv_pos_as_xyz
  1  'x, y, z'
loop_
 _atom_site_type_symbol
 _atom_site_label
 _atom_site_symmetry_multiplicity
 _atom_site_fract_x
 _atom_site_fract_y
 _atom_site_fract_z
 _atom_site_occupancy
  Ta  Ta0  1  0.00000000  0.04814720  0.00056582  1
  Ta  Ta1  1  0.50000000  0.95185280  0.50056582  1
  Ta  Ta2  1  0.00000000  0.26692992  0.49367375  1
  Ta  Ta3  1  0.50000000  0.73307008  0.99367375  1
  Ir  Ir0  1  0.00000000  0.53072793  0.99946748  1
  Ir  Ir1  1  0.50000000  0.46927207  0.49946748  1
  Ir  Ir2  1  0.00000000  0.75034287  0.49381300  1
  Ir  Ir3  1  0.50000000  0.24965713  0.99381300  1
  Se  Se0  1  0.50000000  0.10007963  0.13300591  1
  Se  Se1  1  0.00000000  0.89992037  0.63300591  1
  Se  Se2  1  0.50000000  0.15563428  0.60160680  1
  Se  Se3  1  0.00000000  0.84436572  0.10160680  1
  Se  Se4  1  0.50000000  0.31871151  0.36143833  1
  Se  Se5  1  0.00000000  0.68128849  0.86143833  1
  Se  Se6  1  0.50000000  0.43555592  0.89832687  1
  Se  Se7  1  0.00000000  0.56444408  0.39832687  1
  Se  Se8  1  0.00000000  0.06328222  0.39312980  1
  Se  Se9  1  0.50000000  0.93671778  0.89312980  1
  Se  Se10  1  0.00000000  0.19401258  0.86578284  1
  Se  Se11  1  0.50000000  0.80598742  0.36578284  1
  Se  Se12  1  0.00000000  0.34482558  0.09470539  1
  Se  Se13  1  0.50000000  0.65517442  0.59470539  1
  Se  Se14  1  0.00000000  0.41399437  0.62754200  1
  Se  Se15  1  0.50000000  0.58600563  0.12754200  1
loop_
_geom_bond_atom_site_label_1
_geom_bond_atom_site_label_2
_geom_bond_distance
_geom_bond_site_symmetry_2
Ir0 Se6 2.502762 1_555
Ir0 Se6 2.502762 1_455
Ir0 Se12 2.516857 1_556
Ir0 Se5 2.524549 1_555
Ir0 Se15 2.544723 1_456
Ir0 Se15 2.544723 1_556
Ir0 Ta3 2.994171 1_455
Ir0 Ta3 2.994171 1_555
Ir1 Se7 2.502762 1_555
Ir1 Se7 2.502762 1_655
Ir1 Se13 2.516857 1_555
Ir1 Se4 2.524549 1_555
Ir1 Se14 2.544723 1_655
Ir1 Se14 2.544723 1_555
Ir1 Ta2 2.994171 1_555
Ir1 Ta2 2.994171 1_655
Ir2 Se13 2.501047 1_455
Ir2 Se13 2.501047 1_555
Ir2 Se7 2.518413 1_555
Ir2 Se1 2.527252 1_555
Ir2 Se11 2.545455 1_455
Ir2 Se11 2.545455 1_555
Ir2 Ta1 2.986709 1_455
Ir2 Ta1 2.986709 1_555
Ir3 Se12 2.501047 1_656
Ir3 Se12 2.501047 1_556
Ir3 Se6 2.518413 1_555
Ir3 Se0 2.527252 1_556
Ir3 Se10 2.545455 1_555
Ir3 Se10 2.545455 1_655
Ir3 Ta0 2.986709 1_556
Ir3 Ta0 2.986709 1_656
Se0 Ta0 2.572618 1_655
Se0 Ta0 2.572618 1_555
Se1 Ta1 2.572618 1_555
Se1 Ta1 2.572618 1_455
Se2 Ta2 2.639416 1_555
Se2 Ta2 2.639416 1_655
Se2 Ta1 2.737676 1_545
Se3 Ta3 2.639416 1_554
Se3 Ta3 2.639416 1_454
Se3 Ta0 2.737676 1_565
Se4 Ta2 2.570413 1_555
Se4 Ta2 2.570413 1_655
Se5 Ta3 2.570413 1_555
Se5 Ta3 2.570413 1_455
Se8 Ta1 2.636765 1_545
Se8 Ta1 2.636765 1_445
Se8 Ta2 2.733192 1_555
Se9 Ta0 2.636765 1_666
Se9 Ta0 2.636765 1_566
Se9 Ta3 2.733192 1_555
Se10 Ta0 2.455637 1_556
Se11 Ta1 2.455637 1_555
Se14 Ta2 2.457096 1_555
Se15 Ta3 2.457096 1_554
