# generated using pymatgen
data_Y2MnIr2Rh
_symmetry_space_group_name_H-M   'P 1'
_cell_length_a   5.49503881
_cell_length_b   5.16075723
_cell_length_c   5.49503936
_cell_angle_alpha   57.98422331
_cell_angle_beta   60.09608366
_cell_angle_gamma   57.98420291
_symmetry_Int_Tables_number   1
_chemical_formula_structural   Y2MnIr2Rh
_chemical_formula_sum   'Y2 Mn1 Ir2 Rh1'
_cell_volume   106.78398074
_cell_formula_units_Z   1
loop_
 _symmetry_equiv_pos_site_id
 _symmetry_equiv_pos_as_xyz
  1  'x, y, z'
loop_
 _atom_site_type_symbol
 _atom_site_label
 _atom_site_symmetry_multiplicity
 _atom_site_fract_x
 _atom_site_fract_y
 _atom_site_fract_z
 _atom_site_occupancy
  Y  Y0  1  0.62631125  0.61965979  0.62631125  1
  Y  Y1  1  0.37368875  0.38034021  0.37368875  1
  Mn  Mn0  1  0.00000000  0.50000000  0.00000000  1
  Ir  Ir0  1  0.50000000  0.00000000  0.00000000  1
  Ir  Ir1  1  0.00000000  0.00000000  0.50000000  1
  Rh  Rh0  1  0.00000000  0.00000000  0.00000000  1
loop_
_geom_bond_atom_site_label_1
_geom_bond_atom_site_label_2
_geom_bond_distance
_geom_bond_site_symmetry_2
Mn0 Rh0 2.580379 1_555
Mn0 Rh0 2.580379 1_565
Ir0 Mn0 2.586509 1_645
Ir0 Mn0 2.586509 1_555
Ir0 Rh0 2.747519 1_555
Ir0 Rh0 2.747519 1_655
Ir0 Ir1 2.751509 1_555
Ir0 Ir1 2.751509 1_654
Ir0 Y0 2.982390 1_554
Ir0 Y1 2.982390 1_545
Ir0 Y0 3.154952 1_545
Ir0 Y1 3.154952 1_554
Ir0 Y1 3.155801 1_555
Ir0 Y0 3.155801 1_544
Ir1 Mn0 2.586510 1_555
Ir1 Mn0 2.586510 1_546
Ir1 Rh0 2.747520 1_556
Ir1 Rh0 2.747520 1_555
Ir1 Y0 2.982389 1_455
Ir1 Y1 2.982389 1_545
Ir1 Y0 3.154951 1_545
Ir1 Y1 3.154951 1_455
Ir1 Y1 3.155801 1_555
Ir1 Y0 3.155801 1_445
Rh0 Y1 2.989773 1_545
Rh0 Y0 2.989773 1_454
Rh0 Y1 3.158850 1_455
Rh0 Y0 3.158850 1_544
Rh0 Y1 3.158851 1_554
Rh0 Y0 3.158851 1_445
