# generated using pymatgen
data_NaB2IrPt
_symmetry_space_group_name_H-M   'P 1'
_cell_length_a   7.18999917
_cell_length_b   6.18618092
_cell_length_c   5.41993485
_cell_angle_alpha   76.24135095
_cell_angle_beta   56.68869324
_cell_angle_gamma   47.06995950
_symmetry_Int_Tables_number   1
_chemical_formula_structural   NaB2IrPt
_chemical_formula_sum   'Na2 B4 Ir2 Pt2'
_cell_volume   143.80652411
_cell_formula_units_Z   2
loop_
 _symmetry_equiv_pos_site_id
 _symmetry_equiv_pos_as_xyz
  1  'x, y, z'
loop_
 _atom_site_type_symbol
 _atom_site_label
 _atom_site_symmetry_multiplicity
 _atom_site_fract_x
 _atom_site_fract_y
 _atom_site_fract_z
 _atom_site_occupancy
  Na  Na0  1  0.99918942  0.99918942  0.00081058  1
  Na  Na1  1  0.24918942  0.24918942  0.25081058  1
  B  B0  1  0.33549743  0.66063478  0.31249438  1
  B  B1  1  0.55862659  0.93750562  0.58936522  1
  B  B2  1  0.66063478  0.33549743  0.69137341  1
  B  B3  1  0.93750562  0.55862659  0.91450257  1
  Ir  Ir0  1  0.62466648  0.62466648  0.87533352  1
  Ir  Ir1  1  0.37466648  0.37466648  0.62533352  1
  Pt  Pt0  1  0.63001089  0.63001089  0.36998911  1
  Pt  Pt1  1  0.88001089  0.88001089  0.61998911  1
loop_
_geom_bond_atom_site_label_1
_geom_bond_atom_site_label_2
_geom_bond_distance
_geom_bond_site_symmetry_2
Na0 Pt1 3.010828 1_554
Na0 Pt1 3.010828 1_555
Na0 Pt0 3.169873 1_654
Na0 Pt0 3.169873 1_565
Na1 Pt0 3.010828 1_455
Na1 Pt0 3.010828 1_545
Na1 Pt1 3.169873 1_544
Na1 Pt1 3.169873 1_455
B0 Ir0 2.048407 1_554
B0 Pt1 2.090737 1_455
B0 Ir1 2.121992 1_555
B0 Pt0 2.183405 1_555
B0 Na0 2.998708 1_455
B0 Na1 3.124022 1_555
B0 Na0 3.194281 1_545
B0 Na1 3.213126 1_565
B1 Ir1 2.048407 1_565
B1 Pt0 2.090737 1_555
B1 Ir0 2.121992 1_555
B1 Pt1 2.183405 1_555
B1 Na1 2.998708 1_565
B1 Na0 3.124021 1_456
B1 Na1 3.194281 1_566
B1 Na0 3.213126 1_555
B2 Ir0 2.048407 1_555
B2 Pt1 2.090737 1_545
B2 Ir1 2.121992 1_555
B2 Pt0 2.183405 1_555
B2 Na0 2.998708 1_546
B2 Na1 3.124021 1_556
B2 Na0 3.194281 1_456
B2 Na1 3.213126 1_655
B3 Ir1 2.048407 1_655
B3 Pt0 2.090737 1_556
B3 Ir0 2.121992 1_555
B3 Pt1 2.183405 1_555
B3 Na1 2.998708 1_656
B3 Na0 3.124022 1_546
B3 Na1 3.194281 1_655
B3 Na0 3.213126 1_556
Ir0 Na0 3.041680 1_456
Ir0 Na0 3.041680 1_546
Ir0 Na1 3.138981 1_655
Ir0 Na1 3.138982 1_566
Ir1 Na1 3.041680 1_555
Ir1 Na1 3.041680 1_556
Ir1 Na0 3.138981 1_545
Ir1 Na0 3.138982 1_456
