# generated using pymatgen
data_Be4Ni2W6C
_symmetry_space_group_name_H-M   'P 1'
_cell_length_a   7.51668296
_cell_length_b   7.51668232
_cell_length_c   7.51668300
_cell_angle_alpha   59.99999701
_cell_angle_beta   59.99999982
_cell_angle_gamma   59.99999457
_symmetry_Int_Tables_number   1
_chemical_formula_structural   Be4Ni2W6C
_chemical_formula_sum   'Be8 Ni4 W12 C2'
_cell_volume   300.30574277
_cell_formula_units_Z   2
loop_
 _symmetry_equiv_pos_site_id
 _symmetry_equiv_pos_as_xyz
  1  'x, y, z'
loop_
 _atom_site_type_symbol
 _atom_site_label
 _atom_site_symmetry_multiplicity
 _atom_site_fract_x
 _atom_site_fract_y
 _atom_site_fract_z
 _atom_site_occupancy
  Be  Be0  1  0.42285278  0.42285278  0.73144067  1
  Be  Be1  1  0.42285278  0.73144067  0.42285278  1
  Be  Be2  1  0.73144067  0.42285278  0.42285278  1
  Be  Be3  1  0.42285278  0.42285278  0.42285278  1
  Be  Be4  1  0.82714722  0.82714722  0.51855933  1
  Be  Be5  1  0.82714722  0.51855933  0.82714722  1
  Be  Be6  1  0.51855933  0.82714722  0.82714722  1
  Be  Be7  1  0.82714722  0.82714722  0.82714722  1
  Ni  Ni0  1  0.62500000  0.62500000  0.12500000  1
  Ni  Ni1  1  0.62500000  0.12500000  0.62500000  1
  Ni  Ni2  1  0.12500000  0.62500000  0.62500000  1
  Ni  Ni3  1  0.62500000  0.62500000  0.62500000  1
  W  W0  1  0.04949939  0.04949939  0.45050061  1
  W  W1  1  0.45050061  0.04949939  0.45050061  1
  W  W2  1  0.04949939  0.45050061  0.45050061  1
  W  W3  1  0.45050061  0.45050061  0.04949939  1
  W  W4  1  0.04949939  0.45050061  0.04949939  1
  W  W5  1  0.45050061  0.04949939  0.04949939  1
  W  W6  1  0.20050061  0.20050061  0.79949939  1
  W  W7  1  0.79949939  0.20050061  0.79949939  1
  W  W8  1  0.20050061  0.79949939  0.79949939  1
  W  W9  1  0.79949939  0.79949939  0.20050061  1
  W  W10  1  0.20050061  0.79949939  0.20050061  1
  W  W11  1  0.79949939  0.20050061  0.20050061  1
  C  C0  1  0.25000000  0.25000000  0.25000000  1
  C  C1  1  0.00000000  0.00000000  0.00000000  1
loop_
_geom_bond_atom_site_label_1
_geom_bond_atom_site_label_2
_geom_bond_distance
_geom_bond_site_symmetry_2
Be0 Ni1 2.266080 1_555
Be0 Ni2 2.266080 1_555
Be0 Ni3 2.266087 1_555
Be0 Be1 2.319557 1_555
Be0 Be2 2.319557 1_555
Be0 Be3 2.319557 1_555
Be0 W5 2.615130 1_556
Be0 W4 2.615130 1_556
Be0 W3 2.615134 1_556
Be0 W6 2.632851 1_555
Be0 W8 2.632857 1_555
Be0 W7 2.632857 1_555
Be1 Ni0 2.266080 1_555
Be1 Ni2 2.266080 1_555
Be1 Ni3 2.266087 1_555
Be1 Be2 2.319557 1_555
Be1 Be3 2.319557 1_555
Be1 W0 2.615130 1_565
Be1 W5 2.615130 1_565
Be1 W1 2.615134 1_565
Be1 W10 2.632851 1_555
Be1 W8 2.632857 1_555
Be1 W9 2.632857 1_555
Be2 Ni1 2.266080 1_555
Be2 Ni0 2.266080 1_555
Be2 Ni3 2.266087 1_555
Be2 Be3 2.319557 1_555
Be2 W0 2.615129 1_655
Be2 W4 2.615130 1_655
Be2 W2 2.615134 1_655
Be2 W11 2.632851 1_555
Be2 W9 2.632857 1_555
Be2 W7 2.632857 1_555
Be3 Ni1 2.266084 1_555
Be3 Ni2 2.266084 1_555
Be3 Ni0 2.266084 1_555
Be3 W1 2.615126 1_555
Be3 W2 2.615127 1_555
Be3 W3 2.615127 1_555
Be3 W10 2.632854 1_555
Be3 W11 2.632854 1_555
Be3 W6 2.632854 1_555
Be4 Ni1 2.266080 1_565
Be4 Ni2 2.266080 1_655
Be4 Ni3 2.266087 1_555
Be4 Be5 2.319557 1_555
Be4 Be6 2.319557 1_555
Be4 Be7 2.319557 1_555
Be4 W11 2.615130 1_565
Be4 W10 2.615130 1_655
Be4 W9 2.615134 1_555
Be4 W0 2.632851 1_665
Be4 W2 2.632857 1_655
Be4 W1 2.632857 1_565
Be5 Ni0 2.266080 1_556
Be5 Ni2 2.266080 1_655
Be5 Ni3 2.266087 1_555
Be5 Be6 2.319557 1_555
Be5 Be7 2.319557 1_555
Be5 W6 2.615130 1_655
Be5 W11 2.615130 1_556
Be5 W7 2.615134 1_555
Be5 W4 2.632851 1_656
Be5 W2 2.632857 1_655
Be5 W3 2.632857 1_556
Be6 Ni1 2.266080 1_565
Be6 Ni0 2.266080 1_556
Be6 Ni3 2.266087 1_555
Be6 Be7 2.319557 1_555
Be6 W6 2.615129 1_565
Be6 W10 2.615130 1_556
Be6 W8 2.615134 1_555
Be6 W5 2.632851 1_566
Be6 W3 2.632857 1_556
Be6 W1 2.632857 1_565
Be7 Ni1 2.266084 1_565
Be7 Ni2 2.266084 1_655
Be7 Ni0 2.266084 1_556
Be7 W7 2.615126 1_565
Be7 W8 2.615127 1_655
Be7 W9 2.615127 1_556
Be7 W4 2.632854 1_656
Be7 W5 2.632854 1_566
Be7 W0 2.632854 1_665
Ni0 W5 2.640486 1_565
Ni0 W11 2.640486 1_555
Ni0 W4 2.640486 1_655
Ni0 W10 2.640486 1_555
Ni0 W9 2.640486 1_555
Ni0 W3 2.640486 1_555
Ni1 W0 2.640486 1_655
Ni1 W6 2.640486 1_555
Ni1 W5 2.640486 1_556
Ni1 W11 2.640486 1_555
Ni1 W7 2.640486 1_555
Ni1 W1 2.640486 1_555
Ni2 W0 2.640486 1_565
Ni2 W6 2.640486 1_555
Ni2 W8 2.640486 1_555
Ni2 W2 2.640486 1_555
Ni2 W4 2.640486 1_556
Ni2 W10 2.640486 1_555
Ni3 W1 2.640486 1_565
Ni3 W7 2.640486 1_555
Ni3 W2 2.640486 1_655
Ni3 W8 2.640486 1_555
Ni3 W3 2.640486 1_556
Ni3 W9 2.640486 1_555
C0 W1 2.131360 1_555
C0 W4 2.131360 1_555
C0 W2 2.131360 1_555
C0 W5 2.131360 1_555
C0 W3 2.131361 1_555
C0 W0 2.131361 1_555
C1 W10 2.131360 1_545
C1 W7 2.131360 1_454
C1 W11 2.131360 1_455
C1 W8 2.131360 1_544
C1 W6 2.131361 1_554
C1 W9 2.131361 1_445
