# generated using pymatgen
data_Ti8Al14GeOs7
_symmetry_space_group_name_H-M   'P 1'
_cell_length_a   8.62093935
_cell_length_b   8.62094600
_cell_length_c   8.62092311
_cell_angle_alpha   120.14728809
_cell_angle_beta   119.86241867
_cell_angle_gamma   89.99205075
_symmetry_Int_Tables_number   1
_chemical_formula_structural   Ti8Al14GeOs7
_chemical_formula_sum   'Ti8 Al14 Ge1 Os7'
_cell_volume   453.01440025
_cell_formula_units_Z   1
loop_
 _symmetry_equiv_pos_site_id
 _symmetry_equiv_pos_as_xyz
  1  'x, y, z'
loop_
 _atom_site_type_symbol
 _atom_site_label
 _atom_site_symmetry_multiplicity
 _atom_site_fract_x
 _atom_site_fract_y
 _atom_site_fract_z
 _atom_site_occupancy
  Ti  Ti0  1  0.79514146  0.28675226  0.07168023  1
  Ti  Ti1  1  0.21506690  0.28675079  0.49160593  1
  Ti  Ti2  1  0.21071260  0.71071210  0.50000288  1
  Ti  Ti3  1  0.21507373  0.72346584  0.92832220  1
  Ti  Ti4  1  0.79514114  0.72346023  0.50838783  1
  Ti  Ti5  1  0.77961012  0.27960907  0.49999886  1
  Ti  Ti6  1  0.37936129  0.12076078  0.74139925  1
  Ti  Ti7  1  0.37936039  0.63796261  0.25859989  1
  Al  Al0  1  0.16076685  0.33911277  0.17834226  1
  Al  Al1  1  0.16076820  0.98242587  0.82165761  1
  Al  Al2  1  0.15612247  0.34301801  0.81310808  1
  Al  Al3  1  0.52990959  0.34301303  0.18689084  1
  Al  Al4  1  0.84161177  0.65650633  0.81489883  1
  Al  Al5  1  0.84161069  0.02671255  0.18510365  1
  Al  Al6  1  0.83950346  0.65819479  0.18130411  1
  Al  Al7  1  0.47688943  0.65819617  0.81869438  1
  Al  Al8  1  0.38003749  0.12039899  0.25963594  1
  Al  Al9  1  0.86076359  0.12040074  0.74036565  1
  Al  Al10  1  0.61936415  0.87632633  0.25695934  1
  Al  Al11  1  0.61936515  0.36240335  0.74303861  1
  Al  Al12  1  0.61980985  0.87829950  0.74151034  1
  Al  Al13  1  0.13678999  0.87829947  0.25849037  1
  Ge  Ge0  1  0.99575485  0.49575561  0.50000189  1
  Os  Os0  1  0.99865032  0.99873765  0.50050854  1
  Os  Os1  1  0.49822575  0.99873558  0.00008648  1
  Os  Os2  1  0.49859273  0.49858877  0.00000081  1
  Os  Os3  1  0.49822978  0.49814143  0.49948973  1
  Os  Os4  1  0.99864883  0.49813915  0.99991069  1
  Os  Os5  1  0.99987775  0.99987706  0.00000107  1
  Os  Os6  1  0.49923868  0.99924218  0.50000371  1
loop_
_geom_bond_atom_site_label_1
_geom_bond_atom_site_label_2
_geom_bond_distance
_geom_bond_site_symmetry_2
Al0 Os4 2.485123 1_454
Al0 Os3 2.485144 1_555
Al0 Os5 2.490310 1_445
Al1 Os1 2.485125 1_556
Al1 Os0 2.485142 1_455
Al1 Os5 2.490301 1_456
Al2 Os2 2.490969 1_556
Al2 Os4 2.497647 1_455
Al2 Os0 2.497670 1_445
Al3 Os2 2.490951 1_555
Al3 Os1 2.497651 1_545
Al3 Os3 2.497663 1_555
Al4 Os5 2.501777 1_556
Al4 Os4 2.505426 1_555
Al4 Os3 2.505440 1_555
Al5 Os5 2.501774 1_545
Al5 Os0 2.505426 1_545
Al5 Os1 2.505462 1_545
Al6 Os4 2.490049 1_554
Al6 Os0 2.490068 1_555
Al6 Os2 2.498041 1_555
Al7 Os1 2.490056 1_556
Al7 Os3 2.490084 1_555
Al7 Os2 2.498058 1_556
Al8 Os6 2.548348 1_545
Al8 Os1 2.656620 1_545
Al8 Os3 2.656651 1_555
Al8 Os5 2.681474 1_445
Al9 Os6 2.548345 1_545
Al9 Os4 2.656621 1_555
Al9 Os0 2.656664 1_545
Al9 Os5 2.681475 1_546
Al10 Os6 2.552614 1_555
Al10 Os2 2.655936 1_555
Al10 Os1 2.674350 1_555
Al10 Os0 2.674374 1_555
Al11 Os6 2.552550 1_545
Al11 Os2 2.655918 1_556
Al11 Os4 2.674355 1_555
Al11 Os3 2.674385 1_555
Al12 Os6 2.554864 1_555
Al12 Os3 2.673478 1_555
Al12 Os1 2.673496 1_556
Al12 Os5 2.680285 1_556
Al13 Os6 2.554853 1_555
Al13 Os0 2.673480 1_455
Al13 Os4 2.673493 1_454
Al13 Os5 2.680284 1_455
Ge0 Ti1 2.613577 1_655
Ge0 Ti3 2.613580 1_655
Ge0 Ti4 2.613585 1_555
Ge0 Ti0 2.613588 1_555
Ge0 Ti2 2.620902 1_655
Ge0 Ti5 2.635380 1_555
Os0 Ti6 2.685234 1_665
Os1 Ti6 2.685251 1_564
Os2 Ti6 2.657303 1_554
Os2 Ti7 2.657331 1_555
Os3 Ti7 2.685241 1_555
Os4 Ti7 2.685238 1_656
Os5 Ti1 3.027057 1_665
Os5 Ti3 3.027088 1_654
Os5 Ti4 3.027105 1_554
Os5 Ti0 3.027114 1_565
Os6 Ti6 2.539269 1_565
Os6 Ti7 2.539313 1_555
