# generated using pymatgen
data_Y12InCo4Cu
_symmetry_space_group_name_H-M   'P 1'
_cell_length_a   8.37739142
_cell_length_b   8.37739105
_cell_length_c   8.37739153
_cell_angle_alpha   110.97533130
_cell_angle_beta   110.26985192
_cell_angle_gamma   107.19303197
_symmetry_Int_Tables_number   1
_chemical_formula_structural   Y12InCo4Cu
_chemical_formula_sum   'Y12 In1 Co4 Cu1'
_cell_volume   452.03768946
_cell_formula_units_Z   1
loop_
 _symmetry_equiv_pos_site_id
 _symmetry_equiv_pos_as_xyz
  1  'x, y, z'
loop_
 _atom_site_type_symbol
 _atom_site_label
 _atom_site_symmetry_multiplicity
 _atom_site_fract_x
 _atom_site_fract_y
 _atom_site_fract_z
 _atom_site_occupancy
  Y  Y0  1  0.41342649  0.21373152  0.19969498  1
  Y  Y1  1  0.58657351  0.78626848  0.80030502  1
  Y  Y2  1  0.01403654  0.21373152  0.80030502  1
  Y  Y3  1  0.98596346  0.78626848  0.19969498  1
  Y  Y4  1  0.18540236  0.29320610  0.47860946  1
  Y  Y5  1  0.81459764  0.70679390  0.52139054  1
  Y  Y6  1  0.18540236  0.70679390  0.89219726  1
  Y  Y7  1  0.81459764  0.29320610  0.10780274  1
  Y  Y8  1  0.31731125  0.61923700  0.30192775  1
  Y  Y9  1  0.68268875  0.38076300  0.69807225  1
  Y  Y10  1  0.31731125  0.01538350  0.69807225  1
  Y  Y11  1  0.68268875  0.98461650  0.30192775  1
  In  In0  1  0.50000000  0.50000000  0.00000000  1
  Co  Co0  1  0.38300265  1.00000000  0.38300265  1
  Co  Co1  1  0.61699735  0.00000000  0.61699735  1
  Co  Co2  1  0.10903795  0.60903795  0.50000000  1
  Co  Co3  1  0.89096205  0.39096205  0.50000000  1
  Cu  Cu0  1  0.00000000  0.00000000  0.00000000  1
loop_
_geom_bond_atom_site_label_1
_geom_bond_atom_site_label_2
_geom_bond_distance
_geom_bond_site_symmetry_2
In0 Y8 3.393364 1_555
In0 Y9 3.393364 1_554
In0 Y10 3.393367 1_554
In0 Y11 3.393367 1_555
In0 Y0 3.429386 1_555
In0 Y1 3.429386 1_554
In0 Y3 3.429386 1_555
In0 Y2 3.429386 1_554
In0 Y5 3.596217 1_555
In0 Y4 3.596217 1_554
In0 Y7 3.596222 1_555
In0 Y6 3.596222 1_554
Co0 Co1 2.241155 1_565
Co0 Y0 2.756629 1_565
Co0 Y3 2.756629 1_455
Co0 Y11 2.844481 1_555
Co0 Y10 2.844481 1_565
Co0 Y9 2.844490 1_565
Co0 Y8 2.844497 1_555
Co0 Y6 3.365877 1_554
Co0 Y4 3.365884 1_565
Co1 Y1 2.756629 1_545
Co1 Y2 2.756629 1_655
Co1 Y10 2.844481 1_555
Co1 Y11 2.844481 1_545
Co1 Y8 2.844490 1_545
Co1 Y9 2.844497 1_555
Co1 Y7 3.365877 1_556
Co1 Y5 3.365884 1_545
Co2 Co3 2.168421 1_455
Co2 Y8 2.797203 1_555
Co2 Y10 2.797204 1_565
Co2 Y5 2.860508 1_455
Co2 Y4 2.860512 1_555
Co2 Y7 2.860515 1_455
Co2 Y6 2.860518 1_555
Co2 Y3 3.373204 1_455
Co2 Y1 3.373205 1_555
Co3 Y9 2.797203 1_555
Co3 Y11 2.797204 1_545
Co3 Y4 2.860508 1_655
Co3 Y5 2.860512 1_555
Co3 Y6 2.860515 1_655
Co3 Y7 2.860518 1_555
Co3 Y2 3.373204 1_655
Co3 Y0 3.373205 1_555
Cu0 Y3 2.859154 1_445
Cu0 Y2 2.859154 1_554
Cu0 Y0 2.859154 1_555
Cu0 Y1 2.859154 1_444
Cu0 Y7 3.301604 1_455
Cu0 Y6 3.301604 1_544
Cu0 Y4 3.301612 1_555
Cu0 Y5 3.301612 1_444
