# generated using pymatgen
data_Sr5FeWN7
_symmetry_space_group_name_H-M   'P 1'
_cell_length_a   6.40196393
_cell_length_b   9.08723381
_cell_length_c   9.12780571
_cell_angle_alpha   114.37854927
_cell_angle_beta   97.64728160
_cell_angle_gamma   90.24996562
_symmetry_Int_Tables_number   1
_chemical_formula_structural   Sr5FeWN7
_chemical_formula_sum   'Sr10 Fe2 W2 N14'
_cell_volume   478.33698976
_cell_formula_units_Z   2
loop_
 _symmetry_equiv_pos_site_id
 _symmetry_equiv_pos_as_xyz
  1  'x, y, z'
loop_
 _atom_site_type_symbol
 _atom_site_label
 _atom_site_symmetry_multiplicity
 _atom_site_fract_x
 _atom_site_fract_y
 _atom_site_fract_z
 _atom_site_occupancy
  Sr  Sr0  1  0.84963961  0.58142381  0.33843774  1
  Sr  Sr1  1  0.27188683  0.98515976  0.56981839  1
  Sr  Sr2  1  0.70080634  0.40857737  0.83983860  1
  Sr  Sr3  1  0.29919366  0.59142263  0.16016140  1
  Sr  Sr4  1  0.39728485  0.78657921  0.90706262  1
  Sr  Sr5  1  0.60271515  0.21342079  0.09293738  1
  Sr  Sr6  1  0.15036039  0.41857619  0.66156226  1
  Sr  Sr7  1  0.88602276  0.83896078  0.75545282  1
  Sr  Sr8  1  0.11397724  0.16103922  0.24454718  1
  Sr  Sr9  1  0.72811317  0.01484024  0.43018161  1
  Fe  Fe0  1  0.57663099  0.35743424  0.47553654  1
  Fe  Fe1  1  0.42336901  0.64256576  0.52446346  1
  W  W0  1  0.11814084  0.21698899  0.91261738  1
  W  W1  1  0.88185916  0.78301101  0.08738262  1
  N  N0  1  0.55219351  0.55037049  0.65214056  1
  N  N1  1  0.44780649  0.44962951  0.34785944  1
  N  N2  1  0.17725280  0.69392000  0.57510385  1
  N  N3  1  0.82274720  0.30608000  0.42489615  1
  N  N4  1  0.42535809  0.20704548  0.48492131  1
  N  N5  1  0.57464191  0.79295452  0.51507869  1
  N  N6  1  0.94315662  0.13345921  0.70986732  1
  N  N7  1  0.05684338  0.86654079  0.29013268  1
  N  N8  1  0.23340516  0.05044011  0.96113189  1
  N  N9  1  0.76659484  0.94955989  0.03886811  1
  N  N10  1  0.35043686  0.33429985  0.90044571  1
  N  N11  1  0.96801788  0.34769279  0.07921448  1
  N  N12  1  0.03198212  0.65230721  0.92078552  1
  N  N13  1  0.64956314  0.66570015  0.09955429  1
loop_
_geom_bond_atom_site_label_1
_geom_bond_atom_site_label_2
_geom_bond_distance
_geom_bond_site_symmetry_2
Fe0 N4 1.708812 1_555
Fe0 N3 1.713541 1_555
Fe0 N1 1.815633 1_555
Fe0 N0 1.852920 1_555
Fe1 N5 1.708812 1_555
Fe1 N2 1.713541 1_555
Fe1 N0 1.815633 1_555
Fe1 N1 1.852920 1_555
N0 Sr2 2.626786 1_555
N0 Sr4 2.741318 1_555
N0 Sr6 2.859483 1_555
N0 Sr7 3.115658 1_555
N1 Sr3 2.626786 1_555
N1 Sr5 2.741318 1_555
N1 Sr0 2.859483 1_555
N1 Sr8 3.115658 1_555
N2 Sr7 2.640157 1_455
N2 Sr0 2.657631 1_455
N2 Sr1 2.733655 1_555
N2 Sr6 2.928396 1_555
N2 Sr4 2.936313 1_555
N3 Sr8 2.640157 1_655
N3 Sr6 2.657631 1_655
N3 Sr9 2.733655 1_555
N3 Sr0 2.928396 1_555
N3 Sr5 2.936313 1_555
N4 Sr9 2.573691 1_555
N4 Sr8 2.652178 1_555
N4 Sr1 2.665833 1_545
N4 Sr6 2.760530 1_555
N5 Sr1 2.573691 1_555
N5 Sr7 2.652178 1_555
N5 Sr9 2.665833 1_565
N5 Sr0 2.760530 1_555
N6 W0 1.880745 1_655
N6 Sr9 2.520819 1_555
N6 Sr1 2.682884 1_645
N6 Sr2 2.853105 1_555
N6 Sr7 2.901735 1_545
N6 Sr6 3.120205 1_655
N7 W1 1.880745 1_455
N7 Sr1 2.520819 1_555
N7 Sr9 2.682884 1_465
N7 Sr3 2.853105 1_555
N7 Sr8 2.901735 1_565
N7 Sr0 3.120205 1_455
N8 W0 1.872768 1_555
N8 Sr4 2.505279 1_545
N8 Sr8 2.583369 1_556
N8 Sr5 2.640515 1_556
N8 Sr7 2.834910 1_445
N9 W1 1.872768 1_555
N9 Sr5 2.505279 1_565
N9 Sr7 2.583369 1_554
N9 Sr4 2.640515 1_554
N9 Sr8 2.834910 1_665
N10 W0 1.867698 1_555
N10 Sr2 2.533421 1_555
N10 Sr3 2.613034 1_556
N10 Sr6 2.761419 1_555
N10 Sr5 2.784910 1_556
N11 W0 1.885398 1_654
N11 Sr0 2.650797 1_555
N11 Sr5 2.674515 1_555
N11 Sr8 2.789126 1_655
N11 Sr2 2.831620 1_554
N11 Sr3 2.852664 1_655
N12 W1 1.885398 1_456
N12 Sr6 2.650797 1_555
N12 Sr4 2.674515 1_555
N12 Sr7 2.789126 1_455
N12 Sr3 2.831620 1_556
N12 Sr2 2.852664 1_455
N13 W1 1.867698 1_555
N13 Sr3 2.533421 1_555
N13 Sr2 2.613034 1_554
N13 Sr0 2.761419 1_555
N13 Sr4 2.784910 1_554
