# generated using pymatgen
data_GaAg3(NO3)8
_symmetry_space_group_name_H-M   'P 1'
_cell_length_a   7.70691663
_cell_length_b   7.70691644
_cell_length_c   7.70691628
_cell_angle_alpha   89.26464970
_cell_angle_beta   90.73535136
_cell_angle_gamma   90.73534446
_symmetry_Int_Tables_number   1
_chemical_formula_structural   GaAg3(NO3)8
_chemical_formula_sum   'Ga1 Ag3 N8 O24'
_cell_volume   457.65219155
_cell_formula_units_Z   1
loop_
 _symmetry_equiv_pos_site_id
 _symmetry_equiv_pos_as_xyz
  1  'x, y, z'
loop_
 _atom_site_type_symbol
 _atom_site_label
 _atom_site_symmetry_multiplicity
 _atom_site_fract_x
 _atom_site_fract_y
 _atom_site_fract_z
 _atom_site_occupancy
  Ga  Ga0  1  0.00000000  0.00000000  0.50000000  1
  Ag  Ag0  1  0.50000000  0.50000000  0.50000000  1
  Ag  Ag1  1  0.50000000  0.00000000  0.00000000  1
  Ag  Ag2  1  0.00000000  0.50000000  0.00000000  1
  N  N0  1  0.68932959  0.12905900  0.31094873  1
  N  N1  1  0.67318119  0.32681881  0.82681881  1
  N  N2  1  0.87094100  0.81094873  0.81067041  1
  N  N3  1  0.81094873  0.68932959  0.37094100  1
  N  N4  1  0.12905900  0.18905127  0.18932959  1
  N  N5  1  0.18905127  0.31067041  0.62905900  1
  N  N6  1  0.32681881  0.67318119  0.17318119  1
  N  N7  1  0.31067041  0.87094100  0.68905127  1
  O  O0  1  0.54949326  0.22034572  0.81039311  1
  O  O1  1  0.56929964  0.23159382  0.29367212  1
  O  O2  1  0.68960689  0.45050674  0.72034572  1
  O  O3  1  0.72312264  0.01881895  0.19750060  1
  O  O4  1  0.69750060  0.72312264  0.48118105  1
  O  O5  1  0.76840618  0.79367212  0.93070036  1
  O  O6  1  0.77965428  0.31039311  0.95050674  1
  O  O7  1  0.78313050  0.13324833  0.45027712  1
  O  O8  1  0.86675167  0.95027712  0.71686950  1
  O  O9  1  0.79367212  0.56929964  0.26840618  1
  O  O10  1  0.98118105  0.69750060  0.77687736  1
  O  O11  1  0.95027712  0.78313050  0.36675167  1
  O  O12  1  0.04972288  0.21686950  0.63324833  1
  O  O13  1  0.01881895  0.30249940  0.22312264  1
  O  O14  1  0.20632788  0.43070036  0.73159382  1
  O  O15  1  0.13324833  0.04972288  0.28313050  1
  O  O16  1  0.22034572  0.68960689  0.04949326  1
  O  O17  1  0.21686950  0.86675167  0.54972288  1
  O  O18  1  0.23159382  0.20632788  0.06929964  1
  O  O19  1  0.30249940  0.27687736  0.51881895  1
  O  O20  1  0.31039311  0.54949326  0.27965428  1
  O  O21  1  0.27687736  0.98118105  0.80249940  1
  O  O22  1  0.43070036  0.76840618  0.70632788  1
  O  O23  1  0.45050674  0.77965428  0.18960689  1
loop_
_geom_bond_atom_site_label_1
_geom_bond_atom_site_label_2
_geom_bond_distance
_geom_bond_site_symmetry_2
Ga0 O17 2.003127 1_545
Ga0 O7 2.003127 1_455
Ga0 O12 2.003128 1_555
Ga0 O11 2.003128 1_445
Ga0 O15 2.003128 1_555
Ga0 O8 2.003128 1_445
Ag0 O2 2.258023 1_555
Ag0 O20 2.258023 1_555
Ag0 O4 2.286252 1_555
Ag0 O19 2.286252 1_555
Ag0 O22 2.688393 1_555
Ag0 O1 2.688393 1_555
Ag1 O0 2.258023 1_554
Ag1 O23 2.258023 1_545
Ag1 O3 2.286252 1_555
Ag1 O21 2.286252 1_544
Ag1 O18 2.688393 1_555
Ag1 O5 2.688393 1_544
Ag2 O16 2.258024 1_555
Ag2 O6 2.258024 1_454
Ag2 O10 2.286252 1_454
Ag2 O13 2.286252 1_555
Ag2 O9 2.688393 1_455
Ag2 O14 2.688393 1_554
N0 O1 1.229157 1_555
N0 O3 1.258857 1_555
N0 O7 1.287263 1_555
N1 O6 1.256008 1_555
N1 O2 1.256008 1_555
N1 O0 1.256009 1_555
N2 O5 1.229157 1_555
N2 O10 1.258857 1_555
N2 O8 1.287263 1_555
N3 O9 1.229157 1_555
N3 O4 1.258857 1_555
N3 O11 1.287263 1_555
N4 O18 1.229157 1_555
N4 O13 1.258857 1_555
N4 O15 1.287263 1_555
N5 O14 1.229157 1_555
N5 O19 1.258857 1_555
N5 O12 1.287263 1_555
N6 O16 1.256008 1_555
N6 O20 1.256008 1_555
N6 O23 1.256009 1_555
N7 O22 1.229157 1_555
N7 O21 1.258857 1_555
N7 O17 1.287263 1_555
