# generated using pymatgen
data_Lu4PdPt3O14
_symmetry_space_group_name_H-M   'P 1'
_cell_length_a   7.10057159
_cell_length_b   7.08604819
_cell_length_c   7.08604841
_cell_angle_alpha   59.99999898
_cell_angle_beta   60.06763675
_cell_angle_gamma   60.06763528
_symmetry_Int_Tables_number   1
_chemical_formula_structural   Lu4PdPt3O14
_chemical_formula_sum   'Lu4 Pd1 Pt3 O14'
_cell_volume   252.36536813
_cell_formula_units_Z   1
loop_
 _symmetry_equiv_pos_site_id
 _symmetry_equiv_pos_as_xyz
  1  'x, y, z'
loop_
 _atom_site_type_symbol
 _atom_site_label
 _atom_site_symmetry_multiplicity
 _atom_site_fract_x
 _atom_site_fract_y
 _atom_site_fract_z
 _atom_site_occupancy
  Lu  Lu0  1  0.62500000  0.62500000  0.12500000  1
  Lu  Lu1  1  0.62500000  0.62500000  0.62500000  1
  Lu  Lu2  1  0.62500000  0.12500000  0.62500000  1
  Lu  Lu3  1  0.12500000  0.62500000  0.62500000  1
  Pd  Pd0  1  0.62500000  0.12500000  0.12500000  1
  Pt  Pt0  1  0.12500000  0.12500000  0.12500000  1
  Pt  Pt1  1  0.12500000  0.12500000  0.62500000  1
  Pt  Pt2  1  0.12500000  0.62500000  0.12500000  1
  O  O0  1  0.03015312  0.46977219  0.46977219  1
  O  O1  1  0.78200735  0.78161159  0.21819003  1
  O  O2  1  0.78200735  0.21819003  0.21819003  1
  O  O3  1  0.46799265  0.03180997  0.46838841  1
  O  O4  1  0.74997342  0.75000853  0.75000853  1
  O  O5  1  0.03015312  0.46977219  0.03030151  1
  O  O6  1  0.03015312  0.03030151  0.46977219  1
  O  O7  1  0.21984688  0.78022781  0.21969849  1
  O  O8  1  0.21984688  0.21969849  0.78022781  1
  O  O9  1  0.78200735  0.21819003  0.78161159  1
  O  O10  1  0.50002658  0.49999147  0.49999147  1
  O  O11  1  0.46799265  0.03180997  0.03180997  1
  O  O12  1  0.46799265  0.46838841  0.03180997  1
  O  O13  1  0.21984688  0.78022781  0.78022781  1
loop_
_geom_bond_atom_site_label_1
_geom_bond_atom_site_label_2
_geom_bond_distance
_geom_bond_site_symmetry_2
Lu0 O10 2.170342 1_555
Lu0 O4 2.170342 1_554
Lu0 O5 2.364315 1_655
Lu0 O7 2.364315 1_555
Lu0 O1 2.369108 1_555
Lu0 O12 2.369108 1_555
Lu0 O11 2.369114 1_565
Lu0 O2 2.369114 1_555
Lu1 O4 2.170337 1_555
Lu1 O10 2.170337 1_555
Lu1 O0 2.364316 1_655
Lu1 O13 2.364316 1_555
Lu1 O3 2.369114 1_565
Lu1 O9 2.369114 1_555
Lu1 O12 2.369114 1_556
Lu1 O1 2.369114 1_555
Lu2 O10 2.170342 1_555
Lu2 O4 2.170342 1_545
Lu2 O6 2.364315 1_655
Lu2 O8 2.364315 1_555
Lu2 O9 2.369108 1_555
Lu2 O3 2.369108 1_555
Lu2 O11 2.369114 1_556
Lu2 O2 2.369114 1_555
Lu3 O10 2.176471 1_555
Lu3 O4 2.176471 1_455
Lu3 O6 2.358335 1_565
Lu3 O8 2.358335 1_555
Lu3 O5 2.358335 1_556
Lu3 O7 2.358335 1_555
Lu3 O13 2.358341 1_555
Lu3 O0 2.358341 1_555
O0 Pt1 2.010496 1_555
O0 Pt2 2.010496 1_555
O1 Pd0 2.005102 1_565
O1 Pt2 2.007401 1_655
O2 Pd0 2.005097 1_555
O2 Pt0 2.007402 1_655
O3 Pd0 2.005102 1_555
O3 Pt1 2.007401 1_555
O5 Pt0 2.010495 1_555
O5 Pt2 2.010502 1_555
O6 Pt0 2.010496 1_555
O6 Pt1 2.010502 1_555
O7 Pt0 2.010495 1_565
O7 Pt2 2.010502 1_555
O8 Pt0 2.010496 1_556
O8 Pt1 2.010502 1_555
O9 Pd0 2.005102 1_556
O9 Pt1 2.007401 1_655
O11 Pd0 2.005097 1_555
O11 Pt0 2.007402 1_555
O12 Pd0 2.005102 1_555
O12 Pt2 2.007401 1_555
O13 Pt1 2.010496 1_565
O13 Pt2 2.010496 1_556
