# generated using pymatgen
data_Ca4Ga9SiPt6
_symmetry_space_group_name_H-M   'P 1'
_cell_length_a   8.60113570
_cell_length_b   8.60113594
_cell_length_c   8.60113644
_cell_angle_alpha   140.97790398
_cell_angle_beta   107.26654673
_cell_angle_gamma   85.77228648
_symmetry_Int_Tables_number   1
_chemical_formula_structural   Ca4Ga9SiPt6
_chemical_formula_sum   'Ca4 Ga9 Si1 Pt6'
_cell_volume   369.32509324
_cell_formula_units_Z   1
loop_
 _symmetry_equiv_pos_site_id
 _symmetry_equiv_pos_as_xyz
  1  'x, y, z'
loop_
 _atom_site_type_symbol
 _atom_site_label
 _atom_site_symmetry_multiplicity
 _atom_site_fract_x
 _atom_site_fract_y
 _atom_site_fract_z
 _atom_site_occupancy
  Ca  Ca0  1  0.63398940  0.35538802  0.26560328  1
  Ca  Ca1  1  0.36601060  0.63161388  0.72139962  1
  Ca  Ca2  1  0.08978574  0.86838612  0.23439672  1
  Ca  Ca3  1  0.91021426  0.14461198  0.77860038  1
  Ga  Ga0  1  0.43049578  0.09119127  0.32661844  1
  Ga  Ga1  1  0.56950422  0.89612166  0.66069450  1
  Ga  Ga2  1  0.76457283  0.60387834  0.17338156  1
  Ga  Ga3  1  0.23542717  0.40880873  0.83930550  1
  Ga  Ga4  1  0.28311254  0.53311254  0.25000000  1
  Ga  Ga5  1  0.70836258  0.45836258  0.75000000  1
  Ga  Ga6  1  0.71688746  0.96688746  0.25000000  1
  Ga  Ga7  1  0.29163742  0.04163742  0.75000000  1
  Ga  Ga8  1  0.00000000  0.25000000  0.25000000  1
  Si  Si0  1  0.00000000  0.75000000  0.75000000  1
  Pt  Pt0  1  0.50000000  0.25000000  0.75000000  1
  Pt  Pt1  1  0.50000000  0.75000000  0.25000000  1
  Pt  Pt2  1  0.23534581  0.12056659  0.07751042  1
  Pt  Pt3  1  0.76465419  0.84216461  0.88522078  1
  Pt  Pt4  1  0.04305616  0.65783539  0.42248958  1
  Pt  Pt5  1  0.95694384  0.37943341  0.61477922  1
loop_
_geom_bond_atom_site_label_1
_geom_bond_atom_site_label_2
_geom_bond_distance
_geom_bond_site_symmetry_2
Ca0 Ga1 3.107610 1_544
Ca0 Pt3 3.108508 1_555
Ca0 Ga1 3.109256 1_555
Ca0 Ga2 3.158443 1_555
Ca0 Ga8 3.223553 1_655
Ca0 Ga7 3.231790 1_554
Ca0 Pt3 3.234807 1_544
Ca0 Si0 3.256658 1_655
Ca0 Ga6 3.271244 1_545
Ca0 Ga4 3.295576 1_555
Ca0 Pt5 3.308451 1_555
Ca0 Pt2 3.332292 1_555
Ca0 Ga5 3.364501 1_555
Ca0 Ga0 3.389298 1_555
Ca0 Pt0 3.562425 1_554
Ca0 Pt1 3.592409 1_555
Ca1 Ga0 3.107604 1_555
Ca1 Pt2 3.108507 1_566
Ca1 Ga0 3.109256 1_566
Ca1 Ga3 3.158435 1_555
Ca1 Ga8 3.223555 1_555
Ca1 Ga5 3.231789 1_555
Ca1 Pt2 3.234812 1_555
Ca1 Si0 3.256657 1_555
Ca1 Ga4 3.271253 1_555
Ca1 Ga6 3.295573 1_556
Ca1 Pt4 3.308456 1_555
Ca1 Pt3 3.332295 1_555
Ca1 Ga7 3.364506 1_565
Ca1 Ga1 3.389305 1_555
Ca1 Pt0 3.562419 1_555
Ca1 Pt1 3.592401 1_556
Ca2 Ga3 3.107608 1_565
Ca2 Pt5 3.108508 1_454
Ca2 Ga3 3.109254 1_554
Ca2 Ga0 3.158427 1_565
Ca2 Ga8 3.223555 1_565
Ca2 Ga7 3.231789 1_565
Ca2 Pt5 3.234812 1_465
Ca2 Si0 3.256657 1_554
Ca2 Ga6 3.271252 1_455
Ca2 Ga4 3.295573 1_555
Ca2 Pt3 3.308456 1_454
Ca2 Pt4 3.332295 1_555
Ca2 Ga5 3.364506 1_454
Ca2 Ga2 3.389300 1_455
Ca2 Pt0 3.562419 1_565
Ca2 Pt1 3.592400 1_555
Ca3 Ga2 3.107604 1_556
Ca3 Pt4 3.108512 1_645
Ca3 Ga2 3.109256 1_545
Ca3 Ga1 3.158432 1_545
Ca3 Ga8 3.223561 1_656
Ca3 Ga5 3.231782 1_555
Ca3 Pt4 3.234811 1_656
Ca3 Si0 3.256666 1_645
Ca3 Ga4 3.271251 1_656
Ca3 Ga6 3.295568 1_545
Ca3 Pt2 3.308461 1_656
Ca3 Pt5 3.332287 1_555
Ca3 Ga7 3.364507 1_655
Ca3 Ga3 3.389294 1_655
Ca3 Pt0 3.562417 1_555
Ca3 Pt1 3.592401 1_545
Ga0 Pt2 2.472996 1_555
Ga0 Pt1 2.524674 1_545
Ga0 Pt0 2.565805 1_555
Ga0 Ga5 2.650172 1_555
Ga0 Ga6 2.669414 1_545
Ga1 Pt3 2.472996 1_555
Ga1 Pt1 2.524671 1_555
Ga1 Pt0 2.565808 1_565
Ga1 Ga7 2.650175 1_565
Ga1 Ga4 2.669411 1_555
Ga2 Pt4 2.472999 1_655
Ga2 Pt1 2.524672 1_555
Ga2 Pt0 2.565806 1_554
Ga2 Ga5 2.650167 1_554
Ga2 Ga6 2.669406 1_555
Ga3 Pt5 2.472999 1_455
Ga3 Pt1 2.524672 1_556
Ga3 Pt0 2.565806 1_555
Ga3 Ga7 2.650167 1_555
Ga3 Ga4 2.669406 1_556
Ga4 Pt2 2.575666 1_555
Ga4 Pt4 2.575666 1_555
Ga4 Pt1 2.733700 1_555
Ga4 Ga7 2.874690 1_565
Ga4 Ga7 2.874690 1_554
Ga5 Pt3 2.533830 1_555
Ga5 Pt5 2.533830 1_555
Ga5 Pt0 2.626251 1_555
Ga5 Ga6 2.874690 1_556
Ga5 Ga6 2.874690 1_545
Ga6 Pt5 2.575666 1_565
Ga6 Pt3 2.575666 1_554
Ga6 Pt1 2.733700 1_555
Ga7 Pt4 2.533830 1_545
Ga7 Pt2 2.533831 1_556
Ga7 Pt0 2.626251 1_555
Ga8 Pt4 2.534203 1_555
Ga8 Pt3 2.534203 1_444
Ga8 Pt2 2.534203 1_555
Ga8 Pt5 2.534203 1_455
Pt2 Si0 2.409788 1_544
Pt3 Si0 2.409788 1_655
Pt4 Si0 2.409788 1_555
Pt5 Si0 2.409788 1_655
