# generated using pymatgen
data_Hf6Pd2CN
_symmetry_space_group_name_H-M   'P 1'
_cell_length_a   5.95560639
_cell_length_b   5.95560650
_cell_length_c   8.83878608
_cell_angle_alpha   90.29679172
_cell_angle_beta   89.70320820
_cell_angle_gamma   148.00897541
_symmetry_Int_Tables_number   1
_chemical_formula_structural   Hf6Pd2CN
_chemical_formula_sum   'Hf6 Pd2 C1 N1'
_cell_volume   166.08832844
_cell_formula_units_Z   1
loop_
 _symmetry_equiv_pos_site_id
 _symmetry_equiv_pos_as_xyz
  1  'x, y, z'
loop_
 _atom_site_type_symbol
 _atom_site_label
 _atom_site_symmetry_multiplicity
 _atom_site_fract_x
 _atom_site_fract_y
 _atom_site_fract_z
 _atom_site_occupancy
  Hf  Hf0  1  0.62833110  0.37166890  0.93939379  1
  Hf  Hf1  1  0.37346443  0.62653557  0.44447774  1
  Hf  Hf2  1  0.37166890  0.62833110  0.06060621  1
  Hf  Hf3  1  0.62653557  0.37346443  0.55552226  1
  Hf  Hf4  1  0.94519210  0.05480790  0.75030459  1
  Hf  Hf5  1  0.05480790  0.94519210  0.24969541  1
  Pd  Pd0  1  0.25095739  0.74904261  0.74538722  1
  Pd  Pd1  1  0.74904261  0.25095739  0.25461278  1
  C  C0  1  0.00000000  0.00000000  0.00000000  1
  N  N0  1  0.00000000  0.00000000  0.50000000  1
loop_
_geom_bond_atom_site_label_1
_geom_bond_atom_site_label_2
_geom_bond_distance
_geom_bond_site_symmetry_2
Hf0 Pd0 2.753053 1_655
Hf0 Pd0 2.753053 1_545
Hf0 Pd1 3.116809 1_556
Hf1 N0 2.245210 1_665
Hf1 N0 2.245210 1_555
Hf1 Pd1 2.750448 1_455
Hf1 Pd1 2.750448 1_565
Hf1 Pd0 3.000210 1_555
Hf2 Pd1 2.753053 1_455
Hf2 Pd1 2.753053 1_565
Hf2 Pd0 3.116809 1_554
Hf3 N0 2.245210 1_555
Hf3 N0 2.245210 1_665
Hf3 Pd0 2.750448 1_655
Hf3 Pd0 2.750448 1_545
Hf3 Pd1 3.000210 1_555
Hf4 N0 2.296415 1_655
Hf4 Pd0 2.764495 1_545
Hf4 Pd0 2.764495 1_655
Hf5 N0 2.296415 1_565
Hf5 Pd1 2.764495 1_565
Hf5 Pd1 2.764495 1_455
C0 Hf0 2.265158 1_554
C0 Hf2 2.265158 1_445
C0 Hf2 2.265158 1_555
C0 Hf0 2.265158 1_444
C0 Hf5 2.297742 1_545
C0 Hf4 2.297742 1_454
