# generated using pymatgen
data_CdHg3(IO3)8
_symmetry_space_group_name_H-M   'P 1'
_cell_length_a   5.64732393
_cell_length_b   5.87675070
_cell_length_c   17.66350247
_cell_angle_alpha   89.96160902
_cell_angle_beta   90.03550636
_cell_angle_gamma   90.17486542
_symmetry_Int_Tables_number   1
_chemical_formula_structural   CdHg3(IO3)8
_chemical_formula_sum   'Cd1 Hg3 I8 O24'
_cell_volume   586.21184202
_cell_formula_units_Z   1
loop_
 _symmetry_equiv_pos_site_id
 _symmetry_equiv_pos_as_xyz
  1  'x, y, z'
loop_
 _atom_site_type_symbol
 _atom_site_label
 _atom_site_symmetry_multiplicity
 _atom_site_fract_x
 _atom_site_fract_y
 _atom_site_fract_z
 _atom_site_occupancy
  Cd  Cd0  1  0.79067067  0.82700415  0.59464985  1
  Hg  Hg0  1  0.70509576  0.17298421  0.09484706  1
  Hg  Hg1  1  0.20492820  0.32526829  0.90454777  1
  Hg  Hg2  1  0.29169588  0.67550301  0.40760939  1
  I  I0  1  0.24531549  0.78027074  0.70769145  1
  I  I1  1  0.74630915  0.71963005  0.29062827  1
  I  I2  1  0.75220531  0.28050079  0.78732654  1
  I  I3  1  0.25280133  0.21917694  0.21182752  1
  I  I4  1  0.03916296  0.64104167  0.07860539  1
  I  I5  1  0.53833584  0.85842485  0.92027968  1
  I  I6  1  0.95892776  0.14102741  0.42425734  1
  I  I7  1  0.46513894  0.36081843  0.57866815  1
  O  O0  1  0.54788306  0.60189833  0.51856345  1
  O  O1  1  0.03234332  0.89918587  0.48528605  1
  O  O2  1  0.46135303  0.10051482  0.98060897  1
  O  O3  1  0.96058138  0.39821444  0.01860481  1
  O  O4  1  0.60635933  0.49172413  0.66181740  1
  O  O5  1  0.10320151  0.01422574  0.34143424  1
  O  O6  1  0.39626931  0.98346605  0.83681261  1
  O  O7  1  0.89702159  0.51607734  0.16224635  1
  O  O8  1  0.71345124  0.18333036  0.54854857  1
  O  O9  1  0.20969371  0.31601916  0.45597335  1
  O  O10  1  0.28893531  0.68312597  0.95261237  1
  O  O11  1  0.79064026  0.81601372  0.04625814  1
  O  O12  1  0.05086345  0.01856687  0.16666874  1
  O  O13  1  0.55113052  0.47870047  0.83341307  1
  O  O14  1  0.94720745  0.51990861  0.33626276  1
  O  O15  1  0.45527298  0.97438936  0.66288670  1
  O  O16  1  0.35873586  0.37088619  0.12703751  1
  O  O17  1  0.86009435  0.12693723  0.87159293  1
  O  O18  1  0.63931462  0.87217183  0.37502589  1
  O  O19  1  0.14007941  0.62776837  0.62338062  1
  O  O20  1  0.51462647  0.04082889  0.21373041  1
  O  O21  1  0.01371437  0.46045585  0.78538882  1
  O  O22  1  0.48410073  0.54047714  0.28842773  1
  O  O23  1  0.98653946  0.96346568  0.70647707  1
loop_
_geom_bond_atom_site_label_1
_geom_bond_atom_site_label_2
_geom_bond_distance
_geom_bond_site_symmetry_2
Cd0 O8 2.289350 1_565
Cd0 O0 2.329204 1_555
Cd0 O19 2.352474 1_655
Cd0 O23 2.400482 1_555
Cd0 O1 2.402689 1_655
Cd0 O15 2.409319 1_555
Cd0 O4 2.521739 1_555
Hg0 O11 2.319475 1_545
Hg0 O16 2.349049 1_555
Hg0 O3 2.373953 1_555
Hg0 O2 2.478294 1_554
Hg0 O20 2.482994 1_555
Hg0 O12 2.500400 1_655
Hg0 O7 2.577928 1_555
Hg1 O10 2.316125 1_555
Hg1 O17 2.339935 1_455
Hg1 O2 2.377708 1_555
Hg1 O3 2.480913 1_456
Hg1 O13 2.490992 1_555
Hg1 O21 2.495486 1_555
Hg1 O6 2.579144 1_545
Hg2 O9 2.323663 1_555
Hg2 O18 2.346815 1_555
Hg2 O1 2.402569 1_555
Hg2 O0 2.473941 1_555
Hg2 O14 2.489310 1_455
Hg2 O22 2.500472 1_555
Hg2 O5 2.543648 1_565
I0 O23 1.817886 1_455
I0 O15 1.823540 1_555
I0 O19 1.836201 1_555
I0 O21 2.666525 1_555
I1 O22 1.814701 1_555
I1 O14 1.822154 1_555
I1 O18 1.843174 1_555
I1 O20 2.670076 1_565
I2 O21 1.814134 1_655
I2 O13 1.821893 1_555
I2 O17 1.844326 1_555
I3 O20 1.815296 1_555
I3 O12 1.821706 1_555
I3 O16 1.841714 1_555
I3 O22 2.662402 1_555
I4 O3 1.831438 1_455
I4 O11 1.833194 1_455
I4 O7 1.833789 1_455
I4 O16 2.554065 1_555
I4 O10 2.646617 1_554
I5 O2 1.831674 1_565
I5 O6 1.832475 1_555
I5 O10 1.833718 1_555
I5 O17 2.552246 1_565
I5 O11 2.653565 1_556
I6 O1 1.831627 1_645
I6 O5 1.834663 1_655
I6 O9 1.835160 1_655
I6 O18 2.548129 1_545
I6 O8 2.609609 1_555
I7 O0 1.829552 1_555
I7 O8 1.829766 1_555
I7 O4 1.838824 1_555
I7 O19 2.544753 1_555
I7 O9 2.615678 1_555
