# generated using pymatgen
data_CoAg(PS3)2
_symmetry_space_group_name_H-M   'P 1'
_cell_length_a   10.49459924
_cell_length_b   5.78328899
_cell_length_c   6.95695234
_cell_angle_alpha   75.00316696
_cell_angle_beta   90.00000000
_cell_angle_gamma   90.00000000
_symmetry_Int_Tables_number   1
_chemical_formula_structural   CoAg(PS3)2
_chemical_formula_sum   'Co2 Ag2 P4 S12'
_cell_volume   407.85894416
_cell_formula_units_Z   2
loop_
 _symmetry_equiv_pos_site_id
 _symmetry_equiv_pos_as_xyz
  1  'x, y, z'
loop_
 _atom_site_type_symbol
 _atom_site_label
 _atom_site_symmetry_multiplicity
 _atom_site_fract_x
 _atom_site_fract_y
 _atom_site_fract_z
 _atom_site_occupancy
  Co  Co0  1  0.92200320  0.75000000  0.00000000  1
  Co  Co1  1  0.07799680  0.25000000  0.00000000  1
  Ag  Ag0  1  0.55932334  0.75000000  0.00000000  1
  Ag  Ag1  1  0.44067666  0.25000000  0.00000000  1
  P  P0  1  0.23955977  0.79286317  0.83765597  1
  P  P1  1  0.76044023  0.20713683  0.16234403  1
  P  P2  1  0.76044023  0.29286317  0.83765597  1
  P  P3  1  0.23955977  0.70713683  0.16234403  1
  S  S0  1  0.06732650  0.99085548  0.79707850  1
  S  S1  1  0.77489763  0.53245507  0.21911199  1
  S  S2  1  0.22510237  0.46754493  0.78088801  1
  S  S3  1  0.39057809  0.52583941  0.28060160  1
  S  S4  1  0.93267350  0.00914452  0.20292150  1
  S  S5  1  0.22510237  0.03245507  0.21911199  1
  S  S6  1  0.60942191  0.47416059  0.71939840  1
  S  S7  1  0.93267350  0.49085548  0.79707850  1
  S  S8  1  0.06732650  0.50914452  0.20292150  1
  S  S9  1  0.39057809  0.97416059  0.71939840  1
  S  S10  1  0.60942191  0.02583941  0.28060160  1
  S  S11  1  0.77489763  0.96754493  0.78088801  1
loop_
_geom_bond_atom_site_label_1
_geom_bond_atom_site_label_2
_geom_bond_distance
_geom_bond_site_symmetry_2
Co0 S8 2.289429 1_655
Co0 S0 2.289429 1_654
Co0 S1 2.301598 1_555
Co0 S11 2.301598 1_554
Co0 S4 2.312265 1_565
Co0 S7 2.312265 1_554
Co1 S4 2.289429 1_455
Co1 S7 2.289429 1_454
Co1 S5 2.301598 1_555
Co1 S2 2.301598 1_554
Co1 S8 2.312265 1_555
Co1 S0 2.312265 1_544
Ag0 S3 2.705152 1_555
Ag0 S9 2.705152 1_554
Ag0 S1 2.834130 1_555
Ag0 S11 2.834130 1_554
Ag0 S10 2.871197 1_565
Ag0 S6 2.871197 1_554
Ag1 S10 2.705152 1_555
Ag1 S6 2.705152 1_554
Ag1 S5 2.834130 1_555
Ag1 S2 2.834130 1_554
Ag1 S3 2.871197 1_555
Ag1 S9 2.871197 1_544
P0 S9 1.960001 1_555
P0 S2 2.025644 1_555
P0 S0 2.119118 1_555
P0 P3 2.183707 1_556
P1 S10 1.960001 1_555
P1 S1 2.025644 1_555
P1 S4 2.119118 1_555
P1 P2 2.183707 1_554
P2 S6 1.960001 1_555
P2 S11 2.025644 1_545
P2 S7 2.119118 1_555
P3 S3 1.960001 1_555
P3 S5 2.025644 1_565
P3 S8 2.119118 1_555
