# generated using pymatgen
data_Ta4ZnSiH2
_symmetry_space_group_name_H-M   'P 1'
_cell_length_a   5.12492954
_cell_length_b   5.12492882
_cell_length_c   5.12492905
_cell_angle_alpha   104.94471579
_cell_angle_beta   104.94472075
_cell_angle_gamma   118.96179562
_symmetry_Int_Tables_number   1
_chemical_formula_structural   Ta4ZnSiH2
_chemical_formula_sum   'Ta4 Zn1 Si1 H2'
_cell_volume   101.45611911
_cell_formula_units_Z   1
loop_
 _symmetry_equiv_pos_site_id
 _symmetry_equiv_pos_as_xyz
  1  'x, y, z'
loop_
 _atom_site_type_symbol
 _atom_site_label
 _atom_site_symmetry_multiplicity
 _atom_site_fract_x
 _atom_site_fract_y
 _atom_site_fract_z
 _atom_site_occupancy
  Ta  Ta0  1  0.16655531  0.66655531  0.83311062  1
  Ta  Ta1  1  0.83344469  0.33344469  0.16688938  1
  Ta  Ta2  1  0.33344469  0.16655531  0.50000000  1
  Ta  Ta3  1  0.66655531  0.83344469  0.50000000  1
  Zn  Zn0  1  0.25000000  0.25000000  0.00000000  1
  Si  Si0  1  0.75000000  0.75000000  0.00000000  1
  H  H0  1  0.75000000  0.25000000  0.50000000  1
  H  H1  1  0.25000000  0.75000000  0.50000000  1
loop_
_geom_bond_atom_site_label_1
_geom_bond_atom_site_label_2
_geom_bond_distance
_geom_bond_site_symmetry_2
Ta0 Zn0 2.666290 1_566
Ta0 Zn0 2.666290 1_556
Ta1 Zn0 2.666290 1_555
Ta1 Zn0 2.666291 1_655
Ta2 Zn0 2.666290 1_555
Ta2 Zn0 2.666290 1_556
Ta3 Zn0 2.666290 1_555
Ta3 Zn0 2.666290 1_666
Si0 Zn0 2.602570 1_665
Si0 Zn0 2.602570 1_555
Si0 Ta2 2.666290 1_554
Si0 Ta2 2.666290 1_665
Si0 Ta1 2.666290 1_565
Si0 Ta1 2.666290 1_555
Si0 Ta3 2.666290 1_554
Si0 Ta3 2.666290 1_555
Si0 Ta0 2.666290 1_554
Si0 Ta0 2.666291 1_654
H0 Ta0 1.963714 1_655
H0 Ta3 1.963714 1_545
H0 Ta1 1.963715 1_555
H0 Ta2 1.963715 1_555
H1 Ta1 1.963714 1_455
H1 Ta2 1.963714 1_565
H1 Ta0 1.963715 1_555
H1 Ta3 1.963715 1_555
