# generated using pymatgen
data_K4LiSb2Au
_symmetry_space_group_name_H-M   'P 1'
_cell_length_a   6.72093466
_cell_length_b   6.72093516
_cell_length_c   6.20885468
_cell_angle_alpha   90.92098936
_cell_angle_beta   90.92098859
_cell_angle_gamma   102.61028641
_symmetry_Int_Tables_number   1
_chemical_formula_structural   K4LiSb2Au
_chemical_formula_sum   'K4 Li1 Sb2 Au1'
_cell_volume   273.60411583
_cell_formula_units_Z   1
loop_
 _symmetry_equiv_pos_site_id
 _symmetry_equiv_pos_as_xyz
  1  'x, y, z'
loop_
 _atom_site_type_symbol
 _atom_site_label
 _atom_site_symmetry_multiplicity
 _atom_site_fract_x
 _atom_site_fract_y
 _atom_site_fract_z
 _atom_site_occupancy
  K  K0  1  0.81705424  0.47583086  0.73878369  1
  K  K1  1  0.52416914  0.18294576  0.26121631  1
  K  K2  1  0.47583086  0.81705424  0.73878369  1
  K  K3  1  0.18294576  0.52416914  0.26121631  1
  Li  Li0  1  0.00000000  0.00000000  0.00000000  1
  Sb  Sb0  1  0.73966722  0.73966722  0.24374754  1
  Sb  Sb1  1  0.26033278  0.26033278  0.75625246  1
  Au  Au0  1  0.00000000  0.00000000  0.50000000  1
loop_
_geom_bond_atom_site_label_1
_geom_bond_atom_site_label_2
_geom_bond_distance
_geom_bond_site_symmetry_2
K0 Sb1 3.586660 1_655
K0 Sb0 3.659021 1_555
K0 Sb0 3.677095 1_556
K0 Sb1 3.709657 1_555
K1 Sb0 3.586660 1_545
K1 Sb1 3.659021 1_555
K1 Sb1 3.677095 1_554
K1 Sb0 3.709657 1_555
K2 Sb1 3.586660 1_565
K2 Sb0 3.659021 1_555
K2 Sb0 3.677095 1_556
K2 Sb1 3.709657 1_555
K3 Sb0 3.586660 1_455
K3 Sb1 3.659021 1_555
K3 Sb1 3.677095 1_554
K3 Sb0 3.709657 1_555
Li0 Sb1 2.691961 1_554
Li0 Sb0 2.691961 1_445
Au0 Sb1 2.671789 1_555
Au0 Sb0 2.671789 1_445
Au0 Li0 3.104427 1_555
Au0 Li0 3.104427 1_556
Au0 K1 3.802088 1_555
Au0 K2 3.802088 1_445
Au0 K0 3.802089 1_445
Au0 K3 3.802089 1_555
Au0 K2 3.944662 1_545
Au0 K1 3.944662 1_455
Au0 K3 3.944663 1_545
Au0 K0 3.944663 1_455
