# generated using pymatgen
data_RuPbF7
_symmetry_space_group_name_H-M   'P 1'
_cell_length_a   4.68004773
_cell_length_b   7.32718865
_cell_length_c   7.59232090
_cell_angle_alpha   106.03201952
_cell_angle_beta   100.88552808
_cell_angle_gamma   90.88966845
_symmetry_Int_Tables_number   1
_chemical_formula_structural   RuPbF7
_chemical_formula_sum   'Ru2 Pb2 F14'
_cell_volume   245.09190291
_cell_formula_units_Z   2
loop_
 _symmetry_equiv_pos_site_id
 _symmetry_equiv_pos_as_xyz
  1  'x, y, z'
loop_
 _atom_site_type_symbol
 _atom_site_label
 _atom_site_symmetry_multiplicity
 _atom_site_fract_x
 _atom_site_fract_y
 _atom_site_fract_z
 _atom_site_occupancy
  Ru  Ru0  1  0.34705497  0.18564022  0.28281806  1
  Ru  Ru1  1  0.65294503  0.81435978  0.71718194  1
  Pb  Pb0  1  0.81954568  0.64823426  0.20130548  1
  Pb  Pb1  1  0.18045432  0.35176574  0.79869452  1
  F  F0  1  0.71985448  0.43280545  0.90952401  1
  F  F1  1  0.28014552  0.56719455  0.09047599  1
  F  F2  1  0.04706753  0.05525355  0.33913399  1
  F  F3  1  0.95293247  0.94474645  0.66086601  1
  F  F4  1  0.48372883  0.95196090  0.17329288  1
  F  F5  1  0.51627117  0.04803910  0.82670712  1
  F  F6  1  0.57036213  0.19768902  0.51806783  1
  F  F7  1  0.42963787  0.80231098  0.48193217  1
  F  F8  1  0.65013056  0.31760525  0.22722044  1
  F  F9  1  0.34986944  0.68239475  0.77277956  1
  F  F10  1  0.20471429  0.41837262  0.39527947  1
  F  F11  1  0.79528571  0.58162738  0.60472053  1
  F  F12  1  0.11987602  0.18557150  0.04925246  1
  F  F13  1  0.88012398  0.81442850  0.95074754  1
loop_
_geom_bond_atom_site_label_1
_geom_bond_atom_site_label_2
_geom_bond_distance
_geom_bond_site_symmetry_2
F0 Pb0 2.296114 1_556
F0 Pb1 2.481174 1_655
F0 Pb1 2.511673 1_555
F1 Pb1 2.296114 1_554
F1 Pb0 2.481174 1_455
F1 Pb0 2.511673 1_555
F2 Ru0 1.864761 1_555
F3 Ru1 1.864761 1_555
F4 Ru0 1.865680 1_565
F5 Ru1 1.865680 1_545
F6 Ru0 1.869533 1_555
F7 Ru1 1.869533 1_555
F8 Ru0 1.879897 1_555
F8 Pb0 2.607452 1_555
F9 Ru1 1.879897 1_555
F9 Pb1 2.607452 1_555
F10 Ru0 1.877937 1_555
F11 Ru1 1.877937 1_555
F12 Ru0 1.887435 1_555
F12 Pb1 2.579646 1_554
F13 Ru1 1.887435 1_555
F13 Pb0 2.579646 1_556
