# generated using pymatgen
data_TcNiI6
_symmetry_space_group_name_H-M   'P 1'
_cell_length_a   6.99229647
_cell_length_b   6.99229645
_cell_length_c   7.31517977
_cell_angle_alpha   80.99886958
_cell_angle_beta   80.99887618
_cell_angle_gamma   119.85317885
_symmetry_Int_Tables_number   1
_chemical_formula_structural   TcNiI6
_chemical_formula_sum   'Tc1 Ni1 I6'
_cell_volume   294.68955904
_cell_formula_units_Z   1
loop_
 _symmetry_equiv_pos_site_id
 _symmetry_equiv_pos_as_xyz
  1  'x, y, z'
loop_
 _atom_site_type_symbol
 _atom_site_label
 _atom_site_symmetry_multiplicity
 _atom_site_fract_x
 _atom_site_fract_y
 _atom_site_fract_z
 _atom_site_occupancy
  Tc  Tc0  1  0.83336238  0.16663762  0.00000000  1
  Ni  Ni0  1  0.16679176  0.83320824  1.00000000  1
  I  I0  1  0.42857354  0.07041977  0.22495291  1
  I  I1  1  0.57516369  0.93180263  0.77504657  1
  I  I2  1  0.92958023  0.57142646  0.77504709  1
  I  I3  1  0.06819737  0.42483631  0.22495343  1
  I  I4  1  0.78541615  0.78708512  0.22747682  1
  I  I5  1  0.21291488  0.21458385  0.77252318  1
loop_
_geom_bond_atom_site_label_1
_geom_bond_atom_site_label_2
_geom_bond_distance
_geom_bond_site_symmetry_2
I0 Tc0 2.733515 1_555
I0 Ni0 2.753830 1_544
I1 Tc0 2.736318 1_566
I1 Ni0 2.748040 1_555
I2 Tc0 2.733514 1_556
I2 Ni0 2.753830 1_655
I3 Tc0 2.736318 1_455
I3 Ni0 2.748040 1_554
I4 Tc0 2.735431 1_565
I4 Ni0 2.751657 1_654
I5 Tc0 2.735431 1_456
I5 Ni0 2.751656 1_545
