# generated using pymatgen
data_Hf10NiGeSb6
_symmetry_space_group_name_H-M   'P 1'
_cell_length_a   8.53355884
_cell_length_b   8.53355831
_cell_length_c   5.74503786
_cell_angle_alpha   90.00000000
_cell_angle_beta   90.00000000
_cell_angle_gamma   120.00000208
_symmetry_Int_Tables_number   1
_chemical_formula_structural   Hf10NiGeSb6
_chemical_formula_sum   'Hf10 Ni1 Ge1 Sb6'
_cell_volume   362.31295663
_cell_formula_units_Z   1
loop_
 _symmetry_equiv_pos_site_id
 _symmetry_equiv_pos_as_xyz
  1  'x, y, z'
loop_
 _atom_site_type_symbol
 _atom_site_label
 _atom_site_symmetry_multiplicity
 _atom_site_fract_x
 _atom_site_fract_y
 _atom_site_fract_z
 _atom_site_occupancy
  Hf  Hf0  1  0.66666700  0.33333300  0.50000000  1
  Hf  Hf1  1  0.33333300  0.66666700  0.50000000  1
  Hf  Hf2  1  0.33333300  0.66666700  0.00000000  1
  Hf  Hf3  1  0.66666700  0.33333300  0.00000000  1
  Hf  Hf4  1  0.74020033  0.74020033  0.25863956  1
  Hf  Hf5  1  0.25979967  0.00000000  0.25863956  1
  Hf  Hf6  1  1.00000000  0.25979967  0.25863956  1
  Hf  Hf7  1  0.25979967  0.25979967  0.74136044  1
  Hf  Hf8  1  0.74020033  0.00000000  0.74136044  1
  Hf  Hf9  1  0.00000000  0.74020033  0.74136044  1
  Ni  Ni0  1  0.00000000  0.00000000  0.50000000  1
  Ge  Ge0  1  0.00000000  0.00000000  0.00000000  1
  Sb  Sb0  1  0.39121733  0.39121733  0.25022922  1
  Sb  Sb1  1  0.60878267  0.00000000  0.25022922  1
  Sb  Sb2  1  1.00000000  0.60878267  0.25022922  1
  Sb  Sb3  1  0.60878267  0.60878267  0.74977078  1
  Sb  Sb4  1  0.39121733  0.00000000  0.74977078  1
  Sb  Sb5  1  0.00000000  0.39121733  0.74977078  1
loop_
_geom_bond_atom_site_label_1
_geom_bond_atom_site_label_2
_geom_bond_distance
_geom_bond_site_symmetry_2
Hf0 Sb1 2.998209 1_555
Hf0 Sb5 2.998209 1_655
Hf0 Sb4 2.998211 1_555
Hf0 Sb2 2.998211 1_555
Hf0 Sb3 2.998216 1_555
Hf0 Sb0 2.998216 1_555
Hf1 Sb4 2.998209 1_565
Hf1 Sb2 2.998209 1_455
Hf1 Sb1 2.998211 1_565
Hf1 Sb5 2.998211 1_555
Hf1 Sb0 2.998216 1_555
Hf1 Sb3 2.998216 1_555
Hf2 Sb4 2.999470 1_564
Hf2 Sb2 2.999470 1_455
Hf2 Sb1 2.999473 1_565
Hf2 Sb5 2.999473 1_554
Hf2 Sb0 2.999477 1_555
Hf2 Sb3 2.999478 1_554
Hf3 Sb1 2.999470 1_555
Hf3 Sb5 2.999470 1_654
Hf3 Sb4 2.999473 1_554
Hf3 Sb2 2.999473 1_555
Hf3 Sb3 2.999477 1_554
Hf3 Sb0 2.999478 1_555
Hf4 Ni0 2.614935 1_665
Hf4 Sb1 2.943036 1_565
Hf4 Sb2 2.943036 1_555
Hf4 Sb0 2.978459 1_555
Hf4 Sb3 3.036267 1_555
Hf4 Sb3 3.131190 1_554
Hf5 Ni0 2.614935 1_555
Hf5 Sb0 2.943036 1_555
Hf5 Sb2 2.943036 1_445
Hf5 Sb1 2.978459 1_555
Hf5 Sb4 3.036267 1_555
Hf5 Sb4 3.131190 1_554
Hf6 Ni0 2.614935 1_655
Hf6 Sb1 2.943036 1_555
Hf6 Sb0 2.943036 1_655
Hf6 Sb2 2.978459 1_555
Hf6 Sb5 3.036267 1_655
Hf6 Sb5 3.131190 1_654
Hf7 Ni0 2.614935 1_555
Hf7 Sb4 2.943036 1_555
Hf7 Sb5 2.943036 1_555
Hf7 Sb3 2.978459 1_555
Hf7 Sb0 3.036267 1_555
Hf7 Sb0 3.131190 1_556
Hf8 Ni0 2.614935 1_655
Hf8 Sb5 2.943036 1_655
Hf8 Sb3 2.943036 1_545
Hf8 Sb4 2.978459 1_555
Hf8 Sb1 3.036267 1_555
Hf8 Sb1 3.131190 1_556
Hf9 Ni0 2.614935 1_565
Hf9 Sb4 2.943036 1_565
Hf9 Sb3 2.943036 1_455
Hf9 Sb5 2.978459 1_555
Hf9 Sb2 3.036267 1_455
Hf9 Sb2 3.131190 1_456
Ge0 Hf6 2.668902 1_455
Ge0 Hf7 2.668902 1_554
Ge0 Hf4 2.668902 1_445
Ge0 Hf9 2.668902 1_544
Ge0 Hf5 2.668902 1_555
Ge0 Hf8 2.668902 1_454
