# generated using pymatgen
data_CsRbSe2
_symmetry_space_group_name_H-M   'P 1'
_cell_length_a   9.48535742
_cell_length_b   9.48535756
_cell_length_c   6.56125078
_cell_angle_alpha   90.00000000
_cell_angle_beta   90.00000000
_cell_angle_gamma   119.99999950
_symmetry_Int_Tables_number   1
_chemical_formula_structural   CsRbSe2
_chemical_formula_sum   'Cs3 Rb3 Se6'
_cell_volume   511.23982558
_cell_formula_units_Z   3
loop_
 _symmetry_equiv_pos_site_id
 _symmetry_equiv_pos_as_xyz
  1  'x, y, z'
loop_
 _atom_site_type_symbol
 _atom_site_label
 _atom_site_symmetry_multiplicity
 _atom_site_fract_x
 _atom_site_fract_y
 _atom_site_fract_z
 _atom_site_occupancy
  Cs  Cs0  1  1.00000000  0.64061443  0.00000000  1
  Cs  Cs1  1  0.35938557  0.35938557  0.00000000  1
  Cs  Cs2  1  0.64061443  0.00000000  0.00000000  1
  Rb  Rb0  1  1.00000000  0.31095198  0.50000000  1
  Rb  Rb1  1  0.68904802  0.68904802  0.50000000  1
  Rb  Rb2  1  0.31095198  0.00000000  0.50000000  1
  Se  Se0  1  0.66666700  0.33333300  0.31677909  1
  Se  Se1  1  0.66666700  0.33333300  0.68322091  1
  Se  Se2  1  0.33333300  0.66666700  0.68322091  1
  Se  Se3  1  0.33333300  0.66666700  0.31677909  1
  Se  Se4  1  0.00000000  0.00000000  0.81639063  1
  Se  Se5  1  0.00000000  0.00000000  0.18360937  1
loop_
_geom_bond_atom_site_label_1
_geom_bond_atom_site_label_2
_geom_bond_distance
_geom_bond_site_symmetry_2
Cs0 Se5 3.615511 1_665
Cs0 Se4 3.615511 1_664
Cs0 Se3 3.687361 1_655
Cs0 Se2 3.687361 1_654
Cs0 Se0 3.687364 1_555
Cs0 Se1 3.687364 1_554
Cs1 Se5 3.615511 1_555
Cs1 Se4 3.615511 1_554
Cs1 Se0 3.687369 1_555
Cs1 Se1 3.687369 1_554
Cs1 Se3 3.687369 1_555
Cs1 Se2 3.687369 1_554
Cs2 Se5 3.615511 1_655
Cs2 Se4 3.615511 1_654
Cs2 Se0 3.687361 1_555
Cs2 Se1 3.687361 1_554
Cs2 Se3 3.687364 1_545
Cs2 Se2 3.687364 1_544
Rb0 Se1 3.486882 1_555
Rb0 Se0 3.486882 1_555
Rb0 Se2 3.486886 1_655
Rb0 Se3 3.486886 1_655
Rb0 Se4 3.606790 1_655
Rb0 Se5 3.606790 1_655
Rb1 Se2 3.486890 1_555
Rb1 Se3 3.486890 1_555
Rb1 Se1 3.486890 1_555
Rb1 Se0 3.486890 1_555
Rb1 Se4 3.606790 1_665
Rb1 Se5 3.606790 1_665
Rb2 Se2 3.486882 1_545
Rb2 Se3 3.486882 1_545
Rb2 Se1 3.486886 1_555
Rb2 Se0 3.486886 1_555
Rb2 Se4 3.606790 1_555
Rb2 Se5 3.606790 1_555
Se0 Se1 2.404317 1_555
Se2 Se3 2.404317 1_555
Se4 Se5 2.409414 1_556
