# generated using pymatgen
data_Nb3SbS6
_symmetry_space_group_name_H-M   'P 1'
_cell_length_a   5.83288390
_cell_length_b   5.83287408
_cell_length_c   13.87768256
_cell_angle_alpha   90.00019386
_cell_angle_beta   89.99984498
_cell_angle_gamma   120.00025452
_symmetry_Int_Tables_number   1
_chemical_formula_structural   Nb3SbS6
_chemical_formula_sum   'Nb6 Sb2 S12'
_cell_volume   408.89556448
_cell_formula_units_Z   2
loop_
 _symmetry_equiv_pos_site_id
 _symmetry_equiv_pos_as_xyz
  1  'x, y, z'
loop_
 _atom_site_type_symbol
 _atom_site_label
 _atom_site_symmetry_multiplicity
 _atom_site_fract_x
 _atom_site_fract_y
 _atom_site_fract_z
 _atom_site_occupancy
  Nb  Nb0  1  0.00000418  0.00000236  0.00006972  1
  Nb  Nb1  1  0.33335729  0.66668352  0.99999843  1
  Nb  Nb2  1  0.33331535  0.66663890  0.50000051  1
  Nb  Nb3  1  0.99999216  0.99999410  0.49992884  1
  Nb  Nb4  1  0.66664042  0.33331395  0.49997072  1
  Nb  Nb5  1  0.66668354  0.33335842  0.00002782  1
  Sb  Sb0  1  0.99999852  0.00000024  0.24998099  1
  Sb  Sb1  1  0.00000037  0.99999851  0.75002084  1
  S  S0  1  0.66239729  0.00002792  0.11358057  1
  S  S1  1  0.99998880  0.66237511  0.11358248  1
  S  S2  1  0.33763681  0.33762538  0.11358380  1
  S  S3  1  0.66236819  0.66235553  0.38641991  1
  S  S4  1  0.33762991  0.00000904  0.38642150  1
  S  S5  1  0.99998719  0.33761871  0.38642144  1
  S  S6  1  0.00000490  0.33765084  0.61354223  1
  S  S7  1  0.33763825  0.99998124  0.61354153  1
  S  S8  1  0.66233460  0.66234315  0.61354383  1
  S  S9  1  0.33764621  0.33766484  0.88645300  1
  S  S10  1  0.00002658  0.66236967  0.88645583  1
  S  S11  1  0.66235243  0.99999257  0.88645502  1
loop_
_geom_bond_atom_site_label_1
_geom_bond_atom_site_label_2
_geom_bond_distance
_geom_bond_site_symmetry_2
Nb0 S0 2.521821 1_455
Nb0 S1 2.521842 1_445
Nb0 S2 2.521881 1_555
Nb0 S10 2.522821 1_544
Nb0 S11 2.522852 1_444
Nb0 S9 2.522884 1_554
Nb1 S11 2.492851 1_555
Nb1 S9 2.492917 1_555
Nb1 S10 2.492951 1_555
Nb1 S0 2.493370 1_566
Nb1 S2 2.493432 1_556
Nb1 S1 2.493491 1_456
Nb2 S6 2.492823 1_555
Nb2 S8 2.492927 1_555
Nb2 S7 2.492960 1_555
Nb2 S5 2.493262 1_455
Nb2 S3 2.493370 1_555
Nb2 S4 2.493445 1_565
Nb3 S5 2.521829 1_565
Nb3 S4 2.521839 1_665
Nb3 S3 2.521852 1_555
Nb3 S6 2.522846 1_665
Nb3 S7 2.522860 1_655
Nb3 S8 2.522878 1_555
Nb4 S4 2.492925 1_555
Nb4 S3 2.493037 1_555
Nb4 S5 2.493096 1_555
Nb4 S7 2.493161 1_545
Nb4 S8 2.493246 1_555
Nb4 S6 2.493306 1_655
Nb5 S1 2.492987 1_555
Nb5 S2 2.493089 1_555
Nb5 S0 2.493099 1_555
Nb5 S10 2.493215 1_654
Nb5 S9 2.493309 1_554
Nb5 S11 2.493327 1_544
S0 Sb0 2.731519 1_555
S1 Sb0 2.731512 1_565
S2 Sb0 2.731548 1_455
S3 Sb0 2.731974 1_565
S4 Sb0 2.731955 1_455
S5 Sb0 2.731931 1_555
S6 Sb1 2.732417 1_545
S7 Sb1 2.732402 1_555
S8 Sb1 2.732436 1_655
S9 Sb1 2.731985 1_545
S10 Sb1 2.731963 1_555
S11 Sb1 2.731962 1_655
