# generated using pymatgen
data_KRb3(SnAs)12
_symmetry_space_group_name_H-M   'P 1'
_cell_length_a   4.12245952
_cell_length_b   10.56691866
_cell_length_c   19.98759876
_cell_angle_alpha   90.16707269
_cell_angle_beta   90.00000000
_cell_angle_gamma   90.00000000
_symmetry_Int_Tables_number   1
_chemical_formula_structural   KRb3(SnAs)12
_chemical_formula_sum   'K1 Rb3 Sn12 As12'
_cell_volume   870.68996809
_cell_formula_units_Z   1
loop_
 _symmetry_equiv_pos_site_id
 _symmetry_equiv_pos_as_xyz
  1  'x, y, z'
loop_
 _atom_site_type_symbol
 _atom_site_label
 _atom_site_symmetry_multiplicity
 _atom_site_fract_x
 _atom_site_fract_y
 _atom_site_fract_z
 _atom_site_occupancy
  K  K0  1  0.25000000  0.22769185  0.45484295  1
  Rb  Rb0  1  0.75000000  0.27782363  0.95618527  1
  Rb  Rb1  1  0.75000000  0.78100267  0.54336004  1
  Rb  Rb2  1  0.25000000  0.72226233  0.04395976  1
  Sn  Sn0  1  0.75000000  0.16769955  0.65216972  1
  Sn  Sn1  1  0.75000000  0.66834513  0.84508472  1
  Sn  Sn2  1  0.25000000  0.83243718  0.34877681  1
  Sn  Sn3  1  0.25000000  0.33126261  0.15583480  1
  Sn  Sn4  1  0.75000000  0.11005634  0.25981094  1
  Sn  Sn5  1  0.75000000  0.61186879  0.24365867  1
  Sn  Sn6  1  0.25000000  0.88872593  0.74080224  1
  Sn  Sn7  1  0.25000000  0.38894178  0.75593626  1
  Sn  Sn8  1  0.75000000  0.99379039  0.12560801  1
  Sn  Sn9  1  0.75000000  0.49323535  0.37686563  1
  Sn  Sn10  1  0.25000000  0.00600305  0.87478497  1
  Sn  Sn11  1  0.25000000  0.50299012  0.62095799  1
  As  As0  1  0.75000000  0.48188796  0.12824274  1
  As  As1  1  0.75000000  0.98466451  0.37607704  1
  As  As2  1  0.25000000  0.51741175  0.87181035  1
  As  As3  1  0.25000000  0.01706572  0.62537116  1
  As  As4  1  0.75000000  0.36020792  0.57143168  1
  As  As5  1  0.75000000  0.86454057  0.92399912  1
  As  As6  1  0.25000000  0.63482820  0.42657630  1
  As  As7  1  0.25000000  0.13557343  0.07647543  1
  As  As8  1  0.75000000  0.23124023  0.77917927  1
  As  As9  1  0.75000000  0.73033578  0.71801498  1
  As  As10  1  0.25000000  0.77005819  0.22121024  1
  As  As11  1  0.25000000  0.26805007  0.28297589  1
loop_
_geom_bond_atom_site_label_1
_geom_bond_atom_site_label_2
_geom_bond_distance
_geom_bond_site_symmetry_2
K0 Sn9 3.817964 1_555
K0 Sn9 3.817964 1_455
Rb0 Sn10 3.888274 1_555
Rb0 Sn10 3.888274 1_655
Rb1 Sn11 3.912943 1_555
Rb1 Sn11 3.912943 1_655
Rb2 Sn8 3.888062 1_455
Rb2 Sn8 3.888062 1_555
Sn4 Sn8 2.947102 1_545
Sn5 Sn9 2.946149 1_555
Sn10 Sn6 2.947550 1_545
Sn11 Sn7 2.958030 1_555
As0 Sn3 2.662945 1_655
As0 Sn3 2.662945 1_555
As0 Sn5 2.681370 1_555
As0 Rb2 3.682829 1_655
As0 Rb2 3.682829 1_555
As0 Rb0 4.053806 1_554
As1 Sn2 2.669983 1_555
As1 Sn2 2.669983 1_655
As1 Sn4 2.678435 1_565
As1 K0 3.646714 1_565
As1 K0 3.646714 1_665
As1 Rb1 3.981579 1_555
As2 Sn1 2.661333 1_455
As2 Sn1 2.661333 1_555
As2 Sn7 2.681160 1_555
As2 Rb0 3.677939 1_455
As2 Rb0 3.677939 1_555
As2 Rb2 4.059766 1_556
As3 Sn0 2.657861 1_455
As3 Sn0 2.657861 1_555
As3 Sn6 2.679652 1_545
As3 Rb1 3.624106 1_545
As3 Rb1 3.624106 1_445
As4 Sn0 2.600272 1_555
As4 Sn11 2.737931 1_555
As4 Sn11 2.737931 1_655
As4 K0 3.408940 1_555
As4 K0 3.408940 1_655
As5 Sn1 2.601329 1_555
As5 Sn10 2.731181 1_565
As5 Sn10 2.731181 1_665
As5 Rb2 3.504157 1_656
As5 Rb2 3.504157 1_556
As6 Sn2 2.607159 1_555
As6 Sn9 2.732370 1_555
As6 Sn9 2.732370 1_455
As6 Rb1 3.473052 1_555
As6 Rb1 3.473052 1_455
As7 Sn3 2.602468 1_555
As7 Sn8 2.732451 1_445
As7 Sn8 2.732451 1_545
As7 Rb0 3.508548 1_554
As7 Rb0 3.508548 1_454
As8 Sn0 2.624014 1_555
As8 Sn7 2.691833 1_555
As8 Sn7 2.691833 1_655
As8 Rb0 3.570582 1_555
As9 Sn1 2.624781 1_555
As9 Sn6 2.693126 1_655
As9 Sn6 2.693126 1_555
As9 Rb1 3.533293 1_555
As10 Sn2 2.631711 1_555
As10 Sn5 2.692309 1_455
As10 Sn5 2.692309 1_555
As10 Rb2 3.577172 1_555
As11 Sn3 2.629448 1_555
As11 Sn4 2.691801 1_555
As11 Sn4 2.691801 1_455
As11 K0 3.462814 1_555
