# generated using pymatgen
data_Ta7Si2B4W3
_symmetry_space_group_name_H-M   'P 1'
_cell_length_a   7.18662255
_cell_length_b   7.18662318
_cell_length_c   7.20557453
_cell_angle_alpha   129.44105507
_cell_angle_beta   129.44105271
_cell_angle_gamma   74.33600986
_symmetry_Int_Tables_number   1
_chemical_formula_structural   Ta7Si2B4W3
_chemical_formula_sum   'Ta7 Si2 B4 W3'
_cell_volume   216.31615423
_cell_formula_units_Z   1
loop_
 _symmetry_equiv_pos_site_id
 _symmetry_equiv_pos_as_xyz
  1  'x, y, z'
loop_
 _atom_site_type_symbol
 _atom_site_label
 _atom_site_symmetry_multiplicity
 _atom_site_fract_x
 _atom_site_fract_y
 _atom_site_fract_z
 _atom_site_occupancy
  Ta  Ta0  1  0.19105593  0.69105593  0.16431121  1
  Ta  Ta1  1  0.47634646  0.97634646  0.17167299  1
  Ta  Ta2  1  0.30695937  0.47285159  0.50008454  1
  Ta  Ta3  1  0.02745872  0.19289817  0.49865722  1
  Ta  Ta4  1  0.52593751  0.02593751  0.83245877  1
  Ta  Ta5  1  0.69289817  0.52745872  0.49865722  1
  Ta  Ta6  1  0.97285159  0.80695937  0.50008454  1
  Si  Si0  1  0.24688676  0.24941228  0.99855812  1
  Si  Si1  1  0.74941228  0.74688676  0.99855812  1
  B  B0  1  0.12267441  0.62267441  0.74450083  1
  B  B1  1  0.87813375  0.37813375  0.25474960  1
  B  B2  1  0.61971633  0.88248463  0.50182272  1
  B  B3  1  0.38248463  0.11971633  0.50182272  1
  W  W0  1  0.00005234  0.00079468  0.99921742  1
  W  W1  1  0.50079468  0.50005234  0.99921742  1
  W  W2  1  0.80633608  0.30633608  0.83562657  1
loop_
_geom_bond_atom_site_label_1
_geom_bond_atom_site_label_2
_geom_bond_distance
_geom_bond_site_symmetry_2
Ta0 W1 2.809646 1_554
Ta0 W0 2.809646 1_564
Ta0 W2 2.895849 1_454
Ta1 W0 2.799979 1_564
Ta1 W1 2.799979 1_554
Ta1 W2 2.888312 1_565
Ta2 W0 2.787318 1_554
Ta2 W1 2.793199 1_555
Ta3 W1 2.793412 1_555
Ta3 W0 2.798108 1_554
Ta4 W0 2.797776 1_655
Ta4 W1 2.797776 1_555
Ta5 W0 2.793412 1_665
Ta5 W1 2.798108 1_554
Ta6 W1 2.787318 1_554
Ta6 W0 2.793199 1_665
Si0 W2 2.599573 1_455
Si0 Ta0 2.601160 1_556
Si0 Ta6 2.602511 1_445
Si0 Ta2 2.615991 1_556
Si0 Ta1 2.622141 1_546
Si0 Ta5 2.624194 1_556
Si0 Ta3 2.626122 1_555
Si0 Ta4 2.627106 1_555
Si0 W0 2.841147 1_555
Si0 W1 2.885687 1_555
Si1 W2 2.599573 1_555
Si1 Ta0 2.601160 1_656
Si1 Ta2 2.602511 1_555
Si1 Ta6 2.615991 1_556
Si1 Ta1 2.622141 1_556
Si1 Ta3 2.624194 1_666
Si1 Ta5 2.626122 1_555
Si1 Ta4 2.627106 1_565
Si1 W1 2.841147 1_555
Si1 W0 2.885687 1_665
B0 B1 2.130386 1_455
B0 Ta5 2.407354 1_455
B0 Ta3 2.407354 1_555
B0 Ta2 2.408149 1_555
B0 Ta6 2.408149 1_455
B0 W0 2.440184 1_565
B0 W1 2.440184 1_555
B0 Ta0 2.446695 1_556
B0 Ta1 2.450073 1_556
B1 Ta2 2.401627 1_655
B1 Ta6 2.401628 1_555
B1 Ta5 2.411934 1_555
B1 Ta3 2.411935 1_655
B1 W2 2.415984 1_554
B1 W0 2.436064 1_654
B1 W1 2.436064 1_554
B1 Ta4 2.441331 1_554
B2 B3 2.060039 1_565
B2 W2 2.379272 1_565
B2 Ta1 2.392730 1_555
B2 Ta4 2.395242 1_565
B2 Ta0 2.411601 1_555
B2 W0 2.444474 1_665
B2 Ta5 2.450235 1_555
B2 Ta6 2.454255 1_555
B2 W1 2.467592 1_554
B3 W2 2.379272 1_555
B3 Ta1 2.392730 1_545
B3 Ta4 2.395243 1_555
B3 Ta0 2.411601 1_545
B3 W1 2.444474 1_555
B3 Ta3 2.450235 1_555
B3 Ta2 2.454255 1_555
B3 W0 2.467592 1_554
