# generated using pymatgen
data_Rb5Au(BrO)2
_symmetry_space_group_name_H-M   'P 1'
_cell_length_a   5.66295929
_cell_length_b   7.43131737
_cell_length_c   14.23953009
_cell_angle_alpha   90.00000000
_cell_angle_beta   90.00000000
_cell_angle_gamma   90.00000000
_symmetry_Int_Tables_number   1
_chemical_formula_structural   Rb5Au(BrO)2
_chemical_formula_sum   'Rb10 Au2 Br4 O4'
_cell_volume   599.24567161
_cell_formula_units_Z   2
loop_
 _symmetry_equiv_pos_site_id
 _symmetry_equiv_pos_as_xyz
  1  'x, y, z'
loop_
 _atom_site_type_symbol
 _atom_site_label
 _atom_site_symmetry_multiplicity
 _atom_site_fract_x
 _atom_site_fract_y
 _atom_site_fract_z
 _atom_site_occupancy
  Rb  Rb0  1  0.50000000  0.32441793  0.60077480  1
  Rb  Rb1  1  0.50000000  0.17558207  0.10077480  1
  Rb  Rb2  1  0.00000000  0.62075703  0.73280187  1
  Rb  Rb3  1  0.00000000  0.50000000  0.00000000  1
  Rb  Rb4  1  0.50000000  0.67558207  0.39922520  1
  Rb  Rb5  1  0.50000000  0.82441793  0.89922520  1
  Rb  Rb6  1  0.00000000  0.87924297  0.23280187  1
  Rb  Rb7  1  0.00000000  0.37924297  0.26719813  1
  Rb  Rb8  1  0.00000000  0.12075703  0.76719813  1
  Rb  Rb9  1  0.00000000  0.00000000  0.50000000  1
  Au  Au0  1  0.00000000  0.50000000  0.50000000  1
  Au  Au1  1  0.00000000  0.00000000  0.00000000  1
  Br  Br0  1  0.50000000  0.63323495  0.14930820  1
  Br  Br1  1  0.50000000  0.36676505  0.85069180  1
  Br  Br2  1  0.50000000  0.13323495  0.35069180  1
  Br  Br3  1  0.50000000  0.86676505  0.64930820  1
  O  O0  1  0.00000000  0.67485502  0.39143276  1
  O  O1  1  0.00000000  0.82514498  0.89143276  1
  O  O2  1  0.00000000  0.17485502  0.10856724  1
  O  O3  1  0.00000000  0.32514498  0.60856724  1
loop_
_geom_bond_atom_site_label_1
_geom_bond_atom_site_label_2
_geom_bond_distance
_geom_bond_site_symmetry_2
Au0 O3 2.019505 1_555
Au0 O0 2.019505 1_555
Au1 O2 2.019505 1_555
Au1 O1 2.019505 1_544
Br0 Rb1 3.470470 1_555
Br0 Rb4 3.572588 1_555
Br0 Rb6 3.573929 1_655
Br0 Rb6 3.573929 1_555
Br0 Rb3 3.676657 1_555
Br0 Rb3 3.676657 1_655
Br0 Rb7 3.794462 1_555
Br0 Rb7 3.794462 1_655
Br0 Rb5 3.834017 1_554
Br0 Rb1 4.089176 1_565
Br1 Rb5 3.470470 1_555
Br1 Rb0 3.572588 1_555
Br1 Rb8 3.573929 1_555
Br1 Rb8 3.573929 1_655
Br1 Rb3 3.676657 1_656
Br1 Rb3 3.676657 1_556
Br1 Rb2 3.794462 1_555
Br1 Rb2 3.794462 1_655
Br1 Rb1 3.834017 1_556
Br1 Rb5 4.089176 1_545
Br2 Rb4 3.470470 1_545
Br2 Rb1 3.572588 1_555
Br2 Rb7 3.573929 1_655
Br2 Rb7 3.573929 1_555
Br2 Rb9 3.676657 1_555
Br2 Rb9 3.676657 1_655
Br2 Rb6 3.794462 1_645
Br2 Rb6 3.794462 1_545
Br2 Rb0 3.834017 1_555
Br2 Rb4 4.089176 1_555
Br3 Rb0 3.470470 1_565
Br3 Rb5 3.572588 1_555
Br3 Rb2 3.573929 1_555
Br3 Rb2 3.573929 1_655
Br3 Rb9 3.676657 1_565
Br3 Rb9 3.676657 1_665
Br3 Rb8 3.794462 1_665
Br3 Rb8 3.794462 1_565
Br3 Rb4 3.834017 1_555
Br3 Rb0 4.089176 1_555
O0 Rb6 2.722000 1_555
O0 Rb7 2.820529 1_555
O0 Rb4 2.833658 1_455
O0 Rb4 2.833658 1_555
O0 Rb9 2.868491 1_565
O1 Rb2 2.722000 1_555
O1 Rb8 2.820529 1_565
O1 Rb5 2.833658 1_455
O1 Rb5 2.833658 1_555
O1 Rb3 2.868491 1_556
O2 Rb7 2.722000 1_555
O2 Rb6 2.820529 1_545
O2 Rb1 2.833658 1_455
O2 Rb1 2.833658 1_555
O2 Rb3 2.868491 1_555
O3 Rb8 2.722000 1_555
O3 Rb2 2.820529 1_555
O3 Rb0 2.833658 1_455
O3 Rb0 2.833658 1_555
O3 Rb9 2.868491 1_555
