# generated using pymatgen
data_Ta3Al2BAu
_symmetry_space_group_name_H-M   'P 1'
_cell_length_a   8.44111541
_cell_length_b   8.44111535
_cell_length_c   8.44111434
_cell_angle_alpha   60.00000395
_cell_angle_beta   60.00000420
_cell_angle_gamma   60.00000477
_symmetry_Int_Tables_number   1
_chemical_formula_structural   Ta3Al2BAu
_chemical_formula_sum   'Ta12 Al8 B4 Au4'
_cell_volume   425.28934395
_cell_formula_units_Z   4
loop_
 _symmetry_equiv_pos_site_id
 _symmetry_equiv_pos_as_xyz
  1  'x, y, z'
loop_
 _atom_site_type_symbol
 _atom_site_label
 _atom_site_symmetry_multiplicity
 _atom_site_fract_x
 _atom_site_fract_y
 _atom_site_fract_z
 _atom_site_occupancy
  Ta  Ta0  1  0.56799351  0.93200649  0.56799351  1
  Ta  Ta1  1  0.31799351  0.68200649  0.68200649  1
  Ta  Ta2  1  0.68200649  0.31799351  0.31799351  1
  Ta  Ta3  1  0.31799351  0.68200649  0.31799351  1
  Ta  Ta4  1  0.68200649  0.68200649  0.31799351  1
  Ta  Ta5  1  0.31799351  0.31799351  0.68200649  1
  Ta  Ta6  1  0.56799351  0.56799351  0.93200649  1
  Ta  Ta7  1  0.93200649  0.56799351  0.56799351  1
  Ta  Ta8  1  0.56799351  0.93200649  0.93200649  1
  Ta  Ta9  1  0.93200649  0.93200649  0.56799351  1
  Ta  Ta10  1  0.68200649  0.31799351  0.68200649  1
  Ta  Ta11  1  0.93200649  0.56799351  0.93200649  1
  Al  Al0  1  0.91349248  0.91349248  0.91349248  1
  Al  Al1  1  0.99047745  0.33650752  0.33650752  1
  Al  Al2  1  0.33650752  0.99047745  0.33650752  1
  Al  Al3  1  0.33650752  0.33650752  0.99047745  1
  Al  Al4  1  0.91349248  0.25952255  0.91349248  1
  Al  Al5  1  0.91349248  0.91349248  0.25952255  1
  Al  Al6  1  0.25952255  0.91349248  0.91349248  1
  Al  Al7  1  0.33650752  0.33650752  0.33650752  1
  B  B0  1  0.62500000  0.62500000  0.62500000  1
  B  B1  1  0.12500000  0.62500000  0.62500000  1
  B  B2  1  0.62500000  0.12500000  0.62500000  1
  B  B3  1  0.62500000  0.62500000  0.12500000  1
  Au  Au0  1  0.12500000  0.12500000  0.12500000  1
  Au  Au1  1  0.62500000  0.12500000  0.12500000  1
  Au  Au2  1  0.12500000  0.62500000  0.12500000  1
  Au  Au3  1  0.12500000  0.12500000  0.62500000  1
loop_
_geom_bond_atom_site_label_1
_geom_bond_atom_site_label_2
_geom_bond_distance
_geom_bond_site_symmetry_2
Al0 Au2 2.607165 1_656
Al0 Au1 2.607165 1_566
Al0 Au3 2.607165 1_665
Al1 Au0 2.607164 1_655
Al1 Au3 2.607164 1_655
Al1 Au2 2.607165 1_655
Al2 Au0 2.607164 1_565
Al2 Au3 2.607164 1_565
Al2 Au1 2.607165 1_565
Al3 Au2 2.607165 1_556
Al3 Au1 2.607165 1_556
Al3 Au0 2.607165 1_556
Al4 Au3 2.607164 1_655
Al4 Au0 2.607164 1_656
Al4 Au1 2.607165 1_556
Al5 Au2 2.607165 1_655
Al5 Au1 2.607165 1_565
Al5 Au0 2.607165 1_665
Al6 Au3 2.607164 1_565
Al6 Au0 2.607164 1_566
Al6 Au2 2.607165 1_556
Al7 Au2 2.607165 1_555
Al7 Au1 2.607165 1_555
Al7 Au3 2.607165 1_555
B0 Ta6 2.217291 1_555
B0 Ta4 2.217291 1_555
B0 Ta0 2.217291 1_555
B0 Ta10 2.217291 1_555
B0 Ta7 2.217291 1_555
B0 Ta1 2.217291 1_555
B1 Ta1 2.217291 1_555
B1 Ta11 2.217291 1_455
B1 Ta3 2.217291 1_555
B1 Ta7 2.217291 1_455
B1 Ta9 2.217291 1_455
B1 Ta5 2.217291 1_555
B2 Ta10 2.217291 1_555
B2 Ta8 2.217291 1_545
B2 Ta2 2.217291 1_555
B2 Ta0 2.217291 1_545
B2 Ta9 2.217291 1_545
B2 Ta5 2.217291 1_555
B3 Ta4 2.217291 1_555
B3 Ta6 2.217291 1_554
B3 Ta8 2.217291 1_554
B3 Ta2 2.217291 1_555
B3 Ta11 2.217291 1_554
B3 Ta3 2.217291 1_555
Au0 Ta9 3.124273 1_445
Au0 Ta5 3.124273 1_554
Au0 Ta11 3.124273 1_454
Au0 Ta3 3.124273 1_545
Au0 Ta8 3.124273 1_544
Au0 Ta2 3.124273 1_455
Au1 Ta2 3.124273 1_555
Au1 Ta0 3.124273 1_545
Au1 Ta10 3.124273 1_554
Au1 Ta8 3.124273 1_544
Au1 Ta6 3.124273 1_554
Au1 Ta4 3.124273 1_545
Au2 Ta3 3.124273 1_555
Au2 Ta7 3.124273 1_455
Au2 Ta1 3.124273 1_554
Au2 Ta11 3.124273 1_454
Au2 Ta6 3.124273 1_554
Au2 Ta4 3.124273 1_455
Au3 Ta5 3.124273 1_555
Au3 Ta9 3.124273 1_445
Au3 Ta7 3.124273 1_455
Au3 Ta1 3.124273 1_545
Au3 Ta0 3.124273 1_545
Au3 Ta10 3.124273 1_455
