# generated using pymatgen
data_K5BaNbSb4
_symmetry_space_group_name_H-M   'P 1'
_cell_length_a   11.06103797
_cell_length_b   11.06103798
_cell_length_c   8.61006838
_cell_angle_alpha   89.29704501
_cell_angle_beta   89.29704853
_cell_angle_gamma   120.40689687
_symmetry_Int_Tables_number   1
_chemical_formula_structural   K5BaNbSb4
_chemical_formula_sum   'K10 Ba2 Nb2 Sb8'
_cell_volume   908.24136158
_cell_formula_units_Z   2
loop_
 _symmetry_equiv_pos_site_id
 _symmetry_equiv_pos_as_xyz
  1  'x, y, z'
loop_
 _atom_site_type_symbol
 _atom_site_label
 _atom_site_symmetry_multiplicity
 _atom_site_fract_x
 _atom_site_fract_y
 _atom_site_fract_z
 _atom_site_occupancy
  K  K0  1  0.46902650  0.52463395  0.60962505  1
  K  K1  1  0.05329923  0.52522247  0.61107205  1
  K  K2  1  0.52463395  0.46902650  0.10962505  1
  K  K3  1  0.52522247  0.05329923  0.11107205  1
  K  K4  1  0.86467305  0.14354648  0.78601106  1
  K  K5  1  0.29375617  0.15316362  0.81221634  1
  K  K6  1  0.85366206  0.71290540  0.77284466  1
  K  K7  1  0.14354648  0.86467305  0.28601106  1
  K  K8  1  0.71290540  0.85366206  0.27284466  1
  K  K9  1  0.15316362  0.29375617  0.31221634  1
  Ba  Ba0  1  0.46909760  0.94238123  0.60618621  1
  Ba  Ba1  1  0.94238123  0.46909760  0.10618621  1
  Nb  Nb0  1  0.66825234  0.33304504  0.49975500  1
  Nb  Nb1  1  0.33304504  0.66825234  0.99975500  1
  Sb  Sb0  1  0.67691302  0.33239813  0.81350048  1
  Sb  Sb1  1  0.33239813  0.67691302  0.31350048  1
  Sb  Sb2  1  0.19519106  0.79835441  0.89499876  1
  Sb  Sb3  1  0.59813942  0.80186130  0.88584419  1
  Sb  Sb4  1  0.19339817  0.39708037  0.91514520  1
  Sb  Sb5  1  0.79835441  0.19519106  0.39499876  1
  Sb  Sb6  1  0.39708037  0.19339817  0.41514520  1
  Sb  Sb7  1  0.80186130  0.59813942  0.38584419  1
loop_
_geom_bond_atom_site_label_1
_geom_bond_atom_site_label_2
_geom_bond_distance
_geom_bond_site_symmetry_2
K0 Sb3 3.595543 1_555
K0 Sb4 3.682813 1_555
K0 Sb6 3.753997 1_555
K0 Sb1 3.766644 1_555
K0 Sb7 3.832029 1_555
K1 Sb2 3.611402 1_555
K1 Sb1 3.656099 1_555
K1 Sb4 3.673779 1_555
K1 Sb7 3.809276 1_455
K1 Nb0 3.816030 1_455
K1 Sb5 3.822842 1_455
K1 Sb0 3.957457 1_455
K2 Sb7 3.595542 1_555
K2 Sb6 3.682813 1_555
K2 Sb4 3.753997 1_554
K2 Sb0 3.766644 1_554
K2 Sb3 3.832029 1_554
K3 Sb5 3.611402 1_555
K3 Sb0 3.656099 1_554
K3 Sb6 3.673779 1_555
K3 Sb3 3.809276 1_544
K3 Nb1 3.816030 1_544
K3 Sb2 3.822842 1_544
K3 Sb1 3.957456 1_545
K4 Sb4 3.489297 1_655
K4 Sb3 3.506188 1_545
K4 Sb5 3.554756 1_555
K4 Sb0 3.622744 1_555
K5 Sb4 3.516092 1_555
K5 Sb6 3.541808 1_555
K5 Sb2 3.560883 1_545
K5 Sb0 3.659032 1_555
K6 Sb7 3.529448 1_555
K6 Sb3 3.560070 1_555
K6 Sb2 3.574610 1_655
K6 Sb0 3.643684 1_555
K7 Sb6 3.489297 1_565
K7 Sb7 3.506188 1_455
K7 Sb2 3.554756 1_554
K7 Sb1 3.622744 1_555
K8 Sb3 3.529448 1_554
K8 Sb7 3.560070 1_555
K8 Sb5 3.574610 1_565
K8 Sb1 3.643684 1_555
K9 Sb6 3.516092 1_555
K9 Sb4 3.541808 1_554
K9 Sb5 3.560883 1_455
K9 Sb1 3.659032 1_555
Ba0 Sb3 3.534009 1_555
Ba0 Sb2 3.568296 1_555
Ba0 Sb1 3.611058 1_555
Ba0 Sb6 3.634298 1_565
Ba0 Sb5 3.713913 1_565
Ba1 Sb7 3.534009 1_555
Ba1 Sb5 3.568296 1_555
Ba1 Sb0 3.611058 1_554
Ba1 Sb4 3.634299 1_654
Ba1 Sb2 3.713913 1_654
Nb0 Sb7 2.692801 1_555
Nb0 Sb6 2.702698 1_555
Nb0 Sb0 2.704292 1_555
Nb0 Sb5 2.726280 1_555
Nb1 Sb3 2.692801 1_555
Nb1 Sb4 2.702698 1_555
Nb1 Sb1 2.704292 1_556
Nb1 Sb2 2.726280 1_555
