# generated using pymatgen
data_Lu2NbReN6
_symmetry_space_group_name_H-M   'P 1'
_cell_length_a   7.34508115
_cell_length_b   7.34508107
_cell_length_c   6.20761418
_cell_angle_alpha   72.17438286
_cell_angle_beta   72.17437534
_cell_angle_gamma   80.20120313
_symmetry_Int_Tables_number   1
_chemical_formula_structural   Lu2NbReN6
_chemical_formula_sum   'Lu4 Nb2 Re2 N12'
_cell_volume   302.43579768
_cell_formula_units_Z   2
loop_
 _symmetry_equiv_pos_site_id
 _symmetry_equiv_pos_as_xyz
  1  'x, y, z'
loop_
 _atom_site_type_symbol
 _atom_site_label
 _atom_site_symmetry_multiplicity
 _atom_site_fract_x
 _atom_site_fract_y
 _atom_site_fract_z
 _atom_site_occupancy
  Lu  Lu0  1  0.91185794  0.08814206  0.75000000  1
  Lu  Lu1  1  0.09220112  0.90779888  0.25000000  1
  Lu  Lu2  1  0.72625196  0.27374804  0.25000000  1
  Lu  Lu3  1  0.27758633  0.72241367  0.75000000  1
  Nb  Nb0  1  0.62223207  0.80048545  0.28464426  1
  Nb  Nb1  1  0.19951455  0.37776793  0.21535574  1
  Re  Re0  1  0.38332917  0.20414579  0.71193106  1
  Re  Re1  1  0.79585421  0.61667083  0.78806894  1
  N  N0  1  0.67477935  0.60604224  0.09316993  1
  N  N1  1  0.36407325  0.88289683  0.34613772  1
  N  N2  1  0.39395776  0.32522065  0.40683007  1
  N  N3  1  0.11710317  0.63592675  0.15386228  1
  N  N4  1  0.99466715  0.20781492  0.35290833  1
  N  N5  1  0.79218508  0.00533285  0.14709167  1
  N  N6  1  0.21819486  0.01327362  0.83705993  1
  N  N7  1  0.62425694  0.11267451  0.68534199  1
  N  N8  1  0.32373932  0.38583708  0.87955682  1
  N  N9  1  0.88732549  0.37574306  0.81465801  1
  N  N10  1  0.61416292  0.67626068  0.62044318  1
  N  N11  1  0.98672638  0.78180514  0.66294007  1
loop_
_geom_bond_atom_site_label_1
_geom_bond_atom_site_label_2
_geom_bond_distance
_geom_bond_site_symmetry_2
Lu0 N9 2.236356 1_555
Lu0 N7 2.236356 1_555
Lu0 N5 2.270741 1_556
Lu0 N4 2.270741 1_555
Lu0 N11 2.408042 1_545
Lu0 N6 2.408042 1_655
Lu1 N3 2.217157 1_555
Lu1 N1 2.217157 1_555
Lu1 N6 2.367130 1_564
Lu1 N11 2.367130 1_455
Lu1 N4 2.412815 1_465
Lu1 N5 2.412815 1_465
Lu2 N5 2.187748 1_555
Lu2 N4 2.187748 1_555
Lu2 N2 2.346135 1_555
Lu2 N0 2.346135 1_555
Lu2 N9 2.523648 1_554
Lu2 N7 2.523648 1_555
Lu3 N6 2.300403 1_565
Lu3 N11 2.300403 1_455
Lu3 N10 2.353251 1_555
Lu3 N8 2.353251 1_555
Lu3 N3 2.355572 1_556
Lu3 N1 2.355573 1_555
N0 Re1 1.812708 1_554
N0 Nb0 2.042624 1_555
N1 Nb0 1.848057 1_555
N2 Re0 1.812708 1_555
N2 Nb1 2.042624 1_555
N3 Nb1 1.848057 1_555
N4 Nb1 1.936859 1_655
N5 Nb0 1.936859 1_545
N6 Re0 1.837205 1_555
N7 Re0 1.759154 1_555
N8 Re0 1.851447 1_555
N8 Nb1 1.989857 1_556
N9 Re1 1.759154 1_555
N10 Re1 1.851447 1_555
N10 Nb0 1.989857 1_555
N11 Re1 1.837205 1_555
