# generated using pymatgen
data_RbGaGeSe4
_symmetry_space_group_name_H-M   'P 1'
_cell_length_a   17.05716105
_cell_length_b   7.26927917
_cell_length_c   7.73107811
_cell_angle_alpha   69.34534577
_cell_angle_beta   90.00000000
_cell_angle_gamma   90.00000000
_symmetry_Int_Tables_number   1
_chemical_formula_structural   RbGaGeSe4
_chemical_formula_sum   'Rb4 Ga4 Ge4 Se16'
_cell_volume   896.98605400
_cell_formula_units_Z   4
loop_
 _symmetry_equiv_pos_site_id
 _symmetry_equiv_pos_as_xyz
  1  'x, y, z'
loop_
 _atom_site_type_symbol
 _atom_site_label
 _atom_site_symmetry_multiplicity
 _atom_site_fract_x
 _atom_site_fract_y
 _atom_site_fract_z
 _atom_site_occupancy
  Rb  Rb0  1  0.39669004  0.96242234  0.17913156  1
  Rb  Rb1  1  0.89669004  0.03757766  0.82086844  1
  Rb  Rb2  1  0.60118501  0.51562710  0.82956358  1
  Rb  Rb3  1  0.10118501  0.48437290  0.17043642  1
  Ga  Ga0  1  0.58441135  0.16126854  0.47873319  1
  Ga  Ga1  1  0.08441135  0.83873146  0.52126681  1
  Ga  Ga2  1  0.27273611  0.59659389  0.70762109  1
  Ga  Ga3  1  0.77273611  0.40340611  0.29237891  1
  Ge  Ge0  1  0.42041049  0.32832245  0.53550254  1
  Ge  Ge1  1  0.92041049  0.67167755  0.46449746  1
  Ge  Ge2  1  0.72431955  0.90792348  0.27453445  1
  Ge  Ge3  1  0.22431955  0.09207652  0.72546555  1
  Se  Se0  1  0.59400194  0.88045153  0.38227175  1
  Se  Se1  1  0.09400194  0.11954847  0.61772825  1
  Se  Se2  1  0.41041074  0.60457086  0.62638259  1
  Se  Se3  1  0.91041074  0.39542914  0.37361741  1
  Se  Se4  1  0.80040324  0.78186725  0.55104586  1
  Se  Se5  1  0.30040324  0.21813275  0.44895414  1
  Se  Se6  1  0.20141181  0.72683121  0.42869346  1
  Se  Se7  1  0.70141181  0.27316879  0.57130654  1
  Se  Se8  1  0.76186934  0.22610080  0.08120312  1
  Se  Se9  1  0.26186934  0.77389920  0.91879688  1
  Se  Se10  1  0.23858459  0.27272848  0.92260790  1
  Se  Se11  1  0.73858459  0.72727152  0.07739210  1
  Se  Se12  1  0.99752136  0.91844235  0.25091541  1
  Se  Se13  1  0.49752136  0.08155765  0.74908459  1
  Se  Se14  1  0.99604243  0.59983999  0.73688346  1
  Se  Se15  1  0.49604243  0.40016001  0.26311654  1
loop_
_geom_bond_atom_site_label_1
_geom_bond_atom_site_label_2
_geom_bond_distance
_geom_bond_site_symmetry_2
Rb0 Se2 3.525919 1_555
Rb0 Se13 3.567996 1_564
Rb0 Se10 3.624673 1_564
Rb0 Se9 3.628108 1_554
Rb0 Se5 3.638631 1_565
Rb0 Se0 3.672664 1_555
Rb0 Se15 3.856994 1_565
Rb0 Se6 3.926736 1_555
Rb1 Se3 3.525919 1_555
Rb1 Se12 3.567996 1_546
Rb1 Se11 3.624673 1_546
Rb1 Se8 3.628108 1_556
Rb1 Se4 3.638631 1_545
Rb1 Se1 3.672664 1_655
Rb1 Se14 3.856994 1_545
Rb1 Se7 3.926736 1_555
Rb2 Se7 3.535260 1_555
Rb2 Se0 3.540702 1_555
Rb2 Se2 3.571826 1_555
Rb2 Se8 3.582996 1_556
Rb2 Se15 3.629180 1_556
Rb2 Se11 3.689200 1_556
Rb2 Se13 3.854225 1_555
Rb3 Se6 3.535260 1_555
Rb3 Se1 3.540702 1_555
Rb3 Se3 3.571826 1_455
Rb3 Se9 3.582996 1_554
Rb3 Se14 3.629180 1_454
Rb3 Se10 3.689200 1_554
Rb3 Se12 3.854225 1_455
Ga0 Se7 2.359532 1_555
Ga0 Se0 2.413280 1_545
Ga0 Se15 2.454433 1_555
Ga0 Se13 2.458968 1_555
Ga1 Se6 2.359532 1_555
Ga1 Se1 2.413280 1_565
Ga1 Se14 2.454433 1_455
Ga1 Se12 2.458968 1_455
Ga2 Se6 2.363526 1_555
Ga2 Se9 2.417745 1_555
Ga2 Se10 2.425683 1_555
Ga2 Se2 2.426278 1_555
Ga3 Se7 2.363526 1_555
Ga3 Se8 2.417745 1_555
Ga3 Se11 2.425683 1_555
Ga3 Se3 2.426278 1_555
Ge0 Se2 2.355986 1_555
Ge0 Se13 2.363192 1_555
Ge0 Se15 2.365530 1_555
Ge0 Se5 2.378561 1_555
Ge1 Se3 2.355986 1_555
Ge1 Se12 2.363192 1_555
Ge1 Se14 2.365530 1_555
Ge1 Se4 2.378561 1_555
Ge2 Se11 2.349184 1_555
Ge2 Se8 2.356907 1_565
Ge2 Se0 2.357405 1_555
Ge2 Se4 2.389948 1_555
Ge3 Se10 2.349184 1_555
Ge3 Se9 2.356907 1_545
Ge3 Se1 2.357405 1_555
Ge3 Se5 2.389948 1_555
