# generated using pymatgen
data_Bi2AsNO8
_symmetry_space_group_name_H-M   'P 1'
_cell_length_a   7.07213555
_cell_length_b   6.78576851
_cell_length_c   9.05709105
_cell_angle_alpha   50.41249359
_cell_angle_beta   90.00000000
_cell_angle_gamma   90.00000000
_symmetry_Int_Tables_number   1
_chemical_formula_structural   Bi2AsNO8
_chemical_formula_sum   'Bi4 As2 N2 O16'
_cell_volume   334.96295764
_cell_formula_units_Z   2
loop_
 _symmetry_equiv_pos_site_id
 _symmetry_equiv_pos_as_xyz
  1  'x, y, z'
loop_
 _atom_site_type_symbol
 _atom_site_label
 _atom_site_symmetry_multiplicity
 _atom_site_fract_x
 _atom_site_fract_y
 _atom_site_fract_z
 _atom_site_occupancy
  Bi  Bi0  1  0.64275391  0.26917988  0.15026693  1
  Bi  Bi1  1  0.14275391  0.73082012  0.34973307  1
  Bi  Bi2  1  0.39524414  0.83189506  0.77574533  1
  Bi  Bi3  1  0.89524414  0.16810494  0.72425467  1
  As  As0  1  0.33085645  0.30355498  0.80218335  1
  As  As1  1  0.83085645  0.69644502  0.69781665  1
  N  N0  1  0.67363110  0.68924211  0.26541954  1
  N  N1  1  0.17363110  0.31075789  0.23458046  1
  O  O0  1  0.68335051  0.45153017  0.36834837  1
  O  O1  1  0.18335051  0.54846983  0.13165163  1
  O  O2  1  0.29242408  0.61698976  0.61044248  1
  O  O3  1  0.79242408  0.38301024  0.88955752  1
  O  O4  1  0.60953893  0.66086215  0.98587442  1
  O  O5  1  0.10953893  0.33913785  0.51412558  1
  O  O6  1  0.39661844  0.34827239  0.96077265  1
  O  O7  1  0.89661844  0.65172761  0.53922735  1
  O  O8  1  0.99681448  0.83094516  0.74204501  1
  O  O9  1  0.49681448  0.16905484  0.75795499  1
  O  O10  1  0.02067126  0.20073320  0.25396064  1
  O  O11  1  0.52067126  0.79926680  0.24603936  1
  O  O12  1  0.63992211  0.89696089  0.59523948  1
  O  O13  1  0.13992211  0.10303911  0.90476052  1
  O  O14  1  0.31817460  0.17103988  0.32236938  1
  O  O15  1  0.81817460  0.82896012  0.17763062  1
loop_
_geom_bond_atom_site_label_1
_geom_bond_atom_site_label_2
_geom_bond_distance
_geom_bond_site_symmetry_2
Bi0 O4 2.071864 1_554
Bi0 O3 2.228910 1_554
Bi0 O6 2.256033 1_554
Bi1 O5 2.071864 1_555
Bi1 O2 2.228910 1_555
Bi1 O7 2.256033 1_455
Bi2 O4 2.109659 1_555
Bi2 O12 2.223060 1_555
Bi2 O9 2.303592 1_565
Bi2 O6 2.563012 1_555
Bi3 O5 2.109659 1_655
Bi3 O13 2.223060 1_655
Bi3 O8 2.303592 1_545
Bi3 O7 2.563012 1_555
As0 O9 1.684324 1_555
As0 O2 1.704657 1_555
As0 O13 1.710769 1_555
As0 O6 1.710846 1_555
As1 O8 1.684324 1_555
As1 O3 1.704657 1_555
As1 O12 1.710769 1_555
As1 O7 1.710846 1_555
N0 O0 1.248678 1_555
N0 O11 1.261503 1_555
N0 O15 1.270930 1_555
N1 O1 1.248678 1_555
N1 O10 1.261503 1_555
N1 O14 1.270930 1_555
