# generated using pymatgen
data_Ti3Si2B4W7
_symmetry_space_group_name_H-M   'P 1'
_cell_length_a   6.98222925
_cell_length_b   6.97046578
_cell_length_c   6.97343825
_cell_angle_alpha   128.81285042
_cell_angle_beta   128.85916530
_cell_angle_gamma   75.30558403
_symmetry_Int_Tables_number   1
_chemical_formula_structural   Ti3Si2B4W7
_chemical_formula_sum   'Ti3 Si2 B4 W7'
_cell_volume   200.40479491
_cell_formula_units_Z   1
loop_
 _symmetry_equiv_pos_site_id
 _symmetry_equiv_pos_as_xyz
  1  'x, y, z'
loop_
 _atom_site_type_symbol
 _atom_site_label
 _atom_site_symmetry_multiplicity
 _atom_site_fract_x
 _atom_site_fract_y
 _atom_site_fract_z
 _atom_site_occupancy
  Ti  Ti0  1  0.99959219  0.99902558  0.99894082  1
  Ti  Ti1  1  0.80546727  0.97857077  0.50000000  1
  Ti  Ti2  1  0.50065037  0.50008576  0.00105918  1
  Si  Si0  1  0.74956092  0.75007378  0.00099041  1
  Si  Si1  1  0.24857050  0.24908436  0.99900959  1
  B  B0  1  0.37971767  0.87954052  0.25802517  1
  B  B1  1  0.87777396  0.62163444  0.50000000  1
  B  B2  1  0.62169250  0.12151635  0.74197483  1
  B  B3  1  0.12169315  0.37626080  0.50000000  1
  W  W0  1  0.30455047  0.80401221  0.83015962  1
  W  W1  1  0.19652785  0.02502291  0.50000000  1
  W  W2  1  0.52735194  0.69576545  0.50000000  1
  W  W3  1  0.02524729  0.52524031  0.83042341  1
  W  W4  1  0.69482289  0.19481490  0.16957659  1
  W  W5  1  0.97439185  0.47385259  0.16984038  1
  W  W6  1  0.47238818  0.30549827  0.50000000  1
loop_
_geom_bond_atom_site_label_1
_geom_bond_atom_site_label_2
_geom_bond_distance
_geom_bond_site_symmetry_2
Ti0 W2 2.714214 1_555
Ti0 W6 2.723426 1_666
Ti0 W3 2.723720 1_655
Ti0 W5 2.725599 1_566
Ti0 W1 2.726941 1_666
Ti0 W0 2.727215 1_655
Ti0 W4 2.734040 1_566
Ti1 W6 2.813000 1_565
Ti1 W1 2.829994 1_665
Ti1 W4 3.115681 1_565
Ti1 W3 3.115696 1_665
Ti2 W2 2.714212 1_555
Ti2 W6 2.723429 1_554
Ti2 W4 2.723739 1_555
Ti2 W0 2.725593 1_554
Ti2 W1 2.726943 1_554
Ti2 W5 2.727227 1_555
Ti2 W3 2.734027 1_554
Si0 Ti1 2.541944 1_555
Si0 W4 2.555899 1_565
Si0 W0 2.557159 1_554
Si0 W6 2.557532 1_554
Si0 W5 2.558707 1_555
Si0 W1 2.562964 1_665
Si0 W3 2.565523 1_654
Si0 W2 2.567958 1_554
Si0 Ti2 2.755974 1_555
Si0 Ti0 2.767412 1_554
Si1 Ti1 2.541945 1_445
Si1 W3 2.555905 1_555
Si1 W5 2.557153 1_456
Si1 W6 2.557536 1_556
Si1 W0 2.558713 1_545
Si1 W1 2.562963 1_555
Si1 W4 2.565519 1_556
Si1 W2 2.567954 1_556
Si1 Ti0 2.755980 1_445
Si1 Ti2 2.767406 1_556
B0 B2 2.060130 1_565
B0 W6 2.325050 1_565
B0 W2 2.325497 1_555
B0 W1 2.327422 1_565
B0 Ti1 2.333939 1_555
B0 W0 2.379316 1_554
B0 W3 2.392731 1_554
B0 Ti2 2.396686 1_555
B0 Ti0 2.397900 1_454
B1 B3 2.085210 1_655
B1 W3 2.331008 1_655
B1 W4 2.331021 1_555
B1 W0 2.332463 1_655
B1 W5 2.332469 1_555
B1 W2 2.368981 1_555
B1 Ti0 2.386930 1_555
B1 Ti2 2.386933 1_555
B1 Ti1 2.409945 1_555
B2 W6 2.325044 1_555
B2 W2 2.325504 1_545
B2 W1 2.327423 1_555
B2 Ti1 2.333938 1_545
B2 W5 2.379315 1_556
B2 W4 2.392745 1_556
B2 Ti0 2.396696 1_545
B2 Ti2 2.397905 1_556
B3 W3 2.331074 1_555
B3 W4 2.331082 1_455
B3 W0 2.336317 1_555
B3 W5 2.336319 1_455
B3 W1 2.370263 1_555
B3 W6 2.371994 1_555
B3 Ti2 2.394131 1_556
B3 Ti0 2.394135 1_444
