# generated using pymatgen
data_Hf6SnGeC4
_symmetry_space_group_name_H-M   'P 1'
_cell_length_a   3.31065232
_cell_length_b   3.31065208
_cell_length_c   19.17256297
_cell_angle_alpha   90.00000000
_cell_angle_beta   90.00000000
_cell_angle_gamma   120.00000233
_symmetry_Int_Tables_number   1
_chemical_formula_structural   Hf6SnGeC4
_chemical_formula_sum   'Hf6 Sn1 Ge1 C4'
_cell_volume   181.98597153
_cell_formula_units_Z   1
loop_
 _symmetry_equiv_pos_site_id
 _symmetry_equiv_pos_as_xyz
  1  'x, y, z'
loop_
 _atom_site_type_symbol
 _atom_site_label
 _atom_site_symmetry_multiplicity
 _atom_site_fract_x
 _atom_site_fract_y
 _atom_site_fract_z
 _atom_site_occupancy
  Hf  Hf0  1  0.00000000  0.00000000  0.99316142  1
  Hf  Hf1  1  0.33333300  0.66666500  0.12503791  1
  Hf  Hf2  1  0.33333300  0.66666500  0.37496209  1
  Hf  Hf3  1  0.00000000  0.00000000  0.50683858  1
  Hf  Hf4  1  0.66666900  0.33333400  0.63978826  1
  Hf  Hf5  1  0.66666900  0.33333400  0.86021074  1
  Sn  Sn0  1  0.00000000  0.00000000  0.25000000  1
  Ge  Ge0  1  0.00000000  0.00000000  0.75000000  1
  C  C0  1  0.66666900  0.33333400  0.06428640  1
  C  C1  1  0.66666900  0.33333400  0.43571360  1
  C  C2  1  0.33333300  0.66666500  0.57883949  1
  C  C3  1  0.33333300  0.66666500  0.92116051  1
loop_
_geom_bond_atom_site_label_1
_geom_bond_atom_site_label_2
_geom_bond_distance
_geom_bond_site_symmetry_2
Hf1 Sn0 3.064885 1_555
Hf1 Sn0 3.064889 1_665
Hf1 Sn0 3.064890 1_565
Hf2 Sn0 3.064885 1_555
Hf2 Sn0 3.064889 1_665
Hf2 Sn0 3.064890 1_565
Ge0 Hf5 2.849266 1_455
Ge0 Hf5 2.849268 1_445
Ge0 Hf5 2.849274 1_555
Ge0 Hf4 2.849280 1_455
Ge0 Hf4 2.849282 1_445
Ge0 Hf4 2.849288 1_555
C0 Hf1 2.238328 1_655
C0 Hf1 2.238336 1_555
C0 Hf1 2.238341 1_545
C0 Hf0 2.347976 1_654
C0 Hf0 2.347978 1_664
C0 Hf0 2.347985 1_554
C1 Hf2 2.238328 1_655
C1 Hf2 2.238336 1_555
C1 Hf2 2.238341 1_545
C1 Hf3 2.347976 1_655
C1 Hf3 2.347978 1_665
C1 Hf3 2.347985 1_555
C2 Hf4 2.240299 1_455
C2 Hf4 2.240306 1_555
C2 Hf4 2.240311 1_565
C2 Hf3 2.357769 1_555
C2 Hf3 2.357774 1_665
C2 Hf3 2.357776 1_565
C3 Hf5 2.240309 1_455
C3 Hf5 2.240316 1_555
C3 Hf5 2.240321 1_565
C3 Hf0 2.357769 1_555
C3 Hf0 2.357774 1_665
C3 Hf0 2.357776 1_565
