# generated using pymatgen
data_Sc4Os5Ru2W
_symmetry_space_group_name_H-M   'P 1'
_cell_length_a   5.11073427
_cell_length_b   5.25214223
_cell_length_c   8.74373245
_cell_angle_alpha   90.00000000
_cell_angle_beta   90.00000000
_cell_angle_gamma   120.91959308
_symmetry_Int_Tables_number   1
_chemical_formula_structural   Sc4Os5Ru2W
_chemical_formula_sum   'Sc4 Os5 Ru2 W1'
_cell_volume   201.34825086
_cell_formula_units_Z   1
loop_
 _symmetry_equiv_pos_site_id
 _symmetry_equiv_pos_as_xyz
  1  'x, y, z'
loop_
 _atom_site_type_symbol
 _atom_site_label
 _atom_site_symmetry_multiplicity
 _atom_site_fract_x
 _atom_site_fract_y
 _atom_site_fract_z
 _atom_site_occupancy
  Sc  Sc0  1  0.33455860  0.66727930  0.43182113  1
  Sc  Sc1  1  0.65754421  0.32877210  0.56485470  1
  Sc  Sc2  1  0.65754421  0.32877210  0.93514530  1
  Sc  Sc3  1  0.33455860  0.66727930  0.06817887  1
  Os  Os0  1  0.83295497  0.17337545  0.25000000  1
  Os  Os1  1  0.83295497  0.65957852  0.25000000  1
  Os  Os2  1  0.34593650  0.17296775  0.25000000  1
  Os  Os3  1  0.17826415  0.82874320  0.75000000  1
  Os  Os4  1  0.17826415  0.34952295  0.75000000  1
  Ru  Ru0  1  0.98606052  0.99303076  0.49791346  1
  Ru  Ru1  1  0.98606052  0.99303076  0.00208654  1
  W  W0  1  0.67529661  0.83764980  0.75000000  1
loop_
_geom_bond_atom_site_label_1
_geom_bond_atom_site_label_2
_geom_bond_distance
_geom_bond_site_symmetry_2
Sc0 W0 3.157815 1_555
Sc1 W0 3.085932 1_545
Sc1 W0 3.085946 1_555
Sc2 W0 3.085932 1_545
Sc2 W0 3.085946 1_555
Sc3 W0 3.157815 1_554
Os0 Os2 2.487922 1_555
Os0 Os1 2.553608 1_555
Os0 Os2 2.622813 1_655
Os0 Ru0 2.640077 1_545
Os0 Ru1 2.640077 1_545
Os0 Os1 2.698535 1_545
Os0 Sc0 2.999066 1_655
Os0 Sc3 2.999066 1_655
Os0 Sc0 3.020434 1_545
Os0 Sc3 3.020434 1_545
Os0 Sc1 3.130616 1_555
Os0 Sc2 3.130616 1_554
Os1 Os2 2.487922 1_555
Os1 Os2 2.622813 1_665
Os1 Ru0 2.640082 1_555
Os1 Ru1 2.640082 1_555
Os1 Sc0 2.999064 1_655
Os1 Sc3 2.999064 1_655
Os1 Sc0 3.020437 1_555
Os1 Sc3 3.020437 1_555
Os1 Sc1 3.130613 1_555
Os1 Sc2 3.130613 1_554
Os2 Ru0 2.681139 1_445
Os2 Ru1 2.681139 1_445
Os2 Sc0 3.070207 1_545
Os2 Sc3 3.070207 1_545
Os2 Sc0 3.070212 1_555
Os2 Sc3 3.070212 1_555
Os2 Sc1 3.073372 1_555
Os2 Sc2 3.073372 1_554
Os3 W0 2.516484 1_555
Os3 Os4 2.516933 1_555
Os3 W0 2.594880 1_455
Os3 Ru1 2.727432 1_456
Os3 Ru0 2.727432 1_455
Os3 Os4 2.735209 1_565
Os3 Sc2 2.984430 1_565
Os3 Sc1 2.984430 1_565
Os3 Sc2 3.068690 1_455
Os3 Sc1 3.068690 1_455
Os3 Sc3 3.129418 1_556
Os3 Sc0 3.129418 1_555
Os4 W0 2.516486 1_555
Os4 W0 2.594877 1_445
Os4 Ru1 2.727435 1_446
Os4 Ru0 2.727435 1_445
Os4 Sc2 2.984435 1_555
Os4 Sc1 2.984435 1_555
Os4 Sc2 3.068686 1_455
Os4 Sc1 3.068686 1_455
Os4 Sc3 3.129414 1_556
Os4 Sc0 3.129414 1_555
Ru0 W0 2.591308 1_555
Ru0 Sc0 2.914344 1_555
Ru0 Sc1 3.001702 1_665
Ru0 Sc1 3.051798 1_565
Ru0 Sc1 3.051802 1_555
Ru0 Sc0 3.092715 1_665
Ru0 Sc0 3.092720 1_655
Ru1 W0 2.591308 1_554
Ru1 Sc3 2.914344 1_555
Ru1 Sc2 3.001702 1_664
Ru1 Sc2 3.051798 1_564
Ru1 Sc2 3.051802 1_554
Ru1 Sc3 3.092715 1_665
Ru1 Sc3 3.092720 1_655
