# generated using pymatgen
data_Rb3Li2TaP3
_symmetry_space_group_name_H-M   'P 1'
_cell_length_a   9.89280442
_cell_length_b   9.89280465
_cell_length_c   15.65001563
_cell_angle_alpha   90.00000000
_cell_angle_beta   90.00000000
_cell_angle_gamma   142.48864881
_symmetry_Int_Tables_number   1
_chemical_formula_structural   Rb3Li2TaP3
_chemical_formula_sum   'Rb12 Li8 Ta4 P12'
_cell_volume   932.63748579
_cell_formula_units_Z   4
loop_
 _symmetry_equiv_pos_site_id
 _symmetry_equiv_pos_as_xyz
  1  'x, y, z'
loop_
 _atom_site_type_symbol
 _atom_site_label
 _atom_site_symmetry_multiplicity
 _atom_site_fract_x
 _atom_site_fract_y
 _atom_site_fract_z
 _atom_site_occupancy
  Rb  Rb0  1  0.95038918  0.61148069  0.82771303  1
  Rb  Rb1  1  0.54961082  0.88851931  0.32771303  1
  Rb  Rb2  1  0.38851931  0.04961082  0.17228697  1
  Rb  Rb3  1  0.04961082  0.38851931  0.17228697  1
  Rb  Rb4  1  0.88851931  0.54961082  0.32771303  1
  Rb  Rb5  1  0.45038918  0.11148069  0.67228697  1
  Rb  Rb6  1  0.61148069  0.95038918  0.82771303  1
  Rb  Rb7  1  0.28900121  0.28900121  0.31447733  1
  Rb  Rb8  1  0.78900121  0.78900121  0.18552267  1
  Rb  Rb9  1  0.21099879  0.21099879  0.81447733  1
  Rb  Rb10  1  0.71099879  0.71099879  0.68552267  1
  Rb  Rb11  1  0.11148069  0.45038918  0.67228697  1
  Li  Li0  1  0.91866039  0.08133961  0.00000000  1
  Li  Li1  1  0.58133961  0.41866039  0.50000000  1
  Li  Li2  1  0.08133961  0.91866039  0.00000000  1
  Li  Li3  1  0.41866039  0.58133961  0.50000000  1
  Li  Li4  1  0.74986495  0.25013505  0.00000000  1
  Li  Li5  1  0.75013505  0.24986495  0.50000000  1
  Li  Li6  1  0.25013505  0.74986495  0.00000000  1
  Li  Li7  1  0.24986495  0.75013505  0.50000000  1
  Ta  Ta0  1  0.58268941  0.41731059  0.00000000  1
  Ta  Ta1  1  0.91731059  0.08268941  0.50000000  1
  Ta  Ta2  1  0.41731059  0.58268941  0.00000000  1
  Ta  Ta3  1  0.08268941  0.91731059  0.50000000  1
  P  P0  1  0.88223080  0.56530901  0.08454991  1
  P  P1  1  0.43469099  0.11776920  0.91545009  1
  P  P2  1  0.61776920  0.93469099  0.58454991  1
  P  P3  1  0.93469099  0.61776920  0.58454991  1
  P  P4  1  0.11776920  0.43469099  0.91545009  1
  P  P5  1  0.56530901  0.88223080  0.08454991  1
  P  P6  1  0.38223080  0.06530901  0.41545009  1
  P  P7  1  0.21926609  0.21926609  0.58470684  1
  P  P8  1  0.71926609  0.71926609  0.91529316  1
  P  P9  1  0.28073391  0.28073391  0.08470684  1
  P  P10  1  0.06530901  0.38223080  0.41545009  1
  P  P11  1  0.78073391  0.78073391  0.41529316  1
loop_
_geom_bond_atom_site_label_1
_geom_bond_atom_site_label_2
_geom_bond_distance
_geom_bond_site_symmetry_2
Li0 P5 2.631847 1_545
Li0 P4 2.631847 1_654
Li0 P9 2.696158 1_655
Li0 P8 2.696158 1_544
Li1 P3 2.631847 1_555
Li1 P6 2.631847 1_555
Li1 P7 2.696158 1_555
Li1 P11 2.696158 1_555
Li2 P1 2.631847 1_564
Li2 P0 2.631847 1_455
Li2 P8 2.696158 1_454
Li2 P9 2.696158 1_565
Li3 P10 2.631847 1_555
Li3 P2 2.631847 1_555
Li3 P11 2.696158 1_555
Li3 P7 2.696158 1_555
Li4 P1 2.590348 1_554
Li4 P0 2.590348 1_555
Li4 P4 2.790848 1_654
Li4 P5 2.790848 1_545
Li5 P10 2.590348 1_655
Li5 P2 2.590348 1_545
Li5 P6 2.790848 1_555
Li5 P3 2.790848 1_555
Li6 P5 2.590348 1_555
Li6 P4 2.590348 1_554
Li6 P0 2.790848 1_455
Li6 P1 2.790848 1_564
Li7 P3 2.590348 1_455
Li7 P6 2.590348 1_565
Li7 P2 2.790848 1_555
Li7 P10 2.790848 1_555
P0 Ta0 2.406784 1_555
P0 Rb8 3.388636 1_555
P0 Rb2 3.443280 1_665
P0 Rb2 3.498143 1_555
P0 Rb3 3.504348 1_655
P0 Rb4 3.811193 1_555
P1 Ta0 2.406784 1_556
P1 Rb9 3.388635 1_555
P1 Rb0 3.443280 1_445
P1 Rb0 3.498143 1_555
P1 Rb6 3.504348 1_545
P1 Rb5 3.811193 1_555
P2 Ta1 2.406784 1_565
P2 Rb10 3.388636 1_555
P2 Rb11 3.443280 1_555
P2 Rb11 3.498143 1_665
P2 Rb5 3.504348 1_565
P2 Rb6 3.811193 1_555
P3 Ta3 2.406784 1_655
P3 Rb10 3.388635 1_555
P3 Rb5 3.443280 1_555
P3 Rb5 3.498143 1_665
P3 Rb11 3.504348 1_655
P3 Rb0 3.811193 1_555
P4 Ta2 2.406784 1_556
P4 Rb9 3.388636 1_555
P4 Rb6 3.443280 1_445
P4 Rb6 3.498143 1_555
P4 Rb0 3.504348 1_455
P4 Rb11 3.811193 1_555
P5 Ta2 2.406784 1_555
P5 Rb8 3.388635 1_555
P5 Rb3 3.443280 1_665
P5 Rb3 3.498143 1_555
P5 Rb2 3.504348 1_565
P5 Rb1 3.811193 1_555
P6 Ta3 2.406784 1_545
P6 Rb7 3.388636 1_555
P6 Rb4 3.443280 1_555
P6 Rb4 3.498143 1_445
P6 Rb1 3.504348 1_545
P6 Rb2 3.811193 1_555
P7 Ta1 2.470451 1_455
P7 Ta3 2.470451 1_545
P7 Rb5 3.480141 1_555
P7 Rb11 3.480141 1_555
P7 Rb10 3.503632 1_555
P7 Rb9 3.596296 1_555
P7 Rb10 3.597863 1_445
P8 Ta2 2.470451 1_556
P8 Ta0 2.470451 1_556
P8 Rb0 3.480141 1_555
P8 Rb6 3.480141 1_555
P8 Rb9 3.503632 1_665
P8 Rb10 3.596296 1_555
P8 Rb9 3.597863 1_555
P9 Ta0 2.470451 1_555
P9 Ta2 2.470451 1_555
P9 Rb3 3.480141 1_555
P9 Rb2 3.480141 1_555
P9 Rb8 3.503632 1_445
P9 Rb7 3.596296 1_555
P9 Rb8 3.597863 1_555
P10 Ta1 2.406784 1_455
P10 Rb7 3.388635 1_555
P10 Rb1 3.443280 1_555
P10 Rb1 3.498143 1_445
P10 Rb4 3.504348 1_455
P10 Rb3 3.811193 1_555
P11 Ta3 2.470451 1_655
P11 Ta1 2.470451 1_565
P11 Rb1 3.480141 1_555
P11 Rb4 3.480141 1_555
P11 Rb7 3.503632 1_555
P11 Rb8 3.596296 1_555
P11 Rb7 3.597863 1_665
