# generated using pymatgen
data_Nb8V2GaSi5
_symmetry_space_group_name_H-M   'P 1'
_cell_length_a   7.53543404
_cell_length_b   7.53543370
_cell_length_c   7.53543448
_cell_angle_alpha   129.04102819
_cell_angle_beta   129.04102451
_cell_angle_gamma   74.94457657
_symmetry_Int_Tables_number   1
_chemical_formula_structural   Nb8V2GaSi5
_chemical_formula_sum   'Nb8 V2 Ga1 Si5'
_cell_volume   251.37900069
_cell_formula_units_Z   1
loop_
 _symmetry_equiv_pos_site_id
 _symmetry_equiv_pos_as_xyz
  1  'x, y, z'
loop_
 _atom_site_type_symbol
 _atom_site_label
 _atom_site_symmetry_multiplicity
 _atom_site_fract_x
 _atom_site_fract_y
 _atom_site_fract_z
 _atom_site_occupancy
  Nb  Nb0  1  0.02211835  0.51638916  0.83333217  1
  Nb  Nb1  1  0.68305600  0.18878518  0.16666783  1
  Nb  Nb2  1  0.51638916  0.68305600  0.49427182  1
  Nb  Nb3  1  0.18878518  0.02211835  0.50572818  1
  Nb  Nb4  1  0.98361084  0.47788165  0.16666783  1
  Nb  Nb5  1  0.31121482  0.81694400  0.83333217  1
  Nb  Nb6  1  0.47788165  0.31121482  0.49427182  1
  Nb  Nb7  1  0.81694400  0.98361084  0.50572818  1
  V  V0  1  0.00173625  0.00173625  1.00000000  1
  V  V1  1  0.49826375  0.49826375  0.00000000  1
  Ga  Ga0  1  0.75000000  0.75000000  0.00000000  1
  Si  Si0  1  0.25000000  0.25000000  0.00000000  1
  Si  Si1  1  0.63169877  0.13169877  0.76339454  1
  Si  Si2  1  0.36830123  0.86830123  0.23660546  1
  Si  Si3  1  0.13169877  0.36830123  0.50000000  1
  Si  Si4  1  0.86830123  0.63169877  0.50000000  1
loop_
_geom_bond_atom_site_label_1
_geom_bond_atom_site_label_2
_geom_bond_distance
_geom_bond_site_symmetry_2
Nb0 Si2 2.554876 1_556
Nb0 Si3 2.615219 1_555
Nb0 Si4 2.639362 1_455
Nb0 Si0 2.687729 1_556
Nb1 Si1 2.554910 1_554
Nb1 Si4 2.615227 1_555
Nb1 Si3 2.639370 1_655
Nb1 Si0 2.687723 1_555
Nb2 Si4 2.554884 1_555
Nb2 Si2 2.615214 1_555
Nb2 Si1 2.639376 1_565
Nb2 Si0 2.687725 1_555
Nb3 Si3 2.554876 1_555
Nb3 Si1 2.615229 1_555
Nb3 Si2 2.639344 1_545
Nb3 Si0 2.687731 1_556
Nb4 Si1 2.554876 1_554
Nb4 Si3 2.615219 1_655
Nb4 Si4 2.639362 1_555
Nb4 Si0 2.687729 1_655
Nb5 Si2 2.554910 1_556
Nb5 Si4 2.615227 1_455
Nb5 Si3 2.639369 1_555
Nb5 Si0 2.687723 1_566
Nb6 Si3 2.554876 1_555
Nb6 Si2 2.615229 1_545
Nb6 Si1 2.639344 1_555
Nb6 Si0 2.687731 1_555
Nb7 Si4 2.554884 1_555
Nb7 Si1 2.615214 1_565
Nb7 Si2 2.639376 1_555
Nb7 Si0 2.687726 1_666
Ga0 Nb7 2.732150 1_555
Ga0 Nb2 2.732150 1_554
Ga0 Nb6 2.732155 1_554
Ga0 Nb1 2.732155 1_565
Ga0 Nb3 2.732155 1_665
Ga0 Nb5 2.732155 1_554
Ga0 Nb0 2.732161 1_654
Ga0 Nb4 2.732161 1_555
Ga0 V0 3.011007 1_664
Ga0 V1 3.011007 1_555
Si0 V1 2.969473 1_555
Si0 V0 2.969473 1_554
Si1 Si2 2.415006 1_545
Si1 V0 2.535970 1_655
Si1 V1 2.535970 1_556
Si2 V1 2.535970 1_555
Si2 V0 2.535970 1_564
Si3 Si4 2.415034 1_455
Si3 V0 2.535964 1_554
Si3 V1 2.535964 1_556
Si4 V0 2.535964 1_665
Si4 V1 2.535964 1_555
