# generated using pymatgen
data_ZnCd3Ni2
_symmetry_space_group_name_H-M   'P 1'
_cell_length_a   8.09744220
_cell_length_b   8.09744184
_cell_length_c   8.09744162
_cell_angle_alpha   60.00000091
_cell_angle_beta   60.00000236
_cell_angle_gamma   60.00000469
_symmetry_Int_Tables_number   1
_chemical_formula_structural   ZnCd3Ni2
_chemical_formula_sum   'Zn4 Cd12 Ni8'
_cell_volume   375.42963198
_cell_formula_units_Z   4
loop_
 _symmetry_equiv_pos_site_id
 _symmetry_equiv_pos_as_xyz
  1  'x, y, z'
loop_
 _atom_site_type_symbol
 _atom_site_label
 _atom_site_symmetry_multiplicity
 _atom_site_fract_x
 _atom_site_fract_y
 _atom_site_fract_z
 _atom_site_occupancy
  Zn  Zn0  1  0.12500000  0.62500000  0.62500000  1
  Zn  Zn1  1  0.62500000  0.12500000  0.62500000  1
  Zn  Zn2  1  0.62500000  0.62500000  0.12500000  1
  Zn  Zn3  1  0.62500000  0.62500000  0.62500000  1
  Cd  Cd0  1  0.80696673  0.80696673  0.19303327  1
  Cd  Cd1  1  0.19303327  0.19303327  0.80696673  1
  Cd  Cd2  1  0.80696673  0.19303327  0.80696673  1
  Cd  Cd3  1  0.19303327  0.80696673  0.19303327  1
  Cd  Cd4  1  0.19303327  0.80696673  0.80696673  1
  Cd  Cd5  1  0.80696673  0.19303327  0.19303327  1
  Cd  Cd6  1  0.44303327  0.44303327  0.05696673  1
  Cd  Cd7  1  0.05696673  0.05696673  0.44303327  1
  Cd  Cd8  1  0.44303327  0.05696673  0.44303327  1
  Cd  Cd9  1  0.05696673  0.44303327  0.05696673  1
  Cd  Cd10  1  0.05696673  0.44303327  0.44303327  1
  Cd  Cd11  1  0.44303327  0.05696673  0.05696673  1
  Ni  Ni0  1  0.73927940  0.42024020  0.42024020  1
  Ni  Ni1  1  0.42024020  0.73927940  0.42024020  1
  Ni  Ni2  1  0.42024020  0.42024020  0.73927940  1
  Ni  Ni3  1  0.42024020  0.42024020  0.42024020  1
  Ni  Ni4  1  0.51072060  0.82975980  0.82975980  1
  Ni  Ni5  1  0.82975980  0.51072060  0.82975980  1
  Ni  Ni6  1  0.82975980  0.82975980  0.51072060  1
  Ni  Ni7  1  0.82975980  0.82975980  0.82975980  1
loop_
_geom_bond_atom_site_label_1
_geom_bond_atom_site_label_2
_geom_bond_distance
_geom_bond_site_symmetry_2
Cd0 Ni6 2.769348 1_555
Cd0 Ni7 2.769348 1_554
Cd0 Ni0 2.904855 1_555
Cd0 Ni1 2.904855 1_555
Cd0 Zn3 2.905208 1_555
Cd0 Zn2 2.905208 1_555
Cd0 Cd10 3.007857 1_655
Cd0 Cd9 3.007857 1_655
Cd0 Cd8 3.007857 1_565
Cd0 Cd11 3.007857 1_565
Cd0 Cd5 3.126151 1_565
Cd0 Cd2 3.126151 1_564
Cd0 Cd3 3.126152 1_655
Cd0 Cd4 3.126152 1_654
Cd1 Ni4 2.769348 1_545
Cd1 Ni5 2.769348 1_455
Cd1 Ni3 2.904855 1_555
Cd1 Ni2 2.904855 1_555
Cd1 Zn0 2.905208 1_555
Cd1 Zn1 2.905208 1_555
Cd1 Cd10 3.007857 1_555
Cd1 Cd9 3.007857 1_556
Cd1 Cd8 3.007857 1_555
Cd1 Cd11 3.007857 1_556
Cd1 Cd4 3.126151 1_545
Cd1 Cd3 3.126151 1_546
Cd1 Cd2 3.126152 1_455
Cd1 Cd5 3.126152 1_456
Cd2 Ni5 2.769348 1_555
Cd2 Ni7 2.769348 1_545
Cd2 Ni0 2.904855 1_555
Cd2 Ni2 2.904855 1_555
Cd2 Zn1 2.905208 1_555
Cd2 Zn3 2.905208 1_555
Cd2 Cd7 3.007857 1_655
Cd2 Cd6 3.007857 1_556
Cd2 Cd5 3.126151 1_556
Cd2 Cd4 3.126152 1_645
Cd3 Ni4 2.769348 1_554
Cd3 Ni6 2.769348 1_455
Cd3 Ni1 2.904855 1_555
Cd3 Ni3 2.904855 1_555
Cd3 Zn0 2.905208 1_555
Cd3 Zn2 2.905208 1_555
Cd3 Cd7 3.007857 1_565
Cd3 Cd6 3.007857 1_555
Cd3 Cd4 3.126151 1_554
Cd3 Cd5 3.126152 1_465
Cd4 Ni4 2.769348 1_555
Cd4 Ni7 2.769348 1_455
Cd4 Ni1 2.904855 1_555
Cd4 Ni2 2.904855 1_555
Cd4 Zn0 2.905208 1_555
Cd4 Zn3 2.905208 1_555
Cd4 Cd7 3.007857 1_565
Cd4 Cd9 3.007857 1_556
Cd4 Cd8 3.007857 1_565
Cd4 Cd6 3.007857 1_556
Cd5 Ni5 2.769348 1_554
Cd5 Ni6 2.769348 1_545
Cd5 Ni0 2.904855 1_555
Cd5 Ni3 2.904855 1_555
Cd5 Zn1 2.905208 1_555
Cd5 Zn2 2.905208 1_555
Cd5 Cd9 3.007857 1_655
Cd5 Cd7 3.007857 1_655
Cd5 Cd8 3.007857 1_555
Cd5 Cd6 3.007857 1_555
Cd6 Ni2 2.769348 1_554
Cd6 Ni3 2.769348 1_555
Cd6 Ni4 2.904855 1_554
Cd6 Ni5 2.904855 1_554
Cd6 Zn3 2.905208 1_554
Cd6 Zn2 2.905208 1_555
Cd6 Cd8 3.126151 1_555
Cd6 Cd9 3.126152 1_555
Cd7 Ni0 2.769348 1_455
Cd7 Ni1 2.769348 1_545
Cd7 Ni7 2.904855 1_445
Cd7 Ni6 2.904855 1_445
Cd7 Zn0 2.905208 1_545
Cd7 Zn1 2.905208 1_455
Cd7 Cd9 3.126151 1_555
Cd7 Cd8 3.126152 1_555
Cd8 Ni1 2.769348 1_545
Cd8 Ni3 2.769348 1_555
Cd8 Ni4 2.904855 1_545
Cd8 Ni6 2.904855 1_545
Cd8 Zn1 2.905208 1_555
Cd8 Zn3 2.905208 1_545
Cd9 Ni0 2.769348 1_455
Cd9 Ni2 2.769348 1_554
Cd9 Ni5 2.904855 1_454
Cd9 Ni7 2.904855 1_454
Cd9 Zn0 2.905208 1_554
Cd9 Zn2 2.905208 1_455
Cd10 Ni0 2.769348 1_455
Cd10 Ni3 2.769348 1_555
Cd10 Ni5 2.904855 1_455
Cd10 Ni6 2.904855 1_455
Cd10 Zn0 2.905208 1_555
Cd10 Zn3 2.905208 1_455
Cd10 Cd3 3.007857 1_555
Cd10 Cd2 3.007857 1_455
Cd10 Cd9 3.126151 1_555
Cd10 Cd7 3.126151 1_555
Cd10 Cd6 3.126152 1_555
Cd10 Cd8 3.126152 1_555
Cd11 Ni1 2.769348 1_545
Cd11 Ni2 2.769348 1_554
Cd11 Ni4 2.904855 1_544
Cd11 Ni7 2.904855 1_544
Cd11 Zn1 2.905208 1_554
Cd11 Zn2 2.905208 1_545
Cd11 Cd3 3.007857 1_545
Cd11 Cd2 3.007857 1_554
Cd11 Cd8 3.126151 1_555
Cd11 Cd6 3.126151 1_555
Cd11 Cd7 3.126152 1_555
Cd11 Cd9 3.126152 1_555
Ni0 Zn3 2.456608 1_555
Ni0 Zn2 2.456608 1_555
Ni0 Zn1 2.456608 1_555
Ni0 Ni2 2.583401 1_555
Ni0 Ni3 2.583401 1_555
Ni0 Ni1 2.583402 1_555
Ni1 Zn3 2.456608 1_555
Ni1 Zn2 2.456608 1_555
Ni1 Zn0 2.456608 1_555
Ni1 Ni2 2.583401 1_555
Ni1 Ni3 2.583401 1_555
Ni2 Zn3 2.456608 1_555
Ni2 Zn1 2.456608 1_555
Ni2 Zn0 2.456608 1_555
Ni2 Ni3 2.583401 1_555
Ni3 Zn2 2.456608 1_555
Ni3 Zn1 2.456608 1_555
Ni3 Zn0 2.456608 1_555
Ni4 Zn3 2.456608 1_555
Ni4 Zn2 2.456608 1_556
Ni4 Zn1 2.456608 1_565
Ni4 Ni7 2.583401 1_555
Ni4 Ni6 2.583401 1_555
Ni4 Ni5 2.583402 1_555
Ni5 Zn3 2.456608 1_555
Ni5 Zn2 2.456608 1_556
Ni5 Zn0 2.456608 1_655
Ni5 Ni6 2.583401 1_555
Ni5 Ni7 2.583401 1_555
Ni6 Zn3 2.456608 1_555
Ni6 Zn1 2.456608 1_565
Ni6 Zn0 2.456608 1_655
Ni6 Ni7 2.583401 1_555
Ni7 Zn2 2.456608 1_556
Ni7 Zn1 2.456608 1_565
Ni7 Zn0 2.456608 1_655
