# generated using pymatgen
data_Mn3(CuBi)4
_symmetry_space_group_name_H-M   'P 1'
_cell_length_a   8.52677864
_cell_length_b   8.52677864
_cell_length_c   8.52677864
_cell_angle_alpha   60.00000000
_cell_angle_beta   60.00000000
_cell_angle_gamma   60.00000000
_symmetry_Int_Tables_number   1
_chemical_formula_structural   Mn3(CuBi)4
_chemical_formula_sum   'Mn6 Cu8 Bi8'
_cell_volume   438.36913495
_cell_formula_units_Z   2
loop_
 _symmetry_equiv_pos_site_id
 _symmetry_equiv_pos_as_xyz
  1  'x, y, z'
loop_
 _atom_site_type_symbol
 _atom_site_label
 _atom_site_symmetry_multiplicity
 _atom_site_fract_x
 _atom_site_fract_y
 _atom_site_fract_z
 _atom_site_occupancy
  Mn  Mn0  1  0.50000000  0.50000000  0.00000000  1
  Mn  Mn1  1  0.00000000  0.00000000  0.50000000  1
  Mn  Mn2  1  0.50000000  0.00000000  0.50000000  1
  Mn  Mn3  1  0.00000000  0.50000000  0.50000000  1
  Mn  Mn4  1  0.50000000  0.00000000  0.00000000  1
  Mn  Mn5  1  0.00000000  0.50000000  0.00000000  1
  Cu  Cu0  1  0.89005400  0.89005400  0.89005400  1
  Cu  Cu1  1  0.67016300  0.10994600  0.10994600  1
  Cu  Cu2  1  0.10994600  0.10994600  0.10994600  1
  Cu  Cu3  1  0.32983700  0.89005400  0.89005400  1
  Cu  Cu4  1  0.89005400  0.32983700  0.89005400  1
  Cu  Cu5  1  0.89005400  0.89005400  0.32983700  1
  Cu  Cu6  1  0.10994600  0.67016300  0.10994600  1
  Cu  Cu7  1  0.10994600  0.10994600  0.67016300  1
  Bi  Bi0  1  0.71518200  0.28481800  0.71518200  1
  Bi  Bi1  1  0.28481800  0.28481800  0.71518200  1
  Bi  Bi2  1  0.71518200  0.71518200  0.28481800  1
  Bi  Bi3  1  0.71518200  0.28481800  0.28481800  1
  Bi  Bi4  1  0.28481800  0.71518200  0.71518200  1
  Bi  Bi5  1  0.28481800  0.71518200  0.28481800  1
  Bi  Bi6  1  0.75000000  0.75000000  0.75000000  1
  Bi  Bi7  1  0.25000000  0.25000000  0.25000000  1
loop_
_geom_bond_atom_site_label_1
_geom_bond_atom_site_label_2
_geom_bond_distance
_geom_bond_site_symmetry_2
Cu0 Cu7 2.651609 1_665
Cu0 Cu1 2.651609 1_566
Cu0 Cu6 2.651609 1_656
Cu0 Mn1 2.731721 1_665
Cu0 Mn5 2.731721 1_656
Cu0 Mn4 2.731721 1_566
Cu1 Cu4 2.651597 1_554
Cu1 Cu5 2.651597 1_545
Cu1 Mn2 2.731722 1_555
Cu1 Mn0 2.731722 1_555
Cu1 Mn4 2.731729 1_555
Cu2 Cu3 2.651609 1_544
Cu2 Cu4 2.651609 1_454
Cu2 Cu5 2.651609 1_445
Cu2 Mn1 2.731721 1_555
Cu2 Mn5 2.731721 1_555
Cu2 Mn4 2.731721 1_555
Cu3 Cu6 2.651597 1_556
Cu3 Cu7 2.651597 1_565
Cu3 Mn0 2.731722 1_556
Cu3 Mn2 2.731722 1_565
Cu3 Mn4 2.731729 1_566
Cu4 Cu7 2.651597 1_655
Cu4 Mn0 2.731722 1_556
Cu4 Mn3 2.731722 1_655
Cu4 Mn5 2.731729 1_656
Cu5 Cu6 2.651597 1_655
Cu5 Mn2 2.731722 1_565
Cu5 Mn3 2.731722 1_655
Cu5 Mn1 2.731729 1_665
Cu6 Mn3 2.731722 1_555
Cu6 Mn0 2.731722 1_555
Cu6 Mn5 2.731729 1_555
Cu7 Mn2 2.731722 1_555
Cu7 Mn3 2.731722 1_555
Cu7 Mn1 2.731729 1_555
Bi0 Cu4 2.821739 1_555
Bi0 Cu0 2.821744 1_545
Bi0 Cu7 2.821746 1_655
Bi0 Cu1 2.821746 1_556
Bi0 Mn4 3.043768 1_556
Bi0 Mn1 3.043768 1_655
Bi0 Mn3 3.043768 1_655
Bi0 Mn0 3.043768 1_556
Bi1 Cu7 2.821739 1_555
Bi1 Cu2 2.821744 1_556
Bi1 Cu4 2.821746 1_455
Bi1 Cu3 2.821746 1_545
Bi1 Mn2 3.043768 1_555
Bi1 Mn3 3.043768 1_555
Bi1 Mn5 3.043768 1_556
Bi1 Mn4 3.043768 1_556
Bi2 Cu5 2.821739 1_555
Bi2 Cu0 2.821744 1_554
Bi2 Cu6 2.821746 1_655
Bi2 Cu1 2.821746 1_565
Bi2 Mn5 3.043768 1_655
Bi2 Mn4 3.043768 1_565
Bi2 Mn2 3.043768 1_565
Bi2 Mn3 3.043768 1_655
Bi3 Cu1 2.821739 1_555
Bi3 Cu2 2.821744 1_655
Bi3 Cu5 2.821746 1_545
Bi3 Cu4 2.821746 1_554
Bi3 Mn2 3.043768 1_555
Bi3 Mn0 3.043768 1_555
Bi3 Mn1 3.043768 1_655
Bi3 Mn5 3.043768 1_655
Bi4 Cu3 2.821739 1_555
Bi4 Cu0 2.821744 1_455
Bi4 Cu7 2.821746 1_565
Bi4 Cu6 2.821746 1_556
Bi4 Mn1 3.043768 1_565
Bi4 Mn5 3.043768 1_556
Bi4 Mn2 3.043768 1_565
Bi4 Mn0 3.043768 1_556
Bi5 Cu6 2.821739 1_555
Bi5 Cu2 2.821744 1_565
Bi5 Cu5 2.821746 1_455
Bi5 Cu3 2.821746 1_554
Bi5 Mn0 3.043768 1_555
Bi5 Mn3 3.043768 1_555
Bi5 Mn4 3.043768 1_565
Bi5 Mn1 3.043768 1_565
Bi6 Cu0 2.925204 1_555
Bi6 Cu3 2.925211 1_555
Bi6 Cu5 2.925211 1_555
Bi6 Cu4 2.925211 1_555
Bi6 Mn1 3.014671 1_665
Bi6 Mn0 3.014671 1_556
Bi6 Mn2 3.014671 1_565
Bi6 Mn5 3.014671 1_656
Bi6 Mn3 3.014671 1_655
Bi6 Mn4 3.014671 1_566
Bi7 Cu2 2.925204 1_555
Bi7 Cu7 2.925211 1_555
Bi7 Cu6 2.925211 1_555
Bi7 Cu1 2.925211 1_555
Bi7 Mn4 3.014671 1_555
Bi7 Mn1 3.014671 1_555
Bi7 Mn5 3.014671 1_555
Bi7 Mn2 3.014671 1_555
Bi7 Mn3 3.014671 1_555
Bi7 Mn0 3.014671 1_555
