# generated using pymatgen
data_NaBi3(Ir2O7)2
_symmetry_space_group_name_H-M   'P 1'
_cell_length_a   7.17849560
_cell_length_b   7.17849548
_cell_length_c   7.17849551
_cell_angle_alpha   61.17131679
_cell_angle_beta   61.17132119
_cell_angle_gamma   61.17131767
_symmetry_Int_Tables_number   1
_chemical_formula_structural   NaBi3(Ir2O7)2
_chemical_formula_sum   'Na1 Bi3 Ir4 O14'
_cell_volume   268.46154144
_cell_formula_units_Z   1
loop_
 _symmetry_equiv_pos_site_id
 _symmetry_equiv_pos_as_xyz
  1  'x, y, z'
loop_
 _atom_site_type_symbol
 _atom_site_label
 _atom_site_symmetry_multiplicity
 _atom_site_fract_x
 _atom_site_fract_y
 _atom_site_fract_z
 _atom_site_occupancy
  Na  Na0  1  0.50000000  0.50000000  0.50000000  1
  Bi  Bi0  1  0.50000000  0.00000000  0.50000000  1
  Bi  Bi1  1  0.00000000  0.50000000  0.50000000  1
  Bi  Bi2  1  0.50000000  0.50000000  0.00000000  1
  Ir  Ir0  1  0.00000000  0.00000000  0.00000000  1
  Ir  Ir1  1  0.00000000  0.50000000  0.00000000  1
  Ir  Ir2  1  0.50000000  0.00000000  0.00000000  1
  Ir  Ir3  1  0.00000000  0.00000000  0.50000000  1
  O  O0  1  0.62605089  0.62605089  0.62605089  1
  O  O1  1  0.37394911  0.37394911  0.37394911  1
  O  O2  1  0.91649548  0.91649548  0.33104438  1
  O  O3  1  0.33104438  0.91649548  0.91649548  1
  O  O4  1  0.91649548  0.33104438  0.91649548  1
  O  O5  1  0.32731914  0.32731914  0.93289439  1
  O  O6  1  0.93289439  0.32731914  0.32731914  1
  O  O7  1  0.32731914  0.93289439  0.32731914  1
  O  O8  1  0.08350452  0.08350452  0.66895562  1
  O  O9  1  0.66895562  0.08350452  0.08350452  1
  O  O10  1  0.08350452  0.66895562  0.08350452  1
  O  O11  1  0.67268086  0.67268086  0.06710561  1
  O  O12  1  0.06710561  0.67268086  0.67268086  1
  O  O13  1  0.67268086  0.06710561  0.67268086  1
loop_
_geom_bond_atom_site_label_1
_geom_bond_atom_site_label_2
_geom_bond_distance
_geom_bond_site_symmetry_2
Na0 O0 2.196611 1_555
Na0 O1 2.196611 1_555
Na0 O7 2.604232 1_555
Na0 O13 2.604232 1_555
Na0 O5 2.604232 1_555
Na0 O11 2.604232 1_555
Na0 O6 2.604232 1_555
Na0 O12 2.604232 1_555
Bi0 O1 2.224440 1_555
Bi0 O0 2.224440 1_545
Bi0 O13 2.436964 1_555
Bi0 O7 2.436964 1_545
Bi0 O3 2.499003 1_545
Bi0 O9 2.499003 1_555
Bi0 O2 2.499003 1_545
Bi0 O8 2.499003 1_555
Bi1 O1 2.224441 1_555
Bi1 O0 2.224441 1_455
Bi1 O12 2.436964 1_555
Bi1 O6 2.436964 1_455
Bi1 O2 2.499003 1_455
Bi1 O8 2.499003 1_555
Bi1 O4 2.499003 1_455
Bi1 O10 2.499003 1_555
Bi2 O1 2.224440 1_555
Bi2 O0 2.224440 1_554
Bi2 O11 2.436964 1_555
Bi2 O5 2.436964 1_554
Bi2 O3 2.499003 1_554
Bi2 O9 2.499003 1_555
Bi2 O4 2.499003 1_554
Bi2 O10 2.499003 1_555
Ir0 O4 1.991211 1_454
Ir0 O10 1.991211 1_545
Ir0 O2 1.991211 1_445
Ir0 O8 1.991211 1_554
Ir0 O3 1.991211 1_544
Ir0 O9 1.991211 1_455
Ir1 O10 1.984550 1_555
Ir1 O4 1.984550 1_454
Ir1 O12 1.991220 1_554
Ir1 O6 1.991220 1_455
Ir1 O11 1.991220 1_455
Ir1 O5 1.991220 1_554
Ir2 O9 1.984550 1_555
Ir2 O3 1.984550 1_544
Ir2 O5 1.991220 1_554
Ir2 O11 1.991220 1_545
Ir2 O7 1.991220 1_545
Ir2 O13 1.991220 1_554
Ir3 O8 1.984550 1_555
Ir3 O2 1.984550 1_445
Ir3 O6 1.991220 1_455
Ir3 O12 1.991220 1_545
Ir3 O7 1.991220 1_545
Ir3 O13 1.991220 1_455
