# generated using pymatgen
data_SrAl6Cu7
_symmetry_space_group_name_H-M   'P 1'
_cell_length_a   8.38222985
_cell_length_b   8.38222965
_cell_length_c   8.38222952
_cell_angle_alpha   121.78607027
_cell_angle_beta   118.75661647
_cell_angle_gamma   89.55084124
_symmetry_Int_Tables_number   1
_chemical_formula_structural   SrAl6Cu7
_chemical_formula_sum   'Sr2 Al12 Cu14'
_cell_volume   414.36303877
_cell_formula_units_Z   2
loop_
 _symmetry_equiv_pos_site_id
 _symmetry_equiv_pos_as_xyz
  1  'x, y, z'
loop_
 _atom_site_type_symbol
 _atom_site_label
 _atom_site_symmetry_multiplicity
 _atom_site_fract_x
 _atom_site_fract_y
 _atom_site_fract_z
 _atom_site_occupancy
  Sr  Sr0  1  0.25000000  0.75000000  0.50000000  1
  Sr  Sr1  1  0.75000000  0.25000000  0.50000000  1
  Al  Al0  1  0.55553105  0.54765193  0.35752394  1
  Al  Al1  1  0.44446895  0.45234807  0.64247606  1
  Al  Al2  1  0.19012799  0.19800711  0.64247606  1
  Al  Al3  1  0.30987201  0.95234807  0.00787812  1
  Al  Al4  1  0.80987201  0.80199289  0.35752394  1
  Al  Al5  1  0.69012799  0.04765193  0.99212188  1
  Al  Al6  1  0.94446895  0.30199289  0.99212188  1
  Al  Al7  1  0.05553105  0.69800711  0.00787812  1
  Al  Al8  1  0.05449152  0.30641561  0.36090713  1
  Al  Al9  1  0.94550848  0.69358439  0.63909287  1
  Al  Al10  1  0.55449152  0.19358439  0.74807491  1
  Al  Al11  1  0.44550848  0.80641561  0.25192509  1
  Cu  Cu0  1  0.28393098  0.29585064  0.22864350  1
  Cu  Cu1  1  0.71606902  0.70414936  0.77135650  1
  Cu  Cu2  1  0.06720714  0.05528748  0.77135650  1
  Cu  Cu3  1  0.43279286  0.20414936  0.98808034  1
  Cu  Cu4  1  0.93279286  0.94471252  0.22864350  1
  Cu  Cu5  1  0.56720714  0.79585064  0.01191966  1
  Cu  Cu6  1  0.21606902  0.44471252  0.01191966  1
  Cu  Cu7  1  0.78393098  0.55528748  0.98808034  1
  Cu  Cu8  1  0.00000000  0.00000000  0.00000000  1
  Cu  Cu9  1  0.50000000  0.50000000  0.00000000  1
  Cu  Cu10  1  0.28530012  0.06580901  0.35111013  1
  Cu  Cu11  1  0.71469988  0.93419099  0.64888987  1
  Cu  Cu12  1  0.78530012  0.43419099  0.21949111  1
  Cu  Cu13  1  0.21469988  0.56580901  0.78050889  1
loop_
_geom_bond_atom_site_label_1
_geom_bond_atom_site_label_2
_geom_bond_distance
_geom_bond_site_symmetry_2
Al0 Cu0 2.472181 1_555
Al0 Cu1 2.511362 1_555
Al0 Cu3 2.554647 1_554
Al0 Cu6 2.589812 1_555
Al0 Cu9 2.599414 1_555
Al0 Cu11 2.615120 1_555
Al0 Cu12 2.628448 1_555
Al0 Al9 2.711117 1_555
Al0 Al11 2.746719 1_555
Al0 Sr1 3.392728 1_555
Al0 Sr0 3.406286 1_555
Al1 Cu1 2.472181 1_555
Al1 Cu0 2.511362 1_555
Al1 Cu5 2.554647 1_556
Al1 Cu7 2.589812 1_555
Al1 Cu9 2.599414 1_556
Al1 Cu10 2.615120 1_555
Al1 Cu13 2.628448 1_555
Al1 Al8 2.711117 1_555
Al1 Al10 2.746719 1_555
Al1 Sr0 3.392728 1_555
Al1 Sr1 3.406286 1_555
Al2 Cu2 2.472181 1_555
Al2 Cu4 2.511362 1_445
Al2 Cu6 2.554647 1_556
Al2 Cu3 2.589812 1_555
Al2 Cu9 2.599415 1_556
Al2 Cu10 2.615113 1_555
Al2 Cu13 2.628448 1_555
Al2 Al8 2.711117 1_555
Al2 Sr1 3.392728 1_455
Al2 Sr0 3.406286 1_545
Al3 Cu3 2.472175 1_564
Al3 Cu5 2.511361 1_555
Al3 Cu0 2.554648 1_565
Al3 Cu2 2.589807 1_564
Al3 Cu8 2.599418 1_565
Al3 Cu13 2.615121 1_554
Al3 Cu10 2.628464 1_565
Al3 Al9 2.746722 1_454
Al3 Sr1 3.392730 1_565
Al3 Sr0 3.406278 1_554
Al4 Cu4 2.472181 1_555
Al4 Cu2 2.511362 1_665
Al4 Cu7 2.554647 1_554
Al4 Cu5 2.589812 1_555
Al4 Cu9 2.599415 1_555
Al4 Cu11 2.615113 1_555
Al4 Cu12 2.628448 1_555
Al4 Al9 2.711117 1_555
Al4 Sr0 3.392728 1_655
Al4 Sr1 3.406286 1_565
Al5 Cu5 2.472175 1_546
Al5 Cu3 2.511361 1_555
Al5 Cu1 2.554648 1_545
Al5 Cu4 2.589807 1_546
Al5 Cu8 2.599418 1_656
Al5 Cu12 2.615121 1_556
Al5 Cu11 2.628464 1_545
Al5 Al8 2.746722 1_656
Al5 Sr0 3.392730 1_545
Al5 Sr1 3.406278 1_556
Al6 Cu6 2.472186 1_656
Al6 Cu7 2.511364 1_555
Al6 Cu2 2.554651 1_655
Al6 Cu0 2.589810 1_656
Al6 Cu8 2.599411 1_656
Al6 Cu12 2.615114 1_556
Al6 Cu11 2.628450 1_545
Al6 Al8 2.746716 1_656
Al6 Sr1 3.392735 1_555
Al6 Sr0 3.406284 1_656
Al7 Cu7 2.472186 1_454
Al7 Cu6 2.511364 1_555
Al7 Cu4 2.554651 1_455
Al7 Cu1 2.589810 1_454
Al7 Cu8 2.599411 1_565
Al7 Cu13 2.615114 1_554
Al7 Cu10 2.628450 1_565
Al7 Al9 2.746716 1_454
Al7 Sr0 3.392735 1_555
Al7 Sr1 3.406284 1_454
Al8 Cu13 2.519174 1_555
Al8 Cu12 2.523841 1_455
Al8 Cu8 2.541754 1_555
Al8 Cu0 2.623202 1_555
Al8 Cu4 2.623202 1_445
Al8 Cu10 2.781105 1_555
Al8 Sr1 3.400041 1_455
Al8 Sr0 3.400042 1_555
Al9 Cu12 2.519174 1_555
Al9 Cu13 2.523841 1_655
Al9 Cu8 2.541754 1_666
Al9 Cu1 2.623202 1_555
Al9 Cu2 2.623202 1_665
Al9 Cu11 2.781105 1_555
Al9 Sr0 3.400041 1_655
Al9 Sr1 3.400042 1_555
Al10 Cu11 2.519174 1_545
Al10 Cu10 2.523829 1_555
Al10 Cu9 2.541757 1_556
Al10 Cu7 2.623200 1_555
Al10 Cu3 2.623209 1_555
Al10 Al6 2.711117 1_555
Al10 Al5 2.711130 1_555
Al10 Al2 2.746725 1_555
Al10 Cu12 2.781111 1_556
Al10 Sr1 3.400034 1_555
Al10 Sr0 3.400044 1_545
Al11 Cu10 2.519174 1_565
Al11 Cu11 2.523829 1_555
Al11 Cu9 2.541757 1_555
Al11 Cu6 2.623200 1_555
Al11 Cu5 2.623209 1_555
Al11 Al7 2.711117 1_555
Al11 Al3 2.711130 1_555
Al11 Al4 2.746725 1_555
Al11 Cu13 2.781111 1_554
Al11 Sr0 3.400034 1_555
Al11 Sr1 3.400044 1_565
Cu0 Cu8 2.486746 1_555
Cu0 Cu10 2.616443 1_555
Cu0 Sr0 3.351064 1_555
Cu0 Sr1 3.595983 1_555
Cu1 Cu8 2.486746 1_666
Cu1 Cu11 2.616443 1_555
Cu1 Sr1 3.351064 1_555
Cu1 Sr0 3.595983 1_555
Cu2 Cu8 2.486745 1_556
Cu2 Sr0 3.351063 1_545
Cu2 Sr1 3.595983 1_455
Cu3 Cu9 2.486745 1_556
Cu3 Sr0 3.351064 1_545
Cu3 Sr1 3.595983 1_556
Cu4 Cu8 2.486745 1_665
Cu4 Sr1 3.351063 1_565
Cu4 Sr0 3.595983 1_655
Cu5 Cu9 2.486745 1_555
Cu5 Sr1 3.351064 1_565
Cu5 Sr0 3.595983 1_554
Cu6 Cu9 2.486745 1_555
Cu6 Sr0 3.351063 1_555
Cu6 Sr1 3.595983 1_454
Cu7 Cu9 2.486745 1_556
Cu7 Sr1 3.351063 1_555
Cu7 Sr0 3.595983 1_656
Cu10 Cu8 2.494668 1_555
Cu10 Cu4 2.616434 1_445
Cu10 Sr0 3.535649 1_545
Cu10 Sr1 3.535660 1_555
Cu11 Cu8 2.494668 1_666
Cu11 Cu2 2.616434 1_665
Cu11 Sr1 3.535649 1_565
Cu11 Sr0 3.535660 1_555
Cu12 Cu9 2.494663 1_555
Cu12 Cu7 2.616437 1_554
Cu12 Cu3 2.616437 1_554
Cu12 Sr1 3.535656 1_555
Cu12 Sr0 3.535656 1_655
Cu13 Cu9 2.494663 1_556
Cu13 Cu6 2.616437 1_556
Cu13 Cu5 2.616437 1_556
Cu13 Sr0 3.535656 1_555
Cu13 Sr1 3.535656 1_455
