# generated using pymatgen
data_CsMg(ZnAs)3
_symmetry_space_group_name_H-M   'P 1'
_cell_length_a   4.20178884
_cell_length_b   4.28802015
_cell_length_c   10.70735104
_cell_angle_alpha   90.00000000
_cell_angle_beta   90.00000000
_cell_angle_gamma   90.00000000
_symmetry_Int_Tables_number   1
_chemical_formula_structural   CsMg(ZnAs)3
_chemical_formula_sum   'Cs1 Mg1 Zn3 As3'
_cell_volume   192.91814741
_cell_formula_units_Z   1
loop_
 _symmetry_equiv_pos_site_id
 _symmetry_equiv_pos_as_xyz
  1  'x, y, z'
loop_
 _atom_site_type_symbol
 _atom_site_label
 _atom_site_symmetry_multiplicity
 _atom_site_fract_x
 _atom_site_fract_y
 _atom_site_fract_z
 _atom_site_occupancy
  Cs  Cs0  1  0.00000000  0.00000000  0.49816930  1
  Mg  Mg0  1  0.50000000  0.00000000  0.84967910  1
  Zn  Zn0  1  0.00000000  0.50000000  0.84337882  1
  Zn  Zn1  1  0.50000000  0.00000000  0.15429682  1
  Zn  Zn2  1  0.00000000  0.50000000  0.15534914  1
  As  As0  1  0.50000000  0.50000000  0.71695521  1
  As  As1  1  0.50000000  0.50000000  0.27903616  1
  As  As2  1  0.00000000  0.00000000  0.00313544  1
loop_
_geom_bond_atom_site_label_1
_geom_bond_atom_site_label_2
_geom_bond_distance
_geom_bond_site_symmetry_2
Mg0 Zn0 3.002514 1_555
Mg0 Zn0 3.002514 1_545
Mg0 Zn0 3.002514 1_655
Mg0 Zn0 3.002514 1_645
As0 Zn0 2.499232 1_655
As0 Zn0 2.499232 1_555
As0 Mg0 2.572230 1_565
As0 Mg0 2.572230 1_555
As0 Cs0 3.807676 1_655
As0 Cs0 3.807676 1_665
As0 Cs0 3.807676 1_565
As0 Cs0 3.807676 1_555
As1 Zn2 2.483483 1_555
As1 Zn2 2.483483 1_655
As1 Zn1 2.526001 1_565
As1 Zn1 2.526001 1_555
As1 Cs0 3.809964 1_655
As1 Cs0 3.809964 1_665
As1 Cs0 3.809964 1_565
As1 Cs0 3.809964 1_555
As2 Zn1 2.652060 1_555
As2 Zn1 2.652060 1_455
As2 Mg0 2.667128 1_454
As2 Mg0 2.667128 1_554
As2 Zn2 2.693148 1_545
As2 Zn2 2.693148 1_555
As2 Zn0 2.742778 1_544
As2 Zn0 2.742778 1_554
