# generated using pymatgen
data_Er2Ni17
_symmetry_space_group_name_H-M   'P 1'
_cell_length_a   8.24818101
_cell_length_b   8.24818101
_cell_length_c   7.99383700
_cell_angle_alpha   90.00000000
_cell_angle_beta   90.00000000
_cell_angle_gamma   119.99999203
_symmetry_Int_Tables_number   1
_chemical_formula_structural   Er2Ni17
_chemical_formula_sum   'Er4 Ni34'
_cell_volume   470.97984343
_cell_formula_units_Z   2
loop_
 _symmetry_equiv_pos_site_id
 _symmetry_equiv_pos_as_xyz
  1  'x, y, z'
loop_
 _atom_site_type_symbol
 _atom_site_label
 _atom_site_symmetry_multiplicity
 _atom_site_fract_x
 _atom_site_fract_y
 _atom_site_fract_z
 _atom_site_occupancy
  Er  Er0  1  0.66666700  0.33333300  0.25000000  1
  Er  Er1  1  0.33333300  0.66666700  0.75000000  1
  Er  Er2  1  0.00000000  0.00000000  0.75000000  1
  Er  Er3  1  0.00000000  0.00000000  0.25000000  1
  Ni  Ni0  1  0.16539300  0.83460700  0.52147700  1
  Ni  Ni1  1  0.16539300  0.33078500  0.52147700  1
  Ni  Ni2  1  0.66921500  0.83460700  0.52147700  1
  Ni  Ni3  1  0.33078500  0.16539300  0.02147700  1
  Ni  Ni4  1  0.33333300  0.66666700  0.10137900  1
  Ni  Ni5  1  0.66666700  0.33333300  0.60137900  1
  Ni  Ni6  1  0.66666700  0.33333300  0.89862100  1
  Ni  Ni7  1  0.33333300  0.66666700  0.39862100  1
  Ni  Ni8  1  0.50000000  0.00000000  0.00000000  1
  Ni  Ni9  1  0.50000000  0.50000000  0.50000000  1
  Ni  Ni10  1  0.00000000  0.50000000  0.50000000  1
  Ni  Ni11  1  0.00000000  0.50000000  0.00000000  1
  Ni  Ni12  1  0.50000000  0.50000000  0.00000000  1
  Ni  Ni13  1  0.50000000  0.00000000  0.50000000  1
  Ni  Ni14  1  0.32760600  0.95779100  0.25000000  1
  Ni  Ni15  1  0.36981500  0.32760600  0.75000000  1
  Ni  Ni16  1  0.95779100  0.63018500  0.75000000  1
  Ni  Ni17  1  0.04220900  0.36981500  0.25000000  1
  Ni  Ni18  1  0.63018500  0.67239400  0.25000000  1
  Ni  Ni19  1  0.36981500  0.04220900  0.75000000  1
  Ni  Ni20  1  0.67239400  0.63018500  0.75000000  1
  Ni  Ni21  1  0.67239400  0.04220900  0.75000000  1
  Ni  Ni22  1  0.95779100  0.32760600  0.75000000  1
  Ni  Ni23  1  0.04220900  0.67239400  0.25000000  1
  Ni  Ni24  1  0.63018500  0.95779100  0.25000000  1
  Ni  Ni25  1  0.32760600  0.36981500  0.25000000  1
  Ni  Ni26  1  0.16539300  0.33078500  0.97852300  1
  Ni  Ni27  1  0.83460700  0.16539300  0.47852300  1
  Ni  Ni28  1  0.33078500  0.16539300  0.47852300  1
  Ni  Ni29  1  0.66921500  0.83460700  0.97852300  1
  Ni  Ni30  1  0.16539300  0.83460700  0.97852300  1
  Ni  Ni31  1  0.83460700  0.66921500  0.02147700  1
  Ni  Ni32  1  0.83460700  0.16539300  0.02147700  1
  Ni  Ni33  1  0.83460700  0.66921500  0.47852300  1
loop_
_geom_bond_atom_site_label_1
_geom_bond_atom_site_label_2
_geom_bond_distance
_geom_bond_site_symmetry_2
Er0 Ni5 2.808866 1_555
Er0 Ni6 2.808866 1_554
Er0 Ni17 2.958583 1_655
Er0 Ni24 2.958583 1_545
Er0 Ni23 2.958586 1_655
Er0 Ni14 2.958586 1_545
Er0 Ni25 2.958591 1_555
Er0 Ni18 2.958591 1_555
Er0 Ni27 3.015533 1_555
Er0 Ni32 3.015533 1_555
Er0 Ni31 3.015545 1_555
Er0 Ni33 3.015545 1_555
Er0 Ni3 3.015545 1_555
Er0 Ni28 3.015545 1_555
Er0 Ni8 3.108569 1_555
Er0 Ni11 3.108569 1_655
Er0 Ni10 3.108569 1_655
Er0 Ni13 3.108569 1_555
Er0 Ni12 3.108575 1_555
Er0 Ni9 3.108575 1_555
Er1 Ni7 2.808866 1_555
Er1 Ni4 2.808866 1_556
Er1 Ni19 2.958583 1_565
Er1 Ni16 2.958583 1_455
Er1 Ni21 2.958586 1_565
Er1 Ni22 2.958586 1_455
Er1 Ni15 2.958591 1_555
Er1 Ni20 2.958591 1_555
Er1 Ni0 3.015533 1_555
Er1 Ni30 3.015533 1_555
Er1 Ni29 3.015545 1_555
Er1 Ni1 3.015545 1_555
Er1 Ni26 3.015545 1_555
Er1 Ni2 3.015545 1_555
Er1 Ni10 3.108569 1_555
Er1 Ni11 3.108569 1_556
Er1 Ni13 3.108569 1_565
Er1 Ni8 3.108569 1_566
Er1 Ni12 3.108575 1_556
Er1 Ni9 3.108575 1_555
Er2 Ni21 2.891987 1_455
Er2 Ni22 2.891987 1_455
Er2 Ni19 2.891987 1_555
Er2 Ni16 2.891987 1_445
Er2 Ni20 2.891987 1_445
Er2 Ni15 2.891987 1_555
Er2 Ni1 2.986659 1_555
Er2 Ni2 2.986659 1_445
Er2 Ni26 2.986659 1_555
Er2 Ni29 2.986659 1_445
Er2 Ni0 2.986664 1_545
Er2 Ni30 2.986664 1_545
Er2 Ni3 3.208199 1_556
Er2 Ni31 3.208199 1_446
Er2 Ni28 3.208199 1_555
Er2 Ni33 3.208199 1_445
Er2 Ni32 3.208204 1_456
Er2 Ni27 3.208204 1_455
Er3 Ni23 2.891987 1_545
Er3 Ni14 2.891987 1_545
Er3 Ni17 2.891987 1_555
Er3 Ni24 2.891987 1_445
Er3 Ni18 2.891987 1_445
Er3 Ni25 2.891987 1_555
Er3 Ni3 2.986659 1_555
Er3 Ni28 2.986659 1_555
Er3 Ni33 2.986659 1_445
Er3 Ni31 2.986659 1_445
Er3 Ni32 2.986664 1_455
Er3 Ni27 2.986664 1_455
Er3 Ni1 3.208199 1_555
Er3 Ni2 3.208199 1_445
Er3 Ni26 3.208199 1_554
Er3 Ni29 3.208199 1_444
Er3 Ni0 3.208204 1_545
Er3 Ni30 3.208204 1_544
Ni0 Ni28 2.387668 1_565
Ni0 Ni33 2.387668 1_455
Ni0 Ni13 2.396353 1_565
Ni0 Ni10 2.396353 1_555
Ni0 Ni23 2.484468 1_555
Ni0 Ni14 2.484468 1_555
Ni0 Ni19 2.494993 1_565
Ni0 Ni16 2.494993 1_455
Ni0 Ni7 2.592457 1_555
Ni1 Ni28 2.387653 1_555
Ni1 Ni27 2.387668 1_455
Ni1 Ni9 2.396353 1_555
Ni1 Ni10 2.396360 1_555
Ni1 Ni25 2.484467 1_555
Ni1 Ni17 2.484470 1_555
Ni1 Ni15 2.494990 1_555
Ni1 Ni22 2.494995 1_455
Ni1 Ni7 2.592471 1_555
Ni2 Ni33 2.387653 1_555
Ni2 Ni27 2.387668 1_565
Ni2 Ni9 2.396353 1_555
Ni2 Ni24 2.484470 1_555
Ni2 Ni20 2.494990 1_555
Ni2 Ni21 2.494995 1_565
Ni2 Ni7 2.592471 1_555
Ni3 Ni30 2.387668 1_544
Ni3 Ni8 2.396360 1_555
Ni3 Ni6 2.592471 1_554
Ni4 Ni7 2.376104 1_555
Ni4 Ni8 2.515179 1_565
Ni5 Ni6 2.376104 1_555
Ni5 Ni9 2.515185 1_555
Ni6 Ni8 2.515179 1_556
Ni7 Ni9 2.515185 1_555
Ni10 Ni17 2.375270 1_555
Ni10 Ni16 2.375270 1_455
Ni10 Ni22 2.375270 1_455
Ni10 Ni23 2.375270 1_555
Ni10 Ni27 2.396353 1_455
Ni10 Ni33 2.396360 1_455
Ni10 Ni7 2.515179 1_555
Ni10 Ni5 2.515179 1_455
Ni11 Ni17 2.375270 1_555
Ni11 Ni16 2.375270 1_454
Ni11 Ni22 2.375270 1_454
Ni11 Ni23 2.375270 1_555
Ni11 Ni30 2.396353 1_554
Ni11 Ni32 2.396353 1_455
Ni11 Ni26 2.396360 1_554
Ni11 Ni31 2.396360 1_455
Ni11 Ni4 2.515179 1_555
Ni11 Ni6 2.515179 1_454
Ni12 Ni25 2.375270 1_555
Ni12 Ni15 2.375270 1_554
Ni12 Ni18 2.375270 1_555
Ni12 Ni20 2.375270 1_554
Ni12 Ni29 2.396353 1_554
Ni12 Ni26 2.396353 1_554
Ni12 Ni31 2.396353 1_555
Ni12 Ni3 2.396353 1_555
Ni12 Ni6 2.515185 1_554
Ni12 Ni4 2.515185 1_555
Ni13 Ni19 2.375270 1_555
Ni13 Ni24 2.375270 1_545
Ni13 Ni14 2.375270 1_545
Ni13 Ni21 2.375270 1_555
Ni13 Ni27 2.396353 1_555
Ni13 Ni2 2.396360 1_545
Ni13 Ni28 2.396360 1_555
Ni13 Ni5 2.515179 1_555
Ni13 Ni7 2.515179 1_545
Ni14 Ni23 2.354006 1_555
Ni14 Ni8 2.375270 1_565
Ni14 Ni30 2.484468 1_554
Ni14 Ni28 2.494995 1_565
Ni14 Ni3 2.494995 1_565
Ni14 Ni24 2.495726 1_555
Ni14 Ni4 2.700574 1_555
Ni14 Ni7 2.700574 1_555
Ni15 Ni19 2.354006 1_555
Ni15 Ni9 2.375270 1_555
Ni15 Ni3 2.484467 1_556
Ni15 Ni28 2.484467 1_555
Ni15 Ni26 2.494990 1_555
Ni15 Ni20 2.495727 1_555
Ni15 Ni6 2.700581 1_555
Ni15 Ni5 2.700581 1_555
Ni16 Ni20 2.354006 1_555
Ni16 Ni31 2.484470 1_556
Ni16 Ni33 2.484470 1_555
Ni16 Ni30 2.494993 1_655
Ni16 Ni22 2.495726 1_555
Ni16 Ni6 2.700578 1_555
Ni16 Ni5 2.700578 1_555
Ni17 Ni25 2.354006 1_555
Ni17 Ni26 2.484470 1_554
Ni17 Ni32 2.494993 1_455
Ni17 Ni27 2.494993 1_455
Ni17 Ni23 2.495726 1_555
Ni17 Ni7 2.700578 1_555
Ni17 Ni4 2.700578 1_555
Ni18 Ni24 2.354006 1_555
Ni18 Ni9 2.375270 1_555
Ni18 Ni29 2.484467 1_554
Ni18 Ni2 2.484467 1_555
Ni18 Ni33 2.494990 1_555
Ni18 Ni31 2.494990 1_555
Ni18 Ni25 2.495727 1_555
Ni18 Ni4 2.700581 1_555
Ni18 Ni7 2.700581 1_555
Ni19 Ni8 2.375270 1_556
Ni19 Ni3 2.484470 1_556
Ni19 Ni28 2.484470 1_555
Ni19 Ni30 2.494993 1_545
Ni19 Ni21 2.495726 1_555
Ni19 Ni6 2.700578 1_555
Ni19 Ni5 2.700578 1_555
Ni20 Ni9 2.375270 1_555
Ni20 Ni31 2.484467 1_556
Ni20 Ni33 2.484467 1_555
Ni20 Ni29 2.494990 1_555
Ni20 Ni5 2.700581 1_555
Ni20 Ni6 2.700581 1_555
Ni21 Ni22 2.354006 1_555
Ni21 Ni8 2.375270 1_556
Ni21 Ni32 2.484468 1_556
Ni21 Ni27 2.484468 1_555
Ni21 Ni29 2.494995 1_545
Ni21 Ni5 2.700574 1_555
Ni21 Ni6 2.700574 1_555
Ni22 Ni32 2.484468 1_556
Ni22 Ni27 2.484468 1_555
Ni22 Ni26 2.494995 1_655
Ni22 Ni6 2.700574 1_555
Ni22 Ni5 2.700574 1_555
Ni23 Ni30 2.484468 1_554
Ni23 Ni31 2.494995 1_455
Ni23 Ni33 2.494995 1_455
Ni23 Ni4 2.700574 1_555
Ni23 Ni7 2.700574 1_555
Ni24 Ni8 2.375270 1_565
Ni24 Ni29 2.484470 1_554
Ni24 Ni27 2.494993 1_565
Ni24 Ni32 2.494993 1_565
Ni24 Ni7 2.700578 1_555
Ni24 Ni4 2.700578 1_555
Ni25 Ni9 2.375270 1_555
Ni25 Ni26 2.484467 1_554
Ni25 Ni3 2.494990 1_555
Ni25 Ni28 2.494990 1_555
Ni25 Ni4 2.700581 1_555
Ni25 Ni7 2.700581 1_555
Ni26 Ni3 2.387653 1_556
Ni26 Ni32 2.387668 1_456
Ni26 Ni4 2.592471 1_556
Ni27 Ni5 2.592457 1_555
Ni28 Ni9 2.396353 1_555
Ni28 Ni5 2.592471 1_555
Ni29 Ni31 2.387653 1_556
Ni29 Ni32 2.387668 1_566
Ni29 Ni8 2.396360 1_566
Ni29 Ni4 2.592471 1_556
Ni30 Ni31 2.387668 1_456
Ni30 Ni8 2.396353 1_566
Ni30 Ni4 2.592457 1_556
Ni31 Ni6 2.592471 1_554
Ni32 Ni8 2.396353 1_555
Ni32 Ni6 2.592457 1_554
Ni33 Ni9 2.396353 1_555
Ni33 Ni5 2.592471 1_555
