# generated using pymatgen
data_V2SiB2Mo3
_symmetry_space_group_name_H-M   'P 1'
_cell_length_a   6.87377288
_cell_length_b   6.89634056
_cell_length_c   6.89634009
_cell_angle_alpha   129.28121564
_cell_angle_beta   129.18954182
_cell_angle_gamma   74.70372164
_symmetry_Int_Tables_number   1
_chemical_formula_structural   V2SiB2Mo3
_chemical_formula_sum   'V4 Si2 B4 Mo6'
_cell_volume   191.00092090
_cell_formula_units_Z   2
loop_
 _symmetry_equiv_pos_site_id
 _symmetry_equiv_pos_as_xyz
  1  'x, y, z'
loop_
 _atom_site_type_symbol
 _atom_site_label
 _atom_site_symmetry_multiplicity
 _atom_site_fract_x
 _atom_site_fract_y
 _atom_site_fract_z
 _atom_site_occupancy
  V  V0  1  0.00165144  0.99911234  0.99762141  1
  V  V1  1  0.80356115  0.96863912  0.49979588  1
  V  V2  1  0.30356115  0.80376528  0.83492204  1
  V  V3  1  0.50165144  0.50403002  0.00253910  1
  Si  Si0  1  0.74414166  0.75283183  0.00362379  1
  Si  Si1  1  0.24414166  0.24051787  0.99130983  1
  B  B0  1  0.38360680  0.87966191  0.25896999  1
  B  B1  1  0.88360680  0.62463781  0.50394489  1
  B  B2  1  0.62212679  0.11836628  0.73831738  1
  B  B3  1  0.12212679  0.38380841  0.50376051  1
  Mo  Mo0  1  0.19247269  0.03006713  0.49873154  1
  Mo  Mo1  1  0.53056741  0.69308028  0.49881267  1
  Mo  Mo2  1  0.03056741  0.53175573  0.83748713  1
  Mo  Mo3  1  0.69247269  0.19374116  0.16240456  1
  Mo  Mo4  1  0.97187205  0.47206680  0.16795501  1
  Mo  Mo5  1  0.47187205  0.30391804  0.49980525  1
loop_
_geom_bond_atom_site_label_1
_geom_bond_atom_site_label_2
_geom_bond_distance
_geom_bond_site_symmetry_2
Si0 V2 2.480302 1_554
Si0 V1 2.489247 1_555
Si0 V3 2.683164 1_555
Si0 V0 2.790582 1_654
Si1 V1 2.480302 1_445
Si1 V2 2.489247 1_545
Si1 V0 2.683164 1_545
Si1 V3 2.790582 1_556
B0 B2 2.002417 1_565
B0 V1 2.247889 1_555
B0 Mo5 2.279662 1_565
B0 V2 2.304123 1_554
B0 Mo1 2.304240 1_555
B0 Mo0 2.321772 1_565
B0 V3 2.323772 1_555
B0 Mo2 2.328351 1_554
B0 V0 2.361962 1_554
B1 B3 2.002426 1_655
B1 V2 2.247888 1_655
B1 Mo4 2.279655 1_555
B1 V1 2.304117 1_555
B1 Mo2 2.304240 1_655
B1 Mo3 2.321776 1_555
B1 V0 2.323770 1_655
B1 Mo1 2.328355 1_555
B1 V3 2.361960 1_555
B2 V1 2.256042 1_545
B2 Mo5 2.287069 1_555
B2 Mo1 2.291787 1_545
B2 Mo0 2.308904 1_555
B2 Mo4 2.334274 1_556
B2 Mo3 2.340502 1_556
B2 V0 2.348286 1_645
B2 V3 2.384971 1_556
B3 V2 2.256048 1_555
B3 Mo4 2.287068 1_455
B3 Mo2 2.291784 1_555
B3 Mo3 2.308901 1_455
B3 Mo5 2.334275 1_555
B3 Mo0 2.340502 1_555
B3 V3 2.348284 1_556
B3 V0 2.384969 1_544
Mo0 Si1 2.505282 1_555
Mo0 Si0 2.520994 1_445
Mo0 V0 2.682127 1_544
Mo0 V3 2.687982 1_556
Mo0 V1 2.819973 1_445
Mo1 Si0 2.547258 1_556
Mo1 Si1 2.562917 1_554
Mo1 V3 2.660737 1_555
Mo1 V0 2.666179 1_655
Mo2 Si1 2.547264 1_555
Mo2 Si0 2.562916 1_456
Mo2 V0 2.660731 1_555
Mo2 V3 2.666179 1_556
Mo3 Si0 2.505283 1_545
Mo3 Si1 2.520996 1_554
Mo3 V3 2.682123 1_555
Mo3 V0 2.687978 1_644
Mo3 V2 2.819976 1_544
Mo4 Si1 2.525423 1_654
Mo4 Si0 2.534011 1_555
Mo4 V3 2.660776 1_555
Mo4 V0 2.675865 1_644
Mo4 V2 2.786209 1_655
Mo5 Si0 2.525419 1_556
Mo5 Si1 2.534007 1_554
Mo5 V0 2.660777 1_544
Mo5 V3 2.675867 1_556
Mo5 V1 2.786214 1_545
