# generated using pymatgen
data_Ba2Sr(BO2)6
_symmetry_space_group_name_H-M   'P 1'
_cell_length_a   7.45582754
_cell_length_b   7.45582709
_cell_length_c   7.45582729
_cell_angle_alpha   58.03738536
_cell_angle_beta   58.03737967
_cell_angle_gamma   58.03739050
_symmetry_Int_Tables_number   1
_chemical_formula_structural   Ba2Sr(BO2)6
_chemical_formula_sum   'Ba2 Sr1 B6 O12'
_cell_volume   279.87935607
_cell_formula_units_Z   1
loop_
 _symmetry_equiv_pos_site_id
 _symmetry_equiv_pos_as_xyz
  1  'x, y, z'
loop_
 _atom_site_type_symbol
 _atom_site_label
 _atom_site_symmetry_multiplicity
 _atom_site_fract_x
 _atom_site_fract_y
 _atom_site_fract_z
 _atom_site_occupancy
  Ba  Ba0  1  0.79532108  0.79532108  0.79532108  1
  Ba  Ba1  1  0.20467892  0.20467892  0.20467892  1
  Sr  Sr0  1  0.00000000  0.00000000  0.00000000  1
  B  B0  1  0.62039916  0.36555405  0.75456557  1
  B  B1  1  0.63444595  0.24543443  0.37960084  1
  B  B2  1  0.37960084  0.63444595  0.24543443  1
  B  B3  1  0.24543443  0.37960084  0.63444595  1
  B  B4  1  0.36555405  0.75456557  0.62039916  1
  B  B5  1  0.75456557  0.62039916  0.36555405  1
  O  O0  1  0.45639283  0.21068586  0.58673243  1
  O  O1  1  0.21068586  0.58673243  0.45639283  1
  O  O2  1  0.58673243  0.45639283  0.21068586  1
  O  O3  1  0.41326757  0.54360717  0.78931414  1
  O  O4  1  0.83494887  0.08531203  0.35114032  1
  O  O5  1  0.78931414  0.41326757  0.54360717  1
  O  O6  1  0.54360717  0.78931414  0.41326757  1
  O  O7  1  0.08531203  0.35114032  0.83494887  1
  O  O8  1  0.35114032  0.83494887  0.08531203  1
  O  O9  1  0.91468797  0.64885968  0.16505113  1
  O  O10  1  0.64885968  0.16505113  0.91468797  1
  O  O11  1  0.16505113  0.91468797  0.64885968  1
loop_
_geom_bond_atom_site_label_1
_geom_bond_atom_site_label_2
_geom_bond_distance
_geom_bond_site_symmetry_2
Ba0 O8 2.790901 1_556
Ba0 O4 2.790901 1_565
Ba0 O7 2.790901 1_655
Ba0 O11 2.822248 1_655
Ba0 O10 2.822248 1_565
Ba0 O9 2.822248 1_556
Ba0 O2 3.028408 1_556
Ba0 O1 3.028408 1_655
Ba0 O0 3.028409 1_565
Ba1 O10 2.790901 1_554
Ba1 O11 2.790901 1_545
Ba1 O9 2.790901 1_455
Ba1 O4 2.822248 1_455
Ba1 O8 2.822248 1_545
Ba1 O7 2.822248 1_554
Ba1 O3 3.028408 1_554
Ba1 O5 3.028408 1_455
Ba1 O6 3.028409 1_545
B0 O10 1.322086 1_555
B0 O5 1.404025 1_555
B0 O3 1.408690 1_555
B1 O4 1.322086 1_555
B1 O2 1.404025 1_555
B1 O0 1.408690 1_555
B2 O8 1.322086 1_555
B2 O1 1.404025 1_555
B2 O2 1.408690 1_555
B3 O7 1.322086 1_555
B3 O0 1.404025 1_555
B3 O1 1.408690 1_555
B4 O11 1.322086 1_555
B4 O3 1.404025 1_555
B4 O6 1.408690 1_555
B5 O9 1.322086 1_555
B5 O6 1.404025 1_555
B5 O5 1.408690 1_555
O4 Sr0 2.509278 1_655
O7 Sr0 2.509278 1_556
O8 Sr0 2.509278 1_565
O9 Sr0 2.509278 1_665
O10 Sr0 2.509278 1_656
O11 Sr0 2.509278 1_566
