# generated using pymatgen
data_Ti20Ga5As3P4
_symmetry_space_group_name_H-M   'P 1'
_cell_length_a   6.63220261
_cell_length_b   7.73050265
_cell_length_c   9.78136845
_cell_angle_alpha   90.04345795
_cell_angle_beta   89.93050455
_cell_angle_gamma   90.04528076
_symmetry_Int_Tables_number   1
_chemical_formula_structural   Ti20Ga5As3P4
_chemical_formula_sum   'Ti20 Ga5 As3 P4'
_cell_volume   501.49263279
_cell_formula_units_Z   1
loop_
 _symmetry_equiv_pos_site_id
 _symmetry_equiv_pos_as_xyz
  1  'x, y, z'
loop_
 _atom_site_type_symbol
 _atom_site_label
 _atom_site_symmetry_multiplicity
 _atom_site_fract_x
 _atom_site_fract_y
 _atom_site_fract_z
 _atom_site_occupancy
  Ti  Ti0  1  0.81706869  0.55550085  0.05885718  1
  Ti  Ti1  1  0.68224285  0.94405743  0.55781678  1
  Ti  Ti2  1  0.18410135  0.05483696  0.94262153  1
  Ti  Ti3  1  0.31764643  0.44285854  0.43898655  1
  Ti  Ti4  1  0.18268835  0.44611924  0.93935822  1
  Ti  Ti5  1  0.32063595  0.05303235  0.43676322  1
  Ti  Ti6  1  0.82027315  0.94672903  0.06315815  1
  Ti  Ti7  1  0.67982235  0.55390906  0.56222235  1
  Ti  Ti8  1  0.17013559  0.75609207  0.22047320  1
  Ti  Ti9  1  0.32947215  0.74631728  0.72291588  1
  Ti  Ti10  1  0.82725918  0.25396676  0.77805273  1
  Ti  Ti11  1  0.67070247  0.24418145  0.27860997  1
  Ti  Ti12  1  0.47631573  0.75026189  0.00232051  1
  Ti  Ti13  1  0.02283595  0.75072811  0.50298835  1
  Ti  Ti14  1  0.52593145  0.25126580  0.99754024  1
  Ti  Ti15  1  0.97727177  0.24791861  0.49851122  1
  Ti  Ti16  1  0.65486521  0.75040621  0.29208123  1
  Ti  Ti17  1  0.84486196  0.75019672  0.79097223  1
  Ti  Ti18  1  0.34203888  0.25246497  0.70823601  1
  Ti  Ti19  1  0.15482691  0.24840440  0.20777981  1
  Ga  Ga0  1  0.93683605  0.50627898  0.32442484  1
  Ga  Ga1  1  0.56325899  0.99409258  0.82204239  1
  Ga  Ga2  1  0.06463291  0.00694473  0.67848209  1
  Ga  Ga3  1  0.43618029  0.49303752  0.17707804  1
  Ga  Ga4  1  0.06299428  0.49345912  0.67357257  1
  As  As0  1  0.43570854  0.00931125  0.17241297  1
  As  As1  1  0.93542402  0.99049016  0.32701311  1
  As  As2  1  0.56325796  0.50940204  0.82569912  1
  P  P0  1  0.39979219  0.74756359  0.47415996  1
  P  P1  1  0.09844944  0.75017163  0.97179474  1
  P  P2  1  0.59933595  0.24869916  0.52754309  1
  P  P3  1  0.90313500  0.25129851  0.02551371  1
loop_
_geom_bond_atom_site_label_1
_geom_bond_atom_site_label_2
_geom_bond_distance
_geom_bond_site_symmetry_2
Ga0 Ti13 2.634890 1_655
Ga0 Ti15 2.639621 1_555
Ga0 Ti8 2.674297 1_655
Ga0 Ti16 2.677099 1_555
Ga0 Ti19 2.713509 1_655
Ga0 Ti11 2.723304 1_555
Ga0 Ti0 2.744143 1_555
Ga0 Ti3 2.807920 1_655
Ga0 Ti7 2.905409 1_555
Ga1 Ti14 2.637245 1_565
Ga1 Ti12 2.644956 1_556
Ga1 Ti9 2.647494 1_555
Ga1 Ti17 2.671828 1_555
Ga1 Ti10 2.698266 1_565
Ga1 Ti18 2.719035 1_565
Ga1 Ti1 2.728723 1_555
Ga1 Ti2 2.815823 1_565
Ga1 Ti6 2.934948 1_556
Ga2 Ti15 2.629436 1_455
Ga2 Ti13 2.634708 1_545
Ga2 Ti18 2.658371 1_555
Ga2 Ti10 2.659287 1_455
Ga2 Ti17 2.696186 1_445
Ga2 Ti9 2.709648 1_545
Ga2 Ti2 2.728213 1_555
Ga2 Ti1 2.839995 1_445
Ga2 Ti5 2.930933 1_555
Ga3 Ti14 2.631685 1_554
Ga3 Ti12 2.636292 1_555
Ga3 Ti11 2.667933 1_555
Ga3 Ti19 2.672533 1_555
Ga3 Ti16 2.706177 1_555
Ga3 Ti3 2.706948 1_555
Ga3 Ti8 2.726049 1_555
Ga3 Ti0 2.818422 1_555
Ga3 Ti4 2.893429 1_554
Ga4 Ti13 2.611002 1_555
Ga4 Ti15 2.618021 1_455
Ga4 Ti10 2.628848 1_455
Ga4 Ti18 2.649283 1_555
Ga4 Ti9 2.678158 1_555
Ga4 Ti17 2.710668 1_455
Ga4 Ti4 2.744029 1_555
Ga4 Ti7 2.805722 1_455
Ga4 Ti3 2.874153 1_555
As0 Ti14 2.604411 1_554
As0 Ti11 2.607920 1_555
As0 Ti12 2.616409 1_545
As0 Ti19 2.647469 1_555
As0 Ti8 2.673775 1_545
As0 Ti5 2.716038 1_555
As0 Ti16 2.738777 1_545
As0 Ti6 2.806377 1_545
As0 Ti2 2.823424 1_554
As1 Ti13 2.596775 1_655
As1 Ti8 2.605804 1_655
As1 Ti15 2.616579 1_565
As1 Ti16 2.649298 1_555
As1 Ti11 2.676119 1_565
As1 Ti6 2.713225 1_555
As1 Ti19 2.729038 1_665
As1 Ti5 2.813735 1_665
As1 Ti1 2.834804 1_555
As2 Ti12 2.603538 1_556
As2 Ti9 2.603883 1_555
As2 Ti14 2.621435 1_555
As2 Ti17 2.657534 1_555
As2 Ti10 2.680334 1_555
As2 Ti7 2.711806 1_555
As2 Ti18 2.722847 1_555
As2 Ti4 2.799645 1_555
As2 Ti0 2.858123 1_556
P0 Ti3 2.441489 1_555
P0 Ti5 2.447342 1_565
P0 Ti16 2.454974 1_555
P0 Ti9 2.476935 1_555
P0 Ti13 2.515698 1_555
P0 Ti7 2.538227 1_555
P0 Ti1 2.546253 1_555
P0 Ti8 2.913968 1_555
P1 Ti4 2.436813 1_555
P1 Ti2 2.439195 1_565
P1 Ti17 2.442148 1_455
P1 Ti8 2.479392 1_556
P1 Ti12 2.524169 1_556
P1 Ti0 2.542871 1_456
P1 Ti6 2.551387 1_456
P1 Ti9 2.874994 1_555
P2 Ti1 2.437152 1_545
P2 Ti7 2.442158 1_555
P2 Ti18 2.455459 1_555
P2 Ti11 2.480145 1_555
P2 Ti15 2.522251 1_555
P2 Ti5 2.547649 1_555
P2 Ti3 2.550244 1_555
P2 Ti10 2.880891 1_555
P3 Ti0 2.441904 1_555
P3 Ti19 2.443916 1_655
P3 Ti6 2.445389 1_545
P3 Ti10 2.472966 1_554
P3 Ti14 2.516939 1_554
P3 Ti4 2.531726 1_654
P3 Ti2 2.536786 1_654
P3 Ti11 2.915291 1_555
