# generated using pymatgen
data_Rb4Si8W2O23
_symmetry_space_group_name_H-M   'P 1'
_cell_length_a   6.91197958
_cell_length_b   7.65992527
_cell_length_c   10.97361896
_cell_angle_alpha   103.49769091
_cell_angle_beta   89.15515052
_cell_angle_gamma   107.61072739
_symmetry_Int_Tables_number   1
_chemical_formula_structural   Rb4Si8W2O23
_chemical_formula_sum   'Rb4 Si8 W2 O23'
_cell_volume   537.49690017
_cell_formula_units_Z   1
loop_
 _symmetry_equiv_pos_site_id
 _symmetry_equiv_pos_as_xyz
  1  'x, y, z'
loop_
 _atom_site_type_symbol
 _atom_site_label
 _atom_site_symmetry_multiplicity
 _atom_site_fract_x
 _atom_site_fract_y
 _atom_site_fract_z
 _atom_site_occupancy
  Rb  Rb0  1  0.31353036  0.27061591  0.64601281  1
  Rb  Rb1  1  0.68646964  0.72938409  0.35398719  1
  Rb  Rb2  1  0.29824892  0.20865580  0.99142206  1
  Rb  Rb3  1  0.70175108  0.79134420  0.00857794  1
  Si  Si0  1  0.50563361  0.20075036  0.30819515  1
  Si  Si1  1  0.49436639  0.79924964  0.69180485  1
  Si  Si2  1  0.93619737  0.85495333  0.71593470  1
  Si  Si3  1  0.06380263  0.14504667  0.28406530  1
  Si  Si4  1  0.84830228  0.29450032  0.50460686  1
  Si  Si5  1  0.15169772  0.70549968  0.49539314  1
  Si  Si6  1  0.16469057  0.65897301  0.86769199  1
  Si  Si7  1  0.83530943  0.34102699  0.13230801  1
  W  W0  1  0.78640164  0.25262542  0.82007223  1
  W  W1  1  0.21359836  0.74737458  0.17992777  1
  O  O0  1  0.46178601  0.98193491  0.24511918  1
  O  O1  1  0.53821399  0.01806509  0.75488082  1
  O  O2  1  0.63871285  0.33120529  0.21985688  1
  O  O3  1  0.36128715  0.66879471  0.78014312  1
  O  O4  1  0.62256678  0.27073605  0.44772041  1
  O  O5  1  0.37743322  0.72926395  0.55227959  1
  O  O6  1  0.29942950  0.26153775  0.33297826  1
  O  O7  1  0.70057050  0.73846225  0.66702174  1
  O  O8  1  0.95706501  0.06294811  0.79434921  1
  O  O9  1  0.04293499  0.93705189  0.20565079  1
  O  O10  1  0.01119517  0.73984951  0.80175399  1
  O  O11  1  0.98880483  0.26015049  0.19824601  1
  O  O12  1  0.06788274  0.86135781  0.59130617  1
  O  O13  1  0.93211726  0.13864219  0.40869383  1
  O  O14  1  0.00000000  0.50000000  0.50000000  1
  O  O15  1  0.84046030  0.25829899  0.64028703  1
  O  O16  1  0.15953970  0.74170101  0.35971297  1
  O  O17  1  0.06171543  0.44140442  0.86825984  1
  O  O18  1  0.93828457  0.55859558  0.13174016  1
  O  O19  1  0.24036237  0.79503492  0.00480536  1
  O  O20  1  0.75963763  0.20496508  0.99519464  1
  O  O21  1  0.63148234  0.39931423  0.84771067  1
  O  O22  1  0.36851766  0.60068577  0.15228933  1
loop_
_geom_bond_atom_site_label_1
_geom_bond_atom_site_label_2
_geom_bond_distance
_geom_bond_site_symmetry_2
O0 Si0 1.592963 1_565
O0 W1 2.062507 1_555
O0 Rb1 3.245449 1_555
O0 Rb3 3.345055 1_555
O1 Si1 1.592963 1_545
O1 W0 2.062507 1_555
O1 Rb0 3.245449 1_555
O1 Rb2 3.345055 1_555
O2 Si0 1.629137 1_555
O2 Si7 1.645774 1_555
O2 Rb1 2.981193 1_555
O2 Rb2 3.231367 1_554
O3 Si1 1.629137 1_555
O3 Si6 1.645774 1_555
O3 Rb0 2.981193 1_555
O3 Rb3 3.231367 1_556
O4 Si4 1.631292 1_555
O4 Si0 1.635864 1_555
O4 Rb0 3.026601 1_555
O5 Si5 1.631292 1_555
O5 Si1 1.635864 1_555
O5 Rb1 3.026601 1_555
O6 Si0 1.628870 1_555
O6 Si3 1.630845 1_555
O6 Rb0 3.421792 1_555
O7 Si1 1.628870 1_555
O7 Si2 1.630845 1_555
O7 Rb1 3.421792 1_555
O8 Si2 1.588786 1_545
O8 W0 2.101891 1_555
O8 Rb2 2.985785 1_655
O8 Rb0 3.157480 1_655
O9 Si3 1.588786 1_565
O9 W1 2.101891 1_555
O9 Rb3 2.985785 1_455
O9 Rb1 3.157480 1_455
O10 Si2 1.616028 1_455
O10 Si6 1.631745 1_555
O10 Rb3 3.135429 1_456
O11 Si3 1.616028 1_655
O11 Si7 1.631745 1_555
O11 Rb2 3.135429 1_654
O12 Si2 1.633669 1_455
O12 Si5 1.637883 1_555
O12 Rb0 3.000260 1_565
O12 Rb1 3.480676 1_455
O13 Si3 1.633669 1_655
O13 Si4 1.637883 1_555
O13 Rb1 3.000260 1_545
O13 Rb0 3.480676 1_655
O14 Si5 1.617613 1_555
O14 Si4 1.617613 1_455
O15 Si4 1.574142 1_555
O15 W0 2.010541 1_555
O15 Rb0 3.243669 1_655
O16 Si5 1.574142 1_555
O16 W1 2.010541 1_555
O16 Rb1 3.243669 1_455
O17 Si6 1.603440 1_555
O17 W0 1.999889 1_455
O17 Rb0 3.232984 1_555
O17 Rb2 3.260645 1_555
O18 Si7 1.603440 1_555
O18 W1 1.999889 1_655
O18 Rb1 3.232984 1_555
O18 Rb3 3.260645 1_555
O19 Si6 1.607803 1_554
O19 W1 2.033885 1_555
O19 Rb2 3.109377 1_564
O19 Rb3 3.198738 1_555
O20 Si7 1.607803 1_556
O20 W0 2.033885 1_555
O20 Rb3 3.109377 1_546
O20 Rb2 3.198738 1_555
O21 W0 1.749431 1_555
O21 Rb0 2.917961 1_555
O21 Rb2 2.976186 1_555
O21 Rb3 3.006303 1_556
O22 W1 1.749431 1_555
O22 Rb1 2.917961 1_555
O22 Rb3 2.976186 1_555
O22 Rb2 3.006303 1_554
