# generated using pymatgen
data_RbSr2IO6
_symmetry_space_group_name_H-M   'P 1'
_cell_length_a   5.90644558
_cell_length_b   6.39717413
_cell_length_c   8.58368596
_cell_angle_alpha   90.00000000
_cell_angle_beta   91.44948431
_cell_angle_gamma   90.00000000
_symmetry_Int_Tables_number   1
_chemical_formula_structural   RbSr2IO6
_chemical_formula_sum   'Rb2 Sr4 I2 O12'
_cell_volume   324.22702425
_cell_formula_units_Z   2
loop_
 _symmetry_equiv_pos_site_id
 _symmetry_equiv_pos_as_xyz
  1  'x, y, z'
loop_
 _atom_site_type_symbol
 _atom_site_label
 _atom_site_symmetry_multiplicity
 _atom_site_fract_x
 _atom_site_fract_y
 _atom_site_fract_z
 _atom_site_occupancy
  Rb  Rb0  1  0.50000000  0.50000000  0.00000000  1
  Rb  Rb1  1  0.00000000  0.00000000  0.50000000  1
  Sr  Sr0  1  0.48831327  0.96862383  0.76996438  1
  Sr  Sr1  1  0.01168673  0.46862383  0.73003562  1
  Sr  Sr2  1  0.51168673  0.03137617  0.23003562  1
  Sr  Sr3  1  0.98831327  0.53137617  0.26996438  1
  I  I0  1  0.50000000  0.50000000  0.50000000  1
  I  I1  1  0.00000000  0.00000000  0.00000000  1
  O  O0  1  0.36686740  0.28364223  0.61804228  1
  O  O1  1  0.13313260  0.78364223  0.88195772  1
  O  O2  1  0.63313260  0.71635777  0.38195772  1
  O  O3  1  0.86686740  0.21635777  0.11804228  1
  O  O4  1  0.62292092  0.62038070  0.68406935  1
  O  O5  1  0.87707908  0.12038070  0.81593065  1
  O  O6  1  0.37707908  0.37961930  0.31593065  1
  O  O7  1  0.12292092  0.87961930  0.18406935  1
  O  O8  1  0.23279980  0.65437142  0.52039502  1
  O  O9  1  0.26720020  0.15437142  0.97960498  1
  O  O10  1  0.76720020  0.34562858  0.47960498  1
  O  O11  1  0.73279980  0.84562858  0.02039502  1
loop_
_geom_bond_atom_site_label_1
_geom_bond_atom_site_label_2
_geom_bond_distance
_geom_bond_site_symmetry_2
I0 O10 1.873656 1_555
I0 O8 1.873656 1_555
I0 O4 1.886401 1_555
I0 O6 1.886401 1_555
I0 O0 1.897621 1_555
I0 O2 1.897621 1_555
I1 O9 1.873656 1_554
I1 O11 1.873656 1_445
I1 O5 1.886401 1_454
I1 O7 1.886401 1_545
I1 O3 1.897621 1_455
I1 O1 1.897621 1_544
O0 Sr0 2.495778 1_545
O0 Sr1 2.612947 1_555
O0 Rb1 2.983856 1_555
O1 Sr1 2.495778 1_555
O1 Sr0 2.612947 1_555
O1 Rb0 2.983856 1_556
O2 Sr2 2.495778 1_565
O2 Sr3 2.612947 1_555
O2 Rb1 2.983856 1_665
O3 Sr3 2.495778 1_555
O3 Sr2 2.612947 1_555
O3 Rb0 2.983856 1_555
O4 Sr0 2.483614 1_555
O4 Sr1 2.514949 1_655
O4 Rb0 2.928122 1_556
O5 Sr1 2.483614 1_655
O5 Sr0 2.514949 1_545
O5 Rb1 2.928122 1_655
O6 Sr2 2.483614 1_555
O6 Sr3 2.514949 1_455
O6 Rb0 2.928122 1_555
O7 Sr3 2.483614 1_455
O7 Sr2 2.514949 1_565
O7 Rb1 2.928122 1_565
O8 Sr1 2.544530 1_555
O8 Rb1 2.607273 1_565
O8 Sr3 2.677345 1_455
O9 Sr0 2.544530 1_545
O9 Rb0 2.607273 1_556
O9 Sr2 2.677345 1_556
O10 Sr3 2.544530 1_555
O10 Rb1 2.607273 1_655
O10 Sr1 2.677345 1_655
O11 Sr2 2.544530 1_565
O11 Rb0 2.607273 1_555
O11 Sr0 2.677345 1_554
