# generated using pymatgen
data_Sc6GaTcNi
_symmetry_space_group_name_H-M   'P 1'
_cell_length_a   7.81171344
_cell_length_b   7.81171444
_cell_length_c   7.81171346
_cell_angle_alpha   104.17971811
_cell_angle_beta   110.94478272
_cell_angle_gamma   113.42621174
_symmetry_Int_Tables_number   1
_chemical_formula_structural   Sc6GaTcNi
_chemical_formula_sum   'Sc12 Ga2 Tc2 Ni2'
_cell_volume   364.45105922
_cell_formula_units_Z   2
loop_
 _symmetry_equiv_pos_site_id
 _symmetry_equiv_pos_as_xyz
  1  'x, y, z'
loop_
 _atom_site_type_symbol
 _atom_site_label
 _atom_site_symmetry_multiplicity
 _atom_site_fract_x
 _atom_site_fract_y
 _atom_site_fract_z
 _atom_site_occupancy
  Sc  Sc0  1  0.69371694  0.25307322  0.94678916  1
  Sc  Sc1  1  0.30628306  0.74692678  0.05321084  1
  Sc  Sc2  1  0.69371694  0.74692678  0.44064471  1
  Sc  Sc3  1  0.30628306  0.25307322  0.55935529  1
  Sc  Sc4  1  0.81412689  0.14668439  0.33255750  1
  Sc  Sc5  1  0.81412689  0.48156840  0.66744250  1
  Sc  Sc6  1  0.18587311  0.85331561  0.66744250  1
  Sc  Sc7  1  0.18587311  0.51843160  0.33255750  1
  Sc  Sc8  1  0.60421717  0.78441455  0.81980162  1
  Sc  Sc9  1  0.96461193  0.78441455  0.18019838  1
  Sc  Sc10  1  0.03538807  0.21558545  0.81980162  1
  Sc  Sc11  1  0.39578283  0.21558545  0.18019838  1
  Ga  Ga0  1  0.50000000  0.50000000  0.00000000  1
  Ga  Ga1  1  0.50000000  0.00000000  0.50000000  1
  Tc  Tc0  1  0.81748776  0.50000000  0.31748776  1
  Tc  Tc1  1  0.18251224  0.50000000  0.68251224  1
  Ni  Ni0  1  0.00000000  0.12332986  0.12332986  1
  Ni  Ni1  1  1.00000000  0.87667014  0.87667014  1
loop_
_geom_bond_atom_site_label_1
_geom_bond_atom_site_label_2
_geom_bond_distance
_geom_bond_site_symmetry_2
Sc0 Tc0 2.611497 1_556
Sc1 Tc1 2.611497 1_554
Sc2 Tc0 2.611494 1_555
Sc3 Tc1 2.611494 1_555
Sc4 Tc1 2.781353 1_655
Sc4 Tc0 2.781353 1_555
Sc5 Tc1 2.781350 1_655
Sc5 Tc0 2.781355 1_555
Sc6 Tc0 2.781353 1_455
Sc6 Tc1 2.781353 1_555
Sc7 Tc0 2.781350 1_455
Sc7 Tc1 2.781355 1_555
Sc8 Tc1 2.724993 1_555
Sc9 Tc0 2.724986 1_555
Sc10 Tc1 2.724986 1_555
Sc11 Tc0 2.724993 1_555
Ga0 Tc0 2.811484 1_555
Ga0 Tc1 2.811484 1_554
Ga0 Sc9 2.914416 1_555
Ga0 Sc10 2.914416 1_554
Ga0 Sc8 2.914423 1_554
Ga0 Sc11 2.914423 1_555
Ga0 Sc1 2.925975 1_555
Ga0 Sc0 2.925975 1_554
Ga0 Sc2 2.925981 1_555
Ga0 Sc3 2.925981 1_554
Ga1 Sc0 2.973967 1_555
Ga1 Sc1 2.973967 1_545
Ga1 Sc3 2.973972 1_555
Ga1 Sc2 2.973972 1_545
Ga1 Sc7 3.136655 1_545
Ga1 Sc5 3.136655 1_555
Ga1 Sc4 3.136661 1_555
Ga1 Sc6 3.136661 1_545
Ga1 Sc11 3.381905 1_555
Ga1 Sc8 3.381905 1_545
Ga1 Sc9 3.381910 1_445
Ga1 Sc10 3.381910 1_655
Ni0 Ni1 2.367791 1_444
Ni0 Sc4 2.564002 1_455
Ni0 Sc7 2.564009 1_555
Ni0 Sc11 2.713875 1_555
Ni0 Sc8 2.713879 1_444
Ni0 Sc9 2.713881 1_445
Ni0 Sc10 2.713885 1_554
Ni0 Sc3 2.984544 1_555
Ni0 Sc0 2.984552 1_454
Ni1 Sc6 2.564002 1_655
Ni1 Sc5 2.564009 1_555
Ni1 Sc8 2.713875 1_555
Ni1 Sc11 2.713879 1_666
Ni1 Sc10 2.713881 1_665
Ni1 Sc9 2.713885 1_556
Ni1 Sc2 2.984544 1_555
Ni1 Sc1 2.984552 1_656
