# generated using pymatgen
data_CsNi9Sb2As3
_symmetry_space_group_name_H-M   'P 1'
_cell_length_a   6.89671013
_cell_length_b   6.89702677
_cell_length_c   11.58223969
_cell_angle_alpha   90.00000000
_cell_angle_beta   90.00000000
_cell_angle_gamma   119.98989829
_symmetry_Int_Tables_number   1
_chemical_formula_structural   CsNi9Sb2As3
_chemical_formula_sum   'Cs2 Ni18 Sb4 As6'
_cell_volume   477.16794680
_cell_formula_units_Z   2
loop_
 _symmetry_equiv_pos_site_id
 _symmetry_equiv_pos_as_xyz
  1  'x, y, z'
loop_
 _atom_site_type_symbol
 _atom_site_label
 _atom_site_symmetry_multiplicity
 _atom_site_fract_x
 _atom_site_fract_y
 _atom_site_fract_z
 _atom_site_occupancy
  Cs  Cs0  1  0.00000000  0.00000000  0.00000000  1
  Cs  Cs1  1  0.00000000  0.00000000  0.50000000  1
  Ni  Ni0  1  0.53965290  0.46033778  0.11933292  1
  Ni  Ni1  1  0.07926941  0.53965333  0.61929563  1
  Ni  Ni2  1  0.46032535  0.92067317  0.61930071  1
  Ni  Ni3  1  0.53967465  0.07932683  0.11930071  1
  Ni  Ni4  1  0.92073059  0.46034667  0.11929563  1
  Ni  Ni5  1  0.07926941  0.53965333  0.88070437  1
  Ni  Ni6  1  0.46032535  0.92067317  0.88069929  1
  Ni  Ni7  1  0.46034710  0.53966222  0.61933292  1
  Ni  Ni8  1  0.46034710  0.53966222  0.88066708  1
  Ni  Ni9  1  0.53965290  0.46033778  0.38066708  1
  Ni  Ni10  1  0.92073059  0.46034667  0.38070437  1
  Ni  Ni11  1  0.53967465  0.07932683  0.38069929  1
  Ni  Ni12  1  0.20719060  0.79279836  0.25000000  1
  Ni  Ni13  1  0.41443680  0.20720542  0.75000000  1
  Ni  Ni14  1  0.79281960  0.58562118  0.75000000  1
  Ni  Ni15  1  0.20718040  0.41437882  0.25000000  1
  Ni  Ni16  1  0.58556320  0.79279458  0.25000000  1
  Ni  Ni17  1  0.79280940  0.20720164  0.75000000  1
  Sb  Sb0  1  0.33333242  0.66665813  0.05952519  1
  Sb  Sb1  1  0.66666758  0.33334187  0.55952519  1
  Sb  Sb2  1  0.66666758  0.33334187  0.94047481  1
  Sb  Sb3  1  0.33333242  0.66665813  0.44047481  1
  As  As0  1  0.83078649  0.16918367  0.25000000  1
  As  As1  1  0.66166813  0.83086291  0.75000000  1
  As  As2  1  0.16920010  0.33837562  0.75000000  1
  As  As3  1  0.83079990  0.66162438  0.25000000  1
  As  As4  1  0.33833187  0.16913709  0.25000000  1
  As  As5  1  0.16921351  0.83081633  0.75000000  1
loop_
_geom_bond_atom_site_label_1
_geom_bond_atom_site_label_2
_geom_bond_distance
_geom_bond_site_symmetry_2
Cs0 Ni3 3.744859 1_455
Cs0 Ni6 3.744859 1_544
Cs0 Ni4 3.744867 1_455
Cs0 Ni5 3.744867 1_544
Cs0 Ni3 3.745132 1_555
Cs0 Ni6 3.745132 1_444
Cs0 Ni4 3.745280 1_445
Cs0 Ni5 3.745280 1_554
Cs0 Ni8 3.745619 1_444
Cs0 Ni0 3.745619 1_555
Cs0 Ni0 3.745724 1_445
Cs0 Ni8 3.745724 1_554
Cs0 Ni12 3.809174 1_545
Cs0 Ni17 3.809174 1_454
Cs0 Ni15 3.809404 1_555
Cs0 Ni14 3.809404 1_444
Cs0 Ni13 3.809555 1_554
Cs0 Ni16 3.809555 1_445
Cs0 Sb0 4.040998 1_545
Cs0 Sb2 4.040998 1_454
Cs0 Sb2 4.041468 1_554
Cs0 Sb0 4.041468 1_445
Cs0 Sb0 4.041592 1_555
Cs0 Sb2 4.041592 1_444
Cs1 Ni2 3.744859 1_545
Cs1 Ni11 3.744859 1_455
Cs1 Ni10 3.744867 1_455
Cs1 Ni1 3.744867 1_545
Cs1 Ni2 3.745132 1_445
Cs1 Ni11 3.745132 1_555
Cs1 Ni10 3.745280 1_445
Cs1 Ni1 3.745280 1_555
Cs1 Ni7 3.745619 1_445
Cs1 Ni9 3.745619 1_555
Cs1 Ni9 3.745724 1_445
Cs1 Ni7 3.745724 1_555
Cs1 Ni12 3.809174 1_545
Cs1 Ni17 3.809174 1_455
Cs1 Ni15 3.809404 1_555
Cs1 Ni14 3.809404 1_445
Cs1 Ni13 3.809555 1_555
Cs1 Ni16 3.809555 1_445
Cs1 Sb1 4.040998 1_455
Cs1 Sb3 4.040998 1_545
Cs1 Sb1 4.041468 1_555
Cs1 Sb3 4.041468 1_445
Cs1 Sb3 4.041592 1_555
Cs1 Sb1 4.041592 1_445
Ni0 Sb0 2.560022 1_555
Ni0 Sb2 2.567685 1_554
Ni1 Sb1 2.559988 1_455
Ni1 Sb3 2.567638 1_555
Ni2 Sb1 2.560498 1_565
Ni2 Sb3 2.567557 1_555
Ni3 Sb0 2.560498 1_545
Ni3 Sb2 2.567557 1_554
Ni4 Sb0 2.559988 1_655
Ni4 Sb2 2.567638 1_554
Ni5 Sb2 2.559988 1_455
Ni5 Sb0 2.567638 1_556
Ni6 Sb2 2.560498 1_565
Ni6 Sb0 2.567557 1_556
Ni7 Sb1 2.560022 1_555
Ni7 Sb3 2.567685 1_555
Ni8 Sb2 2.560022 1_555
Ni8 Sb0 2.567685 1_556
Ni9 Sb3 2.560022 1_555
Ni9 Sb1 2.567685 1_555
Ni10 Sb3 2.559988 1_655
Ni10 Sb1 2.567638 1_555
Ni11 Sb3 2.560498 1_545
Ni11 Sb1 2.567557 1_555
Ni12 Sb3 2.671580 1_555
Ni12 Sb0 2.671580 1_555
Ni13 Sb2 2.671518 1_555
Ni13 Sb1 2.671518 1_555
Ni14 Sb2 2.671720 1_555
Ni14 Sb1 2.671720 1_555
Ni15 Sb3 2.671720 1_555
Ni15 Sb0 2.671720 1_555
Ni16 Sb3 2.671518 1_555
Ni16 Sb0 2.671518 1_555
Ni17 Sb2 2.671580 1_555
Ni17 Sb1 2.671580 1_555
As0 Ni15 2.282515 1_655
As0 Ni16 2.282601 1_545
As0 Ni11 2.337236 1_555
As0 Ni3 2.337236 1_555
As0 Ni4 2.337503 1_555
As0 Ni10 2.337503 1_555
As0 Cs1 3.531161 1_655
As0 Cs0 3.531161 1_655
As1 Ni17 2.282187 1_565
As1 Ni14 2.282230 1_555
As1 Ni6 2.337378 1_555
As1 Ni2 2.337378 1_555
As1 Ni8 2.337571 1_555
As1 Ni7 2.337571 1_555
As1 Cs1 3.531088 1_665
As1 Cs0 3.531088 1_666
As2 Ni13 2.282255 1_555
As2 Ni17 2.282366 1_455
As2 Ni8 2.337282 1_555
As2 Ni7 2.337282 1_555
As2 Ni5 2.337587 1_555
As2 Ni1 2.337587 1_555
As2 Cs1 3.531291 1_555
As2 Cs0 3.531291 1_556
As3 Ni16 2.282255 1_555
As3 Ni12 2.282366 1_655
As3 Ni9 2.337282 1_555
As3 Ni0 2.337282 1_555
As3 Ni4 2.337587 1_555
As3 Ni10 2.337587 1_555
As3 Cs0 3.531291 1_665
As3 Cs1 3.531291 1_665
As4 Ni12 2.282187 1_545
As4 Ni15 2.282230 1_555
As4 Ni11 2.337378 1_555
As4 Ni3 2.337378 1_555
As4 Ni9 2.337571 1_555
As4 Ni0 2.337571 1_555
As4 Cs0 3.531088 1_555
As4 Cs1 3.531088 1_555
As5 Ni14 2.282515 1_455
As5 Ni13 2.282601 1_565
As5 Ni6 2.337236 1_555
As5 Ni2 2.337236 1_555
As5 Ni5 2.337503 1_555
As5 Ni1 2.337503 1_555
As5 Cs0 3.531161 1_566
As5 Cs1 3.531161 1_565
