# generated using pymatgen
data_SrY6IrBr12
_symmetry_space_group_name_H-M   'P 1'
_cell_length_a   9.21052644
_cell_length_b   9.21253667
_cell_length_c   9.12248044
_cell_angle_alpha   105.92566437
_cell_angle_beta   106.17458828
_cell_angle_gamma   106.00256221
_symmetry_Int_Tables_number   1
_chemical_formula_structural   SrY6IrBr12
_chemical_formula_sum   'Sr1 Y6 Ir1 Br12'
_cell_volume   660.89273385
_cell_formula_units_Z   1
loop_
 _symmetry_equiv_pos_site_id
 _symmetry_equiv_pos_as_xyz
  1  'x, y, z'
loop_
 _atom_site_type_symbol
 _atom_site_label
 _atom_site_symmetry_multiplicity
 _atom_site_fract_x
 _atom_site_fract_y
 _atom_site_fract_z
 _atom_site_occupancy
  Sr  Sr0  1  0.50000000  0.50000000  0.50000000  1
  Y  Y0  1  0.10240551  0.31272322  0.01664112  1
  Y  Y1  1  0.31257408  0.01857606  0.10075859  1
  Y  Y2  1  0.01737690  0.09974835  0.30551798  1
  Y  Y3  1  0.98262410  0.90025165  0.69448302  1
  Y  Y4  1  0.68742592  0.98142494  0.89924141  1
  Y  Y5  1  0.89759449  0.68727678  0.98335888  1
  Ir  Ir0  1  0.00000000  0.00000000  0.00000000  1
  Br  Br0  1  0.22146663  0.67401243  0.07618649  1
  Br  Br1  1  0.44924494  0.36501274  0.13816819  1
  Br  Br2  1  0.67426852  0.07582166  0.22277239  1
  Br  Br3  1  0.92787291  0.78049259  0.32823467  1
  Br  Br4  1  0.13915816  0.44713646  0.36401632  1
  Br  Br5  1  0.36399296  0.13965496  0.44805622  1
  Br  Br6  1  0.63600704  0.86034504  0.55194478  1
  Br  Br7  1  0.86084284  0.55286354  0.63598368  1
  Br  Br8  1  0.07212809  0.21950741  0.67176633  1
  Br  Br9  1  0.32573248  0.92417934  0.77722761  1
  Br  Br10  1  0.55075506  0.63498726  0.86183281  1
  Br  Br11  1  0.77853337  0.32598757  0.92381351  1
loop_
_geom_bond_atom_site_label_1
_geom_bond_atom_site_label_2
_geom_bond_distance
_geom_bond_site_symmetry_2
Ir0 Y3 2.627306 1_444
Ir0 Y2 2.627311 1_555
Ir0 Y1 2.707463 1_555
Ir0 Y4 2.707466 1_444
Ir0 Y0 2.719314 1_555
Ir0 Y5 2.719314 1_444
Br0 Y5 2.912204 1_454
Br0 Y1 2.977698 1_565
Br0 Y0 3.039623 1_555
Br1 Y0 2.924333 1_555
Br1 Y1 2.972362 1_555
Br1 Sr0 3.037675 1_555
Br2 Y4 2.886277 1_544
Br2 Y2 2.966631 1_655
Br2 Y1 3.042786 1_555
Br3 Y2 2.909598 1_665
Br3 Y5 2.934244 1_554
Br3 Y3 3.060407 1_555
Br4 Y2 2.921483 1_555
Br4 Y0 2.950903 1_555
Br4 Sr0 3.049759 1_555
Br5 Y1 2.905084 1_555
Br5 Y2 2.965780 1_555
Br5 Sr0 3.054063 1_555
Br6 Y4 2.905076 1_555
Br6 Y3 2.965789 1_555
Br6 Sr0 3.054060 1_555
Br7 Y3 2.921481 1_555
Br7 Y5 2.950906 1_555
Br7 Sr0 3.049767 1_555
Br8 Y3 2.909598 1_445
Br8 Y0 2.934238 1_556
Br8 Y2 3.060407 1_555
Br9 Y1 2.886281 1_566
Br9 Y3 2.966629 1_455
Br9 Y4 3.042777 1_555
Br10 Y5 2.924333 1_555
Br10 Y4 2.972374 1_555
Br10 Sr0 3.037684 1_555
Br11 Y0 2.912204 1_656
Br11 Y4 2.977689 1_545
Br11 Y5 3.039623 1_555
