# generated using pymatgen
data_Lu2Ga4CuNi
_symmetry_space_group_name_H-M   'P 1'
_cell_length_a   5.30440982
_cell_length_b   5.30441086
_cell_length_c   6.46981922
_cell_angle_alpha   90.00000000
_cell_angle_beta   90.00000000
_cell_angle_gamma   134.01529626
_symmetry_Int_Tables_number   1
_chemical_formula_structural   Lu2Ga4CuNi
_chemical_formula_sum   'Lu2 Ga4 Cu1 Ni1'
_cell_volume   130.91471555
_cell_formula_units_Z   1
loop_
 _symmetry_equiv_pos_site_id
 _symmetry_equiv_pos_as_xyz
  1  'x, y, z'
loop_
 _atom_site_type_symbol
 _atom_site_label
 _atom_site_symmetry_multiplicity
 _atom_site_fract_x
 _atom_site_fract_y
 _atom_site_fract_z
 _atom_site_occupancy
  Lu  Lu0  1  0.57944620  0.42055380  0.25000000  1
  Lu  Lu1  1  0.42244553  0.57755447  0.75000000  1
  Ga  Ga0  1  0.86436041  0.13563959  0.04906954  1
  Ga  Ga1  1  0.13500119  0.86499881  0.94565355  1
  Ga  Ga2  1  0.13500119  0.86499881  0.55434645  1
  Ga  Ga3  1  0.86436041  0.13563959  0.45093046  1
  Cu  Cu0  1  0.29444923  0.70555077  0.25000000  1
  Ni  Ni0  1  0.70493584  0.29506416  0.75000000  1
loop_
_geom_bond_atom_site_label_1
_geom_bond_atom_site_label_2
_geom_bond_distance
_geom_bond_site_symmetry_2
Lu1 Ni0 2.758807 1_555
Lu1 Ni0 2.967357 1_455
Lu1 Ni0 2.967358 1_565
Ga0 Ni0 2.483549 1_554
Ga0 Ga3 2.599968 1_555
Ga0 Ga1 2.726457 1_644
Ga0 Lu1 2.891139 1_654
Ga0 Lu1 2.891139 1_544
Ga0 Lu0 3.071180 1_555
Ga0 Lu0 3.224152 1_655
Ga0 Lu0 3.224153 1_545
Ga1 Ni0 2.522258 1_565
Ga1 Ni0 2.522259 1_455
Ga1 Ga2 2.531686 1_555
Ga1 Lu0 2.909389 1_456
Ga1 Lu0 2.909390 1_566
Ga2 Ni0 2.522258 1_565
Ga2 Ni0 2.522259 1_455
Ga2 Ga3 2.726457 1_465
Ga2 Lu0 2.909389 1_455
Ga2 Lu0 2.909390 1_565
Ga3 Ni0 2.483549 1_555
Ga3 Lu1 2.891139 1_655
Ga3 Lu1 2.891139 1_545
Ga3 Lu0 3.071180 1_555
Ga3 Lu0 3.224152 1_655
Ga3 Lu0 3.224153 1_545
Cu0 Ga2 2.510381 1_555
Cu0 Ga1 2.510381 1_554
Cu0 Ga3 2.539502 1_565
Cu0 Ga0 2.539502 1_565
Cu0 Ga3 2.539503 1_455
Cu0 Ga0 2.539503 1_455
Cu0 Lu0 2.783287 1_555
Cu0 Lu0 2.949882 1_455
Cu0 Lu0 2.949883 1_565
