# generated using pymatgen
data_Cs6ScTe4Cl
_symmetry_space_group_name_H-M   'P 1'
_cell_length_a   12.13520615
_cell_length_b   12.13520594
_cell_length_c   8.99768572
_cell_angle_alpha   90.00000000
_cell_angle_beta   90.00000000
_cell_angle_gamma   120.00000327
_symmetry_Int_Tables_number   1
_chemical_formula_structural   Cs6ScTe4Cl
_chemical_formula_sum   'Cs12 Sc2 Te8 Cl2'
_cell_volume   1147.50806474
_cell_formula_units_Z   2
loop_
 _symmetry_equiv_pos_site_id
 _symmetry_equiv_pos_as_xyz
  1  'x, y, z'
loop_
 _atom_site_type_symbol
 _atom_site_label
 _atom_site_symmetry_multiplicity
 _atom_site_fract_x
 _atom_site_fract_y
 _atom_site_fract_z
 _atom_site_occupancy
  Cs  Cs0  1  0.12654582  0.87345418  0.51324565  1
  Cs  Cs1  1  0.74690735  0.87345418  0.51324565  1
  Cs  Cs2  1  0.94586201  0.47293050  0.31664611  1
  Cs  Cs3  1  0.52706950  0.47293050  0.31664611  1
  Cs  Cs4  1  0.87345418  0.74690735  0.01324565  1
  Cs  Cs5  1  0.25309265  0.12654582  0.01324565  1
  Cs  Cs6  1  0.52706950  0.05413799  0.31664611  1
  Cs  Cs7  1  0.12654582  0.25309265  0.51324565  1
  Cs  Cs8  1  0.87345418  0.12654582  0.01324565  1
  Cs  Cs9  1  0.05413799  0.52706950  0.81664611  1
  Cs  Cs10  1  0.47293050  0.94586201  0.81664611  1
  Cs  Cs11  1  0.47293050  0.52706950  0.81664611  1
  Sc  Sc0  1  0.66666700  0.33333300  0.71390299  1
  Sc  Sc1  1  0.33333300  0.66666700  0.21390299  1
  Te  Te0  1  0.41411939  0.20706019  0.61322935  1
  Te  Te1  1  0.58588061  0.79293981  0.11322935  1
  Te  Te2  1  0.66666700  0.33333300  0.02538714  1
  Te  Te3  1  0.79293981  0.58588061  0.61322935  1
  Te  Te4  1  0.20706019  0.41411939  0.11322935  1
  Te  Te5  1  0.33333300  0.66666700  0.52538714  1
  Te  Te6  1  0.20706019  0.79293981  0.11322935  1
  Te  Te7  1  0.79293981  0.20706019  0.61322935  1
  Cl  Cl0  1  0.00000000  0.00000000  0.27194954  1
  Cl  Cl1  1  0.00000000  0.00000000  0.77194954  1
loop_
_geom_bond_atom_site_label_1
_geom_bond_atom_site_label_2
_geom_bond_distance
_geom_bond_site_symmetry_2
Cs0 Te0 3.905029 1_565
Cs0 Te3 3.905029 1_455
Cs0 Te6 3.977225 1_555
Cs0 Te5 4.347790 1_555
Cs1 Te7 3.905029 1_565
Cs1 Te3 3.905029 1_555
Cs1 Te1 3.977216 1_555
Cs1 Te5 4.347790 1_555
Cs2 Te7 3.871338 1_555
Cs2 Te3 3.871352 1_555
Cs2 Te2 3.934107 1_555
Cs2 Te6 4.020994 1_655
Cs2 Te4 4.020994 1_655
Cs3 Te0 3.871336 1_555
Cs3 Te3 3.871336 1_555
Cs3 Te2 3.934107 1_555
Cs3 Te1 4.020994 1_555
Cs3 Te4 4.020994 1_555
Cs4 Te6 3.905029 1_655
Cs4 Te1 3.905029 1_555
Cs4 Te3 3.977216 1_554
Cs4 Te2 4.347789 1_555
Cs5 Te6 3.905029 1_545
Cs5 Te4 3.905029 1_555
Cs5 Te0 3.977216 1_554
Cs5 Te2 4.347790 1_555
Cs6 Te7 3.871338 1_555
Cs6 Te0 3.871352 1_555
Cs6 Te2 3.934107 1_555
Cs6 Te6 4.020994 1_545
Cs6 Te1 4.020994 1_545
Cs7 Te7 3.905029 1_455
Cs7 Te0 3.905029 1_555
Cs7 Te4 3.977216 1_555
Cs7 Te5 4.347789 1_555
Cs8 Te1 3.905029 1_545
Cs8 Te4 3.905029 1_655
Cs8 Te7 3.977225 1_554
Cs8 Te2 4.347790 1_555
Cs9 Te6 3.871338 1_556
Cs9 Te4 3.871352 1_556
Cs9 Te5 3.934107 1_555
Cs9 Te7 4.020994 1_455
Cs9 Te3 4.020994 1_455
Cs10 Te6 3.871338 1_556
Cs10 Te1 3.871352 1_556
Cs10 Te5 3.934107 1_555
Cs10 Te7 4.020994 1_565
Cs10 Te0 4.020994 1_565
Cs11 Te1 3.871336 1_556
Cs11 Te4 3.871336 1_556
Cs11 Te5 3.934107 1_555
Cs11 Te0 4.020994 1_555
Cs11 Te3 4.020994 1_555
Sc0 Te2 2.802636 1_556
Sc0 Te7 2.804422 1_555
Sc0 Te3 2.804442 1_555
Sc0 Te0 2.804442 1_555
Sc1 Te5 2.802636 1_555
Sc1 Te6 2.804422 1_555
Sc1 Te4 2.804442 1_555
Sc1 Te1 2.804442 1_555
Cl0 Cs0 3.433432 1_545
Cl0 Cs7 3.433440 1_555
Cl0 Cs1 3.433440 1_445
Cl0 Cs8 3.534559 1_455
Cl0 Cs4 3.534567 1_445
Cl0 Cs5 3.534567 1_555
Cl1 Cs8 3.433432 1_456
Cl1 Cs4 3.433440 1_446
Cl1 Cs5 3.433440 1_556
Cl1 Cs0 3.534559 1_545
Cl1 Cs7 3.534567 1_555
Cl1 Cs1 3.534567 1_445
