# generated using pymatgen
data_CdAg2PbO4
_symmetry_space_group_name_H-M   'P 1'
_cell_length_a   6.66720927
_cell_length_b   6.66720926
_cell_length_c   5.91319328
_cell_angle_alpha   81.38773997
_cell_angle_beta   81.38773818
_cell_angle_gamma   29.46843939
_symmetry_Int_Tables_number   1
_chemical_formula_structural   CdAg2PbO4
_chemical_formula_sum   'Cd1 Ag2 Pb1 O4'
_cell_volume   127.74868556
_cell_formula_units_Z   1
loop_
 _symmetry_equiv_pos_site_id
 _symmetry_equiv_pos_as_xyz
  1  'x, y, z'
loop_
 _atom_site_type_symbol
 _atom_site_label
 _atom_site_symmetry_multiplicity
 _atom_site_fract_x
 _atom_site_fract_y
 _atom_site_fract_z
 _atom_site_occupancy
  Cd  Cd0  1  0.00000000  0.00000000  0.50000000  1
  Ag  Ag0  1  0.74675976  0.74675976  0.22121404  1
  Ag  Ag1  1  0.25324024  0.25324024  0.77878596  1
  Pb  Pb0  1  0.50000000  0.50000000  0.00000000  1
  O  O0  1  0.90971433  0.90971433  0.18259637  1
  O  O1  1  0.41560104  0.41560104  0.71557856  1
  O  O2  1  0.58439896  0.58439896  0.28442144  1
  O  O3  1  0.09028567  0.09028567  0.81740363  1
loop_
_geom_bond_atom_site_label_1
_geom_bond_atom_site_label_2
_geom_bond_distance
_geom_bond_site_symmetry_2
Cd0 O1 2.292465 1_455
Cd0 O2 2.292465 1_545
Cd0 O1 2.292465 1_545
Cd0 O2 2.292465 1_455
Cd0 O3 2.356905 1_555
Cd0 O0 2.356905 1_445
Ag0 O2 2.069135 1_555
Ag0 O0 2.078373 1_555
Ag1 O1 2.069135 1_555
Ag1 O3 2.078373 1_555
O0 Pb0 2.237759 1_655
O0 Pb0 2.237759 1_565
O1 Pb0 2.140111 1_556
O2 Pb0 2.140111 1_555
O3 Pb0 2.237759 1_456
O3 Pb0 2.237759 1_546
