# generated using pymatgen
data_CuAu2(SO4)4
_symmetry_space_group_name_H-M   'P 1'
_cell_length_a   6.38771724
_cell_length_b   6.38771792
_cell_length_c   7.87819311
_cell_angle_alpha   85.38466222
_cell_angle_beta   85.38465608
_cell_angle_gamma   87.70069878
_symmetry_Int_Tables_number   1
_chemical_formula_structural   CuAu2(SO4)4
_chemical_formula_sum   'Cu1 Au2 S4 O16'
_cell_volume   319.18890227
_cell_formula_units_Z   1
loop_
 _symmetry_equiv_pos_site_id
 _symmetry_equiv_pos_as_xyz
  1  'x, y, z'
loop_
 _atom_site_type_symbol
 _atom_site_label
 _atom_site_symmetry_multiplicity
 _atom_site_fract_x
 _atom_site_fract_y
 _atom_site_fract_z
 _atom_site_occupancy
  Cu  Cu0  1  0.00000000  0.00000000  0.00000000  1
  Au  Au0  1  0.00000000  0.00000000  0.50000000  1
  Au  Au1  1  0.50000000  0.50000000  0.50000000  1
  S  S0  1  0.12045765  0.61961919  0.73896078  1
  S  S1  1  0.61961919  0.12045765  0.73896078  1
  S  S2  1  0.87954235  0.38038081  0.26103922  1
  S  S3  1  0.38038081  0.87954235  0.26103922  1
  O  O0  1  0.35138123  0.66064794  0.68617811  1
  O  O1  1  0.66064794  0.35138123  0.68617811  1
  O  O2  1  0.64861877  0.33935206  0.31382189  1
  O  O3  1  0.33935206  0.64861877  0.31382189  1
  O  O4  1  0.06618517  0.74968525  0.87998811  1
  O  O5  1  0.74968525  0.06618517  0.87998811  1
  O  O6  1  0.93381483  0.25031475  0.12001189  1
  O  O7  1  0.25031475  0.93381483  0.12001189  1
  O  O8  1  0.99754708  0.69646351  0.58619889  1
  O  O9  1  0.69646351  0.99754708  0.58619889  1
  O  O10  1  0.00245292  0.30353649  0.41380111  1
  O  O11  1  0.30353649  0.00245292  0.41380111  1
  O  O12  1  0.08213805  0.40291110  0.77453793  1
  O  O13  1  0.40291110  0.08213805  0.77453793  1
  O  O14  1  0.91786195  0.59708890  0.22546207  1
  O  O15  1  0.59708890  0.91786195  0.22546207  1
loop_
_geom_bond_atom_site_label_1
_geom_bond_atom_site_label_2
_geom_bond_distance
_geom_bond_site_symmetry_2
Cu0 O7 1.937522 1_545
Cu0 O5 1.937522 1_454
Cu0 O6 1.937522 1_455
Cu0 O4 1.937522 1_544
Au0 O11 2.002397 1_555
Au0 O9 2.002397 1_445
Au0 O10 2.002397 1_555
Au0 O8 2.002397 1_445
Au1 O0 2.011364 1_555
Au1 O2 2.011364 1_555
Au1 O1 2.011364 1_555
Au1 O3 2.011364 1_555
O0 S0 1.527159 1_555
O1 S1 1.527159 1_555
O2 S2 1.527159 1_555
O3 S3 1.527159 1_555
O4 S0 1.452006 1_555
O5 S1 1.452006 1_555
O6 S2 1.452006 1_555
O7 S3 1.452006 1_555
O8 S0 1.527025 1_655
O9 S1 1.527025 1_565
O10 S2 1.527025 1_455
O11 S3 1.527025 1_545
O12 S0 1.417175 1_555
O13 S1 1.417175 1_555
O14 S2 1.417175 1_555
O15 S3 1.417175 1_555
