# generated using pymatgen
data_KZrCrSe4
_symmetry_space_group_name_H-M   'P 1'
_cell_length_a   3.81968088
_cell_length_b   8.20021283
_cell_length_c   6.43566025
_cell_angle_alpha   74.84566931
_cell_angle_beta   90.00000003
_cell_angle_gamma   90.00000674
_symmetry_Int_Tables_number   1
_chemical_formula_structural   KZrCrSe4
_chemical_formula_sum   'K1 Zr1 Cr1 Se4'
_cell_volume   194.56913728
_cell_formula_units_Z   1
loop_
 _symmetry_equiv_pos_site_id
 _symmetry_equiv_pos_as_xyz
  1  'x, y, z'
loop_
 _atom_site_type_symbol
 _atom_site_label
 _atom_site_symmetry_multiplicity
 _atom_site_fract_x
 _atom_site_fract_y
 _atom_site_fract_z
 _atom_site_occupancy
  K  K0  1  0.50000000  0.49474986  0.65013572  1
  Zr  Zr0  1  0.00000000  0.00040322  0.00100148  1
  Cr  Cr0  1  0.50000000  0.00114269  0.50425632  1
  Se  Se0  1  0.00000000  0.81858710  0.41334381  1
  Se  Se1  1  0.50000000  0.80636111  0.89289401  1
  Se  Se2  1  1.00000000  0.18531966  0.59021267  1
  Se  Se3  1  0.50000000  0.19255735  0.11511499  1
loop_
_geom_bond_atom_site_label_1
_geom_bond_atom_site_label_2
_geom_bond_distance
_geom_bond_site_symmetry_2
K0 Se2 3.278138 1_455
K0 Se2 3.278139 1_555
K0 Se0 3.302398 1_655
K0 Se0 3.302398 1_555
K0 Se1 3.325283 1_555
K0 Se3 3.349384 1_556
Cr0 Se2 2.582886 1_555
Cr0 Se2 2.582886 1_455
Cr0 Se3 2.584652 1_555
Cr0 Se0 2.586260 1_545
Cr0 Se0 2.586260 1_645
Cr0 Se1 2.591948 1_545
Se0 Zr0 2.682605 1_565
Se1 Zr0 2.691140 1_666
Se1 Zr0 2.691141 1_566
Se2 Zr0 2.681886 1_656
Se3 Zr0 2.697165 1_555
Se3 Zr0 2.697165 1_655
