# generated using pymatgen
data_Ta3Mn2AlN
_symmetry_space_group_name_H-M   'P 1'
_cell_length_a   8.13424720
_cell_length_b   8.13445631
_cell_length_c   8.13404490
_cell_angle_alpha   60.00167717
_cell_angle_beta   60.00082683
_cell_angle_gamma   60.00116594
_symmetry_Int_Tables_number   1
_chemical_formula_structural   Ta3Mn2AlN
_chemical_formula_sum   'Ta12 Mn8 Al4 N4'
_cell_volume   380.58310949
_cell_formula_units_Z   4
loop_
 _symmetry_equiv_pos_site_id
 _symmetry_equiv_pos_as_xyz
  1  'x, y, z'
loop_
 _atom_site_type_symbol
 _atom_site_label
 _atom_site_symmetry_multiplicity
 _atom_site_fract_x
 _atom_site_fract_y
 _atom_site_fract_z
 _atom_site_occupancy
  Ta  Ta0  1  0.80771957  0.80769724  0.19229110  1
  Ta  Ta1  1  0.19228541  0.19229435  0.80770962  1
  Ta  Ta2  1  0.80771381  0.19229642  0.80769883  1
  Ta  Ta3  1  0.19229059  0.80770559  0.19229121  1
  Ta  Ta4  1  0.19229059  0.80770559  0.80771260  1
  Ta  Ta5  1  0.80771381  0.19229642  0.19228994  1
  Ta  Ta6  1  0.44228043  0.44230276  0.05770890  1
  Ta  Ta7  1  0.05771459  0.05770565  0.44229038  1
  Ta  Ta8  1  0.44228619  0.05770358  0.44230117  1
  Ta  Ta9  1  0.05770941  0.44229441  0.05770879  1
  Ta  Ta10  1  0.05770941  0.44229441  0.44228740  1
  Ta  Ta11  1  0.44228619  0.05770358  0.05771006  1
  Mn  Mn0  1  0.74962526  0.41679062  0.41679156  1
  Mn  Mn1  1  0.41680934  0.74963512  0.41677827  1
  Mn  Mn2  1  0.41680729  0.41677714  0.74962684  1
  Mn  Mn3  1  0.41680729  0.41677714  0.41678873  1
  Mn  Mn4  1  0.50037474  0.83320938  0.83320844  1
  Mn  Mn5  1  0.83319066  0.50036488  0.83322173  1
  Mn  Mn6  1  0.83319271  0.83322286  0.50037316  1
  Mn  Mn7  1  0.83319271  0.83322286  0.83321127  1
  Al  Al0  1  0.12500000  0.62500000  0.62500000  1
  Al  Al1  1  0.62500000  0.12500000  0.62500000  1
  Al  Al2  1  0.62500000  0.62500000  0.12500000  1
  Al  Al3  1  0.62500000  0.62500000  0.62500000  1
  N  N0  1  0.62500000  0.12500000  0.12500000  1
  N  N1  1  0.12500000  0.62500000  0.12500000  1
  N  N2  1  0.12500000  0.12500000  0.62500000  1
  N  N3  1  0.12500000  0.12500000  0.12500000  1
loop_
_geom_bond_atom_site_label_1
_geom_bond_atom_site_label_2
_geom_bond_distance
_geom_bond_site_symmetry_2
Mn0 Mn3 2.707290 1_555
Mn0 Mn2 2.707294 1_555
Mn0 Mn1 2.707406 1_555
Mn0 Ta9 2.729254 1_655
Mn0 Ta10 2.729258 1_655
Mn0 Ta7 2.729381 1_655
Mn0 Ta5 2.915751 1_555
Mn0 Ta2 2.915751 1_555
Mn0 Ta0 2.915899 1_555
Mn1 Mn2 2.707581 1_555
Mn1 Mn3 2.707584 1_555
Mn1 Ta8 2.729190 1_565
Mn1 Ta11 2.729191 1_565
Mn1 Ta7 2.729341 1_565
Mn1 Ta0 2.915734 1_555
Mn1 Ta4 2.915855 1_555
Mn1 Ta3 2.915861 1_555
Mn2 Mn3 2.707320 1_555
Mn2 Ta6 2.729177 1_556
Mn2 Ta11 2.729300 1_556
Mn2 Ta9 2.729329 1_556
Mn2 Ta2 2.915743 1_555
Mn2 Ta1 2.915890 1_555
Mn2 Ta4 2.916000 1_555
Mn3 Ta6 2.729169 1_555
Mn3 Ta8 2.729296 1_555
Mn3 Ta10 2.729329 1_555
Mn3 Ta5 2.915746 1_555
Mn3 Ta1 2.915886 1_555
Mn3 Ta3 2.916000 1_555
Mn4 Mn7 2.707290 1_555
Mn4 Mn6 2.707294 1_555
Mn4 Mn5 2.707406 1_555
Mn4 Ta3 2.729254 1_556
Mn4 Ta4 2.729258 1_555
Mn4 Ta1 2.729381 1_565
Mn4 Ta11 2.915751 1_566
Mn4 Ta8 2.915751 1_565
Mn4 Ta6 2.915899 1_556
Mn5 Mn6 2.707581 1_555
Mn5 Mn7 2.707584 1_555
Mn5 Ta2 2.729190 1_555
Mn5 Ta5 2.729191 1_556
Mn5 Ta1 2.729341 1_655
Mn5 Ta6 2.915734 1_556
Mn5 Ta10 2.915855 1_655
Mn5 Ta9 2.915861 1_656
Mn6 Mn7 2.707320 1_555
Mn6 Ta0 2.729177 1_555
Mn6 Ta5 2.729300 1_565
Mn6 Ta3 2.729329 1_655
Mn6 Ta8 2.915743 1_565
Mn6 Ta7 2.915890 1_665
Mn6 Ta10 2.916000 1_655
Mn7 Ta0 2.729169 1_556
Mn7 Ta2 2.729296 1_565
Mn7 Ta4 2.729329 1_655
Mn7 Ta11 2.915746 1_566
Mn7 Ta7 2.915886 1_665
Mn7 Ta9 2.916000 1_656
Al0 Mn2 2.489897 1_555
Al0 Mn6 2.489897 1_455
Al0 Mn7 2.489897 1_455
Al0 Mn3 2.489897 1_555
Al0 Mn1 2.489962 1_555
Al0 Mn5 2.489962 1_455
Al0 Ta4 2.924516 1_555
Al0 Ta10 2.924516 1_555
Al0 Ta9 2.924516 1_556
Al0 Ta3 2.924516 1_555
Al0 Ta7 2.924659 1_565
Al0 Ta1 2.924659 1_555
Al1 Mn2 2.489726 1_555
Al1 Mn6 2.489726 1_545
Al1 Mn7 2.489726 1_545
Al1 Mn3 2.489726 1_555
Al1 Mn0 2.489842 1_555
Al1 Mn4 2.489842 1_545
Al1 Ta2 2.924494 1_555
Al1 Ta8 2.924494 1_555
Al1 Ta11 2.924501 1_556
Al1 Ta5 2.924501 1_555
Al1 Ta7 2.924603 1_655
Al1 Ta1 2.924603 1_555
Al2 Mn1 2.489695 1_555
Al2 Mn5 2.489695 1_554
Al2 Mn0 2.489759 1_555
Al2 Mn4 2.489759 1_554
Al2 Mn7 2.489802 1_554
Al2 Mn3 2.489802 1_555
Al2 Ta0 2.924535 1_555
Al2 Ta6 2.924535 1_555
Al2 Ta9 2.924581 1_655
Al2 Ta3 2.924581 1_555
Al2 Ta11 2.924632 1_565
Al2 Ta5 2.924632 1_555
Al3 Mn5 2.489688 1_555
Al3 Mn1 2.489688 1_555
Al3 Mn4 2.489765 1_555
Al3 Mn0 2.489765 1_555
Al3 Mn6 2.489802 1_555
Al3 Mn2 2.489802 1_555
Al3 Ta6 2.924541 1_556
Al3 Ta0 2.924541 1_555
Al3 Ta10 2.924581 1_655
Al3 Ta4 2.924581 1_555
Al3 Ta8 2.924630 1_565
Al3 Ta2 2.924630 1_555
N0 Ta5 2.175957 1_555
N0 Ta11 2.175957 1_555
N0 Ta8 2.175963 1_555
N0 Ta2 2.175963 1_554
N0 Ta6 2.176088 1_555
N0 Ta0 2.176088 1_545
N1 Ta6 2.175865 1_555
N1 Ta0 2.175865 1_455
N1 Ta3 2.175891 1_555
N1 Ta9 2.175891 1_555
N1 Ta4 2.175891 1_554
N1 Ta10 2.175891 1_555
N2 Ta1 2.175860 1_555
N2 Ta7 2.175860 1_555
N2 Ta8 2.175880 1_555
N2 Ta2 2.175880 1_455
N2 Ta10 2.176027 1_555
N2 Ta4 2.176027 1_545
N3 Ta7 2.175868 1_555
N3 Ta1 2.175868 1_554
N3 Ta11 2.175881 1_555
N3 Ta5 2.175881 1_455
N3 Ta9 2.176027 1_555
N3 Ta3 2.176027 1_545
