# generated using pymatgen
data_Zr5(GaBi)2
_symmetry_space_group_name_H-M   'P 1'
_cell_length_a   8.68461757
_cell_length_b   8.68461797
_cell_length_c   5.88635607
_cell_angle_alpha   90.00000000
_cell_angle_beta   90.00000000
_cell_angle_gamma   119.89593560
_symmetry_Int_Tables_number   1
_chemical_formula_structural   Zr5(GaBi)2
_chemical_formula_sum   'Zr10 Ga4 Bi4'
_cell_volume   384.88681611
_cell_formula_units_Z   2
loop_
 _symmetry_equiv_pos_site_id
 _symmetry_equiv_pos_as_xyz
  1  'x, y, z'
loop_
 _atom_site_type_symbol
 _atom_site_label
 _atom_site_symmetry_multiplicity
 _atom_site_fract_x
 _atom_site_fract_y
 _atom_site_fract_z
 _atom_site_occupancy
  Zr  Zr0  1  0.66786646  0.32824419  0.00803538  1
  Zr  Zr1  1  0.32824419  0.66786646  0.00803538  1
  Zr  Zr2  1  0.32824419  0.66786646  0.49196462  1
  Zr  Zr3  1  0.66786646  0.32824419  0.49196462  1
  Zr  Zr4  1  0.74131045  0.74131045  0.75000000  1
  Zr  Zr5  1  0.25622905  0.99720705  0.75000000  1
  Zr  Zr6  1  0.99720705  0.25622905  0.75000000  1
  Zr  Zr7  1  0.26503391  0.26503391  0.25000000  1
  Zr  Zr8  1  0.73320970  0.01857307  0.25000000  1
  Zr  Zr9  1  0.01857307  0.73320970  0.25000000  1
  Ga  Ga0  1  0.99791873  0.99791873  0.01722578  1
  Ga  Ga1  1  0.99791873  0.99791873  0.48277422  1
  Ga  Ga2  1  0.38710741  0.00241600  0.25000000  1
  Ga  Ga3  1  0.00241600  0.38710741  0.25000000  1
  Bi  Bi0  1  0.39028897  0.39028897  0.75000000  1
  Bi  Bi1  1  0.60278824  0.99759106  0.75000000  1
  Bi  Bi2  1  0.99759106  0.60278824  0.75000000  1
  Bi  Bi3  1  0.62018732  0.62018732  0.25000000  1
loop_
_geom_bond_atom_site_label_1
_geom_bond_atom_site_label_2
_geom_bond_distance
_geom_bond_site_symmetry_2
Zr0 Zr3 2.848580 1_555
Zr0 Zr3 3.037776 1_554
Zr1 Zr2 2.848580 1_555
Zr1 Zr2 3.037776 1_554
Ga0 Zr7 2.697370 1_665
Ga0 Zr4 2.730628 1_554
Ga0 Ga1 2.740384 1_555
Ga0 Zr5 2.742382 1_654
Ga0 Zr6 2.742382 1_564
Ga0 Zr8 2.757824 1_565
Ga0 Zr9 2.757824 1_655
Ga1 Zr7 2.697370 1_665
Ga1 Zr4 2.730628 1_555
Ga1 Zr5 2.742382 1_655
Ga1 Zr6 2.742382 1_565
Ga1 Zr8 2.757824 1_565
Ga1 Zr9 2.757824 1_655
Ga2 Zr9 2.872366 1_545
Ga2 Zr8 2.938347 1_555
Ga2 Zr7 2.955679 1_555
Ga2 Zr3 3.017137 1_555
Ga2 Zr0 3.017137 1_555
Ga2 Zr2 3.041527 1_545
Ga2 Zr1 3.041527 1_545
Ga2 Zr5 3.147223 1_545
Ga2 Zr5 3.147223 1_544
Ga3 Zr8 2.872366 1_455
Ga3 Zr9 2.938347 1_555
Ga3 Zr7 2.955679 1_555
Ga3 Zr2 3.017137 1_555
Ga3 Zr1 3.017137 1_555
Ga3 Zr3 3.041527 1_455
Ga3 Zr0 3.041527 1_455
Ga3 Zr6 3.147223 1_454
Ga3 Zr6 3.147223 1_455
Bi0 Zr6 3.007873 1_455
Bi0 Zr5 3.007873 1_545
Bi0 Zr4 3.053281 1_555
Bi0 Zr0 3.115040 1_556
Bi0 Zr3 3.115040 1_555
Bi0 Zr1 3.115040 1_556
Bi0 Zr2 3.115040 1_555
Bi0 Zr7 3.138362 1_556
Bi0 Zr7 3.138362 1_555
Bi1 Zr5 3.008073 1_555
Bi1 Zr4 3.011659 1_555
Bi1 Zr6 3.018067 1_565
Bi1 Zr0 3.042146 1_566
Bi1 Zr3 3.042146 1_565
Bi1 Zr1 3.063611 1_556
Bi1 Zr2 3.063611 1_555
Bi1 Zr8 3.126128 1_565
Bi1 Zr8 3.126128 1_566
Bi2 Zr6 3.008073 1_555
Bi2 Zr4 3.011659 1_555
Bi2 Zr5 3.018067 1_655
Bi2 Zr1 3.042146 1_656
Bi2 Zr2 3.042146 1_655
Bi2 Zr0 3.063611 1_556
Bi2 Zr3 3.063611 1_555
Bi2 Zr9 3.126128 1_655
Bi2 Zr9 3.126128 1_656
Bi3 Zr7 3.089222 1_555
Bi3 Zr9 3.090070 1_655
Bi3 Zr8 3.090071 1_565
Bi3 Zr2 3.110456 1_555
Bi3 Zr1 3.110456 1_555
Bi3 Zr3 3.110456 1_555
Bi3 Zr0 3.110456 1_555
Bi3 Zr4 3.126066 1_555
Bi3 Zr4 3.126066 1_554
