# generated using pymatgen
data_Sr12Sc4BiSb11
_symmetry_space_group_name_H-M   'P 1'
_cell_length_a   4.85252823
_cell_length_b   13.59366812
_cell_length_c   15.18855510
_cell_angle_alpha   90.04989921
_cell_angle_beta   90.00000000
_cell_angle_gamma   90.00000000
_symmetry_Int_Tables_number   1
_chemical_formula_structural   Sr12Sc4BiSb11
_chemical_formula_sum   'Sr12 Sc4 Bi1 Sb11'
_cell_volume   1001.89227750
_cell_formula_units_Z   1
loop_
 _symmetry_equiv_pos_site_id
 _symmetry_equiv_pos_as_xyz
  1  'x, y, z'
loop_
 _atom_site_type_symbol
 _atom_site_label
 _atom_site_symmetry_multiplicity
 _atom_site_fract_x
 _atom_site_fract_y
 _atom_site_fract_z
 _atom_site_occupancy
  Sr  Sr0  1  0.25000000  0.06679584  0.89560356  1
  Sr  Sr1  1  0.75000000  0.93283970  0.10344641  1
  Sr  Sr2  1  0.25000000  0.56662018  0.60423991  1
  Sr  Sr3  1  0.75000000  0.43594579  0.39655353  1
  Sr  Sr4  1  0.25000000  0.84625809  0.49624968  1
  Sr  Sr5  1  0.75000000  0.15137770  0.50571373  1
  Sr  Sr6  1  0.25000000  0.34707147  0.00332443  1
  Sr  Sr7  1  0.75000000  0.65319935  0.99601723  1
  Sr  Sr8  1  0.75000000  0.22824943  0.21282710  1
  Sr  Sr9  1  0.25000000  0.77145936  0.78553138  1
  Sr  Sr10  1  0.75000000  0.72892512  0.28482480  1
  Sr  Sr11  1  0.25000000  0.27167378  0.71425455  1
  Sc  Sc0  1  0.25000000  0.05232256  0.29626139  1
  Sc  Sc1  1  0.75000000  0.94520804  0.70314106  1
  Sc  Sc2  1  0.25000000  0.55401473  0.20292901  1
  Sc  Sc3  1  0.75000000  0.44597285  0.79712045  1
  Bi  Bi0  1  0.25000000  0.24922838  0.37452576  1
  Sb  Sb0  1  0.75000000  0.75277907  0.62728187  1
  Sb  Sb1  1  0.25000000  0.74655992  0.12700533  1
  Sb  Sb2  1  0.75000000  0.25329474  0.87289469  1
  Sb  Sb3  1  0.25000000  0.10502839  0.11344783  1
  Sb  Sb4  1  0.75000000  0.89422525  0.88610487  1
  Sb  Sb5  1  0.25000000  0.60714314  0.38597849  1
  Sb  Sb6  1  0.75000000  0.39422126  0.61418163  1
  Sb  Sb7  1  0.25000000  0.03940625  0.64632932  1
  Sb  Sb8  1  0.75000000  0.95972245  0.35469454  1
  Sb  Sb9  1  0.25000000  0.54025701  0.85414772  1
  Sb  Sb10  1  0.75000000  0.46019814  0.14536974  1
loop_
_geom_bond_atom_site_label_1
_geom_bond_atom_site_label_2
_geom_bond_distance
_geom_bond_site_symmetry_2
Bi0 Sc0 2.927814 1_555
Bi0 Sr5 3.410418 1_555
Bi0 Sr5 3.410418 1_455
Bi0 Sr8 3.463907 1_555
Bi0 Sr8 3.463907 1_455
Bi0 Sr3 3.526974 1_555
Bi0 Sr3 3.526974 1_455
Sb0 Sc1 2.857409 1_555
Sb0 Sr4 3.386260 1_555
Sb0 Sr4 3.386260 1_655
Sb0 Sr9 3.424526 1_655
Sb0 Sr9 3.424526 1_555
Sb0 Sr2 3.523002 1_555
Sb0 Sr2 3.523002 1_655
Sb1 Sc2 2.861087 1_555
Sb1 Sr7 3.383962 1_554
Sb1 Sr7 3.383962 1_454
Sb1 Sr10 3.419221 1_555
Sb1 Sr10 3.419221 1_455
Sb1 Sr1 3.525414 1_455
Sb1 Sr1 3.525414 1_555
Sb2 Sc3 2.861826 1_555
Sb2 Sr6 3.381111 1_656
Sb2 Sr6 3.381111 1_556
Sb2 Sr11 3.428700 1_655
Sb2 Sr11 3.428700 1_555
Sb2 Sr0 3.526260 1_555
Sb2 Sr0 3.526260 1_655
Sb3 Sc0 2.868224 1_555
Sb3 Sr8 3.311561 1_455
Sb3 Sr8 3.311561 1_555
Sb3 Sr0 3.348861 1_554
Sb3 Sr1 3.374608 1_445
Sb3 Sr1 3.374608 1_545
Sb3 Sr6 3.692289 1_555
Sb4 Sc1 2.864657 1_555
Sb4 Sr9 3.316745 1_555
Sb4 Sr9 3.316745 1_655
Sb4 Sr1 3.342125 1_556
Sb4 Sr0 3.377880 1_565
Sb4 Sr0 3.377880 1_665
Sb4 Sr7 3.678508 1_555
Sb5 Sc2 2.871919 1_555
Sb5 Sr10 3.315450 1_455
Sb5 Sr10 3.315450 1_555
Sb5 Sr2 3.361004 1_555
Sb5 Sr3 3.365868 1_455
Sb5 Sr3 3.365868 1_555
Sb5 Sr4 3.655283 1_555
Sb6 Sc3 2.865656 1_555
Sb6 Sr11 3.313092 1_555
Sb6 Sr11 3.313092 1_655
Sb6 Sr3 3.354253 1_555
Sb6 Sr2 3.376733 1_555
Sb6 Sr2 3.376733 1_655
Sb6 Sr5 3.688113 1_555
Sb7 Sc1 2.876271 1_445
Sb7 Sc1 2.876271 1_545
Sb7 Sr11 3.320794 1_555
Sb7 Sr4 3.475543 1_545
Sb7 Sr5 3.573603 1_455
Sb7 Sr5 3.573603 1_555
Sb7 Sr0 3.804056 1_555
Sb8 Sc0 2.874178 1_565
Sb8 Sc0 2.874178 1_665
Sb8 Sr10 3.311126 1_555
Sb8 Sr5 3.469657 1_565
Sb8 Sr4 3.590835 1_555
Sb8 Sr4 3.590835 1_655
Sb8 Sr1 3.833237 1_555
Sb9 Sc3 2.877105 1_555
Sb9 Sc3 2.877105 1_455
Sb9 Sr9 3.312038 1_555
Sb9 Sr6 3.469945 1_556
Sb9 Sr7 3.589049 1_555
Sb9 Sr7 3.589049 1_455
Sb9 Sr2 3.812930 1_555
Sb10 Sc2 2.876723 1_655
Sb10 Sc2 2.876723 1_555
Sb10 Sr8 3.316174 1_555
Sb10 Sr7 3.469795 1_554
Sb10 Sr6 3.591723 1_555
Sb10 Sr6 3.591723 1_655
Sb10 Sr3 3.829623 1_555
