# generated using pymatgen
data_VCd3P6N13
_symmetry_space_group_name_H-M   'P 1'
_cell_length_a   7.07386758
_cell_length_b   7.17001951
_cell_length_c   7.17002049
_cell_angle_alpha   109.74128290
_cell_angle_beta   109.19979337
_cell_angle_gamma   109.19979989
_symmetry_Int_Tables_number   1
_chemical_formula_structural   VCd3P6N13
_chemical_formula_sum   'V1 Cd3 P6 N13'
_cell_volume   280.87918061
_cell_formula_units_Z   1
loop_
 _symmetry_equiv_pos_site_id
 _symmetry_equiv_pos_as_xyz
  1  'x, y, z'
loop_
 _atom_site_type_symbol
 _atom_site_label
 _atom_site_symmetry_multiplicity
 _atom_site_fract_x
 _atom_site_fract_y
 _atom_site_fract_z
 _atom_site_occupancy
  V  V0  1  0.67830346  1.00000000  1.00000000  1
  Cd  Cd0  1  0.99555979  0.00000000  0.71481996  1
  Cd  Cd1  1  0.99555979  0.71481996  1.00000000  1
  Cd  Cd2  1  0.28073983  0.28518004  0.28518004  1
  P  P0  1  0.25601425  0.74979221  0.50185877  1
  P  P1  1  0.75415548  0.24793444  0.49814123  1
  P  P2  1  0.75415548  0.49814123  0.24793444  1
  P  P3  1  0.25601425  0.50185877  0.74979221  1
  P  P4  1  0.50622104  0.75206556  0.25020779  1
  P  P5  1  0.50622104  0.25020779  0.75206556  1
  N  N0  1  0.94712783  0.00000000  0.00000000  1
  N  N1  1  0.71634268  0.26767186  0.26767186  1
  N  N2  1  0.28271350  0.72376762  0.27975075  1
  N  N3  1  0.30047422  0.56721023  0.56721023  1
  N  N4  1  0.55894588  0.55598313  0.27623238  1
  N  N5  1  0.44867082  0.73232814  1.00000000  1
  N  N6  1  0.00296274  0.72024925  0.44401687  1
  N  N7  1  0.55894588  0.27623238  0.55598313  1
  N  N8  1  0.73326400  1.00000000  0.43278977  1
  N  N9  1  0.44867082  1.00000000  0.73232814  1
  N  N10  1  0.73326400  0.43278977  1.00000000  1
  N  N11  1  0.28271350  0.27975075  0.72376762  1
  N  N12  1  0.00296274  0.44401687  0.72024925  1
loop_
_geom_bond_atom_site_label_1
_geom_bond_atom_site_label_2
_geom_bond_distance
_geom_bond_site_symmetry_2
Cd0 N0 2.181542 1_556
Cd0 N8 2.250338 1_545
Cd0 N11 2.302405 1_655
Cd0 N6 2.302405 1_645
Cd1 N0 2.181541 1_566
Cd1 N10 2.250338 1_555
Cd1 N12 2.302405 1_655
Cd1 N2 2.302406 1_656
Cd2 N0 2.181541 1_455
Cd2 N3 2.250338 1_555
Cd2 N4 2.302405 1_555
Cd2 N7 2.302406 1_555
N0 V0 1.901628 1_544
N1 P2 1.647540 1_555
N1 P1 1.647540 1_555
N1 V0 2.066767 1_544
N2 P4 1.619911 1_555
N2 P0 1.620762 1_555
N3 P0 1.618802 1_555
N3 P3 1.618802 1_555
N4 P2 1.619915 1_555
N4 P4 1.620758 1_555
N5 P3 1.647543 1_555
N5 P4 1.647547 1_556
N5 V0 2.066767 1_555
N6 P0 1.619917 1_555
N6 P2 1.620760 1_455
N7 P1 1.619915 1_555
N7 P5 1.620758 1_555
N8 P4 1.618808 1_555
N8 P1 1.618809 1_565
N9 P0 1.647543 1_555
N9 P5 1.647547 1_565
N9 V0 2.066767 1_555
N10 P5 1.618808 1_555
N10 P2 1.618809 1_556
N11 P5 1.619911 1_555
N11 P3 1.620761 1_555
N12 P3 1.619917 1_555
N12 P1 1.620760 1_455
