# generated using pymatgen
data_Li5Al16InPt7
_symmetry_space_group_name_H-M   'P 1'
_cell_length_a   8.55489634
_cell_length_b   8.57735494
_cell_length_c   8.57737232
_cell_angle_alpha   59.82717294
_cell_angle_beta   60.08685719
_cell_angle_gamma   60.08678854
_symmetry_Int_Tables_number   1
_chemical_formula_structural   Li5Al16InPt7
_chemical_formula_sum   'Li5 Al16 In1 Pt7'
_cell_volume   445.04522867
_cell_formula_units_Z   1
loop_
 _symmetry_equiv_pos_site_id
 _symmetry_equiv_pos_as_xyz
  1  'x, y, z'
loop_
 _atom_site_type_symbol
 _atom_site_label
 _atom_site_symmetry_multiplicity
 _atom_site_fract_x
 _atom_site_fract_y
 _atom_site_fract_z
 _atom_site_occupancy
  Li  Li0  1  0.76763895  0.23239053  0.23239103  1
  Li  Li1  1  0.76566647  0.23434397  0.75036780  1
  Li  Li2  1  0.76566658  0.75036892  0.23434383  1
  Li  Li3  1  0.24961240  0.75036803  0.23437405  1
  Li  Li4  1  0.24961294  0.23437359  0.75036770  1
  Al  Al0  1  0.87855236  0.84944493  0.84944556  1
  Al  Al1  1  0.86683636  0.84553675  0.42077663  1
  Al  Al2  1  0.42254801  0.84945231  0.84945092  1
  Al  Al3  1  0.86683630  0.42077574  0.84553767  1
  Al  Al4  1  0.15446861  0.13315373  0.13315366  1
  Al  Al5  1  0.15055398  0.12144481  0.57744520  1
  Al  Al6  1  0.15055359  0.57744483  0.12144554  1
  Al  Al7  1  0.57922437  0.13315727  0.13315589  1
  Al  Al8  1  0.62217437  0.62003272  0.62003218  1
  Al  Al9  1  0.63425004  0.61909590  0.11239188  1
  Al  Al10  1  0.13775430  0.62003470  0.62003523  1
  Al  Al11  1  0.63425019  0.11239168  0.61909553  1
  Al  Al12  1  0.38090892  0.36574030  0.36574036  1
  Al  Al13  1  0.37997073  0.37782281  0.86223968  1
  Al  Al14  1  0.37997103  0.86223967  0.37782257  1
  Al  Al15  1  0.88760842  0.36574156  0.36574202  1
  In  In0  1  0.00743482  0.99256314  0.99256300  1
  Pt  Pt0  1  0.00986695  0.49012930  0.49013037  1
  Pt  Pt1  1  0.50987205  0.99013107  0.99013064  1
  Pt  Pt2  1  0.51065597  0.99227717  0.48934293  1
  Pt  Pt3  1  0.51065516  0.48934498  0.99227639  1
  Pt  Pt4  1  0.00772305  0.48933873  0.99227572  1
  Pt  Pt5  1  0.00772331  0.99227482  0.48933946  1
  Pt  Pt6  1  0.51141277  0.48858305  0.48858354  1
loop_
_geom_bond_atom_site_label_1
_geom_bond_atom_site_label_2
_geom_bond_distance
_geom_bond_site_symmetry_2
Li0 Pt4 3.008411 1_654
Li0 Pt5 3.008414 1_645
Li0 Pt2 3.008800 1_545
Li0 Pt3 3.008813 1_554
Li0 Pt6 3.115792 1_555
Li1 Pt3 3.022726 1_555
Li1 Pt0 3.026213 1_655
Li1 Pt1 3.026341 1_545
Li1 Pt5 3.061467 1_645
Li1 Pt6 3.121976 1_555
Li2 Pt2 3.022713 1_555
Li2 Pt0 3.026220 1_655
Li2 Pt1 3.026343 1_554
Li2 Pt4 3.061472 1_654
Li2 Pt6 3.121987 1_555
Li3 Pt5 3.022494 1_555
Li3 Pt0 3.026199 1_555
Li3 Pt1 3.026432 1_554
Li3 Pt3 3.061602 1_554
Li3 Pt6 3.121809 1_555
Li4 Pt4 3.022500 1_555
Li4 Pt0 3.026194 1_555
Li4 Pt1 3.026428 1_545
Li4 Pt2 3.061606 1_545
Li4 Pt6 3.121806 1_555
Al0 Pt4 2.530733 1_655
Al0 Pt5 2.530739 1_655
Al0 Pt1 2.594593 1_555
Al0 Li1 2.715244 1_565
Al0 Li2 2.715248 1_556
Al0 Al10 2.801686 1_655
Al0 Al9 2.880326 1_556
Al0 Al11 2.880330 1_565
Al0 In0 2.905896 1_655
Al1 Pt0 2.515337 1_655
Al1 Pt2 2.519212 1_555
Al1 Pt5 2.519259 1_655
Al1 Li2 2.714721 1_555
Al1 Li3 2.714734 1_655
Al1 Li0 2.740610 1_565
Al1 Al11 2.843853 1_565
Al1 Al8 2.861834 1_555
Al1 Al10 2.861902 1_655
Al1 In0 2.996359 1_654
Al2 Pt3 2.530739 1_555
Al2 Pt2 2.530749 1_555
Al2 Pt1 2.594585 1_555
Al2 Li4 2.715394 1_565
Al2 Li3 2.715414 1_556
Al2 Al8 2.801793 1_555
Al2 Al9 2.880272 1_556
Al2 In0 2.905872 1_555
Al3 Pt0 2.515343 1_655
Al3 Pt3 2.519215 1_555
Al3 Pt4 2.519259 1_655
Al3 Li1 2.714725 1_555
Al3 Li4 2.714736 1_655
Al3 Li0 2.740614 1_556
Al3 Al9 2.843857 1_556
Al3 Al8 2.861842 1_555
Al3 In0 2.996343 1_645
Al4 Pt1 2.515304 1_544
Al4 Pt4 2.519254 1_554
Al4 Pt5 2.519266 1_545
Al4 Li3 2.714818 1_545
Al4 Li4 2.714827 1_554
Al4 Li0 2.740413 1_455
Al4 In0 2.996346 1_544
Al5 Pt2 2.530703 1_545
Al5 Pt5 2.530721 1_545
Al5 Pt0 2.594618 1_555
Al5 Li1 2.715160 1_455
Al5 Li4 2.715303 1_555
Al5 In0 2.905915 1_545
Al6 Pt3 2.530702 1_554
Al6 Pt4 2.530722 1_554
Al6 Pt0 2.594627 1_555
Al6 Li2 2.715157 1_455
Al6 Li3 2.715305 1_555
Al6 In0 2.905911 1_554
Al7 Pt1 2.515301 1_544
Al7 Pt3 2.519263 1_554
Al7 Pt2 2.519266 1_545
Al7 Li2 2.714861 1_545
Al7 Li1 2.714867 1_554
Al7 Li0 2.740819 1_555
Al7 In0 2.996327 1_644
Al8 Pt2 2.606130 1_555
Al8 Pt3 2.606135 1_555
Al8 Pt6 2.617112 1_555
Al8 Li1 2.702136 1_555
Al8 Li2 2.702141 1_555
Al8 Pt0 2.712867 1_655
Al9 Pt1 2.596317 1_554
Al9 Pt3 2.613573 1_554
Al9 Pt4 2.613667 1_654
Al9 Pt6 2.632419 1_555
Al9 Li3 2.691703 1_555
Al9 Li2 2.691722 1_555
Al9 Li0 2.707028 1_555
Al10 Pt5 2.606101 1_555
Al10 Pt4 2.606111 1_555
Al10 Pt6 2.617116 1_555
Al10 Li4 2.701938 1_555
Al10 Li3 2.701946 1_555
Al10 Pt0 2.712890 1_555
Al10 Al3 2.861905 1_455
Al10 Al13 2.930380 1_555
Al10 Al14 2.930385 1_555
Al11 Pt1 2.596323 1_545
Al11 Pt2 2.613574 1_545
Al11 Pt5 2.613668 1_645
Al11 Pt6 2.632410 1_555
Al11 Li4 2.691700 1_555
Al11 Li1 2.691717 1_555
Al11 Li0 2.707029 1_555
Al11 Al2 2.880262 1_545
Al12 Pt0 2.596363 1_555
Al12 Pt2 2.613598 1_545
Al12 Pt3 2.613611 1_554
Al12 Pt6 2.632386 1_555
Al12 Li3 2.691637 1_555
Al12 Li4 2.691642 1_555
Al12 Li0 2.707194 1_555
Al12 Al7 2.843814 1_555
Al12 Al6 2.880315 1_555
Al12 Al5 2.880316 1_555
Al13 Pt3 2.606109 1_555
Al13 Pt4 2.606152 1_555
Al13 Pt6 2.617105 1_555
Al13 Li4 2.702043 1_555
Al13 Li1 2.702178 1_555
Al13 Pt1 2.712862 1_545
Al13 Al6 2.801731 1_556
Al13 Al7 2.861864 1_556
Al13 Al4 2.861872 1_556
Al13 Al8 2.930335 1_555
Al14 Pt2 2.606106 1_555
Al14 Pt5 2.606152 1_555
Al14 Pt6 2.617101 1_555
Al14 Li3 2.702042 1_555
Al14 Li2 2.702177 1_555
Al14 Pt1 2.712870 1_554
Al14 Al5 2.801728 1_565
Al14 Al7 2.861871 1_565
Al14 Al4 2.861871 1_565
Al14 Al8 2.930332 1_555
Al15 Pt0 2.596301 1_655
Al15 Pt5 2.613624 1_645
Al15 Pt4 2.613628 1_654
Al15 Pt6 2.632439 1_555
Al15 Li1 2.691633 1_555
Al15 Li2 2.691636 1_555
Al15 Li0 2.706782 1_555
Al15 Al4 2.843873 1_655
Al15 Al6 2.880307 1_655
Al15 Al5 2.880308 1_655
In0 Li0 2.916765 1_466
In0 Li2 2.927608 1_456
In0 Li1 2.927614 1_465
In0 Li4 2.927766 1_565
In0 Li3 2.927766 1_556
