# generated using pymatgen
data_Zr10Zn2(InTe)3
_symmetry_space_group_name_H-M   'P 1'
_cell_length_a   8.66610048
_cell_length_b   8.66610137
_cell_length_c   5.85691623
_cell_angle_alpha   90.00000000
_cell_angle_beta   90.00000000
_cell_angle_gamma   119.99999663
_symmetry_Int_Tables_number   1
_chemical_formula_structural   Zr10Zn2(InTe)3
_chemical_formula_sum   'Zr10 Zn2 In3 Te3'
_cell_volume   380.93172574
_cell_formula_units_Z   1
loop_
 _symmetry_equiv_pos_site_id
 _symmetry_equiv_pos_as_xyz
  1  'x, y, z'
loop_
 _atom_site_type_symbol
 _atom_site_label
 _atom_site_symmetry_multiplicity
 _atom_site_fract_x
 _atom_site_fract_y
 _atom_site_fract_z
 _atom_site_occupancy
  Zr  Zr0  1  0.74017529  0.74017529  0.25000000  1
  Zr  Zr1  1  0.25982471  0.00000000  0.25000000  1
  Zr  Zr2  1  0.00000000  0.25982471  0.25000000  1
  Zr  Zr3  1  0.27574854  0.27574854  0.75000000  1
  Zr  Zr4  1  0.72425146  0.00000000  0.75000000  1
  Zr  Zr5  1  1.00000000  0.72425146  0.75000000  1
  Zr  Zr6  1  0.66666700  0.33333300  0.50476654  1
  Zr  Zr7  1  0.33333300  0.66666700  0.50476654  1
  Zr  Zr8  1  0.33333300  0.66666700  0.99523346  1
  Zr  Zr9  1  0.66666700  0.33333300  0.99523346  1
  Zn  Zn0  1  0.00000000  0.00000000  0.52193405  1
  Zn  Zn1  1  0.00000000  0.00000000  0.97806595  1
  In  In0  1  0.62280930  0.62280930  0.75000000  1
  In  In1  1  0.37719070  0.00000000  0.75000000  1
  In  In2  1  0.00000000  0.37719070  0.75000000  1
  Te  Te0  1  0.39144880  0.39144880  0.25000000  1
  Te  Te1  1  0.60855120  0.00000000  0.25000000  1
  Te  Te2  1  1.00000000  0.60855120  0.25000000  1
loop_
_geom_bond_atom_site_label_1
_geom_bond_atom_site_label_2
_geom_bond_distance
_geom_bond_site_symmetry_2
Zr6 Zr9 2.872624 1_555
Zr6 Zr9 2.984293 1_554
Zr7 Zr8 2.872624 1_555
Zr7 Zr8 2.984293 1_554
Zn0 Zn1 2.671526 1_555
Zn0 Zr4 2.737656 1_455
Zn0 Zr5 2.737656 1_445
Zn0 Zr3 2.737656 1_555
Zn0 Zr1 2.758021 1_555
Zn0 Zr2 2.758022 1_555
Zn0 Zr0 2.758022 1_445
Zn1 Zr4 2.737656 1_455
Zn1 Zr5 2.737656 1_445
Zn1 Zr3 2.737656 1_555
Zn1 Zr1 2.758021 1_556
Zn1 Zr2 2.758022 1_556
Zn1 Zr0 2.758022 1_446
In0 Zr5 2.929864 1_555
In0 Zr4 2.929864 1_565
In0 Zr3 3.007664 1_555
In0 Zr8 3.074759 1_555
In0 Zr7 3.074759 1_555
In0 Zr9 3.074760 1_555
In0 Zr6 3.074760 1_555
In0 Zr0 3.100060 1_556
In0 Zr0 3.100060 1_555
In1 Zr5 2.929864 1_445
In1 Zr3 2.929864 1_555
In1 Zr4 3.007663 1_555
In1 Zr8 3.074752 1_545
In1 Zr7 3.074752 1_545
In1 Zr9 3.074755 1_555
In1 Zr6 3.074755 1_555
In1 Zr1 3.100060 1_555
In1 Zr1 3.100060 1_556
In2 Zr3 2.929864 1_555
In2 Zr4 2.929864 1_455
In2 Zr5 3.007664 1_455
In2 Zr9 3.074752 1_455
In2 Zr6 3.074752 1_455
In2 Zr8 3.074755 1_555
In2 Zr7 3.074755 1_555
In2 Zr2 3.100060 1_556
In2 Zr2 3.100060 1_555
Te0 Zr2 2.989905 1_555
Te0 Zr1 2.989905 1_555
Te0 Zr0 3.022099 1_555
Te0 Zr6 3.061031 1_555
Te0 Zr9 3.061031 1_554
Te0 Zr7 3.061032 1_555
Te0 Zr8 3.061032 1_554
Te0 Zr3 3.095354 1_554
Te0 Zr3 3.095354 1_555
Te1 Zr0 2.989905 1_545
Te1 Zr2 2.989905 1_655
Te1 Zr1 3.022099 1_555
Te1 Zr6 3.061024 1_555
Te1 Zr9 3.061024 1_554
Te1 Zr7 3.061027 1_545
Te1 Zr8 3.061027 1_544
Te1 Zr4 3.095354 1_555
Te1 Zr4 3.095354 1_554
Te2 Zr0 2.989905 1_555
Te2 Zr1 2.989905 1_665
Te2 Zr2 3.022099 1_655
Te2 Zr7 3.061024 1_655
Te2 Zr8 3.061024 1_654
Te2 Zr6 3.061027 1_555
Te2 Zr9 3.061027 1_554
Te2 Zr5 3.095354 1_555
Te2 Zr5 3.095354 1_554
