# generated using pymatgen
data_Ti6Si6Os5Ru7
_symmetry_space_group_name_H-M   'P 1'
_cell_length_a   4.23351045
_cell_length_b   5.98614684
_cell_length_c   12.69592607
_cell_angle_alpha   90.01198168
_cell_angle_beta   90.00019441
_cell_angle_gamma   90.00005156
_symmetry_Int_Tables_number   1
_chemical_formula_structural   Ti6Si6Os5Ru7
_chemical_formula_sum   'Ti6 Si6 Os5 Ru7'
_cell_volume   321.74542241
_cell_formula_units_Z   1
loop_
 _symmetry_equiv_pos_site_id
 _symmetry_equiv_pos_as_xyz
  1  'x, y, z'
loop_
 _atom_site_type_symbol
 _atom_site_label
 _atom_site_symmetry_multiplicity
 _atom_site_fract_x
 _atom_site_fract_y
 _atom_site_fract_z
 _atom_site_occupancy
  Ti  Ti0  1  0.00000303  0.49995188  0.99793865  1
  Ti  Ti1  1  0.49985729  0.99900709  0.16757262  1
  Ti  Ti2  1  0.99984982  0.50208048  0.33542251  1
  Ti  Ti3  1  0.50000265  0.99899819  0.50124162  1
  Ti  Ti4  1  0.00015179  0.49998891  0.66653946  1
  Ti  Ti5  1  0.50015490  0.99997395  0.83128024  1
  Si  Si0  1  0.00000032  0.00010508  0.00007482  1
  Si  Si1  1  0.49984112  0.49977470  0.16656455  1
  Si  Si2  1  0.99983813  0.00065599  0.33328624  1
  Si  Si3  1  0.49999787  0.49946939  0.50010808  1
  Si  Si4  1  0.00015710  0.00001459  0.66652461  1
  Si  Si5  1  0.50015324  0.50001155  0.83345040  1
  Os  Os0  1  0.49999814  0.24909140  0.99944170  1
  Os  Os1  1  0.50000114  0.75059245  0.99904307  1
  Os  Os2  1  0.99986828  0.25109451  0.16681222  1
  Os  Os3  1  0.99986444  0.74906098  0.16693213  1
  Os  Os4  1  0.49987371  0.25042264  0.33433935  1
  Ru  Ru0  1  0.49986192  0.75035152  0.33425317  1
  Ru  Ru1  1  0.00000050  0.24948047  0.50080950  1
  Ru  Ru2  1  0.99999940  0.75053808  0.50066997  1
  Ru  Ru3  1  0.50013023  0.25056412  0.66633504  1
  Ru  Ru4  1  0.50014127  0.74896930  0.66664378  1
  Ru  Ru5  1  0.00012527  0.24929559  0.83236982  1
  Ru  Ru6  1  0.00012742  0.75050912  0.83234845  1
loop_
_geom_bond_atom_site_label_1
_geom_bond_atom_site_label_2
_geom_bond_distance
_geom_bond_site_symmetry_2
Os0 Si5 2.588176 1_555
Os0 Si0 2.588856 1_556
Os0 Si0 2.588873 1_656
Os0 Ti0 2.595383 1_555
Os0 Ti0 2.595415 1_655
Os0 Si1 2.598557 1_556
Os0 Ti5 2.603955 1_545
Os0 Ti1 2.607468 1_546
Os1 Si5 2.582365 1_555
Os1 Si0 2.590694 1_666
Os1 Si0 2.590702 1_566
Os1 Ti0 2.594593 1_555
Os1 Ti0 2.594609 1_655
Os1 Ti5 2.601226 1_555
Os1 Si1 2.603667 1_556
Os1 Ti1 2.605385 1_556
Os2 Si1 2.587704 1_655
Os2 Si1 2.587894 1_555
Os2 Si2 2.591500 1_555
Os2 Si0 2.595623 1_655
Os2 Ti1 2.599565 1_645
Os2 Ti1 2.599639 1_545
Os2 Ti0 2.610995 1_654
Os2 Ti2 2.615037 1_555
Os3 Si1 2.589809 1_655
Os3 Si1 2.589968 1_555
Os3 Ti1 2.592149 1_655
Os3 Ti1 2.592201 1_555
Os3 Si2 2.593759 1_565
Os3 Si0 2.597567 1_665
Os3 Ti2 2.600595 1_555
Os3 Ti0 2.612593 1_654
Os4 Si3 2.578866 1_555
Os4 Si2 2.591454 1_555
Os4 Si2 2.591698 1_455
Os4 Ti1 2.597404 1_545
Os4 Ti2 2.598042 1_555
Os4 Ti2 2.598209 1_455
Os4 Ti3 2.599350 1_545
Os4 Si1 2.601249 1_555
Ru0 Ti2 2.586392 1_555
Ru0 Ti2 2.586473 1_455
Ru0 Si3 2.586634 1_555
Ru0 Ti1 2.587483 1_555
Ru0 Ti3 2.590141 1_555
Ru0 Si2 2.593349 1_565
Ru0 Si2 2.593516 1_465
Ru0 Si1 2.604057 1_555
Ru1 Si4 2.580271 1_555
Ru1 Ti4 2.583532 1_555
Ru1 Ti2 2.587796 1_455
Ru1 Si3 2.592317 1_555
Ru1 Si3 2.592338 1_455
Ru1 Ti3 2.594015 1_445
Ru1 Ti3 2.594032 1_545
Ru1 Si2 2.596311 1_455
Ru2 Ti2 2.571428 1_555
Ru2 Si4 2.581244 1_665
Ru2 Ti4 2.585627 1_655
Ru2 Ti3 2.587038 1_555
Ru2 Ti3 2.587058 1_655
Ru2 Si3 2.596052 1_655
Ru2 Si3 2.596061 1_555
Ru2 Si2 2.599823 1_565
Ru3 Ti5 2.576220 1_545
Ru3 Ti3 2.580644 1_545
Ru3 Si3 2.583636 1_555
Ru3 Ti4 2.590291 1_555
Ru3 Ti4 2.590437 1_655
Ru3 Si4 2.594157 1_555
Ru3 Si5 2.594215 1_555
Ru3 Si4 2.594345 1_655
Ru4 Ti5 2.573972 1_555
Ru4 Ti3 2.578987 1_555
Ru4 Si3 2.588382 1_555
Ru4 Ti4 2.588793 1_555
Ru4 Ti4 2.588868 1_655
Ru4 Si5 2.589833 1_555
Ru4 Si4 2.595914 1_565
Ru4 Si4 2.596021 1_665
Ru5 Si4 2.580469 1_555
Ru5 Ti0 2.582381 1_555
Ru5 Ti4 2.585723 1_555
Ru5 Ti5 2.589939 1_445
Ru5 Ti5 2.590146 1_545
Ru5 Si5 2.594765 1_455
Ru5 Si5 2.594956 1_555
Ru5 Si0 2.599969 1_556
Ru6 Si4 2.581534 1_565
Ru6 Ti0 2.582768 1_555
Ru6 Ti4 2.584390 1_555
Ru6 Ti5 2.590444 1_455
Ru6 Ti5 2.590632 1_555
Ru6 Si5 2.594019 1_455
Ru6 Si5 2.594200 1_555
Ru6 Si0 2.601073 1_566
