# generated using pymatgen
data_Sn3Rh2Se3
_symmetry_space_group_name_H-M   'P 1'
_cell_length_a   9.00454119
_cell_length_b   9.00454179
_cell_length_c   9.00454155
_cell_angle_alpha   90.02227323
_cell_angle_beta   90.02227496
_cell_angle_gamma   90.02227335
_symmetry_Int_Tables_number   1
_chemical_formula_structural   Sn3Rh2Se3
_chemical_formula_sum   'Sn12 Rh8 Se12'
_cell_volume   730.10397815
_cell_formula_units_Z   4
loop_
 _symmetry_equiv_pos_site_id
 _symmetry_equiv_pos_as_xyz
  1  'x, y, z'
loop_
 _atom_site_type_symbol
 _atom_site_label
 _atom_site_symmetry_multiplicity
 _atom_site_fract_x
 _atom_site_fract_y
 _atom_site_fract_z
 _atom_site_occupancy
  Sn  Sn0  1  0.50109385  0.34887976  0.16673737  1
  Sn  Sn1  1  0.16673737  0.50109385  0.34887976  1
  Sn  Sn2  1  0.34887976  0.16673737  0.50109385  1
  Sn  Sn3  1  0.49890615  0.65112024  0.83326263  1
  Sn  Sn4  1  0.83326263  0.49890615  0.65112024  1
  Sn  Sn5  1  0.65112024  0.83326263  0.49890615  1
  Sn  Sn6  1  0.99887746  0.84810195  0.33434609  1
  Sn  Sn7  1  0.33434609  0.99887746  0.84810195  1
  Sn  Sn8  1  0.84810195  0.33434609  0.99887746  1
  Sn  Sn9  1  0.00112254  0.15189805  0.66565391  1
  Sn  Sn10  1  0.66565391  0.00112254  0.15189805  1
  Sn  Sn11  1  0.15189805  0.66565391  0.00112254  1
  Rh  Rh0  1  0.24605095  0.24605095  0.24605095  1
  Rh  Rh1  1  0.75394905  0.75394905  0.75394905  1
  Rh  Rh2  1  0.24455478  0.74585757  0.74445138  1
  Rh  Rh3  1  0.74445138  0.24455478  0.74585757  1
  Rh  Rh4  1  0.74585757  0.74445138  0.24455478  1
  Rh  Rh5  1  0.75544522  0.25414243  0.25554862  1
  Rh  Rh6  1  0.25554862  0.75544522  0.25414243  1
  Rh  Rh7  1  0.25414243  0.25554862  0.75544522  1
  Se  Se0  1  0.65268216  0.99752355  0.85159451  1
  Se  Se1  1  0.85159451  0.65268216  0.99752355  1
  Se  Se2  1  0.99752355  0.85159451  0.65268216  1
  Se  Se3  1  0.34731784  0.00247645  0.14840549  1
  Se  Se4  1  0.14840549  0.34731784  0.00247645  1
  Se  Se5  1  0.00247645  0.14840549  0.34731784  1
  Se  Se6  1  0.15246240  0.49927055  0.64904532  1
  Se  Se7  1  0.64904532  0.15246240  0.49927055  1
  Se  Se8  1  0.49927055  0.64904532  0.15246240  1
  Se  Se9  1  0.84753760  0.50072945  0.35095468  1
  Se  Se10  1  0.35095468  0.84753760  0.50072945  1
  Se  Se11  1  0.50072945  0.35095468  0.84753760  1
loop_
_geom_bond_atom_site_label_1
_geom_bond_atom_site_label_2
_geom_bond_distance
_geom_bond_site_symmetry_2
Rh0 Se5 2.532927 1_555
Rh0 Se4 2.532927 1_555
Rh0 Se3 2.532927 1_555
Rh0 Sn0 2.577139 1_555
Rh0 Sn2 2.577140 1_555
Rh0 Sn1 2.577140 1_555
Rh1 Se2 2.532927 1_555
Rh1 Se1 2.532927 1_555
Rh1 Se0 2.532927 1_555
Rh1 Sn3 2.577139 1_555
Rh1 Sn5 2.577140 1_555
Rh1 Sn4 2.577140 1_555
Rh2 Se6 2.520398 1_555
Rh2 Se2 2.556981 1_455
Rh2 Sn11 2.561578 1_556
Rh2 Se10 2.564179 1_555
Rh2 Sn3 2.571659 1_555
Rh2 Sn7 2.590738 1_555
Rh3 Se7 2.520398 1_555
Rh3 Se0 2.556981 1_545
Rh3 Sn9 2.561578 1_655
Rh3 Se11 2.564179 1_555
Rh3 Sn4 2.571659 1_555
Rh3 Sn8 2.590738 1_555
Rh4 Se8 2.520398 1_555
Rh4 Se1 2.556981 1_554
Rh4 Sn10 2.561578 1_565
Rh4 Se9 2.564179 1_555
Rh4 Sn5 2.571659 1_555
Rh4 Sn6 2.590738 1_555
Rh5 Se9 2.520398 1_555
Rh5 Se5 2.556981 1_655
Rh5 Sn8 2.561578 1_554
Rh5 Se7 2.564179 1_555
Rh5 Sn0 2.571659 1_555
Rh5 Sn10 2.590738 1_555
Rh6 Se10 2.520398 1_555
Rh6 Se3 2.556981 1_565
Rh6 Sn6 2.561578 1_455
Rh6 Se8 2.564179 1_555
Rh6 Sn1 2.571659 1_555
Rh6 Sn11 2.590738 1_555
Rh7 Se11 2.520398 1_555
Rh7 Se4 2.556981 1_556
Rh7 Sn7 2.561578 1_545
Rh7 Se6 2.564179 1_555
Rh7 Sn2 2.571659 1_555
Rh7 Sn9 2.590738 1_555
Se0 Sn10 2.706753 1_566
Se0 Sn7 2.866661 1_555
Se1 Sn11 2.706753 1_656
Se1 Sn8 2.866661 1_555
Se2 Sn9 2.706753 1_665
Se2 Sn6 2.866661 1_555
Se3 Sn7 2.706753 1_544
Se3 Sn10 2.866661 1_555
Se4 Sn8 2.706753 1_454
Se4 Sn11 2.866661 1_555
Se5 Sn6 2.706753 1_445
Se5 Sn9 2.866661 1_555
Se6 Sn1 2.706014 1_555
Se6 Sn4 2.874316 1_455
Se7 Sn2 2.706014 1_555
Se7 Sn5 2.874316 1_545
Se8 Sn0 2.706014 1_555
Se8 Sn3 2.874316 1_554
Se9 Sn4 2.706014 1_555
Se9 Sn1 2.874316 1_655
Se10 Sn5 2.706014 1_555
Se10 Sn2 2.874316 1_565
Se11 Sn3 2.706014 1_555
Se11 Sn0 2.874316 1_556
