# generated using pymatgen
data_Zr6Ta3Al13Ir7
_symmetry_space_group_name_H-M   'P 1'
_cell_length_a   8.78510024
_cell_length_b   8.78510143
_cell_length_c   8.78510017
_cell_angle_alpha   59.89838628
_cell_angle_beta   59.89838125
_cell_angle_gamma   59.89838656
_symmetry_Int_Tables_number   1
_chemical_formula_structural   Zr6Ta3Al13Ir7
_chemical_formula_sum   'Zr6 Ta3 Al13 Ir7'
_cell_volume   478.32476712
_cell_formula_units_Z   1
loop_
 _symmetry_equiv_pos_site_id
 _symmetry_equiv_pos_as_xyz
  1  'x, y, z'
loop_
 _atom_site_type_symbol
 _atom_site_label
 _atom_site_symmetry_multiplicity
 _atom_site_fract_x
 _atom_site_fract_y
 _atom_site_fract_z
 _atom_site_occupancy
  Zr  Zr0  1  0.69084988  0.69084988  0.30614567  1
  Zr  Zr1  1  0.31251626  0.68594077  0.31251626  1
  Zr  Zr2  1  0.68594077  0.31251626  0.31251626  1
  Zr  Zr3  1  0.31251626  0.31251626  0.68594077  1
  Zr  Zr4  1  0.69084988  0.30614567  0.69084988  1
  Zr  Zr5  1  0.30614567  0.69084988  0.69084988  1
  Ta  Ta0  1  0.87842555  0.87842555  0.36210988  1
  Ta  Ta1  1  0.87842555  0.36210988  0.87842555  1
  Ta  Ta2  1  0.36210988  0.87842555  0.87842555  1
  Al  Al0  1  0.88073490  0.88073490  0.88073490  1
  Al  Al1  1  0.11973702  0.11973702  0.63560530  1
  Al  Al2  1  0.11973702  0.63560530  0.11973702  1
  Al  Al3  1  0.63560530  0.11973702  0.11973702  1
  Al  Al4  1  0.12271872  0.12271872  0.12271872  1
  Al  Al5  1  0.66480434  0.66480434  0.01465264  1
  Al  Al6  1  0.66480434  0.01465264  0.66480434  1
  Al  Al7  1  0.01465264  0.66480434  0.66480434  1
  Al  Al8  1  0.65731754  0.65731754  0.65731754  1
  Al  Al9  1  0.33762703  0.33762703  0.98931979  1
  Al  Al10  1  0.33762703  0.98931979  0.33762703  1
  Al  Al11  1  0.98931979  0.33762703  0.33762703  1
  Al  Al12  1  0.33658891  0.33658891  0.33658891  1
  Ir  Ir0  1  0.00217453  0.00217453  0.00217453  1
  Ir  Ir1  1  0.99871257  0.99871257  0.49600379  1
  Ir  Ir2  1  0.50426988  0.99680350  0.50426988  1
  Ir  Ir3  1  0.99680350  0.50426988  0.50426988  1
  Ir  Ir4  1  0.50426988  0.50426988  0.99680350  1
  Ir  Ir5  1  0.99871257  0.49600379  0.99871257  1
  Ir  Ir6  1  0.49600379  0.99871257  0.99871257  1
loop_
_geom_bond_atom_site_label_1
_geom_bond_atom_site_label_2
_geom_bond_distance
_geom_bond_site_symmetry_2
Zr0 Zr1 3.317641 1_555
Zr0 Zr2 3.317641 1_555
Zr0 Zr5 3.374473 1_555
Zr0 Zr4 3.374473 1_555
Zr1 Zr3 3.275532 1_555
Zr1 Zr2 3.275532 1_555
Zr1 Zr5 3.317641 1_555
Zr2 Zr3 3.275532 1_555
Zr2 Zr4 3.317641 1_555
Zr3 Zr4 3.317641 1_555
Zr3 Zr5 3.317641 1_555
Zr4 Zr5 3.374473 1_555
Ta0 Zr0 3.165727 1_555
Ta0 Zr1 3.193156 1_655
Ta0 Zr2 3.193156 1_565
Ta1 Zr4 3.165727 1_555
Ta1 Zr2 3.193156 1_556
Ta1 Zr3 3.193156 1_655
Ta2 Zr5 3.165727 1_555
Ta2 Zr1 3.193156 1_556
Ta2 Zr3 3.193156 1_565
Al0 Ir0 2.615266 1_666
Al0 Ir1 2.760799 1_555
Al0 Ir6 2.760799 1_555
Al0 Ir5 2.760799 1_555
Al0 Al6 2.777311 1_565
Al0 Al7 2.777311 1_655
Al0 Al5 2.777311 1_556
Al0 Al1 2.967456 1_665
Al0 Al3 2.967456 1_566
Al0 Al2 2.967456 1_656
Al0 Zr0 3.133212 1_556
Al0 Zr5 3.133212 1_655
Al0 Zr4 3.133212 1_565
Al1 Ir0 2.627083 1_556
Al1 Ir1 2.741295 1_445
Al1 Ir2 2.755040 1_545
Al1 Ir3 2.755041 1_455
Al1 Al10 2.758953 1_545
Al1 Al11 2.758954 1_455
Al1 Al12 2.785676 1_555
Al1 Ta1 3.011754 1_455
Al1 Ta2 3.011754 1_545
Al1 Zr4 3.144450 1_455
Al1 Zr5 3.144451 1_545
Al1 Zr3 3.211145 1_555
Al2 Ir0 2.627084 1_565
Al2 Ir5 2.741295 1_454
Al2 Ir3 2.755040 1_455
Al2 Ir4 2.755040 1_554
Al2 Al9 2.758954 1_554
Al2 Ta2 3.011754 1_554
Al2 Ta0 3.011754 1_455
Al2 Zr5 3.144450 1_554
Al2 Zr0 3.144450 1_455
Al2 Zr1 3.211145 1_555
Al3 Ir0 2.627083 1_655
Al3 Ir6 2.741295 1_544
Al3 Ir2 2.755040 1_545
Al3 Ir4 2.755041 1_554
Al3 Al9 2.758954 1_554
Al3 Ta1 3.011754 1_554
Al3 Ta0 3.011754 1_545
Al3 Zr4 3.144450 1_554
Al3 Zr0 3.144451 1_545
Al3 Zr2 3.211145 1_555
Al4 Ir0 2.595982 1_555
Al4 Ir1 2.674165 1_445
Al4 Ir6 2.674165 1_544
Al4 Ir5 2.674165 1_454
Al4 Al9 2.763898 1_554
Al4 Ta0 3.033169 1_445
Al4 Ta2 3.033169 1_544
Al4 Ta1 3.033169 1_454
Al4 Zr3 3.199599 1_554
Al4 Zr2 3.199599 1_455
Al4 Zr1 3.199600 1_545
Al5 Ir5 2.501295 1_554
Al5 Ir6 2.501295 1_554
Al5 Ir4 2.537968 1_554
Al5 Zr0 2.808983 1_555
Al5 Ta2 2.821190 1_554
Al5 Ta1 2.821190 1_554
Al5 Zr1 2.871888 1_555
Al5 Zr2 2.871889 1_555
Al6 Ir6 2.501295 1_545
Al6 Ir1 2.501295 1_545
Al6 Ir2 2.537967 1_545
Al6 Zr4 2.808983 1_555
Al6 Ta0 2.821190 1_545
Al6 Ta2 2.821190 1_545
Al6 Zr2 2.871889 1_555
Al6 Zr3 2.871889 1_555
Al7 Ir5 2.501295 1_455
Al7 Ir1 2.501295 1_455
Al7 Ir3 2.537968 1_455
Al7 Zr5 2.808983 1_555
Al7 Ta0 2.821190 1_455
Al7 Ta1 2.821190 1_455
Al7 Zr1 2.871888 1_555
Al7 Zr3 2.871889 1_555
Al8 Ir4 2.505822 1_555
Al8 Ir3 2.505822 1_555
Al8 Ir2 2.505823 1_555
Al8 Ta0 2.819696 1_555
Al8 Ta2 2.819696 1_555
Al8 Ta1 2.819697 1_555
Al8 Zr0 2.820480 1_555
Al8 Zr5 2.820480 1_555
Al8 Zr4 2.820481 1_555
Al9 Ir5 2.553617 1_455
Al9 Ir6 2.553618 1_545
Al9 Ir4 2.575588 1_555
Al9 Zr4 2.878547 1_555
Al9 Zr5 2.878548 1_555
Al9 Zr3 2.903278 1_555
Al10 Ir6 2.553617 1_554
Al10 Ir1 2.553617 1_455
Al10 Ir2 2.575588 1_555
Al10 Al3 2.758953 1_565
Al10 Al4 2.763898 1_565
Al10 Zr5 2.878548 1_555
Al10 Zr0 2.878548 1_555
Al10 Zr1 2.903278 1_555
Al10 Al12 3.041674 1_565
Al10 Al9 3.055213 1_564
Al10 Al11 3.055213 1_465
Al11 Ir5 2.553617 1_554
Al11 Ir1 2.553618 1_545
Al11 Ir3 2.575588 1_555
Al11 Al2 2.758954 1_655
Al11 Al4 2.763898 1_655
Al11 Zr4 2.878547 1_555
Al11 Zr0 2.878548 1_555
Al11 Zr2 2.903278 1_555
Al11 Al12 3.041673 1_655
Al11 Al9 3.055213 1_654
Al12 Ir4 2.570152 1_554
Al12 Ir3 2.570152 1_455
Al12 Ir2 2.570152 1_545
Al12 Al3 2.785676 1_555
Al12 Al2 2.785676 1_555
Al12 Zr3 2.872549 1_555
Al12 Zr2 2.872549 1_555
Al12 Zr1 2.872549 1_555
Al12 Al9 3.041673 1_554
Ir0 Ta0 2.579068 1_445
Ir0 Ta2 2.579069 1_544
Ir0 Ta1 2.579069 1_454
Ir1 Ta0 2.689004 1_555
Ir1 Zr1 3.183632 1_655
Ir1 Zr2 3.183632 1_565
Ir1 Zr4 3.194660 1_565
Ir1 Zr5 3.194660 1_655
Ir2 Ta2 2.683622 1_555
Ir2 Ta0 2.683622 1_555
Ir2 Zr2 3.183460 1_565
Ir2 Zr3 3.183460 1_565
Ir2 Zr5 3.217509 1_555
Ir2 Zr0 3.217509 1_555
Ir3 Ta1 2.683622 1_555
Ir3 Ta0 2.683622 1_555
Ir3 Zr1 3.183460 1_655
Ir3 Zr3 3.183460 1_655
Ir3 Zr4 3.217509 1_555
Ir3 Zr0 3.217509 1_555
Ir4 Ta1 2.683622 1_555
Ir4 Ta2 2.683622 1_555
Ir4 Zr1 3.183460 1_556
Ir4 Zr2 3.183460 1_556
Ir4 Zr4 3.217509 1_555
Ir4 Zr5 3.217509 1_555
Ir5 Ta1 2.689004 1_555
Ir5 Zr2 3.183631 1_556
Ir5 Zr3 3.183631 1_655
Ir5 Zr5 3.194659 1_655
Ir5 Zr0 3.194659 1_556
Ir6 Ta2 2.689004 1_555
Ir6 Zr1 3.183632 1_556
Ir6 Zr3 3.183632 1_565
Ir6 Zr4 3.194660 1_565
Ir6 Zr0 3.194660 1_556
