# generated using pymatgen
data_Zn3(NiSn)2
_symmetry_space_group_name_H-M   'P 1'
_cell_length_a   4.15173961
_cell_length_b   4.15173967
_cell_length_c   15.02620557
_cell_angle_alpha   90.00000000
_cell_angle_beta   90.00000000
_cell_angle_gamma   119.99998443
_symmetry_Int_Tables_number   1
_chemical_formula_structural   Zn3(NiSn)2
_chemical_formula_sum   'Zn6 Ni4 Sn4'
_cell_volume   224.30566756
_cell_formula_units_Z   2
loop_
 _symmetry_equiv_pos_site_id
 _symmetry_equiv_pos_as_xyz
  1  'x, y, z'
loop_
 _atom_site_type_symbol
 _atom_site_label
 _atom_site_symmetry_multiplicity
 _atom_site_fract_x
 _atom_site_fract_y
 _atom_site_fract_z
 _atom_site_occupancy
  Zn  Zn0  1  0.00000000  0.00000000  0.16767581  1
  Zn  Zn1  1  0.00000000  0.00000000  0.83232419  1
  Zn  Zn2  1  0.00000000  0.00000000  0.66767581  1
  Zn  Zn3  1  0.00000000  0.00000000  0.33232419  1
  Zn  Zn4  1  0.33333300  0.66666700  0.75000000  1
  Zn  Zn5  1  0.66666700  0.33333300  0.25000000  1
  Ni  Ni0  1  0.00000000  0.00000000  0.00000000  1
  Ni  Ni1  1  0.00000000  0.00000000  0.50000000  1
  Ni  Ni2  1  0.33333300  0.66666700  0.25000000  1
  Ni  Ni3  1  0.66666700  0.33333300  0.75000000  1
  Sn  Sn0  1  0.33333300  0.66666700  0.07248411  1
  Sn  Sn1  1  0.66666700  0.33333300  0.92751589  1
  Sn  Sn2  1  0.66666700  0.33333300  0.57248411  1
  Sn  Sn3  1  0.33333300  0.66666700  0.42751589  1
loop_
_geom_bond_atom_site_label_1
_geom_bond_atom_site_label_2
_geom_bond_distance
_geom_bond_site_symmetry_2
Zn0 Zn3 2.474040 1_555
Zn0 Zn5 2.697379 1_455
Zn0 Zn5 2.697383 1_555
Zn0 Zn5 2.697383 1_445
Zn1 Zn2 2.474040 1_555
Zn1 Zn4 2.697379 1_545
Zn1 Zn4 2.697383 1_445
Zn1 Zn4 2.697383 1_555
Zn2 Zn4 2.697379 1_545
Zn2 Zn4 2.697383 1_445
Zn2 Zn4 2.697383 1_555
Zn3 Zn5 2.697379 1_455
Zn3 Zn5 2.697383 1_555
Zn3 Zn5 2.697383 1_445
Ni0 Zn0 2.519531 1_555
Ni0 Zn1 2.519531 1_554
Ni0 Sn1 2.632852 1_454
Ni0 Sn0 2.632852 1_545
Ni0 Sn1 2.632855 1_554
Ni0 Sn0 2.632855 1_445
Ni0 Sn0 2.632855 1_555
Ni0 Sn1 2.632855 1_444
Ni1 Zn2 2.519531 1_555
Ni1 Zn3 2.519531 1_555
Ni1 Sn3 2.632852 1_545
Ni1 Sn2 2.632852 1_455
Ni1 Sn2 2.632855 1_555
Ni1 Sn3 2.632855 1_445
Ni1 Sn3 2.632855 1_555
Ni1 Sn2 2.632855 1_445
Ni2 Zn5 2.397006 1_455
Ni2 Zn5 2.397006 1_565
Ni2 Zn5 2.397013 1_555
Ni2 Sn0 2.667390 1_555
Ni2 Sn3 2.667390 1_555
Ni2 Zn3 2.697379 1_565
Ni2 Zn0 2.697379 1_565
Ni2 Zn3 2.697383 1_665
Ni2 Zn0 2.697383 1_665
Ni2 Zn3 2.697383 1_555
Ni2 Zn0 2.697383 1_555
Ni3 Zn4 2.397006 1_655
Ni3 Zn4 2.397006 1_545
Ni3 Zn4 2.397013 1_555
Ni3 Sn2 2.667390 1_555
Ni3 Sn1 2.667390 1_555
Ni3 Zn1 2.697379 1_655
Ni3 Zn2 2.697379 1_655
Ni3 Zn1 2.697383 1_555
Ni3 Zn2 2.697383 1_555
Ni3 Zn1 2.697383 1_665
Ni3 Zn2 2.697383 1_665
Sn0 Zn0 2.791343 1_565
Sn0 Zn0 2.791346 1_665
Sn0 Zn0 2.791346 1_555
Sn1 Zn1 2.791343 1_655
Sn1 Zn1 2.791346 1_555
Sn1 Zn1 2.791346 1_665
Sn2 Zn2 2.791343 1_655
Sn2 Zn2 2.791346 1_555
Sn2 Zn2 2.791346 1_665
Sn3 Zn3 2.791343 1_565
Sn3 Zn3 2.791346 1_665
Sn3 Zn3 2.791346 1_555
