# generated using pymatgen
data_Li3Pb
_symmetry_space_group_name_H-M   'P 1'
_cell_length_a   4.70060405
_cell_length_b   4.70060405
_cell_length_c   4.70060405
_cell_angle_alpha   120.40941329
_cell_angle_beta   120.40941329
_cell_angle_gamma   89.29232618
_symmetry_Int_Tables_number   1
_chemical_formula_structural   Li3Pb
_chemical_formula_sum   'Li3 Pb1'
_cell_volume   72.98174069
_cell_formula_units_Z   1
loop_
 _symmetry_equiv_pos_site_id
 _symmetry_equiv_pos_as_xyz
  1  'x, y, z'
loop_
 _atom_site_type_symbol
 _atom_site_label
 _atom_site_symmetry_multiplicity
 _atom_site_fract_x
 _atom_site_fract_y
 _atom_site_fract_z
 _atom_site_occupancy
  Li  Li0  1  0.75000200  0.25000100  0.50000100  1
  Li  Li1  1  0.25000100  0.75000200  0.50000100  1
  Li  Li2  1  0.50000000  0.50000000  -0.00000000  1
  Pb  Pb0  1  -0.00000000  -0.00000000  -0.00000000  1
loop_
_geom_bond_atom_site_label_1
_geom_bond_atom_site_label_2
_geom_bond_distance
_geom_bond_site_symmetry_2
Li0 Li2 2.872581 1_656
Li0 Pb0 2.872585 1_666
Li0 Pb0 2.872585 1_655
Li0 Li2 2.872589 1_555
Li0 Pb0 2.872589 1_656
Li0 Li2 2.872593 1_545
Li0 Li2 2.872593 1_556
Li0 Pb0 2.872597 1_555
Li1 Li2 2.872581 1_566
Li1 Pb0 2.872585 1_666
Li1 Pb0 2.872585 1_565
Li1 Li2 2.872589 1_555
Li1 Pb0 2.872589 1_566
Li1 Li2 2.872593 1_455
Li1 Li2 2.872593 1_556
Li1 Pb0 2.872597 1_555
Li2 Pb0 3.303239 1_666
Li2 Pb0 3.303239 1_565
Li2 Pb0 3.303239 1_554
Li2 Pb0 3.303239 1_655
Li2 Pb0 3.344292 1_555
Li2 Pb0 3.344292 1_665
