# generated using pymatgen
data_Cs2TiBeTe4
_symmetry_space_group_name_H-M   'P 1'
_cell_length_a   15.62531355
_cell_length_b   13.94517514
_cell_length_c   8.29446888
_cell_angle_alpha   85.26014042
_cell_angle_beta   62.80060574
_cell_angle_gamma   31.93926028
_symmetry_Int_Tables_number   1
_chemical_formula_structural   Cs2TiBeTe4
_chemical_formula_sum   'Cs4 Ti2 Be2 Te8'
_cell_volume   647.14147114
_cell_formula_units_Z   2
loop_
 _symmetry_equiv_pos_site_id
 _symmetry_equiv_pos_as_xyz
  1  'x, y, z'
loop_
 _atom_site_type_symbol
 _atom_site_label
 _atom_site_symmetry_multiplicity
 _atom_site_fract_x
 _atom_site_fract_y
 _atom_site_fract_z
 _atom_site_occupancy
  Cs  Cs0  1  0.82083452  0.82083452  0.17916548  1
  Cs  Cs1  1  0.17916548  0.17916548  0.82083452  1
  Cs  Cs2  1  0.42916548  0.42916548  0.07083452  1
  Cs  Cs3  1  0.07083452  0.07083452  0.42916548  1
  Ti  Ti0  1  0.25000000  0.25000000  0.25000000  1
  Ti  Ti1  1  0.00000000  0.00000000  0.00000000  1
  Be  Be0  1  0.75000000  0.75000000  0.75000000  1
  Be  Be1  1  0.50000000  0.50000000  0.50000000  1
  Te  Te0  1  0.40751083  0.69832520  0.77746790  1
  Te  Te1  1  0.11669707  0.77746790  0.69832520  1
  Te  Te2  1  0.77746790  0.11669707  0.40751083  1
  Te  Te3  1  0.69832520  0.40751083  0.11669707  1
  Te  Te4  1  0.84248917  0.55167480  0.47253210  1
  Te  Te5  1  0.13330293  0.47253210  0.55167480  1
  Te  Te6  1  0.47253210  0.13330293  0.84248917  1
  Te  Te7  1  0.55167480  0.84248917  0.13330293  1
loop_
_geom_bond_atom_site_label_1
_geom_bond_atom_site_label_2
_geom_bond_distance
_geom_bond_site_symmetry_2
Cs0 Te6 3.900905 1_565
Cs0 Te5 3.900912 1_654
Cs0 Te6 4.017780 1_654
Cs0 Te5 4.017783 1_565
Cs0 Te1 4.054903 1_654
Cs0 Te2 4.054906 1_565
Cs0 Te4 4.148720 1_555
Cs0 Te7 4.148725 1_555
Cs1 Te4 3.900905 1_545
Cs1 Te7 3.900908 1_456
Cs1 Te4 4.017776 1_456
Cs1 Te7 4.017784 1_545
Cs1 Te3 4.054892 1_456
Cs1 Te0 4.054894 1_545
Cs1 Te6 4.148709 1_555
Cs1 Te5 4.148714 1_555
Cs2 Te2 3.900905 1_554
Cs2 Te1 3.900912 1_555
Cs2 Te2 4.017780 1_465
Cs2 Te1 4.017783 1_644
Cs2 Te5 4.054903 1_555
Cs2 Te6 4.054906 1_554
Cs2 Te0 4.148720 1_554
Cs2 Te3 4.148725 1_555
Cs3 Te0 3.900905 1_455
Cs3 Te3 3.900908 1_545
Cs3 Te0 4.017776 1_544
Cs3 Te3 4.017784 1_456
Cs3 Te7 4.054892 1_545
Cs3 Te4 4.054894 1_455
Cs3 Te2 4.148709 1_455
Cs3 Te1 4.148714 1_545
Be0 Te5 2.502379 1_655
Be0 Te6 2.502381 1_565
Be0 Te7 2.502385 1_556
Be0 Te4 2.502391 1_555
Be1 Te1 2.502379 1_555
Be1 Te2 2.502381 1_555
Be1 Te3 2.502385 1_555
Be1 Te0 2.502391 1_555
Te0 Ti1 2.593201 1_566
Te1 Ti1 2.593189 1_566
Te2 Ti1 2.593196 1_655
Te3 Ti1 2.593198 1_655
Te4 Ti0 2.593201 1_655
Te5 Ti0 2.593189 1_555
Te6 Ti0 2.593196 1_556
Te7 Ti0 2.593198 1_565
