# generated using pymatgen
data_Sc4Zn4AgRh7
_symmetry_space_group_name_H-M   'P 1'
_cell_length_a   5.98115487
_cell_length_b   5.98116418
_cell_length_c   6.72976440
_cell_angle_alpha   90.00000000
_cell_angle_beta   90.00000000
_cell_angle_gamma   88.98414398
_symmetry_Int_Tables_number   1
_chemical_formula_structural   Sc4Zn4AgRh7
_chemical_formula_sum   'Sc4 Zn4 Ag1 Rh7'
_cell_volume   240.71456406
_cell_formula_units_Z   1
loop_
 _symmetry_equiv_pos_site_id
 _symmetry_equiv_pos_as_xyz
  1  'x, y, z'
loop_
 _atom_site_type_symbol
 _atom_site_label
 _atom_site_symmetry_multiplicity
 _atom_site_fract_x
 _atom_site_fract_y
 _atom_site_fract_z
 _atom_site_occupancy
  Sc  Sc0  1  0.75877796  0.25875057  0.99444174  1
  Sc  Sc1  1  0.24122004  0.74124943  0.99444174  1
  Sc  Sc2  1  0.75872840  0.25875434  0.50556147  1
  Sc  Sc3  1  0.24126960  0.74124566  0.50556447  1
  Zn  Zn0  1  0.24871240  0.25128929  0.99416814  1
  Zn  Zn1  1  0.75128760  0.74871071  0.99416814  1
  Zn  Zn2  1  0.24872613  0.25128304  0.50582845  1
  Zn  Zn3  1  0.75127487  0.74871696  0.50583645  1
  Ag  Ag0  1  0.49999900  0.00000000  0.24997043  1
  Rh  Rh0  1  0.49999900  0.49999600  0.24999716  1
  Rh  Rh1  1  0.00000000  0.00000000  0.25000564  1
  Rh  Rh2  1  0.00000000  0.50000400  0.25000763  1
  Rh  Rh3  1  0.00000000  0.00000000  0.74999750  1
  Rh  Rh4  1  0.00000000  0.49999600  0.74999531  1
  Rh  Rh5  1  0.50000100  0.00000000  0.75000621  1
  Rh  Rh6  1  0.50000100  0.50000400  0.75000552  1
loop_
_geom_bond_atom_site_label_1
_geom_bond_atom_site_label_2
_geom_bond_distance
_geom_bond_site_symmetry_2
Sc0 Zn0 2.929923 1_655
Sc0 Zn1 2.930081 1_555
Sc0 Zn1 3.051756 1_545
Sc0 Zn0 3.051899 1_555
Sc1 Zn1 2.929911 1_455
Sc1 Zn0 2.930081 1_555
Sc1 Zn0 3.051756 1_565
Sc1 Zn1 3.051911 1_555
Sc2 Zn3 2.930096 1_555
Sc2 Zn2 2.930301 1_655
Sc2 Zn2 3.051522 1_555
Sc2 Zn3 3.051734 1_545
Sc3 Zn2 2.930096 1_555
Sc3 Zn3 2.930283 1_455
Sc3 Zn3 3.051540 1_555
Sc3 Zn2 3.051734 1_565
Ag0 Zn0 2.720552 1_554
Ag0 Zn1 2.720558 1_544
Ag0 Zn2 2.720724 1_555
Ag0 Zn3 2.720768 1_545
Ag0 Sc1 2.798742 1_544
Ag0 Sc0 2.798742 1_554
Ag0 Sc2 2.798846 1_555
Ag0 Sc3 2.798859 1_545
Ag0 Rh0 2.990558 1_555
Ag0 Rh1 2.990571 1_555
Ag0 Rh1 2.990583 1_655
Ag0 Rh0 2.990606 1_545
Rh0 Sc2 2.712116 1_555
Rh0 Sc3 2.712154 1_555
Rh0 Sc0 2.712256 1_554
Rh0 Sc1 2.712281 1_554
Rh0 Zn2 2.741372 1_555
Rh0 Zn0 2.741387 1_554
Rh0 Zn1 2.741420 1_554
Rh0 Zn3 2.741442 1_555
Rh1 Sc1 2.712118 1_544
Rh1 Sc0 2.712125 1_454
Rh1 Sc2 2.712257 1_455
Rh1 Sc3 2.712264 1_545
Rh1 Zn2 2.741413 1_555
Rh1 Zn3 2.741444 1_445
Rh1 Zn0 2.741451 1_554
Rh1 Zn1 2.741451 1_444
Rh2 Sc1 2.682444 1_554
Rh2 Sc0 2.682477 1_454
Rh2 Sc3 2.682555 1_555
Rh2 Sc2 2.682575 1_455
Rh2 Zn1 2.704008 1_454
Rh2 Zn2 2.704019 1_555
Rh2 Zn3 2.704024 1_455
Rh2 Zn0 2.704034 1_554
Rh3 Sc1 2.665291 1_545
Rh3 Sc0 2.665298 1_455
Rh3 Sc3 2.665415 1_545
Rh3 Sc2 2.665434 1_455
Rh3 Zn3 2.692816 1_445
Rh3 Zn0 2.692834 1_555
Rh3 Zn1 2.692834 1_445
Rh3 Zn2 2.692852 1_555
Rh4 Sc0 2.635097 1_455
Rh4 Sc1 2.635117 1_555
Rh4 Sc2 2.635197 1_455
Rh4 Sc3 2.635205 1_555
Rh4 Zn0 2.654706 1_555
Rh4 Zn1 2.654732 1_455
Rh4 Zn3 2.654737 1_455
Rh4 Zn2 2.654747 1_555
Rh5 Zn3 2.671641 1_545
Rh5 Zn1 2.671671 1_545
Rh5 Zn2 2.671677 1_555
Rh5 Zn0 2.671678 1_555
Rh5 Sc2 2.753376 1_555
Rh5 Sc3 2.753377 1_545
Rh5 Sc0 2.753495 1_555
Rh5 Sc1 2.753509 1_545
Rh6 Sc3 2.665281 1_555
Rh6 Sc2 2.665305 1_555
Rh6 Sc1 2.665442 1_555
Rh6 Sc0 2.665454 1_555
Rh6 Zn1 2.692773 1_555
Rh6 Zn3 2.692777 1_555
Rh6 Zn0 2.692806 1_555
Rh6 Zn2 2.692840 1_555
