# generated using pymatgen
data_Cs6ScTe4Br
_symmetry_space_group_name_H-M   'P 1'
_cell_length_a   12.14197605
_cell_length_b   12.14266431
_cell_length_c   9.09392222
_cell_angle_alpha   90.00000000
_cell_angle_beta   90.00000000
_cell_angle_gamma   120.00165893
_symmetry_Int_Tables_number   1
_chemical_formula_structural   Cs6ScTe4Br
_chemical_formula_sum   'Cs12 Sc2 Te8 Br2'
_cell_volume   1161.12230469
_cell_formula_units_Z   2
loop_
 _symmetry_equiv_pos_site_id
 _symmetry_equiv_pos_as_xyz
  1  'x, y, z'
loop_
 _atom_site_type_symbol
 _atom_site_label
 _atom_site_symmetry_multiplicity
 _atom_site_fract_x
 _atom_site_fract_y
 _atom_site_fract_z
 _atom_site_occupancy
  Cs  Cs0  1  0.13195335  0.86805260  0.51252698  1
  Cs  Cs1  1  0.73609326  0.86804703  0.51251877  1
  Cs  Cs2  1  0.94481608  0.47240252  0.31790659  1
  Cs  Cs3  1  0.52758730  0.47241592  0.31790141  1
  Cs  Cs4  1  0.86804410  0.73609568  0.01251994  1
  Cs  Cs5  1  0.26390674  0.13195297  0.01251877  1
  Cs  Cs6  1  0.52758906  0.05516404  0.31791825  1
  Cs  Cs7  1  0.13195590  0.26390432  0.51251994  1
  Cs  Cs8  1  0.86804665  0.13194740  0.01252698  1
  Cs  Cs9  1  0.05518392  0.52759748  0.81790659  1
  Cs  Cs10  1  0.47241094  0.94483596  0.81791825  1
  Cs  Cs11  1  0.47241270  0.52758408  0.81790141  1
  Sc  Sc0  1  0.66666909  0.33330005  0.71421949  1
  Sc  Sc1  1  0.33333091  0.66669995  0.21421949  1
  Te  Te0  1  0.41480404  0.20737970  0.61391993  1
  Te  Te1  1  0.58519596  0.79262030  0.11391993  1
  Te  Te2  1  0.66635000  0.33300794  0.02369134  1
  Te  Te3  1  0.79256434  0.58520156  0.61397847  1
  Te  Te4  1  0.20743566  0.41479844  0.11397847  1
  Te  Te5  1  0.33365000  0.66699206  0.52369134  1
  Te  Te6  1  0.20733468  0.79262227  0.11396913  1
  Te  Te7  1  0.79266532  0.20737773  0.61396913  1
  Br  Br0  1  0.99999614  0.99999725  0.26953171  1
  Br  Br1  1  0.00000386  0.00000275  0.76953171  1
loop_
_geom_bond_atom_site_label_1
_geom_bond_atom_site_label_2
_geom_bond_distance
_geom_bond_site_symmetry_2
Cs0 Te0 3.933291 1_565
Cs0 Te3 3.933802 1_455
Cs0 Te6 3.956222 1_555
Cs0 Te5 4.236470 1_555
Cs1 Te7 3.933203 1_565
Cs1 Te3 3.933482 1_555
Cs1 Te1 3.956890 1_555
Cs1 Te5 4.232945 1_555
Cs2 Te7 3.882336 1_555
Cs2 Te3 3.882649 1_555
Cs2 Te2 3.966411 1_555
Cs2 Te6 4.040303 1_655
Cs2 Te4 4.040656 1_655
Cs3 Te3 3.882012 1_555
Cs3 Te0 3.882238 1_555
Cs3 Te2 3.964204 1_555
Cs3 Te4 4.039754 1_555
Cs3 Te1 4.040797 1_555
Cs4 Te6 3.932688 1_655
Cs4 Te1 3.933620 1_555
Cs4 Te3 3.956435 1_554
Cs4 Te2 4.239959 1_555
Cs5 Te6 3.933203 1_545
Cs5 Te4 3.933482 1_555
Cs5 Te0 3.956890 1_554
Cs5 Te2 4.232945 1_555
Cs6 Te0 3.881843 1_555
Cs6 Te7 3.882577 1_555
Cs6 Te2 3.961778 1_555
Cs6 Te1 4.040298 1_545
Cs6 Te6 4.040607 1_545
Cs7 Te7 3.932688 1_455
Cs7 Te0 3.933620 1_555
Cs7 Te4 3.956435 1_555
Cs7 Te5 4.239959 1_555
Cs8 Te1 3.933291 1_545
Cs8 Te4 3.933802 1_655
Cs8 Te7 3.956222 1_554
Cs8 Te2 4.236470 1_555
Cs9 Te6 3.882336 1_556
Cs9 Te4 3.882649 1_556
Cs9 Te5 3.966411 1_555
Cs9 Te7 4.040303 1_455
Cs9 Te3 4.040656 1_455
Cs10 Te1 3.881843 1_556
Cs10 Te6 3.882577 1_556
Cs10 Te5 3.961778 1_555
Cs10 Te0 4.040298 1_565
Cs10 Te7 4.040607 1_565
Cs11 Te4 3.882012 1_556
Cs11 Te1 3.882238 1_556
Cs11 Te5 3.964204 1_555
Cs11 Te3 4.039754 1_555
Cs11 Te0 4.040797 1_555
Sc0 Te0 2.801051 1_555
Sc0 Te3 2.801382 1_555
Sc0 Te7 2.801571 1_555
Sc0 Te2 2.814315 1_556
Sc1 Te1 2.801051 1_555
Sc1 Te4 2.801382 1_555
Sc1 Te6 2.801571 1_555
Sc1 Te5 2.814315 1_555
Br0 Cs1 3.547282 1_555
Br0 Cs0 3.547436 1_655
Br0 Cs7 3.547446 1_665
Br0 Cs8 3.628148 1_565
Br0 Cs5 3.628171 1_665
Br0 Cs4 3.628212 1_555
Br1 Cs5 3.547282 1_556
Br1 Cs8 3.547436 1_456
Br1 Cs4 3.547446 1_446
Br1 Cs0 3.628148 1_545
Br1 Cs1 3.628171 1_445
Br1 Cs7 3.628212 1_555
