# generated using pymatgen
data_Ba4Cr(ReO6)2
_symmetry_space_group_name_H-M   'P 1'
_cell_length_a   5.79440416
_cell_length_b   5.79579403
_cell_length_c   9.96030652
_cell_angle_alpha   89.99981213
_cell_angle_beta   73.08784569
_cell_angle_gamma   120.00768071
_symmetry_Int_Tables_number   1
_chemical_formula_structural   Ba4Cr(ReO6)2
_chemical_formula_sum   'Ba4 Cr1 Re2 O12'
_cell_volume   272.82816381
_cell_formula_units_Z   1
loop_
 _symmetry_equiv_pos_site_id
 _symmetry_equiv_pos_as_xyz
  1  'x, y, z'
loop_
 _atom_site_type_symbol
 _atom_site_label
 _atom_site_symmetry_multiplicity
 _atom_site_fract_x
 _atom_site_fract_y
 _atom_site_fract_z
 _atom_site_occupancy
  Ba  Ba0  1  0.57189918  0.28594505  0.14224066  1
  Ba  Ba1  1  0.42039375  0.71019406  0.86928666  1
  Ba  Ba2  1  0.24856770  0.12428358  0.62690586  1
  Ba  Ba3  1  0.74929638  0.87465079  0.37620753  1
  Cr  Cr0  1  0.82157417  0.41078474  0.76736828  1
  Re  Re0  1  0.99832987  0.99916198  0.00233059  1
  Re  Re1  1  0.01501074  0.50750870  0.47762564  1
  O  O0  1  0.77002422  0.60591429  0.62414989  1
  O  O1  1  0.21166293  0.60583248  0.62415226  1
  O  O2  1  0.77002210  0.16410751  0.62414902  1
  O  O3  1  0.23654155  0.37888229  0.38503283  1
  O  O4  1  0.75777497  0.37889721  0.38497075  1
  O  O5  1  0.23654132  0.85767715  0.38503706  1
  O  O6  1  0.08045293  0.81011423  0.10928630  1
  O  O7  1  0.62012249  0.81005634  0.10908926  1
  O  O8  1  0.08045237  0.27032790  0.10928713  1
  O  O9  1  0.91858200  0.20421331  0.87726540  1
  O  O10  1  0.40816825  0.20408198  0.87735278  1
  O  O11  1  0.91858408  0.71436640  0.87726411  1
loop_
_geom_bond_atom_site_label_1
_geom_bond_atom_site_label_2
_geom_bond_distance
_geom_bond_site_symmetry_2
Ba0 O5 2.868246 1_545
Ba0 O3 2.868302 1_555
Ba0 O4 2.868795 1_555
Ba0 O8 2.916057 1_655
Ba0 O6 2.916065 1_655
Ba0 O8 2.917358 1_555
Ba0 O6 2.917374 1_545
Ba0 O7 2.917481 1_555
Ba0 O7 2.917485 1_545
Ba0 O10 3.015335 1_554
Ba0 O9 3.015379 1_554
Ba0 O11 3.015406 1_554
Ba1 O7 2.884026 1_556
Ba1 O6 2.886367 1_556
Ba1 O8 2.886388 1_556
Ba1 O11 2.897837 1_455
Ba1 O9 2.897847 1_455
Ba1 O11 2.898906 1_555
Ba1 O9 2.898919 1_565
Ba1 O10 2.899085 1_555
Ba1 O10 2.899092 1_565
Ba1 O1 2.962525 1_555
Ba1 O0 2.962757 1_555
Ba1 O2 2.962772 1_565
Ba2 O5 2.861151 1_545
Ba2 O3 2.861234 1_555
Ba2 O4 2.863293 1_555
Ba2 O11 2.863706 1_445
Ba2 O9 2.863711 1_455
Ba2 O10 2.864645 1_555
Ba2 O2 2.902997 1_455
Ba2 O0 2.903000 1_445
Ba2 O1 2.904518 1_545
Ba2 O1 2.904531 1_555
Ba2 O2 2.904783 1_555
Ba2 O0 2.904803 1_555
Ba3 O3 2.898352 1_555
Ba3 O5 2.898367 1_555
Ba3 O4 2.899912 1_555
Ba3 O4 2.899995 1_565
Ba3 O5 2.900116 1_655
Ba3 O3 2.900153 1_665
Ba3 O8 2.939331 1_665
Ba3 O6 2.939380 1_655
Ba3 O7 2.942350 1_555
Ba3 O2 2.983073 1_565
Ba3 O0 2.983095 1_555
Ba3 O1 2.983339 1_555
Cr0 O10 1.994052 1_555
Cr0 O9 1.994649 1_555
Cr0 O11 1.994660 1_555
Cr0 O0 1.997226 1_555
Cr0 O2 1.997232 1_555
Cr0 O1 1.997528 1_655
O0 Re1 2.018613 1_655
O1 Re1 2.017728 1_555
O2 Re1 2.018643 1_655
O3 Re1 1.822755 1_555
O4 Re1 1.821541 1_655
O5 Re1 1.822795 1_555
O6 Re0 1.838010 1_455
O7 Re0 1.837472 1_555
O8 Re0 1.838003 1_445
O9 Re0 2.015398 1_546
O10 Re0 2.014605 1_446
O11 Re0 2.015401 1_556
