# generated using pymatgen
data_Lu4SnSb5Rh7
_symmetry_space_group_name_H-M   'P 1'
_cell_length_a   7.49196143
_cell_length_b   7.49196234
_cell_length_c   7.49196175
_cell_angle_alpha   109.50125672
_cell_angle_beta   109.45620806
_cell_angle_gamma   109.45620063
_symmetry_Int_Tables_number   1
_chemical_formula_structural   Lu4SnSb5Rh7
_chemical_formula_sum   'Lu4 Sn1 Sb5 Rh7'
_cell_volume   323.71639341
_cell_formula_units_Z   1
loop_
 _symmetry_equiv_pos_site_id
 _symmetry_equiv_pos_as_xyz
  1  'x, y, z'
loop_
 _atom_site_type_symbol
 _atom_site_label
 _atom_site_symmetry_multiplicity
 _atom_site_fract_x
 _atom_site_fract_y
 _atom_site_fract_z
 _atom_site_occupancy
  Lu  Lu0  1  0.49837087  0.00101496  0.00101496  1
  Lu  Lu1  1  1.00000000  0.50264408  0.00101496  1
  Lu  Lu2  1  0.00000000  0.00101496  0.50264408  1
  Lu  Lu3  1  0.50162913  0.50264408  0.50264408  1
  Sn  Sn0  1  1.00000000  0.31257911  0.31257911  1
  Sb  Sb0  1  0.68429207  0.00153695  0.68583002  1
  Sb  Sb1  1  0.68429207  0.68583002  0.00153695  1
  Sb  Sb2  1  0.00000000  0.67862121  0.67862121  1
  Sb  Sb3  1  0.31570793  0.00153695  0.31724388  1
  Sb  Sb4  1  0.31570793  0.31724388  0.00153695  1
  Rh  Rh0  1  0.00000000  0.99410010  0.99410010  1
  Rh  Rh1  1  0.50000000  0.75116383  0.25116383  1
  Rh  Rh2  1  0.74896937  0.49972576  0.24869613  1
  Rh  Rh3  1  0.25103063  0.75075639  0.49972576  1
  Rh  Rh4  1  0.25103063  0.49972576  0.75075639  1
  Rh  Rh5  1  0.50000000  0.25116383  0.75116383  1
  Rh  Rh6  1  0.74896937  0.24869613  0.49972576  1
loop_
_geom_bond_atom_site_label_1
_geom_bond_atom_site_label_2
_geom_bond_distance
_geom_bond_site_symmetry_2
Lu0 Rh6 3.050474 1_555
Lu0 Rh2 3.050475 1_555
Lu0 Rh1 3.059169 1_545
Lu0 Rh5 3.059169 1_554
Lu0 Rh3 3.066266 1_544
Lu0 Rh4 3.066267 1_544
Lu0 Sb3 3.105329 1_555
Lu0 Sb4 3.105329 1_555
Lu0 Sn0 3.113753 1_555
Lu0 Sb2 3.114209 1_544
Lu0 Sb0 3.116072 1_554
Lu0 Sb1 3.116072 1_545
Lu1 Rh3 3.050474 1_655
Lu1 Rh2 3.050481 1_555
Lu1 Rh1 3.059169 1_655
Lu1 Rh5 3.059169 1_554
Lu1 Rh6 3.066266 1_554
Lu1 Rh4 3.066266 1_654
Lu1 Sb3 3.105335 1_665
Lu1 Sb1 3.105341 1_555
Lu1 Sn0 3.113753 1_555
Lu1 Sb2 3.114209 1_654
Lu1 Sb0 3.116078 1_554
Lu1 Sb4 3.116084 1_655
Lu2 Rh4 3.050475 1_555
Lu2 Rh6 3.050480 1_455
Lu2 Rh1 3.059169 1_445
Lu2 Rh5 3.059169 1_555
Lu2 Rh3 3.066266 1_545
Lu2 Rh2 3.066267 1_445
Lu2 Sb4 3.105335 1_556
Lu2 Sb0 3.105341 1_455
Lu2 Sn0 3.113753 1_455
Lu2 Sb2 3.114209 1_545
Lu2 Sb1 3.116078 1_445
Lu2 Sb3 3.116084 1_555
Lu3 Rh3 3.050474 1_555
Lu3 Rh4 3.050474 1_555
Lu3 Rh1 3.059169 1_555
Lu3 Rh5 3.059169 1_555
Lu3 Rh6 3.066260 1_555
Lu3 Rh2 3.066260 1_555
Lu3 Sb1 3.105335 1_556
Lu3 Sb0 3.105335 1_565
Lu3 Sn0 3.113753 1_455
Lu3 Sb2 3.114209 1_655
Lu3 Sb4 3.116078 1_555
Lu3 Sb3 3.116078 1_555
Rh0 Sb2 2.728188 1_555
Rh0 Sb3 2.732439 1_566
Rh0 Sb0 2.732439 1_465
Rh0 Sb4 2.732439 1_566
Rh0 Sb1 2.732440 1_456
Rh0 Sn0 2.754132 1_466
Rh1 Sb1 2.683803 1_555
Rh1 Sb4 2.683810 1_555
Rh1 Sb3 2.688996 1_565
Rh1 Sb0 2.689003 1_565
Rh2 Sb2 2.666677 1_655
Rh2 Sb4 2.680240 1_555
Rh2 Sb1 2.680253 1_555
Rh2 Sn0 2.708702 1_555
Rh3 Sb2 2.666684 1_555
Rh3 Sb0 2.680239 1_565
Rh3 Sb3 2.680247 1_565
Rh3 Sn0 2.708703 1_455
Rh4 Sb2 2.666684 1_555
Rh4 Sb1 2.680239 1_556
Rh4 Sb4 2.680246 1_556
Rh4 Sn0 2.708703 1_455
Rh5 Sb0 2.683803 1_555
Rh5 Sb3 2.683810 1_555
Rh5 Sb4 2.688996 1_556
Rh5 Sb1 2.689003 1_556
Rh6 Sb2 2.666678 1_655
Rh6 Sb3 2.680240 1_555
Rh6 Sb0 2.680253 1_555
Rh6 Sn0 2.708702 1_555
