# generated using pymatgen
data_Ta6Ti5Nb3P8
_symmetry_space_group_name_H-M   'P 1'
_cell_length_a   7.55590863
_cell_length_b   7.55590824
_cell_length_c   13.74926893
_cell_angle_alpha   76.22309441
_cell_angle_beta   76.22309471
_cell_angle_gamma   26.16447093
_symmetry_Int_Tables_number   1
_chemical_formula_structural   Ta6Ti5Nb3P8
_chemical_formula_sum   'Ta6 Ti5 Nb3 P8'
_cell_volume   335.62772223
_cell_formula_units_Z   1
loop_
 _symmetry_equiv_pos_site_id
 _symmetry_equiv_pos_as_xyz
  1  'x, y, z'
loop_
 _atom_site_type_symbol
 _atom_site_label
 _atom_site_symmetry_multiplicity
 _atom_site_fract_x
 _atom_site_fract_y
 _atom_site_fract_z
 _atom_site_occupancy
  Ta  Ta0  1  0.66274154  0.66274154  0.02875931  1
  Ta  Ta1  1  0.33702579  0.33702579  0.97125281  1
  Ta  Ta2  1  0.99932968  0.99932968  0.66483119  1
  Ta  Ta3  1  0.00118189  0.00118189  0.33510698  1
  Ta  Ta4  1  0.82424153  0.82424153  0.54275509  1
  Ta  Ta5  1  0.99969177  0.99969177  0.00017588  1
  Ti  Ti0  1  0.17722964  0.17722964  0.45757057  1
  Ti  Ti1  1  0.20858466  0.20858466  0.20249845  1
  Ti  Ti2  1  0.79066438  0.79066438  0.79744921  1
  Ti  Ti3  1  0.19736896  0.19736896  0.69061520  1
  Ti  Ti4  1  0.80211605  0.80211605  0.30966586  1
  Nb  Nb0  1  0.42850437  0.42850437  0.17286399  1
  Nb  Nb1  1  0.57085437  0.57085437  0.82767770  1
  Nb  Nb2  1  0.50054428  0.50054428  0.49974777  1
  P  P0  1  0.06600335  0.06600335  0.15168152  1
  P  P1  1  0.93361575  0.93361575  0.84831170  1
  P  P2  1  0.36885383  0.36885383  0.66566307  1
  P  P3  1  0.63167491  0.63167491  0.33605720  1
  P  P4  1  0.36789416  0.36789416  0.39667848  1
  P  P5  1  0.63244589  0.63244589  0.60018963  1
  P  P6  1  0.17945428  0.17945428  0.88634357  1
  P  P7  1  0.81997890  0.81997890  0.11410581  1
loop_
_geom_bond_atom_site_label_1
_geom_bond_atom_site_label_2
_geom_bond_distance
_geom_bond_site_symmetry_2
Nb0 P7 2.600118 1_545
Nb0 P7 2.600118 1_455
Nb0 P0 2.611116 1_565
Nb0 P0 2.611117 1_655
Nb0 P4 2.987171 1_555
Nb1 P6 2.600290 1_565
Nb1 P6 2.600290 1_655
Nb1 P1 2.608848 1_545
Nb1 P1 2.608849 1_455
Nb1 P5 3.036191 1_555
Nb2 P3 2.582011 1_555
Nb2 P2 2.607531 1_555
Nb2 P5 2.643448 1_555
Nb2 P4 2.678383 1_555
P0 Ti1 2.368525 1_555
P0 Ta3 2.468618 1_555
P0 Ta5 2.507233 1_445
P0 Ta0 2.575326 1_455
P0 Ta0 2.575327 1_545
P1 Ti2 2.374066 1_555
P1 Ta2 2.471149 1_555
P1 Ta5 2.509749 1_556
P1 Ta1 2.574606 1_655
P1 Ta1 2.574607 1_565
P2 Ti3 2.462883 1_555
P2 Ti2 2.552086 1_545
P2 Ti2 2.552086 1_455
P2 Ta2 2.569621 1_455
P2 Ta2 2.569622 1_545
P2 Ta4 2.598967 1_545
P2 Ta4 2.598967 1_455
P3 Ti4 2.445555 1_555
P3 Ti1 2.561690 1_565
P3 Ti1 2.561690 1_655
P3 Ta3 2.574291 1_655
P3 Ta3 2.574292 1_565
P3 Ti0 2.591096 1_565
P3 Ti0 2.591096 1_655
P4 Ti4 2.420782 1_545
P4 Ti4 2.420782 1_455
P4 Ta3 2.584335 1_565
P4 Ta3 2.584335 1_655
P4 Ta4 2.596292 1_545
P4 Ta4 2.596292 1_455
P4 Ti0 2.725526 1_555
P5 Ti3 2.442339 1_565
P5 Ti3 2.442339 1_655
P5 Ti0 2.563724 1_565
P5 Ti0 2.563724 1_655
P5 Ta2 2.588965 1_545
P5 Ta2 2.588965 1_455
P5 Ta4 2.739287 1_555
P6 Ti2 2.473912 1_455
P6 Ti2 2.473912 1_545
P6 Ta0 2.565974 1_456
P6 Ta0 2.565974 1_546
P6 Ti3 2.639068 1_555
P6 Ta5 2.725079 1_446
P6 Ta1 2.840160 1_555
P7 Ti1 2.473099 1_655
P7 Ti1 2.473099 1_565
P7 Ta1 2.569980 1_654
P7 Ta1 2.569980 1_564
P7 Ti4 2.636878 1_555
P7 Ta5 2.724925 1_555
P7 Ta0 2.839329 1_555
