# generated using pymatgen
data_Li5ReN4
_symmetry_space_group_name_H-M   'P 1'
_cell_length_a   4.86811796
_cell_length_b   6.60262490
_cell_length_c   6.67871045
_cell_angle_alpha   90.00000000
_cell_angle_beta   90.00000000
_cell_angle_gamma   90.00000000
_symmetry_Int_Tables_number   1
_chemical_formula_structural   Li5ReN4
_chemical_formula_sum   'Li10 Re2 N8'
_cell_volume   214.66949464
_cell_formula_units_Z   2
loop_
 _symmetry_equiv_pos_site_id
 _symmetry_equiv_pos_as_xyz
  1  'x, y, z'
loop_
 _atom_site_type_symbol
 _atom_site_label
 _atom_site_symmetry_multiplicity
 _atom_site_fract_x
 _atom_site_fract_y
 _atom_site_fract_z
 _atom_site_occupancy
  Li  Li0  1  0.30390519  0.00000000  0.00000000  1
  Li  Li1  1  0.69609481  0.50000000  0.50000000  1
  Li  Li2  1  0.24403392  0.76361911  0.29989944  1
  Li  Li3  1  0.24403392  0.23638089  0.70010056  1
  Li  Li4  1  0.75596608  0.26361911  0.20010056  1
  Li  Li5  1  0.75596608  0.73638089  0.79989944  1
  Li  Li6  1  0.75596608  0.73638089  0.20010056  1
  Li  Li7  1  0.75596608  0.26361911  0.79989944  1
  Li  Li8  1  0.24403392  0.76361911  0.70010056  1
  Li  Li9  1  0.24403392  0.23638089  0.29989944  1
  Re  Re0  1  0.27768515  0.50000000  0.00000000  1
  Re  Re1  1  0.72231485  0.00000000  0.50000000  1
  N  N0  1  0.07259953  0.73116071  0.00000000  1
  N  N1  1  0.51790404  0.00000000  0.72962189  1
  N  N2  1  0.48209596  0.50000000  0.22962189  1
  N  N3  1  0.48209596  0.50000000  0.77037811  1
  N  N4  1  0.07259953  0.26883929  0.00000000  1
  N  N5  1  0.92740047  0.23116071  0.50000000  1
  N  N6  1  0.92740047  0.76883929  0.50000000  1
  N  N7  1  0.51790404  0.00000000  0.27037811  1
loop_
_geom_bond_atom_site_label_1
_geom_bond_atom_site_label_2
_geom_bond_distance
_geom_bond_site_symmetry_2
Li0 N1 2.084735 1_554
Li0 N7 2.084735 1_555
Li0 N4 2.102074 1_555
Li0 N0 2.102074 1_545
Li1 N3 2.084735 1_555
Li1 N2 2.084735 1_555
Li1 N5 2.102074 1_555
Li1 N6 2.102074 1_555
Li2 N6 2.040375 1_455
Li2 N7 2.062104 1_565
Li2 N2 2.143128 1_555
Li2 N0 2.180413 1_555
Li3 N5 2.040375 1_455
Li3 N1 2.062104 1_555
Li3 N3 2.143128 1_555
Li3 N4 2.180413 1_556
Li4 N4 2.040375 1_655
Li4 N2 2.062104 1_555
Li4 N7 2.143128 1_555
Li4 N5 2.180413 1_555
Li5 N0 2.040375 1_656
Li5 N3 2.062104 1_555
Li5 N1 2.143128 1_565
Li5 N6 2.180413 1_555
Li6 N0 2.040375 1_655
Li6 N2 2.062104 1_555
Li6 N7 2.143128 1_565
Li6 N6 2.180413 1_555
Li7 N4 2.040375 1_656
Li7 N3 2.062104 1_555
Li7 N1 2.143128 1_555
Li7 N5 2.180413 1_555
Li8 N6 2.040375 1_455
Li8 N1 2.062104 1_565
Li8 N3 2.143128 1_555
Li8 N0 2.180413 1_556
Li9 N5 2.040375 1_455
Li9 N7 2.062104 1_555
Li9 N2 2.143128 1_555
Li9 N4 2.180413 1_555
N0 Re0 1.823803 1_555
N1 Re1 1.828135 1_555
N2 Re0 1.828135 1_555
N3 Re0 1.828135 1_556
N4 Re0 1.823803 1_555
N5 Re1 1.823803 1_555
N6 Re1 1.823803 1_565
N7 Re1 1.828135 1_555
