# generated using pymatgen
data_Sr4Ga3RuI2
_symmetry_space_group_name_H-M   'P 1'
_cell_length_a   4.36022201
_cell_length_b   4.36022155
_cell_length_c   18.38282515
_cell_angle_alpha   90.00000000
_cell_angle_beta   90.00000000
_cell_angle_gamma   120.00000348
_symmetry_Int_Tables_number   1
_chemical_formula_structural   Sr4Ga3RuI2
_chemical_formula_sum   'Sr4 Ga3 Ru1 I2'
_cell_volume   302.66348859
_cell_formula_units_Z   1
loop_
 _symmetry_equiv_pos_site_id
 _symmetry_equiv_pos_as_xyz
  1  'x, y, z'
loop_
 _atom_site_type_symbol
 _atom_site_label
 _atom_site_symmetry_multiplicity
 _atom_site_fract_x
 _atom_site_fract_y
 _atom_site_fract_z
 _atom_site_occupancy
  Sr  Sr0  1  0.00000000  0.00000000  0.11270166  1
  Sr  Sr1  1  0.00000000  0.00000000  0.38263480  1
  Sr  Sr2  1  0.00000000  0.00000000  0.61669703  1
  Sr  Sr3  1  0.00000000  0.00000000  0.88872276  1
  Ga  Ga0  1  0.33333300  0.66666500  0.49189951  1
  Ga  Ga1  1  0.66666700  0.33333400  0.50670032  1
  Ga  Ga2  1  0.66666700  0.33333400  0.99995762  1
  Ru  Ru0  1  0.33333300  0.66666500  0.00087090  1
  I  I0  1  0.66666700  0.33333400  0.25143654  1
  I  I1  1  0.33333300  0.66666500  0.74837886  1
loop_
_geom_bond_atom_site_label_1
_geom_bond_atom_site_label_2
_geom_bond_distance
_geom_bond_site_symmetry_2
Ga0 Ga1 2.532030 1_555
Ga0 Ga1 2.532033 1_455
Ga0 Ga1 2.532044 1_565
Ga0 Sr1 3.220496 1_555
Ga0 Sr1 3.220502 1_665
Ga0 Sr1 3.220505 1_565
Ga0 Sr2 3.405904 1_555
Ga0 Sr2 3.405910 1_665
Ga0 Sr2 3.405913 1_565
Ga1 Sr2 3.228909 1_665
Ga1 Sr2 3.228912 1_555
Ga1 Sr2 3.228912 1_655
Ga1 Sr1 3.396858 1_665
Ga1 Sr1 3.396861 1_555
Ga1 Sr1 3.396861 1_655
Ga2 Ru0 2.517425 1_556
Ga2 Ru0 2.517429 1_656
Ga2 Ru0 2.517440 1_546
Ga2 Sr3 3.243211 1_665
Ga2 Sr3 3.243214 1_555
Ga2 Sr3 3.243214 1_655
Ga2 Sr0 3.260774 1_666
Ga2 Sr0 3.260777 1_556
Ga2 Sr0 3.260777 1_656
Ru0 Sr0 3.250126 1_555
Ru0 Sr0 3.250132 1_665
Ru0 Sr0 3.250135 1_565
Ru0 Sr3 3.253819 1_554
Ru0 Sr3 3.253825 1_664
Ru0 Sr3 3.253828 1_564
I0 Sr1 3.486247 1_665
I0 Sr1 3.486250 1_555
I0 Sr1 3.486250 1_655
I0 Sr0 3.583489 1_665
I0 Sr0 3.583492 1_555
I0 Sr0 3.583492 1_655
I1 Sr2 3.492400 1_555
I1 Sr2 3.492405 1_665
I1 Sr2 3.492408 1_565
I1 Sr3 3.604597 1_555
I1 Sr3 3.604602 1_665
I1 Sr3 3.604605 1_565
