# generated using pymatgen
data_Na6CoSe4
_symmetry_space_group_name_H-M   'P 1'
_cell_length_a   9.32632133
_cell_length_b   9.32632133
_cell_length_c   7.20781200
_cell_angle_alpha   90.00000000
_cell_angle_beta   90.00000000
_cell_angle_gamma   119.99999523
_symmetry_Int_Tables_number   1
_chemical_formula_structural   Na6CoSe4
_chemical_formula_sum   'Na12 Co2 Se8'
_cell_volume   542.94376736
_cell_formula_units_Z   2
loop_
 _symmetry_equiv_pos_site_id
 _symmetry_equiv_pos_as_xyz
  1  'x, y, z'
loop_
 _atom_site_type_symbol
 _atom_site_label
 _atom_site_symmetry_multiplicity
 _atom_site_fract_x
 _atom_site_fract_y
 _atom_site_fract_z
 _atom_site_occupancy
  Na  Na0  1  0.14834800  0.85165200  0.53260200  1
  Na  Na1  1  0.29669600  0.14834800  0.03260200  1
  Na  Na2  1  0.85165200  0.70330400  0.03260200  1
  Na  Na3  1  0.14834800  0.29669600  0.53260200  1
  Na  Na4  1  0.70330400  0.85165200  0.53260200  1
  Na  Na5  1  0.85165200  0.14834800  0.03260200  1
  Na  Na6  1  0.52902800  0.47097200  0.35886200  1
  Na  Na7  1  0.05805600  0.52902800  0.85886200  1
  Na  Na8  1  0.47097200  0.94194400  0.85886200  1
  Na  Na9  1  0.52902800  0.05805600  0.35886200  1
  Na  Na10  1  0.94194400  0.47097200  0.35886200  1
  Na  Na11  1  0.47097200  0.52902800  0.85886200  1
  Co  Co0  1  0.33333300  0.66666700  0.24373300  1
  Co  Co1  1  0.66666700  0.33333300  0.74373300  1
  Se  Se0  1  0.33333300  0.66666700  0.58280800  1
  Se  Se1  1  0.66666700  0.33333300  0.08280800  1
  Se  Se2  1  0.18936900  0.81063100  0.13592200  1
  Se  Se3  1  0.37873700  0.18936900  0.63592200  1
  Se  Se4  1  0.81063100  0.62126300  0.63592200  1
  Se  Se5  1  0.18936900  0.37873700  0.13592200  1
  Se  Se6  1  0.62126300  0.81063100  0.13592200  1
  Se  Se7  1  0.81063100  0.18936900  0.63592200  1
loop_
_geom_bond_atom_site_label_1
_geom_bond_atom_site_label_2
_geom_bond_distance
_geom_bond_site_symmetry_2
Na0 Se4 2.885162 1_455
Na0 Se3 2.885162 1_565
Na0 Se2 2.934976 1_555
Na0 Se0 3.010017 1_555
Na1 Se5 2.885155 1_555
Na1 Se2 2.885164 1_545
Na1 Se3 2.934975 1_554
Na1 Se1 3.010026 1_555
Na2 Se6 2.885155 1_555
Na2 Se2 2.885164 1_655
Na2 Se4 2.934975 1_554
Na2 Se1 3.010026 1_555
Na3 Se3 2.885155 1_555
Na3 Se7 2.885164 1_455
Na3 Se5 2.934975 1_555
Na3 Se0 3.010026 1_555
Na4 Se4 2.885155 1_555
Na4 Se7 2.885164 1_565
Na4 Se6 2.934975 1_555
Na4 Se0 3.010026 1_555
Na5 Se6 2.885162 1_545
Na5 Se5 2.885162 1_655
Na5 Se7 2.934976 1_554
Na5 Se1 3.010017 1_555
Na6 Se1 2.983702 1_555
Na6 Se4 3.028035 1_555
Na6 Se3 3.028035 1_555
Na6 Se6 3.260664 1_555
Na6 Se5 3.260664 1_555
Na7 Se0 2.983696 1_555
Na7 Se2 3.028035 1_556
Na7 Se5 3.028041 1_556
Na7 Se7 3.260666 1_455
Na7 Se4 3.260672 1_455
Na8 Se0 2.983696 1_555
Na8 Se2 3.028035 1_556
Na8 Se6 3.028041 1_556
Na8 Se7 3.260666 1_565
Na8 Se3 3.260672 1_565
Na9 Se1 2.983696 1_555
Na9 Se7 3.028035 1_555
Na9 Se3 3.028041 1_555
Na9 Se2 3.260666 1_545
Na9 Se6 3.260672 1_545
Na10 Se1 2.983696 1_555
Na10 Se7 3.028035 1_555
Na10 Se4 3.028041 1_555
Na10 Se2 3.260666 1_655
Na10 Se5 3.260672 1_655
Na11 Se0 2.983702 1_555
Na11 Se6 3.028035 1_556
Na11 Se5 3.028035 1_556
Na11 Se4 3.260664 1_555
Na11 Se3 3.260664 1_555
Co0 Se0 2.443989 1_555
Co0 Se2 2.451942 1_555
Co0 Se5 2.451957 1_555
Co0 Se6 2.451957 1_555
Co1 Se1 2.443989 1_556
Co1 Se7 2.451942 1_555
Co1 Se4 2.451957 1_555
Co1 Se3 2.451957 1_555
