# generated using pymatgen
data_Cd3Hg(Ir2O7)2
_symmetry_space_group_name_H-M   'P 1'
_cell_length_a   7.22824357
_cell_length_b   7.22824234
_cell_length_c   7.16607723
_cell_angle_alpha   59.71261365
_cell_angle_beta   59.71261608
_cell_angle_gamma   60.00001213
_symmetry_Int_Tables_number   1
_chemical_formula_structural   Cd3Hg(Ir2O7)2
_chemical_formula_sum   'Cd3 Hg1 Ir4 O14'
_cell_volume   263.59173519
_cell_formula_units_Z   1
loop_
 _symmetry_equiv_pos_site_id
 _symmetry_equiv_pos_as_xyz
  1  'x, y, z'
loop_
 _atom_site_type_symbol
 _atom_site_label
 _atom_site_symmetry_multiplicity
 _atom_site_fract_x
 _atom_site_fract_y
 _atom_site_fract_z
 _atom_site_occupancy
  Cd  Cd0  1  0.62500000  0.12500000  0.12500000  1
  Cd  Cd1  1  0.12500000  0.62500000  0.12500000  1
  Cd  Cd2  1  0.12500000  0.12500000  0.12500000  1
  Hg  Hg0  1  0.12500000  0.12500000  0.62500000  1
  Ir  Ir0  1  0.12500000  0.62500000  0.62500000  1
  Ir  Ir1  1  0.62500000  0.12500000  0.62500000  1
  Ir  Ir2  1  0.62500000  0.62500000  0.12500000  1
  Ir  Ir3  1  0.62500000  0.62500000  0.62500000  1
  O  O0  1  0.70105390  0.70105390  0.29813283  1
  O  O1  1  0.30141030  0.30141030  0.70432420  1
  O  O2  1  0.69285419  0.30141030  0.70432420  1
  O  O3  1  0.29975837  0.70105390  0.29813283  1
  O  O4  1  0.30141030  0.69285419  0.70432420  1
  O  O5  1  0.70105390  0.29975837  0.29813283  1
  O  O6  1  0.54894610  0.54894610  0.95186717  1
  O  O7  1  0.94858970  0.94858970  0.54567580  1
  O  O8  1  0.55714581  0.94858970  0.54567580  1
  O  O9  1  0.95024163  0.54894610  0.95186717  1
  O  O10  1  0.94858970  0.55714581  0.54567580  1
  O  O11  1  0.54894610  0.95024163  0.95186717  1
  O  O12  1  0.24653913  0.24653913  0.26038160  1
  O  O13  1  0.00346087  0.00346087  0.98961840  1
loop_
_geom_bond_atom_site_label_1
_geom_bond_atom_site_label_2
_geom_bond_distance
_geom_bond_site_symmetry_2
Cd0 O13 2.230688 1_654
Cd0 O12 2.230688 1_555
Cd0 O8 2.492183 1_545
Cd0 O2 2.492183 1_554
Cd0 O5 2.529897 1_555
Cd0 O11 2.529897 1_544
Cd0 O6 2.529903 1_554
Cd0 O0 2.529903 1_545
Cd1 O13 2.230688 1_564
Cd1 O12 2.230688 1_555
Cd1 O10 2.492183 1_455
Cd1 O4 2.492183 1_554
Cd1 O3 2.529897 1_555
Cd1 O9 2.529897 1_454
Cd1 O6 2.529904 1_554
Cd1 O0 2.529904 1_455
Cd2 O12 2.230682 1_555
Cd2 O13 2.230682 1_554
Cd2 O1 2.492181 1_554
Cd2 O7 2.492181 1_445
Cd2 O9 2.529902 1_454
Cd2 O3 2.529902 1_545
Cd2 O11 2.529903 1_544
Cd2 O5 2.529903 1_455
Hg0 O13 2.124096 1_555
Hg0 O12 2.124096 1_555
Hg0 O1 2.581339 1_555
Hg0 O7 2.581339 1_445
Hg0 O10 2.581345 1_455
Hg0 O4 2.581345 1_545
Hg0 O8 2.581345 1_545
Hg0 O2 2.581345 1_455
Ir0 O3 1.948219 1_555
Ir0 O9 1.948219 1_455
Ir0 O4 1.956380 1_555
Ir0 O10 1.956380 1_455
Ir0 O7 1.956385 1_455
Ir0 O1 1.956385 1_555
Ir1 O11 1.948219 1_545
Ir1 O5 1.948219 1_555
Ir1 O2 1.956380 1_555
Ir1 O8 1.956380 1_545
Ir1 O7 1.956386 1_545
Ir1 O1 1.956386 1_555
Ir2 O0 1.954956 1_555
Ir2 O6 1.954956 1_554
Ir2 O11 1.954962 1_554
Ir2 O5 1.954962 1_555
Ir2 O9 1.954962 1_554
Ir2 O3 1.954962 1_555
Ir3 O6 1.948220 1_555
Ir3 O0 1.948220 1_555
Ir3 O8 1.956386 1_555
Ir3 O2 1.956386 1_555
Ir3 O10 1.956387 1_555
Ir3 O4 1.956387 1_555
