# generated using pymatgen
data_Cd2As2Pb
_symmetry_space_group_name_H-M   'P 1'
_cell_length_a   4.47886248
_cell_length_b   4.47886306
_cell_length_c   7.34179219
_cell_angle_alpha   90.00000000
_cell_angle_beta   90.00000000
_cell_angle_gamma   119.99999573
_symmetry_Int_Tables_number   1
_chemical_formula_structural   Cd2As2Pb
_chemical_formula_sum   'Cd2 As2 Pb1'
_cell_volume   127.54641334
_cell_formula_units_Z   1
loop_
 _symmetry_equiv_pos_site_id
 _symmetry_equiv_pos_as_xyz
  1  'x, y, z'
loop_
 _atom_site_type_symbol
 _atom_site_label
 _atom_site_symmetry_multiplicity
 _atom_site_fract_x
 _atom_site_fract_y
 _atom_site_fract_z
 _atom_site_occupancy
  Cd  Cd0  1  0.66666700  0.33333300  0.36665642  1
  Cd  Cd1  1  0.33333300  0.66666700  0.63334358  1
  As  As0  1  0.66666700  0.33333300  0.75435854  1
  As  As1  1  0.33333300  0.66666700  0.24564146  1
  Pb  Pb0  1  0.00000000  0.00000000  0.00000000  1
loop_
_geom_bond_atom_site_label_1
_geom_bond_atom_site_label_2
_geom_bond_distance
_geom_bond_site_symmetry_2
As0 Cd1 2.734245 1_655
As0 Cd1 2.734245 1_545
As0 Cd1 2.734252 1_555
As0 Cd0 2.846428 1_555
As0 Pb0 3.152642 1_656
As0 Pb0 3.152645 1_556
As0 Pb0 3.152645 1_666
As1 Cd0 2.734245 1_455
As1 Cd0 2.734245 1_565
As1 Cd0 2.734252 1_555
As1 Cd1 2.846428 1_555
As1 Pb0 3.152642 1_565
As1 Pb0 3.152645 1_665
As1 Pb0 3.152645 1_555
