# generated using pymatgen
data_CsK5(AlSe3)2
_symmetry_space_group_name_H-M   'P 1'
_cell_length_a   13.52718085
_cell_length_b   8.15306663
_cell_length_c   10.40541310
_cell_angle_alpha   53.15483694
_cell_angle_beta   88.95601607
_cell_angle_gamma   90.01474801
_symmetry_Int_Tables_number   1
_chemical_formula_structural   CsK5(AlSe3)2
_chemical_formula_sum   'Cs2 K10 Al4 Se12'
_cell_volume   918.12884382
_cell_formula_units_Z   2
loop_
 _symmetry_equiv_pos_site_id
 _symmetry_equiv_pos_as_xyz
  1  'x, y, z'
loop_
 _atom_site_type_symbol
 _atom_site_label
 _atom_site_symmetry_multiplicity
 _atom_site_fract_x
 _atom_site_fract_y
 _atom_site_fract_z
 _atom_site_occupancy
  Cs  Cs0  1  0.31681126  0.18004483  0.05534928  1
  Cs  Cs1  1  0.68318874  0.81995517  0.94465072  1
  K  K0  1  0.81800136  0.83428279  0.45115820  1
  K  K1  1  0.90296026  0.32354903  0.39848404  1
  K  K2  1  0.62165969  0.37787480  0.47021696  1
  K  K3  1  0.11207834  0.63788615  0.01801067  1
  K  K4  1  0.37834031  0.62212520  0.52978304  1
  K  K5  1  0.88792166  0.36211385  0.98198933  1
  K  K6  1  0.61553210  0.30000706  0.90754819  1
  K  K7  1  0.09703974  0.67645097  0.60151596  1
  K  K8  1  0.38446790  0.69999294  0.09245181  1
  K  K9  1  0.18199864  0.16571721  0.54884180  1
  Al  Al0  1  0.06356239  0.94491522  0.15674686  1
  Al  Al1  1  0.56644567  0.03773780  0.35071959  1
  Al  Al2  1  0.43355433  0.96226220  0.64928041  1
  Al  Al3  1  0.93643761  0.05508478  0.84325314  1
  Se  Se0  1  0.41769387  0.20262085  0.35877577  1
  Se  Se1  1  0.90227003  0.83152450  0.13598960  1
  Se  Se2  1  0.58230613  0.79737915  0.64122423  1
  Se  Se3  1  0.09772997  0.16847550  0.86401040  1
  Se  Se4  1  0.70091474  0.27482326  0.22506994  1
  Se  Se5  1  0.17933800  0.67460561  0.29888801  1
  Se  Se6  1  0.29908526  0.72517674  0.77493006  1
  Se  Se7  1  0.82066200  0.32539439  0.70111199  1
  Se  Se8  1  0.54401210  0.85876852  0.24058879  1
  Se  Se9  1  0.05497983  0.13500101  0.26085323  1
  Se  Se10  1  0.45598790  0.14123148  0.75941121  1
  Se  Se11  1  0.94502017  0.86499899  0.73914677  1
loop_
_geom_bond_atom_site_label_1
_geom_bond_atom_site_label_2
_geom_bond_distance
_geom_bond_site_symmetry_2
Cs0 Se0 3.566289 1_555
Cs0 Se6 3.577410 1_554
Cs0 Se3 3.632568 1_554
Cs0 Se10 3.752965 1_554
Cs0 Se5 3.763217 1_545
Cs0 Se8 3.766564 1_545
Cs0 Se9 4.004197 1_555
Cs1 Se2 3.566289 1_555
Cs1 Se4 3.577410 1_556
Cs1 Se1 3.632568 1_556
Cs1 Se8 3.752965 1_556
Cs1 Se7 3.763217 1_565
Cs1 Se10 3.766564 1_565
Cs1 Se11 4.004197 1_555
K0 Se4 3.308865 1_565
K0 Se7 3.322914 1_555
K0 Se1 3.465114 1_555
K0 Se11 3.616936 1_555
K0 Se2 3.636368 1_555
K0 Se9 3.761726 1_665
K1 Se11 3.323684 1_545
K1 Se1 3.323730 1_555
K1 Se7 3.329365 1_555
K1 Se9 3.343262 1_655
K1 Se4 3.452909 1_555
K2 Se10 3.254092 1_555
K2 Se4 3.291403 1_555
K2 Se8 3.323094 1_555
K2 Se7 3.493607 1_555
K2 Se0 3.619462 1_555
K3 Se5 3.256592 1_555
K3 Se11 3.279110 1_454
K3 Se6 3.303093 1_554
K3 Se9 3.360676 1_555
K3 Se3 3.607945 1_564
K3 Se1 3.775462 1_455
K4 Se8 3.254092 1_555
K4 Se6 3.291403 1_555
K4 Se10 3.323094 1_555
K4 Se5 3.493607 1_555
K4 Se2 3.619462 1_555
K5 Se7 3.256592 1_555
K5 Se9 3.279110 1_656
K5 Se4 3.303093 1_556
K5 Se11 3.360676 1_555
K5 Se1 3.607945 1_546
K5 Se3 3.775462 1_655
K6 Se8 3.288071 1_546
K6 Se2 3.300687 1_555
K6 Se10 3.349981 1_555
K6 Se7 3.406748 1_555
K6 Se4 3.408488 1_556
K7 Se9 3.323684 1_565
K7 Se3 3.323730 1_555
K7 Se5 3.329365 1_555
K7 Se11 3.343262 1_455
K7 Se6 3.452909 1_555
K8 Se10 3.288071 1_564
K8 Se0 3.300687 1_555
K8 Se8 3.349981 1_555
K8 Se5 3.406748 1_555
K8 Se6 3.408488 1_554
K9 Se6 3.308865 1_545
K9 Se5 3.322914 1_555
K9 Se3 3.465114 1_555
K9 Se9 3.616936 1_555
K9 Se0 3.636368 1_555
K9 Se11 3.761726 1_445
Al0 Se9 2.365951 1_565
Al0 Se5 2.382054 1_555
Al0 Se1 2.432553 1_455
Al0 Se3 2.470609 1_564
Al1 Se8 2.356322 1_545
Al1 Se4 2.373832 1_555
Al1 Se2 2.437877 1_545
Al1 Se0 2.448161 1_555
Al2 Se10 2.356322 1_565
Al2 Se6 2.373832 1_555
Al2 Se0 2.437877 1_565
Al2 Se2 2.448161 1_555
Al3 Se11 2.365951 1_545
Al3 Se7 2.382054 1_555
Al3 Se3 2.432553 1_655
Al3 Se1 2.470609 1_546
