# generated using pymatgen
data_RbNb2ReSe6
_symmetry_space_group_name_H-M   'P 1'
_cell_length_a   5.92467012
_cell_length_b   5.92467177
_cell_length_c   18.21470360
_cell_angle_alpha   90.00000000
_cell_angle_beta   90.00000000
_cell_angle_gamma   120.00000193
_symmetry_Int_Tables_number   1
_chemical_formula_structural   RbNb2ReSe6
_chemical_formula_sum   'Rb2 Nb4 Re2 Se12'
_cell_volume   553.70851381
_cell_formula_units_Z   2
loop_
 _symmetry_equiv_pos_site_id
 _symmetry_equiv_pos_as_xyz
  1  'x, y, z'
loop_
 _atom_site_type_symbol
 _atom_site_label
 _atom_site_symmetry_multiplicity
 _atom_site_fract_x
 _atom_site_fract_y
 _atom_site_fract_z
 _atom_site_occupancy
  Rb  Rb0  1  0.00000000  0.00000000  0.00000000  1
  Rb  Rb1  1  0.00000000  0.00000000  0.50000000  1
  Nb  Nb0  1  0.33333300  0.66666700  0.25000000  1
  Nb  Nb1  1  0.66666700  0.33333300  0.75000000  1
  Nb  Nb2  1  0.66666700  0.33333300  0.25000000  1
  Nb  Nb3  1  0.33333300  0.66666700  0.75000000  1
  Re  Re0  1  0.00000000  0.00000000  0.75000000  1
  Re  Re1  1  0.00000000  0.00000000  0.25000000  1
  Se  Se0  1  0.32538769  0.00000000  0.15930983  1
  Se  Se1  1  0.00000000  0.32538769  0.15930983  1
  Se  Se2  1  0.67461231  0.67461231  0.15930983  1
  Se  Se3  1  0.32538769  0.32538769  0.65930983  1
  Se  Se4  1  0.67461231  0.67461231  0.34069017  1
  Se  Se5  1  0.67461231  0.00000000  0.65930983  1
  Se  Se6  1  0.00000000  0.67461231  0.65930983  1
  Se  Se7  1  0.00000000  0.67461231  0.84069017  1
  Se  Se8  1  0.32538769  0.32538769  0.84069017  1
  Se  Se9  1  0.00000000  0.32538769  0.34069017  1
  Se  Se10  1  0.32538769  0.00000000  0.34069017  1
  Se  Se11  1  0.67461231  0.00000000  0.84069017  1
loop_
_geom_bond_atom_site_label_1
_geom_bond_atom_site_label_2
_geom_bond_distance
_geom_bond_site_symmetry_2
Rb0 Se0 3.483792 1_555
Rb0 Se11 3.483792 1_454
Rb0 Se2 3.483792 1_445
Rb0 Se8 3.483792 1_554
Rb0 Se1 3.483792 1_555
Rb0 Se7 3.483792 1_544
Rb1 Se10 3.483792 1_555
Rb1 Se5 3.483792 1_455
Rb1 Se3 3.483792 1_555
Rb1 Se4 3.483792 1_445
Rb1 Se6 3.483792 1_545
Rb1 Se9 3.483792 1_555
Nb0 Se10 2.593091 1_565
Nb0 Se0 2.593091 1_565
Nb0 Se9 2.593093 1_555
Nb0 Se1 2.593093 1_555
Nb0 Se4 2.593095 1_555
Nb0 Se2 2.593095 1_555
Nb1 Se11 2.593091 1_555
Nb1 Se5 2.593091 1_555
Nb1 Se7 2.593093 1_655
Nb1 Se6 2.593093 1_655
Nb1 Se8 2.593095 1_555
Nb1 Se3 2.593095 1_555
Nb2 Se9 2.593091 1_655
Nb2 Se1 2.593091 1_655
Nb2 Se10 2.593093 1_555
Nb2 Se0 2.593093 1_555
Nb2 Se4 2.593096 1_555
Nb2 Se2 2.593096 1_555
Nb3 Se7 2.593091 1_555
Nb3 Se6 2.593091 1_555
Nb3 Se11 2.593093 1_565
Nb3 Se5 2.593093 1_565
Nb3 Se8 2.593096 1_555
Nb3 Se3 2.593096 1_555
Re0 Se11 2.538745 1_455
Re0 Se5 2.538745 1_455
Re0 Se8 2.538745 1_555
Re0 Se3 2.538745 1_555
Re0 Se7 2.538745 1_545
Re0 Se6 2.538745 1_545
Re1 Se10 2.538745 1_555
Re1 Se0 2.538745 1_555
Re1 Se4 2.538745 1_445
Re1 Se2 2.538745 1_445
Re1 Se9 2.538745 1_555
Re1 Se1 2.538745 1_555
