# generated using pymatgen
data_Cs3KSnI6
_symmetry_space_group_name_H-M   'P 1'
_cell_length_a   10.31004799
_cell_length_b   10.31004881
_cell_length_c   10.31004838
_cell_angle_alpha   91.36543934
_cell_angle_beta   91.36543350
_cell_angle_gamma   91.36543591
_symmetry_Int_Tables_number   1
_chemical_formula_structural   Cs3KSnI6
_chemical_formula_sum   'Cs6 K2 Sn2 I12'
_cell_volume   1094.97953784
_cell_formula_units_Z   2
loop_
 _symmetry_equiv_pos_site_id
 _symmetry_equiv_pos_as_xyz
  1  'x, y, z'
loop_
 _atom_site_type_symbol
 _atom_site_label
 _atom_site_symmetry_multiplicity
 _atom_site_fract_x
 _atom_site_fract_y
 _atom_site_fract_z
 _atom_site_occupancy
  Cs  Cs0  1  0.36946987  0.13053013  0.75000000  1
  Cs  Cs1  1  0.13053013  0.75000000  0.36946987  1
  Cs  Cs2  1  0.75000000  0.36946987  0.13053013  1
  Cs  Cs3  1  0.63053013  0.86946987  0.25000000  1
  Cs  Cs4  1  0.25000000  0.63053013  0.86946987  1
  Cs  Cs5  1  0.86946987  0.25000000  0.63053013  1
  K  K0  1  0.25000000  0.25000000  0.25000000  1
  K  K1  1  0.75000000  0.75000000  0.75000000  1
  Sn  Sn0  1  0.00000000  0.00000000  0.00000000  1
  Sn  Sn1  1  0.50000000  0.50000000  0.50000000  1
  I  I0  1  0.95065926  0.08216604  0.29631625  1
  I  I1  1  0.08216604  0.29631625  0.95065926  1
  I  I2  1  0.29631625  0.95065926  0.08216604  1
  I  I3  1  0.58216604  0.45065926  0.79631625  1
  I  I4  1  0.79631625  0.58216604  0.45065926  1
  I  I5  1  0.45065926  0.79631625  0.58216604  1
  I  I6  1  0.20368375  0.41783396  0.54934074  1
  I  I7  1  0.41783396  0.54934074  0.20368375  1
  I  I8  1  0.54934074  0.20368375  0.41783396  1
  I  I9  1  0.91783396  0.70368375  0.04934074  1
  I  I10  1  0.04934074  0.91783396  0.70368375  1
  I  I11  1  0.70368375  0.04934074  0.91783396  1
loop_
_geom_bond_atom_site_label_1
_geom_bond_atom_site_label_2
_geom_bond_distance
_geom_bond_site_symmetry_2
Cs0 I10 3.931987 1_545
Cs0 I3 3.931987 1_555
Cs0 I11 3.935795 1_555
Cs0 I5 3.935795 1_545
Cs0 I8 4.011889 1_555
Cs0 I2 4.011890 1_546
Cs0 I1 4.042338 1_555
Cs0 I6 4.042338 1_555
Cs1 I5 3.931987 1_555
Cs1 I9 3.931987 1_455
Cs1 I10 3.935795 1_555
Cs1 I4 3.935795 1_455
Cs1 I0 4.011890 1_465
Cs1 I6 4.011890 1_555
Cs1 I7 4.042338 1_555
Cs1 I2 4.042338 1_555
Cs2 I4 3.931987 1_555
Cs2 I11 3.931987 1_554
Cs2 I3 3.935795 1_554
Cs2 I9 3.935795 1_555
Cs2 I1 4.011889 1_654
Cs2 I7 4.011889 1_555
Cs2 I8 4.042338 1_555
Cs2 I0 4.042338 1_555
Cs3 I0 3.931987 1_565
Cs3 I7 3.931987 1_555
Cs3 I2 3.935795 1_555
Cs3 I8 3.935795 1_565
Cs3 I5 4.011889 1_555
Cs3 I11 4.011890 1_564
Cs3 I9 4.042338 1_555
Cs3 I4 4.042338 1_555
Cs4 I6 3.931987 1_555
Cs4 I2 3.931987 1_556
Cs4 I7 3.935795 1_556
Cs4 I1 3.935795 1_555
Cs4 I9 4.011889 1_456
Cs4 I3 4.011889 1_555
Cs4 I5 4.042338 1_555
Cs4 I10 4.042338 1_555
Cs5 I8 3.931987 1_555
Cs5 I1 3.931987 1_655
Cs5 I0 3.935795 1_555
Cs5 I6 3.935795 1_655
Cs5 I10 4.011890 1_645
Cs5 I4 4.011890 1_555
Cs5 I3 4.042338 1_555
Cs5 I11 4.042338 1_555
I0 Sn0 3.206388 1_655
I0 K0 3.549940 1_655
I1 Sn0 3.206388 1_556
I1 K0 3.549940 1_556
I2 Sn0 3.206388 1_565
I2 K0 3.549940 1_565
I3 Sn1 3.206388 1_555
I3 K1 3.549940 1_555
I4 Sn1 3.206388 1_555
I4 K1 3.549940 1_555
I5 Sn1 3.206388 1_555
I5 K1 3.549940 1_555
I6 Sn1 3.206388 1_555
I6 K0 3.549940 1_555
I7 Sn1 3.206388 1_555
I7 K0 3.549940 1_555
I8 Sn1 3.206388 1_555
I8 K0 3.549940 1_555
I9 Sn0 3.206388 1_665
I9 K1 3.549940 1_554
I10 Sn0 3.206388 1_566
I10 K1 3.549940 1_455
I11 Sn0 3.206388 1_656
I11 K1 3.549940 1_545
