# generated using pymatgen
data_KInGa2Te5
_symmetry_space_group_name_H-M   'P 1'
_cell_length_a   10.90290219
_cell_length_b   10.95813201
_cell_length_c   10.90376468
_cell_angle_alpha   90.85457771
_cell_angle_beta   90.35165459
_cell_angle_gamma   90.69764911
_symmetry_Int_Tables_number   1
_chemical_formula_structural   KInGa2Te5
_chemical_formula_sum   'K4 In4 Ga8 Te20'
_cell_volume   1302.46462108
_cell_formula_units_Z   4
loop_
 _symmetry_equiv_pos_site_id
 _symmetry_equiv_pos_as_xyz
  1  'x, y, z'
loop_
 _atom_site_type_symbol
 _atom_site_label
 _atom_site_symmetry_multiplicity
 _atom_site_fract_x
 _atom_site_fract_y
 _atom_site_fract_z
 _atom_site_occupancy
  K  K0  1  0.25040087  0.00041843  0.74646048  1
  K  K1  1  0.74156372  0.25118876  0.99755174  1
  K  K2  1  0.99987662  0.74802032  0.25146955  1
  K  K3  1  0.50025020  0.49779260  0.49884879  1
  In  In0  1  0.83985831  0.89022546  0.57651922  1
  In  In1  1  0.57573088  0.84060865  0.88991958  1
  In  In2  1  0.88724781  0.57880801  0.83975165  1
  In  In3  1  0.16706812  0.42002110  0.11649881  1
  Ga  Ga0  1  0.11364849  0.16557566  0.42128670  1
  Ga  Ga1  1  0.42291867  0.11093392  0.17261231  1
  Ga  Ga2  1  0.73742592  0.16048860  0.35014200  1
  Ga  Ga3  1  0.35168962  0.73834737  0.16455798  1
  Ga  Ga4  1  0.16266245  0.35228282  0.73371485  1
  Ga  Ga5  1  0.26553318  0.64679780  0.83408809  1
  Ga  Ga6  1  0.83747230  0.26311664  0.64576013  1
  Ga  Ga7  1  0.64816880  0.83562647  0.26218897  1
  Te  Te0  1  0.19285477  0.80344681  0.99932183  1
  Te  Te1  1  0.80718144  0.99799922  0.18956146  1
  Te  Te2  1  0.17942624  0.16479020  0.18073051  1
  Te  Te3  1  0.83485365  0.83665406  0.83489229  1
  Te  Te4  1  0.99917435  0.19456420  0.80655594  1
  Te  Te5  1  0.92445505  0.49552685  0.07871556  1
  Te  Te6  1  0.07739244  0.93898588  0.49079539  1
  Te  Te7  1  0.48665014  0.07556255  0.94203978  1
  Te  Te8  1  0.73806887  0.70028651  0.43376224  1
  Te  Te9  1  0.43557614  0.74053397  0.69686796  1
  Te  Te10  1  0.69970780  0.43441276  0.73460368  1
  Te  Te11  1  0.26241592  0.57009790  0.30489373  1
  Te  Te12  1  0.29180725  0.26080151  0.55599939  1
  Te  Te13  1  0.55958546  0.29045221  0.26255183  1
  Te  Te14  1  0.67527922  0.08734372  0.57678209  1
  Te  Te15  1  0.57587139  0.67428816  0.08614433  1
  Te  Te16  1  0.08678672  0.57736308  0.67506800  1
  Te  Te17  1  0.32498271  0.42206553  0.90998022  1
  Te  Te18  1  0.92185726  0.31432192  0.41951174  1
  Te  Te19  1  0.42456121  0.92025032  0.31985117  1
loop_
_geom_bond_atom_site_label_1
_geom_bond_atom_site_label_2
_geom_bond_distance
_geom_bond_site_symmetry_2
K0 Te6 3.410451 1_545
K0 Te7 3.418936 1_555
K0 Te4 3.546905 1_455
K0 Te9 3.547714 1_545
K0 Te12 3.579798 1_555
K0 Te0 3.580520 1_545
K1 Te7 3.407206 1_555
K1 Te5 3.421406 1_556
K1 Te13 3.539070 1_556
K1 Te10 3.554976 1_555
K1 Te4 3.561831 1_555
K1 Te1 3.577163 1_546
K2 Te5 3.413212 1_555
K2 Te6 3.416151 1_655
K2 Te8 3.526575 1_555
K2 Te0 3.527674 1_654
K2 Te11 3.533205 1_655
K2 Te1 3.542778 1_555
K3 Te10 3.441079 1_555
K3 Te11 3.443417 1_555
K3 Te8 3.475640 1_555
K3 Te13 3.478636 1_555
K3 Te9 3.482494 1_555
K3 Te12 3.495629 1_555
In0 Te8 2.795112 1_555
In0 Te6 2.806640 1_655
In0 Te14 2.824874 1_565
In0 Te3 2.887018 1_555
In1 Te9 2.796337 1_555
In1 Te7 2.814099 1_565
In1 Te15 2.831240 1_556
In1 Te3 2.892507 1_555
In2 Te10 2.799537 1_555
In2 Te5 2.802422 1_556
In2 Te16 2.829428 1_655
In2 Te3 2.890682 1_555
In3 Te11 2.799368 1_555
In3 Te5 2.810947 1_455
In3 Te17 2.843192 1_554
In3 Te2 2.897846 1_555
Ga0 Te12 2.624782 1_555
Ga0 Te6 2.632847 1_545
Ga0 Te18 2.667073 1_455
Ga0 Te2 2.723405 1_555
Ga1 Te13 2.627732 1_555
Ga1 Te7 2.636805 1_554
Ga1 Te19 2.654167 1_545
Ga1 Te2 2.728266 1_555
Ga2 Te1 2.602109 1_545
Ga2 Te13 2.604821 1_555
Ga2 Te14 2.697213 1_555
Ga2 Te18 2.705183 1_555
Ga3 Te11 2.597467 1_555
Ga3 Te0 2.604635 1_554
Ga3 Te15 2.692136 1_555
Ga3 Te19 2.704810 1_555
Ga4 Te12 2.598540 1_555
Ga4 Te4 2.603543 1_455
Ga4 Te16 2.695729 1_555
Ga4 Te17 2.700402 1_555
Ga5 Te9 2.600854 1_555
Ga5 Te0 2.603645 1_555
Ga5 Te17 2.694921 1_555
Ga5 Te16 2.695644 1_555
Ga6 Te10 2.598128 1_555
Ga6 Te4 2.603871 1_555
Ga6 Te14 2.694509 1_555
Ga6 Te18 2.702553 1_555
Ga7 Te8 2.599186 1_555
Ga7 Te1 2.604327 1_555
Ga7 Te19 2.693587 1_555
Ga7 Te15 2.697772 1_555
