# generated using pymatgen
data_Hf12Al4ReIr7
_symmetry_space_group_name_H-M   'P 1'
_cell_length_a   8.45500878
_cell_length_b   8.44651299
_cell_length_c   8.44651278
_cell_angle_alpha   60.00000082
_cell_angle_beta   60.03323455
_cell_angle_gamma   60.03324055
_symmetry_Int_Tables_number   1
_chemical_formula_structural   Hf12Al4ReIr7
_chemical_formula_sum   'Hf12 Al4 Re1 Ir7'
_cell_volume   426.74846302
_cell_formula_units_Z   1
loop_
 _symmetry_equiv_pos_site_id
 _symmetry_equiv_pos_as_xyz
  1  'x, y, z'
loop_
 _atom_site_type_symbol
 _atom_site_label
 _atom_site_symmetry_multiplicity
 _atom_site_fract_x
 _atom_site_fract_y
 _atom_site_fract_z
 _atom_site_occupancy
  Hf  Hf0  1  0.80649165  0.80376130  0.19487302  1
  Hf  Hf1  1  0.19407993  0.19517144  0.80537482  1
  Hf  Hf2  1  0.80649165  0.19487302  0.80376130  1
  Hf  Hf3  1  0.19407993  0.80537482  0.19517144  1
  Hf  Hf4  1  0.19407993  0.80537482  0.80537482  1
  Hf  Hf5  1  0.80649165  0.19487302  0.19487302  1
  Hf  Hf6  1  0.44298912  0.44314995  0.05693047  1
  Hf  Hf7  1  0.05126745  0.06170050  0.44351602  1
  Hf  Hf8  1  0.44298912  0.05693047  0.44314995  1
  Hf  Hf9  1  0.05126745  0.44351602  0.06170050  1
  Hf  Hf10  1  0.05126745  0.44351602  0.44351602  1
  Hf  Hf11  1  0.44298912  0.05693047  0.05693047  1
  Al  Al0  1  0.12859330  0.62380257  0.62380257  1
  Al  Al1  1  0.62653294  0.12040294  0.62653156  1
  Al  Al2  1  0.62653294  0.62653156  0.12040294  1
  Al  Al3  1  0.62653294  0.62653156  0.62653156  1
  Re  Re0  1  0.75341528  0.41552791  0.41552791  1
  Ir  Ir0  1  0.41499308  0.76402452  0.41049070  1
  Ir  Ir1  1  0.41499308  0.41049070  0.76402452  1
  Ir  Ir2  1  0.41499308  0.41049070  0.41049070  1
  Ir  Ir3  1  0.48514018  0.83828727  0.83828727  1
  Ir  Ir4  1  0.84126359  0.48567807  0.83653017  1
  Ir  Ir5  1  0.84126359  0.83653017  0.48567807  1
  Ir  Ir6  1  0.84126359  0.83653017  0.83653017  1
loop_
_geom_bond_atom_site_label_1
_geom_bond_atom_site_label_2
_geom_bond_distance
_geom_bond_site_symmetry_2
Hf0 Ir6 2.771069 1_554
Hf0 Ir5 2.771094 1_555
Hf0 Ir0 2.977016 1_555
Hf0 Re0 2.991847 1_555
Hf0 Hf9 3.100519 1_655
Hf0 Hf10 3.100524 1_655
Hf0 Hf11 3.145857 1_565
Hf0 Hf8 3.145861 1_565
Hf0 Hf4 3.285145 1_654
Hf0 Hf3 3.285153 1_655
Hf0 Hf5 3.303530 1_565
Hf0 Hf2 3.303530 1_564
Hf1 Ir4 2.745544 1_455
Hf1 Ir3 2.766732 1_545
Hf1 Ir1 3.004176 1_555
Hf1 Ir2 3.004185 1_555
Hf1 Hf9 3.153596 1_556
Hf1 Hf10 3.153603 1_555
Hf1 Hf5 3.285145 1_456
Hf1 Hf2 3.285153 1_455
Hf2 Ir6 2.771069 1_545
Hf2 Ir4 2.771094 1_555
Hf2 Ir1 2.977016 1_555
Hf2 Re0 2.991847 1_555
Hf2 Hf7 3.100519 1_655
Hf2 Hf6 3.145861 1_556
Hf2 Hf4 3.285145 1_645
Hf2 Hf5 3.303530 1_556
Hf3 Ir5 2.745544 1_455
Hf3 Ir3 2.766731 1_554
Hf3 Ir0 3.004177 1_555
Hf3 Ir2 3.004185 1_555
Hf3 Hf7 3.153596 1_565
Hf3 Hf5 3.285145 1_465
Hf4 Ir6 2.745541 1_455
Hf4 Ir3 2.766736 1_555
Hf4 Ir0 3.004191 1_555
Hf4 Ir1 3.004191 1_555
Hf4 Hf9 3.153603 1_556
Hf4 Hf7 3.153603 1_565
Hf5 Ir4 2.771079 1_554
Hf5 Ir5 2.771079 1_545
Hf5 Ir2 2.977016 1_555
Hf5 Re0 2.991847 1_555
Hf5 Hf9 3.100526 1_655
Hf5 Hf7 3.100526 1_655
Hf5 Hf8 3.145856 1_555
Hf5 Hf6 3.145857 1_555
Hf6 Ir2 2.754209 1_555
Hf6 Ir1 2.754217 1_554
Hf6 Ir3 3.007290 1_554
Hf6 Ir4 3.035010 1_554
Hf6 Hf9 3.290537 1_555
Hf7 Re0 2.774737 1_455
Hf7 Ir0 2.824353 1_545
Hf7 Ir5 2.993553 1_445
Hf7 Ir6 2.993561 1_445
Hf7 Hf9 3.225010 1_555
Hf7 Hf8 3.290537 1_555
Hf8 Ir2 2.754209 1_555
Hf8 Ir0 2.754217 1_545
Hf8 Ir3 3.007290 1_545
Hf8 Ir5 3.035010 1_545
Hf9 Re0 2.774737 1_455
Hf9 Ir1 2.824352 1_554
Hf9 Ir4 2.993553 1_454
Hf9 Ir6 2.993562 1_454
Hf10 Re0 2.774742 1_455
Hf10 Ir2 2.824349 1_555
Hf10 Ir4 2.993568 1_455
Hf10 Ir5 2.993568 1_455
Hf10 Hf2 3.100523 1_455
Hf10 Hf3 3.153603 1_555
Hf10 Hf9 3.225010 1_555
Hf10 Hf7 3.225010 1_555
Hf10 Hf6 3.290537 1_555
Hf10 Hf8 3.290537 1_555
Hf11 Ir0 2.754212 1_545
Hf11 Ir1 2.754212 1_554
Hf11 Ir3 3.007276 1_544
Hf11 Ir6 3.035004 1_544
Hf11 Hf2 3.145857 1_554
Hf11 Hf7 3.290537 1_555
Hf11 Hf9 3.290537 1_555
Al0 Ir4 2.620290 1_455
Al0 Ir5 2.620290 1_455
Al0 Ir6 2.620295 1_455
Al0 Ir0 2.624000 1_555
Al0 Ir1 2.624001 1_555
Al0 Ir2 2.624010 1_555
Al0 Hf4 3.009895 1_555
Al0 Hf3 3.009895 1_555
Al0 Hf1 3.009896 1_555
Al0 Hf9 3.061579 1_556
Al0 Hf7 3.061579 1_565
Al0 Hf10 3.061586 1_555
Al1 Ir3 2.598874 1_545
Al1 Ir5 2.608978 1_545
Al1 Ir6 2.608992 1_545
Al1 Re0 2.619153 1_555
Al1 Ir1 2.635110 1_555
Al1 Ir2 2.635110 1_555
Al1 Hf7 2.995604 1_655
Al1 Hf2 3.020740 1_555
Al1 Hf5 3.020740 1_555
Al1 Hf8 3.026186 1_555
Al1 Hf11 3.026193 1_556
Al1 Hf1 3.029744 1_555
Al2 Ir3 2.598874 1_554
Al2 Ir4 2.608978 1_554
Al2 Ir6 2.608992 1_554
Al2 Re0 2.619153 1_555
Al2 Ir2 2.635110 1_555
Al2 Ir0 2.635110 1_555
Al2 Hf9 2.995604 1_655
Al2 Hf0 3.020740 1_555
Al2 Hf5 3.020740 1_555
Al2 Hf6 3.026186 1_555
Al2 Hf11 3.026193 1_565
Al2 Hf3 3.029744 1_555
Al3 Ir3 2.598894 1_555
Al3 Ir5 2.608998 1_555
Al3 Ir4 2.608998 1_555
Al3 Re0 2.619153 1_555
Al3 Ir1 2.635110 1_555
Al3 Ir0 2.635110 1_555
Al3 Hf10 2.995602 1_655
Al3 Hf0 3.020740 1_555
Al3 Hf2 3.020740 1_555
Al3 Hf6 3.026191 1_556
Al3 Hf8 3.026192 1_565
Al3 Hf4 3.029746 1_555
Ir0 Re0 2.904491 1_555
Ir1 Re0 2.904491 1_555
Ir2 Re0 2.904491 1_555
