# generated using pymatgen
data_Y16Cd4Pd3Rh
_symmetry_space_group_name_H-M   'P 1'
_cell_length_a   9.71170984
_cell_length_b   9.71170902
_cell_length_c   9.71170915
_cell_angle_alpha   59.81620328
_cell_angle_beta   59.81620568
_cell_angle_gamma   59.81620187
_symmetry_Int_Tables_number   1
_chemical_formula_structural   Y16Cd4Pd3Rh
_chemical_formula_sum   'Y16 Cd4 Pd3 Rh1'
_cell_volume   644.99507691
_cell_formula_units_Z   1
loop_
 _symmetry_equiv_pos_site_id
 _symmetry_equiv_pos_as_xyz
  1  'x, y, z'
loop_
 _atom_site_type_symbol
 _atom_site_label
 _atom_site_symmetry_multiplicity
 _atom_site_fract_x
 _atom_site_fract_y
 _atom_site_fract_z
 _atom_site_occupancy
  Y  Y0  1  0.35521138  0.35521138  0.35521138  1
  Y  Y1  1  0.34959838  0.34959838  0.94476376  1
  Y  Y2  1  0.34959838  0.94476376  0.34959838  1
  Y  Y3  1  0.94476376  0.34959838  0.34959838  1
  Y  Y4  1  0.81457870  0.18884363  0.18884363  1
  Y  Y5  1  0.18954642  0.80977691  0.80977691  1
  Y  Y6  1  0.18884363  0.81457870  0.18884363  1
  Y  Y7  1  0.80977691  0.18954642  0.80977691  1
  Y  Y8  1  0.18884363  0.18884363  0.81457870  1
  Y  Y9  1  0.80977691  0.80977691  0.18954642  1
  Y  Y10  1  0.93526537  0.56434831  0.56434831  1
  Y  Y11  1  0.56355911  0.93507009  0.93507009  1
  Y  Y12  1  0.56434831  0.93526537  0.56434831  1
  Y  Y13  1  0.93507009  0.56355911  0.93507009  1
  Y  Y14  1  0.56434831  0.56434831  0.93526537  1
  Y  Y15  1  0.93507009  0.93507009  0.56355911  1
  Cd  Cd0  1  0.58092004  0.58092004  0.58092004  1
  Cd  Cd1  1  0.58203145  0.58203145  0.25554932  1
  Cd  Cd2  1  0.58203145  0.25554932  0.58203145  1
  Cd  Cd3  1  0.25554932  0.58203145  0.58203145  1
  Pd  Pd0  1  0.14533705  0.14533705  0.56760961  1
  Pd  Pd1  1  0.14533705  0.56760961  0.14533705  1
  Pd  Pd2  1  0.56760961  0.14533705  0.14533705  1
  Rh  Rh0  1  0.14298662  0.14298662  0.14298662  1
loop_
_geom_bond_atom_site_label_1
_geom_bond_atom_site_label_2
_geom_bond_distance
_geom_bond_site_symmetry_2
Cd0 Cd2 3.149089 1_555
Cd0 Cd1 3.149089 1_555
Cd0 Cd3 3.149089 1_555
Cd0 Y12 3.287332 1_555
Cd0 Y14 3.287332 1_555
Cd0 Y10 3.287333 1_555
Cd0 Y2 3.419075 1_555
Cd0 Y3 3.419076 1_555
Cd0 Y1 3.419076 1_555
Cd0 Y7 3.507782 1_555
Cd0 Y5 3.507783 1_555
Cd0 Y9 3.507783 1_555
Cd1 Cd2 3.161887 1_555
Cd1 Cd3 3.161887 1_555
Cd1 Y11 3.269113 1_554
Cd1 Y13 3.269113 1_554
Cd1 Y14 3.292137 1_554
Cd1 Y0 3.351574 1_555
Cd1 Y2 3.391996 1_555
Cd1 Y3 3.391996 1_555
Cd1 Y9 3.501845 1_555
Cd1 Y4 3.527869 1_555
Cd1 Y6 3.527869 1_555
Cd2 Cd3 3.161887 1_555
Cd2 Y11 3.269113 1_545
Cd2 Y15 3.269113 1_545
Cd2 Y12 3.292137 1_545
Cd2 Y0 3.351574 1_555
Cd2 Y1 3.391996 1_555
Cd2 Y3 3.391996 1_555
Cd2 Y7 3.501845 1_555
Cd2 Y4 3.527869 1_555
Cd2 Y8 3.527870 1_555
Cd3 Y15 3.269113 1_455
Cd3 Y13 3.269113 1_455
Cd3 Y10 3.292137 1_455
Cd3 Y0 3.351574 1_555
Cd3 Y1 3.391996 1_555
Cd3 Y2 3.391996 1_555
Cd3 Y5 3.501844 1_555
Cd3 Y6 3.527869 1_555
Cd3 Y8 3.527869 1_555
Pd0 Y5 2.870061 1_545
Pd0 Y7 2.870062 1_455
Pd0 Y2 2.872367 1_545
Pd0 Y3 2.872367 1_455
Pd0 Y0 2.878510 1_555
Pd0 Y8 2.885727 1_555
Pd0 Y10 3.508535 1_455
Pd0 Y12 3.508535 1_545
Pd0 Y15 3.563168 1_445
Pd1 Y5 2.870061 1_554
Pd1 Y9 2.870061 1_455
Pd1 Y1 2.872367 1_554
Pd1 Y3 2.872368 1_455
Pd1 Y0 2.878509 1_555
Pd1 Y6 2.885727 1_555
Pd1 Y10 3.508535 1_455
Pd1 Y14 3.508536 1_554
Pd1 Y13 3.563168 1_454
Pd2 Y9 2.870061 1_545
Pd2 Y7 2.870062 1_554
Pd2 Y1 2.872367 1_554
Pd2 Y2 2.872368 1_545
Pd2 Y0 2.878509 1_555
Pd2 Y4 2.885727 1_555
Pd2 Y14 3.508535 1_554
Pd2 Y12 3.508535 1_545
Pd2 Y11 3.563168 1_544
Rh0 Y6 2.812797 1_545
Rh0 Y8 2.812797 1_554
Rh0 Y4 2.812797 1_455
Rh0 Y3 2.835245 1_455
Rh0 Y2 2.835245 1_545
Rh0 Y1 2.835245 1_554
Rh0 Y13 3.514381 1_454
Rh0 Y15 3.514382 1_445
Rh0 Y11 3.514382 1_544
