# generated using pymatgen
data_Ti8CrBi4P
_symmetry_space_group_name_H-M   'P 1'
_cell_length_a   7.82987449
_cell_length_b   7.82987501
_cell_length_c   7.82987555
_cell_angle_alpha   95.73246918
_cell_angle_beta   95.73246139
_cell_angle_gamma   143.15234261
_symmetry_Int_Tables_number   1
_chemical_formula_structural   Ti8CrBi4P
_chemical_formula_sum   'Ti8 Cr1 Bi4 P1'
_cell_volume   273.11165264
_cell_formula_units_Z   1
loop_
 _symmetry_equiv_pos_site_id
 _symmetry_equiv_pos_as_xyz
  1  'x, y, z'
loop_
 _atom_site_type_symbol
 _atom_site_label
 _atom_site_symmetry_multiplicity
 _atom_site_fract_x
 _atom_site_fract_y
 _atom_site_fract_z
 _atom_site_occupancy
  Ti  Ti0  1  0.07973625  0.19372698  0.27290236  1
  Ti  Ti1  1  0.92082461  0.80683389  0.72709764  1
  Ti  Ti2  1  0.80683389  0.07973625  0.88600828  1
  Ti  Ti3  1  0.42026375  0.69316611  0.11399172  1
  Ti  Ti4  1  0.19372698  0.92082461  0.11399172  1
  Ti  Ti5  1  0.57917539  0.30627302  0.88600828  1
  Ti  Ti6  1  0.69316611  0.57917539  0.27290236  1
  Ti  Ti7  1  0.30627302  0.42026375  0.72709764  1
  Cr  Cr0  1  0.75000000  0.75000000  0.00000000  1
  Bi  Bi0  1  0.14084736  0.64084736  0.78169272  1
  Bi  Bi1  1  0.85915264  0.35915264  0.21830728  1
  Bi  Bi2  1  0.35915264  0.14084736  0.50000000  1
  Bi  Bi3  1  0.64084736  0.85915264  0.50000000  1
  P  P0  1  0.25000000  0.25000000  0.00000000  1
loop_
_geom_bond_atom_site_label_1
_geom_bond_atom_site_label_2
_geom_bond_distance
_geom_bond_site_symmetry_2
Cr0 P0 2.474582 1_665
Cr0 P0 2.474582 1_555
Cr0 Ti1 2.522141 1_554
Cr0 Ti7 2.522141 1_554
Cr0 Ti6 2.522141 1_555
Cr0 Ti0 2.522141 1_665
Cr0 Ti4 2.522142 1_655
Cr0 Ti5 2.522142 1_554
Cr0 Ti3 2.522144 1_555
Cr0 Ti2 2.522144 1_564
Bi0 Ti7 2.896028 1_555
Bi0 Ti1 2.896029 1_455
Bi0 Ti4 2.989898 1_556
Bi0 Ti3 2.989898 1_556
Bi0 Ti5 3.092436 1_565
Bi0 Ti2 3.092440 1_455
Bi0 Ti2 3.094656 1_565
Bi0 Ti5 3.094660 1_455
Bi1 Ti6 2.896028 1_555
Bi1 Ti0 2.896029 1_655
Bi1 Ti2 2.989898 1_554
Bi1 Ti5 2.989898 1_554
Bi1 Ti4 3.092436 1_545
Bi1 Ti3 3.092440 1_655
Bi1 Ti3 3.094656 1_545
Bi1 Ti4 3.094660 1_655
Bi2 Ti4 2.896024 1_545
Bi2 Ti5 2.896024 1_555
Bi2 Ti7 2.989879 1_555
Bi2 Ti0 2.989879 1_555
Bi2 Ti1 3.092436 1_445
Bi2 Ti6 3.092436 1_555
Bi2 Ti6 3.094656 1_445
Bi2 Ti1 3.094657 1_555
Bi3 Ti2 2.896024 1_565
Bi3 Ti3 2.896024 1_555
Bi3 Ti6 2.989879 1_555
Bi3 Ti1 2.989879 1_555
Bi3 Ti7 3.092436 1_665
Bi3 Ti0 3.092436 1_555
Bi3 Ti0 3.094656 1_665
Bi3 Ti7 3.094657 1_555
P0 Ti0 2.520779 1_555
P0 Ti6 2.520779 1_555
P0 Ti7 2.520779 1_554
P0 Ti1 2.520779 1_444
P0 Ti2 2.520780 1_454
P0 Ti3 2.520780 1_555
P0 Ti5 2.520782 1_554
P0 Ti4 2.520782 1_545
