# generated using pymatgen
data_RbNb8VSe16
_symmetry_space_group_name_H-M   'P 1'
_cell_length_a   7.00410642
_cell_length_b   7.00410737
_cell_length_c   15.29845793
_cell_angle_alpha   90.00000000
_cell_angle_beta   90.00000000
_cell_angle_gamma   120.00000023
_symmetry_Int_Tables_number   1
_chemical_formula_structural   RbNb8VSe16
_chemical_formula_sum   'Rb1 Nb8 V1 Se16'
_cell_volume   649.95579115
_cell_formula_units_Z   1
loop_
 _symmetry_equiv_pos_site_id
 _symmetry_equiv_pos_as_xyz
  1  'x, y, z'
loop_
 _atom_site_type_symbol
 _atom_site_label
 _atom_site_symmetry_multiplicity
 _atom_site_fract_x
 _atom_site_fract_y
 _atom_site_fract_z
 _atom_site_occupancy
  Rb  Rb0  1  0.00000000  0.00000000  0.00000000  1
  Nb  Nb0  1  0.00000000  0.00000000  0.28975896  1
  Nb  Nb1  1  0.00000000  0.00000000  0.71024104  1
  Nb  Nb2  1  0.50954735  0.01909371  0.29131800  1
  Nb  Nb3  1  0.49045265  0.98090629  0.70868200  1
  Nb  Nb4  1  0.98090629  0.49045265  0.29131800  1
  Nb  Nb5  1  0.01909371  0.50954735  0.70868200  1
  Nb  Nb6  1  0.50954735  0.49045265  0.29131800  1
  Nb  Nb7  1  0.49045265  0.50954735  0.70868200  1
  V  V0  1  0.00000000  0.00000000  0.50000000  1
  Se  Se0  1  0.33333300  0.66666700  0.59554480  1
  Se  Se1  1  0.66666700  0.33333300  0.40445520  1
  Se  Se2  1  0.66666700  0.33333300  0.17729998  1
  Se  Se3  1  0.33333300  0.66666700  0.82270002  1
  Se  Se4  1  0.16896864  0.33793729  0.18381024  1
  Se  Se5  1  0.83103136  0.66206271  0.81618976  1
  Se  Se6  1  0.66206271  0.83103136  0.18381024  1
  Se  Se7  1  0.83292508  0.66584916  0.60206150  1
  Se  Se8  1  0.33793729  0.16896864  0.81618976  1
  Se  Se9  1  0.16707492  0.33415084  0.39793850  1
  Se  Se10  1  0.16896864  0.83103136  0.18381024  1
  Se  Se11  1  0.33415084  0.16707492  0.60206150  1
  Se  Se12  1  0.83103136  0.16896864  0.81618976  1
  Se  Se13  1  0.66584916  0.83292508  0.39793850  1
  Se  Se14  1  0.83292508  0.16707492  0.60206150  1
  Se  Se15  1  0.16707492  0.83292508  0.39793850  1
loop_
_geom_bond_atom_site_label_1
_geom_bond_atom_site_label_2
_geom_bond_distance
_geom_bond_site_symmetry_2
Rb0 Se6 3.479835 1_445
Rb0 Se8 3.479835 1_554
Rb0 Se10 3.479835 1_545
Rb0 Se12 3.479835 1_454
Rb0 Se4 3.479835 1_555
Rb0 Se5 3.479835 1_444
Nb0 Se6 2.613235 1_445
Nb0 Se10 2.613235 1_545
Nb0 Se4 2.613235 1_555
Nb0 Se15 2.616704 1_545
Nb0 Se13 2.616708 1_445
Nb0 Se9 2.616708 1_555
Nb1 Se8 2.613235 1_555
Nb1 Se12 2.613235 1_455
Nb1 Se5 2.613235 1_445
Nb1 Se14 2.616704 1_455
Nb1 Se11 2.616708 1_555
Nb1 Se7 2.616708 1_445
Nb2 Se1 2.574673 1_555
Nb2 Se2 2.583751 1_555
Nb2 Se13 2.643264 1_545
Nb2 Se15 2.643273 1_545
Nb2 Se6 2.643539 1_545
Nb2 Se10 2.643543 1_545
Nb3 Se0 2.574673 1_555
Nb3 Se3 2.583751 1_555
Nb3 Se11 2.643264 1_565
Nb3 Se14 2.643273 1_565
Nb3 Se8 2.643539 1_565
Nb3 Se12 2.643543 1_565
Nb4 Se1 2.574673 1_555
Nb4 Se2 2.583751 1_555
Nb4 Se9 2.643264 1_655
Nb4 Se15 2.643273 1_655
Nb4 Se4 2.643539 1_655
Nb4 Se10 2.643543 1_655
Nb5 Se0 2.574673 1_555
Nb5 Se3 2.583751 1_555
Nb5 Se7 2.643264 1_455
Nb5 Se14 2.643273 1_455
Nb5 Se5 2.643539 1_455
Nb5 Se12 2.643543 1_455
Nb6 Se1 2.574673 1_555
Nb6 Se2 2.583751 1_555
Nb6 Se9 2.643273 1_555
Nb6 Se13 2.643273 1_555
Nb6 Se4 2.643544 1_555
Nb6 Se6 2.643544 1_555
Nb7 Se0 2.574673 1_555
Nb7 Se3 2.583751 1_555
Nb7 Se7 2.643273 1_555
Nb7 Se11 2.643273 1_555
Nb7 Se5 2.643544 1_555
Nb7 Se8 2.643544 1_555
Se7 V0 2.558539 1_665
Se9 V0 2.558539 1_555
Se11 V0 2.558539 1_555
Se13 V0 2.558539 1_665
Se14 V0 2.558534 1_655
Se15 V0 2.558534 1_565
