# generated using pymatgen
data_Li3Ti10Al9Ir8
_symmetry_space_group_name_H-M   'P 1'
_cell_length_a   8.61483156
_cell_length_b   8.61483196
_cell_length_c   8.61483204
_cell_angle_alpha   59.87495903
_cell_angle_beta   59.87496908
_cell_angle_gamma   59.87496253
_symmetry_Int_Tables_number   1
_chemical_formula_structural   Li3Ti10Al9Ir8
_chemical_formula_sum   'Li3 Ti10 Al9 Ir8'
_cell_volume   450.80790701
_cell_formula_units_Z   1
loop_
 _symmetry_equiv_pos_site_id
 _symmetry_equiv_pos_as_xyz
  1  'x, y, z'
loop_
 _atom_site_type_symbol
 _atom_site_label
 _atom_site_symmetry_multiplicity
 _atom_site_fract_x
 _atom_site_fract_y
 _atom_site_fract_z
 _atom_site_occupancy
  Li  Li0  1  0.24720646  0.24720646  0.75995429  1
  Li  Li1  1  0.75995429  0.24720646  0.24720646  1
  Li  Li2  1  0.24720646  0.75995429  0.24720646  1
  Ti  Ti0  1  0.78440550  0.78440550  0.17643322  1
  Ti  Ti1  1  0.17643322  0.78440550  0.78440550  1
  Ti  Ti2  1  0.78440550  0.17643322  0.78440550  1
  Ti  Ti3  1  0.37821664  0.37821664  0.37821664  1
  Ti  Ti4  1  0.37597414  0.88163043  0.37597414  1
  Ti  Ti5  1  0.88163043  0.37597414  0.37597414  1
  Ti  Ti6  1  0.37597414  0.37597414  0.88163043  1
  Ti  Ti7  1  0.87391691  0.39203989  0.87391691  1
  Ti  Ti8  1  0.39203989  0.87391691  0.87391691  1
  Ti  Ti9  1  0.87391691  0.87391691  0.39203989  1
  Al  Al0  1  0.13062674  0.13062674  0.13062674  1
  Al  Al1  1  0.15096973  0.58689347  0.15096973  1
  Al  Al2  1  0.58689347  0.15096973  0.15096973  1
  Al  Al3  1  0.15096973  0.15096973  0.58689347  1
  Al  Al4  1  0.62664050  0.62664050  0.62664050  1
  Al  Al5  1  0.61438176  0.14101621  0.61438176  1
  Al  Al6  1  0.14101621  0.61438176  0.61438176  1
  Al  Al7  1  0.61438176  0.61438176  0.14101621  1
  Al  Al8  1  0.80810324  0.80810324  0.80810324  1
  Ir  Ir0  1  0.00190323  0.00190323  0.50983788  1
  Ir  Ir1  1  0.50983788  0.00190323  0.00190323  1
  Ir  Ir2  1  0.00190323  0.50983788  0.00190323  1
  Ir  Ir3  1  0.50466051  0.50466051  0.99950675  1
  Ir  Ir4  1  0.99950675  0.50466051  0.50466051  1
  Ir  Ir5  1  0.50466051  0.99950675  0.50466051  1
  Ir  Ir6  1  0.50402812  0.50402812  0.50402812  1
  Ir  Ir7  1  0.99823314  0.99823314  0.99823314  1
loop_
_geom_bond_atom_site_label_1
_geom_bond_atom_site_label_2
_geom_bond_distance
_geom_bond_site_symmetry_2
Li0 Ti8 2.625849 1_545
Li0 Ti7 2.625849 1_455
Li0 Ti6 2.670116 1_555
Li0 Ti3 2.681395 1_555
Li1 Ti9 2.625849 1_545
Li1 Ti7 2.625849 1_554
Li1 Ti5 2.670116 1_555
Li1 Ti3 2.681395 1_555
Li2 Ti9 2.625849 1_455
Li2 Ti8 2.625849 1_554
Li2 Ti4 2.670116 1_555
Li2 Ti3 2.681395 1_555
Ti0 Ti9 2.848081 1_555
Ti0 Ti5 2.907333 1_555
Ti0 Ti4 2.907333 1_555
Ti1 Ti8 2.848081 1_555
Ti1 Ti6 2.907333 1_555
Ti1 Ti4 2.907334 1_555
Ti2 Ti7 2.848081 1_555
Ti2 Ti6 2.907333 1_555
Ti2 Ti5 2.907333 1_555
Al0 Li2 2.605465 1_545
Al0 Li1 2.605465 1_455
Al0 Li0 2.605465 1_554
Al0 Ir2 2.663326 1_555
Al0 Ir1 2.663326 1_555
Al0 Ir0 2.663326 1_555
Al0 Ir7 2.796399 1_444
Al0 Ti4 2.986376 1_545
Al0 Ti6 2.986377 1_554
Al0 Ti5 2.986377 1_455
Al0 Ti7 3.124749 1_454
Al0 Ti9 3.124750 1_445
Al0 Ti8 3.124750 1_544
Al1 Ir3 2.501781 1_554
Al1 Ir4 2.501781 1_455
Al1 Li2 2.601694 1_555
Al1 Ir2 2.665641 1_555
Al1 Ti0 2.683537 1_455
Al1 Ti1 2.683537 1_554
Al1 Ti3 2.771031 1_555
Al1 Ir7 2.897786 1_454
Al1 Ti5 2.936793 1_455
Al1 Ti6 2.936793 1_554
Al1 Ti8 3.221615 1_554
Al1 Ti9 3.221616 1_455
Al2 Ir3 2.501781 1_554
Al2 Ir5 2.501781 1_545
Al2 Li1 2.601693 1_555
Al2 Ir1 2.665641 1_555
Al2 Ti0 2.683537 1_545
Al2 Ti2 2.683537 1_554
Al2 Ti3 2.771031 1_555
Al2 Ir7 2.897786 1_544
Al2 Ti6 2.936793 1_554
Al2 Ti4 2.936793 1_545
Al2 Ti9 3.221615 1_545
Al2 Ti7 3.221615 1_554
Al3 Ir4 2.501781 1_455
Al3 Ir5 2.501781 1_545
Al3 Li0 2.601694 1_555
Al3 Ir0 2.665641 1_555
Al3 Ti1 2.683537 1_545
Al3 Ti2 2.683537 1_455
Al3 Ti3 2.771031 1_555
Al3 Ir7 2.897786 1_445
Al3 Ti5 2.936793 1_455
Al3 Ti4 2.936793 1_545
Al3 Ti8 3.221615 1_545
Al3 Ti7 3.221616 1_455
Al4 Ir6 2.589802 1_555
Al4 Ir5 2.618891 1_555
Al4 Ir4 2.618891 1_555
Al4 Ir3 2.618891 1_555
Al4 Ti7 3.012046 1_555
Al4 Ti9 3.012047 1_555
Al4 Ti8 3.012047 1_555
Al4 Ti4 3.051164 1_555
Al4 Ti6 3.051164 1_555
Al4 Ti5 3.051164 1_555
Al4 Ti2 3.163644 1_555
Al4 Ti1 3.163644 1_555
Al4 Ti0 3.163644 1_555
Al5 Ir5 2.546221 1_545
Al5 Ir6 2.554634 1_555
Al5 Li0 2.584621 1_555
Al5 Li1 2.584621 1_555
Al5 Al8 2.642449 1_545
Al5 Ti2 2.726655 1_555
Al5 Ir0 2.727981 1_655
Al5 Ir1 2.727981 1_556
Al5 Ti3 2.874521 1_555
Al5 Ti8 2.987262 1_545
Al5 Ti9 2.987262 1_545
Al5 Ti5 3.061752 1_555
Al5 Ti6 3.061752 1_555
Al6 Ir4 2.546221 1_455
Al6 Ir6 2.554634 1_555
Al6 Li0 2.584621 1_555
Al6 Li2 2.584621 1_555
Al6 Al8 2.642449 1_455
Al6 Ti1 2.726655 1_555
Al6 Ir0 2.727980 1_565
Al6 Ir2 2.727981 1_556
Al6 Ti3 2.874522 1_555
Al6 Ti9 2.987261 1_455
Al6 Ti7 2.987262 1_455
Al6 Ti6 3.061751 1_555
Al6 Ti4 3.061752 1_555
Al7 Ir3 2.546221 1_554
Al7 Ir6 2.554634 1_555
Al7 Li1 2.584621 1_555
Al7 Li2 2.584621 1_555
Al7 Al8 2.642449 1_554
Al7 Ti0 2.726655 1_555
Al7 Ir1 2.727980 1_565
Al7 Ir2 2.727981 1_655
Al7 Ti3 2.874521 1_555
Al7 Ti8 2.987262 1_554
Al7 Ti7 2.987262 1_554
Al7 Ti5 3.061751 1_555
Al7 Ti4 3.061752 1_555
Al8 Ir2 2.522470 1_656
Al8 Ir0 2.522470 1_665
Al8 Ir1 2.522470 1_566
Al8 Ti1 2.982160 1_655
Al8 Ti2 2.982160 1_565
Al8 Ti0 2.982160 1_556
Al8 Ti8 3.119797 1_555
Al8 Ti7 3.119797 1_555
Al8 Ti9 3.119797 1_555
Ir0 Ti5 2.627889 1_455
Ir0 Ti4 2.627889 1_545
Ir0 Ti9 2.632063 1_445
Ir0 Ti1 2.767601 1_545
Ir0 Ti2 2.767601 1_455
Ir1 Ti6 2.627889 1_554
Ir1 Ti4 2.627889 1_545
Ir1 Ti8 2.632063 1_544
Ir1 Ti0 2.767600 1_545
Ir1 Ti2 2.767601 1_554
Ir2 Ti6 2.627889 1_554
Ir2 Ti5 2.627889 1_455
Ir2 Ti7 2.632063 1_454
Ir2 Ti1 2.767601 1_554
Ir2 Ti0 2.767601 1_455
Ir3 Ti8 2.594637 1_555
Ir3 Ti7 2.594637 1_555
Ir3 Ti6 2.642531 1_555
Ir3 Ti3 2.659638 1_556
Ir4 Ti9 2.594637 1_555
Ir4 Ti7 2.594637 1_555
Ir4 Ti5 2.642531 1_555
Ir4 Ti3 2.659638 1_655
Ir5 Ti9 2.594637 1_555
Ir5 Ti8 2.594637 1_555
Ir5 Ti4 2.642531 1_555
Ir5 Ti3 2.659638 1_565
Ir6 Ti4 2.652006 1_555
Ir6 Ti5 2.652006 1_555
Ir6 Ti6 2.652006 1_555
Ir6 Ti3 2.657373 1_555
Ir7 Ti2 2.621496 1_565
Ir7 Ti0 2.621496 1_556
Ir7 Ti1 2.621496 1_655
Ir7 Ti7 2.767798 1_565
Ir7 Ti8 2.767798 1_655
Ir7 Ti9 2.767798 1_556
Ir7 Li2 3.032075 1_656
Ir7 Li0 3.032075 1_665
Ir7 Li1 3.032075 1_566
