# generated using pymatgen
data_CsCrCuAs2
_symmetry_space_group_name_H-M   'P 1'
_cell_length_a   8.02199690
_cell_length_b   8.02199747
_cell_length_c   8.02199686
_cell_angle_alpha   150.58660838
_cell_angle_beta   150.58661194
_cell_angle_gamma   42.08100036
_symmetry_Int_Tables_number   1
_chemical_formula_structural   CsCrCuAs2
_chemical_formula_sum   'Cs1 Cr1 Cu1 As2'
_cell_volume   124.21308116
_cell_formula_units_Z   1
loop_
 _symmetry_equiv_pos_site_id
 _symmetry_equiv_pos_as_xyz
  1  'x, y, z'
loop_
 _atom_site_type_symbol
 _atom_site_label
 _atom_site_symmetry_multiplicity
 _atom_site_fract_x
 _atom_site_fract_y
 _atom_site_fract_z
 _atom_site_occupancy
  Cs  Cs0  1  0.00000000  0.00000000  0.00000000  1
  Cr  Cr0  1  0.75000000  0.25000000  0.50000000  1
  Cu  Cu0  1  0.25000000  0.75000000  0.50000000  1
  As  As0  1  0.33910427  0.33910427  1.00000000  1
  As  As1  1  0.66089573  0.66089573  0.00000000  1
loop_
_geom_bond_atom_site_label_1
_geom_bond_atom_site_label_2
_geom_bond_distance
_geom_bond_site_symmetry_2
As0 Cr0 2.434713 1_455
As0 Cr0 2.434713 1_556
As0 Cu0 2.434713 1_556
As0 Cu0 2.434714 1_545
As0 Cs0 3.754972 1_555
As0 Cs0 3.754972 1_656
As0 Cs0 3.754972 1_667
As0 Cs0 3.754972 1_566
As1 Cu0 2.434713 1_655
As1 Cu0 2.434713 1_554
As1 Cr0 2.434713 1_554
As1 Cr0 2.434714 1_565
As1 Cs0 3.754972 1_666
As1 Cs0 3.754972 1_565
As1 Cs0 3.754972 1_554
As1 Cs0 3.754972 1_655
