# generated using pymatgen
data_HfInRuRh
_symmetry_space_group_name_H-M   'P 1'
_cell_length_a   4.53713137
_cell_length_b   4.53713203
_cell_length_c   4.53713171
_cell_angle_alpha   60.00000238
_cell_angle_beta   59.99999752
_cell_angle_gamma   59.99999910
_symmetry_Int_Tables_number   1
_chemical_formula_structural   HfInRuRh
_chemical_formula_sum   'Hf1 In1 Ru1 Rh1'
_cell_volume   66.04335951
_cell_formula_units_Z   1
loop_
 _symmetry_equiv_pos_site_id
 _symmetry_equiv_pos_as_xyz
  1  'x, y, z'
loop_
 _atom_site_type_symbol
 _atom_site_label
 _atom_site_symmetry_multiplicity
 _atom_site_fract_x
 _atom_site_fract_y
 _atom_site_fract_z
 _atom_site_occupancy
  Hf  Hf0  1  0.00000000  0.00000000  0.00000000  1
  In  In0  1  0.50000000  0.50000000  0.50000000  1
  Ru  Ru0  1  0.75000000  0.75000000  0.75000000  1
  Rh  Rh0  1  0.25000000  0.25000000  0.25000000  1
loop_
_geom_bond_atom_site_label_1
_geom_bond_atom_site_label_2
_geom_bond_distance
_geom_bond_site_symmetry_2
Hf0 Rh0 2.778414 1_455
Hf0 Ru0 2.778414 1_544
Hf0 Ru0 2.778414 1_444
Hf0 Ru0 2.778414 1_445
Hf0 Rh0 2.778414 1_554
Hf0 Rh0 2.778414 1_555
Hf0 Rh0 2.778415 1_545
Hf0 Ru0 2.778415 1_454
In0 Rh0 2.778414 1_655
In0 Ru0 2.778414 1_455
In0 Ru0 2.778414 1_555
In0 Ru0 2.778414 1_554
In0 Rh0 2.778414 1_555
In0 Rh0 2.778414 1_556
In0 Rh0 2.778415 1_565
In0 Ru0 2.778415 1_545
