# generated using pymatgen
data_Hf9Zr(BPb3)2
_symmetry_space_group_name_H-M   'P 1'
_cell_length_a   8.55606803
_cell_length_b   8.55606683
_cell_length_c   5.83773704
_cell_angle_alpha   90.00000000
_cell_angle_beta   90.00000000
_cell_angle_gamma   119.99999701
_symmetry_Int_Tables_number   1
_chemical_formula_structural   Hf9Zr(BPb3)2
_chemical_formula_sum   'Hf9 Zr1 B2 Pb6'
_cell_volume   370.10382196
_cell_formula_units_Z   1
loop_
 _symmetry_equiv_pos_site_id
 _symmetry_equiv_pos_as_xyz
  1  'x, y, z'
loop_
 _atom_site_type_symbol
 _atom_site_label
 _atom_site_symmetry_multiplicity
 _atom_site_fract_x
 _atom_site_fract_y
 _atom_site_fract_z
 _atom_site_occupancy
  Hf  Hf0  1  0.66666700  0.33333300  0.00000000  1
  Hf  Hf1  1  0.33333300  0.66666700  0.00000000  1
  Hf  Hf2  1  0.33333300  0.66666700  0.50000000  1
  Hf  Hf3  1  0.77872826  0.77856764  0.74996572  1
  Hf  Hf4  1  0.22143236  0.00016062  0.74996572  1
  Hf  Hf5  1  0.99983938  0.22127174  0.74996572  1
  Hf  Hf6  1  0.22143236  0.22127174  0.25003428  1
  Hf  Hf7  1  0.77872826  0.00016062  0.25003428  1
  Hf  Hf8  1  0.99983938  0.77856764  0.25003428  1
  Zr  Zr0  1  0.66666700  0.33333300  0.50000000  1
  B  B0  1  0.00000000  0.00000000  0.00000000  1
  B  B1  1  0.00000000  0.00000000  0.50000000  1
  Pb  Pb0  1  0.39871441  0.39962781  0.75111662  1
  Pb  Pb1  1  0.60037219  0.99908560  0.75111662  1
  Pb  Pb2  1  0.00091440  0.60128559  0.75111662  1
  Pb  Pb3  1  0.60037219  0.60128559  0.24888338  1
  Pb  Pb4  1  0.39871441  0.99908560  0.24888338  1
  Pb  Pb5  1  0.00091440  0.39962781  0.24888338  1
loop_
_geom_bond_atom_site_label_1
_geom_bond_atom_site_label_2
_geom_bond_distance
_geom_bond_site_symmetry_2
Hf0 Zr0 2.918869 1_554
Hf0 Zr0 2.918869 1_555
Hf0 Pb1 2.998206 1_544
Hf0 Pb3 2.998206 1_555
Hf0 Pb4 2.998206 1_545
Hf0 Pb0 2.998206 1_554
Hf0 Pb2 2.998206 1_654
Hf0 Pb5 2.998207 1_655
Hf1 Pb4 2.987020 1_555
Hf1 Pb2 2.987020 1_554
Hf1 Pb1 2.987025 1_554
Hf1 Pb5 2.987025 1_555
Hf1 Pb0 2.987034 1_554
Hf1 Pb3 2.987034 1_555
Hf2 Pb4 2.993383 1_555
Hf2 Pb2 2.993383 1_555
Hf2 Pb1 2.993388 1_555
Hf2 Pb5 2.993388 1_555
Hf2 Pb0 2.993397 1_555
Hf2 Pb3 2.993397 1_555
Hf3 Pb1 2.961072 1_555
Hf3 Pb2 2.966203 1_655
Hf3 Pb0 3.246846 1_555
Hf3 Pb3 3.285996 1_556
Hf3 Pb3 3.297201 1_555
Hf4 Pb2 2.961079 1_545
Hf4 Pb0 2.966195 1_555
Hf4 Pb1 3.246851 1_545
Hf4 Pb4 3.285998 1_546
Hf4 Pb4 3.297203 1_545
Hf5 Pb0 2.961080 1_655
Hf5 Pb1 2.966196 1_545
Hf5 Pb2 3.246842 1_655
Hf5 Pb5 3.285993 1_656
Hf5 Pb5 3.297199 1_655
Hf6 Pb5 2.961072 1_555
Hf6 Pb4 2.966203 1_545
Hf6 Pb3 3.246846 1_555
Hf6 Pb0 3.285995 1_554
Hf6 Pb0 3.297201 1_555
Hf7 Pb3 2.961079 1_545
Hf7 Pb5 2.966196 1_655
Hf7 Pb4 3.246842 1_545
Hf7 Pb1 3.285994 1_544
Hf7 Pb1 3.297199 1_545
Hf8 Pb4 2.961079 1_655
Hf8 Pb3 2.966195 1_555
Hf8 Pb5 3.246850 1_655
Hf8 Pb2 3.285997 1_654
Hf8 Pb2 3.297203 1_655
B0 Hf8 2.391109 1_445
B0 Hf5 2.391109 1_454
B0 Hf3 2.391109 1_444
B0 Hf6 2.391109 1_555
B0 Hf7 2.391109 1_455
B0 Hf4 2.391109 1_554
B1 Hf8 2.390865 1_445
B1 Hf5 2.390865 1_455
B1 Hf3 2.390865 1_445
B1 Hf6 2.390865 1_555
B1 Hf7 2.390865 1_455
B1 Hf4 2.390865 1_555
Pb0 Zr0 3.004546 1_555
Pb1 Zr0 3.004545 1_565
Pb2 Zr0 3.004546 1_455
Pb3 Zr0 3.004546 1_555
Pb4 Zr0 3.004546 1_565
Pb5 Zr0 3.004546 1_455
