# generated using pymatgen
data_Ba3Sr9Ga4(O4F)4
_symmetry_space_group_name_H-M   'P 1'
_cell_length_a   6.88969495
_cell_length_b   6.88969495
_cell_length_c   11.42884497
_cell_angle_alpha   90.00000000
_cell_angle_beta   90.00000000
_cell_angle_gamma   90.00000000
_symmetry_Int_Tables_number   1
_chemical_formula_structural   Ba3Sr9Ga4(O4F)4
_chemical_formula_sum   'Ba3 Sr9 Ga4 O16 F4'
_cell_volume   542.50322972
_cell_formula_units_Z   1
loop_
 _symmetry_equiv_pos_site_id
 _symmetry_equiv_pos_as_xyz
  1  'x, y, z'
loop_
 _atom_site_type_symbol
 _atom_site_label
 _atom_site_symmetry_multiplicity
 _atom_site_fract_x
 _atom_site_fract_y
 _atom_site_fract_z
 _atom_site_occupancy
  Ba  Ba0  1  0.00000000  0.00000000  0.50000000  1
  Ba  Ba1  1  0.00000000  0.00000000  0.00000000  1
  Ba  Ba2  1  0.50000000  0.50000000  0.50000000  1
  Sr  Sr0  1  0.66663318  0.16849910  0.75105490  1
  Sr  Sr1  1  0.16849910  0.66663318  0.24894510  1
  Sr  Sr2  1  0.83150090  0.33336682  0.24894510  1
  Sr  Sr3  1  0.33336682  0.83150090  0.75105490  1
  Sr  Sr4  1  0.33336682  0.16849910  0.24894510  1
  Sr  Sr5  1  0.83150090  0.66663318  0.75105490  1
  Sr  Sr6  1  0.66663318  0.83150090  0.24894510  1
  Sr  Sr7  1  0.16849910  0.33336682  0.75105490  1
  Sr  Sr8  1  0.50000000  0.50000000  0.00000000  1
  Ga  Ga0  1  0.00000000  0.50000000  0.00000000  1
  Ga  Ga1  1  0.50000000  0.00000000  0.50000000  1
  Ga  Ga2  1  0.50000000  0.00000000  0.00000000  1
  Ga  Ga3  1  0.00000000  0.50000000  0.50000000  1
  O  O0  1  0.64078772  0.14876652  0.10657052  1
  O  O1  1  0.14409594  0.64318896  0.60824011  1
  O  O2  1  0.35921228  0.85123348  0.10657052  1
  O  O3  1  0.85590406  0.35681104  0.60824011  1
  O  O4  1  0.85123348  0.64078772  0.10657052  1
  O  O5  1  0.35681104  0.14409594  0.60824011  1
  O  O6  1  0.14876652  0.35921228  0.10657052  1
  O  O7  1  0.64318896  0.85590406  0.60824011  1
  O  O8  1  0.85123348  0.35921228  0.89342948  1
  O  O9  1  0.35681104  0.85590406  0.39175989  1
  O  O10  1  0.14876652  0.64078772  0.89342948  1
  O  O11  1  0.64318896  0.14409594  0.39175989  1
  O  O12  1  0.64078772  0.85123348  0.89342948  1
  O  O13  1  0.14409594  0.35681104  0.39175989  1
  O  O14  1  0.35921228  0.14876652  0.89342948  1
  O  O15  1  0.85590406  0.64318896  0.39175989  1
  F  F0  1  0.00000000  0.00000000  0.75165364  1
  F  F1  1  0.50000000  0.50000000  0.24522726  1
  F  F2  1  0.00000000  0.00000000  0.24834636  1
  F  F3  1  0.50000000  0.50000000  0.75477274  1
loop_
_geom_bond_atom_site_label_1
_geom_bond_atom_site_label_2
_geom_bond_distance
_geom_bond_site_symmetry_2
Ba0 F0 2.876110 1_555
Ba0 F2 2.876110 1_555
Ba0 O5 2.925621 1_555
Ba0 O3 2.925621 1_455
Ba0 O13 2.925621 1_555
Ba0 O1 2.925621 1_545
Ba0 O9 2.925621 1_545
Ba0 O7 2.925621 1_445
Ba0 O11 2.925621 1_455
Ba0 O15 2.925621 1_445
Ba1 F2 2.838312 1_555
Ba1 F0 2.838312 1_554
Ba1 O6 2.942610 1_555
Ba1 O2 2.942610 1_545
Ba1 O14 2.942610 1_554
Ba1 O0 2.942610 1_455
Ba1 O8 2.942610 1_454
Ba1 O4 2.942610 1_445
Ba1 O10 2.942610 1_544
Ba1 O12 2.942610 1_444
Ba2 F3 2.911758 1_555
Ba2 F1 2.911758 1_555
Ba2 O7 2.918254 1_555
Ba2 O3 2.918254 1_555
Ba2 O15 2.918254 1_555
Ba2 O1 2.918254 1_555
Ba2 O9 2.918254 1_555
Ba2 O5 2.918254 1_555
Ba2 O11 2.918254 1_555
Ba2 O13 2.918254 1_555
Ga0 O6 1.864102 1_555
Ga0 O4 1.864102 1_455
Ga0 O10 1.864102 1_554
Ga0 O8 1.864102 1_454
Ga1 O5 1.867929 1_555
Ga1 O7 1.867929 1_545
Ga1 O11 1.867929 1_555
Ga1 O9 1.867929 1_545
Ga2 O0 1.864102 1_555
Ga2 O2 1.864102 1_545
Ga2 O14 1.864102 1_554
Ga2 O12 1.864102 1_544
Ga3 O1 1.867929 1_555
Ga3 O3 1.867929 1_455
Ga3 O13 1.867929 1_555
Ga3 O15 1.867929 1_455
O0 Sr2 2.447807 1_555
O0 Sr4 2.674372 1_555
O0 Sr6 2.730826 1_545
O0 Sr8 2.877536 1_555
O1 Sr3 2.459237 1_555
O1 Sr7 2.692360 1_555
O1 Sr5 2.707129 1_455
O2 Sr1 2.447807 1_555
O2 Sr6 2.674372 1_555
O2 Sr4 2.730826 1_565
O2 Sr8 2.877536 1_555
O3 Sr0 2.459237 1_555
O3 Sr5 2.692360 1_555
O3 Sr7 2.707129 1_655
O4 Sr6 2.447807 1_555
O4 Sr2 2.674372 1_555
O4 Sr1 2.730826 1_655
O4 Sr8 2.877536 1_555
O5 Sr7 2.459237 1_555
O5 Sr0 2.692360 1_555
O5 Sr3 2.707129 1_545
O6 Sr4 2.447807 1_555
O6 Sr1 2.674372 1_555
O6 Sr2 2.730826 1_455
O6 Sr8 2.877536 1_555
O7 Sr5 2.459237 1_555
O7 Sr3 2.692360 1_555
O7 Sr0 2.707129 1_565
O8 Sr0 2.447807 1_555
O8 Sr5 2.674372 1_555
O8 Sr7 2.730826 1_655
O8 Sr8 2.877536 1_556
O9 Sr1 2.459237 1_555
O9 Sr6 2.692360 1_555
O9 Sr4 2.707129 1_565
O10 Sr3 2.447807 1_555
O10 Sr7 2.674372 1_555
O10 Sr5 2.730826 1_455
O10 Sr8 2.877536 1_556
O11 Sr2 2.459237 1_555
O11 Sr4 2.692360 1_555
O11 Sr6 2.707129 1_545
O12 Sr5 2.447807 1_555
O12 Sr3 2.674372 1_555
O12 Sr0 2.730826 1_565
O12 Sr8 2.877536 1_556
O13 Sr4 2.459237 1_555
O13 Sr1 2.692360 1_555
O13 Sr2 2.707129 1_455
O14 Sr7 2.447807 1_555
O14 Sr0 2.674372 1_555
O14 Sr3 2.730826 1_545
O14 Sr8 2.877536 1_556
O15 Sr6 2.459237 1_555
O15 Sr2 2.692360 1_555
O15 Sr1 2.707129 1_655
F0 Sr7 2.573524 1_555
F0 Sr3 2.573524 1_545
F0 Sr0 2.573524 1_455
F0 Sr5 2.573524 1_445
F1 Sr6 2.556601 1_555
F1 Sr2 2.556601 1_555
F1 Sr1 2.556601 1_555
F1 Sr4 2.556601 1_555
F1 Sr8 2.802664 1_555
F2 Sr4 2.573524 1_555
F2 Sr2 2.573524 1_455
F2 Sr1 2.573524 1_545
F2 Sr6 2.573524 1_445
F3 Sr5 2.556601 1_555
F3 Sr3 2.556601 1_555
F3 Sr0 2.556601 1_555
F3 Sr7 2.556601 1_555
F3 Sr8 2.802664 1_556
