# generated using pymatgen
data_Rb4Na2TeO6
_symmetry_space_group_name_H-M   'P 1'
_cell_length_a   9.70839083
_cell_length_b   6.98773080
_cell_length_c   7.59710891
_cell_angle_alpha   58.27365788
_cell_angle_beta   90.00000000
_cell_angle_gamma   90.00000000
_symmetry_Int_Tables_number   1
_chemical_formula_structural   Rb4Na2TeO6
_chemical_formula_sum   'Rb8 Na4 Te2 O12'
_cell_volume   438.37072034
_cell_formula_units_Z   2
loop_
 _symmetry_equiv_pos_site_id
 _symmetry_equiv_pos_as_xyz
  1  'x, y, z'
loop_
 _atom_site_type_symbol
 _atom_site_label
 _atom_site_symmetry_multiplicity
 _atom_site_fract_x
 _atom_site_fract_y
 _atom_site_fract_z
 _atom_site_occupancy
  Rb  Rb0  1  0.50263987  0.70151375  0.06368710  1
  Rb  Rb1  1  0.68170353  0.49914287  0.50932559  1
  Rb  Rb2  1  0.00263987  0.29848625  0.43631290  1
  Rb  Rb3  1  0.31829647  0.50085713  0.49067441  1
  Rb  Rb4  1  0.81829647  0.49914287  0.00932559  1
  Rb  Rb5  1  0.99736013  0.70151375  0.56368710  1
  Rb  Rb6  1  0.18170353  0.50085713  0.99067441  1
  Rb  Rb7  1  0.49736013  0.29848625  0.93631290  1
  Na  Na0  1  0.74848623  0.00679082  0.22284679  1
  Na  Na1  1  0.25151377  0.99320918  0.77715321  1
  Na  Na2  1  0.24848623  0.99320918  0.27715321  1
  Na  Na3  1  0.75151377  0.00679082  0.72284679  1
  Te  Te0  1  0.00000000  0.00000000  0.00000000  1
  Te  Te1  1  0.50000000  0.00000000  0.50000000  1
  O  O0  1  0.83850208  0.19515134  0.86679726  1
  O  O1  1  0.87677720  0.75480437  0.19438783  1
  O  O2  1  0.62322280  0.75480437  0.69438783  1
  O  O3  1  0.01025380  0.10700614  0.19261357  1
  O  O4  1  0.48974620  0.10700614  0.69261357  1
  O  O5  1  0.66149792  0.19515134  0.36679726  1
  O  O6  1  0.98974620  0.89299386  0.80738643  1
  O  O7  1  0.37677720  0.24519563  0.30561217  1
  O  O8  1  0.16149792  0.80484866  0.13320274  1
  O  O9  1  0.33850208  0.80484866  0.63320274  1
  O  O10  1  0.51025380  0.89299386  0.30738643  1
  O  O11  1  0.12322280  0.24519563  0.80561217  1
loop_
_geom_bond_atom_site_label_1
_geom_bond_atom_site_label_2
_geom_bond_distance
_geom_bond_site_symmetry_2
Na0 O1 2.258067 1_545
Na0 O5 2.270567 1_555
Na0 O10 2.420118 1_545
Na0 O0 2.463418 1_554
Na0 O3 2.613886 1_655
Na1 O11 2.258067 1_565
Na1 O9 2.270567 1_555
Na1 O4 2.420118 1_565
Na1 O8 2.463418 1_556
Na1 O6 2.613886 1_455
Na2 O7 2.258067 1_565
Na2 O8 2.270567 1_555
Na2 O3 2.420118 1_565
Na2 O9 2.463418 1_555
Na2 O10 2.613886 1_555
Na3 O2 2.258067 1_545
Na3 O0 2.270567 1_555
Na3 O6 2.420118 1_545
Na3 O5 2.463418 1_555
Na3 O4 2.613886 1_555
O0 Te0 1.972448 1_656
O0 Rb1 2.852654 1_555
O0 Rb4 2.853470 1_556
O1 Te0 1.971415 1_665
O1 Rb1 2.829727 1_555
O1 Rb4 2.851699 1_555
O1 Rb5 2.877805 1_555
O1 Rb2 2.979064 1_655
O2 Te1 1.971415 1_565
O2 Rb4 2.829727 1_556
O2 Rb1 2.851699 1_555
O2 Rb0 2.877805 1_556
O2 Rb7 2.979064 1_555
O3 Te0 1.964950 1_555
O3 Rb5 2.755087 1_445
O3 Rb2 2.798000 1_555
O3 Rb6 2.873640 1_554
O3 Rb4 2.984532 1_455
O4 Te1 1.964950 1_555
O4 Rb0 2.755087 1_546
O4 Rb7 2.798000 1_555
O4 Rb3 2.873640 1_555
O4 Rb1 2.984532 1_555
O5 Te1 1.972448 1_555
O5 Rb4 2.852654 1_555
O5 Rb1 2.853470 1_555
O6 Te0 1.964950 1_666
O6 Rb2 2.755087 1_665
O6 Rb5 2.798000 1_555
O6 Rb4 2.873640 1_556
O6 Rb6 2.984532 1_655
O7 Te1 1.971415 1_555
O7 Rb6 2.829727 1_554
O7 Rb3 2.851699 1_555
O7 Rb7 2.877805 1_554
O7 Rb0 2.979064 1_555
O8 Te0 1.972448 1_565
O8 Rb3 2.852654 1_555
O8 Rb6 2.853470 1_554
O9 Te1 1.972448 1_565
O9 Rb6 2.852654 1_555
O9 Rb3 2.853470 1_555
O10 Te1 1.964950 1_565
O10 Rb7 2.755087 1_564
O10 Rb0 2.798000 1_555
O10 Rb1 2.873640 1_555
O10 Rb3 2.984532 1_555
O11 Te0 1.971415 1_556
O11 Rb3 2.829727 1_555
O11 Rb6 2.851699 1_555
O11 Rb2 2.877805 1_555
O11 Rb5 2.979064 1_455
