# generated using pymatgen
data_RbY6(CI6)2
_symmetry_space_group_name_H-M   'P 1'
_cell_length_a   9.43443029
_cell_length_b   9.43560281
_cell_length_c   9.81305163
_cell_angle_alpha   72.65944234
_cell_angle_beta   71.76670730
_cell_angle_gamma   72.97709329
_symmetry_Int_Tables_number   1
_chemical_formula_structural   RbY6(CI6)2
_chemical_formula_sum   'Rb1 Y6 C2 I12'
_cell_volume   772.57132358
_cell_formula_units_Z   1
loop_
 _symmetry_equiv_pos_site_id
 _symmetry_equiv_pos_as_xyz
  1  'x, y, z'
loop_
 _atom_site_type_symbol
 _atom_site_label
 _atom_site_symmetry_multiplicity
 _atom_site_fract_x
 _atom_site_fract_y
 _atom_site_fract_z
 _atom_site_occupancy
  Rb  Rb0  1  0.00000000  0.50000100  0.99999900  1
  Y  Y0  1  0.47053012  0.10669379  0.19545448  1
  Y  Y1  1  0.76283200  0.03157320  0.41116443  1
  Y  Y2  1  0.58708310  0.73937380  0.47603047  1
  Y  Y3  1  0.41291790  0.26062620  0.52396753  1
  Y  Y4  1  0.23716900  0.96842680  0.58883557  1
  Y  Y5  1  0.52947188  0.89330521  0.80454252  1
  C  C0  1  0.49226632  0.02465893  0.42606315  1
  C  C1  1  0.50773568  0.97534107  0.57393585  1
  I  I0  1  0.79482097  0.15602191  0.07713490  1
  I  I1  1  0.58094263  0.77979300  0.13903864  1
  I  I2  1  0.34822964  0.43288218  0.22058839  1
  I  I3  1  0.13334228  0.06753089  0.29389617  1
  I  I4  1  0.92270428  0.72006565  0.35366961  1
  I  I5  1  0.71409185  0.36329977  0.43371325  1
  I  I6  1  0.28590715  0.63670123  0.56628875  1
  I  I7  1  0.07729472  0.27993535  0.64633139  1
  I  I8  1  0.86665572  0.93246911  0.70610883  1
  I  I9  1  0.65177036  0.56711782  0.77941161  1
  I  I10  1  0.41905637  0.22020500  0.86096136  1
  I  I11  1  0.20518003  0.84397709  0.92286710  1
loop_
_geom_bond_atom_site_label_1
_geom_bond_atom_site_label_2
_geom_bond_distance
_geom_bond_site_symmetry_2
C0 C1 1.426088 1_545
C0 Y0 2.217106 1_555
C0 Y3 2.507956 1_555
C0 Y2 2.522781 1_545
C0 Y1 2.529792 1_555
C0 Y4 2.542033 1_545
C1 Y5 2.217087 1_555
C1 Y2 2.507963 1_555
C1 Y3 2.522782 1_565
C1 Y4 2.529799 1_555
C1 Y1 2.542023 1_565
I0 Y0 3.035450 1_555
I0 Y1 3.083551 1_555
I0 Rb0 4.018897 1_654
I1 Y0 3.111514 1_565
I1 Y2 3.231047 1_555
I1 Y5 3.279409 1_554
I1 Rb0 4.137911 1_654
I2 Y0 3.009992 1_555
I2 Y3 3.090139 1_555
I2 Rb0 4.277287 1_554
I3 Y0 3.121227 1_555
I3 Y4 3.136101 1_545
I3 Y1 3.406276 1_455
I3 Rb0 4.336019 1_554
I4 Y2 2.985709 1_555
I4 Y1 3.015433 1_565
I4 Rb0 4.325947 1_654
I5 Y3 3.053198 1_555
I5 Y1 3.092575 1_555
I5 Y2 3.503917 1_555
I5 Rb0 4.316749 1_654
I6 Y2 3.053207 1_555
I6 Y4 3.092563 1_555
I6 Y3 3.503938 1_555
I6 Rb0 4.316716 1_555
I7 Y3 2.985728 1_555
I7 Y4 3.015448 1_545
I7 Rb0 4.325929 1_555
I8 Y5 3.121198 1_555
I8 Y1 3.136132 1_565
I8 Y4 3.406302 1_655
I8 Rb0 4.335978 1_655
I9 Y5 3.009975 1_555
I9 Y2 3.090152 1_555
I9 Rb0 4.277278 1_655
I10 Y5 3.111516 1_545
I10 Y3 3.231057 1_555
I10 Y0 3.279392 1_556
I10 Rb0 4.137918 1_555
I11 Y5 3.035460 1_555
I11 Y4 3.083570 1_555
I11 Rb0 4.018886 1_555
