# generated using pymatgen
data_Cs4Nb2NiS8
_symmetry_space_group_name_H-M   'P 1'
_cell_length_a   13.63001960
_cell_length_b   7.52170318
_cell_length_c   9.84637017
_cell_angle_alpha   84.74262256
_cell_angle_beta   90.00000000
_cell_angle_gamma   90.00000000
_symmetry_Int_Tables_number   1
_chemical_formula_structural   Cs4Nb2NiS8
_chemical_formula_sum   'Cs8 Nb4 Ni2 S16'
_cell_volume   1005.21268325
_cell_formula_units_Z   2
loop_
 _symmetry_equiv_pos_site_id
 _symmetry_equiv_pos_as_xyz
  1  'x, y, z'
loop_
 _atom_site_type_symbol
 _atom_site_label
 _atom_site_symmetry_multiplicity
 _atom_site_fract_x
 _atom_site_fract_y
 _atom_site_fract_z
 _atom_site_occupancy
  Cs  Cs0  1  0.13499632  0.81794532  0.68397571  1
  Cs  Cs1  1  0.63499632  0.18205468  0.81602429  1
  Cs  Cs2  1  0.86500368  0.18205468  0.31602429  1
  Cs  Cs3  1  0.36500368  0.81794532  0.18397571  1
  Cs  Cs4  1  0.34322917  0.26558512  0.53552789  1
  Cs  Cs5  1  0.84322917  0.73441488  0.96447211  1
  Cs  Cs6  1  0.65677083  0.73441488  0.46447211  1
  Cs  Cs7  1  0.15677083  0.26558512  0.03552789  1
  Nb  Nb0  1  0.42680434  0.74811984  0.77297374  1
  Nb  Nb1  1  0.92680434  0.25188016  0.72702626  1
  Nb  Nb2  1  0.57319566  0.25188016  0.22702626  1
  Nb  Nb3  1  0.07319566  0.74811984  0.27297374  1
  Ni  Ni0  1  0.00000000  0.50000000  0.50000000  1
  Ni  Ni1  1  0.50000000  0.50000000  0.00000000  1
  S  S0  1  0.08520409  0.31937701  0.65511105  1
  S  S1  1  0.58520409  0.68062299  0.84488895  1
  S  S2  1  0.91479591  0.68062299  0.34488895  1
  S  S3  1  0.41479591  0.31937701  0.15511105  1
  S  S4  1  0.40099545  0.74463728  0.54577768  1
  S  S5  1  0.90099545  0.25536272  0.95422232  1
  S  S6  1  0.59900455  0.25536272  0.45422232  1
  S  S7  1  0.09900455  0.74463728  0.04577768  1
  S  S8  1  0.14657450  0.51184854  0.39670092  1
  S  S9  1  0.64657450  0.48815146  0.10329908  1
  S  S10  1  0.85342550  0.48815146  0.60329908  1
  S  S11  1  0.35342550  0.51184854  0.89670092  1
  S  S12  1  0.37218047  0.00889138  0.84246576  1
  S  S13  1  0.87218047  0.99110862  0.65753424  1
  S  S14  1  0.62781953  0.99110862  0.15753424  1
  S  S15  1  0.12781953  0.00889138  0.34246576  1
loop_
_geom_bond_atom_site_label_1
_geom_bond_atom_site_label_2
_geom_bond_distance
_geom_bond_site_symmetry_2
Cs0 S15 3.534769 1_565
Cs0 S7 3.588268 1_556
Cs0 Ni0 3.630462 1_555
Cs0 S8 3.810557 1_555
Cs0 S13 3.812368 1_455
Cs0 S0 3.817073 1_565
Cs0 S0 3.847052 1_555
Cs0 S12 3.919184 1_565
Cs0 S4 3.929118 1_555
Cs1 S14 3.534769 1_546
Cs1 S6 3.588268 1_555
Cs1 Ni1 3.630462 1_556
Cs1 S9 3.810557 1_556
Cs1 S12 3.812368 1_555
Cs1 S1 3.817073 1_545
Cs1 S1 3.847052 1_555
Cs1 S13 3.919184 1_545
Cs1 S5 3.929118 1_555
Cs2 S13 3.534769 1_545
Cs2 S5 3.588268 1_554
Cs2 Ni0 3.630462 1_655
Cs2 S10 3.810557 1_555
Cs2 S15 3.812368 1_655
Cs2 S2 3.817073 1_545
Cs2 S2 3.847052 1_555
Cs2 S14 3.919184 1_545
Cs2 S6 3.929118 1_555
Cs3 S12 3.534769 1_564
Cs3 S4 3.588268 1_555
Cs3 Ni1 3.630462 1_555
Cs3 S11 3.810557 1_554
Cs3 S14 3.812368 1_555
Cs3 S3 3.817073 1_565
Cs3 S3 3.847052 1_555
Cs3 S15 3.919184 1_565
Cs3 S7 3.929118 1_555
Cs4 S12 3.456599 1_555
Cs4 S8 3.467014 1_555
Cs4 S6 3.579365 1_555
Cs4 S4 3.698708 1_555
Cs4 S0 3.742448 1_555
Cs4 S3 3.855897 1_555
Cs4 S4 3.988937 1_545
Cs4 S15 4.078539 1_555
Cs4 S11 4.159863 1_555
Cs5 S13 3.456599 1_555
Cs5 S9 3.467014 1_556
Cs5 S7 3.579365 1_656
Cs5 S5 3.698708 1_555
Cs5 S1 3.742448 1_555
Cs5 S2 3.855897 1_556
Cs5 S5 3.988937 1_565
Cs5 S14 4.078539 1_556
Cs5 S10 4.159863 1_555
Cs6 S14 3.456599 1_555
Cs6 S10 3.467014 1_555
Cs6 S4 3.579365 1_555
Cs6 S6 3.698708 1_555
Cs6 S2 3.742448 1_555
Cs6 S1 3.855897 1_555
Cs6 S6 3.988937 1_565
Cs6 S13 4.078539 1_555
Cs6 S9 4.159863 1_555
Cs7 S15 3.456599 1_555
Cs7 S11 3.467014 1_554
Cs7 S5 3.579365 1_454
Cs7 S7 3.698708 1_555
Cs7 S3 3.742448 1_555
Cs7 S0 3.855897 1_554
Cs7 S7 3.988937 1_545
Cs7 S12 4.078539 1_554
Cs7 S8 4.159863 1_555
Nb0 S12 2.261798 1_565
Nb0 S4 2.267067 1_555
Nb0 S11 2.290418 1_555
Nb0 S1 2.313985 1_555
Nb1 S13 2.261798 1_545
Nb1 S5 2.267067 1_555
Nb1 S10 2.290418 1_555
Nb1 S0 2.313985 1_655
Nb2 S14 2.261798 1_545
Nb2 S6 2.267067 1_555
Nb2 S9 2.290418 1_555
Nb2 S3 2.313985 1_555
Nb3 S15 2.261798 1_565
Nb3 S7 2.267067 1_555
Nb3 S8 2.290418 1_555
Nb3 S2 2.313985 1_455
Ni0 S8 2.239894 1_555
Ni0 S10 2.239894 1_455
Ni0 S0 2.268656 1_555
Ni0 S2 2.268656 1_455
Ni1 S9 2.239894 1_555
Ni1 S11 2.239894 1_554
Ni1 S1 2.268656 1_554
Ni1 S3 2.268656 1_555
