# generated using pymatgen
data_Ca(Tc2Ge)2
_symmetry_space_group_name_H-M   'P 1'
_cell_length_a   7.46764115
_cell_length_b   7.46764086
_cell_length_c   4.10818151
_cell_angle_alpha   90.00000000
_cell_angle_beta   90.00000000
_cell_angle_gamma   147.93079119
_symmetry_Int_Tables_number   1
_chemical_formula_structural   Ca(Tc2Ge)2
_chemical_formula_sum   'Ca1 Tc4 Ge2'
_cell_volume   121.63668993
_cell_formula_units_Z   1
loop_
 _symmetry_equiv_pos_site_id
 _symmetry_equiv_pos_as_xyz
  1  'x, y, z'
loop_
 _atom_site_type_symbol
 _atom_site_label
 _atom_site_symmetry_multiplicity
 _atom_site_fract_x
 _atom_site_fract_y
 _atom_site_fract_z
 _atom_site_occupancy
  Ca  Ca0  1  0.00000000  0.00000000  0.00000000  1
  Tc  Tc0  1  0.80487520  0.19512480  0.50000000  1
  Tc  Tc1  1  0.19512480  0.80487520  0.50000000  1
  Tc  Tc2  1  0.69927578  0.30072422  0.00000000  1
  Tc  Tc3  1  0.30072422  0.69927578  0.00000000  1
  Ge  Ge0  1  0.58959963  0.41040037  0.50000000  1
  Ge  Ge1  1  0.41040037  0.58959963  0.50000000  1
loop_
_geom_bond_atom_site_label_1
_geom_bond_atom_site_label_2
_geom_bond_distance
_geom_bond_site_symmetry_2
Ca0 Ge1 3.182474 1_555
Ca0 Ge1 3.182474 1_554
Ca0 Ge0 3.182474 1_444
Ca0 Ge0 3.182474 1_445
Ca0 Ge0 3.182474 1_555
Ca0 Ge0 3.182474 1_554
Ca0 Ge1 3.182474 1_445
Ca0 Ge1 3.182474 1_444
Ca0 Tc1 3.473346 1_545
Ca0 Tc1 3.473346 1_544
Ca0 Tc0 3.473346 1_454
Ca0 Tc0 3.473346 1_455
Ca0 Tc3 3.526597 1_555
Ca0 Tc2 3.526597 1_445
Ca0 Tc2 3.526597 1_555
Ca0 Tc3 3.526597 1_445
Tc0 Tc2 2.552828 1_556
Tc0 Tc2 2.552828 1_555
Tc0 Tc3 2.911624 1_656
Tc0 Tc3 2.911624 1_655
Tc0 Tc3 2.911624 1_545
Tc0 Tc3 2.911624 1_546
Tc1 Tc3 2.552828 1_556
Tc1 Tc3 2.552828 1_555
Tc1 Tc2 2.911624 1_455
Tc1 Tc2 2.911624 1_456
Tc1 Tc2 2.911624 1_566
Tc1 Tc2 2.911624 1_565
Tc2 Tc3 2.524930 1_545
Tc2 Tc3 2.524930 1_655
Ge0 Tc1 2.559126 1_545
Ge0 Tc1 2.559126 1_655
Ge0 Ge1 2.572267 1_555
Ge0 Tc2 2.588003 1_556
Ge0 Tc2 2.588003 1_555
Ge1 Tc0 2.559126 1_565
Ge1 Tc0 2.559126 1_455
Ge1 Tc3 2.588003 1_556
Ge1 Tc3 2.588003 1_555
