# generated using pymatgen
data_Rb2VCuTe4
_symmetry_space_group_name_H-M   'P 1'
_cell_length_a   14.98516769
_cell_length_b   13.39329555
_cell_length_c   7.95671650
_cell_angle_alpha   85.11908299
_cell_angle_beta   62.93980483
_cell_angle_gamma   31.94110410
_symmetry_Int_Tables_number   1
_chemical_formula_structural   Rb2VCuTe4
_chemical_formula_sum   'Rb4 V2 Cu2 Te8'
_cell_volume   578.84130877
_cell_formula_units_Z   2
loop_
 _symmetry_equiv_pos_site_id
 _symmetry_equiv_pos_as_xyz
  1  'x, y, z'
loop_
 _atom_site_type_symbol
 _atom_site_label
 _atom_site_symmetry_multiplicity
 _atom_site_fract_x
 _atom_site_fract_y
 _atom_site_fract_z
 _atom_site_occupancy
  Rb  Rb0  1  0.68071859  0.68071859  0.31928141  1
  Rb  Rb1  1  0.31928141  0.31928141  0.68071859  1
  Rb  Rb2  1  0.56928141  0.56928141  0.93071859  1
  Rb  Rb3  1  0.93071859  0.93071859  0.56928141  1
  V  V0  1  0.50000000  0.50000000  0.50000000  1
  V  V1  1  0.75000000  0.75000000  0.75000000  1
  Cu  Cu0  1  0.00000000  0.00000000  0.00000000  1
  Cu  Cu1  1  0.25000000  0.25000000  0.25000000  1
  Te  Te0  1  0.35577682  0.03226296  0.94749831  1
  Te  Te1  1  0.66446191  0.94749831  0.03226296  1
  Te  Te2  1  0.94749831  0.66446191  0.35577682  1
  Te  Te3  1  0.03226296  0.35577682  0.66446191  1
  Te  Te4  1  0.89422318  0.21773704  0.30250169  1
  Te  Te5  1  0.58553809  0.30250169  0.21773704  1
  Te  Te6  1  0.30250169  0.58553809  0.89422318  1
  Te  Te7  1  0.21773704  0.89422318  0.58553809  1
loop_
_geom_bond_atom_site_label_1
_geom_bond_atom_site_label_2
_geom_bond_distance
_geom_bond_site_symmetry_2
Rb0 Te3 3.716640 1_654
Rb0 Te0 3.716640 1_565
Rb0 Te3 3.814111 1_565
Rb0 Te0 3.814111 1_654
Rb0 Te4 3.845295 1_555
Rb0 Te7 3.845295 1_555
Rb0 Te1 3.960030 1_555
Rb0 Te2 3.960030 1_555
Rb1 Te2 3.716639 1_545
Rb1 Te1 3.716639 1_456
Rb1 Te2 3.814112 1_456
Rb1 Te1 3.814112 1_545
Rb1 Te5 3.845295 1_555
Rb1 Te6 3.845295 1_555
Rb1 Te0 3.960029 1_555
Rb1 Te3 3.960030 1_555
Rb2 Te7 3.716640 1_556
Rb2 Te4 3.716640 1_555
Rb2 Te7 3.814111 1_645
Rb2 Te4 3.814111 1_466
Rb2 Te0 3.845295 1_565
Rb2 Te3 3.845295 1_655
Rb2 Te5 3.960030 1_556
Rb2 Te6 3.960030 1_555
Rb3 Te6 3.716639 1_565
Rb3 Te5 3.716639 1_655
Rb3 Te6 3.814112 1_654
Rb3 Te5 3.814112 1_566
Rb3 Te1 3.845295 1_556
Rb3 Te2 3.845295 1_555
Rb3 Te4 3.960029 1_565
Rb3 Te7 3.960030 1_655
Cu0 Te6 2.586141 1_544
Cu0 Te5 2.586141 1_455
Cu0 Te7 2.586141 1_544
Cu0 Te4 2.586141 1_455
Cu0 V0 3.011183 1_544
Cu0 V0 3.011183 1_455
Cu1 Te2 2.586141 1_455
Cu1 Te1 2.586141 1_545
Cu1 Te3 2.586141 1_555
Cu1 Te0 2.586141 1_554
Cu1 V1 3.011183 1_544
Cu1 V1 3.011183 1_455
Te0 V1 2.514181 1_545
Te1 V1 2.514182 1_554
Te2 V1 2.514182 1_555
Te3 V1 2.514181 1_455
Te4 V0 2.514181 1_555
Te5 V0 2.514182 1_555
Te6 V0 2.514182 1_555
Te7 V0 2.514181 1_555
