# generated using pymatgen
data_KLi3SiS4
_symmetry_space_group_name_H-M   'P 1'
_cell_length_a   5.99808749
_cell_length_b   5.99808749
_cell_length_c   5.99808749
_cell_angle_alpha   90.00000000
_cell_angle_beta   90.00000000
_cell_angle_gamma   90.00000000
_symmetry_Int_Tables_number   1
_chemical_formula_structural   KLi3SiS4
_chemical_formula_sum   'K1 Li3 Si1 S4'
_cell_volume   215.79351513
_cell_formula_units_Z   1
loop_
 _symmetry_equiv_pos_site_id
 _symmetry_equiv_pos_as_xyz
  1  'x, y, z'
loop_
 _atom_site_type_symbol
 _atom_site_label
 _atom_site_symmetry_multiplicity
 _atom_site_fract_x
 _atom_site_fract_y
 _atom_site_fract_z
 _atom_site_occupancy
  K  K0  1  0.50000000  0.50000000  0.50000000  1
  Li  Li0  1  0.00000000  0.50000000  0.00000000  1
  Li  Li1  1  0.00000000  0.00000000  0.50000000  1
  Li  Li2  1  0.50000000  0.00000000  0.00000000  1
  Si  Si0  1  0.00000000  0.00000000  0.00000000  1
  S  S0  1  0.20406299  0.20406299  0.20406299  1
  S  S1  1  0.79593701  0.79593701  0.20406299  1
  S  S2  1  0.20406299  0.79593701  0.79593701  1
  S  S3  1  0.79593701  0.20406299  0.79593701  1
loop_
_geom_bond_atom_site_label_1
_geom_bond_atom_site_label_2
_geom_bond_distance
_geom_bond_site_symmetry_2
K0 S2 3.074487 1_555
K0 S1 3.074487 1_555
K0 S3 3.074487 1_555
K0 S0 3.074487 1_555
Li0 S2 2.479338 1_554
Li0 S1 2.479338 1_455
Li0 S0 2.479338 1_555
Li0 S3 2.479338 1_454
Li1 S3 2.479338 1_455
Li1 S2 2.479338 1_545
Li1 S0 2.479338 1_555
Li1 S1 2.479338 1_445
Li2 S1 2.479338 1_545
Li2 S3 2.479338 1_554
Li2 S0 2.479338 1_555
Li2 S2 2.479338 1_544
S0 Si0 2.120009 1_555
S1 Si0 2.120009 1_665
S2 Si0 2.120009 1_566
S3 Si0 2.120009 1_656
