# generated using pymatgen
data_LaB5O9
_symmetry_space_group_name_H-M   'P 1'
_cell_length_a   11.71303473
_cell_length_b   6.44949588
_cell_length_c   8.18461678
_cell_angle_alpha   74.80175299
_cell_angle_beta   89.99889075
_cell_angle_gamma   89.99871502
_symmetry_Int_Tables_number   1
_chemical_formula_structural   LaB5O9
_chemical_formula_sum   'La4 B20 O36'
_cell_volume   596.66683157
_cell_formula_units_Z   4
loop_
 _symmetry_equiv_pos_site_id
 _symmetry_equiv_pos_as_xyz
  1  'x, y, z'
loop_
 _atom_site_type_symbol
 _atom_site_label
 _atom_site_symmetry_multiplicity
 _atom_site_fract_x
 _atom_site_fract_y
 _atom_site_fract_z
 _atom_site_occupancy
  La  La0  1  0.67431471  0.75024663  0.35870906  1
  La  La1  1  0.17430169  0.24974797  0.14131663  1
  La  La2  1  0.32562103  0.24977900  0.64134754  1
  La  La3  1  0.82572147  0.75024561  0.85871945  1
  B  B0  1  0.24855447  0.77447203  0.16959388  1
  B  B1  1  0.74853295  0.22553569  0.33039649  1
  B  B2  1  0.75144664  0.22552736  0.83039754  1
  B  B3  1  0.25147067  0.77447099  0.66959182  1
  B  B4  1  0.62935954  0.18781142  0.59114217  1
  B  B5  1  0.12938335  0.81218696  0.90886250  1
  B  B6  1  0.40222116  0.51789665  0.27486598  1
  B  B7  1  0.90220408  0.48208101  0.22513838  1
  B  B8  1  0.59777995  0.48209624  0.72513513  1
  B  B9  1  0.09779581  0.51791573  0.77486620  1
  B  B10  1  0.94535027  0.71038776  0.54538959  1
  B  B11  1  0.44534187  0.28960884  0.95462014  1
  B  B12  1  0.05464980  0.28961884  0.45461106  1
  B  B13  1  0.55466324  0.71039552  0.04538015  1
  B  B14  1  0.46541454  0.14624970  0.25578528  1
  B  B15  1  0.96540172  0.85374754  0.24421126  1
  B  B16  1  0.53458517  0.85375674  0.74421049  1
  B  B17  1  0.03459914  0.14625225  0.75578400  1
  B  B18  1  0.37064037  0.81218237  0.40885484  1
  B  B19  1  0.87061628  0.18780648  0.09113383  1
  O  O0  1  0.47532000  0.93287459  0.33904351  1
  O  O1  1  0.16726893  0.24128205  0.45248160  1
  O  O2  1  0.33271894  0.24125912  0.95251211  1
  O  O3  1  0.83273405  0.75872183  0.54752554  1
  O  O4  1  0.98696895  0.22056082  0.59700709  1
  O  O5  1  0.48696206  0.77943073  0.90299953  1
  O  O6  1  0.01303203  0.77944175  0.40299053  1
  O  O7  1  0.66728370  0.75874024  0.04749342  1
  O  O8  1  0.19879799  0.58736052  0.66366109  1
  O  O9  1  0.69878702  0.41264760  0.83633584  1
  O  O10  1  0.97529701  0.06711407  0.16094521  1
  O  O11  1  0.30121370  0.58735254  0.16365913  1
  O  O12  1  0.33982900  0.86281614  0.56610826  1
  O  O13  1  0.83981524  0.13718087  0.93388106  1
  O  O14  1  0.66017202  0.13718664  0.43388119  1
  O  O15  1  0.16018688  0.86281966  0.06611150  1
  O  O16  1  0.22149335  0.88991286  0.78185400  1
  O  O17  1  0.72147972  0.11007228  0.71814406  1
  O  O18  1  0.77850678  0.11008608  0.21813889  1
  O  O19  1  0.27852112  0.88992649  0.28184950  1
  O  O20  1  0.52467885  0.06712566  0.66094782  1
  O  O21  1  0.02470589  0.93288375  0.83904464  1
  O  O22  1  0.40094381  0.27929953  0.32555466  1
  O  O23  1  0.90093477  0.72069020  0.17444643  1
  O  O24  1  0.59905062  0.72069807  0.67443662  1
  O  O25  1  0.80120508  0.41264030  0.33633629  1
  O  O26  1  0.51006597  0.59926753  0.19845964  1
  O  O27  1  0.01004883  0.40072624  0.30153672  1
  O  O28  1  0.48993269  0.40073113  0.80154112  1
  O  O29  1  0.98995729  0.59926842  0.69846310  1
  O  O30  1  0.38741370  0.58428157  0.43115336  1
  O  O31  1  0.88740922  0.41570876  0.06884302  1
  O  O32  1  0.61258687  0.41571472  0.56884729  1
  O  O33  1  0.11259380  0.58428546  0.93115795  1
  O  O34  1  0.51304190  0.22057000  0.09699859  1
  O  O35  1  0.09907335  0.27930347  0.82554734  1
loop_
_geom_bond_atom_site_label_1
_geom_bond_atom_site_label_2
_geom_bond_distance
_geom_bond_site_symmetry_2
La0 O3 2.424618 1_555
La0 O32 2.488026 1_555
La0 O7 2.534711 1_555
La0 O0 2.597407 1_555
La0 O18 2.607527 1_565
La0 O26 2.653191 1_555
La0 O25 2.681876 1_555
La0 O24 2.689390 1_555
La0 O14 2.727428 1_565
La0 O23 3.083375 1_555
La1 O2 2.424505 1_554
La1 O33 2.488052 1_554
La1 O1 2.534338 1_555
La1 O10 2.597588 1_455
La1 O19 2.607496 1_545
La1 O27 2.653013 1_555
La1 O11 2.681995 1_555
La1 O35 2.689596 1_554
La1 O15 2.727469 1_545
La1 O22 3.083547 1_555
La2 O1 2.424302 1_555
La2 O30 2.488329 1_555
La2 O2 2.534278 1_555
La2 O20 2.598173 1_555
La2 O16 2.607199 1_545
La2 O28 2.653369 1_555
La2 O8 2.681170 1_555
La2 O22 2.690152 1_555
La2 O12 2.727874 1_545
La2 O35 3.082346 1_555
La3 O7 2.424535 1_556
La3 O31 2.487847 1_556
La3 O3 2.534550 1_555
La3 O21 2.597365 1_655
La3 O17 2.607716 1_565
La3 O29 2.653040 1_555
La3 O9 2.682200 1_555
La3 O23 2.689212 1_556
La3 O13 2.727331 1_565
La3 O24 3.084017 1_555
B0 O15 1.363937 1_555
B0 O11 1.367455 1_555
B0 O19 1.371325 1_555
B1 O14 1.363884 1_555
B1 O25 1.367473 1_555
B1 O18 1.371319 1_555
B2 O13 1.363948 1_555
B2 O9 1.367469 1_555
B2 O17 1.371314 1_555
B3 O12 1.363850 1_555
B3 O8 1.367490 1_555
B3 O16 1.371325 1_555
B4 O32 1.446287 1_555
B4 O14 1.453913 1_555
B4 O20 1.484085 1_555
B4 O17 1.490933 1_555
B5 O33 1.446309 1_555
B5 O15 1.453833 1_556
B5 O21 1.484098 1_555
B5 O16 1.490853 1_555
B6 O26 1.445704 1_555
B6 O30 1.461768 1_555
B6 O22 1.485130 1_555
B6 O11 1.488314 1_555
B7 O27 1.445656 1_655
B7 O31 1.461778 1_555
B7 O23 1.485203 1_555
B7 O25 1.488170 1_555
B8 O28 1.445719 1_555
B8 O32 1.461759 1_555
B8 O24 1.485159 1_555
B8 O9 1.488277 1_555
B9 O29 1.445602 1_455
B9 O33 1.461746 1_555
B9 O35 1.485223 1_555
B9 O8 1.488235 1_555
B10 O3 1.356571 1_555
B10 O29 1.373121 1_555
B10 O6 1.383108 1_655
B11 O2 1.356669 1_555
B11 O28 1.373083 1_555
B11 O34 1.383107 1_556
B12 O1 1.356605 1_555
B12 O27 1.373078 1_555
B12 O4 1.383086 1_455
B13 O7 1.356636 1_555
B13 O26 1.373125 1_555
B13 O5 1.383126 1_554
B14 O0 1.371111 1_545
B14 O22 1.374608 1_555
B14 O34 1.379605 1_555
B15 O10 1.371071 1_565
B15 O23 1.374631 1_555
B15 O6 1.379570 1_655
B16 O20 1.371085 1_565
B16 O24 1.374637 1_555
B16 O5 1.379605 1_555
B17 O21 1.371069 1_545
B17 O35 1.374642 1_555
B17 O4 1.379555 1_455
B18 O30 1.446268 1_555
B18 O12 1.453877 1_555
B18 O0 1.484104 1_555
B18 O19 1.490947 1_555
B19 O31 1.446325 1_555
B19 O13 1.453834 1_554
B19 O10 1.484105 1_555
B19 O18 1.490826 1_555
