# generated using pymatgen
data_Hf4Hg(AsO4)6
_symmetry_space_group_name_H-M   'P 1'
_cell_length_a   9.06637654
_cell_length_b   9.06637629
_cell_length_c   9.29899778
_cell_angle_alpha   60.82411035
_cell_angle_beta   60.82411841
_cell_angle_gamma   60.00000113
_symmetry_Int_Tables_number   1
_chemical_formula_structural   Hf4Hg(AsO4)6
_chemical_formula_sum   'Hf4 Hg1 As6 O24'
_cell_volume   547.12627843
_cell_formula_units_Z   1
loop_
 _symmetry_equiv_pos_site_id
 _symmetry_equiv_pos_as_xyz
  1  'x, y, z'
loop_
 _atom_site_type_symbol
 _atom_site_label
 _atom_site_symmetry_multiplicity
 _atom_site_fract_x
 _atom_site_fract_y
 _atom_site_fract_z
 _atom_site_occupancy
  Hf  Hf0  1  0.13933579  0.13933579  0.58199264  1
  Hf  Hf1  1  0.86066421  0.86066421  0.41800736  1
  Hf  Hf2  1  0.64574125  0.64574125  0.06277825  1
  Hf  Hf3  1  0.35425875  0.35425875  0.93722175  1
  Hg  Hg0  1  0.50000000  0.50000000  0.50000000  1
  As  As0  1  0.95825648  0.25572450  0.25896013  1
  As  As1  1  0.25572450  0.52705889  0.25896013  1
  As  As2  1  0.52705889  0.95825648  0.25896013  1
  As  As3  1  0.04174352  0.74427550  0.74103987  1
  As  As4  1  0.74427550  0.47294111  0.74103987  1
  As  As5  1  0.47294111  0.04174352  0.74103987  1
  O  O0  1  0.98285422  0.25818068  0.42484146  1
  O  O1  1  0.25818068  0.33412563  0.42484146  1
  O  O2  1  0.33412563  0.98285422  0.42484146  1
  O  O3  1  0.01714578  0.74181932  0.57515854  1
  O  O4  1  0.74181932  0.66587437  0.57515854  1
  O  O5  1  0.66587437  0.01714578  0.57515854  1
  O  O6  1  0.50712125  0.88317135  0.92864654  1
  O  O7  1  0.88317135  0.68106086  0.92864654  1
  O  O8  1  0.68106086  0.50712125  0.92864654  1
  O  O9  1  0.49287875  0.11682865  0.07135346  1
  O  O10  1  0.11682865  0.31893914  0.07135346  1
  O  O11  1  0.31893914  0.49287875  0.07135346  1
  O  O12  1  0.02832435  0.94286378  0.72344731  1
  O  O13  1  0.94286378  0.30536556  0.72344731  1
  O  O14  1  0.30536556  0.02832435  0.72344731  1
  O  O15  1  0.97167565  0.05713622  0.27655269  1
  O  O16  1  0.05713622  0.69463444  0.27655269  1
  O  O17  1  0.69463444  0.97167565  0.27655269  1
  O  O18  1  0.58904343  0.75002421  0.25198491  1
  O  O19  1  0.75002421  0.40894745  0.25198491  1
  O  O20  1  0.40894745  0.58904343  0.25198491  1
  O  O21  1  0.41095657  0.24997579  0.74801509  1
  O  O22  1  0.24997579  0.59105255  0.74801509  1
  O  O23  1  0.59105255  0.41095657  0.74801509  1
loop_
_geom_bond_atom_site_label_1
_geom_bond_atom_site_label_2
_geom_bond_distance
_geom_bond_site_symmetry_2
Hf0 O12 2.033171 1_545
Hf0 O13 2.033177 1_455
Hf0 O14 2.033178 1_555
Hf0 O0 2.065627 1_455
Hf0 O2 2.065630 1_545
Hf0 O1 2.065641 1_555
Hf1 O15 2.033171 1_565
Hf1 O16 2.033177 1_655
Hf1 O17 2.033178 1_555
Hf1 O3 2.065627 1_655
Hf1 O5 2.065630 1_565
Hf1 O4 2.065641 1_555
Hf2 O7 1.993541 1_554
Hf2 O6 1.993548 1_554
Hf2 O8 1.993556 1_554
Hf2 O18 2.123162 1_555
Hf2 O19 2.123168 1_555
Hf2 O20 2.123175 1_555
Hf3 O10 1.993541 1_556
Hf3 O9 1.993548 1_556
Hf3 O11 1.993556 1_556
Hf3 O21 2.123162 1_555
Hf3 O22 2.123168 1_555
Hf3 O23 2.123175 1_555
Hg0 O18 2.454936 1_555
Hg0 O21 2.454936 1_555
Hg0 O23 2.454936 1_555
Hg0 O20 2.454936 1_555
Hg0 O22 2.454937 1_555
Hg0 O19 2.454937 1_555
As0 O15 1.672260 1_555
As0 O0 1.674361 1_555
As0 O10 1.686008 1_655
As0 O19 1.705030 1_555
As1 O16 1.672257 1_555
As1 O1 1.674350 1_555
As1 O11 1.686009 1_555
As1 O20 1.705030 1_555
As2 O17 1.672251 1_555
As2 O2 1.674351 1_555
As2 O9 1.686008 1_565
As2 O18 1.705030 1_555
As3 O12 1.672260 1_555
As3 O3 1.674361 1_555
As3 O7 1.686008 1_455
As3 O22 1.705030 1_555
As4 O13 1.672257 1_555
As4 O4 1.674350 1_555
As4 O8 1.686009 1_555
As4 O23 1.705030 1_555
As5 O14 1.672251 1_555
As5 O5 1.674351 1_555
As5 O6 1.686008 1_545
As5 O21 1.705030 1_555
