# generated using pymatgen
data_TiCd
_symmetry_space_group_name_H-M   'P 1'
_cell_length_a   5.77620216
_cell_length_b   5.77620216
_cell_length_c   18.02836418
_cell_angle_alpha   90.00000000
_cell_angle_beta   90.00000000
_cell_angle_gamma   90.00000000
_symmetry_Int_Tables_number   1
_chemical_formula_structural   TiCd
_chemical_formula_sum   'Ti16 Cd16'
_cell_volume   601.50756208
_cell_formula_units_Z   16
loop_
 _symmetry_equiv_pos_site_id
 _symmetry_equiv_pos_as_xyz
  1  'x, y, z'
loop_
 _atom_site_type_symbol
 _atom_site_label
 _atom_site_symmetry_multiplicity
 _atom_site_fract_x
 _atom_site_fract_y
 _atom_site_fract_z
 _atom_site_occupancy
  Ti  Ti0_0  1  0.37500000  0.37500000  0.19563664  1
  Ti  Ti0_1  1  0.37500000  0.37500000  0.69563664  1
  Ti  Ti0_2  1  0.37500000  0.87500000  0.19563664  1
  Ti  Ti0_3  1  0.37500000  0.87500000  0.69563664  1
  Ti  Ti0_4  1  0.87500000  0.37500000  0.19563664  1
  Ti  Ti0_5  1  0.87500000  0.37500000  0.69563664  1
  Ti  Ti0_6  1  0.87500000  0.87500000  0.19563664  1
  Ti  Ti0_7  1  0.87500000  0.87500000  0.69563664  1
  Ti  Ti1_0  1  0.12500000  0.12500000  0.30436336  1
  Ti  Ti1_1  1  0.12500000  0.12500000  0.80436336  1
  Ti  Ti1_2  1  0.12500000  0.62500000  0.30436336  1
  Ti  Ti1_3  1  0.12500000  0.62500000  0.80436336  1
  Ti  Ti1_4  1  0.62500000  0.12500000  0.30436336  1
  Ti  Ti1_5  1  0.62500000  0.12500000  0.80436336  1
  Ti  Ti1_6  1  0.62500000  0.62500000  0.30436336  1
  Ti  Ti1_7  1  0.62500000  0.62500000  0.80436336  1
  Cd  Cd0_0  1  0.37500000  0.37500000  0.43333556  1
  Cd  Cd0_1  1  0.37500000  0.37500000  0.93333556  1
  Cd  Cd0_2  1  0.37500000  0.87500000  0.43333556  1
  Cd  Cd0_3  1  0.37500000  0.87500000  0.93333556  1
  Cd  Cd0_4  1  0.87500000  0.37500000  0.43333556  1
  Cd  Cd0_5  1  0.87500000  0.37500000  0.93333556  1
  Cd  Cd0_6  1  0.87500000  0.87500000  0.43333556  1
  Cd  Cd0_7  1  0.87500000  0.87500000  0.93333556  1
  Cd  Cd1_0  1  0.12500000  0.12500000  0.06666444  1
  Cd  Cd1_1  1  0.12500000  0.12500000  0.56666444  1
  Cd  Cd1_2  1  0.12500000  0.62500000  0.06666444  1
  Cd  Cd1_3  1  0.12500000  0.62500000  0.56666444  1
  Cd  Cd1_4  1  0.62500000  0.12500000  0.06666444  1
  Cd  Cd1_5  1  0.62500000  0.12500000  0.56666444  1
  Cd  Cd1_6  1  0.62500000  0.62500000  0.06666444  1
  Cd  Cd1_7  1  0.62500000  0.62500000  0.56666444  1
loop_
_geom_bond_atom_site_label_1
_geom_bond_atom_site_label_2
_geom_bond_distance
_geom_bond_site_symmetry_2
Ti0_0 Ti1_4 2.830691 1_555
Ti0_0 Ti1_0 2.830691 1_555
Ti0_0 Ti1_2 2.830691 1_555
Ti0_0 Ti1_6 2.830691 1_555
Ti0_0 Ti0_4 2.888101 1_455
Ti0_0 Ti0_2 2.888101 1_545
Ti0_0 Ti0_4 2.888101 1_555
Ti0_0 Ti0_2 2.888101 1_555
Ti0_1 Ti1_5 2.830691 1_555
Ti0_1 Ti1_3 2.830691 1_555
Ti0_1 Ti1_1 2.830691 1_555
Ti0_1 Ti1_7 2.830691 1_555
Ti0_1 Ti0_3 2.888101 1_545
Ti0_1 Ti0_5 2.888101 1_455
Ti0_1 Ti0_3 2.888101 1_555
Ti0_1 Ti0_5 2.888101 1_555
Ti0_2 Ti1_0 2.830691 1_565
Ti0_2 Ti1_4 2.830691 1_565
Ti0_2 Ti1_2 2.830691 1_555
Ti0_2 Ti1_6 2.830691 1_555
Ti0_2 Ti0_6 2.888101 1_455
Ti0_2 Ti0_6 2.888101 1_555
Ti0_3 Ti1_5 2.830691 1_565
Ti0_3 Ti1_1 2.830691 1_565
Ti0_3 Ti1_3 2.830691 1_555
Ti0_3 Ti1_7 2.830691 1_555
Ti0_3 Ti0_7 2.888101 1_455
Ti0_3 Ti0_7 2.888101 1_555
Ti0_4 Ti1_0 2.830691 1_655
Ti0_4 Ti1_2 2.830691 1_655
Ti0_4 Ti1_4 2.830691 1_555
Ti0_4 Ti1_6 2.830691 1_555
Ti0_4 Ti0_6 2.888101 1_545
Ti0_4 Ti0_6 2.888101 1_555
Ti0_5 Ti1_3 2.830691 1_655
Ti0_5 Ti1_1 2.830691 1_655
Ti0_5 Ti1_7 2.830691 1_555
Ti0_5 Ti1_5 2.830691 1_555
Ti0_5 Ti0_7 2.888101 1_545
Ti0_5 Ti0_7 2.888101 1_555
Ti0_6 Ti1_0 2.830691 1_665
Ti0_6 Ti1_2 2.830691 1_655
Ti0_6 Ti1_4 2.830691 1_565
Ti0_6 Ti1_6 2.830691 1_555
Ti0_7 Ti1_1 2.830691 1_665
Ti0_7 Ti1_3 2.830691 1_655
Ti0_7 Ti1_5 2.830691 1_565
Ti0_7 Ti1_7 2.830691 1_555
Ti1_0 Ti1_2 2.888101 1_545
Ti1_0 Ti1_2 2.888101 1_555
Ti1_0 Ti1_4 2.888101 1_455
Ti1_0 Ti1_4 2.888101 1_555
Ti1_1 Ti1_3 2.888101 1_555
Ti1_1 Ti1_5 2.888101 1_455
Ti1_1 Ti1_3 2.888101 1_545
Ti1_1 Ti1_5 2.888101 1_555
Ti1_2 Ti1_6 2.888101 1_555
Ti1_2 Ti1_6 2.888101 1_455
Ti1_3 Ti1_7 2.888101 1_455
Ti1_3 Ti1_7 2.888101 1_555
Ti1_4 Ti1_6 2.888101 1_555
Ti1_4 Ti1_6 2.888101 1_545
Ti1_5 Ti1_7 2.888101 1_555
Ti1_5 Ti1_7 2.888101 1_545
Cd0_0 Cd0_4 2.888101 1_455
Cd0_0 Cd0_2 2.888101 1_545
Cd0_0 Cd0_2 2.888101 1_555
Cd0_0 Cd0_4 2.888101 1_555
Cd0_0 Ti1_2 3.094660 1_555
Cd0_0 Ti1_6 3.094660 1_555
Cd0_0 Ti1_0 3.094660 1_555
Cd0_0 Ti1_4 3.094660 1_555
Cd0_0 Cd1_7 3.154100 1_555
Cd0_0 Cd1_5 3.154100 1_555
Cd0_0 Cd1_3 3.154100 1_555
Cd0_0 Cd1_1 3.154100 1_555
Cd0_1 Cd0_3 2.888101 1_545
Cd0_1 Cd0_5 2.888101 1_455
Cd0_1 Cd0_3 2.888101 1_555
Cd0_1 Cd0_5 2.888101 1_555
Cd0_1 Ti1_5 3.094660 1_555
Cd0_1 Ti1_3 3.094660 1_555
Cd0_1 Ti1_7 3.094660 1_555
Cd0_1 Ti1_1 3.094660 1_555
Cd0_1 Cd1_2 3.154100 1_556
Cd0_1 Cd1_0 3.154100 1_556
Cd0_1 Cd1_6 3.154100 1_556
Cd0_1 Cd1_4 3.154100 1_556
Cd0_2 Cd0_6 2.888101 1_455
Cd0_2 Cd0_6 2.888101 1_555
Cd0_2 Ti1_4 3.094660 1_565
Cd0_2 Ti1_0 3.094660 1_565
Cd0_2 Ti1_2 3.094660 1_555
Cd0_2 Ti1_6 3.094660 1_555
Cd0_2 Cd1_1 3.154100 1_565
Cd0_2 Cd1_5 3.154100 1_565
Cd0_2 Cd1_3 3.154100 1_555
Cd0_2 Cd1_7 3.154100 1_555
Cd0_3 Cd0_7 2.888101 1_455
Cd0_3 Cd0_7 2.888101 1_555
Cd0_3 Ti1_5 3.094660 1_565
Cd0_3 Ti1_1 3.094660 1_565
Cd0_3 Ti1_3 3.094660 1_555
Cd0_3 Ti1_7 3.094660 1_555
Cd0_3 Cd1_4 3.154100 1_566
Cd0_3 Cd1_0 3.154100 1_566
Cd0_3 Cd1_2 3.154100 1_556
Cd0_3 Cd1_6 3.154100 1_556
Cd0_4 Cd0_6 2.888101 1_545
Cd0_4 Cd0_6 2.888101 1_555
Cd0_4 Ti1_2 3.094660 1_655
Cd0_4 Ti1_0 3.094660 1_655
Cd0_4 Ti1_6 3.094660 1_555
Cd0_4 Ti1_4 3.094660 1_555
Cd0_4 Cd1_3 3.154100 1_655
Cd0_4 Cd1_1 3.154100 1_655
Cd0_4 Cd1_7 3.154100 1_555
Cd0_4 Cd1_5 3.154100 1_555
Cd0_5 Cd0_7 2.888101 1_545
Cd0_5 Cd0_7 2.888101 1_555
Cd0_5 Ti1_3 3.094660 1_655
Cd0_5 Ti1_1 3.094660 1_655
Cd0_5 Ti1_7 3.094660 1_555
Cd0_5 Ti1_5 3.094660 1_555
Cd0_5 Cd1_2 3.154100 1_656
Cd0_5 Cd1_0 3.154100 1_656
Cd0_5 Cd1_4 3.154100 1_556
Cd0_5 Cd1_6 3.154100 1_556
Cd0_6 Ti1_0 3.094660 1_665
Cd0_6 Ti1_2 3.094660 1_655
Cd0_6 Ti1_4 3.094660 1_565
Cd0_6 Ti1_6 3.094660 1_555
Cd0_6 Cd1_1 3.154100 1_665
Cd0_6 Cd1_3 3.154100 1_655
Cd0_6 Cd1_5 3.154100 1_565
Cd0_6 Cd1_7 3.154100 1_555
Cd0_7 Ti1_1 3.094660 1_665
Cd0_7 Ti1_3 3.094660 1_655
Cd0_7 Ti1_5 3.094660 1_565
Cd0_7 Ti1_7 3.094660 1_555
Cd0_7 Cd1_0 3.154100 1_666
Cd0_7 Cd1_4 3.154100 1_566
Cd0_7 Cd1_2 3.154100 1_656
Cd0_7 Cd1_6 3.154100 1_556
Cd1_0 Cd1_2 2.888101 1_555
Cd1_0 Cd1_4 2.888101 1_455
Cd1_0 Cd1_4 2.888101 1_555
Cd1_0 Cd1_2 2.888101 1_545
Cd1_0 Ti0_6 3.094660 1_445
Cd1_0 Ti0_2 3.094660 1_545
Cd1_0 Ti0_4 3.094660 1_455
Cd1_0 Ti0_0 3.094660 1_555
Cd1_1 Cd1_5 2.888101 1_555
Cd1_1 Cd1_3 2.888101 1_555
Cd1_1 Cd1_5 2.888101 1_455
Cd1_1 Cd1_3 2.888101 1_545
Cd1_1 Ti0_7 3.094660 1_445
Cd1_1 Ti0_3 3.094660 1_545
Cd1_1 Ti0_5 3.094660 1_455
Cd1_1 Ti0_1 3.094660 1_555
Cd1_2 Cd1_6 2.888101 1_455
Cd1_2 Cd1_6 2.888101 1_555
Cd1_2 Ti0_4 3.094660 1_455
Cd1_2 Ti0_2 3.094660 1_555
Cd1_2 Ti0_6 3.094660 1_455
Cd1_2 Ti0_0 3.094660 1_555
Cd1_3 Cd1_7 2.888101 1_455
Cd1_3 Cd1_7 2.888101 1_555
Cd1_3 Ti0_5 3.094660 1_455
Cd1_3 Ti0_1 3.094660 1_555
Cd1_3 Ti0_7 3.094660 1_455
Cd1_3 Ti0_3 3.094660 1_555
Cd1_4 Cd1_6 2.888101 1_555
Cd1_4 Cd1_6 2.888101 1_545
Cd1_4 Ti0_2 3.094660 1_545
Cd1_4 Ti0_0 3.094660 1_555
Cd1_4 Ti0_4 3.094660 1_555
Cd1_4 Ti0_6 3.094660 1_545
Cd1_5 Cd1_7 2.888101 1_545
Cd1_5 Cd1_7 2.888101 1_555
Cd1_5 Ti0_3 3.094660 1_545
Cd1_5 Ti0_1 3.094660 1_555
Cd1_5 Ti0_7 3.094660 1_545
Cd1_5 Ti0_5 3.094660 1_555
Cd1_6 Ti0_2 3.094660 1_555
Cd1_6 Ti0_0 3.094660 1_555
Cd1_6 Ti0_4 3.094660 1_555
Cd1_6 Ti0_6 3.094660 1_555
Cd1_7 Ti0_1 3.094660 1_555
Cd1_7 Ti0_5 3.094660 1_555
Cd1_7 Ti0_3 3.094660 1_555
Cd1_7 Ti0_7 3.094660 1_555
