# generated using pymatgen
data_TcS2ClO9
_symmetry_space_group_name_H-M   'P 1'
_cell_length_a   7.08757780
_cell_length_b   7.71359898
_cell_length_c   7.95306453
_cell_angle_alpha   89.66814712
_cell_angle_beta   100.43021605
_cell_angle_gamma   112.01891502
_symmetry_Int_Tables_number   1
_chemical_formula_structural   TcS2ClO9
_chemical_formula_sum   'Tc2 S4 Cl2 O18'
_cell_volume   395.50503050
_cell_formula_units_Z   2
loop_
 _symmetry_equiv_pos_site_id
 _symmetry_equiv_pos_as_xyz
  1  'x, y, z'
loop_
 _atom_site_type_symbol
 _atom_site_label
 _atom_site_symmetry_multiplicity
 _atom_site_fract_x
 _atom_site_fract_y
 _atom_site_fract_z
 _atom_site_occupancy
  Tc  Tc0  1  0.76397034  0.29655287  0.69153659  1
  Tc  Tc1  1  0.23602966  0.70344713  0.30846341  1
  S  S0  1  0.09294566  0.73504521  0.87319733  1
  S  S1  1  0.90705434  0.26495479  0.12680267  1
  S  S2  1  0.65718676  0.65046108  0.77787722  1
  S  S3  1  0.34281324  0.34953892  0.22212278  1
  Cl  Cl0  1  0.00233700  0.17848388  0.68152455  1
  Cl  Cl1  1  0.99766300  0.82151612  0.31847545  1
  O  O0  1  0.54976019  0.10812221  0.64349027  1
  O  O1  1  0.45023981  0.89187779  0.35650973  1
  O  O2  1  0.77651053  0.40893901  0.51386329  1
  O  O3  1  0.22348947  0.59106099  0.48613671  1
  O  O4  1  0.16687846  0.85617247  0.74573173  1
  O  O5  1  0.83312154  0.14382753  0.25426827  1
  O  O6  1  0.22025820  0.79075741  0.04389188  1
  O  O7  1  0.77974180  0.20924259  0.95610812  1
  O  O8  1  0.03360315  0.53521690  0.82852301  1
  O  O9  1  0.96639685  0.46478310  0.17147699  1
  O  O10  1  0.87965866  0.75286371  0.90763951  1
  O  O11  1  0.12034134  0.24713629  0.09236049  1
  O  O12  1  0.51587832  0.68663241  0.86201842  1
  O  O13  1  0.48412168  0.31336759  0.13798158  1
  O  O14  1  0.68207873  0.70857481  0.61068634  1
  O  O15  1  0.31792127  0.29142519  0.38931366  1
  O  O16  1  0.62672396  0.44400187  0.79036984  1
  O  O17  1  0.37327604  0.55599813  0.20963016  1
loop_
_geom_bond_atom_site_label_1
_geom_bond_atom_site_label_2
_geom_bond_distance
_geom_bond_site_symmetry_2
Cl0 Tc0 2.212070 1_455
Cl1 Tc1 2.212070 1_655
O0 Tc0 1.644799 1_555
O1 Tc1 1.644799 1_555
O2 Tc0 1.652159 1_555
O3 Tc1 1.652159 1_555
O4 S0 1.410488 1_555
O5 S1 1.410488 1_555
O6 S0 1.454058 1_554
O6 Tc1 2.201909 1_555
O7 S1 1.454058 1_556
O7 Tc0 2.201909 1_555
O8 S0 1.464636 1_555
O8 Tc0 2.204435 1_455
O9 S1 1.464636 1_555
O9 Tc1 2.204435 1_655
O10 S2 1.631435 1_555
O10 S0 1.638684 1_655
O11 S3 1.631435 1_555
O11 S1 1.638684 1_455
O12 S2 1.408219 1_555
O13 S3 1.408219 1_555
O14 S2 1.420863 1_555
O15 S3 1.420863 1_555
O16 S2 1.529966 1_555
O16 Tc0 1.993600 1_555
O17 S3 1.529966 1_555
O17 Tc1 1.993600 1_555
