# generated using pymatgen
data_SrCo3NiO8
_symmetry_space_group_name_H-M   'P 1'
_cell_length_a   5.59473276
_cell_length_b   5.59473308
_cell_length_c   6.71142781
_cell_angle_alpha   64.87063994
_cell_angle_beta   64.87064140
_cell_angle_gamma   59.98356261
_symmetry_Int_Tables_number   1
_chemical_formula_structural   SrCo3NiO8
_chemical_formula_sum   'Sr1 Co3 Ni1 O8'
_cell_volume   158.53359607
_cell_formula_units_Z   1
loop_
 _symmetry_equiv_pos_site_id
 _symmetry_equiv_pos_as_xyz
  1  'x, y, z'
loop_
 _atom_site_type_symbol
 _atom_site_label
 _atom_site_symmetry_multiplicity
 _atom_site_fract_x
 _atom_site_fract_y
 _atom_site_fract_z
 _atom_site_occupancy
  Sr  Sr0  1  0.50000000  0.50000000  0.50000000  1
  Co  Co0  1  0.00000000  0.00000000  0.00000000  1
  Co  Co1  1  0.50000000  0.00000000  0.00000000  1
  Co  Co2  1  0.00000000  0.50000000  0.00000000  1
  Ni  Ni0  1  0.50000000  0.50000000  0.00000000  1
  O  O0  1  0.27786268  0.27786268  0.16214058  1
  O  O1  1  0.77573065  0.27842533  0.16566849  1
  O  O2  1  0.27842533  0.77573065  0.16566849  1
  O  O3  1  0.77690880  0.77690880  0.16630207  1
  O  O4  1  0.22309120  0.22309120  0.83369793  1
  O  O5  1  0.72157467  0.22426935  0.83433151  1
  O  O6  1  0.22426935  0.72157467  0.83433151  1
  O  O7  1  0.72213732  0.72213732  0.83785942  1
loop_
_geom_bond_atom_site_label_1
_geom_bond_atom_site_label_2
_geom_bond_distance
_geom_bond_site_symmetry_2
Co0 O3 1.885122 1_445
Co0 O4 1.885122 1_554
Co0 O2 1.888842 1_545
Co0 O5 1.888842 1_454
Co0 O1 1.888842 1_455
Co0 O6 1.888842 1_544
Co1 O0 1.870981 1_555
Co1 O7 1.870981 1_544
Co1 O5 1.883609 1_554
Co1 O2 1.883609 1_545
Co1 O4 1.885340 1_554
Co1 O3 1.885340 1_545
Co2 O0 1.870981 1_555
Co2 O7 1.870981 1_454
Co2 O6 1.883609 1_554
Co2 O1 1.883609 1_455
Co2 O4 1.885340 1_554
Co2 O3 1.885340 1_455
Ni0 O7 1.876516 1_554
Ni0 O0 1.876516 1_555
Ni0 O1 1.877650 1_555
Ni0 O6 1.877650 1_554
Ni0 O2 1.877650 1_555
Ni0 O5 1.877650 1_554
O1 Sr0 2.541769 1_555
O2 Sr0 2.541769 1_555
O3 Sr0 2.514674 1_555
O4 Sr0 2.514674 1_555
O5 Sr0 2.541769 1_555
O6 Sr0 2.541769 1_555
