# generated using pymatgen
data_NaLu(BIr)4
_symmetry_space_group_name_H-M   'P 1'
_cell_length_a   7.09519914
_cell_length_b   6.12774107
_cell_length_c   5.41342375
_cell_angle_alpha   75.58804978
_cell_angle_beta   56.76903058
_cell_angle_gamma   47.64292316
_symmetry_Int_Tables_number   1
_chemical_formula_structural   NaLu(BIr)4
_chemical_formula_sum   'Na1 Lu1 B4 Ir4'
_cell_volume   142.69800253
_cell_formula_units_Z   1
loop_
 _symmetry_equiv_pos_site_id
 _symmetry_equiv_pos_as_xyz
  1  'x, y, z'
loop_
 _atom_site_type_symbol
 _atom_site_label
 _atom_site_symmetry_multiplicity
 _atom_site_fract_x
 _atom_site_fract_y
 _atom_site_fract_z
 _atom_site_occupancy
  Na  Na0  1  0.50000000  0.50000000  0.50000000  1
  Lu  Lu0  1  0.75000000  0.75000000  0.75000000  1
  B  B0  1  0.82054590  0.17945410  0.82054590  1
  B  B1  1  0.07178321  0.42821679  0.07178321  1
  B  B2  1  0.17945410  0.82054590  0.17945410  1
  B  B3  1  0.42821679  0.07178321  0.42821679  1
  Ir  Ir0  1  0.12820135  0.12820135  0.87179865  1
  Ir  Ir1  1  0.37884630  0.37884630  0.12115370  1
  Ir  Ir2  1  0.12115370  0.12115370  0.37884630  1
  Ir  Ir3  1  0.87179865  0.87179865  0.12820135  1
loop_
_geom_bond_atom_site_label_1
_geom_bond_atom_site_label_2
_geom_bond_distance
_geom_bond_site_symmetry_2
B0 Ir2 2.050111 1_655
B0 Ir1 2.050111 1_556
B0 Ir0 2.153417 1_655
B0 Ir3 2.153417 1_546
B0 Na0 2.941270 1_555
B0 Lu0 3.131505 1_545
B0 Lu0 3.131505 1_555
B1 Ir0 2.058189 1_554
B1 Ir3 2.058189 1_455
B1 Ir1 2.149271 1_555
B1 Ir2 2.149271 1_555
B1 Lu0 2.952624 1_454
B1 Na0 3.133871 1_554
B1 Na0 3.133871 1_455
B2 Ir2 2.050111 1_565
B2 Ir1 2.050111 1_555
B2 Ir3 2.153417 1_455
B2 Ir0 2.153417 1_564
B2 Na0 2.941270 1_555
B2 Lu0 3.131504 1_455
B2 Lu0 3.131504 1_554
B3 Ir0 2.058189 1_555
B3 Ir3 2.058189 1_545
B3 Ir2 2.149271 1_555
B3 Ir1 2.149271 1_555
B3 Lu0 2.952624 1_545
B3 Na0 3.133871 1_555
B3 Na0 3.133871 1_545
Ir0 Lu0 3.010735 1_545
Ir0 Lu0 3.010735 1_455
Ir0 Na0 3.190932 1_456
Ir0 Na0 3.190932 1_545
Ir1 Na0 3.007684 1_555
Ir1 Na0 3.007684 1_554
Ir1 Lu0 3.193974 1_455
Ir1 Lu0 3.193974 1_544
Ir2 Na0 3.007684 1_455
Ir2 Na0 3.007684 1_545
Ir2 Lu0 3.193974 1_544
Ir2 Lu0 3.193974 1_455
Ir3 Lu0 3.010735 1_554
Ir3 Lu0 3.010735 1_555
Ir3 Na0 3.190932 1_654
Ir3 Na0 3.190932 1_565
