# generated using pymatgen
data_CrP6RhO18
_symmetry_space_group_name_H-M   'P 1'
_cell_length_a   5.00114264
_cell_length_b   7.05921694
_cell_length_c   10.27474314
_cell_angle_alpha   98.38993301
_cell_angle_beta   92.17874336
_cell_angle_gamma   91.96696698
_symmetry_Int_Tables_number   1
_chemical_formula_structural   CrP6RhO18
_chemical_formula_sum   'Cr1 P6 Rh1 O18'
_cell_volume   358.30783479
_cell_formula_units_Z   1
loop_
 _symmetry_equiv_pos_site_id
 _symmetry_equiv_pos_as_xyz
  1  'x, y, z'
loop_
 _atom_site_type_symbol
 _atom_site_label
 _atom_site_symmetry_multiplicity
 _atom_site_fract_x
 _atom_site_fract_y
 _atom_site_fract_z
 _atom_site_occupancy
  Cr  Cr0  1  0.49999715  0.50000247  0.50000642  1
  P  P0  1  0.02331590  0.95395066  0.18070956  1
  P  P1  1  0.73735548  0.30982584  0.22882743  1
  P  P2  1  0.99886005  0.66110815  0.35755354  1
  P  P3  1  0.00113063  0.33889430  0.64244011  1
  P  P4  1  0.26265880  0.69017430  0.77117406  1
  P  P5  1  0.97666952  0.04604618  0.81929322  1
  Rh  Rh0  1  0.50002515  0.99999473  0.99998131  1
  O  O0  1  0.59520002  0.26651989  0.09708814  1
  O  O1  1  0.83159440  0.88199713  0.06778054  1
  O  O2  1  0.31396040  0.92685946  0.15853692  1
  O  O3  1  0.97947953  0.17044341  0.23599026  1
  O  O4  1  0.89230561  0.51021504  0.23333708  1
  O  O5  1  0.58186030  0.30888700  0.34938052  1
  O  O6  1  0.95301433  0.85719822  0.30561873  1
  O  O7  1  0.29099450  0.64021508  0.38046485  1
  O  O8  1  0.82265197  0.65332104  0.47042464  1
  O  O9  1  0.17735429  0.34668178  0.52957532  1
  O  O10  1  0.70899155  0.35979026  0.61953235  1
  O  O11  1  0.04700134  0.14279408  0.69437631  1
  O  O12  1  0.41813616  0.69110671  0.65061601  1
  O  O13  1  0.10769430  0.48978780  0.76667172  1
  O  O14  1  0.02051939  0.82955511  0.76401283  1
  O  O15  1  0.68602465  0.07314188  0.84147437  1
  O  O16  1  0.16840284  0.11800609  0.93221534  1
  O  O17  1  0.40479575  0.73348736  0.90291841  1
loop_
_geom_bond_atom_site_label_1
_geom_bond_atom_site_label_2
_geom_bond_distance
_geom_bond_site_symmetry_2
Cr0 O12 1.964457 1_555
Cr0 O5 1.964622 1_555
Cr0 O9 1.969955 1_555
Cr0 O8 1.970030 1_555
Cr0 O10 1.976996 1_555
Cr0 O7 1.977127 1_555
O0 P1 1.490720 1_555
O0 Rh0 2.028930 1_544
O1 P0 1.494547 1_655
O1 Rh0 2.026117 1_554
O2 P0 1.494270 1_555
O2 Rh0 2.028348 1_554
O3 P0 1.576529 1_645
O3 P1 1.592467 1_555
O4 P1 1.583231 1_555
O4 P2 1.600037 1_555
O5 P1 1.488062 1_555
O6 P2 1.575272 1_555
O6 P0 1.584570 1_655
O7 P2 1.486769 1_455
O8 P2 1.489143 1_555
O9 P3 1.489140 1_555
O10 P3 1.486790 1_655
O11 P3 1.575366 1_555
O11 P5 1.584658 1_455
O12 P4 1.488051 1_555
O13 P4 1.583256 1_555
O13 P3 1.600158 1_555
O14 P5 1.576530 1_465
O14 P4 1.592518 1_555
O15 P5 1.494291 1_555
O15 Rh0 2.027792 1_545
O16 P5 1.494542 1_455
O16 Rh0 2.026254 1_545
O17 P4 1.490728 1_555
O17 Rh0 2.028716 1_555
