# generated using pymatgen
data_Ba4Sc(TcO6)2
_symmetry_space_group_name_H-M   'P 1'
_cell_length_a   9.84564831
_cell_length_b   9.84564861
_cell_length_c   9.84564819
_cell_angle_alpha   34.01542713
_cell_angle_beta   34.01542214
_cell_angle_gamma   34.01542802
_symmetry_Int_Tables_number   1
_chemical_formula_structural   Ba4Sc(TcO6)2
_chemical_formula_sum   'Ba4 Sc1 Tc2 O12'
_cell_volume   266.24104873
_cell_formula_units_Z   1
loop_
 _symmetry_equiv_pos_site_id
 _symmetry_equiv_pos_as_xyz
  1  'x, y, z'
loop_
 _atom_site_type_symbol
 _atom_site_label
 _atom_site_symmetry_multiplicity
 _atom_site_fract_x
 _atom_site_fract_y
 _atom_site_fract_z
 _atom_site_occupancy
  Ba  Ba0  1  0.70869500  0.70869500  0.70869500  1
  Ba  Ba1  1  0.29130500  0.29130500  0.29130500  1
  Ba  Ba2  1  0.86926707  0.86926707  0.86926707  1
  Ba  Ba3  1  0.13073293  0.13073293  0.13073293  1
  Sc  Sc0  1  0.00000000  0.00000000  0.00000000  1
  Tc  Tc0  1  0.57896816  0.57896816  0.57896816  1
  Tc  Tc1  1  0.42103184  0.42103184  0.42103184  1
  O  O0  1  0.21773596  0.69592191  0.21773596  1
  O  O1  1  0.21773596  0.21773596  0.69592191  1
  O  O2  1  0.69592191  0.21773596  0.21773596  1
  O  O3  1  0.78226404  0.30407809  0.78226404  1
  O  O4  1  0.78226404  0.78226404  0.30407809  1
  O  O5  1  0.30407809  0.78226404  0.78226404  1
  O  O6  1  0.38980409  0.85683636  0.38980409  1
  O  O7  1  0.38980409  0.38980409  0.85683636  1
  O  O8  1  0.85683636  0.38980409  0.38980409  1
  O  O9  1  0.61019591  0.14316364  0.61019591  1
  O  O10  1  0.61019591  0.61019591  0.14316364  1
  O  O11  1  0.14316364  0.61019591  0.61019591  1
loop_
_geom_bond_atom_site_label_1
_geom_bond_atom_site_label_2
_geom_bond_distance
_geom_bond_site_symmetry_2
Ba0 O10 2.825596 1_556
Ba0 O11 2.825596 1_655
Ba0 O9 2.825596 1_565
Ba0 O4 2.867389 1_555
Ba0 O5 2.867389 1_555
Ba0 O3 2.867390 1_555
Ba0 O0 2.881190 1_556
Ba0 O0 2.881190 1_655
Ba0 O2 2.881190 1_556
Ba0 O2 2.881190 1_565
Ba0 O1 2.881190 1_655
Ba0 O1 2.881190 1_565
Ba1 O7 2.825596 1_554
Ba1 O8 2.825596 1_455
Ba1 O6 2.825596 1_545
Ba1 O1 2.867389 1_555
Ba1 O2 2.867389 1_555
Ba1 O0 2.867390 1_555
Ba1 O3 2.881190 1_554
Ba1 O3 2.881190 1_455
Ba1 O5 2.881190 1_554
Ba1 O5 2.881190 1_545
Ba1 O4 2.881190 1_455
Ba1 O4 2.881190 1_545
Ba2 O11 2.874766 1_655
Ba2 O10 2.874766 1_556
Ba2 O9 2.874767 1_565
Ba2 O6 2.894140 1_556
Ba2 O6 2.894140 1_655
Ba2 O8 2.894141 1_556
Ba2 O8 2.894141 1_565
Ba2 O7 2.894141 1_655
Ba2 O7 2.894141 1_565
Ba2 O4 2.975300 1_556
Ba2 O5 2.975300 1_655
Ba2 O3 2.975300 1_565
Ba3 O8 2.874766 1_455
Ba3 O7 2.874766 1_554
Ba3 O6 2.874767 1_545
Ba3 O9 2.894140 1_554
Ba3 O9 2.894140 1_455
Ba3 O11 2.894141 1_554
Ba3 O11 2.894141 1_545
Ba3 O10 2.894141 1_455
Ba3 O10 2.894141 1_545
Ba3 O1 2.975300 1_554
Ba3 O2 2.975300 1_455
Ba3 O0 2.975300 1_545
O0 Tc1 2.004535 1_555
O0 Sc0 2.119823 1_565
O1 Tc1 2.004535 1_555
O1 Sc0 2.119822 1_556
O2 Tc1 2.004535 1_555
O2 Sc0 2.119822 1_655
O3 Tc0 2.004535 1_555
O3 Sc0 2.119823 1_656
O4 Tc0 2.004535 1_555
O4 Sc0 2.119822 1_665
O5 Tc0 2.004535 1_555
O5 Sc0 2.119822 1_566
O6 Tc0 1.810715 1_555
O7 Tc0 1.810715 1_555
O8 Tc0 1.810715 1_555
O9 Tc1 1.810715 1_555
O10 Tc1 1.810715 1_555
O11 Tc1 1.810715 1_555
