# generated using pymatgen
data_Be8MoOs2W
_symmetry_space_group_name_H-M   'P 1'
_cell_length_a   4.38252214
_cell_length_b   4.38252086
_cell_length_c   7.16459321
_cell_angle_alpha   90.00000000
_cell_angle_beta   90.00000000
_cell_angle_gamma   120.00000961
_symmetry_Int_Tables_number   1
_chemical_formula_structural   Be8MoOs2W
_chemical_formula_sum   'Be8 Mo1 Os2 W1'
_cell_volume   119.17090506
_cell_formula_units_Z   1
loop_
 _symmetry_equiv_pos_site_id
 _symmetry_equiv_pos_as_xyz
  1  'x, y, z'
loop_
 _atom_site_type_symbol
 _atom_site_label
 _atom_site_symmetry_multiplicity
 _atom_site_fract_x
 _atom_site_fract_y
 _atom_site_fract_z
 _atom_site_occupancy
  Be  Be0  1  0.00000000  0.00000000  0.50420429  1
  Be  Be1  1  0.00000000  0.00000000  0.99622635  1
  Be  Be2  1  0.83098143  0.16901857  0.25011042  1
  Be  Be3  1  0.83098143  0.66196285  0.25011042  1
  Be  Be4  1  0.33803715  0.16901857  0.25011042  1
  Be  Be5  1  0.16856398  0.83143602  0.74968046  1
  Be  Be6  1  0.16856398  0.33712695  0.74968046  1
  Be  Be7  1  0.66287305  0.83143602  0.74968046  1
  Mo  Mo0  1  0.33333300  0.66666700  0.43636845  1
  Os  Os0  1  0.66666700  0.33333300  0.55788093  1
  Os  Os1  1  0.66666700  0.33333300  0.94300907  1
  W  W0  1  0.33333300  0.66666700  0.06293626  1
loop_
_geom_bond_atom_site_label_1
_geom_bond_atom_site_label_2
_geom_bond_distance
_geom_bond_site_symmetry_2
Be0 Be6 2.174933 1_555
Be0 Be7 2.174933 1_445
Be0 Be5 2.174936 1_545
Be0 Be3 2.227145 1_445
Be0 Be2 2.227145 1_455
Be0 Be4 2.227145 1_555
Be0 Os0 2.559306 1_455
Be0 Os0 2.559309 1_445
Be0 Os0 2.559310 1_555
Be0 Mo0 2.576502 1_545
Be0 Mo0 2.576505 1_555
Be0 Mo0 2.576506 1_445
Be1 Be6 2.181135 1_555
Be1 Be7 2.181136 1_445
Be1 Be5 2.181138 1_545
Be1 Be3 2.225917 1_446
Be1 Be2 2.225917 1_456
Be1 Be4 2.225917 1_556
Be1 Os1 2.558814 1_455
Be1 Os1 2.558817 1_445
Be1 Os1 2.558817 1_555
Be1 W0 2.574993 1_546
Be1 W0 2.574996 1_556
Be1 W0 2.574997 1_446
Be2 Be3 2.160339 1_555
Be2 Be4 2.160339 1_555
Be2 Be3 2.222182 1_545
Be2 Be4 2.222183 1_655
Be2 Os1 2.529191 1_554
Be2 Os0 2.533363 1_555
Be2 Mo0 2.565684 1_545
Be2 Mo0 2.565684 1_655
Be2 W0 2.569104 1_545
Be2 W0 2.569104 1_655
Be3 Be4 2.160339 1_555
Be3 Be4 2.222182 1_665
Be3 Os1 2.529193 1_554
Be3 Os0 2.533365 1_555
Be3 Mo0 2.565682 1_655
Be3 Mo0 2.565686 1_555
Be3 W0 2.569102 1_655
Be3 W0 2.569106 1_555
Be4 Os1 2.529193 1_554
Be4 Os0 2.533365 1_555
Be4 Mo0 2.565682 1_545
Be4 Mo0 2.565686 1_555
Be4 W0 2.569102 1_545
Be4 W0 2.569106 1_555
Be5 Be6 2.166320 1_555
Be5 Be7 2.166320 1_555
Be5 Be6 2.216201 1_565
Be5 Be7 2.216202 1_455
Be5 W0 2.569321 1_556
Be5 Mo0 2.569673 1_555
Be5 Os0 2.586535 1_565
Be5 Os0 2.586535 1_455
Be5 Os1 2.592371 1_565
Be5 Os1 2.592371 1_455
Be6 Be7 2.166320 1_555
Be6 Be7 2.216201 1_445
Be6 W0 2.569324 1_556
Be6 Mo0 2.569676 1_555
Be6 Os0 2.586535 1_555
Be6 Os0 2.586535 1_455
Be6 Os1 2.592372 1_555
Be6 Os1 2.592372 1_455
Be7 W0 2.569325 1_556
Be7 Mo0 2.569677 1_555
Be7 Os0 2.586535 1_565
Be7 Os0 2.586535 1_555
Be7 Os1 2.592371 1_565
Be7 Os1 2.592371 1_555
Mo0 W0 2.675490 1_555
Mo0 Os0 2.675831 1_565
Mo0 Os0 2.675832 1_455
Mo0 Os0 2.675839 1_555
Os0 Os1 2.759286 1_555
Os1 W0 2.672157 1_546
Os1 W0 2.672158 1_656
Os1 W0 2.672165 1_556
