# generated using pymatgen
data_Hf9Ta(Sn3P)2
_symmetry_space_group_name_H-M   'P 1'
_cell_length_a   8.46744015
_cell_length_b   8.46744055
_cell_length_c   5.80242957
_cell_angle_alpha   90.00000000
_cell_angle_beta   90.00000000
_cell_angle_gamma   119.99999462
_symmetry_Int_Tables_number   1
_chemical_formula_structural   Hf9Ta(Sn3P)2
_chemical_formula_sum   'Hf9 Ta1 Sn6 P2'
_cell_volume   360.28387468
_cell_formula_units_Z   1
loop_
 _symmetry_equiv_pos_site_id
 _symmetry_equiv_pos_as_xyz
  1  'x, y, z'
loop_
 _atom_site_type_symbol
 _atom_site_label
 _atom_site_symmetry_multiplicity
 _atom_site_fract_x
 _atom_site_fract_y
 _atom_site_fract_z
 _atom_site_occupancy
  Hf  Hf0  1  0.66666700  0.33333300  0.50000000  1
  Hf  Hf1  1  0.66666700  0.33333300  0.00000000  1
  Hf  Hf2  1  0.33333300  0.66666700  0.50000000  1
  Hf  Hf3  1  0.25298024  0.99932023  0.24912675  1
  Hf  Hf4  1  0.25298024  0.25366001  0.75087325  1
  Hf  Hf5  1  0.00067977  0.74701976  0.75087325  1
  Hf  Hf6  1  0.00067977  0.25366001  0.24912675  1
  Hf  Hf7  1  0.74633999  0.74701976  0.24912675  1
  Hf  Hf8  1  0.74633999  0.99932023  0.75087325  1
  Ta  Ta0  1  0.33333300  0.66666700  0.00000000  1
  Sn  Sn0  1  0.59970413  0.99820432  0.24737578  1
  Sn  Sn1  1  0.59970413  0.60149982  0.75262422  1
  Sn  Sn2  1  0.00179568  0.40029587  0.75262422  1
  Sn  Sn3  1  0.00179568  0.60149982  0.24737578  1
  Sn  Sn4  1  0.39850018  0.40029587  0.24737578  1
  Sn  Sn5  1  0.39850018  0.99820432  0.75262422  1
  P  P0  1  0.00000000  0.00000000  0.00000000  1
  P  P1  1  0.00000000  0.00000000  0.50000000  1
loop_
_geom_bond_atom_site_label_1
_geom_bond_atom_site_label_2
_geom_bond_distance
_geom_bond_site_symmetry_2
Hf0 Sn2 2.985570 1_655
Hf0 Sn0 2.985570 1_545
Hf0 Sn3 2.985572 1_655
Hf0 Sn5 2.985572 1_545
Hf0 Sn4 2.985577 1_555
Hf0 Sn1 2.985577 1_555
Hf1 Sn2 2.970736 1_654
Hf1 Sn0 2.970736 1_545
Hf1 Sn3 2.970739 1_655
Hf1 Sn5 2.970739 1_544
Hf1 Sn4 2.970743 1_555
Hf1 Sn1 2.970743 1_554
Hf2 Ta0 2.901215 1_556
Hf2 Ta0 2.901215 1_555
Hf2 Sn3 2.963930 1_555
Hf2 Sn5 2.963930 1_555
Hf2 Sn2 2.963932 1_555
Hf2 Sn0 2.963933 1_555
Hf2 Sn1 2.963937 1_555
Hf2 Sn4 2.963937 1_555
Hf3 P0 2.586604 1_565
Hf3 P1 2.592281 1_565
Hf3 Sn0 2.940617 1_555
Hf3 Sn3 2.950631 1_555
Hf3 Sn4 2.976989 1_565
Hf3 Sn5 3.135237 1_554
Hf3 Sn5 3.172572 1_555
Hf4 P0 2.586604 1_556
Hf4 P1 2.592281 1_555
Hf4 Sn1 2.940617 1_555
Hf4 Sn2 2.950631 1_555
Hf4 Sn5 2.976989 1_545
Hf4 Sn4 3.135237 1_556
Hf4 Sn4 3.172572 1_555
Hf5 P0 2.586604 1_566
Hf5 P1 2.592281 1_565
Hf5 Sn2 2.940617 1_555
Hf5 Sn5 2.950631 1_555
Hf5 Sn1 2.976989 1_455
Hf5 Sn3 3.135237 1_556
Hf5 Sn3 3.172572 1_555
Hf6 P0 2.586604 1_555
Hf6 P1 2.592281 1_555
Hf6 Sn3 2.940617 1_555
Hf6 Sn4 2.950631 1_555
Hf6 Sn0 2.976989 1_445
Hf6 Sn2 3.135237 1_554
Hf6 Sn2 3.172572 1_555
Hf7 P0 2.586604 1_665
Hf7 P1 2.592281 1_665
Hf7 Sn4 2.940617 1_555
Hf7 Sn0 2.950631 1_555
Hf7 Sn3 2.976989 1_655
Hf7 Sn1 3.135237 1_554
Hf7 Sn1 3.172572 1_555
Hf8 P0 2.586604 1_666
Hf8 P1 2.592281 1_665
Hf8 Sn5 2.940617 1_555
Hf8 Sn1 2.950631 1_555
Hf8 Sn2 2.976989 1_665
Hf8 Sn0 3.135237 1_556
Hf8 Sn0 3.172572 1_555
Sn0 Ta0 2.948990 1_555
Sn1 Ta0 2.948995 1_556
Sn2 Ta0 2.948990 1_556
Sn3 Ta0 2.948988 1_555
Sn4 Ta0 2.948995 1_555
Sn5 Ta0 2.948988 1_556
