# generated using pymatgen
data_Zn22Pd3Ru
_symmetry_space_group_name_H-M   'P 1'
_cell_length_a   7.82058324
_cell_length_b   7.82058299
_cell_length_c   7.82058248
_cell_angle_alpha   109.46854698
_cell_angle_beta   109.46854576
_cell_angle_gamma   109.46853890
_symmetry_Int_Tables_number   1
_chemical_formula_structural   Zn22Pd3Ru
_chemical_formula_sum   'Zn22 Pd3 Ru1'
_cell_volume   368.24640406
_cell_formula_units_Z   1
loop_
 _symmetry_equiv_pos_site_id
 _symmetry_equiv_pos_as_xyz
  1  'x, y, z'
loop_
 _atom_site_type_symbol
 _atom_site_label
 _atom_site_symmetry_multiplicity
 _atom_site_fract_x
 _atom_site_fract_y
 _atom_site_fract_z
 _atom_site_occupancy
  Zn  Zn0  1  0.78365968  0.99512585  0.99512585  1
  Zn  Zn1  1  0.65182742  0.27571083  0.00304398  1
  Zn  Zn2  1  0.34764529  0.34764529  0.98591365  1
  Zn  Zn3  1  0.64324999  0.64324999  0.00167493  1
  Zn  Zn4  1  0.27571083  0.65182742  0.00304398  1
  Zn  Zn5  1  0.99512585  0.78365968  0.99512585  1
  Zn  Zn6  1  0.22605930  0.22605930  0.22605930  1
  Zn  Zn7  1  0.65182742  0.00304398  0.27571083  1
  Zn  Zn8  1  0.00304398  0.65182742  0.27571083  1
  Zn  Zn9  1  0.62263428  0.35344483  0.35344483  1
  Zn  Zn10  1  0.35344483  0.62263428  0.35344483  1
  Zn  Zn11  1  0.34764529  0.98591365  0.34764529  1
  Zn  Zn12  1  0.98591365  0.34764529  0.34764529  1
  Zn  Zn13  1  0.72715080  0.72715080  0.37875205  1
  Zn  Zn14  1  0.35344483  0.35344483  0.62263428  1
  Zn  Zn15  1  0.64324999  0.00167493  0.64324999  1
  Zn  Zn16  1  0.00167493  0.64324999  0.64324999  1
  Zn  Zn17  1  0.27571083  0.00304398  0.65182742  1
  Zn  Zn18  1  0.00304398  0.27571083  0.65182742  1
  Zn  Zn19  1  0.72715080  0.37875205  0.72715080  1
  Zn  Zn20  1  0.37875205  0.72715080  0.72715080  1
  Zn  Zn21  1  0.99512585  0.99512585  0.78365968  1
  Pd  Pd0  1  0.34907092  0.00236594  0.00236594  1
  Pd  Pd1  1  0.00236594  0.34907092  0.00236594  1
  Pd  Pd2  1  0.00236594  0.00236594  0.34907092  1
  Ru  Ru0  1  0.65310731  0.65310731  0.65310731  1
loop_
_geom_bond_atom_site_label_1
_geom_bond_atom_site_label_2
_geom_bond_distance
_geom_bond_site_symmetry_2
Zn0 Zn12 2.612108 1_566
Zn0 Zn15 2.626481 1_565
Zn0 Zn3 2.626482 1_556
Zn0 Zn20 2.652661 1_555
Zn0 Zn5 2.700581 1_555
Zn0 Zn21 2.700581 1_555
Zn0 Zn7 2.709604 1_566
Zn0 Zn1 2.709604 1_566
Zn0 Zn6 2.826546 1_666
Zn1 Zn2 2.592949 1_554
Zn1 Zn17 2.696847 1_554
Zn1 Zn8 2.696847 1_655
Zn1 Zn9 2.707442 1_555
Zn1 Zn19 2.709543 1_554
Zn1 Zn12 2.778831 1_555
Zn1 Zn15 2.876388 1_554
Zn1 Zn3 2.900893 1_555
Zn2 Zn4 2.592949 1_556
Zn2 Zn3 2.600321 1_556
Zn2 Zn21 2.612108 1_445
Zn2 Zn6 2.667129 1_556
Zn2 Zn9 2.935363 1_556
Zn3 Zn5 2.626482 1_554
Zn3 Zn7 2.876388 1_565
Zn3 Zn8 2.876388 1_655
Zn3 Zn4 2.900893 1_555
Zn4 Zn7 2.696847 1_565
Zn4 Zn5 2.709604 1_454
Zn5 Zn8 2.709604 1_656
Zn5 Zn6 2.826546 1_666
Zn6 Zn9 2.612133 1_555
Zn7 Zn9 2.707442 1_555
Zn10 Zn15 2.584550 1_565
Zn10 Zn6 2.612132 1_555
Zn10 Zn20 2.676394 1_555
Zn10 Zn13 2.676394 1_555
Zn10 Zn4 2.707442 1_555
Zn10 Zn8 2.707442 1_555
Zn10 Zn11 2.871608 1_555
Zn10 Zn2 2.935363 1_554
Zn10 Zn12 2.935364 1_455
Zn11 Zn17 2.592949 1_565
Zn11 Zn7 2.592949 1_565
Zn11 Zn15 2.600321 1_565
Zn11 Zn5 2.612108 1_454
Zn11 Zn6 2.667129 1_565
Zn11 Zn4 2.778831 1_555
Zn11 Zn8 2.778832 1_555
Zn11 Zn14 2.935363 1_565
Zn11 Zn9 2.935364 1_565
Zn11 Zn19 3.004717 1_565
Zn12 Zn18 2.592949 1_655
Zn12 Zn8 2.592949 1_655
Zn12 Zn16 2.600321 1_655
Zn12 Zn6 2.667129 1_655
Zn12 Zn7 2.778832 1_555
Zn12 Zn9 2.871608 1_555
Zn12 Zn14 2.935363 1_655
Zn12 Zn20 3.004717 1_655
Zn13 Zn3 2.586667 1_555
Zn13 Zn21 2.652661 1_555
Zn13 Zn9 2.676394 1_555
Zn13 Zn7 2.709543 1_565
Zn13 Zn8 2.709543 1_655
Zn13 Zn15 2.863942 1_565
Zn13 Zn16 2.863942 1_655
Zn13 Zn2 3.004717 1_554
Zn14 Zn3 2.584550 1_556
Zn14 Zn6 2.612132 1_555
Zn14 Zn20 2.676394 1_555
Zn14 Zn19 2.676394 1_555
Zn14 Zn17 2.707442 1_555
Zn14 Zn18 2.707442 1_555
Zn14 Zn2 2.871608 1_555
Zn15 Zn19 2.586667 1_555
Zn15 Zn21 2.626482 1_545
Zn15 Zn20 2.863942 1_545
Zn15 Zn18 2.876388 1_655
Zn15 Zn7 2.900893 1_555
Zn15 Zn17 2.900893 1_555
Zn16 Zn9 2.584550 1_455
Zn16 Zn20 2.586668 1_555
Zn16 Zn5 2.626481 1_455
Zn16 Zn21 2.626481 1_455
Zn16 Zn19 2.863942 1_455
Zn16 Zn4 2.876388 1_556
Zn16 Zn17 2.876388 1_565
Zn16 Zn8 2.900893 1_555
Zn16 Zn18 2.900893 1_555
Zn17 Zn8 2.696847 1_545
Zn17 Zn20 2.709543 1_545
Zn17 Zn21 2.709605 1_445
Zn17 Zn2 2.778831 1_555
Zn18 Zn4 2.696847 1_556
Zn18 Zn7 2.696847 1_455
Zn18 Zn19 2.709543 1_455
Zn18 Zn21 2.709604 1_445
Zn18 Zn2 2.778831 1_555
Zn19 Zn5 2.652661 1_555
Zn19 Zn9 2.676394 1_555
Zn19 Zn3 2.863942 1_556
Zn20 Zn4 2.709543 1_556
Zn20 Zn3 2.863942 1_556
Zn21 Zn5 2.700581 1_555
Zn21 Zn6 2.826546 1_666
Pd0 Zn7 2.605029 1_555
Pd0 Zn1 2.605029 1_555
Pd0 Zn9 2.607318 1_555
Pd0 Zn17 2.609188 1_554
Pd0 Zn4 2.609188 1_545
Pd0 Zn20 2.626237 1_544
Pd0 Zn6 2.692586 1_555
Pd0 Zn21 2.695532 1_444
Pd0 Zn5 2.695532 1_444
Pd0 Zn11 2.749350 1_545
Pd0 Zn2 2.749351 1_554
Pd0 Zn16 2.779654 1_544
Pd1 Zn8 2.605029 1_555
Pd1 Zn4 2.605029 1_555
Pd1 Zn10 2.607318 1_555
Pd1 Zn18 2.609188 1_554
Pd1 Zn1 2.609188 1_455
Pd1 Zn19 2.626237 1_454
Pd1 Zn6 2.692586 1_555
Pd1 Zn21 2.695532 1_444
Pd1 Zn0 2.695532 1_444
Pd1 Zn12 2.749350 1_455
Pd1 Zn2 2.749351 1_554
Pd1 Zn15 2.779654 1_454
Pd2 Zn18 2.605029 1_555
Pd2 Zn17 2.605029 1_555
Pd2 Zn14 2.607319 1_555
Pd2 Zn8 2.609188 1_545
Pd2 Zn7 2.609188 1_455
Pd2 Zn13 2.626237 1_445
Pd2 Zn6 2.692586 1_555
Pd2 Zn5 2.695532 1_444
Pd2 Zn0 2.695532 1_444
Pd2 Zn12 2.749351 1_455
Pd2 Zn11 2.749351 1_545
Pd2 Zn3 2.779654 1_445
Ru0 Zn9 2.575962 1_555
Ru0 Zn10 2.575962 1_555
Ru0 Zn14 2.575963 1_555
Ru0 Zn13 2.589821 1_555
Ru0 Zn19 2.589821 1_555
Ru0 Zn20 2.589821 1_555
Ru0 Zn0 2.634688 1_555
Ru0 Zn5 2.634688 1_555
Ru0 Zn21 2.634688 1_555
Ru0 Zn3 2.778339 1_556
Ru0 Zn15 2.778340 1_565
Ru0 Zn16 2.778340 1_655
