# generated using pymatgen
data_Ti8Al14SiRu7
_symmetry_space_group_name_H-M   'P 1'
_cell_length_a   8.58930026
_cell_length_b   8.58930025
_cell_length_c   8.58930032
_cell_angle_alpha   120.11700384
_cell_angle_beta   119.92599226
_cell_angle_gamma   89.96285175
_symmetry_Int_Tables_number   1
_chemical_formula_structural   Ti8Al14SiRu7
_chemical_formula_sum   'Ti8 Al14 Si1 Ru7'
_cell_volume   447.93561326
_cell_formula_units_Z   1
loop_
 _symmetry_equiv_pos_site_id
 _symmetry_equiv_pos_as_xyz
  1  'x, y, z'
loop_
 _atom_site_type_symbol
 _atom_site_label
 _atom_site_symmetry_multiplicity
 _atom_site_fract_x
 _atom_site_fract_y
 _atom_site_fract_z
 _atom_site_occupancy
  Ti  Ti0  1  0.79722521  0.29054836  0.08001434  1
  Ti  Ti1  1  0.21053402  0.29054836  0.49332315  1
  Ti  Ti2  1  0.20649723  0.70649723  0.50000000  1
  Ti  Ti3  1  0.21053402  0.71721087  0.91998566  1
  Ti  Ti4  1  0.79722521  0.71721087  0.50667685  1
  Ti  Ti5  1  0.78372375  0.28372375  0.50000000  1
  Ti  Ti6  1  0.37912260  0.11916707  0.74004447  1
  Ti  Ti7  1  0.37912260  0.63907813  0.25995553  1
  Al  Al0  1  0.15929435  0.34063520  0.18134086  1
  Al  Al1  1  0.15929435  0.97795349  0.81865914  1
  Al  Al2  1  0.15553551  0.34405736  0.81147815  1
  Al  Al3  1  0.53257921  0.34405736  0.18852185  1
  Al  Al4  1  0.84314810  0.65636399  0.81321789  1
  Al  Al5  1  0.84314810  0.02993021  0.18678211  1
  Al  Al6  1  0.84089715  0.65741812  0.18347803  1
  Al  Al7  1  0.47393908  0.65741812  0.81652197  1
  Al  Al8  1  0.37949544  0.12016696  0.25932848  1
  Al  Al9  1  0.86083948  0.12016696  0.74067152  1
  Al  Al10  1  0.61965884  0.87697476  0.25731592  1
  Al  Al11  1  0.61965884  0.36234193  0.74268408  1
  Al  Al12  1  0.62109756  0.87863102  0.74246755  1
  Al  Al13  1  0.13616247  0.87863102  0.25753245  1
  Si  Si0  1  0.99536519  0.49536519  0.50000000  1
  Ru  Ru0  1  0.99983781  0.00002990  0.50068327  1
  Ru  Ru1  1  0.49934663  0.00002990  0.00019209  1
  Ru  Ru2  1  0.49856514  0.49856514  1.00000000  1
  Ru  Ru3  1  0.49934663  0.49915454  0.49931673  1
  Ru  Ru4  1  0.99983781  0.49915454  0.99980791  1
  Ru  Ru5  1  0.00022395  0.00022395  1.00000000  1
  Ru  Ru6  1  0.49874270  0.99874270  0.50000000  1
loop_
_geom_bond_atom_site_label_1
_geom_bond_atom_site_label_2
_geom_bond_distance
_geom_bond_site_symmetry_2
Al0 Ru5 2.480626 1_554
Al0 Ru3 2.481588 1_555
Al0 Ru4 2.481588 1_454
Al1 Ru5 2.480626 1_565
Al1 Ru1 2.481588 1_566
Al1 Ru0 2.481588 1_465
Al2 Ru2 2.480454 1_555
Al2 Ru0 2.484638 1_455
Al2 Ru4 2.484638 1_455
Al3 Ru2 2.480454 1_554
Al3 Ru1 2.484638 1_555
Al3 Ru3 2.484638 1_555
Al4 Ru5 2.491532 1_665
Al4 Ru4 2.494101 1_555
Al4 Ru3 2.494115 1_555
Al5 Ru5 2.491517 1_654
Al5 Ru1 2.494116 1_555
Al5 Ru0 2.494116 1_555
Al6 Ru4 2.488939 1_554
Al6 Ru0 2.488947 1_565
Al6 Ru2 2.492989 1_554
Al7 Ru1 2.488945 1_566
Al7 Ru3 2.488952 1_555
Al7 Ru2 2.492979 1_555
Al8 Ru6 2.541609 1_545
Al8 Ru3 2.656811 1_555
Al8 Ru1 2.656811 1_555
Al8 Ru5 2.663972 1_554
Al9 Ru6 2.541616 1_545
Al9 Ru0 2.656803 1_555
Al9 Ru4 2.656810 1_555
Al9 Ru5 2.663972 1_655
Al10 Ru6 2.547242 1_555
Al10 Ru2 2.651908 1_554
Al10 Ru0 2.669565 1_565
Al10 Ru1 2.669565 1_565
Al11 Ru6 2.547235 1_545
Al11 Ru2 2.651908 1_555
Al11 Ru4 2.669565 1_555
Al11 Ru3 2.669572 1_555
Al12 Ru6 2.545020 1_555
Al12 Ru1 2.659546 1_566
Al12 Ru3 2.659552 1_555
Al12 Ru5 2.662139 1_665
Al13 Ru6 2.545027 1_555
Al13 Ru0 2.659545 1_465
Al13 Ru4 2.659552 1_454
Al13 Ru5 2.662132 1_564
Si0 Ti3 2.552281 1_655
Si0 Ti0 2.552281 1_555
Si0 Ti4 2.552281 1_555
Si0 Ti1 2.552281 1_655
Si0 Ti2 2.565474 1_655
Si0 Ti5 2.571664 1_555
Ru0 Ti6 2.664103 1_655
Ru1 Ti6 2.664103 1_554
Ru2 Ti6 2.659766 1_555
Ru2 Ti7 2.659766 1_556
Ru3 Ti7 2.664103 1_555
Ru4 Ti7 2.664103 1_656
Ru5 Ti1 3.033335 1_556
Ru5 Ti4 3.033335 1_445
Ru5 Ti0 3.033335 1_456
Ru5 Ti3 3.033335 1_545
Ru6 Ti7 2.519670 1_555
Ru6 Ti6 2.519670 1_565
