# generated using pymatgen
data_Hf6Al16Ir2Pd5
_symmetry_space_group_name_H-M   'P 1'
_cell_length_a   8.68153372
_cell_length_b   8.69414614
_cell_length_c   8.67638110
_cell_angle_alpha   59.93225011
_cell_angle_beta   60.15721196
_cell_angle_gamma   59.95193431
_symmetry_Int_Tables_number   1
_chemical_formula_structural   Hf6Al16Ir2Pd5
_chemical_formula_sum   'Hf6 Al16 Ir2 Pd5'
_cell_volume   463.21086814
_cell_formula_units_Z   1
loop_
 _symmetry_equiv_pos_site_id
 _symmetry_equiv_pos_as_xyz
  1  'x, y, z'
loop_
 _atom_site_type_symbol
 _atom_site_label
 _atom_site_symmetry_multiplicity
 _atom_site_fract_x
 _atom_site_fract_y
 _atom_site_fract_z
 _atom_site_occupancy
  Hf  Hf0  1  0.68404783  0.31558340  0.31902158  1
  Hf  Hf1  1  0.31595217  0.68441660  0.68097842  1
  Hf  Hf2  1  0.31438475  0.68231742  0.32098140  1
  Hf  Hf3  1  0.68561525  0.31768258  0.67901860  1
  Hf  Hf4  1  0.31595217  0.31865180  0.68097842  1
  Hf  Hf5  1  0.68404783  0.68134820  0.31902158  1
  Al  Al0  1  0.33448644  0.33577749  0.33552803  1
  Al  Al1  1  0.66551356  0.66422251  0.66447197  1
  Al  Al2  1  0.33522504  0.33537442  0.99402513  1
  Al  Al3  1  0.33448644  0.99420703  0.33552803  1
  Al  Al4  1  0.66477496  0.66462558  0.00597487  1
  Al  Al5  1  0.66551356  0.00579297  0.66447197  1
  Al  Al6  1  0.99418672  0.33491148  0.33598932  1
  Al  Al7  1  0.00581328  0.66508852  0.66401068  1
  Al  Al8  1  0.11721516  0.11781936  0.12654634  1
  Al  Al9  1  0.88278484  0.88218064  0.87345366  1
  Al  Al10  1  0.11556091  0.12400436  0.63643138  1
  Al  Al11  1  0.11721516  0.63841914  0.12654634  1
  Al  Al12  1  0.88443909  0.87599564  0.36356862  1
  Al  Al13  1  0.88278484  0.36158086  0.87345366  1
  Al  Al14  1  0.64035365  0.11962148  0.12040239  1
  Al  Al15  1  0.35964635  0.88037852  0.87959761  1
  Ir  Ir0  1  0.00000000  0.50000000  0.50000000  1
  Ir  Ir1  1  0.00000000  0.00000000  0.50000000  1
  Pd  Pd0  1  0.50000000  0.00000000  0.00000000  1
  Pd  Pd1  1  0.00000000  0.50000000  0.00000000  1
  Pd  Pd2  1  0.50000000  0.00000000  0.50000000  1
  Pd  Pd3  1  0.50000000  0.50000000  0.00000000  1
  Pd  Pd4  1  0.00000000  0.00000000  0.00000000  1
loop_
_geom_bond_atom_site_label_1
_geom_bond_atom_site_label_2
_geom_bond_distance
_geom_bond_site_symmetry_2
Hf0 Hf3 3.139469 1_555
Hf0 Ir1 3.154377 1_655
Hf0 Hf4 3.175827 1_555
Hf0 Hf5 3.180013 1_555
Hf0 Pd2 3.181652 1_555
Hf0 Pd1 3.187008 1_655
Hf0 Pd3 3.189718 1_555
Hf0 Hf2 3.196615 1_555
Hf1 Hf2 3.139469 1_555
Hf1 Ir1 3.154377 1_565
Hf1 Hf5 3.175827 1_555
Hf1 Hf4 3.180013 1_555
Hf1 Pd2 3.181652 1_565
Hf1 Pd1 3.187008 1_556
Hf1 Pd3 3.189718 1_556
Hf1 Hf3 3.196615 1_555
Hf2 Hf4 3.139478 1_555
Hf2 Ir1 3.165545 1_565
Hf2 Ir0 3.165550 1_555
Hf2 Hf5 3.196615 1_555
Hf2 Pd0 3.203786 1_565
Hf2 Pd3 3.203792 1_555
Hf3 Hf5 3.139478 1_555
Hf3 Ir1 3.165545 1_655
Hf3 Ir0 3.165550 1_655
Hf3 Hf4 3.196615 1_555
Hf3 Pd0 3.203786 1_556
Hf3 Pd3 3.203792 1_556
Hf4 Ir0 3.154375 1_555
Hf4 Pd2 3.181645 1_555
Hf4 Pd1 3.187012 1_556
Hf4 Pd0 3.189717 1_556
Hf5 Ir0 3.154375 1_655
Hf5 Pd2 3.181645 1_565
Hf5 Pd1 3.187012 1_655
Hf5 Pd0 3.189717 1_565
Al0 Ir0 2.504539 1_555
Al0 Pd2 2.507760 1_555
Al0 Pd3 2.510882 1_555
Al0 Al11 2.724295 1_555
Al0 Al10 2.750932 1_555
Al0 Al14 2.766111 1_555
Al0 Hf4 2.851043 1_555
Al0 Hf2 2.870208 1_555
Al0 Hf0 2.884436 1_555
Al0 Al6 2.956109 1_455
Al0 Al2 2.961579 1_554
Al0 Al3 2.969663 1_545
Al1 Ir0 2.504539 1_655
Al1 Pd2 2.507760 1_565
Al1 Pd3 2.510882 1_556
Al1 Al13 2.724295 1_555
Al1 Al12 2.750932 1_555
Al1 Al15 2.766111 1_555
Al1 Hf5 2.851043 1_555
Al1 Hf3 2.870208 1_555
Al1 Hf1 2.884436 1_555
Al1 Al7 2.956109 1_655
Al1 Al4 2.961579 1_556
Al1 Al5 2.969663 1_565
Al2 Pd1 2.504725 1_556
Al2 Pd0 2.509205 1_556
Al2 Pd3 2.509213 1_556
Al2 Al8 2.778813 1_556
Al2 Hf4 2.880756 1_555
Al2 Hf1 2.880756 1_555
Al2 Hf3 2.902616 1_555
Al2 Al3 2.961579 1_546
Al2 Al6 2.970916 1_456
Al3 Ir1 2.504536 1_565
Al3 Pd2 2.507765 1_565
Al3 Pd0 2.510879 1_565
Al3 Al8 2.724292 1_565
Al3 Hf1 2.851043 1_555
Al3 Hf2 2.870191 1_555
Al3 Hf5 2.884429 1_555
Al3 Al6 2.956109 1_465
Al4 Pd1 2.504725 1_655
Al4 Pd0 2.509205 1_565
Al4 Pd3 2.509213 1_555
Al4 Al9 2.778813 1_554
Al4 Hf5 2.880756 1_555
Al4 Hf0 2.880756 1_555
Al4 Hf2 2.902616 1_555
Al4 Al5 2.961579 1_564
Al4 Al7 2.970916 1_654
Al5 Ir1 2.504536 1_655
Al5 Pd2 2.507765 1_555
Al5 Pd0 2.510879 1_556
Al5 Al9 2.724292 1_545
Al5 Hf0 2.851043 1_555
Al5 Hf3 2.870191 1_555
Al5 Hf4 2.884429 1_555
Al5 Al7 2.956109 1_645
Al6 Ir1 2.505645 1_655
Al6 Ir0 2.505652 1_655
Al6 Pd1 2.508837 1_655
Al6 Al8 2.737109 1_655
Al6 Hf3 2.841993 1_555
Al6 Hf0 2.858629 1_555
Al6 Hf5 2.858639 1_555
Al7 Ir1 2.505645 1_565
Al7 Ir0 2.505652 1_555
Al7 Pd1 2.508837 1_556
Al7 Al9 2.737109 1_455
Al7 Hf2 2.841993 1_555
Al7 Hf1 2.858629 1_555
Al7 Hf4 2.858639 1_555
Al8 Pd4 2.563822 1_555
Al8 Ir1 2.649579 1_555
Al8 Pd1 2.711408 1_555
Al8 Pd0 2.717505 1_555
Al8 Hf0 3.168393 1_455
Al8 Hf2 3.177259 1_545
Al8 Hf4 3.253542 1_554
Al9 Pd4 2.563822 1_666
Al9 Ir1 2.649579 1_665
Al9 Pd1 2.711408 1_656
Al9 Pd0 2.717505 1_566
Al9 Hf1 3.168393 1_655
Al9 Hf3 3.177259 1_565
Al9 Hf5 3.253542 1_556
Al10 Pd4 2.577820 1_556
Al10 Ir0 2.667194 1_555
Al10 Ir1 2.667201 1_555
Al10 Al6 2.697560 1_455
Al10 Pd2 2.728738 1_555
Al10 Al3 2.750942 1_545
Al10 Al13 2.918828 1_455
Al10 Al9 2.918835 1_445
Al10 Al15 2.984064 1_545
Al10 Hf3 3.140170 1_455
Al10 Hf4 3.211357 1_555
Al10 Hf1 3.211372 1_545
Al11 Pd4 2.563822 1_565
Al11 Ir0 2.649579 1_555
Al11 Pd1 2.711408 1_555
Al11 Pd3 2.717505 1_555
Al11 Al6 2.737116 1_455
Al11 Al2 2.778821 1_554
Al11 Al12 2.918828 1_455
Al11 Al15 2.979102 1_554
Al11 Al9 2.986755 1_454
Al11 Hf5 3.168392 1_455
Al11 Hf2 3.177265 1_555
Al11 Hf1 3.253543 1_554
Al12 Pd4 2.577820 1_665
Al12 Ir0 2.667194 1_655
Al12 Ir1 2.667201 1_665
Al12 Al7 2.697560 1_655
Al12 Pd2 2.728738 1_565
Al12 Al5 2.750942 1_565
Al12 Al8 2.918835 1_665
Al12 Al14 2.984064 1_565
Al12 Hf2 3.140170 1_655
Al12 Hf5 3.211357 1_555
Al12 Hf0 3.211372 1_565
Al13 Pd4 2.563822 1_656
Al13 Ir0 2.649579 1_655
Al13 Pd1 2.711408 1_656
Al13 Pd3 2.717505 1_556
Al13 Al7 2.737116 1_655
Al13 Al4 2.778821 1_556
Al13 Al14 2.979102 1_556
Al13 Al8 2.986755 1_656
Al13 Hf4 3.168392 1_655
Al13 Hf3 3.177265 1_555
Al13 Hf0 3.253543 1_556
Al14 Pd4 2.551888 1_655
Al14 Pd2 2.693773 1_555
Al14 Pd0 2.698559 1_555
Al14 Pd3 2.698566 1_555
Al14 Al2 2.755292 1_554
Al14 Al3 2.766111 1_545
Al14 Al9 2.979096 1_544
Al14 Hf5 3.202507 1_545
Al14 Hf0 3.202522 1_555
Al14 Hf3 3.218308 1_554
Al15 Pd4 2.551888 1_566
Al15 Pd2 2.693773 1_565
Al15 Pd0 2.698559 1_566
Al15 Pd3 2.698566 1_556
Al15 Al4 2.755292 1_556
Al15 Al5 2.766111 1_565
Al15 Al8 2.979096 1_566
Al15 Hf4 3.202507 1_565
Al15 Hf1 3.202522 1_555
Al15 Hf2 3.218308 1_556
