# generated using pymatgen
data_Na4CaMoO6
_symmetry_space_group_name_H-M   'P 1'
_cell_length_a   5.64087766
_cell_length_b   5.64088929
_cell_length_c   5.64644030
_cell_angle_alpha   99.86940340
_cell_angle_beta   99.86980834
_cell_angle_gamma   119.87508847
_symmetry_Int_Tables_number   1
_chemical_formula_structural   Na4CaMoO6
_chemical_formula_sum   'Na4 Ca1 Mo1 O6'
_cell_volume   146.38816739
_cell_formula_units_Z   1
loop_
 _symmetry_equiv_pos_site_id
 _symmetry_equiv_pos_as_xyz
  1  'x, y, z'
loop_
 _atom_site_type_symbol
 _atom_site_label
 _atom_site_symmetry_multiplicity
 _atom_site_fract_x
 _atom_site_fract_y
 _atom_site_fract_z
 _atom_site_occupancy
  Na  Na0  1  0.50044354  0.49955822  0.99999990  1
  Na  Na1  1  0.99462238  0.00538198  0.50000231  1
  Na  Na2  1  0.66321176  0.33678761  0.49999896  1
  Na  Na3  1  0.33959281  0.66041798  0.49999640  1
  Ca  Ca0  1  0.16648804  0.83351275  0.99999985  1
  Mo  Mo0  1  0.83283897  0.16715836  0.99999940  1
  O  O0  1  0.61916514  0.95861969  0.20583308  1
  O  O1  1  0.91127712  0.52253705  0.21415479  1
  O  O2  1  0.18393209  0.23040642  0.21354242  1
  O  O3  1  0.76959249  0.81607023  0.78646102  1
  O  O4  1  0.47746110  0.08872230  0.78584722  1
  O  O5  1  0.04137856  0.38083441  0.79416867  1
loop_
_geom_bond_atom_site_label_1
_geom_bond_atom_site_label_2
_geom_bond_distance
_geom_bond_site_symmetry_2
Na0 O5 2.340656 1_555
Na0 O0 2.340657 1_556
Na0 O1 2.352861 1_556
Na0 O4 2.352869 1_555
Na0 O3 2.368887 1_555
Na0 O2 2.368906 1_556
Na1 O2 2.305082 1_655
Na1 O3 2.305094 1_545
Na1 O5 2.324074 1_655
Na1 O0 2.324074 1_545
Na1 O4 2.683560 1_655
Na1 O1 2.683597 1_545
Na2 O5 2.342437 1_655
Na2 O0 2.342444 1_545
Na2 O1 2.356750 1_555
Na2 O4 2.356771 1_555
Na2 O2 2.614846 1_555
Na2 O3 2.614888 1_555
Na3 O3 2.305892 1_555
Na3 O2 2.305914 1_555
Na3 O1 2.325531 1_455
Na3 O4 2.325540 1_565
Na3 O0 2.699712 1_555
Na3 O5 2.699809 1_555
Ca0 O0 2.296812 1_556
Ca0 O5 2.296821 1_555
Ca0 O3 2.300073 1_455
Ca0 O2 2.300078 1_566
Ca0 O4 2.328061 1_565
Ca0 O1 2.328082 1_456
Mo0 O5 1.929693 1_655
Mo0 O0 1.929699 1_546
Mo0 O4 1.943839 1_555
Mo0 O1 1.943856 1_556
Mo0 O3 1.957884 1_545
Mo0 O2 1.957904 1_656
