# generated using pymatgen
data_Na2SO4
_symmetry_space_group_name_H-M   'P 1'
_cell_length_a   5.21883140
_cell_length_b   5.21883131
_cell_length_c   6.90124396
_cell_angle_alpha   90.00000000
_cell_angle_beta   90.00000000
_cell_angle_gamma   115.51161400
_symmetry_Int_Tables_number   1
_chemical_formula_structural   Na2SO4
_chemical_formula_sum   'Na4 S2 O8'
_cell_volume   169.63683239
_cell_formula_units_Z   2
loop_
 _symmetry_equiv_pos_site_id
 _symmetry_equiv_pos_as_xyz
  1  'x, y, z'
loop_
 _atom_site_type_symbol
 _atom_site_label
 _atom_site_symmetry_multiplicity
 _atom_site_fract_x
 _atom_site_fract_y
 _atom_site_fract_z
 _atom_site_occupancy
  Na  Na0  1  0.18971179  0.81028821  0.75000000  1
  Na  Na1  1  0.81028821  0.18971179  0.25000000  1
  Na  Na2  1  0.50000000  0.50000000  0.50000000  1
  Na  Na3  1  0.50000000  0.50000000  0.00000000  1
  S  S0  1  0.85004193  0.14995807  0.75000000  1
  S  S1  1  0.14995807  0.85004193  0.25000000  1
  O  O0  1  0.24595462  0.75404538  0.07648409  1
  O  O1  1  0.75404538  0.24595462  0.57648409  1
  O  O2  1  0.75404538  0.24595462  0.92351591  1
  O  O3  1  0.24595462  0.75404538  0.42351591  1
  O  O4  1  0.16515126  0.26787369  0.75000000  1
  O  O5  1  0.83484874  0.73212631  0.25000000  1
  O  O6  1  0.73212631  0.83484874  0.75000000  1
  O  O7  1  0.26787369  0.16515126  0.25000000  1
loop_
_geom_bond_atom_site_label_1
_geom_bond_atom_site_label_2
_geom_bond_distance
_geom_bond_site_symmetry_2
Na0 O3 2.307204 1_555
Na0 O0 2.307204 1_556
Na0 O4 2.446004 1_565
Na0 O6 2.446004 1_455
Na0 O4 2.777974 1_555
Na0 O6 2.777974 1_555
Na1 O1 2.307204 1_555
Na1 O2 2.307204 1_554
Na1 O5 2.446004 1_545
Na1 O7 2.446004 1_655
Na1 O5 2.777974 1_555
Na1 O7 2.777974 1_555
Na2 O1 2.303987 1_555
Na2 O3 2.303987 1_555
Na2 O6 2.382126 1_555
Na2 O7 2.382126 1_555
Na2 O4 2.382126 1_555
Na2 O5 2.382126 1_555
Na3 O0 2.303987 1_555
Na3 O2 2.303987 1_554
Na3 O6 2.382126 1_554
Na3 O7 2.382126 1_555
Na3 O4 2.382126 1_554
Na3 O5 2.382126 1_555
O0 S1 1.467014 1_555
O1 S0 1.467014 1_555
O2 S0 1.467014 1_555
O3 S1 1.467014 1_555
O4 S0 1.487065 1_455
O5 S1 1.487065 1_655
O6 S0 1.487065 1_565
O7 S1 1.487065 1_545
