# generated using pymatgen
data_SrV2(PbO4)2
_symmetry_space_group_name_H-M   'P 1'
_cell_length_a   6.32010605
_cell_length_b   7.46281096
_cell_length_c   9.38804491
_cell_angle_alpha   64.87778503
_cell_angle_beta   90.00000000
_cell_angle_gamma   90.00000000
_symmetry_Int_Tables_number   1
_chemical_formula_structural   SrV2(PbO4)2
_chemical_formula_sum   'Sr2 V4 Pb4 O16'
_cell_volume   400.90779249
_cell_formula_units_Z   2
loop_
 _symmetry_equiv_pos_site_id
 _symmetry_equiv_pos_as_xyz
  1  'x, y, z'
loop_
 _atom_site_type_symbol
 _atom_site_label
 _atom_site_symmetry_multiplicity
 _atom_site_fract_x
 _atom_site_fract_y
 _atom_site_fract_z
 _atom_site_occupancy
  Sr  Sr0  1  0.50000000  0.00000000  0.50000000  1
  Sr  Sr1  1  0.00000000  0.00000000  0.00000000  1
  V  V0  1  0.51851591  0.20229772  0.09760398  1
  V  V1  1  0.01851591  0.79770228  0.40239602  1
  V  V2  1  0.48148409  0.79770228  0.90239602  1
  V  V3  1  0.98148409  0.20229772  0.59760398  1
  Pb  Pb0  1  0.09916872  0.38859069  0.20976935  1
  Pb  Pb1  1  0.59916872  0.61140931  0.29023065  1
  Pb  Pb2  1  0.90083128  0.61140931  0.79023065  1
  Pb  Pb3  1  0.40083128  0.38859069  0.70976935  1
  O  O0  1  0.54330515  0.96084101  0.22685083  1
  O  O1  1  0.04330515  0.03915899  0.27314917  1
  O  O2  1  0.45669485  0.03915899  0.77314917  1
  O  O3  1  0.95669485  0.96084101  0.72685083  1
  O  O4  1  0.47518758  0.32752131  0.21498595  1
  O  O5  1  0.97518758  0.67247869  0.28501405  1
  O  O6  1  0.52481242  0.67247869  0.78501405  1
  O  O7  1  0.02481242  0.32752131  0.71498595  1
  O  O8  1  0.29756598  0.24602658  0.97634750  1
  O  O9  1  0.79756598  0.75397342  0.52365250  1
  O  O10  1  0.76221572  0.27611555  0.48067896  1
  O  O11  1  0.26221572  0.72388445  0.01932104  1
  O  O12  1  0.23778428  0.72388445  0.51932104  1
  O  O13  1  0.73778428  0.27611555  0.98067896  1
  O  O14  1  0.20243402  0.24602658  0.47634750  1
  O  O15  1  0.70243402  0.75397342  0.02365250  1
loop_
_geom_bond_atom_site_label_1
_geom_bond_atom_site_label_2
_geom_bond_distance
_geom_bond_site_symmetry_2
O0 V0 1.699214 1_565
O0 Pb1 2.441622 1_555
O0 Sr0 2.715224 1_565
O1 V1 1.699214 1_545
O1 Pb0 2.441622 1_555
O1 Sr1 2.715224 1_555
O2 V2 1.699214 1_545
O2 Pb3 2.441622 1_555
O2 Sr0 2.715224 1_555
O3 V3 1.699214 1_565
O3 Pb2 2.441622 1_555
O3 Sr1 2.715224 1_666
O4 V0 1.742734 1_555
O4 Pb0 2.416362 1_555
O4 Pb1 2.621491 1_555
O4 Sr0 2.757745 1_555
O5 V1 1.742734 1_655
O5 Pb1 2.416362 1_555
O5 Pb0 2.621491 1_655
O5 Sr1 2.757745 1_665
O6 V2 1.742734 1_555
O6 Pb2 2.416362 1_555
O6 Pb3 2.621491 1_555
O6 Sr0 2.757745 1_565
O7 V3 1.742734 1_455
O7 Pb3 2.416362 1_555
O7 Pb2 2.621491 1_455
O7 Sr1 2.757745 1_556
O8 V0 1.742681 1_556
O8 Pb3 2.358027 1_555
O8 Sr1 2.571196 1_556
O9 V1 1.742681 1_655
O9 Pb2 2.358027 1_555
O9 Sr0 2.571196 1_565
O10 V3 1.707454 1_555
O10 Sr0 2.589984 1_555
O10 Pb1 2.592495 1_555
O11 V2 1.707454 1_554
O11 Sr1 2.589984 1_565
O11 Pb0 2.592495 1_555
O12 V1 1.707454 1_555
O12 Sr0 2.589984 1_565
O12 Pb3 2.592495 1_555
O13 V0 1.707454 1_556
O13 Sr1 2.589984 1_656
O13 Pb2 2.592495 1_555
O14 V3 1.742681 1_455
O14 Pb0 2.358027 1_555
O14 Sr0 2.571196 1_555
O15 V2 1.742681 1_554
O15 Pb1 2.358027 1_555
O15 Sr1 2.571196 1_665
