# generated using pymatgen
data_Li2TcH9
_symmetry_space_group_name_H-M   'P 1'
_cell_length_a   8.05878329
_cell_length_b   8.05878343
_cell_length_c   4.77405558
_cell_angle_alpha   90.00000000
_cell_angle_beta   90.00000000
_cell_angle_gamma   119.99999541
_symmetry_Int_Tables_number   1
_chemical_formula_structural   Li2TcH9
_chemical_formula_sum   'Li6 Tc3 H27'
_cell_volume   268.50791027
_cell_formula_units_Z   3
loop_
 _symmetry_equiv_pos_site_id
 _symmetry_equiv_pos_as_xyz
  1  'x, y, z'
loop_
 _atom_site_type_symbol
 _atom_site_label
 _atom_site_symmetry_multiplicity
 _atom_site_fract_x
 _atom_site_fract_y
 _atom_site_fract_z
 _atom_site_occupancy
  Li  Li0  1  0.27752120  0.00000000  0.50000000  1
  Li  Li1  1  0.00000000  0.27752120  0.50000000  1
  Li  Li2  1  0.72247880  0.72247880  0.50000000  1
  Li  Li3  1  0.61729846  0.00000000  0.00000000  1
  Li  Li4  1  0.00000000  0.61729846  0.00000000  1
  Li  Li5  1  0.38270154  0.38270154  0.00000000  1
  Tc  Tc0  1  0.00000000  0.00000000  0.00000000  1
  Tc  Tc1  1  0.33333300  0.66666700  0.50000000  1
  Tc  Tc2  1  0.66666700  0.33333300  0.50000000  1
  H  H0  1  0.85194287  1.00000000  0.24710735  1
  H  H1  1  1.00000000  0.85194287  0.24710735  1
  H  H2  1  0.85194287  1.00000000  0.75289265  1
  H  H3  1  1.00000000  0.85194287  0.75289265  1
  H  H4  1  0.14805713  0.14805713  0.24710735  1
  H  H5  1  0.14805713  0.14805713  0.75289265  1
  H  H6  1  0.20439306  0.00000000  0.00000000  1
  H  H7  1  0.00000000  0.20439306  0.00000000  1
  H  H8  1  0.79560694  0.79560694  0.00000000  1
  H  H9  1  0.17559506  0.53595085  0.24999599  1
  H  H10  1  0.46404915  0.63964421  0.24999599  1
  H  H11  1  0.17559506  0.53595085  0.75000401  1
  H  H12  1  0.53595085  0.17559506  0.75000401  1
  H  H13  1  0.36035579  0.82440494  0.24999599  1
  H  H14  1  0.46404915  0.63964421  0.75000401  1
  H  H15  1  0.63964421  0.46404915  0.75000401  1
  H  H16  1  0.53595085  0.17559506  0.24999599  1
  H  H17  1  0.36035579  0.82440494  0.75000401  1
  H  H18  1  0.63964421  0.46404915  0.24999599  1
  H  H19  1  0.82440494  0.36035579  0.75000401  1
  H  H20  1  0.82440494  0.36035579  0.24999599  1
  H  H21  1  0.29656860  0.44729311  0.50000000  1
  H  H22  1  0.55270689  0.84927549  0.50000000  1
  H  H23  1  0.44729311  0.29656860  0.50000000  1
  H  H24  1  0.15072451  0.70343140  0.50000000  1
  H  H25  1  0.84927549  0.55270689  0.50000000  1
  H  H26  1  0.70343140  0.15072451  0.50000000  1
loop_
_geom_bond_atom_site_label_1
_geom_bond_atom_site_label_2
_geom_bond_distance
_geom_bond_site_symmetry_2
H0 Tc0 1.677896 1_665
H0 Li3 2.228764 1_565
H0 Li2 2.283558 1_555
H0 Li1 2.283558 1_665
H1 Tc0 1.677896 1_665
H1 Li4 2.228764 1_655
H1 Li2 2.283558 1_555
H1 Li0 2.283558 1_665
H2 Tc0 1.677896 1_666
H2 Li3 2.228764 1_566
H2 Li2 2.283558 1_555
H2 Li1 2.283558 1_665
H3 Tc0 1.677896 1_666
H3 Li4 2.228764 1_656
H3 Li2 2.283558 1_555
H3 Li0 2.283558 1_665
H4 Tc0 1.677896 1_555
H4 Li5 2.228764 1_555
H4 Li1 2.283558 1_555
H4 Li0 2.283558 1_555
H5 Tc0 1.677896 1_556
H5 Li5 2.228764 1_556
H5 Li1 2.283558 1_555
H5 Li0 2.283558 1_555
H6 Tc0 1.647159 1_555
H7 Tc0 1.647159 1_555
H8 Tc0 1.647159 1_665
H9 Tc1 1.676608 1_555
H9 Li4 2.187310 1_555
H9 Li1 2.194819 1_555
H10 Tc1 1.676612 1_555
H10 Li5 2.187310 1_555
H10 Li2 2.194819 1_555
H11 Tc1 1.676608 1_555
H11 Li4 2.187310 1_556
H11 Li1 2.194819 1_555
H12 Tc2 1.676608 1_555
H12 Li3 2.187310 1_556
H12 Li0 2.194819 1_555
H13 Tc1 1.676606 1_555
H13 Li3 2.187310 1_565
H13 Li0 2.194819 1_565
H14 Tc1 1.676612 1_555
H14 Li5 2.187310 1_556
H14 Li2 2.194819 1_555
H15 Tc2 1.676612 1_555
H15 Li5 2.187310 1_556
H15 Li2 2.194819 1_555
H16 Tc2 1.676608 1_555
H16 Li3 2.187310 1_555
H16 Li0 2.194819 1_555
H17 Tc1 1.676606 1_555
H17 Li3 2.187310 1_566
H17 Li0 2.194819 1_565
H18 Tc2 1.676612 1_555
H18 Li5 2.187310 1_555
H18 Li2 2.194819 1_555
H19 Tc2 1.676606 1_555
H19 Li4 2.187310 1_656
H19 Li1 2.194819 1_655
H20 Tc2 1.676606 1_555
H20 Li4 2.187310 1_655
H20 Li1 2.194819 1_655
H21 Tc1 1.639945 1_555
H21 Li1 2.077016 1_555
H22 Tc1 1.639942 1_555
H22 Li2 2.077016 1_555
H23 Tc2 1.639945 1_555
H23 Li0 2.077016 1_555
H24 Tc1 1.639937 1_555
H24 Li0 2.077016 1_565
H25 Tc2 1.639942 1_555
H25 Li2 2.077016 1_555
H26 Tc2 1.639937 1_555
H26 Li1 2.077016 1_655
