# generated using pymatgen
data_Mg3AlP6N13
_symmetry_space_group_name_H-M   'P 1'
_cell_length_a   6.97084307
_cell_length_b   6.97084428
_cell_length_c   6.97084361
_cell_angle_alpha   109.68691585
_cell_angle_beta   109.68691958
_cell_angle_gamma   109.68691743
_symmetry_Int_Tables_number   1
_chemical_formula_structural   Mg3AlP6N13
_chemical_formula_sum   'Mg3 Al1 P6 N13'
_cell_volume   258.65255442
_cell_formula_units_Z   1
loop_
 _symmetry_equiv_pos_site_id
 _symmetry_equiv_pos_as_xyz
  1  'x, y, z'
loop_
 _atom_site_type_symbol
 _atom_site_label
 _atom_site_symmetry_multiplicity
 _atom_site_fract_x
 _atom_site_fract_y
 _atom_site_fract_z
 _atom_site_occupancy
  Mg  Mg0  1  0.00672913  0.71916207  0.00672913  1
  Mg  Mg1  1  0.71916207  0.00672913  0.00672913  1
  Mg  Mg2  1  0.00672913  0.00672913  0.71916207  1
  Al  Al0  1  0.30526537  0.30526537  0.30526537  1
  P  P0  1  0.49490973  0.24652682  0.74587418  1
  P  P1  1  0.49490973  0.74587418  0.24652682  1
  P  P2  1  0.74587418  0.24652682  0.49490973  1
  P  P3  1  0.24652682  0.49490973  0.74587418  1
  P  P4  1  0.74587418  0.49490973  0.24652682  1
  P  P5  1  0.24652682  0.74587418  0.49490973  1
  N  N0  1  0.03759920  0.03759920  0.03759920  1
  N  N1  1  0.99779640  0.72931355  0.45690051  1
  N  N2  1  0.26066359  0.71332062  0.26066359  1
  N  N3  1  0.27710043  0.53506225  0.53506225  1
  N  N4  1  0.53506225  0.53506225  0.27710043  1
  N  N5  1  0.53506225  0.27710043  0.53506225  1
  N  N6  1  0.72931355  0.99779640  0.45690051  1
  N  N7  1  0.45690051  0.99779640  0.72931355  1
  N  N8  1  0.72931355  0.45690051  0.99779640  1
  N  N9  1  0.26066359  0.26066359  0.71332062  1
  N  N10  1  0.71332062  0.26066359  0.26066359  1
  N  N11  1  0.99779640  0.45690051  0.72931355  1
  N  N12  1  0.45690051  0.72931355  0.99779640  1
loop_
_geom_bond_atom_site_label_1
_geom_bond_atom_site_label_2
_geom_bond_distance
_geom_bond_site_symmetry_2
Mg0 N2 2.062621 1_555
Mg0 N0 2.084500 1_565
Mg0 N8 2.132127 1_454
Mg0 N11 2.132127 1_454
Mg1 N10 2.062622 1_555
Mg1 N0 2.084500 1_655
Mg1 N7 2.132127 1_544
Mg1 N12 2.132127 1_544
Mg2 N9 2.062622 1_555
Mg2 N0 2.084500 1_556
Mg2 N6 2.132127 1_445
Mg2 N1 2.132127 1_445
Al0 N0 1.845898 1_555
Al0 N5 1.966086 1_555
Al0 N4 1.966086 1_555
Al0 N3 1.966086 1_555
N1 P4 1.619096 1_555
N1 P5 1.620126 1_655
N2 P1 1.612877 1_555
N2 P5 1.612877 1_555
N3 P3 1.652652 1_555
N3 P5 1.652652 1_555
N4 P4 1.652652 1_555
N4 P1 1.652652 1_555
N5 P2 1.652652 1_555
N5 P0 1.652652 1_555
N6 P1 1.619096 1_555
N6 P2 1.620127 1_565
N7 P5 1.619096 1_555
N7 P0 1.620127 1_565
N8 P0 1.619096 1_555
N8 P4 1.620127 1_556
N9 P0 1.612877 1_555
N9 P3 1.612877 1_555
N10 P2 1.612877 1_555
N10 P4 1.612877 1_555
N11 P2 1.619096 1_555
N11 P3 1.620126 1_655
N12 P3 1.619096 1_555
N12 P1 1.620127 1_556
