# generated using pymatgen
data_Ti8Al15Co3Pt4
_symmetry_space_group_name_H-M   'P 1'
_cell_length_a   8.51494684
_cell_length_b   8.52234870
_cell_length_c   8.54274571
_cell_angle_alpha   120.11052460
_cell_angle_beta   119.87027322
_cell_angle_gamma   89.95707685
_symmetry_Int_Tables_number   1
_chemical_formula_structural   Ti8Al15Co3Pt4
_chemical_formula_sum   'Ti8 Al15 Co3 Pt4'
_cell_volume   438.64178094
_cell_formula_units_Z   1
loop_
 _symmetry_equiv_pos_site_id
 _symmetry_equiv_pos_as_xyz
  1  'x, y, z'
loop_
 _atom_site_type_symbol
 _atom_site_label
 _atom_site_symmetry_multiplicity
 _atom_site_fract_x
 _atom_site_fract_y
 _atom_site_fract_z
 _atom_site_occupancy
  Ti  Ti0  1  0.79402979  0.29137486  0.07959768  1
  Ti  Ti1  1  0.21144393  0.28982511  0.49736840  1
  Ti  Ti2  1  0.20672861  0.70720288  0.49677570  1
  Ti  Ti3  1  0.20924182  0.71204931  0.92031637  1
  Ti  Ti4  1  0.79323564  0.71425286  0.50264403  1
  Ti  Ti5  1  0.78833748  0.28786118  0.50128899  1
  Ti  Ti6  1  0.38094038  0.11716785  0.73445791  1
  Ti  Ti7  1  0.37073125  0.64391805  0.25882651  1
  Al  Al0  1  0.99786649  0.49753098  0.49997395  1
  Al  Al1  1  0.15048227  0.33384889  0.16932553  1
  Al  Al2  1  0.15424940  0.98002573  0.82526172  1
  Al  Al3  1  0.15181411  0.34570378  0.82091991  1
  Al  Al4  1  0.52761055  0.34296848  0.18575409  1
  Al  Al5  1  0.85042703  0.66323949  0.82761186  1
  Al  Al6  1  0.84720299  0.02469000  0.17777804  1
  Al  Al7  1  0.84598197  0.65409940  0.17476593  1
  Al  Al8  1  0.47550388  0.65794558  0.81679479  1
  Al  Al9  1  0.37281996  0.11447793  0.26053395  1
  Al  Al10  1  0.85467020  0.12154529  0.74336074  1
  Al  Al11  1  0.61898925  0.88226998  0.26500338  1
  Al  Al12  1  0.62859763  0.35689172  0.74114075  1
  Al  Al13  1  0.62958281  0.88329846  0.74213363  1
  Al  Al14  1  0.13976826  0.87888775  0.25326498  1
  Co  Co0  1  0.00593010  0.50353382  0.00537124  1
  Co  Co1  1  0.00066790  0.00080269  0.99935106  1
  Co  Co2  1  0.49522331  0.99699949  0.50110466  1
  Pt  Pt0  1  0.99847952  0.99941168  0.49957607  1
  Pt  Pt1  1  0.49974147  0.99940839  0.00023716  1
  Pt  Pt2  1  0.50012664  0.50008736  0.99945322  1
  Pt  Pt3  1  0.49957433  0.49867999  0.50000572  1
loop_
_geom_bond_atom_site_label_1
_geom_bond_atom_site_label_2
_geom_bond_distance
_geom_bond_site_symmetry_2
Ti0 Ti6 2.924960 1_554
Ti1 Ti6 2.902706 1_555
Ti2 Ti7 2.845955 1_555
Ti2 Ti6 2.901740 1_565
Ti3 Ti7 2.883257 1_556
Ti4 Ti7 2.987811 1_555
Al0 Ti5 2.533981 1_555
Al0 Ti1 2.537158 1_655
Al0 Ti4 2.537790 1_555
Al0 Ti3 2.540997 1_655
Al0 Ti2 2.541412 1_655
Al0 Ti0 2.541906 1_555
Al1 Co1 2.411870 1_554
Al1 Co0 2.424942 1_555
Al1 Pt3 2.539650 1_555
Al1 Al10 2.670367 1_454
Al1 Ti0 2.708638 1_455
Al1 Ti7 2.763443 1_555
Al1 Al9 2.770101 1_555
Al1 Ti1 2.805219 1_555
Al1 Ti2 2.813538 1_555
Al1 Al2 2.988984 1_544
Al2 Co1 2.371914 1_565
Al2 Pt1 2.507777 1_556
Al2 Pt0 2.512474 1_455
Al2 Al9 2.727331 1_566
Al2 Ti4 2.735663 1_455
Al2 Ti3 2.752215 1_555
Al2 Ti6 2.845728 1_565
Al2 Ti2 2.860319 1_555
Al2 Al3 3.135138 1_565
Al2 Al4 3.140637 1_566
Al3 Co0 2.378194 1_556
Al3 Pt0 2.501465 1_445
Al3 Pt2 2.518006 1_555
Al3 Ti7 2.729521 1_556
Al3 Ti5 2.740748 1_455
Al3 Ti3 2.763435 1_555
Al3 Ti6 2.851606 1_555
Al3 Ti1 2.863785 1_555
Al4 Pt3 2.467471 1_555
Al4 Pt1 2.472140 1_545
Al4 Pt2 2.479399 1_554
Al4 Ti5 2.779030 1_555
Al4 Ti4 2.788142 1_555
Al4 Ti0 2.794578 1_555
Al4 Ti6 2.808942 1_554
Al4 Ti7 2.823357 1_555
Al4 Al9 2.833346 1_555
Al5 Co1 2.442629 1_665
Al5 Co0 2.445400 1_656
Al5 Pt3 2.542537 1_555
Al5 Ti3 2.719603 1_655
Al5 Ti5 2.805639 1_555
Al5 Ti4 2.827900 1_555
Al6 Co1 2.396799 1_654
Al6 Pt1 2.510691 1_545
Al6 Pt0 2.515844 1_545
Al6 Ti1 2.750502 1_655
Al6 Ti0 2.758046 1_555
Al6 Ti5 2.842254 1_555
Al7 Co0 2.385995 1_655
Al7 Pt0 2.503939 1_555
Al7 Pt2 2.505735 1_554
Al7 Ti0 2.744960 1_555
Al7 Ti2 2.746601 1_655
Al7 Ti4 2.849917 1_555
Al8 Pt2 2.463468 1_555
Al8 Pt1 2.463743 1_556
Al8 Pt3 2.464685 1_555
Al8 Ti1 2.766548 1_555
Al8 Ti3 2.778737 1_555
Al8 Ti2 2.793873 1_555
Al9 Co2 2.498316 1_545
Al9 Co1 2.598398 1_554
Al9 Pt3 2.675118 1_555
Al9 Pt1 2.697871 1_545
Al9 Ti1 2.819100 1_555
Al9 Ti3 2.850136 1_544
Al9 Ti5 2.939726 1_555
Al10 Co2 2.503772 1_545
Al10 Co1 2.633366 1_655
Al10 Co0 2.662797 1_656
Al10 Pt0 2.698776 1_545
Al10 Al2 2.741449 1_645
Al10 Al3 2.749116 1_655
Al10 Al12 2.779359 1_555
Al10 Al13 2.785780 1_545
Al10 Ti0 2.813722 1_556
Al10 Ti4 2.884495 1_545
Al10 Al11 2.891628 1_545
Al10 Ti5 2.894957 1_555
Al11 Co2 2.504348 1_555
Al11 Pt0 2.646047 1_555
Al11 Pt2 2.661524 1_554
Al11 Pt1 2.668305 1_555
Al11 Al8 2.794210 1_554
Al11 Al7 2.843561 1_555
Al11 Al6 2.856195 1_565
Al11 Ti5 2.865218 1_565
Al11 Ti4 2.878578 1_555
Al11 Al9 2.881201 1_565
Al11 Ti7 2.895757 1_555
Al11 Ti3 2.904548 1_554
Al12 Co2 2.505410 1_545
Al12 Co0 2.632829 1_656
Al12 Pt3 2.674289 1_555
Al12 Pt2 2.693695 1_555
Al12 Al7 2.706862 1_556
Al12 Al5 2.759039 1_555
Al12 Al8 2.805393 1_555
Al12 Ti5 2.821339 1_555
Al12 Ti0 2.866648 1_556
Al12 Ti6 2.897180 1_555
Al12 Al9 2.908215 1_555
Al12 Ti1 2.953164 1_555
Al13 Co2 2.478166 1_555
Al13 Co1 2.587737 1_665
Al13 Pt3 2.677721 1_555
Al13 Pt1 2.701955 1_556
Al13 Al6 2.714909 1_566
Al13 Al5 2.754559 1_555
Al13 Al8 2.807641 1_555
Al13 Ti4 2.842974 1_555
Al13 Ti0 2.879840 1_566
Al13 Ti6 2.906162 1_565
Al13 Ti7 2.925373 1_555
Al13 Ti2 2.990725 1_555
Al14 Co2 2.477886 1_555
Al14 Co0 2.611698 1_555
Al14 Co1 2.624462 1_564
Al14 Al5 2.654799 1_454
Al14 Pt0 2.698352 1_455
Al14 Al6 2.713850 1_465
Al14 Al7 2.724853 1_455
Al14 Al9 2.780488 1_565
Al14 Ti7 2.806490 1_555
Al14 Ti3 2.842301 1_554
Al14 Ti1 2.897259 1_565
Al14 Ti6 2.908793 1_565
Al14 Ti2 2.943566 1_555
Co0 Ti7 2.544704 1_555
Co0 Ti2 3.017126 1_555
Co0 Ti0 3.036725 1_455
Co0 Ti3 3.039065 1_554
Co0 Ti5 3.077554 1_454
Co1 Ti3 3.030946 1_545
Co1 Ti0 3.031473 1_456
Co1 Ti4 3.038550 1_445
Co1 Ti1 3.045504 1_556
Co2 Ti6 2.419115 1_565
Co2 Ti7 2.456146 1_555
Pt0 Ti6 2.667315 1_665
Pt0 Ti4 3.012775 1_555
Pt0 Ti5 3.037838 1_565
Pt0 Ti2 3.053261 1_655
Pt0 Ti1 3.082528 1_665
Pt1 Ti6 2.680025 1_564
Pt1 Ti3 3.038343 1_554
Pt1 Ti5 3.062309 1_565
Pt1 Ti2 3.082024 1_554
Pt1 Ti0 3.091091 1_565
Pt2 Ti6 2.666192 1_555
Pt2 Ti7 2.707524 1_556
Pt2 Ti0 3.066592 1_556
Pt2 Ti3 3.066877 1_555
Pt2 Ti1 3.073032 1_555
Pt2 Ti4 3.080090 1_556
Pt3 Ti7 2.699231 1_555
Pt3 Ti1 3.016483 1_555
Pt3 Ti5 3.043050 1_555
Pt3 Ti2 3.057901 1_555
Pt3 Ti4 3.088287 1_555
