# generated using pymatgen
data_Cs7Rb(In2Se5)2
_symmetry_space_group_name_H-M   'P 1'
_cell_length_a   8.04186026
_cell_length_b   10.13519511
_cell_length_c   11.66788360
_cell_angle_alpha   73.50711231
_cell_angle_beta   69.78371234
_cell_angle_gamma   84.51024957
_symmetry_Int_Tables_number   1
_chemical_formula_structural   Cs7Rb(In2Se5)2
_chemical_formula_sum   'Cs7 Rb1 In4 Se10'
_cell_volume   855.69238047
_cell_formula_units_Z   1
loop_
 _symmetry_equiv_pos_site_id
 _symmetry_equiv_pos_as_xyz
  1  'x, y, z'
loop_
 _atom_site_type_symbol
 _atom_site_label
 _atom_site_symmetry_multiplicity
 _atom_site_fract_x
 _atom_site_fract_y
 _atom_site_fract_z
 _atom_site_occupancy
  Cs  Cs0  1  0.49278902  0.21333770  0.08957050  1
  Cs  Cs1  1  0.55068951  0.18121888  0.54464633  1
  Cs  Cs2  1  0.45369586  0.81419576  0.45391967  1
  Cs  Cs3  1  0.12656293  0.17657598  0.90479571  1
  Cs  Cs4  1  0.87363956  0.82150066  0.09300824  1
  Cs  Cs5  1  0.76811418  0.46568379  0.66407706  1
  Cs  Cs6  1  0.22510638  0.53099462  0.34123257  1
  Rb  Rb0  1  0.49892132  0.79041215  0.91383210  1
  In  In0  1  0.03778112  0.00494316  0.33943364  1
  In  In1  1  0.96812108  0.99040988  0.65924143  1
  In  In2  1  0.87965717  0.41589632  0.16556805  1
  In  In3  1  0.11809565  0.59048153  0.83321557  1
  Se  Se0  1  0.84184097  0.84170318  0.55632467  1
  Se  Se1  1  0.16491660  0.15360945  0.44226324  1
  Se  Se2  1  0.82122811  0.14729087  0.22628424  1
  Se  Se3  1  0.19175405  0.85639563  0.76958208  1
  Se  Se4  1  0.21160374  0.49365683  0.03879659  1
  Se  Se5  1  0.78237855  0.52355343  0.96099874  1
  Se  Se6  1  0.72125945  0.51804681  0.34769070  1
  Se  Se7  1  0.27306960  0.48068421  0.65557658  1
  Se  Se8  1  0.26435157  0.89431111  0.18139460  1
  Se  Se9  1  0.73442158  0.09509905  0.81854667  1
loop_
_geom_bond_atom_site_label_1
_geom_bond_atom_site_label_2
_geom_bond_distance
_geom_bond_site_symmetry_2
Cs0 Se2 3.454881 1_555
Cs0 Se4 3.503852 1_555
Cs0 Se9 3.559671 1_554
Cs0 Se8 3.575863 1_545
Cs0 Se5 3.723931 1_554
Cs0 Se1 3.955400 1_555
Cs1 Se6 3.616589 1_555
Cs1 Se2 3.694134 1_555
Cs1 Se1 3.747942 1_555
Cs1 Se9 3.819856 1_555
Cs1 Se7 3.848198 1_555
Cs1 Se0 3.969169 1_545
Cs1 Se3 4.211271 1_545
Cs2 Se7 3.624007 1_555
Cs2 Se3 3.680424 1_555
Cs2 Se0 3.765883 1_555
Cs2 Se6 3.769444 1_555
Cs2 Se8 3.838318 1_555
Cs2 Se1 3.958477 1_565
Cs2 Se2 4.310449 1_565
Cs3 Se7 3.547085 1_555
Cs3 Se2 3.650971 1_456
Cs3 Se9 3.847460 1_455
Cs3 Se3 3.912059 1_545
Cs3 Se8 4.055912 1_546
Cs4 Se6 3.578591 1_555
Cs4 Se3 3.695076 1_654
Cs4 Se8 3.820451 1_655
Cs4 Se2 3.961672 1_565
Cs4 Se5 3.984497 1_554
Cs4 Se9 4.004987 1_564
Cs4 Se4 4.135809 1_655
Cs5 Se9 3.666405 1_555
Cs5 Se0 3.694966 1_555
Cs5 Se5 3.714948 1_555
Cs5 Se6 3.723162 1_555
Cs5 Se7 4.003807 1_555
Cs5 Se7 4.044020 1_655
Cs6 Se8 3.612931 1_555
Cs6 Se4 3.693000 1_555
Cs6 Se1 3.695045 1_555
Cs6 Se7 3.706648 1_555
Cs6 Se6 4.005614 1_555
Cs6 Se6 4.040499 1_455
Rb0 Se3 3.361570 1_555
Rb0 Se5 3.414168 1_555
Rb0 Se8 3.439463 1_556
Rb0 Se9 3.474665 1_565
Rb0 Se4 3.608610 1_556
Rb0 Se0 4.045755 1_555
In0 Se8 2.537398 1_545
In0 Se2 2.623737 1_455
In0 Se1 2.631387 1_555
In0 Se0 2.643854 1_445
In1 Se9 2.537084 1_565
In1 Se3 2.622339 1_655
In1 Se0 2.628328 1_555
In1 Se1 2.646512 1_665
In2 Se6 2.517160 1_555
In2 Se4 2.635671 1_655
In2 Se2 2.655860 1_555
In2 Se5 2.673620 1_554
In3 Se7 2.519230 1_555
In3 Se5 2.639342 1_455
In3 Se3 2.651601 1_555
In3 Se4 2.655397 1_556
