# generated using pymatgen
data_LiZr3P2Ir3
_symmetry_space_group_name_H-M   'P 1'
_cell_length_a   6.33202111
_cell_length_b   6.33202014
_cell_length_c   3.98067285
_cell_angle_alpha   90.00000000
_cell_angle_beta   90.00000000
_cell_angle_gamma   120.00000506
_symmetry_Int_Tables_number   1
_chemical_formula_structural   LiZr3P2Ir3
_chemical_formula_sum   'Li1 Zr3 P2 Ir3'
_cell_volume   138.22027029
_cell_formula_units_Z   1
loop_
 _symmetry_equiv_pos_site_id
 _symmetry_equiv_pos_as_xyz
  1  'x, y, z'
loop_
 _atom_site_type_symbol
 _atom_site_label
 _atom_site_symmetry_multiplicity
 _atom_site_fract_x
 _atom_site_fract_y
 _atom_site_fract_z
 _atom_site_occupancy
  Li  Li0  1  0.00000000  0.00000000  0.50000000  1
  Zr  Zr0  1  0.00000000  0.41980108  0.50000000  1
  Zr  Zr1  1  0.58019892  0.58019892  0.50000000  1
  Zr  Zr2  1  0.41980108  0.00000000  0.50000000  1
  P  P0  1  0.66666700  0.33333300  0.00000000  1
  P  P1  1  0.33333300  0.66666700  0.00000000  1
  Ir  Ir0  1  1.00000000  0.75256078  0.00000000  1
  Ir  Ir1  1  0.24743922  0.24743922  0.00000000  1
  Ir  Ir2  1  0.75256078  0.00000000  0.00000000  1
loop_
_geom_bond_atom_site_label_1
_geom_bond_atom_site_label_2
_geom_bond_distance
_geom_bond_site_symmetry_2
Li0 Zr0 2.658189 1_555
Li0 Zr1 2.658189 1_445
Li0 Zr2 2.658189 1_555
P0 Zr0 2.749640 1_655
P0 Zr0 2.749640 1_654
P0 Zr2 2.749641 1_555
P0 Zr2 2.749641 1_554
P0 Zr1 2.749644 1_555
P0 Zr1 2.749644 1_554
P1 Zr2 2.749640 1_565
P1 Zr2 2.749640 1_564
P1 Zr0 2.749641 1_555
P1 Zr0 2.749641 1_554
P1 Zr1 2.749644 1_555
P1 Zr1 2.749644 1_554
Ir0 P1 2.428723 1_655
Ir0 P0 2.428727 1_555
Ir0 Li0 2.533036 1_664
Ir0 Li0 2.533036 1_665
Ir0 Zr0 2.898458 1_654
Ir0 Zr0 2.898458 1_655
Ir0 Zr2 3.052444 1_664
Ir0 Zr2 3.052444 1_665
Ir0 Zr1 3.052444 1_554
Ir0 Zr1 3.052444 1_555
Ir1 P1 2.428729 1_555
Ir1 P0 2.428729 1_555
Ir1 Li0 2.533036 1_555
Ir1 Li0 2.533036 1_554
Ir1 Zr1 2.898458 1_554
Ir1 Zr1 2.898458 1_555
Ir1 Zr2 3.052444 1_554
Ir1 Zr2 3.052444 1_555
Ir1 Zr0 3.052444 1_554
Ir1 Zr0 3.052444 1_555
Ir2 P0 2.428723 1_555
Ir2 P1 2.428727 1_545
Ir2 Li0 2.533036 1_655
Ir2 Li0 2.533036 1_654
Ir2 Zr2 2.898459 1_554
Ir2 Zr2 2.898459 1_555
Ir2 Zr0 3.052444 1_654
Ir2 Zr0 3.052444 1_655
Ir2 Zr1 3.052444 1_544
Ir2 Zr1 3.052444 1_545
