# generated using pymatgen
data_Hf6TiSi6Tc5
_symmetry_space_group_name_H-M   'P 1'
_cell_length_a   7.74001654
_cell_length_b   7.74065516
_cell_length_c   7.73973132
_cell_angle_alpha   126.59411359
_cell_angle_beta   127.86597916
_cell_angle_gamma   77.88495486
_symmetry_Int_Tables_number   1
_chemical_formula_structural   Hf6TiSi6Tc5
_chemical_formula_sum   'Hf6 Ti1 Si6 Tc5'
_cell_volume   284.86674671
_cell_formula_units_Z   1
loop_
 _symmetry_equiv_pos_site_id
 _symmetry_equiv_pos_as_xyz
  1  'x, y, z'
loop_
 _atom_site_type_symbol
 _atom_site_label
 _atom_site_symmetry_multiplicity
 _atom_site_fract_x
 _atom_site_fract_y
 _atom_site_fract_z
 _atom_site_occupancy
  Hf  Hf0  1  0.54652283  0.09458123  0.04463699  1
  Hf  Hf1  1  0.45332790  0.49809508  0.54792284  1
  Hf  Hf2  1  0.94991988  0.49802242  0.04432967  1
  Hf  Hf3  1  0.04995445  0.09438573  0.54794879  1
  Hf  Hf4  1  0.74778025  0.89595015  0.64364307  1
  Hf  Hf5  1  0.25230665  0.89584649  0.14820229  1
  Ti  Ti0  1  0.00001437  0.23966419  0.23973272  1
  Si  Si0  1  0.33363999  0.83186653  0.49815464  1
  Si  Si1  1  0.66608851  0.16454712  0.49794470  1
  Si  Si2  1  0.83275082  0.82875751  0.99600755  1
  Si  Si3  1  0.16722159  0.16326178  0.99599232  1
  Si  Si4  1  0.74520226  0.50035235  0.24547895  1
  Si  Si5  1  0.25494279  0.50034696  0.75535019  1
  Tc  Tc0  1  0.12767356  0.74867132  0.62125561  1
  Tc  Tc1  1  0.87252555  0.49362464  0.62117335  1
  Tc  Tc2  1  0.62759051  0.75366709  0.12622632  1
  Tc  Tc3  1  0.37255213  0.49854664  0.12620576  1
  Tc  Tc4  1  0.49998597  0.24381378  0.74379423  1
loop_
_geom_bond_atom_site_label_1
_geom_bond_atom_site_label_2
_geom_bond_distance
_geom_bond_site_symmetry_2
Hf0 Si3 2.696271 1_554
Hf0 Si0 2.708470 1_544
Hf0 Si1 2.723615 1_555
Hf0 Si2 2.733211 1_544
Hf0 Si4 2.813924 1_555
Hf0 Tc0 2.925428 1_544
Hf0 Tc2 2.926029 1_545
Hf0 Tc1 2.972384 1_555
Hf0 Tc4 2.981346 1_554
Hf0 Tc3 2.985314 1_555
Hf0 Ti0 2.997963 1_655
Hf1 Si2 2.696592 1_555
Hf1 Si1 2.708164 1_555
Hf1 Si0 2.724967 1_555
Hf1 Si3 2.732223 1_554
Hf1 Si5 2.813749 1_555
Hf1 Tc3 2.924371 1_555
Hf1 Tc1 2.927127 1_555
Hf1 Tc0 2.971383 1_555
Hf1 Tc4 2.981627 1_555
Hf1 Tc2 2.986319 1_556
Hf1 Ti0 2.997452 1_555
Hf2 Si2 2.695760 1_554
Hf2 Si1 2.707954 1_554
Hf2 Si0 2.725620 1_655
Hf2 Si3 2.733259 1_654
Hf2 Si4 2.813838 1_555
Hf2 Tc1 2.924640 1_554
Hf2 Tc3 2.925732 1_655
Hf2 Tc0 2.974064 1_655
Hf2 Tc4 2.980791 1_554
Hf2 Tc2 2.985870 1_555
Hf2 Ti0 2.999630 1_655
Hf3 Si3 2.695945 1_555
Hf3 Si0 2.707639 1_545
Hf3 Si1 2.726536 1_455
Hf3 Si2 2.732191 1_444
Hf3 Si5 2.814382 1_555
Hf3 Tc2 2.924482 1_445
Hf3 Tc0 2.925855 1_545
Hf3 Tc1 2.973782 1_455
Hf3 Tc4 2.981201 1_555
Hf3 Tc3 2.986394 1_556
Hf3 Ti0 2.998115 1_555
Hf4 Si0 2.712804 1_555
Hf4 Si1 2.713372 1_565
Hf4 Si3 2.735176 1_665
Hf4 Si2 2.736136 1_555
Hf4 Si4 2.751925 1_555
Hf4 Ti0 2.943312 1_666
Hf4 Tc4 2.949350 1_565
Hf4 Tc2 2.951895 1_555
Hf4 Tc3 2.952827 1_555
Hf4 Tc0 2.993063 1_655
Hf4 Tc1 2.993221 1_555
Hf5 Si1 2.711295 1_565
Hf5 Si0 2.711639 1_555
Hf5 Si2 2.735908 1_454
Hf5 Si3 2.736628 1_564
Hf5 Si5 2.751253 1_554
Hf5 Ti0 2.943963 1_565
Hf5 Tc4 2.948652 1_565
Hf5 Tc2 2.952785 1_555
Hf5 Tc3 2.953283 1_555
Hf5 Tc1 2.992124 1_454
Hf5 Tc0 2.992275 1_554
Si0 Tc0 2.625075 1_555
Si0 Tc3 2.630117 1_555
Si0 Tc4 2.632583 1_565
Si1 Tc1 2.625314 1_555
Si1 Tc2 2.630031 1_545
Si1 Tc4 2.632504 1_555
Si2 Tc2 2.631694 1_556
Si2 Ti0 2.632101 1_666
Si2 Tc1 2.651230 1_555
Si3 Tc3 2.631282 1_556
Si3 Ti0 2.632347 1_556
Si3 Tc0 2.651341 1_545
Si4 Tc2 2.429505 1_555
Si4 Tc3 2.429913 1_555
Si4 Tc4 2.442160 1_554
Si4 Tc1 2.463773 1_555
Si4 Tc0 2.463829 1_655
Si4 Ti0 2.508748 1_655
Si5 Tc3 2.429472 1_556
Si5 Tc2 2.429594 1_556
Si5 Tc4 2.442130 1_555
Si5 Tc1 2.463521 1_455
Si5 Tc0 2.463943 1_555
Si5 Ti0 2.508860 1_555
Tc0 Ti0 3.066014 1_555
Tc1 Ti0 3.065366 1_655
