# generated using pymatgen
data_LuMgSi2Pd
_symmetry_space_group_name_H-M   'P 1'
_cell_length_a   6.13885317
_cell_length_b   6.13885350
_cell_length_c   6.13885412
_cell_angle_alpha   142.22219852
_cell_angle_beta   142.22219953
_cell_angle_gamma   54.49423332
_symmetry_Int_Tables_number   1
_chemical_formula_structural   LuMgSi2Pd
_chemical_formula_sum   'Lu1 Mg1 Si2 Pd1'
_cell_volume   86.22241752
_cell_formula_units_Z   1
loop_
 _symmetry_equiv_pos_site_id
 _symmetry_equiv_pos_as_xyz
  1  'x, y, z'
loop_
 _atom_site_type_symbol
 _atom_site_label
 _atom_site_symmetry_multiplicity
 _atom_site_fract_x
 _atom_site_fract_y
 _atom_site_fract_z
 _atom_site_occupancy
  Lu  Lu0  1  0.00000000  0.00000000  0.00000000  1
  Mg  Mg0  1  0.25000000  0.75000000  0.50000000  1
  Si  Si0  1  0.60406541  0.60406541  1.00000000  1
  Si  Si1  1  0.39593459  0.39593459  0.00000000  1
  Pd  Pd0  1  0.75000000  0.25000000  0.50000000  1
loop_
_geom_bond_atom_site_label_1
_geom_bond_atom_site_label_2
_geom_bond_distance
_geom_bond_site_symmetry_2
Lu0 Si0 3.031413 1_544
Lu0 Si1 3.031413 1_455
Lu0 Si0 3.031414 1_454
Lu0 Si1 3.031414 1_545
Lu0 Si0 3.031414 1_555
Lu0 Si1 3.031414 1_444
Lu0 Si1 3.031414 1_556
Lu0 Si0 3.031414 1_443
Mg0 Si0 2.546961 1_454
Mg0 Si1 2.546962 1_566
Mg0 Si1 2.546962 1_555
Mg0 Si0 2.546962 1_555
Mg0 Pd0 2.810546 1_465
Mg0 Pd0 2.810546 1_555
Mg0 Pd0 2.810547 1_566
Mg0 Pd0 2.810547 1_454
Si0 Si1 2.271826 1_556
Pd0 Si1 2.546961 1_656
Pd0 Si0 2.546962 1_544
Pd0 Si0 2.546962 1_555
Pd0 Si1 2.546962 1_555
