# generated using pymatgen
data_La(NO2)3
_symmetry_space_group_name_H-M   'P 1'
_cell_length_a   6.23070719
_cell_length_b   6.23070719
_cell_length_c   6.23070647
_cell_angle_alpha   114.82629155
_cell_angle_beta   114.82629155
_cell_angle_gamma   114.82628240
_symmetry_Int_Tables_number   1
_chemical_formula_structural   La(NO2)3
_chemical_formula_sum   'La1 N3 O6'
_cell_volume   137.49174538
_cell_formula_units_Z   1
loop_
 _symmetry_equiv_pos_site_id
 _symmetry_equiv_pos_as_xyz
  1  'x, y, z'
loop_
 _atom_site_type_symbol
 _atom_site_label
 _atom_site_symmetry_multiplicity
 _atom_site_fract_x
 _atom_site_fract_y
 _atom_site_fract_z
 _atom_site_occupancy
  La  La0  1  0.28084700  0.28084700  0.28084700  1
  N  N0  1  0.87492500  0.87492500  0.41345900  1
  N  N1  1  0.41345900  0.87492500  0.87492500  1
  N  N2  1  0.87492500  0.41345900  0.87492500  1
  O  O0  1  0.57674100  0.15500600  0.15500600  1
  O  O1  1  0.15500600  0.15500600  0.57674100  1
  O  O2  1  0.60800600  0.86104200  0.86104200  1
  O  O3  1  0.86104200  0.86104200  0.60800600  1
  O  O4  1  0.86104200  0.60800600  0.86104200  1
  O  O5  1  0.15500600  0.57674100  0.15500600  1
loop_
_geom_bond_atom_site_label_1
_geom_bond_atom_site_label_2
_geom_bond_distance
_geom_bond_site_symmetry_2
La0 O1 2.557349 1_555
La0 O0 2.557349 1_555
La0 O5 2.557349 1_555
La0 O4 2.634763 1_555
La0 O2 2.634763 1_555
La0 O3 2.634763 1_555
La0 O3 2.664002 1_444
La0 O2 2.664002 1_444
La0 O4 2.664002 1_444
N0 O1 1.259655 1_665
N0 O3 1.286128 1_555
N1 O0 1.259655 1_566
N1 O2 1.286128 1_555
N2 O5 1.259655 1_656
N2 O4 1.286128 1_555
