# generated using pymatgen
data_SiNi
_symmetry_space_group_name_H-M   'P 1'
_cell_length_a   3.32129709
_cell_length_b   5.14153507
_cell_length_c   5.56977526
_cell_angle_alpha   90.00000000
_cell_angle_beta   90.00000000
_cell_angle_gamma   90.00000000
_symmetry_Int_Tables_number   1
_chemical_formula_structural   SiNi
_chemical_formula_sum   'Si4 Ni4'
_cell_volume   95.11263186
_cell_formula_units_Z   4
loop_
 _symmetry_equiv_pos_site_id
 _symmetry_equiv_pos_as_xyz
  1  'x, y, z'
loop_
 _atom_site_type_symbol
 _atom_site_label
 _atom_site_symmetry_multiplicity
 _atom_site_fract_x
 _atom_site_fract_y
 _atom_site_fract_z
 _atom_site_occupancy
  Si  Si0  1  0.75000000  0.82108937  0.41767557  1
  Si  Si1  1  0.25000000  0.17891063  0.58232443  1
  Si  Si2  1  0.75000000  0.32108937  0.08232443  1
  Si  Si3  1  0.25000000  0.67891063  0.91767557  1
  Ni  Ni0  1  0.25000000  0.50794985  0.31147944  1
  Ni  Ni1  1  0.75000000  0.49205015  0.68852056  1
  Ni  Ni2  1  0.25000000  0.00794985  0.18852056  1
  Ni  Ni3  1  0.75000000  0.99205015  0.81147944  1
loop_
_geom_bond_atom_site_label_1
_geom_bond_atom_site_label_2
_geom_bond_distance
_geom_bond_site_symmetry_2
Si0 Si1 2.642618 1_665
Si0 Si1 2.642618 1_565
Si2 Si3 2.642618 1_654
Si2 Si3 2.642618 1_554
Ni0 Si1 2.266668 1_555
Ni0 Si2 2.304309 1_555
Ni0 Si2 2.304309 1_455
Ni0 Si3 2.362973 1_554
Ni0 Si0 2.387419 1_455
Ni0 Si0 2.387419 1_555
Ni1 Si0 2.266668 1_555
Ni1 Si3 2.304309 1_655
Ni1 Si3 2.304309 1_555
Ni1 Si2 2.362973 1_556
Ni1 Si1 2.387419 1_555
Ni1 Si1 2.387419 1_655
Ni2 Si3 2.266668 1_544
Ni2 Si0 2.304309 1_445
Ni2 Si0 2.304309 1_545
Ni2 Si1 2.362973 1_555
Ni2 Si2 2.387419 1_455
Ni2 Si2 2.387419 1_555
Ni3 Si2 2.266668 1_566
Ni3 Si1 2.304309 1_565
Ni3 Si1 2.304309 1_665
Ni3 Si0 2.362973 1_555
Ni3 Si3 2.387419 1_655
Ni3 Si3 2.387419 1_555
