# generated using pymatgen
data_SrNi5GeP2
_symmetry_space_group_name_H-M   'P 1'
_cell_length_a   6.15465577
_cell_length_b   6.15465673
_cell_length_c   11.60677763
_cell_angle_alpha   90.00000000
_cell_angle_beta   90.00000000
_cell_angle_gamma   145.24067190
_symmetry_Int_Tables_number   1
_chemical_formula_structural   SrNi5GeP2
_chemical_formula_sum   'Sr2 Ni10 Ge2 P4'
_cell_volume   250.66492055
_cell_formula_units_Z   2
loop_
 _symmetry_equiv_pos_site_id
 _symmetry_equiv_pos_as_xyz
  1  'x, y, z'
loop_
 _atom_site_type_symbol
 _atom_site_label
 _atom_site_symmetry_multiplicity
 _atom_site_fract_x
 _atom_site_fract_y
 _atom_site_fract_z
 _atom_site_occupancy
  Sr  Sr0  1  0.16139673  0.83860327  0.25000000  1
  Sr  Sr1  1  0.83860327  0.16139673  0.75000000  1
  Ni  Ni0  1  0.45413036  0.54586964  0.35927550  1
  Ni  Ni1  1  0.45413036  0.54586964  0.14072450  1
  Ni  Ni2  1  0.80169634  0.19830366  0.05891111  1
  Ni  Ni3  1  0.19830366  0.80169634  0.94108889  1
  Ni  Ni4  1  0.19830366  0.80169634  0.55891111  1
  Ni  Ni5  1  0.80169634  0.19830366  0.44108889  1
  Ni  Ni6  1  0.00000000  0.00000000  0.50000000  1
  Ni  Ni7  1  0.00000000  0.00000000  0.00000000  1
  Ni  Ni8  1  0.54586964  0.45413036  0.85927550  1
  Ni  Ni9  1  0.54586964  0.45413036  0.64072450  1
  Ge  Ge0  1  0.88761668  0.11238332  0.25000000  1
  Ge  Ge1  1  0.11238332  0.88761668  0.75000000  1
  P  P0  1  0.38144901  0.61855099  0.96452969  1
  P  P1  1  0.61855099  0.38144901  0.03547031  1
  P  P2  1  0.61855099  0.38144901  0.46452969  1
  P  P3  1  0.38144901  0.61855099  0.53547031  1
loop_
_geom_bond_atom_site_label_1
_geom_bond_atom_site_label_2
_geom_bond_distance
_geom_bond_site_symmetry_2
Ni0 P3 2.216132 1_555
Ni0 P2 2.285427 1_555
Ni0 Sr0 3.304061 1_655
Ni0 Sr0 3.304062 1_545
Ni1 P0 2.216132 1_554
Ni1 P1 2.285427 1_555
Ni1 Sr0 3.304061 1_655
Ni1 Sr0 3.304062 1_545
Ni2 P1 2.168607 1_555
Ni2 P0 2.336137 1_654
Ni2 P0 2.336137 1_544
Ni2 Sr0 3.318936 1_545
Ni2 Sr0 3.318936 1_655
Ni3 P0 2.168607 1_555
Ni3 P1 2.336137 1_456
Ni3 P1 2.336137 1_566
Ni3 Sr1 3.318936 1_565
Ni3 Sr1 3.318936 1_455
Ni4 P3 2.168607 1_555
Ni4 P2 2.336137 1_455
Ni4 P2 2.336137 1_565
Ni4 Sr1 3.318936 1_565
Ni4 Sr1 3.318936 1_455
Ni5 P2 2.168607 1_555
Ni5 P3 2.336137 1_655
Ni5 P3 2.336137 1_545
Ni5 Sr0 3.318936 1_545
Ni5 Sr0 3.318936 1_655
Ni6 P2 2.342806 1_555
Ni6 P3 2.342806 1_445
Ni6 P3 2.342807 1_555
Ni6 P2 2.342807 1_445
Ni7 P1 2.342806 1_555
Ni7 P0 2.342806 1_444
Ni7 P0 2.342807 1_554
Ni7 P1 2.342807 1_445
Ni8 P1 2.216132 1_556
Ni8 P0 2.285427 1_555
Ni8 Sr1 3.304061 1_455
Ni8 Sr1 3.304062 1_565
Ni9 P2 2.216132 1_555
Ni9 P3 2.285427 1_555
Ni9 Sr1 3.304061 1_455
Ni9 Sr1 3.304062 1_565
Ge0 Ni0 2.366209 1_655
Ge0 Ni1 2.366209 1_655
Ge0 Ni0 2.366209 1_545
Ge0 Ni1 2.366209 1_545
Ge0 Ni5 2.436792 1_555
Ge0 Ni2 2.436792 1_555
Ge0 Sr0 3.216189 1_645
Ge0 Sr0 3.231403 1_545
Ge0 Sr0 3.231404 1_655
Ge1 Ni8 2.366209 1_455
Ge1 Ni9 2.366209 1_455
Ge1 Ni8 2.366209 1_565
Ge1 Ni9 2.366209 1_565
Ge1 Ni3 2.436792 1_555
Ge1 Ni4 2.436792 1_555
Ge1 Sr1 3.216189 1_465
Ge1 Sr1 3.231403 1_565
Ge1 Sr1 3.231404 1_455
P0 Sr1 3.135789 1_455
P0 Sr1 3.135789 1_565
P1 Sr0 3.135789 1_655
P1 Sr0 3.135789 1_545
P2 Sr0 3.135789 1_655
P2 Sr0 3.135789 1_545
P3 Sr1 3.135789 1_455
P3 Sr1 3.135789 1_565
