# generated using pymatgen
data_NaTaO3
_symmetry_space_group_name_H-M   'P 1'
_cell_length_a   5.45388623
_cell_length_b   5.51999928
_cell_length_c   7.77470694
_cell_angle_alpha   90.00000000
_cell_angle_beta   90.00000000
_cell_angle_gamma   90.00000000
_symmetry_Int_Tables_number   1
_chemical_formula_structural   NaTaO3
_chemical_formula_sum   'Na4 Ta4 O12'
_cell_volume   234.06103599
_cell_formula_units_Z   4
loop_
 _symmetry_equiv_pos_site_id
 _symmetry_equiv_pos_as_xyz
  1  'x, y, z'
loop_
 _atom_site_type_symbol
 _atom_site_label
 _atom_site_symmetry_multiplicity
 _atom_site_fract_x
 _atom_site_fract_y
 _atom_site_fract_z
 _atom_site_occupancy
  Na  Na0  1  0.99508298  0.97516632  0.75000000  1
  Na  Na1  1  0.00491702  0.02483368  0.25000000  1
  Na  Na2  1  0.50491702  0.47516632  0.75000000  1
  Na  Na3  1  0.49508298  0.52483368  0.25000000  1
  Ta  Ta0  1  0.50000000  0.00000000  0.50000000  1
  Ta  Ta1  1  0.50000000  0.00000000  0.00000000  1
  Ta  Ta2  1  0.00000000  0.50000000  0.50000000  1
  Ta  Ta3  1  0.00000000  0.50000000  0.00000000  1
  O  O0  1  0.20971814  0.78914525  0.46390975  1
  O  O1  1  0.79028186  0.21085475  0.96390975  1
  O  O2  1  0.29028186  0.28914525  0.46390975  1
  O  O3  1  0.70971814  0.71085475  0.96390975  1
  O  O4  1  0.20971814  0.78914525  0.03609025  1
  O  O5  1  0.79028186  0.21085475  0.53609025  1
  O  O6  1  0.29028186  0.28914525  0.03609025  1
  O  O7  1  0.70971814  0.71085475  0.53609025  1
  O  O8  1  0.07063552  0.51470510  0.75000000  1
  O  O9  1  0.92936448  0.48529490  0.25000000  1
  O  O10  1  0.42936448  0.01470510  0.75000000  1
  O  O11  1  0.57063552  0.98529490  0.25000000  1
loop_
_geom_bond_atom_site_label_1
_geom_bond_atom_site_label_2
_geom_bond_distance
_geom_bond_site_symmetry_2
Na0 O10 2.378556 1_665
Na0 O5 2.388736 1_565
Na0 O1 2.388736 1_565
Na0 O8 2.574929 1_655
Na0 O7 2.704949 1_555
Na0 O3 2.704949 1_555
Na0 O0 2.715153 1_655
Na0 O4 2.715153 1_656
Na1 O11 2.378556 1_445
Na1 O4 2.388736 1_545
Na1 O0 2.388736 1_545
Na1 O9 2.574929 1_455
Na1 O2 2.704949 1_555
Na1 O6 2.704949 1_555
Na1 O5 2.715153 1_455
Na1 O1 2.715153 1_454
Na2 O8 2.378556 1_555
Na2 O7 2.388736 1_555
Na2 O3 2.388736 1_555
Na2 O10 2.574929 1_555
Na2 O1 2.704949 1_555
Na2 O5 2.704949 1_555
Na2 O2 2.715153 1_555
Na2 O6 2.715153 1_556
Na3 O9 2.378556 1_555
Na3 O2 2.388736 1_555
Na3 O6 2.388736 1_555
Na3 O11 2.574929 1_555
Na3 O0 2.704949 1_555
Na3 O4 2.704949 1_555
Na3 O3 2.715153 1_554
Na3 O7 2.715153 1_555
O0 Ta2 1.983542 1_555
O0 Ta0 1.984904 1_565
O1 Ta3 1.983542 1_656
O1 Ta1 1.984904 1_556
O2 Ta0 1.983542 1_555
O2 Ta2 1.984904 1_555
O3 Ta1 1.983542 1_566
O3 Ta3 1.984904 1_656
O4 Ta3 1.983542 1_555
O4 Ta1 1.984904 1_565
O5 Ta2 1.983542 1_655
O5 Ta0 1.984904 1_555
O6 Ta1 1.983542 1_555
O6 Ta3 1.984904 1_555
O7 Ta0 1.983542 1_565
O7 Ta2 1.984904 1_655
O8 Ta2 1.983148 1_555
O8 Ta3 1.983148 1_556
O9 Ta3 1.983148 1_655
O9 Ta2 1.983148 1_655
O10 Ta0 1.983148 1_555
O10 Ta1 1.983148 1_556
O11 Ta0 1.983148 1_565
O11 Ta1 1.983148 1_565
