# generated using pymatgen
data_Rb2AuBrF6
_symmetry_space_group_name_H-M   'P 1'
_cell_length_a   7.26307471
_cell_length_b   7.12858516
_cell_length_c   8.82040409
_cell_angle_alpha   89.99614951
_cell_angle_beta   90.99091853
_cell_angle_gamma   89.99871065
_symmetry_Int_Tables_number   1
_chemical_formula_structural   Rb2AuBrF6
_chemical_formula_sum   'Rb4 Au2 Br2 F12'
_cell_volume   456.61206272
_cell_formula_units_Z   2
loop_
 _symmetry_equiv_pos_site_id
 _symmetry_equiv_pos_as_xyz
  1  'x, y, z'
loop_
 _atom_site_type_symbol
 _atom_site_label
 _atom_site_symmetry_multiplicity
 _atom_site_fract_x
 _atom_site_fract_y
 _atom_site_fract_z
 _atom_site_occupancy
  Rb  Rb0  1  0.03369388  0.47149899  0.24740938  1
  Rb  Rb1  1  0.46631434  0.97146692  0.25260351  1
  Rb  Rb2  1  0.53379075  0.02850864  0.74743908  1
  Rb  Rb3  1  0.96627090  0.52849684  0.75255404  1
  Au  Au0  1  0.49984942  0.49999885  0.00009812  1
  Au  Au1  1  0.00009667  0.00006942  0.49996400  1
  Br  Br0  1  0.99999978  0.99999666  0.99998975  1
  Br  Br1  1  0.50000942  0.49998301  0.50000589  1
  F  F0  1  0.76435240  0.52659642  0.02616033  1
  F  F1  1  0.52327014  0.23030480  0.02289763  1
  F  F2  1  0.10456309  0.09035744  0.19593732  1
  F  F3  1  0.39546364  0.59034252  0.30399974  1
  F  F4  1  0.97661346  0.73037531  0.47708205  1
  F  F5  1  0.73562242  0.02678109  0.47383545  1
  F  F6  1  0.26451843  0.97336831  0.52613345  1
  F  F7  1  0.02353857  0.26967882  0.52285838  1
  F  F8  1  0.60462043  0.40957049  0.69592225  1
  F  F9  1  0.89545285  0.90952900  0.80403033  1
  F  F10  1  0.47651999  0.76964827  0.97716858  1
  F  F11  1  0.23543741  0.47342817  0.97391372  1
loop_
_geom_bond_atom_site_label_1
_geom_bond_atom_site_label_2
_geom_bond_distance
_geom_bond_site_symmetry_2
Au0 F11 1.939589 1_554
Au0 F10 1.939920 1_554
Au0 F0 1.940151 1_555
Au0 F1 1.940174 1_555
Au1 F7 1.939710 1_555
Au1 F6 1.939725 1_545
Au1 F5 1.940072 1_455
Au1 F4 1.940323 1_445
Br0 F2 1.983333 1_666
Br0 F9 1.983627 1_555
Br1 F8 1.983255 1_555
Br1 F3 1.983643 1_555
F0 Rb0 2.767194 1_655
F0 Rb3 2.845605 1_554
F1 Rb1 2.776562 1_545
F1 Rb2 2.825826 1_554
F2 Rb1 2.797481 1_545
F2 Rb0 2.803808 1_555
F3 Rb0 2.797453 1_555
F3 Rb1 2.803518 1_555
F4 Rb0 2.776844 1_655
F4 Rb3 2.826009 1_555
F5 Rb1 2.767191 1_545
F5 Rb2 2.845246 1_555
F6 Rb2 2.767284 1_565
F6 Rb1 2.844557 1_555
F7 Rb3 2.776937 1_455
F7 Rb0 2.825567 1_555
F8 Rb3 2.796880 1_555
F8 Rb2 2.803233 1_555
F9 Rb2 2.796960 1_565
F9 Rb3 2.802989 1_555
F10 Rb2 2.777191 1_565
F10 Rb1 2.825634 1_556
F11 Rb3 2.766959 1_455
F11 Rb0 2.844096 1_556
