# generated using pymatgen
data_Ti13Al9(FeIr3)2
_symmetry_space_group_name_H-M   'P 1'
_cell_length_a   8.65396140
_cell_length_b   8.65396094
_cell_length_c   8.65396123
_cell_angle_alpha   59.76471526
_cell_angle_beta   59.76471784
_cell_angle_gamma   59.76472102
_symmetry_Int_Tables_number   1
_chemical_formula_structural   Ti13Al9(FeIr3)2
_chemical_formula_sum   'Ti13 Al9 Fe2 Ir6'
_cell_volume   455.83061883
_cell_formula_units_Z   1
loop_
 _symmetry_equiv_pos_site_id
 _symmetry_equiv_pos_as_xyz
  1  'x, y, z'
loop_
 _atom_site_type_symbol
 _atom_site_label
 _atom_site_symmetry_multiplicity
 _atom_site_fract_x
 _atom_site_fract_y
 _atom_site_fract_z
 _atom_site_occupancy
  Ti  Ti0  1  0.20489239  0.20489239  0.79588962  1
  Ti  Ti1  1  0.79588962  0.20489239  0.20489239  1
  Ti  Ti2  1  0.20489239  0.79588962  0.20489239  1
  Ti  Ti3  1  0.80492896  0.80492896  0.17719574  1
  Ti  Ti4  1  0.17719574  0.80492896  0.80492896  1
  Ti  Ti5  1  0.80492896  0.17719574  0.80492896  1
  Ti  Ti6  1  0.38200956  0.38200956  0.38200956  1
  Ti  Ti7  1  0.38326499  0.85539031  0.38326499  1
  Ti  Ti8  1  0.85539031  0.38326499  0.38326499  1
  Ti  Ti9  1  0.38326499  0.38326499  0.85539031  1
  Ti  Ti10  1  0.84562015  0.46716170  0.84562015  1
  Ti  Ti11  1  0.46716170  0.84562015  0.84562015  1
  Ti  Ti12  1  0.84562015  0.84562015  0.46716170  1
  Al  Al0  1  0.15608131  0.15608131  0.15608131  1
  Al  Al1  1  0.16068752  0.52402314  0.16068752  1
  Al  Al2  1  0.52402314  0.16068752  0.16068752  1
  Al  Al3  1  0.16068752  0.16068752  0.52402314  1
  Al  Al4  1  0.61796289  0.61796289  0.61796289  1
  Al  Al5  1  0.61771191  0.14961329  0.61771191  1
  Al  Al6  1  0.14961329  0.61771191  0.61771191  1
  Al  Al7  1  0.61771191  0.61771191  0.14961329  1
  Al  Al8  1  0.82803449  0.82803449  0.82803449  1
  Fe  Fe0  1  0.50095483  0.50095483  0.50095483  1
  Fe  Fe1  1  0.00289905  0.00289905  0.00289905  1
  Ir  Ir0  1  0.00382606  0.00382606  0.49965092  1
  Ir  Ir1  1  0.49965092  0.00382606  0.00382606  1
  Ir  Ir2  1  0.00382606  0.49965092  0.00382606  1
  Ir  Ir3  1  0.49988725  0.49988725  0.00149467  1
  Ir  Ir4  1  0.00149467  0.49988725  0.49988725  1
  Ir  Ir5  1  0.49988725  0.00149467  0.49988725  1
loop_
_geom_bond_atom_site_label_1
_geom_bond_atom_site_label_2
_geom_bond_distance
_geom_bond_site_symmetry_2
Ti0 Ti11 2.744563 1_545
Ti0 Ti10 2.744563 1_455
Ti0 Ti6 2.972468 1_555
Ti0 Ti9 3.005232 1_555
Ti1 Ti12 2.744563 1_545
Ti1 Ti10 2.744563 1_554
Ti1 Ti6 2.972469 1_555
Ti1 Ti8 3.005232 1_555
Ti2 Ti6 2.972468 1_555
Ti2 Ti7 3.005232 1_555
Ti3 Ti8 3.051618 1_555
Ti3 Ti7 3.051618 1_555
Ti4 Ti7 3.051618 1_555
Ti4 Ti9 3.051618 1_555
Ti5 Ti8 3.051618 1_555
Ti5 Ti9 3.051618 1_555
Ti10 Ti5 2.906818 1_555
Ti11 Ti2 2.744563 1_556
Ti11 Ti4 2.906818 1_555
Ti12 Ti2 2.744563 1_655
Ti12 Ti3 2.906818 1_555
Al0 Ir0 2.483942 1_555
Al0 Ir2 2.483942 1_555
Al0 Ir1 2.483943 1_555
Al0 Ti2 2.756936 1_545
Al0 Ti0 2.756936 1_554
Al0 Ti1 2.756936 1_455
Al0 Ti9 2.844301 1_554
Al0 Ti7 2.844301 1_545
Al0 Ti8 2.844301 1_455
Al1 Ir4 2.481501 1_555
Al1 Ir3 2.481501 1_555
Al1 Ir2 2.482432 1_555
Al1 Ti4 2.788882 1_554
Al1 Ti3 2.788882 1_455
Al1 Ti2 2.790736 1_555
Al1 Ti6 2.792940 1_555
Al1 Ti8 2.815547 1_455
Al1 Ti9 2.815547 1_554
Al2 Ir3 2.481501 1_555
Al2 Ir5 2.481501 1_555
Al2 Ir1 2.482432 1_555
Al2 Ti5 2.788882 1_554
Al2 Ti3 2.788882 1_545
Al2 Ti1 2.790737 1_555
Al2 Ti6 2.792940 1_555
Al2 Ti7 2.815546 1_545
Al2 Ti9 2.815547 1_554
Al3 Ir4 2.481501 1_555
Al3 Ir5 2.481501 1_555
Al3 Ir0 2.482432 1_555
Al3 Ti4 2.788882 1_545
Al3 Ti5 2.788882 1_455
Al3 Ti0 2.790737 1_555
Al3 Ti6 2.792940 1_555
Al3 Ti7 2.815547 1_545
Al3 Ti8 2.815547 1_455
Al4 Fe0 2.484713 1_555
Al4 Ir5 2.706440 1_565
Al4 Ir3 2.706440 1_556
Al4 Ir4 2.706440 1_655
Al4 Ti12 2.862917 1_555
Al4 Ti11 2.862917 1_555
Al4 Ti10 2.862917 1_555
Al4 Ti9 2.867234 1_555
Al4 Ti7 2.867234 1_555
Al4 Ti8 2.867234 1_555
Al4 Ti3 3.160830 1_555
Al4 Ti5 3.160830 1_555
Al4 Ti4 3.160830 1_555
Al5 Fe0 2.475219 1_555
Al5 Ir5 2.720673 1_555
Al5 Ir1 2.723060 1_556
Al5 Ir0 2.723060 1_655
Al5 Al8 2.739391 1_545
Al5 Ti11 2.854241 1_545
Al5 Ti12 2.854241 1_545
Al5 Ti8 2.879196 1_555
Al5 Ti9 2.879196 1_555
Al5 Ti6 2.879813 1_555
Al5 Ti5 2.954560 1_555
Al5 Ti1 2.973770 1_555
Al5 Ti0 2.973770 1_555
Al6 Fe0 2.475219 1_555
Al6 Ir4 2.720673 1_555
Al6 Ir2 2.723060 1_556
Al6 Ir0 2.723060 1_565
Al6 Al8 2.739391 1_455
Al6 Ti10 2.854241 1_455
Al6 Ti12 2.854241 1_455
Al6 Ti7 2.879196 1_555
Al6 Ti9 2.879196 1_555
Al6 Ti6 2.879813 1_555
Al6 Ti4 2.954560 1_555
Al6 Ti0 2.973770 1_555
Al6 Ti2 2.973770 1_555
Al7 Fe0 2.475219 1_555
Al7 Ir3 2.720673 1_555
Al7 Ir1 2.723060 1_565
Al7 Ir2 2.723060 1_655
Al7 Al8 2.739391 1_554
Al7 Ti11 2.854241 1_554
Al7 Ti10 2.854241 1_554
Al7 Ti8 2.879196 1_555
Al7 Ti7 2.879196 1_555
Al7 Ti6 2.879813 1_555
Al7 Ti3 2.954560 1_555
Al7 Ti1 2.973770 1_555
Al7 Ti2 2.973770 1_555
Al8 Ir0 2.515446 1_665
Al8 Ir2 2.515446 1_656
Al8 Ir1 2.515446 1_566
Al8 Ti5 2.834344 1_565
Al8 Ti3 2.834344 1_556
Al8 Ti4 2.834344 1_655
Al8 Ti10 2.977473 1_555
Al8 Ti12 2.977473 1_555
Al8 Ti11 2.977473 1_555
Fe0 Ti7 2.497024 1_555
Fe0 Ti9 2.497024 1_555
Fe0 Ti8 2.497024 1_555
Fe0 Ti6 2.525851 1_555
Fe1 Ti3 2.428248 1_445
Fe1 Ti5 2.428248 1_454
Fe1 Ti4 2.428248 1_544
Fe1 Ti0 2.467874 1_554
Fe1 Ti2 2.467874 1_545
Fe1 Ti1 2.467874 1_455
Ir0 Ti12 2.547760 1_445
Ir0 Ti8 2.677892 1_455
Ir0 Ti7 2.677892 1_545
Ir0 Ti4 3.000764 1_545
Ir0 Ti5 3.000764 1_455
Ir0 Ti1 3.126000 1_455
Ir0 Ti2 3.126000 1_545
Ir1 Ti11 2.547761 1_544
Ir1 Ti9 2.677892 1_554
Ir1 Ti7 2.677892 1_545
Ir1 Ti5 3.000764 1_554
Ir1 Ti3 3.000764 1_545
Ir1 Ti2 3.125999 1_545
Ir1 Ti0 3.126000 1_554
Ir2 Ti10 2.547761 1_454
Ir2 Ti8 2.677892 1_455
Ir2 Ti9 2.677892 1_554
Ir2 Ti4 3.000763 1_554
Ir2 Ti3 3.000764 1_455
Ir2 Ti1 3.125999 1_455
Ir2 Ti0 3.126000 1_554
Ir3 Ti11 2.513643 1_554
Ir3 Ti10 2.513643 1_554
Ir3 Ti6 2.684542 1_555
Ir3 Ti9 2.689218 1_554
Ir3 Ti1 3.099482 1_555
Ir3 Ti2 3.099482 1_555
Ir4 Ti12 2.513643 1_455
Ir4 Ti10 2.513643 1_455
Ir4 Ti6 2.684542 1_555
Ir4 Ti8 2.689218 1_455
Ir4 Ti2 3.099482 1_555
Ir4 Ti0 3.099482 1_555
Ir5 Ti11 2.513643 1_545
Ir5 Ti12 2.513643 1_545
Ir5 Ti6 2.684542 1_555
Ir5 Ti7 2.689218 1_545
Ir5 Ti1 3.099482 1_555
Ir5 Ti0 3.099482 1_555
