# generated using pymatgen
data_Cs3NaCaBr6
_symmetry_space_group_name_H-M   'P 1'
_cell_length_a   9.50458942
_cell_length_b   9.50459018
_cell_length_c   9.50458976
_cell_angle_alpha   93.68706479
_cell_angle_beta   93.68705455
_cell_angle_gamma   93.68706683
_symmetry_Int_Tables_number   1
_chemical_formula_structural   Cs3NaCaBr6
_chemical_formula_sum   'Cs6 Na2 Ca2 Br12'
_cell_volume   853.04578979
_cell_formula_units_Z   2
loop_
 _symmetry_equiv_pos_site_id
 _symmetry_equiv_pos_as_xyz
  1  'x, y, z'
loop_
 _atom_site_type_symbol
 _atom_site_label
 _atom_site_symmetry_multiplicity
 _atom_site_fract_x
 _atom_site_fract_y
 _atom_site_fract_z
 _atom_site_occupancy
  Cs  Cs0  1  0.75000000  0.37078427  0.12921573  1
  Cs  Cs1  1  0.12921573  0.75000000  0.37078427  1
  Cs  Cs2  1  0.37078427  0.12921573  0.75000000  1
  Cs  Cs3  1  0.25000000  0.62921573  0.87078427  1
  Cs  Cs4  1  0.87078427  0.25000000  0.62921573  1
  Cs  Cs5  1  0.62921573  0.87078427  0.25000000  1
  Na  Na0  1  0.75000000  0.75000000  0.75000000  1
  Na  Na1  1  0.25000000  0.25000000  0.25000000  1
  Ca  Ca0  1  0.50000000  0.50000000  0.50000000  1
  Ca  Ca1  1  0.00000000  0.00000000  0.00000000  1
  Br  Br0  1  0.20775619  0.41104554  0.53434435  1
  Br  Br1  1  0.53434435  0.20775619  0.41104554  1
  Br  Br2  1  0.41104554  0.53434435  0.20775619  1
  Br  Br3  1  0.29224381  0.96565565  0.08895446  1
  Br  Br4  1  0.08895446  0.29224381  0.96565565  1
  Br  Br5  1  0.96565565  0.08895446  0.29224381  1
  Br  Br6  1  0.79224381  0.58895446  0.46565565  1
  Br  Br7  1  0.46565565  0.79224381  0.58895446  1
  Br  Br8  1  0.58895446  0.46565565  0.79224381  1
  Br  Br9  1  0.70775619  0.03434435  0.91104554  1
  Br  Br10  1  0.03434435  0.91104554  0.70775619  1
  Br  Br11  1  0.91104554  0.70775619  0.03434435  1
loop_
_geom_bond_atom_site_label_1
_geom_bond_atom_site_label_2
_geom_bond_distance
_geom_bond_site_symmetry_2
Br0 Ca0 2.896003 1_555
Br0 Na1 3.081338 1_555
Br0 Cs4 3.651339 1_455
Br0 Cs3 3.682595 1_555
Br0 Cs1 3.762577 1_555
Br0 Cs2 3.822193 1_555
Br1 Ca0 2.896003 1_555
Br1 Na1 3.081338 1_555
Br1 Cs5 3.651339 1_545
Br1 Cs4 3.682595 1_555
Br1 Cs2 3.762577 1_555
Br1 Cs0 3.822192 1_555
Br2 Ca0 2.896003 1_555
Br2 Na1 3.081338 1_555
Br2 Cs3 3.651339 1_554
Br2 Cs5 3.682595 1_555
Br2 Cs0 3.762577 1_555
Br2 Cs1 3.822192 1_555
Br3 Ca1 2.896003 1_565
Br3 Na1 3.081338 1_565
Br3 Cs5 3.651339 1_555
Br3 Cs3 3.682595 1_554
Br3 Cs2 3.762577 1_564
Br3 Cs1 3.822192 1_555
Br4 Ca1 2.896003 1_556
Br4 Na1 3.081338 1_556
Br4 Cs3 3.651339 1_555
Br4 Cs4 3.682595 1_455
Br4 Cs0 3.762577 1_456
Br4 Cs2 3.822192 1_555
Br5 Ca1 2.896003 1_655
Br5 Na1 3.081338 1_655
Br5 Cs4 3.651339 1_555
Br5 Cs5 3.682595 1_545
Br5 Cs1 3.762577 1_645
Br5 Cs0 3.822193 1_555
Br6 Ca0 2.896003 1_555
Br6 Na0 3.081338 1_555
Br6 Cs1 3.651339 1_655
Br6 Cs0 3.682595 1_555
Br6 Cs4 3.762577 1_555
Br6 Cs5 3.822193 1_555
Br7 Ca0 2.896003 1_555
Br7 Na0 3.081338 1_555
Br7 Cs2 3.651339 1_565
Br7 Cs1 3.682595 1_555
Br7 Cs5 3.762577 1_555
Br7 Cs3 3.822192 1_555
Br8 Ca0 2.896003 1_555
Br8 Na0 3.081338 1_555
Br8 Cs0 3.651339 1_556
Br8 Cs2 3.682595 1_555
Br8 Cs3 3.762577 1_555
Br8 Cs4 3.822192 1_555
Br9 Ca1 2.896003 1_656
Br9 Na0 3.081338 1_545
Br9 Cs2 3.651339 1_555
Br9 Cs0 3.682595 1_556
Br9 Cs5 3.762577 1_546
Br9 Cs4 3.822192 1_555
Br10 Ca1 2.896003 1_566
Br10 Na0 3.081338 1_455
Br10 Cs1 3.651339 1_555
Br10 Cs2 3.682595 1_565
Br10 Cs4 3.762577 1_465
Br10 Cs3 3.822193 1_555
Br11 Ca1 2.896003 1_665
Br11 Na0 3.081338 1_554
Br11 Cs0 3.651339 1_555
Br11 Cs1 3.682595 1_655
Br11 Cs3 3.762577 1_654
Br11 Cs5 3.822192 1_555
