# generated using pymatgen
data_Lu5Bi2Sb
_symmetry_space_group_name_H-M   'P 1'
_cell_length_a   7.98788620
_cell_length_b   9.21381734
_cell_length_c   11.67962933
_cell_angle_alpha   90.00000000
_cell_angle_beta   90.00000000
_cell_angle_gamma   90.00000000
_symmetry_Int_Tables_number   1
_chemical_formula_structural   Lu5Bi2Sb
_chemical_formula_sum   'Lu20 Bi8 Sb4'
_cell_volume   859.60815598
_cell_formula_units_Z   4
loop_
 _symmetry_equiv_pos_site_id
 _symmetry_equiv_pos_as_xyz
  1  'x, y, z'
loop_
 _atom_site_type_symbol
 _atom_site_label
 _atom_site_symmetry_multiplicity
 _atom_site_fract_x
 _atom_site_fract_y
 _atom_site_fract_z
 _atom_site_occupancy
  Lu  Lu0  1  0.18920737  0.56585202  0.44177279  1
  Lu  Lu1  1  0.68920737  0.93414798  0.05822721  1
  Lu  Lu2  1  0.81079263  0.06585202  0.55822721  1
  Lu  Lu3  1  0.31079263  0.43414798  0.94177279  1
  Lu  Lu4  1  0.81079263  0.43414798  0.55822721  1
  Lu  Lu5  1  0.31079263  0.06585202  0.94177279  1
  Lu  Lu6  1  0.18920737  0.93414798  0.44177279  1
  Lu  Lu7  1  0.68920737  0.56585202  0.05822721  1
  Lu  Lu8  1  0.02539806  0.75000000  0.98885130  1
  Lu  Lu9  1  0.52539806  0.75000000  0.51114870  1
  Lu  Lu10  1  0.97460194  0.25000000  0.01114870  1
  Lu  Lu11  1  0.47460194  0.25000000  0.48885130  1
  Lu  Lu12  1  0.18301648  0.75000000  0.71515917  1
  Lu  Lu13  1  0.68301648  0.75000000  0.78484083  1
  Lu  Lu14  1  0.81698352  0.25000000  0.28484083  1
  Lu  Lu15  1  0.31698352  0.25000000  0.21515917  1
  Lu  Lu16  1  0.85465201  0.75000000  0.28557244  1
  Lu  Lu17  1  0.35465201  0.75000000  0.21442756  1
  Lu  Lu18  1  0.14534799  0.25000000  0.71442756  1
  Lu  Lu19  1  0.64534799  0.25000000  0.78557244  1
  Bi  Bi0  1  0.93441369  0.49642436  0.82539188  1
  Bi  Bi1  1  0.43441369  0.00357564  0.67460812  1
  Bi  Bi2  1  0.06558631  0.99642436  0.17460812  1
  Bi  Bi3  1  0.56558631  0.50357564  0.32539188  1
  Bi  Bi4  1  0.06558631  0.50357564  0.17460812  1
  Bi  Bi5  1  0.56558631  0.99642436  0.32539188  1
  Bi  Bi6  1  0.93441369  0.00357564  0.82539188  1
  Bi  Bi7  1  0.43441369  0.49642436  0.67460812  1
  Sb  Sb0  1  0.90323257  0.75000000  0.54129227  1
  Sb  Sb1  1  0.40323257  0.75000000  0.95870773  1
  Sb  Sb2  1  0.09676743  0.25000000  0.45870773  1
  Sb  Sb3  1  0.59676743  0.25000000  0.04129227  1
loop_
_geom_bond_atom_site_label_1
_geom_bond_atom_site_label_2
_geom_bond_distance
_geom_bond_site_symmetry_2
Lu0 Sb2 3.008926 1_555
Lu0 Sb0 3.073768 1_455
Lu1 Sb3 3.008926 1_565
Lu1 Sb1 3.073768 1_554
Lu2 Sb0 3.008926 1_545
Lu2 Sb2 3.073768 1_655
Lu3 Sb1 3.008926 1_555
Lu3 Sb3 3.073768 1_556
Lu4 Sb0 3.008926 1_555
Lu4 Sb2 3.073768 1_655
Lu5 Sb1 3.008926 1_545
Lu5 Sb3 3.073768 1_556
Lu6 Sb2 3.008926 1_565
Lu6 Sb0 3.073768 1_455
Lu7 Sb3 3.008926 1_555
Lu7 Sb1 3.073768 1_554
Lu8 Sb1 3.038564 1_555
Lu9 Sb0 3.038564 1_555
Lu10 Sb3 3.038564 1_555
Lu11 Sb2 3.038564 1_555
Lu12 Sb0 3.019676 1_455
Lu12 Sb1 3.344518 1_555
Lu13 Sb1 3.019676 1_555
Lu13 Sb0 3.344518 1_555
Lu14 Sb2 3.019676 1_655
Lu14 Sb3 3.344518 1_555
Lu15 Sb3 3.019676 1_555
Lu15 Sb2 3.344518 1_555
Lu16 Sb0 3.011817 1_555
Lu17 Sb1 3.011817 1_554
Lu18 Sb2 3.011817 1_555
Lu19 Sb3 3.011817 1_556
Bi0 Lu8 3.103514 1_655
Bi0 Lu18 3.110279 1_655
Bi0 Lu13 3.116998 1_555
Bi0 Lu10 3.156787 1_556
Bi0 Lu19 3.271559 1_555
Bi0 Lu4 3.322822 1_555
Bi0 Lu12 3.325629 1_655
Bi0 Lu3 3.348997 1_655
Bi0 Lu7 3.411882 1_556
Bi1 Lu9 3.103514 1_545
Bi1 Lu19 3.110279 1_555
Bi1 Lu12 3.116998 1_545
Bi1 Lu11 3.156787 1_555
Bi1 Lu18 3.271559 1_555
Bi1 Lu5 3.322822 1_555
Bi1 Lu13 3.325629 1_545
Bi1 Lu2 3.348997 1_555
Bi1 Lu6 3.411882 1_545
Bi2 Lu10 3.103514 1_465
Bi2 Lu16 3.110279 1_455
Bi2 Lu15 3.116998 1_565
Bi2 Lu8 3.156787 1_554
Bi2 Lu17 3.271559 1_555
Bi2 Lu6 3.322822 1_555
Bi2 Lu14 3.325629 1_465
Bi2 Lu1 3.348997 1_455
Bi2 Lu5 3.411882 1_564
Bi3 Lu11 3.103514 1_555
Bi3 Lu17 3.110279 1_555
Bi3 Lu14 3.116998 1_555
Bi3 Lu9 3.156787 1_555
Bi3 Lu16 3.271559 1_555
Bi3 Lu7 3.322822 1_555
Bi3 Lu15 3.325629 1_555
Bi3 Lu0 3.348997 1_555
Bi3 Lu4 3.411882 1_555
Bi4 Lu10 3.103514 1_455
Bi4 Lu16 3.110279 1_455
Bi4 Lu15 3.116998 1_555
Bi4 Lu8 3.156787 1_554
Bi4 Lu17 3.271559 1_555
Bi4 Lu0 3.322822 1_555
Bi4 Lu14 3.325629 1_455
Bi4 Lu7 3.348997 1_455
Bi4 Lu3 3.411882 1_554
Bi5 Lu11 3.103514 1_565
Bi5 Lu17 3.110279 1_555
Bi5 Lu14 3.116998 1_565
Bi5 Lu9 3.156787 1_555
Bi5 Lu16 3.271559 1_555
Bi5 Lu1 3.322822 1_555
Bi5 Lu15 3.325629 1_565
Bi5 Lu6 3.348997 1_555
Bi5 Lu2 3.411882 1_565
Bi6 Lu8 3.103514 1_645
Bi6 Lu18 3.110279 1_655
Bi6 Lu13 3.116998 1_545
Bi6 Lu10 3.156787 1_556
Bi6 Lu19 3.271559 1_555
Bi6 Lu2 3.322822 1_555
Bi6 Lu12 3.325629 1_645
Bi6 Lu5 3.348997 1_655
Bi6 Lu1 3.411882 1_546
Bi7 Lu9 3.103514 1_555
Bi7 Lu19 3.110279 1_555
Bi7 Lu12 3.116998 1_555
Bi7 Lu11 3.156787 1_555
Bi7 Lu18 3.271559 1_555
Bi7 Lu3 3.322822 1_555
Bi7 Lu13 3.325629 1_555
Bi7 Lu4 3.348997 1_555
Bi7 Lu0 3.411882 1_555
