# generated using pymatgen
data_V2Sn(O3F)2
_symmetry_space_group_name_H-M   'P 1'
_cell_length_a   5.59327564
_cell_length_b   5.59327548
_cell_length_c   6.38628568
_cell_angle_alpha   90.00000000
_cell_angle_beta   90.00000000
_cell_angle_gamma   120.00000504
_symmetry_Int_Tables_number   1
_chemical_formula_structural   V2Sn(O3F)2
_chemical_formula_sum   'V2 Sn1 O6 F2'
_cell_volume   173.02600609
_cell_formula_units_Z   1
loop_
 _symmetry_equiv_pos_site_id
 _symmetry_equiv_pos_as_xyz
  1  'x, y, z'
loop_
 _atom_site_type_symbol
 _atom_site_label
 _atom_site_symmetry_multiplicity
 _atom_site_fract_x
 _atom_site_fract_y
 _atom_site_fract_z
 _atom_site_occupancy
  V  V0  1  0.33333300  0.66666700  0.27355375  1
  V  V1  1  0.66666600  0.33333300  0.72644625  1
  Sn  Sn0  1  0.00000000  0.00000000  0.00000000  1
  O  O0  1  0.18947550  0.33939310  0.18658909  1
  O  O1  1  0.14991660  0.81052350  0.18658909  1
  O  O2  1  0.66060690  0.85008140  0.18658909  1
  O  O3  1  0.33939310  0.14991660  0.81341191  1
  O  O4  1  0.85008340  0.18947650  0.81341191  1
  O  O5  1  0.81052350  0.66060690  0.81341191  1
  F  F0  1  0.66666600  0.33333300  0.45139202  1
  F  F1  1  0.33333300  0.66666700  0.54860798  1
loop_
_geom_bond_atom_site_label_1
_geom_bond_atom_site_label_2
_geom_bond_distance
_geom_bond_site_symmetry_2
O0 V0 1.683397 1_555
O0 Sn0 2.033442 1_555
O1 V0 1.683393 1_555
O1 Sn0 2.033443 1_565
O2 V0 1.683396 1_555
O2 Sn0 2.033442 1_665
O3 V1 1.683395 1_555
O3 Sn0 2.033439 1_556
O4 V1 1.683400 1_555
O4 Sn0 2.033439 1_656
O5 V1 1.683399 1_555
O5 Sn0 2.033439 1_666
F0 V1 1.756575 1_555
F1 V0 1.756575 1_555
