# generated using pymatgen
data_KN3O4
_symmetry_space_group_name_H-M   'P 1'
_cell_length_a   9.60399600
_cell_length_b   6.72920900
_cell_length_c   9.42891751
_cell_angle_alpha   51.15155278
_cell_angle_beta   90.00000000
_cell_angle_gamma   90.00000000
_symmetry_Int_Tables_number   1
_chemical_formula_structural   KN3O4
_chemical_formula_sum   'K4 N12 O16'
_cell_volume   474.57859447
_cell_formula_units_Z   4
loop_
 _symmetry_equiv_pos_site_id
 _symmetry_equiv_pos_as_xyz
  1  'x, y, z'
loop_
 _atom_site_type_symbol
 _atom_site_label
 _atom_site_symmetry_multiplicity
 _atom_site_fract_x
 _atom_site_fract_y
 _atom_site_fract_z
 _atom_site_occupancy
  K  K0  1  0.15843900  0.02643800  0.32569900  1
  K  K1  1  0.65843900  0.97356200  0.17430100  1
  K  K2  1  0.84156100  0.97356200  0.67430100  1
  K  K3  1  0.34156100  0.02643800  0.82569900  1
  N  N0  1  0.65824200  0.42060600  0.63625900  1
  N  N1  1  0.84175800  0.42060600  0.13625900  1
  N  N2  1  0.34175800  0.57939400  0.36374100  1
  N  N3  1  0.12344300  0.35629500  0.89869100  1
  N  N4  1  0.62344300  0.64370500  0.60130900  1
  N  N5  1  0.87655700  0.64370500  0.10130900  1
  N  N6  1  0.37655700  0.35629500  0.39869100  1
  N  N7  1  0.15824200  0.57939400  0.86374100  1
  N  N8  1  0.03922000  0.38121900  0.76874200  1
  N  N9  1  0.53922000  0.61878100  0.73125800  1
  N  N10  1  0.46078000  0.38121900  0.26874200  1
  N  N11  1  0.96078000  0.61878100  0.23125800  1
  O  O0  1  0.46109700  0.43329700  0.83509500  1
  O  O1  1  0.96109700  0.56670300  0.66490500  1
  O  O2  1  0.03890300  0.43329700  0.33509500  1
  O  O3  1  0.53890300  0.56670300  0.16490500  1
  O  O4  1  0.45731700  0.18804400  0.27738700  1
  O  O5  1  0.95731700  0.81195600  0.22261300  1
  O  O6  1  0.54268300  0.81195600  0.72261300  1
  O  O7  1  0.04268300  0.18804400  0.77738700  1
  O  O8  1  0.65678800  0.20546600  0.79085800  1
  O  O9  1  0.84321200  0.20546600  0.29085800  1
  O  O10  1  0.34321200  0.79453400  0.20914200  1
  O  O11  1  0.29796700  0.54892900  0.50207600  1
  O  O12  1  0.79796700  0.45107100  0.99792400  1
  O  O13  1  0.70203300  0.45107100  0.49792400  1
  O  O14  1  0.20203300  0.54892900  0.00207600  1
  O  O15  1  0.15678800  0.79453400  0.70914200  1
loop_
_geom_bond_atom_site_label_1
_geom_bond_atom_site_label_2
_geom_bond_distance
_geom_bond_site_symmetry_2
K0 O11 2.860506 1_545
K0 O14 2.896378 1_555
K0 O15 2.903264 1_545
K0 O5 2.918694 1_445
K0 O10 2.990599 1_545
K0 O4 3.001330 1_555
K0 O2 3.020904 1_555
K0 N3 3.168410 1_554
K0 O9 3.198148 1_455
K0 O1 3.313483 1_445
K0 N6 3.421305 1_555
K1 O12 2.860506 1_564
K1 O13 2.896378 1_555
K1 O8 2.903264 1_564
K1 O4 2.918694 1_565
K1 O9 2.990599 1_565
K1 O5 3.001330 1_555
K1 O3 3.020904 1_555
K1 N4 3.168410 1_555
K1 O10 3.198148 1_555
K1 O0 3.313483 1_564
K1 N5 3.421305 1_555
K2 O13 2.860506 1_565
K2 O12 2.896378 1_555
K2 O9 2.903264 1_565
K2 O7 2.918694 1_665
K2 O8 2.990599 1_565
K2 O6 3.001330 1_555
K2 O1 3.020904 1_555
K2 N5 3.168410 1_556
K2 O15 3.198148 1_655
K2 O2 3.313483 1_665
K2 N4 3.421305 1_555
K3 O14 2.860506 1_546
K3 O11 2.896378 1_555
K3 O10 2.903264 1_546
K3 O6 2.918694 1_545
K3 O15 2.990599 1_545
K3 O7 3.001330 1_555
K3 O0 3.020904 1_555
K3 N6 3.168410 1_555
K3 O8 3.198148 1_555
K3 O3 3.313483 1_546
K3 N3 3.421305 1_555
N0 O8 1.254394 1_555
N0 O13 1.258878 1_555
N0 N4 1.361425 1_555
N1 O9 1.254394 1_555
N1 O12 1.258878 1_554
N1 N5 1.361425 1_555
N2 O10 1.254394 1_555
N2 O11 1.258878 1_555
N2 N6 1.361425 1_555
N3 N7 1.361425 1_555
N3 N8 1.387772 1_555
N4 N9 1.387772 1_555
N7 O15 1.254394 1_555
N7 O14 1.258878 1_556
N8 O1 1.243522 1_455
N8 O7 1.250840 1_555
N9 O0 1.243522 1_555
N9 O6 1.250840 1_555
N10 O3 1.243522 1_555
N10 O4 1.250840 1_555
N10 N6 1.387772 1_555
N11 O2 1.243522 1_655
N11 O5 1.250840 1_555
N11 N5 1.387772 1_555
