# generated using pymatgen
data_Sr4CuH12Ir
_symmetry_space_group_name_H-M   'P 1'
_cell_length_a   7.54408172
_cell_length_b   7.54408099
_cell_length_c   5.50204761
_cell_angle_alpha   90.00655455
_cell_angle_beta   90.00655803
_cell_angle_gamma   137.24046246
_symmetry_Int_Tables_number   1
_chemical_formula_structural   Sr4CuH12Ir
_chemical_formula_sum   'Sr4 Cu1 H12 Ir1'
_cell_volume   212.59720632
_cell_formula_units_Z   1
loop_
 _symmetry_equiv_pos_site_id
 _symmetry_equiv_pos_as_xyz
  1  'x, y, z'
loop_
 _atom_site_type_symbol
 _atom_site_label
 _atom_site_symmetry_multiplicity
 _atom_site_fract_x
 _atom_site_fract_y
 _atom_site_fract_z
 _atom_site_occupancy
  Sr  Sr0  1  0.14658613  0.85341387  0.50000000  1
  Sr  Sr1  1  0.64605002  0.35394998  0.00000000  1
  Sr  Sr2  1  0.85341387  0.14658613  0.50000000  1
  Sr  Sr3  1  0.35394998  0.64605002  1.00000000  1
  Cu  Cu0  1  0.00000000  0.00000000  0.00000000  1
  H  H0  1  0.99991655  0.50009880  0.75174664  1
  H  H1  1  0.49990120  0.00008345  0.24825336  1
  H  H2  1  0.00008345  0.49990120  0.24825336  1
  H  H3  1  0.50009880  0.99991655  0.75174664  1
  H  H4  1  0.38068397  0.61931603  0.50000000  1
  H  H5  1  0.88918503  0.11081497  1.00000000  1
  H  H6  1  0.61931603  0.38068397  0.50000000  1
  H  H7  1  0.11081497  0.88918503  0.00000000  1
  H  H8  1  0.28144077  0.28144077  0.71847011  1
  H  H9  1  0.71855923  0.71855923  0.28152989  1
  H  H10  1  0.28122958  0.28122958  0.28156778  1
  H  H11  1  0.71877042  0.71877042  0.71843222  1
  Ir  Ir0  1  0.50000000  0.50000000  0.50000000  1
loop_
_geom_bond_atom_site_label_1
_geom_bond_atom_site_label_2
_geom_bond_distance
_geom_bond_site_symmetry_2
Cu0 H7 1.556935 1_545
Cu0 H5 1.556935 1_454
Cu0 H10 2.188904 1_555
Cu0 H11 2.188904 1_444
Cu0 H8 2.190265 1_554
Cu0 H9 2.190265 1_445
H0 Sr1 2.426341 1_556
H0 Sr3 2.427348 1_655
H0 Sr0 2.432666 1_655
H0 Sr2 2.433751 1_555
H1 Sr1 2.426340 1_555
H1 Sr3 2.427348 1_544
H1 Sr0 2.432666 1_545
H1 Sr2 2.433751 1_555
H2 Sr3 2.426341 1_554
H2 Sr1 2.427348 1_455
H2 Sr2 2.432666 1_455
H2 Sr0 2.433751 1_555
H3 Sr3 2.426340 1_555
H3 Sr1 2.427348 1_566
H3 Sr2 2.432666 1_565
H3 Sr0 2.433751 1_555
H4 Ir0 1.676374 1_555
H4 Sr3 2.776547 1_554
H4 Sr3 2.776547 1_555
H4 Sr2 2.776740 1_565
H4 Sr2 2.776740 1_455
H5 Sr3 2.794380 1_655
H5 Sr3 2.794380 1_545
H5 Sr2 2.796555 1_555
H5 Sr2 2.796555 1_556
H6 Ir0 1.676374 1_555
H6 Sr1 2.776547 1_556
H6 Sr1 2.776547 1_555
H6 Sr0 2.776740 1_545
H6 Sr0 2.776740 1_655
H7 Sr1 2.794380 1_455
H7 Sr1 2.794380 1_565
H7 Sr0 2.796555 1_555
H7 Sr0 2.796555 1_554
H8 Ir0 1.700284 1_555
H8 Sr3 2.837959 1_555
H8 Sr1 2.837959 1_556
H8 Sr0 2.842833 1_545
H8 Sr2 2.842833 1_455
H9 Ir0 1.700284 1_555
H9 Sr1 2.837959 1_555
H9 Sr3 2.837959 1_554
H9 Sr2 2.842833 1_565
H9 Sr0 2.842833 1_655
H10 Ir0 1.700425 1_555
H10 Sr3 2.838977 1_554
H10 Sr1 2.838978 1_555
H10 Sr0 2.842523 1_545
H10 Sr2 2.842524 1_455
H11 Ir0 1.700425 1_555
H11 Sr1 2.838977 1_556
H11 Sr3 2.838978 1_555
H11 Sr2 2.842523 1_565
H11 Sr0 2.842524 1_655
