# generated using pymatgen
data_Ta6NbH16
_symmetry_space_group_name_H-M   'P 1'
_cell_length_a   6.33594724
_cell_length_b   6.33594691
_cell_length_c   6.33594796
_cell_angle_alpha   59.99999969
_cell_angle_beta   60.00000142
_cell_angle_gamma   59.99999921
_symmetry_Int_Tables_number   1
_chemical_formula_structural   Ta6NbH16
_chemical_formula_sum   'Ta6 Nb1 H16'
_cell_volume   179.85382851
_cell_formula_units_Z   1
loop_
 _symmetry_equiv_pos_site_id
 _symmetry_equiv_pos_as_xyz
  1  'x, y, z'
loop_
 _atom_site_type_symbol
 _atom_site_label
 _atom_site_symmetry_multiplicity
 _atom_site_fract_x
 _atom_site_fract_y
 _atom_site_fract_z
 _atom_site_occupancy
  Ta  Ta0  1  0.00000000  0.00000000  0.50000000  1
  Ta  Ta1  1  0.50000000  0.00000000  0.50000000  1
  Ta  Ta2  1  0.00000000  0.50000000  0.50000000  1
  Ta  Ta3  1  0.50000000  0.50000000  0.00000000  1
  Ta  Ta4  1  0.00000000  0.50000000  0.00000000  1
  Ta  Ta5  1  0.50000000  0.00000000  0.00000000  1
  Nb  Nb0  1  0.00000000  0.00000000  0.00000000  1
  H  H0  1  0.87406003  0.87406003  0.37781792  1
  H  H1  1  0.87406003  0.37781792  0.87406003  1
  H  H2  1  0.37781792  0.87406003  0.87406003  1
  H  H3  1  0.87406003  0.87406003  0.87406003  1
  H  H4  1  0.12593997  0.12593997  0.62218208  1
  H  H5  1  0.12593997  0.62218208  0.12593997  1
  H  H6  1  0.62218208  0.12593997  0.12593997  1
  H  H7  1  0.12593997  0.12593997  0.12593997  1
  H  H8  1  0.62151161  0.62151161  0.13546518  1
  H  H9  1  0.62151161  0.13546518  0.62151161  1
  H  H10  1  0.13546518  0.62151161  0.62151161  1
  H  H11  1  0.62151161  0.62151161  0.62151161  1
  H  H12  1  0.37848839  0.37848839  0.86453482  1
  H  H13  1  0.37848839  0.86453482  0.37848839  1
  H  H14  1  0.86453482  0.37848839  0.37848839  1
  H  H15  1  0.37848839  0.37848839  0.37848839  1
loop_
_geom_bond_atom_site_label_1
_geom_bond_atom_site_label_2
_geom_bond_distance
_geom_bond_site_symmetry_2
H0 Ta2 1.935166 1_655
H0 Ta1 1.935166 1_565
H0 Ta0 1.935176 1_665
H0 Nb0 1.954558 1_665
H1 Ta3 1.935166 1_556
H1 Ta2 1.935166 1_655
H1 Ta4 1.935176 1_656
H1 Nb0 1.954557 1_656
H2 Ta3 1.935166 1_556
H2 Ta1 1.935166 1_565
H2 Ta5 1.935176 1_566
H2 Nb0 1.954558 1_566
H3 Ta4 1.935166 1_656
H3 Ta5 1.935166 1_566
H3 Ta0 1.935166 1_665
H3 Nb0 1.954568 1_666
H4 Ta2 1.935166 1_555
H4 Ta1 1.935166 1_555
H4 Ta0 1.935176 1_555
H4 Nb0 1.954558 1_556
H5 Ta3 1.935166 1_555
H5 Ta2 1.935166 1_555
H5 Ta4 1.935176 1_555
H5 Nb0 1.954557 1_565
H6 Ta3 1.935166 1_555
H6 Ta1 1.935166 1_555
H6 Ta5 1.935176 1_555
H6 Nb0 1.954558 1_655
H7 Ta4 1.935166 1_555
H7 Ta5 1.935166 1_555
H7 Ta0 1.935166 1_555
H7 Nb0 1.954568 1_555
H8 Ta5 1.958691 1_565
H8 Ta4 1.958691 1_655
H8 Ta3 1.958691 1_555
H9 Ta0 1.958691 1_655
H9 Ta1 1.958691 1_555
H9 Ta5 1.958692 1_556
H10 Ta0 1.958691 1_565
H10 Ta2 1.958691 1_555
H10 Ta4 1.958692 1_556
H11 Ta1 1.958691 1_565
H11 Ta2 1.958691 1_655
H11 Ta3 1.958692 1_556
H12 Ta5 1.958691 1_556
H12 Ta4 1.958691 1_556
H12 Ta3 1.958691 1_556
H13 Ta0 1.958691 1_565
H13 Ta1 1.958691 1_565
H13 Ta5 1.958692 1_565
H14 Ta0 1.958691 1_655
H14 Ta2 1.958691 1_655
H14 Ta4 1.958692 1_655
H15 Ta1 1.958691 1_555
H15 Ta2 1.958691 1_555
H15 Ta3 1.958692 1_555
