# generated using pymatgen
data_Al3Cu(RhS4)2
_symmetry_space_group_name_H-M   'P 1'
_cell_length_a   6.99248339
_cell_length_b   6.99248372
_cell_length_c   6.95686816
_cell_angle_alpha   60.16835056
_cell_angle_beta   60.16834905
_cell_angle_gamma   60.60973270
_symmetry_Int_Tables_number   1
_chemical_formula_structural   Al3Cu(RhS4)2
_chemical_formula_sum   'Al3 Cu1 Rh2 S8'
_cell_volume   242.23323146
_cell_formula_units_Z   1
loop_
 _symmetry_equiv_pos_site_id
 _symmetry_equiv_pos_as_xyz
  1  'x, y, z'
loop_
 _atom_site_type_symbol
 _atom_site_label
 _atom_site_symmetry_multiplicity
 _atom_site_fract_x
 _atom_site_fract_y
 _atom_site_fract_z
 _atom_site_occupancy
  Al  Al0  1  0.87149094  0.87149094  0.39051326  1
  Al  Al1  1  0.87149094  0.87149094  0.86650387  1
  Al  Al2  1  0.25252363  0.25252363  0.24747637  1
  Cu  Cu0  1  0.50047983  0.50047983  0.49952017  1
  Rh  Rh0  1  0.87283666  0.38188123  0.87264006  1
  Rh  Rh1  1  0.38188123  0.87283666  0.87264006  1
  S  S0  1  0.63363793  0.63363793  0.63719692  1
  S  S1  1  0.63363793  0.63363793  0.09552722  1
  S  S2  1  0.10270397  0.63010024  0.63359739  1
  S  S3  1  0.63010024  0.10270397  0.63359739  1
  S  S4  1  0.11617352  0.65056627  0.11663010  1
  S  S5  1  0.65056627  0.11617352  0.11663010  1
  S  S6  1  0.11623796  0.11623796  0.65156004  1
  S  S7  1  0.11623796  0.11623796  0.11596403  1
loop_
_geom_bond_atom_site_label_1
_geom_bond_atom_site_label_2
_geom_bond_distance
_geom_bond_site_symmetry_2
Al0 S0 2.347998 1_555
Al0 S3 2.350439 1_565
Al0 S2 2.350439 1_655
Al0 S7 2.424109 1_665
Al0 S4 2.456635 1_655
Al0 S5 2.456635 1_565
Al1 S1 2.347998 1_556
Al1 S3 2.350439 1_565
Al1 S2 2.350439 1_655
Al1 S6 2.424110 1_665
Al1 S4 2.456640 1_656
Al1 S5 2.456640 1_566
Al2 S5 2.285299 1_555
Al2 S4 2.285299 1_555
Al2 S7 2.297751 1_555
Al2 S6 2.297752 1_555
Cu0 S2 2.283303 1_555
Cu0 S3 2.283304 1_555
Cu0 S0 2.297121 1_555
Cu0 S1 2.297121 1_555
Rh0 S0 2.355072 1_555
Rh0 S1 2.355081 1_556
Rh0 S2 2.359828 1_655
Rh0 S5 2.412620 1_556
Rh0 S6 2.418177 1_655
Rh0 S7 2.418187 1_656
Rh1 S0 2.355072 1_555
Rh1 S1 2.355081 1_556
Rh1 S3 2.359828 1_565
Rh1 S4 2.412620 1_556
Rh1 S6 2.418177 1_565
Rh1 S7 2.418187 1_566
