# generated using pymatgen
data_KNa7(ZnH4)4
_symmetry_space_group_name_H-M   'P 1'
_cell_length_a   5.35001288
_cell_length_b   6.85440243
_cell_length_c   9.75072190
_cell_angle_alpha   89.50378821
_cell_angle_beta   90.00000000
_cell_angle_gamma   90.00000000
_symmetry_Int_Tables_number   1
_chemical_formula_structural   KNa7(ZnH4)4
_chemical_formula_sum   'K1 Na7 Zn4 H16'
_cell_volume   357.55669093
_cell_formula_units_Z   1
loop_
 _symmetry_equiv_pos_site_id
 _symmetry_equiv_pos_as_xyz
  1  'x, y, z'
loop_
 _atom_site_type_symbol
 _atom_site_label
 _atom_site_symmetry_multiplicity
 _atom_site_fract_x
 _atom_site_fract_y
 _atom_site_fract_z
 _atom_site_occupancy
  K  K0  1  0.75000000  0.01336707  0.80472075  1
  Na  Na0  1  0.25000000  0.13416541  0.54355548  1
  Na  Na1  1  0.25000000  0.66629066  0.93041205  1
  Na  Na2  1  0.75000000  0.82495407  0.40986151  1
  Na  Na3  1  0.75000000  0.35793963  0.07255403  1
  Na  Na4  1  0.25000000  0.49068820  0.30713907  1
  Na  Na5  1  0.25000000  0.99936973  0.18959039  1
  Na  Na6  1  0.75000000  0.49918799  0.68725195  1
  Zn  Zn0  1  0.25000000  0.24779294  0.92707263  1
  Zn  Zn1  1  0.25000000  0.69936813  0.57537411  1
  Zn  Zn2  1  0.75000000  0.78741625  0.09335302  1
  Zn  Zn3  1  0.75000000  0.26641712  0.41327104  1
  H  H0  1  0.00223018  0.34745182  0.85946804  1
  H  H1  1  0.49925739  0.77516108  0.65289416  1
  H  H2  1  0.50081177  0.70987202  0.17286746  1
  H  H3  1  0.99934380  0.17374858  0.34345586  1
  H  H4  1  0.99918823  0.70987202  0.17286746  1
  H  H5  1  0.50065620  0.17374858  0.34345586  1
  H  H6  1  0.49776982  0.34745182  0.85946804  1
  H  H7  1  0.00074261  0.77516108  0.65289416  1
  H  H8  1  0.25000000  0.01115345  0.91641251  1
  H  H9  1  0.25000000  0.46517339  0.55897354  1
  H  H10  1  0.75000000  0.02241966  0.08187663  1
  H  H11  1  0.75000000  0.49973949  0.40284928  1
  H  H12  1  0.25000000  0.80564328  0.42268764  1
  H  H13  1  0.25000000  0.31680673  0.08963551  1
  H  H14  1  0.75000000  0.19459055  0.57421317  1
  H  H15  1  0.75000000  0.68504825  0.94182466  1
loop_
_geom_bond_atom_site_label_1
_geom_bond_atom_site_label_2
_geom_bond_distance
_geom_bond_site_symmetry_2
H0 Zn0 1.628037 1_555
H0 Na6 2.385847 1_455
H0 Na3 2.479061 1_456
H0 Na1 2.652931 1_555
H0 K0 2.714958 1_455
H1 Zn1 1.620602 1_555
H1 Na6 2.340744 1_555
H1 K0 2.588237 1_565
H2 Zn2 1.629054 1_555
H2 Na4 2.395356 1_555
H2 Na5 2.402150 1_555
H3 Zn3 1.629082 1_555
H3 Na5 2.347111 1_645
H3 Na0 2.381095 1_655
H3 Na4 2.574850 1_655
H4 Zn2 1.629054 1_555
H4 Na4 2.395356 1_655
H4 Na5 2.402150 1_655
H5 Zn3 1.629082 1_555
H5 Na5 2.347111 1_545
H5 Na0 2.381095 1_555
H5 Na4 2.574850 1_555
H6 Zn0 1.628037 1_555
H6 Na6 2.385847 1_555
H6 Na3 2.479061 1_556
H6 Na1 2.652931 1_555
H6 K0 2.714958 1_555
H7 Zn1 1.620602 1_555
H7 Na6 2.340744 1_455
H7 K0 2.588237 1_465
H8 Zn0 1.626248 1_555
H8 Na1 2.366586 1_545
H8 Na5 2.664207 1_546
H8 K0 2.888198 1_455
H8 K0 2.888198 1_555
H9 Zn1 1.614588 1_555
H9 Na0 2.275136 1_555
H9 Na4 2.460277 1_555
H10 Zn2 1.613723 1_545
H10 Na3 2.300798 1_555
H10 K0 2.703719 1_554
H11 Zn3 1.601632 1_555
H11 Na2 2.230792 1_555
H12 Zn1 1.651785 1_555
H12 Na4 2.443785 1_555
H12 Na0 2.550618 1_565
H12 Na5 2.622386 1_555
H13 Zn0 1.658108 1_554
H13 Na5 2.376439 1_545
H13 Na4 2.441754 1_555
H13 Na3 2.694824 1_455
H13 Na3 2.694824 1_555
H14 Zn3 1.640644 1_555
H14 Na6 2.369340 1_555
H14 K0 2.558598 1_555
H15 Zn2 1.641139 1_556
H15 Na3 2.569540 1_556
H15 K0 2.607589 1_565
