# generated using pymatgen
data_Cs14TaNbAs8
_symmetry_space_group_name_H-M   'P 1'
_cell_length_a   8.96163015
_cell_length_b   10.03685936
_cell_length_c   11.12071930
_cell_angle_alpha   90.00000000
_cell_angle_beta   90.00000000
_cell_angle_gamma   90.02276484
_symmetry_Int_Tables_number   1
_chemical_formula_structural   Cs14TaNbAs8
_chemical_formula_sum   'Cs14 Ta1 Nb1 As8'
_cell_volume   1000.27104978
_cell_formula_units_Z   1
loop_
 _symmetry_equiv_pos_site_id
 _symmetry_equiv_pos_as_xyz
  1  'x, y, z'
loop_
 _atom_site_type_symbol
 _atom_site_label
 _atom_site_symmetry_multiplicity
 _atom_site_fract_x
 _atom_site_fract_y
 _atom_site_fract_z
 _atom_site_occupancy
  Cs  Cs0  1  0.87631856  0.02961152  0.00000000  1
  Cs  Cs1  1  0.70238953  0.82932148  0.71293591  1
  Cs  Cs2  1  0.39433233  0.90094617  0.00000000  1
  Cs  Cs3  1  0.37552987  0.96978238  0.50000000  1
  Cs  Cs4  1  0.87984639  0.46572581  0.29416485  1
  Cs  Cs5  1  0.89490023  0.09959934  0.50000000  1
  Cs  Cs6  1  0.66383817  0.34416380  0.00000000  1
  Cs  Cs7  1  0.16409284  0.65489172  0.50000000  1
  Cs  Cs8  1  0.20295967  0.17072024  0.21370076  1
  Cs  Cs9  1  0.37996900  0.53426276  0.20578500  1
  Cs  Cs10  1  0.37996900  0.53426276  0.79421500  1
  Cs  Cs11  1  0.87984639  0.46572581  0.70583515  1
  Cs  Cs12  1  0.70238953  0.82932148  0.28706409  1
  Cs  Cs13  1  0.20295967  0.17072024  0.78629924  1
  Ta  Ta0  1  0.49794710  0.32600061  0.50000000  1
  Nb  Nb0  1  0.99780454  0.67402772  0.00000000  1
  As  As0  1  0.71839336  0.68565174  0.00000000  1
  As  As1  1  0.21991732  0.31428250  0.50000000  1
  As  As2  1  0.07031704  0.43198416  0.00000000  1
  As  As3  1  0.57095461  0.56698301  0.50000000  1
  As  As4  1  0.08690907  0.79653490  0.18744234  1
  As  As5  1  0.58685434  0.20447348  0.31396589  1
  As  As6  1  0.58685434  0.20447348  0.68603411  1
  As  As7  1  0.08690907  0.79653490  0.81255766  1
loop_
_geom_bond_atom_site_label_1
_geom_bond_atom_site_label_2
_geom_bond_distance
_geom_bond_site_symmetry_2
As0 Nb0 2.506742 1_555
As0 Cs6 3.461968 1_555
As0 Cs1 3.505886 1_554
As0 Cs12 3.505886 1_555
As0 Cs2 3.620535 1_555
As0 Cs0 3.730591 1_565
As0 Cs9 4.091496 1_555
As0 Cs10 4.091496 1_554
As1 Ta0 2.494328 1_555
As1 Cs7 3.455255 1_555
As1 Cs13 3.498010 1_555
As1 Cs8 3.498010 1_555
As1 Cs5 3.622383 1_455
As1 Cs3 3.728842 1_545
As1 Cs11 4.103853 1_455
As1 Cs4 4.103853 1_455
As2 Nb0 2.515017 1_455
As2 Cs4 3.705444 1_455
As2 Cs11 3.705444 1_454
As2 Cs8 3.733570 1_555
As2 Cs13 3.733570 1_554
As2 Cs9 3.740218 1_555
As2 Cs10 3.740218 1_554
As2 Cs6 3.747499 1_455
As3 Ta0 2.505384 1_555
As3 Cs10 3.707020 1_555
As3 Cs9 3.707020 1_555
As3 Cs12 3.731664 1_555
As3 Cs1 3.731664 1_555
As3 Cs11 3.733306 1_555
As3 Cs4 3.733306 1_555
As3 Cs7 3.751724 1_555
As4 Nb0 2.548305 1_455
As4 Cs2 3.609867 1_555
As4 Cs12 3.634685 1_455
As4 Cs0 3.658260 1_465
As4 Cs9 3.724781 1_555
As4 Cs7 3.818633 1_555
As4 Cs8 3.907512 1_565
As4 Cs4 3.983878 1_455
As5 Ta0 2.530504 1_555
As5 Cs5 3.607109 1_555
As5 Cs8 3.632207 1_555
As5 Cs3 3.662201 1_545
As5 Cs4 3.716575 1_555
As5 Cs6 3.825141 1_555
As5 Cs12 3.916946 1_545
As5 Cs9 3.980710 1_555
As6 Ta0 2.530504 1_555
As6 Cs5 3.607109 1_555
As6 Cs13 3.632207 1_555
As6 Cs3 3.662201 1_545
As6 Cs11 3.716575 1_555
As6 Cs6 3.825141 1_556
As6 Cs1 3.916946 1_545
As6 Cs10 3.980710 1_555
As7 Nb0 2.548305 1_456
As7 Cs2 3.609867 1_556
As7 Cs1 3.634685 1_455
As7 Cs0 3.658260 1_466
As7 Cs10 3.724781 1_555
As7 Cs7 3.818633 1_555
As7 Cs13 3.907512 1_565
As7 Cs11 3.983878 1_455
