# generated using pymatgen
data_Rb4MgMnTe4
_symmetry_space_group_name_H-M   'P 1'
_cell_length_a   9.07428417
_cell_length_b   9.07428368
_cell_length_c   9.07428408
_cell_angle_alpha   133.70730554
_cell_angle_beta   129.54610727
_cell_angle_gamma   70.87237275
_symmetry_Int_Tables_number   1
_chemical_formula_structural   Rb4MgMnTe4
_chemical_formula_sum   'Rb4 Mg1 Mn1 Te4'
_cell_volume   407.96993486
_cell_formula_units_Z   1
loop_
 _symmetry_equiv_pos_site_id
 _symmetry_equiv_pos_as_xyz
  1  'x, y, z'
loop_
 _atom_site_type_symbol
 _atom_site_label
 _atom_site_symmetry_multiplicity
 _atom_site_fract_x
 _atom_site_fract_y
 _atom_site_fract_z
 _atom_site_occupancy
  Rb  Rb0  1  0.47002139  0.14460170  0.32615570  1
  Rb  Rb1  1  0.81844600  0.64386569  0.17384430  1
  Rb  Rb2  1  0.52997861  0.85613431  0.67458031  1
  Rb  Rb3  1  0.18155400  0.35539830  0.82541969  1
  Mg  Mg0  1  0.00000000  0.75000000  0.75000000  1
  Mn  Mn0  1  0.00000000  0.25000000  0.25000000  1
  Te  Te0  1  0.08750838  0.89899139  0.19637176  1
  Te  Te1  1  0.91249162  0.10886238  0.81148201  1
  Te  Te2  1  0.29738037  0.60100861  0.68851799  1
  Te  Te3  1  0.70261963  0.39113762  0.30362824  1
loop_
_geom_bond_atom_site_label_1
_geom_bond_atom_site_label_2
_geom_bond_distance
_geom_bond_site_symmetry_2
Rb0 Te3 3.711782 1_555
Rb0 Te2 3.729185 1_555
Rb0 Te1 3.771597 1_555
Rb0 Te2 3.787343 1_544
Rb0 Te0 3.826140 1_545
Rb0 Te1 4.050507 1_454
Rb1 Te0 3.711774 1_655
Rb1 Te1 3.729188 1_554
Rb1 Te2 3.771594 1_554
Rb1 Te1 3.787340 1_565
Rb1 Te3 3.826132 1_555
Rb1 Te2 4.050512 1_655
Rb2 Te2 3.711782 1_555
Rb2 Te3 3.729184 1_566
Rb2 Te0 3.771597 1_555
Rb2 Te3 3.787343 1_555
Rb2 Te1 3.826140 1_565
Rb2 Te0 4.050507 1_656
Rb3 Te1 3.711774 1_455
Rb3 Te0 3.729181 1_545
Rb3 Te3 3.771594 1_556
Rb3 Te0 3.787346 1_556
Rb3 Te2 3.826132 1_555
Rb3 Te3 4.050512 1_455
Mg0 Te1 2.811566 1_465
Mg0 Te3 2.811567 1_455
Mg0 Te2 2.811567 1_555
Mg0 Te0 2.811571 1_556
Mg0 Rb0 3.753529 1_566
Mg0 Rb3 3.753529 1_555
Mg0 Rb1 3.753530 1_455
Mg0 Rb2 3.753530 1_455
Mn0 Te0 2.775799 1_545
Mn0 Te2 2.775799 1_555
Mn0 Te3 2.775799 1_455
Mn0 Te1 2.775804 1_454
Mn0 Rb2 3.751034 1_444
Mn0 Rb1 3.751034 1_455
Mn0 Rb3 3.751034 1_555
Mn0 Rb0 3.751034 1_555
