# generated using pymatgen
data_Hf6BeBr12
_symmetry_space_group_name_H-M   'P 1'
_cell_length_a   8.50509863
_cell_length_b   8.50509933
_cell_length_c   8.50509991
_cell_angle_alpha   107.18633075
_cell_angle_beta   107.18633079
_cell_angle_gamma   107.18633447
_symmetry_Int_Tables_number   1
_chemical_formula_structural   Hf6BeBr12
_chemical_formula_sum   'Hf6 Be1 Br12'
_cell_volume   509.74344682
_cell_formula_units_Z   1
loop_
 _symmetry_equiv_pos_site_id
 _symmetry_equiv_pos_as_xyz
  1  'x, y, z'
loop_
 _atom_site_type_symbol
 _atom_site_label
 _atom_site_symmetry_multiplicity
 _atom_site_fract_x
 _atom_site_fract_y
 _atom_site_fract_z
 _atom_site_occupancy
  Hf  Hf0  1  0.96739420  0.70492331  0.90030861  1
  Hf  Hf1  1  0.29507669  0.09969139  0.03260580  1
  Hf  Hf2  1  0.09969139  0.03260580  0.29507669  1
  Hf  Hf3  1  0.90030861  0.96739420  0.70492331  1
  Hf  Hf4  1  0.70492331  0.90030861  0.96739420  1
  Hf  Hf5  1  0.03260580  0.29507669  0.09969139  1
  Be  Be0  1  0.00000000  0.00000000  0.00000000  1
  Br  Br0  1  0.92171485  0.31305498  0.77521434  1
  Br  Br1  1  0.68694502  0.22478566  0.07828515  1
  Br  Br2  1  0.45023179  0.14557397  0.37299150  1
  Br  Br3  1  0.85442603  0.62700850  0.54976821  1
  Br  Br4  1  0.22478566  0.07828515  0.68694502  1
  Br  Br5  1  0.62700850  0.54976821  0.85442603  1
  Br  Br6  1  0.37299150  0.45023179  0.14557397  1
  Br  Br7  1  0.77521434  0.92171485  0.31305498  1
  Br  Br8  1  0.14557397  0.37299150  0.45023179  1
  Br  Br9  1  0.54976821  0.85442603  0.62700850  1
  Br  Br10  1  0.31305498  0.77521434  0.92171485  1
  Br  Br11  1  0.07828515  0.68694502  0.22478566  1
loop_
_geom_bond_atom_site_label_1
_geom_bond_atom_site_label_2
_geom_bond_distance
_geom_bond_site_symmetry_2
Be0 Hf1 2.299226 1_555
Be0 Hf4 2.299226 1_444
Be0 Hf5 2.299226 1_555
Be0 Hf0 2.299226 1_444
Be0 Hf2 2.299227 1_555
Be0 Hf3 2.299227 1_444
Br0 Hf5 2.706537 1_656
Br0 Hf3 2.759378 1_545
Br0 Hf0 3.047290 1_555
Br1 Hf4 2.706537 1_544
Br1 Hf5 2.759378 1_655
Br1 Hf1 3.047290 1_555
Br2 Hf2 2.648448 1_555
Br2 Hf1 2.654274 1_555
Br3 Hf0 2.648449 1_555
Br3 Hf3 2.654274 1_555
Br4 Hf3 2.706536 1_445
Br4 Hf1 2.759378 1_556
Br4 Hf2 3.047290 1_555
Br5 Hf4 2.648449 1_555
Br5 Hf0 2.654274 1_555
Br6 Hf1 2.648449 1_555
Br6 Hf5 2.654274 1_555
Br7 Hf2 2.706536 1_665
Br7 Hf4 2.759378 1_554
Br7 Hf3 3.047290 1_555
Br8 Hf5 2.648449 1_555
Br8 Hf2 2.654274 1_555
Br9 Hf3 2.648448 1_555
Br9 Hf4 2.654274 1_555
Br10 Hf1 2.706537 1_566
Br10 Hf0 2.759378 1_455
Br10 Hf4 3.047290 1_555
Br11 Hf0 2.706537 1_454
Br11 Hf2 2.759378 1_565
Br11 Hf5 3.047290 1_555
