# generated using pymatgen
data_TiCd3(Pd2Au)4
_symmetry_space_group_name_H-M   'P 1'
_cell_length_a   5.85649761
_cell_length_b   5.85569216
_cell_length_c   7.61260636
_cell_angle_alpha   89.99973363
_cell_angle_beta   90.00092971
_cell_angle_gamma   89.99154386
_symmetry_Int_Tables_number   1
_chemical_formula_structural   TiCd3(Pd2Au)4
_chemical_formula_sum   'Ti1 Cd3 Pd8 Au4'
_cell_volume   261.06555626
_cell_formula_units_Z   1
loop_
 _symmetry_equiv_pos_site_id
 _symmetry_equiv_pos_as_xyz
  1  'x, y, z'
loop_
 _atom_site_type_symbol
 _atom_site_label
 _atom_site_symmetry_multiplicity
 _atom_site_fract_x
 _atom_site_fract_y
 _atom_site_fract_z
 _atom_site_occupancy
  Ti  Ti0  1  0.25038279  0.25000083  0.00000614  1
  Cd  Cd0  1  0.74960501  0.75000268  0.00000139  1
  Cd  Cd1  1  0.75052100  0.75000900  0.49999428  1
  Cd  Cd2  1  0.24945691  0.24998983  0.50000308  1
  Pd  Pd0  1  0.00675876  0.00677665  0.24228356  1
  Pd  Pd1  1  0.00675511  0.49323433  0.24226248  1
  Pd  Pd2  1  0.49343707  0.00654118  0.24344201  1
  Pd  Pd3  1  0.49342184  0.49343120  0.24344774  1
  Pd  Pd4  1  0.49337628  0.00656640  0.75656991  1
  Pd  Pd5  1  0.49336613  0.49344267  0.75655772  1
  Pd  Pd6  1  0.00670314  0.00675923  0.75769627  1
  Pd  Pd7  1  0.00670068  0.49324450  0.75774218  1
  Au  Au0  1  0.74891726  0.24999571  0.99999889  1
  Au  Au1  1  0.25062485  0.75000548  0.00000556  1
  Au  Au2  1  0.24948253  0.74997305  0.49999095  1
  Au  Au3  1  0.75048865  0.25003026  0.49999784  1
loop_
_geom_bond_atom_site_label_1
_geom_bond_atom_site_label_2
_geom_bond_distance
_geom_bond_site_symmetry_2
Cd0 Pd7 2.815703 1_654
Cd0 Pd1 2.815874 1_655
Cd0 Pd6 2.816163 1_664
Cd0 Pd0 2.816254 1_665
Cd0 Pd2 2.818021 1_565
Cd0 Pd4 2.818202 1_564
Cd0 Pd3 2.818427 1_555
Cd0 Pd5 2.818529 1_554
Cd1 Pd2 2.887375 1_565
Cd1 Pd3 2.887771 1_555
Cd1 Pd4 2.887800 1_565
Cd1 Pd5 2.888017 1_555
Cd1 Pd6 2.891461 1_665
Cd1 Pd7 2.891494 1_655
Cd1 Pd1 2.891650 1_655
Cd1 Pd0 2.891752 1_665
Cd2 Pd4 2.808291 1_555
Cd2 Pd5 2.808507 1_555
Cd2 Pd2 2.808558 1_555
Cd2 Pd3 2.808666 1_555
Cd2 Pd1 2.810370 1_555
Cd2 Pd0 2.810376 1_555
Cd2 Pd6 2.810475 1_555
Cd2 Pd7 2.810595 1_555
Pd0 Ti0 2.732494 1_555
Pd0 Pd1 2.848546 1_555
Pd0 Pd2 2.850244 1_555
Pd0 Pd2 3.006281 1_455
Pd0 Pd1 3.007146 1_545
Pd1 Ti0 2.732214 1_555
Pd1 Pd3 2.850177 1_555
Pd1 Pd3 3.006349 1_455
Pd2 Ti0 2.737185 1_555
Pd2 Pd3 2.851078 1_555
Pd2 Pd3 3.004614 1_545
Pd3 Ti0 2.737306 1_555
Pd4 Ti0 2.736965 1_556
Pd4 Pd6 2.850213 1_555
Pd4 Pd5 2.850998 1_555
Pd4 Pd5 3.004695 1_545
Pd4 Pd6 3.006310 1_655
Pd5 Ti0 2.737229 1_556
Pd5 Pd7 2.850170 1_555
Pd5 Pd7 3.006356 1_655
Pd6 Ti0 2.732861 1_556
Pd6 Pd7 2.848708 1_555
Pd6 Pd7 3.006984 1_545
Pd7 Ti0 2.732411 1_556
Au0 Pd3 2.775801 1_556
Au0 Pd5 2.775932 1_555
Au0 Pd2 2.775999 1_556
Au0 Pd4 2.776020 1_555
Au0 Pd0 2.776646 1_656
Au0 Pd6 2.776654 1_655
Au0 Pd7 2.776670 1_655
Au0 Pd1 2.776824 1_656
Au0 Ti0 2.919666 1_556
Au0 Cd0 2.927807 1_546
Au0 Cd0 2.927890 1_556
Au0 Ti0 2.936832 1_656
Au1 Pd0 2.775186 1_565
Au1 Pd1 2.775309 1_555
Au1 Pd6 2.775417 1_564
Au1 Pd7 2.775452 1_554
Au1 Pd5 2.777076 1_554
Au1 Pd3 2.777210 1_555
Au1 Pd4 2.777256 1_564
Au1 Pd2 2.777341 1_565
Au1 Cd0 2.922276 1_555
Au1 Ti0 2.927819 1_565
Au1 Ti0 2.927874 1_555
Au1 Cd0 2.934222 1_455
Au2 Pd5 2.847904 1_555
Au2 Pd3 2.848021 1_555
Au2 Pd2 2.848390 1_565
Au2 Pd4 2.848424 1_565
Au2 Pd0 2.851316 1_565
Au2 Pd6 2.851455 1_565
Au2 Pd1 2.851468 1_555
Au2 Pd7 2.851737 1_555
Au2 Cd1 2.922167 1_455
Au2 Cd2 2.927748 1_555
Au2 Cd2 2.927944 1_565
Au2 Cd1 2.934331 1_555
Au3 Pd3 2.848070 1_555
Au3 Pd5 2.848370 1_555
Au3 Pd2 2.848543 1_555
Au3 Pd4 2.848766 1_555
Au3 Pd6 2.851062 1_655
Au3 Pd0 2.851308 1_655
Au3 Pd7 2.851359 1_655
Au3 Pd1 2.851474 1_655
Au3 Cd2 2.922206 1_655
Au3 Cd1 2.927722 1_555
Au3 Cd1 2.927971 1_545
Au3 Cd2 2.934291 1_555
