# generated using pymatgen
data_Ba2MnFeN6
_symmetry_space_group_name_H-M   'P 1'
_cell_length_a   6.64759672
_cell_length_b   6.64759715
_cell_length_c   5.76330877
_cell_angle_alpha   90.00000000
_cell_angle_beta   90.00000000
_cell_angle_gamma   143.17863992
_symmetry_Int_Tables_number   1
_chemical_formula_structural   Ba2MnFeN6
_chemical_formula_sum   'Ba2 Mn1 Fe1 N6'
_cell_volume   152.63759608
_cell_formula_units_Z   1
loop_
 _symmetry_equiv_pos_site_id
 _symmetry_equiv_pos_as_xyz
  1  'x, y, z'
loop_
 _atom_site_type_symbol
 _atom_site_label
 _atom_site_symmetry_multiplicity
 _atom_site_fract_x
 _atom_site_fract_y
 _atom_site_fract_z
 _atom_site_occupancy
  Ba  Ba0  1  0.87621178  0.12378722  0.24999900  1
  Ba  Ba1  1  0.12611443  0.87388457  0.75000000  1
  Mn  Mn0  1  0.41522314  0.58477586  0.75000000  1
  Fe  Fe0  1  0.58616872  0.41383028  0.24999900  1
  N  N0  1  0.49759528  0.50240272  0.99964653  1
  N  N1  1  0.02915972  0.67792663  0.24999900  1
  N  N2  1  0.32207237  0.97083828  0.24999900  1
  N  N3  1  0.49759528  0.50240272  0.50035447  1
  N  N4  1  0.67402110  0.02416683  0.75000000  1
  N  N5  1  0.97583117  0.32597790  0.75000000  1
loop_
_geom_bond_atom_site_label_1
_geom_bond_atom_site_label_2
_geom_bond_distance
_geom_bond_site_symmetry_2
Ba0 N2 2.933765 1_545
Ba0 N1 2.933770 1_655
Ba0 N0 2.972256 1_654
Ba0 N0 2.972260 1_544
Ba0 N3 2.972265 1_655
Ba0 N3 2.972268 1_545
Ba0 N4 3.020587 1_554
Ba0 N5 3.020588 1_554
Ba0 N4 3.020598 1_555
Ba0 N5 3.020599 1_555
Ba1 N5 2.904910 1_455
Ba1 N4 2.904914 1_565
Ba1 N1 3.011979 1_556
Ba1 N2 3.011980 1_556
Ba1 N1 3.011990 1_555
Ba1 N2 3.011991 1_555
Ba1 N3 3.017664 1_565
Ba1 N3 3.017666 1_455
Ba1 N0 3.017666 1_565
Ba1 N0 3.017669 1_455
Mn0 N3 1.774780 1_555
Mn0 N0 1.774784 1_555
Mn0 N4 1.856379 1_565
Mn0 N5 1.856384 1_455
Fe0 N0 1.824897 1_554
Fe0 N3 1.824911 1_555
Fe0 N1 1.864664 1_655
Fe0 N2 1.864670 1_545
