# generated using pymatgen
data_NbAs3(S2F3)2
_symmetry_space_group_name_H-M   'P 1'
_cell_length_a   9.37619680
_cell_length_b   6.18311527
_cell_length_c   10.27371583
_cell_angle_alpha   86.60807419
_cell_angle_beta   90.00000000
_cell_angle_gamma   90.00000000
_symmetry_Int_Tables_number   1
_chemical_formula_structural   NbAs3(S2F3)2
_chemical_formula_sum   'Nb2 As6 S8 F12'
_cell_volume   594.56608258
_cell_formula_units_Z   2
loop_
 _symmetry_equiv_pos_site_id
 _symmetry_equiv_pos_as_xyz
  1  'x, y, z'
loop_
 _atom_site_type_symbol
 _atom_site_label
 _atom_site_symmetry_multiplicity
 _atom_site_fract_x
 _atom_site_fract_y
 _atom_site_fract_z
 _atom_site_occupancy
  Nb  Nb0  1  0.75000000  0.49283330  0.82739888  1
  Nb  Nb1  1  0.25000000  0.50716670  0.17260112  1
  As  As0  1  0.25000000  0.06119856  0.51576481  1
  As  As1  1  0.11672851  0.99110189  0.83958709  1
  As  As2  1  0.61672851  0.00889811  0.16041291  1
  As  As3  1  0.75000000  0.93880144  0.48423519  1
  As  As4  1  0.88327149  0.00889811  0.16041291  1
  As  As5  1  0.38327149  0.99110189  0.83958709  1
  S  S0  1  0.06901312  0.14330973  0.64689835  1
  S  S1  1  0.43098688  0.14330973  0.64689835  1
  S  S2  1  0.75000000  0.31096318  0.22897892  1
  S  S3  1  0.25000000  0.68903682  0.77102108  1
  S  S4  1  0.56901312  0.85669027  0.35310165  1
  S  S5  1  0.75000000  0.30183994  0.42444220  1
  S  S6  1  0.93098688  0.85669027  0.35310165  1
  S  S7  1  0.25000000  0.69816006  0.57555780  1
  F  F0  1  0.75000000  0.26980864  0.70269788  1
  F  F1  1  0.60588215  0.32861767  0.92639876  1
  F  F2  1  0.39628111  0.35376290  0.27171953  1
  F  F3  1  0.75000000  0.70884065  0.95508520  1
  F  F4  1  0.10371889  0.35376290  0.27171953  1
  F  F5  1  0.25000000  0.29115935  0.04491480  1
  F  F6  1  0.10588215  0.67138233  0.07360124  1
  F  F7  1  0.60371889  0.64623710  0.72828047  1
  F  F8  1  0.89628111  0.64623710  0.72828047  1
  F  F9  1  0.89411785  0.32861767  0.92639876  1
  F  F10  1  0.39411785  0.67138233  0.07360124  1
  F  F11  1  0.25000000  0.73019136  0.29730212  1
loop_
_geom_bond_atom_site_label_1
_geom_bond_atom_site_label_2
_geom_bond_distance
_geom_bond_site_symmetry_2
As0 S1 2.243530 1_555
As0 S0 2.243530 1_555
As0 S7 2.291923 1_545
As1 S0 2.187312 1_565
As1 S3 2.387816 1_555
As2 S4 2.187312 1_545
As2 S2 2.387816 1_555
As3 S6 2.243530 1_555
As3 S4 2.243530 1_555
As3 S5 2.291923 1_565
As4 S6 2.187312 1_545
As4 S2 2.387816 1_555
As5 S1 2.187312 1_565
As5 S3 2.387816 1_555
S2 S5 2.005587 1_555
S3 S7 2.005587 1_555
F0 Nb0 1.937004 1_555
F1 Nb0 1.941442 1_555
F2 Nb1 1.924455 1_555
F3 Nb0 1.926655 1_555
F4 Nb1 1.924455 1_555
F5 Nb1 1.926655 1_555
F6 Nb1 1.941442 1_555
F7 Nb0 1.924455 1_555
F8 Nb0 1.924455 1_555
F9 Nb0 1.941442 1_555
F10 Nb1 1.941442 1_555
F11 Nb1 1.937004 1_555
