# generated using pymatgen
data_Lu2CF2
_symmetry_space_group_name_H-M   'P 1'
_cell_length_a   3.54013910
_cell_length_b   3.54013941
_cell_length_c   6.15166229
_cell_angle_alpha   90.00000000
_cell_angle_beta   90.00000000
_cell_angle_gamma   119.99996935
_symmetry_Int_Tables_number   1
_chemical_formula_structural   Lu2CF2
_chemical_formula_sum   'Lu2 C1 F2'
_cell_volume   66.76731988
_cell_formula_units_Z   1
loop_
 _symmetry_equiv_pos_site_id
 _symmetry_equiv_pos_as_xyz
  1  'x, y, z'
loop_
 _atom_site_type_symbol
 _atom_site_label
 _atom_site_symmetry_multiplicity
 _atom_site_fract_x
 _atom_site_fract_y
 _atom_site_fract_z
 _atom_site_occupancy
  Lu  Lu0  1  0.66666700  0.33333300  0.78919924  1
  Lu  Lu1  1  0.33333300  0.66666700  0.21078055  1
  C  C0  1  0.00000000  0.00000000  0.00001623  1
  F  F0  1  0.66666700  0.33333300  0.38508895  1
  F  F1  1  0.33333300  0.66666700  0.61491403  1
loop_
_geom_bond_atom_site_label_1
_geom_bond_atom_site_label_2
_geom_bond_distance
_geom_bond_site_symmetry_2
C0 Lu1 2.420447 1_545
C0 Lu1 2.420450 1_445
C0 Lu1 2.420450 1_555
C0 Lu0 2.420620 1_454
C0 Lu0 2.420624 1_554
C0 Lu0 2.420624 1_444
F0 Lu1 2.308099 1_655
F0 Lu1 2.308099 1_545
F0 Lu1 2.308104 1_555
F0 Lu0 2.485950 1_555
F1 Lu0 2.308033 1_455
F1 Lu0 2.308033 1_565
F1 Lu0 2.308037 1_555
F1 Lu1 2.486093 1_555
