# generated using pymatgen
data_Sc4Si6NiIr6
_symmetry_space_group_name_H-M   'P 1'
_cell_length_a   6.91867671
_cell_length_b   6.91867579
_cell_length_c   6.91867670
_cell_angle_alpha   109.29602890
_cell_angle_beta   109.29602295
_cell_angle_gamma   109.82216999
_symmetry_Int_Tables_number   1
_chemical_formula_structural   Sc4Si6NiIr6
_chemical_formula_sum   'Sc4 Si6 Ni1 Ir6'
_cell_volume   254.93824594
_cell_formula_units_Z   1
loop_
 _symmetry_equiv_pos_site_id
 _symmetry_equiv_pos_as_xyz
  1  'x, y, z'
loop_
 _atom_site_type_symbol
 _atom_site_label
 _atom_site_symmetry_multiplicity
 _atom_site_fract_x
 _atom_site_fract_y
 _atom_site_fract_z
 _atom_site_occupancy
  Sc  Sc0  1  0.00128969  0.99871031  0.50000000  1
  Sc  Sc1  1  0.00128969  0.50128969  0.00257839  1
  Sc  Sc2  1  0.49871031  0.99871031  0.99742161  1
  Sc  Sc3  1  0.49871031  0.50128969  0.50000000  1
  Si  Si0  1  0.68261326  0.68261326  0.00000000  1
  Si  Si1  1  0.32387667  0.00344879  0.32042788  1
  Si  Si2  1  0.99655121  0.31697909  0.32042788  1
  Si  Si3  1  0.31738674  0.31738674  1.00000000  1
  Si  Si4  1  0.68302091  0.00344879  0.67957212  1
  Si  Si5  1  0.99655121  0.67612333  0.67957212  1
  Ni  Ni0  1  0.75000000  0.25000000  0.50000000  1
  Ir  Ir0  1  0.74636841  0.49430134  0.25206706  1
  Ir  Ir1  1  0.50569866  0.25363159  0.74793294  1
  Ir  Ir2  1  0.24223428  0.49430134  0.74793294  1
  Ir  Ir3  1  0.25000000  0.75000000  0.50000000  1
  Ir  Ir4  1  0.50569866  0.75776572  0.25206706  1
  Ir  Ir5  1  0.00000000  0.00000000  0.00000000  1
loop_
_geom_bond_atom_site_label_1
_geom_bond_atom_site_label_2
_geom_bond_distance
_geom_bond_site_symmetry_2
Sc0 Si2 2.867671 1_465
Sc0 Si4 2.867671 1_465
Sc0 Si3 2.880983 1_565
Sc0 Si0 2.880983 1_455
Sc0 Si5 2.887177 1_455
Sc0 Si1 2.887177 1_565
Sc1 Si5 2.867665 1_454
Sc1 Si4 2.867670 1_454
Sc1 Si3 2.880982 1_554
Sc1 Si0 2.880983 1_455
Sc1 Si1 2.887178 1_565
Sc1 Si2 2.887183 1_455
Sc2 Si1 2.867665 1_566
Sc2 Si2 2.867671 1_566
Sc2 Si0 2.880981 1_556
Sc2 Si3 2.880983 1_565
Sc2 Si5 2.887178 1_455
Sc2 Si4 2.887183 1_565
Sc3 Si1 2.867671 1_555
Sc3 Si5 2.867672 1_555
Sc3 Si3 2.880983 1_554
Sc3 Si0 2.880983 1_556
Sc3 Si4 2.887177 1_565
Sc3 Si2 2.887177 1_455
Ni0 Si4 2.431691 1_555
Ni0 Si2 2.431691 1_555
Ni0 Si5 2.431691 1_555
Ni0 Si1 2.431692 1_555
Ni0 Sc1 2.845239 1_656
Ni0 Sc2 2.845239 1_544
Ni0 Sc3 2.845244 1_555
Ni0 Sc0 2.845244 1_645
Ir0 Si2 2.451040 1_555
Ir0 Si5 2.451040 1_555
Ir0 Si3 2.460309 1_554
Ir0 Si0 2.513264 1_555
Ir0 Ni0 2.777868 1_555
Ir0 Sc2 2.797265 1_544
Ir0 Sc3 2.797265 1_555
Ir0 Sc0 2.846384 1_655
Ir0 Sc1 2.846390 1_655
Ir1 Si4 2.451040 1_555
Ir1 Si1 2.451040 1_555
Ir1 Si0 2.460309 1_556
Ir1 Si3 2.513264 1_555
Ir1 Ni0 2.777868 1_555
Ir1 Sc3 2.797265 1_555
Ir1 Sc1 2.797265 1_656
Ir1 Sc0 2.846385 1_545
Ir1 Sc2 2.846390 1_545
Ir2 Si5 2.451040 1_455
Ir2 Si2 2.451040 1_455
Ir2 Si3 2.460309 1_555
Ir2 Si0 2.513264 1_556
Ir2 Ni0 2.777869 1_455
Ir2 Sc1 2.797259 1_556
Ir2 Sc0 2.797265 1_545
Ir2 Sc2 2.846384 1_555
Ir2 Sc3 2.846384 1_555
Ir3 Si1 2.476153 1_565
Ir3 Si5 2.476153 1_455
Ir3 Si2 2.476153 1_455
Ir3 Si4 2.476153 1_565
Ir3 Sc0 2.816039 1_555
Ir3 Sc3 2.816039 1_555
Ir3 Sc2 2.816045 1_555
Ir3 Sc1 2.816045 1_555
Ir4 Si1 2.451040 1_565
Ir4 Si4 2.451040 1_565
Ir4 Si0 2.460309 1_555
Ir4 Si3 2.513264 1_554
Ir4 Ni0 2.777868 1_565
Ir4 Sc2 2.797259 1_554
Ir4 Sc0 2.797266 1_655
Ir4 Sc3 2.846384 1_555
Ir4 Sc1 2.846385 1_555
Ir5 Si3 2.524608 1_554
Ir5 Si0 2.524608 1_445
Ir5 Si2 2.565576 1_455
Ir5 Si5 2.565576 1_444
Ir5 Si4 2.565577 1_454
Ir5 Si1 2.565577 1_555
