# generated using pymatgen
data_InPbIO6
_symmetry_space_group_name_H-M   'P 1'
_cell_length_a   5.42746078
_cell_length_b   5.42746260
_cell_length_c   5.27600057
_cell_angle_alpha   90.00000000
_cell_angle_beta   90.00000000
_cell_angle_gamma   120.00001243
_symmetry_Int_Tables_number   1
_chemical_formula_structural   InPbIO6
_chemical_formula_sum   'In1 Pb1 I1 O6'
_cell_volume   134.59500550
_cell_formula_units_Z   1
loop_
 _symmetry_equiv_pos_site_id
 _symmetry_equiv_pos_as_xyz
  1  'x, y, z'
loop_
 _atom_site_type_symbol
 _atom_site_label
 _atom_site_symmetry_multiplicity
 _atom_site_fract_x
 _atom_site_fract_y
 _atom_site_fract_z
 _atom_site_occupancy
  In  In0  1  0.33333300  0.66666600  0.49999900  1
  Pb  Pb0  1  0.66666700  0.33333400  0.00000000  1
  I  I0  1  0.00000000  0.00000000  0.49999900  1
  O  O0  1  0.02083479  0.29540246  0.29472420  1
  O  O1  1  0.70459654  0.72543133  0.29472420  1
  O  O2  1  0.27456867  0.97916621  0.29472420  1
  O  O3  1  0.27456767  0.29540246  0.70527580  1
  O  O4  1  0.02083479  0.72543133  0.70527580  1
  O  O5  1  0.70459754  0.97916621  0.70527580  1
loop_
_geom_bond_atom_site_label_1
_geom_bond_atom_site_label_2
_geom_bond_distance
_geom_bond_site_symmetry_2
In0 O1 2.166171 1_555
In0 O0 2.166171 1_555
In0 O4 2.166176 1_555
In0 O3 2.166177 1_555
In0 O2 2.166178 1_555
In0 O5 2.166182 1_555
I0 O0 1.890758 1_555
I0 O2 1.890760 1_545
I0 O1 1.890762 1_445
I0 O3 1.890764 1_555
I0 O5 1.890766 1_445
I0 O4 1.890769 1_545
O0 Pb0 2.559494 1_455
O1 Pb0 2.559489 1_555
O2 Pb0 2.559491 1_565
O3 Pb0 2.559494 1_556
O4 Pb0 2.559489 1_456
O5 Pb0 2.559492 1_566
