# generated using pymatgen
data_YNi3HgPt
_symmetry_space_group_name_H-M   'P 1'
_cell_length_a   5.00236650
_cell_length_b   5.00236685
_cell_length_c   5.11621628
_cell_angle_alpha   60.73343554
_cell_angle_beta   60.73344339
_cell_angle_gamma   59.99999960
_symmetry_Int_Tables_number   1
_chemical_formula_structural   YNi3HgPt
_chemical_formula_sum   'Y1 Ni3 Hg1 Pt1'
_cell_volume   91.51906553
_cell_formula_units_Z   1
loop_
 _symmetry_equiv_pos_site_id
 _symmetry_equiv_pos_as_xyz
  1  'x, y, z'
loop_
 _atom_site_type_symbol
 _atom_site_label
 _atom_site_symmetry_multiplicity
 _atom_site_fract_x
 _atom_site_fract_y
 _atom_site_fract_z
 _atom_site_occupancy
  Y  Y0  1  0.00019727  0.00019727  0.99940920  1
  Ni  Ni0  1  0.62522636  0.12967961  0.61986867  1
  Ni  Ni1  1  0.12967961  0.62522636  0.61986867  1
  Ni  Ni2  1  0.62522636  0.62522636  0.61986867  1
  Hg  Hg0  1  0.24327413  0.24327413  0.27017862  1
  Pt  Pt0  1  0.62639728  0.62639728  0.12080916  1
loop_
_geom_bond_atom_site_label_1
_geom_bond_atom_site_label_2
_geom_bond_distance
_geom_bond_site_symmetry_2
Ni0 Ni1 2.478907 1_555
Ni0 Ni2 2.478907 1_555
Ni0 Ni1 2.523460 1_645
Ni0 Ni2 2.523460 1_545
Ni0 Pt0 2.547584 1_555
Ni0 Pt0 2.568661 1_546
Ni0 Y0 2.970716 1_655
Ni0 Y0 2.970717 1_555
Ni0 Y0 2.998057 1_654
Ni1 Ni2 2.478906 1_555
Ni1 Ni2 2.523460 1_455
Ni1 Pt0 2.547584 1_555
Ni1 Pt0 2.568661 1_456
Ni1 Y0 2.970716 1_565
Ni1 Y0 2.970717 1_555
Ni1 Y0 2.998057 1_564
Ni2 Pt0 2.547583 1_555
Ni2 Pt0 2.568661 1_556
Ni2 Y0 2.970716 1_655
Ni2 Y0 2.970716 1_565
Ni2 Y0 2.998057 1_664
Hg0 Ni0 2.904640 1_555
Hg0 Ni1 2.904640 1_555
Hg0 Ni2 2.904640 1_545
Hg0 Ni2 2.904641 1_455
Hg0 Ni1 2.904641 1_545
Hg0 Ni0 2.904641 1_455
Hg0 Pt0 2.956202 1_455
Hg0 Pt0 2.956202 1_545
Hg0 Pt0 2.956203 1_555
Hg0 Y0 3.079603 1_555
Hg0 Ni1 3.096864 1_554
Hg0 Ni0 3.096865 1_554
Hg0 Ni2 3.096865 1_554
Hg0 Y0 3.106248 1_554
Hg0 Y0 3.106248 1_564
Hg0 Y0 3.106248 1_654
Pt0 Y0 2.933269 1_564
Pt0 Y0 2.933269 1_654
Pt0 Y0 2.933269 1_664
