# generated using pymatgen
data_La2Cd17
_symmetry_space_group_name_H-M   'P 1'
_cell_length_a   10.07617581
_cell_length_b   10.07617580
_cell_length_c   9.90750371
_cell_angle_alpha   90.00000000
_cell_angle_beta   90.00000000
_cell_angle_gamma   120.00000346
_symmetry_Int_Tables_number   1
_chemical_formula_structural   La2Cd17
_chemical_formula_sum   'La4 Cd34'
_cell_volume   871.13674507
_cell_formula_units_Z   2
loop_
 _symmetry_equiv_pos_site_id
 _symmetry_equiv_pos_as_xyz
  1  'x, y, z'
loop_
 _atom_site_type_symbol
 _atom_site_label
 _atom_site_symmetry_multiplicity
 _atom_site_fract_x
 _atom_site_fract_y
 _atom_site_fract_z
 _atom_site_occupancy
  La  La0  1  0.00000000  -0.00000000  0.25000000  1
  La  La1  1  0.00000000  0.00000000  0.75000000  1
  La  La2  1  0.33333300  0.66666700  0.75000000  1
  La  La3  1  0.66666700  0.33333300  0.25000000  1
  Cd  Cd0  1  0.33333300  0.66666700  0.09958050  1
  Cd  Cd1  1  0.66666700  0.33333300  0.59958050  1
  Cd  Cd2  1  0.66666700  0.33333300  0.90041950  1
  Cd  Cd3  1  0.33333300  0.66666700  0.40041950  1
  Cd  Cd4  1  0.50000000  0.00000000  0.00000000  1
  Cd  Cd5  1  0.50000000  0.50000000  0.50000000  1
  Cd  Cd6  1  0.00000000  0.50000000  0.50000000  1
  Cd  Cd7  1  0.00000000  0.50000000  0.00000000  1
  Cd  Cd8  1  0.50000000  0.50000000  0.00000000  1
  Cd  Cd9  1  0.50000000  0.00000000  0.50000000  1
  Cd  Cd10  1  0.03856077  0.67255960  0.25000000  1
  Cd  Cd11  1  0.36600017  0.03856077  0.75000000  1
  Cd  Cd12  1  0.67255960  0.63399983  0.75000000  1
  Cd  Cd13  1  0.32743940  0.36600017  0.25000000  1
  Cd  Cd14  1  0.63399983  0.96143923  0.25000000  1
  Cd  Cd15  1  0.36600017  0.32743940  0.75000000  1
  Cd  Cd16  1  0.96143923  0.63399983  0.75000000  1
  Cd  Cd17  1  0.96143923  0.32743940  0.75000000  1
  Cd  Cd18  1  0.67255960  0.03856077  0.75000000  1
  Cd  Cd19  1  0.32743940  0.96143923  0.25000000  1
  Cd  Cd20  1  0.63399983  0.67255960  0.25000000  1
  Cd  Cd21  1  0.03856077  0.36600017  0.25000000  1
  Cd  Cd22  1  0.16058616  0.32117432  0.97313418  1
  Cd  Cd23  1  0.83941384  0.16058616  0.47313418  1
  Cd  Cd24  1  0.32117432  0.16058616  0.47313418  1
  Cd  Cd25  1  0.67882568  0.83941384  0.97313418  1
  Cd  Cd26  1  0.16058616  0.83941384  0.97313418  1
  Cd  Cd27  1  0.83941384  0.67882568  0.02686582  1
  Cd  Cd28  1  0.83941384  0.16058616  0.02686582  1
  Cd  Cd29  1  0.83941384  0.67882568  0.47313418  1
  Cd  Cd30  1  0.32117432  0.16058616  0.02686582  1
  Cd  Cd31  1  0.67882568  0.83941384  0.52686582  1
  Cd  Cd32  1  0.16058616  0.32117432  0.52686582  1
  Cd  Cd33  1  0.16058616  0.83941384  0.52686582  1
loop_
_geom_bond_atom_site_label_1
_geom_bond_atom_site_label_2
_geom_bond_distance
_geom_bond_site_symmetry_2
Cd0 Cd3 2.980564 1_555
Cd0 Cd4 3.071502 1_565
Cd0 Cd7 3.071502 1_555
Cd0 Cd8 3.071511 1_555
Cd0 Cd22 3.264770 1_554
Cd0 Cd25 3.264770 1_554
Cd0 Cd26 3.264779 1_554
Cd0 Cd10 3.350040 1_555
Cd0 Cd19 3.350045 1_555
Cd0 Cd21 3.350049 1_555
Cd0 Cd14 3.350049 1_555
Cd0 Cd13 3.350054 1_555
Cd0 Cd20 3.350058 1_555
Cd0 La2 3.463470 1_554
Cd1 Cd2 2.980564 1_555
Cd1 Cd9 3.071502 1_555
Cd1 Cd6 3.071502 1_655
Cd1 Cd5 3.071511 1_555
Cd1 Cd29 3.264770 1_555
Cd1 Cd24 3.264770 1_555
Cd1 Cd23 3.264779 1_555
Cd1 Cd18 3.350040 1_555
Cd1 Cd17 3.350045 1_555
Cd1 Cd16 3.350049 1_555
Cd1 Cd11 3.350049 1_555
Cd1 Cd15 3.350054 1_555
Cd1 Cd12 3.350058 1_555
Cd1 La3 3.463470 1_555
Cd2 Cd4 3.071502 1_556
Cd2 Cd7 3.071502 1_656
Cd2 Cd8 3.071511 1_556
Cd2 Cd27 3.264770 1_556
Cd2 Cd30 3.264770 1_556
Cd2 Cd28 3.264779 1_556
Cd2 La3 3.463470 1_556
Cd3 Cd9 3.071502 1_565
Cd3 Cd6 3.071502 1_555
Cd3 Cd5 3.071511 1_555
Cd3 Cd32 3.264770 1_555
Cd3 Cd31 3.264770 1_555
Cd3 Cd33 3.264779 1_555
Cd3 La2 3.463470 1_555
Cd4 La2 3.820428 1_544
Cd4 La3 3.820428 1_555
Cd5 La2 3.820435 1_555
Cd5 La3 3.820435 1_555
Cd6 La2 3.820428 1_555
Cd6 La3 3.820428 1_455
Cd7 La3 3.820428 1_455
Cd7 La2 3.820428 1_554
Cd8 La2 3.820435 1_554
Cd8 La3 3.820435 1_555
Cd9 La2 3.820428 1_545
Cd9 La3 3.820428 1_555
Cd10 Cd19 2.910797 1_555
Cd10 Cd7 2.938286 1_555
Cd10 Cd6 2.938286 1_555
Cd10 Cd27 3.007406 1_455
Cd10 Cd29 3.007406 1_455
Cd10 Cd21 3.088947 1_555
Cd10 Cd26 3.129782 1_554
Cd10 Cd33 3.129782 1_555
Cd10 Cd3 3.350040 1_555
Cd10 La0 3.509787 1_565
Cd10 La3 3.594009 1_455
Cd11 Cd15 2.910792 1_555
Cd11 Cd9 2.938291 1_555
Cd11 Cd4 2.938291 1_556
Cd11 Cd26 3.007409 1_545
Cd11 Cd33 3.007409 1_545
Cd11 Cd18 3.088947 1_555
Cd11 Cd30 3.129772 1_556
Cd11 Cd24 3.129772 1_555
Cd11 Cd2 3.350049 1_555
Cd11 La1 3.509777 1_555
Cd11 La2 3.594010 1_545
Cd12 Cd16 2.910802 1_555
Cd12 Cd5 2.938287 1_555
Cd12 Cd8 2.938287 1_556
Cd12 Cd25 3.007413 1_555
Cd12 Cd31 3.007413 1_555
Cd12 Cd15 3.088952 1_555
Cd12 Cd29 3.129786 1_555
Cd12 Cd27 3.129786 1_556
Cd12 Cd2 3.350058 1_555
Cd12 La1 3.509781 1_665
Cd12 La2 3.594010 1_555
Cd13 Cd21 2.910792 1_555
Cd13 Cd5 2.938291 1_555
Cd13 Cd8 2.938291 1_555
Cd13 Cd30 3.007416 1_555
Cd13 Cd24 3.007416 1_555
Cd13 Cd20 3.088952 1_555
Cd13 Cd22 3.129781 1_554
Cd13 Cd32 3.129781 1_555
Cd13 Cd3 3.350054 1_555
Cd13 La0 3.509777 1_555
Cd13 La3 3.594020 1_555
Cd14 Cd20 2.910802 1_555
Cd14 Cd4 2.938291 1_565
Cd14 Cd9 2.938291 1_565
Cd14 Cd23 3.007409 1_565
Cd14 Cd28 3.007409 1_565
Cd14 Cd19 3.088957 1_555
Cd14 Cd31 3.129772 1_555
Cd14 Cd25 3.129772 1_554
Cd14 Cd3 3.350049 1_555
Cd14 La0 3.509777 1_665
Cd14 La3 3.594010 1_565
Cd15 Cd5 2.938291 1_555
Cd15 Cd8 2.938291 1_556
Cd15 Cd22 3.007416 1_555
Cd15 Cd32 3.007416 1_555
Cd15 Cd30 3.129781 1_556
Cd15 Cd24 3.129781 1_555
Cd15 Cd2 3.350054 1_555
Cd15 La1 3.509777 1_555
Cd15 La2 3.594020 1_555
Cd16 Cd7 2.938291 1_656
Cd16 Cd6 2.938291 1_655
Cd16 Cd26 3.007409 1_655
Cd16 Cd33 3.007409 1_655
Cd16 Cd17 3.088957 1_555
Cd16 Cd29 3.129772 1_555
Cd16 Cd27 3.129772 1_556
Cd16 Cd2 3.350049 1_555
Cd16 La1 3.509777 1_665
Cd16 La2 3.594010 1_655
Cd17 Cd18 2.910797 1_555
Cd17 Cd6 2.938291 1_655
Cd17 Cd7 2.938291 1_656
Cd17 Cd32 3.007402 1_655
Cd17 Cd22 3.007402 1_655
Cd17 Cd23 3.129779 1_555
Cd17 Cd28 3.129779 1_556
Cd17 Cd2 3.350045 1_555
Cd17 La1 3.509777 1_655
Cd17 La2 3.594014 1_655
Cd18 Cd4 2.938286 1_556
Cd18 Cd9 2.938286 1_555
Cd18 Cd25 3.007406 1_545
Cd18 Cd31 3.007406 1_545
Cd18 Cd23 3.129782 1_555
Cd18 Cd28 3.129782 1_556
Cd18 Cd2 3.350040 1_555
Cd18 La1 3.509787 1_655
Cd18 La2 3.594009 1_545
Cd19 Cd4 2.938291 1_565
Cd19 Cd9 2.938291 1_565
Cd19 Cd30 3.007402 1_565
Cd19 Cd24 3.007402 1_565
Cd19 Cd26 3.129779 1_554
Cd19 Cd33 3.129779 1_555
Cd19 Cd3 3.350045 1_555
Cd19 La0 3.509777 1_565
Cd19 La3 3.594014 1_565
Cd20 Cd5 2.938287 1_555
Cd20 Cd8 2.938287 1_555
Cd20 Cd29 3.007413 1_555
Cd20 Cd27 3.007413 1_555
Cd20 Cd25 3.129786 1_554
Cd20 Cd31 3.129786 1_555
Cd20 Cd3 3.350058 1_555
Cd20 La0 3.509781 1_665
Cd20 La3 3.594010 1_555
Cd21 Cd7 2.938291 1_555
Cd21 Cd6 2.938291 1_555
Cd21 Cd28 3.007409 1_455
Cd21 Cd23 3.007409 1_455
Cd21 Cd32 3.129772 1_555
Cd21 Cd22 3.129772 1_554
Cd21 Cd3 3.350049 1_555
Cd21 La0 3.509777 1_555
Cd21 La3 3.594010 1_455
Cd22 Cd28 2.852732 1_456
Cd22 Cd30 2.852767 1_556
Cd22 Cd7 2.975140 1_556
Cd22 Cd8 2.975157 1_556
Cd22 La1 3.569593 1_555
Cd22 La2 3.738517 1_555
Cd22 La0 3.921620 1_556
Cd23 Cd31 2.852732 1_545
Cd23 Cd32 2.852732 1_655
Cd23 Cd6 2.975157 1_655
Cd23 Cd9 2.975157 1_555
Cd23 La0 3.569579 1_655
Cd23 La3 3.738524 1_555
Cd23 La1 3.921608 1_655
Cd24 Cd33 2.852732 1_545
Cd24 Cd32 2.852767 1_555
Cd24 Cd9 2.975140 1_555
Cd24 Cd5 2.975157 1_555
Cd24 La0 3.569593 1_555
Cd24 La3 3.738517 1_555
Cd24 La1 3.921620 1_555
Cd25 Cd28 2.852732 1_566
Cd25 Cd27 2.852767 1_556
Cd25 Cd4 2.975140 1_566
Cd25 Cd8 2.975157 1_556
Cd25 La1 3.569593 1_665
Cd25 La2 3.738517 1_555
Cd25 La0 3.921620 1_666
Cd26 Cd30 2.852732 1_566
Cd26 Cd27 2.852732 1_456
Cd26 Cd7 2.975157 1_556
Cd26 Cd4 2.975157 1_566
Cd26 La1 3.569579 1_565
Cd26 La2 3.738524 1_555
Cd26 La0 3.921608 1_566
Cd27 Cd7 2.975140 1_655
Cd27 Cd8 2.975157 1_555
Cd27 La0 3.569593 1_665
Cd27 La3 3.738517 1_555
Cd27 La1 3.921620 1_664
Cd28 Cd7 2.975157 1_655
Cd28 Cd4 2.975157 1_555
Cd28 La0 3.569579 1_655
Cd28 La3 3.738524 1_555
Cd28 La1 3.921608 1_654
Cd29 Cd33 2.852732 1_655
Cd29 Cd31 2.852767 1_555
Cd29 Cd6 2.975140 1_655
Cd29 Cd5 2.975157 1_555
Cd29 La0 3.569593 1_665
Cd29 La3 3.738517 1_555
Cd29 La1 3.921620 1_665
Cd30 Cd4 2.975140 1_555
Cd30 Cd8 2.975157 1_555
Cd30 La0 3.569593 1_555
Cd30 La3 3.738517 1_555
Cd30 La1 3.921620 1_554
Cd31 Cd9 2.975140 1_565
Cd31 Cd5 2.975157 1_555
Cd31 La1 3.569593 1_665
Cd31 La2 3.738517 1_555
Cd31 La0 3.921620 1_665
Cd32 Cd6 2.975140 1_555
Cd32 Cd5 2.975157 1_555
Cd32 La1 3.569593 1_555
Cd32 La2 3.738517 1_555
Cd32 La0 3.921620 1_555
Cd33 Cd6 2.975157 1_555
Cd33 Cd9 2.975157 1_565
Cd33 La1 3.569579 1_565
Cd33 La2 3.738524 1_555
Cd33 La0 3.921608 1_565
