# generated using pymatgen
data_Hf5Ga16PRh7
_symmetry_space_group_name_H-M   'P 1'
_cell_length_a   8.68520332
_cell_length_b   8.68520434
_cell_length_c   8.56630699
_cell_angle_alpha   60.45182591
_cell_angle_beta   60.45182208
_cell_angle_gamma   59.09635960
_symmetry_Int_Tables_number   1
_chemical_formula_structural   Hf5Ga16PRh7
_chemical_formula_sum   'Hf5 Ga16 P1 Rh7'
_cell_volume   456.74949599
_cell_formula_units_Z   1
loop_
 _symmetry_equiv_pos_site_id
 _symmetry_equiv_pos_as_xyz
  1  'x, y, z'
loop_
 _atom_site_type_symbol
 _atom_site_label
 _atom_site_symmetry_multiplicity
 _atom_site_fract_x
 _atom_site_fract_y
 _atom_site_fract_z
 _atom_site_occupancy
  Hf  Hf0  1  0.29360182  0.70874336  0.29125664  1
  Hf  Hf1  1  0.70874336  0.29360182  0.29125664  1
  Hf  Hf2  1  0.31448623  0.31448623  0.68551377  1
  Hf  Hf3  1  0.70874336  0.29360182  0.70639818  1
  Hf  Hf4  1  0.29360182  0.70874336  0.70639818  1
  Ga  Ga0  1  0.87906979  0.87906979  0.35704299  1
  Ga  Ga1  1  0.88219071  0.37985486  0.86897821  1
  Ga  Ga2  1  0.37985486  0.88219071  0.86897821  1
  Ga  Ga3  1  0.87906979  0.87906979  0.88481843  1
  Ga  Ga4  1  0.13102179  0.13102179  0.62014514  1
  Ga  Ga5  1  0.11518157  0.64295701  0.12093021  1
  Ga  Ga6  1  0.64295701  0.11518157  0.12093021  1
  Ga  Ga7  1  0.13102179  0.13102179  0.11780929  1
  Ga  Ga8  1  0.66327513  0.66327513  0.05617059  1
  Ga  Ga9  1  0.67154047  0.02964758  0.64940598  1
  Ga  Ga10  1  0.02964758  0.67154047  0.64940598  1
  Ga  Ga11  1  0.66327513  0.66327513  0.61727715  1
  Ga  Ga12  1  0.35059402  0.35059402  0.97035242  1
  Ga  Ga13  1  0.38272285  0.94382941  0.33672487  1
  Ga  Ga14  1  0.94382941  0.38272285  0.33672487  1
  Ga  Ga15  1  0.35059402  0.35059402  0.32845953  1
  P  P0  1  0.52486587  0.52486587  0.47513413  1
  Rh  Rh0  1  0.01183718  0.01183718  0.98816282  1
  Rh  Rh1  1  0.01223796  0.01223796  0.48776204  1
  Rh  Rh2  1  0.50218355  0.00971471  0.49781645  1
  Rh  Rh3  1  0.00971471  0.50218355  0.49781645  1
  Rh  Rh4  1  0.51223796  0.51223796  0.98776204  1
  Rh  Rh5  1  0.00971471  0.50218355  0.99028529  1
  Rh  Rh6  1  0.50218355  0.00971471  0.99028529  1
loop_
_geom_bond_atom_site_label_1
_geom_bond_atom_site_label_2
_geom_bond_distance
_geom_bond_site_symmetry_2
Hf0 P0 2.531873 1_555
Hf0 Rh4 3.075042 1_554
Hf0 Rh1 3.075043 1_565
Hf1 P0 2.531873 1_555
Hf1 Rh4 3.075042 1_554
Hf1 Rh1 3.075043 1_655
Hf2 P0 2.618933 1_555
Hf2 Rh3 3.070744 1_555
Hf2 Rh5 3.070744 1_555
Hf2 Rh6 3.070744 1_555
Hf2 Rh2 3.070744 1_555
Hf3 P0 2.531873 1_555
Hf3 Rh4 3.075042 1_555
Hf3 Rh1 3.075043 1_655
Hf4 P0 2.531873 1_555
Hf4 Rh4 3.075042 1_555
Hf4 Rh1 3.075043 1_565
Ga0 Rh0 2.612014 1_664
Ga0 Rh2 2.664119 1_565
Ga0 Rh3 2.664120 1_655
Ga0 Rh1 2.803248 1_665
Ga0 Hf0 2.969576 1_655
Ga0 Hf1 2.969576 1_565
Ga1 Rh0 2.597104 1_655
Ga1 Rh4 2.610723 1_555
Ga1 Rh5 2.620727 1_655
Ga1 Rh3 2.620740 1_655
Ga1 Hf2 3.124041 1_655
Ga2 Rh0 2.597104 1_565
Ga2 Rh4 2.610723 1_555
Ga2 Rh6 2.620727 1_565
Ga2 Rh2 2.620740 1_565
Ga2 Hf2 3.124042 1_565
Ga3 Rh0 2.612007 1_665
Ga3 Rh6 2.664120 1_565
Ga3 Rh5 2.664120 1_655
Ga3 Rh1 2.803255 1_665
Ga3 Hf4 2.969577 1_655
Ga3 Hf3 2.969578 1_565
Ga4 Rh0 2.597104 1_555
Ga4 Rh1 2.610709 1_555
Ga4 Rh2 2.620741 1_555
Ga4 Rh3 2.620741 1_555
Ga4 Hf2 3.124056 1_555
Ga5 Rh0 2.612015 1_564
Ga5 Rh5 2.664112 1_554
Ga5 Rh3 2.664119 1_555
Ga5 Rh4 2.803255 1_554
Ga5 Hf4 2.969576 1_554
Ga5 Hf0 2.969583 1_555
Ga6 Rh0 2.612014 1_654
Ga6 Rh6 2.664112 1_554
Ga6 Rh2 2.664119 1_555
Ga6 Rh4 2.803255 1_554
Ga6 Hf3 2.969576 1_554
Ga6 Hf1 2.969583 1_555
Ga7 Rh0 2.597090 1_554
Ga7 Rh1 2.610723 1_555
Ga7 Rh6 2.620741 1_554
Ga7 Rh5 2.620741 1_554
Ga7 Hf2 3.124045 1_554
Ga8 Rh5 2.471670 1_654
Ga8 Rh6 2.471670 1_564
Ga8 Rh4 2.658751 1_554
Ga8 Hf0 2.761284 1_555
Ga8 Hf1 2.761285 1_555
Ga9 Rh2 2.499397 1_555
Ga9 Rh6 2.499397 1_555
Ga9 Rh1 2.530167 1_655
Ga9 Hf1 2.760194 1_555
Ga9 Hf3 2.760194 1_555
Ga9 Hf2 2.785828 1_555
Ga10 Rh3 2.499397 1_555
Ga10 Rh5 2.499397 1_555
Ga10 Rh1 2.530167 1_565
Ga10 Hf0 2.760194 1_555
Ga10 Hf4 2.760194 1_555
Ga10 Hf2 2.785828 1_555
Ga11 Rh3 2.471668 1_655
Ga11 Rh2 2.471669 1_565
Ga11 Rh4 2.658763 1_555
Ga11 Hf4 2.761281 1_555
Ga11 Hf3 2.761281 1_555
Ga12 Rh5 2.499397 1_555
Ga12 Rh6 2.499397 1_555
Ga12 Rh4 2.530167 1_555
Ga12 Hf3 2.760194 1_555
Ga12 Hf4 2.760194 1_555
Ga12 Hf2 2.785828 1_555
Ga13 Rh2 2.471656 1_565
Ga13 Rh6 2.471671 1_564
Ga13 Rh1 2.658766 1_565
Ga13 Hf4 2.761286 1_555
Ga13 Hf0 2.761297 1_555
Ga14 Rh3 2.471656 1_655
Ga14 Rh5 2.471671 1_654
Ga14 Rh1 2.658766 1_655
Ga14 Hf3 2.761286 1_555
Ga14 Hf1 2.761297 1_555
Ga15 Rh3 2.499397 1_555
Ga15 Rh2 2.499397 1_555
Ga15 Rh4 2.530167 1_554
Ga15 Hf1 2.760194 1_555
Ga15 Hf0 2.760194 1_555
Ga15 Hf2 2.785828 1_555
