# generated using pymatgen
data_YAgO2
_symmetry_space_group_name_H-M   'P 1'
_cell_length_a   3.50492912
_cell_length_b   3.50493069
_cell_length_c   12.39250308
_cell_angle_alpha   90.00000000
_cell_angle_beta   90.00000000
_cell_angle_gamma   120.00000438
_symmetry_Int_Tables_number   1
_chemical_formula_structural   YAgO2
_chemical_formula_sum   'Y2 Ag2 O4'
_cell_volume   131.84034243
_cell_formula_units_Z   2
loop_
 _symmetry_equiv_pos_site_id
 _symmetry_equiv_pos_as_xyz
  1  'x, y, z'
loop_
 _atom_site_type_symbol
 _atom_site_label
 _atom_site_symmetry_multiplicity
 _atom_site_fract_x
 _atom_site_fract_y
 _atom_site_fract_z
 _atom_site_occupancy
  Y  Y0  1  0.00000000  -0.00000000  -0.00000000  1
  Y  Y1  1  0.00000000  -0.00000000  0.50000000  1
  Ag  Ag0  1  0.33333300  0.66666700  0.25000000  1
  Ag  Ag1  1  0.66666700  0.33333300  0.75000000  1
  O  O0  1  0.33333300  0.66666700  0.08405777  1
  O  O1  1  0.66666700  0.33333300  0.58405777  1
  O  O2  1  0.66666700  0.33333300  0.91594223  1
  O  O3  1  0.33333300  0.66666700  0.41594223  1
loop_
_geom_bond_atom_site_label_1
_geom_bond_atom_site_label_2
_geom_bond_distance
_geom_bond_site_symmetry_2
Ag0 O0 2.056440 1_555
Ag0 O3 2.056440 1_555
Ag1 O2 2.056440 1_555
Ag1 O1 2.056440 1_555
O0 Y0 2.275950 1_565
O0 Y0 2.275952 1_665
O0 Y0 2.275953 1_555
O1 Y1 2.275950 1_655
O1 Y1 2.275952 1_555
O1 Y1 2.275953 1_665
O2 Y0 2.275950 1_656
O2 Y0 2.275952 1_556
O2 Y0 2.275953 1_666
O3 Y1 2.275950 1_565
O3 Y1 2.275952 1_665
O3 Y1 2.275953 1_555
