# generated using pymatgen
data_ZrAl4(GaCu3)2
_symmetry_space_group_name_H-M   'P 1'
_cell_length_a   6.47303327
_cell_length_b   6.47303219
_cell_length_c   6.47274880
_cell_angle_alpha   133.96209823
_cell_angle_beta   99.77693881
_cell_angle_gamma   97.81891326
_symmetry_Int_Tables_number   1
_chemical_formula_structural   ZrAl4(GaCu3)2
_chemical_formula_sum   'Zr1 Al4 Ga2 Cu6'
_cell_volume   179.63244364
_cell_formula_units_Z   1
loop_
 _symmetry_equiv_pos_site_id
 _symmetry_equiv_pos_as_xyz
  1  'x, y, z'
loop_
 _atom_site_type_symbol
 _atom_site_label
 _atom_site_symmetry_multiplicity
 _atom_site_fract_x
 _atom_site_fract_y
 _atom_site_fract_z
 _atom_site_occupancy
  Zr  Zr0  1  0.00000000  0.00000000  0.00000000  1
  Al  Al0  1  0.65768977  0.65768977  1.00000000  1
  Al  Al1  1  0.34231023  0.34231023  0.00000000  1
  Al  Al2  1  0.17909211  0.67909211  0.50000000  1
  Al  Al3  1  0.82090789  0.32090789  0.50000000  1
  Ga  Ga0  1  0.34657542  0.00048573  0.34706115  1
  Ga  Ga1  1  0.65342458  0.99951427  0.65293885  1
  Cu  Cu0  1  0.75984765  0.49956139  0.25940904  1
  Cu  Cu1  1  0.24015235  0.50043861  0.74059096  1
  Cu  Cu2  1  0.00000000  0.00000000  0.50000000  1
  Cu  Cu3  1  0.00000000  0.50000000  0.00000000  1
  Cu  Cu4  1  0.50000000  0.00000000  0.00000000  1
  Cu  Cu5  1  0.50000000  0.50000000  0.50000000  1
loop_
_geom_bond_atom_site_label_1
_geom_bond_atom_site_label_2
_geom_bond_distance
_geom_bond_site_symmetry_2
Al0 Cu0 2.549023 1_556
Al0 Cu1 2.549023 1_555
Al0 Cu5 2.562432 1_555
Al0 Cu2 2.562432 1_666
Al0 Cu4 2.562611 1_566
Al0 Cu3 2.562612 1_656
Al0 Al1 2.683505 1_556
Al0 Al3 2.887103 1_566
Al0 Al3 2.887103 1_555
Al0 Zr0 2.912654 1_666
Al0 Ga1 3.135516 1_556
Al0 Ga0 3.135516 1_555
Al0 Ga1 3.139662 1_545
Al0 Ga0 3.139663 1_566
Al1 Cu1 2.549023 1_554
Al1 Cu0 2.549023 1_555
Al1 Cu5 2.562432 1_555
Al1 Cu2 2.562432 1_554
Al1 Cu4 2.562611 1_555
Al1 Cu3 2.562612 1_555
Al1 Al2 2.887103 1_544
Al1 Al2 2.887103 1_555
Al1 Zr0 2.912654 1_555
Al1 Ga0 3.135516 1_554
Al1 Ga1 3.135516 1_555
Al1 Ga0 3.139662 1_565
Al1 Ga1 3.139663 1_544
Al2 Cu3 2.512598 1_555
Al2 Cu4 2.512598 1_566
Al2 Cu2 2.512781 1_565
Al2 Cu5 2.512781 1_555
Al2 Cu1 2.516803 1_555
Al2 Cu0 2.516803 1_455
Al2 Zr0 2.954450 1_555
Al2 Zr0 2.954450 1_566
Al3 Cu3 2.512598 1_656
Al3 Cu4 2.512598 1_555
Al3 Cu2 2.512781 1_655
Al3 Cu5 2.512781 1_555
Al3 Cu0 2.516803 1_555
Al3 Cu1 2.516803 1_655
Al3 Zr0 2.954450 1_666
Al3 Zr0 2.954450 1_655
Ga0 Ga1 2.559335 1_545
Ga0 Zr0 2.890674 1_555
Ga1 Zr0 2.890674 1_666
Cu0 Cu4 2.475432 1_555
Cu0 Cu3 2.475432 1_655
Cu0 Cu2 2.477708 1_665
Cu0 Cu5 2.477708 1_555
Cu0 Ga1 2.682109 1_555
Cu0 Ga1 2.682414 1_544
Cu0 Zr0 3.226207 1_655
Cu0 Zr0 3.229416 1_666
Cu1 Cu4 2.475432 1_566
Cu1 Cu3 2.475432 1_556
Cu1 Cu2 2.477708 1_555
Cu1 Cu5 2.477708 1_555
Cu1 Ga0 2.682109 1_555
Cu1 Ga0 2.682414 1_566
Cu1 Zr0 3.226207 1_566
Cu1 Zr0 3.229416 1_555
Cu2 Cu3 2.531130 1_556
Cu2 Cu3 2.531130 1_545
Cu2 Ga0 2.601816 1_555
Cu2 Ga1 2.601816 1_445
Cu2 Zr0 3.236374 1_555
Cu2 Zr0 3.236374 1_556
Cu3 Ga0 2.604139 1_565
Cu3 Ga1 2.604139 1_444
Cu3 Zr0 3.236516 1_555
Cu3 Zr0 3.236516 1_565
Cu4 Cu5 2.531130 1_544
Cu4 Cu5 2.531130 1_555
Cu4 Ga1 2.604139 1_544
Cu4 Ga0 2.604139 1_555
Cu4 Zr0 3.236517 1_555
Cu4 Zr0 3.236517 1_655
Cu5 Ga1 2.601816 1_555
Cu5 Ga0 2.601816 1_555
Cu5 Zr0 3.236375 1_666
Cu5 Zr0 3.236375 1_555
