# generated using pymatgen
data_SrHf2H7
_symmetry_space_group_name_H-M   'P 1'
_cell_length_a   6.64995078
_cell_length_b   6.64995158
_cell_length_c   6.64995081
_cell_angle_alpha   59.99999894
_cell_angle_beta   59.99999493
_cell_angle_gamma   60.00000347
_symmetry_Int_Tables_number   1
_chemical_formula_structural   SrHf2H7
_chemical_formula_sum   'Sr2 Hf4 H14'
_cell_volume   207.94110147
_cell_formula_units_Z   2
loop_
 _symmetry_equiv_pos_site_id
 _symmetry_equiv_pos_as_xyz
  1  'x, y, z'
loop_
 _atom_site_type_symbol
 _atom_site_label
 _atom_site_symmetry_multiplicity
 _atom_site_fract_x
 _atom_site_fract_y
 _atom_site_fract_z
 _atom_site_occupancy
  Sr  Sr0  1  0.25000000  0.25000000  0.25000000  1
  Sr  Sr1  1  0.00000000  0.00000000  0.00000000  1
  Hf  Hf0  1  0.62500000  0.62500000  0.12500000  1
  Hf  Hf1  1  0.62500000  0.12500000  0.62500000  1
  Hf  Hf2  1  0.12500000  0.62500000  0.62500000  1
  Hf  Hf3  1  0.62500000  0.62500000  0.62500000  1
  H  H0  1  0.74020181  0.25979819  0.74020181  1
  H  H1  1  0.99020181  0.50979819  0.99020181  1
  H  H2  1  0.74020181  0.74020181  0.25979819  1
  H  H3  1  0.25979819  0.74020181  0.74020181  1
  H  H4  1  0.74020181  0.25979819  0.25979819  1
  H  H5  1  0.25979819  0.25979819  0.74020181  1
  H  H6  1  0.50000000  0.50000000  0.50000000  1
  H  H7  1  0.75000000  0.75000000  0.75000000  1
  H  H8  1  0.25979819  0.74020181  0.25979819  1
  H  H9  1  0.50979819  0.99020181  0.99020181  1
  H  H10  1  0.99020181  0.50979819  0.50979819  1
  H  H11  1  0.50979819  0.99020181  0.50979819  1
  H  H12  1  0.99020181  0.99020181  0.50979819  1
  H  H13  1  0.50979819  0.50979819  0.99020181  1
loop_
_geom_bond_atom_site_label_1
_geom_bond_atom_site_label_2
_geom_bond_distance
_geom_bond_site_symmetry_2
H0 Hf1 1.984349 1_555
H0 Hf3 1.984350 1_555
H0 Sr1 2.443259 1_656
H1 Hf2 1.984349 1_655
H1 Hf0 1.984349 1_556
H1 Sr0 2.443259 1_656
H2 Hf3 1.984349 1_555
H2 Hf0 1.984349 1_555
H2 Sr1 2.443259 1_665
H3 Hf3 1.984349 1_555
H3 Hf2 1.984349 1_555
H3 Sr1 2.443259 1_566
H4 Hf1 1.984349 1_555
H4 Hf0 1.984350 1_555
H4 Sr1 2.443259 1_655
H5 Hf1 1.984349 1_555
H5 Hf2 1.984350 1_555
H5 Sr1 2.443259 1_556
H6 Hf0 2.036123 1_555
H6 Hf2 2.036123 1_555
H6 Hf3 2.036123 1_555
H6 Hf1 2.036124 1_555
H7 Hf0 2.036123 1_556
H7 Hf2 2.036123 1_655
H7 Hf3 2.036123 1_555
H7 Hf1 2.036124 1_565
H8 Hf2 1.984349 1_555
H8 Hf0 1.984349 1_555
H8 Sr1 2.443259 1_565
H9 Hf1 1.984349 1_565
H9 Hf0 1.984350 1_556
H9 Sr0 2.443259 1_566
H10 Hf3 1.984349 1_555
H10 Hf2 1.984349 1_655
H10 Sr0 2.443259 1_655
H11 Hf1 1.984349 1_565
H11 Hf3 1.984350 1_555
H11 Sr0 2.443259 1_565
H12 Hf1 1.984349 1_565
H12 Hf2 1.984350 1_655
H12 Sr0 2.443259 1_665
H13 Hf3 1.984349 1_555
H13 Hf0 1.984349 1_556
H13 Sr0 2.443259 1_556
