# generated using pymatgen
data_BaNb6SbS12
_symmetry_space_group_name_H-M   'P 1'
_cell_length_a   5.86071686
_cell_length_b   5.86071617
_cell_length_c   14.88048369
_cell_angle_alpha   90.00000000
_cell_angle_beta   90.00000000
_cell_angle_gamma   120.00000389
_symmetry_Int_Tables_number   1
_chemical_formula_structural   BaNb6SbS12
_chemical_formula_sum   'Ba1 Nb6 Sb1 S12'
_cell_volume   442.63840510
_cell_formula_units_Z   1
loop_
 _symmetry_equiv_pos_site_id
 _symmetry_equiv_pos_as_xyz
  1  'x, y, z'
loop_
 _atom_site_type_symbol
 _atom_site_label
 _atom_site_symmetry_multiplicity
 _atom_site_fract_x
 _atom_site_fract_y
 _atom_site_fract_z
 _atom_site_occupancy
  Ba  Ba0  1  0.00000000  0.00000000  0.50000000  1
  Nb  Nb0  1  0.00000000  0.00000000  0.76724244  1
  Nb  Nb1  1  0.00000000  0.00000000  0.23275756  1
  Nb  Nb2  1  0.33333300  0.66666700  0.23098861  1
  Nb  Nb3  1  0.66666700  0.33333300  0.76901139  1
  Nb  Nb4  1  0.66666700  0.33333300  0.23098861  1
  Nb  Nb5  1  0.33333300  0.66666700  0.76901139  1
  Sb  Sb0  1  0.00000000  0.00000000  0.00000000  1
  S  S0  1  0.33600176  0.00000000  0.12677299  1
  S  S1  1  1.00000000  0.33600176  0.12677299  1
  S  S2  1  0.66399824  0.66399824  0.12677299  1
  S  S3  1  0.33825860  0.33825860  0.66366778  1
  S  S4  1  0.66174140  0.66174140  0.33633222  1
  S  S5  1  0.66174140  0.00000000  0.66366778  1
  S  S6  1  1.00000000  0.66174140  0.66366778  1
  S  S7  1  0.00000000  0.66399824  0.87322701  1
  S  S8  1  0.33600176  0.33600176  0.87322701  1
  S  S9  1  0.00000000  0.33825860  0.33633222  1
  S  S10  1  0.33825860  0.00000000  0.33633222  1
  S  S11  1  0.66399824  0.00000000  0.87322701  1
loop_
_geom_bond_atom_site_label_1
_geom_bond_atom_site_label_2
_geom_bond_distance
_geom_bond_site_symmetry_2
Ba0 S6 3.140303 1_445
Ba0 S9 3.140303 1_555
Ba0 S4 3.140303 1_445
Ba0 S3 3.140303 1_555
Ba0 S5 3.140303 1_455
Ba0 S10 3.140303 1_555
Nb0 S6 2.511072 1_445
Nb0 S3 2.511072 1_555
Nb0 S5 2.511072 1_455
Nb0 S8 2.522903 1_555
Nb0 S7 2.522903 1_545
Nb0 S11 2.522903 1_455
Nb1 S9 2.511072 1_555
Nb1 S4 2.511072 1_445
Nb1 S10 2.511072 1_555
Nb1 S2 2.522903 1_445
Nb1 S1 2.522903 1_455
Nb1 S0 2.522903 1_555
Nb2 S0 2.488180 1_565
Nb2 S1 2.488182 1_455
Nb2 S2 2.488185 1_555
Nb2 S10 2.493618 1_565
Nb2 S9 2.493620 1_555
Nb2 S4 2.493623 1_555
Nb3 S11 2.488180 1_555
Nb3 S7 2.488182 1_655
Nb3 S8 2.488185 1_555
Nb3 S5 2.493618 1_555
Nb3 S6 2.493620 1_555
Nb3 S3 2.493623 1_555
Nb4 S1 2.488180 1_555
Nb4 S0 2.488182 1_555
Nb4 S2 2.488185 1_555
Nb4 S9 2.493618 1_655
Nb4 S10 2.493620 1_555
Nb4 S4 2.493623 1_555
Nb5 S7 2.488180 1_555
Nb5 S11 2.488182 1_565
Nb5 S8 2.488185 1_555
Nb5 S6 2.493618 1_455
Nb5 S5 2.493620 1_565
Nb5 S3 2.493623 1_555
S0 Sb0 2.726988 1_555
S1 Sb0 2.726987 1_655
S2 Sb0 2.726987 1_665
S7 Sb0 2.726987 1_566
S8 Sb0 2.726987 1_556
S11 Sb0 2.726988 1_656
