# generated using pymatgen
data_Nb5AlAs2
_symmetry_space_group_name_H-M   'P 1'
_cell_length_a   7.64858199
_cell_length_b   7.64865490
_cell_length_c   7.64858277
_cell_angle_alpha   96.65037791
_cell_angle_beta   96.65006301
_cell_angle_gamma   140.20826795
_symmetry_Int_Tables_number   1
_chemical_formula_structural   Nb5AlAs2
_chemical_formula_sum   'Nb10 Al2 As4'
_cell_volume   269.27778267
_cell_formula_units_Z   2
loop_
 _symmetry_equiv_pos_site_id
 _symmetry_equiv_pos_as_xyz
  1  'x, y, z'
loop_
 _atom_site_type_symbol
 _atom_site_label
 _atom_site_symmetry_multiplicity
 _atom_site_fract_x
 _atom_site_fract_y
 _atom_site_fract_z
 _atom_site_occupancy
  Nb  Nb0  1  0.25004444  0.75000000  0.50004444  1
  Nb  Nb1  1  0.74995556  0.25000000  0.49995556  1
  Nb  Nb2  1  0.77717374  0.92468748  0.70118337  1
  Nb  Nb3  1  0.92434484  0.22314821  0.14753657  1
  Nb  Nb4  1  0.07565516  0.77685179  0.85246343  1
  Nb  Nb5  1  0.22282626  0.07531252  0.29881663  1
  Nb  Nb6  1  0.57561264  0.72314821  0.29880136  1
  Nb  Nb7  1  0.42438736  0.27685179  0.70119864  1
  Nb  Nb8  1  0.27649488  0.57531252  0.85248526  1
  Nb  Nb9  1  0.72350512  0.42468748  0.14751474  1
  Al  Al0  1  0.74994719  0.75000000  0.99994719  1
  Al  Al1  1  0.25005281  0.25000000  0.00005281  1
  As  As0  1  0.33374680  0.83377287  0.16762428  1
  As  As1  1  0.83385141  0.66622713  0.49997393  1
  As  As2  1  0.16614859  0.33377287  0.50002607  1
  As  As3  1  0.66625320  0.16622713  0.83237572  1
loop_
_geom_bond_atom_site_label_1
_geom_bond_atom_site_label_2
_geom_bond_distance
_geom_bond_site_symmetry_2
Nb0 Nb1 2.602915 1_565
Nb0 Nb1 2.602915 1_455
Al0 Al1 2.602915 1_556
Al0 Al1 2.602915 1_666
Al0 Nb5 2.726895 1_666
Al0 Nb9 2.726903 1_556
Al0 Nb7 2.727080 1_555
Al0 Nb3 2.727090 1_566
Al0 Nb6 2.727438 1_556
Al0 Nb4 2.727456 1_655
Al0 Nb2 2.727670 1_555
Al0 Nb8 2.727678 1_555
Al1 Nb2 2.726895 1_444
Al1 Nb8 2.726903 1_554
Al1 Nb6 2.727080 1_555
Al1 Nb4 2.727090 1_544
Al1 Nb7 2.727438 1_554
Al1 Nb3 2.727456 1_455
Al1 Nb5 2.727670 1_555
Al1 Nb9 2.727678 1_555
As0 Nb4 2.689071 1_554
As0 Nb8 2.689090 1_554
As0 Nb5 2.704837 1_565
As0 Nb6 2.705000 1_555
As0 Nb1 2.721663 1_565
As0 Nb0 2.721929 1_555
As0 Nb9 2.979668 1_455
As0 Nb3 2.981569 1_455
As0 Nb3 2.981806 1_565
As0 Nb9 2.983258 1_565
As1 Nb6 2.689073 1_555
As1 Nb2 2.689088 1_555
As1 Nb9 2.704833 1_555
As1 Nb4 2.704998 1_655
As1 Nb1 2.721662 1_555
As1 Nb0 2.721929 1_655
As1 Nb5 2.979672 1_665
As1 Nb7 2.981570 1_665
As1 Nb7 2.981820 1_555
As1 Nb5 2.983262 1_555
As2 Nb7 2.689073 1_555
As2 Nb5 2.689088 1_555
As2 Nb8 2.704833 1_555
As2 Nb3 2.704998 1_455
As2 Nb0 2.721662 1_555
As2 Nb1 2.721929 1_455
As2 Nb2 2.979672 1_445
As2 Nb6 2.981570 1_445
As2 Nb6 2.981820 1_555
As2 Nb2 2.983262 1_555
As3 Nb3 2.689071 1_556
As3 Nb9 2.689090 1_556
As3 Nb2 2.704837 1_545
As3 Nb7 2.705000 1_555
As3 Nb0 2.721663 1_545
As3 Nb1 2.721929 1_555
As3 Nb8 2.979668 1_655
As3 Nb4 2.981569 1_655
As3 Nb4 2.981806 1_545
As3 Nb8 2.983258 1_545
