# generated using pymatgen
data_Ca12GaAs7Rh8
_symmetry_space_group_name_H-M   'P 1'
_cell_length_a   5.58945855
_cell_length_b   7.92027761
_cell_length_c   13.36375752
_cell_angle_alpha   89.77959663
_cell_angle_beta   90.00000000
_cell_angle_gamma   90.00000000
_symmetry_Int_Tables_number   1
_chemical_formula_structural   Ca12GaAs7Rh8
_chemical_formula_sum   'Ca12 Ga1 As7 Rh8'
_cell_volume   591.61001536
_cell_formula_units_Z   1
loop_
 _symmetry_equiv_pos_site_id
 _symmetry_equiv_pos_as_xyz
  1  'x, y, z'
loop_
 _atom_site_type_symbol
 _atom_site_label
 _atom_site_symmetry_multiplicity
 _atom_site_fract_x
 _atom_site_fract_y
 _atom_site_fract_z
 _atom_site_occupancy
  Ca  Ca0  1  0.13419782  0.61104414  0.10376131  1
  Ca  Ca1  1  0.13419782  0.88895586  0.89623869  1
  Ca  Ca2  1  0.86109360  0.10732449  0.39776850  1
  Ca  Ca3  1  0.86109360  0.39267551  0.60223150  1
  Ca  Ca4  1  0.86529703  0.38860383  0.89635500  1
  Ca  Ca5  1  0.86529703  0.11139617  0.10364500  1
  Ca  Ca6  1  0.13621360  0.88942750  0.60156469  1
  Ca  Ca7  1  0.13621360  0.61057250  0.39843531  1
  Ca  Ca8  1  0.36484205  0.25018546  0.25184545  1
  Ca  Ca9  1  0.36484205  0.24981454  0.74815455  1
  Ca  Ca10  1  0.63390736  0.74937164  0.25125525  1
  Ca  Ca11  1  0.63390736  0.75062836  0.74874475  1
  Ga  Ga0  1  0.38727106  0.25000000  0.50000000  1
  As  As0  1  0.39121838  0.25000000  0.00000000  1
  As  As1  1  0.62028534  0.75000000  0.50000000  1
  As  As2  1  0.60731015  0.75000000  0.00000000  1
  As  As3  1  0.85354272  0.39916542  0.24883730  1
  As  As4  1  0.85354272  0.10083458  0.75116270  1
  As  As5  1  0.14597511  0.90028137  0.24884508  1
  As  As6  1  0.14597511  0.59971863  0.75115492  1
  Rh  Rh0  1  0.63060928  0.47257246  0.08608847  1
  Rh  Rh1  1  0.63060928  0.02742754  0.91391153  1
  Rh  Rh2  1  0.37054939  0.96974755  0.41237613  1
  Rh  Rh3  1  0.37054939  0.53025245  0.58762387  1
  Rh  Rh4  1  0.36894134  0.52764241  0.91395353  1
  Rh  Rh5  1  0.36894134  0.97235759  0.08604647  1
  Rh  Rh6  1  0.63178923  0.02542166  0.58991329  1
  Rh  Rh7  1  0.63178923  0.47457834  0.41008671  1
loop_
_geom_bond_atom_site_label_1
_geom_bond_atom_site_label_2
_geom_bond_distance
_geom_bond_site_symmetry_2
Ca0 Rh4 2.933407 1_554
Ca0 Rh0 2.993225 1_555
Ca0 Rh0 3.030450 1_455
Ca0 Rh5 3.156224 1_555
Ca1 Rh5 2.933407 1_556
Ca1 Rh1 2.993225 1_565
Ca1 Rh1 3.030450 1_465
Ca1 Rh4 3.156224 1_555
Ca2 Rh6 2.940100 1_555
Ca2 Rh2 2.956635 1_545
Ca2 Rh2 3.054918 1_645
Ca2 Rh7 3.183449 1_555
Ca2 Ga0 3.188953 1_555
Ca2 Ga0 3.435855 1_655
Ca3 Rh7 2.940100 1_555
Ca3 Rh3 2.956635 1_555
Ca3 Rh3 3.054918 1_655
Ca3 Rh6 3.183449 1_555
Ca3 Ga0 3.188953 1_555
Ca3 Ga0 3.435855 1_655
Ca4 Rh0 2.933437 1_556
Ca4 Rh4 2.994506 1_555
Ca4 Rh4 3.032290 1_655
Ca4 Rh1 3.154960 1_555
Ca5 Rh1 2.933437 1_554
Ca5 Rh5 2.994506 1_545
Ca5 Rh5 3.032290 1_645
Ca5 Rh0 3.154960 1_555
Ca6 Rh2 2.915489 1_555
Ca6 Rh6 2.975907 1_565
Ca6 Rh6 3.021998 1_465
Ca6 Rh3 3.138006 1_555
Ca6 Ga0 3.455051 1_565
Ca7 Rh3 2.915489 1_555
Ca7 Rh7 2.975907 1_555
Ca7 Rh7 3.021998 1_455
Ca7 Rh2 3.138006 1_555
Ca7 Ga0 3.455051 1_555
Ca8 Rh2 3.082228 1_545
Ca8 Rh5 3.128807 1_545
Ca8 Rh7 3.144173 1_555
Ca8 Rh0 3.191539 1_555
Ca8 Ga0 3.318641 1_555
Ca9 Rh3 3.082228 1_555
Ca9 Rh4 3.128807 1_555
Ca9 Rh6 3.144173 1_555
Ca9 Rh1 3.191539 1_555
Ca9 Ga0 3.318641 1_555
Ca10 Rh7 3.034280 1_555
Ca10 Rh0 3.117020 1_555
Ca10 Rh2 3.143012 1_555
Ca10 Rh5 3.187002 1_555
Ca11 Rh6 3.034280 1_565
Ca11 Rh1 3.117020 1_565
Ca11 Rh3 3.143012 1_555
Ca11 Rh4 3.187002 1_555
Ga0 Rh3 2.515334 1_555
Ga0 Rh2 2.515334 1_545
Ga0 Rh6 2.541484 1_555
Ga0 Rh7 2.541484 1_555
As0 Rh5 2.480716 1_545
As0 Rh4 2.480716 1_554
As0 Rh1 2.497435 1_554
As0 Rh0 2.497435 1_555
As0 Ca5 3.183325 1_555
As0 Ca4 3.183325 1_554
As0 Ca8 3.368835 1_555
As0 Ca9 3.368835 1_554
As0 Ca5 3.428298 1_455
As0 Ca4 3.428298 1_454
As0 Ca0 3.492027 1_555
As0 Ca1 3.492027 1_544
As1 Rh6 2.495330 1_565
As1 Rh7 2.495330 1_555
As1 Rh3 2.516592 1_555
As1 Rh2 2.516592 1_555
As1 Ca6 3.223981 1_555
As1 Ca7 3.223981 1_555
As1 Ca11 3.325059 1_555
As1 Ca10 3.325059 1_555
As1 Ca6 3.374806 1_655
As1 Ca7 3.374806 1_655
As1 Ca2 3.414374 1_565
As1 Ca3 3.414374 1_555
As2 Rh1 2.479763 1_564
As2 Rh0 2.479763 1_555
As2 Rh5 2.492913 1_555
As2 Rh4 2.492913 1_554
As2 Ca0 3.180465 1_555
As2 Ca1 3.180465 1_554
As2 Ca10 3.360988 1_555
As2 Ca11 3.360988 1_554
As2 Ca0 3.434444 1_655
As2 Ca1 3.434444 1_654
As2 Ca5 3.495918 1_565
As2 Ca4 3.495918 1_554
As3 Rh7 2.558625 1_555
As3 Rh0 2.571256 1_555
As3 Ca8 2.975743 1_555
As3 Ca5 2.999662 1_555
As3 Ca0 3.001793 1_655
As3 Ca10 3.033549 1_555
As3 Ca2 3.044743 1_555
As3 Ca7 3.053273 1_655
As3 Ca8 3.092099 1_655
As4 Rh6 2.558625 1_555
As4 Rh1 2.571256 1_555
As4 Ca9 2.975743 1_555
As4 Ca4 2.999662 1_555
As4 Ca1 3.001793 1_645
As4 Ca11 3.033549 1_545
As4 Ca3 3.044743 1_555
As4 Ca6 3.053273 1_645
As4 Ca9 3.092099 1_655
As5 Rh5 2.569579 1_555
As5 Rh2 2.581383 1_555
As5 Ca10 2.977817 1_555
As5 Ca5 2.999566 1_465
As5 Ca0 3.007598 1_555
As5 Ca8 3.029745 1_565
As5 Ca2 3.034882 1_465
As5 Ca7 3.037945 1_555
As5 Ca10 3.101844 1_455
As6 Rh4 2.569579 1_555
As6 Rh3 2.581383 1_555
As6 Ca11 2.977817 1_555
As6 Ca4 2.999566 1_455
As6 Ca1 3.007598 1_555
As6 Ca9 3.029745 1_555
As6 Ca3 3.034882 1_455
As6 Ca6 3.037945 1_555
As6 Ca11 3.101844 1_455
