# generated using pymatgen
data_Be8VW3
_symmetry_space_group_name_H-M   'P 1'
_cell_length_a   4.42461361
_cell_length_b   4.42461207
_cell_length_c   7.24505028
_cell_angle_alpha   90.00000000
_cell_angle_beta   90.00000000
_cell_angle_gamma   120.00000406
_symmetry_Int_Tables_number   1
_chemical_formula_structural   Be8VW3
_chemical_formula_sum   'Be8 V1 W3'
_cell_volume   122.83512389
_cell_formula_units_Z   1
loop_
 _symmetry_equiv_pos_site_id
 _symmetry_equiv_pos_as_xyz
  1  'x, y, z'
loop_
 _atom_site_type_symbol
 _atom_site_label
 _atom_site_symmetry_multiplicity
 _atom_site_fract_x
 _atom_site_fract_y
 _atom_site_fract_z
 _atom_site_occupancy
  Be  Be0  1  0.00000000  0.00000000  0.49884485  1
  Be  Be1  1  0.00000000  0.00000000  0.00320814  1
  Be  Be2  1  0.82938459  0.17061541  0.25231907  1
  Be  Be3  1  0.82938459  0.65876918  0.25231907  1
  Be  Be4  1  0.34123082  0.17061541  0.25231907  1
  Be  Be5  1  0.17025226  0.82974774  0.74747170  1
  Be  Be6  1  0.17025226  0.34050251  0.74747170  1
  Be  Be7  1  0.65949749  0.82974774  0.74747170  1
  V  V0  1  0.33333300  0.66666700  0.43514420  1
  W  W0  1  0.66666700  0.33333300  0.56227125  1
  W  W1  1  0.66666700  0.33333300  0.93684553  1
  W  W2  1  0.33333300  0.66666700  0.06431473  1
loop_
_geom_bond_atom_site_label_1
_geom_bond_atom_site_label_2
_geom_bond_distance
_geom_bond_site_symmetry_2
Be0 Be3 2.213544 1_445
Be0 Be2 2.213544 1_455
Be0 Be4 2.213544 1_555
Be0 Be6 2.224207 1_555
Be0 Be7 2.224207 1_445
Be0 Be5 2.224211 1_545
Be0 W0 2.595551 1_455
Be0 W0 2.595554 1_445
Be0 W0 2.595555 1_555
Be0 V0 2.595904 1_545
Be0 V0 2.595907 1_555
Be0 V0 2.595908 1_445
Be1 Be3 2.228684 1_445
Be1 Be2 2.228684 1_455
Be1 Be4 2.228684 1_555
Be1 Be6 2.266124 1_554
Be1 Be7 2.266124 1_444
Be1 Be5 2.266129 1_544
Be1 W2 2.592628 1_545
Be1 W2 2.592631 1_555
Be1 W2 2.592632 1_445
Be1 W1 2.599402 1_454
Be1 W1 2.599405 1_444
Be1 W1 2.599406 1_554
Be2 Be3 2.159891 1_555
Be2 Be4 2.159892 1_555
Be2 Be3 2.264721 1_545
Be2 Be4 2.264722 1_655
Be2 W0 2.568627 1_555
Be2 V0 2.578705 1_545
Be2 V0 2.578705 1_655
Be2 W2 2.598179 1_545
Be2 W2 2.598179 1_655
Be2 W1 2.603671 1_554
Be3 Be4 2.159891 1_555
Be3 Be4 2.264721 1_665
Be3 W0 2.568628 1_555
Be3 V0 2.578704 1_655
Be3 V0 2.578707 1_555
Be3 W2 2.598177 1_655
Be3 W2 2.598181 1_555
Be3 W1 2.603673 1_554
Be4 W0 2.568629 1_555
Be4 V0 2.578703 1_545
Be4 V0 2.578707 1_555
Be4 W2 2.598177 1_545
Be4 W2 2.598181 1_555
Be4 W1 2.603673 1_554
Be5 Be6 2.164720 1_555
Be5 Be7 2.164721 1_555
Be5 Be6 2.259892 1_565
Be5 Be7 2.259892 1_455
Be5 V0 2.585030 1_555
Be5 W0 2.587556 1_565
Be5 W0 2.587556 1_455
Be5 W1 2.603363 1_565
Be5 W1 2.603363 1_455
Be5 W2 2.613715 1_556
Be6 Be7 2.164721 1_555
Be6 Be7 2.259892 1_445
Be6 V0 2.585035 1_555
Be6 W0 2.587554 1_555
Be6 W0 2.587558 1_455
Be6 W1 2.603362 1_555
Be6 W1 2.603366 1_455
Be6 W2 2.613721 1_556
Be7 V0 2.585035 1_555
Be7 W0 2.587554 1_555
Be7 W0 2.587557 1_565
Be7 W1 2.603361 1_555
Be7 W1 2.603365 1_565
Be7 W2 2.613721 1_556
V0 W2 2.686678 1_555
V0 W0 2.715517 1_565
V0 W0 2.715518 1_455
V0 W0 2.715525 1_555
