# generated using pymatgen
data_Cs2KAsSe3
_symmetry_space_group_name_H-M   'P 1'
_cell_length_a   10.23880466
_cell_length_b   10.23880466
_cell_length_c   10.23880466
_cell_angle_alpha   90.00000000
_cell_angle_beta   90.00000000
_cell_angle_gamma   90.00000000
_symmetry_Int_Tables_number   1
_chemical_formula_structural   Cs2KAsSe3
_chemical_formula_sum   'Cs8 K4 As4 Se12'
_cell_volume   1073.36584744
_cell_formula_units_Z   4
loop_
 _symmetry_equiv_pos_site_id
 _symmetry_equiv_pos_as_xyz
  1  'x, y, z'
loop_
 _atom_site_type_symbol
 _atom_site_label
 _atom_site_symmetry_multiplicity
 _atom_site_fract_x
 _atom_site_fract_y
 _atom_site_fract_z
 _atom_site_occupancy
  Cs  Cs0  1  0.28409815  0.28409815  0.28409815  1
  Cs  Cs1  1  0.21590185  0.71590185  0.78409815  1
  Cs  Cs2  1  0.78409815  0.21590185  0.71590185  1
  Cs  Cs3  1  0.71590185  0.78409815  0.21590185  1
  Cs  Cs4  1  0.57163747  0.57163747  0.57163747  1
  Cs  Cs5  1  0.92836253  0.42836253  0.07163747  1
  Cs  Cs6  1  0.07163747  0.92836253  0.42836253  1
  Cs  Cs7  1  0.42836253  0.07163747  0.92836253  1
  K  K0  1  0.82419951  0.82419951  0.82419951  1
  K  K1  1  0.67580049  0.17580049  0.32419951  1
  K  K2  1  0.32419951  0.67580049  0.17580049  1
  K  K3  1  0.17580049  0.32419951  0.67580049  1
  As  As0  1  0.02902869  0.02902869  0.02902869  1
  As  As1  1  0.47097131  0.97097131  0.52902869  1
  As  As2  1  0.52902869  0.47097131  0.97097131  1
  As  As3  1  0.97097131  0.52902869  0.47097131  1
  Se  Se0  1  0.19945583  0.58163793  0.46175917  1
  Se  Se1  1  0.46175917  0.19945583  0.58163793  1
  Se  Se2  1  0.58163793  0.46175917  0.19945583  1
  Se  Se3  1  0.91836207  0.53824083  0.69945583  1
  Se  Se4  1  0.96175917  0.30054417  0.41836207  1
  Se  Se5  1  0.41836207  0.96175917  0.30054417  1
  Se  Se6  1  0.03824083  0.80054417  0.08163793  1
  Se  Se7  1  0.53824083  0.69945583  0.91836207  1
  Se  Se8  1  0.08163793  0.03824083  0.80054417  1
  Se  Se9  1  0.69945583  0.91836207  0.53824083  1
  Se  Se10  1  0.80054417  0.08163793  0.03824083  1
  Se  Se11  1  0.30054417  0.41836207  0.96175917  1
loop_
_geom_bond_atom_site_label_1
_geom_bond_atom_site_label_2
_geom_bond_distance
_geom_bond_site_symmetry_2
Cs0 Se5 3.579186 1_545
Cs0 Se4 3.579186 1_455
Cs0 Se11 3.579186 1_554
Cs0 Se0 3.652509 1_555
Cs0 Se2 3.652509 1_555
Cs0 Se1 3.652509 1_555
Cs1 Se8 3.579186 1_565
Cs1 Se7 3.579186 1_555
Cs1 Se0 3.579186 1_555
Cs1 Se3 3.652509 1_455
Cs1 Se11 3.652509 1_555
Cs1 Se6 3.652509 1_556
Cs2 Se10 3.579186 1_556
Cs2 Se1 3.579186 1_555
Cs2 Se3 3.579186 1_555
Cs2 Se9 3.652509 1_545
Cs2 Se4 3.652509 1_555
Cs2 Se8 3.652509 1_655
Cs3 Se6 3.579186 1_655
Cs3 Se2 3.579186 1_555
Cs3 Se9 3.579186 1_555
Cs3 Se7 3.652509 1_554
Cs3 Se5 3.652509 1_555
Cs3 Se10 3.652509 1_565
Cs4 Se9 3.799008 1_555
Cs4 Se3 3.799008 1_555
Cs4 Se7 3.799008 1_555
Cs4 Se1 3.974614 1_555
Cs4 Se2 3.974614 1_555
Cs4 Se0 3.974614 1_555
Cs5 Se4 3.799008 1_555
Cs5 Se2 3.799008 1_555
Cs5 Se10 3.799008 1_555
Cs5 Se6 3.974614 1_655
Cs5 Se3 3.974614 1_554
Cs5 Se11 3.974614 1_654
Cs6 Se5 3.799008 1_555
Cs6 Se0 3.799008 1_555
Cs6 Se6 3.799008 1_555
Cs6 Se8 3.974614 1_565
Cs6 Se9 3.974614 1_455
Cs6 Se4 3.974614 1_465
Cs7 Se11 3.799008 1_555
Cs7 Se1 3.799008 1_555
Cs7 Se8 3.799008 1_555
Cs7 Se10 3.974614 1_556
Cs7 Se7 3.974614 1_545
Cs7 Se5 3.974614 1_546
K0 Se7 3.336656 1_555
K0 Se9 3.336656 1_555
K0 Se3 3.336656 1_555
K0 Se6 3.436455 1_656
K0 Se8 3.436455 1_665
K0 Se10 3.436455 1_566
K1 Se2 3.336656 1_555
K1 Se4 3.336656 1_555
K1 Se10 3.336656 1_555
K1 Se9 3.436455 1_545
K1 Se5 3.436455 1_545
K1 Se1 3.436455 1_555
K2 Se0 3.336656 1_555
K2 Se5 3.336656 1_555
K2 Se6 3.336656 1_555
K2 Se7 3.436455 1_554
K2 Se11 3.436455 1_554
K2 Se2 3.436455 1_555
K3 Se1 3.336656 1_555
K3 Se11 3.336656 1_555
K3 Se8 3.336656 1_555
K3 Se3 3.436455 1_455
K3 Se4 3.436455 1_455
K3 Se0 3.436455 1_555
As0 Se8 2.402473 1_554
As0 Se10 2.402473 1_455
As0 Se6 2.402473 1_545
As1 Se5 2.402473 1_555
As1 Se9 2.402473 1_555
As1 Se1 2.402473 1_565
As2 Se11 2.402473 1_555
As2 Se2 2.402473 1_556
As2 Se7 2.402473 1_555
As3 Se4 2.402473 1_555
As3 Se0 2.402473 1_655
As3 Se3 2.402473 1_555
