# generated using pymatgen
data_Cs2KInAs2
_symmetry_space_group_name_H-M   'P 1'
_cell_length_a   9.68324638
_cell_length_b   9.68324622
_cell_length_c   9.68324634
_cell_angle_alpha   133.23955586
_cell_angle_beta   136.71120094
_cell_angle_gamma   65.60927593
_symmetry_Int_Tables_number   1
_chemical_formula_structural   Cs2KInAs2
_chemical_formula_sum   'Cs4 K2 In2 As4'
_cell_volume   446.80898716
_cell_formula_units_Z   2
loop_
 _symmetry_equiv_pos_site_id
 _symmetry_equiv_pos_as_xyz
  1  'x, y, z'
loop_
 _atom_site_type_symbol
 _atom_site_label
 _atom_site_symmetry_multiplicity
 _atom_site_fract_x
 _atom_site_fract_y
 _atom_site_fract_z
 _atom_site_occupancy
  Cs  Cs0  1  0.67597989  0.43286559  0.75688570  1
  Cs  Cs1  1  0.82402011  0.08090481  0.25688570  1
  Cs  Cs2  1  0.17597989  0.91909519  0.74311430  1
  Cs  Cs3  1  0.32402011  0.56713441  0.24311430  1
  K  K0  1  0.75000000  0.00000000  0.75000000  1
  K  K1  1  0.25000000  0.00000000  0.25000000  1
  In  In0  1  0.25000000  0.50000000  0.75000000  1
  In  In1  1  0.75000000  0.50000000  0.25000000  1
  As  As0  1  0.40918720  0.21704513  0.80785793  1
  As  As1  1  0.59081280  0.78295487  0.19214207  1
  As  As2  1  0.09081280  0.39867173  0.30785793  1
  As  As3  1  0.90918720  0.60132827  0.69214207  1
loop_
_geom_bond_atom_site_label_1
_geom_bond_atom_site_label_2
_geom_bond_distance
_geom_bond_site_symmetry_2
As0 In1 2.748607 1_556
As0 In0 2.748607 1_555
As0 K1 3.312414 1_555
As0 K0 3.312414 1_555
As0 Cs3 3.620950 1_556
As0 Cs2 3.828605 1_545
As0 Cs1 3.851215 1_455
As0 Cs1 3.851222 1_556
As1 In0 2.748607 1_554
As1 In1 2.748607 1_555
As1 K0 3.312414 1_565
As1 K1 3.312414 1_565
As1 Cs0 3.620950 1_554
As1 Cs1 3.828605 1_565
As1 Cs2 3.851215 1_655
As1 Cs2 3.851222 1_554
As2 In1 2.748607 1_455
As2 In0 2.748612 1_555
As2 K0 3.312418 1_454
As2 K1 3.312422 1_555
As2 Cs2 3.620950 1_555
As2 Cs3 3.828606 1_555
As2 Cs0 3.851210 1_454
As2 Cs0 3.851216 1_555
As3 In0 2.748607 1_655
As3 In1 2.748612 1_555
As3 K1 3.312418 1_666
As3 K0 3.312422 1_565
As3 Cs1 3.620950 1_555
As3 Cs0 3.828606 1_555
As3 Cs3 3.851210 1_656
As3 Cs3 3.851216 1_555
