# generated using pymatgen
data_NaV2InO7
_symmetry_space_group_name_H-M   'P 1'
_cell_length_a   5.71078803
_cell_length_b   5.71078826
_cell_length_c   4.92358778
_cell_angle_alpha   98.39945579
_cell_angle_beta   98.39945588
_cell_angle_gamma   100.63889638
_symmetry_Int_Tables_number   1
_chemical_formula_structural   NaV2InO7
_chemical_formula_sum   'Na1 V2 In1 O7'
_cell_volume   153.62797594
_cell_formula_units_Z   1
loop_
 _symmetry_equiv_pos_site_id
 _symmetry_equiv_pos_as_xyz
  1  'x, y, z'
loop_
 _atom_site_type_symbol
 _atom_site_label
 _atom_site_symmetry_multiplicity
 _atom_site_fract_x
 _atom_site_fract_y
 _atom_site_fract_z
 _atom_site_occupancy
  Na  Na0  1  0.24358016  0.75641884  0.00000000  1
  V  V0  1  0.17665542  0.24347781  0.41415085  1
  V  V1  1  0.75652219  0.82334458  0.58585015  1
  In  In0  1  0.62879571  0.37120329  1.00000000  1
  O  O0  1  0.36817398  0.16644899  0.19804215  1
  O  O1  1  0.96709677  0.37391196  0.25064572  1
  O  O2  1  0.57061306  0.67358768  0.28415258  1
  O  O3  1  0.03573935  0.96425965  0.49999900  1
  O  O4  1  0.32641232  0.42938694  0.71584842  1
  O  O5  1  0.62608804  0.03290423  0.74935228  1
  O  O6  1  0.83355201  0.63182702  0.80195585  1
loop_
_geom_bond_atom_site_label_1
_geom_bond_atom_site_label_2
_geom_bond_distance
_geom_bond_site_symmetry_2
Na0 O4 2.329219 1_554
Na0 O2 2.329223 1_555
Na0 O6 2.335627 1_454
Na0 O0 2.335636 1_565
In0 O5 2.131317 1_555
In0 O1 2.131321 1_556
In0 O0 2.155862 1_556
In0 O6 2.155881 1_555
In0 O4 2.166010 1_555
In0 O2 2.166015 1_556
O0 V0 1.703757 1_555
O1 V0 1.690563 1_655
O2 V1 1.702344 1_555
O3 V1 1.786434 1_455
O3 V0 1.786434 1_565
O4 V0 1.702344 1_555
O5 V1 1.690560 1_545
O6 V1 1.703744 1_555
