# generated using pymatgen
data_Ti8Al15RePt6
_symmetry_space_group_name_H-M   'P 1'
_cell_length_a   8.65492170
_cell_length_b   8.65492280
_cell_length_c   8.65492246
_cell_angle_alpha   120.13784065
_cell_angle_beta   119.78530485
_cell_angle_gamma   90.06684636
_symmetry_Int_Tables_number   1
_chemical_formula_structural   Ti8Al15RePt6
_chemical_formula_sum   'Ti8 Al15 Re1 Pt6'
_cell_volume   458.69207183
_cell_formula_units_Z   1
loop_
 _symmetry_equiv_pos_site_id
 _symmetry_equiv_pos_as_xyz
  1  'x, y, z'
loop_
 _atom_site_type_symbol
 _atom_site_label
 _atom_site_symmetry_multiplicity
 _atom_site_fract_x
 _atom_site_fract_y
 _atom_site_fract_z
 _atom_site_occupancy
  Ti  Ti0  1  0.78925115  0.28986907  0.07635028  1
  Ti  Ti1  1  0.21351880  0.28986907  0.50061793  1
  Ti  Ti2  1  0.21095708  0.71095708  0.50000000  1
  Ti  Ti3  1  0.21351880  0.71290087  0.92364972  1
  Ti  Ti4  1  0.78925115  0.71290087  0.49938207  1
  Ti  Ti5  1  0.78572551  0.28572551  0.50000000  1
  Ti  Ti6  1  0.38141824  0.12098685  0.73956861  1
  Ti  Ti7  1  0.38141824  0.64185162  0.26043139  1
  Al  Al0  1  0.99785978  0.49785978  0.50000000  1
  Al  Al1  1  0.15610873  0.34470803  0.18859930  1
  Al  Al2  1  0.15610873  0.96750943  0.81140070  1
  Al  Al3  1  0.15481613  0.34397362  0.81084251  1
  Al  Al4  1  0.53313111  0.34397362  0.18915749  1
  Al  Al5  1  0.84402137  0.65473716  0.81071679  1
  Al  Al6  1  0.84402137  0.03330458  0.18928321  1
  Al  Al7  1  0.84303240  0.65618940  0.18684200  1
  Al  Al8  1  0.46934640  0.65618940  0.81315800  1
  Al  Al9  1  0.38115564  0.12018369  0.26097195  1
  Al  Al10  1  0.85921273  0.12018369  0.73902805  1
  Al  Al11  1  0.62025265  0.88055600  0.26030335  1
  Al  Al12  1  0.62025265  0.35994929  0.73969665  1
  Al  Al13  1  0.62201649  0.88013030  0.74188719  1
  Al  Al14  1  0.13824311  0.88013030  0.25811281  1
  Re  Re0  1  0.49798298  0.99798298  0.50000000  1
  Pt  Pt0  1  0.99878972  0.99893850  0.49935001  1
  Pt  Pt1  1  0.49958949  0.99893850  0.00014978  1
  Pt  Pt2  1  0.50014438  0.50014438  1.00000000  1
  Pt  Pt3  1  0.49958949  0.49943971  0.50064999  1
  Pt  Pt4  1  0.99878972  0.49943971  0.99985022  1
  Pt  Pt5  1  0.00047698  0.00047698  0.00000000  1
loop_
_geom_bond_atom_site_label_1
_geom_bond_atom_site_label_2
_geom_bond_distance
_geom_bond_site_symmetry_2
Ti0 Ti6 2.929132 1_554
Ti1 Ti6 2.929133 1_555
Ti2 Ti6 2.937583 1_565
Ti2 Ti7 2.937585 1_555
Ti3 Ti7 2.929120 1_556
Ti4 Ti7 2.929135 1_555
Al0 Ti3 2.594610 1_655
Al0 Ti0 2.594610 1_555
Al0 Ti1 2.594610 1_655
Al0 Ti4 2.594610 1_555
Al0 Ti5 2.594989 1_555
Al0 Ti2 2.606769 1_655
Al1 Pt5 2.505560 1_555
Al1 Pt3 2.511424 1_555
Al1 Pt4 2.511425 1_454
Al1 Ti2 2.771958 1_555
Al1 Ti0 2.778373 1_455
Al1 Ti1 2.778373 1_555
Al2 Pt5 2.505560 1_566
Al2 Pt0 2.511419 1_455
Al2 Pt1 2.511426 1_556
Al2 Ti2 2.771958 1_555
Al2 Ti4 2.778373 1_455
Al2 Ti3 2.778373 1_555
Al3 Pt4 2.509725 1_455
Al3 Pt0 2.509730 1_445
Al3 Pt2 2.519381 1_555
Al3 Ti1 2.789226 1_555
Al3 Ti3 2.789226 1_555
Al3 Ti5 2.791512 1_455
Al4 Pt3 2.509725 1_555
Al4 Pt1 2.509732 1_545
Al4 Pt2 2.519381 1_554
Al4 Ti4 2.789226 1_555
Al4 Ti0 2.789226 1_555
Al4 Ti5 2.791513 1_555
Al5 Pt4 2.513069 1_555
Al5 Pt3 2.513076 1_555
Al5 Pt5 2.517066 1_666
Al5 Ti5 2.776752 1_555
Al5 Ti3 2.798657 1_655
Al5 Ti4 2.798663 1_555
Al6 Pt1 2.513074 1_545
Al6 Pt0 2.513082 1_545
Al6 Pt5 2.517058 1_655
Al6 Ti5 2.776758 1_555
Al6 Ti1 2.798657 1_655
Al6 Ti0 2.798657 1_555
Al7 Pt4 2.498813 1_554
Al7 Pt0 2.498815 1_555
Al7 Pt2 2.505156 1_554
Al7 Ti0 2.773599 1_555
Al7 Ti4 2.773605 1_555
Al7 Ti2 2.800461 1_655
Al8 Pt1 2.498812 1_556
Al8 Pt3 2.498826 1_555
Al8 Pt2 2.505147 1_555
Al8 Ti3 2.773591 1_555
Al8 Ti1 2.773596 1_555
Al8 Ti2 2.800465 1_555
Al9 Re0 2.557772 1_545
Al9 Pt1 2.677759 1_545
Al9 Pt3 2.677759 1_555
Al9 Pt5 2.697988 1_555
Al9 Ti5 2.899720 1_555
Al9 Ti3 2.915444 1_544
Al9 Ti1 2.915444 1_555
Al10 Re0 2.557779 1_545
Al10 Pt0 2.677752 1_545
Al10 Pt4 2.677759 1_555
Al10 Pt5 2.697988 1_656
Al10 Ti5 2.899719 1_555
Al10 Ti4 2.915443 1_545
Al10 Ti0 2.915450 1_556
Al11 Re0 2.554010 1_555
Al11 Pt1 2.681994 1_555
Al11 Pt0 2.682001 1_555
Al11 Pt2 2.685733 1_554
Al11 Ti5 2.895377 1_565
Al11 Ti3 2.922260 1_554
Al11 Ti4 2.922260 1_555
Al12 Re0 2.554010 1_545
Al12 Pt4 2.682001 1_555
Al12 Pt3 2.682001 1_555
Al12 Pt2 2.685733 1_555
Al12 Ti5 2.895377 1_555
Al12 Ti1 2.922260 1_555
Al12 Ti0 2.922260 1_556
Al13 Re0 2.547484 1_555
Al13 Pt5 2.681468 1_666
Al13 Pt1 2.687749 1_556
Al13 Pt3 2.687756 1_555
Al13 Ti0 2.927046 1_566
Al13 Ti4 2.927053 1_555
Al13 Ti2 2.948540 1_555
Al14 Re0 2.547484 1_555
Al14 Pt5 2.681461 1_565
Al14 Pt4 2.687756 1_454
Al14 Pt0 2.687756 1_455
Al14 Ti3 2.927046 1_554
Al14 Ti1 2.927046 1_565
Al14 Ti2 2.948547 1_555
Re0 Ti7 2.512853 1_555
Re0 Ti6 2.512867 1_565
Pt0 Ti6 2.711336 1_665
Pt0 Ti4 3.067312 1_555
Pt0 Ti5 3.093291 1_565
Pt0 Ti2 3.098199 1_655
Pt0 Ti1 3.120146 1_665
Pt1 Ti6 2.711343 1_564
Pt1 Ti3 3.067313 1_554
Pt1 Ti5 3.093285 1_565
Pt1 Ti2 3.098205 1_554
Pt1 Ti0 3.120145 1_565
Pt2 Ti6 2.677450 1_555
Pt2 Ti7 2.677451 1_556
Pt2 Ti4 3.096008 1_556
Pt2 Ti1 3.096008 1_555
Pt2 Ti0 3.096009 1_556
Pt2 Ti3 3.096009 1_555
Pt3 Ti7 2.711351 1_555
Pt3 Ti1 3.067319 1_555
Pt3 Ti5 3.093284 1_555
Pt3 Ti2 3.098206 1_555
Pt3 Ti4 3.120139 1_555
Pt4 Ti7 2.711337 1_656
Pt4 Ti0 3.067319 1_556
Pt4 Ti5 3.093284 1_555
Pt4 Ti2 3.098206 1_656
Pt4 Ti3 3.120139 1_655
Pt5 Ti1 3.098551 1_555
Pt5 Ti4 3.098551 1_444
Pt5 Ti3 3.098551 1_544
Pt5 Ti0 3.098551 1_455
