# generated using pymatgen
data_ZrTi5BI12
_symmetry_space_group_name_H-M   'P 1'
_cell_length_a   9.20307504
_cell_length_b   8.95853062
_cell_length_c   9.21087684
_cell_angle_alpha   107.28095227
_cell_angle_beta   107.24808292
_cell_angle_gamma   106.52343036
_symmetry_Int_Tables_number   1
_chemical_formula_structural   ZrTi5BI12
_chemical_formula_sum   'Zr1 Ti5 B1 I12'
_cell_volume   632.10656532
_cell_formula_units_Z   1
loop_
 _symmetry_equiv_pos_site_id
 _symmetry_equiv_pos_as_xyz
  1  'x, y, z'
loop_
 _atom_site_type_symbol
 _atom_site_label
 _atom_site_symmetry_multiplicity
 _atom_site_fract_x
 _atom_site_fract_y
 _atom_site_fract_z
 _atom_site_occupancy
  Zr  Zr0  1  0.03054852  0.28586100  0.09199755  1
  Ti  Ti0  1  0.97174001  0.73979145  0.91413901  1
  Ti  Ti1  1  0.25592150  0.08172367  0.02760381  1
  Ti  Ti2  1  0.08308894  0.02516855  0.25447045  1
  Ti  Ti3  1  0.91647885  0.97197809  0.74369429  1
  Ti  Ti4  1  0.74521891  0.91517083  0.97173223  1
  B  B0  1  0.00121050  0.00615899  0.00151708  1
  I  I0  1  0.92305626  0.29624072  0.76742238  1
  I  I1  1  0.69615651  0.21826507  0.07436160  1
  I  I2  1  0.42428615  0.13234329  0.35612488  1
  I  I3  1  0.86009725  0.63711307  0.57072646  1
  I  I4  1  0.21769086  0.07173573  0.70970388  1
  I  I5  1  0.64328926  0.56581159  0.85866380  1
  I  I6  1  0.37109515  0.43756896  0.14300681  1
  I  I7  1  0.78303340  0.92261213  0.28905615  1
  I  I8  1  0.14399101  0.36362266  0.44184294  1
  I  I9  1  0.57421579  0.86476726  0.64467381  1
  I  I10  1  0.28797808  0.77227298  0.92432839  1
  I  I11  1  0.07090106  0.69179398  0.21493347  1
loop_
_geom_bond_atom_site_label_1
_geom_bond_atom_site_label_2
_geom_bond_distance
_geom_bond_site_symmetry_2
B0 Ti3 2.162260 1_444
B0 Ti2 2.162285 1_555
B0 Ti1 2.162784 1_555
B0 Ti4 2.163684 1_444
B0 Ti0 2.185624 1_444
B0 Zr0 2.299379 1_555
I0 Ti3 2.829295 1_545
I0 Zr0 2.896333 1_656
I1 Ti4 2.809939 1_544
I1 Zr0 2.906677 1_655
I2 Ti2 2.768754 1_555
I2 Ti1 2.787041 1_555
I3 Ti3 2.755306 1_555
I3 Ti0 2.777347 1_555
I4 Ti3 2.802293 1_445
I4 Ti1 2.814475 1_556
I5 Ti4 2.752099 1_555
I5 Ti0 2.785399 1_555
I6 Ti1 2.795072 1_555
I6 Zr0 2.866154 1_555
I7 Ti2 2.797060 1_665
I7 Ti4 2.817151 1_554
I8 Ti2 2.799436 1_555
I8 Zr0 2.866461 1_555
I9 Ti3 2.780481 1_555
I9 Ti4 2.780628 1_555
I10 Ti1 2.782453 1_566
I10 Ti0 2.811364 1_455
I11 Ti0 2.850511 1_454
I11 Ti2 2.864214 1_565
I11 Zr0 3.343752 1_555
