# generated using pymatgen
data_LiMn(HgPd2)2
_symmetry_space_group_name_H-M   'P 1'
_cell_length_a   5.57854816
_cell_length_b   5.57854761
_cell_length_c   5.84943101
_cell_angle_alpha   58.38028557
_cell_angle_beta   58.38028907
_cell_angle_gamma   63.23943042
_symmetry_Int_Tables_number   1
_chemical_formula_structural   LiMn(HgPd2)2
_chemical_formula_sum   'Li1 Mn1 Hg2 Pd4'
_cell_volume   128.08008265
_cell_formula_units_Z   1
loop_
 _symmetry_equiv_pos_site_id
 _symmetry_equiv_pos_as_xyz
  1  'x, y, z'
loop_
 _atom_site_type_symbol
 _atom_site_label
 _atom_site_symmetry_multiplicity
 _atom_site_fract_x
 _atom_site_fract_y
 _atom_site_fract_z
 _atom_site_occupancy
  Li  Li0  1  0.00000000  0.00000000  0.00000000  1
  Mn  Mn0  1  0.50000000  0.50000000  0.50000000  1
  Hg  Hg0  1  0.00000000  0.00000000  0.50000000  1
  Hg  Hg1  1  0.50000000  0.50000000  0.00000000  1
  Pd  Pd0  1  0.50000000  0.00000000  0.50000000  1
  Pd  Pd1  1  0.00000000  0.50000000  0.50000000  1
  Pd  Pd2  1  0.00000000  0.50000000  0.00000000  1
  Pd  Pd3  1  0.50000000  0.00000000  0.00000000  1
loop_
_geom_bond_atom_site_label_1
_geom_bond_atom_site_label_2
_geom_bond_distance
_geom_bond_site_symmetry_2
Li0 Pd2 2.789274 1_545
Li0 Pd2 2.789274 1_555
Li0 Pd1 2.789274 1_545
Li0 Pd1 2.789274 1_554
Li0 Pd3 2.789274 1_555
Li0 Pd3 2.789274 1_455
Li0 Pd0 2.789274 1_455
Li0 Pd0 2.789274 1_554
Mn0 Pd0 2.789274 1_565
Mn0 Pd0 2.789274 1_555
Mn0 Pd3 2.789274 1_556
Mn0 Pd3 2.789274 1_565
Mn0 Pd1 2.789274 1_555
Mn0 Pd1 2.789274 1_655
Mn0 Pd2 2.789274 1_556
Mn0 Pd2 2.789274 1_655
Hg0 Pd1 2.789274 1_555
Hg0 Pd1 2.789274 1_545
Hg0 Pd2 2.789274 1_555
Hg0 Pd2 2.789274 1_546
Hg0 Pd0 2.789274 1_555
Hg0 Pd0 2.789274 1_455
Hg0 Pd3 2.789274 1_555
Hg0 Pd3 2.789274 1_456
Hg0 Mn0 2.924715 1_455
Hg0 Mn0 2.924715 1_545
Hg0 Li0 2.924716 1_556
Hg0 Li0 2.924716 1_555
Hg1 Pd3 2.789274 1_565
Hg1 Pd3 2.789274 1_555
Hg1 Pd0 2.789274 1_555
Hg1 Pd0 2.789274 1_564
Hg1 Pd2 2.789274 1_655
Hg1 Pd2 2.789274 1_555
Hg1 Pd1 2.789274 1_654
Hg1 Pd1 2.789274 1_555
Hg1 Li0 2.924715 1_565
Hg1 Li0 2.924715 1_655
Hg1 Mn0 2.924716 1_555
Hg1 Mn0 2.924716 1_554
Pd0 Pd1 2.924715 1_645
Pd0 Pd1 2.924715 1_555
Pd0 Pd3 2.924716 1_555
Pd0 Pd3 2.924716 1_556
Pd1 Pd2 2.924716 1_555
Pd1 Pd2 2.924716 1_556
Pd2 Pd3 2.924715 1_465
Pd2 Pd3 2.924715 1_555
