# generated using pymatgen
data_RbCoP2Os
_symmetry_space_group_name_H-M   'P 1'
_cell_length_a   7.46089850
_cell_length_b   7.46089884
_cell_length_c   7.46089866
_cell_angle_alpha   150.35960209
_cell_angle_beta   150.35960195
_cell_angle_gamma   42.41379913
_symmetry_Int_Tables_number   1
_chemical_formula_structural   RbCoP2Os
_chemical_formula_sum   'Rb1 Co1 P2 Os1'
_cell_volume   101.32938943
_cell_formula_units_Z   1
loop_
 _symmetry_equiv_pos_site_id
 _symmetry_equiv_pos_as_xyz
  1  'x, y, z'
loop_
 _atom_site_type_symbol
 _atom_site_label
 _atom_site_symmetry_multiplicity
 _atom_site_fract_x
 _atom_site_fract_y
 _atom_site_fract_z
 _atom_site_occupancy
  Rb  Rb0  1  0.00000000  0.00000000  0.00000000  1
  Co  Co0  1  0.25000000  0.75000000  0.50000000  1
  P  P0  1  0.33820097  0.33820097  0.00000000  1
  P  P1  1  0.66179903  0.66179903  1.00000000  1
  Os  Os0  1  0.75000000  0.25000000  0.50000000  1
loop_
_geom_bond_atom_site_label_1
_geom_bond_atom_site_label_2
_geom_bond_distance
_geom_bond_site_symmetry_2
Co0 P0 2.268807 1_555
Co0 P1 2.268807 1_454
Co0 P1 2.268807 1_555
Co0 P0 2.268807 1_566
Co0 Os0 2.698882 1_555
Co0 Os0 2.698882 1_465
Co0 Os0 2.698882 1_454
Co0 Os0 2.698882 1_566
P0 Rb0 3.514288 1_655
P0 Rb0 3.514288 1_565
P0 Rb0 3.514288 1_554
P0 Rb0 3.514288 1_666
P1 Rb0 3.514288 1_566
P1 Rb0 3.514288 1_656
P1 Rb0 3.514288 1_667
P1 Rb0 3.514288 1_555
Os0 P1 2.268807 1_555
Os0 P0 2.268807 1_656
Os0 P0 2.268807 1_555
Os0 P1 2.268807 1_544
