# generated using pymatgen
data_CaTa2CdO7
_symmetry_space_group_name_H-M   'P 1'
_cell_length_a   7.45911076
_cell_length_b   7.37711615
_cell_length_c   7.37711652
_cell_angle_alpha   59.36100369
_cell_angle_beta   59.63164049
_cell_angle_gamma   59.63163808
_symmetry_Int_Tables_number   1
_chemical_formula_structural   CaTa2CdO7
_chemical_formula_sum   'Ca2 Ta4 Cd2 O14'
_cell_volume   284.04478570
_cell_formula_units_Z   2
loop_
 _symmetry_equiv_pos_site_id
 _symmetry_equiv_pos_as_xyz
  1  'x, y, z'
loop_
 _atom_site_type_symbol
 _atom_site_label
 _atom_site_symmetry_multiplicity
 _atom_site_fract_x
 _atom_site_fract_y
 _atom_site_fract_z
 _atom_site_occupancy
  Ca  Ca0  1  0.62500000  0.12500000  0.12500000  1
  Ca  Ca1  1  0.12500000  0.12500000  0.12500000  1
  Ta  Ta0  1  0.62500000  0.62500000  0.12500000  1
  Ta  Ta1  1  0.62500000  0.12500000  0.62500000  1
  Ta  Ta2  1  0.12500000  0.62500000  0.62500000  1
  Ta  Ta3  1  0.62500000  0.62500000  0.62500000  1
  Cd  Cd0  1  0.12500000  0.12500000  0.62500000  1
  Cd  Cd1  1  0.12500000  0.62500000  0.12500000  1
  O  O0  1  0.30906336  0.69644461  0.30641491  1
  O  O1  1  0.56192188  0.94358509  0.55355539  1
  O  O2  1  0.30906336  0.30641491  0.69644461  1
  O  O3  1  0.69614931  0.30385069  0.30385069  1
  O  O4  1  0.31091382  0.68908618  0.68908618  1
  O  O5  1  0.68807812  0.69644461  0.30641491  1
  O  O6  1  0.94093664  0.94358509  0.55355539  1
  O  O7  1  0.56192188  0.55355539  0.94358509  1
  O  O8  1  0.01088433  0.98911567  0.98911567  1
  O  O9  1  0.23911567  0.26088433  0.26088433  1
  O  O10  1  0.68807812  0.30641491  0.69644461  1
  O  O11  1  0.93908618  0.56091382  0.56091382  1
  O  O12  1  0.55385069  0.94614931  0.94614931  1
  O  O13  1  0.94093664  0.55355539  0.94358509  1
loop_
_geom_bond_atom_site_label_1
_geom_bond_atom_site_label_2
_geom_bond_distance
_geom_bond_site_symmetry_2
Ca0 O9 2.341801 1_555
Ca0 O8 2.341801 1_644
Ca0 O7 2.612978 1_554
Ca0 O5 2.612978 1_545
Ca0 O1 2.612978 1_545
Ca0 O10 2.612978 1_554
Ca0 O3 2.636977 1_555
Ca0 O12 2.636977 1_544
Ca1 O9 2.341801 1_555
Ca1 O8 2.341801 1_544
Ca1 O13 2.612979 1_454
Ca1 O0 2.612979 1_545
Ca1 O6 2.612979 1_445
Ca1 O2 2.612979 1_554
Ca1 O12 2.636977 1_544
Ca1 O3 2.636977 1_455
Cd0 O8 2.179698 1_545
Cd0 O9 2.179698 1_555
Cd0 O11 2.663102 1_455
Cd0 O4 2.663102 1_545
Cd0 O1 2.694869 1_545
Cd0 O10 2.694869 1_455
Cd0 O2 2.694875 1_555
Cd0 O6 2.694875 1_445
Cd1 O8 2.179698 1_554
Cd1 O9 2.179698 1_555
Cd1 O11 2.663102 1_455
Cd1 O4 2.663102 1_554
Cd1 O7 2.694869 1_554
Cd1 O5 2.694869 1_455
Cd1 O0 2.694875 1_555
Cd1 O13 2.694875 1_454
O0 Ta2 1.973039 1_555
O0 Ta0 1.973985 1_555
O1 Ta3 1.973038 1_555
O1 Ta1 1.973990 1_565
O2 Ta2 1.973039 1_555
O2 Ta1 1.973985 1_555
O3 Ta0 1.971297 1_555
O3 Ta1 1.971297 1_555
O4 Ta3 1.980840 1_555
O4 Ta2 1.980840 1_555
O5 Ta3 1.973038 1_555
O5 Ta0 1.973990 1_555
O6 Ta2 1.973039 1_655
O6 Ta1 1.973985 1_565
O7 Ta3 1.973038 1_555
O7 Ta0 1.973990 1_556
O10 Ta3 1.973038 1_555
O10 Ta1 1.973990 1_555
O11 Ta3 1.980840 1_555
O11 Ta2 1.980840 1_655
O12 Ta0 1.971297 1_556
O12 Ta1 1.971297 1_565
O13 Ta2 1.973039 1_655
O13 Ta0 1.973985 1_556
