# generated using pymatgen
data_CaYNiIr3
_symmetry_space_group_name_H-M   'P 1'
_cell_length_a   5.17718760
_cell_length_b   5.17718803
_cell_length_c   5.17718693
_cell_angle_alpha   62.06812583
_cell_angle_beta   62.06814137
_cell_angle_gamma   62.06812535
_symmetry_Int_Tables_number   1
_chemical_formula_structural   CaYNiIr3
_chemical_formula_sum   'Ca1 Y1 Ni1 Ir3'
_cell_volume   102.65885481
_cell_formula_units_Z   1
loop_
 _symmetry_equiv_pos_site_id
 _symmetry_equiv_pos_as_xyz
  1  'x, y, z'
loop_
 _atom_site_type_symbol
 _atom_site_label
 _atom_site_symmetry_multiplicity
 _atom_site_fract_x
 _atom_site_fract_y
 _atom_site_fract_z
 _atom_site_occupancy
  Ca  Ca0  1  0.99977413  0.99977413  0.99977413  1
  Y  Y0  1  0.24953083  0.24953083  0.24953083  1
  Ni  Ni0  1  0.62520815  0.62520815  0.62520815  1
  Ir  Ir0  1  0.12460831  0.62543929  0.62543929  1
  Ir  Ir1  1  0.62543929  0.12460831  0.62543929  1
  Ir  Ir2  1  0.62543929  0.62543929  0.12460831  1
loop_
_geom_bond_atom_site_label_1
_geom_bond_atom_site_label_2
_geom_bond_distance
_geom_bond_site_symmetry_2
Ca0 Ir1 3.016823 1_565
Ca0 Ir0 3.016823 1_655
Ca0 Ir2 3.016823 1_556
Ca0 Ir0 3.093965 1_656
Ca0 Ir2 3.093965 1_656
Ca0 Ir1 3.093966 1_566
Ca0 Ir2 3.093966 1_566
Ca0 Ir0 3.093966 1_665
Ca0 Ir1 3.093966 1_665
Ca0 Y0 3.116871 1_666
Ca0 Ni0 3.124656 1_565
Ca0 Ni0 3.124657 1_556
Ca0 Ni0 3.124657 1_655
Ca0 Y0 3.253699 1_665
Ca0 Y0 3.253699 1_656
Ca0 Y0 3.253699 1_566
Ni0 Y0 3.126970 1_565
Ni0 Y0 3.126971 1_556
Ni0 Y0 3.126971 1_655
Ir0 Ni0 2.586610 1_455
Ir0 Ni0 2.590579 1_555
Ir0 Ir1 2.664651 1_465
Ir0 Ir2 2.664651 1_456
Ir0 Ir1 2.673523 1_555
Ir0 Ir2 2.673523 1_555
Ir0 Y0 3.030382 1_555
Ir0 Y0 3.087549 1_556
Ir0 Y0 3.087550 1_565
Ir1 Ni0 2.586610 1_545
Ir1 Ni0 2.590579 1_555
Ir1 Ir2 2.664651 1_546
Ir1 Ir2 2.673522 1_555
Ir1 Y0 3.030381 1_555
Ir1 Y0 3.087550 1_556
Ir1 Y0 3.087550 1_655
Ir2 Ni0 2.586610 1_554
Ir2 Ni0 2.590578 1_555
Ir2 Y0 3.030382 1_555
Ir2 Y0 3.087549 1_655
Ir2 Y0 3.087550 1_565
