# generated using pymatgen
data_Ga4Hg11(AsI4)4
_symmetry_space_group_name_H-M   'P 1'
_cell_length_a   8.14447613
_cell_length_b   8.14447715
_cell_length_c   23.08666807
_cell_angle_alpha   82.78496098
_cell_angle_beta   82.78496125
_cell_angle_gamma   59.08785894
_symmetry_Int_Tables_number   1
_chemical_formula_structural   Ga4Hg11(AsI4)4
_chemical_formula_sum   'Ga4 Hg11 As4 I16'
_cell_volume   1300.10754598
_cell_formula_units_Z   1
loop_
 _symmetry_equiv_pos_site_id
 _symmetry_equiv_pos_as_xyz
  1  'x, y, z'
loop_
 _atom_site_type_symbol
 _atom_site_label
 _atom_site_symmetry_multiplicity
 _atom_site_fract_x
 _atom_site_fract_y
 _atom_site_fract_z
 _atom_site_occupancy
  Ga  Ga0  1  0.63840470  0.63840470  0.10602818  1
  Ga  Ga1  1  0.36159530  0.36159530  0.89397182  1
  Ga  Ga2  1  0.74651363  0.74651363  0.61003542  1
  Ga  Ga3  1  0.25348637  0.25348637  0.38996458  1
  Hg  Hg0  1  0.03264852  0.03264852  0.88153071  1
  Hg  Hg1  1  0.76179404  0.76179404  0.28161325  1
  Hg  Hg2  1  0.47231522  0.47231522  0.55815280  1
  Hg  Hg3  1  0.73631240  0.23932405  0.72056821  1
  Hg  Hg4  1  0.26368760  0.76067595  0.27943179  1
  Hg  Hg5  1  0.76067595  0.26368760  0.27943179  1
  Hg  Hg6  1  0.23932405  0.73631240  0.72056821  1
  Hg  Hg7  1  0.52768478  0.52768478  0.44184720  1
  Hg  Hg8  1  0.96735148  0.96735148  0.11846929  1
  Hg  Hg9  1  0.00000000  0.00000000  0.00000000  1
  Hg  Hg10  1  0.23820596  0.23820596  0.71838675  1
  As  As0  1  0.93758381  0.93758381  0.23571774  1
  As  As1  1  0.06241619  0.06241619  0.76428226  1
  As  As2  1  0.58484727  0.58484727  0.32678714  1
  As  As3  1  0.41515273  0.41515273  0.67321286  1
  I  I0  1  0.54289202  0.03768311  0.84850066  1
  I  I1  1  0.07685092  0.07685092  0.42721165  1
  I  I2  1  0.53848088  0.53848088  0.85092429  1
  I  I3  1  0.40128686  0.92549889  0.58094409  1
  I  I4  1  0.73130840  0.73130840  0.72100416  1
  I  I5  1  0.33486012  0.33486012  0.00345921  1
  I  I6  1  0.45710798  0.96231689  0.15149934  1
  I  I7  1  0.96231689  0.45710798  0.15149934  1
  I  I8  1  0.46151912  0.46151912  0.14907571  1
  I  I9  1  0.59871314  0.07450111  0.41905591  1
  I  I10  1  0.66513988  0.66513988  0.99654079  1
  I  I11  1  0.92549889  0.40128686  0.58094409  1
  I  I12  1  0.26869160  0.26869160  0.27899584  1
  I  I13  1  0.07450111  0.59871314  0.41905591  1
  I  I14  1  0.92314908  0.92314908  0.57278835  1
  I  I15  1  0.03768311  0.54289202  0.84850066  1
loop_
_geom_bond_atom_site_label_1
_geom_bond_atom_site_label_2
_geom_bond_distance
_geom_bond_site_symmetry_2
Ga0 I10 2.501259 1_554
Ga0 I7 2.558491 1_555
Ga0 I6 2.558491 1_555
Ga0 I8 2.559631 1_555
Ga1 I5 2.501259 1_556
Ga1 I15 2.558491 1_555
Ga1 I0 2.558491 1_555
Ga1 I2 2.559631 1_555
Ga2 I14 2.526562 1_555
Ga2 I4 2.539758 1_555
Ga2 I3 2.549293 1_555
Ga2 I11 2.549294 1_555
Ga3 I1 2.526562 1_555
Ga3 I12 2.539758 1_555
Ga3 I9 2.549293 1_555
Ga3 I13 2.549294 1_555
Hg0 Hg9 2.707260 1_556
Hg2 Hg7 2.686478 1_555
Hg8 Hg9 2.707260 1_665
As0 Hg4 2.554365 1_655
As0 Hg5 2.554365 1_565
As0 Hg1 2.562475 1_555
As0 Hg8 2.678701 1_555
As1 Hg3 2.554365 1_455
As1 Hg6 2.554365 1_545
As1 Hg10 2.562475 1_555
As1 Hg0 2.678701 1_555
As2 Hg4 2.562079 1_555
As2 Hg5 2.562079 1_555
As2 Hg1 2.572986 1_555
As2 Hg7 2.662915 1_555
As3 Hg3 2.562079 1_555
As3 Hg6 2.562079 1_555
As3 Hg10 2.572986 1_555
As3 Hg2 2.662915 1_555
