# generated using pymatgen
data_Ca3Si2O7
_symmetry_space_group_name_H-M   'P 1'
_cell_length_a   8.99406000
_cell_length_b   7.92686700
_cell_length_c   10.67987292
_cell_angle_alpha   60.67191538
_cell_angle_beta   90.00000000
_cell_angle_gamma   90.00000000
_symmetry_Int_Tables_number   1
_chemical_formula_structural   Ca3Si2O7
_chemical_formula_sum   'Ca12 Si8 O28'
_cell_volume   663.82696747
_cell_formula_units_Z   4
loop_
 _symmetry_equiv_pos_site_id
 _symmetry_equiv_pos_as_xyz
  1  'x, y, z'
loop_
 _atom_site_type_symbol
 _atom_site_label
 _atom_site_symmetry_multiplicity
 _atom_site_fract_x
 _atom_site_fract_y
 _atom_site_fract_z
 _atom_site_occupancy
  Ca  Ca0  1  0.59378100  0.28640400  0.15718900  1
  Ca  Ca1  1  0.09378100  0.71359600  0.34281100  1
  Ca  Ca2  1  0.40621900  0.71359600  0.84281100  1
  Ca  Ca3  1  0.90621900  0.28640400  0.65718900  1
  Ca  Ca4  1  0.92487900  0.20759100  0.33120500  1
  Ca  Ca5  1  0.42487900  0.79240900  0.16879500  1
  Ca  Ca6  1  0.07512100  0.79240900  0.66879500  1
  Ca  Ca7  1  0.57512100  0.20759100  0.83120500  1
  Ca  Ca8  1  0.44014700  0.29015700  0.49156500  1
  Ca  Ca9  1  0.94014700  0.70984300  0.00843500  1
  Ca  Ca10  1  0.55985300  0.70984300  0.50843500  1
  Ca  Ca11  1  0.05985300  0.29015700  0.99156500  1
  Si  Si0  1  0.28438900  0.98484900  0.41083100  1
  Si  Si1  1  0.78438900  0.01515100  0.08916900  1
  Si  Si2  1  0.71561100  0.01515100  0.58916900  1
  Si  Si3  1  0.21561100  0.98484900  0.91083100  1
  Si  Si4  1  0.26651900  0.43253800  0.20391300  1
  Si  Si5  1  0.76651900  0.56746200  0.29608700  1
  Si  Si6  1  0.73348100  0.56746200  0.79608700  1
  Si  Si7  1  0.23348100  0.43253800  0.70391300  1
  O  O0  1  0.33458300  0.93839400  0.57262400  1
  O  O1  1  0.83458300  0.06160600  0.92737600  1
  O  O2  1  0.66541700  0.06160600  0.42737600  1
  O  O3  1  0.16541700  0.93839400  0.07262400  1
  O  O4  1  0.35969500  0.84290400  0.35892900  1
  O  O5  1  0.85969500  0.15709600  0.14107100  1
  O  O6  1  0.64030500  0.15709600  0.64107100  1
  O  O7  1  0.14030500  0.84290400  0.85892900  1
  O  O8  1  0.10378100  0.97300800  0.40135700  1
  O  O9  1  0.60378100  0.02699200  0.09864300  1
  O  O10  1  0.89621900  0.02699200  0.59864300  1
  O  O11  1  0.39621900  0.97300800  0.90135700  1
  O  O12  1  0.34649500  0.21036800  0.29699100  1
  O  O13  1  0.84649500  0.78963200  0.20300900  1
  O  O14  1  0.65350500  0.78963200  0.70300900  1
  O  O15  1  0.15350500  0.21036800  0.79699100  1
  O  O16  1  0.39832000  0.54836200  0.08906900  1
  O  O17  1  0.89832000  0.45163800  0.41093100  1
  O  O18  1  0.60168000  0.45163800  0.91093100  1
  O  O19  1  0.10168000  0.54836200  0.58906900  1
  O  O20  1  0.39716300  0.42024800  0.64331000  1
  O  O21  1  0.89716300  0.57975200  0.85669000  1
  O  O22  1  0.60283700  0.57975200  0.35669000  1
  O  O23  1  0.10283700  0.42024800  0.14331000  1
  O  O24  1  0.23856800  0.50942400  0.82067400  1
  O  O25  1  0.73856800  0.49057600  0.67932600  1
  O  O26  1  0.76143200  0.49057600  0.17932600  1
  O  O27  1  0.26143200  0.50942400  0.32067400  1
loop_
_geom_bond_atom_site_label_1
_geom_bond_atom_site_label_2
_geom_bond_distance
_geom_bond_site_symmetry_2
Ca0 O18 2.294117 1_554
Ca0 O26 2.307324 1_555
Ca0 O9 2.426326 1_555
Ca0 O16 2.540035 1_555
Ca0 O12 2.580233 1_555
Ca0 O2 2.622937 1_555
Ca0 O5 2.640661 1_555
Ca1 O19 2.294117 1_555
Ca1 O27 2.307324 1_555
Ca1 O8 2.426326 1_555
Ca1 O17 2.540035 1_455
Ca1 O13 2.580233 1_455
Ca1 O3 2.622937 1_555
Ca1 O4 2.640661 1_555
Ca2 O16 2.294117 1_556
Ca2 O24 2.307324 1_555
Ca2 O11 2.426326 1_555
Ca2 O18 2.540035 1_555
Ca2 O14 2.580233 1_555
Ca2 O0 2.622937 1_555
Ca2 O7 2.640661 1_555
Ca3 O17 2.294117 1_555
Ca3 O25 2.307324 1_555
Ca3 O10 2.426326 1_555
Ca3 O19 2.540035 1_655
Ca3 O15 2.580233 1_655
Ca3 O1 2.622937 1_555
Ca3 O6 2.640661 1_555
Ca4 O8 2.289842 1_645
Ca4 O5 2.328843 1_555
Ca4 O23 2.473151 1_655
Ca4 O17 2.477511 1_555
Ca4 O26 2.501914 1_555
Ca4 O10 2.503640 1_555
Ca4 O2 2.583694 1_555
Ca5 O9 2.289842 1_565
Ca5 O4 2.328843 1_555
Ca5 O22 2.473151 1_555
Ca5 O16 2.477511 1_555
Ca5 O27 2.501914 1_555
Ca5 O11 2.503640 1_554
Ca5 O3 2.583694 1_555
Ca6 O10 2.289842 1_465
Ca6 O7 2.328843 1_555
Ca6 O21 2.473151 1_455
Ca6 O19 2.477511 1_555
Ca6 O24 2.501914 1_555
Ca6 O8 2.503640 1_555
Ca6 O0 2.583694 1_555
Ca7 O11 2.289842 1_545
Ca7 O6 2.328843 1_555
Ca7 O20 2.473151 1_555
Ca7 O18 2.477511 1_555
Ca7 O25 2.501914 1_555
Ca7 O9 2.503640 1_556
Ca7 O1 2.583694 1_555
Ca8 O6 2.291944 1_555
Ca8 O20 2.340172 1_555
Ca8 O27 2.414138 1_555
Ca8 O22 2.499278 1_555
Ca8 O12 2.591375 1_555
Ca8 O0 2.657300 1_545
Ca8 O2 3.012290 1_555
Ca9 O7 2.291944 1_654
Ca9 O21 2.340172 1_554
Ca9 O26 2.414138 1_555
Ca9 O23 2.499278 1_655
Ca9 O13 2.591375 1_555
Ca9 O1 2.657300 1_564
Ca9 O3 3.012290 1_655
Ca10 O4 2.291944 1_555
Ca10 O22 2.340172 1_555
Ca10 O25 2.414138 1_555
Ca10 O20 2.499278 1_555
Ca10 O14 2.591375 1_555
Ca10 O2 2.657300 1_565
Ca10 O0 3.012290 1_555
Ca11 O5 2.291944 1_456
Ca11 O23 2.340172 1_556
Ca11 O24 2.414138 1_555
Ca11 O21 2.499278 1_455
Ca11 O15 2.591375 1_555
Ca11 O3 2.657300 1_546
Ca11 O1 3.012290 1_455
O0 Si0 1.643720 1_555
O1 Si1 1.643720 1_556
O2 Si2 1.643720 1_555
O3 Si3 1.643720 1_554
O4 Si0 1.625734 1_555
O5 Si1 1.625734 1_555
O6 Si2 1.625734 1_555
O7 Si3 1.625734 1_555
O8 Si0 1.633103 1_555
O9 Si1 1.633103 1_555
O10 Si2 1.633103 1_555
O11 Si3 1.633103 1_555
O12 Si0 1.690198 1_545
O12 Si4 1.700619 1_555
O13 Si1 1.690198 1_565
O13 Si5 1.700619 1_555
O14 Si2 1.690198 1_565
O14 Si6 1.700619 1_555
O15 Si3 1.690198 1_545
O15 Si7 1.700619 1_555
O16 Si4 1.627694 1_555
O17 Si5 1.627694 1_555
O18 Si6 1.627694 1_555
O19 Si7 1.627694 1_555
O20 Si7 1.630166 1_555
O21 Si6 1.630166 1_555
O22 Si5 1.630166 1_555
O23 Si4 1.630166 1_555
O24 Si7 1.634944 1_555
O25 Si6 1.634944 1_555
O26 Si5 1.634944 1_555
O27 Si4 1.634944 1_555
