# generated using pymatgen
data_K2RbBi2Au3
_symmetry_space_group_name_H-M   'P 1'
_cell_length_a   8.24503006
_cell_length_b   8.24503065
_cell_length_c   8.24503052
_cell_angle_alpha   45.33911003
_cell_angle_beta   45.33910732
_cell_angle_gamma   45.33911004
_symmetry_Int_Tables_number   1
_chemical_formula_structural   K2RbBi2Au3
_chemical_formula_sum   'K2 Rb1 Bi2 Au3'
_cell_volume   258.28382288
_cell_formula_units_Z   1
loop_
 _symmetry_equiv_pos_site_id
 _symmetry_equiv_pos_as_xyz
  1  'x, y, z'
loop_
 _atom_site_type_symbol
 _atom_site_label
 _atom_site_symmetry_multiplicity
 _atom_site_fract_x
 _atom_site_fract_y
 _atom_site_fract_z
 _atom_site_occupancy
  K  K0  1  0.07736476  0.07736476  0.07736476  1
  K  K1  1  0.92263524  0.92263524  0.92263524  1
  Rb  Rb0  1  0.50000000  0.50000000  0.50000000  1
  Bi  Bi0  1  0.23970759  0.23970759  0.23970759  1
  Bi  Bi1  1  0.76029241  0.76029241  0.76029241  1
  Au  Au0  1  0.50000000  0.50000000  0.00000000  1
  Au  Au1  1  0.50000000  0.00000000  0.49999900  1
  Au  Au2  1  0.00000000  0.50000000  0.49999900  1
loop_
_geom_bond_atom_site_label_1
_geom_bond_atom_site_label_2
_geom_bond_distance
_geom_bond_site_symmetry_2
K0 K1 3.427343 1_444
K0 Rb0 4.168582 1_554
K0 Rb0 4.168582 1_455
K0 Rb0 4.168582 1_545
K1 Rb0 4.168582 1_556
K1 Rb0 4.168582 1_655
K1 Rb0 4.168582 1_565
Bi0 K0 3.595981 1_555
Bi0 K1 3.687002 1_544
Bi0 K1 3.687003 1_445
Bi0 K1 3.687003 1_454
Bi0 Rb0 4.010217 1_455
Bi0 Rb0 4.010217 1_554
Bi0 Rb0 4.010217 1_545
Bi1 K1 3.595981 1_555
Bi1 K0 3.687002 1_566
Bi1 K0 3.687003 1_665
Bi1 K0 3.687003 1_656
Bi1 Rb0 4.010217 1_655
Bi1 Rb0 4.010217 1_556
Bi1 Rb0 4.010217 1_565
Au0 Bi1 2.768928 1_554
Au0 Bi0 2.768928 1_555
Au0 K0 3.610382 1_655
Au0 K1 3.610382 1_454
Au0 K0 3.610382 1_565
Au0 K1 3.610382 1_544
Au0 Rb0 4.122515 1_554
Au0 Rb0 4.122515 1_555
Au1 Bi0 2.768921 1_555
Au1 Bi1 2.768935 1_545
Au1 K1 3.610376 1_544
Au1 K1 3.610381 1_445
Au1 K0 3.610383 1_655
Au1 K0 3.610388 1_556
Au1 Rb0 4.122510 1_545
Au1 Rb0 4.122521 1_555
Au2 Bi0 2.768921 1_555
Au2 Bi1 2.768935 1_455
Au2 K1 3.610376 1_454
Au2 K1 3.610381 1_445
Au2 K0 3.610383 1_565
Au2 K0 3.610388 1_556
Au2 Rb0 4.122509 1_455
Au2 Rb0 4.122521 1_555
