# generated using pymatgen
data_AlZn5W
_symmetry_space_group_name_H-M   'P 1'
_cell_length_a   5.26980027
_cell_length_b   5.41159221
_cell_length_c   5.41159291
_cell_angle_alpha   60.10656142
_cell_angle_beta   60.86301868
_cell_angle_gamma   60.86302093
_symmetry_Int_Tables_number   1
_chemical_formula_structural   AlZn5W
_chemical_formula_sum   'Al1 Zn5 W1'
_cell_volume   110.61916848
_cell_formula_units_Z   1
loop_
 _symmetry_equiv_pos_site_id
 _symmetry_equiv_pos_as_xyz
  1  'x, y, z'
loop_
 _atom_site_type_symbol
 _atom_site_label
 _atom_site_symmetry_multiplicity
 _atom_site_fract_x
 _atom_site_fract_y
 _atom_site_fract_z
 _atom_site_occupancy
  Al  Al0  1  0.50000000  0.00000000  0.00000000  1
  Zn  Zn0  1  0.50000000  0.50000000  0.00000000  1
  Zn  Zn1  1  0.50000000  0.00000000  0.50000000  1
  Zn  Zn2  1  0.00000000  0.00000000  0.50000000  1
  Zn  Zn3  1  0.00000000  0.50000000  0.00000000  1
  Zn  Zn4  1  0.00000000  0.50000000  0.50000000  1
  W  W0  1  0.00000000  0.00000000  0.00000000  1
loop_
_geom_bond_atom_site_label_1
_geom_bond_atom_site_label_2
_geom_bond_distance
_geom_bond_site_symmetry_2
Al0 W0 2.634900 1_555
Al0 W0 2.634900 1_655
Al0 Zn0 2.705796 1_545
Al0 Zn0 2.705796 1_555
Al0 Zn3 2.705796 1_645
Al0 Zn3 2.705796 1_555
Al0 Zn2 2.705796 1_654
Al0 Zn2 2.705796 1_555
Al0 Zn1 2.705796 1_555
Al0 Zn1 2.705796 1_554
Zn0 Zn3 2.634900 1_655
Zn0 Zn3 2.634900 1_555
Zn0 Zn4 2.705796 1_555
Zn0 Zn4 2.705796 1_654
Zn0 Zn1 2.710153 1_555
Zn0 Zn1 2.710153 1_564
Zn1 Zn2 2.634900 1_555
Zn1 Zn2 2.634900 1_655
Zn1 Zn4 2.705796 1_645
Zn1 Zn4 2.705796 1_555
Zn2 Zn4 2.705796 1_545
Zn2 Zn4 2.705796 1_555
Zn2 Zn3 2.710153 1_555
Zn2 Zn3 2.710153 1_546
Zn3 Zn4 2.705796 1_555
Zn3 Zn4 2.705796 1_554
W0 Zn3 2.705796 1_545
W0 Zn3 2.705796 1_555
W0 Zn0 2.705796 1_545
W0 Zn0 2.705796 1_455
W0 Zn1 2.705796 1_455
W0 Zn1 2.705796 1_554
W0 Zn2 2.705796 1_555
W0 Zn2 2.705796 1_554
W0 Zn4 2.710153 1_554
W0 Zn4 2.710153 1_545
