# generated using pymatgen
data_Ta6Be6C
_symmetry_space_group_name_H-M   'P 1'
_cell_length_a   7.71386076
_cell_length_b   7.71386105
_cell_length_c   7.71386159
_cell_angle_alpha   59.99999766
_cell_angle_beta   59.99999642
_cell_angle_gamma   60.00000379
_symmetry_Int_Tables_number   1
_chemical_formula_structural   Ta6Be6C
_chemical_formula_sum   'Ta12 Be12 C2'
_cell_volume   324.56407227
_cell_formula_units_Z   2
loop_
 _symmetry_equiv_pos_site_id
 _symmetry_equiv_pos_as_xyz
  1  'x, y, z'
loop_
 _atom_site_type_symbol
 _atom_site_label
 _atom_site_symmetry_multiplicity
 _atom_site_fract_x
 _atom_site_fract_y
 _atom_site_fract_z
 _atom_site_occupancy
  Ta  Ta0  1  0.05158626  0.05158626  0.44841374  1
  Ta  Ta1  1  0.44841374  0.05158626  0.44841374  1
  Ta  Ta2  1  0.05158626  0.44841374  0.44841374  1
  Ta  Ta3  1  0.44841374  0.44841374  0.05158626  1
  Ta  Ta4  1  0.05158626  0.44841374  0.05158626  1
  Ta  Ta5  1  0.44841374  0.05158626  0.05158626  1
  Ta  Ta6  1  0.19841374  0.19841374  0.80158626  1
  Ta  Ta7  1  0.80158626  0.19841374  0.80158626  1
  Ta  Ta8  1  0.19841374  0.80158626  0.80158626  1
  Ta  Ta9  1  0.80158626  0.80158626  0.19841374  1
  Ta  Ta10  1  0.19841374  0.80158626  0.19841374  1
  Ta  Ta11  1  0.80158626  0.19841374  0.19841374  1
  Be  Be0  1  0.42368067  0.42368067  0.72896000  1
  Be  Be1  1  0.42368067  0.72896000  0.42368067  1
  Be  Be2  1  0.72896000  0.42368067  0.42368067  1
  Be  Be3  1  0.42368067  0.42368067  0.42368067  1
  Be  Be4  1  0.82631933  0.82631933  0.52104000  1
  Be  Be5  1  0.82631933  0.52104000  0.82631933  1
  Be  Be6  1  0.52104000  0.82631933  0.82631933  1
  Be  Be7  1  0.82631933  0.82631933  0.82631933  1
  Be  Be8  1  0.62500000  0.62500000  0.12500000  1
  Be  Be9  1  0.62500000  0.12500000  0.62500000  1
  Be  Be10  1  0.12500000  0.62500000  0.62500000  1
  Be  Be11  1  0.62500000  0.62500000  0.62500000  1
  C  C0  1  0.25000000  0.25000000  0.25000000  1
  C  C1  1  0.00000000  0.00000000  0.00000000  1
loop_
_geom_bond_atom_site_label_1
_geom_bond_atom_site_label_2
_geom_bond_distance
_geom_bond_site_symmetry_2
Be0 Be11 2.321062 1_555
Be0 Be10 2.321075 1_555
Be0 Be9 2.321075 1_555
Be0 Be2 2.354882 1_555
Be0 Be1 2.354882 1_555
Be0 Be3 2.354882 1_555
Be0 Ta3 2.693032 1_556
Be0 Ta4 2.693041 1_556
Be0 Ta5 2.693041 1_556
Be0 Ta7 2.724952 1_555
Be0 Ta8 2.724952 1_555
Be0 Ta6 2.724965 1_555
Be1 Be11 2.321062 1_555
Be1 Be10 2.321075 1_555
Be1 Be8 2.321075 1_555
Be1 Be3 2.354882 1_555
Be1 Be2 2.354882 1_555
Be1 Ta1 2.693032 1_565
Be1 Ta5 2.693041 1_565
Be1 Ta0 2.693041 1_565
Be1 Ta9 2.724952 1_555
Be1 Ta8 2.724952 1_555
Be1 Ta10 2.724965 1_555
Be2 Be9 2.321075 1_555
Be2 Be8 2.321075 1_555
Be2 Be3 2.354882 1_555
Be2 Ta2 2.693032 1_655
Be2 Ta4 2.693041 1_655
Be2 Ta0 2.693041 1_655
Be2 Ta9 2.724952 1_555
Be2 Ta7 2.724952 1_555
Be2 Ta11 2.724965 1_555
Be3 Be8 2.321067 1_555
Be3 Be9 2.321067 1_555
Be3 Ta2 2.693047 1_555
Be3 Ta1 2.693047 1_555
Be3 Ta3 2.693048 1_555
Be3 Ta6 2.724958 1_555
Be3 Ta11 2.724958 1_555
Be3 Ta10 2.724958 1_555
Be4 Be9 2.321075 1_565
Be4 Be6 2.354882 1_555
Be4 Be5 2.354882 1_555
Be4 Be7 2.354882 1_555
Be4 Ta9 2.693032 1_555
Be4 Ta10 2.693041 1_655
Be4 Ta11 2.693041 1_565
Be4 Ta1 2.724952 1_565
Be4 Ta2 2.724952 1_655
Be4 Ta0 2.724965 1_665
Be5 Be8 2.321075 1_556
Be5 Be7 2.354882 1_555
Be5 Be6 2.354882 1_555
Be5 Ta7 2.693032 1_555
Be5 Ta11 2.693041 1_556
Be5 Ta6 2.693041 1_655
Be5 Ta3 2.724952 1_556
Be5 Ta2 2.724952 1_655
Be5 Ta4 2.724965 1_656
Be6 Be9 2.321075 1_565
Be6 Be8 2.321075 1_556
Be6 Be7 2.354882 1_555
Be6 Ta8 2.693032 1_555
Be6 Ta10 2.693041 1_556
Be6 Ta6 2.693041 1_565
Be6 Ta3 2.724952 1_556
Be6 Ta1 2.724952 1_565
Be6 Ta5 2.724965 1_566
Be7 Be8 2.321067 1_556
Be7 Be9 2.321067 1_565
Be7 Ta8 2.693047 1_655
Be7 Ta7 2.693047 1_565
Be7 Ta9 2.693048 1_556
Be7 Ta0 2.724958 1_665
Be7 Ta5 2.724958 1_566
Be7 Ta4 2.724958 1_656
Be8 Ta4 2.725793 1_655
Be8 Ta10 2.725793 1_555
Be8 Ta9 2.725793 1_555
Be8 Ta3 2.725793 1_555
Be8 Ta5 2.725793 1_565
Be8 Ta11 2.725793 1_555
Be9 Ta0 2.725793 1_655
Be9 Ta6 2.725793 1_555
Be9 Ta7 2.725793 1_555
Be9 Ta5 2.725793 1_556
Be9 Ta11 2.725793 1_555
Be9 Ta1 2.725793 1_555
Be10 Be7 2.321067 1_455
Be10 Be3 2.321067 1_555
Be10 Be5 2.321075 1_455
Be10 Be4 2.321075 1_455
Be10 Ta0 2.725793 1_565
Be10 Ta6 2.725793 1_555
Be10 Ta8 2.725793 1_555
Be10 Ta4 2.725793 1_556
Be10 Ta10 2.725793 1_555
Be10 Ta2 2.725793 1_555
Be11 Be4 2.321062 1_555
Be11 Be5 2.321062 1_555
Be11 Be6 2.321062 1_555
Be11 Be2 2.321062 1_555
Be11 Ta2 2.725793 1_655
Be11 Ta8 2.725793 1_555
Be11 Ta3 2.725793 1_556
Be11 Ta9 2.725793 1_555
Be11 Ta1 2.725793 1_565
Be11 Ta7 2.725793 1_555
C0 Ta3 2.164505 1_555
C0 Ta0 2.164505 1_555
C0 Ta2 2.164505 1_555
C0 Ta1 2.164505 1_555
C0 Ta5 2.164505 1_555
C0 Ta4 2.164505 1_555
C1 Ta6 2.164505 1_554
C1 Ta9 2.164505 1_445
C1 Ta11 2.164505 1_455
C1 Ta10 2.164505 1_545
C1 Ta8 2.164505 1_544
C1 Ta7 2.164505 1_454
