# generated using pymatgen
data_K2CaCdAs2
_symmetry_space_group_name_H-M   'P 1'
_cell_length_a   4.75664854
_cell_length_b   4.75664854
_cell_length_c   7.89812105
_cell_angle_alpha   90.00000000
_cell_angle_beta   90.00000000
_cell_angle_gamma   90.00000000
_symmetry_Int_Tables_number   1
_chemical_formula_structural   K2CaCdAs2
_chemical_formula_sum   'K2 Ca1 Cd1 As2'
_cell_volume   178.70055924
_cell_formula_units_Z   1
loop_
 _symmetry_equiv_pos_site_id
 _symmetry_equiv_pos_as_xyz
  1  'x, y, z'
loop_
 _atom_site_type_symbol
 _atom_site_label
 _atom_site_symmetry_multiplicity
 _atom_site_fract_x
 _atom_site_fract_y
 _atom_site_fract_z
 _atom_site_occupancy
  K  K0  1  0.00000000  0.50000000  0.35896525  1
  K  K1  1  0.50000000  0.00000000  0.64103475  1
  Ca  Ca0  1  0.00000000  0.00000000  0.00000000  1
  Cd  Cd0  1  0.50000000  0.50000000  0.00000000  1
  As  As0  1  0.00000000  0.50000000  0.79532550  1
  As  As1  1  0.50000000  0.00000000  0.20467450  1
loop_
_geom_bond_atom_site_label_1
_geom_bond_atom_site_label_2
_geom_bond_distance
_geom_bond_site_symmetry_2
Ca0 Cd0 3.363458 1_445
Ca0 Cd0 3.363458 1_545
Ca0 Cd0 3.363458 1_455
Ca0 Cd0 3.363458 1_555
Cd0 K0 3.700609 1_555
Cd0 K0 3.700609 1_655
Cd0 K1 3.700609 1_564
Cd0 K1 3.700609 1_554
As0 Ca0 2.875698 1_566
As0 Ca0 2.875698 1_556
As0 Cd0 2.875698 1_556
As0 Cd0 2.875698 1_456
As0 K0 3.446426 1_555
As0 K1 3.577409 1_455
As0 K1 3.577409 1_555
As0 K1 3.577409 1_465
As0 K1 3.577409 1_565
As1 Ca0 2.875698 1_555
As1 Cd0 2.875698 1_545
As1 Cd0 2.875698 1_555
As1 Ca0 2.875698 1_655
As1 K1 3.446426 1_555
As1 K0 3.577409 1_645
As1 K0 3.577409 1_555
As1 K0 3.577409 1_655
As1 K0 3.577409 1_545
