# generated using pymatgen
data_Ca5Ag3
_symmetry_space_group_name_H-M   'P 1'
_cell_length_a   7.96323387
_cell_length_b   7.96323553
_cell_length_c   9.37098771
_cell_angle_alpha   115.14355912
_cell_angle_beta   115.14355950
_cell_angle_gamma   89.99999290
_symmetry_Int_Tables_number   1
_chemical_formula_structural   Ca5Ag3
_chemical_formula_sum   'Ca10 Ag6'
_cell_volume   475.00121352
_cell_formula_units_Z   2
loop_
 _symmetry_equiv_pos_site_id
 _symmetry_equiv_pos_as_xyz
  1  'x, y, z'
loop_
 _atom_site_type_symbol
 _atom_site_label
 _atom_site_symmetry_multiplicity
 _atom_site_fract_x
 _atom_site_fract_y
 _atom_site_fract_z
 _atom_site_occupancy
  Ca  Ca0  1  0.00000000  -0.00000000  0.00000000  1
  Ca  Ca1  1  0.50000000  0.50000000  0.00000000  1
  Ca  Ca2  1  0.31475061  0.81475061  0.28998783  1
  Ca  Ca3  1  0.47523722  0.31475061  0.28998783  1
  Ca  Ca4  1  0.81475061  0.97523722  0.28998783  1
  Ca  Ca5  1  0.52476278  0.68524939  0.71001217  1
  Ca  Ca6  1  0.18524939  0.02476278  0.71001217  1
  Ca  Ca7  1  0.02476278  0.52476278  0.71001217  1
  Ca  Ca8  1  0.68524939  0.18524939  0.71001217  1
  Ca  Ca9  1  0.97523722  0.47523722  0.28998783  1
  Ag  Ag0  1  0.25000000  0.25000000  0.50000000  1
  Ag  Ag1  1  0.75000000  0.75000000  0.50000000  1
  Ag  Ag2  1  0.37533832  0.87533832  -0.00000000  1
  Ag  Ag3  1  0.12466168  0.37533832  0.00000000  1
  Ag  Ag4  1  0.87533832  0.62466168  -0.00000000  1
  Ag  Ag5  1  0.62466168  0.12466168  0.00000000  1
loop_
_geom_bond_atom_site_label_1
_geom_bond_atom_site_label_2
_geom_bond_distance
_geom_bond_site_symmetry_2
Ca0 Ca3 3.669009 1_555
Ca0 Ca5 3.669009 1_444
Ca0 Ca2 3.669009 1_545
Ca0 Ca8 3.669009 1_454
Ca0 Ca6 3.669009 1_554
Ca0 Ca4 3.669009 1_445
Ca0 Ca9 3.669009 1_455
Ca0 Ca7 3.669009 1_544
Ca1 Ca7 3.669009 1_554
Ca1 Ca9 3.669009 1_555
Ca1 Ca8 3.669009 1_554
Ca1 Ca2 3.669009 1_555
Ca1 Ca4 3.669010 1_555
Ca1 Ca6 3.669010 1_554
Ca1 Ca3 3.669010 1_555
Ca1 Ca5 3.669010 1_554
Ag0 Ca8 3.349322 1_555
Ag0 Ca7 3.349322 1_555
Ag0 Ca4 3.349322 1_445
Ag0 Ca9 3.349322 1_455
Ag0 Ca3 3.349322 1_555
Ag0 Ca2 3.349322 1_545
Ag0 Ca5 3.349322 1_555
Ag0 Ca6 3.349322 1_555
Ag0 Ca0 3.745292 1_555
Ag0 Ca1 3.745292 1_556
Ag1 Ca2 3.349322 1_555
Ag1 Ca9 3.349322 1_555
Ag1 Ca6 3.349322 1_665
Ag1 Ca7 3.349322 1_655
Ag1 Ca5 3.349322 1_555
Ag1 Ca8 3.349322 1_565
Ag1 Ca3 3.349322 1_555
Ag1 Ca4 3.349322 1_555
Ag1 Ca1 3.745292 1_555
Ag1 Ca0 3.745292 1_666
Ag2 Ag5 2.807809 1_565
Ag2 Ca0 3.149450 1_565
Ag2 Ca1 3.149451 1_555
Ag2 Ca7 3.174668 1_554
Ag2 Ca2 3.174668 1_555
Ag2 Ca4 3.216224 1_555
Ag2 Ca5 3.216224 1_554
Ag2 Ca6 3.216224 1_564
Ag2 Ca3 3.216225 1_565
Ag3 Ag4 2.807808 1_455
Ag3 Ca1 3.149451 1_555
Ag3 Ca0 3.149451 1_555
Ag3 Ca3 3.174668 1_555
Ag3 Ca6 3.174668 1_554
Ag3 Ca8 3.216224 1_454
Ag3 Ca9 3.216224 1_455
Ag3 Ca7 3.216225 1_554
Ag3 Ca2 3.216225 1_555
Ag4 Ca1 3.149451 1_555
Ag4 Ca0 3.149451 1_665
Ag4 Ca5 3.174668 1_554
Ag4 Ca4 3.174668 1_555
Ag4 Ca2 3.216224 1_655
Ag4 Ca7 3.216224 1_654
Ag4 Ca9 3.216225 1_555
Ag4 Ca8 3.216225 1_554
Ag5 Ca0 3.149450 1_655
Ag5 Ca1 3.149451 1_555
Ag5 Ca9 3.174668 1_555
Ag5 Ca8 3.174668 1_554
Ag5 Ca6 3.216224 1_554
Ag5 Ca3 3.216224 1_555
Ag5 Ca4 3.216224 1_545
Ag5 Ca5 3.216225 1_544
