# generated using pymatgen
data_LiTa3(TiH4)4
_symmetry_space_group_name_H-M   'P 1'
_cell_length_a   6.28743979
_cell_length_b   6.30615792
_cell_length_c   6.26391281
_cell_angle_alpha   59.95892054
_cell_angle_beta   60.32125687
_cell_angle_gamma   59.65454859
_symmetry_Int_Tables_number   1
_chemical_formula_structural   LiTa3(TiH4)4
_chemical_formula_sum   'Li1 Ta3 Ti4 H16'
_cell_volume   175.51957168
_cell_formula_units_Z   1
loop_
 _symmetry_equiv_pos_site_id
 _symmetry_equiv_pos_as_xyz
  1  'x, y, z'
loop_
 _atom_site_type_symbol
 _atom_site_label
 _atom_site_symmetry_multiplicity
 _atom_site_fract_x
 _atom_site_fract_y
 _atom_site_fract_z
 _atom_site_occupancy
  Li  Li0  1  0.00000000  0.00000000  0.00000000  1
  Ta  Ta0  1  0.50000000  0.00000000  0.50000000  1
  Ta  Ta1  1  0.00000000  0.50000000  0.00000000  1
  Ta  Ta2  1  0.50000000  0.00000000  0.00000000  1
  Ti  Ti0  1  0.50000000  0.50000000  0.50000000  1
  Ti  Ti1  1  0.00000000  0.00000000  0.50000000  1
  Ti  Ti2  1  0.00000000  0.50000000  0.50000000  1
  Ti  Ti3  1  0.50000000  0.50000000  0.00000000  1
  H  H0  1  0.87361115  0.87444762  0.37772232  1
  H  H1  1  0.87422090  0.37772232  0.87444762  1
  H  H2  1  0.37274930  0.87579437  0.87579679  1
  H  H3  1  0.87566154  0.87579679  0.87579437  1
  H  H4  1  0.12638885  0.12555238  0.62227768  1
  H  H5  1  0.12577910  0.62227768  0.12555238  1
  H  H6  1  0.62725070  0.12420563  0.12420321  1
  H  H7  1  0.12433846  0.12420321  0.12420563  1
  H  H8  1  0.62216132  0.62259069  0.12850365  1
  H  H9  1  0.62674434  0.12850365  0.62259069  1
  H  H10  1  0.12714555  0.62547193  0.62258986  1
  H  H11  1  0.62479266  0.62258986  0.62547193  1
  H  H12  1  0.37783868  0.37740931  0.87149635  1
  H  H13  1  0.37325566  0.87149635  0.37740931  1
  H  H14  1  0.87285445  0.37452807  0.37741014  1
  H  H15  1  0.37520734  0.37741014  0.37452807  1
loop_
_geom_bond_atom_site_label_1
_geom_bond_atom_site_label_2
_geom_bond_distance
_geom_bond_site_symmetry_2
H0 Ta0 1.917759 1_565
H0 Ti2 1.920900 1_655
H0 Ti1 1.921115 1_665
H0 Li0 1.937684 1_665
H1 Ta1 1.917749 1_656
H1 Ti2 1.920900 1_655
H1 Ti3 1.921125 1_556
H1 Li0 1.937684 1_656
H2 Li0 1.913407 1_566
H2 Ti3 1.927704 1_556
H2 Ta0 1.927916 1_565
H2 Ta2 1.928380 1_566
H3 Li0 1.913397 1_666
H3 Ti1 1.927704 1_665
H3 Ta1 1.927917 1_656
H3 Ta2 1.928391 1_566
H4 Ta0 1.917759 1_555
H4 Ti2 1.920900 1_555
H4 Ti1 1.921115 1_555
H4 Li0 1.937684 1_556
H5 Ta1 1.917749 1_555
H5 Ti2 1.920900 1_555
H5 Ti3 1.921125 1_555
H5 Li0 1.937684 1_565
H6 Li0 1.913407 1_655
H6 Ti3 1.927704 1_555
H6 Ta0 1.927916 1_555
H6 Ta2 1.928380 1_555
H7 Li0 1.913397 1_555
H7 Ti1 1.927704 1_555
H7 Ta1 1.927917 1_555
H7 Ta2 1.928391 1_555
H8 Ti0 1.905635 1_555
H8 Ti3 1.915930 1_555
H8 Ta2 1.936312 1_565
H8 Ta1 1.939831 1_655
H9 Ti0 1.905635 1_555
H9 Ti1 1.915929 1_655
H9 Ta2 1.936312 1_556
H9 Ta0 1.939831 1_555
H10 Ti0 1.913871 1_555
H10 Ti1 1.921255 1_565
H10 Ti2 1.926182 1_555
H10 Ta1 1.936156 1_556
H11 Ti0 1.913871 1_555
H11 Ti3 1.921255 1_556
H11 Ti2 1.926182 1_655
H11 Ta0 1.936156 1_565
H12 Ti0 1.905635 1_555
H12 Ti3 1.915930 1_556
H12 Ta2 1.936312 1_556
H12 Ta1 1.939831 1_556
H13 Ti0 1.905635 1_555
H13 Ti1 1.915929 1_565
H13 Ta2 1.936312 1_565
H13 Ta0 1.939831 1_565
H14 Ti0 1.913871 1_555
H14 Ti1 1.921255 1_655
H14 Ti2 1.926182 1_655
H14 Ta1 1.936156 1_655
H15 Ti0 1.913871 1_555
H15 Ti3 1.921255 1_555
H15 Ti2 1.926182 1_555
H15 Ta0 1.936156 1_555
