# generated using pymatgen
data_MgAu3
_symmetry_space_group_name_H-M   'P 1'
_cell_length_a   5.75816823
_cell_length_b   9.51989267
_cell_length_c   10.48051471
_cell_angle_alpha   90.00000000
_cell_angle_beta   105.94463179
_cell_angle_gamma   90.00000000
_symmetry_Int_Tables_number   1
_chemical_formula_structural   MgAu3
_chemical_formula_sum   'Mg8 Au24'
_cell_volume   552.40903472
_cell_formula_units_Z   8
loop_
 _symmetry_equiv_pos_site_id
 _symmetry_equiv_pos_as_xyz
  1  'x, y, z'
loop_
 _atom_site_type_symbol
 _atom_site_label
 _atom_site_symmetry_multiplicity
 _atom_site_fract_x
 _atom_site_fract_y
 _atom_site_fract_z
 _atom_site_occupancy
  Mg  Mg0  1  0.87613116  0.50131958  0.75226333  1
  Mg  Mg1  1  0.12386884  0.49868042  0.24773667  1
  Mg  Mg2  1  0.12386884  0.00131958  0.24773667  1
  Mg  Mg3  1  0.87613116  0.99868042  0.75226333  1
  Mg  Mg4  1  0.54064712  0.75000000  0.08129425  1
  Mg  Mg5  1  0.45935288  0.25000000  0.91870575  1
  Mg  Mg6  1  0.29366576  0.75000000  0.58733152  1
  Mg  Mg7  1  0.70633424  0.25000000  0.41266848  1
  Au  Au0  1  0.25169080  0.00000000  0.00000000  1
  Au  Au1  1  0.74830920  0.50000000  -0.00000000  1
  Au  Au2  1  0.74830920  -0.00000000  -0.00000000  1
  Au  Au3  1  0.25169080  0.50000000  0.00000000  1
  Au  Au4  1  0.62591156  0.99877439  0.25182312  1
  Au  Au5  1  0.37408844  0.00122561  0.74817688  1
  Au  Au6  1  0.37408844  0.49877439  0.74817688  1
  Au  Au7  1  0.62591156  0.50122561  0.25182312  1
  Au  Au8  1  0.08105291  0.25000000  0.66631319  1
  Au  Au9  1  0.41473972  0.75000000  0.33368681  1
  Au  Au10  1  0.91894709  0.75000000  0.33368681  1
  Au  Au11  1  0.58526028  0.25000000  0.66631319  1
  Au  Au12  1  0.33290922  0.25000000  0.16632568  1
  Au  Au13  1  0.16658453  0.75000000  0.83367432  1
  Au  Au14  1  0.66709078  0.75000000  0.83367432  1
  Au  Au15  1  0.83341547  0.25000000  0.16632568  1
  Au  Au16  1  0.50000000  0.50000000  0.50000000  1
  Au  Au17  1  -0.00000000  0.50000000  0.50000000  1
  Au  Au18  1  0.50000000  0.00000000  0.50000000  1
  Au  Au19  1  -0.00000000  -0.00000000  0.50000000  1
  Au  Au20  1  0.79188224  0.75000000  0.58376548  1
  Au  Au21  1  0.20811776  0.25000000  0.41623452  1
  Au  Au22  1  0.04470946  0.75000000  0.08941891  1
  Au  Au23  1  0.95529054  0.25000000  0.91058109  1
loop_
_geom_bond_atom_site_label_1
_geom_bond_atom_site_label_2
_geom_bond_distance
_geom_bond_site_symmetry_2
Au0 Au2 2.859612 1_555
Au0 Mg2 2.886721 1_555
Au0 Mg3 2.886724 1_444
Au0 Mg4 2.894780 1_545
Au0 Mg5 2.894780 1_554
Au0 Au2 2.898556 1_455
Au0 Au13 2.910972 1_544
Au0 Au12 2.910972 1_555
Au0 Au4 2.912798 1_545
Au0 Au5 2.912798 1_554
Au0 Au22 2.928594 1_545
Au0 Au23 2.928594 1_454
Au1 Au3 2.859612 1_555
Au1 Mg0 2.886721 1_554
Au1 Mg1 2.886724 1_655
Au1 Mg5 2.894780 1_554
Au1 Mg4 2.894780 1_555
Au1 Au3 2.898556 1_655
Au1 Au15 2.910972 1_555
Au1 Au14 2.910972 1_554
Au1 Au6 2.912798 1_554
Au1 Au7 2.912798 1_555
Au1 Au23 2.928594 1_554
Au1 Au22 2.928594 1_655
Au2 Mg3 2.886721 1_544
Au2 Mg2 2.886724 1_655
Au2 Mg5 2.894780 1_554
Au2 Mg4 2.894780 1_545
Au2 Au5 2.912798 1_554
Au2 Au4 2.912798 1_545
Au2 Au23 2.928594 1_554
Au2 Au22 2.928594 1_645
Au3 Mg1 2.886721 1_555
Au3 Mg0 2.886724 1_454
Au3 Mg4 2.894780 1_555
Au3 Mg5 2.894780 1_554
Au3 Au7 2.912798 1_555
Au3 Au6 2.912798 1_554
Au4 Mg2 2.879478 1_565
Au4 Mg2 2.879483 1_665
Au4 Mg7 2.889156 1_565
Au4 Au9 2.897713 1_555
Au4 Mg4 2.926092 1_555
Au5 Mg3 2.879478 1_545
Au5 Mg3 2.879483 1_445
Au5 Mg6 2.889156 1_545
Au5 Au8 2.897713 1_555
Au5 Mg5 2.926092 1_555
Au6 Mg0 2.879478 1_555
Au6 Mg0 2.879483 1_455
Au6 Mg6 2.889156 1_555
Au6 Au8 2.897713 1_555
Au6 Mg5 2.926092 1_555
Au7 Mg1 2.879478 1_555
Au7 Mg1 2.879483 1_655
Au7 Mg7 2.889156 1_555
Au7 Au9 2.897713 1_555
Au7 Mg4 2.926092 1_555
Au8 Mg0 2.917532 1_455
Au8 Mg3 2.917532 1_445
Au8 Mg7 2.927622 1_455
Au8 Mg5 2.928545 1_555
Au9 Mg1 2.917530 1_555
Au9 Mg2 2.917530 1_565
Au9 Mg6 2.927622 1_555
Au9 Mg4 2.928545 1_555
Au10 Au22 2.845495 1_655
Au10 Au9 2.854857 1_655
Au10 Au7 2.897713 1_555
Au10 Au4 2.897713 1_555
Au10 Au9 2.903311 1_555
Au10 Au20 2.908318 1_555
Au10 Au19 2.910903 1_665
Au10 Au17 2.910903 1_655
Au10 Mg1 2.917532 1_655
Au10 Mg2 2.917532 1_665
Au10 Mg6 2.927622 1_655
Au10 Mg4 2.928545 1_555
Au11 Au23 2.845495 1_555
Au11 Au8 2.854857 1_655
Au11 Au5 2.897713 1_555
Au11 Au6 2.897713 1_555
Au11 Au8 2.903311 1_555
Au11 Au21 2.908315 1_555
Au11 Au18 2.910903 1_555
Au11 Au16 2.910903 1_555
Au11 Mg0 2.917530 1_555
Au11 Mg3 2.917530 1_545
Au11 Mg7 2.927622 1_555
Au11 Mg5 2.928545 1_555
Au12 Mg7 2.870392 1_555
Au12 Au15 2.876169 1_455
Au12 Mg5 2.881530 1_554
Au12 Au15 2.881999 1_555
Au12 Mg2 2.888904 1_555
Au12 Mg1 2.888904 1_555
Au12 Au21 2.900077 1_555
Au12 Au3 2.910972 1_555
Au12 Au7 2.922116 1_555
Au12 Au4 2.922116 1_545
Au12 Au23 2.951291 1_454
Au13 Mg6 2.870389 1_555
Au13 Au14 2.876169 1_455
Au13 Mg4 2.881527 1_556
Au13 Au14 2.881999 1_555
Au13 Mg3 2.888910 1_455
Au13 Mg0 2.888910 1_455
Au13 Au20 2.900083 1_455
Au13 Au3 2.910972 1_556
Au13 Au6 2.922113 1_555
Au13 Au5 2.922113 1_565
Au13 Au22 2.951294 1_556
Au14 Mg6 2.870392 1_555
Au14 Mg4 2.881530 1_556
Au14 Mg3 2.888904 1_555
Au14 Mg0 2.888904 1_555
Au14 Au20 2.900077 1_555
Au14 Au2 2.910972 1_566
Au14 Au6 2.922116 1_555
Au14 Au5 2.922116 1_565
Au14 Au22 2.951291 1_656
Au15 Mg7 2.870389 1_555
Au15 Mg5 2.881527 1_554
Au15 Mg2 2.888910 1_655
Au15 Mg1 2.888910 1_655
Au15 Au21 2.900083 1_655
Au15 Au2 2.910972 1_555
Au15 Au4 2.922113 1_545
Au15 Au7 2.922113 1_555
Au15 Au23 2.951294 1_554
Au16 Au17 2.879084 1_555
Au16 Au17 2.879084 1_655
Au16 Au7 2.885687 1_555
Au16 Au6 2.885687 1_555
Au16 Au21 2.906734 1_555
Au16 Au20 2.906734 1_555
Au16 Au9 2.910903 1_555
Au16 Mg7 2.917374 1_555
Au16 Mg6 2.917374 1_555
Au16 Mg1 2.921451 1_555
Au16 Mg0 2.921451 1_555
Au17 Au7 2.885687 1_455
Au17 Au6 2.885687 1_555
Au17 Au21 2.906737 1_555
Au17 Au20 2.906737 1_455
Au17 Au8 2.910903 1_555
Au17 Mg6 2.917374 1_555
Au17 Mg7 2.917374 1_455
Au17 Mg1 2.921454 1_555
Au17 Mg0 2.921454 1_455
Au18 Au19 2.879084 1_555
Au18 Au19 2.879084 1_655
Au18 Au4 2.885687 1_545
Au18 Au5 2.885687 1_555
Au18 Au21 2.906734 1_555
Au18 Au20 2.906734 1_545
Au18 Au9 2.910903 1_545
Au18 Mg6 2.917374 1_545
Au18 Mg7 2.917374 1_555
Au18 Mg2 2.921451 1_555
Au18 Mg3 2.921451 1_545
Au19 Au4 2.885687 1_445
Au19 Au5 2.885687 1_555
Au19 Au21 2.906737 1_555
Au19 Au20 2.906737 1_445
Au19 Au8 2.910903 1_555
Au19 Mg7 2.917374 1_455
Au19 Mg6 2.917374 1_545
Au19 Mg2 2.921454 1_555
Au19 Mg3 2.921454 1_445
Au20 Mg6 2.879306 1_555
Au20 Mg6 2.879311 1_655
Au20 Au9 2.908315 1_555
Au20 Mg0 2.913392 1_555
Au20 Mg3 2.913392 1_555
Au21 Mg7 2.879306 1_555
Au21 Mg7 2.879311 1_455
Au21 Au8 2.908318 1_555
Au21 Mg1 2.913392 1_555
Au21 Mg2 2.913392 1_555
Au22 Au9 2.845495 1_555
Au22 Mg1 2.875688 1_555
Au22 Mg2 2.875688 1_565
Au22 Mg4 2.880248 1_555
Au22 Mg4 2.880248 1_455
Au22 Au3 2.928594 1_555
Au23 Au8 2.845495 1_655
Au23 Mg3 2.875688 1_545
Au23 Mg0 2.875688 1_555
Au23 Mg5 2.880248 1_555
Au23 Mg5 2.880248 1_655
Au23 Au3 2.928594 1_656
