# generated using pymatgen
data_RbNa4SiP3
_symmetry_space_group_name_H-M   'P 1'
_cell_length_a   4.63263608
_cell_length_b   12.68611365
_cell_length_c   14.89918336
_cell_angle_alpha   90.00000000
_cell_angle_beta   90.00000000
_cell_angle_gamma   90.00000000
_symmetry_Int_Tables_number   1
_chemical_formula_structural   RbNa4SiP3
_chemical_formula_sum   'Rb4 Na16 Si4 P12'
_cell_volume   875.62720854
_cell_formula_units_Z   4
loop_
 _symmetry_equiv_pos_site_id
 _symmetry_equiv_pos_as_xyz
  1  'x, y, z'
loop_
 _atom_site_type_symbol
 _atom_site_label
 _atom_site_symmetry_multiplicity
 _atom_site_fract_x
 _atom_site_fract_y
 _atom_site_fract_z
 _atom_site_occupancy
  Rb  Rb0  1  0.25000000  0.12725633  0.51377700  1
  Rb  Rb1  1  0.75000000  0.87274367  0.48622300  1
  Rb  Rb2  1  0.75000000  0.62725633  0.98622300  1
  Rb  Rb3  1  0.25000000  0.37274367  0.01377700  1
  Na  Na0  1  0.25000000  0.42728402  0.56046062  1
  Na  Na1  1  0.75000000  0.57271598  0.43953938  1
  Na  Na2  1  0.75000000  0.92728402  0.93953938  1
  Na  Na3  1  0.25000000  0.07271598  0.06046062  1
  Na  Na4  1  0.25000000  0.81168805  0.08238502  1
  Na  Na5  1  0.75000000  0.18831195  0.91761498  1
  Na  Na6  1  0.75000000  0.31168805  0.41761498  1
  Na  Na7  1  0.25000000  0.68831195  0.58238502  1
  Na  Na8  1  0.25000000  0.23483343  0.25696363  1
  Na  Na9  1  0.75000000  0.76516657  0.74303637  1
  Na  Na10  1  0.75000000  0.73483343  0.24303637  1
  Na  Na11  1  0.25000000  0.26516657  0.75696363  1
  Na  Na12  1  0.25000000  0.93965312  0.28452797  1
  Na  Na13  1  0.75000000  0.06034688  0.71547203  1
  Na  Na14  1  0.75000000  0.43965312  0.21547203  1
  Na  Na15  1  0.25000000  0.56034688  0.78452797  1
  Si  Si0  1  0.25000000  0.58315332  0.29818609  1
  Si  Si1  1  0.75000000  0.41684668  0.70181391  1
  Si  Si2  1  0.75000000  0.08315332  0.20181391  1
  Si  Si3  1  0.25000000  0.91684668  0.79818609  1
  P  P0  1  0.25000000  0.59377841  0.15410740  1
  P  P1  1  0.75000000  0.40622159  0.84589260  1
  P  P2  1  0.75000000  0.09377841  0.34589260  1
  P  P3  1  0.25000000  0.90622159  0.65410740  1
  P  P4  1  0.25000000  0.42938035  0.36321543  1
  P  P5  1  0.75000000  0.57061965  0.63678457  1
  P  P6  1  0.75000000  0.92938035  0.13678457  1
  P  P7  1  0.25000000  0.07061965  0.86321543  1
  P  P8  1  0.25000000  0.72340984  0.38105255  1
  P  P9  1  0.75000000  0.27659016  0.61894745  1
  P  P10  1  0.75000000  0.22340984  0.11894745  1
  P  P11  1  0.25000000  0.77659016  0.88105255  1
loop_
_geom_bond_atom_site_label_1
_geom_bond_atom_site_label_2
_geom_bond_distance
_geom_bond_site_symmetry_2
Na0 P4 2.938913 1_555
Na0 P9 3.127195 1_555
Na0 P9 3.127195 1_455
Na0 Si1 3.133417 1_555
Na0 Si1 3.133417 1_455
Na0 P5 3.156731 1_455
Na0 P5 3.156731 1_555
Na1 P5 2.938913 1_555
Na1 P8 3.127195 1_555
Na1 P8 3.127195 1_655
Na1 Si0 3.133417 1_655
Na1 Si0 3.133417 1_555
Na1 P4 3.156731 1_655
Na1 P4 3.156731 1_555
Na2 P6 2.938913 1_556
Na2 P11 3.127195 1_555
Na2 P11 3.127195 1_655
Na2 Si3 3.133417 1_655
Na2 Si3 3.133417 1_555
Na2 P7 3.156731 1_565
Na2 P7 3.156731 1_665
Na3 P7 2.938913 1_554
Na3 P10 3.127195 1_555
Na3 P10 3.127195 1_455
Na3 Si2 3.133417 1_455
Na3 Si2 3.133417 1_555
Na3 P6 3.156731 1_445
Na3 P6 3.156731 1_545
Na4 P6 2.872538 1_455
Na4 P6 2.872538 1_555
Na4 P0 2.963776 1_555
Na4 P11 3.032555 1_554
Na5 P7 2.872538 1_555
Na5 P7 2.872538 1_655
Na5 P1 2.963776 1_555
Na5 P10 3.032555 1_556
Na6 P4 2.872538 1_555
Na6 P4 2.872538 1_655
Na6 P2 2.963776 1_555
Na6 P9 3.032555 1_555
Na7 P5 2.872538 1_555
Na7 P5 2.872538 1_455
Na7 P3 2.963776 1_555
Na7 P8 3.032555 1_555
Na8 P4 2.932122 1_555
Na8 P10 3.100777 1_555
Na8 P10 3.100777 1_455
Na8 Si2 3.121404 1_455
Na8 Si2 3.121404 1_555
Na8 P2 3.212938 1_455
Na8 P2 3.212938 1_555
Na9 P5 2.932122 1_555
Na9 P11 3.100777 1_655
Na9 P11 3.100777 1_555
Na9 Si3 3.121404 1_555
Na9 Si3 3.121404 1_655
Na9 P3 3.212938 1_655
Na9 P3 3.212938 1_555
Na10 P6 2.932122 1_555
Na10 P8 3.100777 1_655
Na10 P8 3.100777 1_555
Na10 Si0 3.121404 1_555
Na10 Si0 3.121404 1_655
Na10 P0 3.212938 1_555
Na10 P0 3.212938 1_655
Na11 P7 2.932122 1_555
Na11 P9 3.100777 1_455
Na11 P9 3.100777 1_555
Na11 Si1 3.121404 1_555
Na11 Si1 3.121404 1_455
Na11 P1 3.212938 1_555
Na11 P1 3.212938 1_455
Na12 P8 3.097396 1_555
Na12 P2 3.166109 1_565
Na12 P2 3.166109 1_465
Na12 Si2 3.193453 1_565
Na12 Si2 3.193453 1_465
Na12 P6 3.198100 1_455
Na12 P6 3.198100 1_555
Na13 P9 3.097396 1_555
Na13 P3 3.166109 1_545
Na13 P3 3.166109 1_645
Na13 Si3 3.193453 1_545
Na13 Si3 3.193453 1_645
Na13 P7 3.198100 1_555
Na13 P7 3.198100 1_655
Na14 P10 3.097396 1_555
Na14 P0 3.166109 1_555
Na14 P0 3.166109 1_655
Na14 Si0 3.193453 1_555
Na14 Si0 3.193453 1_655
Na14 P4 3.198100 1_555
Na14 P4 3.198100 1_655
Na15 P11 3.097396 1_555
Na15 P1 3.166109 1_555
Na15 P1 3.166109 1_455
Na15 Si1 3.193453 1_555
Na15 Si1 3.193453 1_455
Na15 P5 3.198100 1_455
Na15 P5 3.198100 1_555
P0 Si0 2.150882 1_555
P0 Rb2 3.435463 1_454
P0 Rb2 3.435463 1_554
P0 Rb3 3.497756 1_555
P1 Si1 2.150882 1_555
P1 Rb3 3.435463 1_556
P1 Rb3 3.435463 1_656
P1 Rb2 3.497756 1_555
P2 Si2 2.150882 1_555
P2 Rb0 3.435463 1_655
P2 Rb0 3.435463 1_555
P2 Rb1 3.497756 1_545
P3 Si3 2.150882 1_555
P3 Rb1 3.435463 1_455
P3 Rb1 3.435463 1_555
P3 Rb0 3.497756 1_565
P4 Si0 2.178138 1_555
P5 Si1 2.178138 1_555
P6 Si2 2.178138 1_565
P7 Si3 2.178138 1_545
P8 Si0 2.165707 1_555
P8 Rb1 3.377821 1_555
P8 Rb1 3.377821 1_455
P9 Si1 2.165707 1_555
P9 Rb0 3.377821 1_555
P9 Rb0 3.377821 1_655
P10 Si2 2.165707 1_555
P10 Rb3 3.377821 1_555
P10 Rb3 3.377821 1_655
P11 Si3 2.165707 1_555
P11 Rb2 3.377821 1_555
P11 Rb2 3.377821 1_455
