# generated using pymatgen
data_Zr2AlSbRu4
_symmetry_space_group_name_H-M   'P 1'
_cell_length_a   4.49470714
_cell_length_b   6.34960382
_cell_length_c   13.47666926
_cell_angle_alpha   90.00000000
_cell_angle_beta   89.99998738
_cell_angle_gamma   90.00000000
_symmetry_Int_Tables_number   1
_chemical_formula_structural   Zr2AlSbRu4
_chemical_formula_sum   'Zr6 Al3 Sb3 Ru12'
_cell_volume   384.61887946
_cell_formula_units_Z   3
loop_
 _symmetry_equiv_pos_site_id
 _symmetry_equiv_pos_as_xyz
  1  'x, y, z'
loop_
 _atom_site_type_symbol
 _atom_site_label
 _atom_site_symmetry_multiplicity
 _atom_site_fract_x
 _atom_site_fract_y
 _atom_site_fract_z
 _atom_site_occupancy
  Zr  Zr0  1  0.00000079  0.50000100  0.99240121  1
  Zr  Zr1  1  0.49999314  0.00000000  0.16667252  1
  Zr  Zr2  1  0.99999480  0.50000100  0.34092896  1
  Zr  Zr3  1  0.50000322  0.00000000  0.50753518  1
  Zr  Zr4  1  0.00000873  0.50000100  0.66666989  1
  Zr  Zr5  1  0.50000702  0.00000000  0.82579829  1
  Al  Al0  1  0.50000386  0.50000100  0.50568224  1
  Al  Al1  1  0.00001238  0.00000000  0.66666228  1
  Al  Al2  1  0.50001139  0.50000100  0.82765270  1
  Sb  Sb0  1  0.00000153  0.00000000  0.99418235  1
  Sb  Sb1  1  0.49997212  0.50000100  0.16666636  1
  Sb  Sb2  1  0.99999240  0.00000000  0.33915695  1
  Ru  Ru0  1  0.50000170  0.25208892  0.99919904  1
  Ru  Ru1  1  0.50000170  0.74791008  0.99919904  1
  Ru  Ru2  1  0.99998487  0.24930111  0.16666821  1
  Ru  Ru3  1  0.99998487  0.75069889  0.16666821  1
  Ru  Ru4  1  0.49999451  0.25209252  0.33413107  1
  Ru  Ru5  1  0.49999451  0.74790748  0.33413107  1
  Ru  Ru6  1  0.00000334  0.25240395  0.50152607  1
  Ru  Ru7  1  0.00000334  0.74759605  0.50152607  1
  Ru  Ru8  1  0.50000658  0.25066774  0.66666829  1
  Ru  Ru9  1  0.50000658  0.74933226  0.66666829  1
  Ru  Ru10  1  0.00000731  0.25240399  0.83180484  1
  Ru  Ru11  1  0.00000731  0.74759601  0.83180484  1
loop_
_geom_bond_atom_site_label_1
_geom_bond_atom_site_label_2
_geom_bond_distance
_geom_bond_site_symmetry_2
Al0 Ru9 2.685768 1_555
Al0 Ru8 2.685776 1_555
Al0 Ru7 2.743231 1_655
Al0 Ru7 2.743235 1_555
Al0 Ru6 2.743239 1_655
Al0 Ru6 2.743243 1_555
Al0 Ru5 2.796940 1_555
Al0 Ru4 2.796947 1_555
Al1 Ru6 2.742503 1_555
Al1 Ru7 2.742503 1_545
Al1 Ru10 2.742573 1_555
Al1 Ru11 2.742573 1_545
Al1 Ru8 2.753870 1_555
Al1 Ru9 2.753870 1_545
Al1 Ru8 2.753913 1_455
Al1 Ru9 2.753913 1_445
Al2 Ru9 2.685750 1_555
Al2 Ru8 2.685758 1_555
Al2 Ru11 2.743217 1_655
Al2 Ru10 2.743224 1_655
Al2 Ru11 2.743247 1_555
Al2 Ru10 2.743254 1_555
Al2 Ru1 2.796896 1_555
Al2 Ru0 2.796906 1_555
Sb0 Zr0 3.174886 1_545
Sb0 Zr0 3.174899 1_555
Sb0 Zr5 3.193746 1_455
Sb0 Zr5 3.193780 1_555
Sb0 Zr1 3.233290 1_556
Sb0 Zr1 3.233342 1_456
Sb1 Zr1 3.174796 1_565
Sb1 Zr1 3.174808 1_555
Sb1 Zr2 3.250460 1_455
Sb1 Zr0 3.250467 1_554
Sb1 Zr2 3.250602 1_555
Sb1 Zr0 3.250645 1_654
Sb2 Zr2 3.174885 1_545
Sb2 Zr2 3.174898 1_555
Sb2 Zr3 3.193673 1_555
Sb2 Zr3 3.193742 1_655
Sb2 Zr1 3.233258 1_555
Sb2 Zr1 3.233262 1_655
Ru0 Zr0 2.745342 1_655
Ru0 Zr0 2.745348 1_555
Ru0 Sb1 2.751642 1_556
Ru0 Sb0 2.759944 1_655
Ru0 Sb0 2.759946 1_555
Ru0 Zr1 2.766967 1_556
Ru0 Zr5 2.832501 1_555
Ru1 Zr0 2.745331 1_655
Ru1 Zr0 2.745337 1_555
Ru1 Sb1 2.751631 1_556
Ru1 Sb0 2.759948 1_665
Ru1 Sb0 2.759949 1_565
Ru1 Zr1 2.766971 1_566
Ru1 Zr5 2.832505 1_565
Ru2 Zr1 2.748855 1_555
Ru2 Zr1 2.748916 1_655
Ru2 Sb1 2.753963 1_655
Ru2 Sb1 2.754056 1_555
Ru2 Sb0 2.812336 1_654
Ru2 Sb2 2.812368 1_555
Ru2 Zr2 2.837113 1_555
Ru2 Zr0 2.837182 1_654
Ru3 Zr1 2.748855 1_565
Ru3 Zr1 2.748916 1_665
Ru3 Sb1 2.753955 1_655
Ru3 Sb1 2.754049 1_555
Ru3 Sb0 2.812336 1_664
Ru3 Sb2 2.812368 1_565
Ru3 Zr2 2.837106 1_555
Ru3 Zr0 2.837175 1_654
Ru4 Zr2 2.745331 1_455
Ru4 Zr2 2.745333 1_555
Ru4 Sb1 2.751600 1_555
Ru4 Sb2 2.759954 1_555
Ru4 Sb2 2.759969 1_455
Ru4 Zr1 2.766816 1_555
Ru4 Zr3 2.832552 1_555
Ru5 Zr2 2.745323 1_455
Ru5 Zr2 2.745326 1_555
Ru5 Sb1 2.751593 1_555
Ru5 Sb2 2.759954 1_565
Ru5 Sb2 2.759969 1_465
Ru5 Zr1 2.766816 1_565
Ru5 Zr3 2.832552 1_565
Ru6 Zr2 2.675050 1_455
Ru6 Sb2 2.712330 1_455
Ru6 Zr4 2.724863 1_555
Ru6 Zr3 2.761465 1_555
Ru6 Zr3 2.761466 1_455
Ru7 Zr2 2.675042 1_455
Ru7 Sb2 2.712330 1_465
Ru7 Zr4 2.724856 1_555
Ru7 Zr3 2.761465 1_565
Ru7 Zr3 2.761466 1_465
Ru8 Zr5 2.670652 1_555
Ru8 Zr3 2.670686 1_555
Ru8 Zr4 2.748995 1_555
Ru8 Zr4 2.749011 1_655
Ru9 Zr5 2.670652 1_565
Ru9 Zr3 2.670686 1_565
Ru9 Zr4 2.748988 1_555
Ru9 Zr4 2.749004 1_655
Ru10 Zr0 2.675041 1_555
Ru10 Sb0 2.712421 1_555
Ru10 Zr4 2.724765 1_555
Ru10 Zr5 2.761464 1_555
Ru10 Zr5 2.761466 1_455
Ru11 Zr0 2.675034 1_555
Ru11 Sb0 2.712421 1_565
Ru11 Zr4 2.724758 1_555
Ru11 Zr5 2.761464 1_565
Ru11 Zr5 2.761466 1_465
