# generated using pymatgen
data_GaIrCl6
_symmetry_space_group_name_H-M   'P 1'
_cell_length_a   6.06914885
_cell_length_b   6.06914895
_cell_length_c   6.32305430
_cell_angle_alpha   81.17893311
_cell_angle_beta   81.17893660
_cell_angle_gamma   119.99481429
_symmetry_Int_Tables_number   1
_chemical_formula_structural   GaIrCl6
_chemical_formula_sum   'Ga1 Ir1 Cl6'
_cell_volume   191.99421719
_cell_formula_units_Z   1
loop_
 _symmetry_equiv_pos_site_id
 _symmetry_equiv_pos_as_xyz
  1  'x, y, z'
loop_
 _atom_site_type_symbol
 _atom_site_label
 _atom_site_symmetry_multiplicity
 _atom_site_fract_x
 _atom_site_fract_y
 _atom_site_fract_z
 _atom_site_occupancy
  Ga  Ga0  1  0.16672572  0.83327428  0.00000000  1
  Ir  Ir0  1  0.83335266  0.16664734  1.00000000  1
  Cl  Cl0  1  0.92266992  0.56580040  0.77990607  1
  Cl  Cl1  1  0.43419960  0.07733008  0.22009393  1
  Cl  Cl2  1  0.78267640  0.78696810  0.22082353  1
  Cl  Cl3  1  0.21303190  0.21732360  0.77917647  1
  Cl  Cl4  1  0.57469214  0.92734935  0.78010247  1
  Cl  Cl5  1  0.07265065  0.42530786  0.21989753  1
loop_
_geom_bond_atom_site_label_1
_geom_bond_atom_site_label_2
_geom_bond_distance
_geom_bond_site_symmetry_2
Cl0 Ir0 2.349646 1_555
Cl0 Ga0 2.384724 1_656
Cl1 Ir0 2.349646 1_554
Cl1 Ga0 2.384724 1_545
Cl2 Ir0 2.350958 1_564
Cl2 Ga0 2.384950 1_655
Cl3 Ir0 2.350958 1_455
Cl3 Ga0 2.384950 1_546
Cl4 Ir0 2.348654 1_565
Cl4 Ga0 2.382660 1_556
Cl5 Ir0 2.348654 1_454
Cl5 Ga0 2.382660 1_555
