# generated using pymatgen
data_Mn7CrAgO16
_symmetry_space_group_name_H-M   'P 1'
_cell_length_a   5.74537389
_cell_length_b   6.98207814
_cell_length_c   7.04113528
_cell_angle_alpha   87.97263544
_cell_angle_beta   78.23508006
_cell_angle_gamma   78.18594802
_symmetry_Int_Tables_number   1
_chemical_formula_structural   Mn7CrAgO16
_chemical_formula_sum   'Mn7 Cr1 Ag1 O16'
_cell_volume   270.65560135
_cell_formula_units_Z   1
loop_
 _symmetry_equiv_pos_site_id
 _symmetry_equiv_pos_as_xyz
  1  'x, y, z'
loop_
 _atom_site_type_symbol
 _atom_site_label
 _atom_site_symmetry_multiplicity
 _atom_site_fract_x
 _atom_site_fract_y
 _atom_site_fract_z
 _atom_site_occupancy
  Mn  Mn0  1  0.06823904  0.51591075  0.18177632  1
  Mn  Mn1  1  0.15998792  0.81719180  0.52123492  1
  Mn  Mn2  1  0.65904119  0.82058487  0.51974302  1
  Mn  Mn3  1  0.32774624  0.18472659  0.48092972  1
  Mn  Mn4  1  0.82906676  0.18176222  0.48231756  1
  Mn  Mn5  1  0.42025062  0.48442592  0.81893380  1
  Mn  Mn6  1  0.91655422  0.48452545  0.82035991  1
  Cr  Cr0  1  0.57078310  0.51595938  0.18270354  1
  Ag  Ag0  1  0.24042257  0.99976529  0.00249106  1
  O  O0  1  0.83025399  0.64251331  0.04530886  1
  O  O1  1  0.31359083  0.64877238  0.04434171  1
  O  O2  1  0.97192548  0.70570021  0.38161608  1
  O  O3  1  0.47083320  0.71072137  0.38456253  1
  O  O4  1  0.84541865  0.95493106  0.64385369  1
  O  O5  1  0.34228812  0.95628403  0.65039313  1
  O  O6  1  0.32281937  0.37132233  0.28899099  1
  O  O7  1  0.83623797  0.36999600  0.28903462  1
  O  O8  1  0.16222076  0.62121892  0.70752852  1
  O  O9  1  0.66015949  0.62629144  0.71104012  1
  O  O10  1  0.14595664  0.04305356  0.35445603  1
  O  O11  1  0.64222057  0.04619491  0.35921487  1
  O  O12  1  0.01636740  0.29401375  0.61867897  1
  O  O13  1  0.51633195  0.29790347  0.61610161  1
  O  O14  1  0.17030878  0.34988860  0.95021821  1
  O  O15  1  0.66807413  0.35634440  0.94415920  1
loop_
_geom_bond_atom_site_label_1
_geom_bond_atom_site_label_2
_geom_bond_distance
_geom_bond_site_symmetry_2
Mn0 O7 1.864431 1_455
Mn0 O6 1.876204 1_555
Mn0 O0 1.885467 1_455
Mn0 O2 1.885800 1_455
Mn0 O1 1.923463 1_555
Mn0 O14 1.952274 1_554
Mn1 O8 1.861637 1_555
Mn1 O3 1.863962 1_555
Mn1 O2 1.889862 1_455
Mn1 O4 1.909821 1_455
Mn1 O10 1.930780 1_565
Mn1 O5 1.932515 1_555
Mn2 O3 1.864042 1_555
Mn2 O9 1.877572 1_555
Mn2 O2 1.890136 1_555
Mn2 O11 1.903810 1_565
Mn2 O4 1.908154 1_555
Mn2 O5 1.931007 1_555
Mn3 O6 1.844056 1_555
Mn3 O12 1.873303 1_555
Mn3 O13 1.878450 1_555
Mn3 O11 1.909469 1_555
Mn3 O10 1.930548 1_555
Mn3 O5 1.956070 1_545
Mn4 O7 1.858460 1_555
Mn4 O12 1.874588 1_655
Mn4 O13 1.881637 1_555
Mn4 O11 1.911342 1_555
Mn4 O4 1.914672 1_545
Mn4 O10 1.932486 1_655
Mn5 O9 1.880676 1_555
Mn5 O15 1.881297 1_555
Mn5 O13 1.885774 1_555
Mn5 O8 1.888571 1_555
Mn5 O1 1.911941 1_556
Mn5 O14 1.936127 1_555
Mn6 O0 1.884349 1_556
Mn6 O9 1.885113 1_555
Mn6 O15 1.886634 1_555
Mn6 O8 1.890743 1_655
Mn6 O12 1.898420 1_655
Mn6 O14 1.940836 1_655
Cr0 O3 1.919176 1_555
Cr0 O7 1.923646 1_555
Cr0 O6 1.926234 1_555
Cr0 O0 1.956987 1_555
Cr0 O15 1.967249 1_554
Cr0 O1 1.988609 1_555
Ag0 O1 2.418030 1_555
Ag0 O14 2.422256 1_564
Ag0 O10 2.442312 1_565
Ag0 O5 2.443314 1_554
