# generated using pymatgen
data_Nb10(AlAs)3
_symmetry_space_group_name_H-M   'P 1'
_cell_length_a   5.19882219
_cell_length_b   7.64246536
_cell_length_c   7.71085916
_cell_angle_alpha   96.58404017
_cell_angle_beta   109.70093145
_cell_angle_gamma   70.11536765
_symmetry_Int_Tables_number   1
_chemical_formula_structural   Nb10(AlAs)3
_chemical_formula_sum   'Nb10 Al3 As3'
_cell_volume   271.23674535
_cell_formula_units_Z   1
loop_
 _symmetry_equiv_pos_site_id
 _symmetry_equiv_pos_as_xyz
  1  'x, y, z'
loop_
 _atom_site_type_symbol
 _atom_site_label
 _atom_site_symmetry_multiplicity
 _atom_site_fract_x
 _atom_site_fract_y
 _atom_site_fract_z
 _atom_site_occupancy
  Nb  Nb0  1  0.42322037  0.85550777  0.70194750  1
  Nb  Nb1  1  0.57914634  0.14317383  0.30146752  1
  Nb  Nb2  1  0.92296397  0.30171249  0.14764144  1
  Nb  Nb3  1  0.07296800  0.70235507  0.84829107  1
  Nb  Nb4  1  0.72467746  0.69828751  0.14764144  1
  Nb  Nb5  1  0.27532307  0.29764493  0.84829107  1
  Nb  Nb6  1  0.77872714  0.14449223  0.70194750  1
  Nb  Nb7  1  0.22232118  0.85682617  0.30146752  1
  Nb  Nb8  1  0.25124359  0.50000000  0.50078989  1
  Nb  Nb9  1  0.74954730  0.50000000  0.50078989  1
  Al  Al0  1  0.25074454  1.00000000  0.00149008  1
  Al  Al1  1  0.75074454  1.00000000  0.00149008  1
  Al  Al2  1  0.33521612  0.50000000  0.17043325  1
  As  As0  1  0.66544486  0.50000000  0.83088772  1
  As  As1  1  0.83411946  0.82947360  0.49771251  1
  As  As2  1  0.16359306  0.17052640  0.49771251  1
loop_
_geom_bond_atom_site_label_1
_geom_bond_atom_site_label_2
_geom_bond_distance
_geom_bond_site_symmetry_2
Nb8 Nb9 2.590592 1_555
Nb8 Nb9 2.608230 1_455
Al0 Al1 2.599411 1_455
Al0 Al1 2.599411 1_555
Al0 Nb7 2.736843 1_555
Al0 Nb1 2.736846 1_565
Al0 Nb6 2.737914 1_464
Al0 Nb0 2.737917 1_554
Al0 Nb3 2.738966 1_554
Al0 Nb5 2.738969 1_564
Al0 Nb2 2.741656 1_465
Al0 Nb4 2.741659 1_555
Al1 Nb1 2.736846 1_565
Al1 Nb7 2.736848 1_655
Al1 Nb0 2.737912 1_554
Al1 Nb6 2.737914 1_564
Al1 Nb5 2.738966 1_564
Al1 Nb3 2.738969 1_654
Al1 Nb4 2.741654 1_555
Al1 Nb2 2.741656 1_565
Al2 Nb8 2.725668 1_555
Al2 Nb9 2.725673 1_555
Al2 Nb1 2.735185 1_555
Al2 Nb7 2.735186 1_555
Al2 Nb3 2.753901 1_554
Al2 Nb5 2.753901 1_554
Al2 Nb4 2.969019 1_455
Al2 Nb2 2.969023 1_555
Al2 Nb2 2.969023 1_455
Al2 Nb4 2.969028 1_555
As0 Nb2 2.705249 1_556
As0 Nb4 2.705249 1_556
As0 Nb0 2.721037 1_555
As0 Nb6 2.721037 1_555
As0 Nb9 2.724016 1_555
As0 Nb8 2.724018 1_555
As0 Nb5 2.981246 1_655
As0 Nb3 2.981246 1_655
As0 Nb3 2.981255 1_555
As0 Nb5 2.981255 1_555
As1 Nb1 2.666908 1_565
As1 Nb9 2.703331 1_555
As1 Nb8 2.703334 1_655
As1 Nb3 2.704031 1_655
As1 Nb6 2.706261 1_565
As1 Nb4 2.710593 1_555
As1 Nb7 2.970719 1_555
As1 Nb7 2.970724 1_655
As1 Nb0 2.998361 1_555
As1 Nb0 2.998365 1_655
As2 Nb7 2.666909 1_545
As2 Nb9 2.703331 1_455
As2 Nb8 2.703334 1_555
As2 Nb5 2.704031 1_555
As2 Nb0 2.706261 1_545
As2 Nb2 2.710593 1_455
As2 Nb1 2.970719 1_555
As2 Nb1 2.970723 1_455
As2 Nb6 2.998361 1_555
As2 Nb6 2.998366 1_455
