# generated using pymatgen
data_Sr4CoCuH12
_symmetry_space_group_name_H-M   'P 1'
_cell_length_a   7.46845631
_cell_length_b   7.46845519
_cell_length_c   5.41786953
_cell_angle_alpha   90.02116001
_cell_angle_beta   90.02115951
_cell_angle_gamma   137.47720597
_symmetry_Int_Tables_number   1
_chemical_formula_structural   Sr4CoCuH12
_chemical_formula_sum   'Sr4 Co1 Cu1 H12'
_cell_volume   204.24985840
_cell_formula_units_Z   1
loop_
 _symmetry_equiv_pos_site_id
 _symmetry_equiv_pos_as_xyz
  1  'x, y, z'
loop_
 _atom_site_type_symbol
 _atom_site_label
 _atom_site_symmetry_multiplicity
 _atom_site_fract_x
 _atom_site_fract_y
 _atom_site_fract_z
 _atom_site_occupancy
  Sr  Sr0  1  0.14453938  0.85546062  0.50000000  1
  Sr  Sr1  1  0.64406727  0.35593273  0.00000000  1
  Sr  Sr2  1  0.85546062  0.14453938  0.50000000  1
  Sr  Sr3  1  0.35593273  0.64406727  1.00000000  1
  Co  Co0  1  0.50000000  0.50000000  0.50000000  1
  Cu  Cu0  1  0.00000000  0.00000000  0.00000000  1
  H  H0  1  0.99974158  0.50017598  0.75140216  1
  H  H1  1  0.49982402  0.00025842  0.24859784  1
  H  H2  1  0.00025842  0.49982402  0.24859784  1
  H  H3  1  0.50017598  0.99974158  0.75140216  1
  H  H4  1  0.38913560  0.61086440  0.50000000  1
  H  H5  1  0.88849804  0.11150196  0.00000000  1
  H  H6  1  0.61086440  0.38913560  0.50000000  1
  H  H7  1  0.11150196  0.88849804  1.00000000  1
  H  H8  1  0.29360227  0.29360227  0.70639244  1
  H  H9  1  0.70639773  0.70639773  0.29360756  1
  H  H10  1  0.29316666  0.29316666  0.29341124  1
  H  H11  1  0.70683334  0.70683334  0.70658876  1
loop_
_geom_bond_atom_site_label_1
_geom_bond_atom_site_label_2
_geom_bond_distance
_geom_bond_site_symmetry_2
Co0 H6 1.543259 1_555
Co0 H4 1.543259 1_555
Co0 H8 1.582006 1_555
Co0 H9 1.582006 1_555
Co0 H11 1.582815 1_555
Co0 H10 1.582815 1_555
Cu0 H7 1.552134 1_544
Cu0 H5 1.552134 1_455
H0 Sr1 2.411716 1_556
H0 Sr3 2.414122 1_655
H0 Sr0 2.416502 1_655
H0 Sr2 2.418370 1_555
H1 Sr1 2.411715 1_555
H1 Sr3 2.414122 1_544
H1 Sr0 2.416502 1_545
H1 Sr2 2.418370 1_555
H2 Sr3 2.411716 1_554
H2 Sr1 2.414122 1_455
H2 Sr2 2.416502 1_455
H2 Sr0 2.418370 1_555
H3 Sr3 2.411715 1_555
H3 Sr1 2.414122 1_566
H3 Sr2 2.416502 1_565
H3 Sr0 2.418370 1_555
H4 Sr3 2.748081 1_555
H4 Sr3 2.748081 1_554
H4 Sr2 2.748506 1_565
H4 Sr2 2.748506 1_455
H5 Sr3 2.745914 1_654
H5 Sr3 2.745914 1_544
H5 Sr2 2.747695 1_555
H5 Sr2 2.747695 1_554
H6 Sr1 2.748081 1_555
H6 Sr1 2.748081 1_556
H6 Sr0 2.748506 1_545
H6 Sr0 2.748506 1_655
H7 Sr1 2.745914 1_456
H7 Sr1 2.745914 1_566
H7 Sr0 2.747695 1_555
H7 Sr0 2.747695 1_556
H8 Sr3 2.792567 1_555
H8 Sr1 2.792568 1_556
H8 Sr0 2.797145 1_545
H8 Sr2 2.797146 1_455
H9 Sr1 2.792567 1_555
H9 Sr3 2.792568 1_554
H9 Sr2 2.797145 1_565
H9 Sr0 2.797146 1_655
H10 Sr3 2.794205 1_554
H10 Sr1 2.794205 1_555
H10 Sr0 2.797525 1_545
H10 Sr2 2.797525 1_455
H11 Sr1 2.794205 1_556
H11 Sr3 2.794205 1_555
H11 Sr2 2.797525 1_565
H11 Sr0 2.797525 1_655
