# generated using pymatgen
data_Tm2Fe17
_symmetry_space_group_name_H-M   'P 1'
_cell_length_a   8.40459408
_cell_length_b   8.40459408
_cell_length_c   8.25765200
_cell_angle_alpha   90.00000000
_cell_angle_beta   90.00000000
_cell_angle_gamma   120.00000060
_symmetry_Int_Tables_number   1
_chemical_formula_structural   Tm2Fe17
_chemical_formula_sum   'Tm4 Fe34'
_cell_volume   505.15038834
_cell_formula_units_Z   2
loop_
 _symmetry_equiv_pos_site_id
 _symmetry_equiv_pos_as_xyz
  1  'x, y, z'
loop_
 _atom_site_type_symbol
 _atom_site_label
 _atom_site_symmetry_multiplicity
 _atom_site_fract_x
 _atom_site_fract_y
 _atom_site_fract_z
 _atom_site_occupancy
  Tm  Tm0  1  0.00000000  0.00000000  0.25000000  1
  Tm  Tm1  1  0.00000000  0.00000000  0.75000000  1
  Tm  Tm2  1  0.33333300  0.66666700  0.75000000  1
  Tm  Tm3  1  0.66666700  0.33333300  0.25000000  1
  Fe  Fe0  1  0.33333300  0.66666700  0.10681200  1
  Fe  Fe1  1  0.66666700  0.33333300  0.60681200  1
  Fe  Fe2  1  0.66666700  0.33333300  0.89318800  1
  Fe  Fe3  1  0.33333300  0.66666700  0.39318800  1
  Fe  Fe4  1  0.50000000  0.00000000  0.00000000  1
  Fe  Fe5  1  0.50000000  0.50000000  0.50000000  1
  Fe  Fe6  1  0.00000000  0.50000000  0.50000000  1
  Fe  Fe7  1  0.00000000  0.50000000  0.00000000  1
  Fe  Fe8  1  0.50000000  0.50000000  0.00000000  1
  Fe  Fe9  1  0.50000000  0.00000000  0.50000000  1
  Fe  Fe10  1  0.32921200  0.96414000  0.25000000  1
  Fe  Fe11  1  0.36507200  0.32921200  0.75000000  1
  Fe  Fe12  1  0.96414000  0.63492800  0.75000000  1
  Fe  Fe13  1  0.03586000  0.36507200  0.25000000  1
  Fe  Fe14  1  0.63492800  0.67078800  0.25000000  1
  Fe  Fe15  1  0.36507200  0.03586000  0.75000000  1
  Fe  Fe16  1  0.67078800  0.63492800  0.75000000  1
  Fe  Fe17  1  0.67078800  0.03586000  0.75000000  1
  Fe  Fe18  1  0.96414000  0.32921200  0.75000000  1
  Fe  Fe19  1  0.03586000  0.67078800  0.25000000  1
  Fe  Fe20  1  0.63492800  0.96414000  0.25000000  1
  Fe  Fe21  1  0.32921200  0.36507200  0.25000000  1
  Fe  Fe22  1  0.16566100  0.33132300  0.98559100  1
  Fe  Fe23  1  0.83433900  0.16566100  0.48559100  1
  Fe  Fe24  1  0.33132300  0.16566100  0.48559100  1
  Fe  Fe25  1  0.66867700  0.83433900  0.98559100  1
  Fe  Fe26  1  0.16566100  0.83433900  0.98559100  1
  Fe  Fe27  1  0.83433900  0.66867700  0.01440900  1
  Fe  Fe28  1  0.83433900  0.16566100  0.01440900  1
  Fe  Fe29  1  0.83433900  0.66867700  0.48559100  1
  Fe  Fe30  1  0.33132300  0.16566100  0.01440900  1
  Fe  Fe31  1  0.66867700  0.83433900  0.51440900  1
  Fe  Fe32  1  0.16566100  0.33132300  0.51440900  1
  Fe  Fe33  1  0.16566100  0.83433900  0.51440900  1
loop_
_geom_bond_atom_site_label_1
_geom_bond_atom_site_label_2
_geom_bond_distance
_geom_bond_site_symmetry_2
Fe0 Fe3 2.364793 1_555
Fe0 Fe4 2.581545 1_565
Fe0 Fe7 2.581545 1_555
Fe0 Fe8 2.581552 1_555
Fe0 Fe22 2.638118 1_554
Fe0 Fe25 2.638118 1_554
Fe0 Fe26 2.638118 1_554
Fe0 Fe10 2.781466 1_555
Fe0 Fe19 2.781466 1_555
Fe0 Fe13 2.781470 1_555
Fe0 Fe20 2.781470 1_555
Fe0 Fe21 2.781474 1_555
Fe0 Fe14 2.781474 1_555
Fe0 Tm2 2.946429 1_554
Fe1 Fe2 2.364793 1_555
Fe1 Fe9 2.581545 1_555
Fe1 Fe6 2.581545 1_655
Fe1 Fe5 2.581552 1_555
Fe1 Fe29 2.638118 1_555
Fe1 Fe24 2.638118 1_555
Fe1 Fe23 2.638118 1_555
Fe1 Fe18 2.781466 1_555
Fe1 Fe17 2.781466 1_555
Fe1 Fe15 2.781470 1_555
Fe1 Fe12 2.781470 1_555
Fe1 Fe16 2.781474 1_555
Fe1 Fe11 2.781474 1_555
Fe1 Tm3 2.946429 1_555
Fe2 Fe4 2.581545 1_556
Fe2 Fe7 2.581545 1_656
Fe2 Fe8 2.581552 1_556
Fe2 Fe27 2.638118 1_556
Fe2 Fe30 2.638118 1_556
Fe2 Fe28 2.638118 1_556
Fe2 Tm3 2.946429 1_556
Fe3 Fe6 2.581545 1_555
Fe3 Fe9 2.581545 1_565
Fe3 Fe5 2.581552 1_555
Fe3 Fe32 2.638118 1_555
Fe3 Fe31 2.638118 1_555
Fe3 Fe33 2.638118 1_555
Fe3 Tm2 2.946429 1_555
Fe4 Tm2 3.185628 1_544
Fe4 Tm3 3.185628 1_555
Fe5 Tm2 3.185633 1_555
Fe5 Tm3 3.185633 1_555
Fe6 Tm3 3.185628 1_455
Fe6 Tm2 3.185628 1_555
Fe7 Tm3 3.185628 1_455
Fe7 Tm2 3.185628 1_554
Fe8 Tm3 3.185633 1_555
Fe8 Tm2 3.185633 1_554
Fe9 Tm2 3.185628 1_545
Fe9 Tm3 3.185628 1_555
Fe10 Fe9 2.445487 1_565
Fe10 Fe4 2.445487 1_565
Fe10 Fe19 2.465504 1_555
Fe10 Fe33 2.519375 1_555
Fe10 Fe26 2.519375 1_554
Fe10 Fe20 2.569419 1_555
Fe10 Fe30 2.573632 1_565
Fe10 Fe24 2.573632 1_565
Fe10 Fe3 2.781466 1_555
Fe10 Tm0 2.929239 1_565
Fe10 Tm3 2.978517 1_565
Fe11 Fe8 2.445487 1_556
Fe11 Fe5 2.445487 1_555
Fe11 Fe15 2.465504 1_555
Fe11 Fe30 2.519376 1_556
Fe11 Fe24 2.519376 1_555
Fe11 Fe16 2.569419 1_555
Fe11 Fe32 2.573638 1_555
Fe11 Fe22 2.573638 1_555
Fe11 Fe2 2.781474 1_555
Fe11 Tm1 2.929239 1_555
Fe11 Tm2 2.978521 1_555
Fe12 Fe6 2.445487 1_655
Fe12 Fe7 2.445487 1_656
Fe12 Fe16 2.465504 1_555
Fe12 Fe27 2.519372 1_556
Fe12 Fe29 2.519372 1_555
Fe12 Fe18 2.569419 1_555
Fe12 Fe26 2.573635 1_655
Fe12 Fe33 2.573635 1_655
Fe12 Fe2 2.781470 1_555
Fe12 Tm1 2.929239 1_665
Fe12 Tm2 2.978513 1_655
Fe13 Fe7 2.445487 1_555
Fe13 Fe6 2.445487 1_555
Fe13 Fe21 2.465504 1_555
Fe13 Fe22 2.519372 1_554
Fe13 Fe32 2.519372 1_555
Fe13 Fe19 2.569419 1_555
Fe13 Fe28 2.573635 1_455
Fe13 Fe23 2.573635 1_455
Fe13 Fe3 2.781470 1_555
Fe13 Tm0 2.929239 1_555
Fe13 Tm3 2.978513 1_455
Fe14 Fe5 2.445487 1_555
Fe14 Fe8 2.445487 1_555
Fe14 Fe20 2.465504 1_555
Fe14 Fe25 2.519376 1_554
Fe14 Fe31 2.519376 1_555
Fe14 Fe21 2.569419 1_555
Fe14 Fe29 2.573638 1_555
Fe14 Fe27 2.573638 1_555
Fe14 Fe3 2.781474 1_555
Fe14 Tm0 2.929239 1_665
Fe14 Tm3 2.978521 1_555
Fe15 Fe4 2.445487 1_556
Fe15 Fe9 2.445487 1_555
Fe15 Fe30 2.519372 1_556
Fe15 Fe24 2.519372 1_555
Fe15 Fe17 2.569419 1_555
Fe15 Fe33 2.573635 1_545
Fe15 Fe26 2.573635 1_545
Fe15 Fe2 2.781470 1_555
Fe15 Tm1 2.929239 1_555
Fe15 Tm2 2.978513 1_545
Fe16 Fe5 2.445487 1_555
Fe16 Fe8 2.445487 1_556
Fe16 Fe27 2.519376 1_556
Fe16 Fe29 2.519376 1_555
Fe16 Fe31 2.573638 1_555
Fe16 Fe25 2.573638 1_555
Fe16 Fe2 2.781474 1_555
Fe16 Tm1 2.929239 1_665
Fe16 Tm2 2.978521 1_555
Fe17 Fe9 2.445487 1_555
Fe17 Fe4 2.445487 1_556
Fe17 Fe18 2.465504 1_555
Fe17 Fe28 2.519375 1_556
Fe17 Fe23 2.519375 1_555
Fe17 Fe31 2.573632 1_545
Fe17 Fe25 2.573632 1_545
Fe17 Fe2 2.781466 1_555
Fe17 Tm1 2.929239 1_655
Fe17 Tm2 2.978517 1_545
Fe18 Fe6 2.445487 1_655
Fe18 Fe7 2.445487 1_656
Fe18 Fe28 2.519375 1_556
Fe18 Fe23 2.519375 1_555
Fe18 Fe22 2.573632 1_655
Fe18 Fe32 2.573632 1_655
Fe18 Fe2 2.781466 1_555
Fe18 Tm1 2.929239 1_655
Fe18 Tm2 2.978517 1_655
Fe19 Fe6 2.445487 1_555
Fe19 Fe7 2.445487 1_555
Fe19 Fe33 2.519375 1_555
Fe19 Fe26 2.519375 1_554
Fe19 Fe27 2.573632 1_455
Fe19 Fe29 2.573632 1_455
Fe19 Fe3 2.781466 1_555
Fe19 Tm0 2.929239 1_565
Fe19 Tm3 2.978517 1_455
Fe20 Fe9 2.445487 1_565
Fe20 Fe4 2.445487 1_565
Fe20 Fe25 2.519372 1_554
Fe20 Fe31 2.519372 1_555
Fe20 Fe23 2.573635 1_565
Fe20 Fe28 2.573635 1_565
Fe20 Fe3 2.781470 1_555
Fe20 Tm0 2.929239 1_665
Fe20 Tm3 2.978513 1_565
Fe21 Fe8 2.445487 1_555
Fe21 Fe5 2.445487 1_555
Fe21 Fe32 2.519376 1_555
Fe21 Fe22 2.519376 1_554
Fe21 Fe24 2.573638 1_555
Fe21 Fe30 2.573638 1_555
Fe21 Fe3 2.781474 1_555
Fe21 Tm0 2.929239 1_555
Fe21 Tm3 2.978521 1_555
Fe22 Fe28 2.423270 1_456
Fe22 Fe30 2.423285 1_556
Fe22 Fe7 2.436450 1_556
Fe22 Fe8 2.436457 1_556
Fe22 Tm1 3.098441 1_555
Fe22 Tm2 3.121274 1_555
Fe22 Tm0 3.253132 1_556
Fe23 Fe31 2.423270 1_545
Fe23 Fe32 2.423270 1_655
Fe23 Fe6 2.436457 1_655
Fe23 Fe9 2.436457 1_555
Fe23 Tm0 3.098435 1_655
Fe23 Tm3 3.121274 1_555
Fe23 Tm1 3.253127 1_655
Fe24 Fe33 2.423270 1_545
Fe24 Fe32 2.423285 1_555
Fe24 Fe9 2.436450 1_555
Fe24 Fe5 2.436457 1_555
Fe24 Tm0 3.098441 1_555
Fe24 Tm3 3.121274 1_555
Fe24 Tm1 3.253132 1_555
Fe25 Fe28 2.423270 1_566
Fe25 Fe27 2.423285 1_556
Fe25 Fe4 2.436450 1_566
Fe25 Fe8 2.436457 1_556
Fe25 Tm1 3.098441 1_665
Fe25 Tm2 3.121274 1_555
Fe25 Tm0 3.253132 1_666
Fe26 Fe27 2.423270 1_456
Fe26 Fe30 2.423270 1_566
Fe26 Fe4 2.436457 1_566
Fe26 Fe7 2.436457 1_556
Fe26 Tm1 3.098435 1_565
Fe26 Tm2 3.121274 1_555
Fe26 Tm0 3.253127 1_566
Fe27 Fe7 2.436450 1_655
Fe27 Fe8 2.436457 1_555
Fe27 Tm0 3.098441 1_665
Fe27 Tm3 3.121274 1_555
Fe27 Tm1 3.253132 1_664
Fe28 Fe7 2.436457 1_655
Fe28 Fe4 2.436457 1_555
Fe28 Tm0 3.098435 1_655
Fe28 Tm3 3.121274 1_555
Fe28 Tm1 3.253127 1_654
Fe29 Fe33 2.423270 1_655
Fe29 Fe31 2.423285 1_555
Fe29 Fe6 2.436450 1_655
Fe29 Fe5 2.436457 1_555
Fe29 Tm0 3.098441 1_665
Fe29 Tm3 3.121274 1_555
Fe29 Tm1 3.253132 1_665
Fe30 Fe4 2.436450 1_555
Fe30 Fe8 2.436457 1_555
Fe30 Tm0 3.098441 1_555
Fe30 Tm3 3.121274 1_555
Fe30 Tm1 3.253132 1_554
Fe31 Fe9 2.436450 1_565
Fe31 Fe5 2.436457 1_555
Fe31 Tm1 3.098441 1_665
Fe31 Tm2 3.121274 1_555
Fe31 Tm0 3.253132 1_665
Fe32 Fe6 2.436450 1_555
Fe32 Fe5 2.436457 1_555
Fe32 Tm1 3.098441 1_555
Fe32 Tm2 3.121274 1_555
Fe32 Tm0 3.253132 1_555
Fe33 Fe9 2.436457 1_565
Fe33 Fe6 2.436457 1_555
Fe33 Tm1 3.098435 1_565
Fe33 Tm2 3.121274 1_555
Fe33 Tm0 3.253127 1_565
