# generated using pymatgen
data_Cs2Zn3CrAs4
_symmetry_space_group_name_H-M   'P 1'
_cell_length_a   8.12576928
_cell_length_b   8.12577040
_cell_length_c   5.85569488
_cell_angle_alpha   90.00000000
_cell_angle_beta   90.00000000
_cell_angle_gamma   137.70085000
_symmetry_Int_Tables_number   1
_chemical_formula_structural   Cs2Zn3CrAs4
_chemical_formula_sum   'Cs2 Zn3 Cr1 As4'
_cell_volume   260.20972951
_cell_formula_units_Z   1
loop_
 _symmetry_equiv_pos_site_id
 _symmetry_equiv_pos_as_xyz
  1  'x, y, z'
loop_
 _atom_site_type_symbol
 _atom_site_label
 _atom_site_symmetry_multiplicity
 _atom_site_fract_x
 _atom_site_fract_y
 _atom_site_fract_z
 _atom_site_occupancy
  Cs  Cs0  1  0.50000000  0.00000000  0.25749500  1
  Cs  Cs1  1  0.00000000  0.50000000  0.74250500  1
  Zn  Zn0  1  0.50000000  0.50000000  0.50000000  1
  Zn  Zn1  1  0.50000000  0.50000000  0.00000000  1
  Zn  Zn2  1  0.00000000  0.00000000  0.50000000  1
  Cr  Cr0  1  0.00000000  0.00000000  0.00000000  1
  As  As0  1  0.66784031  0.85592014  0.76213827  1
  As  As1  1  0.14407986  0.33215969  0.23786173  1
  As  As2  1  0.85592014  0.66784031  0.23786173  1
  As  As3  1  0.33215969  0.14407986  0.76213827  1
loop_
_geom_bond_atom_site_label_1
_geom_bond_atom_site_label_2
_geom_bond_distance
_geom_bond_site_symmetry_2
As0 Cr0 2.433339 1_666
As0 Zn1 2.515871 1_556
As0 Zn2 2.517409 1_665
As0 Zn0 2.597271 1_555
As0 Cs1 3.713889 1_665
As0 Cs0 3.742530 1_566
As0 Cs0 3.784833 1_565
As0 Cs1 3.822290 1_555
As1 Cr0 2.433339 1_555
As1 Zn1 2.515870 1_555
As1 Zn2 2.517409 1_555
As1 Zn0 2.597271 1_555
As1 Cs0 3.713889 1_455
As1 Cs1 3.742530 1_554
As1 Cs1 3.784833 1_555
As1 Cs0 3.822291 1_565
As2 Cr0 2.433339 1_665
As2 Zn1 2.515870 1_555
As2 Zn2 2.517409 1_665
As2 Zn0 2.597271 1_555
As2 Cs0 3.713889 1_665
As2 Cs1 3.742530 1_654
As2 Cs1 3.784833 1_655
As2 Cs0 3.822291 1_555
As3 Cr0 2.433339 1_556
As3 Zn1 2.515871 1_556
As3 Zn2 2.517409 1_555
As3 Zn0 2.597271 1_555
As3 Cs1 3.713889 1_545
As3 Cs0 3.742530 1_556
As3 Cs0 3.784833 1_555
As3 Cs1 3.822290 1_655
