# generated using pymatgen
data_In2Sb2Br2O5
_symmetry_space_group_name_H-M   'P 1'
_cell_length_a   6.81129956
_cell_length_b   7.82604159
_cell_length_c   9.76057430
_cell_angle_alpha   107.84294452
_cell_angle_beta   103.96423065
_cell_angle_gamma   101.67707257
_symmetry_Int_Tables_number   1
_chemical_formula_structural   In2Sb2Br2O5
_chemical_formula_sum   'In4 Sb4 Br4 O10'
_cell_volume   458.62100703
_cell_formula_units_Z   2
loop_
 _symmetry_equiv_pos_site_id
 _symmetry_equiv_pos_as_xyz
  1  'x, y, z'
loop_
 _atom_site_type_symbol
 _atom_site_label
 _atom_site_symmetry_multiplicity
 _atom_site_fract_x
 _atom_site_fract_y
 _atom_site_fract_z
 _atom_site_occupancy
  In  In0  1  0.41410413  0.69173603  0.51701945  1
  In  In1  1  0.58589587  0.30826397  0.48298055  1
  In  In2  1  0.87870852  0.78660139  0.36277827  1
  In  In3  1  0.12129148  0.21339861  0.63722173  1
  Sb  Sb0  1  0.89919748  0.83898689  0.75555249  1
  Sb  Sb1  1  0.10080252  0.16101311  0.24444751  1
  Sb  Sb2  1  0.68259397  0.22369017  0.79156957  1
  Sb  Sb3  1  0.31740603  0.77630983  0.20843043  1
  Br  Br0  1  0.23858993  0.61223142  0.71683214  1
  Br  Br1  1  0.76141007  0.38776858  0.28316786  1
  Br  Br2  1  0.77188023  0.71570378  0.06292664  1
  Br  Br3  1  0.22811977  0.28429622  0.93707336  1
  O  O0  1  0.82371538  0.26236997  0.64229968  1
  O  O1  1  0.17628462  0.73763003  0.35770032  1
  O  O2  1  0.56648444  0.78124334  0.36314190  1
  O  O3  1  0.43351556  0.21875666  0.63685810  1
  O  O4  1  0.64466321  0.94564276  0.71300820  1
  O  O5  1  0.35533679  0.05435724  0.28699180  1
  O  O6  1  0.68664940  0.60865341  0.60484881  1
  O  O7  1  0.31335060  0.39134659  0.39515119  1
  O  O8  1  0.00273789  0.91614696  0.60524399  1
  O  O9  1  0.99726211  0.08385304  0.39475601  1
loop_
_geom_bond_atom_site_label_1
_geom_bond_atom_site_label_2
_geom_bond_distance
_geom_bond_site_symmetry_2
In0 O1 2.129124 1_555
In0 O7 2.156787 1_555
In0 O6 2.160084 1_555
In0 O2 2.219580 1_555
In0 O4 2.243123 1_555
In1 O0 2.129124 1_555
In1 O6 2.156787 1_555
In1 O7 2.160084 1_555
In1 O3 2.219580 1_555
In1 O5 2.243123 1_555
In2 O2 2.119447 1_555
In2 O8 2.135503 1_655
In2 O1 2.146828 1_655
In2 O9 2.198675 1_565
In3 O3 2.119447 1_555
In3 O9 2.135503 1_455
In3 O0 2.146828 1_455
In3 O8 2.198675 1_545
Br0 In0 2.680997 1_555
Br0 In3 2.861667 1_555
Br0 Sb0 3.210491 1_455
Br1 In1 2.680997 1_555
Br1 In2 2.861667 1_555
Br1 Sb1 3.210491 1_655
Br2 In2 2.686381 1_555
Br3 In3 2.686381 1_555
O0 Sb2 1.991660 1_555
O1 Sb3 1.991660 1_555
O2 Sb3 1.965039 1_555
O3 Sb2 1.965039 1_555
O4 Sb2 2.010981 1_565
O4 Sb0 2.079814 1_555
O5 Sb3 2.010981 1_545
O5 Sb1 2.079814 1_555
O6 Sb0 1.949338 1_555
O7 Sb1 1.949338 1_555
O8 Sb0 1.970855 1_455
O9 Sb1 1.970855 1_655
