# generated using pymatgen
data_Hf9Nb(Sn3P)2
_symmetry_space_group_name_H-M   'P 1'
_cell_length_a   8.47139335
_cell_length_b   8.47139351
_cell_length_c   5.81254498
_cell_angle_alpha   90.00000000
_cell_angle_beta   90.00000000
_cell_angle_gamma   119.99999551
_symmetry_Int_Tables_number   1
_chemical_formula_structural   Hf9Nb(Sn3P)2
_chemical_formula_sum   'Hf9 Nb1 Sn6 P2'
_cell_volume   361.24902321
_cell_formula_units_Z   1
loop_
 _symmetry_equiv_pos_site_id
 _symmetry_equiv_pos_as_xyz
  1  'x, y, z'
loop_
 _atom_site_type_symbol
 _atom_site_label
 _atom_site_symmetry_multiplicity
 _atom_site_fract_x
 _atom_site_fract_y
 _atom_site_fract_z
 _atom_site_occupancy
  Hf  Hf0  1  0.66666700  0.33333300  0.50000000  1
  Hf  Hf1  1  0.66666700  0.33333300  0.00000000  1
  Hf  Hf2  1  0.33333300  0.66666700  0.50000000  1
  Hf  Hf3  1  0.25307179  0.00008256  0.24927496  1
  Hf  Hf4  1  0.25307179  0.25298922  0.75072504  1
  Hf  Hf5  1  0.99991744  0.74692821  0.75072504  1
  Hf  Hf6  1  0.99991744  0.25298922  0.24927496  1
  Hf  Hf7  1  0.74701078  0.74692821  0.24927496  1
  Hf  Hf8  1  0.74701078  0.00008256  0.75072504  1
  Nb  Nb0  1  0.33333300  0.66666700  0.00000000  1
  Sn  Sn0  1  0.59976649  0.99819617  0.24752142  1
  Sn  Sn1  1  0.59976649  0.60157033  0.75247858  1
  Sn  Sn2  1  0.00180383  0.40023351  0.75247858  1
  Sn  Sn3  1  0.00180383  0.60157033  0.24752142  1
  Sn  Sn4  1  0.39842967  0.40023351  0.24752142  1
  Sn  Sn5  1  0.39842967  0.99819617  0.75247858  1
  P  P0  1  0.00000000  0.00000000  0.00000000  1
  P  P1  1  0.00000000  0.00000000  0.50000000  1
loop_
_geom_bond_atom_site_label_1
_geom_bond_atom_site_label_2
_geom_bond_distance
_geom_bond_site_symmetry_2
Hf0 Sn2 2.987676 1_655
Hf0 Sn0 2.987677 1_545
Hf0 Sn3 2.987679 1_655
Hf0 Sn5 2.987679 1_545
Hf0 Sn4 2.987684 1_555
Hf0 Sn1 2.987684 1_555
Hf1 Sn2 2.973629 1_654
Hf1 Sn0 2.973629 1_545
Hf1 Sn3 2.973632 1_655
Hf1 Sn5 2.973632 1_544
Hf1 Sn4 2.973636 1_555
Hf1 Sn1 2.973636 1_554
Hf2 Nb0 2.906272 1_555
Hf2 Nb0 2.906272 1_556
Hf2 Sn3 2.965933 1_555
Hf2 Sn5 2.965933 1_555
Hf2 Sn2 2.965936 1_555
Hf2 Sn0 2.965936 1_555
Hf2 Sn1 2.965940 1_555
Hf2 Sn4 2.965940 1_555
Hf3 P0 2.587288 1_555
Hf3 P1 2.592017 1_555
Hf3 Sn0 2.945028 1_545
Hf3 Sn3 2.956695 1_545
Hf3 Sn4 2.972072 1_555
Hf3 Sn5 3.142415 1_544
Hf3 Sn5 3.176672 1_545
Hf4 P0 2.587288 1_556
Hf4 P1 2.592017 1_555
Hf4 Sn1 2.945028 1_555
Hf4 Sn2 2.956694 1_555
Hf4 Sn5 2.972071 1_545
Hf4 Sn4 3.142415 1_556
Hf4 Sn4 3.176672 1_555
Hf5 P0 2.587288 1_666
Hf5 P1 2.592017 1_665
Hf5 Sn2 2.945028 1_655
Hf5 Sn5 2.956695 1_655
Hf5 Sn1 2.972072 1_555
Hf5 Sn3 3.142415 1_656
Hf5 Sn3 3.176672 1_655
Hf6 P0 2.587288 1_655
Hf6 P1 2.592017 1_655
Hf6 Sn3 2.945028 1_655
Hf6 Sn4 2.956695 1_655
Hf6 Sn0 2.972072 1_545
Hf6 Sn2 3.142415 1_654
Hf6 Sn2 3.176672 1_655
Hf7 P0 2.587288 1_665
Hf7 P1 2.592017 1_665
Hf7 Sn4 2.945028 1_555
Hf7 Sn0 2.956694 1_555
Hf7 Sn3 2.972071 1_655
Hf7 Sn1 3.142415 1_554
Hf7 Sn1 3.176672 1_555
Hf8 P0 2.587288 1_656
Hf8 P1 2.592017 1_655
Hf8 Sn5 2.945028 1_545
Hf8 Sn1 2.956695 1_545
Hf8 Sn2 2.972072 1_655
Hf8 Sn0 3.142415 1_546
Hf8 Sn0 3.176672 1_545
Nb0 Sn3 2.951782 1_555
Nb0 Sn5 2.951782 1_554
Nb0 Sn2 2.951785 1_554
Nb0 Sn0 2.951785 1_555
Nb0 Sn1 2.951790 1_554
Nb0 Sn4 2.951790 1_555
