# generated using pymatgen
data_Hf10CuSn6Ge
_symmetry_space_group_name_H-M   'P 1'
_cell_length_a   8.54854467
_cell_length_b   8.54854592
_cell_length_c   5.81043808
_cell_angle_alpha   90.00000000
_cell_angle_beta   90.00000000
_cell_angle_gamma   119.99999513
_symmetry_Int_Tables_number   1
_chemical_formula_structural   Hf10CuSn6Ge
_chemical_formula_sum   'Hf10 Cu1 Sn6 Ge1'
_cell_volume   367.72568412
_cell_formula_units_Z   1
loop_
 _symmetry_equiv_pos_site_id
 _symmetry_equiv_pos_as_xyz
  1  'x, y, z'
loop_
 _atom_site_type_symbol
 _atom_site_label
 _atom_site_symmetry_multiplicity
 _atom_site_fract_x
 _atom_site_fract_y
 _atom_site_fract_z
 _atom_site_occupancy
  Hf  Hf0  1  0.33333300  0.66666700  0.00000000  1
  Hf  Hf1  1  0.66666700  0.33333300  0.50000000  1
  Hf  Hf2  1  0.66666700  0.33333300  0.00000000  1
  Hf  Hf3  1  0.33333300  0.66666700  0.50000000  1
  Hf  Hf4  1  0.26136907  0.00000000  0.25130965  1
  Hf  Hf5  1  0.26136907  0.26136907  0.74869035  1
  Hf  Hf6  1  1.00000000  0.73863093  0.74869035  1
  Hf  Hf7  1  0.00000000  0.26136907  0.25130965  1
  Hf  Hf8  1  0.73863093  0.73863093  0.25130965  1
  Hf  Hf9  1  0.73863093  0.00000000  0.74869035  1
  Cu  Cu0  1  0.00000000  0.00000000  0.50000000  1
  Sn  Sn0  1  0.60951460  0.00000000  0.25030690  1
  Sn  Sn1  1  0.60951460  0.60951460  0.74969310  1
  Sn  Sn2  1  1.00000000  0.39048540  0.74969310  1
  Sn  Sn3  1  0.00000000  0.60951460  0.25030690  1
  Sn  Sn4  1  0.39048540  0.39048540  0.25030690  1
  Sn  Sn5  1  0.39048540  0.00000000  0.74969310  1
  Ge  Ge0  1  0.00000000  0.00000000  0.00000000  1
loop_
_geom_bond_atom_site_label_1
_geom_bond_atom_site_label_2
_geom_bond_distance
_geom_bond_site_symmetry_2
Hf0 Sn3 3.013551 1_555
Hf0 Sn5 3.013552 1_564
Hf0 Sn2 3.013554 1_454
Hf0 Sn0 3.013554 1_565
Hf0 Sn1 3.013559 1_554
Hf0 Sn4 3.013559 1_555
Hf1 Sn2 3.011832 1_555
Hf1 Sn0 3.011832 1_555
Hf1 Sn3 3.011835 1_655
Hf1 Sn5 3.011835 1_555
Hf1 Sn4 3.011839 1_555
Hf1 Sn1 3.011839 1_555
Hf2 Sn2 3.013551 1_554
Hf2 Sn0 3.013552 1_555
Hf2 Sn3 3.013554 1_655
Hf2 Sn5 3.013554 1_554
Hf2 Sn4 3.013559 1_555
Hf2 Sn1 3.013559 1_554
Hf3 Sn3 3.011832 1_555
Hf3 Sn5 3.011832 1_565
Hf3 Sn2 3.011835 1_455
Hf3 Sn0 3.011835 1_565
Hf3 Sn1 3.011839 1_555
Hf3 Sn4 3.011839 1_555
Hf4 Sn4 2.945620 1_555
Hf4 Sn3 2.945620 1_545
Hf4 Sn0 2.976143 1_555
Hf4 Sn5 3.099046 1_555
Hf4 Sn5 3.116607 1_554
Hf5 Sn2 2.945619 1_455
Hf5 Sn5 2.945620 1_555
Hf5 Sn1 2.976144 1_555
Hf5 Sn4 3.099046 1_555
Hf5 Sn4 3.116607 1_556
Hf6 Sn1 2.945619 1_555
Hf6 Sn5 2.945620 1_665
Hf6 Sn2 2.976144 1_555
Hf6 Sn3 3.099046 1_655
Hf6 Sn3 3.116607 1_656
Hf7 Sn4 2.945619 1_555
Hf7 Sn0 2.945620 1_455
Hf7 Sn3 2.976144 1_555
Hf7 Sn2 3.099046 1_455
Hf7 Sn2 3.116607 1_454
Hf8 Sn3 2.945619 1_655
Hf8 Sn0 2.945620 1_565
Hf8 Sn4 2.976144 1_555
Hf8 Sn1 3.099046 1_555
Hf8 Sn1 3.116607 1_554
Hf9 Sn2 2.945620 1_555
Hf9 Sn1 2.945620 1_545
Hf9 Sn5 2.976143 1_555
Hf9 Sn0 3.099046 1_555
Hf9 Sn0 3.116607 1_556
Cu0 Hf4 2.660871 1_555
Cu0 Hf9 2.660871 1_455
Cu0 Hf7 2.660871 1_555
Cu0 Hf5 2.660871 1_555
Cu0 Hf6 2.660871 1_445
Cu0 Hf8 2.660871 1_445
Ge0 Hf4 2.669166 1_555
Ge0 Hf9 2.669166 1_454
Ge0 Hf7 2.669167 1_555
Ge0 Hf5 2.669167 1_554
Ge0 Hf6 2.669167 1_444
Ge0 Hf8 2.669167 1_445
