# generated using pymatgen
data_Nb3CrOs2C
_symmetry_space_group_name_H-M   'P 1'
_cell_length_a   8.30738815
_cell_length_b   8.30757421
_cell_length_c   8.30737732
_cell_angle_alpha   119.99888757
_cell_angle_beta   89.99352572
_cell_angle_gamma   119.99884342
_symmetry_Int_Tables_number   1
_chemical_formula_structural   Nb3CrOs2C
_chemical_formula_sum   'Nb12 Cr4 Os8 C4'
_cell_volume   405.44046533
_cell_formula_units_Z   4
loop_
 _symmetry_equiv_pos_site_id
 _symmetry_equiv_pos_as_xyz
  1  'x, y, z'
loop_
 _atom_site_type_symbol
 _atom_site_label
 _atom_site_symmetry_multiplicity
 _atom_site_fract_x
 _atom_site_fract_y
 _atom_site_fract_z
 _atom_site_occupancy
  Nb  Nb0  1  0.55710987  0.50003303  0.05709251  1
  Nb  Nb1  1  0.55704836  0.11413274  0.05705965  1
  Nb  Nb2  1  0.94288969  0.50000231  0.05711321  1
  Nb  Nb3  1  0.19289100  0.99996786  0.19290982  1
  Nb  Nb4  1  0.19295573  0.38587321  0.19293936  1
  Nb  Nb5  1  0.80710601  0.99999500  0.19288823  1
  Nb  Nb6  1  0.94290547  0.49997032  0.44288730  1
  Nb  Nb7  1  0.94294118  0.88586751  0.44295144  1
  Nb  Nb8  1  0.55715032  0.50000041  0.44284887  1
  Nb  Nb9  1  0.19285321  0.00000560  0.80714868  1
  Nb  Nb10  1  0.80709263  0.00003178  0.80710823  1
  Nb  Nb11  1  0.80705347  0.61412773  0.80704716  1
  Cr  Cr0  1  0.37500227  0.75000162  0.12500642  1
  Cr  Cr1  1  0.37500142  0.24999572  0.62499925  1
  Cr  Cr2  1  0.37500426  0.75000552  0.62499677  1
  Cr  Cr3  1  0.87499314  0.24999303  0.62499859  1
  Os  Os0  1  0.58187374  0.16379661  0.41823657  1
  Os  Os1  1  0.25441628  0.83630213  0.41825148  1
  Os  Os2  1  0.58176172  0.83619544  0.41811792  1
  Os  Os3  1  0.16825328  0.33629220  0.50440929  1
  Os  Os4  1  0.58174557  0.16370397  0.74558596  1
  Os  Os5  1  0.16812463  0.33619754  0.83176692  1
  Os  Os6  1  0.16823752  0.66380633  0.83188408  1
  Os  Os7  1  0.49559114  0.66370190  0.83175144  1
  C  C0  1  0.37500098  0.25000162  0.12499994  1
  C  C1  1  0.87499990  0.25000018  0.12499927  1
  C  C2  1  0.87499869  0.74999900  0.12500047  1
  C  C3  1  0.87499952  0.75000069  0.62499917  1
loop_
_geom_bond_atom_site_label_1
_geom_bond_atom_site_label_2
_geom_bond_distance
_geom_bond_site_symmetry_2
Nb0 Os4 2.808361 1_554
Nb0 Os2 2.808713 1_555
Nb0 Os5 2.975616 1_554
Nb0 Os7 2.975672 1_554
Nb1 Os4 2.808547 1_554
Nb1 Os0 2.809362 1_555
Nb1 Os6 2.974575 1_544
Nb1 Os7 2.975326 1_544
Nb2 Os1 2.809607 1_655
Nb2 Os4 2.809638 1_554
Nb2 Os6 2.975758 1_654
Nb2 Os5 2.975797 1_654
Nb3 Os3 2.808324 1_565
Nb3 Os6 2.808706 1_554
Nb3 Os0 2.975624 1_565
Nb3 Os1 2.975676 1_555
Nb4 Os3 2.808563 1_555
Nb4 Os5 2.809284 1_554
Nb4 Os2 2.974543 1_555
Nb4 Os1 2.975300 1_555
Nb5 Os7 2.809559 1_554
Nb5 Os3 2.809631 1_665
Nb5 Os2 2.975734 1_555
Nb5 Os0 2.975773 1_565
Nb6 Os1 2.808393 1_655
Nb6 Os0 2.808791 1_555
Nb6 Os6 2.975715 1_655
Nb6 Os3 2.975798 1_655
Nb7 Os1 2.808535 1_655
Nb7 Os2 2.809358 1_555
Nb7 Os5 2.974602 1_665
Nb7 Os3 2.975281 1_665
Nb8 Os2 2.808457 1_555
Nb8 Os0 2.808491 1_555
Nb8 Os3 2.974924 1_555
Nb8 Os7 2.974954 1_555
Nb9 Os5 2.808396 1_555
Nb9 Os6 2.808498 1_545
Nb9 Os4 2.974898 1_555
Nb9 Os1 2.974929 1_545
Nb10 Os7 2.808386 1_545
Nb10 Os5 2.808736 1_655
Nb10 Os2 2.975664 1_545
Nb10 Os4 2.975752 1_555
Nb11 Os7 2.808471 1_555
Nb11 Os6 2.809373 1_655
Nb11 Os0 2.974587 1_555
Nb11 Os4 2.975262 1_555
Cr0 Os2 2.533709 1_555
Cr0 Os6 2.533800 1_554
Cr0 Os1 2.534409 1_555
Cr0 Os7 2.534490 1_554
Cr0 Os0 2.534642 1_565
Cr0 Os5 2.534704 1_554
Cr1 Os0 2.533103 1_555
Cr1 Os5 2.533162 1_555
Cr1 Os4 2.533169 1_555
Cr1 Os3 2.533243 1_555
Cr1 Os1 2.533783 1_545
Cr1 Os7 2.533858 1_555
Cr2 Os2 2.533103 1_555
Cr2 Os1 2.533214 1_555
Cr2 Os6 2.533223 1_555
Cr2 Os7 2.533321 1_555
Cr2 Os4 2.533808 1_565
Cr2 Os3 2.533913 1_555
Cr3 Os0 2.533764 1_555
Cr3 Os5 2.533839 1_655
Cr3 Os4 2.534435 1_555
Cr3 Os3 2.534529 1_655
Cr3 Os2 2.534658 1_545
Cr3 Os6 2.534758 1_655
Os0 Os4 2.719800 1_555
Os0 Os1 2.720610 1_545
Os0 Os2 2.720613 1_545
Os1 Os4 2.719672 1_565
Os1 Os2 2.719829 1_555
Os2 Os4 2.720714 1_565
Os3 Os7 2.719739 1_555
Os3 Os5 2.719877 1_555
Os3 Os6 2.720763 1_555
Os5 Os6 2.720679 1_555
Os5 Os7 2.720691 1_555
Os6 Os7 2.719887 1_555
C0 Nb4 2.224750 1_555
C0 Nb1 2.224751 1_555
C0 Nb8 2.224829 1_555
C0 Nb9 2.224840 1_554
C0 Nb0 2.225034 1_555
C0 Nb3 2.225065 1_545
C1 Nb2 2.224759 1_555
C1 Nb6 2.224780 1_555
C1 Nb10 2.224792 1_554
C1 Nb5 2.224792 1_545
C1 Nb1 2.225159 1_555
C1 Nb4 2.225182 1_655
C2 Nb2 2.224750 1_555
C2 Nb5 2.224754 1_555
C2 Nb0 2.224777 1_555
C2 Nb3 2.224800 1_655
C2 Nb7 2.225149 1_555
C2 Nb11 2.225162 1_554
C3 Nb7 2.224740 1_555
C3 Nb11 2.224779 1_555
C3 Nb8 2.224835 1_555
C3 Nb9 2.224860 1_665
C3 Nb6 2.225023 1_555
C3 Nb10 2.225028 1_565
