# generated using pymatgen
data_Lu6ZnI12
_symmetry_space_group_name_H-M   'P 1'
_cell_length_a   9.50002211
_cell_length_b   9.50002184
_cell_length_c   9.50002043
_cell_angle_alpha   107.13256221
_cell_angle_beta   107.13256129
_cell_angle_gamma   107.13255378
_symmetry_Int_Tables_number   1
_chemical_formula_structural   Lu6ZnI12
_chemical_formula_sum   'Lu6 Zn1 I12'
_cell_volume   711.43715942
_cell_formula_units_Z   1
loop_
 _symmetry_equiv_pos_site_id
 _symmetry_equiv_pos_as_xyz
  1  'x, y, z'
loop_
 _atom_site_type_symbol
 _atom_site_label
 _atom_site_symmetry_multiplicity
 _atom_site_fract_x
 _atom_site_fract_y
 _atom_site_fract_z
 _atom_site_occupancy
  Lu  Lu0  1  0.96171342  0.68580753  0.89281181  1
  Lu  Lu1  1  0.31419247  0.10718819  0.03828658  1
  Lu  Lu2  1  0.10718819  0.03828658  0.31419247  1
  Lu  Lu3  1  0.89281181  0.96171342  0.68580753  1
  Lu  Lu4  1  0.68580753  0.89281181  0.96171342  1
  Lu  Lu5  1  0.03828658  0.31419247  0.10718819  1
  Zn  Zn0  1  0.00000000  0.00000000  0.00000000  1
  I  I0  1  0.92168337  0.31881493  0.77504166  1
  I  I1  1  0.68118507  0.22495834  0.07831663  1
  I  I2  1  0.45380421  0.14377837  0.37668475  1
  I  I3  1  0.85622163  0.62331525  0.54619579  1
  I  I4  1  0.22495834  0.07831663  0.68118507  1
  I  I5  1  0.62331525  0.54619579  0.85622163  1
  I  I6  1  0.37668475  0.45380421  0.14377837  1
  I  I7  1  0.77504166  0.92168337  0.31881493  1
  I  I8  1  0.14377837  0.37668475  0.45380421  1
  I  I9  1  0.54619579  0.85622163  0.62331525  1
  I  I10  1  0.31881493  0.77504166  0.92168337  1
  I  I11  1  0.07831663  0.68118507  0.22495834  1
loop_
_geom_bond_atom_site_label_1
_geom_bond_atom_site_label_2
_geom_bond_distance
_geom_bond_site_symmetry_2
Lu0 Zn0 2.725780 1_666
Lu1 Zn0 2.725780 1_555
Lu2 Zn0 2.725779 1_555
Lu3 Zn0 2.725779 1_666
Lu4 Zn0 2.725780 1_666
Lu5 Zn0 2.725780 1_555
I0 Lu5 3.039161 1_656
I0 Lu3 3.150104 1_545
I0 Lu0 3.197131 1_555
I1 Lu4 3.039162 1_544
I1 Lu5 3.150104 1_655
I1 Lu1 3.197131 1_555
I2 Lu2 2.958576 1_555
I2 Lu1 2.961874 1_555
I3 Lu0 2.958576 1_555
I3 Lu3 2.961874 1_555
I4 Lu3 3.039162 1_445
I4 Lu1 3.150104 1_556
I4 Lu2 3.197130 1_555
I5 Lu4 2.958576 1_555
I5 Lu0 2.961875 1_555
I6 Lu1 2.958576 1_555
I6 Lu5 2.961875 1_555
I7 Lu2 3.039162 1_665
I7 Lu4 3.150104 1_554
I7 Lu3 3.197130 1_555
I8 Lu5 2.958576 1_555
I8 Lu2 2.961874 1_555
I9 Lu3 2.958576 1_555
I9 Lu4 2.961874 1_555
I10 Lu1 3.039162 1_566
I10 Lu0 3.150104 1_455
I10 Lu4 3.197131 1_555
I11 Lu0 3.039161 1_454
I11 Lu2 3.150104 1_565
I11 Lu5 3.197131 1_555
