# generated using pymatgen
data_Mn2Au
_symmetry_space_group_name_H-M   'P 1'
_cell_length_a   5.72688800
_cell_length_b   5.72688800
_cell_length_c   12.04291803
_cell_angle_alpha   103.75495821
_cell_angle_beta   103.75495821
_cell_angle_gamma   90.00000000
_symmetry_Int_Tables_number   1
_chemical_formula_structural   Mn2Au
_chemical_formula_sum   'Mn16 Au8'
_cell_volume   371.97521493
_cell_formula_units_Z   8
loop_
 _symmetry_equiv_pos_site_id
 _symmetry_equiv_pos_as_xyz
  1  'x, y, z'
loop_
 _atom_site_type_symbol
 _atom_site_label
 _atom_site_symmetry_multiplicity
 _atom_site_fract_x
 _atom_site_fract_y
 _atom_site_fract_z
 _atom_site_occupancy
  Mn  Mn0_0  1  0.33666500  0.33666500  0.17333000  1
  Mn  Mn0_1  1  0.33666500  0.33666500  0.67333000  1
  Mn  Mn0_2  1  0.33666500  0.83666500  0.17333000  1
  Mn  Mn0_3  1  0.33666500  0.83666500  0.67333000  1
  Mn  Mn0_4  1  0.83666500  0.33666500  0.17333000  1
  Mn  Mn0_5  1  0.83666500  0.33666500  0.67333000  1
  Mn  Mn0_6  1  0.83666500  0.83666500  0.17333000  1
  Mn  Mn0_7  1  0.83666500  0.83666500  0.67333000  1
  Mn  Mn1_0  1  0.16333500  0.16333500  0.32667000  1
  Mn  Mn1_1  1  0.16333500  0.16333500  0.82667000  1
  Mn  Mn1_2  1  0.16333500  0.66333500  0.32667000  1
  Mn  Mn1_3  1  0.16333500  0.66333500  0.82667000  1
  Mn  Mn1_4  1  0.66333500  0.16333500  0.32667000  1
  Mn  Mn1_5  1  0.66333500  0.16333500  0.82667000  1
  Mn  Mn1_6  1  0.66333500  0.66333500  0.32667000  1
  Mn  Mn1_7  1  0.66333500  0.66333500  0.82667000  1
  Au  Au0_0  1  0.00000000  0.00000000  0.00000000  1
  Au  Au0_1  1  0.00000000  0.00000000  0.50000000  1
  Au  Au0_2  1  0.00000000  0.50000000  0.00000000  1
  Au  Au0_3  1  0.00000000  0.50000000  0.50000000  1
  Au  Au0_4  1  0.50000000  0.00000000  0.00000000  1
  Au  Au0_5  1  0.50000000  0.00000000  0.50000000  1
  Au  Au0_6  1  0.50000000  0.50000000  0.00000000  1
  Au  Au0_7  1  0.50000000  0.50000000  0.50000000  1
loop_
_geom_bond_atom_site_label_1
_geom_bond_atom_site_label_2
_geom_bond_distance
_geom_bond_site_symmetry_2
Mn0_0 Mn1_2 2.669125 1_555
Mn0_0 Mn1_6 2.669125 1_555
Mn0_0 Mn1_4 2.669125 1_555
Mn0_0 Mn1_0 2.669125 1_555
Mn0_0 Mn0_4 2.863444 1_555
Mn0_0 Mn0_2 2.863444 1_555
Mn0_0 Mn0_2 2.863444 1_545
Mn0_0 Mn0_4 2.863444 1_455
Mn0_1 Mn1_3 2.669125 1_555
Mn0_1 Mn1_1 2.669125 1_555
Mn0_1 Mn1_5 2.669125 1_555
Mn0_1 Mn1_7 2.669125 1_555
Mn0_1 Mn0_3 2.863444 1_545
Mn0_1 Mn0_5 2.863444 1_455
Mn0_1 Mn0_3 2.863444 1_555
Mn0_1 Mn0_5 2.863444 1_555
Mn0_2 Mn1_2 2.669125 1_555
Mn0_2 Mn1_4 2.669125 1_565
Mn0_2 Mn1_6 2.669125 1_555
Mn0_2 Mn1_0 2.669125 1_565
Mn0_2 Mn0_6 2.863444 1_555
Mn0_2 Mn0_6 2.863444 1_455
Mn0_3 Mn1_3 2.669125 1_555
Mn0_3 Mn1_1 2.669125 1_565
Mn0_3 Mn1_7 2.669125 1_555
Mn0_3 Mn1_5 2.669125 1_565
Mn0_3 Mn0_7 2.863444 1_455
Mn0_3 Mn0_7 2.863444 1_555
Mn0_4 Mn1_2 2.669125 1_655
Mn0_4 Mn1_6 2.669125 1_555
Mn0_4 Mn1_4 2.669125 1_555
Mn0_4 Mn1_0 2.669125 1_655
Mn0_4 Mn0_6 2.863444 1_555
Mn0_4 Mn0_6 2.863444 1_545
Mn0_5 Mn1_1 2.669125 1_655
Mn0_5 Mn1_5 2.669125 1_555
Mn0_5 Mn1_7 2.669125 1_555
Mn0_5 Mn1_3 2.669125 1_655
Mn0_5 Mn0_7 2.863444 1_545
Mn0_5 Mn0_7 2.863444 1_555
Mn0_6 Mn1_4 2.669125 1_565
Mn0_6 Mn1_2 2.669125 1_655
Mn0_6 Mn1_6 2.669125 1_555
Mn0_6 Mn1_0 2.669125 1_665
Mn0_7 Mn1_1 2.669125 1_665
Mn0_7 Mn1_5 2.669125 1_565
Mn0_7 Mn1_3 2.669125 1_655
Mn0_7 Mn1_7 2.669125 1_555
Mn1_0 Mn1_4 2.863444 1_555
Mn1_0 Mn1_2 2.863444 1_555
Mn1_0 Mn1_2 2.863444 1_545
Mn1_0 Mn1_4 2.863444 1_455
Mn1_1 Mn1_3 2.863444 1_555
Mn1_1 Mn1_3 2.863444 1_545
Mn1_1 Mn1_5 2.863444 1_455
Mn1_1 Mn1_5 2.863444 1_555
Mn1_2 Mn1_6 2.863444 1_555
Mn1_2 Mn1_6 2.863444 1_455
Mn1_3 Mn1_7 2.863444 1_455
Mn1_3 Mn1_7 2.863444 1_555
Mn1_4 Mn1_6 2.863444 1_545
Mn1_4 Mn1_6 2.863444 1_555
Mn1_5 Mn1_7 2.863444 1_555
Mn1_5 Mn1_7 2.863444 1_545
Au0_0 Mn0_6 2.822095 1_445
Au0_0 Mn1_7 2.822095 1_444
Au0_0 Mn0_0 2.822095 1_555
Au0_0 Mn0_2 2.822095 1_545
Au0_0 Mn0_4 2.822095 1_455
Au0_0 Mn1_3 2.822095 1_544
Au0_0 Mn1_5 2.822095 1_454
Au0_0 Mn1_1 2.822095 1_554
Au0_0 Au0_4 2.863444 1_455
Au0_0 Au0_2 2.863444 1_545
Au0_0 Au0_4 2.863444 1_555
Au0_0 Au0_2 2.863444 1_555
Au0_1 Mn1_4 2.822095 1_455
Au0_1 Mn1_6 2.822095 1_445
Au0_1 Mn1_2 2.822095 1_545
Au0_1 Mn1_0 2.822095 1_555
Au0_1 Mn0_7 2.822095 1_445
Au0_1 Mn0_3 2.822095 1_545
Au0_1 Mn0_5 2.822095 1_455
Au0_1 Mn0_1 2.822095 1_555
Au0_1 Au0_5 2.863444 1_555
Au0_1 Au0_3 2.863444 1_555
Au0_1 Au0_5 2.863444 1_455
Au0_1 Au0_3 2.863444 1_545
Au0_2 Mn0_6 2.822095 1_455
Au0_2 Mn0_4 2.822095 1_455
Au0_2 Mn1_5 2.822095 1_454
Au0_2 Mn0_2 2.822095 1_555
Au0_2 Mn0_0 2.822095 1_555
Au0_2 Mn1_7 2.822095 1_454
Au0_2 Mn1_1 2.822095 1_554
Au0_2 Mn1_3 2.822095 1_554
Au0_2 Au0_6 2.863444 1_555
Au0_2 Au0_6 2.863444 1_455
Au0_3 Mn1_4 2.822095 1_455
Au0_3 Mn1_6 2.822095 1_455
Au0_3 Mn1_2 2.822095 1_555
Au0_3 Mn1_0 2.822095 1_555
Au0_3 Mn0_7 2.822095 1_455
Au0_3 Mn0_5 2.822095 1_455
Au0_3 Mn0_1 2.822095 1_555
Au0_3 Mn0_3 2.822095 1_555
Au0_3 Au0_7 2.863444 1_455
Au0_3 Au0_7 2.863444 1_555
Au0_4 Mn0_2 2.822095 1_545
Au0_4 Mn0_6 2.822095 1_545
Au0_4 Mn1_3 2.822095 1_544
Au0_4 Mn0_0 2.822095 1_555
Au0_4 Mn0_4 2.822095 1_555
Au0_4 Mn1_7 2.822095 1_544
Au0_4 Mn1_1 2.822095 1_554
Au0_4 Mn1_5 2.822095 1_554
Au0_4 Au0_6 2.863444 1_555
Au0_4 Au0_6 2.863444 1_545
Au0_5 Mn1_4 2.822095 1_555
Au0_5 Mn1_2 2.822095 1_545
Au0_5 Mn1_0 2.822095 1_555
Au0_5 Mn1_6 2.822095 1_545
Au0_5 Mn0_7 2.822095 1_545
Au0_5 Mn0_3 2.822095 1_545
Au0_5 Mn0_5 2.822095 1_555
Au0_5 Mn0_1 2.822095 1_555
Au0_5 Au0_7 2.863444 1_555
Au0_5 Au0_7 2.863444 1_545
Au0_6 Mn0_2 2.822095 1_555
Au0_6 Mn0_6 2.822095 1_555
Au0_6 Mn0_0 2.822095 1_555
Au0_6 Mn0_4 2.822095 1_555
Au0_6 Mn1_1 2.822095 1_554
Au0_6 Mn1_5 2.822095 1_554
Au0_6 Mn1_3 2.822095 1_554
Au0_6 Mn1_7 2.822095 1_554
Au0_7 Mn1_6 2.822095 1_555
Au0_7 Mn1_4 2.822095 1_555
Au0_7 Mn1_2 2.822095 1_555
Au0_7 Mn1_0 2.822095 1_555
Au0_7 Mn0_5 2.822095 1_555
Au0_7 Mn0_1 2.822095 1_555
Au0_7 Mn0_7 2.822095 1_555
Au0_7 Mn0_3 2.822095 1_555
