# generated using pymatgen
data_Ho(FeSi)2
_symmetry_space_group_name_H-M   'P 1'
_cell_length_a   3.86954628
_cell_length_b   3.86954678
_cell_length_c   5.61499138
_cell_angle_alpha   110.15572254
_cell_angle_beta   110.15570844
_cell_angle_gamma   90.00001717
_symmetry_Int_Tables_number   1
_chemical_formula_structural   Ho(FeSi)2
_chemical_formula_sum   'Ho1 Fe2 Si2'
_cell_volume   73.41762477
_cell_formula_units_Z   1
loop_
 _symmetry_equiv_pos_site_id
 _symmetry_equiv_pos_as_xyz
  1  'x, y, z'
loop_
 _atom_site_type_symbol
 _atom_site_label
 _atom_site_symmetry_multiplicity
 _atom_site_fract_x
 _atom_site_fract_y
 _atom_site_fract_z
 _atom_site_occupancy
  Ho  Ho0  1  0.00000000  -0.00000000  -0.00000000  1
  Fe  Fe0  1  0.75000000  0.25000000  0.50000000  1
  Fe  Fe1  1  0.25000000  0.75000000  0.50000000  1
  Si  Si0  1  0.62783515  0.62783515  0.25567131  1
  Si  Si1  1  0.37216485  0.37216485  0.74432869  1
loop_
_geom_bond_atom_site_label_1
_geom_bond_atom_site_label_2
_geom_bond_distance
_geom_bond_site_symmetry_2
Ho0 Si0 3.009687 1_555
Ho0 Si1 3.009687 1_444
Ho0 Si0 3.009690 1_455
Ho0 Si1 3.009690 1_544
Ho0 Si0 3.009690 1_545
Ho0 Si1 3.009690 1_454
Ho0 Si1 3.009692 1_554
Ho0 Si0 3.009692 1_445
Fe0 Si1 2.275638 1_555
Fe0 Si0 2.275639 1_555
Fe0 Si0 2.275642 1_545
Fe0 Si1 2.275642 1_655
Fe0 Ho0 3.123092 1_655
Fe0 Ho0 3.123092 1_666
Fe0 Ho0 3.123092 1_555
Fe0 Ho0 3.123093 1_656
Fe1 Si0 2.275638 1_555
Fe1 Si1 2.275639 1_555
Fe1 Si1 2.275642 1_565
Fe1 Si0 2.275642 1_455
Fe1 Ho0 3.123092 1_566
Fe1 Ho0 3.123092 1_555
Fe1 Ho0 3.123092 1_666
Fe1 Ho0 3.123093 1_565
Si0 Si1 2.507218 1_554
