# generated using pymatgen
data_Zr16Pt8C3O
_symmetry_space_group_name_H-M   'P 1'
_cell_length_a   8.90387705
_cell_length_b   8.87429999
_cell_length_c   8.90387677
_cell_angle_alpha   59.88969226
_cell_angle_beta   60.00000472
_cell_angle_gamma   59.88968644
_symmetry_Int_Tables_number   1
_chemical_formula_structural   Zr16Pt8C3O
_chemical_formula_sum   'Zr16 Pt8 C3 O1'
_cell_volume   496.65096541
_cell_formula_units_Z   1
loop_
 _symmetry_equiv_pos_site_id
 _symmetry_equiv_pos_as_xyz
  1  'x, y, z'
loop_
 _atom_site_type_symbol
 _atom_site_label
 _atom_site_symmetry_multiplicity
 _atom_site_fract_x
 _atom_site_fract_y
 _atom_site_fract_z
 _atom_site_occupancy
  Zr  Zr0  1  0.12500000  0.62500000  0.62500000  1
  Zr  Zr1  1  0.62500000  0.12500000  0.62500000  1
  Zr  Zr2  1  0.62500000  0.62500000  0.12500000  1
  Zr  Zr3  1  0.62500000  0.62500000  0.62500000  1
  Zr  Zr4  1  0.81254572  0.82121601  0.18311913  1
  Zr  Zr5  1  0.18308338  0.18282339  0.81704712  1
  Zr  Zr6  1  0.81704712  0.18282339  0.81704712  1
  Zr  Zr7  1  0.18311913  0.82121601  0.18311913  1
  Zr  Zr8  1  0.18311913  0.82121601  0.81254572  1
  Zr  Zr9  1  0.81704712  0.18282339  0.18308338  1
  Zr  Zr10  1  0.43745428  0.42878399  0.06688087  1
  Zr  Zr11  1  0.06691662  0.06717661  0.43295288  1
  Zr  Zr12  1  0.43295288  0.06717661  0.43295288  1
  Zr  Zr13  1  0.06688087  0.42878399  0.06688087  1
  Zr  Zr14  1  0.06688087  0.42878399  0.43745428  1
  Zr  Zr15  1  0.43295288  0.06717661  0.06691662  1
  Pt  Pt0  1  0.78038370  0.40921854  0.40519888  1
  Pt  Pt1  1  0.40700744  0.77897769  0.40700744  1
  Pt  Pt2  1  0.40519888  0.40921854  0.78038370  1
  Pt  Pt3  1  0.40519888  0.40921854  0.40519888  1
  Pt  Pt4  1  0.46961630  0.84078146  0.84480112  1
  Pt  Pt5  1  0.84299256  0.47102231  0.84299256  1
  Pt  Pt6  1  0.84480112  0.84078146  0.46961630  1
  Pt  Pt7  1  0.84480112  0.84078146  0.84480112  1
  C  C0  1  0.62500000  0.12500000  0.12500000  1
  C  C1  1  0.12500000  0.12500000  0.62500000  1
  C  C2  1  0.12500000  0.12500000  0.12500000  1
  O  O0  1  0.12500000  0.62500000  0.12500000  1
loop_
_geom_bond_atom_site_label_1
_geom_bond_atom_site_label_2
_geom_bond_distance
_geom_bond_site_symmetry_2
Pt0 Zr3 2.793832 1_555
Pt0 Zr2 2.793832 1_555
Pt0 Zr14 2.801241 1_655
Pt0 Zr13 2.801241 1_655
Pt0 Zr11 2.809187 1_655
Pt0 Zr1 2.819014 1_555
Pt1 Zr3 2.801287 1_555
Pt1 Zr2 2.801287 1_555
Pt1 Zr0 2.801287 1_555
Pt1 Zr12 2.808353 1_565
Pt1 Zr11 2.808358 1_565
Pt1 Zr15 2.808358 1_565
Pt1 Zr7 3.250059 1_555
Pt1 Zr8 3.250059 1_555
Pt1 Zr4 3.250060 1_555
Pt2 Zr0 2.793832 1_555
Pt2 Zr3 2.793832 1_555
Pt2 Zr10 2.801241 1_556
Pt2 Zr13 2.801241 1_556
Pt2 Zr15 2.809187 1_556
Pt2 Zr1 2.819014 1_555
Pt3 Zr0 2.793832 1_555
Pt3 Zr2 2.793832 1_555
Pt3 Zr10 2.801241 1_555
Pt3 Zr14 2.801241 1_555
Pt3 Zr12 2.809191 1_555
Pt3 Zr1 2.819014 1_555
Pt4 Zr3 2.793832 1_555
Pt4 Zr2 2.793832 1_556
Pt4 Zr8 2.801241 1_555
Pt4 Zr7 2.801241 1_556
Pt4 Zr5 2.809187 1_565
Pt4 Zr1 2.819014 1_565
Pt5 Zr3 2.801287 1_555
Pt5 Zr2 2.801287 1_556
Pt5 Zr0 2.801287 1_655
Pt5 Zr6 2.808353 1_555
Pt5 Zr5 2.808358 1_655
Pt5 Zr9 2.808358 1_556
Pt5 Zr13 3.250059 1_656
Pt5 Zr14 3.250059 1_655
Pt5 Zr10 3.250060 1_556
Pt6 Zr0 2.793832 1_655
Pt6 Zr3 2.793832 1_555
Pt6 Zr4 2.801241 1_555
Pt6 Zr7 2.801241 1_655
Pt6 Zr9 2.809187 1_565
Pt6 Zr1 2.819014 1_565
Pt7 Zr0 2.793832 1_655
Pt7 Zr2 2.793832 1_556
Pt7 Zr4 2.801241 1_556
Pt7 Zr8 2.801241 1_655
Pt7 Zr6 2.809191 1_565
Pt7 Zr1 2.819014 1_565
C0 Zr10 2.296006 1_555
C0 Zr4 2.296006 1_545
C0 Zr12 2.342158 1_555
C0 Zr6 2.342158 1_554
C0 Zr9 2.342164 1_555
C0 Zr15 2.342164 1_555
C1 Zr14 2.296006 1_555
C1 Zr8 2.296006 1_545
C1 Zr12 2.342158 1_555
C1 Zr6 2.342158 1_455
C1 Zr5 2.342164 1_555
C1 Zr11 2.342164 1_555
C2 Zr13 2.296006 1_555
C2 Zr7 2.296006 1_545
C2 Zr11 2.342156 1_555
C2 Zr5 2.342156 1_554
C2 Zr15 2.342156 1_555
C2 Zr9 2.342156 1_455
O0 Zr7 2.375628 1_555
O0 Zr13 2.375628 1_555
O0 Zr10 2.375628 1_555
O0 Zr4 2.375628 1_455
O0 Zr14 2.375629 1_555
O0 Zr8 2.375629 1_554
