# generated using pymatgen
data_Mn2NiS4
_symmetry_space_group_name_H-M   'P 1'
_cell_length_a   6.93761473
_cell_length_b   6.93761498
_cell_length_c   6.93761488
_cell_angle_alpha   60.00000049
_cell_angle_beta   59.99999931
_cell_angle_gamma   60.00000072
_symmetry_Int_Tables_number   1
_chemical_formula_structural   Mn2NiS4
_chemical_formula_sum   'Mn4 Ni2 S8'
_cell_volume   236.11064277
_cell_formula_units_Z   2
loop_
 _symmetry_equiv_pos_site_id
 _symmetry_equiv_pos_as_xyz
  1  'x, y, z'
loop_
 _atom_site_type_symbol
 _atom_site_label
 _atom_site_symmetry_multiplicity
 _atom_site_fract_x
 _atom_site_fract_y
 _atom_site_fract_z
 _atom_site_occupancy
  Mn  Mn0  1  0.00000000  0.00000000  0.50000000  1
  Mn  Mn1  1  0.00000000  0.50000000  0.00000000  1
  Mn  Mn2  1  0.50000000  0.00000000  0.00000000  1
  Mn  Mn3  1  0.00000000  0.00000000  0.00000000  1
  Ni  Ni0  1  0.37500000  0.37500000  0.37500000  1
  Ni  Ni1  1  0.62500000  0.62500000  0.62500000  1
  S  S0  1  0.24571293  0.24571293  0.76286022  1
  S  S1  1  0.24571293  0.76286022  0.24571293  1
  S  S2  1  0.76286022  0.24571293  0.24571293  1
  S  S3  1  0.24571293  0.24571293  0.24571293  1
  S  S4  1  0.75428707  0.75428707  0.23713978  1
  S  S5  1  0.75428707  0.23713978  0.75428707  1
  S  S6  1  0.23713978  0.75428707  0.75428707  1
  S  S7  1  0.75428707  0.75428707  0.75428707  1
loop_
_geom_bond_atom_site_label_1
_geom_bond_atom_site_label_2
_geom_bond_distance
_geom_bond_site_symmetry_2
Mn0 S3 2.411489 1_555
Mn0 S7 2.411489 1_445
Mn0 S5 2.411494 1_455
Mn0 S1 2.411494 1_545
Mn0 S6 2.411494 1_545
Mn0 S2 2.411494 1_455
Mn1 S3 2.411489 1_555
Mn1 S7 2.411489 1_454
Mn1 S6 2.411494 1_554
Mn1 S2 2.411494 1_455
Mn1 S4 2.411494 1_455
Mn1 S0 2.411494 1_554
Mn2 S3 2.411489 1_555
Mn2 S7 2.411489 1_544
Mn2 S5 2.411494 1_554
Mn2 S1 2.411494 1_545
Mn2 S4 2.411494 1_545
Mn2 S0 2.411494 1_554
Mn3 S0 2.411489 1_554
Mn3 S4 2.411489 1_445
Mn3 S1 2.411489 1_545
Mn3 S5 2.411489 1_454
Mn3 S2 2.411489 1_455
Mn3 S6 2.411489 1_544
Ni0 S2 2.197049 1_555
Ni0 S0 2.197049 1_555
Ni0 S1 2.197049 1_555
Ni0 S3 2.197055 1_555
Ni1 S6 2.197049 1_555
Ni1 S4 2.197049 1_555
Ni1 S5 2.197049 1_555
Ni1 S7 2.197055 1_555
