# generated using pymatgen
data_Rb2AgH6Au
_symmetry_space_group_name_H-M   'P 1'
_cell_length_a   6.20259053
_cell_length_b   6.20259063
_cell_length_c   5.96847782
_cell_angle_alpha   118.75649643
_cell_angle_beta   118.75649920
_cell_angle_gamma   57.51657897
_symmetry_Int_Tables_number   1
_chemical_formula_structural   Rb2AgH6Au
_chemical_formula_sum   'Rb2 Ag1 H6 Au1'
_cell_volume   161.92336610
_cell_formula_units_Z   1
loop_
 _symmetry_equiv_pos_site_id
 _symmetry_equiv_pos_as_xyz
  1  'x, y, z'
loop_
 _atom_site_type_symbol
 _atom_site_label
 _atom_site_symmetry_multiplicity
 _atom_site_fract_x
 _atom_site_fract_y
 _atom_site_fract_z
 _atom_site_occupancy
  Rb  Rb0  1  0.24999735  0.24999735  0.24993237  1
  Rb  Rb1  1  0.75000165  0.75000165  0.75006663  1
  Ag  Ag0  1  0.50000000  0.50000000  0.00000000  1
  H  H0  1  0.68709682  0.68709682  0.18808886  1
  H  H1  1  0.80402758  0.19498409  0.30403766  1
  H  H2  1  0.19498409  0.80402758  0.30403766  1
  H  H3  1  0.80501591  0.19597242  0.69596234  1
  H  H4  1  0.19597242  0.80501591  0.69596234  1
  H  H5  1  0.31290418  0.31290418  0.81191114  1
  Au  Au0  1  0.00000000  0.00000000  0.50000100  1
loop_
_geom_bond_atom_site_label_1
_geom_bond_atom_site_label_2
_geom_bond_distance
_geom_bond_site_symmetry_2
Ag0 H5 1.700945 1_554
Ag0 H0 1.700954 1_555
H0 Rb1 3.033137 1_555
H0 Rb0 3.038466 1_655
H0 Rb0 3.038466 1_565
H0 Rb1 3.043945 1_554
H1 Rb0 3.131854 1_555
H1 Rb1 3.131935 1_544
H1 Rb1 3.138741 1_555
H1 Rb0 3.138748 1_655
H2 Rb0 3.131854 1_555
H2 Rb1 3.131935 1_454
H2 Rb1 3.138740 1_555
H2 Rb0 3.138748 1_565
H3 Rb1 3.131847 1_555
H3 Rb0 3.131928 1_656
H3 Rb0 3.138747 1_555
H3 Rb1 3.138755 1_545
H4 Rb1 3.131847 1_555
H4 Rb0 3.131928 1_566
H4 Rb0 3.138747 1_555
H4 Rb1 3.138755 1_455
H5 Rb0 3.033135 1_555
H5 Rb1 3.038469 1_455
H5 Rb1 3.038469 1_545
H5 Rb0 3.043955 1_556
Au0 H4 1.649912 1_545
Au0 H3 1.649912 1_455
Au0 H1 1.649921 1_455
Au0 H2 1.649921 1_545
