# generated using pymatgen
data_Ti8VSiBi4
_symmetry_space_group_name_H-M   'P 1'
_cell_length_a   7.89911710
_cell_length_b   7.89911757
_cell_length_c   7.89911774
_cell_angle_alpha   95.75677781
_cell_angle_beta   95.75678948
_cell_angle_gamma   143.07171248
_symmetry_Int_Tables_number   1
_chemical_formula_structural   Ti8VSiBi4
_chemical_formula_sum   'Ti8 V1 Si1 Bi4'
_cell_volume   280.88200817
_cell_formula_units_Z   1
loop_
 _symmetry_equiv_pos_site_id
 _symmetry_equiv_pos_as_xyz
  1  'x, y, z'
loop_
 _atom_site_type_symbol
 _atom_site_label
 _atom_site_symmetry_multiplicity
 _atom_site_fract_x
 _atom_site_fract_y
 _atom_site_fract_z
 _atom_site_occupancy
  Ti  Ti0  1  0.07871339  0.19438544  0.28074408  1
  Ti  Ti1  1  0.91364137  0.79796832  0.71925592  1
  Ti  Ti2  1  0.79796832  0.07871339  0.88432595  1
  Ti  Ti3  1  0.42128661  0.70203168  0.11567405  1
  Ti  Ti4  1  0.19438544  0.91364137  0.11567405  1
  Ti  Ti5  1  0.58635863  0.30561456  0.88432595  1
  Ti  Ti6  1  0.70203168  0.58635863  0.28074408  1
  Ti  Ti7  1  0.30561456  0.42128661  0.71925592  1
  V  V0  1  0.75000000  0.75000000  0.00000000  1
  Si  Si0  1  0.25000000  0.25000000  0.00000000  1
  Bi  Bi0  1  0.14081666  0.64081666  0.78163331  1
  Bi  Bi1  1  0.85918334  0.35918334  0.21836669  1
  Bi  Bi2  1  0.35918334  0.14081666  0.50000000  1
  Bi  Bi3  1  0.64081666  0.85918334  0.50000000  1
loop_
_geom_bond_atom_site_label_1
_geom_bond_atom_site_label_2
_geom_bond_distance
_geom_bond_site_symmetry_2
Ti0 V0 2.587065 1_445
Ti1 V0 2.587066 1_556
Ti2 V0 2.587076 1_546
Ti3 V0 2.587076 1_555
Ti4 V0 2.587067 1_455
Ti5 V0 2.587067 1_556
Ti6 V0 2.587065 1_555
Ti7 V0 2.587064 1_556
Si0 V0 2.501738 1_445
Si0 V0 2.501738 1_555
Si0 Ti7 2.605494 1_554
Si0 Ti0 2.605494 1_555
Si0 Ti6 2.605498 1_555
Si0 Ti1 2.605498 1_444
Si0 Ti5 2.605501 1_554
Si0 Ti4 2.605501 1_545
Si0 Ti2 2.605504 1_454
Si0 Ti3 2.605504 1_555
Bi0 Ti1 2.917308 1_455
Bi0 Ti7 2.917315 1_555
Bi0 Ti3 2.993832 1_556
Bi0 Ti4 2.993836 1_556
Bi0 Ti5 3.074744 1_455
Bi0 Ti2 3.074746 1_565
Bi0 Ti2 3.105710 1_455
Bi0 Ti5 3.105720 1_565
Bi1 Ti6 2.917308 1_555
Bi1 Ti0 2.917315 1_655
Bi1 Ti2 2.993832 1_554
Bi1 Ti5 2.993836 1_554
Bi1 Ti4 3.074744 1_655
Bi1 Ti3 3.074746 1_545
Bi1 Ti3 3.105710 1_655
Bi1 Ti4 3.105720 1_545
Bi2 Ti5 2.917301 1_555
Bi2 Ti4 2.917301 1_545
Bi2 Ti0 2.993823 1_555
Bi2 Ti7 2.993824 1_555
Bi2 Ti6 3.074748 1_445
Bi2 Ti1 3.074748 1_555
Bi2 Ti1 3.105720 1_445
Bi2 Ti6 3.105720 1_555
Bi3 Ti3 2.917302 1_555
Bi3 Ti2 2.917302 1_565
Bi3 Ti1 2.993830 1_555
Bi3 Ti6 2.993830 1_555
Bi3 Ti0 3.074751 1_665
Bi3 Ti7 3.074751 1_555
Bi3 Ti7 3.105720 1_665
Bi3 Ti0 3.105720 1_555
