# generated using pymatgen
data_Rb4Rh2Cl10O
_symmetry_space_group_name_H-M   'P 1'
_cell_length_a   7.28591139
_cell_length_b   7.28591278
_cell_length_c   10.23577865
_cell_angle_alpha   110.84886173
_cell_angle_beta   110.84886872
_cell_angle_gamma   90.00000325
_symmetry_Int_Tables_number   1
_chemical_formula_structural   Rb4Rh2Cl10O
_chemical_formula_sum   'Rb4 Rh2 Cl10 O1'
_cell_volume   469.51718847
_cell_formula_units_Z   1
loop_
 _symmetry_equiv_pos_site_id
 _symmetry_equiv_pos_as_xyz
  1  'x, y, z'
loop_
 _atom_site_type_symbol
 _atom_site_label
 _atom_site_symmetry_multiplicity
 _atom_site_fract_x
 _atom_site_fract_y
 _atom_site_fract_z
 _atom_site_occupancy
  Rb  Rb0  1  0.50000000  0.00000000  0.00000000  1
  Rb  Rb1  1  0.00000000  0.50000000  0.00000000  1
  Rb  Rb2  1  0.75000000  0.25000000  0.50000000  1
  Rb  Rb3  1  0.25000000  0.75000000  0.50000000  1
  Rh  Rh0  1  0.10722544  0.10722544  0.21444987  1
  Rh  Rh1  1  0.89277456  0.89277456  0.78555113  1
  Cl  Cl0  1  0.34228770  0.34228770  0.22667969  1
  Cl  Cl1  1  0.88439199  0.34228770  0.22667969  1
  Cl  Cl2  1  0.34228770  0.88439199  0.22667969  1
  Cl  Cl3  1  0.88439199  0.88439199  0.22667969  1
  Cl  Cl4  1  0.23793997  0.23793997  0.47587994  1
  Cl  Cl5  1  0.76206103  0.76206103  0.52412006  1
  Cl  Cl6  1  0.11560801  0.11560801  0.77332031  1
  Cl  Cl7  1  0.65771230  0.11560801  0.77332031  1
  Cl  Cl8  1  0.11560801  0.65771230  0.77332031  1
  Cl  Cl9  1  0.65771230  0.65771230  0.77332031  1
  O  O0  1  0.00000000  0.00000000  0.00000000  1
loop_
_geom_bond_atom_site_label_1
_geom_bond_atom_site_label_2
_geom_bond_distance
_geom_bond_site_symmetry_2
Cl0 Rh0 2.361515 1_555
Cl0 Rb1 3.271438 1_555
Cl0 Rb0 3.271438 1_555
Cl0 Rb2 3.539298 1_555
Cl0 Rb3 3.539298 1_555
Cl1 Rh0 2.361520 1_655
Cl1 Rb1 3.271438 1_655
Cl1 Rb0 3.271438 1_555
Cl1 Rb2 3.539298 1_555
Cl1 Rb3 3.539298 1_655
Cl2 Rh0 2.361520 1_565
Cl2 Rb0 3.271438 1_565
Cl2 Rb1 3.271438 1_555
Cl2 Rb3 3.539298 1_555
Cl2 Rb2 3.539298 1_565
Cl3 Rh0 2.361525 1_665
Cl3 Rb0 3.271438 1_565
Cl3 Rb1 3.271438 1_655
Cl3 Rb3 3.539298 1_655
Cl3 Rb2 3.539298 1_565
Cl4 Rh0 2.312273 1_555
Cl4 Rb2 3.649197 1_555
Cl4 Rb2 3.649197 1_455
Cl4 Rb3 3.649198 1_545
Cl4 Rb3 3.649198 1_555
Cl5 Rh1 2.312282 1_555
Cl5 Rb3 3.649190 1_655
Cl5 Rb2 3.649190 1_565
Cl5 Rb3 3.649204 1_555
Cl5 Rb2 3.649205 1_555
Cl6 Rh1 2.361530 1_445
Cl6 Rb0 3.271438 1_556
Cl6 Rb1 3.271438 1_556
Cl6 Rb2 3.539298 1_455
Cl6 Rb3 3.539298 1_545
Cl7 Rh1 2.361520 1_545
Cl7 Rb0 3.271438 1_556
Cl7 Rb1 3.271438 1_656
Cl7 Rb2 3.539298 1_555
Cl7 Rb3 3.539298 1_545
Cl8 Rh1 2.361520 1_455
Cl8 Rb1 3.271438 1_556
Cl8 Rb0 3.271438 1_566
Cl8 Rb3 3.539298 1_555
Cl8 Rb2 3.539298 1_455
Cl9 Rh1 2.361510 1_555
Cl9 Rb1 3.271438 1_656
Cl9 Rb0 3.271438 1_566
Cl9 Rb3 3.539298 1_555
Cl9 Rb2 3.539298 1_555
O0 Rh1 1.896738 1_444
O0 Rh0 1.896747 1_555
