# generated using pymatgen
data_Hf6Al16Ir6Au
_symmetry_space_group_name_H-M   'P 1'
_cell_length_a   8.66606554
_cell_length_b   8.66606545
_cell_length_c   8.65580394
_cell_angle_alpha   60.03913290
_cell_angle_beta   60.03913325
_cell_angle_gamma   60.21230658
_symmetry_Int_Tables_number   1
_chemical_formula_structural   Hf6Al16Ir6Au
_chemical_formula_sum   'Hf6 Al16 Ir6 Au1'
_cell_volume   460.66560831
_cell_formula_units_Z   1
loop_
 _symmetry_equiv_pos_site_id
 _symmetry_equiv_pos_as_xyz
  1  'x, y, z'
loop_
 _atom_site_type_symbol
 _atom_site_label
 _atom_site_symmetry_multiplicity
 _atom_site_fract_x
 _atom_site_fract_y
 _atom_site_fract_z
 _atom_site_occupancy
  Hf  Hf0  1  0.68940226  0.31058114  0.31161009  1
  Hf  Hf1  1  0.31059774  0.68941886  0.68838991  1
  Hf  Hf2  1  0.31058114  0.68940226  0.31161009  1
  Hf  Hf3  1  0.68941886  0.31059774  0.68838991  1
  Hf  Hf4  1  0.32671188  0.32671188  0.67327295  1
  Hf  Hf5  1  0.67328812  0.67328812  0.32672705  1
  Al  Al0  1  0.33469719  0.33469719  0.34220866  1
  Al  Al1  1  0.66530281  0.66530281  0.65779134  1
  Al  Al2  1  0.33469923  0.33469923  0.98840102  1
  Al  Al3  1  0.33554648  0.98724578  0.33860889  1
  Al  Al4  1  0.66530077  0.66530077  0.01159898  1
  Al  Al5  1  0.66445352  0.01275422  0.66139111  1
  Al  Al6  1  0.98724578  0.33554648  0.33860889  1
  Al  Al7  1  0.01275422  0.66445352  0.66139111  1
  Al  Al8  1  0.11949302  0.11949302  0.12099970  1
  Al  Al9  1  0.88050698  0.88050698  0.87900030  1
  Al  Al10  1  0.11949644  0.11949644  0.64001065  1
  Al  Al11  1  0.10406591  0.64343723  0.12625226  1
  Al  Al12  1  0.88050356  0.88050356  0.35998935  1
  Al  Al13  1  0.89593409  0.35656277  0.87374774  1
  Al  Al14  1  0.64343723  0.10406591  0.12625226  1
  Al  Al15  1  0.35656277  0.89593409  0.87374774  1
  Ir  Ir0  1  0.50000000  0.00000000  0.00000000  1
  Ir  Ir1  1  0.00000000  0.50000000  0.50000000  1
  Ir  Ir2  1  0.00000000  0.50000000  0.00000000  1
  Ir  Ir3  1  0.50000000  0.00000000  0.50000000  1
  Ir  Ir4  1  0.00000000  0.00000000  0.50000000  1
  Ir  Ir5  1  0.00000000  0.00000000  0.00000000  1
  Au  Au0  1  0.50000000  0.50000000  0.00000000  1
loop_
_geom_bond_atom_site_label_1
_geom_bond_atom_site_label_2
_geom_bond_distance
_geom_bond_site_symmetry_2
Hf0 Hf4 3.141863 1_555
Hf0 Hf5 3.142137 1_555
Hf0 Ir3 3.151142 1_555
Hf0 Ir2 3.151339 1_655
Hf0 Ir4 3.154441 1_655
Hf0 Hf3 3.261476 1_555
Hf0 Hf2 3.293418 1_555
Hf1 Hf5 3.141863 1_555
Hf1 Hf4 3.142137 1_555
Hf1 Ir3 3.151142 1_565
Hf1 Ir2 3.151339 1_556
Hf1 Ir4 3.154441 1_565
Hf1 Hf2 3.261476 1_555
Hf1 Hf3 3.293418 1_555
Hf2 Hf4 3.141863 1_555
Hf2 Hf5 3.142137 1_555
Hf2 Ir1 3.151142 1_555
Hf2 Ir0 3.151339 1_565
Hf2 Ir4 3.154441 1_565
Hf3 Hf5 3.141863 1_555
Hf3 Hf4 3.142137 1_555
Hf3 Ir1 3.151142 1_655
Hf3 Ir0 3.151339 1_556
Hf3 Ir4 3.154441 1_655
Hf4 Ir3 3.207517 1_555
Hf4 Ir1 3.207517 1_555
Hf4 Ir0 3.207693 1_556
Hf4 Ir2 3.207693 1_556
Hf5 Ir3 3.207517 1_565
Hf5 Ir1 3.207517 1_655
Hf5 Ir0 3.207693 1_565
Hf5 Ir2 3.207693 1_655
Al0 Ir3 2.489888 1_555
Al0 Ir1 2.489888 1_555
Al0 Au0 2.537850 1_555
Al0 Hf4 2.798217 1_555
Al0 Hf2 2.857708 1_555
Al0 Hf0 2.857708 1_555
Al1 Ir3 2.489888 1_565
Al1 Ir1 2.489888 1_655
Al1 Au0 2.537850 1_556
Al1 Hf5 2.798217 1_555
Al1 Hf3 2.857708 1_555
Al1 Hf1 2.857708 1_555
Al2 Ir0 2.489912 1_556
Al2 Ir2 2.489913 1_556
Al2 Au0 2.537800 1_556
Al2 Hf4 2.798533 1_555
Al2 Hf1 2.857854 1_555
Al2 Hf3 2.857854 1_555
Al3 Ir4 2.489362 1_565
Al3 Ir3 2.508810 1_565
Al3 Ir0 2.508883 1_565
Al3 Hf1 2.823189 1_555
Al3 Hf2 2.823383 1_555
Al3 Hf5 2.836630 1_555
Al4 Ir0 2.489912 1_565
Al4 Ir2 2.489913 1_655
Al4 Au0 2.537800 1_555
Al4 Hf5 2.798533 1_555
Al4 Hf0 2.857854 1_555
Al4 Hf2 2.857854 1_555
Al5 Ir4 2.489362 1_655
Al5 Ir3 2.508810 1_555
Al5 Ir0 2.508883 1_556
Al5 Hf0 2.823189 1_555
Al5 Hf3 2.823383 1_555
Al5 Hf4 2.836630 1_555
Al6 Ir4 2.489362 1_655
Al6 Ir1 2.508810 1_655
Al6 Ir2 2.508883 1_655
Al6 Hf3 2.823189 1_555
Al6 Hf0 2.823383 1_555
Al6 Hf5 2.836630 1_555
Al7 Ir4 2.489362 1_565
Al7 Ir1 2.508810 1_555
Al7 Ir2 2.508883 1_556
Al7 Hf2 2.823189 1_555
Al7 Hf1 2.823383 1_555
Al7 Hf4 2.836630 1_555
Al8 Ir5 2.544329 1_555
Al8 Ir4 2.680656 1_555
Al8 Ir2 2.698846 1_555
Al8 Ir0 2.698846 1_555
Al8 Hf2 3.132195 1_545
Al8 Hf0 3.132195 1_455
Al8 Hf4 3.281820 1_554
Al9 Ir5 2.544329 1_666
Al9 Ir4 2.680656 1_665
Al9 Ir2 2.698846 1_656
Al9 Ir0 2.698846 1_566
Al9 Hf3 3.132195 1_565
Al9 Hf1 3.132195 1_655
Al9 Hf5 3.281820 1_556
Al10 Ir5 2.544353 1_556
Al10 Ir4 2.680679 1_555
Al10 Ir1 2.698821 1_555
Al10 Ir3 2.698821 1_555
Al10 Hf1 3.132120 1_545
Al10 Hf3 3.132120 1_455
Al10 Hf4 3.281624 1_555
Al11 Ir5 2.529513 1_565
Al11 Ir1 2.647151 1_555
Al11 Ir2 2.647207 1_555
Al11 Au0 2.808263 1_555
Al11 Hf5 3.167486 1_455
Al11 Hf2 3.185973 1_555
Al11 Hf1 3.186126 1_554
Al12 Ir5 2.544353 1_665
Al12 Ir4 2.680679 1_665
Al12 Ir1 2.698821 1_655
Al12 Ir3 2.698821 1_565
Al12 Hf0 3.132120 1_565
Al12 Hf2 3.132120 1_655
Al12 Hf5 3.281624 1_555
Al13 Ir5 2.529513 1_656
Al13 Ir1 2.647151 1_655
Al13 Ir2 2.647207 1_656
Al13 Au0 2.808263 1_556
Al13 Hf4 3.167486 1_655
Al13 Hf3 3.185973 1_555
Al13 Hf0 3.186126 1_556
Al14 Ir5 2.529513 1_655
Al14 Ir3 2.647151 1_555
Al14 Ir0 2.647207 1_555
Al14 Au0 2.808263 1_555
Al14 Hf5 3.167486 1_545
Al14 Hf0 3.185973 1_555
Al14 Hf3 3.186126 1_554
Al15 Ir5 2.529513 1_566
Al15 Ir3 2.647151 1_565
Al15 Ir0 2.647207 1_566
Al15 Au0 2.808263 1_556
Al15 Hf4 3.167486 1_565
Al15 Hf1 3.185973 1_555
Al15 Hf2 3.186126 1_556
Au0 Hf0 3.160118 1_555
Au0 Hf1 3.160118 1_554
Au0 Hf3 3.160118 1_554
Au0 Hf2 3.160118 1_555
