# generated using pymatgen
data_Ba(CuTe)2
_symmetry_space_group_name_H-M   'P 1'
_cell_length_a   4.46979400
_cell_length_b   10.13981300
_cell_length_c   11.55934500
_cell_angle_alpha   90.00000000
_cell_angle_beta   90.00000000
_cell_angle_gamma   90.00000000
_symmetry_Int_Tables_number   1
_chemical_formula_structural   Ba(CuTe)2
_chemical_formula_sum   'Ba4 Cu8 Te8'
_cell_volume   523.90275208
_cell_formula_units_Z   4
loop_
 _symmetry_equiv_pos_site_id
 _symmetry_equiv_pos_as_xyz
  1  'x, y, z'
loop_
 _atom_site_type_symbol
 _atom_site_label
 _atom_site_symmetry_multiplicity
 _atom_site_fract_x
 _atom_site_fract_y
 _atom_site_fract_z
 _atom_site_occupancy
  Ba  Ba0  1  0.75000000  0.25780000  0.67814800  1
  Ba  Ba1  1  0.25000000  0.74220000  0.32185200  1
  Ba  Ba2  1  0.75000000  0.75780000  0.82185200  1
  Ba  Ba3  1  0.25000000  0.24220000  0.17814800  1
  Cu  Cu0  1  0.25000000  0.57457500  0.04417200  1
  Cu  Cu1  1  0.75000000  0.42542500  0.95582800  1
  Cu  Cu2  1  0.75000000  0.92542500  0.54417200  1
  Cu  Cu3  1  0.25000000  0.07457500  0.45582800  1
  Cu  Cu4  1  0.75000000  0.44362300  0.38717000  1
  Cu  Cu5  1  0.25000000  0.55637700  0.61283000  1
  Cu  Cu6  1  0.75000000  0.94362300  0.11283000  1
  Cu  Cu7  1  0.25000000  0.05637700  0.88717000  1
  Te  Te0  1  0.25000000  0.33956000  0.46229100  1
  Te  Te1  1  0.75000000  0.66044000  0.53770900  1
  Te  Te2  1  0.75000000  0.16044000  0.96229100  1
  Te  Te3  1  0.25000000  0.83956000  0.03770900  1
  Te  Te4  1  0.75000000  0.02317400  0.33025400  1
  Te  Te5  1  0.25000000  0.97682600  0.66974600  1
  Te  Te6  1  0.75000000  0.52317400  0.16974600  1
  Te  Te7  1  0.25000000  0.47682600  0.83025400  1
loop_
_geom_bond_atom_site_label_1
_geom_bond_atom_site_label_2
_geom_bond_distance
_geom_bond_site_symmetry_2
Ba0 Te2 3.429661 1_555
Ba0 Te0 3.450784 1_655
Ba0 Te0 3.450784 1_555
Ba0 Te7 3.608118 1_655
Ba0 Te7 3.608118 1_555
Ba0 Te5 3.622311 1_645
Ba0 Te5 3.622311 1_545
Ba0 Cu1 3.632044 1_555
Ba0 Cu2 3.709013 1_545
Ba0 Cu5 3.838058 1_555
Ba0 Cu5 3.838058 1_655
Ba0 Cu4 3.855319 1_555
Ba0 Cu7 3.873493 1_555
Ba0 Cu7 3.873493 1_655
Ba0 Cu3 3.879521 1_555
Ba0 Cu3 3.879521 1_655
Ba1 Te3 3.429661 1_555
Ba1 Te1 3.450784 1_455
Ba1 Te1 3.450784 1_555
Ba1 Te6 3.608118 1_555
Ba1 Te6 3.608118 1_455
Ba1 Te4 3.622311 1_465
Ba1 Te4 3.622311 1_565
Ba1 Cu0 3.632044 1_555
Ba1 Cu3 3.709013 1_565
Ba1 Cu4 3.838058 1_455
Ba1 Cu4 3.838058 1_555
Ba1 Cu5 3.855319 1_555
Ba1 Cu6 3.873493 1_455
Ba1 Cu6 3.873493 1_555
Ba1 Cu2 3.879521 1_455
Ba1 Cu2 3.879521 1_555
Ba2 Te1 3.429661 1_555
Ba2 Te3 3.450784 1_656
Ba2 Te3 3.450784 1_556
Ba2 Te5 3.608118 1_555
Ba2 Te5 3.608118 1_655
Ba2 Te7 3.622311 1_555
Ba2 Te7 3.622311 1_655
Ba2 Cu2 3.632044 1_555
Ba2 Cu1 3.709013 1_555
Ba2 Cu7 3.838058 1_565
Ba2 Cu7 3.838058 1_665
Ba2 Cu6 3.855319 1_556
Ba2 Cu5 3.873493 1_655
Ba2 Cu5 3.873493 1_555
Ba2 Cu0 3.879521 1_556
Ba2 Cu0 3.879521 1_656
Ba3 Te0 3.429661 1_555
Ba3 Te2 3.450784 1_554
Ba3 Te2 3.450784 1_454
Ba3 Te4 3.608118 1_555
Ba3 Te4 3.608118 1_455
Ba3 Te6 3.622311 1_555
Ba3 Te6 3.622311 1_455
Ba3 Cu3 3.632044 1_555
Ba3 Cu0 3.709013 1_555
Ba3 Cu6 3.838058 1_545
Ba3 Cu6 3.838058 1_445
Ba3 Cu7 3.855319 1_554
Ba3 Cu4 3.873493 1_455
Ba3 Cu4 3.873493 1_555
Ba3 Cu1 3.879521 1_454
Ba3 Cu1 3.879521 1_554
Cu0 Te7 2.664000 1_554
Cu0 Te3 2.687937 1_555
Cu0 Te6 2.715404 1_555
Cu0 Te6 2.715404 1_455
Cu1 Te6 2.664000 1_556
Cu1 Te2 2.687937 1_555
Cu1 Te7 2.715404 1_555
Cu1 Te7 2.715404 1_655
Cu2 Te4 2.664000 1_565
Cu2 Te1 2.687937 1_555
Cu2 Te5 2.715404 1_555
Cu2 Te5 2.715404 1_655
Cu3 Te5 2.664000 1_545
Cu3 Te0 2.687937 1_555
Cu3 Te4 2.715404 1_455
Cu3 Te4 2.715404 1_555
Cu4 Te0 2.619580 1_655
Cu4 Te0 2.619580 1_555
Cu4 Te6 2.639551 1_555
Cu4 Te1 2.803817 1_555
Cu5 Te1 2.619580 1_555
Cu5 Te1 2.619580 1_455
Cu5 Te7 2.639551 1_555
Cu5 Te0 2.803817 1_555
Cu6 Te3 2.619580 1_655
Cu6 Te3 2.619580 1_555
Cu6 Te4 2.639551 1_565
Cu6 Te2 2.803817 1_564
Cu7 Te2 2.619580 1_455
Cu7 Te2 2.619580 1_555
Cu7 Te5 2.639551 1_545
Cu7 Te3 2.803817 1_546
