# generated using pymatgen
data_CsNb(WSe3)2
_symmetry_space_group_name_H-M   'P 1'
_cell_length_a   5.87845369
_cell_length_b   5.87845480
_cell_length_c   18.90890721
_cell_angle_alpha   90.00000000
_cell_angle_beta   90.00000000
_cell_angle_gamma   119.99999934
_symmetry_Int_Tables_number   1
_chemical_formula_structural   CsNb(WSe3)2
_chemical_formula_sum   'Cs2 Nb2 W4 Se12'
_cell_volume   565.87870376
_cell_formula_units_Z   2
loop_
 _symmetry_equiv_pos_site_id
 _symmetry_equiv_pos_as_xyz
  1  'x, y, z'
loop_
 _atom_site_type_symbol
 _atom_site_label
 _atom_site_symmetry_multiplicity
 _atom_site_fract_x
 _atom_site_fract_y
 _atom_site_fract_z
 _atom_site_occupancy
  Cs  Cs0  1  0.00000000  0.00000000  0.00000000  1
  Cs  Cs1  1  0.00000000  0.00000000  0.50000000  1
  Nb  Nb0  1  0.66666700  0.33333300  0.25000000  1
  Nb  Nb1  1  0.33333300  0.66666700  0.75000000  1
  W  W0  1  0.00000000  0.00000000  0.75000000  1
  W  W1  1  0.00000000  0.00000000  0.25000000  1
  W  W2  1  0.33333300  0.66666700  0.25000000  1
  W  W3  1  0.66666700  0.33333300  0.75000000  1
  Se  Se0  1  0.32786921  0.99296264  0.16265814  1
  Se  Se1  1  0.00703736  0.33490657  0.16265814  1
  Se  Se2  1  0.66509343  0.67213079  0.16265814  1
  Se  Se3  1  0.33490657  0.32786921  0.66265814  1
  Se  Se4  1  0.66509343  0.67213079  0.33734186  1
  Se  Se5  1  0.67213079  0.00703736  0.66265814  1
  Se  Se6  1  0.99296264  0.66509343  0.66265814  1
  Se  Se7  1  0.99296264  0.66509343  0.83734186  1
  Se  Se8  1  0.33490657  0.32786921  0.83734186  1
  Se  Se9  1  0.00703736  0.33490657  0.33734186  1
  Se  Se10  1  0.32786921  0.99296264  0.33734186  1
  Se  Se11  1  0.67213079  0.00703736  0.83734186  1
loop_
_geom_bond_atom_site_label_1
_geom_bond_atom_site_label_2
_geom_bond_distance
_geom_bond_site_symmetry_2
Cs0 Se0 3.640883 1_545
Cs0 Se11 3.640883 1_454
Cs0 Se2 3.640883 1_445
Cs0 Se8 3.640883 1_554
Cs0 Se1 3.640883 1_555
Cs0 Se7 3.640883 1_444
Cs1 Se5 3.640883 1_455
Cs1 Se10 3.640883 1_545
Cs1 Se3 3.640883 1_555
Cs1 Se4 3.640883 1_445
Cs1 Se6 3.640883 1_445
Cs1 Se9 3.640883 1_555
Nb0 Se9 2.590862 1_655
Nb0 Se1 2.590862 1_655
Nb0 Se10 2.590864 1_545
Nb0 Se0 2.590864 1_545
Nb0 Se4 2.590867 1_555
Nb0 Se2 2.590867 1_555
Nb1 Se7 2.590862 1_455
Nb1 Se6 2.590862 1_455
Nb1 Se11 2.590864 1_565
Nb1 Se5 2.590864 1_565
Nb1 Se8 2.590867 1_555
Nb1 Se3 2.590867 1_555
Se0 W2 2.543498 1_555
Se0 W1 2.554165 1_565
Se1 W2 2.543500 1_555
Se1 W1 2.554165 1_555
Se2 W2 2.543502 1_555
Se2 W1 2.554165 1_665
Se3 W3 2.543502 1_555
Se3 W0 2.554165 1_555
Se4 W2 2.543502 1_555
Se4 W1 2.554165 1_665
Se5 W3 2.543498 1_555
Se5 W0 2.554165 1_655
Se6 W3 2.543500 1_555
Se6 W0 2.554165 1_665
Se7 W3 2.543500 1_555
Se7 W0 2.554165 1_665
Se8 W3 2.543502 1_555
Se8 W0 2.554165 1_555
Se9 W2 2.543500 1_555
Se9 W1 2.554165 1_555
Se10 W2 2.543498 1_555
Se10 W1 2.554165 1_565
Se11 W3 2.543498 1_555
Se11 W0 2.554165 1_655
