# generated using pymatgen
data_Al45Cr7
_symmetry_space_group_name_H-M   'P 1'
_cell_length_a   7.48697504
_cell_length_b   10.84483462
_cell_length_c   10.87538299
_cell_angle_alpha   106.39065754
_cell_angle_beta   110.13397648
_cell_angle_gamma   90.00000195
_symmetry_Int_Tables_number   1
_chemical_formula_structural   Al45Cr7
_chemical_formula_sum   'Al45 Cr7'
_cell_volume   790.73389370
_cell_formula_units_Z   1
loop_
 _symmetry_equiv_pos_site_id
 _symmetry_equiv_pos_as_xyz
  1  'x, y, z'
loop_
 _atom_site_type_symbol
 _atom_site_label
 _atom_site_symmetry_multiplicity
 _atom_site_fract_x
 _atom_site_fract_y
 _atom_site_fract_z
 _atom_site_occupancy
  Al  Al0  1  0.50000000  0.50000000  -0.00000000  1
  Al  Al1  1  0.61505129  0.22801904  0.23010358  1
  Al  Al2  1  0.38494871  0.77198096  0.76989642  1
  Al  Al3  1  0.29183855  0.51372650  0.58367710  1
  Al  Al4  1  0.70816145  0.48627350  0.41632290  1
  Al  Al5  1  0.37404208  0.36652928  0.74808316  1
  Al  Al6  1  0.62595692  0.63347072  0.25191684  1
  Al  Al7  1  0.52262047  0.75683879  0.04524095  1
  Al  Al8  1  0.47737953  0.24316121  0.95475905  1
  Al  Al9  1  0.08050231  0.44058067  0.16100362  1
  Al  Al10  1  0.91949769  0.55941933  0.83899638  1
  Al  Al11  1  0.12876809  0.11294334  0.25753717  1
  Al  Al12  1  0.87123191  0.88705666  0.74246283  1
  Al  Al13  1  0.08943951  0.84478046  0.17888002  1
  Al  Al14  1  0.91056049  0.15521954  0.82112098  1
  Al  Al15  1  0.22425864  0.99175825  0.44851627  1
  Al  Al16  1  0.77574136  0.00824175  0.55148373  1
  Al  Al17  1  0.99446244  0.35484095  0.36284563  1
  Al  Al18  1  0.63161881  0.64515905  0.63715437  1
  Al  Al19  1  0.00553756  0.64515905  0.63715437  1
  Al  Al20  1  0.36838119  0.35484095  0.36284563  1
  Al  Al21  1  0.75283887  0.99071461  0.13797263  1
  Al  Al22  1  0.61486724  0.00928539  0.86202737  1
  Al  Al23  1  0.24716113  0.00928539  0.86202737  1
  Al  Al24  1  0.38513276  0.99071461  0.13797263  1
  Al  Al25  1  0.77587103  0.79454273  0.92778596  1
  Al  Al26  1  0.84808406  0.20545727  0.07221404  1
  Al  Al27  1  0.22412897  0.20545727  0.07221404  1
  Al  Al28  1  0.15191594  0.79454273  0.92778596  1
  Al  Al29  1  0.99688403  0.38193209  0.62016525  1
  Al  Al30  1  0.37671878  0.61806791  0.37983475  1
  Al  Al31  1  0.00311597  0.61806791  0.37983475  1
  Al  Al32  1  0.62328122  0.38193209  0.62016525  1
  Al  Al33  1  0.84913625  0.62210115  0.09083454  1
  Al  Al34  1  0.75830071  0.37789885  0.90916546  1
  Al  Al35  1  0.15086375  0.37789885  0.90916546  1
  Al  Al36  1  0.24169929  0.62210115  0.09083454  1
  Al  Al37  1  0.85759404  0.85388103  0.32965580  1
  Al  Al38  1  0.52793823  0.14611897  0.67034420  1
  Al  Al39  1  0.14240596  0.14611897  0.67034420  1
  Al  Al40  1  0.47206177  0.85388103  0.32965580  1
  Al  Al41  1  0.89497464  0.13411440  0.41319031  1
  Al  Al42  1  0.48178434  0.86588560  0.58680969  1
  Al  Al43  1  0.10502536  0.86588560  0.58680969  1
  Al  Al44  1  0.51821566  0.13411440  0.41319031  1
  Cr  Cr0  1  0.00000000  0.00000000  -0.00000000  1
  Cr  Cr1  1  0.25055472  0.23929398  0.50110845  1
  Cr  Cr2  1  0.74944528  0.76070602  0.49889155  1
  Cr  Cr3  1  0.75724472  0.41751196  0.16982752  1
  Cr  Cr4  1  0.58741820  0.58248804  0.83017248  1
  Cr  Cr5  1  0.24275528  0.58248804  0.83017248  1
  Cr  Cr6  1  0.41258180  0.41751196  0.16982752  1
loop_
_geom_bond_atom_site_label_1
_geom_bond_atom_site_label_2
_geom_bond_distance
_geom_bond_site_symmetry_2
Al0 Cr3 2.530699 1_555
Al0 Cr5 2.530699 1_554
Al0 Cr6 2.530703 1_555
Al0 Cr4 2.530703 1_554
Al0 Al5 2.544339 1_554
Al0 Al6 2.544339 1_555
Al0 Al36 2.654461 1_555
Al0 Al34 2.654461 1_554
Al0 Al35 2.654468 1_554
Al0 Al33 2.654468 1_555
Al0 Al8 2.682959 1_554
Al0 Al7 2.682959 1_555
Al1 Cr3 2.650830 1_555
Al1 Cr6 2.650830 1_555
Al1 Al44 2.768677 1_555
Al1 Al41 2.768681 1_555
Al1 Al26 2.806721 1_555
Al1 Al27 2.806721 1_555
Al1 Al21 2.819133 1_545
Al1 Al24 2.819133 1_545
Al1 Al17 2.846264 1_555
Al1 Al20 2.846270 1_555
Al1 Al8 2.865125 1_554
Al1 Al4 2.873749 1_555
Al2 Cr5 2.650830 1_555
Al2 Cr4 2.650830 1_555
Al2 Al42 2.768677 1_555
Al2 Al43 2.768681 1_555
Al2 Al28 2.806721 1_555
Al2 Al25 2.806721 1_555
Al2 Al23 2.819133 1_565
Al2 Al22 2.819133 1_565
Al2 Al7 2.865125 1_556
Al2 Al3 2.873749 1_555
Al3 Al5 2.641436 1_555
Al3 Cr5 2.725334 1_555
Al3 Cr4 2.725337 1_555
Al3 Al32 2.828494 1_555
Al3 Cr1 2.839039 1_555
Al3 Al30 2.997397 1_555
Al3 Al31 2.997397 1_555
Al4 Al6 2.641436 1_555
Al4 Cr3 2.725334 1_555
Al4 Cr6 2.725337 1_555
Al4 Cr2 2.839039 1_555
Al5 Cr1 2.484316 1_555
Al5 Cr5 2.583102 1_555
Al5 Cr4 2.583102 1_555
Al5 Al8 2.817912 1_555
Al6 Cr2 2.484316 1_555
Al6 Cr6 2.583098 1_555
Al6 Cr3 2.583106 1_555
Al6 Al7 2.817912 1_555
Al7 Cr5 2.750714 1_554
Al7 Cr4 2.750718 1_554
Al8 Cr3 2.750714 1_556
Al8 Cr6 2.750718 1_556
Al9 Cr6 2.470351 1_555
Al9 Cr3 2.470366 1_455
Al10 Cr4 2.470351 1_555
Al10 Cr5 2.470366 1_655
Al10 Al34 2.719556 1_555
Al10 Al35 2.719556 1_655
Al10 Al25 2.813514 1_555
Al10 Al28 2.813521 1_655
Al10 Al32 2.840489 1_555
Al10 Al29 2.840492 1_555
Al10 Al33 2.860658 1_556
Al10 Al36 2.860666 1_656
Al10 Al18 2.867647 1_555
Al10 Al19 2.867658 1_655
Al11 Cr1 2.452456 1_555
Al11 Cr0 2.545436 1_555
Al11 Al15 2.659024 1_545
Al11 Al13 2.774630 1_545
Al11 Al27 2.776739 1_555
Al11 Al26 2.776740 1_455
Al11 Al41 2.793329 1_455
Al11 Al44 2.793336 1_555
Al11 Al24 2.806672 1_545
Al11 Al21 2.806672 1_445
Al11 Al20 2.881293 1_555
Al11 Al17 2.881297 1_455
Al12 Cr2 2.452456 1_555
Al12 Cr0 2.545436 1_666
Al12 Al16 2.659024 1_565
Al12 Al14 2.774630 1_565
Al12 Al25 2.776739 1_555
Al12 Al28 2.776740 1_655
Al12 Al43 2.793329 1_655
Al12 Al42 2.793336 1_555
Al12 Al22 2.806672 1_565
Al12 Al23 2.806672 1_665
Al12 Al18 2.881293 1_555
Al12 Al19 2.881297 1_655
Al13 Al15 2.735483 1_555
Al13 Al33 2.737629 1_455
Al13 Al36 2.737637 1_555
Al13 Al37 2.753131 1_455
Al13 Al40 2.753138 1_555
Al13 Al25 2.830593 1_454
Al13 Al28 2.830600 1_554
Al13 Cr0 2.831587 1_565
Al13 Al24 2.946044 1_555
Al13 Al21 2.946044 1_455
Al14 Al16 2.735491 1_555
Al14 Al35 2.737630 1_655
Al14 Al34 2.737634 1_555
Al14 Al39 2.753140 1_655
Al14 Al38 2.753140 1_555
Al14 Al27 2.830586 1_656
Al14 Al26 2.830590 1_556
Al14 Cr0 2.831579 1_656
Al14 Al22 2.946038 1_555
Al14 Al23 2.946044 1_655
Al15 Cr1 2.574546 1_565
Al15 Al42 2.646748 1_555
Al15 Al43 2.646752 1_555
Al15 Al38 2.781445 1_565
Al15 Al39 2.781449 1_565
Al15 Al40 2.812305 1_555
Al15 Al37 2.812311 1_455
Al15 Al44 2.879508 1_565
Al15 Al41 2.879514 1_465
Al16 Cr2 2.574546 1_545
Al16 Al44 2.646748 1_555
Al16 Al41 2.646752 1_555
Al16 Al40 2.781445 1_545
Al16 Al37 2.781449 1_545
Al16 Al38 2.812305 1_555
Al16 Al39 2.812311 1_655
Al16 Al42 2.879508 1_545
Al16 Al43 2.879514 1_645
Al17 Cr3 2.502252 1_555
Al17 Cr1 2.566338 1_655
Al17 Al4 2.712011 1_555
Al17 Al29 2.723788 1_555
Al17 Al41 2.757723 1_555
Al17 Al3 2.770796 1_655
Al17 Al20 2.799520 1_655
Al17 Al31 2.807395 1_655
Al17 Al9 2.867658 1_655
Al17 Al26 2.922543 1_555
Al18 Cr4 2.502255 1_555
Al18 Cr2 2.566325 1_555
Al18 Al3 2.712024 1_555
Al18 Al30 2.723794 1_555
Al18 Al42 2.757728 1_555
Al18 Al4 2.770788 1_555
Al18 Al19 2.799520 1_655
Al18 Al32 2.807395 1_555
Al18 Al2 2.846270 1_555
Al18 Al25 2.922543 1_555
Al19 Cr5 2.502252 1_555
Al19 Cr2 2.566338 1_455
Al19 Al3 2.712011 1_555
Al19 Al31 2.723788 1_555
Al19 Al43 2.757723 1_555
Al19 Al4 2.770796 1_455
Al19 Al29 2.807395 1_455
Al19 Al2 2.846264 1_555
Al19 Al28 2.922543 1_555
Al20 Cr6 2.502255 1_555
Al20 Cr1 2.566325 1_555
Al20 Al4 2.712024 1_555
Al20 Al32 2.723794 1_555
Al20 Al44 2.757728 1_555
Al20 Al3 2.770788 1_555
Al20 Al30 2.807395 1_555
Al20 Al9 2.867647 1_555
Al20 Al27 2.922543 1_555
Al21 Al25 2.703284 1_554
Al21 Al24 2.753006 1_555
Al21 Cr0 2.771785 1_665
Al21 Al41 2.773053 1_565
Al21 Al26 2.781099 1_565
Al21 Al7 2.789400 1_555
Al21 Al37 2.789831 1_555
Al21 Al22 2.884552 1_564
Al22 Al26 2.703279 1_556
Al22 Al23 2.753006 1_555
Al22 Cr0 2.771779 1_656
Al22 Al42 2.773053 1_545
Al22 Al25 2.781099 1_545
Al22 Al8 2.789404 1_555
Al22 Al38 2.789831 1_555
Al23 Al27 2.703284 1_556
Al23 Cr0 2.771785 1_556
Al23 Al43 2.773053 1_545
Al23 Al28 2.781099 1_545
Al23 Al8 2.789400 1_555
Al23 Al39 2.789831 1_555
Al23 Al24 2.884552 1_546
Al24 Al28 2.703279 1_554
Al24 Cr0 2.771779 1_565
Al24 Al44 2.773053 1_565
Al24 Al27 2.781099 1_565
Al24 Al7 2.789404 1_555
Al24 Al40 2.789831 1_555
Al25 Cr4 2.448951 1_555
Al25 Cr0 2.549987 1_666
Al25 Al7 2.712220 1_556
Al25 Al28 2.815439 1_655
Al25 Al33 2.853830 1_556
Al26 Cr3 2.448951 1_555
Al26 Cr0 2.549991 1_655
Al26 Al8 2.712214 1_554
Al26 Al9 2.813521 1_655
Al26 Al27 2.815439 1_655
Al26 Al34 2.853830 1_554
Al27 Cr6 2.448951 1_555
Al27 Cr0 2.549987 1_555
Al27 Al8 2.712220 1_554
Al27 Al9 2.813514 1_555
Al27 Al35 2.853830 1_554
Al28 Cr5 2.448951 1_555
Al28 Cr0 2.549991 1_566
Al28 Al7 2.712214 1_556
Al28 Al36 2.853830 1_556
Al29 Al5 2.713611 1_655
Al29 Cr5 2.763627 1_655
Al29 Al32 2.797155 1_555
Al29 Al3 2.828493 1_655
Al29 Cr1 2.870357 1_655
Al29 Al41 2.876673 1_555
Al29 Al39 2.898832 1_655
Al29 Al35 2.965210 1_655
Al29 Al4 2.997397 1_555
Al30 Al6 2.713597 1_555
Al30 Cr6 2.763624 1_555
Al30 Al31 2.797155 1_555
Al30 Al4 2.828494 1_555
Al30 Al9 2.840489 1_555
Al30 Cr2 2.870351 1_555
Al30 Al42 2.876673 1_555
Al30 Al40 2.898832 1_555
Al30 Al36 2.965210 1_555
Al31 Al6 2.713617 1_455
Al31 Cr3 2.763627 1_455
Al31 Al4 2.828493 1_455
Al31 Al9 2.840492 1_555
Al31 Cr2 2.870357 1_455
Al31 Al43 2.876673 1_555
Al31 Al37 2.898832 1_455
Al31 Al33 2.965210 1_455
Al32 Al5 2.713604 1_555
Al32 Cr4 2.763624 1_555
Al32 Cr1 2.870351 1_555
Al32 Al44 2.876673 1_555
Al32 Al38 2.898832 1_555
Al32 Al34 2.965210 1_555
Al32 Al4 2.997397 1_555
Al33 Al9 2.719556 1_655
Al33 Al34 2.738914 1_554
Al33 Cr4 2.747514 1_554
Al33 Cr3 2.759847 1_555
Al33 Al6 2.787370 1_555
Al33 Al7 2.816302 1_555
Al33 Al36 2.939110 1_655
Al33 Al37 3.044726 1_555
Al34 Cr3 2.747514 1_556
Al34 Cr4 2.759841 1_555
Al34 Al5 2.787351 1_555
Al34 Al8 2.816295 1_555
Al34 Al9 2.860666 1_656
Al34 Al35 2.939110 1_655
Al34 Al38 3.044724 1_555
Al35 Al36 2.738914 1_556
Al35 Cr6 2.747514 1_556
Al35 Cr5 2.759847 1_555
Al35 Al5 2.787363 1_555
Al35 Al8 2.816302 1_555
Al35 Al9 2.860658 1_556
Al35 Al39 3.044726 1_555
Al36 Al9 2.719556 1_555
Al36 Cr5 2.747514 1_554
Al36 Cr6 2.759841 1_555
Al36 Al6 2.787345 1_555
Al36 Al7 2.816295 1_555
Al36 Al40 3.044724 1_555
Al37 Cr2 2.672016 1_555
Al37 Al6 2.699282 1_555
Al37 Al43 2.738221 1_655
Al37 Al40 2.886470 1_555
Al37 Al41 2.899390 1_565
Al37 Al7 3.128441 1_555
Al38 Cr1 2.672013 1_555
Al38 Al5 2.699274 1_555
Al38 Al44 2.738221 1_555
Al38 Al39 2.886470 1_555
Al38 Al42 2.899390 1_545
Al38 Al8 3.128440 1_555
Al39 Cr1 2.672016 1_555
Al39 Al5 2.699278 1_555
Al39 Al41 2.738221 1_455
Al39 Al43 2.899390 1_545
Al39 Al8 3.128441 1_555
Al40 Cr2 2.672013 1_555
Al40 Al6 2.699270 1_555
Al40 Al42 2.738221 1_555
Al40 Al44 2.899390 1_565
Al40 Al7 3.128440 1_555
Al41 Cr1 2.633404 1_655
Al41 Al44 2.820785 1_555
Al42 Cr2 2.633397 1_555
Al42 Al43 2.820785 1_555
Al43 Cr2 2.633404 1_455
Al44 Cr1 2.633397 1_555
Cr3 Cr6 2.580483 1_555
Cr4 Cr5 2.580483 1_555
