# generated using pymatgen
data_Ba3LuPd2O9
_symmetry_space_group_name_H-M   'P 1'
_cell_length_a   5.85450206
_cell_length_b   5.85450138
_cell_length_c   14.60064224
_cell_angle_alpha   90.00000000
_cell_angle_beta   90.00000000
_cell_angle_gamma   120.00001476
_symmetry_Int_Tables_number   1
_chemical_formula_structural   Ba3LuPd2O9
_chemical_formula_sum   'Ba6 Lu2 Pd4 O18'
_cell_volume   433.39350928
_cell_formula_units_Z   2
loop_
 _symmetry_equiv_pos_site_id
 _symmetry_equiv_pos_as_xyz
  1  'x, y, z'
loop_
 _atom_site_type_symbol
 _atom_site_label
 _atom_site_symmetry_multiplicity
 _atom_site_fract_x
 _atom_site_fract_y
 _atom_site_fract_z
 _atom_site_occupancy
  Ba  Ba0  1  0.33333300  0.66666700  0.58906032  1
  Ba  Ba1  1  0.66666700  0.33333300  0.08906032  1
  Ba  Ba2  1  0.66666700  0.33333300  0.41093968  1
  Ba  Ba3  1  0.33333300  0.66666700  0.91093968  1
  Ba  Ba4  1  0.00000000  0.00000000  0.75000000  1
  Ba  Ba5  1  0.00000000  0.00000000  0.25000000  1
  Lu  Lu0  1  0.00000000  0.00000000  0.00000000  1
  Lu  Lu1  1  0.00000000  0.00000000  0.50000000  1
  Pd  Pd0  1  0.66666700  0.33333300  0.65848385  1
  Pd  Pd1  1  0.33333300  0.66666700  0.15848385  1
  Pd  Pd2  1  0.66666700  0.33333300  0.84151615  1
  Pd  Pd3  1  0.33333300  0.66666700  0.34151615  1
  O  O0  1  0.17266317  0.82733683  0.08368276  1
  O  O1  1  0.17266317  0.34532833  0.08368276  1
  O  O2  1  0.65467167  0.82733683  0.08368276  1
  O  O3  1  0.34532833  0.17266317  0.58368276  1
  O  O4  1  0.82733683  0.65467167  0.91631724  1
  O  O5  1  0.82733683  0.17266317  0.58368276  1
  O  O6  1  0.82733683  0.65467167  0.58368276  1
  O  O7  1  0.17266317  0.82733683  0.41631724  1
  O  O8  1  0.65467167  0.82733683  0.41631724  1
  O  O9  1  0.34532833  0.17266317  0.91631724  1
  O  O10  1  0.82733683  0.17266317  0.91631724  1
  O  O11  1  0.17266317  0.34532833  0.41631724  1
  O  O12  1  0.48326932  0.96653764  0.25000000  1
  O  O13  1  0.51673068  0.48326932  0.75000000  1
  O  O14  1  0.96653764  0.48326932  0.75000000  1
  O  O15  1  0.03346236  0.51673068  0.25000000  1
  O  O16  1  0.48326932  0.51673068  0.25000000  1
  O  O17  1  0.51673068  0.03346236  0.75000000  1
loop_
_geom_bond_atom_site_label_1
_geom_bond_atom_site_label_2
_geom_bond_distance
_geom_bond_site_symmetry_2
Ba0 O3 2.928926 1_565
Ba0 O6 2.928927 1_455
Ba0 O5 2.928934 1_565
Ba0 O5 2.928934 1_455
Ba0 O3 2.928944 1_555
Ba0 O6 2.928944 1_555
Ba0 O17 2.996694 1_565
Ba0 O14 2.996694 1_455
Ba0 O13 2.996694 1_555
Ba0 O11 3.002614 1_555
Ba0 O8 3.002615 1_555
Ba0 O7 3.002617 1_555
Ba1 O2 2.928926 1_545
Ba1 O1 2.928927 1_655
Ba1 O0 2.928934 1_545
Ba1 O0 2.928934 1_655
Ba1 O2 2.928944 1_555
Ba1 O1 2.928944 1_555
Ba1 O12 2.996694 1_545
Ba1 O15 2.996694 1_655
Ba1 O16 2.996694 1_555
Ba1 O4 3.002614 1_554
Ba1 O9 3.002615 1_554
Ba1 O10 3.002617 1_554
Ba2 O8 2.928926 1_545
Ba2 O11 2.928927 1_655
Ba2 O7 2.928934 1_545
Ba2 O7 2.928934 1_655
Ba2 O8 2.928944 1_555
Ba2 O11 2.928944 1_555
Ba2 O12 2.996694 1_545
Ba2 O15 2.996694 1_655
Ba2 O16 2.996694 1_555
Ba2 O6 3.002614 1_555
Ba2 O3 3.002615 1_555
Ba2 O5 3.002617 1_555
Ba3 O9 2.928926 1_565
Ba3 O4 2.928927 1_455
Ba3 O10 2.928934 1_565
Ba3 O10 2.928934 1_455
Ba3 O9 2.928944 1_555
Ba3 O4 2.928944 1_555
Ba3 O17 2.996694 1_565
Ba3 O14 2.996694 1_455
Ba3 O13 2.996694 1_555
Ba3 O1 3.002614 1_556
Ba3 O2 3.002615 1_556
Ba3 O0 3.002617 1_556
Ba4 O14 2.932160 1_445
Ba4 O17 2.932161 1_555
Ba4 O13 2.932162 1_445
Ba4 O13 2.932162 1_555
Ba4 O14 2.932166 1_455
Ba4 O17 2.932166 1_455
Ba4 O10 2.993714 1_455
Ba4 O5 2.993714 1_455
Ba4 O4 2.993720 1_445
Ba4 O6 2.993720 1_445
Ba4 O9 2.993720 1_555
Ba4 O3 2.993720 1_555
Ba5 O15 2.932160 1_555
Ba5 O12 2.932161 1_445
Ba5 O16 2.932162 1_555
Ba5 O16 2.932162 1_445
Ba5 O15 2.932166 1_545
Ba5 O12 2.932166 1_545
Ba5 O7 2.993714 1_545
Ba5 O0 2.993714 1_545
Ba5 O11 2.993720 1_555
Ba5 O1 2.993720 1_555
Ba5 O8 2.993720 1_445
Ba5 O2 2.993720 1_445
Lu0 O0 2.135028 1_545
Lu0 O10 2.135028 1_454
Lu0 O1 2.135036 1_555
Lu0 O4 2.135036 1_444
Lu0 O2 2.135036 1_445
Lu0 O9 2.135036 1_554
Lu1 O5 2.135028 1_455
Lu1 O7 2.135028 1_545
Lu1 O6 2.135036 1_445
Lu1 O11 2.135036 1_555
Lu1 O3 2.135036 1_555
Lu1 O8 2.135036 1_445
O0 Pd1 1.961428 1_555
O1 Pd1 1.961423 1_555
O2 Pd1 1.961424 1_555
O3 Pd0 1.961424 1_555
O4 Pd2 1.961423 1_555
O5 Pd0 1.961428 1_555
O6 Pd0 1.961423 1_555
O7 Pd3 1.961428 1_555
O8 Pd3 1.961424 1_555
O9 Pd2 1.961424 1_555
O10 Pd2 1.961428 1_555
O11 Pd3 1.961423 1_555
O12 Pd3 2.024104 1_555
O12 Pd1 2.024104 1_555
O13 Pd2 2.024112 1_555
O13 Pd0 2.024112 1_555
O14 Pd2 2.024104 1_555
O14 Pd0 2.024104 1_555
O15 Pd3 2.024104 1_555
O15 Pd1 2.024104 1_555
O16 Pd3 2.024112 1_555
O16 Pd1 2.024112 1_555
O17 Pd2 2.024104 1_555
O17 Pd0 2.024104 1_555
