# generated using pymatgen
data_Ho3TaO7
_symmetry_space_group_name_H-M   'P 1'
_cell_length_a   6.42055716
_cell_length_b   6.42055716
_cell_length_c   7.38282206
_cell_angle_alpha   90.00000000
_cell_angle_beta   90.00000000
_cell_angle_gamma   108.68968593
_symmetry_Int_Tables_number   1
_chemical_formula_structural   Ho3TaO7
_chemical_formula_sum   'Ho6 Ta2 O14'
_cell_volume   288.29737714
_cell_formula_units_Z   2
loop_
 _symmetry_equiv_pos_site_id
 _symmetry_equiv_pos_as_xyz
  1  'x, y, z'
loop_
 _atom_site_type_symbol
 _atom_site_label
 _atom_site_symmetry_multiplicity
 _atom_site_fract_x
 _atom_site_fract_y
 _atom_site_fract_z
 _atom_site_occupancy
  Ho  Ho0  1  0.53510359  0.53510359  0.50000000  1
  Ho  Ho1  1  0.46489641  0.46489641  0.00000000  1
  Ho  Ho2  1  0.00022490  0.53486328  0.24052772  1
  Ho  Ho3  1  -0.00022490  0.46513672  0.74052772  1
  Ho  Ho4  1  0.53486328  0.00022490  0.75947228  1
  Ho  Ho5  1  0.46513672  -0.00022490  0.25947228  1
  Ta  Ta0  1  0.00154535  0.00154535  0.50000000  1
  Ta  Ta1  1  0.99845465  0.99845465  0.00000000  1
  O  O0  1  0.92970430  0.07029570  0.75000000  1
  O  O1  1  0.07029570  0.92970430  0.25000000  1
  O  O2  1  0.36037702  0.63962298  0.25000000  1
  O  O3  1  0.63962298  0.36037702  0.75000000  1
  O  O4  1  0.37090304  0.62909696  0.75000000  1
  O  O5  1  0.62909696  0.37090304  0.25000000  1
  O  O6  1  0.32973080  0.08366672  0.97572580  1
  O  O7  1  0.67026920  0.91633328  0.47572580  1
  O  O8  1  0.30840052  0.05051646  0.54606211  1
  O  O9  1  0.69159948  0.94948354  0.04606211  1
  O  O10  1  0.05051646  0.30840052  0.45393789  1
  O  O11  1  0.94948354  0.69159948  0.95393789  1
  O  O12  1  0.91633328  0.67026920  0.52427420  1
  O  O13  1  0.08366672  0.32973080  0.02427420  1
loop_
_geom_bond_atom_site_label_1
_geom_bond_atom_site_label_2
_geom_bond_distance
_geom_bond_site_symmetry_2
Ho0 O4 2.300010 1_555
Ho0 O5 2.300010 1_555
Ho0 O7 2.327048 1_555
Ho0 O12 2.327048 1_555
Ho0 O2 2.366005 1_555
Ho0 O3 2.366005 1_555
Ho1 O4 2.300010 1_554
Ho1 O5 2.300010 1_555
Ho1 O6 2.327048 1_554
Ho1 O13 2.327048 1_555
Ho1 O2 2.366005 1_555
Ho1 O3 2.366005 1_554
Ho2 O2 2.192623 1_555
Ho2 O10 2.236458 1_555
Ho2 O13 2.241183 1_555
Ho2 O5 2.276715 1_455
Ho2 O12 2.394672 1_455
Ho2 O11 2.409512 1_454
Ho2 O1 2.429625 1_555
Ho3 O3 2.192623 1_455
Ho3 O11 2.236458 1_455
Ho3 O12 2.241183 1_455
Ho3 O4 2.276715 1_555
Ho3 O13 2.394672 1_556
Ho3 O10 2.409512 1_555
Ho3 O0 2.429625 1_455
Ho4 O3 2.192623 1_555
Ho4 O8 2.236458 1_555
Ho4 O6 2.241183 1_555
Ho4 O4 2.276715 1_545
Ho4 O7 2.394672 1_545
Ho4 O9 2.409512 1_546
Ho4 O0 2.429625 1_555
Ho5 O2 2.192623 1_545
Ho5 O9 2.236458 1_545
Ho5 O7 2.241183 1_545
Ho5 O5 2.276715 1_555
Ho5 O6 2.394672 1_554
Ho5 O8 2.409512 1_555
Ho5 O1 2.429625 1_545
O0 Ta1 1.986133 1_546
O0 Ta0 1.986133 1_655
O1 Ta1 1.986133 1_455
O1 Ta0 1.986133 1_565
O6 Ta1 2.027237 1_446
O7 Ta0 2.027237 1_665
O8 Ta0 1.923308 1_555
O9 Ta1 1.923308 1_555
O10 Ta0 1.923308 1_555
O11 Ta1 1.923308 1_556
O12 Ta0 2.027237 1_665
O13 Ta1 2.027237 1_445
