# generated using pymatgen
data_K3SiSe3
_symmetry_space_group_name_H-M   'P 1'
_cell_length_a   7.84043378
_cell_length_b   7.84043504
_cell_length_c   8.38801503
_cell_angle_alpha   75.02267362
_cell_angle_beta   75.02266771
_cell_angle_gamma   109.84947407
_symmetry_Int_Tables_number   1
_chemical_formula_structural   K3SiSe3
_chemical_formula_sum   'K6 Si2 Se6'
_cell_volume   433.18252442
_cell_formula_units_Z   2
loop_
 _symmetry_equiv_pos_site_id
 _symmetry_equiv_pos_as_xyz
  1  'x, y, z'
loop_
 _atom_site_type_symbol
 _atom_site_label
 _atom_site_symmetry_multiplicity
 _atom_site_fract_x
 _atom_site_fract_y
 _atom_site_fract_z
 _atom_site_occupancy
  K  K0  1  0.21422817  0.21422817  0.31714053  1
  K  K1  1  0.00000000  0.50000000  0.00000000  1
  K  K2  1  0.66548413  0.33451587  0.50000000  1
  K  K3  1  0.33451587  0.66548413  0.50000000  1
  K  K4  1  0.50000000  0.00000000  0.00000000  1
  K  K5  1  0.78577183  0.78577183  0.68285947  1
  Si  Si0  1  0.11222674  0.11222674  0.85259852  1
  Si  Si1  1  0.88777326  0.88777326  0.14740148  1
  Se  Se0  1  0.63912838  0.63912838  0.13379656  1
  Se  Se1  1  0.36087162  0.36087162  0.86620344  1
  Se  Se2  1  0.75902474  0.05029577  0.29533500  1
  Se  Se3  1  0.94970423  0.24097526  0.70466500  1
  Se  Se4  1  0.24097526  0.94970423  0.70466500  1
  Se  Se5  1  0.05029577  0.75902474  0.29533500  1
loop_
_geom_bond_atom_site_label_1
_geom_bond_atom_site_label_2
_geom_bond_distance
_geom_bond_site_symmetry_2
K0 Se1 3.399637 1_554
K0 Se0 3.424695 1_555
K0 Se2 3.430290 1_455
K0 Se5 3.430291 1_545
K0 Se3 3.474862 1_455
K0 Se4 3.474863 1_545
K1 Se4 3.268114 1_554
K1 Se2 3.268114 1_455
K1 Se0 3.397401 1_455
K1 Se1 3.397401 1_554
K1 Se5 3.602538 1_555
K1 Se3 3.602538 1_454
K2 Se4 3.267699 1_545
K2 Se5 3.267699 1_655
K2 Se3 3.299589 1_555
K2 Se2 3.299589 1_555
K2 Se1 3.471811 1_555
K2 Se0 3.471811 1_555
K3 Se2 3.267699 1_565
K3 Se3 3.267699 1_455
K3 Se5 3.299589 1_555
K3 Se4 3.299589 1_555
K3 Se0 3.471811 1_555
K3 Se1 3.471811 1_555
K4 Se3 3.268114 1_554
K4 Se5 3.268114 1_545
K4 Se1 3.397401 1_554
K4 Se0 3.397401 1_545
K4 Se2 3.602538 1_555
K4 Se4 3.602538 1_544
K5 Se0 3.399637 1_556
K5 Se1 3.424695 1_555
K5 Se4 3.430290 1_655
K5 Se3 3.430291 1_565
K5 Se5 3.474862 1_655
K5 Se2 3.474863 1_565
Se0 Si1 2.294137 1_555
Se1 Si0 2.294137 1_555
Se2 Si1 2.285999 1_545
Se3 Si0 2.285999 1_655
Se4 Si0 2.285999 1_565
Se5 Si1 2.285999 1_455
