# generated using pymatgen
data_Ba5ZrSc2Al2O13
_symmetry_space_group_name_H-M   'P 1'
_cell_length_a   5.85389516
_cell_length_b   5.85389558
_cell_length_c   24.39987466
_cell_angle_alpha   90.00000000
_cell_angle_beta   90.00000000
_cell_angle_gamma   119.99999762
_symmetry_Int_Tables_number   1
_chemical_formula_structural   Ba5ZrSc2Al2O13
_chemical_formula_sum   'Ba10 Zr2 Sc4 Al4 O26'
_cell_volume   724.11600959
_cell_formula_units_Z   2
loop_
 _symmetry_equiv_pos_site_id
 _symmetry_equiv_pos_as_xyz
  1  'x, y, z'
loop_
 _atom_site_type_symbol
 _atom_site_label
 _atom_site_symmetry_multiplicity
 _atom_site_fract_x
 _atom_site_fract_y
 _atom_site_fract_z
 _atom_site_occupancy
  Ba  Ba0  1  0.33333300  0.66666700  0.54380829  1
  Ba  Ba1  1  0.66666700  0.33333300  0.45619171  1
  Ba  Ba2  1  0.66666700  0.33333300  0.04380829  1
  Ba  Ba3  1  0.33333300  0.66666700  0.95619171  1
  Ba  Ba4  1  0.00000000  0.00000000  0.13966749  1
  Ba  Ba5  1  0.00000000  0.00000000  0.86033251  1
  Ba  Ba6  1  0.00000000  0.00000000  0.63966749  1
  Ba  Ba7  1  0.00000000  0.00000000  0.36033251  1
  Ba  Ba8  1  0.33333300  0.66666700  0.25000000  1
  Ba  Ba9  1  0.66666700  0.33333300  0.75000000  1
  Zr  Zr0  1  0.00000000  0.00000000  0.00000000  1
  Zr  Zr1  1  0.00000000  0.00000000  0.50000000  1
  Sc  Sc0  1  0.33333300  0.66666700  0.10227092  1
  Sc  Sc1  1  0.66666700  0.33333300  0.89772908  1
  Sc  Sc2  1  0.66666700  0.33333300  0.60227092  1
  Sc  Sc3  1  0.33333300  0.66666700  0.39772908  1
  Al  Al0  1  0.33333300  0.66666700  0.67917307  1
  Al  Al1  1  0.66666700  0.33333300  0.32082693  1
  Al  Al2  1  0.66666700  0.33333300  0.17917307  1
  Al  Al3  1  0.33333300  0.66666700  0.82082693  1
  O  O0  1  0.50232475  0.00464951  0.15580004  1
  O  O1  1  0.49767525  0.99535049  0.84419996  1
  O  O2  1  0.99535049  0.49767525  0.15580004  1
  O  O3  1  0.49767525  0.99535049  0.65580004  1
  O  O4  1  0.00464951  0.50232475  0.84419996  1
  O  O5  1  0.50232475  0.00464951  0.34419996  1
  O  O6  1  0.50232475  0.49767525  0.15580004  1
  O  O7  1  0.00464951  0.50232475  0.65580004  1
  O  O8  1  0.49767525  0.50232475  0.84419996  1
  O  O9  1  0.99535049  0.49767525  0.34419996  1
  O  O10  1  0.49767525  0.50232475  0.65580004  1
  O  O11  1  0.50232475  0.49767525  0.34419996  1
  O  O12  1  0.16605376  0.33210852  0.05144894  1
  O  O13  1  0.83394624  0.66789148  0.94855106  1
  O  O14  1  0.66789148  0.83394624  0.05144894  1
  O  O15  1  0.83394624  0.66789148  0.55144894  1
  O  O16  1  0.33210852  0.16605376  0.94855106  1
  O  O17  1  0.16605376  0.33210852  0.44855106  1
  O  O18  1  0.16605376  0.83394624  0.05144894  1
  O  O19  1  0.33210852  0.16605376  0.55144894  1
  O  O20  1  0.83394624  0.16605376  0.94855106  1
  O  O21  1  0.66789148  0.83394624  0.44855106  1
  O  O22  1  0.83394624  0.16605376  0.55144894  1
  O  O23  1  0.16605376  0.83394624  0.44855106  1
  O  O24  1  0.33333300  0.66666700  0.75000000  1
  O  O25  1  0.66666700  0.33333300  0.25000000  1
loop_
_geom_bond_atom_site_label_1
_geom_bond_atom_site_label_2
_geom_bond_distance
_geom_bond_site_symmetry_2
Ba0 O21 2.877310 1_555
Ba0 O23 2.877310 1_555
Ba0 O17 2.877310 1_555
Ba0 O15 2.932880 1_455
Ba0 O19 2.932880 1_565
Ba0 O22 2.932886 1_565
Ba0 O22 2.932886 1_455
Ba0 O15 2.932891 1_555
Ba0 O19 2.932892 1_555
Ba0 O7 3.200559 1_555
Ba0 O3 3.200559 1_555
Ba0 O10 3.200562 1_555
Ba1 O19 2.877310 1_555
Ba1 O22 2.877310 1_555
Ba1 O15 2.877310 1_555
Ba1 O17 2.932880 1_655
Ba1 O21 2.932880 1_545
Ba1 O23 2.932886 1_545
Ba1 O23 2.932886 1_655
Ba1 O17 2.932891 1_555
Ba1 O21 2.932892 1_555
Ba1 O9 3.200559 1_555
Ba1 O5 3.200559 1_555
Ba1 O11 3.200562 1_555
Ba2 O16 2.877310 1_554
Ba2 O20 2.877310 1_554
Ba2 O13 2.877310 1_554
Ba2 O12 2.932880 1_655
Ba2 O14 2.932880 1_545
Ba2 O18 2.932886 1_545
Ba2 O18 2.932886 1_655
Ba2 O12 2.932891 1_555
Ba2 O14 2.932892 1_555
Ba2 O2 3.200559 1_555
Ba2 O0 3.200559 1_555
Ba2 O6 3.200562 1_555
Ba3 O14 2.877310 1_556
Ba3 O18 2.877310 1_556
Ba3 O12 2.877310 1_556
Ba3 O13 2.932880 1_455
Ba3 O16 2.932880 1_565
Ba3 O20 2.932886 1_565
Ba3 O20 2.932886 1_455
Ba3 O13 2.932891 1_555
Ba3 O16 2.932892 1_555
Ba3 O4 3.200559 1_555
Ba3 O1 3.200559 1_555
Ba3 O8 3.200562 1_555
Ba4 O18 2.732775 1_545
Ba4 O14 2.732778 1_445
Ba4 O12 2.732778 1_555
Ba4 O0 2.953392 1_555
Ba4 O0 2.953392 1_455
Ba4 O6 2.953392 1_555
Ba4 O2 2.953392 1_455
Ba4 O2 2.953392 1_445
Ba4 O6 2.953392 1_445
Ba5 O20 2.732775 1_455
Ba5 O16 2.732778 1_555
Ba5 O13 2.732778 1_445
Ba5 O1 2.953392 1_445
Ba5 O1 2.953392 1_545
Ba5 O8 2.953392 1_445
Ba5 O4 2.953392 1_545
Ba5 O4 2.953392 1_555
Ba5 O8 2.953392 1_555
Ba6 O22 2.732775 1_455
Ba6 O19 2.732778 1_555
Ba6 O15 2.732778 1_445
Ba6 O3 2.953392 1_445
Ba6 O3 2.953392 1_545
Ba6 O10 2.953392 1_445
Ba6 O7 2.953392 1_545
Ba6 O7 2.953392 1_555
Ba6 O10 2.953392 1_555
Ba7 O23 2.732775 1_545
Ba7 O21 2.732778 1_445
Ba7 O17 2.732778 1_555
Ba7 O5 2.953392 1_555
Ba7 O5 2.953392 1_455
Ba7 O11 2.953392 1_555
Ba7 O9 2.953392 1_455
Ba7 O9 2.953392 1_445
Ba7 O11 2.953392 1_445
Ba8 O2 2.866852 1_455
Ba8 O9 2.866852 1_455
Ba8 O0 2.866852 1_565
Ba8 O5 2.866852 1_565
Ba8 O6 2.866855 1_555
Ba8 O11 2.866855 1_555
Ba8 O25 3.379745 1_455
Ba8 O25 3.379745 1_565
Ba8 O25 3.379755 1_555
Ba9 O7 2.866852 1_655
Ba9 O4 2.866852 1_655
Ba9 O3 2.866852 1_545
Ba9 O1 2.866852 1_545
Ba9 O10 2.866855 1_555
Ba9 O8 2.866855 1_555
Ba9 O24 3.379745 1_655
Ba9 O24 3.379745 1_545
Ba9 O24 3.379755 1_555
Al0 O24 1.728168 1_555
Al0 O7 1.761193 1_555
Al0 O3 1.761193 1_555
Al0 O10 1.761198 1_555
Al1 O25 1.728168 1_555
Al1 O9 1.761193 1_555
Al1 O5 1.761193 1_555
Al1 O11 1.761198 1_555
Al2 O25 1.728168 1_555
Al2 O2 1.761193 1_555
Al2 O0 1.761193 1_555
Al2 O6 1.761198 1_555
Al3 O24 1.728168 1_555
Al3 O4 1.761193 1_555
Al3 O1 1.761193 1_555
Al3 O8 1.761198 1_555
O0 Sc0 2.154483 1_545
O1 Sc1 2.154483 1_565
O2 Sc0 2.154483 1_655
O3 Sc2 2.154483 1_565
O4 Sc1 2.154483 1_455
O5 Sc3 2.154483 1_545
O6 Sc0 2.154487 1_555
O7 Sc2 2.154483 1_455
O8 Sc1 2.154487 1_555
O9 Sc3 2.154483 1_655
O10 Sc2 2.154487 1_555
O11 Sc3 2.154487 1_555
O12 Zr0 2.100149 1_555
O12 Sc0 2.101054 1_555
O13 Zr0 2.100149 1_666
O13 Sc1 2.101054 1_555
O14 Zr0 2.100149 1_665
O14 Sc0 2.101054 1_555
O15 Zr1 2.100149 1_665
O15 Sc2 2.101054 1_555
O16 Zr0 2.100149 1_556
O16 Sc1 2.101054 1_555
O17 Zr1 2.100149 1_555
O17 Sc3 2.101054 1_555
O18 Zr0 2.100145 1_565
O18 Sc0 2.101054 1_555
O19 Zr1 2.100149 1_555
O19 Sc2 2.101054 1_555
O20 Zr0 2.100145 1_656
O20 Sc1 2.101054 1_555
O21 Zr1 2.100149 1_665
O21 Sc3 2.101054 1_555
O22 Zr1 2.100145 1_655
O22 Sc2 2.101054 1_555
O23 Zr1 2.100145 1_565
O23 Sc3 2.101054 1_555
