# generated using pymatgen
data_Na5CaTaP4
_symmetry_space_group_name_H-M   'P 1'
_cell_length_a   9.21715799
_cell_length_b   9.21715786
_cell_length_c   7.18226060
_cell_angle_alpha   90.76237564
_cell_angle_beta   90.76237017
_cell_angle_gamma   120.11856901
_symmetry_Int_Tables_number   1
_chemical_formula_structural   Na5CaTaP4
_chemical_formula_sum   'Na10 Ca2 Ta2 P8'
_cell_volume   527.60796205
_cell_formula_units_Z   2
loop_
 _symmetry_equiv_pos_site_id
 _symmetry_equiv_pos_as_xyz
  1  'x, y, z'
loop_
 _atom_site_type_symbol
 _atom_site_label
 _atom_site_symmetry_multiplicity
 _atom_site_fract_x
 _atom_site_fract_y
 _atom_site_fract_z
 _atom_site_occupancy
  Na  Na0  1  0.53934791  0.47112781  0.61244568  1
  Na  Na1  1  0.93585240  0.46886759  0.61496446  1
  Na  Na2  1  0.47112781  0.53934791  0.11244568  1
  Na  Na3  1  0.46886759  0.93585240  0.11496446  1
  Na  Na4  1  0.13635364  0.85470918  0.78062058  1
  Na  Na5  1  0.70919414  0.84762137  0.80873527  1
  Na  Na6  1  0.14774620  0.28961319  0.76585366  1
  Na  Na7  1  0.85470918  0.13635364  0.28062058  1
  Na  Na8  1  0.28961319  0.14774620  0.26585366  1
  Na  Na9  1  0.84762137  0.70919414  0.30873527  1
  Ca  Ca0  1  0.53401709  0.06165354  0.60804360  1
  Ca  Ca1  1  0.06165354  0.53401709  0.10804360  1
  Ta  Ta0  1  0.33167571  0.66398960  0.50174602  1
  Ta  Ta1  1  0.66398960  0.33167571  0.00174602  1
  P  P0  1  0.81170764  0.19645203  0.89203598  1
  P  P1  1  0.38606391  0.19013749  0.87782596  1
  P  P2  1  0.81563889  0.61780253  0.91484408  1
  P  P3  1  0.19645203  0.81170764  0.39203598  1
  P  P4  1  0.61780253  0.81563889  0.41484408  1
  P  P5  1  0.19013749  0.38606391  0.37782596  1
  P  P6  1  0.32429554  0.66613363  0.83308270  1
  P  P7  1  0.66613363  0.32429554  0.33308270  1
loop_
_geom_bond_atom_site_label_1
_geom_bond_atom_site_label_2
_geom_bond_distance
_geom_bond_site_symmetry_2
Na0 P7 2.966563 1_555
Na0 P1 2.977848 1_555
Na0 P2 3.057718 1_555
Na0 P4 3.234679 1_555
Na0 P5 3.332016 1_555
Na1 P7 2.919677 1_555
Na1 P0 2.980635 1_555
Na1 P2 3.043423 1_555
Na1 P5 3.292954 1_655
Na1 P3 3.307313 1_655
Na2 P6 2.966563 1_554
Na2 P5 2.977848 1_555
Na2 P4 3.057718 1_555
Na2 P2 3.234679 1_554
Na2 P1 3.332016 1_554
Na3 P6 2.919677 1_554
Na3 P3 2.980635 1_555
Na3 P4 3.043423 1_555
Na3 P1 3.292954 1_564
Na3 P0 3.307313 1_564
Na4 P2 2.844241 1_455
Na4 P1 2.846376 1_565
Na4 P3 2.912936 1_555
Na4 P6 3.030791 1_555
Na5 P2 2.852941 1_555
Na5 P4 2.909480 1_555
Na5 P0 2.910895 1_565
Na5 P6 3.079497 1_555
Na6 P1 2.882083 1_555
Na6 P5 2.907954 1_555
Na6 P0 2.928879 1_455
Na6 P6 3.031844 1_555
Na7 P4 2.844241 1_545
Na7 P5 2.846376 1_655
Na7 P0 2.912936 1_554
Na7 P7 3.030791 1_555
Na8 P5 2.882083 1_555
Na8 P1 2.907954 1_554
Na8 P3 2.928879 1_545
Na8 P7 3.031844 1_555
Na9 P4 2.852941 1_555
Na9 P2 2.909480 1_554
Na9 P3 2.910895 1_655
Na9 P7 3.079497 1_555
Ca0 P7 2.911350 1_555
Ca0 P1 2.940520 1_555
Ca0 P0 2.976136 1_555
Ca0 P4 3.060371 1_545
Ca0 P3 3.158778 1_545
Ca1 P6 2.911350 1_554
Ca1 P5 2.940520 1_555
Ca1 P3 2.976136 1_555
Ca1 P2 3.060371 1_454
Ca1 P0 3.158778 1_454
P0 Ta1 2.394500 1_556
P1 Ta1 2.368721 1_556
P2 Ta1 2.380349 1_556
P3 Ta0 2.394500 1_555
P4 Ta0 2.380349 1_555
P5 Ta0 2.368721 1_555
P6 Ta0 2.381725 1_555
P7 Ta1 2.381725 1_555
