# generated using pymatgen
data_ScBe9Mo2
_symmetry_space_group_name_H-M   'P 1'
_cell_length_a   7.56444730
_cell_length_b   7.56444655
_cell_length_c   7.56444743
_cell_angle_alpha   34.47365669
_cell_angle_beta   34.47365158
_cell_angle_gamma   34.47365163
_symmetry_Int_Tables_number   1
_chemical_formula_structural   ScBe9Mo2
_chemical_formula_sum   'Sc1 Be9 Mo2'
_cell_volume   123.71196601
_cell_formula_units_Z   1
loop_
 _symmetry_equiv_pos_site_id
 _symmetry_equiv_pos_as_xyz
  1  'x, y, z'
loop_
 _atom_site_type_symbol
 _atom_site_label
 _atom_site_symmetry_multiplicity
 _atom_site_fract_x
 _atom_site_fract_y
 _atom_site_fract_z
 _atom_site_occupancy
  Sc  Sc0  1  0.00000000  0.00000000  0.00000000  1
  Be  Be0  1  0.50000000  0.50000000  0.50000000  1
  Be  Be1  1  0.33506471  0.33506471  0.33506571  1
  Be  Be2  1  0.66493529  0.66493529  0.66493429  1
  Be  Be3  1  0.07925618  0.58650410  0.58650410  1
  Be  Be4  1  0.58650410  0.58650410  0.07925618  1
  Be  Be5  1  0.58650410  0.07925618  0.58650410  1
  Be  Be6  1  0.41349590  0.92074382  0.41349590  1
  Be  Be7  1  0.92074382  0.41349590  0.41349590  1
  Be  Be8  1  0.41349590  0.41349590  0.92074382  1
  Mo  Mo0  1  0.14636947  0.14636947  0.14636947  1
  Mo  Mo1  1  0.85363053  0.85363053  0.85363053  1
loop_
_geom_bond_atom_site_label_1
_geom_bond_atom_site_label_2
_geom_bond_distance
_geom_bond_site_symmetry_2
Be0 Be6 2.196443 1_555
Be0 Be5 2.196443 1_555
Be0 Be7 2.196443 1_555
Be0 Be3 2.196443 1_555
Be0 Be8 2.196444 1_555
Be0 Be4 2.196444 1_555
Be0 Mo1 2.624212 1_455
Be0 Mo0 2.624212 1_655
Be0 Mo1 2.624213 1_554
Be0 Mo0 2.624213 1_556
Be0 Mo1 2.624213 1_545
Be0 Mo0 2.624213 1_565
Be1 Be3 2.192647 1_555
Be1 Be5 2.192647 1_555
Be1 Be4 2.192649 1_555
Be1 Be6 2.230568 1_545
Be1 Be7 2.230569 1_455
Be1 Be8 2.230571 1_554
Be1 Sc0 2.588536 1_556
Be1 Sc0 2.588540 1_655
Be1 Sc0 2.588540 1_565
Be2 Be7 2.192647 1_555
Be2 Be6 2.192647 1_555
Be2 Be8 2.192649 1_555
Be2 Be5 2.230568 1_565
Be2 Be3 2.230569 1_655
Be2 Be4 2.230571 1_556
Be2 Sc0 2.588536 1_665
Be2 Sc0 2.588540 1_566
Be2 Sc0 2.588540 1_656
Be3 Be5 2.209019 1_465
Be3 Be4 2.209019 1_456
Be3 Be5 2.274004 1_555
Be3 Be4 2.274005 1_555
Be3 Mo1 2.537483 1_455
Be3 Mo0 2.605470 1_565
Be3 Mo0 2.605471 1_556
Be3 Sc0 2.870504 1_556
Be3 Sc0 2.870504 1_565
Be4 Be5 2.209020 1_564
Be4 Be5 2.274005 1_555
Be4 Mo1 2.537483 1_554
Be4 Mo0 2.605470 1_565
Be4 Mo0 2.605470 1_655
Be4 Sc0 2.870504 1_655
Be4 Sc0 2.870504 1_565
Be5 Mo1 2.537483 1_545
Be5 Mo0 2.605470 1_556
Be5 Mo0 2.605470 1_655
Be5 Sc0 2.870504 1_556
Be5 Sc0 2.870504 1_655
Be6 Be7 2.209019 1_465
Be6 Be8 2.209020 1_564
Be6 Be7 2.274004 1_555
Be6 Be8 2.274005 1_555
Be6 Mo0 2.537483 1_565
Be6 Mo1 2.605470 1_554
Be6 Mo1 2.605470 1_455
Be6 Sc0 2.870504 1_665
Be6 Sc0 2.870504 1_566
Be7 Be8 2.209019 1_654
Be7 Be8 2.274005 1_555
Be7 Mo0 2.537483 1_655
Be7 Mo1 2.605470 1_545
Be7 Mo1 2.605471 1_554
Be7 Sc0 2.870504 1_665
Be7 Sc0 2.870504 1_656
Be8 Mo0 2.537483 1_556
Be8 Mo1 2.605470 1_545
Be8 Mo1 2.605470 1_455
Be8 Sc0 2.870504 1_566
Be8 Sc0 2.870504 1_656
Mo0 Mo1 2.729187 1_454
Mo0 Mo1 2.729187 1_544
Mo0 Mo1 2.729187 1_445
Mo0 Sc0 3.121122 1_555
Mo1 Sc0 3.121122 1_666
