# generated using pymatgen
data_Ca16Al5Hg
_symmetry_space_group_name_H-M   'P 1'
_cell_length_a   9.46850985
_cell_length_b   9.56154653
_cell_length_c   9.60669089
_cell_angle_alpha   99.14114704
_cell_angle_beta   100.83618015
_cell_angle_gamma   119.75549711
_symmetry_Int_Tables_number   1
_chemical_formula_structural   Ca16Al5Hg
_chemical_formula_sum   'Ca16 Al5 Hg1'
_cell_volume   708.41860477
_cell_formula_units_Z   1
loop_
 _symmetry_equiv_pos_site_id
 _symmetry_equiv_pos_as_xyz
  1  'x, y, z'
loop_
 _atom_site_type_symbol
 _atom_site_label
 _atom_site_symmetry_multiplicity
 _atom_site_fract_x
 _atom_site_fract_y
 _atom_site_fract_z
 _atom_site_occupancy
  Ca  Ca0  1  0.53227913  0.70122765  0.65042220  1
  Ca  Ca1  1  0.46772087  0.29877235  0.34957780  1
  Ca  Ca2  1  0.07938033  0.23157752  0.10611050  1
  Ca  Ca3  1  0.92061967  0.76842248  0.89388950  1
  Ca  Ca4  1  0.87978500  0.40180675  0.65244846  1
  Ca  Ca5  1  0.12021500  0.59819325  0.34755154  1
  Ca  Ca6  1  0.33052661  0.87518403  0.10957076  1
  Ca  Ca7  1  0.66947339  0.12481597  0.89042924  1
  Ca  Ca8  1  0.96043136  0.06040104  0.67047562  1
  Ca  Ca9  1  0.03956864  0.93959896  0.32952438  1
  Ca  Ca10  1  0.70404614  0.49847102  0.10922895  1
  Ca  Ca11  1  0.29595386  0.50152898  0.89077105  1
  Ca  Ca12  1  0.77357499  0.15246438  0.30075783  1
  Ca  Ca13  1  0.22642501  0.84753562  0.69924217  1
  Ca  Ca14  1  0.54639791  0.71185027  0.29722917  1
  Ca  Ca15  1  0.45360209  0.28814973  0.70277083  1
  Al  Al0  1  0.50000000  0.00000000  0.50000000  1
  Al  Al1  1  0.17293880  0.33739341  0.49943533  1
  Al  Al2  1  0.82706120  0.66260659  0.50056467  1
  Al  Al3  1  0.67518334  0.84076179  0.02474599  1
  Al  Al4  1  0.32481666  0.15923821  0.97525401  1
  Hg  Hg0  1  0.00000000  0.50000000  0.00000000  1
loop_
_geom_bond_atom_site_label_1
_geom_bond_atom_site_label_2
_geom_bond_distance
_geom_bond_site_symmetry_2
Ca0 Ca14 3.436178 1_555
Ca0 Ca11 3.617562 1_555
Ca0 Ca3 3.653433 1_555
Ca0 Ca8 3.733987 1_565
Ca0 Ca7 3.753901 1_565
Ca0 Ca15 3.776127 1_555
Ca0 Ca13 3.858394 1_555
Ca0 Ca5 3.957836 1_555
Ca0 Ca1 4.123291 1_555
Ca1 Ca15 3.436178 1_555
Ca1 Ca10 3.617562 1_555
Ca1 Ca2 3.653433 1_555
Ca1 Ca9 3.733987 1_545
Ca1 Ca6 3.753901 1_545
Ca1 Ca14 3.776127 1_555
Ca1 Ca12 3.858394 1_555
Ca1 Ca4 3.957836 1_555
Ca2 Hg0 3.263295 1_555
Ca2 Ca7 3.573586 1_454
Ca2 Ca5 3.681218 1_555
Ca2 Ca9 3.702157 1_545
Ca2 Ca3 3.924134 1_444
Ca2 Ca8 3.960207 1_454
Ca3 Hg0 3.263295 1_656
Ca3 Ca6 3.573586 1_656
Ca3 Ca4 3.681218 1_555
Ca3 Ca8 3.702157 1_565
Ca3 Ca9 3.960207 1_656
Ca4 Hg0 3.136730 1_656
Ca4 Ca8 3.724687 1_555
Ca4 Ca7 3.821939 1_555
Ca4 Ca5 4.159263 1_655
Ca5 Hg0 3.136730 1_555
Ca5 Ca9 3.724687 1_555
Ca5 Ca6 3.821939 1_555
Ca6 Hg0 3.192035 1_555
Ca6 Ca9 3.986657 1_555
Ca6 Ca7 4.118531 1_564
Ca7 Hg0 3.192035 1_656
Ca7 Ca8 3.986657 1_555
Ca8 Ca9 3.633702 1_645
Ca10 Hg0 3.166023 1_655
Ca10 Ca14 3.538127 1_555
Ca10 Ca3 3.631084 1_554
Ca10 Ca7 3.672053 1_554
Ca10 Ca9 3.700959 1_655
Ca10 Ca5 3.723330 1_655
Ca10 Ca15 3.768842 1_554
Ca11 Hg0 3.166023 1_556
Ca11 Ca15 3.538127 1_555
Ca11 Ca2 3.631084 1_556
Ca11 Ca6 3.672053 1_556
Ca11 Ca8 3.700959 1_455
Ca11 Ca4 3.723330 1_455
Ca11 Ca14 3.768842 1_556
Ca12 Ca4 3.448682 1_555
Ca12 Ca6 3.537883 1_545
Ca12 Ca2 3.572674 1_655
Ca12 Ca14 3.648168 1_545
Ca12 Ca5 3.753667 1_655
Ca12 Ca7 3.811736 1_554
Ca12 Ca9 3.945534 1_645
Ca12 Ca8 4.086154 1_555
Ca13 Ca5 3.448682 1_555
Ca13 Ca7 3.537883 1_565
Ca13 Ca3 3.572674 1_455
Ca13 Ca15 3.648168 1_565
Ca13 Ca4 3.753667 1_455
Ca13 Ca6 3.811736 1_556
Ca13 Ca8 3.945534 1_465
Ca13 Ca9 4.086154 1_555
Ca14 Ca6 3.541806 1_555
Ca14 Ca5 3.774393 1_555
Ca14 Ca9 3.973743 1_655
Ca14 Ca8 4.157127 1_565
Ca15 Ca7 3.541806 1_555
Ca15 Ca4 3.774393 1_555
Ca15 Ca8 3.973743 1_455
Ca15 Ca9 4.157127 1_545
Al0 Ca15 3.375852 1_555
Al0 Ca14 3.375852 1_545
Al0 Ca12 3.391351 1_555
Al0 Ca13 3.391351 1_545
Al0 Ca0 3.514930 1_545
Al0 Ca1 3.514930 1_555
Al0 Ca4 3.514974 1_555
Al0 Ca5 3.514974 1_545
Al0 Ca7 3.532852 1_555
Al0 Ca6 3.532852 1_545
Al1 Ca0 3.251894 1_555
Al1 Ca12 3.262739 1_455
Al1 Ca15 3.268316 1_555
Al1 Ca5 3.273275 1_555
Al1 Ca8 3.331543 1_455
Al1 Ca9 3.348223 1_545
Al1 Ca1 3.516312 1_555
Al1 Ca11 3.552113 1_555
Al1 Ca2 3.566921 1_555
Al1 Ca4 3.631550 1_455
Al2 Ca1 3.251894 1_555
Al2 Ca13 3.262739 1_655
Al2 Ca14 3.268316 1_555
Al2 Ca4 3.273275 1_555
Al2 Ca9 3.331543 1_655
Al2 Ca8 3.348223 1_565
Al2 Ca0 3.516312 1_555
Al2 Ca10 3.552113 1_555
Al2 Ca3 3.566921 1_555
Al2 Ca5 3.631550 1_655
Al3 Ca3 3.142766 1_554
Al3 Ca7 3.205867 1_564
Al3 Ca11 3.232022 1_554
Al3 Ca12 3.253530 1_565
Al3 Ca14 3.254513 1_555
Al3 Ca0 3.375849 1_554
Al3 Ca2 3.601859 1_665
Al3 Ca10 3.618450 1_555
Al3 Ca6 3.660992 1_555
Al3 Ca9 3.668192 1_655
Al4 Ca2 3.142766 1_556
Al4 Ca6 3.205867 1_546
Al4 Ca10 3.232022 1_556
Al4 Ca13 3.253530 1_545
Al4 Ca15 3.254513 1_555
Al4 Ca1 3.375849 1_556
Al4 Ca3 3.601859 1_445
Al4 Ca11 3.618450 1_555
Al4 Ca7 3.660992 1_555
Al4 Ca8 3.668192 1_455
