# generated using pymatgen
data_Be(GaS2)2
_symmetry_space_group_name_H-M   'P 1'
_cell_length_a   6.30438895
_cell_length_b   6.30438918
_cell_length_c   6.30438922
_cell_angle_alpha   132.32286703
_cell_angle_beta   132.32287135
_cell_angle_gamma   69.71956649
_symmetry_Int_Tables_number   1
_chemical_formula_structural   Be(GaS2)2
_chemical_formula_sum   'Be1 Ga2 S4'
_cell_volume   134.33981216
_cell_formula_units_Z   1
loop_
 _symmetry_equiv_pos_site_id
 _symmetry_equiv_pos_as_xyz
  1  'x, y, z'
loop_
 _atom_site_type_symbol
 _atom_site_label
 _atom_site_symmetry_multiplicity
 _atom_site_fract_x
 _atom_site_fract_y
 _atom_site_fract_z
 _atom_site_occupancy
  Be  Be0  1  0.00000000  0.00000000  0.00000000  1
  Ga  Ga0  1  0.50000000  0.50000000  0.00000000  1
  Ga  Ga1  1  0.25000000  0.75000000  0.50000000  1
  S  S0  1  0.10400914  0.63122235  0.98246037  1
  S  S1  1  0.87845024  0.89599086  0.52721321  1
  S  S2  1  0.36877765  0.35123802  0.47278679  1
  S  S3  1  0.64876198  0.12154976  0.01753963  1
loop_
_geom_bond_atom_site_label_1
_geom_bond_atom_site_label_2
_geom_bond_distance
_geom_bond_site_symmetry_2
Be0 S1 2.131208 1_444
Be0 S3 2.131211 1_455
Be0 S2 2.131211 1_555
Be0 S0 2.131211 1_544
Ga0 S3 2.291012 1_555
Ga0 S1 2.291015 1_555
Ga0 S0 2.291018 1_554
Ga0 S2 2.291018 1_554
Ga1 S2 2.279762 1_555
Ga1 S0 2.279762 1_554
Ga1 S3 2.279764 1_566
Ga1 S1 2.279767 1_455
