# generated using pymatgen
data_Rb6Li2Sn7Pb
_symmetry_space_group_name_H-M   'P 1'
_cell_length_a   8.83194180
_cell_length_b   8.86887542
_cell_length_c   10.47607631
_cell_angle_alpha   90.00000000
_cell_angle_beta   90.00000000
_cell_angle_gamma   131.65548537
_symmetry_Int_Tables_number   1
_chemical_formula_structural   Rb6Li2Sn7Pb
_chemical_formula_sum   'Rb6 Li2 Sn7 Pb1'
_cell_volume   613.10377792
_cell_formula_units_Z   1
loop_
 _symmetry_equiv_pos_site_id
 _symmetry_equiv_pos_as_xyz
  1  'x, y, z'
loop_
 _atom_site_type_symbol
 _atom_site_label
 _atom_site_symmetry_multiplicity
 _atom_site_fract_x
 _atom_site_fract_y
 _atom_site_fract_z
 _atom_site_occupancy
  Rb  Rb0  1  0.21931142  0.78577283  0.25000000  1
  Rb  Rb1  1  0.77786906  0.21574027  0.75000000  1
  Rb  Rb2  1  0.61535893  0.38764089  0.04227524  1
  Rb  Rb3  1  0.38716502  0.61551894  0.96292993  1
  Rb  Rb4  1  0.38716502  0.61551894  0.53707007  1
  Rb  Rb5  1  0.61535893  0.38764089  0.45772476  1
  Li  Li0  1  0.99849054  0.99597596  0.00227580  1
  Li  Li1  1  0.99849054  0.99597596  0.49772420  1
  Sn  Sn0  1  0.17400841  0.23854121  0.25000000  1
  Sn  Sn1  1  0.82477605  0.76245010  0.75000000  1
  Sn  Sn2  1  0.75891545  0.82734310  0.25000000  1
  Sn  Sn3  1  0.83801401  0.16530884  0.11142110  1
  Sn  Sn4  1  0.15694716  0.82831404  0.88826055  1
  Sn  Sn5  1  0.15694716  0.82831404  0.61173945  1
  Sn  Sn6  1  0.83801401  0.16530884  0.38857890  1
  Pb  Pb0  1  0.25316930  0.18463317  0.75000000  1
loop_
_geom_bond_atom_site_label_1
_geom_bond_atom_site_label_2
_geom_bond_distance
_geom_bond_site_symmetry_2
Rb0 Sn5 3.883699 1_555
Rb0 Sn4 3.883699 1_554
Rb1 Sn3 3.890235 1_556
Rb1 Sn6 3.890235 1_555
Rb1 Sn1 4.306663 1_545
Rb2 Sn3 3.665288 1_555
Rb2 Sn0 3.850532 1_555
Rb2 Sn2 3.870144 1_555
Rb2 Sn1 3.958937 1_554
Rb2 Sn4 3.988385 1_654
Rb2 Sn4 4.111584 1_544
Rb3 Sn4 3.661794 1_555
Rb3 Sn1 3.862238 1_555
Rb3 Sn2 3.892841 1_556
Rb3 Sn0 3.924239 1_556
Rb3 Sn3 4.017866 1_456
Rb3 Sn3 4.030074 1_566
Rb4 Sn5 3.661794 1_555
Rb4 Sn1 3.862238 1_555
Rb4 Sn2 3.892841 1_555
Rb4 Sn0 3.924239 1_555
Rb4 Sn6 4.017866 1_455
Rb4 Sn6 4.030074 1_565
Rb5 Sn6 3.665288 1_555
Rb5 Sn0 3.850532 1_555
Rb5 Sn2 3.870144 1_555
Rb5 Sn1 3.958937 1_555
Rb5 Sn5 3.988385 1_655
Rb5 Sn5 4.111584 1_545
Li0 Sn4 2.891809 1_654
Li0 Sn3 2.898450 1_565
Li0 Sn2 3.040099 1_555
Li0 Sn0 3.054990 1_665
Li0 Sn1 3.066618 1_554
Li0 Pb0 3.137007 1_664
Li1 Sn5 2.891809 1_655
Li1 Sn6 2.898450 1_565
Li1 Sn2 3.040099 1_555
Li1 Sn0 3.054990 1_665
Li1 Sn1 3.066618 1_555
Li1 Pb0 3.137007 1_665
Sn0 Sn6 2.961990 1_455
Sn0 Sn3 2.961990 1_455
Sn1 Sn4 2.961053 1_655
Sn1 Sn5 2.961053 1_655
Sn2 Sn6 2.965877 1_565
Sn2 Sn3 2.965877 1_565
Sn3 Sn6 2.903526 1_555
Pb0 Sn4 3.039202 1_545
Pb0 Sn5 3.039202 1_545
Pb0 Sn1 3.082715 1_445
Pb0 Rb3 3.868892 1_555
Pb0 Rb4 3.868892 1_555
Pb0 Rb2 3.897884 1_556
Pb0 Rb5 3.897884 1_555
