# generated using pymatgen
data_Sr2AgBrO2
_symmetry_space_group_name_H-M   'P 1'
_cell_length_a   10.25047382
_cell_length_b   10.25047426
_cell_length_c   10.25047473
_cell_angle_alpha   22.60995398
_cell_angle_beta   22.60994994
_cell_angle_gamma   22.60995004
_symmetry_Int_Tables_number   1
_chemical_formula_structural   Sr2AgBrO2
_chemical_formula_sum   'Sr2 Ag1 Br1 O2'
_cell_volume   139.65357610
_cell_formula_units_Z   1
loop_
 _symmetry_equiv_pos_site_id
 _symmetry_equiv_pos_as_xyz
  1  'x, y, z'
loop_
 _atom_site_type_symbol
 _atom_site_label
 _atom_site_symmetry_multiplicity
 _atom_site_fract_x
 _atom_site_fract_y
 _atom_site_fract_z
 _atom_site_occupancy
  Sr  Sr0  1  0.25646563  0.25646563  0.25646563  1
  Sr  Sr1  1  0.74353437  0.74353437  0.74353437  1
  Ag  Ag0  1  0.50000000  0.50000000  0.50000000  1
  Br  Br0  1  0.00000000  0.00000000  0.00000000  1
  O  O0  1  0.43215467  0.43215467  0.43215467  1
  O  O1  1  0.56784533  0.56784533  0.56784533  1
loop_
_geom_bond_atom_site_label_1
_geom_bond_atom_site_label_2
_geom_bond_distance
_geom_bond_site_symmetry_2
Ag0 O1 2.032188 1_555
Ag0 O0 2.032188 1_555
Br0 Sr1 3.268772 1_544
Br0 Sr0 3.268772 1_455
Br0 Sr1 3.268773 1_454
Br0 Sr0 3.268773 1_545
Br0 Sr1 3.268773 1_445
Br0 Sr0 3.268773 1_554
O0 Sr1 2.411653 1_455
O0 Sr1 2.411654 1_545
O0 Sr1 2.411654 1_554
O1 Sr0 2.411653 1_655
O1 Sr0 2.411654 1_565
O1 Sr0 2.411654 1_556
