# generated using pymatgen
data_CsAl3S5
_symmetry_space_group_name_H-M   'P 1'
_cell_length_a   12.80822195
_cell_length_b   6.94694258
_cell_length_c   10.81894040
_cell_angle_alpha   88.89192936
_cell_angle_beta   90.00000000
_cell_angle_gamma   90.00000000
_symmetry_Int_Tables_number   1
_chemical_formula_structural   CsAl3S5
_chemical_formula_sum   'Cs4 Al12 S20'
_cell_volume   962.46747158
_cell_formula_units_Z   4
loop_
 _symmetry_equiv_pos_site_id
 _symmetry_equiv_pos_as_xyz
  1  'x, y, z'
loop_
 _atom_site_type_symbol
 _atom_site_label
 _atom_site_symmetry_multiplicity
 _atom_site_fract_x
 _atom_site_fract_y
 _atom_site_fract_z
 _atom_site_occupancy
  Cs  Cs0  1  0.41520007  0.87074779  0.36117365  1
  Cs  Cs1  1  0.08479993  0.37074779  0.36117365  1
  Cs  Cs2  1  0.91520007  0.62925221  0.63882635  1
  Cs  Cs3  1  0.58479993  0.12925221  0.63882635  1
  Al  Al0  1  0.79969833  0.98386767  0.32797796  1
  Al  Al1  1  0.20030167  0.01613233  0.67202204  1
  Al  Al2  1  0.29969833  0.51613233  0.67202204  1
  Al  Al3  1  0.46318085  0.39796212  0.12656897  1
  Al  Al4  1  0.70030167  0.48386767  0.32797796  1
  Al  Al5  1  0.72398894  0.26695377  0.01444734  1
  Al  Al6  1  0.96318085  0.10203788  0.87343103  1
  Al  Al7  1  0.03681915  0.89796212  0.12656897  1
  Al  Al8  1  0.77601106  0.76695377  0.01444734  1
  Al  Al9  1  0.27601106  0.73304623  0.98555266  1
  Al  Al10  1  0.53681915  0.60203788  0.87343103  1
  Al  Al11  1  0.22398894  0.23304623  0.98555266  1
  S  S0  1  0.28469428  0.99955771  0.86226496  1
  S  S1  1  0.55309171  0.29271468  0.95583886  1
  S  S2  1  0.71530572  0.00044229  0.13773504  1
  S  S3  1  0.20253401  0.73695550  0.57136882  1
  S  S4  1  0.70253401  0.76304450  0.42863118  1
  S  S5  1  0.29746599  0.23695550  0.57136882  1
  S  S6  1  0.78469428  0.50044229  0.13773504  1
  S  S7  1  0.21530572  0.49955771  0.86226496  1
  S  S8  1  0.96392364  0.87792344  0.31060919  1
  S  S9  1  0.53607636  0.37792344  0.31060919  1
  S  S10  1  0.03607636  0.12207656  0.68939081  1
  S  S11  1  0.44690829  0.70728532  0.04416114  1
  S  S12  1  0.94690829  0.79271468  0.95583886  1
  S  S13  1  0.05309171  0.20728532  0.04416114  1
  S  S14  1  0.79746599  0.26304450  0.42863118  1
  S  S15  1  0.81249207  0.24980858  0.84155739  1
  S  S16  1  0.68750793  0.74980858  0.84155739  1
  S  S17  1  0.31249207  0.25019142  0.15844261  1
  S  S18  1  0.18750793  0.75019142  0.15844261  1
  S  S19  1  0.46392364  0.62207656  0.68939081  1
loop_
_geom_bond_atom_site_label_1
_geom_bond_atom_site_label_2
_geom_bond_distance
_geom_bond_site_symmetry_2
Cs0 S17 3.642255 1_565
Cs0 S11 3.656254 1_555
Cs0 S3 3.656924 1_555
Cs0 S18 3.753419 1_555
Cs0 S5 3.760486 1_565
Cs0 S9 3.806554 1_555
Cs0 S4 3.823019 1_555
Cs0 S9 3.877559 1_565
Cs0 S19 3.968098 1_555
Cs1 S18 3.642255 1_555
Cs1 S13 3.656254 1_555
Cs1 S5 3.656924 1_555
Cs1 S17 3.753419 1_555
Cs1 S3 3.760486 1_555
Cs1 S8 3.806554 1_445
Cs1 S14 3.823019 1_455
Cs1 S8 3.877559 1_455
Cs1 S10 3.968098 1_555
Cs2 S15 3.642255 1_555
Cs2 S12 3.656254 1_555
Cs2 S4 3.656924 1_555
Cs2 S16 3.753419 1_555
Cs2 S14 3.760486 1_555
Cs2 S10 3.806554 1_665
Cs2 S3 3.823019 1_655
Cs2 S10 3.877559 1_655
Cs2 S8 3.968098 1_555
Cs3 S16 3.642255 1_545
Cs3 S1 3.656254 1_555
Cs3 S14 3.656924 1_555
Cs3 S15 3.753419 1_555
Cs3 S4 3.760486 1_545
Cs3 S19 3.806554 1_555
Cs3 S5 3.823019 1_555
Cs3 S19 3.877559 1_545
Cs3 S9 3.968098 1_555
Al0 S8 2.237582 1_555
Al0 S4 2.241274 1_555
Al0 S14 2.242701 1_565
Al0 S2 2.325677 1_565
Al1 S10 2.237582 1_555
Al1 S5 2.241274 1_555
Al1 S3 2.242701 1_545
Al1 S0 2.325677 1_545
Al2 S19 2.237582 1_555
Al2 S3 2.241274 1_555
Al2 S5 2.242701 1_555
Al2 S7 2.325677 1_555
Al3 S9 2.201123 1_555
Al3 S17 2.210011 1_555
Al3 S1 2.307561 1_554
Al3 S11 2.319868 1_555
Al4 S9 2.237582 1_555
Al4 S14 2.241274 1_555
Al4 S4 2.242701 1_555
Al4 S6 2.325677 1_555
Al5 S15 2.192372 1_554
Al5 S6 2.257952 1_555
Al5 S2 2.263586 1_555
Al5 S1 2.284937 1_554
Al6 S10 2.201123 1_655
Al6 S15 2.210011 1_555
Al6 S13 2.307561 1_656
Al6 S12 2.319868 1_545
Al7 S8 2.201123 1_455
Al7 S18 2.210011 1_555
Al7 S12 2.307561 1_454
Al7 S13 2.319868 1_565
Al8 S16 2.192372 1_554
Al8 S2 2.257952 1_565
Al8 S6 2.263586 1_555
Al8 S12 2.284937 1_554
Al9 S18 2.192372 1_556
Al9 S7 2.257952 1_555
Al9 S0 2.263586 1_555
Al9 S11 2.284937 1_556
Al10 S19 2.201123 1_555
Al10 S16 2.210011 1_555
Al10 S11 2.307561 1_556
Al10 S1 2.319868 1_555
Al11 S17 2.192372 1_556
Al11 S0 2.257952 1_545
Al11 S7 2.263586 1_555
Al11 S13 2.284937 1_556
