# generated using pymatgen
data_Lu3HgN
_symmetry_space_group_name_H-M   'P 1'
_cell_length_a   4.62569090
_cell_length_b   4.62569090
_cell_length_c   4.62569090
_cell_angle_alpha   90.00000000
_cell_angle_beta   90.00000000
_cell_angle_gamma   90.00000000
_symmetry_Int_Tables_number   1
_chemical_formula_structural   Lu3HgN
_chemical_formula_sum   'Lu3 Hg1 N1'
_cell_volume   98.97598333
_cell_formula_units_Z   1
loop_
 _symmetry_equiv_pos_site_id
 _symmetry_equiv_pos_as_xyz
  1  'x, y, z'
loop_
 _atom_site_type_symbol
 _atom_site_label
 _atom_site_symmetry_multiplicity
 _atom_site_fract_x
 _atom_site_fract_y
 _atom_site_fract_z
 _atom_site_occupancy
  Lu  Lu0  1  0.50000000  0.50000000  0.00000000  1
  Lu  Lu1  1  0.50000000  0.00000000  0.50000000  1
  Lu  Lu2  1  0.00000000  0.50000000  0.50000000  1
  Hg  Hg0  1  0.00000000  0.00000000  0.00000000  1
  N  N0  1  0.50000000  0.50000000  0.50000000  1
loop_
_geom_bond_atom_site_label_1
_geom_bond_atom_site_label_2
_geom_bond_distance
_geom_bond_site_symmetry_2
Lu0 N0 2.312845 1_555
Lu0 N0 2.312845 1_554
Lu1 N0 2.312845 1_555
Lu1 N0 2.312845 1_545
Lu2 N0 2.312845 1_555
Lu2 N0 2.312845 1_455
Hg0 Lu2 3.270857 1_545
Hg0 Lu2 3.270857 1_555
Hg0 Lu0 3.270857 1_555
Hg0 Lu0 3.270857 1_545
Hg0 Lu1 3.270857 1_455
Hg0 Lu2 3.270857 1_544
Hg0 Lu0 3.270857 1_445
Hg0 Lu1 3.270857 1_554
Hg0 Lu1 3.270857 1_454
Hg0 Lu1 3.270857 1_555
Hg0 Lu2 3.270857 1_554
Hg0 Lu0 3.270857 1_455
