# generated using pymatgen
data_LiCaTa2O6F
_symmetry_space_group_name_H-M   'P 1'
_cell_length_a   7.39456821
_cell_length_b   7.39456821
_cell_length_c   7.39456821
_cell_angle_alpha   120.37095783
_cell_angle_beta   119.43479789
_cell_angle_gamma   90.17020934
_symmetry_Int_Tables_number   1
_chemical_formula_structural   LiCaTa2O6F
_chemical_formula_sum   'Li2 Ca2 Ta4 O12 F2'
_cell_volume   286.30066688
_cell_formula_units_Z   2
loop_
 _symmetry_equiv_pos_site_id
 _symmetry_equiv_pos_as_xyz
  1  'x, y, z'
loop_
 _atom_site_type_symbol
 _atom_site_label
 _atom_site_symmetry_multiplicity
 _atom_site_fract_x
 _atom_site_fract_y
 _atom_site_fract_z
 _atom_site_occupancy
  Li  Li0  1  0.00000000  0.50000000  0.00000000  1
  Li  Li1  1  0.00000000  0.00000000  0.50000000  1
  Ca  Ca0  1  0.00000000  0.50000000  0.50000000  1
  Ca  Ca1  1  0.50000000  0.50000000  0.00000000  1
  Ta  Ta0  1  0.00000000  0.00000000  0.00000000  1
  Ta  Ta1  1  0.50000000  0.50000000  0.50000000  1
  Ta  Ta2  1  0.50000000  0.00000000  0.00000000  1
  Ta  Ta3  1  0.50000000  0.00000000  0.50000000  1
  O  O0  1  0.81799400  0.07383900  0.13912400  1
  O  O1  1  0.81494400  0.06494400  0.75000000  1
  O  O2  1  0.81799400  0.67886900  0.74415500  1
  O  O3  1  0.43471500  0.07383900  0.75584500  1
  O  O4  1  0.56528500  0.32113100  0.63912400  1
  O  O5  1  0.57383700  0.32383700  0.25000000  1
  O  O6  1  0.43471500  0.67886900  0.36087600  1
  O  O7  1  0.42616300  0.67616300  0.75000000  1
  O  O8  1  0.56528500  0.92616100  0.24415500  1
  O  O9  1  0.18200600  0.32113100  0.25584500  1
  O  O10  1  0.18200600  0.92616100  0.86087600  1
  O  O11  1  0.18505600  0.93505600  0.25000000  1
  F  F0  1  0.11960700  0.36960700  0.75000000  1
  F  F1  1  0.88039300  0.63039300  0.25000000  1
loop_
_geom_bond_atom_site_label_1
_geom_bond_atom_site_label_2
_geom_bond_distance
_geom_bond_site_symmetry_2
Ca0 F1 2.308652 1_455
Ca0 F0 2.308652 1_555
Ca0 O9 2.608523 1_555
Ca0 O2 2.608523 1_455
Ca0 O10 2.608524 1_555
Ca0 O0 2.608524 1_455
Ca0 O7 2.619111 1_555
Ca0 O5 2.619111 1_455
Ca1 F1 2.308652 1_555
Ca1 F0 2.308652 1_554
Ca1 O3 2.608524 1_554
Ca1 O8 2.608524 1_555
Ca1 O4 2.608524 1_554
Ca1 O6 2.608524 1_555
Ca1 O7 2.619111 1_554
Ca1 O5 2.619111 1_555
O0 Ta2 1.983041 1_555
O0 Ta0 1.991234 1_655
O1 Ta0 1.983913 1_656
O1 Ta3 1.983913 1_555
O2 Ta1 1.983040 1_555
O2 Ta0 1.991239 1_666
O3 Ta2 1.983041 1_556
O3 Ta3 1.991234 1_555
O4 Ta1 1.983034 1_555
O4 Ta3 1.991241 1_555
O5 Ta1 1.993407 1_555
O5 Ta2 1.993407 1_555
O6 Ta1 1.983034 1_555
O6 Ta3 1.991241 1_565
O7 Ta2 1.993407 1_566
O7 Ta1 1.993407 1_555
O8 Ta2 1.983041 1_565
O8 Ta3 1.991234 1_565
O9 Ta1 1.983040 1_555
O9 Ta0 1.991239 1_555
O10 Ta2 1.983041 1_566
O10 Ta0 1.991234 1_566
O11 Ta0 1.983913 1_565
O11 Ta3 1.983913 1_565
F0 Li1 2.222398 1_555
F0 Li0 2.222398 1_556
F1 Li0 2.222398 1_655
F1 Li1 2.222398 1_665
