# generated using pymatgen
data_Y4ScGa2Hg
_symmetry_space_group_name_H-M   'P 1'
_cell_length_a   7.45802210
_cell_length_b   7.45802210
_cell_length_c   14.71446416
_cell_angle_alpha   90.00000000
_cell_angle_beta   90.00000000
_cell_angle_gamma   90.00000000
_symmetry_Int_Tables_number   1
_chemical_formula_structural   Y4ScGa2Hg
_chemical_formula_sum   'Y16 Sc4 Ga8 Hg4'
_cell_volume   818.44930318
_cell_formula_units_Z   4
loop_
 _symmetry_equiv_pos_site_id
 _symmetry_equiv_pos_as_xyz
  1  'x, y, z'
loop_
 _atom_site_type_symbol
 _atom_site_label
 _atom_site_symmetry_multiplicity
 _atom_site_fract_x
 _atom_site_fract_y
 _atom_site_fract_z
 _atom_site_occupancy
  Y  Y0  1  0.82886681  0.82666140  0.89256405  1
  Y  Y1  1  0.17333860  0.17113319  0.60743595  1
  Y  Y2  1  0.82886681  0.17333860  0.39256405  1
  Y  Y3  1  0.17113319  0.82666140  0.39256405  1
  Y  Y4  1  0.32666140  0.32886681  0.39256405  1
  Y  Y5  1  0.82666140  0.17113319  0.10743595  1
  Y  Y6  1  0.32666140  0.67113319  0.89256405  1
  Y  Y7  1  0.17333860  0.82886681  0.10743595  1
  Y  Y8  1  0.32886681  0.67333860  0.60743595  1
  Y  Y9  1  0.67113319  0.67333860  0.10743595  1
  Y  Y10  1  0.67113319  0.32666140  0.60743595  1
  Y  Y11  1  0.82666140  0.82886681  0.60743595  1
  Y  Y12  1  0.67333860  0.32886681  0.89256405  1
  Y  Y13  1  0.17113319  0.17333860  0.89256405  1
  Y  Y14  1  0.67333860  0.67113319  0.39256405  1
  Y  Y15  1  0.32886681  0.32666140  0.10743595  1
  Sc  Sc0  1  0.50000000  0.00000000  0.75159464  1
  Sc  Sc1  1  0.00000000  0.50000000  0.24840536  1
  Sc  Sc2  1  0.00000000  0.50000000  0.74840536  1
  Sc  Sc3  1  0.50000000  0.00000000  0.25159464  1
  Ga  Ga0  1  0.62433255  0.37566745  0.25000000  1
  Ga  Ga1  1  0.37566745  0.62433255  0.25000000  1
  Ga  Ga2  1  0.12433255  0.12433255  0.25000000  1
  Ga  Ga3  1  0.37566745  0.37566745  0.75000000  1
  Ga  Ga4  1  0.12433255  0.87566745  0.75000000  1
  Ga  Ga5  1  0.87566745  0.87566745  0.25000000  1
  Ga  Ga6  1  0.62433255  0.62433255  0.75000000  1
  Ga  Ga7  1  0.87566745  0.12433255  0.75000000  1
  Hg  Hg0  1  0.00000000  0.50000000  0.00125184  1
  Hg  Hg1  1  0.50000000  0.00000000  0.99874816  1
  Hg  Hg2  1  0.50000000  0.00000000  0.49874816  1
  Hg  Hg3  1  0.00000000  0.50000000  0.50125184  1
loop_
_geom_bond_atom_site_label_1
_geom_bond_atom_site_label_2
_geom_bond_distance
_geom_bond_site_symmetry_2
Ga0 Ga1 2.622729 1_555
Ga0 Sc3 2.951290 1_555
Ga0 Sc1 2.951290 1_655
Ga0 Y2 3.000746 1_555
Ga0 Y5 3.000746 1_555
Ga0 Y14 3.064304 1_555
Ga0 Y15 3.064304 1_555
Ga0 Y4 3.074243 1_555
Ga0 Y9 3.074243 1_555
Ga1 Sc1 2.951290 1_555
Ga1 Sc3 2.951290 1_565
Ga1 Y3 3.000746 1_555
Ga1 Y7 3.000746 1_555
Ga1 Y4 3.064304 1_555
Ga1 Y9 3.064304 1_555
Ga1 Y14 3.074243 1_555
Ga1 Y15 3.074243 1_555
Ga2 Ga5 2.622729 1_445
Ga2 Sc1 2.951290 1_555
Ga2 Sc3 2.951290 1_555
Ga2 Y4 3.000746 1_555
Ga2 Y15 3.000746 1_555
Ga2 Y2 3.064304 1_455
Ga2 Y7 3.064304 1_545
Ga2 Y3 3.074243 1_545
Ga2 Y5 3.074243 1_455
Ga3 Ga6 2.622729 1_555
Ga3 Sc0 2.951290 1_555
Ga3 Sc2 2.951290 1_555
Ga3 Y13 3.000746 1_555
Ga3 Y1 3.000746 1_555
Ga3 Y6 3.064304 1_555
Ga3 Y10 3.064304 1_555
Ga3 Y12 3.074243 1_555
Ga3 Y8 3.074243 1_555
Ga4 Ga7 2.622729 1_465
Ga4 Sc2 2.951290 1_555
Ga4 Sc0 2.951290 1_565
Ga4 Y6 3.000746 1_555
Ga4 Y8 3.000746 1_555
Ga4 Y0 3.064304 1_455
Ga4 Y1 3.064304 1_565
Ga4 Y13 3.074243 1_565
Ga4 Y11 3.074243 1_455
Ga5 Sc3 2.951290 1_565
Ga5 Sc1 2.951290 1_655
Ga5 Y14 3.000746 1_555
Ga5 Y9 3.000746 1_555
Ga5 Y3 3.064304 1_655
Ga5 Y5 3.064304 1_565
Ga5 Y2 3.074243 1_565
Ga5 Y7 3.074243 1_655
Ga6 Sc2 2.951290 1_655
Ga6 Sc0 2.951290 1_565
Ga6 Y0 3.000746 1_555
Ga6 Y11 3.000746 1_555
Ga6 Y12 3.064304 1_555
Ga6 Y8 3.064304 1_555
Ga6 Y6 3.074243 1_555
Ga6 Y10 3.074243 1_555
Ga7 Sc0 2.951290 1_555
Ga7 Sc2 2.951290 1_655
Ga7 Y12 3.000746 1_555
Ga7 Y10 3.000746 1_555
Ga7 Y13 3.064304 1_655
Ga7 Y11 3.064304 1_545
Ga7 Y0 3.074243 1_545
Ga7 Y1 3.074243 1_655
Hg0 Y6 3.181507 1_554
Hg0 Y0 3.181507 1_454
Hg0 Y13 3.181507 1_554
Hg0 Y12 3.181507 1_454
Hg0 Y7 3.182480 1_555
Hg0 Y15 3.182480 1_555
Hg0 Y9 3.182480 1_455
Hg0 Y5 3.182480 1_455
Hg1 Y5 3.181507 1_556
Hg1 Y15 3.181507 1_556
Hg1 Y9 3.181507 1_546
Hg1 Y7 3.181507 1_546
Hg1 Y12 3.182480 1_555
Hg1 Y0 3.182480 1_545
Hg1 Y13 3.182480 1_555
Hg1 Y6 3.182480 1_545
Hg2 Y10 3.181507 1_555
Hg2 Y11 3.181507 1_545
Hg2 Y1 3.181507 1_555
Hg2 Y8 3.181507 1_545
Hg2 Y2 3.182480 1_555
Hg2 Y4 3.182480 1_555
Hg2 Y14 3.182480 1_545
Hg2 Y3 3.182480 1_545
Hg3 Y3 3.181507 1_555
Hg3 Y4 3.181507 1_555
Hg3 Y14 3.181507 1_455
Hg3 Y2 3.181507 1_455
Hg3 Y8 3.182480 1_555
Hg3 Y11 3.182480 1_455
Hg3 Y1 3.182480 1_555
Hg3 Y10 3.182480 1_455
