# generated using pymatgen
data_Ca4ZnCuSi6
_symmetry_space_group_name_H-M   'P 1'
_cell_length_a   8.23632031
_cell_length_b   8.06181601
_cell_length_c   5.94620048
_cell_angle_alpha   70.17653752
_cell_angle_beta   67.04483020
_cell_angle_gamma   42.77863029
_symmetry_Int_Tables_number   1
_chemical_formula_structural   Ca4ZnCuSi6
_chemical_formula_sum   'Ca4 Zn1 Cu1 Si6'
_cell_volume   246.03434617
_cell_formula_units_Z   1
loop_
 _symmetry_equiv_pos_site_id
 _symmetry_equiv_pos_as_xyz
  1  'x, y, z'
loop_
 _atom_site_type_symbol
 _atom_site_label
 _atom_site_symmetry_multiplicity
 _atom_site_fract_x
 _atom_site_fract_y
 _atom_site_fract_z
 _atom_site_occupancy
  Ca  Ca0  1  0.74851098  0.74851098  0.75148902  1
  Ca  Ca1  1  0.75625490  0.24645999  0.75354001  1
  Ca  Ca2  1  0.24851098  0.24851098  0.25148902  1
  Ca  Ca3  1  0.24645999  0.75625490  0.24374510  1
  Zn  Zn0  1  0.33368045  0.33368045  0.66631955  1
  Cu  Cu0  1  0.66660849  0.66660849  0.33339151  1
  Si  Si0  1  0.82784107  0.34231070  0.17215893  1
  Si  Si1  1  0.66990487  0.16569910  0.33009513  1
  Si  Si2  1  0.16569910  0.66990487  0.83430090  1
  Si  Si3  1  0.34231070  0.82784107  0.65768930  1
  Si  Si4  1  0.16399401  0.16399401  0.83600599  1
  Si  Si5  1  0.83022445  0.83022445  0.16977555  1
loop_
_geom_bond_atom_site_label_1
_geom_bond_atom_site_label_2
_geom_bond_distance
_geom_bond_site_symmetry_2
Ca0 Si0 3.160026 1_556
Ca0 Si3 3.160026 1_555
Ca0 Si5 3.184492 1_555
Ca0 Si5 3.184492 1_556
Ca0 Cu0 3.185439 1_556
Ca0 Cu0 3.185439 1_555
Ca0 Si4 3.198726 1_565
Ca0 Si4 3.198726 1_655
Ca0 Zn0 3.202098 1_655
Ca0 Zn0 3.202098 1_565
Ca0 Si1 3.219081 1_565
Ca0 Si2 3.219081 1_655
Ca1 Si4 3.121913 1_655
Ca1 Si1 3.153886 1_556
Ca1 Si2 3.153887 1_645
Ca1 Si0 3.187907 1_555
Ca1 Si3 3.187908 1_555
Ca1 Si0 3.202971 1_556
Ca1 Si3 3.202972 1_645
Ca1 Cu0 3.207435 1_555
Ca1 Si5 3.209233 1_546
Ca1 Zn0 3.231887 1_555
Ca1 Si1 3.233871 1_555
Ca1 Si2 3.233871 1_555
Ca2 Si3 3.160026 1_545
Ca2 Si0 3.160026 1_455
Ca2 Si5 3.184493 1_545
Ca2 Si5 3.184493 1_455
Ca2 Cu0 3.185439 1_455
Ca2 Cu0 3.185440 1_545
Ca2 Si4 3.198725 1_555
Ca2 Si4 3.198725 1_554
Ca2 Zn0 3.202097 1_554
Ca2 Zn0 3.202097 1_555
Ca2 Si2 3.219081 1_554
Ca2 Si1 3.219081 1_555
Ca3 Si4 3.121913 1_564
Ca3 Si2 3.153886 1_554
Ca3 Si1 3.153887 1_465
Ca3 Si3 3.187907 1_555
Ca3 Si0 3.187908 1_555
Ca3 Si3 3.202971 1_554
Ca3 Si0 3.202972 1_465
Ca3 Cu0 3.207435 1_555
Ca3 Si5 3.209233 1_455
Ca3 Zn0 3.231886 1_555
Ca3 Si2 3.233870 1_555
Ca3 Si1 3.233871 1_555
Cu0 Si3 2.264561 1_555
Cu0 Si0 2.264561 1_555
Cu0 Si5 2.284451 1_555
Si0 Si1 2.336737 1_555
Si0 Si4 2.348811 1_654
Si1 Si5 2.343344 1_545
Si1 Zn0 2.347834 1_555
Si2 Si3 2.336737 1_555
Si2 Si5 2.343344 1_456
Si2 Zn0 2.347834 1_555
Si3 Si4 2.348811 1_565
Si4 Zn0 2.369208 1_555
