# generated using pymatgen
data_Na2AgAu3
_symmetry_space_group_name_H-M   'P 1'
_cell_length_a   5.55359906
_cell_length_b   5.55202831
_cell_length_c   5.55359922
_cell_angle_alpha   59.99064551
_cell_angle_beta   60.00000480
_cell_angle_gamma   59.99065044
_symmetry_Int_Tables_number   1
_chemical_formula_structural   Na2AgAu3
_chemical_formula_sum   'Na2 Ag1 Au3'
_cell_volume   121.06659918
_cell_formula_units_Z   1
loop_
 _symmetry_equiv_pos_site_id
 _symmetry_equiv_pos_as_xyz
  1  'x, y, z'
loop_
 _atom_site_type_symbol
 _atom_site_label
 _atom_site_symmetry_multiplicity
 _atom_site_fract_x
 _atom_site_fract_y
 _atom_site_fract_z
 _atom_site_occupancy
  Na  Na0  1  0.74807512  0.75577464  0.74807512  1
  Na  Na1  1  0.50192488  0.49422536  0.50192488  1
  Ag  Ag0  1  0.12500000  0.62500000  0.12500000  1
  Au  Au0  1  0.12500000  0.12500000  0.62500000  1
  Au  Au1  1  0.62500000  0.12500000  0.12500000  1
  Au  Au2  1  0.12500000  0.12500000  0.12500000  1
loop_
_geom_bond_atom_site_label_1
_geom_bond_atom_site_label_2
_geom_bond_distance
_geom_bond_site_symmetry_2
Na0 Na1 3.347080 1_565
Na0 Na1 3.418510 1_555
Na0 Na1 3.418510 1_556
Na0 Na1 3.418510 1_655
Ag0 Au2 2.776014 1_565
Ag0 Au2 2.776014 1_555
Ag0 Au0 2.776014 1_564
Ag0 Au0 2.776014 1_555
Ag0 Au1 2.776015 1_555
Ag0 Au1 2.776015 1_465
Ag0 Na1 3.260701 1_555
Ag0 Na0 3.260701 1_454
Ag0 Na0 3.260701 1_554
Ag0 Na1 3.260701 1_455
Ag0 Na0 3.260701 1_455
Ag0 Na1 3.260701 1_554
Au0 Au2 2.776800 1_556
Au0 Au2 2.776800 1_555
Au0 Au1 2.776800 1_555
Au0 Au1 2.776800 1_456
Au0 Na1 3.242121 1_555
Au0 Na0 3.242121 1_445
Au0 Na0 3.242122 1_545
Au0 Na1 3.242122 1_455
Au0 Na0 3.277844 1_455
Au0 Na1 3.277844 1_545
Au1 Au2 2.776800 1_555
Au1 Au2 2.776800 1_655
Au1 Na1 3.242122 1_555
Au1 Na0 3.242122 1_544
Au1 Na0 3.242122 1_545
Au1 Na1 3.242122 1_554
Au1 Na0 3.277844 1_554
Au1 Na1 3.277844 1_545
Au2 Na1 3.242122 1_554
Au2 Na0 3.242122 1_445
Au2 Na1 3.242122 1_455
Au2 Na0 3.242122 1_544
Au2 Na1 3.277844 1_545
Au2 Na0 3.277844 1_454
