# generated using pymatgen
data_InSb3(SeO3)8
_symmetry_space_group_name_H-M   'P 1'
_cell_length_a   8.28789086
_cell_length_b   8.44627563
_cell_length_c   8.30744031
_cell_angle_alpha   89.64622491
_cell_angle_beta   90.14145875
_cell_angle_gamma   89.92234008
_symmetry_Int_Tables_number   1
_chemical_formula_structural   InSb3(SeO3)8
_chemical_formula_sum   'In1 Sb3 Se8 O24'
_cell_volume   581.52245900
_cell_formula_units_Z   1
loop_
 _symmetry_equiv_pos_site_id
 _symmetry_equiv_pos_as_xyz
  1  'x, y, z'
loop_
 _atom_site_type_symbol
 _atom_site_label
 _atom_site_symmetry_multiplicity
 _atom_site_fract_x
 _atom_site_fract_y
 _atom_site_fract_z
 _atom_site_occupancy
  In  In0  1  0.00000000  0.50000000  0.00000000  1
  Sb  Sb0  1  0.50000000  0.50000000  0.50000000  1
  Sb  Sb1  1  0.00000000  0.00000000  0.50000000  1
  Sb  Sb2  1  0.50000000  0.00000000  0.00000000  1
  Se  Se0  1  0.33326369  0.67340184  0.14621911  1
  Se  Se1  1  0.85460741  0.32740528  0.33239028  1
  Se  Se2  1  0.67784418  0.85017782  0.67692909  1
  Se  Se3  1  0.17680047  0.16453611  0.82319101  1
  Se  Se4  1  0.66673631  0.32659816  0.85378089  1
  Se  Se5  1  0.14539259  0.67259472  0.66760972  1
  Se  Se6  1  0.32215582  0.14982218  0.32307091  1
  Se  Se7  1  0.82319953  0.83546389  0.17680899  1
  O  O0  1  0.25049169  0.55223669  0.00839927  1
  O  O1  1  0.76155907  0.44767276  0.46328742  1
  O  O2  1  0.76405276  0.99215434  0.54842247  1
  O  O3  1  0.26394370  0.02732561  0.95684178  1
  O  O4  1  0.54278942  0.98459427  0.76435043  1
  O  O5  1  0.46637981  0.55298210  0.23866747  1
  O  O6  1  0.99428008  0.44816883  0.25085772  1
  O  O7  1  0.04807109  0.02570183  0.73454179  1
  O  O8  1  0.98932981  0.23057872  0.47184174  1
  O  O9  1  0.55491087  0.76121656  0.54761829  1
  O  O10  1  0.47324424  0.76918678  0.01377494  1
  O  O11  1  0.04759966  0.24947297  0.94813098  1
  O  O12  1  0.74950831  0.44776331  0.99160073  1
  O  O13  1  0.23844093  0.55232724  0.53671258  1
  O  O14  1  0.23594724  0.00784566  0.45157753  1
  O  O15  1  0.73605630  0.97267439  0.04315822  1
  O  O16  1  0.45721058  0.01540573  0.23564957  1
  O  O17  1  0.53362019  0.44701790  0.76133253  1
  O  O18  1  0.00571992  0.55183117  0.74914228  1
  O  O19  1  0.95192891  0.97429817  0.26545821  1
  O  O20  1  0.01067019  0.76942128  0.52815826  1
  O  O21  1  0.44508913  0.23878344  0.45238171  1
  O  O22  1  0.52675576  0.23081322  0.98622506  1
  O  O23  1  0.95240034  0.75052703  0.05186902  1
loop_
_geom_bond_atom_site_label_1
_geom_bond_atom_site_label_2
_geom_bond_distance
_geom_bond_site_symmetry_2
In0 O0 2.124065 1_555
In0 O12 2.124065 1_454
In0 O6 2.127480 1_455
In0 O18 2.127480 1_554
In0 O11 2.197426 1_554
In0 O23 2.197426 1_455
O0 Se0 1.685615 1_555
O1 Se1 1.680692 1_555
O1 Sb0 2.233814 1_555
O2 Se2 1.754558 1_555
O2 Sb1 1.998528 1_665
O3 Se3 1.753668 1_555
O3 Sb2 2.000910 1_556
O4 Se2 1.754996 1_555
O4 Sb2 1.995374 1_566
O5 Se0 1.680661 1_555
O5 Sb0 2.230658 1_555
O6 Se1 1.684558 1_555
O7 Se3 1.750961 1_555
O7 Sb1 2.000976 1_555
O8 Se1 1.799188 1_555
O8 Sb1 1.961944 1_655
O9 Se2 1.662316 1_555
O9 Sb0 2.289979 1_555
O10 Se0 1.791343 1_555
O10 Sb2 1.965046 1_565
O11 Se3 1.658669 1_555
O12 Se4 1.685615 1_555
O13 Se5 1.680692 1_555
O13 Sb0 2.233814 1_555
O14 Se6 1.754558 1_555
O14 Sb1 1.998528 1_555
O15 Se7 1.753668 1_555
O15 Sb2 2.000910 1_565
O16 Se6 1.754996 1_555
O16 Sb2 1.995374 1_555
O17 Se4 1.680661 1_555
O17 Sb0 2.230658 1_555
O18 Se5 1.684558 1_555
O19 Se7 1.750961 1_555
O19 Sb1 2.000976 1_665
O20 Se5 1.799188 1_555
O20 Sb1 1.961944 1_565
O21 Se6 1.662316 1_555
O21 Sb0 2.289979 1_555
O22 Se4 1.791343 1_555
O22 Sb2 1.965046 1_556
O23 Se7 1.658669 1_555
