# generated using pymatgen
data_Sc7PI12
_symmetry_space_group_name_H-M   'P 1'
_cell_length_a   9.31960909
_cell_length_b   9.31960917
_cell_length_c   9.31960940
_cell_angle_alpha   107.79877191
_cell_angle_beta   107.79876787
_cell_angle_gamma   107.79877387
_symmetry_Int_Tables_number   1
_chemical_formula_structural   Sc7PI12
_chemical_formula_sum   'Sc7 P1 I12'
_cell_volume   658.88196778
_cell_formula_units_Z   1
loop_
 _symmetry_equiv_pos_site_id
 _symmetry_equiv_pos_as_xyz
  1  'x, y, z'
loop_
 _atom_site_type_symbol
 _atom_site_label
 _atom_site_symmetry_multiplicity
 _atom_site_fract_x
 _atom_site_fract_y
 _atom_site_fract_z
 _atom_site_occupancy
  Sc  Sc0  1  0.50000000  0.50000000  0.50000000  1
  Sc  Sc1  1  0.97176251  0.90480058  0.70786975  1
  Sc  Sc2  1  0.70786975  0.97176251  0.90480058  1
  Sc  Sc3  1  0.90480058  0.70786975  0.97176251  1
  Sc  Sc4  1  0.02823749  0.09519942  0.29213025  1
  Sc  Sc5  1  0.29213025  0.02823749  0.09519942  1
  Sc  Sc6  1  0.09519942  0.29213025  0.02823749  1
  P  P0  1  0.00000000  0.00000000  0.00000000  1
  I  I0  1  0.07562883  0.22429346  0.68958002  1
  I  I1  1  0.68958002  0.07562883  0.22429346  1
  I  I2  1  0.22429346  0.68958002  0.07562883  1
  I  I3  1  0.92437117  0.77570654  0.31041998  1
  I  I4  1  0.31041998  0.92437117  0.77570654  1
  I  I5  1  0.77570654  0.31041998  0.92437117  1
  I  I6  1  0.61597562  0.84473079  0.54026248  1
  I  I7  1  0.54026248  0.61597562  0.84473079  1
  I  I8  1  0.84473079  0.54026248  0.61597562  1
  I  I9  1  0.38402438  0.15526921  0.45973752  1
  I  I10  1  0.45973752  0.38402438  0.15526921  1
  I  I11  1  0.15526921  0.45973752  0.38402438  1
loop_
_geom_bond_atom_site_label_1
_geom_bond_atom_site_label_2
_geom_bond_distance
_geom_bond_site_symmetry_2
P0 Sc6 2.492222 1_555
P0 Sc3 2.492222 1_444
P0 Sc5 2.492222 1_555
P0 Sc2 2.492222 1_444
P0 Sc4 2.492223 1_555
P0 Sc1 2.492223 1_444
I0 Sc1 2.912207 1_445
I0 Sc6 2.958377 1_556
I0 Sc4 3.363524 1_555
I1 Sc2 2.912207 1_544
I1 Sc4 2.958377 1_655
I1 Sc5 3.363524 1_555
I2 Sc3 2.912207 1_454
I2 Sc5 2.958377 1_565
I2 Sc6 3.363524 1_555
I3 Sc4 2.912207 1_665
I3 Sc3 2.958377 1_554
I3 Sc1 3.363524 1_555
I4 Sc5 2.912207 1_566
I4 Sc1 2.958377 1_455
I4 Sc2 3.363524 1_555
I5 Sc6 2.912207 1_656
I5 Sc2 2.958377 1_545
I5 Sc3 3.363524 1_555
I6 Sc0 2.919414 1_555
I6 Sc2 2.969772 1_555
I6 Sc1 2.985297 1_555
I7 Sc0 2.919414 1_555
I7 Sc3 2.969772 1_555
I7 Sc2 2.985297 1_555
I8 Sc0 2.919414 1_555
I8 Sc1 2.969772 1_555
I8 Sc3 2.985297 1_555
I9 Sc0 2.919414 1_555
I9 Sc5 2.969772 1_555
I9 Sc4 2.985297 1_555
I10 Sc0 2.919414 1_555
I10 Sc6 2.969772 1_555
I10 Sc5 2.985297 1_555
I11 Sc0 2.919414 1_555
I11 Sc4 2.969772 1_555
I11 Sc6 2.985297 1_555
