# generated using pymatgen
data_Hf3Nb3Al16Ir7
_symmetry_space_group_name_H-M   'P 1'
_cell_length_a   8.58197116
_cell_length_b   8.60117090
_cell_length_c   8.61997013
_cell_angle_alpha   59.78026611
_cell_angle_beta   60.00105914
_cell_angle_gamma   60.21867903
_symmetry_Int_Tables_number   1
_chemical_formula_structural   Hf3Nb3Al16Ir7
_chemical_formula_sum   'Hf3 Nb3 Al16 Ir7'
_cell_volume   449.90693842
_cell_formula_units_Z   1
loop_
 _symmetry_equiv_pos_site_id
 _symmetry_equiv_pos_as_xyz
  1  'x, y, z'
loop_
 _atom_site_type_symbol
 _atom_site_label
 _atom_site_symmetry_multiplicity
 _atom_site_fract_x
 _atom_site_fract_y
 _atom_site_fract_z
 _atom_site_occupancy
  Hf  Hf0  1  0.68498117  0.31501883  0.68498117  1
  Hf  Hf1  1  0.31608461  0.31594482  0.68405518  1
  Hf  Hf2  1  0.68405518  0.68391539  0.31608461  1
  Nb  Nb0  1  0.67977381  0.32022619  0.31967476  1
  Nb  Nb1  1  0.31967476  0.68032524  0.67977381  1
  Nb  Nb2  1  0.32338456  0.67661544  0.32338456  1
  Al  Al0  1  0.33829759  0.33934408  0.33619193  1
  Al  Al1  1  0.65931157  0.66362728  0.66264920  1
  Al  Al2  1  0.33637272  0.34068843  0.98558804  1
  Al  Al3  1  0.33619193  0.98616740  0.33829759  1
  Al  Al4  1  0.66065592  0.66170241  0.01383260  1
  Al  Al5  1  0.66264920  0.01441196  0.65931157  1
  Al  Al6  1  0.98558804  0.33735080  0.33637272  1
  Al  Al7  1  0.01383260  0.66380807  0.66065592  1
  Al  Al8  1  0.11901732  0.11847442  0.12132594  1
  Al  Al9  1  0.88200137  0.87855482  0.87868959  1
  Al  Al10  1  0.12144518  0.11799863  0.63924579  1
  Al  Al11  1  0.12132594  0.64118232  0.11901732  1
  Al  Al12  1  0.88152558  0.88098268  0.35881768  1
  Al  Al13  1  0.87868959  0.36075421  0.88200137  1
  Al  Al14  1  0.63924579  0.12131041  0.12144518  1
  Al  Al15  1  0.35881768  0.87867406  0.88152558  1
  Ir  Ir0  1  0.49985118  0.99980747  0.00019253  1
  Ir  Ir1  1  0.00019253  0.50014882  0.49985118  1
  Ir  Ir2  1  0.99863441  0.50136559  0.99863441  1
  Ir  Ir3  1  0.49863441  0.00136559  0.49863441  1
  Ir  Ir4  1  0.00108987  0.99891013  0.49957627  1
  Ir  Ir5  1  0.49957627  0.50042373  0.00108987  1
  Ir  Ir6  1  0.99910023  0.00089977  0.99910023  1
loop_
_geom_bond_atom_site_label_1
_geom_bond_atom_site_label_2
_geom_bond_distance
_geom_bond_site_symmetry_2
Hf0 Ir1 3.131165 1_655
Hf0 Ir0 3.131165 1_546
Hf0 Nb1 3.149051 1_555
Hf0 Nb0 3.149051 1_555
Hf0 Ir4 3.165068 1_645
Hf0 Ir5 3.165068 1_556
Hf0 Hf1 3.165905 1_555
Hf0 Hf2 3.165905 1_555
Hf1 Nb2 3.095624 1_555
Hf1 Nb1 3.131012 1_555
Hf1 Nb0 3.131012 1_555
Hf1 Ir0 3.144139 1_546
Hf1 Ir1 3.144218 1_555
Hf1 Ir3 3.157314 1_555
Hf1 Ir2 3.157314 1_455
Hf2 Nb2 3.095623 1_555
Hf2 Nb0 3.131012 1_555
Hf2 Nb1 3.131012 1_555
Hf2 Ir1 3.144138 1_655
Hf2 Ir0 3.144218 1_555
Hf2 Ir3 3.157314 1_565
Hf2 Ir2 3.157314 1_554
Nb0 Nb2 3.072373 1_555
Nb1 Nb2 3.072373 1_555
Al0 Ir5 2.461199 1_555
Al0 Ir3 2.482005 1_555
Al0 Ir1 2.491324 1_555
Al0 Al11 2.739154 1_555
Al0 Al14 2.741588 1_555
Al0 Al10 2.750265 1_555
Al0 Nb0 2.786218 1_555
Al0 Nb2 2.786913 1_555
Al0 Hf1 2.815543 1_555
Al0 Al2 3.024669 1_554
Al0 Al6 3.034714 1_455
Al0 Al3 3.037627 1_545
Al1 Ir5 2.480065 1_556
Al1 Ir3 2.484951 1_565
Al1 Ir1 2.509873 1_655
Al1 Al15 2.745987 1_555
Al1 Al12 2.758544 1_555
Al1 Al13 2.763208 1_555
Al1 Nb1 2.777310 1_555
Al1 Hf2 2.806718 1_555
Al1 Hf0 2.807389 1_555
Al1 Al5 3.017042 1_565
Al1 Al4 3.024661 1_556
Al1 Al7 3.034705 1_655
Al2 Ir5 2.480065 1_556
Al2 Ir2 2.484951 1_455
Al2 Ir0 2.509873 1_546
Al2 Al8 2.758544 1_556
Al2 Nb1 2.777310 1_555
Al2 Hf1 2.806718 1_555
Al2 Hf0 2.807389 1_555
Al2 Al6 3.017042 1_456
Al2 Al3 3.034710 1_546
Al3 Ir4 2.461201 1_555
Al3 Ir3 2.482000 1_565
Al3 Ir0 2.491326 1_555
Al3 Al8 2.739156 1_565
Al3 Nb1 2.786222 1_555
Al3 Nb2 2.786922 1_555
Al3 Hf2 2.815547 1_555
Al3 Al6 3.024665 1_465
Al4 Ir5 2.461194 1_555
Al4 Ir2 2.482007 1_554
Al4 Ir0 2.491326 1_555
Al4 Al9 2.750267 1_554
Al4 Nb0 2.786222 1_555
Al4 Nb2 2.786917 1_555
Al4 Hf2 2.815552 1_555
Al4 Al5 3.034710 1_564
Al4 Al7 3.037627 1_654
Al5 Ir4 2.480065 1_645
Al5 Ir3 2.484951 1_555
Al5 Ir0 2.509873 1_546
Al5 Al9 2.763208 1_545
Al5 Nb0 2.777310 1_555
Al5 Hf1 2.806717 1_555
Al5 Hf0 2.807389 1_555
Al5 Al7 3.024665 1_645
Al6 Ir4 2.480065 1_645
Al6 Ir2 2.484952 1_554
Al6 Ir1 2.509873 1_655
Al6 Al8 2.745987 1_655
Al6 Nb0 2.777310 1_555
Al6 Hf2 2.806717 1_555
Al6 Hf0 2.807390 1_555
Al7 Ir4 2.461201 1_555
Al7 Ir2 2.482008 1_455
Al7 Ir1 2.491319 1_555
Al7 Al9 2.741590 1_455
Al7 Nb1 2.786226 1_555
Al7 Nb2 2.786917 1_555
Al7 Hf1 2.815547 1_555
Al8 Ir6 2.526348 1_454
Al8 Ir4 2.659251 1_545
Al8 Ir0 2.675885 1_545
Al8 Ir2 2.690421 1_454
Al8 Hf1 3.160213 1_554
Al8 Nb0 3.191859 1_455
Al8 Nb2 3.212998 1_545
Al9 Ir6 2.527367 1_565
Al9 Ir2 2.651153 1_555
Al9 Ir4 2.664846 1_655
Al9 Ir0 2.684670 1_556
Al9 Hf0 3.154026 1_565
Al9 Hf2 3.157600 1_556
Al9 Nb1 3.177462 1_655
Al10 Ir6 2.527367 1_455
Al10 Ir3 2.651153 1_555
Al10 Ir4 2.664846 1_545
Al10 Ir1 2.684671 1_555
Al10 Al3 2.741583 1_545
Al10 Al6 2.763208 1_455
Al10 Al9 2.899673 1_445
Al10 Al15 2.917178 1_545
Al10 Al13 2.965869 1_455
Al10 Hf0 3.154026 1_455
Al10 Hf1 3.157600 1_555
Al10 Nb1 3.177462 1_545
Al11 Ir6 2.526348 1_464
Al11 Ir5 2.659251 1_555
Al11 Ir1 2.675885 1_555
Al11 Ir2 2.690421 1_454
Al11 Al2 2.745987 1_554
Al11 Al6 2.758544 1_455
Al11 Al15 2.876034 1_554
Al11 Al9 2.917178 1_454
Al11 Al12 2.929763 1_455
Al11 Hf2 3.160213 1_455
Al11 Nb1 3.191859 1_554
Al11 Nb2 3.212998 1_555
Al12 Ir6 2.526348 1_564
Al12 Ir4 2.659251 1_655
Al12 Ir1 2.675885 1_655
Al12 Ir3 2.690421 1_565
Al12 Al7 2.739149 1_655
Al12 Al5 2.745987 1_565
Al12 Al8 2.876034 1_665
Al12 Al14 2.917178 1_565
Al12 Hf2 3.160213 1_555
Al12 Nb0 3.191859 1_565
Al12 Nb2 3.212998 1_655
Al13 Ir6 2.527367 1_555
Al13 Ir2 2.651153 1_555
Al13 Ir5 2.664846 1_556
Al13 Ir1 2.684671 1_655
Al13 Al4 2.741583 1_556
Al13 Al7 2.750260 1_655
Al13 Al14 2.899673 1_556
Al13 Al8 2.917178 1_656
Al13 Hf0 3.154026 1_555
Al13 Hf1 3.157600 1_655
Al13 Nb0 3.177462 1_556
Al14 Ir6 2.527367 1_554
Al14 Ir3 2.651153 1_555
Al14 Ir5 2.664846 1_555
Al14 Ir0 2.684671 1_545
Al14 Al3 2.750260 1_545
Al14 Al2 2.763208 1_554
Al14 Al9 2.965869 1_544
Al14 Hf0 3.154027 1_554
Al14 Hf2 3.157600 1_545
Al14 Nb0 3.177462 1_555
Al15 Ir6 2.526348 1_465
Al15 Ir5 2.659251 1_556
Al15 Ir0 2.675885 1_556
Al15 Ir3 2.690421 1_565
Al15 Al4 2.739149 1_556
Al15 Al5 2.758544 1_565
Al15 Al8 2.929763 1_566
Al15 Hf1 3.160213 1_565
Al15 Nb1 3.191859 1_555
Al15 Nb2 3.212998 1_556
Ir0 Nb2 3.154294 1_555
Ir1 Nb2 3.154294 1_555
Ir2 Nb1 3.145849 1_655
Ir2 Nb0 3.145849 1_556
Ir3 Nb0 3.145849 1_555
Ir3 Nb1 3.145849 1_545
Ir4 Nb1 3.149036 1_555
Ir4 Nb0 3.168296 1_465
Ir4 Nb2 3.172121 1_555
Ir5 Nb0 3.149036 1_555
Ir5 Nb1 3.168296 1_554
Ir5 Nb2 3.172121 1_555
