# generated using pymatgen
data_Ba2Tl7Au
_symmetry_space_group_name_H-M   'P 1'
_cell_length_a   5.31957000
_cell_length_b   10.77623400
_cell_length_c   22.48820600
_cell_angle_alpha   90.00000000
_cell_angle_beta   90.00000000
_cell_angle_gamma   90.00000000
_symmetry_Int_Tables_number   1
_chemical_formula_structural   Ba2Tl7Au
_chemical_formula_sum   'Ba8 Tl28 Au4'
_cell_volume   1289.13485950
_cell_formula_units_Z   4
loop_
 _symmetry_equiv_pos_site_id
 _symmetry_equiv_pos_as_xyz
  1  'x, y, z'
loop_
 _atom_site_type_symbol
 _atom_site_label
 _atom_site_symmetry_multiplicity
 _atom_site_fract_x
 _atom_site_fract_y
 _atom_site_fract_z
 _atom_site_occupancy
  Ba  Ba0  1  0.25000000  0.75101500  0.45890500  1
  Ba  Ba1  1  0.75000000  0.24898500  0.54109500  1
  Ba  Ba2  1  0.75000000  0.25101500  0.04109500  1
  Ba  Ba3  1  0.25000000  0.74898500  0.95890500  1
  Ba  Ba4  1  0.25000000  0.99611500  0.78934400  1
  Ba  Ba5  1  0.75000000  0.00388500  0.21065600  1
  Ba  Ba6  1  0.75000000  0.49611500  0.71065600  1
  Ba  Ba7  1  0.25000000  0.50388500  0.28934400  1
  Tl  Tl0  1  0.25000000  0.47486000  0.10250600  1
  Tl  Tl1  1  0.75000000  0.52514000  0.89749400  1
  Tl  Tl2  1  0.75000000  0.97486000  0.39749400  1
  Tl  Tl3  1  0.25000000  0.02514000  0.60250600  1
  Tl  Tl4  1  0.75000000  0.64741100  0.20145300  1
  Tl  Tl5  1  0.25000000  0.35258900  0.79854700  1
  Tl  Tl6  1  0.25000000  0.14741100  0.29854700  1
  Tl  Tl7  1  0.75000000  0.85258900  0.70145300  1
  Tl  Tl8  1  0.75000000  0.60054000  0.05165600  1
  Tl  Tl9  1  0.25000000  0.39946000  0.94834400  1
  Tl  Tl10  1  0.25000000  0.10054000  0.44834400  1
  Tl  Tl11  1  0.75000000  0.89946000  0.55165600  1
  Tl  Tl12  1  0.25000000  0.84951400  0.29752700  1
  Tl  Tl13  1  0.75000000  0.15048600  0.70247300  1
  Tl  Tl14  1  0.75000000  0.34951400  0.20247300  1
  Tl  Tl15  1  0.25000000  0.65048600  0.79752700  1
  Tl  Tl16  1  0.25000000  0.46105000  0.59008900  1
  Tl  Tl17  1  0.75000000  0.53895000  0.40991100  1
  Tl  Tl18  1  0.75000000  0.96105000  0.90991100  1
  Tl  Tl19  1  0.25000000  0.03895000  0.09008900  1
  Tl  Tl20  1  0.75000000  0.60223200  0.55251900  1
  Tl  Tl21  1  0.25000000  0.39776800  0.44748100  1
  Tl  Tl22  1  0.25000000  0.10223200  0.94748100  1
  Tl  Tl23  1  0.75000000  0.89776800  0.05251900  1
  Tl  Tl24  1  0.25000000  0.73362600  0.64886500  1
  Tl  Tl25  1  0.75000000  0.26637400  0.35113500  1
  Tl  Tl26  1  0.75000000  0.23362600  0.85113500  1
  Tl  Tl27  1  0.25000000  0.76637400  0.14886500  1
  Au  Au0  1  0.25000000  0.25763200  0.67317600  1
  Au  Au1  1  0.75000000  0.74236800  0.32682400  1
  Au  Au2  1  0.75000000  0.75763200  0.82682400  1
  Au  Au3  1  0.25000000  0.24236800  0.17317600  1
loop_
_geom_bond_atom_site_label_1
_geom_bond_atom_site_label_2
_geom_bond_distance
_geom_bond_site_symmetry_2
Ba0 Tl17 3.675706 1_455
Ba0 Tl17 3.675706 1_555
Ba0 Tl11 3.739519 1_555
Ba0 Tl11 3.739519 1_455
Ba0 Tl20 3.751934 1_555
Ba0 Tl20 3.751934 1_455
Ba0 Tl10 3.774043 1_565
Ba0 Tl12 3.781144 1_555
Ba0 Tl21 3.815332 1_555
Ba0 Tl2 3.847131 1_555
Ba0 Tl2 3.847131 1_455
Ba1 Tl16 3.675706 1_555
Ba1 Tl16 3.675706 1_655
Ba1 Tl10 3.739519 1_555
Ba1 Tl10 3.739519 1_655
Ba1 Tl21 3.751934 1_555
Ba1 Tl21 3.751934 1_655
Ba1 Tl11 3.774043 1_545
Ba1 Tl13 3.781144 1_555
Ba1 Tl20 3.815332 1_555
Ba1 Tl3 3.847131 1_555
Ba1 Tl3 3.847131 1_655
Ba2 Tl19 3.675706 1_555
Ba2 Tl19 3.675706 1_655
Ba2 Tl9 3.739519 1_554
Ba2 Tl9 3.739519 1_654
Ba2 Tl22 3.751934 1_554
Ba2 Tl22 3.751934 1_654
Ba2 Tl8 3.774043 1_555
Ba2 Tl14 3.781144 1_555
Ba2 Tl23 3.815332 1_545
Ba2 Tl0 3.847131 1_555
Ba2 Tl0 3.847131 1_655
Ba3 Tl18 3.675706 1_455
Ba3 Tl18 3.675706 1_555
Ba3 Tl8 3.739519 1_556
Ba3 Tl8 3.739519 1_456
Ba3 Tl23 3.751934 1_556
Ba3 Tl23 3.751934 1_456
Ba3 Tl9 3.774043 1_555
Ba3 Tl15 3.781144 1_555
Ba3 Tl22 3.815332 1_565
Ba3 Tl1 3.847131 1_455
Ba3 Tl1 3.847131 1_555
Ba4 Tl7 3.656944 1_555
Ba4 Tl7 3.656944 1_455
Ba4 Tl13 3.695709 1_465
Ba4 Tl13 3.695709 1_565
Ba4 Tl15 3.729122 1_555
Ba4 Tl22 3.735555 1_565
Ba4 Tl18 3.816881 1_455
Ba4 Tl18 3.816881 1_555
Ba4 Tl5 3.847018 1_565
Ba4 Tl26 3.944143 1_565
Ba4 Tl26 3.944143 1_465
Ba5 Tl6 3.656944 1_555
Ba5 Tl6 3.656944 1_655
Ba5 Tl12 3.695709 1_545
Ba5 Tl12 3.695709 1_645
Ba5 Tl14 3.729122 1_555
Ba5 Tl23 3.735555 1_545
Ba5 Tl19 3.816881 1_655
Ba5 Tl19 3.816881 1_555
Ba5 Tl4 3.847018 1_545
Ba5 Tl27 3.944143 1_645
Ba5 Tl27 3.944143 1_545
Ba6 Tl5 3.656944 1_655
Ba6 Tl5 3.656944 1_555
Ba6 Tl15 3.695709 1_555
Ba6 Tl15 3.695709 1_655
Ba6 Tl13 3.729122 1_555
Ba6 Tl20 3.735555 1_555
Ba6 Tl16 3.816881 1_655
Ba6 Tl16 3.816881 1_555
Ba6 Tl7 3.847018 1_555
Ba6 Tl24 3.944143 1_655
Ba6 Tl24 3.944143 1_555
Ba7 Tl4 3.656944 1_455
Ba7 Tl4 3.656944 1_555
Ba7 Tl14 3.695709 1_555
Ba7 Tl14 3.695709 1_455
Ba7 Tl12 3.729122 1_555
Ba7 Tl21 3.735555 1_555
Ba7 Tl17 3.816881 1_455
Ba7 Tl17 3.816881 1_555
Ba7 Tl6 3.847018 1_555
Ba7 Tl25 3.944143 1_455
Ba7 Tl25 3.944143 1_555
Tl0 Tl8 3.196309 1_455
Tl0 Tl8 3.196309 1_555
Tl0 Tl27 3.309896 1_555
Tl0 Tl9 3.560771 1_554
Tl1 Tl9 3.196309 1_555
Tl1 Tl9 3.196309 1_655
Tl1 Tl26 3.309896 1_555
Tl1 Tl8 3.560771 1_556
Tl2 Tl25 3.309896 1_565
Tl4 Tl8 3.406322 1_555
Tl5 Tl9 3.406322 1_555
Tl10 Tl2 3.196309 1_445
Tl10 Tl2 3.196309 1_545
Tl10 Tl21 3.203057 1_555
Tl10 Tl6 3.406322 1_555
Tl10 Tl3 3.560771 1_555
Tl11 Tl3 3.196309 1_665
Tl11 Tl3 3.196309 1_565
Tl11 Tl20 3.203057 1_555
Tl11 Tl7 3.406322 1_555
Tl11 Tl2 3.560771 1_555
Tl12 Tl27 3.461112 1_555
Tl13 Tl26 3.461112 1_555
Tl14 Tl25 3.461112 1_555
Tl15 Tl24 3.461112 1_555
Tl16 Tl20 3.178517 1_455
Tl16 Tl20 3.178517 1_555
Tl16 Tl24 3.221032 1_555
Tl16 Tl21 3.278701 1_555
Tl17 Tl21 3.178517 1_655
Tl17 Tl21 3.178517 1_555
Tl17 Tl25 3.221032 1_555
Tl17 Tl20 3.278701 1_555
Tl18 Tl22 3.178517 1_565
Tl18 Tl22 3.178517 1_665
Tl18 Tl26 3.221032 1_565
Tl18 Tl23 3.278701 1_556
Tl19 Tl23 3.178517 1_445
Tl19 Tl23 3.178517 1_545
Tl19 Tl27 3.221032 1_545
Tl19 Tl22 3.278701 1_554
Tl22 Tl9 3.203057 1_555
Tl23 Tl8 3.203057 1_555
Tl24 Tl7 3.180641 1_455
Tl24 Tl7 3.180641 1_555
Tl24 Tl3 3.309896 1_565
Tl25 Tl6 3.180641 1_555
Tl25 Tl6 3.180641 1_655
Tl26 Tl5 3.180641 1_555
Tl26 Tl5 3.180641 1_655
Tl27 Tl4 3.180641 1_555
Tl27 Tl4 3.180641 1_455
Au0 Tl16 2.880351 1_555
Au0 Tl3 2.966927 1_555
Au0 Tl13 2.973499 1_455
Au0 Tl13 2.973499 1_555
Au0 Tl5 2.999323 1_555
Au0 Ba6 3.793350 1_555
Au0 Ba6 3.793350 1_455
Au0 Ba4 3.842754 1_545
Au0 Ba1 3.988184 1_455
Au0 Ba1 3.988184 1_555
Au1 Tl17 2.880351 1_555
Au1 Tl2 2.966927 1_555
Au1 Tl12 2.973499 1_655
Au1 Tl12 2.973499 1_555
Au1 Tl4 2.999323 1_555
Au1 Ba7 3.793350 1_555
Au1 Ba7 3.793350 1_655
Au1 Ba5 3.842754 1_565
Au1 Ba0 3.988184 1_555
Au1 Ba0 3.988184 1_655
Au2 Tl18 2.880351 1_555
Au2 Tl1 2.966927 1_555
Au2 Tl15 2.973499 1_655
Au2 Tl15 2.973499 1_555
Au2 Tl7 2.999323 1_555
Au2 Ba4 3.793350 1_555
Au2 Ba4 3.793350 1_655
Au2 Ba6 3.842754 1_555
Au2 Ba3 3.988184 1_555
Au2 Ba3 3.988184 1_655
Au3 Tl19 2.880351 1_555
Au3 Tl0 2.966927 1_555
Au3 Tl14 2.973499 1_455
Au3 Tl14 2.973499 1_555
Au3 Tl6 2.999323 1_555
Au3 Ba5 3.793350 1_455
Au3 Ba5 3.793350 1_555
Au3 Ba7 3.842754 1_555
Au3 Ba2 3.988184 1_555
Au3 Ba2 3.988184 1_455
