# generated using pymatgen
data_K2SrIO6
_symmetry_space_group_name_H-M   'P 1'
_cell_length_a   6.06845969
_cell_length_b   6.06845917
_cell_length_c   6.06845924
_cell_angle_alpha   60.00000488
_cell_angle_beta   60.00000768
_cell_angle_gamma   59.99999930
_symmetry_Int_Tables_number   1
_chemical_formula_structural   K2SrIO6
_chemical_formula_sum   'K2 Sr1 I1 O6'
_cell_volume   158.02303040
_cell_formula_units_Z   1
loop_
 _symmetry_equiv_pos_site_id
 _symmetry_equiv_pos_as_xyz
  1  'x, y, z'
loop_
 _atom_site_type_symbol
 _atom_site_label
 _atom_site_symmetry_multiplicity
 _atom_site_fract_x
 _atom_site_fract_y
 _atom_site_fract_z
 _atom_site_occupancy
  K  K0  1  0.25000000  0.25000000  0.25000000  1
  K  K1  1  0.75000000  0.75000000  0.75000000  1
  Sr  Sr0  1  0.50000000  0.50000000  0.50000000  1
  I  I0  1  0.00000000  0.00000000  0.00000000  1
  O  O0  1  0.78264789  0.21735211  0.21735211  1
  O  O1  1  0.21735211  0.78264789  0.78264789  1
  O  O2  1  0.21735211  0.78264789  0.21735211  1
  O  O3  1  0.78264789  0.21735211  0.78264789  1
  O  O4  1  0.21735211  0.21735211  0.78264789  1
  O  O5  1  0.78264789  0.78264789  0.21735211  1
loop_
_geom_bond_atom_site_label_1
_geom_bond_atom_site_label_2
_geom_bond_distance
_geom_bond_site_symmetry_2
K0 O2 3.047139 1_545
K0 O2 3.047139 1_555
K0 O4 3.047139 1_554
K0 O5 3.047139 1_455
K0 O4 3.047139 1_555
K0 O5 3.047139 1_545
K0 O1 3.047139 1_554
K0 O0 3.047139 1_455
K0 O1 3.047139 1_545
K0 O0 3.047139 1_555
K0 O3 3.047139 1_455
K0 O3 3.047139 1_554
K1 O3 3.047139 1_565
K1 O3 3.047139 1_555
K1 O5 3.047139 1_556
K1 O4 3.047139 1_655
K1 O5 3.047139 1_555
K1 O4 3.047139 1_565
K1 O0 3.047139 1_556
K1 O1 3.047139 1_655
K1 O0 3.047139 1_565
K1 O1 3.047139 1_555
K1 O2 3.047139 1_655
K1 O2 3.047139 1_556
I0 O0 1.865337 1_455
I0 O2 1.865337 1_545
I0 O1 1.865337 1_544
I0 O3 1.865337 1_454
I0 O4 1.865337 1_554
I0 O5 1.865337 1_445
O0 Sr0 2.425712 1_555
O1 Sr0 2.425712 1_555
O2 Sr0 2.425712 1_555
O3 Sr0 2.425712 1_555
O4 Sr0 2.425712 1_555
O5 Sr0 2.425712 1_555
