# generated using pymatgen
data_Zr6BeZn20Pd3
_symmetry_space_group_name_H-M   'P 1'
_cell_length_a   8.69572758
_cell_length_b   8.69572723
_cell_length_c   8.65701995
_cell_angle_alpha   60.14714255
_cell_angle_beta   60.14714388
_cell_angle_gamma   59.70572000
_symmetry_Int_Tables_number   1
_chemical_formula_structural   Zr6BeZn20Pd3
_chemical_formula_sum   'Zr6 Be1 Zn20 Pd3'
_cell_volume   462.85839023
_cell_formula_units_Z   1
loop_
 _symmetry_equiv_pos_site_id
 _symmetry_equiv_pos_as_xyz
  1  'x, y, z'
loop_
 _atom_site_type_symbol
 _atom_site_label
 _atom_site_symmetry_multiplicity
 _atom_site_fract_x
 _atom_site_fract_y
 _atom_site_fract_z
 _atom_site_occupancy
  Zr  Zr0  1  0.70361894  0.29638106  0.29638106  1
  Zr  Zr1  1  0.29638106  0.70361894  0.70361894  1
  Zr  Zr2  1  0.29638106  0.70361894  0.29638106  1
  Zr  Zr3  1  0.70361894  0.29638106  0.70361894  1
  Zr  Zr4  1  0.29587900  0.29587900  0.70412100  1
  Zr  Zr5  1  0.70412100  0.70412100  0.29587900  1
  Be  Be0  1  0.50000000  0.50000000  0.50000000  1
  Zn  Zn0  1  0.12137156  0.12137156  0.12363899  1
  Zn  Zn1  1  0.87862844  0.87862844  0.87636101  1
  Zn  Zn2  1  0.12137156  0.12137156  0.63361789  1
  Zn  Zn3  1  0.12363899  0.63361789  0.12137156  1
  Zn  Zn4  1  0.87862844  0.87862844  0.36638211  1
  Zn  Zn5  1  0.87636101  0.36638211  0.87862844  1
  Zn  Zn6  1  0.63361789  0.12363899  0.12137156  1
  Zn  Zn7  1  0.36638211  0.87636101  0.87862844  1
  Zn  Zn8  1  0.50000000  0.00000000  0.00000000  1
  Zn  Zn9  1  0.00000000  0.50000000  0.50000000  1
  Zn  Zn10  1  0.00000000  0.50000000  0.00000000  1
  Zn  Zn11  1  0.50000000  0.00000000  0.50000000  1
  Zn  Zn12  1  0.33518922  0.33518922  0.33666916  1
  Zn  Zn13  1  0.66481078  0.66481078  0.66333084  1
  Zn  Zn14  1  0.33518922  0.33518922  0.99295440  1
  Zn  Zn15  1  0.33666916  0.99295440  0.33518922  1
  Zn  Zn16  1  0.66481078  0.66481078  0.00704560  1
  Zn  Zn17  1  0.66333084  0.00704560  0.66481078  1
  Zn  Zn18  1  0.99295440  0.33666916  0.33518922  1
  Zn  Zn19  1  0.00704560  0.66333084  0.66481078  1
  Pd  Pd0  1  0.00000000  0.00000000  0.50000000  1
  Pd  Pd1  1  0.50000000  0.50000000  0.00000000  1
  Pd  Pd2  1  0.00000000  0.00000000  0.00000000  1
loop_
_geom_bond_atom_site_label_1
_geom_bond_atom_site_label_2
_geom_bond_distance
_geom_bond_site_symmetry_2
Be0 Zr3 2.492881 1_555
Be0 Zr1 2.492881 1_555
Be0 Zr0 2.492881 1_555
Be0 Zr2 2.492881 1_555
Be0 Zr5 2.521326 1_555
Be0 Zr4 2.521326 1_555
Zn0 Zn10 2.685192 1_555
Zn0 Zn8 2.685192 1_555
Zn0 Zn18 2.715557 1_455
Zn0 Zn15 2.715557 1_545
Zn0 Zn14 2.737399 1_554
Zn0 Zn4 2.998391 1_445
Zn0 Zn7 2.999634 1_544
Zn0 Zn5 2.999634 1_454
Zn0 Zr2 3.004758 1_545
Zn0 Zr0 3.004758 1_455
Zn0 Zr4 3.024109 1_554
Zn1 Zn10 2.685192 1_656
Zn1 Zn8 2.685192 1_566
Zn1 Zn19 2.715557 1_655
Zn1 Zn17 2.715557 1_565
Zn1 Zn16 2.737399 1_556
Zn1 Zn2 2.998391 1_665
Zn1 Zn6 2.999634 1_566
Zn1 Zn3 2.999634 1_656
Zn1 Zr3 3.004758 1_565
Zn1 Zr1 3.004758 1_655
Zn1 Zr5 3.024109 1_556
Zn2 Zn9 2.685192 1_555
Zn2 Zn7 2.999634 1_545
Zn2 Zn5 2.999634 1_455
Zn2 Zr1 3.004758 1_545
Zn2 Zr3 3.004758 1_455
Zn2 Zr4 3.024109 1_555
Zn3 Zn9 2.685192 1_555
Zn3 Zn7 2.998391 1_554
Zn3 Zn4 2.999634 1_455
Zn3 Zr2 3.004758 1_555
Zn3 Zr1 3.004758 1_554
Zn3 Zr5 3.024109 1_455
Zn4 Zn9 2.685192 1_655
Zn4 Zn6 2.999634 1_565
Zn4 Zr0 3.004758 1_565
Zn4 Zr2 3.004758 1_655
Zn4 Zr5 3.024109 1_555
Zn5 Zn9 2.685192 1_655
Zn5 Zn6 2.998391 1_556
Zn5 Zr3 3.004758 1_555
Zn5 Zr0 3.004758 1_556
Zn5 Zr4 3.024109 1_655
Zn6 Zn8 2.685192 1_555
Zn6 Zr0 3.004758 1_555
Zn6 Zr3 3.004758 1_554
Zn6 Zr5 3.024109 1_545
Zn7 Zn8 2.685192 1_566
Zn7 Zr1 3.004758 1_555
Zn7 Zr2 3.004758 1_556
Zn7 Zr4 3.024109 1_565
Zn10 Zn14 2.499781 1_554
Zn10 Zn16 2.499781 1_455
Zn10 Zn18 2.499781 1_455
Zn10 Zn19 2.499781 1_554
Zn10 Zn3 2.685192 1_555
Zn10 Zn5 2.685192 1_454
Zn11 Zn17 2.499766 1_555
Zn11 Zn15 2.499766 1_545
Zn11 Zn12 2.499776 1_555
Zn11 Zn13 2.499776 1_545
Zn11 Zn4 2.685192 1_545
Zn11 Zn2 2.685192 1_555
Zn11 Zn7 2.685192 1_545
Zn11 Zn6 2.685192 1_555
Zn12 Zn9 2.499776 1_555
Zn12 Zn3 2.715553 1_555
Zn12 Zn6 2.715553 1_555
Zn12 Zn2 2.737395 1_555
Zn12 Zr4 2.881928 1_555
Zn12 Zr2 2.900625 1_555
Zn12 Zr0 2.900625 1_555
Zn12 Zn14 2.975546 1_554
Zn12 Zn15 2.975894 1_545
Zn12 Zn18 2.975894 1_455
Zn13 Zn9 2.499776 1_655
Zn13 Zn5 2.715553 1_555
Zn13 Zn7 2.715553 1_555
Zn13 Zn4 2.737395 1_555
Zn13 Zr5 2.881928 1_555
Zn13 Zr3 2.900625 1_555
Zn13 Zr1 2.900625 1_555
Zn13 Zn16 2.975546 1_556
Zn13 Zn17 2.975894 1_565
Zn13 Zn19 2.975894 1_655
Zn14 Zn8 2.499781 1_556
Zn14 Zn3 2.715543 1_556
Zn14 Zn6 2.715543 1_556
Zn14 Zr4 2.881945 1_555
Zn14 Zr1 2.900632 1_555
Zn14 Zr3 2.900632 1_555
Zn14 Zn15 2.975894 1_546
Zn14 Zn18 2.975894 1_456
Zn15 Zn8 2.499781 1_565
Zn15 Zn2 2.715543 1_565
Zn15 Zn6 2.737385 1_565
Zn15 Zr5 2.881935 1_555
Zn15 Zr1 2.900632 1_555
Zn15 Zr2 2.900642 1_555
Zn15 Zn18 2.975546 1_465
Zn16 Zn8 2.499781 1_565
Zn16 Zn5 2.715543 1_554
Zn16 Zn7 2.715543 1_554
Zn16 Zr5 2.881945 1_555
Zn16 Zr0 2.900632 1_555
Zn16 Zr2 2.900632 1_555
Zn16 Zn17 2.975894 1_564
Zn16 Zn19 2.975894 1_654
Zn17 Zn8 2.499781 1_556
Zn17 Zn4 2.715543 1_545
Zn17 Zn7 2.737385 1_545
Zn17 Zr4 2.881935 1_555
Zn17 Zr0 2.900632 1_555
Zn17 Zr3 2.900642 1_555
Zn17 Zn19 2.975546 1_645
Zn18 Zn9 2.499766 1_655
Zn18 Zn2 2.715543 1_655
Zn18 Zn3 2.737385 1_655
Zn18 Zr5 2.881935 1_555
Zn18 Zr3 2.900632 1_555
Zn18 Zr0 2.900642 1_555
Zn19 Zn9 2.499766 1_555
Zn19 Zn4 2.715543 1_455
Zn19 Zn5 2.737385 1_455
Zn19 Zr4 2.881935 1_555
Zn19 Zr2 2.900632 1_555
Zn19 Zr1 2.900642 1_555
Pd0 Zn18 2.521476 1_455
Pd0 Zn19 2.521476 1_545
Pd0 Zn15 2.521477 1_545
Pd0 Zn17 2.521477 1_455
Pd0 Zn2 2.668411 1_555
Pd0 Zn4 2.668411 1_445
Pd0 Zn1 2.668411 1_445
Pd0 Zn0 2.668411 1_555
Pd1 Zn16 2.521461 1_555
Pd1 Zn14 2.521461 1_554
Pd1 Zn13 2.521472 1_554
Pd1 Zn12 2.521472 1_555
Pd1 Zn7 2.668411 1_554
Pd1 Zn6 2.668411 1_555
Pd1 Zn5 2.668411 1_554
Pd1 Zn3 2.668411 1_555
Pd2 Zn0 2.597400 1_555
Pd2 Zn1 2.597400 1_444
Pd2 Zn3 2.597400 1_545
Pd2 Zn5 2.597400 1_454
Pd2 Zn7 2.597400 1_544
Pd2 Zn6 2.597400 1_455
Pd2 Zn4 2.597400 1_445
Pd2 Zn2 2.597400 1_554
