# generated using pymatgen
data_VGaSbO6
_symmetry_space_group_name_H-M   'P 1'
_cell_length_a   4.54608155
_cell_length_b   4.54606112
_cell_length_c   9.11256621
_cell_angle_alpha   89.99993708
_cell_angle_beta   89.99990201
_cell_angle_gamma   89.99975940
_symmetry_Int_Tables_number   1
_chemical_formula_structural   VGaSbO6
_chemical_formula_sum   'V2 Ga2 Sb2 O12'
_cell_volume   188.32726040
_cell_formula_units_Z   2
loop_
 _symmetry_equiv_pos_site_id
 _symmetry_equiv_pos_as_xyz
  1  'x, y, z'
loop_
 _atom_site_type_symbol
 _atom_site_label
 _atom_site_symmetry_multiplicity
 _atom_site_fract_x
 _atom_site_fract_y
 _atom_site_fract_z
 _atom_site_occupancy
  V  V0  1  0.50000094  0.49999586  0.50071120  1
  V  V1  1  0.00000061  0.00000351  0.00071227  1
  Ga  Ga0  1  0.99999601  0.99999678  0.66784302  1
  Ga  Ga1  1  0.50001128  0.50000905  0.16782173  1
  Sb  Sb0  1  0.49999408  0.49999848  0.83370314  1
  Sb  Sb1  1  0.00000783  0.00000005  0.33373251  1
  O  O0  1  0.19418692  0.80581158  0.16359850  1
  O  O1  1  0.80581628  0.19418594  0.16359975  1
  O  O2  1  0.30580210  0.30580333  0.66358319  1
  O  O3  1  0.69418897  0.69419383  0.66358464  1
  O  O4  1  0.20149869  0.79849775  0.49976744  1
  O  O5  1  0.79849935  0.20149832  0.49976652  1
  O  O6  1  0.29850345  0.29850374  0.99975993  1
  O  O7  1  0.70149399  0.70149645  0.99975790  1
  O  O8  1  0.19270605  0.80728822  0.83551517  1
  O  O9  1  0.80728459  0.19271011  0.83551527  1
  O  O10  1  0.30729805  0.30729378  0.33551136  1
  O  O11  1  0.69271080  0.69271122  0.33551347  1
loop_
_geom_bond_atom_site_label_1
_geom_bond_atom_site_label_2
_geom_bond_distance
_geom_bond_site_symmetry_2
Ga0 O3 1.966443 1_555
Ga0 O2 1.966451 1_665
Ga0 O8 1.967116 1_655
Ga0 O9 1.967128 1_565
Ga0 O5 2.006000 1_565
Ga0 O4 2.006000 1_655
Ga1 O0 1.966483 1_555
Ga1 O1 1.966486 1_555
Ga1 O11 1.967225 1_555
Ga1 O10 1.967260 1_555
Ga1 O7 2.005855 1_554
Ga1 O6 2.005934 1_554
O0 V1 1.939546 1_565
O0 Sb1 1.990522 1_565
O1 V1 1.939530 1_655
O1 Sb1 1.990534 1_655
O2 V0 1.939475 1_555
O2 Sb0 1.990467 1_555
O3 V0 1.939478 1_555
O3 Sb0 1.990459 1_555
O4 V0 1.919120 1_555
O4 Sb1 1.991822 1_565
O5 V0 1.919093 1_555
O5 Sb1 1.991843 1_655
O6 V1 1.919125 1_556
O6 Sb0 1.991958 1_555
O7 V1 1.919159 1_666
O7 Sb0 1.991974 1_555
O8 V1 1.949652 1_566
O8 Sb0 1.975661 1_555
O9 V1 1.949656 1_656
O9 Sb0 1.975664 1_555
O10 V0 1.949645 1_555
O10 Sb1 1.975686 1_555
O11 V0 1.949668 1_555
O11 Sb1 1.975693 1_665
