# generated using pymatgen
data_Ca6Zn4Pd12N
_symmetry_space_group_name_H-M   'P 1'
_cell_length_a   8.11417144
_cell_length_b   8.11416988
_cell_length_c   8.11417075
_cell_angle_alpha   109.47122281
_cell_angle_beta   109.47121891
_cell_angle_gamma   109.47122282
_symmetry_Int_Tables_number   1
_chemical_formula_structural   Ca6Zn4Pd12N
_chemical_formula_sum   'Ca6 Zn4 Pd12 N1'
_cell_volume   411.25435728
_cell_formula_units_Z   1
loop_
 _symmetry_equiv_pos_site_id
 _symmetry_equiv_pos_as_xyz
  1  'x, y, z'
loop_
 _atom_site_type_symbol
 _atom_site_label
 _atom_site_symmetry_multiplicity
 _atom_site_fract_x
 _atom_site_fract_y
 _atom_site_fract_z
 _atom_site_occupancy
  Ca  Ca0  1  0.00000000  0.26959595  0.26959595  1
  Ca  Ca1  1  0.26959595  1.00000000  0.26959595  1
  Ca  Ca2  1  0.73040405  0.00000000  0.73040405  1
  Ca  Ca3  1  0.73040405  0.73040405  1.00000000  1
  Ca  Ca4  1  0.26959595  0.26959595  0.00000000  1
  Ca  Ca5  1  1.00000000  0.73040405  0.73040405  1
  Zn  Zn0  1  0.50000000  0.50000000  0.50000000  1
  Zn  Zn1  1  0.50000000  0.00000000  0.00000000  1
  Zn  Zn2  1  0.00000000  0.50000000  0.00000000  1
  Zn  Zn3  1  0.00000000  0.00000000  0.50000000  1
  Pd  Pd0  1  0.66230751  0.33115425  0.33115425  1
  Pd  Pd1  1  0.33115425  0.00000000  0.66884575  1
  Pd  Pd2  1  0.33115425  0.66230751  0.33115425  1
  Pd  Pd3  1  0.33115425  0.33115425  0.66230751  1
  Pd  Pd4  1  0.33115425  0.66884575  0.00000000  1
  Pd  Pd5  1  1.00000000  0.33115425  0.66884575  1
  Pd  Pd6  1  0.00000000  0.66884575  0.33115425  1
  Pd  Pd7  1  0.66884575  0.66884575  0.33769249  1
  Pd  Pd8  1  0.66884575  1.00000000  0.33115425  1
  Pd  Pd9  1  0.66884575  0.33115425  1.00000000  1
  Pd  Pd10  1  0.66884575  0.33769249  0.66884575  1
  Pd  Pd11  1  0.33769249  0.66884575  0.66884575  1
  N  N0  1  0.00000000  0.00000000  0.00000000  1
loop_
_geom_bond_atom_site_label_1
_geom_bond_atom_site_label_2
_geom_bond_distance
_geom_bond_site_symmetry_2
Ca0 N0 2.525962 1_555
Ca0 Pd6 3.108956 1_555
Ca0 Pd5 3.108957 1_455
Ca0 Pd11 3.108958 1_555
Ca0 Pd0 3.108965 1_455
Ca0 Pd2 3.155876 1_555
Ca0 Pd3 3.155876 1_555
Ca0 Pd8 3.155881 1_445
Ca0 Pd9 3.155882 1_454
Ca1 N0 2.525962 1_565
Ca1 Pd1 3.108957 1_565
Ca1 Pd8 3.108957 1_555
Ca1 Pd10 3.108958 1_565
Ca1 Pd2 3.108964 1_555
Ca1 Pd3 3.155876 1_565
Ca1 Pd0 3.155876 1_565
Ca1 Pd4 3.155881 1_555
Ca1 Pd6 3.155881 1_555
Ca2 N0 2.525962 1_656
Ca2 Pd8 3.108957 1_545
Ca2 Pd1 3.108957 1_555
Ca2 Pd2 3.108958 1_545
Ca2 Pd10 3.108964 1_555
Ca2 Pd7 3.155876 1_545
Ca2 Pd11 3.155876 1_545
Ca2 Pd9 3.155881 1_555
Ca2 Pd5 3.155881 1_555
Ca3 N0 2.525962 1_666
Ca3 Pd9 3.108956 1_555
Ca3 Pd4 3.108957 1_556
Ca3 Pd3 3.108958 1_555
Ca3 Pd7 3.108965 1_556
Ca3 Pd10 3.155876 1_555
Ca3 Pd11 3.155876 1_555
Ca3 Pd8 3.155881 1_556
Ca3 Pd6 3.155882 1_656
Ca4 N0 2.525962 1_555
Ca4 Pd4 3.108956 1_555
Ca4 Pd9 3.108957 1_554
Ca4 Pd7 3.108958 1_555
Ca4 Pd3 3.108965 1_554
Ca4 Pd2 3.155876 1_555
Ca4 Pd0 3.155876 1_555
Ca4 Pd1 3.155881 1_554
Ca4 Pd5 3.155882 1_454
Ca5 N0 2.525962 1_666
Ca5 Pd5 3.108956 1_555
Ca5 Pd6 3.108957 1_655
Ca5 Pd0 3.108958 1_555
Ca5 Pd11 3.108965 1_655
Ca5 Pd10 3.155876 1_555
Ca5 Pd7 3.155876 1_555
Ca5 Pd1 3.155881 1_665
Ca5 Pd4 3.155882 1_656
Pd0 Zn0 2.577389 1_555
Pd0 Zn1 2.577397 1_555
Pd0 Pd7 2.705180 1_555
Pd0 Pd10 2.705181 1_555
Pd0 Pd8 2.705188 1_545
Pd0 Pd9 2.705189 1_554
Pd1 Zn1 2.577396 1_556
Pd1 Zn3 2.577396 1_555
Pd1 Pd6 2.705186 1_545
Pd1 Pd9 2.705186 1_555
Pd1 Pd3 2.705188 1_555
Pd1 Pd11 2.705188 1_545
Pd2 Zn0 2.577389 1_555
Pd2 Zn2 2.577398 1_555
Pd2 Pd7 2.705181 1_555
Pd2 Pd4 2.705189 1_555
Pd2 Pd6 2.705189 1_555
Pd3 Zn0 2.577389 1_555
Pd3 Zn3 2.577398 1_555
Pd3 Pd5 2.705189 1_455
Pd4 Zn1 2.577396 1_565
Pd4 Zn2 2.577396 1_555
Pd4 Pd5 2.705186 1_454
Pd4 Pd8 2.705186 1_555
Pd5 Zn3 2.577396 1_655
Pd5 Zn2 2.577396 1_656
Pd5 Pd8 2.705186 1_545
Pd6 Zn3 2.577396 1_565
Pd6 Zn2 2.577396 1_555
Pd6 Pd9 2.705186 1_454
Pd6 Pd7 2.705189 1_455
Pd7 Zn0 2.577389 1_555
Pd7 Zn3 2.577398 1_665
Pd7 Pd8 2.705188 1_555
Pd8 Zn1 2.577396 1_565
Pd8 Zn3 2.577396 1_665
Pd9 Zn1 2.577396 1_556
Pd9 Zn2 2.577396 1_656
Pd10 Zn0 2.577389 1_555
Pd10 Zn2 2.577398 1_656
Pd10 Pd3 2.705181 1_555
Pd10 Pd9 2.705189 1_555
Pd10 Pd5 2.705189 1_555
Pd11 Zn0 2.577389 1_555
Pd11 Zn1 2.577397 1_566
Pd11 Pd3 2.705180 1_555
Pd11 Pd2 2.705181 1_555
Pd11 Pd4 2.705189 1_556
