# generated using pymatgen
data_B2Ir2PdPt
_symmetry_space_group_name_H-M   'P 1'
_cell_length_a   6.74120347
_cell_length_b   6.10335265
_cell_length_c   5.52706951
_cell_angle_alpha   70.64897891
_cell_angle_beta   58.67501499
_cell_angle_gamma   50.54709937
_symmetry_Int_Tables_number   1
_chemical_formula_structural   B2Ir2PdPt
_chemical_formula_sum   'B4 Ir4 Pd2 Pt2'
_cell_volume   149.99485969
_cell_formula_units_Z   2
loop_
 _symmetry_equiv_pos_site_id
 _symmetry_equiv_pos_as_xyz
  1  'x, y, z'
loop_
 _atom_site_type_symbol
 _atom_site_label
 _atom_site_symmetry_multiplicity
 _atom_site_fract_x
 _atom_site_fract_y
 _atom_site_fract_z
 _atom_site_occupancy
  B  B0  1  0.05507383  0.97749103  0.56351425  1
  B  B1  1  0.68556298  0.85304584  0.19873086  1
  B  B2  1  0.39695416  0.56443702  0.98733968  1
  B  B3  1  0.27250897  0.19492617  0.84607811  1
  Ir  Ir0  1  0.10507138  0.62987030  0.86890335  1
  Ir  Ir1  1  0.38221131  0.85399200  0.14749817  1
  Ir  Ir2  1  0.62012970  0.14492862  0.85384604  1
  Ir  Ir3  1  0.39600800  0.86778869  0.63370148  1
  Pd  Pd0  1  0.86020251  0.36957531  0.30504750  1
  Pd  Pd1  1  0.88042469  0.38979749  0.78482332  1
  Pt  Pt0  1  0.94208717  0.79103269  0.38609769  1
  Pt  Pt1  1  0.45896731  0.30791283  0.36921755  1
loop_
_geom_bond_atom_site_label_1
_geom_bond_atom_site_label_2
_geom_bond_distance
_geom_bond_site_symmetry_2
B0 Ir1 2.117085 1_555
B0 Ir2 2.145414 1_465
B0 Ir3 2.163385 1_555
B0 Ir0 2.184835 1_555
B0 Pd0 2.276767 1_465
B0 Pt0 2.335493 1_455
B0 Pd1 2.447865 1_465
B1 Ir0 2.136759 1_654
B1 Ir2 2.151034 1_564
B1 Ir3 2.153766 1_555
B1 Ir1 2.201833 1_555
B1 Pt0 2.230834 1_555
B1 Pd0 2.365105 1_555
B1 Pt1 2.403356 1_565
B2 Ir2 2.136756 1_555
B2 Ir0 2.151039 1_555
B2 Ir1 2.153765 1_556
B2 Ir3 2.201832 1_555
B2 Pt1 2.230833 1_556
B2 Pd1 2.365105 1_555
B2 Pt0 2.403357 1_456
B3 Ir3 2.117081 1_545
B3 Ir0 2.145413 1_555
B3 Ir1 2.163388 1_546
B3 Ir2 2.184842 1_555
B3 Pd1 2.276771 1_455
B3 Pt1 2.335488 1_555
B3 Pd0 2.447875 1_456
Pd0 Pt1 2.791267 1_555
Pd1 Pt0 2.791262 1_555
