# generated using pymatgen
data_Rb4MnCdSe4
_symmetry_space_group_name_H-M   'P 1'
_cell_length_a   8.53612439
_cell_length_b   8.53612422
_cell_length_c   8.53612444
_cell_angle_alpha   133.44053727
_cell_angle_beta   128.93938996
_cell_angle_gamma   71.57281007
_symmetry_Int_Tables_number   1
_chemical_formula_structural   Rb4MnCdSe4
_chemical_formula_sum   'Rb4 Mn1 Cd1 Se4'
_cell_volume   343.77689149
_cell_formula_units_Z   1
loop_
 _symmetry_equiv_pos_site_id
 _symmetry_equiv_pos_as_xyz
  1  'x, y, z'
loop_
 _atom_site_type_symbol
 _atom_site_label
 _atom_site_symmetry_multiplicity
 _atom_site_fract_x
 _atom_site_fract_y
 _atom_site_fract_z
 _atom_site_occupancy
  Rb  Rb0  1  0.81269678  0.64725322  0.16844828  1
  Rb  Rb1  1  0.18730322  0.35575150  0.83455645  1
  Rb  Rb2  1  0.52119505  0.85274678  0.66544355  1
  Rb  Rb3  1  0.47880495  0.14424850  0.33155172  1
  Mn  Mn0  1  0.00000000  0.25000000  0.25000000  1
  Cd  Cd0  1  0.00000000  0.75000000  0.75000000  1
  Se  Se0  1  0.29599474  0.59249650  0.68071255  1
  Se  Se1  1  0.08821605  0.90750350  0.20349823  1
  Se  Se2  1  0.91178395  0.11528218  0.81928745  1
  Se  Se3  1  0.70400526  0.38471782  0.29650177  1
loop_
_geom_bond_atom_site_label_1
_geom_bond_atom_site_label_2
_geom_bond_distance
_geom_bond_site_symmetry_2
Rb0 Se1 3.472826 1_655
Rb0 Se2 3.513882 1_554
Rb0 Se0 3.542690 1_554
Rb0 Se3 3.610529 1_555
Rb0 Se2 3.639769 1_565
Rb0 Se0 3.908310 1_655
Rb1 Se2 3.472826 1_455
Rb1 Se1 3.513882 1_545
Rb1 Se3 3.542690 1_556
Rb1 Se0 3.610529 1_555
Rb1 Se1 3.639769 1_556
Rb1 Se3 3.908310 1_455
Rb2 Se0 3.472826 1_555
Rb2 Se3 3.513882 1_566
Rb2 Se1 3.542690 1_555
Rb2 Se2 3.610529 1_565
Rb2 Se3 3.639769 1_555
Rb2 Se1 3.908310 1_656
Rb3 Se3 3.472826 1_555
Rb3 Se0 3.513882 1_555
Rb3 Se2 3.542690 1_555
Rb3 Se1 3.610529 1_545
Rb3 Se0 3.639769 1_544
Rb3 Se2 3.908310 1_454
Mn0 Se0 2.580696 1_555
Mn0 Se1 2.580696 1_545
Mn0 Se2 2.580697 1_454
Mn0 Se3 2.580697 1_455
Mn0 Rb2 3.599927 1_444
Mn0 Rb0 3.599927 1_455
Mn0 Rb1 3.599927 1_555
Mn0 Rb3 3.599927 1_555
Cd0 Se3 2.679303 1_455
Cd0 Se2 2.679303 1_465
Cd0 Se1 2.679303 1_556
Cd0 Se0 2.679303 1_555
Cd0 Rb3 3.590415 1_566
Cd0 Rb1 3.590415 1_555
Cd0 Rb0 3.590415 1_455
Cd0 Rb2 3.590415 1_455
