# generated using pymatgen
data_RbLiCO3
_symmetry_space_group_name_H-M   'P 1'
_cell_length_a   7.13678185
_cell_length_b   6.79897587
_cell_length_c   7.67218330
_cell_angle_alpha   62.30602486
_cell_angle_beta   90.00000000
_cell_angle_gamma   90.00000000
_symmetry_Int_Tables_number   1
_chemical_formula_structural   RbLiCO3
_chemical_formula_sum   'Rb4 Li4 C4 O12'
_cell_volume   329.62888118
_cell_formula_units_Z   4
loop_
 _symmetry_equiv_pos_site_id
 _symmetry_equiv_pos_as_xyz
  1  'x, y, z'
loop_
 _atom_site_type_symbol
 _atom_site_label
 _atom_site_symmetry_multiplicity
 _atom_site_fract_x
 _atom_site_fract_y
 _atom_site_fract_z
 _atom_site_occupancy
  Rb  Rb0  1  0.64122307  0.16828660  0.66927235  1
  Rb  Rb1  1  0.14122307  0.83171340  0.83072765  1
  Rb  Rb2  1  0.35877693  0.83171340  0.33072765  1
  Rb  Rb3  1  0.85877693  0.16828660  0.16927235  1
  Li  Li0  1  0.42973010  0.41053870  0.19468491  1
  Li  Li1  1  0.57026990  0.58946130  0.80531509  1
  Li  Li2  1  0.92973010  0.58946130  0.30531509  1
  Li  Li3  1  0.07026990  0.41053870  0.69468491  1
  C  C0  1  0.33079433  0.30791523  0.90783156  1
  C  C1  1  0.66920567  0.69208477  0.09216844  1
  C  C2  1  0.83079433  0.69208477  0.59216844  1
  C  C3  1  0.16920567  0.30791523  0.40783156  1
  O  O0  1  0.33239357  0.48745254  0.73756010  1
  O  O1  1  0.66760643  0.51254746  0.26243990  1
  O  O2  1  0.47251762  0.27243008  0.02429061  1
  O  O3  1  0.16760643  0.48745254  0.23756010  1
  O  O4  1  0.83239357  0.51254746  0.76243990  1
  O  O5  1  0.30927442  0.17541821  0.45259414  1
  O  O6  1  0.19072558  0.17541821  0.95259414  1
  O  O7  1  0.02748238  0.27243008  0.52429061  1
  O  O8  1  0.52748238  0.72756992  0.97570939  1
  O  O9  1  0.80927442  0.82458179  0.04740586  1
  O  O10  1  0.97251762  0.72756992  0.47570939  1
  O  O11  1  0.69072558  0.82458179  0.54740586  1
loop_
_geom_bond_atom_site_label_1
_geom_bond_atom_site_label_2
_geom_bond_distance
_geom_bond_site_symmetry_2
Li0 O2 1.955758 1_555
Li0 O1 1.992095 1_555
Li0 O3 2.010261 1_555
Li0 O5 2.066325 1_555
Li0 O8 2.142274 1_554
Li1 O8 1.955758 1_555
Li1 O0 1.992095 1_555
Li1 O4 2.010261 1_555
Li1 O11 2.066325 1_555
Li1 O2 2.142274 1_556
Li2 O10 1.955758 1_555
Li2 O3 1.992095 1_655
Li2 O1 2.010261 1_555
Li2 O9 2.066325 1_555
Li2 O7 2.142274 1_655
Li3 O7 1.955758 1_555
Li3 O4 1.992095 1_455
Li3 O0 2.010261 1_555
Li3 O6 2.066325 1_555
Li3 O10 2.142274 1_455
C0 O6 1.281085 1_555
C0 O2 1.295839 1_556
C0 O0 1.309398 1_555
C1 O9 1.281085 1_555
C1 O8 1.295839 1_554
C1 O1 1.309398 1_555
C2 O11 1.281085 1_555
C2 O10 1.295839 1_555
C2 O4 1.309398 1_555
C3 O5 1.281085 1_555
C3 O7 1.295839 1_555
C3 O3 1.309398 1_555
O0 Rb2 2.909594 1_555
O0 Rb1 3.066919 1_555
O1 Rb0 2.909594 1_555
O1 Rb3 3.066919 1_555
O2 Rb3 2.933542 1_555
O2 Rb2 2.935442 1_545
O3 Rb1 2.909594 1_554
O3 Rb2 3.066919 1_555
O4 Rb3 2.909594 1_556
O4 Rb0 3.066919 1_555
O5 Rb0 2.881555 1_555
O5 Rb2 2.913879 1_545
O5 Rb1 3.002370 1_545
O6 Rb3 2.881555 1_456
O6 Rb1 2.913879 1_545
O6 Rb2 3.002370 1_546
O7 Rb0 2.933542 1_455
O7 Rb1 2.935442 1_545
O8 Rb1 2.933542 1_555
O8 Rb0 2.935442 1_565
O9 Rb1 2.881555 1_654
O9 Rb3 2.913879 1_565
O9 Rb0 3.002370 1_564
O10 Rb2 2.933542 1_655
O10 Rb3 2.935442 1_565
O11 Rb2 2.881555 1_555
O11 Rb0 2.913879 1_565
O11 Rb3 3.002370 1_565
