# generated using pymatgen
data_BaSiHgSe4
_symmetry_space_group_name_H-M   'P 1'
_cell_length_a   6.70920778
_cell_length_b   11.08831615
_cell_length_c   11.39191719
_cell_angle_alpha   90.00000000
_cell_angle_beta   90.00000000
_cell_angle_gamma   90.00000000
_symmetry_Int_Tables_number   1
_chemical_formula_structural   BaSiHgSe4
_chemical_formula_sum   'Ba4 Si4 Hg4 Se16'
_cell_volume   847.48820213
_cell_formula_units_Z   4
loop_
 _symmetry_equiv_pos_site_id
 _symmetry_equiv_pos_as_xyz
  1  'x, y, z'
loop_
 _atom_site_type_symbol
 _atom_site_label
 _atom_site_symmetry_multiplicity
 _atom_site_fract_x
 _atom_site_fract_y
 _atom_site_fract_z
 _atom_site_occupancy
  Ba  Ba0  1  0.05921473  0.00000000  0.50000000  1
  Ba  Ba1  1  0.55921473  0.50000000  0.00000000  1
  Ba  Ba2  1  0.06133541  0.00000000  0.00000000  1
  Ba  Ba3  1  0.56133541  0.50000000  0.50000000  1
  Si  Si0  1  0.04213188  0.28341108  0.24941501  1
  Si  Si1  1  0.04213188  0.71658892  0.75058499  1
  Si  Si2  1  0.54213188  0.21658892  0.74941501  1
  Si  Si3  1  0.54213188  0.78341108  0.25058499  1
  Hg  Hg0  1  0.49082678  0.16513994  0.25306226  1
  Hg  Hg1  1  0.49082678  0.83486006  0.74693774  1
  Hg  Hg2  1  0.99082678  0.33486006  0.75306226  1
  Hg  Hg3  1  0.99082678  0.66513994  0.24693774  1
  Se  Se0  1  0.24597005  0.27405031  0.08876448  1
  Se  Se1  1  0.24597005  0.72594969  0.91123552  1
  Se  Se2  1  0.74597005  0.22594969  0.58876448  1
  Se  Se3  1  0.74597005  0.77405031  0.41123552  1
  Se  Se4  1  0.24417125  0.27441883  0.41139180  1
  Se  Se5  1  0.24417125  0.72558117  0.58860820  1
  Se  Se6  1  0.74417125  0.22558117  0.91139180  1
  Se  Se7  1  0.74417125  0.77441883  0.08860820  1
  Se  Se8  1  0.86108240  0.10590674  0.24967677  1
  Se  Se9  1  0.86108240  0.89409326  0.75032323  1
  Se  Se10  1  0.36108240  0.39409326  0.74967677  1
  Se  Se11  1  0.36108240  0.60590674  0.25032323  1
  Se  Se12  1  0.81514258  0.43317505  0.24975042  1
  Se  Se13  1  0.81514258  0.56682495  0.75024958  1
  Se  Se14  1  0.31514258  0.06682495  0.74975042  1
  Se  Se15  1  0.31514258  0.93317505  0.25024958  1
loop_
_geom_bond_atom_site_label_1
_geom_bond_atom_site_label_2
_geom_bond_distance
_geom_bond_site_symmetry_2
Ba0 Se9 3.358286 1_445
Ba0 Se8 3.358286 1_455
Ba0 Se15 3.404730 1_545
Ba0 Se14 3.404730 1_555
Ba0 Se2 3.422920 1_455
Ba0 Se3 3.422920 1_445
Ba0 Se4 3.437685 1_555
Ba0 Se5 3.437685 1_545
Ba1 Se11 3.358286 1_555
Ba1 Se10 3.358286 1_554
Ba1 Se13 3.404730 1_554
Ba1 Se12 3.404730 1_555
Ba1 Se1 3.422920 1_554
Ba1 Se0 3.422920 1_555
Ba1 Se7 3.437685 1_555
Ba1 Se6 3.437685 1_554
Ba2 Se8 3.357703 1_455
Ba2 Se9 3.357703 1_444
Ba2 Se14 3.402340 1_554
Ba2 Se15 3.402340 1_545
Ba2 Se0 3.433812 1_555
Ba2 Se1 3.433812 1_544
Ba2 Se6 3.435629 1_454
Ba2 Se7 3.435629 1_445
Ba3 Se10 3.357703 1_555
Ba3 Se11 3.357703 1_555
Ba3 Se12 3.402340 1_555
Ba3 Se13 3.402340 1_555
Ba3 Se3 3.433812 1_555
Ba3 Se2 3.433812 1_555
Ba3 Se5 3.435629 1_555
Ba3 Se4 3.435629 1_555
Hg0 Se8 2.569773 1_555
Hg0 Se4 2.731316 1_555
Hg0 Se0 2.767722 1_555
Hg0 Se15 2.829499 1_545
Hg1 Se9 2.569773 1_555
Hg1 Se5 2.731316 1_555
Hg1 Se1 2.767722 1_555
Hg1 Se14 2.829499 1_565
Hg2 Se10 2.569773 1_655
Hg2 Se6 2.731316 1_555
Hg2 Se2 2.767722 1_555
Hg2 Se13 2.829499 1_555
Hg3 Se11 2.569773 1_655
Hg3 Se7 2.731316 1_555
Hg3 Se3 2.767722 1_555
Hg3 Se12 2.829499 1_555
Se0 Si0 2.287010 1_555
Se1 Si1 2.287010 1_555
Se2 Si2 2.287010 1_555
Se3 Si3 2.287010 1_555
Se4 Si0 2.291778 1_555
Se5 Si1 2.291778 1_555
Se6 Si2 2.291778 1_555
Se7 Si3 2.291778 1_555
Se8 Si0 2.312879 1_655
Se9 Si1 2.312879 1_655
Se10 Si2 2.312879 1_555
Se11 Si3 2.312879 1_555
Se12 Si0 2.253217 1_655
Se13 Si1 2.253217 1_655
Se14 Si2 2.253217 1_555
Se15 Si3 2.253217 1_555
