# generated using pymatgen
data_NbAg7S6
_symmetry_space_group_name_H-M   'P 1'
_cell_length_a   7.45306800
_cell_length_b   7.73605100
_cell_length_c   13.35381871
_cell_angle_alpha   55.23089818
_cell_angle_beta   90.00000000
_cell_angle_gamma   90.00000000
_symmetry_Int_Tables_number   1
_chemical_formula_structural   NbAg7S6
_chemical_formula_sum   'Nb2 Ag14 S12'
_cell_volume   632.47686615
_cell_formula_units_Z   2
loop_
 _symmetry_equiv_pos_site_id
 _symmetry_equiv_pos_as_xyz
  1  'x, y, z'
loop_
 _atom_site_type_symbol
 _atom_site_label
 _atom_site_symmetry_multiplicity
 _atom_site_fract_x
 _atom_site_fract_y
 _atom_site_fract_z
 _atom_site_occupancy
  Nb  Nb0  1  0.24418800  0.99334900  0.50336800  1
  Nb  Nb1  1  0.75581200  0.99334900  0.00336800  1
  Ag  Ag0  1  0.87936200  0.89422700  0.41008100  1
  Ag  Ag1  1  0.12063800  0.89422700  0.91008100  1
  Ag  Ag2  1  0.95709000  0.51954200  0.15133100  1
  Ag  Ag3  1  0.04291000  0.51954200  0.65133100  1
  Ag  Ag4  1  0.60075400  0.08461400  0.19481300  1
  Ag  Ag5  1  0.39924600  0.08461400  0.69481300  1
  Ag  Ag6  1  0.78346200  0.68888600  0.28172900  1
  Ag  Ag7  1  0.21653800  0.68888600  0.78172900  1
  Ag  Ag8  1  0.68057900  0.30233000  0.73272700  1
  Ag  Ag9  1  0.31942100  0.30233000  0.23272700  1
  Ag  Ag10  1  0.48677700  0.69226900  0.99008800  1
  Ag  Ag11  1  0.51322300  0.69226900  0.49008800  1
  Ag  Ag12  1  0.58500600  0.28114800  0.45458400  1
  Ag  Ag13  1  0.41499400  0.28114800  0.95458400  1
  S  S0  1  0.21450600  0.48929800  0.01281100  1
  S  S1  1  0.78549400  0.48929800  0.51281100  1
  S  S2  1  0.26765700  0.25174800  0.78406300  1
  S  S3  1  0.73234300  0.25174800  0.28406300  1
  S  S4  1  0.49840100  0.85119100  0.63197900  1
  S  S5  1  0.50159900  0.85119100  0.13197900  1
  S  S6  1  0.97737900  0.88092400  0.61449800  1
  S  S7  1  0.02262100  0.88092400  0.11449800  1
  S  S8  1  0.24514700  0.89221300  0.36735800  1
  S  S9  1  0.75485300  0.89221300  0.86735800  1
  S  S10  1  0.24235300  0.35526100  0.39856800  1
  S  S11  1  0.75764700  0.35526100  0.89856800  1
loop_
_geom_bond_atom_site_label_1
_geom_bond_atom_site_label_2
_geom_bond_distance
_geom_bond_site_symmetry_2
Nb0 S10 2.308365 1_565
Nb0 S6 2.332584 1_455
Nb0 S8 2.351957 1_555
Nb0 S4 2.365296 1_555
Nb1 S11 2.308365 1_564
Nb1 S7 2.332584 1_655
Nb1 S9 2.351957 1_554
Nb1 S5 2.365296 1_555
Ag0 S3 2.524622 1_565
Ag0 S1 2.698695 1_555
Ag0 S6 2.770447 1_555
Ag0 S8 2.787139 1_655
Ag1 S2 2.524622 1_565
Ag1 S0 2.698695 1_556
Ag1 S7 2.770447 1_556
Ag1 S9 2.787139 1_455
Ag2 S3 2.459928 1_555
Ag2 S7 2.593820 1_655
Ag2 S0 2.766008 1_655
Ag3 S2 2.459928 1_555
Ag3 S6 2.593820 1_455
Ag3 S1 2.766008 1_455
Ag4 S3 2.410726 1_555
Ag4 S5 2.497822 1_545
Ag5 S2 2.410726 1_555
Ag5 S4 2.497822 1_545
Ag6 S1 2.544083 1_555
Ag6 S7 2.566594 1_655
Ag6 S5 2.669241 1_555
Ag7 S0 2.544083 1_556
Ag7 S6 2.566594 1_455
Ag7 S4 2.669241 1_555
Ag8 S11 2.537002 1_555
Ag8 S1 2.546208 1_555
Ag8 S9 2.664391 1_545
Ag9 S10 2.537002 1_555
Ag9 S0 2.546208 1_555
Ag9 S8 2.664391 1_545
Ag10 S0 2.476295 1_556
Ag10 S9 2.485801 1_555
Ag10 S5 2.787618 1_556
Ag11 S1 2.476295 1_555
Ag11 S8 2.485801 1_555
Ag11 S4 2.787618 1_555
Ag12 S1 2.618842 1_555
Ag12 S10 2.630797 1_555
Ag12 S3 2.652072 1_555
Ag12 S4 2.846926 1_545
Ag13 S0 2.618842 1_556
Ag13 S11 2.630797 1_555
Ag13 S2 2.652072 1_555
Ag13 S5 2.846926 1_546
