# generated using pymatgen
data_H30S2O21
_symmetry_space_group_name_H-M   'P 1'
_cell_length_a   13.88084008
_cell_length_b   13.88084008
_cell_length_c   5.93278488
_cell_angle_alpha   85.04430271
_cell_angle_beta   85.04430271
_cell_angle_gamma   153.72639398
_symmetry_Int_Tables_number   1
_chemical_formula_structural   H30S2O21
_chemical_formula_sum   'H30 S2 O21'
_cell_volume   468.03336160
_cell_formula_units_Z   1
loop_
 _symmetry_equiv_pos_site_id
 _symmetry_equiv_pos_as_xyz
  1  'x, y, z'
loop_
 _atom_site_type_symbol
 _atom_site_label
 _atom_site_symmetry_multiplicity
 _atom_site_fract_x
 _atom_site_fract_y
 _atom_site_fract_z
 _atom_site_occupancy
  H  H0  1  0.24896400  0.41072300  0.16032200  1
  H  H1  1  0.41072300  0.24896400  0.16032200  1
  H  H2  1  0.02024900  0.21162200  0.08974900  1
  H  H3  1  0.21162200  0.02024900  0.08974900  1
  H  H4  1  0.92383200  0.92383200  0.55981900  1
  H  H5  1  0.02659900  0.09360100  0.30071500  1
  H  H6  1  0.09360100  0.02659900  0.30071500  1
  H  H7  1  0.76285000  0.82205200  0.93517000  1
  H  H8  1  0.82205200  0.76285000  0.93517000  1
  H  H9  1  0.47762300  0.68484300  0.66039700  1
  H  H10  1  0.68484300  0.47762300  0.66039700  1
  H  H11  1  0.50010800  0.65712600  0.41286700  1
  H  H12  1  0.65712600  0.50010800  0.41286700  1
  H  H13  1  0.37208600  0.43770300  0.70870500  1
  H  H14  1  0.43770300  0.37208600  0.70870500  1
  H  H15  1  0.15048000  0.15048000  0.81565000  1
  H  H16  1  0.23098700  0.57806400  0.41042700  1
  H  H17  1  0.57806400  0.23098800  0.41042700  1
  H  H18  1  0.01425200  0.32494700  0.62256700  1
  H  H19  1  0.32494700  0.01425200  0.62256700  1
  H  H20  1  0.49062900  0.92527600  0.82859000  1
  H  H21  1  0.92527600  0.49062900  0.82859000  1
  H  H22  1  0.47911200  0.02532900  0.72001200  1
  H  H23  1  0.09183000  0.70332500  0.24715600  1
  H  H24  1  0.70332500  0.09183000  0.24715600  1
  H  H25  1  0.31030700  0.90582500  0.35206700  1
  H  H26  1  0.90582500  0.31030700  0.35206700  1
  H  H27  1  0.36169300  0.89805800  0.06943000  1
  H  H28  1  0.89805800  0.36169300  0.06943000  1
  H  H29  1  0.02532900  0.47911200  0.72001200  1
  S  S0  1  0.62148600  0.87957000  0.00106200  1
  S  S1  1  0.87957000  0.62148600  0.00106200  1
  O  O0  1  0.07979800  0.24101500  0.21862100  1
  O  O1  1  0.24101500  0.07979800  0.21862100  1
  O  O2  1  0.97119100  0.97119100  0.37612300  1
  O  O3  1  0.88072100  0.88072100  0.84752000  1
  O  O4  1  0.44582000  0.59757500  0.59209800  1
  O  O5  1  0.59757500  0.44582000  0.59209800  1
  O  O6  1  0.31785100  0.31785100  0.79437500  1
  O  O7  1  0.06171700  0.42885000  0.51424500  1
  O  O8  1  0.42885000  0.06171700  0.51424500  1
  O  O9  1  0.50561800  0.00776900  0.85439200  1
  O  O10  1  0.00776900  0.50561800  0.85439200  1
  O  O11  1  0.80098000  0.23641400  0.25797100  1
  O  O12  1  0.23641400  0.80098000  0.25797100  1
  O  O13  1  0.51400500  0.81528600  0.82154100  1
  O  O14  1  0.81528600  0.51400500  0.82154100  1
  O  O15  1  0.88152800  0.12314600  0.88953000  1
  O  O16  1  0.12314600  0.88152800  0.88953000  1
  O  O17  1  0.53075100  0.85600600  0.21746600  1
  O  O18  1  0.85600600  0.53075100  0.21746600  1
  O  O19  1  0.55316100  0.71317600  0.09074700  1
  O  O20  1  0.71317600  0.55316100  0.09074700  1
loop_
_geom_bond_atom_site_label_1
_geom_bond_atom_site_label_2
_geom_bond_distance
_geom_bond_site_symmetry_2
H0 O0 0.990718 1_555
H1 O1 0.990718 1_555
H2 O0 0.996268 1_555
H3 O1 0.996268 1_555
H4 O2 1.014623 1_555
H4 O3 1.623098 1_555
H5 O2 1.069750 1_445
H5 O0 1.423164 1_555
H6 O2 1.069750 1_445
H6 O1 1.423164 1_555
H7 O3 1.000433 1_555
H8 O3 1.000433 1_555
H9 O4 0.991532 1_555
H10 O5 0.991532 1_555
H11 O4 0.987132 1_555
H12 O5 0.987132 1_555
H13 O6 1.065130 1_555
H13 O4 1.410650 1_555
H14 O6 1.065130 1_555
H14 O5 1.410650 1_555
H15 O6 1.014805 1_555
H16 O7 0.995969 1_555
H17 O8 0.995975 1_555
H18 O7 0.994874 1_555
H19 O8 0.994874 1_555
H20 O9 0.993195 1_565
H21 O10 0.993195 1_655
H22 O9 1.004153 1_555
H23 O12 1.013822 1_555
H23 O18 1.610762 1_455
H24 O11 1.013822 1_555
H24 O17 1.610762 1_545
H25 O12 1.021742 1_555
H25 O8 1.601092 1_565
H26 O11 1.021742 1_555
H26 O7 1.601092 1_655
H27 O12 1.136718 1_555
H27 O9 1.306044 1_564
H28 O11 1.136718 1_555
H28 O10 1.306044 1_654
H29 O10 1.004153 1_555
O13 S0 1.485826 1_556
O14 S1 1.485826 1_556
O15 S0 1.487455 1_546
O16 S1 1.487455 1_456
O17 S0 1.500295 1_555
O18 S1 1.500295 1_555
O19 S0 1.513039 1_555
O20 S1 1.513039 1_555
