# generated using pymatgen
data_BaNa4(ReN3)2
_symmetry_space_group_name_H-M   'P 1'
_cell_length_a   6.22331051
_cell_length_b   6.49301757
_cell_length_c   13.44002148
_cell_angle_alpha   90.00000120
_cell_angle_beta   102.79981640
_cell_angle_gamma   121.44426670
_symmetry_Int_Tables_number   1
_chemical_formula_structural   BaNa4(ReN3)2
_chemical_formula_sum   'Ba2 Na8 Re4 N12'
_cell_volume   447.43738157
_cell_formula_units_Z   2
loop_
 _symmetry_equiv_pos_site_id
 _symmetry_equiv_pos_as_xyz
  1  'x, y, z'
loop_
 _atom_site_type_symbol
 _atom_site_label
 _atom_site_symmetry_multiplicity
 _atom_site_fract_x
 _atom_site_fract_y
 _atom_site_fract_z
 _atom_site_occupancy
  Ba  Ba0  1  1.00000000  0.38173412  0.75000000  1
  Ba  Ba1  1  0.00000000  0.61826588  0.25000000  1
  Na  Na0  1  0.11153303  0.79683781  0.99662908  1
  Na  Na1  1  0.88846697  0.68530478  0.50337092  1
  Na  Na2  1  0.88846697  0.20316219  0.00337092  1
  Na  Na3  1  0.11153303  0.31469522  0.49662908  1
  Na  Na4  1  0.30294969  0.04144916  0.71300457  1
  Na  Na5  1  0.69705031  0.73849847  0.78699543  1
  Na  Na6  1  0.69705031  0.95855084  0.28699543  1
  Na  Na7  1  0.30294969  0.26150153  0.21300457  1
  Re  Re0  1  0.54813502  0.88014148  0.57202513  1
  Re  Re1  1  0.45186498  0.33200447  0.92797487  1
  Re  Re2  1  0.45186498  0.11985852  0.42797487  1
  Re  Re3  1  0.54813502  0.66799553  0.07202513  1
  N  N0  1  0.86769544  0.93903688  0.62674939  1
  N  N1  1  0.13230456  0.07134144  0.87325061  1
  N  N2  1  0.13230456  0.06096312  0.37325061  1
  N  N3  1  0.86769544  0.92865856  0.12674939  1
  N  N4  1  0.30387187  0.66941419  0.63270199  1
  N  N5  1  0.69612813  0.36554032  0.86729801  1
  N  N6  1  0.69612813  0.33058581  0.36729801  1
  N  N7  1  0.30387187  0.63445968  0.13270199  1
  N  N8  1  0.56351252  0.19218757  0.57986506  1
  N  N9  1  0.43648748  0.62867605  0.92013494  1
  N  N10  1  0.43648748  0.80781243  0.42013494  1
  N  N11  1  0.56351252  0.37132395  0.07986506  1
loop_
_geom_bond_atom_site_label_1
_geom_bond_atom_site_label_2
_geom_bond_distance
_geom_bond_site_symmetry_2
Ba0 N5 2.680691 1_555
Ba0 N4 2.680696 1_655
Ba0 N8 2.807471 1_555
Ba0 N9 2.807472 1_655
Ba0 N1 2.934395 1_655
Ba0 N0 2.934395 1_545
Ba1 N7 2.680691 1_555
Ba1 N6 2.680696 1_455
Ba1 N10 2.807471 1_555
Ba1 N11 2.807472 1_455
Ba1 N3 2.934395 1_455
Ba1 N2 2.934395 1_565
N0 Re0 1.789033 1_555
N0 Na1 2.407853 1_555
N0 Na4 2.419221 1_665
N0 Na5 2.651873 1_555
N0 Na3 2.936782 1_665
N1 Re1 1.789029 1_555
N1 Na0 2.407853 1_545
N1 Na5 2.419223 1_445
N1 Na4 2.651871 1_555
N1 Na2 2.936782 1_456
N2 Re2 1.789033 1_555
N2 Na3 2.407853 1_555
N2 Na6 2.419221 1_445
N2 Na7 2.651873 1_555
N2 Na1 2.936782 1_445
N3 Re3 1.789029 1_555
N3 Na2 2.407853 1_565
N3 Na7 2.419223 1_665
N3 Na6 2.651871 1_555
N3 Na0 2.936782 1_654
N4 Re0 1.796431 1_555
N4 Na3 2.497149 1_555
N4 Na4 2.649024 1_565
N4 Na5 2.663685 1_555
N4 Na1 2.828864 1_455
N5 Re1 1.796431 1_555
N5 Na2 2.497140 1_556
N5 Na5 2.649030 1_555
N5 Na4 2.663679 1_555
N5 Na0 2.828871 1_655
N6 Re2 1.796431 1_555
N6 Na1 2.497149 1_555
N6 Na6 2.649024 1_545
N6 Na7 2.663685 1_555
N6 Na3 2.828864 1_655
N7 Re3 1.796431 1_555
N7 Na0 2.497140 1_554
N7 Na7 2.649030 1_555
N7 Na6 2.663679 1_555
N7 Na2 2.828871 1_455
N8 Re2 1.975282 1_555
N8 Re0 1.979560 1_545
N8 Na4 2.533606 1_555
N9 Re3 1.975281 1_556
N9 Re1 1.979579 1_555
N9 Na5 2.533607 1_555
N10 Re0 1.975282 1_555
N10 Re2 1.979560 1_565
N10 Na6 2.533606 1_555
N11 Re1 1.975281 1_554
N11 Re3 1.979579 1_555
N11 Na7 2.533607 1_555
