# generated using pymatgen
data_Ta8CrSnO25
_symmetry_space_group_name_H-M   'P 1'
_cell_length_a   3.83563012
_cell_length_b   11.36055293
_cell_length_c   11.33780217
_cell_angle_alpha   88.48879389
_cell_angle_beta   80.21411709
_cell_angle_gamma   80.30382583
_symmetry_Int_Tables_number   1
_chemical_formula_structural   Ta8CrSnO25
_chemical_formula_sum   'Ta8 Cr1 Sn1 O25'
_cell_volume   479.89877886
_cell_formula_units_Z   1
loop_
 _symmetry_equiv_pos_site_id
 _symmetry_equiv_pos_as_xyz
  1  'x, y, z'
loop_
 _atom_site_type_symbol
 _atom_site_label
 _atom_site_symmetry_multiplicity
 _atom_site_fract_x
 _atom_site_fract_y
 _atom_site_fract_z
 _atom_site_occupancy
  Ta  Ta0  1  0.87885394  0.80360015  0.44257452  1
  Ta  Ta1  1  0.12543853  0.19517740  0.55818109  1
  Ta  Ta2  1  0.67843851  0.44327042  0.19634674  1
  Ta  Ta3  1  0.31973168  0.55714382  0.80268424  1
  Ta  Ta4  1  0.89860724  0.31995327  0.87662660  1
  Ta  Ta5  1  0.09463319  0.68073303  0.12325590  1
  Ta  Ta6  1  0.22407030  0.87652880  0.68135506  1
  Ta  Ta7  1  0.99441263  0.00270839  0.00622212  1
  Cr  Cr0  1  0.25138690  0.49981923  0.50019835  1
  Sn  Sn0  1  0.77899458  0.12576452  0.32417832  1
  O  O0  1  0.94580441  0.62121938  0.51534288  1
  O  O1  1  0.53759949  0.51508165  0.37601748  1
  O  O2  1  0.43207978  0.48527051  0.62351280  1
  O  O3  1  0.08337665  0.37783621  0.48686713  1
  O  O4  1  0.50588876  0.99720205  0.98914786  1
  O  O5  1  0.24310694  0.14666751  0.37476808  1
  O  O6  1  0.38493275  0.36586938  0.85785311  1
  O  O7  1  0.60830304  0.63607874  0.14024793  1
  O  O8  1  0.75760864  0.85689548  0.63456564  1
  O  O9  1  0.83079025  0.95774443  0.39247314  1
  O  O10  1  0.98770217  0.72988957  0.29304737  1
  O  O11  1  0.72131424  0.29682291  0.26363038  1
  O  O12  1  0.28268902  0.70516526  0.73217840  1
  O  O13  1  0.01051779  0.27073661  0.70672462  1
  O  O14  1  0.94877354  0.16748377  0.93097718  1
  O  O15  1  0.11956114  0.92995293  0.83255365  1
  O  O16  1  0.88754199  0.06418594  0.16060759  1
  O  O17  1  0.77872346  0.39470015  0.03538800  1
  O  O18  1  0.35853961  0.80134055  0.49047242  1
  O  O19  1  0.15228347  0.49121524  0.19433370  1
  O  O20  1  0.83900391  0.51061413  0.80385220  1
  O  O21  1  0.64890865  0.19660080  0.51473900  1
  O  O22  1  0.18128174  0.03763309  0.61160789  1
  O  O23  1  0.21006129  0.60713182  0.96197402  1
  O  O24  1  0.04905176  0.83196187  0.06548658  1
loop_
_geom_bond_atom_site_label_1
_geom_bond_atom_site_label_2
_geom_bond_distance
_geom_bond_site_symmetry_2
Cr0 O3 1.644242 1_555
Cr0 O0 1.644681 1_455
Cr0 O2 1.655599 1_555
Cr0 O1 1.656308 1_555
O0 Ta0 2.200504 1_555
O1 Ta2 2.161519 1_555
O2 Ta3 2.156484 1_555
O3 Ta1 2.197478 1_555
O4 Ta7 1.927675 1_566
O4 Ta7 1.928828 1_466
O5 Sn0 2.012719 1_455
O5 Sn0 2.013038 1_555
O5 Ta1 2.118809 1_555
O6 Ta4 1.995979 1_455
O6 Ta4 1.997463 1_555
O6 Ta3 2.230263 1_555
O7 Ta5 1.990863 1_555
O7 Ta5 1.991372 1_655
O7 Ta2 2.249666 1_555
O8 Ta6 1.998905 1_655
O8 Ta6 2.000649 1_555
O8 Ta0 2.225238 1_555
O9 Ta0 1.815934 1_555
O9 Sn0 2.032030 1_565
O10 Ta0 1.861751 1_555
O10 Ta5 1.974107 1_655
O11 Ta2 1.805686 1_555
O11 Sn0 2.033009 1_555
O12 Ta3 1.836905 1_555
O12 Ta6 2.002496 1_555
O13 Ta1 1.861174 1_555
O13 Ta4 1.975463 1_455
O14 Ta4 1.813501 1_555
O14 Ta7 2.029471 1_556
O15 Ta6 1.790828 1_555
O15 Ta7 2.102743 1_466
O16 Ta7 1.855756 1_555
O16 Sn0 1.951890 1_555
O17 Ta2 1.877698 1_555
O17 Ta4 1.959662 1_554
O18 Ta0 1.981571 1_555
O18 Ta0 2.000949 1_455
O18 Ta6 2.291074 1_555
O19 Ta2 1.979694 1_455
O19 Ta2 2.003696 1_555
O19 Ta5 2.267715 1_555
O20 Ta3 1.974984 1_555
O20 Ta3 1.999798 1_655
O20 Ta4 2.286422 1_555
O21 Ta1 1.969602 1_655
O21 Ta1 1.987111 1_555
O21 Sn0 2.270351 1_555
O22 Ta1 1.863851 1_555
O22 Ta6 1.966881 1_545
O23 Ta3 1.864525 1_555
O23 Ta5 1.979803 1_556
O24 Ta5 1.813733 1_555
O24 Ta7 2.024925 1_465
