# generated using pymatgen
data_SrZnNiH4
_symmetry_space_group_name_H-M   'P 1'
_cell_length_a   6.70861761
_cell_length_b   6.70861761
_cell_length_c   6.70861761
_cell_angle_alpha   90.00000000
_cell_angle_beta   90.00000000
_cell_angle_gamma   90.00000000
_symmetry_Int_Tables_number   1
_chemical_formula_structural   SrZnNiH4
_chemical_formula_sum   'Sr4 Zn4 Ni4 H16'
_cell_volume   301.92502674
_cell_formula_units_Z   4
loop_
 _symmetry_equiv_pos_site_id
 _symmetry_equiv_pos_as_xyz
  1  'x, y, z'
loop_
 _atom_site_type_symbol
 _atom_site_label
 _atom_site_symmetry_multiplicity
 _atom_site_fract_x
 _atom_site_fract_y
 _atom_site_fract_z
 _atom_site_occupancy
  Sr  Sr0  1  0.15976848  0.65976848  0.84023152  1
  Sr  Sr1  1  0.65976848  0.84023152  0.15976848  1
  Sr  Sr2  1  0.84023152  0.15976848  0.65976848  1
  Sr  Sr3  1  0.34023152  0.34023152  0.34023152  1
  Zn  Zn0  1  0.85097056  0.35097056  0.14902944  1
  Zn  Zn1  1  0.35097056  0.14902944  0.85097056  1
  Zn  Zn2  1  0.14902944  0.85097056  0.35097056  1
  Zn  Zn3  1  0.64902944  0.64902944  0.64902944  1
  Ni  Ni0  1  0.42875140  0.92875140  0.57124860  1
  Ni  Ni1  1  0.92875140  0.57124860  0.42875140  1
  Ni  Ni2  1  0.57124860  0.42875140  0.92875140  1
  Ni  Ni3  1  0.07124860  0.07124860  0.07124860  1
  H  H0  1  0.56845029  0.06845029  0.43154971  1
  H  H1  1  0.06845029  0.43154971  0.56845029  1
  H  H2  1  0.43154971  0.56845029  0.06845029  1
  H  H3  1  0.93154971  0.93154971  0.93154971  1
  H  H4  1  0.27238865  0.95690545  0.09388584  1
  H  H5  1  0.90611416  0.77238865  0.54309455  1
  H  H6  1  0.45690545  0.40611416  0.72761135  1
  H  H7  1  0.77238865  0.54309455  0.90611416  1
  H  H8  1  0.40611416  0.72761135  0.45690545  1
  H  H9  1  0.95690545  0.09388584  0.27238865  1
  H  H10  1  0.72761135  0.45690545  0.40611416  1
  H  H11  1  0.09388584  0.27238865  0.95690545  1
  H  H12  1  0.54309455  0.90611416  0.77238865  1
  H  H13  1  0.22761135  0.04309455  0.59388584  1
  H  H14  1  0.59388584  0.22761135  0.04309455  1
  H  H15  1  0.04309455  0.59388584  0.22761135  1
loop_
_geom_bond_atom_site_label_1
_geom_bond_atom_site_label_2
_geom_bond_distance
_geom_bond_site_symmetry_2
H0 Ni0 1.623255 1_545
H0 Sr3 2.458394 1_555
H0 Sr1 2.458394 1_545
H0 Sr2 2.458394 1_555
H1 Ni1 1.623255 1_455
H1 Sr2 2.458394 1_455
H1 Sr3 2.458394 1_555
H1 Sr0 2.458394 1_555
H2 Ni2 1.623255 1_554
H2 Sr3 2.458394 1_555
H2 Sr0 2.458394 1_554
H2 Sr1 2.458394 1_555
H3 Ni3 1.623255 1_666
H3 Sr0 2.458394 1_655
H3 Sr2 2.458394 1_565
H3 Sr1 2.458394 1_556
H4 Ni3 1.559579 1_565
H4 Zn2 2.040702 1_555
H4 Zn1 2.143554 1_564
H4 Sr0 2.727647 1_554
H4 Sr1 2.749850 1_555
H5 Ni1 1.559579 1_555
H5 Zn3 2.040702 1_555
H5 Zn2 2.143554 1_655
H5 Sr0 2.727647 1_655
H5 Sr2 2.749850 1_565
H6 Ni2 1.559579 1_555
H6 Zn1 2.040702 1_555
H6 Zn3 2.143554 1_555
H6 Sr0 2.727647 1_555
H6 Sr3 2.749850 1_555
H7 Ni2 1.559579 1_555
H7 Zn3 2.040702 1_555
H7 Zn0 2.143554 1_556
H7 Sr1 2.727647 1_556
H7 Sr0 2.749850 1_655
H8 Ni0 1.559579 1_555
H8 Zn2 2.040702 1_555
H8 Zn3 2.143554 1_555
H8 Sr1 2.727647 1_555
H8 Sr3 2.749850 1_555
H9 Ni3 1.559579 1_655
H9 Zn0 2.040702 1_555
H9 Zn2 2.143554 1_645
H9 Sr1 2.727647 1_545
H9 Sr2 2.749850 1_555
H10 Ni1 1.559579 1_555
H10 Zn0 2.040702 1_555
H10 Zn3 2.143554 1_555
H10 Sr2 2.727647 1_555
H10 Sr3 2.749850 1_555
H11 Ni3 1.559579 1_556
H11 Zn1 2.040702 1_555
H11 Zn0 2.143554 1_456
H11 Sr2 2.727647 1_455
H11 Sr0 2.749850 1_555
H12 Ni0 1.559579 1_555
H12 Zn3 2.040702 1_555
H12 Zn1 2.143554 1_565
H12 Sr2 2.727647 1_565
H12 Sr1 2.749850 1_556
H13 Ni0 1.559579 1_545
H13 Zn1 2.040702 1_555
H13 Zn2 2.143554 1_545
H13 Sr3 2.727647 1_555
H13 Sr2 2.749850 1_455
H14 Ni2 1.559579 1_554
H14 Zn0 2.040702 1_555
H14 Zn1 2.143554 1_554
H14 Sr3 2.727647 1_555
H14 Sr1 2.749850 1_545
H15 Ni1 1.559579 1_455
H15 Zn2 2.040702 1_555
H15 Zn0 2.143554 1_455
H15 Sr3 2.727647 1_555
H15 Sr0 2.749850 1_554
