# generated using pymatgen
data_KRb2ScBi2
_symmetry_space_group_name_H-M   'P 1'
_cell_length_a   10.09574607
_cell_length_b   10.09574636
_cell_length_c   10.09574655
_cell_angle_alpha   131.14862085
_cell_angle_beta   67.63867682
_cell_angle_gamma   136.25561318
_symmetry_Int_Tables_number   1
_chemical_formula_structural   KRb2ScBi2
_chemical_formula_sum   'K2 Rb4 Sc2 Bi4'
_cell_volume   526.77943999
_cell_formula_units_Z   2
loop_
 _symmetry_equiv_pos_site_id
 _symmetry_equiv_pos_as_xyz
  1  'x, y, z'
loop_
 _atom_site_type_symbol
 _atom_site_label
 _atom_site_symmetry_multiplicity
 _atom_site_fract_x
 _atom_site_fract_y
 _atom_site_fract_z
 _atom_site_occupancy
  K  K0  1  0.74999900  0.24999900  0.50000000  1
  K  K1  1  0.24999900  0.74999900  0.50000000  1
  Rb  Rb0  1  0.31990785  0.73324554  0.05315439  1
  Rb  Rb1  1  0.18009315  0.23324554  0.41333869  1
  Rb  Rb2  1  0.81990685  0.76675446  0.58666131  1
  Rb  Rb3  1  0.68009315  0.26675446  0.94684661  1
  Sc  Sc0  1  0.24999900  0.24999900  0.00000000  1
  Sc  Sc1  1  0.75000000  0.75000000  0.00000000  1
  Bi  Bi0  1  0.90336989  0.19470687  0.09807677  1
  Bi  Bi1  1  0.59663011  0.69470687  0.29133598  1
  Bi  Bi2  1  0.40336989  0.30529313  0.70866402  1
  Bi  Bi3  1  0.09663011  0.80529313  0.90192223  1
loop_
_geom_bond_atom_site_label_1
_geom_bond_atom_site_label_2
_geom_bond_distance
_geom_bond_site_symmetry_2
Bi0 Sc0 2.967619 1_655
Bi0 Sc1 2.967624 1_545
Bi0 K1 3.558289 1_655
Bi0 K0 3.558297 1_555
Bi0 Rb3 3.793481 1_554
Bi0 Rb2 3.837676 1_544
Bi0 Rb0 4.026060 1_655
Bi0 Rb0 4.026067 1_545
Bi1 Sc1 2.967615 1_555
Bi1 Sc0 2.967624 1_555
Bi1 K0 3.558286 1_565
Bi1 K1 3.558298 1_555
Bi1 Rb2 3.793482 1_555
Bi1 Rb3 3.837676 1_554
Bi1 Rb1 4.026071 1_665
Bi1 Rb1 4.026079 1_555
Bi2 Sc1 2.967619 1_556
Bi2 Sc0 2.967620 1_556
Bi2 K0 3.558290 1_555
Bi2 K1 3.558294 1_545
Bi2 Rb1 3.793482 1_555
Bi2 Rb0 3.837670 1_556
Bi2 Rb2 4.026071 1_445
Bi2 Rb2 4.026079 1_555
Bi3 Sc0 2.967615 1_566
Bi3 Sc1 2.967624 1_456
Bi3 K1 3.558280 1_555
Bi3 K0 3.558292 1_455
Bi3 Rb0 3.793505 1_556
Bi3 Rb1 3.837683 1_566
Bi3 Rb3 4.026072 1_565
Bi3 Rb3 4.026072 1_455
