# generated using pymatgen
data_Be8ReMo3
_symmetry_space_group_name_H-M   'P 1'
_cell_length_a   4.41183203
_cell_length_b   4.41183204
_cell_length_c   7.26645757
_cell_angle_alpha   90.00000000
_cell_angle_beta   90.00000000
_cell_angle_gamma   120.00000737
_symmetry_Int_Tables_number   1
_chemical_formula_structural   Be8ReMo3
_chemical_formula_sum   'Be8 Re1 Mo3'
_cell_volume   122.48736197
_cell_formula_units_Z   1
loop_
 _symmetry_equiv_pos_site_id
 _symmetry_equiv_pos_as_xyz
  1  'x, y, z'
loop_
 _atom_site_type_symbol
 _atom_site_label
 _atom_site_symmetry_multiplicity
 _atom_site_fract_x
 _atom_site_fract_y
 _atom_site_fract_z
 _atom_site_occupancy
  Be  Be0  1  0.00000000  0.00000000  0.00127228  1
  Be  Be1  1  0.00000000  0.00000000  0.49897567  1
  Be  Be2  1  0.83057305  0.66114711  0.25152956  1
  Be  Be3  1  0.16983916  0.83016084  0.74886398  1
  Be  Be4  1  0.66032167  0.83016084  0.74886398  1
  Be  Be5  1  0.33885289  0.16942695  0.25152956  1
  Be  Be6  1  0.83057305  0.16942695  0.25152956  1
  Be  Be7  1  0.16983916  0.33967833  0.74886398  1
  Re  Re0  1  0.33333300  0.66666700  0.43735976  1
  Mo  Mo0  1  0.33333300  0.66666700  0.06376278  1
  Mo  Mo1  1  0.66666700  0.33333300  0.56094878  1
  Mo  Mo2  1  0.66666700  0.33333300  0.93649911  1
loop_
_geom_bond_atom_site_label_1
_geom_bond_atom_site_label_2
_geom_bond_distance
_geom_bond_site_symmetry_2
Be0 Be5 2.232278 1_555
Be0 Be2 2.232278 1_445
Be0 Be6 2.232281 1_455
Be0 Be4 2.246850 1_444
Be0 Be7 2.246850 1_554
Be0 Be3 2.246850 1_544
Be0 Mo0 2.587328 1_545
Be0 Mo0 2.587332 1_445
Be0 Mo0 2.587332 1_555
Be0 Mo2 2.590291 1_454
Be0 Mo2 2.590294 1_554
Be0 Mo2 2.590294 1_444
Be1 Be5 2.215669 1_555
Be1 Be2 2.215669 1_445
Be1 Be6 2.215672 1_455
Be1 Be4 2.231927 1_445
Be1 Be7 2.231927 1_555
Be1 Be3 2.231927 1_545
Be1 Re0 2.586220 1_545
Be1 Re0 2.586224 1_445
Be1 Re0 2.586224 1_555
Be1 Mo1 2.586671 1_455
Be1 Mo1 2.586675 1_555
Be1 Mo1 2.586675 1_445
Be2 Be5 2.169387 1_555
Be2 Be6 2.169387 1_555
Be2 Be5 2.242445 1_665
Be2 Be6 2.242445 1_565
Be2 Mo1 2.573708 1_555
Be2 Re0 2.586483 1_655
Be2 Re0 2.586483 1_555
Be2 Mo0 2.593857 1_655
Be2 Mo0 2.593857 1_555
Be2 Mo2 2.609403 1_554
Be3 Be4 2.163926 1_555
Be3 Be7 2.163926 1_555
Be3 Be4 2.247906 1_455
Be3 Be7 2.247906 1_565
Be3 Re0 2.585427 1_555
Be3 Mo2 2.593382 1_455
Be3 Mo2 2.593382 1_565
Be3 Mo1 2.594452 1_455
Be3 Mo1 2.594452 1_565
Be3 Mo0 2.607049 1_556
Be4 Be7 2.163926 1_555
Be4 Be7 2.247905 1_665
Be4 Re0 2.585428 1_555
Be4 Mo2 2.593380 1_565
Be4 Mo2 2.593384 1_555
Be4 Mo1 2.594450 1_565
Be4 Mo1 2.594454 1_555
Be4 Mo0 2.607051 1_556
Be5 Be6 2.169387 1_555
Be5 Be6 2.242445 1_455
Be5 Mo1 2.573708 1_555
Be5 Re0 2.586483 1_545
Be5 Re0 2.586483 1_555
Be5 Mo0 2.593857 1_545
Be5 Mo0 2.593857 1_555
Be5 Mo2 2.609403 1_554
Be6 Mo1 2.573704 1_555
Be6 Re0 2.586483 1_655
Be6 Re0 2.586483 1_545
Be6 Mo0 2.593857 1_655
Be6 Mo0 2.593857 1_545
Be6 Mo2 2.609400 1_554
Be7 Re0 2.585428 1_555
Be7 Mo2 2.593380 1_455
Be7 Mo2 2.593384 1_555
Be7 Mo1 2.594450 1_455
Be7 Mo1 2.594454 1_555
Be7 Mo0 2.607051 1_556
Mo0 Mo2 2.709843 1_454
Mo0 Mo2 2.709843 1_564
Mo0 Mo2 2.709850 1_554
Mo0 Re0 2.714727 1_555
Mo1 Re0 2.700847 1_655
Mo1 Re0 2.700847 1_545
Mo1 Re0 2.700855 1_555
Mo1 Mo2 2.728921 1_555
