# generated using pymatgen
data_Hf6Mg2(Al2Pd)7
_symmetry_space_group_name_H-M   'P 1'
_cell_length_a   8.75098520
_cell_length_b   8.75036427
_cell_length_c   8.75036657
_cell_angle_alpha   59.95370359
_cell_angle_beta   59.99765714
_cell_angle_gamma   59.99765377
_symmetry_Int_Tables_number   1
_chemical_formula_structural   Hf6Mg2(Al2Pd)7
_chemical_formula_sum   'Hf6 Mg2 Al14 Pd7'
_cell_volume   473.61643762
_cell_formula_units_Z   1
loop_
 _symmetry_equiv_pos_site_id
 _symmetry_equiv_pos_as_xyz
  1  'x, y, z'
loop_
 _atom_site_type_symbol
 _atom_site_label
 _atom_site_symmetry_multiplicity
 _atom_site_fract_x
 _atom_site_fract_y
 _atom_site_fract_z
 _atom_site_occupancy
  Hf  Hf0  1  0.67997986  0.68034071  0.31883036  1
  Hf  Hf1  1  0.32084907  0.68034071  0.31883036  1
  Hf  Hf2  1  0.67692677  0.32307323  0.32307323  1
  Hf  Hf3  1  0.32084907  0.31883036  0.68034071  1
  Hf  Hf4  1  0.67997986  0.31883036  0.68034071  1
  Hf  Hf5  1  0.31708685  0.68291315  0.68291315  1
  Mg  Mg0  1  0.88095217  0.88436371  0.35373295  1
  Mg  Mg1  1  0.88095217  0.35373295  0.88436371  1
  Al  Al0  1  0.36114096  0.87995585  0.87995585  1
  Al  Al1  1  0.87895035  0.87995585  0.87995585  1
  Al  Al2  1  0.12050037  0.12157032  0.63742694  1
  Al  Al3  1  0.12050037  0.63742694  0.12157032  1
  Al  Al4  1  0.63902887  0.12007469  0.12007469  1
  Al  Al5  1  0.12082174  0.12007469  0.12007469  1
  Al  Al6  1  0.66545994  0.66491580  0.00416532  1
  Al  Al7  1  0.66545994  0.00416532  0.66491580  1
  Al  Al8  1  0.00439044  0.66479130  0.66479130  1
  Al  Al9  1  0.66602795  0.66479130  0.66479130  1
  Al  Al10  1  0.33461607  0.33429099  0.99647686  1
  Al  Al11  1  0.33461607  0.99647686  0.33429099  1
  Al  Al12  1  0.99557487  0.33450758  0.33450758  1
  Al  Al13  1  0.33540898  0.33450758  0.33450758  1
  Pd  Pd0  1  0.00852827  0.99147173  0.99147173  1
  Pd  Pd1  1  0.00030324  0.00060193  0.50511254  1
  Pd  Pd2  1  0.49398128  0.00060193  0.50511254  1
  Pd  Pd3  1  0.00202167  0.49797833  0.49797833  1
  Pd  Pd4  1  0.49398128  0.50511254  0.00060193  1
  Pd  Pd5  1  0.00030324  0.50511254  0.00060193  1
  Pd  Pd6  1  0.50080826  0.99919174  0.99919174  1
loop_
_geom_bond_atom_site_label_1
_geom_bond_atom_site_label_2
_geom_bond_distance
_geom_bond_site_symmetry_2
Hf0 Hf2 3.121163 1_555
Hf0 Hf1 3.142748 1_555
Hf0 Hf4 3.161134 1_555
Hf0 Hf5 3.180795 1_555
Hf0 Pd5 3.183358 1_655
Hf0 Pd6 3.203438 1_554
Hf0 Pd3 3.218955 1_655
Hf0 Pd2 3.243323 1_565
Hf0 Mg0 3.255257 1_555
Hf1 Hf2 3.121163 1_555
Hf1 Hf3 3.161134 1_555
Hf1 Hf5 3.180795 1_555
Hf1 Pd4 3.183360 1_555
Hf1 Pd6 3.203438 1_554
Hf1 Pd3 3.218954 1_555
Hf1 Pd1 3.243324 1_565
Hf1 Mg0 3.255249 1_455
Hf2 Hf3 3.121163 1_555
Hf2 Hf4 3.121164 1_555
Hf2 Pd1 3.244838 1_655
Hf2 Pd5 3.244838 1_655
Hf2 Pd2 3.244843 1_555
Hf2 Pd4 3.244844 1_555
Hf2 Mg0 3.254200 1_545
Hf2 Mg1 3.254201 1_554
Hf3 Hf4 3.142748 1_555
Hf3 Hf5 3.180794 1_555
Hf3 Pd2 3.183360 1_555
Hf3 Pd6 3.203438 1_545
Hf3 Pd3 3.218955 1_555
Hf3 Pd5 3.243324 1_556
Hf3 Mg1 3.255249 1_455
Hf4 Hf5 3.180794 1_555
Hf4 Pd1 3.183358 1_655
Hf4 Pd6 3.203438 1_545
Hf4 Pd3 3.218954 1_655
Hf4 Pd4 3.243323 1_556
Hf4 Mg1 3.255257 1_555
Hf5 Pd2 3.179405 1_565
Hf5 Pd4 3.179406 1_556
Hf5 Pd1 3.179412 1_565
Hf5 Pd5 3.179412 1_556
Mg0 Pd0 2.589456 1_654
Mg0 Pd3 2.761958 1_655
Mg0 Pd1 2.770420 1_665
Mg0 Pd2 2.770434 1_565
Mg1 Pd0 2.589455 1_645
Mg1 Pd3 2.761958 1_655
Mg1 Pd5 2.770420 1_656
Mg1 Pd4 2.770434 1_556
Al0 Pd0 2.521307 1_555
Al0 Pd4 2.677854 1_556
Al0 Pd2 2.677855 1_565
Al0 Pd6 2.704028 1_555
Al0 Al5 2.972378 1_566
Al0 Hf5 3.225033 1_555
Al0 Hf3 3.235394 1_565
Al0 Hf1 3.235395 1_556
Al1 Pd0 2.521285 1_655
Al1 Pd5 2.677854 1_656
Al1 Pd1 2.677855 1_665
Al1 Pd6 2.704050 1_555
Al1 Al4 2.972378 1_566
Al1 Hf5 3.225016 1_655
Al1 Hf4 3.235400 1_565
Al1 Hf0 3.235400 1_556
Al2 Pd0 2.530179 1_545
Al2 Pd1 2.669454 1_555
Al2 Pd2 2.669461 1_555
Al2 Pd3 2.690313 1_555
Al2 Mg1 2.966035 1_455
Al2 Hf5 3.225278 1_545
Al2 Hf4 3.244716 1_455
Al2 Hf3 3.244731 1_555
Al3 Pd0 2.530178 1_554
Al3 Pd5 2.669454 1_555
Al3 Pd4 2.669461 1_555
Al3 Pd3 2.690314 1_555
Al3 Mg0 2.966035 1_455
Al3 Hf5 3.225279 1_554
Al3 Hf0 3.244716 1_455
Al3 Hf1 3.244731 1_555
Al4 Pd0 2.641648 1_644
Al4 Pd6 2.716674 1_544
Al4 Pd4 2.752942 1_555
Al4 Pd2 2.752943 1_555
Al4 Mg1 2.942016 1_554
Al4 Mg0 2.942016 1_545
Al4 Hf0 3.240653 1_545
Al4 Hf4 3.240654 1_554
Al4 Hf2 3.280021 1_555
Al5 Pd0 2.641648 1_544
Al5 Pd6 2.716674 1_544
Al5 Pd5 2.752942 1_555
Al5 Pd1 2.752943 1_555
Al5 Mg0 2.942010 1_445
Al5 Mg1 2.942010 1_454
Al5 Hf1 3.240654 1_545
Al5 Hf3 3.240654 1_554
Al5 Hf2 3.280021 1_455
Al6 Pd6 2.520749 1_554
Al6 Pd5 2.529233 1_655
Al6 Pd4 2.529249 1_555
Al6 Mg1 2.795684 1_554
Al6 Hf0 2.890495 1_555
Al6 Hf1 2.890500 1_555
Al6 Hf2 2.892366 1_555
Al7 Pd6 2.520750 1_545
Al7 Pd1 2.529233 1_655
Al7 Pd2 2.529249 1_555
Al7 Mg0 2.795685 1_545
Al7 Hf4 2.890495 1_555
Al7 Hf3 2.890499 1_555
Al7 Hf2 2.892366 1_555
Al8 Pd1 2.534072 1_565
Al8 Pd5 2.534073 1_556
Al8 Pd3 2.540842 1_555
Al8 Mg1 2.809774 1_455
Al8 Mg0 2.809775 1_455
Al8 Hf5 2.903664 1_555
Al8 Hf3 2.903850 1_555
Al8 Hf1 2.903851 1_555
Al9 Pd2 2.534077 1_565
Al9 Pd4 2.534078 1_556
Al9 Pd3 2.540837 1_655
Al9 Mg1 2.809775 1_555
Al9 Mg0 2.809775 1_555
Al9 Hf5 2.903673 1_555
Al9 Hf4 2.903854 1_555
Al9 Hf0 2.903855 1_555
Al10 Pd4 2.523807 1_556
Al10 Pd5 2.523815 1_556
Al10 Pd6 2.532533 1_545
Al10 Al5 2.763540 1_556
Al10 Al4 2.763541 1_556
Al10 Hf4 2.899936 1_555
Al10 Hf3 2.899937 1_555
Al10 Hf5 2.903277 1_555
Al11 Pd2 2.523808 1_565
Al11 Pd1 2.523815 1_565
Al11 Pd6 2.532534 1_554
Al11 Al4 2.763540 1_565
Al11 Al5 2.763541 1_565
Al11 Hf1 2.899936 1_555
Al11 Hf0 2.899936 1_555
Al11 Hf5 2.903277 1_555
Al12 Pd3 2.511142 1_655
Al12 Pd1 2.517969 1_655
Al12 Pd5 2.517970 1_655
Al12 Al5 2.766777 1_655
Al12 Hf2 2.892012 1_555
Al12 Hf0 2.899806 1_555
Al12 Hf4 2.899806 1_555
Al13 Pd3 2.511137 1_555
Al13 Pd2 2.517969 1_555
Al13 Pd4 2.517970 1_555
Al13 Al4 2.766779 1_555
Al13 Hf2 2.892021 1_555
Al13 Hf1 2.899810 1_555
Al13 Hf3 2.899811 1_555
