# generated using pymatgen
data_CaSi2TcIr
_symmetry_space_group_name_H-M   'P 1'
_cell_length_a   5.69142193
_cell_length_b   5.69142241
_cell_length_c   5.69142241
_cell_angle_alpha   136.62206942
_cell_angle_beta   136.62207993
_cell_angle_gamma   63.02005081
_symmetry_Int_Tables_number   1
_chemical_formula_structural   CaSi2TcIr
_chemical_formula_sum   'Ca1 Si2 Tc1 Ir1'
_cell_volume   85.86769170
_cell_formula_units_Z   1
loop_
 _symmetry_equiv_pos_site_id
 _symmetry_equiv_pos_as_xyz
  1  'x, y, z'
loop_
 _atom_site_type_symbol
 _atom_site_label
 _atom_site_symmetry_multiplicity
 _atom_site_fract_x
 _atom_site_fract_y
 _atom_site_fract_z
 _atom_site_occupancy
  Ca  Ca0  1  0.00000000  0.00000000  0.00000000  1
  Si  Si0  1  0.63287180  0.63287180  0.00000000  1
  Si  Si1  1  0.36712820  0.36712820  1.00000000  1
  Tc  Tc0  1  0.75000000  0.25000000  0.50000000  1
  Ir  Ir0  1  0.25000000  0.75000000  0.50000000  1
loop_
_geom_bond_atom_site_label_1
_geom_bond_atom_site_label_2
_geom_bond_distance
_geom_bond_site_symmetry_2
Ca0 Tc0 3.210941 1_555
Ca0 Ir0 3.210941 1_444
Ca0 Ir0 3.210942 1_545
Ca0 Tc0 3.210942 1_454
Ca0 Ir0 3.210942 1_544
Ca0 Tc0 3.210942 1_455
Ca0 Ir0 3.210942 1_555
Ca0 Tc0 3.210942 1_444
Ca0 Si0 3.242062 1_545
Ca0 Si1 3.242062 1_454
Ca0 Si0 3.242062 1_556
Ca0 Si1 3.242062 1_443
Ca0 Si0 3.242062 1_455
Ca0 Si1 3.242062 1_544
Ca0 Si0 3.242062 1_444
Ca0 Si1 3.242062 1_555
Si0 Tc0 2.390848 1_554
Si0 Tc0 2.390848 1_565
Si0 Si1 2.578890 1_554
Si1 Tc0 2.390847 1_455
Si1 Tc0 2.390847 1_556
Ir0 Si0 2.390847 1_455
Ir0 Si0 2.390847 1_556
Ir0 Si1 2.390848 1_554
Ir0 Si1 2.390848 1_565
Ir0 Tc0 2.974609 1_465
Ir0 Tc0 2.974609 1_555
Ir0 Tc0 2.974609 1_454
Ir0 Tc0 2.974609 1_566
