# generated using pymatgen
data_CsBe4P3
_symmetry_space_group_name_H-M   'P 1'
_cell_length_a   3.68143231
_cell_length_b   3.68143231
_cell_length_c   10.10403716
_cell_angle_alpha   90.00000000
_cell_angle_beta   90.00000000
_cell_angle_gamma   90.00000000
_symmetry_Int_Tables_number   1
_chemical_formula_structural   CsBe4P3
_chemical_formula_sum   'Cs1 Be4 P3'
_cell_volume   136.93944812
_cell_formula_units_Z   1
loop_
 _symmetry_equiv_pos_site_id
 _symmetry_equiv_pos_as_xyz
  1  'x, y, z'
loop_
 _atom_site_type_symbol
 _atom_site_label
 _atom_site_symmetry_multiplicity
 _atom_site_fract_x
 _atom_site_fract_y
 _atom_site_fract_z
 _atom_site_occupancy
  Cs  Cs0  1  0.00000000  0.00000000  0.50000000  1
  Be  Be0  1  0.50000000  0.00000000  0.86104087  1
  Be  Be1  1  0.00000000  0.50000000  0.86104087  1
  Be  Be2  1  0.50000000  0.00000000  0.13895913  1
  Be  Be3  1  0.00000000  0.50000000  0.13895913  1
  P  P0  1  0.50000000  0.50000000  0.74891355  1
  P  P1  1  0.50000000  0.50000000  0.25108645  1
  P  P2  1  0.00000000  0.00000000  0.00000000  1
loop_
_geom_bond_atom_site_label_1
_geom_bond_atom_site_label_2
_geom_bond_distance
_geom_bond_site_symmetry_2
Cs0 P0 3.619649 1_445
Cs0 P0 3.619649 1_555
Cs0 P0 3.619649 1_545
Cs0 P0 3.619649 1_455
Cs0 P1 3.619649 1_555
Cs0 P1 3.619649 1_445
Cs0 P1 3.619649 1_455
Cs0 P1 3.619649 1_545
Be0 P0 2.161431 1_545
Be0 P0 2.161431 1_555
Be0 P2 2.315078 1_656
Be0 P2 2.315078 1_556
Be1 P0 2.161431 1_455
Be1 P0 2.161431 1_555
Be1 P2 2.315078 1_566
Be1 P2 2.315078 1_556
Be2 P1 2.161431 1_555
Be2 P1 2.161431 1_545
Be2 P2 2.315078 1_655
Be2 P2 2.315078 1_555
Be3 P1 2.161431 1_555
Be3 P1 2.161431 1_455
Be3 P2 2.315078 1_565
Be3 P2 2.315078 1_555
