# generated using pymatgen
data_Hf8Ti9Si16Mo3
_symmetry_space_group_name_H-M   'P 1'
_cell_length_a   6.55344114
_cell_length_b   6.71752123
_cell_length_c   12.82728950
_cell_angle_alpha   90.00000000
_cell_angle_beta   90.00000000
_cell_angle_gamma   89.99762517
_symmetry_Int_Tables_number   1
_chemical_formula_structural   Hf8Ti9Si16Mo3
_chemical_formula_sum   'Hf8 Ti9 Si16 Mo3'
_cell_volume   564.69422577
_cell_formula_units_Z   1
loop_
 _symmetry_equiv_pos_site_id
 _symmetry_equiv_pos_as_xyz
  1  'x, y, z'
loop_
 _atom_site_type_symbol
 _atom_site_label
 _atom_site_symmetry_multiplicity
 _atom_site_fract_x
 _atom_site_fract_y
 _atom_site_fract_z
 _atom_site_occupancy
  Hf  Hf0  1  0.99610061  0.17286260  0.09433568  1
  Hf  Hf1  1  0.00287870  0.82747548  0.90499481  1
  Hf  Hf2  1  0.50246636  0.67372079  0.90539712  1
  Hf  Hf3  1  0.00287870  0.82747548  0.59500519  1
  Hf  Hf4  1  0.49666640  0.32743534  0.09429233  1
  Hf  Hf5  1  0.99610061  0.17286260  0.40566432  1
  Hf  Hf6  1  0.49666640  0.32743534  0.40570767  1
  Hf  Hf7  1  0.50246636  0.67372079  0.59460288  1
  Ti  Ti0  1  0.16441442  0.49437213  0.75000000  1
  Ti  Ti1  1  0.33740037  0.17236199  0.62476851  1
  Ti  Ti2  1  0.66354072  0.82795461  0.37511386  1
  Ti  Ti3  1  0.16351906  0.67163134  0.37498422  1
  Ti  Ti4  1  0.66354072  0.82795461  0.12488614  1
  Ti  Ti5  1  0.83681584  0.32670244  0.62478283  1
  Ti  Ti6  1  0.33740037  0.17236199  0.87523149  1
  Ti  Ti7  1  0.83681584  0.32670244  0.87521717  1
  Ti  Ti8  1  0.16351906  0.67163134  0.12501578  1
  Si  Si0  1  0.03894716  0.11724254  0.75000000  1
  Si  Si1  1  0.96226191  0.88397156  0.25000000  1
  Si  Si2  1  0.46228078  0.61573748  0.25000000  1
  Si  Si3  1  0.53836002  0.38389809  0.75000000  1
  Si  Si4  1  0.29750743  0.86335223  0.75000000  1
  Si  Si5  1  0.70103749  0.13646584  0.25000000  1
  Si  Si6  1  0.20116506  0.36297898  0.25000000  1
  Si  Si7  1  0.79940362  0.63470053  0.75000000  1
  Si  Si8  1  0.17026378  0.46282956  0.53859484  1
  Si  Si9  1  0.82993475  0.53799087  0.46206070  1
  Si  Si10  1  0.32936179  0.96238156  0.46198782  1
  Si  Si11  1  0.82993475  0.53799087  0.03793930  1
  Si  Si12  1  0.67041462  0.03810960  0.53840995  1
  Si  Si13  1  0.17026378  0.46282956  0.96140516  1
  Si  Si14  1  0.67041462  0.03810960  0.96159005  1
  Si  Si15  1  0.32936179  0.96238156  0.03801218  1
  Mo  Mo0  1  0.83588351  0.50563619  0.25000000  1
  Mo  Mo1  1  0.33611536  0.99390084  0.25000000  1
  Mo  Mo2  1  0.66389924  0.00483125  0.75000000  1
loop_
_geom_bond_atom_site_label_1
_geom_bond_atom_site_label_2
_geom_bond_distance
_geom_bond_site_symmetry_2
Hf0 Si15 2.700139 1_645
Hf0 Si6 2.724734 1_655
Hf0 Si11 2.779380 1_555
Hf0 Si5 2.790331 1_555
Hf0 Si1 2.793256 1_545
Hf0 Si13 2.829233 1_654
Hf0 Si14 2.876540 1_554
Hf0 Mo0 3.175900 1_555
Hf0 Mo1 3.224469 1_645
Hf1 Si14 2.697391 1_465
Hf1 Si7 2.721765 1_455
Hf1 Si13 2.779710 1_555
Hf1 Si4 2.781911 1_555
Hf1 Si0 2.792424 1_565
Hf1 Si11 2.823894 1_456
Hf1 Si15 2.882803 1_556
Hf1 Mo2 3.210447 1_465
Hf2 Si13 2.694991 1_555
Hf2 Si4 2.720303 1_555
Hf2 Si14 2.779003 1_565
Hf2 Si3 2.796250 1_555
Hf2 Si7 2.797994 1_555
Hf2 Si15 2.817892 1_556
Hf2 Si11 2.885689 1_556
Hf2 Mo2 3.168600 1_565
Hf3 Si12 2.697391 1_465
Hf3 Si7 2.721765 1_455
Hf3 Si8 2.779710 1_555
Hf3 Si4 2.781911 1_555
Hf3 Si0 2.792424 1_565
Hf3 Si9 2.823894 1_455
Hf3 Si10 2.882803 1_555
Hf3 Mo2 3.210447 1_465
Hf4 Si11 2.700635 1_555
Hf4 Si5 2.725544 1_555
Hf4 Si15 2.781563 1_545
Hf4 Si2 2.791181 1_555
Hf4 Si6 2.792210 1_555
Hf4 Si14 2.823341 1_554
Hf4 Si13 2.882401 1_554
Hf4 Mo1 3.180633 1_545
Hf4 Mo0 3.219368 1_555
Hf5 Si10 2.700139 1_645
Hf5 Si6 2.724734 1_655
Hf5 Si9 2.779380 1_555
Hf5 Si5 2.790331 1_555
Hf5 Si1 2.793256 1_545
Hf5 Si8 2.829233 1_655
Hf5 Si12 2.876540 1_555
Hf5 Mo0 3.175900 1_555
Hf5 Mo1 3.224469 1_645
Hf6 Si9 2.700635 1_555
Hf6 Si5 2.725544 1_555
Hf6 Si10 2.781563 1_545
Hf6 Si2 2.791181 1_555
Hf6 Si6 2.792210 1_555
Hf6 Si12 2.823341 1_555
Hf6 Si8 2.882401 1_555
Hf6 Mo1 3.180633 1_545
Hf6 Mo0 3.219368 1_555
Hf7 Si8 2.694991 1_555
Hf7 Si4 2.720303 1_555
Hf7 Si12 2.779003 1_565
Hf7 Si3 2.796250 1_555
Hf7 Si7 2.797994 1_555
Hf7 Si10 2.817892 1_555
Hf7 Si9 2.885689 1_555
Hf7 Mo2 3.168600 1_565
Si0 Si4 2.404107 1_545
Si0 Ti7 2.512811 1_455
Si0 Ti5 2.512811 1_455
Si0 Ti6 2.557957 1_555
Si0 Ti1 2.557957 1_555
Si0 Ti0 2.663503 1_555
Si1 Si5 2.409834 1_565
Si1 Ti3 2.518791 1_655
Si1 Ti8 2.518791 1_655
Si1 Ti2 2.559233 1_555
Si1 Ti4 2.559233 1_555
Si2 Si6 2.410678 1_555
Si2 Ti2 2.519453 1_555
Si2 Ti4 2.519453 1_555
Si2 Ti3 2.558248 1_555
Si2 Ti8 2.558248 1_555
Si3 Si7 2.401104 1_555
Si3 Ti6 2.516799 1_555
Si3 Ti1 2.516799 1_555
Si3 Ti7 2.559887 1_555
Si3 Ti5 2.559887 1_555
Si3 Ti0 2.560502 1_555
Si4 Ti0 2.627652 1_555
Si4 Ti6 2.637748 1_565
Si4 Ti1 2.637748 1_565
Si5 Ti2 2.632681 1_545
Si5 Ti4 2.632681 1_545
Si6 Ti3 2.632490 1_555
Si6 Ti8 2.632490 1_555
Si7 Ti0 2.571080 1_655
Si7 Ti7 2.630709 1_555
Si7 Ti5 2.630709 1_555
Si8 Si9 2.488568 1_455
Si8 Ti1 2.495730 1_555
Si8 Ti3 2.524635 1_555
Si8 Ti5 2.614164 1_455
Si8 Ti0 2.720291 1_555
Si9 Ti2 2.495368 1_555
Si9 Ti5 2.524538 1_555
Si9 Ti3 2.613966 1_655
Si10 Si12 2.493066 1_565
Si10 Ti3 2.498316 1_555
Si10 Ti1 2.520380 1_565
Si10 Ti2 2.617874 1_555
Si11 Si13 2.488568 1_654
Si11 Ti4 2.495368 1_555
Si11 Ti7 2.524538 1_554
Si11 Ti8 2.613966 1_655
Si12 Ti5 2.484986 1_555
Si12 Ti2 2.526367 1_545
Si12 Ti1 2.608272 1_555
Si13 Ti6 2.495730 1_555
Si13 Ti8 2.524635 1_556
Si13 Ti7 2.614164 1_455
Si13 Ti0 2.720291 1_555
Si14 Ti7 2.484986 1_555
Si14 Si15 2.493066 1_546
Si14 Ti4 2.526367 1_546
Si14 Ti6 2.608272 1_555
Si15 Ti8 2.498316 1_555
Si15 Ti6 2.520380 1_564
Si15 Ti4 2.617874 1_555
Mo0 Si2 2.557626 1_555
Mo0 Si6 2.578503 1_655
Mo0 Si5 2.632692 1_555
Mo0 Si1 2.673053 1_555
Mo0 Si9 2.729111 1_555
Mo0 Si11 2.729111 1_555
Mo0 Ti3 2.902427 1_655
Mo0 Ti8 2.902427 1_655
Mo0 Ti2 2.922165 1_555
Mo0 Ti4 2.922165 1_555
Mo1 Si1 2.558924 1_455
Mo1 Si5 2.576160 1_565
Mo1 Si6 2.632269 1_565
Mo1 Si2 2.671457 1_555
Mo1 Si15 2.727819 1_555
Mo1 Si10 2.727819 1_555
Mo1 Ti2 2.902133 1_555
Mo1 Ti4 2.902133 1_555
Mo1 Ti3 2.921721 1_555
Mo1 Ti8 2.921721 1_555
Mo2 Si0 2.571268 1_655
Mo2 Si4 2.582409 1_545
Mo2 Si7 2.640149 1_545
Mo2 Si3 2.675964 1_555
Mo2 Si14 2.723652 1_555
Mo2 Si12 2.723652 1_555
Mo2 Ti6 2.902592 1_555
Mo2 Ti1 2.902592 1_555
Mo2 Ti7 2.922194 1_555
Mo2 Ti5 2.922194 1_555
