# generated using pymatgen
data_Zr6Ti3Al13Pt7
_symmetry_space_group_name_H-M   'P 1'
_cell_length_a   8.79374492
_cell_length_b   8.79374510
_cell_length_c   8.79374546
_cell_angle_alpha   59.78970302
_cell_angle_beta   59.78970562
_cell_angle_gamma   59.78970393
_symmetry_Int_Tables_number   1
_chemical_formula_structural   Zr6Ti3Al13Pt7
_chemical_formula_sum   'Zr6 Ti3 Al13 Pt7'
_cell_volume   478.55102991
_cell_formula_units_Z   1
loop_
 _symmetry_equiv_pos_site_id
 _symmetry_equiv_pos_as_xyz
  1  'x, y, z'
loop_
 _atom_site_type_symbol
 _atom_site_label
 _atom_site_symmetry_multiplicity
 _atom_site_fract_x
 _atom_site_fract_y
 _atom_site_fract_z
 _atom_site_occupancy
  Zr  Zr0  1  0.68749446  0.68749446  0.31126845  1
  Zr  Zr1  1  0.31225012  0.68603162  0.31225012  1
  Zr  Zr2  1  0.68603162  0.31225012  0.31225012  1
  Zr  Zr3  1  0.31225012  0.31225012  0.68603162  1
  Zr  Zr4  1  0.68749446  0.31126845  0.68749446  1
  Zr  Zr5  1  0.31126845  0.68749446  0.68749446  1
  Ti  Ti0  1  0.88006409  0.88006409  0.36018929  1
  Ti  Ti1  1  0.88006409  0.36018929  0.88006409  1
  Ti  Ti2  1  0.36018929  0.88006409  0.88006409  1
  Al  Al0  1  0.88204845  0.88204845  0.88204845  1
  Al  Al1  1  0.11998836  0.11998836  0.63950450  1
  Al  Al2  1  0.11998836  0.63950450  0.11998836  1
  Al  Al3  1  0.63950450  0.11998836  0.11998836  1
  Al  Al4  1  0.12172511  0.12172511  0.12172511  1
  Al  Al5  1  0.66628875  0.66628875  0.00026831  1
  Al  Al6  1  0.66628875  0.00026831  0.66628875  1
  Al  Al7  1  0.00026831  0.66628875  0.66628875  1
  Al  Al8  1  0.66421201  0.66421201  0.66421201  1
  Al  Al9  1  0.33357685  0.33357685  0.99971594  1
  Al  Al10  1  0.33357685  0.99971594  0.33357685  1
  Al  Al11  1  0.99971594  0.33357685  0.33357685  1
  Al  Al12  1  0.33255012  0.33255012  0.33255012  1
  Pt  Pt0  1  0.00257324  0.00257324  0.00257324  1
  Pt  Pt1  1  0.99853067  0.99853067  0.50358817  1
  Pt  Pt2  1  0.50042759  0.99908501  0.50042759  1
  Pt  Pt3  1  0.99908501  0.50042759  0.50042759  1
  Pt  Pt4  1  0.50042759  0.50042759  0.99908501  1
  Pt  Pt5  1  0.99853067  0.50358817  0.99853067  1
  Pt  Pt6  1  0.50358817  0.99853067  0.99853067  1
loop_
_geom_bond_atom_site_label_1
_geom_bond_atom_site_label_2
_geom_bond_distance
_geom_bond_site_symmetry_2
Zr0 Zr4 3.297914 1_555
Zr0 Zr5 3.297914 1_555
Zr0 Zr1 3.301951 1_555
Zr0 Zr2 3.301951 1_555
Zr1 Zr2 3.276486 1_555
Zr1 Zr3 3.276486 1_555
Zr1 Zr5 3.301951 1_555
Zr2 Zr3 3.276486 1_555
Zr2 Zr4 3.301951 1_555
Zr3 Zr4 3.301951 1_555
Zr3 Zr5 3.301951 1_555
Zr4 Zr5 3.297914 1_555
Ti0 Zr1 3.180996 1_655
Ti0 Zr2 3.180996 1_565
Ti0 Zr0 3.205063 1_555
Ti1 Zr3 3.180996 1_655
Ti1 Zr2 3.180997 1_556
Ti1 Zr4 3.205063 1_555
Ti2 Zr3 3.180996 1_565
Ti2 Zr1 3.180997 1_556
Ti2 Zr5 3.205063 1_555
Al0 Pt0 2.600245 1_666
Al0 Pt5 2.714619 1_555
Al0 Pt6 2.714619 1_555
Al0 Pt1 2.714619 1_555
Al0 Al5 2.816610 1_556
Al0 Al6 2.816610 1_565
Al0 Al7 2.816610 1_655
Al0 Al2 2.954470 1_656
Al0 Al1 2.954470 1_665
Al0 Al3 2.954470 1_566
Al0 Zr4 3.170025 1_565
Al0 Zr5 3.170025 1_655
Al0 Zr0 3.170025 1_556
Al1 Pt0 2.600696 1_556
Al1 Pt1 2.725333 1_445
Al1 Pt3 2.725790 1_455
Al1 Pt2 2.725790 1_545
Al1 Al12 2.763157 1_555
Al1 Al11 2.768229 1_455
Al1 Al10 2.768229 1_545
Al1 Ti2 2.984696 1_545
Al1 Ti1 2.984696 1_455
Al1 Zr4 3.183286 1_455
Al1 Zr5 3.183286 1_545
Al1 Zr3 3.186415 1_555
Al2 Pt0 2.600696 1_565
Al2 Pt5 2.725333 1_454
Al2 Pt4 2.725790 1_554
Al2 Pt3 2.725790 1_455
Al2 Al9 2.768229 1_554
Al2 Ti2 2.984696 1_554
Al2 Ti0 2.984696 1_455
Al2 Zr0 3.183286 1_455
Al2 Zr5 3.183286 1_554
Al2 Zr1 3.186415 1_555
Al3 Pt0 2.600696 1_655
Al3 Pt6 2.725333 1_544
Al3 Pt4 2.725790 1_554
Al3 Pt2 2.725790 1_545
Al3 Al9 2.768229 1_554
Al3 Ti0 2.984696 1_545
Al3 Ti1 2.984696 1_554
Al3 Zr0 3.183286 1_545
Al3 Zr4 3.183286 1_554
Al3 Zr2 3.186415 1_555
Al4 Pt0 2.570625 1_555
Al4 Pt5 2.735435 1_454
Al4 Pt6 2.735435 1_544
Al4 Pt1 2.735436 1_445
Al4 Al9 2.749937 1_554
Al4 Ti1 3.000836 1_454
Al4 Ti0 3.000836 1_445
Al4 Ti2 3.000836 1_544
Al4 Zr1 3.193514 1_545
Al4 Zr2 3.193514 1_455
Al4 Zr3 3.193514 1_554
Al5 Pt5 2.520654 1_554
Al5 Pt6 2.520654 1_554
Al5 Pt4 2.534993 1_554
Al5 Ti2 2.769150 1_554
Al5 Ti1 2.769150 1_554
Al5 Al6 2.927591 1_564
Al5 Al7 2.927591 1_654
Al5 Zr2 2.930774 1_555
Al5 Zr1 2.930774 1_555
Al5 Zr0 2.934354 1_555
Al5 Al8 2.973684 1_554
Al6 Pt1 2.520654 1_545
Al6 Pt6 2.520654 1_545
Al6 Pt2 2.534993 1_545
Al6 Ti2 2.769150 1_545
Al6 Ti0 2.769150 1_545
Al6 Al7 2.927591 1_645
Al6 Zr3 2.930774 1_555
Al6 Zr2 2.930774 1_555
Al6 Zr4 2.934354 1_555
Al6 Al8 2.973684 1_545
Al7 Pt1 2.520654 1_455
Al7 Pt5 2.520654 1_455
Al7 Pt3 2.534993 1_455
Al7 Ti1 2.769150 1_455
Al7 Ti0 2.769150 1_455
Al7 Zr3 2.930774 1_555
Al7 Zr1 2.930774 1_555
Al7 Zr5 2.934354 1_555
Al7 Al8 2.973683 1_455
Al8 Pt2 2.524214 1_555
Al8 Pt3 2.524214 1_555
Al8 Pt4 2.524214 1_555
Al8 Ti1 2.786670 1_555
Al8 Ti0 2.786670 1_555
Al8 Ti2 2.786670 1_555
Al8 Zr5 2.912040 1_555
Al8 Zr4 2.912040 1_555
Al8 Zr0 2.912040 1_555
Al9 Pt4 2.540811 1_555
Al9 Pt5 2.549195 1_455
Al9 Pt6 2.549195 1_545
Al9 Zr5 2.931090 1_555
Al9 Zr4 2.931090 1_555
Al9 Zr3 2.959065 1_555
Al10 Pt2 2.540811 1_555
Al10 Pt1 2.549195 1_455
Al10 Pt6 2.549196 1_554
Al10 Al4 2.749937 1_565
Al10 Al3 2.768229 1_565
Al10 Al12 2.917801 1_565
Al10 Al11 2.926551 1_465
Al10 Al9 2.926551 1_564
Al10 Zr0 2.931090 1_555
Al10 Zr5 2.931090 1_555
Al10 Zr1 2.959065 1_555
Al11 Pt3 2.540811 1_555
Al11 Pt1 2.549195 1_545
Al11 Pt5 2.549196 1_554
Al11 Al4 2.749937 1_655
Al11 Al2 2.768229 1_655
Al11 Al12 2.917801 1_655
Al11 Al9 2.926551 1_654
Al11 Zr0 2.931090 1_555
Al11 Zr4 2.931090 1_555
Al11 Zr2 2.959065 1_555
Al12 Pt2 2.537310 1_545
Al12 Pt3 2.537310 1_455
Al12 Pt4 2.537310 1_554
Al12 Al2 2.763157 1_555
Al12 Al3 2.763157 1_555
Al12 Al9 2.917801 1_554
Al12 Zr2 2.939605 1_555
Al12 Zr1 2.939605 1_555
Al12 Zr3 2.939605 1_555
Pt0 Ti1 2.561247 1_454
Pt0 Ti2 2.561247 1_544
Pt0 Ti0 2.561247 1_445
Pt1 Ti0 2.738049 1_555
Pt1 Zr5 3.180302 1_655
Pt1 Zr4 3.180302 1_565
Pt1 Zr2 3.216530 1_565
Pt1 Zr1 3.216530 1_655
Pt2 Ti0 2.720447 1_555
Pt2 Ti2 2.720447 1_555
Pt2 Zr2 3.194596 1_565
Pt2 Zr3 3.194596 1_565
Pt2 Zr5 3.205918 1_555
Pt2 Zr0 3.205918 1_555
Pt3 Ti0 2.720447 1_555
Pt3 Ti1 2.720447 1_555
Pt3 Zr3 3.194596 1_655
Pt3 Zr1 3.194596 1_655
Pt3 Zr0 3.205918 1_555
Pt3 Zr4 3.205918 1_555
Pt4 Ti2 2.720447 1_555
Pt4 Ti1 2.720447 1_555
Pt4 Zr2 3.194596 1_556
Pt4 Zr1 3.194596 1_556
Pt4 Zr5 3.205918 1_555
Pt4 Zr4 3.205918 1_555
Pt5 Ti1 2.738049 1_555
Pt5 Zr5 3.180302 1_655
Pt5 Zr0 3.180303 1_556
Pt5 Zr2 3.216530 1_556
Pt5 Zr3 3.216530 1_655
Pt6 Ti2 2.738049 1_555
Pt6 Zr0 3.180302 1_556
Pt6 Zr4 3.180302 1_565
Pt6 Zr3 3.216530 1_565
Pt6 Zr1 3.216530 1_556
