# generated using pymatgen
data_LiMn2GaSe4
_symmetry_space_group_name_H-M   'P 1'
_cell_length_a   7.01735241
_cell_length_b   7.01735208
_cell_length_c   7.01735134
_cell_angle_alpha   130.31093586
_cell_angle_beta   130.31092944
_cell_angle_gamma   72.91017459
_symmetry_Int_Tables_number   1
_chemical_formula_structural   LiMn2GaSe4
_chemical_formula_sum   'Li1 Mn2 Ga1 Se4'
_cell_volume   196.26122285
_cell_formula_units_Z   1
loop_
 _symmetry_equiv_pos_site_id
 _symmetry_equiv_pos_as_xyz
  1  'x, y, z'
loop_
 _atom_site_type_symbol
 _atom_site_label
 _atom_site_symmetry_multiplicity
 _atom_site_fract_x
 _atom_site_fract_y
 _atom_site_fract_z
 _atom_site_occupancy
  Li  Li0  1  0.50000000  0.50000000  0.00000000  1
  Mn  Mn0  1  0.25000000  0.75000000  0.50000000  1
  Mn  Mn1  1  0.75000000  0.25000000  0.50000000  1
  Ga  Ga0  1  0.00000000  0.00000000  0.00000000  1
  Se  Se0  1  0.88182369  0.36039444  0.00000000  1
  Se  Se1  1  0.36039444  0.88182369  1.00000000  1
  Se  Se2  1  0.63960556  0.63960556  0.52142925  1
  Se  Se3  1  0.11817631  0.11817631  0.47857075  1
loop_
_geom_bond_atom_site_label_1
_geom_bond_atom_site_label_2
_geom_bond_distance
_geom_bond_site_symmetry_2
Li0 Se2 2.568290 1_555
Li0 Se1 2.568290 1_554
Li0 Se3 2.568290 1_554
Li0 Se0 2.568290 1_555
Mn0 Se1 2.543905 1_555
Mn0 Se3 2.543905 1_565
Mn0 Se0 2.543905 1_455
Mn0 Se2 2.543905 1_555
Mn1 Se0 2.543905 1_556
Mn1 Se2 2.543905 1_555
Mn1 Se1 2.543905 1_544
Mn1 Se3 2.543905 1_655
Ga0 Se3 2.418878 1_555
Ga0 Se0 2.418879 1_455
Ga0 Se2 2.418879 1_444
Ga0 Se1 2.418879 1_544
