# generated using pymatgen
data_Sr2H5Rh
_symmetry_space_group_name_H-M   'P 1'
_cell_length_a   5.41124060
_cell_length_b   5.41124037
_cell_length_c   5.33673447
_cell_angle_alpha   60.45442530
_cell_angle_beta   60.45442214
_cell_angle_gamma   59.09114100
_symmetry_Int_Tables_number   1
_chemical_formula_structural   Sr2H5Rh
_chemical_formula_sum   'Sr2 H5 Rh1'
_cell_volume   110.45662396
_cell_formula_units_Z   1
loop_
 _symmetry_equiv_pos_site_id
 _symmetry_equiv_pos_as_xyz
  1  'x, y, z'
loop_
 _atom_site_type_symbol
 _atom_site_label
 _atom_site_symmetry_multiplicity
 _atom_site_fract_x
 _atom_site_fract_y
 _atom_site_fract_z
 _atom_site_occupancy
  Sr  Sr0  1  0.25063037  0.25063037  0.24936963  1
  Sr  Sr1  1  0.75063037  0.75063037  0.74936963  1
  H  H0  1  0.22721940  0.78424678  0.21575322  1
  H  H1  1  0.78424678  0.22721940  0.21575322  1
  H  H2  1  0.22721940  0.78424678  0.77278060  1
  H  H3  1  0.78424678  0.22721940  0.77278060  1
  H  H4  1  0.76050324  0.76050324  0.23949676  1
  Rh  Rh0  1  0.99230565  0.99230565  0.00769435  1
loop_
_geom_bond_atom_site_label_1
_geom_bond_atom_site_label_2
_geom_bond_distance
_geom_bond_site_symmetry_2
H0 Rh0 1.674861 1_455
H0 Sr1 2.686030 1_554
H0 Sr0 2.686030 1_565
H0 Sr1 2.742582 1_455
H0 Sr0 2.742583 1_555
H1 Rh0 1.674861 1_545
H1 Sr1 2.686030 1_554
H1 Sr0 2.686030 1_655
H1 Sr1 2.742583 1_545
H1 Sr0 2.742583 1_555
H2 Rh0 1.674861 1_456
H2 Sr0 2.686030 1_565
H2 Sr1 2.686030 1_555
H2 Sr0 2.742583 1_556
H2 Sr1 2.742583 1_455
H3 Rh0 1.674861 1_546
H3 Sr0 2.686030 1_655
H3 Sr1 2.686030 1_555
H3 Sr0 2.742583 1_556
H3 Sr1 2.742583 1_545
H4 Rh0 1.797995 1_555
H4 Sr1 2.669466 1_555
H4 Sr1 2.669466 1_554
H4 Sr0 2.669466 1_655
H4 Sr0 2.669466 1_565
