# generated using pymatgen
data_KNa2Cu3As2
_symmetry_space_group_name_H-M   'P 1'
_cell_length_a   7.38633241
_cell_length_b   7.38633262
_cell_length_c   7.38633221
_cell_angle_alpha   42.20963412
_cell_angle_beta   42.20962979
_cell_angle_gamma   42.20963722
_symmetry_Int_Tables_number   1
_chemical_formula_structural   KNa2Cu3As2
_chemical_formula_sum   'K1 Na2 Cu3 As2'
_cell_volume   164.60763895
_cell_formula_units_Z   1
loop_
 _symmetry_equiv_pos_site_id
 _symmetry_equiv_pos_as_xyz
  1  'x, y, z'
loop_
 _atom_site_type_symbol
 _atom_site_label
 _atom_site_symmetry_multiplicity
 _atom_site_fract_x
 _atom_site_fract_y
 _atom_site_fract_z
 _atom_site_occupancy
  K  K0  1  0.50000000  0.50000000  0.50000000  1
  Na  Na0  1  0.08606681  0.08606681  0.08606681  1
  Na  Na1  1  0.91393319  0.91393319  0.91393319  1
  Cu  Cu0  1  0.50000000  0.50000000  0.00000000  1
  Cu  Cu1  1  0.50000000  0.00000000  0.50000000  1
  Cu  Cu2  1  0.00000000  0.50000000  0.50000000  1
  As  As0  1  0.75461238  0.75461238  0.75461238  1
  As  As1  1  0.24538762  0.24538762  0.24538762  1
loop_
_geom_bond_atom_site_label_1
_geom_bond_atom_site_label_2
_geom_bond_distance
_geom_bond_site_symmetry_2
K0 Na1 3.474183 1_554
K0 Na0 3.474183 1_556
K0 Na1 3.474184 1_455
K0 Na0 3.474184 1_655
K0 Na1 3.474184 1_545
K0 Na0 3.474184 1_565
Cu0 Na0 3.175236 1_655
Cu0 Na1 3.175236 1_454
Cu0 Na0 3.175236 1_565
Cu0 Na1 3.175236 1_544
Cu0 K0 3.693166 1_555
Cu0 K0 3.693166 1_554
Cu1 Na0 3.175235 1_556
Cu1 Na1 3.175235 1_544
Cu1 Na0 3.175235 1_655
Cu1 Na1 3.175235 1_445
Cu1 K0 3.693166 1_545
Cu1 K0 3.693166 1_555
Cu2 Na0 3.175235 1_556
Cu2 Na1 3.175235 1_454
Cu2 Na0 3.175235 1_565
Cu2 Na1 3.175235 1_445
Cu2 K0 3.693166 1_455
Cu2 K0 3.693166 1_555
As0 Cu0 2.345023 1_556
As0 Cu2 2.345023 1_655
As0 Cu1 2.345023 1_565
As0 Na0 3.071316 1_665
As0 Na0 3.071316 1_566
As0 Na0 3.071316 1_656
As0 Na1 3.210768 1_555
As0 K0 3.456642 1_556
As0 K0 3.456642 1_655
As0 K0 3.456642 1_565
As1 Cu0 2.345023 1_555
As1 Cu2 2.345023 1_555
As1 Cu1 2.345023 1_555
As1 Na1 3.071316 1_445
As1 Na1 3.071316 1_544
As1 Na1 3.071316 1_454
As1 Na0 3.210768 1_555
As1 K0 3.456642 1_554
As1 K0 3.456642 1_455
As1 K0 3.456642 1_545
