# generated using pymatgen
data_Y4ScIr3O14
_symmetry_space_group_name_H-M   'P 1'
_cell_length_a   7.22991496
_cell_length_b   7.22991503
_cell_length_c   7.24936057
_cell_angle_alpha   60.08869892
_cell_angle_beta   60.08869582
_cell_angle_gamma   60.00000229
_symmetry_Int_Tables_number   1
_chemical_formula_structural   Y4ScIr3O14
_chemical_formula_sum   'Y4 Sc1 Ir3 O14'
_cell_volume   268.30701980
_cell_formula_units_Z   1
loop_
 _symmetry_equiv_pos_site_id
 _symmetry_equiv_pos_as_xyz
  1  'x, y, z'
loop_
 _atom_site_type_symbol
 _atom_site_label
 _atom_site_symmetry_multiplicity
 _atom_site_fract_x
 _atom_site_fract_y
 _atom_site_fract_z
 _atom_site_occupancy
  Y  Y0  1  0.62500000  0.12500000  0.12500000  1
  Y  Y1  1  0.12500000  0.62500000  0.12500000  1
  Y  Y2  1  0.12500000  0.12500000  0.62500000  1
  Y  Y3  1  0.12500000  0.12500000  0.12500000  1
  Sc  Sc0  1  0.62500000  0.62500000  0.12500000  1
  Ir  Ir0  1  0.12500000  0.62500000  0.62500000  1
  Ir  Ir1  1  0.62500000  0.12500000  0.62500000  1
  Ir  Ir2  1  0.62500000  0.62500000  0.62500000  1
  O  O0  1  0.71923110  0.71923110  0.29006772  1
  O  O1  1  0.29299793  0.29299793  0.69357921  1
  O  O2  1  0.72042494  0.29299793  0.69357921  1
  O  O3  1  0.27147008  0.71923110  0.29006772  1
  O  O4  1  0.29299793  0.72042494  0.69357921  1
  O  O5  1  0.71923110  0.27147008  0.29006772  1
  O  O6  1  0.53076890  0.53076890  0.95993228  1
  O  O7  1  0.95700207  0.95700207  0.55642079  1
  O  O8  1  0.52957506  0.95700207  0.55642079  1
  O  O9  1  0.97852992  0.53076890  0.95993228  1
  O  O10  1  0.95700207  0.52957506  0.55642079  1
  O  O11  1  0.53076890  0.97852992  0.95993228  1
  O  O12  1  0.24823416  0.24823416  0.25529653  1
  O  O13  1  0.00176584  0.00176584  0.99470347  1
loop_
_geom_bond_atom_site_label_1
_geom_bond_atom_site_label_2
_geom_bond_distance
_geom_bond_site_symmetry_2
Ir0 O4 1.995171 1_555
Ir0 O10 1.995171 1_455
Ir0 O7 1.995171 1_455
Ir0 O1 1.995171 1_555
Ir0 O9 1.997084 1_455
Ir0 O3 1.997084 1_555
Ir1 O2 1.995171 1_555
Ir1 O8 1.995171 1_545
Ir1 O1 1.995171 1_555
Ir1 O7 1.995171 1_545
Ir1 O11 1.997084 1_545
Ir1 O5 1.997084 1_555
Ir2 O10 1.995171 1_555
Ir2 O4 1.995171 1_555
Ir2 O8 1.995171 1_555
Ir2 O2 1.995171 1_555
Ir2 O6 1.997084 1_555
Ir2 O0 1.997084 1_555
O0 Sc0 2.109620 1_555
O0 Y1 2.411598 1_655
O0 Y0 2.411598 1_565
O1 Y2 2.424348 1_555
O1 Y3 2.574913 1_556
O2 Y2 2.424348 1_655
O2 Y0 2.574913 1_556
O3 Sc0 2.109620 1_555
O3 Y1 2.411598 1_555
O3 Y3 2.411598 1_565
O4 Y2 2.424348 1_565
O4 Y1 2.574913 1_556
O5 Sc0 2.109620 1_555
O5 Y0 2.411598 1_555
O5 Y3 2.411598 1_655
O6 Sc0 2.109620 1_556
O6 Y1 2.411598 1_556
O6 Y0 2.411598 1_556
O7 Y2 2.424348 1_665
O7 Y3 2.574913 1_665
O8 Y2 2.424348 1_565
O8 Y0 2.574913 1_565
O9 Sc0 2.109620 1_556
O9 Y1 2.411598 1_656
O9 Y3 2.411598 1_656
O10 Y2 2.424348 1_655
O10 Y1 2.574913 1_655
O11 Sc0 2.109620 1_556
O11 Y0 2.411598 1_566
O11 Y3 2.411598 1_566
O12 Y2 2.191233 1_555
O12 Y3 2.225388 1_555
O12 Y0 2.225394 1_555
O12 Y1 2.225394 1_555
O13 Y2 2.191233 1_555
O13 Y3 2.225388 1_556
O13 Y0 2.225394 1_456
O13 Y1 2.225394 1_546
