# generated using pymatgen
data_Y3Al5O12
_symmetry_space_group_name_H-M   'P 1'
_cell_length_a   10.39509768
_cell_length_b   10.39509973
_cell_length_c   10.39510341
_cell_angle_alpha   109.47127601
_cell_angle_beta   109.47123427
_cell_angle_gamma   109.47124464
_symmetry_Int_Tables_number   1
_chemical_formula_structural   Y3Al5O12
_chemical_formula_sum   'Y12 Al20 O48'
_cell_volume   864.69641839
_cell_formula_units_Z   4
loop_
 _symmetry_equiv_pos_site_id
 _symmetry_equiv_pos_as_xyz
  1  'x, y, z'
loop_
 _atom_site_type_symbol
 _atom_site_label
 _atom_site_symmetry_multiplicity
 _atom_site_fract_x
 _atom_site_fract_y
 _atom_site_fract_z
 _atom_site_occupancy
  Y  Y0  1  0.87500154  0.75000118  0.62499933  1
  Y  Y1  1  0.87500067  0.62499971  0.25000148  1
  Y  Y2  1  0.62499803  0.87499992  0.74999862  1
  Y  Y3  1  0.25000003  0.87499917  0.62499960  1
  Y  Y4  1  0.75000105  0.62499949  0.87500059  1
  Y  Y5  1  0.62499807  0.24999721  0.87500006  1
  Y  Y6  1  0.12500010  0.24999955  0.37500001  1
  Y  Y7  1  0.12500103  0.37499919  0.75000044  1
  Y  Y8  1  0.37499947  0.12500012  0.24999846  1
  Y  Y9  1  0.74999989  0.12500124  0.37499995  1
  Y  Y10  1  0.25000037  0.37500062  0.12500090  1
  Y  Y11  1  0.37499943  0.75000080  0.12500138  1
  Al  Al0  1  0.12500086  0.75000008  0.87499849  1
  Al  Al1  1  0.87499976  0.24999945  0.12500007  1
  Al  Al2  1  0.74999991  0.37499976  0.62499981  1
  Al  Al3  1  0.12499991  0.87500004  0.25000127  1
  Al  Al4  1  0.25000057  0.12499867  0.87499897  1
  Al  Al5  1  0.37499978  0.62500165  0.75000005  1
  Al  Al6  1  0.37500057  0.24999816  0.62499954  1
  Al  Al7  1  0.87500079  0.12500183  0.75000004  1
  Al  Al8  1  0.62500034  0.37500041  0.25000054  1
  Al  Al9  1  0.74999952  0.87500061  0.12500087  1
  Al  Al10  1  0.24999964  0.62500073  0.37500074  1
  Al  Al11  1  0.62499804  0.75000038  0.37499772  1
  Al  Al12  1  0.49999883  -0.00000060  0.49999905  1
  Al  Al13  1  0.00000024  0.49999973  0.00000113  1
  Al  Al14  1  0.49999996  0.50000072  0.49999943  1
  Al  Al15  1  0.00000094  0.00000012  0.50000050  1
  Al  Al16  1  0.00000054  0.00000032  -0.00000028  1
  Al  Al17  1  0.00000062  0.50000053  0.50000002  1
  Al  Al18  1  0.49999960  0.49999887  0.00000055  1
  Al  Al19  1  0.49999941  0.00000044  -0.00000033  1
  O  O0  1  0.88193911  0.40164568  0.08121832  1
  O  O1  1  0.08121836  0.88193917  0.40164653  1
  O  O2  1  0.69927846  0.51970628  0.61805899  1
  O  O3  1  0.67957100  0.09835356  0.98029212  1
  O  O4  1  0.51970576  0.40164427  0.82042726  1
  O  O5  1  0.41878170  0.82042824  0.80072058  1
  O  O6  1  0.08121876  0.69927986  0.67957192  1
  O  O7  1  0.40164594  0.08121808  0.88193900  1
  O  O8  1  0.98029421  0.80072296  0.88193987  1
  O  O9  1  0.67957158  0.08121749  0.69927966  1
  O  O10  1  0.40164536  0.82042735  0.51970730  1
  O  O11  1  0.09835447  0.61806180  0.41878272  1
  O  O12  1  0.61806060  0.41878176  0.09835345  1
  O  O13  1  0.69927955  0.67957278  0.08121955  1
  O  O14  1  0.88193937  0.98029221  0.80072123  1
  O  O15  1  0.80072166  0.88194087  0.98029387  1
  O  O16  1  0.82042763  0.51970749  0.40164541  1
  O  O17  1  0.61806011  0.69927823  0.51970752  1
  O  O18  1  0.82042937  0.80072141  0.41878281  1
  O  O19  1  0.01970772  0.19927928  0.11806076  1
  O  O20  1  0.98029356  0.67957181  0.09835461  1
  O  O21  1  0.09835457  0.98029279  0.67957265  1
  O  O22  1  0.80072187  0.41878137  0.82042818  1
  O  O23  1  0.41878100  0.09835247  0.61806092  1
  O  O24  1  0.11806179  0.59835509  0.91878268  1
  O  O25  1  0.91878261  0.11806061  0.59835475  1
  O  O26  1  0.30072159  0.48029294  0.38193873  1
  O  O27  1  0.32042811  0.90164683  0.01970684  1
  O  O28  1  0.48029303  0.59835360  0.17957364  1
  O  O29  1  0.58121683  0.17957215  0.19927754  1
  O  O30  1  0.91878139  0.30072123  0.32042751  1
  O  O31  1  0.59835461  0.91878296  0.11806071  1
  O  O32  1  0.58121815  0.90164614  0.38194035  1
  O  O33  1  0.19927837  0.58121755  0.17957174  1
  O  O34  1  0.90164660  0.01970719  0.32042805  1
  O  O35  1  0.48029134  0.38193865  0.30072072  1
  O  O36  1  0.01970751  0.32042770  0.90164637  1
  O  O37  1  0.17957115  0.19927753  0.58121715  1
  O  O38  1  0.38193767  0.30071996  0.48029156  1
  O  O39  1  0.17957221  0.48029322  0.59835354  1
  O  O40  1  0.19928011  0.11806105  0.01970836  1
  O  O41  1  0.11806155  0.01970875  0.19927924  1
  O  O42  1  0.30072086  0.32042757  0.91878162  1
  O  O43  1  0.38193854  0.58121749  0.90164659  1
  O  O44  1  0.90164660  0.38193948  0.58121740  1
  O  O45  1  0.59835361  0.17957201  0.48029273  1
  O  O46  1  0.32042810  0.91878203  0.30072126  1
  O  O47  1  0.51970642  0.61806099  0.69927671  1
loop_
_geom_bond_atom_site_label_1
_geom_bond_atom_site_label_2
_geom_bond_distance
_geom_bond_site_symmetry_2
Al0 O6 1.766811 1_555
Al0 O27 1.766821 1_556
Al0 O24 1.766827 1_555
Al0 O8 1.766837 1_455
Al1 O30 1.766818 1_555
Al1 O0 1.766825 1_555
Al1 O3 1.766828 1_554
Al1 O19 1.766829 1_655
Al2 O45 1.766821 1_555
Al2 O2 1.766826 1_555
Al2 O22 1.766827 1_555
Al2 O44 1.766832 1_555
Al3 O1 1.766814 1_555
Al3 O20 1.766823 1_455
Al3 O46 1.766827 1_555
Al3 O41 1.766846 1_565
Al4 O7 1.766807 1_555
Al4 O21 1.766810 1_545
Al4 O42 1.766832 1_555
Al4 O40 1.766842 1_556
Al5 O5 1.766810 1_555
Al5 O39 1.766823 1_555
Al5 O47 1.766838 1_555
Al5 O43 1.766844 1_555
Al6 O23 1.766812 1_555
Al6 O4 1.766817 1_555
Al6 O38 1.766835 1_555
Al6 O37 1.766837 1_555
Al7 O36 1.766809 1_655
Al7 O25 1.766813 1_555
Al7 O9 1.766831 1_555
Al7 O14 1.766851 1_545
Al8 O16 1.766815 1_555
Al8 O29 1.766819 1_555
Al8 O12 1.766831 1_555
Al8 O35 1.766837 1_555
Al9 O31 1.766813 1_555
Al9 O34 1.766819 1_565
Al9 O13 1.766825 1_555
Al9 O15 1.766834 1_554
Al10 O10 1.766812 1_555
Al10 O11 1.766816 1_555
Al10 O33 1.766831 1_555
Al10 O26 1.766835 1_555
Al11 O28 1.766797 1_555
Al11 O32 1.766803 1_555
Al11 O18 1.766849 1_555
Al11 O17 1.766857 1_555
Al12 O46 1.921955 1_545
Al12 O32 1.921961 1_545
Al12 O23 1.921967 1_555
Al12 O45 1.921971 1_555
Al12 O10 1.921975 1_545
Al12 O9 1.921980 1_555
Al13 O33 1.921955 1_555
Al13 O0 1.921962 1_455
Al13 O20 1.921965 1_455
Al13 O22 1.921966 1_454
Al13 O36 1.921971 1_554
Al13 O24 1.921982 1_554
Al14 O17 1.921947 1_555
Al14 O47 1.921953 1_555
Al14 O26 1.921957 1_555
Al14 O35 1.921960 1_555
Al14 O2 1.921966 1_555
Al14 O38 1.921981 1_555
Al15 O37 1.921951 1_555
Al15 O1 1.921962 1_545
Al15 O18 1.921963 1_445
Al15 O25 1.921969 1_455
Al15 O21 1.921971 1_545
Al15 O34 1.921974 1_455
Al16 O8 1.921953 1_444
Al16 O14 1.921959 1_444
Al16 O40 1.921963 1_555
Al16 O41 1.921966 1_555
Al16 O19 1.921966 1_555
Al16 O15 1.921968 1_444
Al17 O11 1.921963 1_555
Al17 O44 1.921964 1_455
Al17 O39 1.921965 1_555
Al17 O6 1.921967 1_555
Al17 O30 1.921967 1_455
Al17 O16 1.921978 1_455
Al18 O12 1.921956 1_555
Al18 O42 1.921959 1_554
Al18 O43 1.921974 1_554
Al18 O4 1.921975 1_554
Al18 O28 1.921976 1_555
Al18 O13 1.921979 1_555
Al19 O29 1.921959 1_555
Al19 O7 1.921961 1_554
Al19 O27 1.921962 1_545
Al19 O3 1.921965 1_554
Al19 O5 1.921968 1_544
Al19 O31 1.921970 1_545
O0 Y5 2.310261 1_554
O0 Y1 2.440181 1_555
O1 Y1 2.310249 1_455
O1 Y3 2.440179 1_555
O2 Y4 2.310269 1_555
O2 Y0 2.440195 1_555
O3 Y5 2.310225 1_555
O3 Y2 2.440176 1_545
O4 Y5 2.310259 1_555
O4 Y4 2.440194 1_555
O5 Y2 2.310240 1_555
O5 Y3 2.440171 1_555
O6 Y0 2.310244 1_455
O6 Y3 2.440169 1_555
O7 Y3 2.310253 1_545
O7 Y5 2.440153 1_555
O8 Y0 2.310262 1_555
O8 Y4 2.440190 1_555
O9 Y2 2.310233 1_545
O9 Y5 2.440175 1_555
O10 Y3 2.310238 1_555
O10 Y2 2.440160 1_555
O11 Y3 2.310233 1_555
O11 Y1 2.440169 1_455
O12 Y1 2.310253 1_555
O12 Y5 2.440177 1_554
O13 Y4 2.310263 1_554
O13 Y1 2.440190 1_555
O14 Y2 2.310266 1_555
O14 Y0 2.440175 1_555
O15 Y4 2.310273 1_555
O15 Y2 2.440198 1_555
O16 Y1 2.310230 1_555
O16 Y0 2.440174 1_555
O17 Y0 2.310265 1_555
O17 Y2 2.440175 1_555
O18 Y0 2.310232 1_555
O18 Y1 2.440175 1_555
O19 Y6 2.310255 1_555
O19 Y10 2.440172 1_555
O20 Y1 2.310259 1_555
O20 Y4 2.440176 1_554
O21 Y3 2.310252 1_555
O21 Y0 2.440159 1_455
O22 Y4 2.310250 1_555
O22 Y5 2.440209 1_555
O23 Y5 2.310246 1_555
O23 Y3 2.440169 1_545
O24 Y11 2.310241 1_556
O24 Y7 2.440196 1_555
O25 Y7 2.310246 1_655
O25 Y9 2.440200 1_555
O26 Y10 2.310237 1_555
O26 Y6 2.440187 1_555
O27 Y11 2.310259 1_555
O27 Y8 2.440169 1_565
O28 Y11 2.310267 1_555
O28 Y10 2.440168 1_555
O29 Y8 2.310243 1_555
O29 Y9 2.440188 1_555
O30 Y6 2.310261 1_655
O30 Y9 2.440175 1_555
O31 Y9 2.310250 1_565
O31 Y11 2.440200 1_555
O32 Y11 2.310250 1_555
O32 Y9 2.440196 1_565
O33 Y10 2.310246 1_555
O33 Y11 2.440176 1_555
O34 Y9 2.310263 1_555
O34 Y6 2.440172 1_655
O35 Y8 2.310240 1_555
O35 Y10 2.440166 1_555
O36 Y7 2.310252 1_555
O36 Y10 2.440178 1_556
O37 Y6 2.310249 1_555
O37 Y7 2.440177 1_555
O38 Y6 2.310237 1_555
O38 Y8 2.440180 1_555
O39 Y7 2.310264 1_555
O39 Y6 2.440180 1_555
O40 Y10 2.310256 1_555
O40 Y8 2.440152 1_555
O41 Y8 2.310244 1_555
O41 Y6 2.440165 1_555
O42 Y10 2.310259 1_556
O42 Y7 2.440167 1_555
O43 Y7 2.310238 1_555
O43 Y11 2.440192 1_556
O44 Y9 2.310240 1_555
O44 Y7 2.440196 1_655
O45 Y9 2.310247 1_555
O45 Y8 2.440189 1_555
O46 Y8 2.310263 1_565
O46 Y11 2.440164 1_555
O47 Y2 2.310245 1_555
O47 Y4 2.440208 1_555
