# generated using pymatgen
data_Y10SiBi2Ru3
_symmetry_space_group_name_H-M   'P 1'
_cell_length_a   8.83422201
_cell_length_b   8.83422211
_cell_length_c   8.78440755
_cell_angle_alpha   127.57752171
_cell_angle_beta   127.57751247
_cell_angle_gamma   77.71404169
_symmetry_Int_Tables_number   1
_chemical_formula_structural   Y10SiBi2Ru3
_chemical_formula_sum   'Y10 Si1 Bi2 Ru3'
_cell_volume   416.56082434
_cell_formula_units_Z   1
loop_
 _symmetry_equiv_pos_site_id
 _symmetry_equiv_pos_as_xyz
  1  'x, y, z'
loop_
 _atom_site_type_symbol
 _atom_site_label
 _atom_site_symmetry_multiplicity
 _atom_site_fract_x
 _atom_site_fract_y
 _atom_site_fract_z
 _atom_site_occupancy
  Y  Y0  1  0.99823955  0.00331594  0.00155449  1
  Y  Y1  1  0.49668406  0.50176045  0.99844551  1
  Y  Y2  1  0.80124653  0.29564972  0.82806158  1
  Y  Y3  1  0.20435028  0.69875347  0.17193842  1
  Y  Y4  1  0.47318494  0.96758813  0.17193842  1
  Y  Y5  1  0.28342564  0.48072752  0.50000000  1
  Y  Y6  1  0.01927248  0.21657436  0.50000000  1
  Y  Y7  1  0.53241187  0.02681506  0.82806158  1
  Y  Y8  1  0.71481675  0.53046597  0.50000000  1
  Y  Y9  1  0.96953403  0.78518325  0.50000000  1
  Si  Si0  1  0.36894677  0.13105323  0.50000000  1
  Bi  Bi0  1  0.25453104  0.24546896  0.00000000  1
  Bi  Bi1  1  0.75453104  0.74546896  0.00000000  1
  Ru  Ru0  1  0.14564156  0.63240529  0.77804785  1
  Ru  Ru1  1  0.86759471  0.35435844  0.22195215  1
  Ru  Ru2  1  0.61559076  0.88440924  0.50000000  1
loop_
_geom_bond_atom_site_label_1
_geom_bond_atom_site_label_2
_geom_bond_distance
_geom_bond_site_symmetry_2
Si0 Y3 2.972086 1_545
Si0 Y4 2.972086 1_545
Si0 Y2 2.972086 1_555
Si0 Y7 2.972086 1_555
Si0 Y6 3.019949 1_555
Si0 Y5 3.019949 1_555
Si0 Y1 3.037642 1_555
Si0 Y0 3.037642 1_455
Bi0 Y7 3.314302 1_554
Bi0 Y4 3.314302 1_545
Bi0 Y3 3.346265 1_555
Bi0 Y2 3.346265 1_454
Bi0 Y9 3.354290 1_444
Bi0 Y8 3.354290 1_555
Bi0 Y5 3.376496 1_555
Bi0 Y6 3.376496 1_554
Bi0 Y0 3.440562 1_455
Bi0 Y1 3.440562 1_554
Bi1 Y2 3.314302 1_554
Bi1 Y3 3.314302 1_655
Bi1 Y4 3.346265 1_555
Bi1 Y7 3.346266 1_564
Bi1 Y8 3.354290 1_554
Bi1 Y9 3.354290 1_555
Bi1 Y6 3.376496 1_665
Bi1 Y5 3.376496 1_554
Bi1 Y1 3.440576 1_554
Bi1 Y0 3.440576 1_565
Ru0 Y3 2.837573 1_556
Ru0 Y4 2.837582 1_556
Ru0 Y6 2.860595 1_555
Ru0 Y5 2.860604 1_555
Ru0 Y1 2.928626 1_555
Ru0 Y8 2.949599 1_455
Ru0 Y9 2.949607 1_455
Ru0 Y0 3.121393 1_466
Ru1 Y2 2.837573 1_554
Ru1 Y7 2.837582 1_554
Ru1 Y5 2.860595 1_655
Ru1 Y6 2.860604 1_655
Ru1 Y0 2.928625 1_555
Ru1 Y9 2.949599 1_555
Ru1 Y8 2.949607 1_555
Ru1 Y1 3.121393 1_554
Ru2 Si0 2.734002 1_565
Ru2 Y2 2.862704 1_565
Ru2 Y7 2.862704 1_565
Ru2 Y3 2.862704 1_555
Ru2 Y4 2.862704 1_555
Ru2 Y9 3.062495 1_555
Ru2 Y8 3.062495 1_555
Ru2 Y1 3.105377 1_554
Ru2 Y0 3.105378 1_566
