# generated using pymatgen
data_Lu(Ti3Pb2)2
_symmetry_space_group_name_H-M   'P 1'
_cell_length_a   8.39606717
_cell_length_b   8.39606745
_cell_length_c   8.39606776
_cell_angle_alpha   41.05104766
_cell_angle_beta   41.05104370
_cell_angle_gamma   41.05104954
_symmetry_Int_Tables_number   1
_chemical_formula_structural   Lu(Ti3Pb2)2
_chemical_formula_sum   'Lu1 Ti6 Pb4'
_cell_volume   230.47716493
_cell_formula_units_Z   1
loop_
 _symmetry_equiv_pos_site_id
 _symmetry_equiv_pos_as_xyz
  1  'x, y, z'
loop_
 _atom_site_type_symbol
 _atom_site_label
 _atom_site_symmetry_multiplicity
 _atom_site_fract_x
 _atom_site_fract_y
 _atom_site_fract_z
 _atom_site_occupancy
  Lu  Lu0  1  0.00000000  0.00000000  0.00000000  1
  Ti  Ti0  1  0.59785631  0.59785631  0.11978995  1
  Ti  Ti1  1  0.88021105  0.40214369  0.40214269  1
  Ti  Ti2  1  0.40214369  0.88021105  0.40214269  1
  Ti  Ti3  1  0.59785631  0.11978895  0.59785731  1
  Ti  Ti4  1  0.11978895  0.59785631  0.59785731  1
  Ti  Ti5  1  0.40214369  0.40214369  0.88021005  1
  Pb  Pb0  1  0.12712022  0.12712022  0.12712022  1
  Pb  Pb1  1  0.33158335  0.33158335  0.33158335  1
  Pb  Pb2  1  0.66841665  0.66841665  0.66841665  1
  Pb  Pb3  1  0.87287978  0.87287978  0.87287978  1
loop_
_geom_bond_atom_site_label_1
_geom_bond_atom_site_label_2
_geom_bond_distance
_geom_bond_site_symmetry_2
Lu0 Pb0 2.927767 1_555
Lu0 Pb3 2.927767 1_444
Lu0 Pb1 3.399525 1_554
Lu0 Pb2 3.399525 1_445
Lu0 Pb2 3.399525 1_544
Lu0 Pb1 3.399525 1_455
Lu0 Pb2 3.399525 1_454
Lu0 Pb1 3.399525 1_545
Ti0 Ti4 2.814734 1_555
Ti0 Ti3 2.814734 1_555
Ti0 Ti4 3.073001 1_654
Ti0 Ti3 3.073002 1_564
Ti0 Ti2 3.265860 1_555
Ti0 Ti1 3.265860 1_555
Ti1 Ti5 2.814734 1_555
Ti1 Ti2 2.814734 1_555
Ti1 Ti5 3.073001 1_654
Ti1 Ti2 3.073002 1_645
Ti1 Ti3 3.265865 1_555
Ti2 Ti5 2.814734 1_555
Ti2 Ti5 3.073002 1_564
Ti2 Ti4 3.265865 1_555
Ti3 Ti4 2.814734 1_555
Ti3 Ti4 3.073002 1_645
Ti3 Ti5 3.265860 1_555
Ti4 Ti5 3.265860 1_555
Pb0 Ti1 2.926392 1_455
Pb0 Ti2 2.926392 1_545
Pb0 Ti5 2.926395 1_554
Pb0 Ti3 2.987898 1_554
Pb0 Ti4 2.987898 1_554
Pb0 Ti0 2.987901 1_455
Pb0 Ti0 2.987901 1_545
Pb0 Ti3 2.987903 1_455
Pb0 Ti4 2.987904 1_545
Pb1 Ti0 2.950364 1_555
Pb1 Ti4 2.950368 1_555
Pb1 Ti3 2.950368 1_555
Pb1 Ti1 2.970021 1_455
Pb1 Ti2 2.970021 1_545
Pb1 Ti5 2.970025 1_554
Pb1 Pb2 3.400241 1_554
Pb1 Pb2 3.400241 1_455
Pb1 Pb2 3.400242 1_545
Pb2 Ti5 2.950364 1_555
Pb2 Ti1 2.950368 1_555
Pb2 Ti2 2.950368 1_555
Pb2 Ti4 2.970021 1_655
Pb2 Ti3 2.970021 1_565
Pb2 Ti0 2.970025 1_556
Pb3 Ti4 2.926392 1_655
Pb3 Ti3 2.926392 1_565
Pb3 Ti0 2.926395 1_556
Pb3 Ti2 2.987898 1_556
Pb3 Ti1 2.987898 1_556
Pb3 Ti5 2.987901 1_655
Pb3 Ti5 2.987901 1_565
Pb3 Ti2 2.987903 1_655
Pb3 Ti1 2.987904 1_565
