# generated using pymatgen
data_Mn2Al3RhS8
_symmetry_space_group_name_H-M   'P 1'
_cell_length_a   7.10849568
_cell_length_b   7.10849538
_cell_length_c   7.15678300
_cell_angle_alpha   60.22294852
_cell_angle_beta   60.22294932
_cell_angle_gamma   60.00000936
_symmetry_Int_Tables_number   1
_chemical_formula_structural   Mn2Al3RhS8
_chemical_formula_sum   'Mn2 Al3 Rh1 S8'
_cell_volume   256.57456274
_cell_formula_units_Z   1
loop_
 _symmetry_equiv_pos_site_id
 _symmetry_equiv_pos_as_xyz
  1  'x, y, z'
loop_
 _atom_site_type_symbol
 _atom_site_label
 _atom_site_symmetry_multiplicity
 _atom_site_fract_x
 _atom_site_fract_y
 _atom_site_fract_z
 _atom_site_occupancy
  Mn  Mn0  1  0.25089203  0.25089203  0.24732390  1
  Mn  Mn1  1  0.99910797  0.99910797  0.00267610  1
  Al  Al0  1  0.12500000  0.62500000  0.62500000  1
  Al  Al1  1  0.62500000  0.12500000  0.62500000  1
  Al  Al2  1  0.62500000  0.62500000  0.62500000  1
  Rh  Rh0  1  0.62500000  0.62500000  0.12500000  1
  S  S0  1  0.83863619  0.38833687  0.38468906  1
  S  S1  1  0.38833687  0.83863619  0.38468906  1
  S  S2  1  0.38522970  0.38522970  0.84430990  1
  S  S3  1  0.38833687  0.38833687  0.38468906  1
  S  S4  1  0.41136381  0.86166313  0.86531094  1
  S  S5  1  0.86166313  0.41136381  0.86531094  1
  S  S6  1  0.86477030  0.86477030  0.40569010  1
  S  S7  1  0.86166313  0.86166313  0.86531094  1
loop_
_geom_bond_atom_site_label_1
_geom_bond_atom_site_label_2
_geom_bond_distance
_geom_bond_site_symmetry_2
Mn0 S2 2.362913 1_554
Mn0 S3 2.395467 1_555
Mn0 S1 2.395473 1_545
Mn0 S0 2.395473 1_455
Mn1 S6 2.362913 1_555
Mn1 S7 2.395467 1_554
Mn1 S5 2.395473 1_564
Mn1 S4 2.395473 1_654
Al0 S1 2.412282 1_555
Al0 S5 2.412282 1_455
Al0 S7 2.412287 1_455
Al0 S3 2.412287 1_555
Al0 S2 2.421623 1_555
Al0 S6 2.421623 1_455
Al1 S0 2.412282 1_555
Al1 S4 2.412282 1_545
Al1 S7 2.412287 1_545
Al1 S3 2.412287 1_555
Al1 S2 2.421623 1_555
Al1 S6 2.421623 1_545
Al2 S4 2.412287 1_555
Al2 S0 2.412287 1_555
Al2 S5 2.412287 1_555
Al2 S1 2.412287 1_555
Al2 S6 2.421629 1_555
Al2 S2 2.421629 1_555
Rh0 S1 2.394497 1_555
Rh0 S5 2.394497 1_554
Rh0 S0 2.394497 1_555
Rh0 S4 2.394497 1_554
Rh0 S7 2.394502 1_554
Rh0 S3 2.394502 1_555
