# generated using pymatgen
data_Y4SnB4Ir9
_symmetry_space_group_name_H-M   'P 1'
_cell_length_a   10.87895322
_cell_length_b   10.87895300
_cell_length_c   10.87895326
_cell_angle_alpha   29.46005877
_cell_angle_beta   29.46006002
_cell_angle_gamma   29.46006644
_symmetry_Int_Tables_number   1
_chemical_formula_structural   Y4SnB4Ir9
_chemical_formula_sum   'Y4 Sn1 B4 Ir9'
_cell_volume   275.64499618
_cell_formula_units_Z   1
loop_
 _symmetry_equiv_pos_site_id
 _symmetry_equiv_pos_as_xyz
  1  'x, y, z'
loop_
 _atom_site_type_symbol
 _atom_site_label
 _atom_site_symmetry_multiplicity
 _atom_site_fract_x
 _atom_site_fract_y
 _atom_site_fract_z
 _atom_site_occupancy
  Y  Y0  1  0.14882167  0.14882167  0.14882167  1
  Y  Y1  1  0.95080594  0.95080594  0.95080594  1
  Y  Y2  1  0.85117833  0.85117833  0.85117833  1
  Y  Y3  1  0.04919406  0.04919406  0.04919406  1
  Sn  Sn0  1  0.50000000  0.50000000  0.50000000  1
  B  B0  1  0.61658627  0.61658627  0.61658627  1
  B  B1  1  0.71679040  0.71679040  0.71679040  1
  B  B2  1  0.38341373  0.38341373  0.38341373  1
  B  B3  1  0.28320960  0.28320960  0.28320960  1
  Ir  Ir0  1  0.40339309  0.90591107  0.40339309  1
  Ir  Ir1  1  0.90591107  0.40339309  0.40339309  1
  Ir  Ir2  1  0.50000000  0.50000000  0.00000000  1
  Ir  Ir3  1  0.50000000  0.00000000  0.50000000  1
  Ir  Ir4  1  0.00000000  0.50000000  0.50000000  1
  Ir  Ir5  1  0.59660691  0.09408893  0.59660691  1
  Ir  Ir6  1  0.59660691  0.59660691  0.09408893  1
  Ir  Ir7  1  0.09408893  0.59660691  0.59660691  1
  Ir  Ir8  1  0.40339309  0.40339309  0.90591107  1
loop_
_geom_bond_atom_site_label_1
_geom_bond_atom_site_label_2
_geom_bond_distance
_geom_bond_site_symmetry_2
Y0 Y3 3.108232 1_555
Y0 Y2 3.382578 1_445
Y0 Y2 3.382578 1_454
Y0 Y2 3.382578 1_544
Y1 Y3 3.069562 1_666
Y1 Y2 3.108232 1_555
Sn0 Y2 3.242216 1_554
Sn0 Y0 3.242216 1_556
Sn0 Y2 3.242216 1_545
Sn0 Y0 3.242216 1_565
Sn0 Y2 3.242217 1_455
Sn0 Y0 3.242217 1_655
B0 Ir8 2.146611 1_555
B0 Ir0 2.146611 1_555
B0 Ir1 2.146611 1_555
B0 Ir2 2.234211 1_556
B0 Ir3 2.234211 1_565
B0 Ir4 2.234211 1_655
B0 Y1 3.194178 1_554
B0 Y1 3.194178 1_545
B0 Y1 3.194179 1_455
B1 Ir6 2.133708 1_556
B1 Ir5 2.133708 1_565
B1 Ir7 2.133708 1_655
B1 Ir2 2.235157 1_556
B1 Ir4 2.235157 1_655
B1 Ir3 2.235157 1_565
B1 Y3 3.194190 1_665
B1 Y3 3.194190 1_656
B1 Y3 3.194191 1_566
B2 Ir6 2.146611 1_555
B2 Ir5 2.146611 1_555
B2 Ir7 2.146611 1_555
B2 Ir2 2.234211 1_555
B2 Ir3 2.234211 1_555
B2 Ir4 2.234211 1_555
B2 Y3 3.194178 1_556
B2 Y3 3.194178 1_565
B2 Y3 3.194179 1_655
B3 Ir8 2.133708 1_554
B3 Ir0 2.133708 1_545
B3 Ir1 2.133708 1_455
B3 Ir2 2.235157 1_555
B3 Ir4 2.235157 1_555
B3 Ir3 2.235157 1_555
B3 Y1 3.194190 1_445
B3 Y1 3.194190 1_454
B3 Y1 3.194191 1_544
Ir0 Sn0 2.732939 1_555
Ir0 Y1 3.124556 1_554
Ir0 Y1 3.124556 1_455
Ir0 Y0 3.192253 1_565
Ir0 Y2 3.223552 1_455
Ir0 Y2 3.223552 1_554
Ir1 Sn0 2.732939 1_555
Ir1 Y1 3.124556 1_554
Ir1 Y1 3.124556 1_545
Ir1 Y0 3.192253 1_655
Ir1 Y2 3.223551 1_545
Ir1 Y2 3.223552 1_554
Ir2 Y3 3.163394 1_565
Ir2 Y1 3.163394 1_544
Ir2 Y3 3.163394 1_655
Ir2 Y1 3.163394 1_454
Ir3 Y3 3.163394 1_655
Ir3 Y1 3.163394 1_445
Ir3 Y3 3.163394 1_556
Ir3 Y1 3.163394 1_544
Ir4 Y3 3.163393 1_565
Ir4 Y1 3.163393 1_445
Ir4 Y3 3.163394 1_556
Ir4 Y1 3.163394 1_454
Ir5 Sn0 2.732939 1_555
Ir5 Y3 3.124556 1_556
Ir5 Y3 3.124556 1_655
Ir5 Y2 3.192253 1_545
Ir5 Y0 3.223552 1_655
Ir5 Y0 3.223552 1_556
Ir6 Sn0 2.732939 1_555
Ir6 Y3 3.124556 1_655
Ir6 Y3 3.124557 1_565
Ir6 Y2 3.192253 1_554
Ir6 Y0 3.223552 1_565
Ir6 Y0 3.223552 1_655
Ir7 Sn0 2.732939 1_555
Ir7 Y3 3.124556 1_556
Ir7 Y3 3.124556 1_565
Ir7 Y2 3.192253 1_455
Ir7 Y0 3.223551 1_565
Ir7 Y0 3.223552 1_556
Ir8 Sn0 2.732939 1_555
Ir8 Y1 3.124556 1_455
Ir8 Y1 3.124557 1_545
Ir8 Y0 3.192253 1_556
Ir8 Y2 3.223552 1_545
Ir8 Y2 3.223552 1_455
