# generated using pymatgen
data_Rb3NaSn3Se8
_symmetry_space_group_name_H-M   'P 1'
_cell_length_a   8.51243278
_cell_length_b   8.51243278
_cell_length_c   13.85147416
_cell_angle_alpha   90.00000000
_cell_angle_beta   90.00000000
_cell_angle_gamma   90.00000000
_symmetry_Int_Tables_number   1
_chemical_formula_structural   Rb3NaSn3Se8
_chemical_formula_sum   'Rb6 Na2 Sn6 Se16'
_cell_volume   1003.69875916
_cell_formula_units_Z   2
loop_
 _symmetry_equiv_pos_site_id
 _symmetry_equiv_pos_as_xyz
  1  'x, y, z'
loop_
 _atom_site_type_symbol
 _atom_site_label
 _atom_site_symmetry_multiplicity
 _atom_site_fract_x
 _atom_site_fract_y
 _atom_site_fract_z
 _atom_site_occupancy
  Rb  Rb0  1  0.00000000  0.00000000  0.71840823  1
  Rb  Rb1  1  0.50000000  0.50000000  0.71840823  1
  Rb  Rb2  1  0.50000000  0.50000000  0.28159177  1
  Rb  Rb3  1  0.00000000  0.00000000  0.28159177  1
  Rb  Rb4  1  0.50000000  0.50000000  0.00000000  1
  Rb  Rb5  1  0.00000000  0.00000000  0.00000000  1
  Na  Na0  1  0.00000000  0.50000000  0.00000000  1
  Na  Na1  1  0.50000000  0.00000000  0.00000000  1
  Sn  Sn0  1  0.50000000  0.00000000  0.75402057  1
  Sn  Sn1  1  0.50000000  0.00000000  0.24597943  1
  Sn  Sn2  1  0.00000000  0.50000000  0.75402057  1
  Sn  Sn3  1  0.00000000  0.50000000  0.24597943  1
  Sn  Sn4  1  0.50000000  0.00000000  0.50000000  1
  Sn  Sn5  1  0.00000000  0.50000000  0.50000000  1
  Se  Se0  1  0.34174600  0.84174600  0.62179244  1
  Se  Se1  1  0.17365406  0.67365406  0.85201546  1
  Se  Se2  1  0.84174600  0.34174600  0.37820756  1
  Se  Se3  1  0.34174600  0.15825400  0.37820756  1
  Se  Se4  1  0.67365406  0.82634594  0.85201546  1
  Se  Se5  1  0.67365406  0.17365406  0.14798454  1
  Se  Se6  1  0.82634594  0.67365406  0.14798454  1
  Se  Se7  1  0.32634594  0.82634594  0.14798454  1
  Se  Se8  1  0.84174600  0.65825400  0.62179244  1
  Se  Se9  1  0.82634594  0.32634594  0.85201546  1
  Se  Se10  1  0.65825400  0.84174600  0.37820756  1
  Se  Se11  1  0.65825400  0.15825400  0.62179244  1
  Se  Se12  1  0.15825400  0.65825400  0.37820756  1
  Se  Se13  1  0.17365406  0.32634594  0.14798454  1
  Se  Se14  1  0.15825400  0.34174600  0.62179244  1
  Se  Se15  1  0.32634594  0.17365406  0.85201546  1
loop_
_geom_bond_atom_site_label_1
_geom_bond_atom_site_label_2
_geom_bond_distance
_geom_bond_site_symmetry_2
Rb0 Se14 3.473978 1_555
Rb0 Se0 3.473978 1_545
Rb0 Se11 3.473978 1_455
Rb0 Se8 3.473978 1_445
Rb0 Se15 3.650662 1_555
Rb0 Se9 3.650662 1_455
Rb0 Se1 3.650662 1_545
Rb0 Se4 3.650662 1_445
Rb1 Se8 3.473978 1_555
Rb1 Se0 3.473978 1_555
Rb1 Se11 3.473978 1_555
Rb1 Se14 3.473978 1_555
Rb1 Se4 3.650662 1_555
Rb1 Se9 3.650662 1_555
Rb1 Se1 3.650662 1_555
Rb1 Se15 3.650662 1_555
Rb2 Se10 3.473978 1_555
Rb2 Se2 3.473978 1_555
Rb2 Se12 3.473978 1_555
Rb2 Se3 3.473978 1_555
Rb2 Se6 3.650662 1_555
Rb2 Se7 3.650662 1_555
Rb2 Se5 3.650662 1_555
Rb2 Se13 3.650662 1_555
Rb3 Se3 3.473978 1_555
Rb3 Se2 3.473978 1_455
Rb3 Se12 3.473978 1_545
Rb3 Se10 3.473978 1_445
Rb3 Se13 3.650662 1_555
Rb3 Se7 3.650662 1_545
Rb3 Se5 3.650662 1_455
Rb3 Se6 3.650662 1_445
Rb4 Se6 3.755542 1_555
Rb4 Se7 3.755542 1_555
Rb4 Se5 3.755542 1_555
Rb4 Se4 3.755542 1_554
Rb4 Se13 3.755542 1_555
Rb4 Se9 3.755542 1_554
Rb4 Se1 3.755542 1_554
Rb4 Se15 3.755542 1_554
Rb5 Se13 3.755542 1_555
Rb5 Se7 3.755542 1_545
Rb5 Se5 3.755542 1_455
Rb5 Se15 3.755542 1_554
Rb5 Se6 3.755542 1_445
Rb5 Se9 3.755542 1_454
Rb5 Se1 3.755542 1_544
Rb5 Se4 3.755542 1_444
Na0 Se13 2.927790 1_555
Na0 Se6 2.927790 1_455
Na0 Se1 2.927790 1_554
Na0 Se9 2.927790 1_454
Na1 Se5 2.927790 1_555
Na1 Se7 2.927790 1_545
Na1 Se4 2.927790 1_544
Na1 Se15 2.927790 1_554
Se0 Sn4 2.544697 1_565
Se0 Sn0 2.642743 1_565
Se1 Sn2 2.492533 1_555
Se2 Sn5 2.544697 1_655
Se2 Sn3 2.642743 1_655
Se3 Sn4 2.544697 1_555
Se3 Sn1 2.642743 1_555
Se4 Sn0 2.492533 1_565
Se5 Sn1 2.492533 1_555
Se6 Sn3 2.492533 1_655
Se7 Sn1 2.492533 1_565
Se8 Sn5 2.544697 1_655
Se8 Sn2 2.642743 1_655
Se9 Sn2 2.492533 1_655
Se10 Sn4 2.544697 1_565
Se10 Sn1 2.642743 1_565
Se11 Sn4 2.544697 1_555
Se11 Sn0 2.642743 1_555
Se12 Sn5 2.544697 1_555
Se12 Sn3 2.642743 1_555
Se13 Sn3 2.492533 1_555
Se14 Sn5 2.544697 1_555
Se14 Sn2 2.642743 1_555
Se15 Sn0 2.492533 1_555
