# generated using pymatgen
data_Ba4TeAs2
_symmetry_space_group_name_H-M   'P 1'
_cell_length_a   8.84485884
_cell_length_b   8.84485819
_cell_length_c   8.84485754
_cell_angle_alpha   109.32312414
_cell_angle_beta   109.32312448
_cell_angle_gamma   109.76781993
_symmetry_Int_Tables_number   1
_chemical_formula_structural   Ba4TeAs2
_chemical_formula_sum   'Ba8 Te2 As4'
_cell_volume   532.65008923
_cell_formula_units_Z   2
loop_
 _symmetry_equiv_pos_site_id
 _symmetry_equiv_pos_as_xyz
  1  'x, y, z'
loop_
 _atom_site_type_symbol
 _atom_site_label
 _atom_site_symmetry_multiplicity
 _atom_site_fract_x
 _atom_site_fract_y
 _atom_site_fract_z
 _atom_site_occupancy
  Ba  Ba0  1  0.37284427  0.36948721  0.35691272  1
  Ba  Ba1  1  0.12715573  0.48406845  0.99664395  1
  Ba  Ba2  1  0.98742450  0.13051279  0.50335605  1
  Ba  Ba3  1  0.86948721  0.87284427  0.85691272  1
  Ba  Ba4  1  0.51257550  0.01593155  0.14308728  1
  Ba  Ba5  1  0.63051279  0.48742450  0.00335605  1
  Ba  Ba6  1  0.51593155  0.01257550  0.64308728  1
  Ba  Ba7  1  0.98406845  0.62715573  0.49664395  1
  Te  Te0  1  0.12500000  0.87500000  0.25000000  1
  Te  Te1  1  0.37500000  0.62500000  0.75000000  1
  As  As0  1  0.87763986  0.25000000  0.12763986  1
  As  As1  1  0.62236014  0.75000000  0.37236014  1
  As  As2  1  0.25000000  0.12236014  0.87236014  1
  As  As3  1  0.75000000  0.37763986  0.62763986  1
loop_
_geom_bond_atom_site_label_1
_geom_bond_atom_site_label_2
_geom_bond_distance
_geom_bond_site_symmetry_2
Ba0 Te1 3.452965 1_555
Ba0 Te0 3.772857 1_545
Ba1 Te0 3.452962 1_556
Ba1 Te1 3.772864 1_555
Ba2 Te0 3.452967 1_645
Ba2 Te1 3.772859 1_655
Ba3 Te0 3.452965 1_656
Ba3 Te1 3.772857 1_555
Ba4 Te1 3.452962 1_544
Ba4 Te0 3.772865 1_545
Ba5 Te1 3.452967 1_554
Ba5 Te0 3.772859 1_655
Ba6 Te0 3.452962 1_545
Ba6 Te1 3.772864 1_545
Ba7 Te1 3.452962 1_655
Ba7 Te0 3.772864 1_655
As0 Ba1 3.269291 1_654
As0 Ba4 3.269292 1_555
As0 Ba3 3.362123 1_544
As0 Ba7 3.362128 1_555
As0 Ba5 3.665859 1_555
As0 Ba6 3.665865 1_554
As0 Ba2 3.739798 1_555
As0 Ba0 3.739807 1_655
As1 Ba2 3.269297 1_565
As1 Ba0 3.269298 1_555
As1 Ba6 3.362128 1_565
As1 Ba5 3.362133 1_555
As1 Ba3 3.665863 1_555
As1 Ba7 3.665865 1_555
As1 Ba4 3.739804 1_565
As1 Ba1 3.739804 1_554
As2 Ba5 3.269297 1_556
As2 Ba3 3.269299 1_445
As2 Ba4 3.362128 1_556
As2 Ba2 3.362133 1_455
As2 Ba0 3.665863 1_556
As2 Ba1 3.665865 1_555
As2 Ba7 3.739804 1_445
As2 Ba6 3.739804 1_555
As3 Ba7 3.269291 1_555
As3 Ba6 3.269291 1_555
As3 Ba0 3.362124 1_555
As3 Ba1 3.362128 1_655
As3 Ba2 3.665859 1_555
As3 Ba4 3.665864 1_555
As3 Ba5 3.739798 1_556
As3 Ba3 3.739806 1_555
