# generated using pymatgen
data_Hf3ZnPd2C
_symmetry_space_group_name_H-M   'P 1'
_cell_length_a   8.53427586
_cell_length_b   8.53427576
_cell_length_c   8.53427679
_cell_angle_alpha   60.00000361
_cell_angle_beta   60.00000401
_cell_angle_gamma   60.00000447
_symmetry_Int_Tables_number   1
_chemical_formula_structural   Hf3ZnPd2C
_chemical_formula_sum   'Hf12 Zn4 Pd8 C4'
_cell_volume   439.52655034
_cell_formula_units_Z   4
loop_
 _symmetry_equiv_pos_site_id
 _symmetry_equiv_pos_as_xyz
  1  'x, y, z'
loop_
 _atom_site_type_symbol
 _atom_site_label
 _atom_site_symmetry_multiplicity
 _atom_site_fract_x
 _atom_site_fract_y
 _atom_site_fract_z
 _atom_site_occupancy
  Hf  Hf0  1  0.44159282  0.44159282  0.05840718  1
  Hf  Hf1  1  0.05840718  0.44159282  0.05840718  1
  Hf  Hf2  1  0.44159282  0.05840718  0.05840718  1
  Hf  Hf3  1  0.05840718  0.05840718  0.44159282  1
  Hf  Hf4  1  0.44159282  0.05840718  0.44159282  1
  Hf  Hf5  1  0.05840718  0.44159282  0.44159282  1
  Hf  Hf6  1  0.80840718  0.80840718  0.19159282  1
  Hf  Hf7  1  0.19159282  0.80840718  0.19159282  1
  Hf  Hf8  1  0.80840718  0.19159282  0.19159282  1
  Hf  Hf9  1  0.19159282  0.19159282  0.80840718  1
  Hf  Hf10  1  0.80840718  0.19159282  0.80840718  1
  Hf  Hf11  1  0.19159282  0.80840718  0.80840718  1
  Zn  Zn0  1  0.62500000  0.62500000  0.12500000  1
  Zn  Zn1  1  0.62500000  0.12500000  0.62500000  1
  Zn  Zn2  1  0.12500000  0.62500000  0.62500000  1
  Zn  Zn3  1  0.62500000  0.62500000  0.62500000  1
  Pd  Pd0  1  0.83672427  0.83672427  0.48982719  1
  Pd  Pd1  1  0.83672427  0.48982719  0.83672427  1
  Pd  Pd2  1  0.48982719  0.83672427  0.83672427  1
  Pd  Pd3  1  0.83672427  0.83672427  0.83672427  1
  Pd  Pd4  1  0.41327573  0.41327573  0.76017281  1
  Pd  Pd5  1  0.41327573  0.76017281  0.41327573  1
  Pd  Pd6  1  0.76017281  0.41327573  0.41327573  1
  Pd  Pd7  1  0.41327573  0.41327573  0.41327573  1
  C  C0  1  0.12500000  0.12500000  0.62500000  1
  C  C1  1  0.12500000  0.62500000  0.12500000  1
  C  C2  1  0.62500000  0.12500000  0.12500000  1
  C  C3  1  0.12500000  0.12500000  0.12500000  1
loop_
_geom_bond_atom_site_label_1
_geom_bond_atom_site_label_2
_geom_bond_distance
_geom_bond_site_symmetry_2
Hf0 Pd4 2.807758 1_554
Hf0 Pd7 2.807759 1_555
Hf0 Pd2 3.057737 1_554
Hf0 Pd1 3.057737 1_554
Hf0 Zn0 3.074429 1_555
Hf0 Zn3 3.074430 1_554
Hf1 Pd4 2.807759 1_554
Hf1 Pd6 2.807759 1_455
Hf1 Pd1 3.057738 1_454
Hf1 Pd3 3.057738 1_454
Hf1 Zn0 3.074430 1_455
Hf1 Zn2 3.074430 1_554
Hf2 Pd4 2.807758 1_554
Hf2 Pd5 2.807759 1_545
Hf2 Pd2 3.057737 1_544
Hf2 Pd3 3.057738 1_544
Hf2 Zn0 3.074429 1_545
Hf2 Zn1 3.074430 1_554
Hf3 Pd6 2.807758 1_455
Hf3 Pd5 2.807758 1_545
Hf3 Pd0 3.057737 1_445
Hf3 Pd3 3.057738 1_445
Hf3 Zn2 3.074429 1_545
Hf3 Zn1 3.074430 1_455
Hf4 Pd5 2.807758 1_545
Hf4 Pd7 2.807758 1_555
Hf4 Pd0 3.057738 1_545
Hf4 Pd2 3.057738 1_545
Hf4 Zn1 3.074429 1_555
Hf4 Zn3 3.074430 1_545
Hf5 Pd6 2.807758 1_455
Hf5 Pd7 2.807758 1_555
Hf5 Pd0 3.057737 1_455
Hf5 Pd1 3.057738 1_455
Hf5 Zn2 3.074429 1_555
Hf5 Zn3 3.074430 1_455
Hf6 Pd0 2.807758 1_555
Hf6 Pd3 2.807759 1_554
Hf6 Pd6 3.057737 1_555
Hf6 Pd5 3.057737 1_555
Hf6 Zn0 3.074429 1_555
Hf6 Zn3 3.074430 1_555
Hf7 Pd0 2.807759 1_455
Hf7 Pd2 2.807759 1_554
Hf7 Pd5 3.057738 1_555
Hf7 Pd7 3.057738 1_555
Hf7 Zn0 3.074430 1_555
Hf7 Zn2 3.074430 1_555
Hf8 Pd0 2.807758 1_545
Hf8 Pd1 2.807759 1_554
Hf8 Pd6 3.057737 1_555
Hf8 Pd7 3.057738 1_555
Hf8 Zn0 3.074429 1_555
Hf8 Zn1 3.074430 1_555
Hf9 Pd2 2.807758 1_545
Hf9 Pd1 2.807758 1_455
Hf9 Pd4 3.057737 1_555
Hf9 Pd7 3.057738 1_555
Hf9 Zn2 3.074429 1_555
Hf9 Zn1 3.074430 1_555
Hf10 Pd1 2.807758 1_555
Hf10 Pd3 2.807758 1_545
Hf10 Pd4 3.057738 1_555
Hf10 Pd6 3.057738 1_555
Hf10 Zn1 3.074429 1_555
Hf10 Zn3 3.074430 1_555
Hf11 Pd2 2.807758 1_555
Hf11 Pd3 2.807758 1_455
Hf11 Pd4 3.057737 1_555
Hf11 Pd5 3.057738 1_555
Hf11 Zn2 3.074429 1_555
Hf11 Zn3 3.074430 1_555
Pd0 Zn3 2.637553 1_555
Pd0 Zn1 2.637553 1_565
Pd0 Zn2 2.637553 1_655
Pd1 Zn2 2.637553 1_655
Pd1 Zn3 2.637553 1_555
Pd1 Zn0 2.637554 1_556
Pd2 Zn1 2.637553 1_565
Pd2 Zn3 2.637553 1_555
Pd2 Zn0 2.637554 1_556
Pd3 Zn0 2.637553 1_556
Pd3 Zn1 2.637553 1_565
Pd3 Zn2 2.637554 1_655
Pd4 Zn3 2.637553 1_555
Pd4 Zn1 2.637553 1_555
Pd4 Zn2 2.637553 1_555
Pd5 Zn2 2.637553 1_555
Pd5 Zn3 2.637553 1_555
Pd5 Zn0 2.637554 1_555
Pd6 Zn1 2.637553 1_555
Pd6 Zn3 2.637553 1_555
Pd6 Zn0 2.637554 1_555
Pd7 Zn0 2.637553 1_555
Pd7 Zn1 2.637553 1_555
Pd7 Zn2 2.637554 1_555
C0 Hf9 2.279933 1_555
C0 Hf3 2.279933 1_555
C0 Hf5 2.279933 1_555
C0 Hf11 2.279933 1_545
C0 Hf4 2.279933 1_555
C0 Hf10 2.279933 1_455
C1 Hf7 2.279933 1_555
C1 Hf1 2.279933 1_555
C1 Hf0 2.279933 1_555
C1 Hf6 2.279933 1_455
C1 Hf5 2.279933 1_555
C1 Hf11 2.279933 1_554
C2 Hf8 2.279933 1_555
C2 Hf2 2.279933 1_555
C2 Hf0 2.279933 1_555
C2 Hf6 2.279933 1_545
C2 Hf4 2.279933 1_555
C2 Hf10 2.279933 1_554
C3 Hf1 2.279933 1_555
C3 Hf7 2.279933 1_545
C3 Hf2 2.279933 1_555
C3 Hf8 2.279933 1_455
C3 Hf3 2.279933 1_555
C3 Hf9 2.279933 1_554
