# generated using pymatgen
data_Ti5GaPb2
_symmetry_space_group_name_H-M   'P 1'
_cell_length_a   5.18648225
_cell_length_b   7.99258105
_cell_length_c   7.99263661
_cell_angle_alpha   83.95432455
_cell_angle_beta   71.06153817
_cell_angle_gamma   71.06132305
_symmetry_Int_Tables_number   1
_chemical_formula_structural   Ti5GaPb2
_chemical_formula_sum   'Ti10 Ga2 Pb4'
_cell_volume   296.42187343
_cell_formula_units_Z   2
loop_
 _symmetry_equiv_pos_site_id
 _symmetry_equiv_pos_as_xyz
  1  'x, y, z'
loop_
 _atom_site_type_symbol
 _atom_site_label
 _atom_site_symmetry_multiplicity
 _atom_site_fract_x
 _atom_site_fract_y
 _atom_site_fract_z
 _atom_site_occupancy
  Ti  Ti0  1  0.71320313  0.85922812  0.71444610  1
  Ti  Ti1  1  0.28679687  0.14077188  0.28555390  1
  Ti  Ti2  1  0.78679655  0.28556985  0.14076013  1
  Ti  Ti3  1  0.21320345  0.71443015  0.85923987  1
  Ti  Ti4  1  0.57222121  0.71445194  0.14079512  1
  Ti  Ti5  1  0.42777879  0.28554806  0.85920488  1
  Ti  Ti6  1  0.07220568  0.14080892  0.71446669  1
  Ti  Ti7  1  0.92779432  0.85919108  0.28553331  1
  Ti  Ti8  1  0.74999894  0.50002126  0.49997658  1
  Ti  Ti9  1  0.25000106  0.49997874  0.50002342  1
  Ga  Ga0  1  0.24999661  0.00001145  0.99998845  1
  Ga  Ga1  1  0.75000339  0.99998855  0.00001155  1
  Pb  Pb0  1  0.16515719  0.49996537  0.16974754  1
  Pb  Pb1  1  0.83484281  0.50003463  0.83025246  1
  Pb  Pb2  1  0.33484454  0.83025569  0.50003597  1
  Pb  Pb3  1  0.66515546  0.16974431  0.49996403  1
loop_
_geom_bond_atom_site_label_1
_geom_bond_atom_site_label_2
_geom_bond_distance
_geom_bond_site_symmetry_2
Ti8 Ti9 2.593219 1_555
Ti8 Ti9 2.593263 1_655
Ga0 Ga1 2.593205 1_446
Ga0 Ga1 2.593277 1_546
Ga0 Ti7 2.733541 1_446
Ga0 Ti4 2.733595 1_546
Ga0 Ti0 2.733784 1_545
Ga0 Ti2 2.733813 1_456
Ga0 Ti1 2.733977 1_556
Ga0 Ti3 2.734015 1_545
Ga0 Ti6 2.734213 1_555
Ga0 Ti5 2.734266 1_555
Ga1 Ti6 2.733541 1_664
Ga1 Ti5 2.733595 1_564
Ga1 Ti1 2.733784 1_565
Ga1 Ti3 2.733813 1_654
Ga1 Ti0 2.733977 1_554
Ga1 Ti2 2.734015 1_565
Ga1 Ti7 2.734213 1_555
Ga1 Ti4 2.734266 1_555
Pb0 Ti8 2.813075 1_455
Pb0 Ti9 2.813565 1_555
Pb0 Ti5 2.852914 1_554
Pb0 Ti3 2.852942 1_554
Pb0 Ti1 2.853130 1_555
Pb0 Ti7 2.853288 1_455
Pb0 Ti2 3.065540 1_555
Pb0 Ti4 3.065666 1_555
Pb0 Ti2 3.066325 1_455
Pb0 Ti4 3.066897 1_455
Pb1 Ti9 2.813075 1_655
Pb1 Ti8 2.813565 1_555
Pb1 Ti4 2.852914 1_556
Pb1 Ti2 2.852942 1_556
Pb1 Ti0 2.853130 1_555
Pb1 Ti6 2.853288 1_655
Pb1 Ti3 3.065540 1_555
Pb1 Ti5 3.065666 1_555
Pb1 Ti3 3.066325 1_655
Pb1 Ti5 3.066897 1_655
Pb2 Ti8 2.813072 1_555
Pb2 Ti9 2.813554 1_555
Pb2 Ti6 2.853029 1_565
Pb2 Ti1 2.853061 1_565
Pb2 Ti3 2.853269 1_555
Pb2 Ti4 2.853458 1_555
Pb2 Ti0 3.065609 1_455
Pb2 Ti7 3.065738 1_455
Pb2 Ti0 3.066371 1_555
Pb2 Ti7 3.066949 1_555
Pb3 Ti9 2.813072 1_555
Pb3 Ti8 2.813554 1_555
Pb3 Ti7 2.853029 1_545
Pb3 Ti0 2.853061 1_545
Pb3 Ti2 2.853269 1_555
Pb3 Ti5 2.853458 1_555
Pb3 Ti1 3.065609 1_655
Pb3 Ti6 3.065738 1_655
Pb3 Ti1 3.066371 1_555
Pb3 Ti6 3.066949 1_555
