# generated using pymatgen
data_Y3Ni6B2Ru
_symmetry_space_group_name_H-M   'P 1'
_cell_length_a   5.06103586
_cell_length_b   5.06103535
_cell_length_c   14.53274884
_cell_angle_alpha   90.00000000
_cell_angle_beta   90.00000000
_cell_angle_gamma   120.00000333
_symmetry_Int_Tables_number   1
_chemical_formula_structural   Y3Ni6B2Ru
_chemical_formula_sum   'Y6 Ni12 B4 Ru2'
_cell_volume   322.37189352
_cell_formula_units_Z   2
loop_
 _symmetry_equiv_pos_site_id
 _symmetry_equiv_pos_as_xyz
  1  'x, y, z'
loop_
 _atom_site_type_symbol
 _atom_site_label
 _atom_site_symmetry_multiplicity
 _atom_site_fract_x
 _atom_site_fract_y
 _atom_site_fract_z
 _atom_site_occupancy
  Y  Y0  1  0.33333300  0.66666700  0.47046626  1
  Y  Y1  1  0.66666700  0.33333300  0.97046626  1
  Y  Y2  1  0.66666700  0.33333300  0.52953374  1
  Y  Y3  1  0.33333300  0.66666700  0.02953374  1
  Y  Y4  1  0.66666700  0.33333300  0.75000000  1
  Y  Y5  1  0.33333300  0.66666700  0.25000000  1
  Ni  Ni0  1  0.83560861  0.16439139  0.34665019  1
  Ni  Ni1  1  0.83560861  0.67121723  0.34665019  1
  Ni  Ni2  1  0.83560861  0.67121723  0.15334981  1
  Ni  Ni3  1  0.16439139  0.83560861  0.65334981  1
  Ni  Ni4  1  0.67121723  0.83560861  0.65334981  1
  Ni  Ni5  1  0.32878277  0.16439139  0.15334981  1
  Ni  Ni6  1  0.83560861  0.16439139  0.15334981  1
  Ni  Ni7  1  0.16439139  0.32878277  0.84665019  1
  Ni  Ni8  1  0.16439139  0.83560861  0.84665019  1
  Ni  Ni9  1  0.16439139  0.32878277  0.65334981  1
  Ni  Ni10  1  0.67121723  0.83560861  0.84665019  1
  Ni  Ni11  1  0.32878277  0.16439139  0.34665019  1
  B  B0  1  0.66666700  0.33333300  0.25000000  1
  B  B1  1  0.33333300  0.66666700  0.75000000  1
  B  B2  1  0.00000000  0.00000000  0.75000000  1
  B  B3  1  0.00000000  0.00000000  0.25000000  1
  Ru  Ru0  1  0.00000000  0.00000000  0.00000000  1
  Ru  Ru1  1  0.00000000  0.00000000  0.50000000  1
loop_
_geom_bond_atom_site_label_1
_geom_bond_atom_site_label_2
_geom_bond_distance
_geom_bond_site_symmetry_2
Y0 Y5 3.203981 1_555
Y1 Y4 3.203981 1_555
Y2 Y4 3.203981 1_555
Y3 Y5 3.203981 1_555
Ni0 Ru1 2.653914 1_655
Ni0 Y5 2.894270 1_655
Ni0 Y5 2.894270 1_545
Ni0 Y2 3.042545 1_555
Ni0 Y0 3.105111 1_655
Ni0 Y0 3.105111 1_545
Ni1 Ru1 2.653914 1_665
Ni1 Y5 2.894268 1_655
Ni1 Y5 2.894272 1_555
Ni1 Y2 3.042547 1_555
Ni1 Y0 3.105109 1_655
Ni1 Y0 3.105113 1_555
Ni2 Ru0 2.653914 1_665
Ni2 Y5 2.894268 1_655
Ni2 Y5 2.894272 1_555
Ni2 Y1 3.042547 1_554
Ni2 Y3 3.105109 1_655
Ni2 Y3 3.105113 1_555
Ni3 Ru1 2.653914 1_565
Ni3 Y4 2.894270 1_455
Ni3 Y4 2.894270 1_565
Ni3 Y0 3.042545 1_555
Ni3 Y2 3.105111 1_455
Ni3 Y2 3.105111 1_565
Ni4 Ru1 2.653914 1_665
Ni4 Y4 2.894268 1_565
Ni4 Y4 2.894272 1_555
Ni4 Y0 3.042547 1_555
Ni4 Y2 3.105109 1_565
Ni4 Y2 3.105113 1_555
Ni5 Ru0 2.653914 1_555
Ni5 Y5 2.894268 1_545
Ni5 Y5 2.894272 1_555
Ni5 Y1 3.042547 1_554
Ni5 Y3 3.105109 1_545
Ni5 Y3 3.105113 1_555
Ni6 Ru0 2.653914 1_655
Ni6 Y5 2.894270 1_655
Ni6 Y5 2.894270 1_545
Ni6 Y1 3.042545 1_554
Ni6 Y3 3.105111 1_655
Ni6 Y3 3.105111 1_545
Ni7 Ru0 2.653914 1_556
Ni7 Y4 2.894268 1_455
Ni7 Y4 2.894272 1_555
Ni7 Y3 3.042547 1_556
Ni7 Y1 3.105109 1_455
Ni7 Y1 3.105113 1_555
Ni8 Ru0 2.653914 1_566
Ni8 Y4 2.894270 1_455
Ni8 Y4 2.894270 1_565
Ni8 Y3 3.042545 1_556
Ni8 Y1 3.105111 1_455
Ni8 Y1 3.105111 1_565
Ni9 Ru1 2.653914 1_555
Ni9 Y4 2.894268 1_455
Ni9 Y4 2.894272 1_555
Ni9 Y0 3.042547 1_555
Ni9 Y2 3.105109 1_455
Ni9 Y2 3.105113 1_555
Ni10 Ru0 2.653914 1_666
Ni10 Y4 2.894268 1_565
Ni10 Y4 2.894272 1_555
Ni10 Y3 3.042547 1_556
Ni10 Y1 3.105109 1_565
Ni10 Y1 3.105113 1_555
Ni11 Ru1 2.653914 1_555
Ni11 Y5 2.894268 1_545
Ni11 Y5 2.894272 1_555
Ni11 Y2 3.042547 1_555
Ni11 Y0 3.105109 1_545
Ni11 Y0 3.105113 1_555
B0 Ni0 2.041092 1_555
B0 Ni6 2.041092 1_555
B0 Ni1 2.041095 1_555
B0 Ni2 2.041095 1_555
B0 Ni11 2.041095 1_555
B0 Ni5 2.041095 1_555
B0 Y5 2.921987 1_545
B0 Y5 2.921987 1_655
B0 Y5 2.921996 1_555
B1 Ni8 2.041092 1_555
B1 Ni3 2.041092 1_555
B1 Ni7 2.041095 1_555
B1 Ni9 2.041095 1_555
B1 Ni10 2.041095 1_555
B1 Ni4 2.041095 1_555
B1 Y4 2.921987 1_565
B1 Y4 2.921987 1_455
B1 Y4 2.921996 1_555
B2 Ni7 2.012339 1_555
B2 Ni9 2.012339 1_555
B2 Ni8 2.012339 1_545
B2 Ni3 2.012339 1_545
B2 Ni10 2.012339 1_445
B2 Ni4 2.012339 1_445
B2 Y4 2.921987 1_455
B2 Y4 2.921991 1_445
B2 Y4 2.921992 1_555
B3 Ni1 2.012339 1_445
B3 Ni2 2.012339 1_445
B3 Ni0 2.012339 1_455
B3 Ni6 2.012339 1_455
B3 Ni11 2.012339 1_555
B3 Ni5 2.012339 1_555
B3 Y5 2.921987 1_545
B3 Y5 2.921991 1_555
B3 Y5 2.921992 1_445
Ru0 Y3 2.953342 1_545
Ru0 Y1 2.953342 1_454
Ru0 Y3 2.953346 1_555
Ru0 Y1 2.953346 1_444
Ru0 Y1 2.953346 1_554
Ru0 Y3 2.953346 1_445
Ru1 Y2 2.953342 1_455
Ru1 Y0 2.953342 1_545
Ru1 Y0 2.953346 1_555
Ru1 Y2 2.953346 1_445
Ru1 Y2 2.953346 1_555
Ru1 Y0 2.953346 1_445
