# generated using pymatgen
data_Rb2GeWN4
_symmetry_space_group_name_H-M   'P 1'
_cell_length_a   5.87304234
_cell_length_b   5.87304315
_cell_length_c   5.87304263
_cell_angle_alpha   120.09379145
_cell_angle_beta   120.09379388
_cell_angle_gamma   89.83761000
_symmetry_Int_Tables_number   1
_chemical_formula_structural   Rb2GeWN4
_chemical_formula_sum   'Rb2 Ge1 W1 N4'
_cell_volume   143.03967435
_cell_formula_units_Z   1
loop_
 _symmetry_equiv_pos_site_id
 _symmetry_equiv_pos_as_xyz
  1  'x, y, z'
loop_
 _atom_site_type_symbol
 _atom_site_label
 _atom_site_symmetry_multiplicity
 _atom_site_fract_x
 _atom_site_fract_y
 _atom_site_fract_z
 _atom_site_occupancy
  Rb  Rb0  1  0.25000000  0.75000000  0.50000000  1
  Rb  Rb1  1  0.50000000  0.50000000  0.00000000  1
  Ge  Ge0  1  0.00000000  0.00000000  0.00000000  1
  W  W0  1  0.75000000  0.25000000  0.50000000  1
  N  N0  1  0.80653684  0.12455704  0.17889861  1
  N  N1  1  0.94565843  0.62763823  0.82110139  1
  N  N2  1  0.37236177  0.19346316  0.31802020  1
  N  N3  1  0.87544296  0.05434157  0.68197980  1
loop_
_geom_bond_atom_site_label_1
_geom_bond_atom_site_label_2
_geom_bond_distance
_geom_bond_site_symmetry_2
Ge0 N0 1.830776 1_455
Ge0 N3 1.830777 1_454
Ge0 N2 1.830777 1_555
Ge0 N1 1.830777 1_444
N0 W0 1.855451 1_555
N0 Rb0 3.097725 1_544
N0 Rb1 3.100148 1_555
N0 Rb0 3.466174 1_655
N0 Rb1 3.474950 1_545
N1 W0 1.855452 1_555
N1 Rb0 3.097724 1_656
N1 Rb1 3.100147 1_656
N1 Rb0 3.466174 1_655
N1 Rb1 3.474950 1_556
N2 W0 1.855451 1_555
N2 Rb0 3.097724 1_555
N2 Rb1 3.100148 1_556
N2 Rb0 3.466174 1_545
N2 Rb1 3.474950 1_555
N3 W0 1.855451 1_555
N3 Rb0 3.097724 1_645
N3 Rb1 3.100148 1_545
N3 Rb0 3.466174 1_545
N3 Rb1 3.474950 1_656
