# generated using pymatgen
data_LiCaHgPd3
_symmetry_space_group_name_H-M   'P 1'
_cell_length_a   5.17525543
_cell_length_b   5.17525532
_cell_length_c   5.17525478
_cell_angle_alpha   63.23975827
_cell_angle_beta   63.23975641
_cell_angle_gamma   63.23975774
_symmetry_Int_Tables_number   1
_chemical_formula_structural   LiCaHgPd3
_chemical_formula_sum   'Li1 Ca1 Hg1 Pd3'
_cell_volume   105.04852292
_cell_formula_units_Z   1
loop_
 _symmetry_equiv_pos_site_id
 _symmetry_equiv_pos_as_xyz
  1  'x, y, z'
loop_
 _atom_site_type_symbol
 _atom_site_label
 _atom_site_symmetry_multiplicity
 _atom_site_fract_x
 _atom_site_fract_y
 _atom_site_fract_z
 _atom_site_occupancy
  Li  Li0  1  0.50257852  0.50257852  0.50257852  1
  Ca  Ca0  1  0.12242556  0.12242556  0.12242556  1
  Hg  Hg0  1  0.87217172  0.87217172  0.87217172  1
  Pd  Pd0  1  0.50111807  0.50111807  0.00058806  1
  Pd  Pd1  1  0.00058806  0.50111807  0.50111807  1
  Pd  Pd2  1  0.50111807  0.00058806  0.50111807  1
loop_
_geom_bond_atom_site_label_1
_geom_bond_atom_site_label_2
_geom_bond_distance
_geom_bond_site_symmetry_2
Li0 Pd0 2.570543 1_556
Li0 Pd2 2.570543 1_565
Li0 Pd1 2.570544 1_655
Li0 Pd0 2.604758 1_555
Li0 Pd2 2.604758 1_555
Li0 Pd1 2.604758 1_555
Ca0 Pd1 3.051663 1_555
Ca0 Pd2 3.051663 1_555
Ca0 Pd0 3.051663 1_555
Ca0 Hg0 3.092494 1_444
Ca0 Pd2 3.100910 1_554
Ca0 Pd1 3.100910 1_554
Ca0 Pd0 3.100910 1_545
Ca0 Pd1 3.100910 1_545
Ca0 Pd2 3.100910 1_455
Ca0 Pd0 3.100910 1_455
Ca0 Li0 3.186011 1_554
Ca0 Li0 3.186011 1_455
Ca0 Li0 3.186011 1_545
Ca0 Hg0 3.296958 1_445
Ca0 Hg0 3.296958 1_454
Ca0 Hg0 3.296958 1_544
Hg0 Pd1 2.973039 1_655
Hg0 Pd2 2.973040 1_565
Hg0 Pd0 2.973040 1_556
Hg0 Pd2 3.145482 1_566
Hg0 Pd1 3.145482 1_656
Hg0 Pd0 3.145483 1_566
Hg0 Pd1 3.145483 1_665
Hg0 Pd2 3.145483 1_665
Hg0 Pd0 3.145483 1_656
Hg0 Li0 3.164917 1_556
Hg0 Li0 3.164917 1_655
Hg0 Li0 3.164917 1_565
