# generated using pymatgen
data_Y4Ga6IrPt6
_symmetry_space_group_name_H-M   'P 1'
_cell_length_a   7.31197199
_cell_length_b   7.31197188
_cell_length_c   7.31197105
_cell_angle_alpha   109.47121566
_cell_angle_beta   109.47121536
_cell_angle_gamma   109.47122240
_symmetry_Int_Tables_number   1
_chemical_formula_structural   Y4Ga6IrPt6
_chemical_formula_sum   'Y4 Ga6 Ir1 Pt6'
_cell_volume   300.94120060
_cell_formula_units_Z   1
loop_
 _symmetry_equiv_pos_site_id
 _symmetry_equiv_pos_as_xyz
  1  'x, y, z'
loop_
 _atom_site_type_symbol
 _atom_site_label
 _atom_site_symmetry_multiplicity
 _atom_site_fract_x
 _atom_site_fract_y
 _atom_site_fract_z
 _atom_site_occupancy
  Y  Y0  1  0.50000000  0.50000000  0.50000000  1
  Y  Y1  1  0.00000000  0.00000000  0.50000000  1
  Y  Y2  1  0.50000000  0.00000000  0.00000000  1
  Y  Y3  1  0.00000000  0.50000000  0.00000000  1
  Ga  Ga0  1  0.31529027  1.00000000  0.31529027  1
  Ga  Ga1  1  1.00000000  0.31529027  0.31529027  1
  Ga  Ga2  1  0.00000000  0.68470973  0.68470973  1
  Ga  Ga3  1  0.31529027  0.31529027  1.00000000  1
  Ga  Ga4  1  0.68470973  0.68470973  0.00000000  1
  Ga  Ga5  1  0.68470973  0.00000000  0.68470973  1
  Ir  Ir0  1  0.00000000  0.00000000  0.00000000  1
  Pt  Pt0  1  0.75000000  0.50000000  0.25000000  1
  Pt  Pt1  1  0.50000000  0.75000000  0.25000000  1
  Pt  Pt2  1  0.50000000  0.25000000  0.75000000  1
  Pt  Pt3  1  0.75000000  0.25000000  0.50000000  1
  Pt  Pt4  1  0.25000000  0.75000000  0.50000000  1
  Pt  Pt5  1  0.25000000  0.50000000  0.75000000  1
loop_
_geom_bond_atom_site_label_1
_geom_bond_atom_site_label_2
_geom_bond_distance
_geom_bond_site_symmetry_2
Ga0 Pt4 2.624413 1_555
Ga0 Pt2 2.624413 1_565
Ga0 Pt1 2.624413 1_555
Ga0 Pt3 2.624413 1_565
Ga0 Ir0 2.662039 1_565
Ga0 Y2 3.035573 1_565
Ga0 Y1 3.035573 1_565
Ga0 Y0 3.035573 1_565
Ga0 Y3 3.035573 1_555
Ga1 Pt3 2.624413 1_555
Ga1 Pt5 2.624413 1_655
Ga1 Pt0 2.624413 1_555
Ga1 Pt4 2.624413 1_655
Ga1 Ir0 2.662039 1_655
Ga1 Y3 3.035573 1_655
Ga1 Y1 3.035573 1_655
Ga1 Y0 3.035573 1_655
Ga1 Y2 3.035573 1_555
Ga2 Pt4 2.624413 1_555
Ga2 Pt0 2.624413 1_455
Ga2 Pt5 2.624413 1_555
Ga2 Pt3 2.624413 1_455
Ga2 Ir0 2.662039 1_566
Ga2 Y3 3.035573 1_556
Ga2 Y1 3.035573 1_565
Ga2 Y0 3.035573 1_455
Ga2 Y2 3.035573 1_566
Ga3 Pt5 2.624413 1_555
Ga3 Pt2 2.624413 1_555
Ga3 Pt1 2.624413 1_556
Ga3 Pt0 2.624413 1_556
Ga3 Ir0 2.662039 1_556
Ga3 Y0 3.035573 1_556
Ga3 Y2 3.035573 1_556
Ga3 Y3 3.035573 1_556
Ga3 Y1 3.035573 1_555
Ga4 Pt0 2.624413 1_555
Ga4 Pt1 2.624413 1_555
Ga4 Pt2 2.624413 1_554
Ga4 Pt5 2.624413 1_554
Ga4 Ir0 2.662039 1_665
Ga4 Y0 3.035573 1_554
Ga4 Y2 3.035573 1_565
Ga4 Y3 3.035573 1_655
Ga4 Y1 3.035573 1_665
Ga5 Pt3 2.624413 1_555
Ga5 Pt1 2.624413 1_545
Ga5 Pt2 2.624413 1_555
Ga5 Pt4 2.624413 1_545
Ga5 Ir0 2.662039 1_656
Ga5 Y2 3.035573 1_556
Ga5 Y1 3.035573 1_655
Ga5 Y0 3.035573 1_545
Ga5 Y3 3.035573 1_656
Pt0 Y3 2.985100 1_655
Pt0 Y0 2.985100 1_555
Pt0 Y1 2.985100 1_665
Pt0 Y2 2.985100 1_555
Pt1 Y0 2.985100 1_555
Pt1 Y2 2.985100 1_565
Pt1 Y1 2.985100 1_665
Pt1 Y3 2.985100 1_555
Pt2 Y0 2.985100 1_555
Pt2 Y2 2.985100 1_556
Pt2 Y1 2.985100 1_555
Pt2 Y3 2.985100 1_656
Pt3 Y2 2.985100 1_555
Pt3 Y3 2.985100 1_656
Pt3 Y1 2.985100 1_655
Pt3 Y0 2.985100 1_555
Pt4 Y3 2.985100 1_555
Pt4 Y2 2.985100 1_566
Pt4 Y0 2.985100 1_555
Pt4 Y1 2.985100 1_565
Pt5 Y3 2.985100 1_556
Pt5 Y0 2.985100 1_555
Pt5 Y2 2.985100 1_566
Pt5 Y1 2.985100 1_555
