# generated using pymatgen
data_Al11Re3Ru
_symmetry_space_group_name_H-M   'P 1'
_cell_length_a   5.15213708
_cell_length_b   5.11881265
_cell_length_c   8.95288437
_cell_angle_alpha   104.90818781
_cell_angle_beta   90.66372052
_cell_angle_gamma   99.90670156
_symmetry_Int_Tables_number   1
_chemical_formula_structural   Al11Re3Ru
_chemical_formula_sum   'Al11 Re3 Ru1'
_cell_volume   224.37589200
_cell_formula_units_Z   1
loop_
 _symmetry_equiv_pos_site_id
 _symmetry_equiv_pos_as_xyz
  1  'x, y, z'
loop_
 _atom_site_type_symbol
 _atom_site_label
 _atom_site_symmetry_multiplicity
 _atom_site_fract_x
 _atom_site_fract_y
 _atom_site_fract_z
 _atom_site_occupancy
  Al  Al0  1  0.79611481  0.25584699  0.63660019  1
  Al  Al1  1  0.20379717  0.74873456  0.36268489  1
  Al  Al2  1  0.14780806  0.46659031  0.87197130  1
  Al  Al3  1  0.85385337  0.53258652  0.12936748  1
  Al  Al4  1  0.99847816  0.99880908  0.00154437  1
  Al  Al5  1  0.49846899  0.09565397  0.87422474  1
  Al  Al6  1  0.50199620  0.90103223  0.12710809  1
  Al  Al7  1  0.56359868  0.31659494  0.37652169  1
  Al  Al8  1  0.43739468  0.67902783  0.62166954  1
  Al  Al9  1  0.94554288  0.79974948  0.66521399  1
  Al  Al10  1  0.05181712  0.20776629  0.33315312  1
  Re  Re0  1  0.72406269  0.84674522  0.40027606  1
  Re  Re1  1  0.66248808  0.60786495  0.86504148  1
  Re  Re2  1  0.33828128  0.38652740  0.13260791  1
  Ru  Ru0  1  0.27629584  0.15646924  0.60201516  1
loop_
_geom_bond_atom_site_label_1
_geom_bond_atom_site_label_2
_geom_bond_distance
_geom_bond_site_symmetry_2
Al0 Re0 2.536572 1_545
Al0 Re1 2.543029 1_555
Al0 Ru0 2.616267 1_655
Al0 Ru0 2.637849 1_555
Al0 Al7 2.718380 1_555
Al1 Ru0 2.549289 1_565
Al1 Re2 2.582762 1_555
Al1 Re0 2.614026 1_455
Al1 Re0 2.641861 1_555
Al1 Al6 2.815207 1_555
Al2 Re1 2.631616 1_555
Al2 Re2 2.674580 1_556
Al2 Ru0 2.687767 1_555
Al2 Re1 2.724089 1_455
Al2 Al6 3.063721 1_556
Al3 Re2 2.635400 1_555
Al3 Re1 2.695675 1_554
Al3 Re0 2.704909 1_555
Al3 Re2 2.727744 1_655
Al3 Al6 2.835302 1_555
Al4 Re2 2.437069 1_665
Al4 Re1 2.448556 1_554
Al4 Al6 2.823634 1_555
Al4 Al6 2.985428 1_655
Al5 Re2 2.635166 1_556
Al5 Re1 2.635420 1_555
Al5 Al6 2.698980 1_546
Al5 Re1 2.752706 1_545
Al5 Ru0 2.791914 1_555
Al6 Al7 2.630408 1_565
Al6 Re2 2.636918 1_555
Al6 Re1 2.664746 1_554
Al6 Re2 2.747576 1_565
Al6 Re0 2.785972 1_555
Al7 Re2 2.594402 1_555
Al7 Re0 2.649546 1_555
Al7 Al8 2.652307 1_555
Al7 Ru0 2.727949 1_555
Al7 Re0 2.730635 1_545
Al8 Re1 2.592365 1_555
Al8 Ru0 2.620181 1_555
Al8 Re0 2.711881 1_555
Al8 Ru0 2.758359 1_565
Al9 Ru0 2.457951 1_665
Al9 Re1 2.600746 1_555
Al9 Re0 2.703980 1_555
Al10 Re0 2.479696 1_445
Al10 Re2 2.584824 1_555
Al10 Al7 2.602537 1_555
Al10 Al7 2.679860 1_455
Al10 Ru0 2.750608 1_555
