# generated using pymatgen
data_LiTi6Si6Tc5
_symmetry_space_group_name_H-M   'P 1'
_cell_length_a   7.49191484
_cell_length_b   7.49202893
_cell_length_c   7.49202910
_cell_angle_alpha   126.14372808
_cell_angle_beta   128.98349075
_cell_angle_gamma   77.35538927
_symmetry_Int_Tables_number   1
_chemical_formula_structural   LiTi6Si6Tc5
_chemical_formula_sum   'Li1 Ti6 Si6 Tc5'
_cell_volume   256.10192399
_cell_formula_units_Z   1
loop_
 _symmetry_equiv_pos_site_id
 _symmetry_equiv_pos_as_xyz
  1  'x, y, z'
loop_
 _atom_site_type_symbol
 _atom_site_label
 _atom_site_symmetry_multiplicity
 _atom_site_fract_x
 _atom_site_fract_y
 _atom_site_fract_z
 _atom_site_occupancy
  Li  Li0  1  0.50000000  0.26916905  0.76916905  1
  Ti  Ti0  1  0.45316310  0.40450132  0.45306925  1
  Ti  Ti1  1  0.54683690  0.99990715  0.95133821  1
  Ti  Ti2  1  0.04854474  0.99989294  0.45318436  1
  Ti  Ti3  1  0.95145526  0.40463862  0.95134821  1
  Ti  Ti4  1  0.24890656  0.60803662  0.85692956  1
  Ti  Ti5  1  0.75109344  0.60802400  0.35912906  1
  Si  Si0  1  0.16403712  0.66221153  0.49824840  1
  Si  Si1  1  0.83596288  0.33421229  0.49817542  1
  Si  Si2  1  0.66830635  0.67314738  0.00479728  1
  Si  Si3  1  0.33169365  0.33649093  0.00484203  1
  Si  Si4  1  0.25350292  0.00865284  0.26216742  1
  Si  Si5  1  0.74649708  0.00866450  0.75515092  1
  Tc  Tc0  1  0.36833760  0.74244189  0.37416367  1
  Tc  Tc1  1  0.63166240  0.00582606  0.37410428  1
  Tc  Tc2  1  0.87086160  0.73839030  0.86753764  1
  Tc  Tc3  1  0.12913840  0.99667603  0.86752969  1
  Tc  Tc4  1  0.00000000  0.25911656  0.25911656  1
loop_
_geom_bond_atom_site_label_1
_geom_bond_atom_site_label_2
_geom_bond_distance
_geom_bond_site_symmetry_2
Li0 Si5 2.377999 1_555
Li0 Si4 2.377999 1_555
Li0 Si2 2.536568 1_556
Li0 Si3 2.536575 1_556
Li0 Ti5 2.812972 1_556
Li0 Ti4 2.812975 1_555
Li0 Ti1 2.896684 1_545
Li0 Ti0 2.896691 1_555
Li0 Ti3 2.897098 1_555
Li0 Ti2 2.897101 1_545
Si0 Tc4 2.512502 1_555
Si0 Tc0 2.533883 1_555
Si0 Tc3 2.539126 1_555
Si0 Ti4 2.610395 1_555
Si0 Ti5 2.610747 1_455
Si0 Ti0 2.618210 1_555
Si0 Ti3 2.618554 1_454
Si0 Ti2 2.635300 1_555
Si0 Ti1 2.635478 1_555
Si1 Tc4 2.512507 1_655
Si1 Tc1 2.533886 1_555
Si1 Tc2 2.539115 1_555
Si1 Ti5 2.610405 1_555
Si1 Ti4 2.610750 1_655
Si1 Ti1 2.618214 1_544
Si1 Ti2 2.618559 1_645
Si1 Ti3 2.635300 1_555
Si1 Ti0 2.635471 1_555
Si2 Tc1 2.542500 1_565
Si2 Tc2 2.545684 1_554
Si2 Ti1 2.589287 1_554
Si2 Ti2 2.589328 1_655
Si2 Ti3 2.637699 1_554
Si2 Ti0 2.637938 1_554
Si2 Ti4 2.644236 1_554
Si2 Ti5 2.644570 1_555
Si3 Tc0 2.542498 1_555
Si3 Tc3 2.545684 1_544
Si3 Ti0 2.589273 1_555
Si3 Ti3 2.589324 1_454
Si3 Ti2 2.637699 1_544
Si3 Ti1 2.637932 1_544
Si3 Ti5 2.644242 1_555
Si3 Ti4 2.644588 1_554
Si4 Tc4 2.358908 1_555
Si4 Tc1 2.394930 1_555
Si4 Tc0 2.395143 1_545
Si4 Tc2 2.423774 1_444
Si4 Tc3 2.423937 1_544
Si4 Ti0 2.706541 1_555
Si4 Ti2 2.707400 1_545
Si4 Ti4 2.718778 1_544
Si5 Tc4 2.358904 1_656
Si5 Tc0 2.394929 1_545
Si5 Tc1 2.395150 1_555
Si5 Tc3 2.423774 1_645
Si5 Tc2 2.423940 1_545
Si5 Ti1 2.706531 1_545
Si5 Ti3 2.707396 1_555
Si5 Ti5 2.718781 1_545
Tc0 Ti3 2.783842 1_454
Tc0 Ti0 2.784265 1_555
Tc0 Ti1 2.867413 1_555
Tc0 Ti2 2.868002 1_555
Tc0 Ti5 2.873695 1_555
Tc0 Ti4 2.874034 1_554
Tc1 Ti2 2.783838 1_645
Tc1 Ti1 2.784270 1_544
Tc1 Ti0 2.867414 1_555
Tc1 Ti3 2.868000 1_555
Tc1 Ti4 2.873693 1_544
Tc1 Ti5 2.874024 1_545
Tc2 Ti3 2.779446 1_555
Tc2 Ti0 2.780416 1_555
Tc2 Ti5 2.821799 1_555
Tc2 Ti4 2.821803 1_655
Tc2 Ti1 2.917240 1_555
Tc2 Ti2 2.918006 1_656
Tc3 Ti2 2.779446 1_555
Tc3 Ti1 2.780421 1_555
Tc3 Ti4 2.821786 1_555
Tc3 Ti5 2.821801 1_455
Tc3 Ti0 2.917235 1_566
Tc3 Ti3 2.918000 1_465
Tc4 Ti4 2.861012 1_555
Tc4 Ti5 2.861015 1_455
Tc4 Ti1 2.892948 1_444
Tc4 Ti0 2.892952 1_555
Tc4 Ti3 2.893863 1_454
Tc4 Ti2 2.893870 1_545
