# generated using pymatgen
data_LiSbSe2
_symmetry_space_group_name_H-M   'P 1'
_cell_length_a   6.99674506
_cell_length_b   6.99674506
_cell_length_c   6.99674506
_cell_angle_alpha   132.36459517
_cell_angle_beta   132.36459517
_cell_angle_gamma   69.65379445
_symmetry_Int_Tables_number   1
_chemical_formula_structural   LiSbSe2
_chemical_formula_sum   'Li2 Sb2 Se4'
_cell_volume   183.40925109
_cell_formula_units_Z   2
loop_
 _symmetry_equiv_pos_site_id
 _symmetry_equiv_pos_as_xyz
  1  'x, y, z'
loop_
 _atom_site_type_symbol
 _atom_site_label
 _atom_site_symmetry_multiplicity
 _atom_site_fract_x
 _atom_site_fract_y
 _atom_site_fract_z
 _atom_site_occupancy
  Li  Li0  1  0.25000000  0.75000000  0.50000000  1
  Li  Li1  1  0.50000000  0.50000000  0.00000000  1
  Sb  Sb0  1  0.00000000  0.00000000  0.00000000  1
  Sb  Sb1  1  0.75000000  0.25000000  0.50000000  1
  Se  Se0  1  0.50088256  0.00088256  0.50000000  1
  Se  Se1  1  0.99911744  0.49911744  0.50000000  1
  Se  Se2  1  0.75088256  0.75088256  -0.00000000  1
  Se  Se3  1  0.24911744  0.24911744  -0.00000000  1
loop_
_geom_bond_atom_site_label_1
_geom_bond_atom_site_label_2
_geom_bond_distance
_geom_bond_site_symmetry_2
Li0 Se2 2.825500 1_556
Li0 Se2 2.825500 1_455
Li0 Se3 2.825500 1_566
Li0 Se3 2.825500 1_555
Li0 Se0 2.881886 1_565
Li0 Se1 2.881886 1_455
Li1 Se0 2.825500 1_565
Li1 Se0 2.825500 1_554
Li1 Se1 2.825500 1_555
Li1 Se1 2.825500 1_454
Li1 Se3 2.881886 1_555
Li1 Se2 2.881886 1_555
Sb0 Se0 2.825500 1_454
Sb0 Se1 2.825500 1_444
Sb0 Se1 2.825500 1_455
Sb0 Se0 2.825500 1_555
Sb0 Se2 2.861610 1_445
Sb0 Se3 2.861610 1_555
Sb1 Se2 2.825500 1_556
Sb1 Se2 2.825500 1_545
Sb1 Se3 2.825500 1_656
Sb1 Se3 2.825500 1_555
Sb1 Se0 2.861610 1_555
Sb1 Se1 2.861610 1_555
