# generated using pymatgen
data_K3Sr3ScSb4
_symmetry_space_group_name_H-M   'P 1'
_cell_length_a   11.00670328
_cell_length_b   11.00670307
_cell_length_c   8.16884454
_cell_angle_alpha   90.00000000
_cell_angle_beta   90.00000000
_cell_angle_gamma   120.00000357
_symmetry_Int_Tables_number   1
_chemical_formula_structural   K3Sr3ScSb4
_chemical_formula_sum   'K6 Sr6 Sc2 Sb8'
_cell_volume   857.04920495
_cell_formula_units_Z   2
loop_
 _symmetry_equiv_pos_site_id
 _symmetry_equiv_pos_as_xyz
  1  'x, y, z'
loop_
 _atom_site_type_symbol
 _atom_site_label
 _atom_site_symmetry_multiplicity
 _atom_site_fract_x
 _atom_site_fract_y
 _atom_site_fract_z
 _atom_site_occupancy
  K  K0  1  0.86248351  0.13751649  0.55199095  1
  K  K1  1  0.27503198  0.13751649  0.55199095  1
  K  K2  1  0.86248351  0.72496802  0.55199095  1
  K  K3  1  0.13751649  0.86248351  0.05199095  1
  K  K4  1  0.72496802  0.86248351  0.05199095  1
  K  K5  1  0.13751649  0.27503198  0.05199095  1
  Sr  Sr0  1  0.47163413  0.52836587  0.73110245  1
  Sr  Sr1  1  0.05673173  0.52836587  0.73110245  1
  Sr  Sr2  1  0.47163413  0.94326827  0.73110245  1
  Sr  Sr3  1  0.52836587  0.47163413  0.23110245  1
  Sr  Sr4  1  0.94326827  0.47163413  0.23110245  1
  Sr  Sr5  1  0.52836587  0.05673173  0.23110245  1
  Sc  Sc0  1  0.66666700  0.33333300  0.84729219  1
  Sc  Sc1  1  0.33333300  0.66666700  0.34729219  1
  Sb  Sb0  1  0.80527899  0.19472101  0.96401853  1
  Sb  Sb1  1  0.38944401  0.19472101  0.96401853  1
  Sb  Sb2  1  0.80527899  0.61055599  0.96401853  1
  Sb  Sb3  1  0.19472101  0.80527899  0.46401853  1
  Sb  Sb4  1  0.61055599  0.80527899  0.46401853  1
  Sb  Sb5  1  0.19472101  0.38944401  0.46401853  1
  Sb  Sb6  1  0.66666700  0.33333300  0.49673902  1
  Sb  Sb7  1  0.33333300  0.66666700  0.99673902  1
loop_
_geom_bond_atom_site_label_1
_geom_bond_atom_site_label_2
_geom_bond_distance
_geom_bond_site_symmetry_2
K0 Sb4 3.381984 1_545
K0 Sb5 3.381984 1_655
K0 Sb0 3.538057 1_555
K0 Sb6 3.760265 1_555
K1 Sb3 3.381981 1_545
K1 Sb5 3.381992 1_555
K1 Sb1 3.538066 1_555
K1 Sb6 3.760284 1_555
K2 Sb3 3.381981 1_655
K2 Sb4 3.381992 1_555
K2 Sb2 3.538066 1_555
K2 Sb6 3.760283 1_555
K3 Sb1 3.381984 1_564
K3 Sb2 3.381984 1_454
K3 Sb3 3.538057 1_555
K3 Sb7 3.760265 1_554
K4 Sb0 3.381981 1_564
K4 Sb2 3.381992 1_554
K4 Sb4 3.538066 1_555
K4 Sb7 3.760284 1_554
K5 Sb0 3.381981 1_454
K5 Sb1 3.381992 1_554
K5 Sb5 3.538066 1_555
K5 Sb7 3.760283 1_554
Sb0 Sc0 2.809293 1_555
Sb0 Sr4 3.424530 1_556
Sb0 Sr5 3.424530 1_556
Sb0 Sr1 3.821295 1_655
Sb0 Sr2 3.821295 1_545
Sb1 Sc0 2.809283 1_555
Sb1 Sr5 3.424516 1_556
Sb1 Sr3 3.424530 1_556
Sb1 Sr2 3.821282 1_545
Sb1 Sr0 3.821300 1_555
Sb2 Sc0 2.809283 1_555
Sb2 Sr4 3.424516 1_556
Sb2 Sr3 3.424530 1_556
Sb2 Sr1 3.821282 1_655
Sb2 Sr0 3.821300 1_555
Sb3 Sc1 2.809293 1_555
Sb3 Sr1 3.424530 1_555
Sb3 Sr2 3.424530 1_555
Sb3 Sr4 3.821295 1_455
Sb3 Sr5 3.821295 1_565
Sb4 Sc1 2.809283 1_555
Sb4 Sr2 3.424516 1_555
Sb4 Sr0 3.424530 1_555
Sb4 Sr5 3.821282 1_565
Sb4 Sr3 3.821300 1_555
Sb5 Sc1 2.809283 1_555
Sb5 Sr1 3.424516 1_555
Sb5 Sr0 3.424530 1_555
Sb5 Sr4 3.821282 1_455
Sb5 Sr3 3.821300 1_555
Sb6 Sc0 2.863614 1_555
Sb6 Sr5 3.414710 1_555
Sb6 Sr4 3.414710 1_555
Sb6 Sr3 3.414718 1_555
Sb7 Sc1 2.863614 1_556
Sb7 Sr2 3.414710 1_555
Sb7 Sr1 3.414710 1_555
Sb7 Sr0 3.414718 1_555
