# generated using pymatgen
data_Sc4Ni(AsRu)6
_symmetry_space_group_name_H-M   'P 1'
_cell_length_a   6.99518004
_cell_length_b   6.99517948
_cell_length_c   6.99518043
_cell_angle_alpha   109.22920218
_cell_angle_beta   109.95636473
_cell_angle_gamma   109.22918615
_symmetry_Int_Tables_number   1
_chemical_formula_structural   Sc4Ni(AsRu)6
_chemical_formula_sum   'Sc4 Ni1 As6 Ru6'
_cell_volume   263.48228232
_cell_formula_units_Z   1
loop_
 _symmetry_equiv_pos_site_id
 _symmetry_equiv_pos_as_xyz
  1  'x, y, z'
loop_
 _atom_site_type_symbol
 _atom_site_label
 _atom_site_symmetry_multiplicity
 _atom_site_fract_x
 _atom_site_fract_y
 _atom_site_fract_z
 _atom_site_occupancy
  Sc  Sc0  1  0.00199107  0.00398214  0.50199107  1
  Sc  Sc1  1  0.49800893  0.99601786  0.99800893  1
  Sc  Sc2  1  0.00199107  0.50000000  0.99800893  1
  Sc  Sc3  1  0.49800993  0.50000000  0.50199007  1
  Ni  Ni0  1  0.75000000  0.50000000  0.25000000  1
  As  As0  1  0.31311124  0.00000100  0.31311224  1
  As  As1  1  0.99650044  0.31529928  0.31179772  1
  As  As2  1  0.99649744  0.68470072  0.68120016  1
  As  As3  1  0.31879984  0.31529928  0.00350256  1
  As  As4  1  0.68820228  0.68470072  0.00349956  1
  As  As5  1  0.68688776  0.99999900  0.68688876  1
  Ru  Ru0  1  0.50146304  0.74924222  0.25070726  1
  Ru  Ru1  1  0.50146404  0.25075778  0.75222082  1
  Ru  Ru2  1  0.74929274  0.25075778  0.49853696  1
  Ru  Ru3  1  0.24777918  0.74924222  0.49853596  1
  Ru  Ru4  1  0.25000000  0.50000000  0.75000000  1
  Ru  Ru5  1  0.00000000  0.00000000  0.00000000  1
loop_
_geom_bond_atom_site_label_1
_geom_bond_atom_site_label_2
_geom_bond_distance
_geom_bond_site_symmetry_2
Ni0 Ru0 2.838872 1_555
Ni0 Ru1 2.838873 1_554
Ni0 Ru2 2.838873 1_555
Ni0 Ru3 2.838873 1_655
Ni0 Sc3 2.887095 1_555
Ni0 Sc0 2.887106 1_665
Ni0 Sc1 2.887106 1_544
Ni0 Sc2 2.887106 1_654
As0 Ru5 2.513940 1_555
As0 Ru2 2.518603 1_555
As0 Ru3 2.518609 1_545
As0 Ru1 2.532565 1_555
As0 Ru0 2.532577 1_545
As0 Sc3 2.908853 1_555
As0 Sc0 2.908853 1_555
As0 Sc2 2.908864 1_544
As0 Sc1 2.908865 1_544
As1 Ni0 2.481125 1_555
As1 Ru3 2.513278 1_655
As1 Ru2 2.513301 1_555
As1 Ru4 2.526191 1_655
As1 Ru5 2.554527 1_655
As1 Sc2 2.895126 1_654
As1 Sc1 2.895137 1_544
As1 Sc3 2.905622 1_655
As1 Sc0 2.905626 1_655
As2 Ni0 2.481119 1_555
As2 Ru2 2.513279 1_555
As2 Ru3 2.513296 1_655
As2 Ru4 2.526197 1_655
As2 Ru5 2.554527 1_666
As2 Sc3 2.895113 1_555
As2 Sc0 2.895132 1_665
As2 Sc2 2.905621 1_655
As2 Sc1 2.905632 1_655
As3 Ni0 2.481119 1_555
As3 Ru0 2.513278 1_555
As3 Ru1 2.513296 1_554
As3 Ru4 2.526198 1_554
As3 Ru5 2.554527 1_555
As3 Sc3 2.895113 1_555
As3 Sc1 2.895131 1_544
As3 Sc2 2.905620 1_554
As3 Sc0 2.905632 1_554
As4 Ni0 2.481126 1_555
As4 Ru1 2.513278 1_554
As4 Ru0 2.513301 1_555
As4 Ru4 2.526191 1_554
As4 Ru5 2.554527 1_665
As4 Sc2 2.895126 1_654
As4 Sc0 2.895137 1_665
As4 Sc3 2.905622 1_554
As4 Sc1 2.905626 1_554
As5 Ru5 2.513940 1_666
As5 Ru0 2.518603 1_555
As5 Ru1 2.518608 1_565
As5 Ru3 2.532565 1_555
As5 Ru2 2.532577 1_565
As5 Sc3 2.908853 1_555
As5 Sc1 2.908853 1_555
As5 Sc2 2.908864 1_665
As5 Sc0 2.908864 1_665
Ru0 Sc2 2.848396 1_554
Ru0 Sc1 2.848408 1_554
Ru0 Sc3 2.854825 1_555
Ru0 Sc0 2.854843 1_665
Ru0 Ru4 2.855447 1_554
Ru0 Ru3 2.873055 1_555
Ru0 Ru2 2.873072 1_565
Ru1 Sc3 2.848402 1_555
Ru1 Sc0 2.848402 1_555
Ru1 Sc2 2.854837 1_655
Ru1 Sc1 2.854842 1_545
Ru1 Ru4 2.855441 1_555
Ru1 Ru2 2.873055 1_555
Ru1 Ru3 2.873072 1_545
Ru2 Sc2 2.848396 1_655
Ru2 Sc0 2.848407 1_655
Ru2 Sc3 2.854825 1_555
Ru2 Sc1 2.854842 1_544
Ru2 Ru4 2.855447 1_655
Ru3 Sc3 2.848401 1_555
Ru3 Sc1 2.848402 1_555
Ru3 Sc2 2.854837 1_554
Ru3 Sc0 2.854842 1_565
Ru3 Ru4 2.855441 1_555
Ru4 Sc0 2.841482 1_555
Ru4 Sc1 2.841482 1_555
Ru4 Sc2 2.841482 1_555
Ru4 Sc3 2.841493 1_555
