# generated using pymatgen
data_TaB3Rh
_symmetry_space_group_name_H-M   'P 1'
_cell_length_a   9.29577368
_cell_length_b   9.29577396
_cell_length_c   3.12258649
_cell_angle_alpha   90.00000000
_cell_angle_beta   90.00000000
_cell_angle_gamma   159.64203041
_symmetry_Int_Tables_number   1
_chemical_formula_structural   TaB3Rh
_chemical_formula_sum   'Ta2 B6 Rh2'
_cell_volume   93.86863812
_cell_formula_units_Z   2
loop_
 _symmetry_equiv_pos_site_id
 _symmetry_equiv_pos_as_xyz
  1  'x, y, z'
loop_
 _atom_site_type_symbol
 _atom_site_label
 _atom_site_symmetry_multiplicity
 _atom_site_fract_x
 _atom_site_fract_y
 _atom_site_fract_z
 _atom_site_occupancy
  Ta  Ta0  1  0.92688104  0.07311596  0.25000100  1
  Ta  Ta1  1  0.07311596  0.92688104  0.74999900  1
  B  B0  1  0.62357450  0.37642250  0.25000100  1
  B  B1  1  0.52469278  0.47530422  0.25000100  1
  B  B2  1  0.32343828  0.67655872  0.25000100  1
  B  B3  1  0.67655872  0.32343828  0.74999900  1
  B  B4  1  0.47530422  0.52469278  0.74999900  1
  B  B5  1  0.37642250  0.62357450  0.74999900  1
  Rh  Rh0  1  0.20324589  0.79675111  0.25000100  1
  Rh  Rh1  1  0.79675111  0.20324589  0.74999900  1
loop_
_geom_bond_atom_site_label_1
_geom_bond_atom_site_label_2
_geom_bond_distance
_geom_bond_site_symmetry_2
B0 B1 1.809429 1_555
B0 B3 1.837839 1_555
B0 B3 1.837850 1_554
B0 Rh0 2.196409 1_655
B0 Rh0 2.196409 1_545
B0 Ta1 2.447224 1_545
B0 Ta1 2.447225 1_655
B0 Ta1 2.447232 1_544
B0 Ta1 2.447232 1_654
B1 B4 1.803994 1_555
B1 B4 1.804005 1_554
B1 Ta0 2.429465 1_455
B1 Ta0 2.429465 1_565
B1 Ta1 2.433416 1_655
B1 Ta1 2.433416 1_545
B1 Ta1 2.433424 1_654
B1 Ta1 2.433424 1_544
B2 B5 1.837839 1_555
B2 B5 1.837850 1_554
B2 Rh0 2.199392 1_555
B2 Rh1 2.318370 1_455
B2 Rh1 2.318370 1_565
B2 Rh1 2.318378 1_454
B2 Rh1 2.318378 1_564
B2 Ta0 2.506347 1_565
B2 Ta0 2.506347 1_455
B3 Rh1 2.199392 1_555
B3 Rh0 2.318370 1_655
B3 Rh0 2.318370 1_545
B3 Rh0 2.318378 1_656
B3 Rh0 2.318378 1_546
B3 Ta1 2.506347 1_545
B3 Ta1 2.506347 1_655
B4 B5 1.809429 1_555
B4 Ta1 2.429465 1_655
B4 Ta1 2.429465 1_545
B4 Ta0 2.433416 1_455
B4 Ta0 2.433416 1_565
B4 Ta0 2.433424 1_456
B4 Ta0 2.433424 1_566
B5 Rh1 2.196409 1_455
B5 Rh1 2.196409 1_565
B5 Ta0 2.447224 1_565
B5 Ta0 2.447225 1_455
B5 Ta0 2.447232 1_566
B5 Ta0 2.447232 1_456
