# generated using pymatgen
data_CrCd3P6N13
_symmetry_space_group_name_H-M   'P 1'
_cell_length_a   7.09530304
_cell_length_b   7.15371283
_cell_length_c   7.15371360
_cell_angle_alpha   109.63603285
_cell_angle_beta   109.30590300
_cell_angle_gamma   109.30591053
_symmetry_Int_Tables_number   1
_chemical_formula_structural   CrCd3P6N13
_chemical_formula_sum   'Cr1 Cd3 P6 N13'
_cell_volume   280.08771553
_cell_formula_units_Z   1
loop_
 _symmetry_equiv_pos_site_id
 _symmetry_equiv_pos_as_xyz
  1  'x, y, z'
loop_
 _atom_site_type_symbol
 _atom_site_label
 _atom_site_symmetry_multiplicity
 _atom_site_fract_x
 _atom_site_fract_y
 _atom_site_fract_z
 _atom_site_occupancy
  Cr  Cr0  1  0.67777377  1.00000000  1.00000000  1
  Cd  Cd0  1  0.00061930  1.00000000  0.71714695  1
  Cd  Cd1  1  0.00061930  0.71714695  1.00000000  1
  Cd  Cd2  1  0.28347335  0.28285305  0.28285305  1
  P  P0  1  0.25572316  0.74933263  0.50251507  1
  P  P1  1  0.75320809  0.24681755  0.49748493  1
  P  P2  1  0.75320809  0.49748493  0.24681755  1
  P  P3  1  0.25572316  0.50251507  0.74933263  1
  P  P4  1  0.50639053  0.75318245  0.25066737  1
  P  P5  1  0.50639053  0.25066737  0.75318245  1
  N  N0  1  0.94430509  0.00000000  0.00000000  1
  N  N1  1  0.71117541  0.26426060  0.26426060  1
  N  N2  1  0.28386284  0.72542075  0.28122266  1
  N  N3  1  0.29922307  0.56499741  0.56499741  1
  N  N4  1  0.55844209  0.55580192  0.27457925  1
  N  N5  1  0.44691481  0.73573940  1.00000000  1
  N  N6  1  0.00263917  0.71877734  0.44419808  1
  N  N7  1  0.55844209  0.27457925  0.55580192  1
  N  N8  1  0.73422566  1.00000000  0.43500259  1
  N  N9  1  0.44691481  1.00000000  0.73573940  1
  N  N10  1  0.73422566  0.43500259  1.00000000  1
  N  N11  1  0.28386284  0.28122266  0.72542075  1
  N  N12  1  0.00263917  0.44419808  0.71877734  1
loop_
_geom_bond_atom_site_label_1
_geom_bond_atom_site_label_2
_geom_bond_distance
_geom_bond_site_symmetry_2
Cr0 N0 1.891120 1_566
Cr0 N5 2.051668 1_555
Cr0 N1 2.051668 1_566
Cr0 N9 2.051669 1_555
Cd0 N0 2.188288 1_466
Cd0 N8 2.263607 1_455
Cd0 N6 2.292944 1_555
Cd0 N11 2.292948 1_565
Cd1 N0 2.188287 1_466
Cd1 N10 2.263606 1_455
Cd1 N12 2.292944 1_555
Cd1 N2 2.292949 1_556
Cd2 N0 2.188291 1_455
Cd2 N3 2.263610 1_555
Cd2 N4 2.292944 1_555
Cd2 N7 2.292945 1_555
N1 P2 1.650350 1_555
N1 P1 1.650351 1_555
N2 P0 1.620121 1_555
N2 P4 1.621786 1_555
N3 P0 1.614936 1_555
N3 P3 1.614936 1_555
N4 P4 1.620121 1_555
N4 P2 1.621786 1_555
N5 P3 1.650350 1_555
N5 P4 1.650351 1_556
N6 P2 1.620117 1_455
N6 P0 1.621793 1_555
N7 P5 1.620121 1_555
N7 P1 1.621786 1_555
N8 P4 1.614936 1_555
N8 P1 1.614936 1_565
N9 P0 1.650350 1_555
N9 P5 1.650350 1_565
N10 P5 1.614936 1_555
N10 P2 1.614936 1_556
N11 P3 1.620121 1_555
N11 P5 1.621786 1_555
N12 P1 1.620117 1_455
N12 P3 1.621793 1_555
