# generated using pymatgen
data_Ce2S3
_symmetry_space_group_name_H-M   'P 1'
_cell_length_a   22.14108384
_cell_length_b   8.52744509
_cell_length_c   8.52744549
_cell_angle_alpha   90.00000598
_cell_angle_beta   54.71023198
_cell_angle_gamma   54.71023008
_symmetry_Int_Tables_number   1
_chemical_formula_structural   Ce2S3
_chemical_formula_sum   'Ce16 S24'
_cell_volume   928.39161532
_cell_formula_units_Z   8
loop_
 _symmetry_equiv_pos_site_id
 _symmetry_equiv_pos_as_xyz
  1  'x, y, z'
loop_
 _atom_site_type_symbol
 _atom_site_label
 _atom_site_symmetry_multiplicity
 _atom_site_fract_x
 _atom_site_fract_y
 _atom_site_fract_z
 _atom_site_occupancy
  Ce  Ce0  1  0.99518410  0.39465540  0.25111462  1
  Ce  Ce1  1  0.08560475  0.62159237  0.37159237  1
  Ce  Ce2  1  0.16666700  0.25000000  0.63034428  1
  Ce  Ce3  1  0.24772825  0.87840763  0.12840763  1
  Ce  Ce4  1  0.33814890  0.38020769  0.24888538  1
  Ce  Ce5  1  0.33814890  0.10534460  0.73666691  1
  Ce  Ce6  1  0.16666700  0.75000000  0.86965572  1
  Ce  Ce7  1  0.49518410  0.26333309  0.61979231  1
  Ce  Ce8  1  0.58560475  0.87159237  0.12159237  1
  Ce  Ce9  1  0.66666700  0.36965572  0.25000000  1
  Ce  Ce10  1  0.66666700  0.13034428  0.75000000  1
  Ce  Ce11  1  0.49518410  0.75111462  0.89465540  1
  Ce  Ce12  1  0.74772825  0.62840763  0.37840763  1
  Ce  Ce13  1  0.83814890  0.23666691  0.60534460  1
  Ce  Ce14  1  0.99518410  0.11979231  0.76333309  1
  Ce  Ce15  1  0.83814890  0.74888538  0.88020769  1
  S  S0  1  0.05051661  0.99954502  0.35082485  1
  S  S1  1  0.12533473  0.48784010  0.99274612  1
  S  S2  1  0.05051661  0.34890414  0.49762431  1
  S  S3  1  0.28281639  0.15109586  0.14917515  1
  S  S4  1  0.28281639  0.50045498  0.00237569  1
  S  S5  1  0.20799827  0.01215990  0.86875131  1
  S  S6  1  0.12533473  0.63615472  0.63124869  1
  S  S7  1  0.38428217  0.00497400  0.34441728  1
  S  S8  1  0.20799827  0.86384528  0.50725388  1
  S  S9  1  0.44905183  0.49726278  0.99502600  1
  S  S10  1  0.38428217  0.34218049  0.50273722  1
  S  S11  1  0.62533473  0.13124869  0.13615472  1
  S  S12  1  0.62533473  0.49274612  0.98784010  1
  S  S13  1  0.55051661  0.99762431  0.84890414  1
  S  S14  1  0.44905183  0.65558272  0.65781951  1
  S  S15  1  0.70799827  0.00725388  0.36384528  1
  S  S16  1  0.55051661  0.85082485  0.49954502  1
  S  S17  1  0.78281639  0.50237569  0.00045498  1
  S  S18  1  0.70799827  0.36875131  0.51215990  1
  S  S19  1  0.94905183  0.15781951  0.15558272  1
  S  S20  1  0.94905183  0.49502600  0.99726278  1
  S  S21  1  0.88428217  0.00273722  0.84218049  1
  S  S22  1  0.78281639  0.64917515  0.65109586  1
  S  S23  1  0.88428217  0.84441728  0.50497400  1
loop_
_geom_bond_atom_site_label_1
_geom_bond_atom_site_label_2
_geom_bond_distance
_geom_bond_site_symmetry_2
Ce0 S5 2.821929 1_654
Ce0 S20 2.829565 1_554
Ce0 S22 2.851598 1_555
Ce0 S23 2.898672 1_555
Ce0 S2 2.914667 1_655
Ce0 S1 3.016568 1_654
Ce0 S19 3.021695 1_555
Ce0 S0 3.163891 1_645
Ce1 S1 2.840534 1_554
Ce1 S6 2.840534 1_555
Ce1 S0 2.878953 1_555
Ce1 S2 2.878953 1_555
Ce1 S3 2.991660 1_555
Ce1 S4 2.991663 1_555
Ce1 S23 3.021469 1_455
Ce1 S21 3.021481 1_465
Ce2 S6 2.861961 1_555
Ce2 S8 2.861970 1_545
Ce2 S7 2.884459 1_555
Ce2 S20 2.884459 1_455
Ce2 S1 3.014809 1_555
Ce2 S5 3.014817 1_555
Ce2 S3 3.076132 1_555
Ce2 S2 3.076145 1_555
Ce3 S8 2.840534 1_555
Ce3 S5 2.840534 1_564
Ce3 S4 2.878952 1_555
Ce3 S3 2.878953 1_565
Ce3 S2 2.991658 1_565
Ce3 S0 2.991665 1_555
Ce3 S14 3.021485 1_554
Ce3 S9 3.021487 1_554
Ce4 S6 2.821929 1_555
Ce4 S10 2.829581 1_555
Ce4 S13 2.851598 1_544
Ce4 S9 2.898679 1_554
Ce4 S4 2.914668 1_555
Ce4 S8 3.016575 1_555
Ce4 S7 3.021700 1_555
Ce4 S3 3.163884 1_555
Ce5 S1 2.821929 1_555
Ce5 S7 2.829562 1_555
Ce5 S16 2.851598 1_545
Ce5 S14 2.898669 1_545
Ce5 S3 2.914675 1_556
Ce5 S5 3.016566 1_555
Ce5 S10 3.021707 1_555
Ce5 S4 3.163895 1_556
Ce6 S5 2.861960 1_565
Ce6 S1 2.861974 1_555
Ce6 S10 2.884459 1_555
Ce6 S19 2.884459 1_466
Ce6 S8 3.014820 1_555
Ce6 S6 3.014832 1_555
Ce6 S0 3.076127 1_556
Ce6 S4 3.076127 1_556
Ce7 S15 2.821929 1_555
Ce7 S14 2.829573 1_555
Ce7 S4 2.851598 1_556
Ce7 S10 2.898663 1_555
Ce7 S16 2.914676 1_545
Ce7 S11 3.016573 1_555
Ce7 S9 3.021706 1_555
Ce7 S13 3.163888 1_545
Ce8 S12 2.840534 1_554
Ce8 S11 2.840534 1_565
Ce8 S13 2.878953 1_554
Ce8 S16 2.878953 1_555
Ce8 S22 2.991660 1_554
Ce8 S17 2.991663 1_555
Ce8 S7 3.021469 1_565
Ce8 S10 3.021481 1_565
Ce9 S18 2.861960 1_555
Ce9 S12 2.861974 1_554
Ce9 S21 2.884459 1_554
Ce9 S14 2.884459 1_555
Ce9 S15 3.014820 1_555
Ce9 S11 3.014832 1_555
Ce9 S16 3.076126 1_555
Ce9 S17 3.076127 1_555
Ce10 S11 2.861961 1_556
Ce10 S15 2.861970 1_555
Ce10 S9 2.884459 1_555
Ce10 S23 2.884459 1_545
Ce10 S12 3.014809 1_555
Ce10 S18 3.014817 1_555
Ce10 S22 3.076132 1_545
Ce10 S13 3.076145 1_545
Ce11 S18 2.821929 1_555
Ce11 S9 2.829565 1_555
Ce11 S3 2.851598 1_566
Ce11 S7 2.898672 1_566
Ce11 S13 2.914667 1_555
Ce11 S12 3.016568 1_555
Ce11 S14 3.021695 1_555
Ce11 S16 3.163891 1_555
Ce12 S15 2.840534 1_565
Ce12 S18 2.840534 1_555
Ce12 S17 2.878953 1_555
Ce12 S22 2.878953 1_555
Ce12 S13 2.991658 1_555
Ce12 S16 2.991665 1_555
Ce12 S19 3.021485 1_555
Ce12 S20 3.021487 1_554
Ce13 S12 2.821929 1_555
Ce13 S23 2.829562 1_545
Ce13 S0 2.851598 1_645
Ce13 S19 2.898669 1_555
Ce13 S22 2.914675 1_555
Ce13 S18 3.016566 1_555
Ce13 S21 3.021707 1_555
Ce13 S17 3.163895 1_556
Ce14 S8 2.821929 1_645
Ce14 S19 2.829573 1_556
Ce14 S17 2.851598 1_556
Ce14 S21 2.898663 1_555
Ce14 S0 2.914676 1_645
Ce14 S6 3.016573 1_645
Ce14 S20 3.021706 1_555
Ce14 S2 3.163888 1_655
Ce15 S11 2.821929 1_566
Ce15 S21 2.829581 1_565
Ce15 S2 2.851598 1_655
Ce15 S20 2.898678 1_555
Ce15 S17 2.914668 1_556
Ce15 S15 3.016575 1_566
Ce15 S23 3.021700 1_555
Ce15 S22 3.163884 1_555
