# generated using pymatgen
data_Y2Si4Ir5Rh
_symmetry_space_group_name_H-M   'P 1'
_cell_length_a   6.61411856
_cell_length_b   6.61411799
_cell_length_c   6.61013730
_cell_angle_alpha   130.25221522
_cell_angle_beta   114.40210623
_cell_angle_gamma   86.63747204
_symmetry_Int_Tables_number   1
_chemical_formula_structural   Y2Si4Ir5Rh
_chemical_formula_sum   'Y2 Si4 Ir5 Rh1'
_cell_volume   191.74391861
_cell_formula_units_Z   1
loop_
 _symmetry_equiv_pos_site_id
 _symmetry_equiv_pos_as_xyz
  1  'x, y, z'
loop_
 _atom_site_type_symbol
 _atom_site_label
 _atom_site_symmetry_multiplicity
 _atom_site_fract_x
 _atom_site_fract_y
 _atom_site_fract_z
 _atom_site_occupancy
  Y  Y0  1  0.24942186  0.53750019  0.28692205  1
  Y  Y1  1  0.75057814  0.46249981  0.71307795  1
  Si  Si0  1  0.07972338  0.88288200  0.80421258  1
  Si  Si1  1  0.92027662  0.11711800  0.19578742  1
  Si  Si2  1  0.57866942  0.77551080  0.19578742  1
  Si  Si3  1  0.42133058  0.22448920  0.80421258  1
  Ir  Ir0  1  0.71602399  0.99878400  0.71697484  1
  Ir  Ir1  1  0.21819184  0.50095084  0.71697484  1
  Ir  Ir2  1  0.28397601  0.00121600  0.28302516  1
  Ir  Ir3  1  0.78180816  0.49904916  0.28302516  1
  Ir  Ir4  1  0.00000000  0.00000000  0.50000000  1
  Rh  Rh0  1  0.50000000  0.00000000  0.00000000  1
loop_
_geom_bond_atom_site_label_1
_geom_bond_atom_site_label_2
_geom_bond_distance
_geom_bond_site_symmetry_2
Y0 Y1 3.597181 1_454
Y0 Y1 3.614731 1_555
Si0 Y0 3.153536 1_566
Si0 Y1 3.208590 1_455
Si0 Y0 3.308512 1_555
Si1 Y1 3.153536 1_544
Si1 Y0 3.208590 1_655
Si1 Y1 3.308512 1_555
Si2 Y1 3.153537 1_554
Si2 Y0 3.208590 1_555
Si2 Y1 3.308511 1_565
Si3 Y0 3.153537 1_556
Si3 Y1 3.208590 1_555
Si3 Y0 3.308511 1_545
Ir0 Si3 2.415602 1_565
Ir0 Si1 2.417595 1_566
Ir0 Si2 2.423126 1_555
Ir0 Si0 2.432207 1_655
Ir0 Y0 3.092122 1_555
Ir0 Y1 3.106286 1_565
Ir0 Y1 3.525072 1_555
Ir0 Y0 3.532774 1_666
Ir1 Si0 2.415605 1_555
Ir1 Si2 2.417591 1_556
Ir1 Si1 2.423127 1_455
Ir1 Si3 2.432204 1_555
Ir1 Y0 3.092120 1_555
Ir1 Y1 3.106293 1_455
Ir1 Y1 3.525065 1_555
Ir1 Y0 3.532778 1_556
Ir2 Si2 2.415602 1_545
Ir2 Si0 2.417595 1_544
Ir2 Si3 2.423126 1_555
Ir2 Si1 2.432207 1_455
Ir2 Y1 3.092122 1_555
Ir2 Y0 3.106286 1_545
Ir2 Y0 3.525072 1_555
Ir2 Y1 3.532774 1_444
Ir3 Si1 2.415605 1_555
Ir3 Si3 2.417591 1_554
Ir3 Si0 2.423127 1_655
Ir3 Si2 2.432204 1_555
Ir3 Y1 3.092120 1_555
Ir3 Y0 3.106293 1_655
Ir3 Y0 3.525065 1_555
Ir3 Y1 3.532778 1_554
Ir4 Si3 2.451681 1_555
Ir4 Si2 2.451681 1_445
Ir4 Si1 2.451681 1_455
Ir4 Si0 2.451681 1_545
Ir4 Y1 3.134153 1_455
Ir4 Y0 3.134153 1_545
Ir4 Y0 3.480977 1_556
Ir4 Y1 3.480977 1_444
Rh0 Si1 2.446737 1_555
Rh0 Si0 2.446737 1_544
Rh0 Si3 2.446738 1_554
Rh0 Si2 2.446738 1_545
Rh0 Y1 3.135001 1_555
Rh0 Y0 3.135001 1_544
Rh0 Y0 3.489294 1_555
Rh0 Y1 3.489294 1_544
