# generated using pymatgen
data_MnFe6Si16Ir
_symmetry_space_group_name_H-M   'P 1'
_cell_length_a   6.27800532
_cell_length_b   6.27800514
_cell_length_c   7.83007797
_cell_angle_alpha   89.77988490
_cell_angle_beta   89.77988419
_cell_angle_gamma   103.54282360
_symmetry_Int_Tables_number   1
_chemical_formula_structural   MnFe6Si16Ir
_chemical_formula_sum   'Mn1 Fe6 Si16 Ir1'
_cell_volume   300.02298128
_cell_formula_units_Z   1
loop_
 _symmetry_equiv_pos_site_id
 _symmetry_equiv_pos_as_xyz
  1  'x, y, z'
loop_
 _atom_site_type_symbol
 _atom_site_label
 _atom_site_symmetry_multiplicity
 _atom_site_fract_x
 _atom_site_fract_y
 _atom_site_fract_z
 _atom_site_occupancy
  Mn  Mn0  1  0.30776345  0.30776345  0.31203556  1
  Fe  Fe0  1  0.69373732  0.69373732  0.68620984  1
  Fe  Fe1  1  0.80787819  0.80787819  0.18760935  1
  Fe  Fe2  1  0.28259370  0.71588438  0.49975308  1
  Fe  Fe3  1  0.21691259  0.78337166  0.99933669  1
  Fe  Fe4  1  0.71588438  0.28259370  0.49975308  1
  Fe  Fe5  1  0.78337166  0.21691259  0.99933669  1
  Si  Si0  1  0.41911435  0.67173680  0.22752920  1
  Si  Si1  1  0.07594234  0.81536274  0.72360277  1
  Si  Si2  1  0.17111505  0.91883094  0.27233438  1
  Si  Si3  1  0.33408805  0.59241459  0.77223051  1
  Si  Si4  1  0.59241459  0.33408805  0.77223051  1
  Si  Si5  1  0.91883094  0.17111505  0.27233438  1
  Si  Si6  1  0.81536274  0.07594234  0.72360277  1
  Si  Si7  1  0.67173680  0.41911435  0.22752920  1
  Si  Si8  1  0.14370116  0.40891533  0.06093001  1
  Si  Si9  1  0.35625321  0.09464349  0.54171375  1
  Si  Si10  1  0.90065445  0.64505235  0.44803278  1
  Si  Si11  1  0.59854764  0.85505410  0.95342128  1
  Si  Si12  1  0.85505410  0.59854764  0.95342128  1
  Si  Si13  1  0.64505235  0.90065445  0.44803278  1
  Si  Si14  1  0.09464349  0.35625321  0.54171375  1
  Si  Si15  1  0.40891533  0.14370116  0.06093001  1
  Ir  Ir0  1  0.19043311  0.19043311  0.81637334  1
loop_
_geom_bond_atom_site_label_1
_geom_bond_atom_site_label_2
_geom_bond_distance
_geom_bond_site_symmetry_2
Mn0 Si9 2.300770 1_555
Mn0 Si14 2.300770 1_555
Mn0 Si0 2.320469 1_555
Mn0 Si7 2.320469 1_555
Mn0 Si15 2.375348 1_555
Mn0 Si8 2.375348 1_555
Mn0 Si2 2.412764 1_545
Mn0 Si5 2.412764 1_455
Fe0 Si4 2.295361 1_555
Fe0 Si3 2.295361 1_555
Fe0 Si13 2.330370 1_555
Fe0 Si10 2.330370 1_555
Fe0 Si6 2.361211 1_565
Fe0 Si1 2.361211 1_655
Fe0 Si11 2.459791 1_555
Fe0 Si12 2.459791 1_555
Fe1 Si12 2.318169 1_554
Fe1 Si11 2.318169 1_554
Fe1 Si5 2.323096 1_565
Fe1 Si2 2.323096 1_655
Fe1 Si7 2.408349 1_555
Fe1 Si0 2.408349 1_555
Fe1 Si13 2.411269 1_555
Fe1 Si10 2.411269 1_555
Fe2 Si14 2.311141 1_555
Fe2 Si3 2.316726 1_555
Fe2 Si13 2.332517 1_555
Fe2 Si0 2.335935 1_555
Fe2 Si9 2.338408 1_565
Fe2 Si1 2.348563 1_555
Fe2 Si10 2.370809 1_455
Fe2 Si2 2.386172 1_555
Fe3 Si12 2.326241 1_455
Fe3 Si8 2.335344 1_556
Fe3 Si2 2.344981 1_556
Fe3 Si15 2.353438 1_566
Fe3 Si11 2.357819 1_555
Fe3 Si3 2.357945 1_555
Fe3 Si1 2.362105 1_555
Fe3 Si0 2.391574 1_556
Fe4 Si9 2.311141 1_555
Fe4 Si4 2.316726 1_555
Fe4 Si10 2.332517 1_555
Fe4 Si7 2.335935 1_555
Fe4 Si14 2.338408 1_655
Fe4 Si6 2.348563 1_555
Fe4 Si13 2.370809 1_545
Fe4 Si5 2.386172 1_555
Fe5 Si11 2.326241 1_545
Fe5 Si15 2.335344 1_556
Fe5 Si5 2.344981 1_556
Fe5 Si8 2.353438 1_656
Fe5 Si12 2.357819 1_555
Fe5 Si4 2.357945 1_555
Fe5 Si6 2.362105 1_555
Fe5 Si7 2.391574 1_556
Si0 Si2 2.466715 1_555
Si0 Si8 2.472141 1_555
Si0 Si13 2.478211 1_555
Si0 Si7 2.491704 1_555
Si0 Si11 2.560327 1_554
Si1 Si3 2.406979 1_555
Si1 Si12 2.468192 1_455
Si1 Si10 2.548518 1_455
Si1 Si6 2.570188 1_465
Si1 Si9 2.591499 1_565
Si2 Si5 2.488367 1_465
Si2 Si9 2.540488 1_565
Si3 Si4 2.547966 1_555
Si3 Si8 2.679578 1_556
Si4 Si6 2.406979 1_555
Si4 Si9 2.591018 1_555
Si5 Si8 2.436764 1_655
Si5 Si7 2.466715 1_555
Si10 Si7 2.478211 1_555
Si10 Si2 2.515345 1_655
Si10 Si14 2.517800 1_655
Si10 Si13 2.521093 1_555
Si11 Si6 2.468192 1_565
Si11 Si3 2.498402 1_555
Si11 Si12 2.530013 1_555
Si11 Si15 2.534594 1_566
Si12 Si4 2.498402 1_555
Si12 Si8 2.534594 1_656
Si12 Si7 2.560327 1_556
Si13 Si5 2.515345 1_565
Si13 Si9 2.517800 1_565
Si13 Si6 2.548518 1_565
Si14 Si5 2.540488 1_455
Si14 Si9 2.580349 1_555
Si14 Si3 2.591018 1_555
Si14 Si6 2.591499 1_455
Si15 Si2 2.436764 1_545
Si15 Si7 2.472141 1_555
Si15 Si8 2.615901 1_555
Si15 Si4 2.679578 1_554
Ir0 Si1 2.411091 1_545
Ir0 Si6 2.411091 1_455
Ir0 Si8 2.416323 1_556
Ir0 Si15 2.416323 1_556
Ir0 Si3 2.495307 1_555
Ir0 Si4 2.495307 1_555
Ir0 Si9 2.521191 1_555
Ir0 Si14 2.521191 1_555
