# generated using pymatgen
data_TaPdAu3
_symmetry_space_group_name_H-M   'P 1'
_cell_length_a   5.05855808
_cell_length_b   5.05855885
_cell_length_c   4.98265074
_cell_angle_alpha   98.70469581
_cell_angle_beta   98.76715079
_cell_angle_gamma   134.49099061
_symmetry_Int_Tables_number   1
_chemical_formula_structural   TaPdAu3
_chemical_formula_sum   'Ta1 Pd1 Au3'
_cell_volume   83.64853746
_cell_formula_units_Z   1
loop_
 _symmetry_equiv_pos_site_id
 _symmetry_equiv_pos_as_xyz
  1  'x, y, z'
loop_
 _atom_site_type_symbol
 _atom_site_label
 _atom_site_symmetry_multiplicity
 _atom_site_fract_x
 _atom_site_fract_y
 _atom_site_fract_z
 _atom_site_occupancy
  Ta  Ta0  1  0.99777864  0.00539172  0.00316936  1
  Pd  Pd0  1  0.60814435  0.78688507  0.39502742  1
  Au  Au0  1  0.39159444  0.20612560  0.59772104  1
  Au  Au1  1  0.20494948  0.60581050  0.81076098  1
  Au  Au2  1  0.79753309  0.39578811  0.19332120  1
loop_
_geom_bond_atom_site_label_1
_geom_bond_atom_site_label_2
_geom_bond_distance
_geom_bond_site_symmetry_2
Pd0 Ta0 2.773378 1_565
Pd0 Ta0 2.773381 1_455
Pd0 Ta0 2.898362 1_566
Au0 Pd0 2.752344 1_445
Au0 Pd0 2.752352 1_555
Au0 Ta0 2.844900 1_456
Au0 Ta0 2.844906 1_566
Au0 Ta0 2.868970 1_455
Au0 Au2 2.877933 1_445
Au0 Au2 2.877935 1_555
Au0 Au1 2.904728 1_555
Au0 Au2 2.909197 1_556
Au0 Au1 2.915920 1_655
Au0 Au1 2.915920 1_545
Au0 Pd0 3.108473 1_545
Au1 Au2 2.784115 1_456
Au1 Au2 2.784118 1_566
Au1 Ta0 2.822882 1_456
Au1 Ta0 2.822887 1_566
Au1 Pd0 2.870253 1_556
Au1 Pd0 2.921225 1_445
Au1 Pd0 2.921232 1_555
Au1 Ta0 2.965094 1_466
Au1 Au2 2.974886 1_455
Au2 Pd0 2.861842 1_555
Au2 Ta0 2.869120 1_455
Au2 Ta0 2.869123 1_565
Au2 Ta0 2.890287 1_555
Au2 Pd0 2.917177 1_545
Au2 Pd0 2.917182 1_655
