# generated using pymatgen
data_Zr10AlAgSb6
_symmetry_space_group_name_H-M   'P 1'
_cell_length_a   8.68076196
_cell_length_b   8.68076206
_cell_length_c   5.88872975
_cell_angle_alpha   90.00000000
_cell_angle_beta   90.00000000
_cell_angle_gamma   120.00000336
_symmetry_Int_Tables_number   1
_chemical_formula_structural   Zr10AlAgSb6
_chemical_formula_sum   'Zr10 Al1 Ag1 Sb6'
_cell_volume   384.29783687
_cell_formula_units_Z   1
loop_
 _symmetry_equiv_pos_site_id
 _symmetry_equiv_pos_as_xyz
  1  'x, y, z'
loop_
 _atom_site_type_symbol
 _atom_site_label
 _atom_site_symmetry_multiplicity
 _atom_site_fract_x
 _atom_site_fract_y
 _atom_site_fract_z
 _atom_site_occupancy
  Zr  Zr0  1  0.66666700  0.33333300  0.00000000  1
  Zr  Zr1  1  0.33333300  0.66666700  0.00000000  1
  Zr  Zr2  1  0.33333300  0.66666700  0.50000000  1
  Zr  Zr3  1  0.66666700  0.33333300  0.50000000  1
  Zr  Zr4  1  0.72541905  0.72541905  0.75793312  1
  Zr  Zr5  1  0.27458095  1.00000000  0.75793312  1
  Zr  Zr6  1  1.00000000  0.27458095  0.75793312  1
  Zr  Zr7  1  0.27458095  0.27458095  0.24206688  1
  Zr  Zr8  1  0.72541905  0.00000000  0.24206688  1
  Zr  Zr9  1  0.00000000  0.72541905  0.24206688  1
  Al  Al0  1  0.00000000  0.00000000  0.00000000  1
  Ag  Ag0  1  0.00000000  0.00000000  0.50000000  1
  Sb  Sb0  1  0.38308438  0.38308438  0.74714494  1
  Sb  Sb1  1  0.61691562  1.00000000  0.74714494  1
  Sb  Sb2  1  1.00000000  0.61691562  0.74714494  1
  Sb  Sb3  1  0.61691562  0.61691562  0.25285506  1
  Sb  Sb4  1  0.38308438  0.00000000  0.25285506  1
  Sb  Sb5  1  0.00000000  0.38308438  0.25285506  1
loop_
_geom_bond_atom_site_label_1
_geom_bond_atom_site_label_2
_geom_bond_distance
_geom_bond_site_symmetry_2
Al0 Zr7 2.777295 1_555
Al0 Zr4 2.777295 1_444
Al0 Zr5 2.777295 1_544
Al0 Zr8 2.777295 1_455
Al0 Zr6 2.777295 1_454
Al0 Zr9 2.777295 1_545
Ag0 Zr7 2.826388 1_555
Ag0 Zr4 2.826388 1_445
Ag0 Zr5 2.826388 1_545
Ag0 Zr8 2.826388 1_455
Ag0 Zr6 2.826388 1_455
Ag0 Zr9 2.826388 1_545
Ag0 Al0 2.944365 1_556
Ag0 Al0 2.944365 1_555
Sb0 Zr6 2.969458 1_455
Sb0 Zr5 2.969458 1_545
Sb0 Zr4 2.972405 1_555
Sb0 Zr7 3.062882 1_556
Sb0 Zr3 3.070475 1_555
Sb0 Zr2 3.070475 1_555
Sb0 Zr0 3.086555 1_556
Sb0 Zr1 3.086555 1_556
Sb0 Zr7 3.119845 1_555
Sb1 Zr6 2.969458 1_565
Sb1 Zr4 2.969458 1_555
Sb1 Zr5 2.972405 1_555
Sb1 Zr8 3.062882 1_566
Sb1 Zr3 3.070468 1_565
Sb1 Zr2 3.070470 1_555
Sb1 Zr0 3.086548 1_566
Sb1 Zr1 3.086550 1_556
Sb1 Zr8 3.119845 1_565
Sb2 Zr5 2.969458 1_655
Sb2 Zr4 2.969458 1_555
Sb2 Zr6 2.972405 1_555
Sb2 Zr9 3.062882 1_656
Sb2 Zr2 3.070468 1_655
Sb2 Zr3 3.070470 1_555
Sb2 Zr1 3.086548 1_656
Sb2 Zr0 3.086550 1_556
Sb2 Zr9 3.119845 1_655
Sb3 Zr9 2.969458 1_655
Sb3 Zr8 2.969458 1_565
Sb3 Zr7 2.972405 1_555
Sb3 Zr4 3.062882 1_554
Sb3 Zr2 3.070475 1_555
Sb3 Zr3 3.070475 1_555
Sb3 Zr1 3.086555 1_555
Sb3 Zr0 3.086555 1_555
Sb3 Zr4 3.119845 1_555
Sb4 Zr9 2.969458 1_545
Sb4 Zr7 2.969458 1_555
Sb4 Zr8 2.972405 1_555
Sb4 Zr5 3.062882 1_544
Sb4 Zr2 3.070468 1_545
Sb4 Zr3 3.070470 1_555
Sb4 Zr1 3.086548 1_545
Sb4 Zr0 3.086550 1_555
Sb4 Zr5 3.119845 1_545
Sb5 Zr8 2.969458 1_455
Sb5 Zr7 2.969458 1_555
Sb5 Zr9 2.972405 1_555
Sb5 Zr6 3.062882 1_454
Sb5 Zr3 3.070468 1_455
Sb5 Zr2 3.070470 1_555
Sb5 Zr0 3.086548 1_455
Sb5 Zr1 3.086550 1_555
Sb5 Zr6 3.119845 1_455
