# generated using pymatgen
data_K4Mn3VF12
_symmetry_space_group_name_H-M   'P 1'
_cell_length_a   5.90539324
_cell_length_b   5.87505384
_cell_length_c   8.30184283
_cell_angle_alpha   90.02018459
_cell_angle_beta   89.99351887
_cell_angle_gamma   90.00483139
_symmetry_Int_Tables_number   1
_chemical_formula_structural   K4Mn3VF12
_chemical_formula_sum   'K4 Mn3 V1 F12'
_cell_volume   288.02829222
_cell_formula_units_Z   1
loop_
 _symmetry_equiv_pos_site_id
 _symmetry_equiv_pos_as_xyz
  1  'x, y, z'
loop_
 _atom_site_type_symbol
 _atom_site_label
 _atom_site_symmetry_multiplicity
 _atom_site_fract_x
 _atom_site_fract_y
 _atom_site_fract_z
 _atom_site_occupancy
  K  K0  1  0.50226972  0.50315398  0.24758203  1
  K  K1  1  0.99750451  0.00326797  0.24736758  1
  K  K2  1  0.49773028  0.49684602  0.75241797  1
  K  K3  1  0.00249549  0.99673203  0.75263242  1
  Mn  Mn0  1  0.50000000  0.00000000  0.50000000  1
  Mn  Mn1  1  0.00000000  0.50000000  0.50000000  1
  Mn  Mn2  1  0.50000000  0.00000000  0.00000000  1
  V  V0  1  0.00000000  0.50000000  0.00000000  1
  F  F0  1  0.45685322  0.99891815  0.24898210  1
  F  F1  1  0.04253224  0.49906668  0.24814831  1
  F  F2  1  0.54314678  0.00108185  0.75101790  1
  F  F3  1  0.95746776  0.50093332  0.75185169  1
  F  F4  1  0.75562777  0.75305356  0.02134875  1
  F  F5  1  0.74485733  0.25536829  0.47639312  1
  F  F6  1  0.24462098  0.24503939  0.52358684  1
  F  F7  1  0.25356081  0.74381199  0.97855861  1
  F  F8  1  0.24437223  0.24694644  0.97865125  1
  F  F9  1  0.25514267  0.74463171  0.52360688  1
  F  F10  1  0.75537902  0.75496061  0.47641316  1
  F  F11  1  0.74643919  0.25618801  0.02144139  1
loop_
_geom_bond_atom_site_label_1
_geom_bond_atom_site_label_2
_geom_bond_distance
_geom_bond_site_symmetry_2
F0 Mn2 2.082639 1_565
F0 Mn0 2.099466 1_565
F0 K1 2.712792 1_465
F0 K0 2.925005 1_555
F0 K0 2.974533 1_565
F0 K1 3.192885 1_565
F1 V0 2.075381 1_555
F1 Mn1 2.105843 1_555
F1 K0 2.715038 1_555
F1 K1 2.924939 1_455
F1 K1 2.974152 1_465
F1 K0 3.190559 1_455
F2 Mn2 2.082639 1_556
F2 Mn0 2.099466 1_555
F2 K3 2.712792 1_645
F2 K2 2.925005 1_555
F2 K2 2.974533 1_545
F2 K3 3.192885 1_545
F3 V0 2.075381 1_656
F3 Mn1 2.105843 1_655
F3 K2 2.715038 1_555
F3 K3 2.924939 1_655
F3 K3 2.974152 1_645
F3 K2 3.190559 1_655
F4 V0 2.079518 1_655
F4 Mn2 2.101369 1_565
F4 K1 2.778545 1_565
F4 K0 2.814690 1_555
F4 K3 3.025341 1_654
F4 K2 3.093190 1_554
F5 Mn1 2.091345 1_655
F5 Mn0 2.092832 1_555
F5 K0 2.789751 1_555
F5 K1 2.834165 1_555
F5 K2 3.064447 1_555
F5 K3 3.144288 1_645
F6 Mn1 2.090341 1_555
F6 Mn0 2.094124 1_555
F6 K3 2.790933 1_545
F6 K2 2.833715 1_555
F6 K1 3.066555 1_455
F6 K0 3.141042 1_555
F7 V0 2.079753 1_556
F7 Mn2 2.101077 1_566
F7 K2 2.776101 1_555
F7 K3 2.815498 1_555
F7 K0 3.024492 1_556
F7 K1 3.096343 1_466
F8 V0 2.079518 1_556
F8 Mn2 2.101369 1_556
F8 K3 2.778545 1_545
F8 K2 2.814690 1_555
F8 K1 3.025341 1_456
F8 K0 3.093190 1_556
F9 Mn1 2.091345 1_555
F9 Mn0 2.092832 1_565
F9 K2 2.789751 1_555
F9 K3 2.834165 1_555
F9 K0 3.064447 1_555
F9 K1 3.144288 1_465
F10 Mn1 2.090341 1_655
F10 Mn0 2.094124 1_565
F10 K1 2.790933 1_565
F10 K0 2.833715 1_555
F10 K3 3.066555 1_655
F10 K2 3.141042 1_555
F11 V0 2.079753 1_655
F11 Mn2 2.101077 1_555
F11 K0 2.776101 1_555
F11 K1 2.815498 1_555
F11 K2 3.024492 1_554
F11 K3 3.096343 1_644
