# generated using pymatgen
data_HfCd2(Ni10P3)2
_symmetry_space_group_name_H-M   'P 1'
_cell_length_a   7.82741041
_cell_length_b   7.82741134
_cell_length_c   7.82741016
_cell_angle_alpha   60.00000087
_cell_angle_beta   59.99999693
_cell_angle_gamma   60.00000428
_symmetry_Int_Tables_number   1
_chemical_formula_structural   HfCd2(Ni10P3)2
_chemical_formula_sum   'Hf1 Cd2 Ni20 P6'
_cell_volume   339.10903655
_cell_formula_units_Z   1
loop_
 _symmetry_equiv_pos_site_id
 _symmetry_equiv_pos_as_xyz
  1  'x, y, z'
loop_
 _atom_site_type_symbol
 _atom_site_label
 _atom_site_symmetry_multiplicity
 _atom_site_fract_x
 _atom_site_fract_y
 _atom_site_fract_z
 _atom_site_occupancy
  Hf  Hf0  1  0.00000000  0.00000000  0.00000000  1
  Cd  Cd0  1  0.75000000  0.75000000  0.75000000  1
  Cd  Cd1  1  0.25000000  0.25000000  0.25000000  1
  Ni  Ni0  1  1.00000000  0.65213154  1.00000000  1
  Ni  Ni1  1  0.15517998  0.61494001  0.61494001  1
  Ni  Ni2  1  0.00000000  0.00000000  0.65213154  1
  Ni  Ni3  1  1.00000000  1.00000000  0.34786846  1
  Ni  Ni4  1  0.65213154  1.00000000  0.34786846  1
  Ni  Ni5  1  0.34786846  0.00000000  1.00000000  1
  Ni  Ni6  1  0.84482002  0.38505999  0.38505999  1
  Ni  Ni7  1  1.00000000  0.65213154  0.34786846  1
  Ni  Ni8  1  0.61494001  0.61494001  0.61494001  1
  Ni  Ni9  1  0.38505999  0.84482002  0.38505999  1
  Ni  Ni10  1  0.65213154  0.34786846  0.00000000  1
  Ni  Ni11  1  0.00000000  0.34786846  0.65213154  1
  Ni  Ni12  1  0.34786846  0.65213154  1.00000000  1
  Ni  Ni13  1  0.34786846  0.00000000  0.65213154  1
  Ni  Ni14  1  0.38505999  0.38505999  0.38505999  1
  Ni  Ni15  1  0.65213154  1.00000000  0.00000000  1
  Ni  Ni16  1  0.00000000  0.34786846  0.00000000  1
  Ni  Ni17  1  0.61494001  0.61494001  0.15517998  1
  Ni  Ni18  1  0.38505999  0.38505999  0.84482002  1
  Ni  Ni19  1  0.61494001  0.15517998  0.61494001  1
  P  P0  1  0.26546327  0.73453673  0.26546327  1
  P  P1  1  0.73453673  0.73453673  0.26546327  1
  P  P2  1  0.73453673  0.26546327  0.26546327  1
  P  P3  1  0.26546327  0.73453673  0.73453673  1
  P  P4  1  0.26546327  0.26546327  0.73453673  1
  P  P5  1  0.73453673  0.26546327  0.73453673  1
loop_
_geom_bond_atom_site_label_1
_geom_bond_atom_site_label_2
_geom_bond_distance
_geom_bond_site_symmetry_2
Hf0 Ni4 2.722909 1_445
Hf0 Ni13 2.722909 1_554
Hf0 Ni3 2.722909 1_445
Hf0 Ni2 2.722909 1_554
Hf0 Ni5 2.722909 1_554
Hf0 Ni15 2.722909 1_445
Hf0 Ni7 2.722909 1_445
Hf0 Ni11 2.722909 1_554
Hf0 Ni16 2.722910 1_555
Hf0 Ni0 2.722910 1_444
Hf0 Ni12 2.722910 1_544
Hf0 Ni10 2.722910 1_455
Hf0 P4 2.938580 1_554
Hf0 P1 2.938580 1_445
Hf0 P2 2.938580 1_455
Hf0 P3 2.938580 1_544
Hf0 P0 2.938580 1_545
Hf0 P5 2.938580 1_454
Cd0 Ni17 2.589527 1_556
Cd0 Ni1 2.589527 1_655
Cd0 Ni8 2.589527 1_555
Cd0 Ni19 2.589528 1_565
Cd0 Ni7 3.012729 1_555
Cd0 Ni12 3.012729 1_555
Cd0 Ni3 3.012729 1_555
Cd0 Ni0 3.012730 1_555
Cd0 Ni4 3.012730 1_555
Cd0 Ni5 3.012730 1_565
Cd0 Ni2 3.012730 1_665
Cd0 Ni15 3.012730 1_556
Cd0 Ni13 3.012730 1_565
Cd0 Ni10 3.012730 1_556
Cd0 Ni16 3.012730 1_656
Cd0 Ni11 3.012730 1_655
Cd1 Ni18 2.589527 1_554
Cd1 Ni6 2.589527 1_455
Cd1 Ni14 2.589527 1_555
Cd1 Ni9 2.589528 1_545
Cd1 Ni11 3.012729 1_555
Cd1 Ni10 3.012729 1_555
Cd1 Ni2 3.012729 1_555
Cd1 Ni16 3.012730 1_555
Cd1 Ni13 3.012730 1_555
Cd1 Ni15 3.012730 1_545
Cd1 Ni3 3.012730 1_445
Cd1 Ni5 3.012730 1_554
Cd1 Ni4 3.012730 1_545
Cd1 Ni12 3.012730 1_554
Cd1 Ni0 3.012730 1_454
Cd1 Ni7 3.012730 1_455
Ni0 P3 2.175701 1_655
Ni0 P1 2.175701 1_556
Ni1 P0 2.233921 1_555
Ni1 P3 2.233921 1_555
Ni1 P4 2.233922 1_555
Ni2 P3 2.175702 1_545
Ni2 P5 2.175702 1_455
Ni3 P2 2.175702 1_565
Ni3 P0 2.175702 1_655
Ni4 P2 2.175702 1_565
Ni4 P1 2.175702 1_555
Ni5 P0 2.175701 1_546
Ni5 P4 2.175702 1_555
Ni6 P5 2.233921 1_555
Ni6 P2 2.233921 1_555
Ni6 P1 2.233922 1_555
Ni7 P0 2.175701 1_655
Ni7 P1 2.175701 1_555
Ni8 P1 2.233921 1_555
Ni8 P3 2.233921 1_555
Ni8 P5 2.233922 1_555
Ni9 P3 2.233921 1_555
Ni9 P1 2.233921 1_555
Ni9 P0 2.233921 1_555
Ni10 P5 2.175701 1_554
Ni10 P2 2.175701 1_555
Ni11 P5 2.175701 1_455
Ni11 P4 2.175701 1_555
Ni12 P0 2.175701 1_556
Ni12 P3 2.175701 1_555
Ni13 P3 2.175702 1_545
Ni13 P4 2.175702 1_555
Ni14 P4 2.233921 1_555
Ni14 P2 2.233921 1_555
Ni14 P0 2.233922 1_555
Ni15 P5 2.175701 1_564
Ni15 P1 2.175702 1_555
Ni16 P2 2.175701 1_455
Ni16 P4 2.175701 1_554
Ni17 P0 2.233921 1_555
Ni17 P1 2.233921 1_555
Ni17 P2 2.233922 1_555
Ni18 P5 2.233921 1_555
Ni18 P4 2.233921 1_555
Ni18 P3 2.233922 1_555
Ni19 P2 2.233921 1_555
Ni19 P4 2.233921 1_555
Ni19 P5 2.233921 1_555
