# generated using pymatgen
data_Yb2Br2O
_symmetry_space_group_name_H-M   'P 1'
_cell_length_a   4.01320531
_cell_length_b   4.01320531
_cell_length_c   13.09683710
_cell_angle_alpha   90.00000000
_cell_angle_beta   90.00000000
_cell_angle_gamma   90.00000000
_symmetry_Int_Tables_number   1
_chemical_formula_structural   Yb2Br2O
_chemical_formula_sum   'Yb2 Br2 O1'
_cell_volume   210.93525993
_cell_formula_units_Z   1
loop_
 _symmetry_equiv_pos_site_id
 _symmetry_equiv_pos_as_xyz
  1  'x, y, z'
loop_
 _atom_site_type_symbol
 _atom_site_label
 _atom_site_symmetry_multiplicity
 _atom_site_fract_x
 _atom_site_fract_y
 _atom_site_fract_z
 _atom_site_occupancy
  Yb  Yb0  1  0.50000000  0.50000000  0.15181586  1
  Yb  Yb1  1  0.50000000  0.50000000  0.84818414  1
  Br  Br0  1  0.50000000  0.50000000  0.65341685  1
  Br  Br1  1  0.50000000  0.50000000  0.34658315  1
  O  O0  1  0.50000000  0.50000000  0.00000000  1
loop_
_geom_bond_atom_site_label_1
_geom_bond_atom_site_label_2
_geom_bond_distance
_geom_bond_site_symmetry_2
Br0 Yb1 2.550835 1_555
Br1 Yb0 2.550835 1_555
O0 Yb1 1.988308 1_554
O0 Yb0 1.988308 1_555
