# generated using pymatgen
data_ReAg(OF2)2
_symmetry_space_group_name_H-M   'P 1'
_cell_length_a   5.03108576
_cell_length_b   5.03108576
_cell_length_c   9.65216968
_cell_angle_alpha   90.00000000
_cell_angle_beta   90.00000000
_cell_angle_gamma   90.00000000
_symmetry_Int_Tables_number   1
_chemical_formula_structural   ReAg(OF2)2
_chemical_formula_sum   'Re2 Ag2 O4 F8'
_cell_volume   244.31401976
_cell_formula_units_Z   2
loop_
 _symmetry_equiv_pos_site_id
 _symmetry_equiv_pos_as_xyz
  1  'x, y, z'
loop_
 _atom_site_type_symbol
 _atom_site_label
 _atom_site_symmetry_multiplicity
 _atom_site_fract_x
 _atom_site_fract_y
 _atom_site_fract_z
 _atom_site_occupancy
  Re  Re0  1  0.00000000  0.50000000  0.80305107  1
  Re  Re1  1  0.50000000  0.00000000  0.19694893  1
  Ag  Ag0  1  0.00000000  0.50000000  0.41741482  1
  Ag  Ag1  1  0.50000000  0.00000000  0.58258518  1
  O  O0  1  0.18745009  0.31254991  0.91174694  1
  O  O1  1  0.31254991  0.81254991  0.08825306  1
  O  O2  1  0.81254991  0.68745009  0.91174694  1
  O  O3  1  0.68745009  0.18745009  0.08825306  1
  F  F0  1  0.67491348  0.17491348  0.36551440  1
  F  F1  1  0.82508652  0.67491348  0.63448560  1
  F  F2  1  0.32508652  0.82508652  0.36551440  1
  F  F3  1  0.26136877  0.76136877  0.76764740  1
  F  F4  1  0.73863123  0.23863123  0.76764740  1
  F  F5  1  0.23863123  0.26136877  0.23235260  1
  F  F6  1  0.76136877  0.73863123  0.23235260  1
  F  F7  1  0.17491348  0.32508652  0.63448560  1
loop_
_geom_bond_atom_site_label_1
_geom_bond_atom_site_label_2
_geom_bond_distance
_geom_bond_site_symmetry_2
Ag0 F2 2.366627 1_555
Ag0 F0 2.366627 1_455
Ag0 F7 2.436944 1_555
Ag0 F1 2.436944 1_455
Ag0 F6 2.464438 1_455
Ag0 F5 2.464438 1_555
Ag1 F1 2.366627 1_545
Ag1 F7 2.366627 1_555
Ag1 F0 2.436944 1_555
Ag1 F2 2.436944 1_545
Ag1 F4 2.464438 1_555
Ag1 F3 2.464438 1_545
O0 Re0 1.696911 1_555
O1 Re1 1.696911 1_565
O2 Re0 1.696911 1_655
O3 Re1 1.696911 1_555
F0 Re1 2.048419 1_555
F1 Re0 2.048419 1_655
F2 Re1 2.048419 1_565
F3 Re0 1.890783 1_555
F4 Re0 1.890783 1_655
F5 Re1 1.890783 1_555
F6 Re1 1.890783 1_565
F7 Re0 2.048419 1_555
