# generated using pymatgen
data_CsTiIrS4
_symmetry_space_group_name_H-M   'P 1'
_cell_length_a   5.87643609
_cell_length_b   7.10402286
_cell_length_c   16.73463560
_cell_angle_alpha   90.00000000
_cell_angle_beta   90.00000000
_cell_angle_gamma   90.00000000
_symmetry_Int_Tables_number   1
_chemical_formula_structural   CsTiIrS4
_chemical_formula_sum   'Cs4 Ti4 Ir4 S16'
_cell_volume   698.60972581
_cell_formula_units_Z   4
loop_
 _symmetry_equiv_pos_site_id
 _symmetry_equiv_pos_as_xyz
  1  'x, y, z'
loop_
 _atom_site_type_symbol
 _atom_site_label
 _atom_site_symmetry_multiplicity
 _atom_site_fract_x
 _atom_site_fract_y
 _atom_site_fract_z
 _atom_site_occupancy
  Cs  Cs0  1  0.39270972  0.00000000  0.00000000  1
  Cs  Cs1  1  0.60729028  0.50000000  0.50000000  1
  Cs  Cs2  1  0.02399273  0.00000000  0.50000000  1
  Cs  Cs3  1  0.97600727  0.50000000  0.00000000  1
  Ti  Ti0  1  0.06715419  0.00000000  0.24467640  1
  Ti  Ti1  1  0.06715419  0.00000000  0.75532360  1
  Ti  Ti2  1  0.93284581  0.50000000  0.25532360  1
  Ti  Ti3  1  0.93284581  0.50000000  0.74467640  1
  Ir  Ir0  1  0.50000000  0.25000000  0.25000000  1
  Ir  Ir1  1  0.50000000  0.75000000  0.75000000  1
  Ir  Ir2  1  0.50000000  0.75000000  0.25000000  1
  Ir  Ir3  1  0.50000000  0.25000000  0.75000000  1
  S  S0  1  0.83377742  0.24245641  0.33291520  1
  S  S1  1  0.83377742  0.75754359  0.66708480  1
  S  S2  1  0.16622258  0.74245641  0.16708480  1
  S  S3  1  0.16622258  0.25754359  0.83291520  1
  S  S4  1  0.16622258  0.25754359  0.16708480  1
  S  S5  1  0.16622258  0.74245641  0.83291520  1
  S  S6  1  0.83377742  0.75754359  0.33291520  1
  S  S7  1  0.83377742  0.24245641  0.66708480  1
  S  S8  1  0.68419724  0.00000000  0.17786287  1
  S  S9  1  0.68419724  0.00000000  0.82213713  1
  S  S10  1  0.31580276  0.50000000  0.32213713  1
  S  S11  1  0.31580276  0.50000000  0.67786287  1
  S  S12  1  0.37040158  0.00000000  0.33527200  1
  S  S13  1  0.37040158  0.00000000  0.66472800  1
  S  S14  1  0.62959842  0.50000000  0.16472800  1
  S  S15  1  0.62959842  0.50000000  0.83527200  1
loop_
_geom_bond_atom_site_label_1
_geom_bond_atom_site_label_2
_geom_bond_distance
_geom_bond_site_symmetry_2
Cs0 S8 3.434156 1_555
Cs0 S9 3.434156 1_554
Cs0 S4 3.596805 1_555
Cs0 S2 3.596805 1_545
Cs0 S3 3.596805 1_554
Cs0 S5 3.596805 1_544
Cs1 S11 3.434156 1_555
Cs1 S10 3.434156 1_555
Cs1 S1 3.596805 1_555
Cs1 S7 3.596805 1_555
Cs1 S6 3.596805 1_555
Cs1 S0 3.596805 1_555
Cs2 S13 3.426815 1_555
Cs2 S12 3.426815 1_555
Cs2 S7 3.469057 1_455
Cs2 S1 3.469057 1_445
Cs2 S0 3.469057 1_455
Cs2 S6 3.469057 1_445
Cs3 S15 3.426815 1_554
Cs3 S14 3.426815 1_555
Cs3 S2 3.469057 1_655
Cs3 S4 3.469057 1_655
Cs3 S5 3.469057 1_654
Cs3 S3 3.469057 1_654
Ir0 S12 2.402189 1_555
Ir0 S14 2.402189 1_555
Ir0 S0 2.403197 1_555
Ir0 S4 2.403197 1_555
Ir0 S10 2.404816 1_555
Ir0 S8 2.404816 1_555
Ir1 S15 2.402189 1_555
Ir1 S13 2.402189 1_565
Ir1 S5 2.403197 1_555
Ir1 S1 2.403197 1_555
Ir1 S9 2.404816 1_565
Ir1 S11 2.404816 1_555
Ir2 S12 2.402189 1_565
Ir2 S14 2.402189 1_555
Ir2 S6 2.403197 1_555
Ir2 S2 2.403197 1_555
Ir2 S10 2.404816 1_555
Ir2 S8 2.404816 1_565
Ir3 S15 2.402189 1_555
Ir3 S13 2.402189 1_555
Ir3 S3 2.403197 1_555
Ir3 S7 2.403197 1_555
Ir3 S9 2.404816 1_555
Ir3 S11 2.404816 1_555
S0 Ti2 2.317835 1_555
S0 Ti0 2.651037 1_655
S1 Ti3 2.317835 1_555
S1 Ti1 2.651037 1_665
S2 Ti0 2.317835 1_565
S2 Ti2 2.651037 1_455
S3 Ti1 2.317835 1_555
S3 Ti3 2.651037 1_455
S4 Ti0 2.317835 1_555
S4 Ti2 2.651037 1_455
S5 Ti1 2.317835 1_565
S5 Ti3 2.651037 1_455
S6 Ti2 2.317835 1_555
S6 Ti0 2.651037 1_665
S7 Ti3 2.317835 1_555
S7 Ti1 2.651037 1_655
S8 Ti0 2.512876 1_655
S9 Ti1 2.512876 1_655
S10 Ti2 2.512876 1_455
S11 Ti3 2.512876 1_455
S12 Ti0 2.339676 1_555
S13 Ti1 2.339676 1_555
S14 Ti2 2.339676 1_555
S15 Ti3 2.339676 1_555
