# generated using pymatgen
data_SrY2Cu2Ir7
_symmetry_space_group_name_H-M   'P 1'
_cell_length_a   8.99798211
_cell_length_b   8.99798310
_cell_length_c   8.99798248
_cell_angle_alpha   34.48474463
_cell_angle_beta   34.48473396
_cell_angle_gamma   34.48474013
_symmetry_Int_Tables_number   1
_chemical_formula_structural   SrY2Cu2Ir7
_chemical_formula_sum   'Sr1 Y2 Cu2 Ir7'
_cell_volume   208.33796782
_cell_formula_units_Z   1
loop_
 _symmetry_equiv_pos_site_id
 _symmetry_equiv_pos_as_xyz
  1  'x, y, z'
loop_
 _atom_site_type_symbol
 _atom_site_label
 _atom_site_symmetry_multiplicity
 _atom_site_fract_x
 _atom_site_fract_y
 _atom_site_fract_z
 _atom_site_occupancy
  Sr  Sr0  1  0.00000000  0.00000000  0.00000000  1
  Y  Y0  1  0.86017677  0.86017677  0.86017677  1
  Y  Y1  1  0.13982323  0.13982323  0.13982323  1
  Cu  Cu0  1  0.66579624  0.66579624  0.66579624  1
  Cu  Cu1  1  0.33420376  0.33420376  0.33420376  1
  Ir  Ir0  1  0.41402209  0.41402209  0.92252376  1
  Ir  Ir1  1  0.92252376  0.41402209  0.41402209  1
  Ir  Ir2  1  0.41402209  0.92252376  0.41402209  1
  Ir  Ir3  1  0.50000000  0.50000000  0.50000000  1
  Ir  Ir4  1  0.58597791  0.07747624  0.58597791  1
  Ir  Ir5  1  0.07747624  0.58597791  0.58597791  1
  Ir  Ir6  1  0.58597791  0.58597791  0.07747624  1
loop_
_geom_bond_atom_site_label_1
_geom_bond_atom_site_label_2
_geom_bond_distance
_geom_bond_site_symmetry_2
Sr0 Y1 3.546415 1_555
Sr0 Y0 3.546415 1_444
Cu0 Ir1 2.609032 1_555
Cu0 Ir0 2.609032 1_555
Cu0 Ir2 2.609032 1_555
Cu0 Ir5 2.613810 1_655
Cu0 Ir6 2.613810 1_556
Cu0 Ir4 2.613811 1_565
Cu0 Sr0 3.079817 1_566
Cu0 Sr0 3.079817 1_665
Cu0 Sr0 3.079818 1_656
Cu1 Ir5 2.609032 1_555
Cu1 Ir6 2.609032 1_555
Cu1 Ir4 2.609032 1_555
Cu1 Ir1 2.613810 1_455
Cu1 Ir0 2.613810 1_554
Cu1 Ir2 2.613811 1_545
Cu1 Sr0 3.079817 1_655
Cu1 Sr0 3.079817 1_556
Cu1 Sr0 3.079818 1_565
Ir0 Ir1 2.621781 1_456
Ir0 Ir2 2.621782 1_546
Ir0 Ir3 2.634439 1_555
Ir0 Ir1 2.712481 1_555
Ir0 Ir2 2.712482 1_555
Ir0 Y0 3.030005 1_455
Ir0 Y0 3.030005 1_545
Ir0 Y1 3.182326 1_556
Ir0 Sr0 3.400211 1_656
Ir0 Sr0 3.400211 1_566
Ir1 Ir2 2.621781 1_645
Ir1 Ir3 2.634439 1_555
Ir1 Ir2 2.712482 1_555
Ir1 Y0 3.030005 1_554
Ir1 Y0 3.030006 1_545
Ir1 Y1 3.182326 1_655
Ir1 Sr0 3.400211 1_656
Ir1 Sr0 3.400211 1_665
Ir2 Ir3 2.634440 1_555
Ir2 Y0 3.030005 1_455
Ir2 Y0 3.030005 1_554
Ir2 Y1 3.182326 1_565
Ir2 Sr0 3.400210 1_665
Ir2 Sr0 3.400210 1_566
Ir3 Ir5 2.634439 1_555
Ir3 Ir6 2.634439 1_555
Ir3 Ir4 2.634440 1_555
Ir3 Y0 3.154098 1_455
Ir3 Y1 3.154098 1_655
Ir3 Y0 3.154098 1_554
Ir3 Y1 3.154098 1_556
Ir3 Y0 3.154099 1_545
Ir3 Y1 3.154099 1_565
Ir4 Ir5 2.621781 1_645
Ir4 Ir6 2.621782 1_546
Ir4 Ir5 2.712482 1_555
Ir4 Ir6 2.712482 1_555
Ir4 Y1 3.030005 1_655
Ir4 Y1 3.030005 1_556
Ir4 Y0 3.182326 1_545
Ir4 Sr0 3.400210 1_556
Ir4 Sr0 3.400210 1_655
Ir5 Ir6 2.621781 1_456
Ir5 Ir6 2.712481 1_555
Ir5 Y1 3.030005 1_556
Ir5 Y1 3.030006 1_565
Ir5 Y0 3.182326 1_455
Ir5 Sr0 3.400211 1_565
Ir5 Sr0 3.400211 1_556
Ir6 Y1 3.030005 1_655
Ir6 Y1 3.030005 1_565
Ir6 Y0 3.182326 1_554
Ir6 Sr0 3.400211 1_565
Ir6 Sr0 3.400211 1_655
