# generated using pymatgen
data_Sr2Zr6BBr17
_symmetry_space_group_name_H-M   'P 1'
_cell_length_a   10.10826852
_cell_length_b   10.10805735
_cell_length_c   10.10855551
_cell_angle_alpha   105.10203864
_cell_angle_beta   105.10483620
_cell_angle_gamma   118.61060240
_symmetry_Int_Tables_number   1
_chemical_formula_structural   Sr2Zr6BBr17
_chemical_formula_sum   'Sr2 Zr6 B1 Br17'
_cell_volume   779.70379724
_cell_formula_units_Z   1
loop_
 _symmetry_equiv_pos_site_id
 _symmetry_equiv_pos_as_xyz
  1  'x, y, z'
loop_
 _atom_site_type_symbol
 _atom_site_label
 _atom_site_symmetry_multiplicity
 _atom_site_fract_x
 _atom_site_fract_y
 _atom_site_fract_z
 _atom_site_occupancy
  Sr  Sr0  1  0.24999454  0.75000087  0.50001330  1
  Sr  Sr1  1  0.75000546  0.24999913  0.49998670  1
  Zr  Zr0  1  0.22742232  0.22743237  0.99998444  1
  Zr  Zr1  1  0.77257768  0.77256763  0.00001556  1
  Zr  Zr2  1  0.18207117  0.05226814  0.23430732  1
  Zr  Zr3  1  0.94772748  0.18206041  0.12979589  1
  Zr  Zr4  1  0.81792883  0.94773186  0.76569268  1
  Zr  Zr5  1  0.05227252  0.81793959  0.87020411  1
  B  B0  1  0.00000000  0.00000000  0.00000000  1
  Br  Br0  1  0.85138907  0.73070002  0.58216456  1
  Br  Br1  1  0.26935702  0.85148194  0.12064182  1
  Br  Br2  1  0.11679779  0.59132108  0.70810916  1
  Br  Br3  1  0.53073776  0.68209389  0.72886441  1
  Br  Br4  1  0.88320221  0.40867892  0.29189084  1
  Br  Br5  1  0.46926224  0.31790611  0.27113559  1
  Br  Br6  1  0.80192162  0.53076590  0.84868932  1
  Br  Br7  1  0.40870616  0.11680156  0.52545335  1
  Br  Br8  1  0.59129384  0.88319844  0.47454665  1
  Br  Br9  1  0.14861093  0.26929998  0.41783544  1
  Br  Br10  1  0.31789139  0.04675373  0.84860510  1
  Br  Br11  1  0.95330401  0.80188160  0.27118399  1
  Br  Br12  1  0.73064298  0.14851806  0.87935818  1
  Br  Br13  1  0.50000000  0.50000000  0.00000000  1
  Br  Br14  1  0.19807838  0.46923410  0.15131068  1
  Br  Br15  1  0.04669599  0.19811840  0.72881601  1
  Br  Br16  1  0.68210861  0.95324627  0.15139490  1
loop_
_geom_bond_atom_site_label_1
_geom_bond_atom_site_label_2
_geom_bond_distance
_geom_bond_site_symmetry_2
B0 Zr2 2.328310 1_555
B0 Zr4 2.328310 1_444
B0 Zr3 2.328451 1_455
B0 Zr5 2.328451 1_544
B0 Zr0 2.347061 1_554
B0 Zr1 2.347061 1_445
Br0 Zr5 2.691563 1_655
Br0 Zr4 2.699205 1_555
Br1 Zr2 2.691830 1_565
Br1 Zr5 2.698884 1_554
Br2 Zr5 2.896463 1_555
Br2 Sr0 3.158524 1_555
Br2 Sr1 3.158742 1_455
Br3 Zr4 2.688201 1_555
Br3 Zr1 2.717683 1_556
Br3 Sr0 3.625953 1_555
Br4 Zr3 2.896463 1_555
Br4 Sr1 3.158524 1_555
Br4 Sr0 3.158742 1_655
Br5 Zr2 2.688201 1_555
Br5 Zr0 2.717683 1_554
Br5 Sr1 3.625953 1_555
Br6 Zr5 2.688206 1_655
Br6 Zr1 2.717419 1_556
Br6 Sr1 3.626482 1_555
Br7 Zr2 2.896536 1_555
Br7 Sr1 3.158498 1_555
Br7 Sr0 3.158807 1_545
Br8 Zr4 2.896536 1_555
Br8 Sr0 3.158498 1_555
Br8 Sr1 3.158807 1_565
Br9 Zr3 2.691563 1_455
Br9 Zr2 2.699205 1_555
Br10 Zr5 2.688367 1_545
Br10 Zr0 2.717694 1_555
Br10 Sr0 3.625705 1_545
Br11 Zr2 2.688434 1_665
Br11 Zr1 2.717980 1_555
Br11 Sr0 3.625275 1_655
Br12 Zr4 2.691830 1_545
Br12 Zr3 2.698884 1_556
Br13 Zr1 2.812786 1_555
Br13 Zr0 2.812786 1_554
Br14 Zr3 2.688206 1_455
Br14 Zr0 2.717419 1_554
Br14 Sr0 3.626482 1_555
Br15 Zr4 2.688434 1_445
Br15 Zr0 2.717980 1_555
Br15 Sr1 3.625275 1_455
Br16 Zr3 2.688367 1_565
Br16 Zr1 2.717694 1_555
Br16 Sr1 3.625705 1_565
