# generated using pymatgen
data_DyZn3
_symmetry_space_group_name_H-M   'P 1'
_cell_length_a   4.33949190
_cell_length_b   6.61114827
_cell_length_c   9.98213940
_cell_angle_alpha   90.00000000
_cell_angle_beta   90.00000000
_cell_angle_gamma   90.00000000
_symmetry_Int_Tables_number   1
_chemical_formula_structural   DyZn3
_chemical_formula_sum   'Dy4 Zn12'
_cell_volume   286.37784049
_cell_formula_units_Z   4
loop_
 _symmetry_equiv_pos_site_id
 _symmetry_equiv_pos_as_xyz
  1  'x, y, z'
loop_
 _atom_site_type_symbol
 _atom_site_label
 _atom_site_symmetry_multiplicity
 _atom_site_fract_x
 _atom_site_fract_y
 _atom_site_fract_z
 _atom_site_occupancy
  Dy  Dy0  1  0.25000000  0.77732412  0.15980209  1
  Dy  Dy1  1  0.75000000  0.22267588  0.84019791  1
  Dy  Dy2  1  0.25000000  0.27732412  0.34019791  1
  Dy  Dy3  1  0.75000000  0.72267588  0.65980209  1
  Zn  Zn0  1  0.25000000  0.03722876  0.60714453  1
  Zn  Zn1  1  0.75000000  0.96277124  0.39285547  1
  Zn  Zn2  1  0.25000000  0.53722876  0.89285547  1
  Zn  Zn3  1  0.75000000  0.46277124  0.10714453  1
  Zn  Zn4  1  0.75000000  0.77642834  0.95462055  1
  Zn  Zn5  1  0.25000000  0.22357166  0.04537945  1
  Zn  Zn6  1  0.75000000  0.27642834  0.54537945  1
  Zn  Zn7  1  0.25000000  0.72357166  0.45462055  1
  Zn  Zn8  1  0.75000000  0.08139331  0.14503535  1
  Zn  Zn9  1  0.25000000  0.91860669  0.85496465  1
  Zn  Zn10  1  0.75000000  0.58139331  0.35496465  1
  Zn  Zn11  1  0.25000000  0.41860669  0.64503535  1
loop_
_geom_bond_atom_site_label_1
_geom_bond_atom_site_label_2
_geom_bond_distance
_geom_bond_site_symmetry_2
Dy0 Zn8 2.961523 1_565
Dy0 Zn8 2.961523 1_465
Dy0 Zn7 2.964297 1_555
Dy0 Zn4 2.983748 1_554
Dy0 Zn4 2.983748 1_454
Dy0 Zn3 3.051007 1_455
Dy0 Zn3 3.051007 1_555
Dy0 Zn2 3.101638 1_554
Dy0 Zn5 3.163592 1_565
Dy0 Zn9 3.183057 1_554
Dy0 Zn10 3.190755 1_455
Dy0 Zn10 3.190755 1_555
Dy0 Zn1 3.409241 1_555
Dy0 Zn1 3.409241 1_455
Dy1 Zn9 2.961523 1_545
Dy1 Zn9 2.961523 1_645
Dy1 Zn6 2.964297 1_555
Dy1 Zn5 2.983748 1_656
Dy1 Zn5 2.983748 1_556
Dy1 Zn2 3.051007 1_555
Dy1 Zn2 3.051007 1_655
Dy1 Zn3 3.101638 1_556
Dy1 Zn4 3.163592 1_545
Dy1 Zn8 3.183057 1_556
Dy1 Zn11 3.190755 1_555
Dy1 Zn11 3.190755 1_655
Dy1 Zn0 3.409241 1_555
Dy1 Zn0 3.409241 1_655
Dy2 Zn10 2.961523 1_555
Dy2 Zn10 2.961523 1_455
Dy2 Zn5 2.964297 1_555
Dy2 Zn6 2.983748 1_555
Dy2 Zn6 2.983748 1_455
Dy2 Zn1 3.051007 1_445
Dy2 Zn1 3.051007 1_545
Dy2 Zn0 3.101638 1_555
Dy2 Zn7 3.163592 1_555
Dy2 Zn11 3.183057 1_555
Dy2 Zn8 3.190755 1_455
Dy2 Zn8 3.190755 1_555
Dy2 Zn3 3.409241 1_555
Dy2 Zn3 3.409241 1_455
Dy3 Zn11 2.961523 1_555
Dy3 Zn11 2.961523 1_655
Dy3 Zn4 2.964297 1_555
Dy3 Zn7 2.983748 1_555
Dy3 Zn7 2.983748 1_655
Dy3 Zn0 3.051007 1_565
Dy3 Zn0 3.051007 1_665
Dy3 Zn1 3.101638 1_555
Dy3 Zn6 3.163592 1_555
Dy3 Zn10 3.183057 1_555
Dy3 Zn9 3.190755 1_555
Dy3 Zn9 3.190755 1_655
Dy3 Zn2 3.409241 1_555
Dy3 Zn2 3.409241 1_655
Zn0 Zn11 2.549558 1_555
Zn0 Zn7 2.572549 1_545
Zn0 Zn9 2.595106 1_545
Zn0 Zn6 2.754760 1_555
Zn0 Zn6 2.754760 1_455
Zn0 Zn1 3.086373 1_445
Zn0 Zn1 3.086373 1_545
Zn1 Zn10 2.549558 1_555
Zn1 Zn6 2.572549 1_565
Zn1 Zn8 2.595106 1_565
Zn1 Zn7 2.754760 1_655
Zn1 Zn7 2.754760 1_555
Zn2 Zn9 2.549558 1_555
Zn2 Zn5 2.572549 1_556
Zn2 Zn4 2.754760 1_455
Zn2 Zn4 2.754760 1_555
Zn2 Zn3 3.086373 1_556
Zn2 Zn3 3.086373 1_456
Zn3 Zn8 2.549558 1_555
Zn3 Zn4 2.572549 1_554
Zn3 Zn5 2.754760 1_655
Zn3 Zn5 2.754760 1_555
Zn4 Zn9 2.565329 1_655
Zn4 Zn9 2.565329 1_555
Zn4 Zn8 2.770880 1_566
Zn5 Zn8 2.565329 1_455
Zn5 Zn8 2.565329 1_555
Zn5 Zn9 2.770880 1_544
Zn10 Zn7 2.565329 1_555
Zn10 Zn7 2.565329 1_655
Zn10 Zn3 2.595106 1_555
Zn10 Zn6 2.770880 1_555
Zn11 Zn6 2.565329 1_555
Zn11 Zn6 2.565329 1_455
Zn11 Zn2 2.595106 1_555
Zn11 Zn7 2.770880 1_555
