# generated using pymatgen
data_CsP2OsRu
_symmetry_space_group_name_H-M   'P 1'
_cell_length_a   7.60780434
_cell_length_b   7.60780451
_cell_length_c   7.60780476
_cell_angle_alpha   149.19083354
_cell_angle_beta   149.19084053
_cell_angle_gamma   44.13047656
_symmetry_Int_Tables_number   1
_chemical_formula_structural   CsP2OsRu
_chemical_formula_sum   'Cs1 P2 Os1 Ru1'
_cell_volume   115.17772733
_cell_formula_units_Z   1
loop_
 _symmetry_equiv_pos_site_id
 _symmetry_equiv_pos_as_xyz
  1  'x, y, z'
loop_
 _atom_site_type_symbol
 _atom_site_label
 _atom_site_symmetry_multiplicity
 _atom_site_fract_x
 _atom_site_fract_y
 _atom_site_fract_z
 _atom_site_occupancy
  Cs  Cs0  1  0.00000000  0.00000000  0.00000000  1
  P  P0  1  0.32929591  0.32929591  1.00000000  1
  P  P1  1  0.67070409  0.67070409  0.00000000  1
  Os  Os0  1  0.75000000  0.25000000  0.50000000  1
  Ru  Ru0  1  0.25000000  0.75000000  0.50000000  1
loop_
_geom_bond_atom_site_label_1
_geom_bond_atom_site_label_2
_geom_bond_distance
_geom_bond_site_symmetry_2
Cs0 P1 3.736605 1_545
Cs0 P0 3.736605 1_454
Cs0 P1 3.736605 1_455
Cs0 P0 3.736605 1_544
Cs0 P1 3.736605 1_556
Cs0 P0 3.736605 1_443
Cs0 P1 3.736605 1_444
Cs0 P0 3.736605 1_555
P0 Ru0 2.309604 1_545
P0 Ru0 2.309604 1_556
P1 Ru0 2.309604 1_655
P1 Ru0 2.309604 1_554
Os0 P0 2.309604 1_655
Os0 P0 2.309604 1_554
Os0 P1 2.309604 1_545
Os0 P1 2.309604 1_556
