# generated using pymatgen
data_CaTiO3
_symmetry_space_group_name_H-M   'P 1'
_cell_length_a   5.44114334
_cell_length_b   5.44114334
_cell_length_c   5.44114334
_cell_angle_alpha   120.84549073
_cell_angle_beta   120.84549073
_cell_angle_gamma   88.54170097
_symmetry_Int_Tables_number   1
_chemical_formula_structural   CaTiO3
_chemical_formula_sum   'Ca2 Ti2 O6'
_cell_volume   112.41312516
_cell_formula_units_Z   2
loop_
 _symmetry_equiv_pos_site_id
 _symmetry_equiv_pos_as_xyz
  1  'x, y, z'
loop_
 _atom_site_type_symbol
 _atom_site_label
 _atom_site_symmetry_multiplicity
 _atom_site_fract_x
 _atom_site_fract_y
 _atom_site_fract_z
 _atom_site_occupancy
  Ca  Ca0  1  0.25000000  0.75000000  0.50000000  1
  Ca  Ca1  1  0.75000000  0.25000000  0.50000000  1
  Ti  Ti0  1  0.50000000  0.50000000  -0.00000000  1
  Ti  Ti1  1  0.00000000  -0.00000000  -0.00000000  1
  O  O0  1  0.80869676  0.30869676  0.11739352  1
  O  O1  1  0.30869676  0.19130324  0.50000000  1
  O  O2  1  0.69130324  0.80869676  0.50000000  1
  O  O3  1  0.19130324  0.69130324  0.88260648  1
  O  O4  1  0.75000000  0.75000000  -0.00000000  1
  O  O5  1  0.25000000  0.25000000  -0.00000000  1
loop_
_geom_bond_atom_site_label_1
_geom_bond_atom_site_label_2
_geom_bond_distance
_geom_bond_site_symmetry_2
Ca0 O0 2.430385 1_455
Ca0 O3 2.430385 1_555
Ca0 O2 2.430385 1_555
Ca0 O1 2.430385 1_565
Ca0 O4 2.685730 1_455
Ca0 O4 2.685730 1_556
Ca0 O5 2.685730 1_555
Ca0 O5 2.685730 1_566
Ca1 O0 2.430385 1_555
Ca1 O2 2.430385 1_545
Ca1 O1 2.430385 1_555
Ca1 O3 2.430385 1_655
Ca1 O4 2.685730 1_545
Ca1 O5 2.685730 1_656
Ca1 O4 2.685730 1_556
Ca1 O5 2.685730 1_555
O0 Ti0 1.950740 1_555
O0 Ti1 1.950740 1_655
O1 Ti1 1.950740 1_555
O1 Ti0 1.950740 1_556
O2 Ti0 1.950740 1_555
O2 Ti1 1.950740 1_666
O3 Ti0 1.950740 1_556
O3 Ti1 1.950740 1_566
O4 Ti1 1.948060 1_665
O4 Ti0 1.948060 1_555
O5 Ti1 1.948060 1_555
O5 Ti0 1.948060 1_555
