# generated using pymatgen
data_Ca10Tc3WN14
_symmetry_space_group_name_H-M   'P 1'
_cell_length_a   6.11270697
_cell_length_b   8.92434783
_cell_length_c   8.92663230
_cell_angle_alpha   115.93770626
_cell_angle_beta   97.39871384
_cell_angle_gamma   88.78250091
_symmetry_Int_Tables_number   1
_chemical_formula_structural   Ca10Tc3WN14
_chemical_formula_sum   'Ca10 Tc3 W1 N14'
_cell_volume   433.93093830
_cell_formula_units_Z   1
loop_
 _symmetry_equiv_pos_site_id
 _symmetry_equiv_pos_as_xyz
  1  'x, y, z'
loop_
 _atom_site_type_symbol
 _atom_site_label
 _atom_site_symmetry_multiplicity
 _atom_site_fract_x
 _atom_site_fract_y
 _atom_site_fract_z
 _atom_site_occupancy
  Ca  Ca0  1  0.83733292  0.60527131  0.32331102  1
  Ca  Ca1  1  0.26595729  0.98780412  0.55637868  1
  Ca  Ca2  1  0.70445984  0.41009292  0.85342197  1
  Ca  Ca3  1  0.29594488  0.57718236  0.13939083  1
  Ca  Ca4  1  0.39338513  0.78893478  0.91910906  1
  Ca  Ca5  1  0.59950501  0.20678290  0.07962989  1
  Ca  Ca6  1  0.16196704  0.39252759  0.67870247  1
  Ca  Ca7  1  0.89326131  0.86248971  0.75637256  1
  Ca  Ca8  1  0.10703370  0.14673672  0.24501669  1
  Ca  Ca9  1  0.73835562  0.01737705  0.44695650  1
  Tc  Tc0  1  0.58091242  0.35566036  0.47391234  1
  Tc  Tc1  1  0.41743915  0.64777351  0.52613177  1
  Tc  Tc2  1  0.12333583  0.21685921  0.92383289  1
  W  W0  1  0.87656807  0.78181859  0.07608663  1
  N  N0  1  0.50879607  0.54646195  0.67762690  1
  N  N1  1  0.48973381  0.45507057  0.32144526  1
  N  N2  1  0.14314698  0.72307584  0.55478362  1
  N  N3  1  0.85718507  0.28300624  0.44661088  1
  N  N4  1  0.41162466  0.18576628  0.47298286  1
  N  N5  1  0.59023181  0.81827941  0.52918719  1
  N  N6  1  0.95164822  0.14232552  0.71849518  1
  N  N7  1  0.04729487  0.87318998  0.28684370  1
  N  N8  1  0.23453610  0.05096373  0.97746172  1
  N  N9  1  0.75913580  0.94829800  0.02104984  1
  N  N10  1  0.37089633  0.31610625  0.90013448  1
  N  N11  1  0.96190995  0.35626694  0.09065249  1
  N  N12  1  0.04490226  0.63553299  0.91163270  1
  N  N13  1  0.63349786  0.66834616  0.09283889  1
loop_
_geom_bond_atom_site_label_1
_geom_bond_atom_site_label_2
_geom_bond_distance
_geom_bond_site_symmetry_2
Ca0 N2 2.461227 1_655
Ca0 N11 2.475782 1_555
Ca0 N1 2.530634 1_555
Ca0 N13 2.534769 1_555
Ca0 N5 2.609474 1_555
Ca0 N7 2.896368 1_655
Ca1 N7 2.387210 1_555
Ca1 N4 2.419980 1_565
Ca1 N5 2.439694 1_555
Ca1 N2 2.487666 1_555
Ca1 N6 2.558311 1_465
Ca2 N10 2.373277 1_555
Ca2 N13 2.440271 1_556
Ca2 N0 2.549430 1_555
Ca2 N11 2.681661 1_556
Ca2 N6 2.691033 1_555
Ca2 N12 2.762847 1_655
Ca3 N13 2.383270 1_555
Ca3 N10 2.460387 1_554
Ca3 N1 2.496092 1_555
Ca3 N12 2.616915 1_554
Ca3 N11 2.727143 1_455
Ca3 N7 2.885140 1_555
Ca4 N8 2.377114 1_565
Ca4 N0 2.464384 1_555
Ca4 N9 2.515600 1_556
Ca4 N12 2.534496 1_555
Ca4 N13 2.554230 1_556
Ca5 N9 2.351058 1_545
Ca5 N1 2.478970 1_555
Ca5 N10 2.490963 1_554
Ca5 N8 2.498201 1_554
Ca5 N11 2.579037 1_555
Ca6 N12 2.431293 1_555
Ca6 N3 2.455698 1_455
Ca6 N10 2.548612 1_555
Ca6 N0 2.553926 1_555
Ca6 N4 2.596904 1_555
Ca6 N6 2.774569 1_455
Ca7 N9 2.393807 1_556
Ca7 N2 2.405825 1_655
Ca7 N5 2.462357 1_555
Ca7 N8 2.694601 1_665
Ca7 N6 2.699277 1_565
Ca7 N12 2.987892 1_655
Ca8 N8 2.389059 1_554
Ca8 N3 2.400896 1_455
Ca8 N4 2.482076 1_555
Ca8 N7 2.665089 1_545
Ca8 N9 2.761069 1_445
Ca8 N11 2.837432 1_455
Ca9 N6 2.387911 1_555
Ca9 N5 2.428210 1_545
Ca9 N4 2.446971 1_555
Ca9 N3 2.495468 1_555
Ca9 N7 2.499576 1_645
N0 Tc1 1.952383 1_555
N0 Tc0 1.966335 1_555
N1 Tc0 1.946784 1_555
N1 Tc1 1.979443 1_555
N2 Tc1 1.800125 1_555
N3 Tc0 1.803606 1_555
N4 Tc0 1.850188 1_555
N5 Tc1 1.859132 1_555
N6 Tc2 1.836111 1_655
N7 W0 1.866010 1_455
N8 Tc2 1.837542 1_555
N9 W0 1.861825 1_555
N10 Tc2 1.850008 1_555
N11 Tc2 1.855970 1_654
N12 W0 1.890406 1_456
N13 W0 1.873272 1_555
