# generated using pymatgen
data_Ca6TaIO12
_symmetry_space_group_name_H-M   'P 1'
_cell_length_a   5.85007383
_cell_length_b   5.58646234
_cell_length_c   9.78859050
_cell_angle_alpha   55.30092819
_cell_angle_beta   90.13807286
_cell_angle_gamma   89.91641435
_symmetry_Int_Tables_number   1
_chemical_formula_structural   Ca6TaIO12
_chemical_formula_sum   'Ca6 Ta1 I1 O12'
_cell_volume   263.00701532
_cell_formula_units_Z   1
loop_
 _symmetry_equiv_pos_site_id
 _symmetry_equiv_pos_as_xyz
  1  'x, y, z'
loop_
 _atom_site_type_symbol
 _atom_site_label
 _atom_site_symmetry_multiplicity
 _atom_site_fract_x
 _atom_site_fract_y
 _atom_site_fract_z
 _atom_site_occupancy
  Ca  Ca0  1  0.05244241  0.72045609  0.77263727  1
  Ca  Ca1  1  0.94755759  0.27954391  0.22736273  1
  Ca  Ca2  1  0.56170006  0.26091160  0.76241022  1
  Ca  Ca3  1  0.43829994  0.73908840  0.23758978  1
  Ca  Ca4  1  0.50000000  0.50000000  0.00000000  1
  Ca  Ca5  1  0.00000000  0.50000000  0.50000000  1
  Ta  Ta0  1  0.00000000  0.00000000  0.00000000  1
  I  I0  1  0.50000000  0.00000000  0.50000000  1
  O  O0  1  0.44574888  0.90849956  0.71452925  1
  O  O1  1  0.55425112  0.09150044  0.28547075  1
  O  O2  1  0.94380429  0.12463309  0.76648381  1
  O  O3  1  0.05619571  0.87536691  0.23351619  1
  O  O4  1  0.76291384  0.75917657  0.57689650  1
  O  O5  1  0.23708616  0.24082343  0.42310350  1
  O  O6  1  0.28468738  0.23909038  0.93444359  1
  O  O7  1  0.71531262  0.76090962  0.06555641  1
  O  O8  1  0.32407377  0.67499803  0.55692267  1
  O  O9  1  0.67592623  0.32500197  0.44307733  1
  O  O10  1  0.82095621  0.33927919  0.95509238  1
  O  O11  1  0.17904379  0.66072081  0.04490762  1
loop_
_geom_bond_atom_site_label_1
_geom_bond_atom_site_label_2
_geom_bond_distance
_geom_bond_site_symmetry_2
Ca0 O10 2.290891 1_455
Ca0 O2 2.312256 1_465
Ca0 O0 2.460518 1_555
Ca0 O4 2.469453 1_455
Ca0 O6 2.591465 1_555
Ca0 O11 2.596161 1_556
Ca0 O8 2.770149 1_555
Ca1 O11 2.290891 1_655
Ca1 O3 2.312256 1_645
Ca1 O1 2.460518 1_555
Ca1 O5 2.469453 1_655
Ca1 O7 2.591465 1_555
Ca1 O10 2.596161 1_554
Ca1 O9 2.770149 1_555
Ca2 O6 2.292765 1_555
Ca2 O2 2.353289 1_555
Ca2 O0 2.368254 1_545
Ca2 O8 2.451353 1_555
Ca2 O4 2.587700 1_555
Ca2 O10 2.641502 1_555
Ca2 O7 2.821004 1_546
Ca2 O9 3.013641 1_555
Ca3 O7 2.292765 1_555
Ca3 O3 2.353289 1_555
Ca3 O1 2.368254 1_565
Ca3 O9 2.451353 1_555
Ca3 O5 2.587700 1_555
Ca3 O11 2.641502 1_555
Ca3 O6 2.821004 1_564
Ca3 O8 3.013641 1_555
Ca4 O11 2.230079 1_555
Ca4 O10 2.230079 1_554
Ca4 O7 2.277983 1_555
Ca4 O6 2.277983 1_554
Ca4 O1 2.418735 1_555
Ca4 O0 2.418735 1_554
Ca5 O2 2.255675 1_455
Ca5 O3 2.255675 1_555
Ca5 O8 2.341148 1_555
Ca5 O9 2.341148 1_455
Ca5 O4 2.413835 1_455
Ca5 O5 2.413835 1_555
I0 O9 1.876845 1_555
I0 O8 1.876845 1_545
I0 O0 1.885027 1_545
I0 O1 1.885027 1_555
I0 O4 1.891461 1_545
I0 O5 1.891461 1_555
O2 Ta0 2.000360 1_656
O3 Ta0 2.000360 1_565
O6 Ta0 2.001323 1_556
O7 Ta0 2.001323 1_665
O10 Ta0 1.981450 1_656
O11 Ta0 1.981450 1_565
