# generated using pymatgen
data_Rb2LiScBi2
_symmetry_space_group_name_H-M   'P 1'
_cell_length_a   11.10758134
_cell_length_b   11.10758055
_cell_length_c   7.19645053
_cell_angle_alpha   90.00000000
_cell_angle_beta   90.00000000
_cell_angle_gamma   99.54688534
_symmetry_Int_Tables_number   1
_chemical_formula_structural   Rb2LiScBi2
_chemical_formula_sum   'Rb8 Li4 Sc4 Bi8'
_cell_volume   875.58918842
_cell_formula_units_Z   4
loop_
 _symmetry_equiv_pos_site_id
 _symmetry_equiv_pos_as_xyz
  1  'x, y, z'
loop_
 _atom_site_type_symbol
 _atom_site_label
 _atom_site_symmetry_multiplicity
 _atom_site_fract_x
 _atom_site_fract_y
 _atom_site_fract_z
 _atom_site_occupancy
  Rb  Rb0  1  0.07365566  0.42634434  0.75000000  1
  Rb  Rb1  1  0.67357061  0.32642939  0.78232832  1
  Rb  Rb2  1  0.32642939  0.67357061  0.21767168  1
  Rb  Rb3  1  0.57365566  0.92634434  0.75000000  1
  Rb  Rb4  1  0.42634434  0.07365566  0.25000000  1
  Rb  Rb5  1  0.92634434  0.57365566  0.25000000  1
  Rb  Rb6  1  0.82642939  0.17357061  0.28232832  1
  Rb  Rb7  1  0.17357061  0.82642939  0.71767168  1
  Li  Li0  1  0.12279769  0.12279769  0.50000000  1
  Li  Li1  1  0.87720231  0.87720231  0.50000000  1
  Li  Li2  1  0.37720231  0.37720231  0.00000000  1
  Li  Li3  1  0.62279769  0.62279769  0.00000000  1
  Sc  Sc0  1  0.87103985  0.87103985  0.00000000  1
  Sc  Sc1  1  0.37103985  0.37103985  0.50000000  1
  Sc  Sc2  1  0.62896015  0.62896015  0.50000000  1
  Sc  Sc3  1  0.12896015  0.12896015  0.00000000  1
  Bi  Bi0  1  0.84150436  0.65849564  0.75000000  1
  Bi  Bi1  1  0.09343307  0.90656693  0.22936847  1
  Bi  Bi2  1  0.40656693  0.59343307  0.72936847  1
  Bi  Bi3  1  0.59343307  0.40656693  0.27063153  1
  Bi  Bi4  1  0.65849564  0.84150436  0.25000000  1
  Bi  Bi5  1  0.15849564  0.34150436  0.25000000  1
  Bi  Bi6  1  0.34150436  0.15849564  0.75000000  1
  Bi  Bi7  1  0.90656693  0.09343307  0.77063153  1
loop_
_geom_bond_atom_site_label_1
_geom_bond_atom_site_label_2
_geom_bond_distance
_geom_bond_site_symmetry_2
Bi0 Sc0 2.942982 1_556
Bi0 Sc2 2.942982 1_555
Bi0 Li1 2.996000 1_555
Bi0 Li3 2.996000 1_556
Bi0 Rb1 3.854356 1_555
Bi0 Rb7 3.854357 1_655
Bi0 Rb5 3.875295 1_555
Bi0 Rb5 3.875295 1_556
Bi0 Rb0 3.937566 1_655
Bi1 Sc3 2.942638 1_565
Bi1 Sc0 2.942638 1_455
Bi1 Li0 3.067290 1_565
Bi1 Li1 3.067290 1_455
Bi1 Rb7 3.767765 1_555
Bi1 Rb5 3.855397 1_455
Bi1 Rb4 3.855397 1_565
Bi1 Rb7 3.925249 1_554
Bi1 Rb2 3.952795 1_555
Bi2 Sc1 2.942638 1_555
Bi2 Sc2 2.942638 1_555
Bi2 Li2 3.067290 1_556
Bi2 Li3 3.067290 1_556
Bi2 Rb2 3.767765 1_556
Bi2 Rb3 3.855397 1_555
Bi2 Rb0 3.855397 1_555
Bi2 Rb2 3.925249 1_555
Bi2 Rb7 3.952795 1_555
Bi3 Sc2 2.942638 1_555
Bi3 Sc1 2.942638 1_555
Bi3 Li3 3.067290 1_555
Bi3 Li2 3.067290 1_555
Bi3 Rb1 3.767765 1_554
Bi3 Rb4 3.855397 1_555
Bi3 Rb5 3.855397 1_555
Bi3 Rb1 3.925249 1_555
Bi3 Rb6 3.952795 1_555
Bi4 Sc2 2.942982 1_555
Bi4 Sc0 2.942982 1_555
Bi4 Li3 2.996000 1_555
Bi4 Li1 2.996000 1_555
Bi4 Rb6 3.854356 1_565
Bi4 Rb2 3.854357 1_555
Bi4 Rb3 3.875295 1_555
Bi4 Rb3 3.875295 1_554
Bi4 Rb4 3.937566 1_565
Bi5 Sc3 2.942982 1_555
Bi5 Sc1 2.942982 1_555
Bi5 Li0 2.996000 1_555
Bi5 Li2 2.996000 1_555
Bi5 Rb2 3.854356 1_555
Bi5 Rb6 3.854357 1_455
Bi5 Rb0 3.875295 1_554
Bi5 Rb0 3.875295 1_555
Bi5 Rb5 3.937566 1_455
Bi6 Sc1 2.942982 1_555
Bi6 Sc3 2.942982 1_556
Bi6 Li2 2.996000 1_556
Bi6 Li0 2.996000 1_555
Bi6 Rb7 3.854356 1_545
Bi6 Rb1 3.854357 1_555
Bi6 Rb4 3.875295 1_555
Bi6 Rb4 3.875295 1_556
Bi6 Rb3 3.937566 1_545
Bi7 Sc0 2.942638 1_546
Bi7 Sc3 2.942638 1_656
Bi7 Li1 3.067290 1_545
Bi7 Li0 3.067290 1_655
Bi7 Rb6 3.767765 1_555
Bi7 Rb0 3.855397 1_655
Bi7 Rb3 3.855397 1_545
Bi7 Rb6 3.925249 1_556
Bi7 Rb1 3.952795 1_555
