# generated using pymatgen
data_ReTcF14
_symmetry_space_group_name_H-M   'P 1'
_cell_length_a   5.07793034
_cell_length_b   5.08065523
_cell_length_c   9.16482017
_cell_angle_alpha   92.03808361
_cell_angle_beta   92.25554955
_cell_angle_gamma   114.35650397
_symmetry_Int_Tables_number   1
_chemical_formula_structural   ReTcF14
_chemical_formula_sum   'Re1 Tc1 F14'
_cell_volume   214.88524244
_cell_formula_units_Z   1
loop_
 _symmetry_equiv_pos_site_id
 _symmetry_equiv_pos_as_xyz
  1  'x, y, z'
loop_
 _atom_site_type_symbol
 _atom_site_label
 _atom_site_symmetry_multiplicity
 _atom_site_fract_x
 _atom_site_fract_y
 _atom_site_fract_z
 _atom_site_occupancy
  Re  Re0  1  0.85779401  0.13010745  0.24742247  1
  Tc  Tc0  1  0.14187810  0.86984532  0.75265568  1
  F  F0  1  0.84210044  0.58332261  0.65000673  1
  F  F1  1  0.16307993  0.42032985  0.35105121  1
  F  F2  1  0.42642595  0.15810393  0.86234759  1
  F  F3  1  0.57134788  0.83811937  0.13528564  1
  F  F4  1  0.94205683  0.72676371  0.91833588  1
  F  F5  1  0.06131625  0.27568972  0.08082233  1
  F  F6  1  0.21049181  0.14258430  0.61210286  1
  F  F7  1  0.78347128  0.85223184  0.38837587  1
  F  F8  1  0.29717796  0.63266634  0.83539297  1
  F  F9  1  0.69782546  0.36585084  0.16265459  1
  F  F10  1  0.36578656  0.79753193  0.61508811  1
  F  F11  1  0.63716501  0.20869052  0.38750033  1
  F  F12  1  0.89380528  0.05269579  0.78096772  1
  F  F13  1  0.10827825  0.94546948  0.21998903  1
loop_
_geom_bond_atom_site_label_1
_geom_bond_atom_site_label_2
_geom_bond_distance
_geom_bond_site_symmetry_2
F0 Tc0 1.812037 1_655
F1 Re0 1.838066 1_455
F2 Tc0 1.810745 1_545
F3 Re0 1.834867 1_565
F4 Tc0 1.858772 1_655
F5 Re0 1.876295 1_455
F6 Tc0 1.861427 1_545
F7 Re0 1.879622 1_565
F8 Tc0 1.857605 1_555
F9 Re0 1.875355 1_555
F10 Tc0 1.855194 1_555
F11 Re0 1.873065 1_555
F12 Tc0 1.868434 1_645
F13 Re0 1.885103 1_465
