# generated using pymatgen
data_CsLiCO3
_symmetry_space_group_name_H-M   'P 1'
_cell_length_a   7.13358117
_cell_length_b   7.26721713
_cell_length_c   8.02194291
_cell_angle_alpha   62.27606932
_cell_angle_beta   90.00000000
_cell_angle_gamma   90.00000000
_symmetry_Int_Tables_number   1
_chemical_formula_structural   CsLiCO3
_chemical_formula_sum   'Cs4 Li4 C4 O12'
_cell_volume   368.12593908
_cell_formula_units_Z   4
loop_
 _symmetry_equiv_pos_site_id
 _symmetry_equiv_pos_as_xyz
  1  'x, y, z'
loop_
 _atom_site_type_symbol
 _atom_site_label
 _atom_site_symmetry_multiplicity
 _atom_site_fract_x
 _atom_site_fract_y
 _atom_site_fract_z
 _atom_site_occupancy
  Cs  Cs0  1  0.63379043  0.16256108  0.67850203  1
  Cs  Cs1  1  0.13379043  0.83743892  0.82149797  1
  Cs  Cs2  1  0.36620957  0.83743892  0.32149797  1
  Cs  Cs3  1  0.86620957  0.16256108  0.17850203  1
  Li  Li0  1  0.42377309  0.41686420  0.18487770  1
  Li  Li1  1  0.57622691  0.58313580  0.81512230  1
  Li  Li2  1  0.92377309  0.58313580  0.31512230  1
  Li  Li3  1  0.07622691  0.41686420  0.68487770  1
  C  C0  1  0.33149364  0.32278438  0.89855974  1
  C  C1  1  0.66850636  0.67721562  0.10144026  1
  C  C2  1  0.83149364  0.67721562  0.60144026  1
  C  C3  1  0.16850636  0.32278438  0.39855974  1
  O  O0  1  0.33448439  0.49484999  0.73914712  1
  O  O1  1  0.66551561  0.50515001  0.26085288  1
  O  O2  1  0.46523101  0.29101694  0.01828939  1
  O  O3  1  0.16551561  0.49484999  0.23914712  1
  O  O4  1  0.83448439  0.50515001  0.76085288  1
  O  O5  1  0.30091250  0.19145068  0.42954918  1
  O  O6  1  0.19908750  0.19145068  0.92954918  1
  O  O7  1  0.03476899  0.29101694  0.51828939  1
  O  O8  1  0.53476899  0.70898306  0.98171061  1
  O  O9  1  0.80091250  0.80854932  0.07045082  1
  O  O10  1  0.96523101  0.70898306  0.48171061  1
  O  O11  1  0.69908750  0.80854932  0.57045082  1
loop_
_geom_bond_atom_site_label_1
_geom_bond_atom_site_label_2
_geom_bond_distance
_geom_bond_site_symmetry_2
Cs0 O5 3.046490 1_555
Cs0 O7 3.096595 1_655
Cs0 O11 3.108337 1_545
Cs0 O1 3.116671 1_555
Cs0 O8 3.133802 1_545
Cs0 O4 3.196061 1_555
Cs0 O9 3.224859 1_546
Cs1 O9 3.046490 1_456
Cs1 O8 3.096595 1_555
Cs1 O6 3.108337 1_565
Cs1 O3 3.116671 1_556
Cs1 O7 3.133802 1_565
Cs1 O0 3.196061 1_555
Cs1 O5 3.224859 1_565
Cs2 O11 3.046490 1_555
Cs2 O10 3.096595 1_455
Cs2 O5 3.108337 1_565
Cs2 O0 3.116671 1_555
Cs2 O2 3.133802 1_565
Cs2 O3 3.196061 1_555
Cs2 O6 3.224859 1_564
Cs3 O6 3.046490 1_654
Cs3 O2 3.096595 1_555
Cs3 O9 3.108337 1_545
Cs3 O4 3.116671 1_554
Cs3 O10 3.133802 1_545
Cs3 O1 3.196061 1_555
Cs3 O11 3.224859 1_545
Li0 O2 1.961350 1_555
Li0 O1 2.029971 1_555
Li0 O3 2.033311 1_555
Li0 O5 2.076641 1_555
Li0 O8 2.137918 1_554
Li1 O8 1.961350 1_555
Li1 O0 2.029971 1_555
Li1 O4 2.033311 1_555
Li1 O11 2.076641 1_555
Li1 O2 2.137918 1_556
Li2 O10 1.961350 1_555
Li2 O3 2.029971 1_655
Li2 O1 2.033311 1_555
Li2 O9 2.076641 1_555
Li2 O7 2.137918 1_655
Li3 O7 1.961350 1_555
Li3 O4 2.029971 1_455
Li3 O0 2.033311 1_555
Li3 O6 2.076641 1_555
Li3 O10 2.137918 1_455
C0 O6 1.282231 1_555
C0 O2 1.296013 1_556
C0 O0 1.308272 1_555
C1 O9 1.282231 1_555
C1 O8 1.296013 1_554
C1 O1 1.308272 1_555
C2 O11 1.282231 1_555
C2 O10 1.296013 1_555
C2 O4 1.308272 1_555
C3 O5 1.282231 1_555
C3 O7 1.296013 1_555
C3 O3 1.308272 1_555
