# generated using pymatgen
data_Zr4ReBi2
_symmetry_space_group_name_H-M   'P 1'
_cell_length_a   8.40439599
_cell_length_b   8.40439623
_cell_length_c   8.40439629
_cell_angle_alpha   95.97998477
_cell_angle_beta   95.97999047
_cell_angle_gamma   142.33882953
_symmetry_Int_Tables_number   1
_chemical_formula_structural   Zr4ReBi2
_chemical_formula_sum   'Zr8 Re2 Bi4'
_cell_volume   343.29245284
_cell_formula_units_Z   2
loop_
 _symmetry_equiv_pos_site_id
 _symmetry_equiv_pos_as_xyz
  1  'x, y, z'
loop_
 _atom_site_type_symbol
 _atom_site_label
 _atom_site_symmetry_multiplicity
 _atom_site_fract_x
 _atom_site_fract_y
 _atom_site_fract_z
 _atom_site_occupancy
  Zr  Zr0  1  0.08397816  0.20286730  0.28684447  1
  Zr  Zr1  1  0.91602184  0.79713270  0.71315553  1
  Zr  Zr2  1  0.79713270  0.08397816  0.88110986  1
  Zr  Zr3  1  0.41602184  0.70286730  0.11889014  1
  Zr  Zr4  1  0.20286730  0.91602184  0.11889014  1
  Zr  Zr5  1  0.58397816  0.29713270  0.88110986  1
  Zr  Zr6  1  0.70286730  0.58397816  0.28684447  1
  Zr  Zr7  1  0.29713270  0.41602184  0.71315553  1
  Re  Re0  1  0.25000000  0.25000000  0.00000000  1
  Re  Re1  1  0.75000000  0.75000000  0.00000000  1
  Bi  Bi0  1  0.14175275  0.64175275  0.78350449  1
  Bi  Bi1  1  0.85824725  0.35824725  0.21649551  1
  Bi  Bi2  1  0.35824725  0.14175275  0.50000000  1
  Bi  Bi3  1  0.64175275  0.85824725  0.50000000  1
loop_
_geom_bond_atom_site_label_1
_geom_bond_atom_site_label_2
_geom_bond_distance
_geom_bond_site_symmetry_2
Re0 Re1 2.712695 1_555
Re0 Re1 2.712695 1_445
Re0 Zr7 2.817855 1_554
Re0 Zr0 2.817855 1_555
Re0 Zr6 2.817858 1_555
Re0 Zr1 2.817858 1_444
Re0 Zr2 2.817864 1_454
Re0 Zr3 2.817864 1_555
Re0 Zr4 2.817867 1_545
Re0 Zr5 2.817867 1_554
Re1 Zr6 2.817855 1_555
Re1 Zr1 2.817855 1_554
Re1 Zr7 2.817858 1_554
Re1 Zr0 2.817858 1_665
Re1 Zr4 2.817864 1_655
Re1 Zr5 2.817864 1_554
Re1 Zr2 2.817867 1_564
Re1 Zr3 2.817867 1_555
Bi0 Zr1 3.082787 1_455
Bi0 Zr7 3.082788 1_555
Bi0 Zr3 3.161062 1_556
Bi0 Zr4 3.161062 1_556
Bi0 Zr5 3.291872 1_455
Bi0 Zr2 3.291872 1_565
Bi0 Zr2 3.291872 1_455
Bi0 Zr5 3.291872 1_565
Bi1 Zr0 3.082787 1_655
Bi1 Zr6 3.082788 1_555
Bi1 Zr5 3.161062 1_554
Bi1 Zr2 3.161062 1_554
Bi1 Zr3 3.291872 1_655
Bi1 Zr4 3.291872 1_545
Bi1 Zr4 3.291872 1_655
Bi1 Zr3 3.291872 1_545
Bi2 Zr5 3.082783 1_555
Bi2 Zr4 3.082783 1_545
Bi2 Zr0 3.161052 1_555
Bi2 Zr7 3.161053 1_555
Bi2 Zr6 3.291874 1_445
Bi2 Zr1 3.291874 1_555
Bi2 Zr1 3.291879 1_445
Bi2 Zr6 3.291879 1_555
Bi3 Zr3 3.082783 1_555
Bi3 Zr2 3.082783 1_565
Bi3 Zr1 3.161052 1_555
Bi3 Zr6 3.161053 1_555
Bi3 Zr7 3.291874 1_665
Bi3 Zr0 3.291874 1_555
Bi3 Zr0 3.291879 1_665
Bi3 Zr7 3.291879 1_555
