# generated using pymatgen
data_Na5GaSe3S
_symmetry_space_group_name_H-M   'P 1'
_cell_length_a   8.95788535
_cell_length_b   6.87863159
_cell_length_c   7.95287913
_cell_angle_alpha   89.24811594
_cell_angle_beta   90.00000000
_cell_angle_gamma   90.00000000
_symmetry_Int_Tables_number   1
_chemical_formula_structural   Na5GaSe3S
_chemical_formula_sum   'Na10 Ga2 Se6 S2'
_cell_volume   489.99825799
_cell_formula_units_Z   2
loop_
 _symmetry_equiv_pos_site_id
 _symmetry_equiv_pos_as_xyz
  1  'x, y, z'
loop_
 _atom_site_type_symbol
 _atom_site_label
 _atom_site_symmetry_multiplicity
 _atom_site_fract_x
 _atom_site_fract_y
 _atom_site_fract_z
 _atom_site_occupancy
  Na  Na0  1  0.48022052  0.34929141  0.66940479  1
  Na  Na1  1  0.98022052  0.65070859  0.33059521  1
  Na  Na2  1  0.51977948  0.65070859  0.33059521  1
  Na  Na3  1  0.01977948  0.34929141  0.66940479  1
  Na  Na4  1  0.75000000  0.03702731  0.54133627  1
  Na  Na5  1  0.25000000  0.96297269  0.45866373  1
  Na  Na6  1  0.75000000  0.33239957  0.14741938  1
  Na  Na7  1  0.25000000  0.66760043  0.85258062  1
  Na  Na8  1  0.00000000  0.00000000  0.00000000  1
  Na  Na9  1  0.50000000  0.00000000  0.00000000  1
  Ga  Ga0  1  0.25000000  0.36481927  0.18184489  1
  Ga  Ga1  1  0.75000000  0.63518073  0.81815511  1
  Se  Se0  1  0.25000000  0.24234652  0.89592204  1
  Se  Se1  1  0.75000000  0.75765348  0.10407796  1
  Se  Se2  1  0.97334638  0.76939640  0.67770721  1
  Se  Se3  1  0.47334638  0.23060360  0.32229279  1
  Se  Se4  1  0.02665362  0.23060360  0.32229279  1
  Se  Se5  1  0.52665362  0.76939640  0.67770721  1
  S  S0  1  0.75000000  0.30203183  0.81246839  1
  S  S1  1  0.25000000  0.69796817  0.18753161  1
loop_
_geom_bond_atom_site_label_1
_geom_bond_atom_site_label_2
_geom_bond_distance
_geom_bond_site_symmetry_2
Na0 S0 2.688996 1_555
Na0 Se0 2.829256 1_555
Na0 Se3 2.889645 1_555
Na0 Se5 2.921133 1_555
Na1 S1 2.688996 1_655
Na1 Se1 2.829256 1_555
Na1 Se2 2.889645 1_555
Na1 Se4 2.921133 1_655
Na2 S1 2.688996 1_555
Na2 Se1 2.829256 1_555
Na2 Se5 2.889645 1_555
Na2 Se3 2.921133 1_555
Na3 S0 2.688996 1_455
Na3 Se0 2.829256 1_555
Na3 Se4 2.889645 1_555
Na3 Se2 2.921133 1_455
Na4 S0 2.841752 1_555
Na4 Se2 2.918170 1_545
Na4 Se5 2.918170 1_545
Na4 Se4 3.299759 1_655
Na4 Se3 3.299759 1_555
Na5 S1 2.841752 1_555
Na5 Se3 2.918170 1_565
Na5 Se4 2.918170 1_565
Na5 Se5 3.299759 1_555
Na5 Se2 3.299759 1_455
Na6 S0 2.674734 1_554
Na6 Se4 2.922423 1_655
Na6 Se3 2.922423 1_555
Na6 Se1 2.940908 1_555
Na7 S1 2.674734 1_556
Na7 Se5 2.922423 1_555
Na7 Se2 2.922423 1_455
Na7 Se0 2.940908 1_555
Na8 Se0 2.905696 1_554
Na8 Se1 2.905696 1_445
Na8 Se4 3.041320 1_555
Na8 Se2 3.041320 1_444
Na9 Se0 2.905696 1_554
Na9 Se1 2.905696 1_545
Na9 Se3 3.041320 1_555
Na9 Se5 3.041320 1_544
Ga0 S1 2.292648 1_555
Ga0 Se0 2.435294 1_554
Ga0 Se3 2.464899 1_555
Ga0 Se4 2.464899 1_555
Ga1 S0 2.292648 1_555
Ga1 Se1 2.435294 1_556
Ga1 Se2 2.464899 1_555
Ga1 Se5 2.464899 1_555
