# generated using pymatgen
data_NbSb(NF10)2
_symmetry_space_group_name_H-M   'P 1'
_cell_length_a   5.74305688
_cell_length_b   7.41841595
_cell_length_c   8.87719480
_cell_angle_alpha   90.41228894
_cell_angle_beta   109.56111989
_cell_angle_gamma   94.42254712
_symmetry_Int_Tables_number   1
_chemical_formula_structural   NbSb(NF10)2
_chemical_formula_sum   'Nb1 Sb1 N2 F20'
_cell_volume   355.09855862
_cell_formula_units_Z   1
loop_
 _symmetry_equiv_pos_site_id
 _symmetry_equiv_pos_as_xyz
  1  'x, y, z'
loop_
 _atom_site_type_symbol
 _atom_site_label
 _atom_site_symmetry_multiplicity
 _atom_site_fract_x
 _atom_site_fract_y
 _atom_site_fract_z
 _atom_site_occupancy
  Nb  Nb0  1  0.98343272  0.74655182  0.29236177  1
  Sb  Sb0  1  0.01512057  0.25420482  0.70884346  1
  N  N0  1  0.30223225  0.26013480  0.21932226  1
  N  N1  1  0.69830312  0.73927168  0.78181116  1
  F  F0  1  0.07286749  0.24435929  0.22175634  1
  F  F1  1  0.92778514  0.75647682  0.78049225  1
  F  F2  1  0.35083086  0.10989118  0.15708901  1
  F  F3  1  0.64631810  0.88906613  0.84280030  1
  F  F4  1  0.94566494  0.20668060  0.90116193  1
  F  F5  1  0.05352617  0.79332846  0.09493703  1
  F  F6  1  0.08406239  0.30549862  0.51988644  1
  F  F7  1  0.90827100  0.69623409  0.48216387  1
  F  F8  1  0.80127891  0.04883961  0.60746674  1
  F  F9  1  0.20670250  0.95307896  0.39407522  1
  F  F10  1  0.28605865  0.10991681  0.78398443  1
  F  F11  1  0.71150727  0.89554328  0.21093262  1
  F  F12  1  0.21846608  0.46354854  0.81417392  1
  F  F13  1  0.78084012  0.53152072  0.18444377  1
  F  F14  1  0.73920112  0.39605893  0.64408917  1
  F  F15  1  0.26532467  0.60228247  0.35671722  1
  F  F16  1  0.67219224  0.60179726  0.87138381  1
  F  F17  1  0.32792258  0.39743443  0.12953260  1
  F  F18  1  0.54054715  0.70959382  0.63378404  1
  F  F19  1  0.46154495  0.28868585  0.36678864  1
loop_
_geom_bond_atom_site_label_1
_geom_bond_atom_site_label_2
_geom_bond_distance
_geom_bond_site_symmetry_2
F0 N0 1.320850 1_555
F1 N1 1.318247 1_555
F2 N0 1.329564 1_555
F3 N1 1.329607 1_555
F4 Sb0 1.908165 1_655
F5 Nb0 1.952850 1_455
F6 Sb0 1.883066 1_555
F7 Nb0 1.906780 1_555
F8 Sb0 1.894934 1_655
F9 Nb0 1.925780 1_455
F10 Sb0 1.893138 1_555
F11 Nb0 1.924787 1_555
F12 Sb0 1.902134 1_555
F13 Nb0 1.939465 1_555
F14 Sb0 1.898627 1_655
F15 Nb0 1.936339 1_455
F16 N1 1.327692 1_555
F17 N0 1.327327 1_555
F18 N1 1.328132 1_555
F19 N0 1.326566 1_555
