# generated using pymatgen
data_YMnFeSi2
_symmetry_space_group_name_H-M   'P 1'
_cell_length_a   5.75347843
_cell_length_b   5.75347823
_cell_length_c   5.75347799
_cell_angle_alpha   139.98072199
_cell_angle_beta   139.98072505
_cell_angle_gamma   57.88257182
_symmetry_Int_Tables_number   1
_chemical_formula_structural   YMnFeSi2
_chemical_formula_sum   'Y1 Mn1 Fe1 Si2'
_cell_volume   78.05878220
_cell_formula_units_Z   1
loop_
 _symmetry_equiv_pos_site_id
 _symmetry_equiv_pos_as_xyz
  1  'x, y, z'
loop_
 _atom_site_type_symbol
 _atom_site_label
 _atom_site_symmetry_multiplicity
 _atom_site_fract_x
 _atom_site_fract_y
 _atom_site_fract_z
 _atom_site_occupancy
  Y  Y0  1  0.00000000  0.00000000  0.00000000  1
  Mn  Mn0  1  0.75000000  0.25000000  0.50000000  1
  Fe  Fe0  1  0.25000000  0.75000000  0.50000000  1
  Si  Si0  1  0.62185440  0.62185440  0.00000000  1
  Si  Si1  1  0.37814460  0.37814460  1.00000000  1
loop_
_geom_bond_atom_site_label_1
_geom_bond_atom_site_label_2
_geom_bond_distance
_geom_bond_site_symmetry_2
Mn0 Si1 2.353930 1_554
Mn0 Si1 2.353930 1_655
Mn0 Si0 2.353936 1_556
Mn0 Si0 2.353936 1_545
Mn0 Y0 3.195864 1_656
Mn0 Y0 3.195864 1_655
Mn0 Y0 3.195864 1_666
Mn0 Y0 3.195864 1_555
Fe0 Si1 2.353930 1_554
Fe0 Si1 2.353930 1_565
Fe0 Si0 2.353935 1_556
Fe0 Si0 2.353936 1_455
Fe0 Mn0 2.784183 1_454
Fe0 Mn0 2.784183 1_566
Fe0 Mn0 2.784184 1_555
Fe0 Mn0 2.784184 1_465
Fe0 Y0 3.195864 1_565
Fe0 Y0 3.195864 1_566
Fe0 Y0 3.195864 1_555
Fe0 Y0 3.195864 1_666
Si0 Si1 2.454139 1_554
Si0 Y0 3.042591 1_666
Si0 Y0 3.042591 1_554
Si0 Y0 3.042592 1_655
Si0 Y0 3.042592 1_565
Si1 Y0 3.042595 1_555
Si1 Y0 3.042595 1_667
Si1 Y0 3.042596 1_566
Si1 Y0 3.042596 1_656
