# generated using pymatgen
data_Ti2Nb(GaIr)3
_symmetry_space_group_name_H-M   'P 1'
_cell_length_a   14.58285828
_cell_length_b   14.66297661
_cell_length_c   5.88989347
_cell_angle_alpha   90.00000000
_cell_angle_beta   90.00000000
_cell_angle_gamma   119.81941673
_symmetry_Int_Tables_number   1
_chemical_formula_structural   Ti2Nb(GaIr)3
_chemical_formula_sum   'Ti16 Nb8 Ga24 Ir24'
_cell_volume   1092.67315074
_cell_formula_units_Z   8
loop_
 _symmetry_equiv_pos_site_id
 _symmetry_equiv_pos_as_xyz
  1  'x, y, z'
loop_
 _atom_site_type_symbol
 _atom_site_label
 _atom_site_symmetry_multiplicity
 _atom_site_fract_x
 _atom_site_fract_y
 _atom_site_fract_z
 _atom_site_occupancy
  Ti  Ti0_0  1  0.49968410  0.18774841  0.25000000  1
  Ti  Ti0_1  1  0.49968410  0.18774841  0.75000000  1
  Ti  Ti0_2  1  0.49968410  0.68774841  0.25000000  1
  Ti  Ti0_3  1  0.49968410  0.68774841  0.75000000  1
  Ti  Ti0_4  1  0.99968410  0.18774841  0.25000000  1
  Ti  Ti0_5  1  0.99968410  0.18774841  0.75000000  1
  Ti  Ti0_6  1  0.99968410  0.68774841  0.25000000  1
  Ti  Ti0_7  1  0.99968410  0.68774841  0.75000000  1
  Ti  Ti1_0  1  0.31193569  0.31225159  0.25000000  1
  Ti  Ti1_1  1  0.31193569  0.31225159  0.75000000  1
  Ti  Ti1_2  1  0.31193569  0.81225159  0.25000000  1
  Ti  Ti1_3  1  0.31193569  0.81225159  0.75000000  1
  Ti  Ti1_4  1  0.81193569  0.31225159  0.25000000  1
  Ti  Ti1_5  1  0.81193569  0.31225159  0.75000000  1
  Ti  Ti1_6  1  0.81193569  0.81225159  0.25000000  1
  Ti  Ti1_7  1  0.81193569  0.81225159  0.75000000  1
  Nb  Nb0_0  1  0.18608801  0.00000000  0.25000000  1
  Nb  Nb0_1  1  0.18608801  0.00000000  0.75000000  1
  Nb  Nb0_2  1  0.18608801  0.50000000  0.25000000  1
  Nb  Nb0_3  1  0.18608801  0.50000000  0.75000000  1
  Nb  Nb0_4  1  0.68608801  0.00000000  0.25000000  1
  Nb  Nb0_5  1  0.68608801  0.00000000  0.75000000  1
  Nb  Nb0_6  1  0.68608801  0.50000000  0.25000000  1
  Nb  Nb0_7  1  0.68608801  0.50000000  0.75000000  1
  Ga  Ga0_0  1  0.35404280  0.00000000  0.00000000  1
  Ga  Ga0_1  1  0.35404280  0.00000000  0.50000000  1
  Ga  Ga0_2  1  0.35404280  0.50000000  0.00000000  1
  Ga  Ga0_3  1  0.35404280  0.50000000  0.50000000  1
  Ga  Ga0_4  1  0.85404280  0.00000000  0.00000000  1
  Ga  Ga0_5  1  0.85404280  0.00000000  0.50000000  1
  Ga  Ga0_6  1  0.85404280  0.50000000  0.00000000  1
  Ga  Ga0_7  1  0.85404280  0.50000000  0.50000000  1
  Ga  Ga1_0  1  0.14567799  0.14559922  0.00000000  1
  Ga  Ga1_1  1  0.14567799  0.14559922  0.50000000  1
  Ga  Ga1_2  1  0.14567799  0.64559922  0.00000000  1
  Ga  Ga1_3  1  0.14567799  0.64559922  0.50000000  1
  Ga  Ga1_4  1  0.64567799  0.14559922  0.00000000  1
  Ga  Ga1_5  1  0.64567799  0.14559922  0.50000000  1
  Ga  Ga1_6  1  0.64567799  0.64559922  0.00000000  1
  Ga  Ga1_7  1  0.64567799  0.64559922  0.50000000  1
  Ga  Ga2_0  1  0.00007877  0.35440078  0.00000000  1
  Ga  Ga2_1  1  0.00007877  0.35440078  0.50000000  1
  Ga  Ga2_2  1  0.00007877  0.85440078  0.00000000  1
  Ga  Ga2_3  1  0.00007877  0.85440078  0.50000000  1
  Ga  Ga2_4  1  0.50007877  0.35440078  0.00000000  1
  Ga  Ga2_5  1  0.50007877  0.35440078  0.50000000  1
  Ga  Ga2_6  1  0.50007877  0.85440078  0.00000000  1
  Ga  Ga2_7  1  0.50007877  0.85440078  0.50000000  1
  Ir  Ir0_0  1  0.33733776  0.17109248  0.00000000  1
  Ir  Ir0_1  1  0.33733776  0.17109248  0.50000000  1
  Ir  Ir0_2  1  0.33733776  0.67109248  0.00000000  1
  Ir  Ir0_3  1  0.33733776  0.67109248  0.50000000  1
  Ir  Ir0_4  1  0.83733776  0.17109248  0.00000000  1
  Ir  Ir0_5  1  0.83733776  0.17109248  0.50000000  1
  Ir  Ir0_6  1  0.83733776  0.67109248  0.00000000  1
  Ir  Ir0_7  1  0.83733776  0.67109248  0.50000000  1
  Ir  Ir1_0  1  0.16624528  0.32890752  0.00000000  1
  Ir  Ir1_1  1  0.16624528  0.32890752  0.50000000  1
  Ir  Ir1_2  1  0.16624528  0.82890752  0.00000000  1
  Ir  Ir1_3  1  0.16624528  0.82890752  0.50000000  1
  Ir  Ir1_4  1  0.66624528  0.32890752  0.00000000  1
  Ir  Ir1_5  1  0.66624528  0.32890752  0.50000000  1
  Ir  Ir1_6  1  0.66624528  0.82890752  0.00000000  1
  Ir  Ir1_7  1  0.66624528  0.82890752  0.50000000  1
  Ir  Ir2_0  1  0.49890959  0.00000000  0.25000000  1
  Ir  Ir2_1  1  0.49890959  0.00000000  0.75000000  1
  Ir  Ir2_2  1  0.49890959  0.50000000  0.25000000  1
  Ir  Ir2_3  1  0.49890959  0.50000000  0.75000000  1
  Ir  Ir2_4  1  0.99890959  0.00000000  0.25000000  1
  Ir  Ir2_5  1  0.99890959  0.00000000  0.75000000  1
  Ir  Ir2_6  1  0.99890959  0.50000000  0.25000000  1
  Ir  Ir2_7  1  0.99890959  0.50000000  0.75000000  1
loop_
_geom_bond_atom_site_label_1
_geom_bond_atom_site_label_2
_geom_bond_distance
_geom_bond_site_symmetry_2
Ti0_0 Ti0_1 2.944947 1_554
Ti0_0 Ti0_1 2.944947 1_555
Ti0_2 Ti0_3 2.944947 1_555
Ti0_2 Ti0_3 2.944947 1_554
Ti0_4 Ti0_5 2.944947 1_554
Ti0_4 Ti0_5 2.944947 1_555
Ti0_6 Ti0_7 2.944947 1_555
Ti0_6 Ti0_7 2.944947 1_554
Ti1_0 Ti1_1 2.944947 1_555
Ti1_0 Ti1_1 2.944947 1_554
Ti1_2 Ti1_3 2.944947 1_554
Ti1_2 Ti1_3 2.944947 1_555
Ti1_4 Ti1_5 2.944947 1_554
Ti1_4 Ti1_5 2.944947 1_555
Ti1_6 Ti1_7 2.944947 1_555
Ti1_6 Ti1_7 2.944947 1_554
Nb0_0 Nb0_1 2.944947 1_554
Nb0_0 Nb0_1 2.944947 1_555
Nb0_2 Nb0_3 2.944947 1_555
Nb0_2 Nb0_3 2.944947 1_554
Nb0_4 Nb0_5 2.944947 1_555
Nb0_4 Nb0_5 2.944947 1_554
Nb0_6 Nb0_7 2.944947 1_555
Nb0_6 Nb0_7 2.944947 1_554
Ga0_0 Ir2_0 2.575100 1_555
Ga0_0 Ir2_1 2.575100 1_554
Ga0_0 Ir1_2 2.638342 1_545
Ga0_0 Ir0_0 2.638342 1_555
Ga0_0 Nb0_1 2.857806 1_554
Ga0_0 Nb0_0 2.857806 1_555
Ga0_0 Ti1_2 2.905645 1_545
Ga0_0 Ti1_3 2.905645 1_544
Ga0_0 Ti0_1 2.905645 1_554
Ga0_0 Ti0_0 2.905645 1_555
Ga0_0 Ga0_1 2.944947 1_554
Ga0_0 Ga0_1 2.944947 1_555
Ga0_1 Ir2_1 2.575100 1_555
Ga0_1 Ir2_0 2.575100 1_555
Ga0_1 Ir1_3 2.638342 1_545
Ga0_1 Ir0_1 2.638342 1_555
Ga0_1 Nb0_1 2.857806 1_555
Ga0_1 Nb0_0 2.857806 1_555
Ga0_1 Ti1_3 2.905645 1_545
Ga0_1 Ti1_2 2.905645 1_545
Ga0_1 Ti0_1 2.905645 1_555
Ga0_1 Ti0_0 2.905645 1_555
Ga0_2 Ir2_2 2.575100 1_555
Ga0_2 Ir2_3 2.575100 1_554
Ga0_2 Ir1_0 2.638342 1_555
Ga0_2 Ir0_2 2.638342 1_555
Ga0_2 Nb0_2 2.857806 1_555
Ga0_2 Nb0_3 2.857806 1_554
Ga0_2 Ti1_0 2.905645 1_555
Ga0_2 Ti1_1 2.905645 1_554
Ga0_2 Ti0_3 2.905645 1_554
Ga0_2 Ti0_2 2.905645 1_555
Ga0_2 Ga0_3 2.944947 1_555
Ga0_2 Ga0_3 2.944947 1_554
Ga0_3 Ir2_2 2.575100 1_555
Ga0_3 Ir2_3 2.575100 1_555
Ga0_3 Ir0_3 2.638342 1_555
Ga0_3 Ir1_1 2.638342 1_555
Ga0_3 Nb0_3 2.857806 1_555
Ga0_3 Nb0_2 2.857806 1_555
Ga0_3 Ti1_1 2.905645 1_555
Ga0_3 Ti1_0 2.905645 1_555
Ga0_3 Ti0_2 2.905645 1_555
Ga0_3 Ti0_3 2.905645 1_555
Ga0_4 Ir2_5 2.575100 1_554
Ga0_4 Ir2_4 2.575100 1_555
Ga0_4 Ir1_6 2.638342 1_545
Ga0_4 Ir0_4 2.638342 1_555
Ga0_4 Nb0_4 2.857806 1_555
Ga0_4 Nb0_5 2.857806 1_554
Ga0_4 Ti1_6 2.905645 1_545
Ga0_4 Ti1_7 2.905645 1_544
Ga0_4 Ti0_4 2.905645 1_555
Ga0_4 Ti0_5 2.905645 1_554
Ga0_4 Ga0_5 2.944947 1_554
Ga0_4 Ga0_5 2.944947 1_555
Ga0_5 Ir2_5 2.575100 1_555
Ga0_5 Ir2_4 2.575100 1_555
Ga0_5 Ir1_7 2.638342 1_545
Ga0_5 Ir0_5 2.638342 1_555
Ga0_5 Nb0_5 2.857806 1_555
Ga0_5 Nb0_4 2.857806 1_555
Ga0_5 Ti1_7 2.905645 1_545
Ga0_5 Ti1_6 2.905645 1_545
Ga0_5 Ti0_5 2.905645 1_555
Ga0_5 Ti0_4 2.905645 1_555
Ga0_6 Ir2_6 2.575100 1_555
Ga0_6 Ir2_7 2.575100 1_554
Ga0_6 Ir1_4 2.638342 1_555
Ga0_6 Ir0_6 2.638342 1_555
Ga0_6 Nb0_7 2.857806 1_554
Ga0_6 Nb0_6 2.857806 1_555
Ga0_6 Ti1_5 2.905645 1_554
Ga0_6 Ti1_4 2.905645 1_555
Ga0_6 Ti0_7 2.905645 1_554
Ga0_6 Ti0_6 2.905645 1_555
Ga0_6 Ga0_7 2.944947 1_555
Ga0_6 Ga0_7 2.944947 1_554
Ga0_7 Ir2_6 2.575100 1_555
Ga0_7 Ir2_7 2.575100 1_555
Ga0_7 Ir1_5 2.638342 1_555
Ga0_7 Ir0_7 2.638342 1_555
Ga0_7 Nb0_6 2.857806 1_555
Ga0_7 Nb0_7 2.857806 1_555
Ga0_7 Ti1_5 2.905645 1_555
Ga0_7 Ti1_4 2.905645 1_555
Ga0_7 Ti0_6 2.905645 1_555
Ga0_7 Ti0_7 2.905645 1_555
Ga1_0 Ir1_0 2.552001 1_555
Ga1_0 Ir2_4 2.600489 1_455
Ga1_0 Ir2_5 2.600489 1_454
Ga1_0 Ir0_0 2.629144 1_555
Ga1_0 Ti1_0 2.850527 1_555
Ga1_0 Ti1_1 2.850527 1_554
Ga1_0 Nb0_1 2.885228 1_554
Ga1_0 Nb0_0 2.885228 1_555
Ga1_0 Ti0_5 2.896796 1_454
Ga1_0 Ti0_4 2.896796 1_455
Ga1_0 Ga1_1 2.944947 1_555
Ga1_0 Ga1_1 2.944947 1_554
Ga1_1 Ir1_1 2.552001 1_555
Ga1_1 Ir2_4 2.600489 1_455
Ga1_1 Ir2_5 2.600489 1_455
Ga1_1 Ir0_1 2.629144 1_555
Ga1_1 Ti1_0 2.850527 1_555
Ga1_1 Ti1_1 2.850527 1_555
Ga1_1 Nb0_1 2.885228 1_555
Ga1_1 Nb0_0 2.885228 1_555
Ga1_1 Ti0_4 2.896796 1_455
Ga1_1 Ti0_5 2.896796 1_455
Ga1_2 Ir1_2 2.552001 1_555
Ga1_2 Ir2_7 2.600489 1_454
Ga1_2 Ir2_6 2.600489 1_455
Ga1_2 Ir0_2 2.629144 1_555
Ga1_2 Ti1_3 2.850527 1_554
Ga1_2 Ti1_2 2.850527 1_555
Ga1_2 Nb0_2 2.885228 1_555
Ga1_2 Nb0_3 2.885228 1_554
Ga1_2 Ti0_6 2.896796 1_455
Ga1_2 Ti0_7 2.896796 1_454
Ga1_2 Ga1_3 2.944947 1_555
Ga1_2 Ga1_3 2.944947 1_554
Ga1_3 Ir1_3 2.552001 1_555
Ga1_3 Ir2_6 2.600489 1_455
Ga1_3 Ir2_7 2.600489 1_455
Ga1_3 Ir0_3 2.629144 1_555
Ga1_3 Ti1_3 2.850527 1_555
Ga1_3 Ti1_2 2.850527 1_555
Ga1_3 Nb0_2 2.885228 1_555
Ga1_3 Nb0_3 2.885228 1_555
Ga1_3 Ti0_7 2.896796 1_455
Ga1_3 Ti0_6 2.896796 1_455
Ga1_4 Ir1_4 2.552001 1_555
Ga1_4 Ir2_0 2.600489 1_555
Ga1_4 Ir2_1 2.600489 1_554
Ga1_4 Ir0_4 2.629144 1_555
Ga1_4 Ti1_4 2.850527 1_555
Ga1_4 Ti1_5 2.850527 1_554
Ga1_4 Nb0_5 2.885228 1_554
Ga1_4 Nb0_4 2.885228 1_555
Ga1_4 Ti0_1 2.896796 1_554
Ga1_4 Ti0_0 2.896796 1_555
Ga1_4 Ga1_5 2.944947 1_555
Ga1_4 Ga1_5 2.944947 1_554
Ga1_5 Ir1_5 2.552001 1_555
Ga1_5 Ir2_1 2.600489 1_555
Ga1_5 Ir2_0 2.600489 1_555
Ga1_5 Ir0_5 2.629144 1_555
Ga1_5 Ti1_5 2.850527 1_555
Ga1_5 Ti1_4 2.850527 1_555
Ga1_5 Nb0_5 2.885228 1_555
Ga1_5 Nb0_4 2.885228 1_555
Ga1_5 Ti0_1 2.896796 1_555
Ga1_5 Ti0_0 2.896796 1_555
Ga1_6 Ir1_6 2.552001 1_555
Ga1_6 Ir2_2 2.600489 1_555
Ga1_6 Ir2_3 2.600489 1_554
Ga1_6 Ir0_6 2.629144 1_555
Ga1_6 Ti1_6 2.850527 1_555
Ga1_6 Ti1_7 2.850527 1_554
Ga1_6 Nb0_7 2.885228 1_554
Ga1_6 Nb0_6 2.885228 1_555
Ga1_6 Ti0_3 2.896796 1_554
Ga1_6 Ti0_2 2.896796 1_555
Ga1_6 Ga1_7 2.944947 1_554
Ga1_6 Ga1_7 2.944947 1_555
Ga1_7 Ir1_7 2.552001 1_555
Ga1_7 Ir2_2 2.600489 1_555
Ga1_7 Ir2_3 2.600489 1_555
Ga1_7 Ir0_7 2.629144 1_555
Ga1_7 Ti1_7 2.850527 1_555
Ga1_7 Ti1_6 2.850527 1_555
Ga1_7 Nb0_6 2.885228 1_555
Ga1_7 Nb0_7 2.885228 1_555
Ga1_7 Ti0_2 2.896796 1_555
Ga1_7 Ti0_3 2.896796 1_555
Ga2_0 Ir0_4 2.552001 1_455
Ga2_0 Ir2_7 2.600489 1_454
Ga2_0 Ir2_6 2.600489 1_455
Ga2_0 Ir1_0 2.629144 1_555
Ga2_0 Ti0_5 2.850527 1_454
Ga2_0 Ti0_4 2.850527 1_455
Ga2_0 Nb0_3 2.885228 1_554
Ga2_0 Nb0_2 2.885228 1_555
Ga2_0 Ti1_4 2.896796 1_455
Ga2_0 Ti1_5 2.896796 1_454
Ga2_0 Ga2_1 2.944947 1_554
Ga2_0 Ga2_1 2.944947 1_555
Ga2_1 Ir0_5 2.552001 1_455
Ga2_1 Ir2_7 2.600489 1_455
Ga2_1 Ir2_6 2.600489 1_455
Ga2_1 Ir1_1 2.629144 1_555
Ga2_1 Ti0_5 2.850527 1_455
Ga2_1 Ti0_4 2.850527 1_455
Ga2_1 Nb0_3 2.885228 1_555
Ga2_1 Nb0_2 2.885228 1_555
Ga2_1 Ti1_4 2.896796 1_455
Ga2_1 Ti1_5 2.896796 1_455
Ga2_2 Ir0_6 2.552001 1_455
Ga2_2 Ir2_5 2.600489 1_464
Ga2_2 Ir2_4 2.600489 1_465
Ga2_2 Ir1_2 2.629144 1_555
Ga2_2 Ti0_6 2.850527 1_455
Ga2_2 Ti0_7 2.850527 1_454
Ga2_2 Nb0_1 2.885228 1_564
Ga2_2 Nb0_0 2.885228 1_565
Ga2_2 Ti1_6 2.896796 1_455
Ga2_2 Ti1_7 2.896796 1_454
Ga2_2 Ga2_3 2.944947 1_555
Ga2_2 Ga2_3 2.944947 1_554
Ga2_3 Ir0_7 2.552001 1_455
Ga2_3 Ir2_4 2.600489 1_465
Ga2_3 Ir2_5 2.600489 1_465
Ga2_3 Ir1_3 2.629144 1_555
Ga2_3 Ti0_6 2.850527 1_455
Ga2_3 Ti0_7 2.850527 1_455
Ga2_3 Nb0_0 2.885228 1_565
Ga2_3 Nb0_1 2.885228 1_565
Ga2_3 Ti1_6 2.896796 1_455
Ga2_3 Ti1_7 2.896796 1_455
Ga2_4 Ir0_0 2.552001 1_555
Ga2_4 Ir2_3 2.600489 1_554
Ga2_4 Ir2_2 2.600489 1_555
Ga2_4 Ir1_4 2.629144 1_555
Ga2_4 Ti0_1 2.850527 1_554
Ga2_4 Ti0_0 2.850527 1_555
Ga2_4 Nb0_7 2.885228 1_554
Ga2_4 Nb0_6 2.885228 1_555
Ga2_4 Ti1_0 2.896796 1_555
Ga2_4 Ti1_1 2.896796 1_554
Ga2_4 Ga2_5 2.944947 1_554
Ga2_4 Ga2_5 2.944947 1_555
Ga2_5 Ir0_1 2.552001 1_555
Ga2_5 Ir2_3 2.600489 1_555
Ga2_5 Ir2_2 2.600489 1_555
Ga2_5 Ir1_5 2.629144 1_555
Ga2_5 Ti0_0 2.850527 1_555
Ga2_5 Ti0_1 2.850527 1_555
Ga2_5 Nb0_7 2.885228 1_555
Ga2_5 Nb0_6 2.885228 1_555
Ga2_5 Ti1_0 2.896796 1_555
Ga2_5 Ti1_1 2.896796 1_555
Ga2_6 Ir0_2 2.552001 1_555
Ga2_6 Ir2_0 2.600489 1_565
Ga2_6 Ir2_1 2.600489 1_564
Ga2_6 Ir1_6 2.629144 1_555
Ga2_6 Ti0_3 2.850527 1_554
Ga2_6 Ti0_2 2.850527 1_555
Ga2_6 Nb0_5 2.885228 1_564
Ga2_6 Nb0_4 2.885228 1_565
Ga2_6 Ti1_2 2.896796 1_555
Ga2_6 Ti1_3 2.896796 1_554
Ga2_6 Ga2_7 2.944947 1_555
Ga2_6 Ga2_7 2.944947 1_554
Ga2_7 Ir0_3 2.552001 1_555
Ga2_7 Ir2_0 2.600489 1_565
Ga2_7 Ir2_1 2.600489 1_565
Ga2_7 Ir1_7 2.629144 1_555
Ga2_7 Ti0_2 2.850527 1_555
Ga2_7 Ti0_3 2.850527 1_555
Ga2_7 Nb0_5 2.885228 1_565
Ga2_7 Nb0_4 2.885228 1_565
Ga2_7 Ti1_2 2.896796 1_555
Ga2_7 Ti1_3 2.896796 1_555
Ir0_0 Ti0_0 2.694015 1_555
Ir0_0 Ti0_1 2.694015 1_554
Ir0_0 Ti1_0 2.711469 1_555
Ir0_0 Ti1_1 2.711469 1_554
Ir0_0 Nb0_0 2.797078 1_555
Ir0_0 Nb0_1 2.797078 1_554
Ir0_0 Ir0_1 2.944947 1_554
Ir0_0 Ir0_1 2.944947 1_555
Ir0_1 Ti0_0 2.694015 1_555
Ir0_1 Ti0_1 2.694015 1_555
Ir0_1 Ti1_0 2.711469 1_555
Ir0_1 Ti1_1 2.711469 1_555
Ir0_1 Nb0_1 2.797078 1_555
Ir0_1 Nb0_0 2.797078 1_555
Ir0_2 Ti0_2 2.694015 1_555
Ir0_2 Ti0_3 2.694015 1_554
Ir0_2 Ti1_3 2.711469 1_554
Ir0_2 Ti1_2 2.711469 1_555
Ir0_2 Nb0_3 2.797078 1_554
Ir0_2 Nb0_2 2.797078 1_555
Ir0_2 Ir0_3 2.944947 1_554
Ir0_2 Ir0_3 2.944947 1_555
Ir0_3 Ti0_2 2.694015 1_555
Ir0_3 Ti0_3 2.694015 1_555
Ir0_3 Ti1_2 2.711469 1_555
Ir0_3 Ti1_3 2.711469 1_555
Ir0_3 Nb0_3 2.797078 1_555
Ir0_3 Nb0_2 2.797078 1_555
Ir0_4 Ti0_4 2.694015 1_555
Ir0_4 Ti0_5 2.694015 1_554
Ir0_4 Ti1_5 2.711469 1_554
Ir0_4 Ti1_4 2.711469 1_555
Ir0_4 Nb0_4 2.797078 1_555
Ir0_4 Nb0_5 2.797078 1_554
Ir0_4 Ir0_5 2.944947 1_555
Ir0_4 Ir0_5 2.944947 1_554
Ir0_5 Ti0_5 2.694015 1_555
Ir0_5 Ti0_4 2.694015 1_555
Ir0_5 Ti1_5 2.711469 1_555
Ir0_5 Ti1_4 2.711469 1_555
Ir0_5 Nb0_5 2.797078 1_555
Ir0_5 Nb0_4 2.797078 1_555
Ir0_6 Ti0_6 2.694015 1_555
Ir0_6 Ti0_7 2.694015 1_554
Ir0_6 Ti1_6 2.711469 1_555
Ir0_6 Ti1_7 2.711469 1_554
Ir0_6 Nb0_7 2.797078 1_554
Ir0_6 Nb0_6 2.797078 1_555
Ir0_6 Ir0_7 2.944947 1_555
Ir0_6 Ir0_7 2.944947 1_554
Ir0_7 Ti0_6 2.694015 1_555
Ir0_7 Ti0_7 2.694015 1_555
Ir0_7 Ti1_6 2.711469 1_555
Ir0_7 Ti1_7 2.711469 1_555
Ir0_7 Nb0_7 2.797078 1_555
Ir0_7 Nb0_6 2.797078 1_555
Ir1_0 Ti1_0 2.694015 1_555
Ir1_0 Ti1_1 2.694015 1_554
Ir1_0 Ti0_4 2.711469 1_455
Ir1_0 Ti0_5 2.711469 1_454
Ir1_0 Nb0_3 2.797078 1_554
Ir1_0 Nb0_2 2.797078 1_555
Ir1_0 Ir1_1 2.944947 1_554
Ir1_0 Ir1_1 2.944947 1_555
Ir1_1 Ti1_0 2.694015 1_555
Ir1_1 Ti1_1 2.694015 1_555
Ir1_1 Ti0_4 2.711469 1_455
Ir1_1 Ti0_5 2.711469 1_455
Ir1_1 Nb0_3 2.797078 1_555
Ir1_1 Nb0_2 2.797078 1_555
Ir1_2 Ti1_3 2.694015 1_554
Ir1_2 Ti1_2 2.694015 1_555
Ir1_2 Ti0_7 2.711469 1_454
Ir1_2 Ti0_6 2.711469 1_455
Ir1_2 Nb0_1 2.797078 1_564
Ir1_2 Nb0_0 2.797078 1_565
Ir1_2 Ir1_3 2.944947 1_555
Ir1_2 Ir1_3 2.944947 1_554
Ir1_3 Ti1_2 2.694015 1_555
Ir1_3 Ti1_3 2.694015 1_555
Ir1_3 Ti0_7 2.711469 1_455
Ir1_3 Ti0_6 2.711469 1_455
Ir1_3 Nb0_1 2.797078 1_565
Ir1_3 Nb0_0 2.797078 1_565
Ir1_4 Ti1_4 2.694015 1_555
Ir1_4 Ti1_5 2.694015 1_554
Ir1_4 Ti0_1 2.711469 1_554
Ir1_4 Ti0_0 2.711469 1_555
Ir1_4 Nb0_6 2.797078 1_555
Ir1_4 Nb0_7 2.797078 1_554
Ir1_4 Ir1_5 2.944947 1_555
Ir1_4 Ir1_5 2.944947 1_554
Ir1_5 Ti1_4 2.694015 1_555
Ir1_5 Ti1_5 2.694015 1_555
Ir1_5 Ti0_1 2.711469 1_555
Ir1_5 Ti0_0 2.711469 1_555
Ir1_5 Nb0_7 2.797078 1_555
Ir1_5 Nb0_6 2.797078 1_555
Ir1_6 Ti1_7 2.694015 1_554
Ir1_6 Ti1_6 2.694015 1_555
Ir1_6 Ti0_3 2.711469 1_554
Ir1_6 Ti0_2 2.711469 1_555
Ir1_6 Nb0_5 2.797078 1_564
Ir1_6 Nb0_4 2.797078 1_565
Ir1_6 Ir1_7 2.944947 1_554
Ir1_6 Ir1_7 2.944947 1_555
Ir1_7 Ti1_6 2.694015 1_555
Ir1_7 Ti1_7 2.694015 1_555
Ir1_7 Ti0_3 2.711469 1_555
Ir1_7 Ti0_2 2.711469 1_555
Ir1_7 Nb0_5 2.797078 1_565
Ir1_7 Nb0_4 2.797078 1_565
Ir2_0 Nb0_4 2.729596 1_555
Ir2_0 Ti0_0 2.747352 1_555
Ir2_0 Ti1_2 2.747352 1_545
Ir2_0 Ir2_1 2.944947 1_554
Ir2_0 Ir2_1 2.944947 1_555
Ir2_1 Nb0_5 2.729596 1_555
Ir2_1 Ti0_1 2.747352 1_555
Ir2_1 Ti1_3 2.747352 1_545
Ir2_2 Nb0_6 2.729596 1_555
Ir2_2 Ti0_2 2.747352 1_555
Ir2_2 Ti1_0 2.747352 1_555
Ir2_2 Ir2_3 2.944947 1_555
Ir2_2 Ir2_3 2.944947 1_554
Ir2_3 Nb0_7 2.729596 1_555
Ir2_3 Ti0_3 2.747352 1_555
Ir2_3 Ti1_1 2.747352 1_555
Ir2_4 Nb0_0 2.729596 1_655
Ir2_4 Ti0_4 2.747352 1_555
Ir2_4 Ti1_6 2.747352 1_545
Ir2_4 Ir2_5 2.944947 1_554
Ir2_4 Ir2_5 2.944947 1_555
Ir2_5 Nb0_1 2.729596 1_655
Ir2_5 Ti0_5 2.747352 1_555
Ir2_5 Ti1_7 2.747352 1_545
Ir2_6 Nb0_2 2.729596 1_655
Ir2_6 Ti0_6 2.747352 1_555
Ir2_6 Ti1_4 2.747352 1_555
Ir2_6 Ir2_7 2.944947 1_554
Ir2_6 Ir2_7 2.944947 1_555
Ir2_7 Nb0_3 2.729596 1_655
Ir2_7 Ti0_7 2.747352 1_555
Ir2_7 Ti1_5 2.747352 1_555
