# generated using pymatgen
data_TcSnF6
_symmetry_space_group_name_H-M   'P 1'
_cell_length_a   6.09155564
_cell_length_b   6.09155551
_cell_length_c   6.09155532
_cell_angle_alpha   59.99999575
_cell_angle_beta   59.99999647
_cell_angle_gamma   59.99999996
_symmetry_Int_Tables_number   1
_chemical_formula_structural   TcSnF6
_chemical_formula_sum   'Tc1 Sn1 F6'
_cell_volume   159.83415545
_cell_formula_units_Z   1
loop_
 _symmetry_equiv_pos_site_id
 _symmetry_equiv_pos_as_xyz
  1  'x, y, z'
loop_
 _atom_site_type_symbol
 _atom_site_label
 _atom_site_symmetry_multiplicity
 _atom_site_fract_x
 _atom_site_fract_y
 _atom_site_fract_z
 _atom_site_occupancy
  Tc  Tc0  1  0.50000000  0.50000000  0.50000000  1
  Sn  Sn0  1  0.00000000  0.00000000  0.00000000  1
  F  F0  1  0.72601060  0.72601060  0.27398940  1
  F  F1  1  0.72601060  0.27398940  0.72601060  1
  F  F2  1  0.27398940  0.27398940  0.72601060  1
  F  F3  1  0.27398940  0.72601060  0.72601060  1
  F  F4  1  0.72601060  0.27398940  0.27398940  1
  F  F5  1  0.27398940  0.72601060  0.27398940  1
loop_
_geom_bond_atom_site_label_1
_geom_bond_atom_site_label_2
_geom_bond_distance
_geom_bond_site_symmetry_2
F0 Tc0 1.947027 1_555
F0 Sn0 2.360353 1_665
F1 Tc0 1.947027 1_555
F1 Sn0 2.360353 1_656
F2 Tc0 1.947027 1_555
F2 Sn0 2.360353 1_556
F3 Tc0 1.947027 1_555
F3 Sn0 2.360353 1_566
F4 Tc0 1.947027 1_555
F4 Sn0 2.360353 1_655
F5 Tc0 1.947027 1_555
F5 Sn0 2.360353 1_565
