# generated using pymatgen
data_Ti6Be5CuN2
_symmetry_space_group_name_H-M   'P 1'
_cell_length_a   7.67453752
_cell_length_b   7.67453642
_cell_length_c   7.66696296
_cell_angle_alpha   60.03264297
_cell_angle_beta   60.03264770
_cell_angle_gamma   60.03631573
_symmetry_Int_Tables_number   1
_chemical_formula_structural   Ti6Be5CuN2
_chemical_formula_sum   'Ti12 Be10 Cu2 N4'
_cell_volume   319.55529824
_cell_formula_units_Z   2
loop_
 _symmetry_equiv_pos_site_id
 _symmetry_equiv_pos_as_xyz
  1  'x, y, z'
loop_
 _atom_site_type_symbol
 _atom_site_label
 _atom_site_symmetry_multiplicity
 _atom_site_fract_x
 _atom_site_fract_y
 _atom_site_fract_z
 _atom_site_occupancy
  Ti  Ti0  1  0.94241721  0.55854755  0.55702819  1
  Ti  Ti1  1  0.69145245  0.30758279  0.69297181  1
  Ti  Ti2  1  0.94241721  0.55854755  0.94200705  1
  Ti  Ti3  1  0.55854755  0.94241721  0.94200705  1
  Ti  Ti4  1  0.30758279  0.69145245  0.30799295  1
  Ti  Ti5  1  0.55854755  0.94241721  0.55702819  1
  Ti  Ti6  1  0.69231063  0.69231063  0.30768937  1
  Ti  Ti7  1  0.94315121  0.94315121  0.55684879  1
  Ti  Ti8  1  0.30684879  0.30684879  0.69315121  1
  Ti  Ti9  1  0.69145245  0.30758279  0.30799295  1
  Ti  Ti10  1  0.55768937  0.55768937  0.94231063  1
  Ti  Ti11  1  0.30758279  0.69145245  0.69297181  1
  Be  Be0  1  0.22443651  0.92735013  0.92410668  1
  Be  Be1  1  0.32365545  0.32365545  0.32767897  1
  Be  Be2  1  0.32365545  0.32365545  0.02500914  1
  Be  Be3  1  0.92735013  0.22443651  0.92410668  1
  Be  Be4  1  0.92634455  0.92634455  0.92232103  1
  Be  Be5  1  0.02556349  0.32264987  0.32589332  1
  Be  Be6  1  0.92634455  0.92634455  0.22499086  1
  Be  Be7  1  0.32264987  0.02556349  0.32589332  1
  Be  Be8  1  0.12500000  0.12500000  0.62500000  1
  Be  Be9  1  0.12500000  0.12500000  0.12500000  1
  Cu  Cu0  1  0.12500000  0.62500000  0.12500000  1
  Cu  Cu1  1  0.62500000  0.12500000  0.12500000  1
  N  N0  1  0.62500000  0.12500000  0.62500000  1
  N  N1  1  0.62500000  0.62500000  0.12500000  1
  N  N2  1  0.12500000  0.62500000  0.62500000  1
  N  N3  1  0.62500000  0.62500000  0.62500000  1
loop_
_geom_bond_atom_site_label_1
_geom_bond_atom_site_label_2
_geom_bond_distance
_geom_bond_site_symmetry_2
Be0 Be3 2.281252 1_465
Be0 Be9 2.293275 1_566
Be0 Be8 2.293275 1_565
Be0 Be4 2.298463 1_455
Be0 Be6 2.298467 1_456
Be0 Cu0 2.315833 1_556
Be0 Ti3 2.696414 1_555
Be0 Ti5 2.696414 1_555
Be0 Ti10 2.705974 1_555
Be0 Ti8 2.754473 1_565
Be0 Ti11 2.783255 1_555
Be0 Ti4 2.783255 1_556
Be1 Be8 2.285392 1_555
Be1 Be7 2.298462 1_555
Be1 Be5 2.298463 1_555
Be1 Cu0 2.311302 1_555
Be1 Cu1 2.311302 1_555
Be1 Be2 2.320558 1_555
Be1 Ti8 2.679425 1_555
Be1 Ti4 2.692706 1_555
Be1 Ti9 2.692706 1_555
Be1 Ti5 2.767780 1_545
Be1 Ti0 2.767780 1_455
Be1 Ti10 2.793032 1_554
Be2 Be9 2.285389 1_555
Be2 Be7 2.298466 1_555
Be2 Be5 2.298467 1_555
Be2 Cu0 2.311306 1_555
Be2 Cu1 2.311306 1_555
Be2 Ti8 2.679417 1_554
Be2 Ti11 2.692702 1_554
Be2 Ti1 2.692703 1_554
Be2 Ti3 2.767777 1_544
Be2 Ti2 2.767777 1_454
Be2 Ti10 2.793035 1_554
Be3 Be9 2.293275 1_656
Be3 Be8 2.293275 1_655
Be3 Be4 2.298462 1_545
Be3 Be6 2.298466 1_546
Be3 Cu1 2.315834 1_556
Be3 Ti2 2.696414 1_555
Be3 Ti0 2.696414 1_555
Be3 Ti10 2.705974 1_555
Be3 Ti8 2.754473 1_655
Be3 Ti1 2.783255 1_555
Be3 Ti9 2.783255 1_556
Be4 Be8 2.285392 1_665
Be4 Cu0 2.311302 1_656
Be4 Cu1 2.311302 1_566
Be4 Be6 2.320558 1_556
Be4 Ti7 2.679425 1_555
Be4 Ti2 2.692706 1_555
Be4 Ti3 2.692706 1_555
Be4 Ti1 2.767780 1_565
Be4 Ti11 2.767780 1_655
Be4 Ti6 2.793032 1_556
Be5 Be7 2.281252 1_555
Be5 Be9 2.293275 1_555
Be5 Be8 2.293275 1_555
Be5 Cu0 2.315833 1_555
Be5 Ti9 2.696414 1_455
Be5 Ti1 2.696414 1_455
Be5 Ti6 2.705974 1_455
Be5 Ti7 2.754473 1_445
Be5 Ti0 2.783255 1_455
Be5 Ti2 2.783255 1_454
Be6 Be9 2.285389 1_665
Be6 Cu0 2.311306 1_655
Be6 Cu1 2.311306 1_565
Be6 Ti7 2.679417 1_555
Be6 Ti0 2.692702 1_555
Be6 Ti5 2.692703 1_555
Be6 Ti9 2.767777 1_565
Be6 Ti4 2.767777 1_655
Be6 Ti6 2.793035 1_555
Be7 Be9 2.293275 1_555
Be7 Be8 2.293275 1_555
Be7 Cu1 2.315834 1_555
Be7 Ti4 2.696414 1_545
Be7 Ti11 2.696414 1_545
Be7 Ti6 2.705974 1_545
Be7 Ti7 2.754473 1_445
Be7 Ti5 2.783255 1_545
Be7 Ti3 2.783255 1_544
Be8 Ti7 2.751550 1_445
Be8 Ti8 2.751550 1_555
Be8 Ti0 2.765121 1_455
Be8 Ti11 2.765121 1_545
Be8 Ti5 2.765121 1_545
Be8 Ti1 2.765121 1_455
Be9 Ti7 2.751550 1_445
Be9 Ti8 2.751550 1_554
Be9 Ti2 2.765121 1_454
Be9 Ti4 2.765121 1_545
Be9 Ti3 2.765121 1_544
Be9 Ti9 2.765121 1_455
Cu0 Ti4 2.754018 1_555
Cu0 Ti2 2.754018 1_454
Cu0 Ti0 2.754018 1_455
Cu0 Ti11 2.754018 1_554
Cu0 Ti10 2.760153 1_554
Cu0 Ti6 2.760153 1_455
Cu1 Ti9 2.754018 1_555
Cu1 Ti3 2.754018 1_544
Cu1 Ti5 2.754018 1_545
Cu1 Ti1 2.754018 1_554
Cu1 Ti10 2.760153 1_554
Cu1 Ti6 2.760153 1_545
N0 Ti1 2.050368 1_555
N0 Ti5 2.050368 1_545
N0 Ti3 2.050368 1_545
N0 Ti9 2.050368 1_555
N0 Ti7 2.057318 1_545
N0 Ti8 2.057318 1_555
N1 Ti6 2.051301 1_555
N1 Ti10 2.051301 1_554
N1 Ti3 2.054796 1_554
N1 Ti9 2.054796 1_555
N1 Ti2 2.054796 1_554
N1 Ti4 2.054796 1_555
N2 Ti11 2.050368 1_555
N2 Ti0 2.050368 1_455
N2 Ti2 2.050369 1_455
N2 Ti4 2.050369 1_555
N2 Ti8 2.057318 1_555
N2 Ti7 2.057318 1_455
N3 Ti10 2.051301 1_555
N3 Ti6 2.051301 1_555
N3 Ti5 2.054796 1_555
N3 Ti1 2.054796 1_555
N3 Ti0 2.054796 1_555
N3 Ti11 2.054796 1_555
