# generated using pymatgen
data_Tb4SiBr6
_symmetry_space_group_name_H-M   'P 1'
_cell_length_a   4.05655152
_cell_length_b   13.21068922
_cell_length_c   13.99372685
_cell_angle_alpha   90.00000000
_cell_angle_beta   90.00000000
_cell_angle_gamma   90.00000000
_symmetry_Int_Tables_number   1
_chemical_formula_structural   Tb4SiBr6
_chemical_formula_sum   'Tb8 Si2 Br12'
_cell_volume   749.92160299
_cell_formula_units_Z   2
loop_
 _symmetry_equiv_pos_site_id
 _symmetry_equiv_pos_as_xyz
  1  'x, y, z'
loop_
 _atom_site_type_symbol
 _atom_site_label
 _atom_site_symmetry_multiplicity
 _atom_site_fract_x
 _atom_site_fract_y
 _atom_site_fract_z
 _atom_site_occupancy
  Tb  Tb0  1  0.50000000  0.11849004  0.34077026  1
  Tb  Tb1  1  0.50000000  0.88150996  0.65922974  1
  Tb  Tb2  1  0.50000000  0.61849004  0.15922974  1
  Tb  Tb3  1  0.50000000  0.38150996  0.84077026  1
  Tb  Tb4  1  -0.00000000  0.11846403  0.57883270  1
  Tb  Tb5  1  -0.00000000  0.88153597  0.42116730  1
  Tb  Tb6  1  -0.00000000  0.61846403  0.92116730  1
  Tb  Tb7  1  0.00000000  0.38153597  0.07883270  1
  Si  Si0  1  0.50000000  0.00000000  0.50000000  1
  Si  Si1  1  0.50000000  0.50000000  -0.00000000  1
  Br  Br0  1  0.50000000  0.24422626  0.16351810  1
  Br  Br1  1  0.50000000  0.75577374  0.83648190  1
  Br  Br2  1  0.50000000  0.74422626  0.33648190  1
  Br  Br3  1  0.50000000  0.25577374  0.66351810  1
  Br  Br4  1  -0.00000000  0.25550540  0.41115496  1
  Br  Br5  1  -0.00000000  0.74449460  0.58884504  1
  Br  Br6  1  0.00000000  0.75550540  0.08884504  1
  Br  Br7  1  -0.00000000  0.24449460  0.91115496  1
  Br  Br8  1  0.00000000  0.00198006  0.24236839  1
  Br  Br9  1  -0.00000000  0.99801994  0.75763161  1
  Br  Br10  1  0.00000000  0.50198006  0.25763161  1
  Br  Br11  1  0.00000000  0.49801994  0.74236839  1
loop_
_geom_bond_atom_site_label_1
_geom_bond_atom_site_label_2
_geom_bond_distance
_geom_bond_site_symmetry_2
Si0 Tb1 2.723091 1_545
Si0 Tb0 2.723091 1_555
Si0 Tb4 2.789278 1_555
Si0 Tb4 2.789278 1_655
Si0 Tb5 2.789278 1_545
Si0 Tb5 2.789278 1_645
Si1 Tb2 2.723091 1_555
Si1 Tb3 2.723091 1_554
Si1 Tb6 2.789278 1_554
Si1 Tb6 2.789278 1_654
Si1 Tb7 2.789278 1_655
Si1 Tb7 2.789278 1_555
Br0 Tb7 2.967948 1_655
Br0 Tb7 2.967948 1_555
Br0 Tb0 2.985231 1_555
Br1 Tb6 2.967948 1_655
Br1 Tb6 2.967948 1_555
Br1 Tb1 2.985231 1_555
Br2 Tb5 2.967948 1_555
Br2 Tb5 2.967948 1_655
Br2 Tb2 2.985231 1_555
Br3 Tb4 2.967948 1_555
Br3 Tb4 2.967948 1_655
Br3 Tb3 2.985231 1_555
Br4 Tb0 2.891429 1_455
Br4 Tb0 2.891429 1_555
Br4 Tb4 2.963672 1_555
Br5 Tb1 2.891429 1_555
Br5 Tb1 2.891429 1_455
Br5 Tb5 2.963672 1_555
Br6 Tb2 2.891429 1_455
Br6 Tb2 2.891429 1_555
Br6 Tb6 2.963672 1_554
Br7 Tb3 2.891429 1_555
Br7 Tb3 2.891429 1_455
Br7 Tb7 2.963672 1_556
Br8 Tb0 2.894671 1_455
Br8 Tb0 2.894671 1_555
Br8 Tb5 2.965144 1_545
Br9 Tb1 2.894671 1_455
Br9 Tb1 2.894671 1_555
Br9 Tb4 2.965144 1_565
Br10 Tb2 2.894671 1_455
Br10 Tb2 2.894671 1_555
Br10 Tb7 2.965144 1_555
Br11 Tb3 2.894671 1_555
Br11 Tb3 2.894671 1_455
Br11 Tb6 2.965144 1_555
