# generated using pymatgen
data_K2Mg(HgSe2)2
_symmetry_space_group_name_H-M   'P 1'
_cell_length_a   6.78481543
_cell_length_b   10.87278233
_cell_length_c   14.33757446
_cell_angle_alpha   90.00000000
_cell_angle_beta   90.00000000
_cell_angle_gamma   90.00000000
_symmetry_Int_Tables_number   1
_chemical_formula_structural   K2Mg(HgSe2)2
_chemical_formula_sum   'K8 Mg4 Hg8 Se16'
_cell_volume   1057.68030510
_cell_formula_units_Z   4
loop_
 _symmetry_equiv_pos_site_id
 _symmetry_equiv_pos_as_xyz
  1  'x, y, z'
loop_
 _atom_site_type_symbol
 _atom_site_label
 _atom_site_symmetry_multiplicity
 _atom_site_fract_x
 _atom_site_fract_y
 _atom_site_fract_z
 _atom_site_occupancy
  K  K0  1  0.72755718  0.87477510  0.50540897  1
  K  K1  1  0.27244282  0.12522490  0.49459103  1
  K  K2  1  0.77244282  0.62522490  0.00540897  1
  K  K3  1  0.72755718  0.12522490  0.99459103  1
  K  K4  1  0.22755718  0.37477510  0.99459103  1
  K  K5  1  0.27244282  0.87477510  0.00540897  1
  K  K6  1  0.77244282  0.37477510  0.49459103  1
  K  K7  1  0.22755718  0.62522490  0.50540897  1
  Mg  Mg0  1  0.59281329  0.50000000  0.75000000  1
  Mg  Mg1  1  0.40718671  0.50000000  0.25000000  1
  Mg  Mg2  1  0.90718671  0.00000000  0.25000000  1
  Mg  Mg3  1  0.09281329  0.00000000  0.75000000  1
  Hg  Hg0  1  0.58774430  0.84063115  0.75907916  1
  Hg  Hg1  1  0.41225570  0.15936885  0.24092084  1
  Hg  Hg2  1  0.91225570  0.65936885  0.25907916  1
  Hg  Hg3  1  0.58774430  0.15936885  0.74092084  1
  Hg  Hg4  1  0.08774430  0.34063115  0.74092084  1
  Hg  Hg5  1  0.41225570  0.84063115  0.25907916  1
  Hg  Hg6  1  0.91225570  0.34063115  0.24092084  1
  Hg  Hg7  1  0.08774430  0.65936885  0.75907916  1
  Se  Se0  1  0.81914751  0.62640711  0.64013032  1
  Se  Se1  1  0.18085249  0.37359289  0.35986968  1
  Se  Se2  1  0.68085249  0.87359289  0.14013032  1
  Se  Se3  1  0.81914751  0.37359289  0.85986968  1
  Se  Se4  1  0.31914751  0.12640711  0.85986968  1
  Se  Se5  1  0.18085249  0.62640711  0.14013032  1
  Se  Se6  1  0.68085249  0.12640711  0.35986968  1
  Se  Se7  1  0.31914751  0.87359289  0.64013032  1
  Se  Se8  1  0.87889493  0.87408920  0.86561296  1
  Se  Se9  1  0.12110507  0.12591080  0.13438704  1
  Se  Se10  1  0.62110507  0.62591080  0.36561296  1
  Se  Se11  1  0.87889493  0.12591080  0.63438704  1
  Se  Se12  1  0.37889493  0.37408920  0.63438704  1
  Se  Se13  1  0.12110507  0.87408920  0.36561296  1
  Se  Se14  1  0.62110507  0.37408920  0.13438704  1
  Se  Se15  1  0.37889493  0.62591080  0.86561296  1
loop_
_geom_bond_atom_site_label_1
_geom_bond_atom_site_label_2
_geom_bond_distance
_geom_bond_site_symmetry_2
K0 Se13 3.338730 1_655
K0 Se7 3.377797 1_555
K0 Se0 3.377809 1_555
K0 Se10 3.443926 1_555
K0 Se11 3.453961 1_565
K0 Se6 3.455433 1_565
K1 Se11 3.338730 1_455
K1 Se6 3.377797 1_555
K1 Se1 3.377809 1_555
K1 Se12 3.443926 1_555
K1 Se13 3.453961 1_545
K1 Se7 3.455433 1_545
K2 Se15 3.338730 1_554
K2 Se5 3.377797 1_655
K2 Se2 3.377809 1_555
K2 Se8 3.443926 1_554
K2 Se14 3.453961 1_555
K2 Se3 3.455433 1_554
K3 Se9 3.338730 1_656
K3 Se4 3.377797 1_555
K3 Se3 3.377809 1_555
K3 Se14 3.443926 1_556
K3 Se8 3.453961 1_545
K3 Se2 3.455433 1_546
K4 Se14 3.338730 1_556
K4 Se3 3.377797 1_455
K4 Se4 3.377809 1_555
K4 Se9 3.443926 1_556
K4 Se15 3.453961 1_555
K4 Se5 3.455433 1_556
K5 Se8 3.338730 1_454
K5 Se2 3.377797 1_555
K5 Se5 3.377809 1_555
K5 Se15 3.443926 1_554
K5 Se9 3.453961 1_565
K5 Se4 3.455433 1_564
K6 Se12 3.338730 1_555
K6 Se1 3.377797 1_655
K6 Se6 3.377809 1_555
K6 Se11 3.443926 1_555
K6 Se10 3.453961 1_555
K6 Se0 3.455433 1_555
K7 Se10 3.338730 1_555
K7 Se0 3.377797 1_455
K7 Se7 3.377809 1_555
K7 Se13 3.443926 1_555
K7 Se12 3.453961 1_555
K7 Se1 3.455433 1_555
Mg0 Se15 2.593913 1_555
Mg0 Se12 2.593913 1_555
Mg0 Se0 2.593955 1_555
Mg0 Se3 2.593955 1_555
Mg1 Se10 2.593913 1_555
Mg1 Se14 2.593913 1_555
Mg1 Se5 2.593955 1_555
Mg1 Se1 2.593955 1_555
Mg2 Se13 2.593913 1_645
Mg2 Se9 2.593913 1_655
Mg2 Se6 2.593955 1_555
Mg2 Se2 2.593955 1_545
Mg3 Se8 2.593913 1_445
Mg3 Se11 2.593913 1_455
Mg3 Se4 2.593955 1_555
Mg3 Se7 2.593955 1_545
Hg0 Se7 2.521513 1_555
Hg0 Se8 2.523414 1_555
Hg0 Se15 3.129114 1_555
Hg1 Se6 2.521513 1_555
Hg1 Se9 2.523414 1_555
Hg1 Se14 3.129114 1_555
Hg2 Se5 2.521513 1_655
Hg2 Se10 2.523414 1_555
Hg2 Se13 3.129114 1_655
Hg3 Se4 2.521513 1_555
Hg3 Se11 2.523414 1_555
Hg3 Se12 3.129114 1_555
Hg4 Se3 2.521513 1_455
Hg4 Se12 2.523414 1_555
Hg4 Se11 3.129114 1_455
Hg5 Se2 2.521513 1_555
Hg5 Se13 2.523414 1_555
Hg5 Se10 3.129114 1_555
Hg6 Se1 2.521513 1_655
Hg6 Se14 2.523414 1_555
Hg6 Se9 3.129114 1_655
Hg7 Se0 2.521513 1_455
Hg7 Se15 2.523414 1_555
Hg7 Se8 3.129114 1_455
