# generated using pymatgen
data_Ti3Ga3FePt2
_symmetry_space_group_name_H-M   'P 1'
_cell_length_a   7.24862072
_cell_length_b   7.24862104
_cell_length_c   5.78798771
_cell_angle_alpha   90.00000000
_cell_angle_beta   90.00000000
_cell_angle_gamma   120.00000330
_symmetry_Int_Tables_number   1
_chemical_formula_structural   Ti3Ga3FePt2
_chemical_formula_sum   'Ti6 Ga6 Fe2 Pt4'
_cell_volume   263.37162848
_cell_formula_units_Z   2
loop_
 _symmetry_equiv_pos_site_id
 _symmetry_equiv_pos_as_xyz
  1  'x, y, z'
loop_
 _atom_site_type_symbol
 _atom_site_label
 _atom_site_symmetry_multiplicity
 _atom_site_fract_x
 _atom_site_fract_y
 _atom_site_fract_z
 _atom_site_occupancy
  Ti  Ti0  1  0.35989612  0.35978898  0.25000000  1
  Ti  Ti1  1  0.64010388  0.99989286  0.75000000  1
  Ti  Ti2  1  0.35978898  0.35989612  0.75000000  1
  Ti  Ti3  1  0.00010714  0.64021102  0.75000000  1
  Ti  Ti4  1  0.99989286  0.64010388  0.25000000  1
  Ti  Ti5  1  0.64021102  0.00010714  0.25000000  1
  Ga  Ga0  1  0.28259977  1.00000000  0.00000000  1
  Ga  Ga1  1  0.28259977  1.00000000  0.50000000  1
  Ga  Ga2  1  1.00000000  0.28259977  0.50000000  1
  Ga  Ga3  1  1.00000000  0.28259977  0.00000000  1
  Ga  Ga4  1  0.71740023  0.71740023  0.00000000  1
  Ga  Ga5  1  0.71740023  0.71740023  0.50000000  1
  Fe  Fe0  1  0.00000000  0.00000000  0.75000000  1
  Fe  Fe1  1  0.00000000  0.00000000  0.25000000  1
  Pt  Pt0  1  0.66666700  0.33333300  0.50006863  1
  Pt  Pt1  1  0.66666700  0.33333300  0.99993137  1
  Pt  Pt2  1  0.33333300  0.66666700  0.00006863  1
  Pt  Pt3  1  0.33333300  0.66666700  0.49993137  1
loop_
_geom_bond_atom_site_label_1
_geom_bond_atom_site_label_2
_geom_bond_distance
_geom_bond_site_symmetry_2
Ti0 Ti2 2.893994 1_554
Ti0 Ti2 2.893994 1_555
Ti1 Ti5 2.893994 1_566
Ti1 Ti5 2.893994 1_565
Ti3 Ti4 2.893994 1_455
Ti3 Ti4 2.893994 1_456
Ga0 Pt2 2.619510 1_555
Ga0 Pt1 2.619514 1_564
Ga0 Ti3 2.783528 1_554
Ga0 Ti0 2.783528 1_565
Ga0 Ti4 2.784385 1_455
Ga0 Ti2 2.784385 1_564
Ga0 Ga1 2.893994 1_555
Ga0 Ga1 2.893994 1_554
Ga0 Ti5 2.968371 1_565
Ga0 Ti1 2.968371 1_554
Ga1 Pt3 2.619510 1_555
Ga1 Pt0 2.619514 1_565
Ga1 Ti3 2.783528 1_555
Ga1 Ti0 2.783528 1_565
Ga1 Ti4 2.784385 1_455
Ga1 Ti2 2.784385 1_565
Ga1 Ti5 2.968371 1_565
Ga1 Ti1 2.968371 1_555
Ga2 Pt0 2.619510 1_555
Ga2 Pt3 2.619514 1_655
Ga2 Ti5 2.783528 1_555
Ga2 Ti2 2.783528 1_655
Ga2 Ti1 2.784385 1_545
Ga2 Ti0 2.784385 1_655
Ga2 Ga3 2.893994 1_555
Ga2 Ga3 2.893994 1_556
Ga2 Ti3 2.968371 1_655
Ga2 Ti4 2.968371 1_555
Ga3 Pt1 2.619510 1_554
Ga3 Pt2 2.619514 1_655
Ga3 Ti5 2.783528 1_555
Ga3 Ti2 2.783528 1_654
Ga3 Ti1 2.784385 1_544
Ga3 Ti0 2.784385 1_655
Ga3 Ti3 2.968371 1_654
Ga3 Ti4 2.968371 1_555
Ga4 Pt2 2.619517 1_555
Ga4 Pt1 2.619517 1_554
Ga4 Ti4 2.783528 1_555
Ga4 Ti1 2.783528 1_554
Ga4 Ti3 2.784385 1_654
Ga4 Ti5 2.784385 1_565
Ga4 Ga5 2.893994 1_554
Ga4 Ga5 2.893994 1_555
Ga4 Ti2 2.968371 1_554
Ga4 Ti0 2.968371 1_555
Ga5 Pt3 2.619517 1_555
Ga5 Pt0 2.619517 1_555
Ga5 Ti4 2.783528 1_555
Ga5 Ti1 2.783528 1_555
Ga5 Ti3 2.784385 1_655
Ga5 Ti5 2.784385 1_565
Ga5 Ti2 2.968371 1_555
Ga5 Ti0 2.968371 1_555
Fe0 Ga4 2.507984 1_446
Fe0 Ga5 2.507984 1_445
Fe0 Ga1 2.507984 1_545
Fe0 Ga0 2.507984 1_546
Fe0 Ga3 2.507984 1_456
Fe0 Ga2 2.507984 1_455
Fe0 Ti2 2.608362 1_555
Fe0 Ti1 2.608362 1_445
Fe0 Ti3 2.608362 1_545
Fe1 Ga4 2.507984 1_445
Fe1 Ga5 2.507984 1_445
Fe1 Ga1 2.507984 1_545
Fe1 Ga0 2.507984 1_545
Fe1 Ga2 2.507984 1_455
Fe1 Ga3 2.507984 1_455
Fe1 Ti0 2.608362 1_555
Fe1 Ti5 2.608362 1_455
Fe1 Ti4 2.608362 1_445
Pt0 Ti5 2.739126 1_555
Pt0 Ti4 2.739129 1_555
Pt0 Ti0 2.739132 1_555
Pt0 Ti1 2.739734 1_545
Pt0 Ti3 2.739737 1_655
Pt0 Ti2 2.739740 1_555
Pt1 Ti5 2.739126 1_556
Pt1 Ti4 2.739129 1_556
Pt1 Ti0 2.739132 1_556
Pt1 Ti1 2.739734 1_545
Pt1 Ti3 2.739737 1_655
Pt1 Ti2 2.739740 1_555
Pt2 Ti3 2.739126 1_554
Pt2 Ti1 2.739129 1_554
Pt2 Ti2 2.739132 1_554
Pt2 Ti4 2.739734 1_455
Pt2 Ti5 2.739737 1_565
Pt2 Ti0 2.739740 1_555
Pt3 Ti3 2.739126 1_555
Pt3 Ti1 2.739129 1_555
Pt3 Ti2 2.739132 1_555
Pt3 Ti4 2.739734 1_455
Pt3 Ti5 2.739737 1_565
Pt3 Ti0 2.739740 1_555
