# generated using pymatgen
data_Zr10BeIn6Se
_symmetry_space_group_name_H-M   'P 1'
_cell_length_a   8.70087443
_cell_length_b   8.70087550
_cell_length_c   5.87402852
_cell_angle_alpha   90.00000000
_cell_angle_beta   90.00000000
_cell_angle_gamma   119.99999595
_symmetry_Int_Tables_number   1
_chemical_formula_structural   Zr10BeIn6Se
_chemical_formula_sum   'Zr10 Be1 In6 Se1'
_cell_volume   385.11688095
_cell_formula_units_Z   1
loop_
 _symmetry_equiv_pos_site_id
 _symmetry_equiv_pos_as_xyz
  1  'x, y, z'
loop_
 _atom_site_type_symbol
 _atom_site_label
 _atom_site_symmetry_multiplicity
 _atom_site_fract_x
 _atom_site_fract_y
 _atom_site_fract_z
 _atom_site_occupancy
  Zr  Zr0  1  0.74869464  0.74869464  0.23700888  1
  Zr  Zr1  1  0.25130536  0.00000000  0.23700888  1
  Zr  Zr2  1  1.00000000  0.25130536  0.23700888  1
  Zr  Zr3  1  0.25130536  0.25130536  0.76299112  1
  Zr  Zr4  1  0.74869464  0.00000000  0.76299112  1
  Zr  Zr5  1  0.00000000  0.74869464  0.76299112  1
  Zr  Zr6  1  0.66666700  0.33333300  0.50000000  1
  Zr  Zr7  1  0.33333300  0.66666700  0.50000000  1
  Zr  Zr8  1  0.33333300  0.66666700  0.00000000  1
  Zr  Zr9  1  0.66666700  0.33333300  0.00000000  1
  Be  Be0  1  0.00000000  0.00000000  0.00000000  1
  In  In0  1  0.39259022  0.39259022  0.25395639  1
  In  In1  1  0.60740978  0.00000000  0.25395639  1
  In  In2  1  0.00000000  0.60740978  0.25395639  1
  In  In3  1  0.60740978  0.60740978  0.74604361  1
  In  In4  1  0.39259022  0.00000000  0.74604361  1
  In  In5  1  1.00000000  0.39259022  0.74604361  1
  Se  Se0  1  0.00000000  0.00000000  0.50000000  1
loop_
_geom_bond_atom_site_label_1
_geom_bond_atom_site_label_2
_geom_bond_distance
_geom_bond_site_symmetry_2
Zr6 Zr9 2.937014 1_555
Zr6 Zr9 2.937014 1_556
Zr7 Zr8 2.937014 1_556
Zr7 Zr8 2.937014 1_555
Be0 Zr1 2.592167 1_555
Be0 Zr4 2.592167 1_454
Be0 Zr0 2.592167 1_445
Be0 Zr5 2.592167 1_544
Be0 Zr3 2.592167 1_554
Be0 Zr2 2.592167 1_455
In0 Zr2 2.998362 1_455
In0 Zr1 2.998362 1_555
In0 Zr6 3.044830 1_555
In0 Zr7 3.044830 1_555
In0 Zr9 3.067165 1_555
In0 Zr8 3.067166 1_555
In0 Zr0 3.100019 1_555
In0 Zr3 3.135015 1_554
In0 Zr3 3.232923 1_555
In1 Zr0 2.998362 1_545
In1 Zr2 2.998362 1_555
In1 Zr6 3.044823 1_555
In1 Zr7 3.044826 1_545
In1 Zr9 3.067158 1_555
In1 Zr8 3.067161 1_545
In1 Zr1 3.100019 1_555
In1 Zr4 3.135014 1_554
In1 Zr4 3.232923 1_555
In2 Zr0 2.998362 1_455
In2 Zr1 2.998362 1_565
In2 Zr7 3.044823 1_555
In2 Zr6 3.044826 1_455
In2 Zr8 3.067158 1_555
In2 Zr9 3.067161 1_455
In2 Zr2 3.100019 1_455
In2 Zr5 3.135015 1_554
In2 Zr5 3.232923 1_555
In3 Zr5 2.998362 1_655
In3 Zr4 2.998362 1_565
In3 Zr7 3.044830 1_555
In3 Zr6 3.044830 1_555
In3 Zr8 3.067165 1_556
In3 Zr9 3.067166 1_556
In3 Zr3 3.100019 1_555
In3 Zr0 3.135015 1_556
In3 Zr0 3.232923 1_555
In4 Zr5 2.998362 1_545
In4 Zr3 2.998362 1_555
In4 Zr7 3.044823 1_545
In4 Zr6 3.044826 1_555
In4 Zr8 3.067158 1_546
In4 Zr9 3.067161 1_556
In4 Zr4 3.100019 1_555
In4 Zr1 3.135014 1_556
In4 Zr1 3.232923 1_555
In5 Zr3 2.998362 1_655
In5 Zr4 2.998362 1_555
In5 Zr6 3.044823 1_555
In5 Zr7 3.044826 1_655
In5 Zr9 3.067158 1_556
In5 Zr8 3.067161 1_656
In5 Zr5 3.100019 1_655
In5 Zr2 3.135015 1_556
In5 Zr2 3.232923 1_555
Se0 Zr1 2.677233 1_555
Se0 Zr4 2.677233 1_455
Se0 Zr5 2.677233 1_545
Se0 Zr0 2.677233 1_445
Se0 Zr3 2.677233 1_555
Se0 Zr2 2.677233 1_455
