# generated using pymatgen
data_RbTaBr6
_symmetry_space_group_name_H-M   'P 1'
_cell_length_a   7.18399127
_cell_length_b   7.18399170
_cell_length_c   12.83110880
_cell_angle_alpha   79.67320372
_cell_angle_beta   79.67320378
_cell_angle_gamma   55.69926147
_symmetry_Int_Tables_number   1
_chemical_formula_structural   RbTaBr6
_chemical_formula_sum   'Rb2 Ta2 Br12'
_cell_volume   535.68455424
_cell_formula_units_Z   2
loop_
 _symmetry_equiv_pos_site_id
 _symmetry_equiv_pos_as_xyz
  1  'x, y, z'
loop_
 _atom_site_type_symbol
 _atom_site_label
 _atom_site_symmetry_multiplicity
 _atom_site_fract_x
 _atom_site_fract_y
 _atom_site_fract_z
 _atom_site_occupancy
  Rb  Rb0  1  0.91614699  0.08385301  0.75000000  1
  Rb  Rb1  1  0.08385301  0.91614699  0.25000000  1
  Ta  Ta0  1  0.00000000  0.50000000  0.00000000  1
  Ta  Ta1  1  0.50000000  0.00000000  0.50000000  1
  Br  Br0  1  0.52666910  0.31792801  0.39438991  1
  Br  Br1  1  0.31792801  0.52666910  0.89438991  1
  Br  Br2  1  0.68207199  0.47333090  0.10561009  1
  Br  Br3  1  0.38103429  0.19434434  0.66752128  1
  Br  Br4  1  0.61896571  0.80565566  0.33247872  1
  Br  Br5  1  0.09014358  0.20819868  0.46648831  1
  Br  Br6  1  0.90985642  0.79180132  0.53351169  1
  Br  Br7  1  0.47333090  0.68207199  0.60561009  1
  Br  Br8  1  0.20819868  0.09014358  0.96648831  1
  Br  Br9  1  0.80565566  0.61896571  0.83247872  1
  Br  Br10  1  0.19434434  0.38103429  0.16752128  1
  Br  Br11  1  0.79180132  0.90985642  0.03351169  1
loop_
_geom_bond_atom_site_label_1
_geom_bond_atom_site_label_2
_geom_bond_distance
_geom_bond_site_symmetry_2
Br0 Ta1 2.525882 1_555
Br0 Rb1 3.744696 1_645
Br0 Rb1 3.983898 1_555
Br1 Ta0 2.525882 1_556
Br1 Rb0 3.744696 1_465
Br1 Rb0 3.983898 1_555
Br2 Ta0 2.525882 1_655
Br2 Rb1 3.744696 1_645
Br2 Rb1 3.983898 1_555
Br3 Ta1 2.524371 1_555
Br3 Rb0 3.774454 1_555
Br3 Rb0 3.784635 1_455
Br4 Ta1 2.524371 1_565
Br4 Rb1 3.774454 1_555
Br4 Rb1 3.784635 1_655
Br5 Ta1 2.520178 1_555
Br5 Rb0 3.749265 1_455
Br5 Rb1 3.789659 1_545
Br6 Ta1 2.520178 1_565
Br6 Rb1 3.749265 1_655
Br6 Rb0 3.789659 1_565
Br7 Ta1 2.525882 1_565
Br7 Rb0 3.744696 1_465
Br7 Rb0 3.983898 1_555
Br8 Ta0 2.520178 1_556
Br8 Rb1 3.749265 1_546
Br8 Rb0 3.789659 1_455
Br9 Ta0 2.524371 1_656
Br9 Rb0 3.774454 1_555
Br9 Rb0 3.784635 1_565
Br10 Ta0 2.524371 1_555
Br10 Rb1 3.774454 1_555
Br10 Rb1 3.784635 1_545
Br11 Ta0 2.520178 1_655
Br11 Rb0 3.749265 1_564
Br11 Rb1 3.789659 1_655
