# generated using pymatgen
data_Cs3RbCdCl6
_symmetry_space_group_name_H-M   'P 1'
_cell_length_a   9.22115155
_cell_length_b   9.22115138
_cell_length_c   9.22115117
_cell_angle_alpha   90.35112562
_cell_angle_beta   90.35112426
_cell_angle_gamma   90.35112614
_symmetry_Int_Tables_number   1
_chemical_formula_structural   Cs3RbCdCl6
_chemical_formula_sum   'Cs6 Rb2 Cd2 Cl12'
_cell_volume   784.02676081
_cell_formula_units_Z   2
loop_
 _symmetry_equiv_pos_site_id
 _symmetry_equiv_pos_as_xyz
  1  'x, y, z'
loop_
 _atom_site_type_symbol
 _atom_site_label
 _atom_site_symmetry_multiplicity
 _atom_site_fract_x
 _atom_site_fract_y
 _atom_site_fract_z
 _atom_site_occupancy
  Cs  Cs0  1  0.37911842  0.12088158  0.75000000  1
  Cs  Cs1  1  0.12088158  0.75000000  0.37911842  1
  Cs  Cs2  1  0.75000000  0.37911842  0.12088158  1
  Cs  Cs3  1  0.62088158  0.87911842  0.25000000  1
  Cs  Cs4  1  0.25000000  0.62088158  0.87911842  1
  Cs  Cs5  1  0.87911842  0.25000000  0.62088158  1
  Rb  Rb0  1  0.25000000  0.25000000  0.25000000  1
  Rb  Rb1  1  0.75000000  0.75000000  0.75000000  1
  Cd  Cd0  1  0.00000000  0.00000000  0.00000000  1
  Cd  Cd1  1  0.50000000  0.50000000  0.50000000  1
  Cl  Cl0  1  0.94566437  0.07588849  0.27527008  1
  Cl  Cl1  1  0.07588849  0.27527008  0.94566437  1
  Cl  Cl2  1  0.27527008  0.94566437  0.07588849  1
  Cl  Cl3  1  0.57588849  0.44566437  0.77527008  1
  Cl  Cl4  1  0.77527008  0.57588849  0.44566437  1
  Cl  Cl5  1  0.44566437  0.77527008  0.57588849  1
  Cl  Cl6  1  0.22472992  0.42411151  0.55433563  1
  Cl  Cl7  1  0.42411151  0.55433563  0.22472992  1
  Cl  Cl8  1  0.55433563  0.22472992  0.42411151  1
  Cl  Cl9  1  0.92411151  0.72472992  0.05433563  1
  Cl  Cl10  1  0.05433563  0.92411151  0.72472992  1
  Cl  Cl11  1  0.72472992  0.05433563  0.92411151  1
loop_
_geom_bond_atom_site_label_1
_geom_bond_atom_site_label_2
_geom_bond_distance
_geom_bond_site_symmetry_2
Cd0 Cl0 2.679897 1_455
Cd0 Cl10 2.679897 1_544
Cd0 Cl1 2.679897 1_554
Cd0 Cl9 2.679897 1_445
Cd0 Cl2 2.679897 1_545
Cd0 Cl11 2.679897 1_454
Cd1 Cl3 2.679897 1_555
Cd1 Cl7 2.679897 1_555
Cd1 Cl5 2.679897 1_555
Cd1 Cl8 2.679897 1_555
Cd1 Cl4 2.679897 1_555
Cd1 Cl6 2.679897 1_555
Cl0 Rb0 3.234933 1_655
Cl0 Cs3 3.497918 1_545
Cl0 Cs1 3.554398 1_645
Cl0 Cs5 3.617194 1_555
Cl0 Cs2 3.630365 1_555
Cl1 Rb0 3.234933 1_556
Cl1 Cs5 3.497918 1_455
Cl1 Cs2 3.554398 1_456
Cl1 Cs4 3.617194 1_555
Cl1 Cs0 3.630365 1_555
Cl2 Rb0 3.234933 1_565
Cl2 Cs4 3.497918 1_554
Cl2 Cs0 3.554398 1_564
Cl2 Cs3 3.617194 1_555
Cl2 Cs1 3.630365 1_555
Cl3 Rb1 3.234933 1_555
Cl3 Cs0 3.497918 1_555
Cl3 Cs4 3.554398 1_555
Cl3 Cs2 3.617194 1_556
Cl3 Cs5 3.630365 1_555
Cl4 Rb1 3.234933 1_555
Cl4 Cs2 3.497918 1_555
Cl4 Cs5 3.554398 1_555
Cl4 Cs1 3.617194 1_655
Cl4 Cs3 3.630365 1_555
Cl5 Rb1 3.234933 1_555
Cl5 Cs1 3.497918 1_555
Cl5 Cs3 3.554398 1_555
Cl5 Cs0 3.617194 1_565
Cl5 Cs4 3.630365 1_555
Cl6 Rb0 3.234933 1_555
Cl6 Cs4 3.497918 1_555
Cl6 Cs1 3.554398 1_555
Cl6 Cs5 3.617194 1_455
Cl6 Cs0 3.630365 1_555
Cl7 Rb0 3.234933 1_555
Cl7 Cs3 3.497918 1_555
Cl7 Cs2 3.554398 1_555
Cl7 Cs4 3.617194 1_554
Cl7 Cs1 3.630365 1_555
Cl8 Rb0 3.234933 1_555
Cl8 Cs5 3.497918 1_555
Cl8 Cs0 3.554398 1_555
Cl8 Cs3 3.617194 1_545
Cl8 Cs2 3.630365 1_555
Cl9 Rb1 3.234933 1_554
Cl9 Cs1 3.497918 1_655
Cl9 Cs4 3.554398 1_654
Cl9 Cs2 3.617194 1_555
Cl9 Cs3 3.630365 1_555
Cl10 Rb1 3.234933 1_455
Cl10 Cs0 3.497918 1_565
Cl10 Cs5 3.554398 1_465
Cl10 Cs1 3.617194 1_555
Cl10 Cs4 3.630365 1_555
Cl11 Rb1 3.234933 1_545
Cl11 Cs2 3.497918 1_556
Cl11 Cs3 3.554398 1_546
Cl11 Cs0 3.617194 1_555
Cl11 Cs5 3.630365 1_555
