# generated using pymatgen
data_NaSrLiPt3
_symmetry_space_group_name_H-M   'P 1'
_cell_length_a   5.47054100
_cell_length_b   5.47054130
_cell_length_c   5.33876474
_cell_angle_alpha   59.18007389
_cell_angle_beta   59.18008867
_cell_angle_gamma   59.99999185
_symmetry_Int_Tables_number   1
_chemical_formula_structural   NaSrLiPt3
_chemical_formula_sum   'Na1 Sr1 Li1 Pt3'
_cell_volume   111.55561235
_cell_formula_units_Z   1
loop_
 _symmetry_equiv_pos_site_id
 _symmetry_equiv_pos_as_xyz
  1  'x, y, z'
loop_
 _atom_site_type_symbol
 _atom_site_label
 _atom_site_symmetry_multiplicity
 _atom_site_fract_x
 _atom_site_fract_y
 _atom_site_fract_z
 _atom_site_occupancy
  Na  Na0  1  0.24904583  0.24904583  0.25286050  1
  Sr  Sr0  1  0.00404460  0.00404460  0.98786521  1
  Li  Li0  1  0.62272617  0.62272617  0.13182149  1
  Pt  Pt0  1  0.62446590  0.12524960  0.62581760  1
  Pt  Pt1  1  0.12524960  0.62446590  0.62581760  1
  Pt  Pt2  1  0.62446590  0.62446590  0.62581760  1
loop_
_geom_bond_atom_site_label_1
_geom_bond_atom_site_label_2
_geom_bond_distance
_geom_bond_site_symmetry_2
Na0 Pt1 3.125780 1_554
Na0 Pt0 3.125781 1_554
Na0 Pt2 3.125783 1_554
Na0 Pt1 3.171548 1_545
Na0 Pt0 3.171549 1_455
Na0 Pt2 3.171550 1_545
Na0 Pt2 3.171551 1_455
Na0 Pt0 3.171553 1_555
Na0 Pt1 3.171553 1_555
Li0 Pt2 2.647115 1_555
Li0 Pt0 2.647117 1_555
Li0 Pt1 2.647118 1_555
Li0 Pt0 2.691713 1_564
Li0 Pt1 2.691714 1_654
Li0 Pt2 2.691716 1_554
Pt0 Pt1 2.730983 1_555
Pt0 Pt2 2.730983 1_555
Pt0 Pt1 2.739558 1_645
Pt0 Pt2 2.739558 1_545
Pt0 Sr0 3.148043 1_655
Pt0 Sr0 3.148043 1_555
Pt0 Sr0 3.168884 1_654
Pt1 Pt2 2.730983 1_555
Pt1 Pt2 2.739558 1_455
Pt1 Sr0 3.148043 1_555
Pt1 Sr0 3.148043 1_565
Pt1 Sr0 3.168883 1_564
Pt2 Sr0 3.148043 1_655
Pt2 Sr0 3.148043 1_565
Pt2 Sr0 3.168884 1_664
