# generated using pymatgen
data_Sr5HfReN7
_symmetry_space_group_name_H-M   'P 1'
_cell_length_a   6.50140609
_cell_length_b   9.34252492
_cell_length_c   9.46608974
_cell_angle_alpha   112.82722434
_cell_angle_beta   99.22042611
_cell_angle_gamma   89.57847540
_symmetry_Int_Tables_number   1
_chemical_formula_structural   Sr5HfReN7
_chemical_formula_sum   'Sr10 Hf2 Re2 N14'
_cell_volume   522.13686637
_cell_formula_units_Z   2
loop_
 _symmetry_equiv_pos_site_id
 _symmetry_equiv_pos_as_xyz
  1  'x, y, z'
loop_
 _atom_site_type_symbol
 _atom_site_label
 _atom_site_symmetry_multiplicity
 _atom_site_fract_x
 _atom_site_fract_y
 _atom_site_fract_z
 _atom_site_occupancy
  Sr  Sr0  1  0.85095039  0.60266015  0.35530668  1
  Sr  Sr1  1  0.26402431  0.98492660  0.55901903  1
  Sr  Sr2  1  0.70688224  0.41937211  0.85955669  1
  Sr  Sr3  1  0.29311776  0.58062789  0.14044331  1
  Sr  Sr4  1  0.38328717  0.78522832  0.90162560  1
  Sr  Sr5  1  0.61671283  0.21477168  0.09837440  1
  Sr  Sr6  1  0.14904961  0.39733985  0.64469332  1
  Sr  Sr7  1  0.88170807  0.85063406  0.76094037  1
  Sr  Sr8  1  0.11829193  0.14936594  0.23905963  1
  Sr  Sr9  1  0.73597569  0.01507340  0.44098097  1
  Hf  Hf0  1  0.58684830  0.35242791  0.47453994  1
  Hf  Hf1  1  0.41315170  0.64757209  0.52546006  1
  Re  Re0  1  0.13143947  0.21893089  0.91231644  1
  Re  Re1  1  0.86856053  0.78106911  0.08768356  1
  N  N0  1  0.54316519  0.54725068  0.67437594  1
  N  N1  1  0.45683481  0.45274932  0.32562406  1
  N  N2  1  0.13751686  0.71632203  0.59174800  1
  N  N3  1  0.86248314  0.28367797  0.40825200  1
  N  N4  1  0.40484786  0.17626967  0.46735242  1
  N  N5  1  0.59515214  0.82373033  0.53264758  1
  N  N6  1  0.96775357  0.15546364  0.72023196  1
  N  N7  1  0.03224643  0.84453636  0.27976804  1
  N  N8  1  0.23443340  0.05647481  0.95877699  1
  N  N9  1  0.76556660  0.94352519  0.04122301  1
  N  N10  1  0.35833237  0.33474647  0.91345334  1
  N  N11  1  0.97842363  0.33712149  0.05948155  1
  N  N12  1  0.02157637  0.66287851  0.94051845  1
  N  N13  1  0.64166763  0.66525353  0.08654666  1
loop_
_geom_bond_atom_site_label_1
_geom_bond_atom_site_label_2
_geom_bond_distance
_geom_bond_site_symmetry_2
Hf0 N4 2.007296 1_555
Hf0 N3 2.012039 1_555
Hf0 N1 2.052236 1_555
Hf0 N0 2.113053 1_555
Hf1 N5 2.007296 1_555
Hf1 N2 2.012039 1_555
Hf1 N0 2.052236 1_555
Hf1 N1 2.113053 1_555
N0 Sr2 2.577082 1_555
N0 Sr4 2.760917 1_555
N0 Sr6 2.850023 1_555
N1 Sr3 2.577082 1_555
N1 Sr5 2.760917 1_555
N1 Sr0 2.850023 1_555
N2 Sr7 2.483780 1_455
N2 Sr0 2.541028 1_455
N2 Sr1 2.790168 1_555
N2 Sr4 2.935965 1_555
N2 Sr6 3.206454 1_555
N3 Sr8 2.483780 1_655
N3 Sr6 2.541028 1_655
N3 Sr9 2.790168 1_555
N3 Sr5 2.935965 1_555
N3 Sr0 3.206454 1_555
N4 Sr1 2.503803 1_545
N4 Sr8 2.549377 1_555
N4 Sr9 2.607230 1_555
N4 Sr6 2.829042 1_555
N5 Sr9 2.503803 1_565
N5 Sr7 2.549377 1_555
N5 Sr1 2.607230 1_555
N5 Sr0 2.829042 1_555
N6 Re0 1.828359 1_655
N6 Sr9 2.653497 1_555
N6 Sr1 2.754587 1_645
N6 Sr6 2.927459 1_655
N6 Sr2 2.971061 1_555
N6 Sr7 3.084781 1_545
N7 Re1 1.828359 1_455
N7 Sr1 2.653497 1_555
N7 Sr9 2.754587 1_465
N7 Sr0 2.927459 1_455
N7 Sr3 2.971061 1_555
N7 Sr8 3.084781 1_565
N8 Re0 1.831380 1_555
N8 Sr4 2.592103 1_545
N8 Sr8 2.684861 1_556
N8 Sr5 2.756007 1_556
N8 Sr7 2.891095 1_445
N9 Re1 1.831380 1_555
N9 Sr5 2.592103 1_565
N9 Sr7 2.684861 1_554
N9 Sr4 2.756007 1_554
N9 Sr8 2.891095 1_665
N10 Re0 1.831996 1_555
N10 Sr3 2.553710 1_556
N10 Sr2 2.594273 1_555
N10 Sr5 2.773933 1_556
N10 Sr6 2.949421 1_555
N11 Re0 1.839569 1_654
N11 Sr2 2.706737 1_554
N11 Sr5 2.759676 1_555
N11 Sr3 2.856911 1_655
N11 Sr8 2.930570 1_655
N11 Sr0 3.163254 1_555
N12 Re1 1.839569 1_456
N12 Sr3 2.706737 1_556
N12 Sr4 2.759676 1_555
N12 Sr2 2.856911 1_455
N12 Sr7 2.930570 1_455
N12 Sr6 3.163254 1_555
N13 Re1 1.831996 1_555
N13 Sr2 2.553710 1_554
N13 Sr3 2.594273 1_555
N13 Sr4 2.773933 1_554
N13 Sr0 2.949421 1_555
