# generated using pymatgen
data_KNa5(BeH3)6
_symmetry_space_group_name_H-M   'P 1'
_cell_length_a   6.62074564
_cell_length_b   6.62074713
_cell_length_c   9.18920632
_cell_angle_alpha   89.38170476
_cell_angle_beta   89.38170355
_cell_angle_gamma   121.32517251
_symmetry_Int_Tables_number   1
_chemical_formula_structural   KNa5(BeH3)6
_chemical_formula_sum   'K1 Na5 Be6 H18'
_cell_volume   344.00251587
_cell_formula_units_Z   1
loop_
 _symmetry_equiv_pos_site_id
 _symmetry_equiv_pos_as_xyz
  1  'x, y, z'
loop_
 _atom_site_type_symbol
 _atom_site_label
 _atom_site_symmetry_multiplicity
 _atom_site_fract_x
 _atom_site_fract_y
 _atom_site_fract_z
 _atom_site_occupancy
  K  K0  1  0.81841273  0.18158727  1.00000000  1
  Na  Na0  1  0.50418638  0.49581362  0.50000000  1
  Na  Na1  1  0.17947954  0.82052046  0.50000000  1
  Na  Na2  1  0.82861576  0.17138424  0.50000000  1
  Na  Na3  1  0.49448752  0.50551248  1.00000000  1
  Na  Na4  1  0.16396691  0.83603309  1.00000000  1
  Be  Be0  1  0.06625191  0.06180744  0.73883494  1
  Be  Be1  1  0.83189347  0.61090141  0.74735030  1
  Be  Be2  1  0.60026764  0.82360366  0.74014573  1
  Be  Be3  1  0.93819256  0.93374809  0.26116506  1
  Be  Be4  1  0.38909859  0.16810653  0.25264970  1
  Be  Be5  1  0.17639634  0.39973236  0.25985427  1
  H  H0  1  0.17390179  0.17354109  0.60409768  1
  H  H1  1  0.83171303  0.48165775  0.62467729  1
  H  H2  1  0.49873794  0.83126504  0.60702085  1
  H  H3  1  0.61476947  0.61340731  0.73602226  1
  H  H4  1  0.05128727  0.83598215  0.73437260  1
  H  H5  1  0.83373820  0.03930511  0.74167711  1
  H  H6  1  0.82879425  0.53113013  0.89037423  1
  H  H7  1  0.47850114  0.80808296  0.87253731  1
  H  H8  1  0.17800816  0.16633006  0.87176285  1
  H  H9  1  0.83366994  0.82199184  0.12823715  1
  H  H10  1  0.46886987  0.17120575  0.10962577  1
  H  H11  1  0.19191704  0.52149886  0.12746269  1
  H  H12  1  0.38659269  0.38523053  0.26397774  1
  H  H13  1  0.16401785  0.94871273  0.26562740  1
  H  H14  1  0.96069489  0.16626180  0.25832289  1
  H  H15  1  0.51834225  0.16828697  0.37532271  1
  H  H16  1  0.16873496  0.50126206  0.39297915  1
  H  H17  1  0.82645891  0.82609821  0.39590232  1
loop_
_geom_bond_atom_site_label_1
_geom_bond_atom_site_label_2
_geom_bond_distance
_geom_bond_site_symmetry_2
Be0 H0 1.414619 1_555
Be0 H8 1.422592 1_555
Be0 H4 1.447170 1_545
Be0 H5 1.467396 1_455
Be1 H6 1.407071 1_555
Be1 H1 1.422224 1_555
Be1 H4 1.444484 1_655
Be1 H3 1.451060 1_555
Be2 H2 1.415197 1_555
Be2 H7 1.424970 1_555
Be2 H3 1.444768 1_555
Be2 H5 1.461027 1_565
Be3 H17 1.414619 1_555
Be3 H9 1.422592 1_555
Be3 H13 1.447170 1_655
Be3 H14 1.467396 1_565
Be4 H10 1.407071 1_555
Be4 H15 1.422224 1_555
Be4 H13 1.444484 1_545
Be4 H12 1.451060 1_555
Be5 H16 1.415197 1_555
Be5 H11 1.424971 1_555
Be5 H12 1.444768 1_555
Be5 H14 1.461027 1_455
H0 Na0 2.304084 1_555
H0 Na2 2.480890 1_455
H0 Na1 2.552728 1_545
H1 Na2 2.353811 1_555
H1 Na1 2.482697 1_655
H1 Na0 2.507243 1_555
H2 Na1 2.308697 1_555
H2 Na2 2.366436 1_565
H2 Na0 2.455747 1_555
H3 Na0 2.307411 1_555
H3 Na3 2.521531 1_555
H4 Na1 2.329138 1_555
H4 Na4 2.560005 1_555
H5 Na2 2.385043 1_555
H5 K0 2.583598 1_555
H6 Na4 2.334204 1_655
H6 Na3 2.345289 1_555
H6 K0 2.481533 1_555
H7 Na3 2.359784 1_555
H7 Na4 2.468901 1_555
H7 K0 2.623827 1_565
H8 Na4 2.431060 1_545
H8 Na3 2.457591 1_555
H8 K0 2.694266 1_455
H9 Na4 2.431059 1_654
H9 Na3 2.457591 1_554
H9 K0 2.694266 1_564
H10 Na4 2.334204 1_544
H10 Na3 2.345290 1_554
H10 K0 2.481533 1_554
H11 Na3 2.359784 1_554
H11 Na4 2.468902 1_554
H11 K0 2.623827 1_454
H12 Na0 2.307411 1_555
H12 Na3 2.521531 1_554
H13 Na1 2.329138 1_555
H13 Na4 2.560005 1_554
H14 Na2 2.385043 1_555
H14 K0 2.583598 1_554
H15 Na2 2.353811 1_555
H15 Na1 2.482697 1_545
H15 Na0 2.507243 1_555
H16 Na1 2.308698 1_555
H16 Na2 2.366436 1_455
H16 Na0 2.455747 1_555
H17 Na0 2.304084 1_555
H17 Na2 2.480891 1_565
H17 Na1 2.552728 1_655
