# generated using pymatgen
data_Hf4Ti3Zn3Re2
_symmetry_space_group_name_H-M   'P 1'
_cell_length_a   5.25292705
_cell_length_b   5.30894433
_cell_length_c   8.56284375
_cell_angle_alpha   90.00000000
_cell_angle_beta   90.00000000
_cell_angle_gamma   119.65155675
_symmetry_Int_Tables_number   1
_chemical_formula_structural   Hf4Ti3Zn3Re2
_chemical_formula_sum   'Hf4 Ti3 Zn3 Re2'
_cell_volume   207.52593546
_cell_formula_units_Z   1
loop_
 _symmetry_equiv_pos_site_id
 _symmetry_equiv_pos_as_xyz
  1  'x, y, z'
loop_
 _atom_site_type_symbol
 _atom_site_label
 _atom_site_symmetry_multiplicity
 _atom_site_fract_x
 _atom_site_fract_y
 _atom_site_fract_z
 _atom_site_occupancy
  Hf  Hf0  1  0.33199633  0.66399466  0.06588315  1
  Hf  Hf1  1  0.66473808  0.32947315  0.55432131  1
  Hf  Hf2  1  0.66473808  0.32947315  0.94567869  1
  Hf  Hf3  1  0.33199633  0.66399466  0.43411685  1
  Ti  Ti0  1  0.00244083  0.00488165  0.99349192  1
  Ti  Ti1  1  0.00244083  0.00488165  0.50650808  1
  Ti  Ti2  1  0.83143395  0.66286791  0.25000000  1
  Zn  Zn0  1  0.17543903  0.82648675  0.75000000  1
  Zn  Zn1  1  0.65104872  0.82648675  0.75000000  1
  Zn  Zn2  1  0.17542495  0.35084890  0.75000000  1
  Re  Re0  1  0.33937809  0.16830488  0.25000000  1
  Re  Re1  1  0.82892579  0.16830488  0.25000000  1
loop_
_geom_bond_atom_site_label_1
_geom_bond_atom_site_label_2
_geom_bond_distance
_geom_bond_site_symmetry_2
Hf0 Ti2 3.063309 1_455
Hf0 Ti2 3.063318 1_555
Hf0 Zn2 3.066533 1_554
Hf0 Zn0 3.072248 1_554
Hf0 Zn1 3.072255 1_554
Hf0 Re1 3.084360 1_455
Hf0 Re0 3.084361 1_555
Hf0 Re0 3.090722 1_565
Hf0 Re1 3.090725 1_565
Hf0 Ti0 3.103510 1_554
Hf0 Ti0 3.123477 1_564
Hf0 Ti0 3.123487 1_664
Hf0 Hf3 3.153128 1_555
Hf0 Hf2 3.215549 1_454
Hf0 Hf2 3.215570 1_554
Hf0 Hf2 3.238279 1_564
Hf1 Re1 2.999435 1_555
Hf1 Re0 2.999444 1_555
Hf1 Ti2 3.025976 1_555
Hf1 Ti1 3.051006 1_655
Hf1 Ti1 3.051020 1_555
Hf1 Zn2 3.116975 1_655
Hf1 Zn2 3.116983 1_555
Hf1 Zn1 3.123034 1_545
Hf1 Zn0 3.123039 1_545
Hf1 Ti1 3.142939 1_665
Hf1 Zn0 3.156376 1_655
Hf1 Zn1 3.156380 1_555
Hf1 Hf3 3.215549 1_655
Hf1 Hf3 3.215570 1_555
Hf1 Hf3 3.238279 1_545
Hf1 Hf2 3.351132 1_555
Hf2 Re1 2.999435 1_556
Hf2 Re0 2.999444 1_556
Hf2 Ti2 3.025976 1_556
Hf2 Ti0 3.051006 1_655
Hf2 Ti0 3.051020 1_555
Hf2 Zn2 3.116975 1_655
Hf2 Zn2 3.116983 1_555
Hf2 Zn1 3.123034 1_545
Hf2 Zn0 3.123039 1_545
Hf2 Ti0 3.142939 1_665
Hf2 Zn0 3.156376 1_655
Hf2 Zn1 3.156380 1_555
Hf3 Ti2 3.063309 1_455
Hf3 Ti2 3.063318 1_555
Hf3 Zn2 3.066533 1_555
Hf3 Zn0 3.072248 1_555
Hf3 Zn1 3.072255 1_555
Hf3 Re1 3.084360 1_455
Hf3 Re0 3.084361 1_555
Hf3 Re0 3.090722 1_565
Hf3 Re1 3.090725 1_565
Hf3 Ti1 3.103510 1_555
Hf3 Ti1 3.123477 1_565
Hf3 Ti1 3.123487 1_665
Ti0 Zn2 2.625837 1_555
Ti0 Zn1 2.630879 1_445
Ti0 Zn0 2.630881 1_545
Ti0 Ti2 2.704498 1_446
Ti1 Zn2 2.625837 1_555
Ti1 Zn1 2.630879 1_445
Ti1 Zn0 2.630881 1_545
Ti1 Ti2 2.704498 1_445
Zn0 Zn1 2.498343 1_555
Zn0 Zn2 2.525098 1_555
Zn0 Zn1 2.754584 1_455
Zn0 Zn2 2.783846 1_565
Zn1 Zn2 2.525099 1_555
Zn1 Zn2 2.783847 1_665
Re0 Re1 2.571558 1_555
Re0 Ti2 2.619118 1_555
Re0 Re1 2.681369 1_455
Re0 Ti1 2.681469 1_555
Re0 Ti0 2.681469 1_554
Re0 Ti2 2.689877 1_445
Re1 Ti2 2.619115 1_555
Re1 Ti1 2.681471 1_655
Re1 Ti0 2.681471 1_654
Re1 Ti2 2.689879 1_545
