# generated using pymatgen
data_Y9MgIn3Ru
_symmetry_space_group_name_H-M   'P 1'
_cell_length_a   9.68479908
_cell_length_b   9.68479833
_cell_length_c   9.59637512
_cell_angle_alpha   90.00000000
_cell_angle_beta   90.00000000
_cell_angle_gamma   119.99999910
_symmetry_Int_Tables_number   1
_chemical_formula_structural   Y9MgIn3Ru
_chemical_formula_sum   'Y18 Mg2 In6 Ru2'
_cell_volume   779.50525748
_cell_formula_units_Z   2
loop_
 _symmetry_equiv_pos_site_id
 _symmetry_equiv_pos_as_xyz
  1  'x, y, z'
loop_
 _atom_site_type_symbol
 _atom_site_label
 _atom_site_symmetry_multiplicity
 _atom_site_fract_x
 _atom_site_fract_y
 _atom_site_fract_z
 _atom_site_occupancy
  Y  Y0  1  0.20796163  0.79203837  0.43701720  1
  Y  Y1  1  0.20796163  0.41592426  0.43701720  1
  Y  Y2  1  0.58407574  0.79203837  0.43701720  1
  Y  Y3  1  0.79203837  0.20796163  0.56298280  1
  Y  Y4  1  0.79203837  0.58407574  0.56298280  1
  Y  Y5  1  0.41592426  0.20796163  0.56298280  1
  Y  Y6  1  0.79203837  0.20796163  0.93701720  1
  Y  Y7  1  0.79203837  0.58407574  0.93701720  1
  Y  Y8  1  0.41592426  0.20796163  0.93701720  1
  Y  Y9  1  0.20796163  0.79203837  0.06298280  1
  Y  Y10  1  0.20796163  0.41592426  0.06298280  1
  Y  Y11  1  0.58407574  0.79203837  0.06298280  1
  Y  Y12  1  0.54060806  0.45939194  0.25000000  1
  Y  Y13  1  0.54060806  0.08121813  0.25000000  1
  Y  Y14  1  0.91878187  0.45939194  0.25000000  1
  Y  Y15  1  0.45939194  0.54060806  0.75000000  1
  Y  Y16  1  0.45939194  0.91878187  0.75000000  1
  Y  Y17  1  0.08121813  0.54060806  0.75000000  1
  Mg  Mg0  1  0.00000000  0.00000000  0.50000000  1
  Mg  Mg1  1  0.00000000  0.00000000  0.00000000  1
  In  In0  1  0.88780009  0.11219991  0.25000000  1
  In  In1  1  0.88780009  0.77560118  0.25000000  1
  In  In2  1  0.22439882  0.11219991  0.25000000  1
  In  In3  1  0.11219991  0.88780009  0.75000000  1
  In  In4  1  0.11219991  0.22439882  0.75000000  1
  In  In5  1  0.77560118  0.88780009  0.75000000  1
  Ru  Ru0  1  0.33333300  0.66666700  0.25000000  1
  Ru  Ru1  1  0.66666700  0.33333300  0.75000000  1
loop_
_geom_bond_atom_site_label_1
_geom_bond_atom_site_label_2
_geom_bond_distance
_geom_bond_site_symmetry_2
Y0 Y14 3.524304 1_455
Y0 Y13 3.524304 1_565
Y0 Y17 3.669908 1_555
Y0 Y16 3.669908 1_555
Y1 Y12 3.524301 1_555
Y1 Y14 3.524309 1_455
Y1 Y17 3.669893 1_555
Y1 Y15 3.669908 1_555
Y10 Y12 3.524301 1_555
Y10 Y14 3.524309 1_455
Y10 Y17 3.669893 1_554
Y10 Y15 3.669908 1_554
Y11 Y12 3.524301 1_555
Y11 Y13 3.524309 1_565
Y11 Y16 3.669893 1_554
Y11 Y15 3.669908 1_554
Y12 Y2 3.524301 1_555
Y12 Y13 3.662537 1_555
Y12 Y14 3.662537 1_555
Y12 Y5 3.669908 1_555
Y12 Y8 3.669908 1_554
Y12 Y4 3.669908 1_555
Y12 Y7 3.669908 1_554
Y13 Y9 3.524304 1_545
Y13 Y2 3.524309 1_545
Y13 Y14 3.662537 1_555
Y13 Y5 3.669893 1_555
Y13 Y8 3.669893 1_554
Y13 Y3 3.669908 1_555
Y13 Y6 3.669908 1_554
Y14 Y9 3.524304 1_655
Y14 Y4 3.669893 1_555
Y14 Y7 3.669893 1_554
Y14 Y3 3.669908 1_555
Y14 Y6 3.669908 1_554
Y15 Y8 3.524301 1_555
Y15 Y5 3.524301 1_555
Y15 Y7 3.524301 1_555
Y15 Y4 3.524301 1_555
Y15 Y16 3.662537 1_555
Y15 Y17 3.662537 1_555
Y15 Y2 3.669908 1_555
Y16 Y6 3.524304 1_565
Y16 Y3 3.524304 1_565
Y16 Y8 3.524309 1_565
Y16 Y5 3.524309 1_565
Y16 Y17 3.662537 1_555
Y16 Y2 3.669893 1_555
Y16 Y9 3.669908 1_556
Y17 Y6 3.524304 1_455
Y17 Y3 3.524304 1_455
Y17 Y7 3.524309 1_455
Y17 Y4 3.524309 1_455
Y17 Y9 3.669908 1_556
Mg0 Y3 3.540438 1_455
Mg0 Y0 3.540438 1_545
Mg0 Y1 3.540446 1_555
Mg0 Y4 3.540446 1_445
Mg0 Y5 3.540446 1_555
Mg0 Y2 3.540446 1_445
Mg1 Y9 3.540438 1_545
Mg1 Y6 3.540438 1_454
Mg1 Y10 3.540446 1_555
Mg1 Y7 3.540446 1_444
Mg1 Y11 3.540446 1_445
Mg1 Y8 3.540446 1_554
In0 Mg1 3.049257 1_655
In0 Mg0 3.049257 1_655
In0 Y14 3.222951 1_555
In0 Y13 3.222951 1_555
In0 In1 3.259891 1_545
In0 In2 3.259891 1_655
In0 Y3 3.406084 1_555
In0 Y6 3.406084 1_554
In0 Y2 3.516672 1_545
In0 Y11 3.516672 1_545
In0 Y1 3.516672 1_655
In0 Y10 3.516672 1_655
In1 Mg1 3.049252 1_665
In1 Mg0 3.049252 1_665
In1 Y14 3.222941 1_555
In1 Y12 3.222947 1_555
In1 In2 3.259891 1_665
In1 Y4 3.406092 1_555
In1 Y7 3.406092 1_554
In1 Y2 3.516672 1_555
In1 Y11 3.516672 1_555
In1 Y0 3.516672 1_655
In1 Y9 3.516672 1_655
In2 Mg1 3.049252 1_555
In2 Mg0 3.049252 1_555
In2 Y13 3.222942 1_555
In2 Y12 3.222947 1_555
In2 Y5 3.406092 1_555
In2 Y8 3.406092 1_554
In2 Y0 3.516672 1_545
In2 Y9 3.516672 1_545
In2 Y1 3.516672 1_555
In2 Y10 3.516672 1_555
In3 Mg1 3.049257 1_566
In3 Mg0 3.049257 1_565
In3 Y17 3.222951 1_555
In3 Y16 3.222951 1_555
In3 In4 3.259891 1_565
In3 In5 3.259891 1_455
In3 Y9 3.406084 1_556
In3 Y0 3.406084 1_555
In3 Y8 3.516672 1_565
In3 Y5 3.516672 1_565
In3 Y7 3.516672 1_455
In3 Y4 3.516672 1_455
In4 Mg0 3.049252 1_555
In4 Mg1 3.049252 1_556
In4 Y17 3.222941 1_555
In4 Y15 3.222947 1_555
In4 In5 3.259891 1_445
In4 Y10 3.406092 1_556
In4 Y1 3.406092 1_555
In4 Y8 3.516672 1_555
In4 Y5 3.516672 1_555
In4 Y6 3.516672 1_455
In4 Y3 3.516672 1_455
In5 Mg1 3.049252 1_666
In5 Mg0 3.049252 1_665
In5 Y16 3.222942 1_555
In5 Y15 3.222947 1_555
In5 Y11 3.406092 1_556
In5 Y2 3.406092 1_555
In5 Y6 3.516672 1_565
In5 Y3 3.516672 1_565
In5 Y7 3.516672 1_555
In5 Y4 3.516672 1_555
Ru0 Y1 2.764728 1_555
Ru0 Y10 2.764728 1_555
Ru0 Y0 2.764728 1_555
Ru0 Y9 2.764728 1_555
Ru0 Y2 2.764728 1_555
Ru0 Y11 2.764728 1_555
Ru0 Y12 3.476949 1_555
Ru0 Y13 3.476957 1_565
Ru0 Y14 3.476957 1_455
Ru1 Y7 2.764728 1_555
Ru1 Y4 2.764728 1_555
Ru1 Y6 2.764728 1_555
Ru1 Y3 2.764728 1_555
Ru1 Y8 2.764728 1_555
Ru1 Y5 2.764728 1_555
Ru1 Y15 3.476949 1_555
Ru1 Y16 3.476957 1_545
Ru1 Y17 3.476957 1_655
