# generated using pymatgen
data_Cs2Hf7BeBr18
_symmetry_space_group_name_H-M   'P 1'
_cell_length_a   10.91358037
_cell_length_b   10.91358122
_cell_length_c   10.91358079
_cell_angle_alpha   55.57081471
_cell_angle_beta   55.57080978
_cell_angle_gamma   55.57081557
_symmetry_Int_Tables_number   1
_chemical_formula_structural   Cs2Hf7BeBr18
_chemical_formula_sum   'Cs2 Hf7 Be1 Br18'
_cell_volume   824.65636494
_cell_formula_units_Z   1
loop_
 _symmetry_equiv_pos_site_id
 _symmetry_equiv_pos_as_xyz
  1  'x, y, z'
loop_
 _atom_site_type_symbol
 _atom_site_label
 _atom_site_symmetry_multiplicity
 _atom_site_fract_x
 _atom_site_fract_y
 _atom_site_fract_z
 _atom_site_occupancy
  Cs  Cs0  1  0.77468337  0.77468337  0.77468337  1
  Cs  Cs1  1  0.22531663  0.22531663  0.22531663  1
  Hf  Hf0  1  0.15786312  0.90118501  0.79707319  1
  Hf  Hf1  1  0.84213688  0.09881499  0.20292681  1
  Hf  Hf2  1  0.09881499  0.20292681  0.84213688  1
  Hf  Hf3  1  0.20292681  0.84213688  0.09881499  1
  Hf  Hf4  1  0.90118501  0.79707319  0.15786312  1
  Hf  Hf5  1  0.79707319  0.15786312  0.90118501  1
  Hf  Hf6  1  0.50000000  0.50000000  0.50000000  1
  Be  Be0  1  0.00000000  0.00000000  0.00000000  1
  Br  Br0  1  0.22220088  0.47229178  0.64122575  1
  Br  Br1  1  0.77779912  0.52770822  0.35877425  1
  Br  Br2  1  0.34833675  0.05332247  0.93270445  1
  Br  Br3  1  0.65166325  0.94667753  0.06729555  1
  Br  Br4  1  0.93270445  0.34833675  0.05332247  1
  Br  Br5  1  0.70864077  0.87678445  0.41657558  1
  Br  Br6  1  0.35877425  0.77779912  0.52770822  1
  Br  Br7  1  0.58342442  0.29135923  0.12321555  1
  Br  Br8  1  0.29135923  0.12321555  0.58342442  1
  Br  Br9  1  0.12321555  0.58342442  0.29135923  1
  Br  Br10  1  0.94667753  0.06729555  0.65166325  1
  Br  Br11  1  0.41657558  0.70864077  0.87678445  1
  Br  Br12  1  0.87678445  0.41657558  0.70864077  1
  Br  Br13  1  0.06729555  0.65166325  0.94667753  1
  Br  Br14  1  0.47229178  0.64122575  0.22220088  1
  Br  Br15  1  0.64122575  0.22220088  0.47229178  1
  Br  Br16  1  0.52770822  0.35877425  0.77779912  1
  Br  Br17  1  0.05332247  0.93270445  0.34833675  1
loop_
_geom_bond_atom_site_label_1
_geom_bond_atom_site_label_2
_geom_bond_distance
_geom_bond_site_symmetry_2
Be0 Hf1 2.306765 1_455
Be0 Hf0 2.306765 1_544
Be0 Hf2 2.306765 1_554
Be0 Hf4 2.306765 1_445
Be0 Hf3 2.306765 1_545
Be0 Hf5 2.306765 1_454
Br0 Hf6 2.623823 1_555
Br0 Hf2 3.018585 1_555
Br0 Cs0 4.003958 1_455
Br1 Hf6 2.623823 1_555
Br1 Hf4 3.018585 1_555
Br1 Cs1 4.003958 1_655
Br2 Hf2 2.692503 1_555
Br2 Hf3 2.697220 1_546
Br2 Cs1 3.821569 1_556
Br2 Cs0 3.837736 1_545
Br3 Hf4 2.692503 1_555
Br3 Hf5 2.697220 1_564
Br3 Cs0 3.821569 1_554
Br3 Cs1 3.837736 1_565
Br4 Hf1 2.692503 1_555
Br4 Hf2 2.697220 1_654
Br4 Cs1 3.821569 1_655
Br4 Cs0 3.837736 1_554
Br5 Hf4 2.673169 1_555
Br5 Hf1 2.681940 1_565
Br5 Cs0 3.793174 1_555
Br6 Hf6 2.623824 1_555
Br6 Hf0 3.018585 1_555
Br6 Cs1 4.003959 1_565
Br7 Hf1 2.673170 1_555
Br7 Hf5 2.681940 1_554
Br7 Cs1 3.793174 1_555
Br8 Hf2 2.673169 1_555
Br8 Hf0 2.681940 1_545
Br8 Cs1 3.793174 1_555
Br9 Hf3 2.673170 1_555
Br9 Hf4 2.681940 1_455
Br9 Cs1 3.793174 1_555
Br10 Hf5 2.692503 1_555
Br10 Hf0 2.697220 1_645
Br10 Cs0 3.821569 1_545
Br10 Cs1 3.837736 1_655
Br11 Hf0 2.673170 1_555
Br11 Hf3 2.681940 1_556
Br11 Cs0 3.793174 1_555
Br12 Hf5 2.673170 1_555
Br12 Hf2 2.681940 1_655
Br12 Cs0 3.793174 1_555
Br13 Hf0 2.692503 1_555
Br13 Hf4 2.697220 1_456
Br13 Cs0 3.821569 1_455
Br13 Cs1 3.837736 1_556
Br14 Hf6 2.623823 1_555
Br14 Hf3 3.018585 1_555
Br14 Cs0 4.003958 1_554
Br15 Hf6 2.623824 1_555
Br15 Hf1 3.018585 1_555
Br15 Cs0 4.003959 1_545
Br16 Hf6 2.623823 1_555
Br16 Hf5 3.018585 1_555
Br16 Cs1 4.003958 1_556
Br17 Hf3 2.692503 1_555
Br17 Hf1 2.697220 1_465
Br17 Cs1 3.821569 1_565
Br17 Cs0 3.837736 1_455
