# generated using pymatgen
data_DyInAu2
_symmetry_space_group_name_H-M   'P 1'
_cell_length_a   4.90316169
_cell_length_b   4.90316149
_cell_length_c   4.90316157
_cell_angle_alpha   59.99999247
_cell_angle_beta   59.99999375
_cell_angle_gamma   60.00000242
_symmetry_Int_Tables_number   1
_chemical_formula_structural   DyInAu2
_chemical_formula_sum   'Dy1 In1 Au2'
_cell_volume   83.35153106
_cell_formula_units_Z   1
loop_
 _symmetry_equiv_pos_site_id
 _symmetry_equiv_pos_as_xyz
  1  'x, y, z'
loop_
 _atom_site_type_symbol
 _atom_site_label
 _atom_site_symmetry_multiplicity
 _atom_site_fract_x
 _atom_site_fract_y
 _atom_site_fract_z
 _atom_site_occupancy
  Dy  Dy0  1  -0.00000000  -0.00000000  0.00000000  1
  In  In0  1  0.50000000  0.50000000  0.50000000  1
  Au  Au0  1  0.75000000  0.75000000  0.75000000  1
  Au  Au1  1  0.25000000  0.25000000  0.25000000  1
loop_
_geom_bond_atom_site_label_1
_geom_bond_atom_site_label_2
_geom_bond_distance
_geom_bond_site_symmetry_2
Au0 In0 3.002561 1_556
Au0 Dy0 3.002561 1_665
Au0 Dy0 3.002561 1_656
Au0 In0 3.002561 1_565
Au0 In0 3.002561 1_655
Au0 Dy0 3.002561 1_566
Au0 Dy0 3.002561 1_666
Au0 In0 3.002561 1_555
Au1 Dy0 3.002561 1_556
Au1 In0 3.002561 1_554
Au1 Dy0 3.002561 1_565
Au1 In0 3.002561 1_545
Au1 Dy0 3.002561 1_655
Au1 In0 3.002561 1_455
Au1 Dy0 3.002561 1_555
Au1 In0 3.002561 1_555
