# generated using pymatgen
data_CsRb2NbSe4
_symmetry_space_group_name_H-M   'P 1'
_cell_length_a   10.26988784
_cell_length_b   10.27926870
_cell_length_c   11.36153540
_cell_angle_alpha   90.00000000
_cell_angle_beta   90.00000000
_cell_angle_gamma   90.00000000
_symmetry_Int_Tables_number   1
_chemical_formula_structural   CsRb2NbSe4
_chemical_formula_sum   'Cs4 Rb8 Nb4 Se16'
_cell_volume   1199.40248774
_cell_formula_units_Z   4
loop_
 _symmetry_equiv_pos_site_id
 _symmetry_equiv_pos_as_xyz
  1  'x, y, z'
loop_
 _atom_site_type_symbol
 _atom_site_label
 _atom_site_symmetry_multiplicity
 _atom_site_fract_x
 _atom_site_fract_y
 _atom_site_fract_z
 _atom_site_occupancy
  Cs  Cs0  1  0.64526802  0.90999738  0.25000000  1
  Cs  Cs1  1  0.14526802  0.59000262  0.25000000  1
  Cs  Cs2  1  0.85473198  0.40999738  0.75000000  1
  Cs  Cs3  1  0.35473198  0.09000262  0.75000000  1
  Rb  Rb0  1  0.05040722  0.79025714  0.95524351  1
  Rb  Rb1  1  0.55040722  0.70974286  0.54475649  1
  Rb  Rb2  1  0.44959278  0.29025714  0.04475649  1
  Rb  Rb3  1  0.94959278  0.20974286  0.45524351  1
  Rb  Rb4  1  0.94959278  0.20974286  0.04475649  1
  Rb  Rb5  1  0.44959278  0.29025714  0.45524351  1
  Rb  Rb6  1  0.55040722  0.70974286  0.95524351  1
  Rb  Rb7  1  0.05040722  0.79025714  0.54475649  1
  Nb  Nb0  1  0.78199041  0.98348094  0.75000000  1
  Nb  Nb1  1  0.21800959  0.01651906  0.25000000  1
  Nb  Nb2  1  0.71800959  0.48348094  0.25000000  1
  Nb  Nb3  1  0.28199041  0.51651906  0.75000000  1
  Se  Se0  1  0.33058657  0.94805501  0.07482682  1
  Se  Se1  1  0.83058657  0.55194499  0.42517318  1
  Se  Se2  1  0.16941343  0.44805501  0.92517318  1
  Se  Se3  1  0.66941343  0.05194499  0.57482682  1
  Se  Se4  1  0.99973347  0.92809642  0.25000000  1
  Se  Se5  1  0.49973347  0.57190358  0.25000000  1
  Se  Se6  1  0.50026653  0.42809642  0.75000000  1
  Se  Se7  1  0.00026653  0.07190358  0.75000000  1
  Se  Se8  1  0.66941343  0.05194499  0.92517318  1
  Se  Se9  1  0.33058657  0.94805501  0.42517318  1
  Se  Se10  1  0.83058657  0.55194499  0.07482682  1
  Se  Se11  1  0.16941343  0.44805501  0.57482682  1
  Se  Se12  1  0.79762653  0.74982474  0.75000000  1
  Se  Se13  1  0.29762653  0.75017526  0.75000000  1
  Se  Se14  1  0.70237347  0.24982474  0.25000000  1
  Se  Se15  1  0.20237347  0.25017526  0.25000000  1
loop_
_geom_bond_atom_site_label_1
_geom_bond_atom_site_label_2
_geom_bond_distance
_geom_bond_site_symmetry_2
Cs0 Se14 3.542065 1_565
Cs0 Se4 3.645071 1_555
Cs0 Se5 3.783121 1_555
Cs0 Se9 3.815527 1_555
Cs0 Se0 3.815527 1_555
Cs0 Se3 3.976246 1_565
Cs0 Se8 3.976246 1_564
Cs1 Se15 3.542065 1_555
Cs1 Se5 3.645071 1_555
Cs1 Se4 3.783121 1_455
Cs1 Se1 3.815527 1_455
Cs1 Se10 3.815527 1_455
Cs1 Se11 3.976246 1_555
Cs1 Se2 3.976246 1_554
Cs2 Se12 3.542065 1_555
Cs2 Se6 3.645071 1_555
Cs2 Se7 3.783121 1_655
Cs2 Se2 3.815527 1_655
Cs2 Se11 3.815527 1_655
Cs2 Se10 3.976246 1_556
Cs2 Se1 3.976246 1_555
Cs3 Se13 3.542065 1_545
Cs3 Se7 3.645071 1_555
Cs3 Se6 3.783121 1_555
Cs3 Se8 3.815527 1_555
Cs3 Se3 3.815527 1_555
Cs3 Se0 3.976246 1_546
Cs3 Se9 3.976246 1_545
Rb0 Se13 3.471817 1_555
Rb0 Se12 3.514225 1_455
Rb0 Se0 3.571618 1_556
Rb0 Se10 3.597679 1_456
Rb0 Se4 3.673342 1_456
Rb0 Se2 3.739501 1_555
Rb0 Se7 3.752939 1_565
Rb1 Se12 3.471817 1_555
Rb1 Se13 3.514225 1_555
Rb1 Se1 3.571618 1_555
Rb1 Se9 3.597679 1_555
Rb1 Se5 3.673342 1_555
Rb1 Se3 3.739501 1_565
Rb1 Se6 3.752939 1_555
Rb2 Se15 3.471817 1_555
Rb2 Se14 3.514225 1_555
Rb2 Se2 3.571618 1_554
Rb2 Se8 3.597679 1_554
Rb2 Se6 3.673342 1_554
Rb2 Se0 3.739501 1_545
Rb2 Se5 3.752939 1_555
Rb3 Se14 3.471817 1_555
Rb3 Se15 3.514225 1_655
Rb3 Se3 3.571618 1_555
Rb3 Se11 3.597679 1_655
Rb3 Se7 3.673342 1_655
Rb3 Se1 3.739501 1_555
Rb3 Se4 3.752939 1_545
Rb4 Se14 3.471817 1_555
Rb4 Se15 3.514225 1_655
Rb4 Se8 3.571618 1_554
Rb4 Se2 3.597679 1_654
Rb4 Se7 3.673342 1_654
Rb4 Se10 3.739501 1_555
Rb4 Se4 3.752939 1_545
Rb5 Se15 3.471817 1_555
Rb5 Se14 3.514225 1_555
Rb5 Se11 3.571618 1_555
Rb5 Se3 3.597679 1_555
Rb5 Se6 3.673342 1_555
Rb5 Se9 3.739501 1_545
Rb5 Se5 3.752939 1_555
Rb6 Se12 3.471817 1_555
Rb6 Se13 3.514225 1_555
Rb6 Se10 3.571618 1_556
Rb6 Se0 3.597679 1_556
Rb6 Se5 3.673342 1_556
Rb6 Se8 3.739501 1_565
Rb6 Se6 3.752939 1_555
Rb7 Se13 3.471817 1_555
Rb7 Se12 3.514225 1_455
Rb7 Se9 3.571618 1_555
Rb7 Se1 3.597679 1_455
Rb7 Se4 3.673342 1_455
Rb7 Se11 3.739501 1_555
Rb7 Se7 3.752939 1_565
Nb0 Se8 2.406867 1_565
Nb0 Se3 2.406867 1_565
Nb0 Se12 2.407177 1_555
Nb0 Se7 2.418931 1_665
Nb1 Se9 2.406867 1_545
Nb1 Se0 2.406867 1_545
Nb1 Se15 2.407177 1_555
Nb1 Se4 2.418931 1_445
Nb2 Se1 2.406867 1_555
Nb2 Se10 2.406867 1_555
Nb2 Se14 2.407177 1_555
Nb2 Se5 2.418931 1_555
Nb3 Se2 2.406867 1_555
Nb3 Se11 2.406867 1_555
Nb3 Se13 2.407177 1_555
Nb3 Se6 2.418931 1_555
