# generated using pymatgen
data_YNb6Sn5Sb
_symmetry_space_group_name_H-M   'P 1'
_cell_length_a   5.78702005
_cell_length_b   5.78702069
_cell_length_c   9.59659644
_cell_angle_alpha   90.00000000
_cell_angle_beta   90.00000000
_cell_angle_gamma   120.00000200
_symmetry_Int_Tables_number   1
_chemical_formula_structural   YNb6Sn5Sb
_chemical_formula_sum   'Y1 Nb6 Sn5 Sb1'
_cell_volume   278.32862709
_cell_formula_units_Z   1
loop_
 _symmetry_equiv_pos_site_id
 _symmetry_equiv_pos_as_xyz
  1  'x, y, z'
loop_
 _atom_site_type_symbol
 _atom_site_label
 _atom_site_symmetry_multiplicity
 _atom_site_fract_x
 _atom_site_fract_y
 _atom_site_fract_z
 _atom_site_occupancy
  Y  Y0  1  0.00000000  0.00000000  0.99604629  1
  Nb  Nb0  1  0.00000000  0.50000000  0.75198945  1
  Nb  Nb1  1  0.50000000  0.50000000  0.75198945  1
  Nb  Nb2  1  0.50000000  0.00000000  0.75198945  1
  Nb  Nb3  1  0.00000000  0.50000000  0.25034346  1
  Nb  Nb4  1  0.50000000  0.50000000  0.25034346  1
  Nb  Nb5  1  0.50000000  0.00000000  0.25034346  1
  Sn  Sn0  1  0.66666700  0.33333300  0.50029732  1
  Sn  Sn1  1  0.33333300  0.66666700  0.50029732  1
  Sn  Sn2  1  0.66666700  0.33333300  0.00113502  1
  Sn  Sn3  1  0.33333300  0.66666700  0.00113502  1
  Sn  Sn4  1  0.00000000  0.00000000  0.33267313  1
  Sb  Sb0  1  0.00000000  0.00000000  0.66141315  1
loop_
_geom_bond_atom_site_label_1
_geom_bond_atom_site_label_2
_geom_bond_distance
_geom_bond_site_symmetry_2
Nb0 Sn3 2.916751 1_556
Nb0 Sn2 2.916751 1_456
Nb0 Sn1 2.936817 1_555
Nb0 Sn0 2.936817 1_455
Nb0 Sb0 3.021250 1_555
Nb0 Sb0 3.021250 1_565
Nb1 Sn3 2.916753 1_556
Nb1 Sn2 2.916753 1_556
Nb1 Sn1 2.936820 1_555
Nb1 Sn0 2.936820 1_555
Nb1 Sb0 3.021250 1_665
Nb1 Sb0 3.021250 1_555
Nb2 Sn2 2.916751 1_556
Nb2 Sn3 2.916751 1_546
Nb2 Sn0 2.936817 1_555
Nb2 Sn1 2.936817 1_545
Nb2 Sb0 3.021250 1_655
Nb2 Sb0 3.021250 1_555
Nb3 Sn3 2.917245 1_555
Nb3 Sn2 2.917245 1_455
Nb3 Sn1 2.923112 1_555
Nb3 Sn0 2.923112 1_455
Nb3 Sn4 2.999439 1_555
Nb3 Sn4 2.999439 1_565
Nb4 Sn2 2.917248 1_555
Nb4 Sn3 2.917248 1_555
Nb4 Sn1 2.923115 1_555
Nb4 Sn0 2.923115 1_555
Nb4 Sn4 2.999439 1_665
Nb4 Sn4 2.999439 1_555
Nb5 Sn2 2.917245 1_555
Nb5 Sn3 2.917245 1_545
Nb5 Sn0 2.923113 1_555
Nb5 Sn1 2.923113 1_545
Nb5 Sn4 2.999439 1_555
Nb5 Sn4 2.999439 1_655
Sn2 Y0 3.341491 1_654
Sn2 Y0 3.341496 1_554
Sn2 Y0 3.341496 1_664
Sn3 Y0 3.341491 1_564
Sn3 Y0 3.341496 1_664
Sn3 Y0 3.341496 1_554
Sn4 Y0 3.230472 1_554
Sb0 Sn4 3.154785 1_555
Sb0 Y0 3.211339 1_555
