# generated using pymatgen
data_Hf16FePt7
_symmetry_space_group_name_H-M   'P 1'
_cell_length_a   8.74585121
_cell_length_b   8.74585204
_cell_length_c   8.74585169
_cell_angle_alpha   59.90531378
_cell_angle_beta   59.90531276
_cell_angle_gamma   59.90531096
_symmetry_Int_Tables_number   1
_chemical_formula_structural   Hf16FePt7
_chemical_formula_sum   'Hf16 Fe1 Pt7'
_cell_volume   472.01675994
_cell_formula_units_Z   1
loop_
 _symmetry_equiv_pos_site_id
 _symmetry_equiv_pos_as_xyz
  1  'x, y, z'
loop_
 _atom_site_type_symbol
 _atom_site_label
 _atom_site_symmetry_multiplicity
 _atom_site_fract_x
 _atom_site_fract_y
 _atom_site_fract_z
 _atom_site_occupancy
  Hf  Hf0  1  0.13077366  0.13077366  0.13077366  1
  Hf  Hf1  1  0.64780297  0.11230323  0.11230323  1
  Hf  Hf2  1  0.11230323  0.64780297  0.11230323  1
  Hf  Hf3  1  0.11230323  0.11230323  0.64780297  1
  Hf  Hf4  1  0.68613477  0.30826834  0.68613477  1
  Hf  Hf5  1  0.93718130  0.56121078  0.56121078  1
  Hf  Hf6  1  0.57440995  0.93462405  0.93462405  1
  Hf  Hf7  1  0.93462405  0.57440995  0.93462405  1
  Hf  Hf8  1  0.56121078  0.56121078  0.93718130  1
  Hf  Hf9  1  0.93462405  0.93462405  0.57440995  1
  Hf  Hf10  1  0.68613477  0.68613477  0.30826834  1
  Hf  Hf11  1  0.30826834  0.68613477  0.68613477  1
  Hf  Hf12  1  0.68488775  0.31087428  0.31087428  1
  Hf  Hf13  1  0.31087428  0.31087428  0.68488775  1
  Hf  Hf14  1  0.56121078  0.93718130  0.56121078  1
  Hf  Hf15  1  0.31087428  0.68488775  0.31087428  1
  Fe  Fe0  1  0.89426469  0.89426469  0.89426469  1
  Pt  Pt0  1  0.34440810  0.34440810  0.34440810  1
  Pt  Pt1  1  0.29371062  0.90639245  0.90639245  1
  Pt  Pt2  1  0.90639245  0.29371062  0.90639245  1
  Pt  Pt3  1  0.90639245  0.90639245  0.29371062  1
  Pt  Pt4  1  0.35211296  0.95698954  0.35211296  1
  Pt  Pt5  1  0.35211296  0.35211296  0.95698954  1
  Pt  Pt6  1  0.95698954  0.35211296  0.35211296  1
loop_
_geom_bond_atom_site_label_1
_geom_bond_atom_site_label_2
_geom_bond_distance
_geom_bond_site_symmetry_2
Hf0 Pt4 2.767944 1_545
Hf0 Pt6 2.767944 1_455
Hf0 Pt5 2.767944 1_554
Hf0 Pt2 2.825926 1_454
Hf0 Pt3 2.825927 1_445
Hf0 Pt1 2.825927 1_544
Hf1 Pt3 2.742928 1_545
Hf1 Pt2 2.742928 1_554
Hf1 Pt5 2.856230 1_554
Hf1 Pt4 2.856230 1_545
Hf1 Pt0 2.934475 1_555
Hf2 Pt3 2.742928 1_455
Hf2 Pt1 2.742928 1_554
Hf2 Pt5 2.856230 1_554
Hf2 Pt6 2.856230 1_455
Hf2 Pt0 2.934475 1_555
Hf3 Pt1 2.742928 1_545
Hf3 Pt2 2.742928 1_455
Hf3 Pt6 2.856230 1_455
Hf3 Pt4 2.856230 1_545
Hf3 Pt0 2.934475 1_555
Hf4 Pt5 2.672105 1_555
Hf4 Pt6 2.672105 1_555
Hf4 Pt2 3.266079 1_555
Hf5 Pt2 2.719043 1_555
Hf5 Pt3 2.719043 1_555
Hf5 Pt6 3.071970 1_555
Hf5 Pt0 3.152117 1_655
Hf6 Pt1 2.725003 1_555
Hf6 Pt4 3.219604 1_556
Hf6 Pt5 3.219604 1_565
Hf7 Pt2 2.725003 1_555
Hf7 Pt5 3.219604 1_655
Hf7 Pt6 3.219604 1_556
Hf8 Pt2 2.719042 1_555
Hf8 Pt1 2.719043 1_555
Hf8 Pt5 3.071970 1_555
Hf8 Pt0 3.152118 1_556
Hf9 Pt3 2.725003 1_555
Hf9 Pt4 3.219604 1_655
Hf9 Pt6 3.219604 1_565
Hf10 Pt4 2.672105 1_555
Hf10 Pt6 2.672105 1_555
Hf10 Pt3 3.266079 1_555
Hf11 Pt4 2.672105 1_555
Hf11 Pt5 2.672105 1_555
Hf11 Pt1 3.266079 1_555
Hf12 Pt0 2.715480 1_555
Hf12 Pt6 2.788440 1_555
Hf12 Pt2 3.107708 1_554
Hf12 Pt3 3.107708 1_545
Hf13 Pt0 2.715480 1_555
Hf13 Pt5 2.788440 1_555
Hf13 Pt2 3.107708 1_455
Hf13 Pt1 3.107709 1_545
Hf14 Pt3 2.719043 1_555
Hf14 Pt1 2.719043 1_555
Hf14 Pt4 3.071970 1_555
Hf14 Pt0 3.152118 1_565
Hf15 Pt0 2.715480 1_555
Hf15 Pt4 2.788440 1_555
Hf15 Pt3 3.107708 1_455
Hf15 Pt1 3.107708 1_554
Fe0 Hf6 2.493813 1_555
Fe0 Hf9 2.493814 1_555
Fe0 Hf7 2.493814 1_555
Fe0 Hf2 2.705820 1_656
Fe0 Hf1 2.705820 1_566
Fe0 Hf3 2.705820 1_665
