# generated using pymatgen
data_Cs2Hf7MnBr18
_symmetry_space_group_name_H-M   'P 1'
_cell_length_a   10.99828703
_cell_length_b   10.99828839
_cell_length_c   10.99828738
_cell_angle_alpha   55.27589268
_cell_angle_beta   55.27589096
_cell_angle_gamma   55.27589097
_symmetry_Int_Tables_number   1
_chemical_formula_structural   Cs2Hf7MnBr18
_chemical_formula_sum   'Cs2 Hf7 Mn1 Br18'
_cell_volume   837.43805707
_cell_formula_units_Z   1
loop_
 _symmetry_equiv_pos_site_id
 _symmetry_equiv_pos_as_xyz
  1  'x, y, z'
loop_
 _atom_site_type_symbol
 _atom_site_label
 _atom_site_symmetry_multiplicity
 _atom_site_fract_x
 _atom_site_fract_y
 _atom_site_fract_z
 _atom_site_occupancy
  Cs  Cs0  1  0.77581321  0.77581321  0.77581321  1
  Cs  Cs1  1  0.22418679  0.22418679  0.22418679  1
  Hf  Hf0  1  0.16271266  0.89933954  0.79088623  1
  Hf  Hf1  1  0.83728734  0.10066046  0.20911377  1
  Hf  Hf2  1  0.10066046  0.20911377  0.83728734  1
  Hf  Hf3  1  0.20911377  0.83728734  0.10066046  1
  Hf  Hf4  1  0.89933954  0.79088623  0.16271266  1
  Hf  Hf5  1  0.79088623  0.16271266  0.89933954  1
  Hf  Hf6  1  0.50000000  0.50000000  0.50000000  1
  Mn  Mn0  1  0.00000000  0.00000000  0.00000000  1
  Br  Br0  1  0.21752333  0.47516560  0.64151693  1
  Br  Br1  1  0.78247667  0.52483440  0.35848307  1
  Br  Br2  1  0.34988102  0.05431154  0.93091600  1
  Br  Br3  1  0.65011898  0.94568846  0.06908400  1
  Br  Br4  1  0.93091600  0.34988102  0.05431154  1
  Br  Br5  1  0.70820224  0.87391404  0.42067224  1
  Br  Br6  1  0.35848307  0.78247667  0.52483440  1
  Br  Br7  1  0.57932776  0.29179776  0.12608596  1
  Br  Br8  1  0.29179776  0.12608596  0.57932776  1
  Br  Br9  1  0.12608596  0.57932776  0.29179776  1
  Br  Br10  1  0.94568846  0.06908400  0.65011898  1
  Br  Br11  1  0.42067224  0.70820224  0.87391404  1
  Br  Br12  1  0.87391404  0.42067224  0.70820224  1
  Br  Br13  1  0.06908400  0.65011898  0.94568846  1
  Br  Br14  1  0.47516560  0.64151693  0.21752333  1
  Br  Br15  1  0.64151693  0.21752333  0.47516560  1
  Br  Br16  1  0.52483440  0.35848307  0.78247667  1
  Br  Br17  1  0.05431154  0.93091600  0.34988102  1
loop_
_geom_bond_atom_site_label_1
_geom_bond_atom_site_label_2
_geom_bond_distance
_geom_bond_site_symmetry_2
Hf0 Mn0 2.381685 1_566
Hf1 Mn0 2.381685 1_655
Hf2 Mn0 2.381685 1_556
Hf3 Mn0 2.381685 1_565
Hf4 Mn0 2.381685 1_665
Hf5 Mn0 2.381685 1_656
Br0 Hf6 2.668828 1_555
Br0 Hf2 2.967207 1_555
Br0 Cs0 3.975522 1_455
Br1 Hf6 2.668828 1_555
Br1 Hf4 2.967207 1_555
Br1 Cs1 3.975522 1_655
Br2 Hf2 2.715487 1_555
Br2 Hf3 2.723978 1_546
Br2 Cs1 3.827341 1_556
Br2 Cs0 3.839098 1_545
Br3 Hf4 2.715487 1_555
Br3 Hf5 2.723978 1_564
Br3 Cs0 3.827341 1_554
Br3 Cs1 3.839098 1_565
Br4 Hf1 2.715487 1_555
Br4 Hf2 2.723977 1_654
Br4 Cs1 3.827341 1_655
Br4 Cs0 3.839099 1_554
Br5 Hf4 2.696697 1_555
Br5 Hf1 2.703374 1_565
Br5 Cs0 3.816704 1_555
Br6 Hf6 2.668829 1_555
Br6 Hf0 2.967207 1_555
Br6 Cs1 3.975522 1_565
Br7 Hf1 2.696697 1_555
Br7 Hf5 2.703374 1_554
Br7 Cs1 3.816704 1_555
Br8 Hf2 2.696697 1_555
Br8 Hf0 2.703374 1_545
Br8 Cs1 3.816704 1_555
Br9 Hf3 2.696698 1_555
Br9 Hf4 2.703374 1_455
Br9 Cs1 3.816704 1_555
Br10 Hf5 2.715487 1_555
Br10 Hf0 2.723977 1_645
Br10 Cs0 3.827341 1_545
Br10 Cs1 3.839099 1_655
Br11 Hf0 2.696697 1_555
Br11 Hf3 2.703374 1_556
Br11 Cs0 3.816704 1_555
Br12 Hf5 2.696698 1_555
Br12 Hf2 2.703374 1_655
Br12 Cs0 3.816704 1_555
Br13 Hf0 2.715487 1_555
Br13 Hf4 2.723977 1_456
Br13 Cs0 3.827341 1_455
Br13 Cs1 3.839099 1_556
Br14 Hf6 2.668828 1_555
Br14 Hf3 2.967206 1_555
Br14 Cs0 3.975522 1_554
Br15 Hf6 2.668829 1_555
Br15 Hf1 2.967207 1_555
Br15 Cs0 3.975522 1_545
Br16 Hf6 2.668828 1_555
Br16 Hf5 2.967206 1_555
Br16 Cs1 3.975522 1_556
Br17 Hf3 2.715487 1_555
Br17 Hf1 2.723977 1_465
Br17 Cs1 3.827341 1_565
Br17 Cs0 3.839099 1_455
