# generated using pymatgen
data_LiAlO2
_symmetry_space_group_name_H-M   'P 1'
_cell_length_a   3.90236700
_cell_length_b   3.90236700
_cell_length_c   25.28056900
_cell_angle_alpha   90.00000000
_cell_angle_beta   90.00000000
_cell_angle_gamma   90.00000000
_symmetry_Int_Tables_number   1
_chemical_formula_structural   LiAlO2
_chemical_formula_sum   'Li12 Al12 O24'
_cell_volume   384.98434116
_cell_formula_units_Z   12
loop_
 _symmetry_equiv_pos_site_id
 _symmetry_equiv_pos_as_xyz
  1  'x, y, z'
loop_
 _atom_site_type_symbol
 _atom_site_label
 _atom_site_symmetry_multiplicity
 _atom_site_fract_x
 _atom_site_fract_y
 _atom_site_fract_z
 _atom_site_occupancy
  Li  Li0  1  0.50000000  0.50000000  0.83354900  1
  Li  Li1  1  0.00000000  0.00000000  0.66700800  1
  Li  Li2  1  0.50000000  0.00000000  0.75539900  1
  Li  Li3  1  0.50000000  0.50000000  0.50000000  1
  Li  Li4  1  0.00000000  0.50000000  0.58298500  1
  Li  Li5  1  0.00000000  0.00000000  0.33299200  1
  Li  Li6  1  0.50000000  0.00000000  0.41701500  1
  Li  Li7  1  0.00000000  0.50000000  0.08856600  1
  Li  Li8  1  0.50000000  0.50000000  0.16645100  1
  Li  Li9  1  0.00000000  0.50000000  0.24460100  1
  Li  Li10  1  0.50000000  0.00000000  0.91143400  1
  Li  Li11  1  0.00000000  0.00000000  0.00000000  1
  Al  Al0  1  0.00000000  0.50000000  0.74942800  1
  Al  Al1  1  0.50000000  0.00000000  0.58336300  1
  Al  Al2  1  0.00000000  0.00000000  0.83343100  1
  Al  Al3  1  0.00000000  0.50000000  0.41663700  1
  Al  Al4  1  0.50000000  0.50000000  0.66683200  1
  Al  Al5  1  0.50000000  0.00000000  0.25057200  1
  Al  Al6  1  0.00000000  0.00000000  0.50000000  1
  Al  Al7  1  0.50000000  0.50000000  0.33316800  1
  Al  Al8  1  0.50000000  0.00000000  0.08262900  1
  Al  Al9  1  0.00000000  0.00000000  0.16656900  1
  Al  Al10  1  0.00000000  0.50000000  0.91737100  1
  Al  Al11  1  0.50000000  0.50000000  0.00000000  1
  O  O0  1  0.50000000  0.50000000  0.74240700  1
  O  O1  1  0.00000000  0.50000000  0.83345600  1
  O  O2  1  0.00000000  0.00000000  0.57491100  1
  O  O3  1  0.50000000  0.00000000  0.65809300  1
  O  O4  1  0.00000000  0.00000000  0.75838600  1
  O  O5  1  0.50000000  0.00000000  0.83344800  1
  O  O6  1  0.50000000  0.50000000  0.40817500  1
  O  O7  1  0.00000000  0.50000000  0.49165200  1
  O  O8  1  0.50000000  0.50000000  0.59182500  1
  O  O9  1  0.00000000  0.50000000  0.67541900  1
  O  O10  1  0.00000000  0.00000000  0.24161400  1
  O  O11  1  0.50000000  0.00000000  0.32458100  1
  O  O12  1  0.00000000  0.00000000  0.42508900  1
  O  O13  1  0.50000000  0.00000000  0.50834800  1
  O  O14  1  0.50000000  0.50000000  0.07553800  1
  O  O15  1  0.00000000  0.50000000  0.16655200  1
  O  O16  1  0.50000000  0.50000000  0.25759300  1
  O  O17  1  0.00000000  0.50000000  0.34190700  1
  O  O18  1  0.00000000  0.00000000  0.90845400  1
  O  O19  1  0.50000000  0.00000000  0.00883300  1
  O  O20  1  0.00000000  0.00000000  0.09154600  1
  O  O21  1  0.50000000  0.00000000  0.16654400  1
  O  O22  1  0.50000000  0.50000000  0.92446200  1
  O  O23  1  0.00000000  0.50000000  0.99116700  1
loop_
_geom_bond_atom_site_label_1
_geom_bond_atom_site_label_2
_geom_bond_distance
_geom_bond_site_symmetry_2
Li0 O1 1.951185 1_655
Li0 O1 1.951185 1_555
Li0 O5 1.951185 1_555
Li0 O5 1.951185 1_565
Li0 O22 2.298332 1_555
Li0 O0 2.304122 1_555
Li1 O9 1.962735 1_555
Li1 O9 1.962735 1_545
Li1 O3 1.964157 1_455
Li1 O3 1.964157 1_555
Li1 O4 2.310088 1_555
Li1 O2 2.328265 1_555
Li2 O4 1.952644 1_655
Li2 O4 1.952644 1_555
Li2 O5 1.973123 1_555
Li2 O0 1.978634 1_545
Li2 O0 1.978634 1_555
Li2 O3 2.459951 1_555
Li3 O7 1.962564 1_555
Li3 O7 1.962564 1_655
Li3 O13 1.962564 1_565
Li3 O13 1.962564 1_555
Li3 O8 2.321388 1_555
Li3 O6 2.321388 1_555
Li4 O2 1.961831 1_555
Li4 O2 1.961831 1_565
Li4 O8 1.963940 1_455
Li4 O8 1.963940 1_555
Li4 O7 2.308950 1_555
Li4 O9 2.336784 1_555
Li5 O11 1.962735 1_555
Li5 O11 1.962735 1_455
Li5 O17 1.964157 1_555
Li5 O17 1.964157 1_545
Li5 O10 2.310088 1_555
Li5 O12 2.328265 1_555
Li6 O12 1.961831 1_655
Li6 O12 1.961831 1_555
Li6 O6 1.963940 1_555
Li6 O6 1.963940 1_545
Li6 O13 2.308950 1_555
Li6 O11 2.336784 1_555
Li7 O20 1.952637 1_565
Li7 O20 1.952637 1_555
Li7 O15 1.971530 1_555
Li7 O14 1.978785 1_455
Li7 O14 1.978785 1_555
Li7 O23 2.462302 1_554
Li8 O21 1.951185 1_555
Li8 O21 1.951185 1_565
Li8 O15 1.951185 1_655
Li8 O15 1.951185 1_555
Li8 O14 2.298332 1_555
Li8 O16 2.304122 1_555
Li9 O10 1.952644 1_565
Li9 O10 1.952644 1_555
Li9 O15 1.973123 1_555
Li9 O16 1.978634 1_455
Li9 O16 1.978634 1_555
Li9 O17 2.459951 1_555
Li10 O18 1.952637 1_555
Li10 O18 1.952637 1_655
Li10 O5 1.971530 1_555
Li10 O22 1.978785 1_545
Li10 O22 1.978785 1_555
Li10 O19 2.462302 1_556
Li11 O19 1.963920 1_455
Li11 O19 1.963920 1_555
Li11 O23 1.963920 1_544
Li11 O23 1.963920 1_554
Li11 O20 2.314335 1_555
Li11 O18 2.314335 1_554
Al0 O9 1.870990 1_555
Al0 O0 1.959240 1_455
Al0 O0 1.959240 1_555
Al0 O4 1.964282 1_555
Al0 O4 1.964282 1_565
Al0 O1 2.124276 1_555
Al1 O3 1.889217 1_555
Al1 O13 1.896422 1_555
Al1 O2 1.962848 1_555
Al1 O2 1.962848 1_655
Al1 O8 1.962876 1_555
Al1 O8 1.962876 1_545
Al2 O18 1.896624 1_555
Al2 O4 1.897180 1_555
Al2 O5 1.951184 1_455
Al2 O5 1.951184 1_555
Al2 O1 1.951184 1_555
Al2 O1 1.951184 1_545
Al3 O17 1.889217 1_555
Al3 O7 1.896422 1_555
Al3 O12 1.962848 1_565
Al3 O12 1.962848 1_555
Al3 O6 1.962876 1_555
Al3 O6 1.962876 1_455
Al4 O8 1.896220 1_555
Al4 O0 1.910579 1_555
Al4 O9 1.963223 1_555
Al4 O9 1.963223 1_655
Al4 O3 1.963651 1_555
Al4 O3 1.963651 1_565
Al5 O11 1.870990 1_555
Al5 O16 1.959240 1_545
Al5 O16 1.959240 1_555
Al5 O10 1.964282 1_655
Al5 O10 1.964282 1_555
Al5 O21 2.124276 1_555
Al6 O2 1.893793 1_555
Al6 O12 1.893793 1_555
Al6 O7 1.962564 1_555
Al6 O7 1.962564 1_545
Al6 O13 1.962564 1_455
Al6 O13 1.962564 1_555
Al7 O6 1.896220 1_555
Al7 O16 1.910579 1_555
Al7 O11 1.963223 1_555
Al7 O11 1.963223 1_565
Al7 O17 1.963651 1_555
Al7 O17 1.963651 1_655
Al8 O19 1.865605 1_555
Al8 O14 1.959401 1_545
Al8 O14 1.959401 1_555
Al8 O20 1.964162 1_555
Al8 O20 1.964162 1_655
Al8 O21 2.121419 1_555
Al9 O20 1.896624 1_555
Al9 O10 1.897180 1_555
Al9 O15 1.951184 1_555
Al9 O15 1.951184 1_545
Al9 O21 1.951184 1_455
Al9 O21 1.951184 1_555
Al10 O23 1.865605 1_555
Al10 O22 1.959401 1_455
Al10 O22 1.959401 1_555
Al10 O18 1.964162 1_555
Al10 O18 1.964162 1_565
Al10 O1 2.121419 1_555
Al11 O22 1.909644 1_554
Al11 O14 1.909644 1_555
Al11 O19 1.963920 1_555
Al11 O19 1.963920 1_565
Al11 O23 1.963920 1_554
Al11 O23 1.963920 1_654
