# generated using pymatgen
data_Hf10SiHgPb6
_symmetry_space_group_name_H-M   'P 1'
_cell_length_a   8.73324627
_cell_length_b   8.73324814
_cell_length_c   5.88201260
_cell_angle_alpha   90.00000000
_cell_angle_beta   90.00000000
_cell_angle_gamma   120.00000774
_symmetry_Int_Tables_number   1
_chemical_formula_structural   Hf10SiHgPb6
_chemical_formula_sum   'Hf10 Si1 Hg1 Pb6'
_cell_volume   388.51523683
_cell_formula_units_Z   1
loop_
 _symmetry_equiv_pos_site_id
 _symmetry_equiv_pos_as_xyz
  1  'x, y, z'
loop_
 _atom_site_type_symbol
 _atom_site_label
 _atom_site_symmetry_multiplicity
 _atom_site_fract_x
 _atom_site_fract_y
 _atom_site_fract_z
 _atom_site_occupancy
  Hf  Hf0  1  0.66666700  0.33333300  0.50000000  1
  Hf  Hf1  1  0.33333300  0.66666700  0.50000000  1
  Hf  Hf2  1  0.33333300  0.66666700  0.00000000  1
  Hf  Hf3  1  0.66666700  0.33333300  0.00000000  1
  Hf  Hf4  1  0.73196939  0.73196939  0.22955065  1
  Hf  Hf5  1  0.26803061  1.00000000  0.22955065  1
  Hf  Hf6  1  1.00000000  0.26803061  0.22955065  1
  Hf  Hf7  1  0.26803061  0.26803061  0.77044935  1
  Hf  Hf8  1  0.73196939  0.00000000  0.77044935  1
  Hf  Hf9  1  0.00000000  0.73196939  0.77044935  1
  Si  Si0  1  0.00000000  0.00000000  0.00000000  1
  Hg  Hg0  1  0.00000000  0.00000000  0.50000000  1
  Pb  Pb0  1  0.38828383  0.38828383  0.25877254  1
  Pb  Pb1  1  0.61171617  1.00000000  0.25877254  1
  Pb  Pb2  1  1.00000000  0.61171617  0.25877254  1
  Pb  Pb3  1  0.61171617  0.61171617  0.74122746  1
  Pb  Pb4  1  0.38828383  0.00000000  0.74122746  1
  Pb  Pb5  1  0.00000000  0.38828383  0.74122746  1
loop_
_geom_bond_atom_site_label_1
_geom_bond_atom_site_label_2
_geom_bond_distance
_geom_bond_site_symmetry_2
Hf0 Pb5 3.053022 1_655
Hf0 Pb1 3.053023 1_545
Hf0 Pb2 3.053025 1_555
Hf0 Pb4 3.053025 1_555
Hf0 Pb0 3.053030 1_555
Hf0 Pb3 3.053031 1_555
Hf1 Pb2 3.053022 1_455
Hf1 Pb4 3.053023 1_565
Hf1 Pb5 3.053025 1_555
Hf1 Pb1 3.053025 1_555
Hf1 Pb3 3.053030 1_555
Hf1 Pb0 3.053031 1_555
Hf2 Pb2 3.102331 1_455
Hf2 Pb4 3.102332 1_564
Hf2 Pb5 3.102334 1_554
Hf2 Pb1 3.102334 1_555
Hf2 Pb3 3.102339 1_554
Hf2 Pb0 3.102339 1_555
Hf3 Pb5 3.102331 1_654
Hf3 Pb1 3.102332 1_545
Hf3 Pb2 3.102334 1_555
Hf3 Pb4 3.102334 1_554
Hf3 Pb0 3.102339 1_555
Hf3 Pb3 3.102339 1_554
Hf4 Si0 2.702283 1_665
Hf4 Hg0 2.830166 1_665
Hf4 Pb0 3.006408 1_555
Hf4 Pb2 3.011643 1_555
Hf4 Pb1 3.011643 1_555
Hf4 Pb3 3.058294 1_554
Hf4 Pb3 3.187656 1_555
Hf5 Si0 2.702283 1_565
Hf5 Hg0 2.830166 1_565
Hf5 Pb1 3.006408 1_555
Hf5 Pb2 3.011643 1_455
Hf5 Pb0 3.011643 1_565
Hf5 Pb4 3.058294 1_564
Hf5 Pb4 3.187656 1_565
Hf6 Si0 2.702283 1_655
Hf6 Hg0 2.830166 1_655
Hf6 Pb2 3.006409 1_555
Hf6 Pb1 3.011642 1_545
Hf6 Pb0 3.011642 1_655
Hf6 Pb5 3.058294 1_654
Hf6 Pb5 3.187656 1_655
Hf7 Si0 2.702283 1_556
Hf7 Hg0 2.830166 1_555
Hf7 Pb3 3.006408 1_555
Hf7 Pb5 3.011643 1_555
Hf7 Pb4 3.011643 1_555
Hf7 Pb0 3.058294 1_556
Hf7 Pb0 3.187656 1_555
Hf8 Si0 2.702283 1_656
Hf8 Hg0 2.830166 1_655
Hf8 Pb4 3.006408 1_555
Hf8 Pb5 3.011643 1_655
Hf8 Pb3 3.011643 1_545
Hf8 Pb1 3.058294 1_546
Hf8 Pb1 3.187656 1_545
Hf9 Si0 2.702283 1_566
Hf9 Hg0 2.830166 1_565
Hf9 Pb5 3.006409 1_555
Hf9 Pb4 3.011642 1_565
Hf9 Pb3 3.011642 1_455
Hf9 Pb2 3.058294 1_456
Hf9 Pb2 3.187656 1_455
Hg0 Si0 2.941006 1_556
Hg0 Si0 2.941006 1_555
