# generated using pymatgen
data_NaZr(Si7Ir3)2
_symmetry_space_group_name_H-M   'P 1'
_cell_length_a   7.93092289
_cell_length_b   7.93092333
_cell_length_c   7.93092222
_cell_angle_alpha   56.90943092
_cell_angle_beta   56.90941745
_cell_angle_gamma   56.90942419
_symmetry_Int_Tables_number   1
_chemical_formula_structural   NaZr(Si7Ir3)2
_chemical_formula_sum   'Na1 Zr1 Si14 Ir6'
_cell_volume   327.59306771
_cell_formula_units_Z   1
loop_
 _symmetry_equiv_pos_site_id
 _symmetry_equiv_pos_as_xyz
  1  'x, y, z'
loop_
 _atom_site_type_symbol
 _atom_site_label
 _atom_site_symmetry_multiplicity
 _atom_site_fract_x
 _atom_site_fract_y
 _atom_site_fract_z
 _atom_site_occupancy
  Na  Na0  1  0.50000000  0.50000000  0.50000000  1
  Zr  Zr0  1  0.00000000  0.00000000  0.00000000  1
  Si  Si0  1  0.84679030  0.06455605  0.67312439  1
  Si  Si1  1  0.67312439  0.84679030  0.06455605  1
  Si  Si2  1  0.06455605  0.67312439  0.84679030  1
  Si  Si3  1  0.64548683  0.82415078  0.43602708  1
  Si  Si4  1  0.25064516  0.25064516  0.25064516  1
  Si  Si5  1  0.74935484  0.74935484  0.74935484  1
  Si  Si6  1  0.17584922  0.56397292  0.35451317  1
  Si  Si7  1  0.56397292  0.35451317  0.17584922  1
  Si  Si8  1  0.35451317  0.17584922  0.56397292  1
  Si  Si9  1  0.93544395  0.32687561  0.15320970  1
  Si  Si10  1  0.32687561  0.15320970  0.93544395  1
  Si  Si11  1  0.15320970  0.93544395  0.32687561  1
  Si  Si12  1  0.82415078  0.43602708  0.64548683  1
  Si  Si13  1  0.43602708  0.64548683  0.82415078  1
  Ir  Ir0  1  0.75644711  0.06589112  0.42191216  1
  Ir  Ir1  1  0.42191216  0.75644711  0.06589112  1
  Ir  Ir2  1  0.06589112  0.42191216  0.75644711  1
  Ir  Ir3  1  0.24355289  0.93410888  0.57808784  1
  Ir  Ir4  1  0.57808784  0.24355289  0.93410888  1
  Ir  Ir5  1  0.93410888  0.57808784  0.24355289  1
loop_
_geom_bond_atom_site_label_1
_geom_bond_atom_site_label_2
_geom_bond_distance
_geom_bond_site_symmetry_2
Na0 Si13 3.061600 1_555
Na0 Si7 3.061600 1_555
Na0 Si12 3.061600 1_555
Na0 Si6 3.061600 1_555
Na0 Si3 3.061600 1_555
Na0 Si8 3.061600 1_555
Na0 Si2 3.154457 1_555
Na0 Si9 3.154457 1_555
Na0 Si1 3.154458 1_555
Na0 Si10 3.154458 1_555
Na0 Si0 3.154458 1_555
Na0 Si11 3.154458 1_555
Si0 Si1 2.567362 1_546
Si0 Si2 2.567363 1_645
Si0 Si5 2.675961 1_545
Si0 Si12 2.742276 1_555
Si0 Si11 2.749818 1_645
Si0 Zr0 3.125742 1_656
Si1 Si2 2.567362 1_654
Si1 Si5 2.675960 1_554
Si1 Si3 2.742276 1_555
Si1 Si10 2.749818 1_564
Si1 Zr0 3.125742 1_665
Si2 Si5 2.675961 1_455
Si2 Si9 2.749818 1_456
Si2 Zr0 3.125742 1_566
Si3 Si5 2.701415 1_555
Si3 Si8 2.764115 1_565
Si3 Zr0 3.194921 1_665
Si4 Si9 2.675961 1_455
Si4 Si8 2.701415 1_555
Si4 Si6 2.701416 1_555
Si4 Si7 2.701416 1_555
Si6 Si7 2.542961 1_555
Si6 Si8 2.542962 1_555
Si6 Zr0 3.194921 1_565
Si7 Si8 2.542961 1_555
Si7 Si9 2.742276 1_555
Si7 Zr0 3.194921 1_655
Si8 Zr0 3.194921 1_556
Si9 Zr0 3.125742 1_655
Si10 Si9 2.567362 1_456
Si10 Si11 2.567362 1_546
Si10 Si4 2.675960 1_556
Si10 Si8 2.742276 1_555
Si10 Zr0 3.125742 1_556
Si11 Si9 2.567363 1_465
Si11 Si4 2.675961 1_565
Si11 Si6 2.742276 1_555
Si11 Zr0 3.125742 1_565
Si12 Si13 2.542961 1_555
Si12 Si3 2.542962 1_555
Si12 Si5 2.701416 1_555
Si12 Si6 2.764115 1_655
Si12 Zr0 3.194921 1_656
Si13 Si3 2.542961 1_555
Si13 Si5 2.701416 1_555
Si13 Si2 2.742276 1_555
Si13 Si7 2.764116 1_556
Si13 Zr0 3.194921 1_566
Ir0 Si5 2.434214 1_545
Ir0 Si9 2.435083 1_555
Ir0 Si7 2.436789 1_555
Ir0 Si3 2.441942 1_545
Ir0 Si0 2.451605 1_555
Ir0 Si11 2.499413 1_645
Ir0 Si8 2.511397 1_555
Ir0 Zr0 2.991733 1_655
Ir0 Na0 3.111328 1_555
Ir1 Si5 2.434213 1_554
Ir1 Si11 2.435083 1_555
Ir1 Si6 2.436789 1_555
Ir1 Si13 2.441942 1_554
Ir1 Si1 2.451605 1_555
Ir1 Si10 2.499413 1_564
Ir1 Si7 2.511398 1_555
Ir1 Zr0 2.991734 1_565
Ir1 Na0 3.111328 1_555
Ir2 Si5 2.434214 1_455
Ir2 Si10 2.435083 1_555
Ir2 Si8 2.436788 1_555
Ir2 Si12 2.441942 1_455
Ir2 Si2 2.451605 1_555
Ir2 Si9 2.499413 1_456
Ir2 Si6 2.511397 1_555
Ir2 Zr0 2.991734 1_556
Ir2 Na0 3.111328 1_555
Ir3 Si4 2.434214 1_565
Ir3 Si2 2.435083 1_555
Ir3 Si13 2.436789 1_555
Ir3 Si8 2.441942 1_565
Ir3 Si11 2.451605 1_555
Ir3 Si0 2.499413 1_465
Ir3 Si3 2.511397 1_555
Ir3 Zr0 2.991733 1_566
Ir3 Na0 3.111328 1_555
Ir4 Si4 2.434213 1_556
Ir4 Si0 2.435083 1_555
Ir4 Si12 2.436789 1_555
Ir4 Si7 2.441942 1_556
Ir4 Si10 2.451605 1_555
Ir4 Si1 2.499413 1_546
Ir4 Si13 2.511398 1_555
Ir4 Zr0 2.991734 1_656
Ir4 Na0 3.111328 1_555
Ir5 Si4 2.434214 1_655
Ir5 Si1 2.435083 1_555
Ir5 Si3 2.436788 1_555
Ir5 Si6 2.441942 1_655
Ir5 Si9 2.451605 1_555
Ir5 Si2 2.499413 1_654
Ir5 Si12 2.511397 1_555
Ir5 Zr0 2.991734 1_665
Ir5 Na0 3.111328 1_555
