# generated using pymatgen
data_CsSrAsS3
_symmetry_space_group_name_H-M   'P 1'
_cell_length_a   8.55975924
_cell_length_b   8.97584462
_cell_length_c   9.57122146
_cell_angle_alpha   76.07020332
_cell_angle_beta   90.00000000
_cell_angle_gamma   90.00000000
_symmetry_Int_Tables_number   1
_chemical_formula_structural   CsSrAsS3
_chemical_formula_sum   'Cs4 Sr4 As4 S12'
_cell_volume   713.74107109
_cell_formula_units_Z   4
loop_
 _symmetry_equiv_pos_site_id
 _symmetry_equiv_pos_as_xyz
  1  'x, y, z'
loop_
 _atom_site_type_symbol
 _atom_site_label
 _atom_site_symmetry_multiplicity
 _atom_site_fract_x
 _atom_site_fract_y
 _atom_site_fract_z
 _atom_site_occupancy
  Cs  Cs0  1  0.56909351  0.22793468  0.40355113  1
  Cs  Cs1  1  0.06909351  0.27206532  0.59644887  1
  Cs  Cs2  1  0.43090649  0.77206532  0.59644887  1
  Cs  Cs3  1  0.93090649  0.72793468  0.40355113  1
  Sr  Sr0  1  0.21795302  0.47126301  0.06195230  1
  Sr  Sr1  1  0.71795302  0.02873699  0.93804770  1
  Sr  Sr2  1  0.78204698  0.52873699  0.93804770  1
  Sr  Sr3  1  0.28204698  0.97126301  0.06195230  1
  As  As0  1  0.95222631  0.15727793  0.21491447  1
  As  As1  1  0.45222631  0.34272207  0.78508553  1
  As  As2  1  0.04777369  0.84272207  0.78508553  1
  As  As3  1  0.54777369  0.65727793  0.21491447  1
  S  S0  1  0.68293121  0.41508785  0.68293478  1
  S  S1  1  0.18293121  0.08491215  0.31706522  1
  S  S2  1  0.31706879  0.58491215  0.31706522  1
  S  S3  1  0.81706879  0.91508785  0.68293478  1
  S  S4  1  0.51512454  0.28276771  0.02438396  1
  S  S5  1  0.01512454  0.21723229  0.97561604  1
  S  S6  1  0.48487546  0.71723229  0.97561604  1
  S  S7  1  0.98487546  0.78276771  0.02438396  1
  S  S8  1  0.91936431  0.39690660  0.23956990  1
  S  S9  1  0.41936431  0.10309340  0.76043010  1
  S  S10  1  0.08063569  0.60309340  0.76043010  1
  S  S11  1  0.58063569  0.89690660  0.23956990  1
loop_
_geom_bond_atom_site_label_1
_geom_bond_atom_site_label_2
_geom_bond_distance
_geom_bond_site_symmetry_2
Cs0 S8 3.550624 1_555
Cs0 S9 3.566916 1_555
Cs0 S4 3.572953 1_555
Cs0 S0 3.617275 1_555
Cs0 S11 3.680587 1_545
Cs0 S1 3.710916 1_555
Cs0 S2 3.785334 1_555
Cs0 S3 3.990730 1_545
Cs1 S9 3.550624 1_555
Cs1 S8 3.566916 1_455
Cs1 S5 3.572953 1_555
Cs1 S1 3.617275 1_555
Cs1 S10 3.680587 1_555
Cs1 S0 3.710916 1_455
Cs1 S3 3.785334 1_445
Cs1 S2 3.990730 1_555
Cs2 S10 3.550624 1_555
Cs2 S11 3.566916 1_555
Cs2 S6 3.572953 1_555
Cs2 S2 3.617275 1_555
Cs2 S9 3.680587 1_565
Cs2 S3 3.710916 1_555
Cs2 S0 3.785334 1_555
Cs2 S1 3.990730 1_565
Cs3 S11 3.550624 1_555
Cs3 S10 3.566916 1_655
Cs3 S7 3.572953 1_555
Cs3 S3 3.617275 1_555
Cs3 S8 3.680587 1_555
Cs3 S2 3.710916 1_655
Cs3 S1 3.785334 1_665
Cs3 S0 3.990730 1_555
As0 S1 2.229755 1_655
As0 S8 2.237282 1_555
As0 S5 2.287328 1_654
As0 Cs3 3.846331 1_545
As0 Cs0 3.868923 1_555
As1 S0 2.229755 1_555
As1 S9 2.237282 1_555
As1 S4 2.287328 1_556
As1 Cs2 3.846331 1_555
As1 Cs1 3.868923 1_555
As2 S3 2.229755 1_455
As2 S10 2.237282 1_555
As2 S7 2.287328 1_456
As2 Cs1 3.846331 1_565
As2 Cs2 3.868923 1_555
As3 S2 2.229755 1_555
As3 S11 2.237282 1_555
As3 S6 2.287328 1_554
As3 Cs0 3.846331 1_555
As3 Cs3 3.868923 1_555
S0 Sr2 2.986928 1_555
S1 Sr3 2.986928 1_545
S2 Sr0 2.986928 1_555
S3 Sr1 2.986928 1_565
S4 Sr0 3.123337 1_555
S4 Sr1 3.131024 1_554
S4 Sr2 3.146274 1_554
S4 Sr3 3.382799 1_545
S5 Sr1 3.123337 1_455
S5 Sr0 3.131024 1_556
S5 Sr3 3.146274 1_546
S5 Sr2 3.382799 1_455
S6 Sr2 3.123337 1_555
S6 Sr3 3.131024 1_556
S6 Sr0 3.146274 1_556
S6 Sr1 3.382799 1_565
S7 Sr3 3.123337 1_655
S7 Sr2 3.131024 1_554
S7 Sr1 3.146274 1_564
S7 Sr0 3.382799 1_655
S8 Sr0 3.053126 1_655
S8 Sr2 3.076722 1_554
S9 Sr1 3.053126 1_555
S9 Sr3 3.076722 1_546
S10 Sr2 3.053126 1_455
S10 Sr0 3.076722 1_556
S11 Sr3 3.053126 1_555
S11 Sr1 3.076722 1_564
