# generated using pymatgen
data_Y2B4OsRh4
_symmetry_space_group_name_H-M   'P 1'
_cell_length_a   7.45886349
_cell_length_b   6.33396871
_cell_length_c   5.52027500
_cell_angle_alpha   77.64914822
_cell_angle_beta   56.05083827
_cell_angle_gamma   46.30002110
_symmetry_Int_Tables_number   1
_chemical_formula_structural   Y2B4OsRh4
_chemical_formula_sum   'Y2 B4 Os1 Rh4'
_cell_volume   149.84390553
_cell_formula_units_Z   1
loop_
 _symmetry_equiv_pos_site_id
 _symmetry_equiv_pos_as_xyz
  1  'x, y, z'
loop_
 _atom_site_type_symbol
 _atom_site_label
 _atom_site_symmetry_multiplicity
 _atom_site_fract_x
 _atom_site_fract_y
 _atom_site_fract_z
 _atom_site_occupancy
  Y  Y0  1  0.85889858  0.85889758  0.14110142  1
  Y  Y1  1  0.14110242  0.14110142  0.85889858  1
  B  B0  1  0.46765839  0.79842920  0.21768859  1
  B  B1  1  0.21768859  0.51622282  0.46765839  1
  B  B2  1  0.79843120  0.46765739  0.51622282  1
  B  B3  1  0.51622382  0.21768759  0.79843020  1
  Os  Os0  1  0.24999900  0.25000100  0.25000100  1
  Rh  Rh0  1  0.50174676  0.50174976  0.99825224  1
  Rh  Rh1  1  0.99825224  0.99825224  0.50174776  1
  Rh  Rh2  1  0.50000100  0.50000000  0.50000000  1
  Rh  Rh3  1  0.75000000  0.75000100  0.75000000  1
loop_
_geom_bond_atom_site_label_1
_geom_bond_atom_site_label_2
_geom_bond_distance
_geom_bond_site_symmetry_2
B0 Os0 2.080146 1_565
B0 Rh3 2.137309 1_554
B0 Rh2 2.142324 1_555
B0 Rh1 2.216576 1_455
B0 Rh0 2.243399 1_554
B0 Y0 2.989727 1_555
B0 Y1 3.086248 1_565
B0 Y1 3.163401 1_654
B1 Os0 2.080133 1_555
B1 Rh3 2.137304 1_455
B1 Rh2 2.142336 1_555
B1 Rh0 2.216581 1_554
B1 Rh1 2.243410 1_455
B1 Y1 2.989725 1_555
B1 Y0 3.086246 1_545
B1 Y0 3.163398 1_456
B2 Os0 2.080130 1_655
B2 Rh3 2.137310 1_555
B2 Rh2 2.142325 1_555
B2 Rh1 2.216575 1_545
B2 Rh0 2.243408 1_555
B2 Y0 2.989725 1_555
B2 Y1 3.086241 1_654
B2 Y1 3.163404 1_565
B3 Os0 2.080140 1_556
B3 Rh3 2.137296 1_545
B3 Rh2 2.142333 1_555
B3 Rh0 2.216584 1_555
B3 Rh1 2.243407 1_545
B3 Y1 2.989722 1_555
B3 Y0 3.086246 1_456
B3 Y0 3.163403 1_545
Os0 Y0 3.027644 1_455
Os0 Y1 3.027647 1_554
Os0 Y1 3.027649 1_555
Os0 Y0 3.027652 1_545
Rh0 Y1 3.186490 1_565
Rh0 Y1 3.186509 1_655
Rh0 Y0 3.206643 1_456
Rh0 Y0 3.206657 1_546
Rh1 Y0 3.186501 1_556
Rh1 Y0 3.186503 1_555
Rh1 Y1 3.206643 1_664
Rh1 Y1 3.206651 1_665
Rh2 Y1 3.174648 1_565
Rh2 Y1 3.174649 1_654
Rh2 Y0 3.174652 1_456
Rh2 Y0 3.174657 1_545
Rh3 Y0 3.027643 1_556
Rh3 Y1 3.027646 1_565
Rh3 Y0 3.027648 1_555
Rh3 Y1 3.027656 1_655
