# generated using pymatgen
data_Ta2HgPbO7
_symmetry_space_group_name_H-M   'P 1'
_cell_length_a   7.50593345
_cell_length_b   7.50593333
_cell_length_c   7.58245340
_cell_angle_alpha   59.66218805
_cell_angle_beta   59.66218858
_cell_angle_gamma   59.13693281
_symmetry_Int_Tables_number   1
_chemical_formula_structural   Ta2HgPbO7
_chemical_formula_sum   'Ta4 Hg2 Pb2 O14'
_cell_volume   298.52689544
_cell_formula_units_Z   2
loop_
 _symmetry_equiv_pos_site_id
 _symmetry_equiv_pos_as_xyz
  1  'x, y, z'
loop_
 _atom_site_type_symbol
 _atom_site_label
 _atom_site_symmetry_multiplicity
 _atom_site_fract_x
 _atom_site_fract_y
 _atom_site_fract_z
 _atom_site_occupancy
  Ta  Ta0  1  0.12500000  0.62500000  0.12500000  1
  Ta  Ta1  1  0.12500000  0.12500000  0.62500000  1
  Ta  Ta2  1  0.62500000  0.12500000  0.12500000  1
  Ta  Ta3  1  0.12500000  0.12500000  0.12500000  1
  Hg  Hg0  1  0.12500000  0.62500000  0.62500000  1
  Hg  Hg1  1  0.62500000  0.12500000  0.62500000  1
  Pb  Pb0  1  0.62500000  0.62500000  0.62500000  1
  Pb  Pb1  1  0.62500000  0.62500000  0.12500000  1
  O  O0  1  0.77741557  0.77741557  0.72258443  1
  O  O1  1  0.19196361  0.81104930  0.81439265  1
  O  O2  1  0.19196361  0.81104930  0.18259444  1
  O  O3  1  0.81104930  0.19196361  0.81439265  1
  O  O4  1  0.18246094  0.18246094  0.81753906  1
  O  O5  1  0.80863720  0.80863720  0.19136280  1
  O  O6  1  0.43895070  0.05803639  0.06740556  1
  O  O7  1  0.81104930  0.19196361  0.18259444  1
  O  O8  1  0.05803639  0.43895070  0.06740556  1
  O  O9  1  0.06753906  0.06753906  0.43246094  1
  O  O10  1  0.44136280  0.44136280  0.05863720  1
  O  O11  1  0.43895070  0.05803639  0.43560735  1
  O  O12  1  0.05803639  0.43895070  0.43560735  1
  O  O13  1  0.47258443  0.47258443  0.52741557  1
loop_
_geom_bond_atom_site_label_1
_geom_bond_atom_site_label_2
_geom_bond_distance
_geom_bond_site_symmetry_2
Hg0 O13 2.122656 1_555
Hg0 O0 2.122656 1_455
Hg1 O13 2.122656 1_555
Hg1 O0 2.122656 1_545
O0 Pb0 2.493611 1_555
O0 Pb1 2.493611 1_556
O1 Ta0 1.987818 1_556
O1 Ta1 1.990818 1_565
O1 Pb0 2.689015 1_555
O2 Ta0 1.987818 1_555
O2 Ta3 1.990818 1_565
O2 Pb1 2.689015 1_555
O3 Ta2 1.987818 1_556
O3 Ta1 1.990818 1_655
O3 Pb0 2.689015 1_555
O4 Ta1 1.991584 1_555
O4 Ta3 1.991584 1_556
O5 Ta2 1.981747 1_565
O5 Ta0 1.981747 1_655
O5 Pb1 2.720950 1_555
O5 Pb0 2.720950 1_555
O6 Ta2 1.987818 1_555
O6 Ta3 1.990818 1_555
O6 Pb1 2.689015 1_545
O7 Ta2 1.987818 1_555
O7 Ta3 1.990818 1_655
O7 Pb1 2.689015 1_555
O8 Ta0 1.987818 1_555
O8 Ta3 1.990818 1_555
O8 Pb1 2.689015 1_455
O9 Ta3 1.991584 1_555
O9 Ta1 1.991584 1_555
O10 Ta2 1.981747 1_555
O10 Ta0 1.981747 1_555
O10 Pb0 2.720950 1_554
O10 Pb1 2.720950 1_555
O11 Ta2 1.987818 1_555
O11 Ta1 1.990818 1_555
O11 Pb0 2.689015 1_545
O12 Ta0 1.987818 1_555
O12 Ta1 1.990818 1_555
O12 Pb0 2.689015 1_455
O13 Pb1 2.493611 1_555
O13 Pb0 2.493611 1_555
