# generated using pymatgen
data_Sr2LiInPb2
_symmetry_space_group_name_H-M   'P 1'
_cell_length_a   4.96812615
_cell_length_b   7.84701465
_cell_length_c   18.48958427
_cell_angle_alpha   90.00000000
_cell_angle_beta   90.00000000
_cell_angle_gamma   90.00000000
_symmetry_Int_Tables_number   1
_chemical_formula_structural   Sr2LiInPb2
_chemical_formula_sum   'Sr8 Li4 In4 Pb8'
_cell_volume   720.81567964
_cell_formula_units_Z   4
loop_
 _symmetry_equiv_pos_site_id
 _symmetry_equiv_pos_as_xyz
  1  'x, y, z'
loop_
 _atom_site_type_symbol
 _atom_site_label
 _atom_site_symmetry_multiplicity
 _atom_site_fract_x
 _atom_site_fract_y
 _atom_site_fract_z
 _atom_site_occupancy
  Sr  Sr0  1  0.25000000  0.34081520  0.94069586  1
  Sr  Sr1  1  0.25000000  0.84081520  0.55930414  1
  Sr  Sr2  1  0.75000000  0.15918480  0.44069586  1
  Sr  Sr3  1  0.75000000  0.49933882  0.27416286  1
  Sr  Sr4  1  0.75000000  0.99933882  0.22583714  1
  Sr  Sr5  1  0.75000000  0.65918480  0.05930414  1
  Sr  Sr6  1  0.25000000  0.50066118  0.72583714  1
  Sr  Sr7  1  0.25000000  0.00066118  0.77416286  1
  Li  Li0  1  0.25000000  0.99066490  0.07247644  1
  Li  Li1  1  0.75000000  0.50933510  0.57247644  1
  Li  Li2  1  0.75000000  0.00933510  0.92752356  1
  Li  Li3  1  0.25000000  0.49066490  0.42752356  1
  In  In0  1  0.75000000  0.17161501  0.65401488  1
  In  In1  1  0.25000000  0.82838499  0.34598512  1
  In  In2  1  0.75000000  0.67161501  0.84598512  1
  In  In3  1  0.25000000  0.32838499  0.15401488  1
  Pb  Pb0  1  0.75000000  0.21167397  0.06372656  1
  Pb  Pb1  1  0.75000000  0.78375971  0.68364095  1
  Pb  Pb2  1  0.25000000  0.21624029  0.31635905  1
  Pb  Pb3  1  0.25000000  0.71624029  0.18364095  1
  Pb  Pb4  1  0.25000000  0.28832603  0.56372656  1
  Pb  Pb5  1  0.75000000  0.28375971  0.81635905  1
  Pb  Pb6  1  0.25000000  0.78832603  0.93627344  1
  Pb  Pb7  1  0.75000000  0.71167397  0.43627344  1
loop_
_geom_bond_atom_site_label_1
_geom_bond_atom_site_label_2
_geom_bond_distance
_geom_bond_site_symmetry_2
Li0 Pb3 2.976878 1_555
Li0 Pb6 2.977077 1_554
Li0 Pb0 3.033876 1_565
Li0 Pb0 3.033876 1_465
Li1 Pb1 2.976878 1_555
Li1 Pb7 2.977077 1_555
Li1 Pb4 3.033876 1_655
Li1 Pb4 3.033876 1_555
Li2 Pb5 2.976878 1_555
Li2 Pb0 2.977077 1_556
Li2 Pb6 3.033876 1_645
Li2 Pb6 3.033876 1_545
Li3 Pb2 2.976878 1_555
Li3 Pb4 2.977077 1_555
Li3 Pb7 3.033876 1_455
Li3 Pb7 3.033876 1_555
In0 Li1 3.048917 1_555
In0 Pb1 3.092408 1_545
In0 Pb5 3.128013 1_555
In0 Pb4 3.129887 1_655
In0 Pb4 3.129887 1_555
In0 Sr7 3.592371 1_555
In0 Sr7 3.592371 1_655
In0 Sr6 3.821117 1_655
In0 Sr6 3.821117 1_555
In0 Sr2 3.945386 1_555
In0 Sr1 3.996907 1_645
In0 Sr1 3.996907 1_545
In1 Li3 3.048917 1_555
In1 Pb2 3.092408 1_565
In1 Pb3 3.128013 1_555
In1 Pb7 3.129887 1_555
In1 Pb7 3.129887 1_455
In1 Sr4 3.592371 1_555
In1 Sr4 3.592371 1_455
In1 Sr3 3.821117 1_555
In1 Sr3 3.821117 1_455
In1 Sr1 3.945386 1_555
In1 Sr2 3.996907 1_465
In1 Sr2 3.996907 1_565
In2 Li2 3.048917 1_565
In2 Pb5 3.092408 1_555
In2 Pb1 3.128013 1_555
In2 Pb6 3.129887 1_555
In2 Pb6 3.129887 1_655
In2 Sr6 3.592371 1_655
In2 Sr6 3.592371 1_555
In2 Sr7 3.821117 1_665
In2 Sr7 3.821117 1_565
In2 Sr5 3.945386 1_556
In2 Sr0 3.996907 1_655
In2 Sr0 3.996907 1_555
In3 Li0 3.048917 1_545
In3 Pb3 3.092408 1_555
In3 Pb2 3.128013 1_555
In3 Pb0 3.129887 1_555
In3 Pb0 3.129887 1_455
In3 Sr3 3.592371 1_455
In3 Sr3 3.592371 1_555
In3 Sr4 3.821117 1_445
In3 Sr4 3.821117 1_545
In3 Sr0 3.945386 1_554
In3 Sr5 3.996907 1_455
In3 Sr5 3.996907 1_555
Pb0 Sr4 3.429339 1_545
Pb0 Sr5 3.512576 1_555
Pb0 Sr0 3.517406 1_654
Pb0 Sr0 3.517406 1_554
Pb1 Sr1 3.414107 1_655
Pb1 Sr1 3.414107 1_555
Pb1 Sr6 3.422606 1_655
Pb1 Sr6 3.422606 1_555
Pb1 Sr7 3.445110 1_565
Pb1 Sr7 3.445110 1_665
Pb2 Sr2 3.414107 1_455
Pb2 Sr2 3.414107 1_555
Pb2 Sr3 3.422606 1_455
Pb2 Sr3 3.422606 1_555
Pb2 Sr4 3.445110 1_545
Pb2 Sr4 3.445110 1_445
Pb3 Sr5 3.414107 1_455
Pb3 Sr5 3.414107 1_555
Pb3 Sr4 3.422606 1_555
Pb3 Sr4 3.422606 1_455
Pb3 Sr3 3.445110 1_555
Pb3 Sr3 3.445110 1_455
Pb4 Sr6 3.429339 1_555
Pb4 Sr1 3.512576 1_545
Pb4 Sr2 3.517406 1_555
Pb4 Sr2 3.517406 1_455
Pb5 Sr0 3.414107 1_555
Pb5 Sr0 3.414107 1_655
Pb5 Sr7 3.422606 1_555
Pb5 Sr7 3.422606 1_655
Pb5 Sr6 3.445110 1_655
Pb5 Sr6 3.445110 1_555
Pb6 Sr7 3.429339 1_565
Pb6 Sr0 3.512576 1_555
Pb6 Sr5 3.517406 1_456
Pb6 Sr5 3.517406 1_556
Pb7 Sr3 3.429339 1_555
Pb7 Sr2 3.512576 1_565
Pb7 Sr1 3.517406 1_555
Pb7 Sr1 3.517406 1_655
