# generated using pymatgen
data_Ba4Nd3F17
_symmetry_space_group_name_H-M   'P 1'
_cell_length_a   9.57483400
_cell_length_b   9.59189225
_cell_length_c   9.65578453
_cell_angle_alpha   73.01971413
_cell_angle_beta   72.87304186
_cell_angle_gamma   73.07708765
_symmetry_Int_Tables_number   1
_chemical_formula_structural   Ba4Nd3F17
_chemical_formula_sum   'Ba8 Nd6 F34'
_cell_volume   789.85741942
_cell_formula_units_Z   2
loop_
 _symmetry_equiv_pos_site_id
 _symmetry_equiv_pos_as_xyz
  1  'x, y, z'
loop_
 _atom_site_type_symbol
 _atom_site_label
 _atom_site_symmetry_multiplicity
 _atom_site_fract_x
 _atom_site_fract_y
 _atom_site_fract_z
 _atom_site_occupancy
  Ba  Ba0  1  0.89178200  0.04622200  0.31202300  1
  Ba  Ba1  1  0.26794900  0.26193900  0.26595500  1
  Ba  Ba2  1  0.04950800  0.31047000  0.89316900  1
  Ba  Ba3  1  0.69225000  0.10285700  0.95650200  1
  Ba  Ba4  1  0.30973500  0.89239200  0.05098300  1
  Ba  Ba5  1  0.94767100  0.68841400  0.11252000  1
  Ba  Ba6  1  0.73803800  0.73171900  0.73385600  1
  Ba  Ba7  1  0.11035500  0.94440400  0.68670300  1
  Nd  Nd0  1  0.46904700  0.15657200  0.61127500  1
  Nd  Nd1  1  0.60625900  0.47300600  0.16967500  1
  Nd  Nd2  1  0.84375100  0.38904300  0.53222400  1
  Nd  Nd3  1  0.18229200  0.61094800  0.46385400  1
  Nd  Nd4  1  0.38855300  0.53214300  0.84046800  1
  Nd  Nd5  1  0.52565000  0.82119700  0.39147000  1
  F  F0  1  0.99355600  0.00113200  0.00605300  1
  F  F1  1  0.45236000  0.01818800  0.17784300  1
  F  F2  1  0.13712500  0.13964000  0.13723800  1
  F  F3  1  0.35889600  0.04115100  0.49087800  1
  F  F4  1  0.02010600  0.17604300  0.45264100  1
  F  F5  1  0.25772100  0.08148200  0.78885200  1
  F  F6  1  0.78435200  0.26125200  0.08971900  1
  F  F7  1  0.49347800  0.35484000  0.04256500  1
  F  F8  1  0.17741700  0.45034900  0.02039100  1
  F  F9  1  0.54379400  0.26075300  0.35023100  1
  F  F10  1  0.70361600  0.20567800  0.58202100  1
  F  F11  1  0.26236400  0.34520000  0.54486300  1
  F  F12  1  0.04895600  0.48871300  0.35870100  1
  F  F13  1  0.41178100  0.29818000  0.79397400  1
  F  F14  1  0.91658800  0.21065500  0.74192600  1
  F  F15  1  0.33882500  0.54782200  0.23782500  1
  F  F16  1  0.79911300  0.41976200  0.29644100  1
  F  F17  1  0.19918400  0.59145900  0.70789800  1
  F  F18  1  0.46225900  0.57179400  0.44735700  1
  F  F19  1  0.65167700  0.45708300  0.73608600  1
  F  F20  1  0.08484500  0.78554500  0.26054600  1
  F  F21  1  0.59306500  0.71994000  0.17556100  1
  F  F22  1  0.96383800  0.50771300  0.64230300  1
  F  F23  1  0.74482800  0.65046700  0.45440000  1
  F  F24  1  0.27107200  0.83440700  0.40650400  1
  F  F25  1  0.44862900  0.74580800  0.65814400  1
  F  F26  1  0.82296400  0.54544900  0.98170600  1
  F  F27  1  0.51121400  0.64214800  0.95462900  1
  F  F28  1  0.20988400  0.74124300  0.91899600  1
  F  F29  1  0.73722500  0.91220000  0.21916000  1
  F  F30  1  0.98143800  0.81820200  0.54876000  1
  F  F31  1  0.64292500  0.95119700  0.51112200  1
  F  F32  1  0.86361200  0.86001900  0.86221900  1
  F  F33  1  0.54945100  0.98016100  0.82277400  1
loop_
_geom_bond_atom_site_label_1
_geom_bond_atom_site_label_2
_geom_bond_distance
_geom_bond_site_symmetry_2
Ba0 F2 2.678926 1_655
Ba0 F29 2.684936 1_545
Ba0 F6 2.720131 1_555
Ba0 F20 2.722136 1_645
Ba0 F31 2.783362 1_545
Ba0 F4 2.786511 1_655
Ba0 F30 2.808615 1_545
Ba0 F0 2.944542 1_555
Ba1 F2 2.667181 1_555
Ba1 F1 2.679861 1_555
Ba1 F12 2.703079 1_555
Ba1 F4 2.703866 1_555
Ba1 F3 2.704413 1_555
Ba1 F7 2.713656 1_555
Ba1 F8 2.726771 1_555
Ba1 F15 2.931468 1_555
Ba1 F9 2.980112 1_555
Ba1 F11 3.006639 1_555
Ba2 F2 2.655435 1_556
Ba2 F14 2.699954 1_455
Ba2 F5 2.715442 1_555
Ba2 F6 2.758059 1_456
Ba2 F8 2.759441 1_556
Ba2 F26 2.775430 1_455
Ba2 F22 2.776666 1_455
Ba2 F0 2.995237 1_456
Ba3 F32 2.660880 1_545
Ba3 F6 2.707430 1_556
Ba3 F14 2.719611 1_555
Ba3 F29 2.727220 1_546
Ba3 F1 2.771991 1_556
Ba3 F7 2.778177 1_556
Ba3 F33 2.790352 1_545
Ba3 F0 2.899218 1_556
Ba4 F2 2.666574 1_565
Ba4 F28 2.691460 1_554
Ba4 F20 2.699759 1_555
Ba4 F5 2.734818 1_564
Ba4 F1 2.762083 1_565
Ba4 F33 2.809802 1_554
Ba4 F27 2.810722 1_554
Ba4 F0 3.018612 1_465
Ba4 F21 3.112877 1_555
Ba4 F24 3.238353 1_555
Ba4 F15 3.245493 1_555
Ba5 F20 2.689210 1_655
Ba5 F32 2.692428 1_554
Ba5 F29 2.697957 1_555
Ba5 F28 2.734281 1_654
Ba5 F26 2.784769 1_554
Ba5 F12 2.806582 1_655
Ba5 F8 2.820336 1_655
Ba5 F0 2.991202 1_565
Ba5 F16 3.128986 1_555
Ba5 F21 3.206634 1_555
Ba5 F23 3.276511 1_555
Ba6 F30 2.668329 1_555
Ba6 F32 2.669531 1_555
Ba6 F31 2.698070 1_555
Ba6 F27 2.699796 1_555
Ba6 F22 2.711409 1_555
Ba6 F26 2.717294 1_555
Ba6 F33 2.730081 1_555
Ba6 F19 2.974583 1_555
Ba6 F23 2.998053 1_555
Ba6 F25 3.024703 1_555
Ba7 F32 2.657567 1_455
Ba7 F5 2.711054 1_565
Ba7 F28 2.713182 1_555
Ba7 F30 2.746461 1_455
Ba7 F14 2.775410 1_465
Ba7 F3 2.776712 1_565
Ba7 F4 2.809040 1_565
Ba7 F24 3.011829 1_555
Ba7 F0 3.106422 1_466
Ba7 F17 3.201224 1_555
Ba7 F25 3.222450 1_555
F1 Nd5 2.474207 1_545
F3 Nd0 2.417260 1_555
F3 Nd5 2.498172 1_545
F4 Nd2 2.400054 1_455
F5 Nd0 2.374162 1_555
F6 Nd1 2.398630 1_555
F7 Nd4 2.435397 1_554
F7 Nd1 2.502567 1_555
F8 Nd4 2.404007 1_554
F9 Nd1 2.358748 1_555
F9 Nd0 2.397251 1_555
F10 Nd0 2.347442 1_555
F10 Nd2 2.371690 1_555
F11 Nd0 2.363541 1_555
F11 Nd3 2.397515 1_555
F12 Nd2 2.408474 1_455
F12 Nd3 2.523028 1_555
F13 Nd4 2.350806 1_555
F13 Nd0 2.377798 1_555
F14 Nd2 2.372230 1_555
F15 Nd3 2.386035 1_555
F15 Nd1 2.391332 1_555
F16 Nd2 2.358111 1_555
F16 Nd1 2.363445 1_555
F17 Nd3 2.358703 1_555
F17 Nd4 2.364518 1_555
F18 Nd5 2.506158 1_555
F18 Nd3 2.559216 1_555
F18 Nd1 2.921291 1_555
F19 Nd2 2.366928 1_555
F19 Nd4 2.398690 1_555
F20 Nd3 2.403716 1_555
F21 Nd1 2.351486 1_555
F21 Nd5 2.394024 1_555
F22 Nd2 2.436371 1_555
F22 Nd3 2.532000 1_655
F23 Nd5 2.371546 1_555
F23 Nd2 2.384437 1_555
F24 Nd5 2.366700 1_555
F24 Nd3 2.390310 1_555
F25 Nd4 2.369156 1_555
F25 Nd5 2.408644 1_555
F26 Nd1 2.442735 1_556
F27 Nd4 2.423038 1_555
F27 Nd1 2.461235 1_556
F28 Nd4 2.377180 1_555
F29 Nd5 2.414540 1_555
F30 Nd3 2.473903 1_655
F31 Nd0 2.417169 1_565
F31 Nd5 2.563443 1_555
F33 Nd0 2.403268 1_565
