# generated using pymatgen
data_RbCaBO3
_symmetry_space_group_name_H-M   'P 1'
_cell_length_a   7.43855908
_cell_length_b   7.43855908
_cell_length_c   7.43855908
_cell_angle_alpha   90.00000000
_cell_angle_beta   90.00000000
_cell_angle_gamma   90.00000000
_symmetry_Int_Tables_number   1
_chemical_formula_structural   RbCaBO3
_chemical_formula_sum   'Rb4 Ca4 B4 O12'
_cell_volume   411.59154972
_cell_formula_units_Z   4
loop_
 _symmetry_equiv_pos_site_id
 _symmetry_equiv_pos_as_xyz
  1  'x, y, z'
loop_
 _atom_site_type_symbol
 _atom_site_label
 _atom_site_symmetry_multiplicity
 _atom_site_fract_x
 _atom_site_fract_y
 _atom_site_fract_z
 _atom_site_occupancy
  Rb  Rb0  1  0.62860021  0.12860021  0.37139979  1
  Rb  Rb1  1  0.12860021  0.37139979  0.62860021  1
  Rb  Rb2  1  0.37139979  0.62860021  0.12860021  1
  Rb  Rb3  1  0.87139979  0.87139979  0.87139979  1
  Ca  Ca0  1  0.64887509  0.35112491  0.85112491  1
  Ca  Ca1  1  0.14887509  0.14887509  0.14887509  1
  Ca  Ca2  1  0.85112491  0.64887509  0.35112491  1
  Ca  Ca3  1  0.35112491  0.85112491  0.64887509  1
  B  B0  1  0.57953017  0.57953017  0.57953017  1
  B  B1  1  0.42046983  0.07953017  0.92046983  1
  B  B2  1  0.07953017  0.92046983  0.42046983  1
  B  B3  1  0.92046983  0.42046983  0.07953017  1
  O  O0  1  0.54207031  0.06524213  0.77924109  1
  O  O1  1  0.22075891  0.04207031  0.43475787  1
  O  O2  1  0.56524213  0.72075891  0.45792969  1
  O  O3  1  0.04207031  0.43475787  0.22075891  1
  O  O4  1  0.72075891  0.45792969  0.56524213  1
  O  O5  1  0.06524213  0.77924109  0.54207031  1
  O  O6  1  0.45792969  0.56524213  0.72075891  1
  O  O7  1  0.77924109  0.54207031  0.06524213  1
  O  O8  1  0.43475787  0.22075891  0.04207031  1
  O  O9  1  0.95792969  0.93475787  0.27924109  1
  O  O10  1  0.27924109  0.95792969  0.93475787  1
  O  O11  1  0.93475787  0.27924109  0.95792969  1
loop_
_geom_bond_atom_site_label_1
_geom_bond_atom_site_label_2
_geom_bond_distance
_geom_bond_site_symmetry_2
Ca0 O0 2.332241 1_555
Ca0 O11 2.332241 1_555
Ca0 O4 2.332241 1_555
Ca0 O8 2.344051 1_556
Ca0 O7 2.344051 1_556
Ca0 O6 2.344051 1_555
Ca1 O1 2.332241 1_555
Ca1 O8 2.332241 1_555
Ca1 O3 2.332241 1_555
Ca1 O9 2.344051 1_445
Ca1 O10 2.344051 1_544
Ca1 O11 2.344051 1_454
Ca2 O7 2.332241 1_555
Ca2 O9 2.332241 1_555
Ca2 O2 2.332241 1_555
Ca2 O3 2.344051 1_655
Ca2 O5 2.344051 1_655
Ca2 O4 2.344051 1_555
Ca3 O5 2.332241 1_555
Ca3 O10 2.332241 1_555
Ca3 O6 2.332241 1_555
Ca3 O1 2.344051 1_565
Ca3 O0 2.344051 1_565
Ca3 O2 2.344051 1_555
B0 O4 1.390362 1_555
B0 O2 1.390362 1_555
B0 O6 1.390362 1_555
B1 O8 1.390362 1_556
B1 O0 1.390362 1_555
B1 O10 1.390362 1_545
B2 O1 1.390362 1_565
B2 O5 1.390362 1_555
B2 O9 1.390362 1_455
B3 O3 1.390362 1_655
B3 O7 1.390362 1_555
B3 O11 1.390362 1_554
O0 Rb3 2.924082 1_545
O0 Rb0 3.136887 1_555
O1 Rb1 2.924082 1_555
O1 Rb0 3.136887 1_555
O2 Rb2 2.924082 1_555
O2 Rb0 3.136887 1_565
O3 Rb2 2.924082 1_555
O3 Rb1 3.136887 1_555
O4 Rb0 2.924082 1_555
O4 Rb1 3.136887 1_655
O5 Rb3 2.924082 1_455
O5 Rb1 3.136887 1_555
O6 Rb1 2.924082 1_555
O6 Rb2 3.136887 1_556
O7 Rb3 2.924082 1_554
O7 Rb2 3.136887 1_555
O8 Rb0 2.924082 1_555
O8 Rb2 3.136887 1_555
O9 Rb0 2.924082 1_565
O9 Rb3 3.136887 1_554
O10 Rb2 2.924082 1_556
O10 Rb3 3.136887 1_455
O11 Rb1 2.924082 1_655
O11 Rb3 3.136887 1_545
