# generated using pymatgen
data_SrAlNi2(PO4)3
_symmetry_space_group_name_H-M   'P 1'
_cell_length_a   8.85308128
_cell_length_b   8.85308051
_cell_length_c   8.85308110
_cell_angle_alpha   136.94866987
_cell_angle_beta   110.33246561
_cell_angle_gamma   85.51434819
_symmetry_Int_Tables_number   1
_chemical_formula_structural   SrAlNi2(PO4)3
_chemical_formula_sum   'Sr2 Al2 Ni4 P6 O24'
_cell_volume   427.10540686
_cell_formula_units_Z   2
loop_
 _symmetry_equiv_pos_site_id
 _symmetry_equiv_pos_as_xyz
  1  'x, y, z'
loop_
 _atom_site_type_symbol
 _atom_site_label
 _atom_site_symmetry_multiplicity
 _atom_site_fract_x
 _atom_site_fract_y
 _atom_site_fract_z
 _atom_site_occupancy
  Sr  Sr0  1  0.25000000  0.34205886  0.09205886  1
  Sr  Sr1  1  0.75000000  0.65794114  0.90794114  1
  Al  Al0  1  0.00000000  0.50000000  0.50000000  1
  Al  Al1  1  0.50000000  0.00000000  0.50000000  1
  Ni  Ni0  1  0.11670584  0.11670584  0.50000000  1
  Ni  Ni1  1  0.38329416  0.88329416  0.00000000  1
  Ni  Ni2  1  0.61670584  0.11670584  1.00000000  1
  Ni  Ni3  1  0.88329416  0.88329416  0.50000000  1
  P  P0  1  0.25000000  0.83658410  0.58658410  1
  P  P1  1  0.75000000  0.16341590  0.41341590  1
  P  P2  1  0.32061631  0.32061631  0.50000000  1
  P  P3  1  0.17938369  0.67938369  0.00000000  1
  P  P4  1  0.82061631  0.32061631  1.00000000  1
  P  P5  1  0.67938369  0.67938369  0.50000000  1
  O  O0  1  0.34727737  0.80225715  0.45498178  1
  O  O1  1  0.65272263  0.19774285  0.54501822  1
  O  O2  1  0.84727737  0.39229559  0.54501822  1
  O  O3  1  0.15272263  0.60770441  0.45498178  1
  O  O4  1  0.12996771  0.98248120  0.61244791  1
  O  O5  1  0.62996771  0.01751880  0.14748552  1
  O  O6  1  0.87003229  0.01751880  0.38755209  1
  O  O7  1  0.37003229  0.98248120  0.85251448  1
  O  O8  1  0.34313110  0.20123625  0.27458228  1
  O  O9  1  0.07334603  0.79876375  0.14189484  1
  O  O10  1  0.84313110  0.56854881  0.14189484  1
  O  O11  1  0.57334603  0.43145119  0.27458228  1
  O  O12  1  0.65686890  0.79876375  0.72541772  1
  O  O13  1  0.92665397  0.20123625  0.85810516  1
  O  O14  1  0.15686890  0.43145119  0.85810516  1
  O  O15  1  0.42665397  0.56854881  0.72541772  1
  O  O16  1  0.12827740  0.29521947  0.43619551  1
  O  O17  1  0.14097704  0.70478053  0.83305793  1
  O  O18  1  0.62827740  0.19208088  0.83305793  1
  O  O19  1  0.64097704  0.80791912  0.43619551  1
  O  O20  1  0.87172260  0.70478053  0.56380449  1
  O  O21  1  0.85902296  0.29521947  0.16694207  1
  O  O22  1  0.37172260  0.80791912  0.16694207  1
  O  O23  1  0.35902296  0.19208088  0.56380449  1
loop_
_geom_bond_atom_site_label_1
_geom_bond_atom_site_label_2
_geom_bond_distance
_geom_bond_site_symmetry_2
Al0 O16 1.876862 1_555
Al0 O20 1.876862 1_455
Al0 O17 1.876864 1_555
Al0 O21 1.876864 1_455
Al0 O3 2.006900 1_555
Al0 O2 2.006900 1_455
Al1 O19 1.876862 1_545
Al1 O23 1.876862 1_555
Al1 O18 1.876864 1_555
Al1 O22 1.876864 1_545
Al1 O1 2.006914 1_555
Al1 O0 2.006914 1_545
Ni0 O4 2.010653 1_545
Ni0 O6 2.010663 1_455
Ni0 O23 2.048756 1_555
Ni0 O16 2.048766 1_555
Ni0 O9 2.098247 1_545
Ni0 O14 2.098247 1_555
Ni1 O7 2.010653 1_554
Ni1 O5 2.010663 1_565
Ni1 O22 2.048759 1_555
Ni1 O17 2.048759 1_554
Ni1 O8 2.098247 1_565
Ni1 O15 2.098247 1_554
Ni2 O5 2.010653 1_556
Ni2 O7 2.010663 1_545
Ni2 O18 2.048759 1_555
Ni2 O21 2.048759 1_556
Ni2 O12 2.098247 1_545
Ni2 O11 2.098247 1_556
Ni3 O6 2.010653 1_565
Ni3 O4 2.010663 1_655
Ni3 O19 2.048756 1_555
Ni3 O20 2.048766 1_555
Ni3 O13 2.098247 1_565
Ni3 O10 2.098247 1_555
O0 P0 1.526542 1_555
O0 Sr0 2.675544 1_555
O1 P1 1.526542 1_555
O1 Sr1 2.675544 1_555
O2 P1 1.526549 1_555
O2 Sr1 2.675556 1_555
O3 P0 1.526549 1_555
O3 Sr0 2.675556 1_555
O4 P0 1.540181 1_555
O4 Sr0 2.632676 1_566
O5 P1 1.540185 1_555
O5 Sr1 2.632671 1_544
O6 P1 1.540181 1_555
O6 Sr1 2.632676 1_544
O7 P0 1.540185 1_555
O7 Sr0 2.632671 1_566
O8 P2 1.516672 1_555
O8 Sr0 2.588978 1_555
O9 P3 1.516672 1_555
O9 Sr1 2.588978 1_454
O10 P4 1.516672 1_554
O10 Sr1 2.588978 1_554
O11 P5 1.516672 1_555
O11 Sr0 2.588978 1_555
O12 P5 1.516672 1_555
O12 Sr1 2.588978 1_555
O13 P4 1.516672 1_555
O13 Sr0 2.588978 1_656
O14 P3 1.516672 1_556
O14 Sr0 2.588978 1_556
O15 P2 1.516672 1_555
O15 Sr1 2.588978 1_555
O16 P2 1.573206 1_555
O17 P3 1.573207 1_556
O18 P4 1.573207 1_555
O19 P5 1.573214 1_555
O20 P5 1.573206 1_555
O21 P4 1.573207 1_554
O22 P3 1.573207 1_555
O23 P2 1.573214 1_555
