# generated using pymatgen
data_Sc2Pb(CO3)4
_symmetry_space_group_name_H-M   'P 1'
_cell_length_a   6.27357999
_cell_length_b   10.02864686
_cell_length_c   8.09171756
_cell_angle_alpha   89.93664619
_cell_angle_beta   107.31495141
_cell_angle_gamma   89.64706046
_symmetry_Int_Tables_number   1
_chemical_formula_structural   Sc2Pb(CO3)4
_chemical_formula_sum   'Sc4 Pb2 C8 O24'
_cell_volume   486.01252406
_cell_formula_units_Z   2
loop_
 _symmetry_equiv_pos_site_id
 _symmetry_equiv_pos_as_xyz
  1  'x, y, z'
loop_
 _atom_site_type_symbol
 _atom_site_label
 _atom_site_symmetry_multiplicity
 _atom_site_fract_x
 _atom_site_fract_y
 _atom_site_fract_z
 _atom_site_occupancy
  Sc  Sc0  1  0.49995085  0.75001874  0.99999815  1
  Sc  Sc1  1  0.50000084  0.24998951  0.99994648  1
  Sc  Sc2  1  0.99985518  0.99997212  0.50010494  1
  Sc  Sc3  1  0.00015194  0.50003182  0.49989337  1
  Pb  Pb0  1  0.50000060  0.25003563  0.49989597  1
  Pb  Pb1  1  0.50001613  0.74997913  0.50009271  1
  C  C0  1  0.02145262  0.24927116  0.73106745  1
  C  C1  1  0.02150666  0.74916609  0.73118110  1
  C  C2  1  0.97862068  0.25072704  0.26890470  1
  C  C3  1  0.97840781  0.75082939  0.26882669  1
  C  C4  1  0.51828954  0.99999786  0.23654163  1
  C  C5  1  0.51856040  0.49999787  0.23645906  1
  C  C6  1  0.48171696  0.50003183  0.76350079  1
  C  C7  1  0.48143348  0.99997644  0.76351399  1
  O  O0  1  0.34737502  0.46113302  0.61456604  1
  O  O1  1  0.34699876  0.96094282  0.61470779  1
  O  O2  1  0.65261820  0.03890505  0.38545211  1
  O  O3  1  0.65298935  0.53899040  0.38526650  1
  O  O4  1  0.58467819  0.41507853  0.87444400  1
  O  O5  1  0.58463398  0.91514455  0.87456155  1
  O  O6  1  0.41530639  0.08491861  0.12556011  1
  O  O7  1  0.41532751  0.58483294  0.12546687  1
  O  O8  1  0.01950221  0.37461222  0.30197552  1
  O  O9  1  0.01884833  0.87472954  0.30198655  1
  O  O10  1  0.98062375  0.12538821  0.69805639  1
  O  O11  1  0.98099265  0.62526904  0.69800269  1
  O  O12  1  0.49048997  0.37310144  0.21216399  1
  O  O13  1  0.49013234  0.87310613  0.21220245  1
  O  O14  1  0.50949568  0.12687686  0.78773598  1
  O  O15  1  0.50995659  0.62692501  0.78793182  1
  O  O16  1  0.89946752  0.33678338  0.62166869  1
  O  O17  1  0.89930868  0.83670288  0.62188380  1
  O  O18  1  0.10059997  0.16318296  0.37828288  1
  O  O19  1  0.10068686  0.66335137  0.37817543  1
  O  O20  1  0.17121118  0.28960611  0.86328691  1
  O  O21  1  0.17115003  0.78954137  0.86344198  1
  O  O22  1  0.82884623  0.21044107  0.13666498  1
  O  O23  1  0.82879292  0.71041185  0.13658891  1
loop_
_geom_bond_atom_site_label_1
_geom_bond_atom_site_label_2
_geom_bond_distance
_geom_bond_site_symmetry_2
C0 O20 1.264232 1_555
C0 O10 1.282338 1_455
C0 O16 1.313876 1_455
C1 O21 1.264218 1_555
C1 O11 1.282398 1_455
C1 O17 1.314135 1_455
C2 O22 1.264224 1_555
C2 O8 1.282480 1_655
C2 O18 1.313991 1_655
C3 O23 1.264151 1_555
C3 O9 1.282340 1_655
C3 O19 1.314145 1_655
C4 O6 1.263065 1_565
C4 O13 1.293057 1_555
C4 O2 1.309568 1_565
C5 O7 1.263001 1_555
C5 O12 1.293010 1_555
C5 O3 1.309454 1_555
C6 O4 1.263070 1_555
C6 O15 1.293206 1_555
C6 O0 1.309716 1_555
C7 O5 1.263170 1_555
C7 O14 1.292978 1_565
C7 O1 1.309585 1_555
O0 Sc3 2.131637 1_555
O0 Pb0 2.601496 1_555
O1 Sc2 2.131350 1_455
O1 Pb1 2.601354 1_555
O2 Sc2 2.131754 1_545
O2 Pb0 2.600888 1_555
O3 Sc3 2.131356 1_655
O3 Pb1 2.602226 1_555
O4 Sc1 2.093520 1_555
O5 Sc0 2.093528 1_555
O6 Sc1 2.093923 1_554
O7 Sc0 2.093999 1_554
O8 Sc3 2.068781 1_555
O9 Sc2 2.068349 1_455
O10 Sc2 2.068763 1_545
O11 Sc3 2.068555 1_655
O12 Sc1 2.131073 1_554
O12 Pb0 2.618692 1_555
O13 Sc0 2.131354 1_554
O13 Pb1 2.619538 1_555
O14 Sc1 2.131004 1_555
O14 Pb0 2.619925 1_555
O15 Sc0 2.130793 1_555
O15 Pb1 2.618742 1_555
O16 Sc3 2.104732 1_655
O16 Pb0 2.562634 1_555
O17 Sc2 2.104527 1_555
O17 Pb1 2.561617 1_555
O18 Sc2 2.104818 1_445
O18 Pb0 2.562517 1_555
O19 Sc3 2.104613 1_555
O19 Pb1 2.561580 1_555
O20 Sc1 2.065564 1_555
O21 Sc0 2.065249 1_555
O22 Sc1 2.065843 1_554
O23 Sc0 2.065689 1_554
