# generated using pymatgen
data_Cs3Ba3ScSb4
_symmetry_space_group_name_H-M   'P 1'
_cell_length_a   11.80361287
_cell_length_b   11.80361387
_cell_length_c   8.49861824
_cell_angle_alpha   90.00000000
_cell_angle_beta   90.00000000
_cell_angle_gamma   119.99999996
_symmetry_Int_Tables_number   1
_chemical_formula_structural   Cs3Ba3ScSb4
_chemical_formula_sum   'Cs6 Ba6 Sc2 Sb8'
_cell_volume   1025.43681225
_cell_formula_units_Z   2
loop_
 _symmetry_equiv_pos_site_id
 _symmetry_equiv_pos_as_xyz
  1  'x, y, z'
loop_
 _atom_site_type_symbol
 _atom_site_label
 _atom_site_symmetry_multiplicity
 _atom_site_fract_x
 _atom_site_fract_y
 _atom_site_fract_z
 _atom_site_occupancy
  Cs  Cs0  1  0.86234980  0.13765020  0.54528871  1
  Cs  Cs1  1  0.27529939  0.13765020  0.54528871  1
  Cs  Cs2  1  0.86234980  0.72470061  0.54528871  1
  Cs  Cs3  1  0.13765020  0.86234980  0.04528871  1
  Cs  Cs4  1  0.72470061  0.86234980  0.04528871  1
  Cs  Cs5  1  0.13765020  0.27529939  0.04528871  1
  Ba  Ba0  1  0.46969482  0.53030518  0.73279046  1
  Ba  Ba1  1  0.06061036  0.53030518  0.73279046  1
  Ba  Ba2  1  0.46969482  0.93938964  0.73279046  1
  Ba  Ba3  1  0.53030518  0.46969482  0.23279046  1
  Ba  Ba4  1  0.93938964  0.46969482  0.23279046  1
  Ba  Ba5  1  0.53030518  0.06061036  0.23279046  1
  Sc  Sc0  1  0.66666700  0.33333300  0.84803036  1
  Sc  Sc1  1  0.33333300  0.66666700  0.34803036  1
  Sb  Sb0  1  0.79697548  0.20302452  0.96596987  1
  Sb  Sb1  1  0.40605004  0.20302452  0.96596987  1
  Sb  Sb2  1  0.79697548  0.59394996  0.96596987  1
  Sb  Sb3  1  0.20302452  0.79697548  0.46596987  1
  Sb  Sb4  1  0.59394996  0.79697548  0.46596987  1
  Sb  Sb5  1  0.20302452  0.40605004  0.46596987  1
  Sb  Sb6  1  0.66666700  0.33333300  0.50518651  1
  Sb  Sb7  1  0.33333300  0.66666700  0.00518651  1
loop_
_geom_bond_atom_site_label_1
_geom_bond_atom_site_label_2
_geom_bond_distance
_geom_bond_site_symmetry_2
Cs0 Sb5 3.731178 1_655
Cs0 Sb4 3.731178 1_545
Cs0 Sb0 3.816866 1_555
Cs0 Sb6 4.015120 1_555
Cs1 Sb5 3.731178 1_555
Cs1 Sb3 3.731178 1_545
Cs1 Sb1 3.816873 1_555
Cs1 Sb6 4.015140 1_555
Cs2 Sb3 3.731178 1_655
Cs2 Sb4 3.731178 1_555
Cs2 Sb2 3.816873 1_555
Cs2 Sb6 4.015140 1_555
Cs3 Sb2 3.731178 1_454
Cs3 Sb1 3.731178 1_564
Cs3 Sb3 3.816866 1_555
Cs3 Sb7 4.015120 1_555
Cs4 Sb2 3.731178 1_554
Cs4 Sb0 3.731178 1_564
Cs4 Sb4 3.816873 1_555
Cs4 Sb7 4.015140 1_555
Cs5 Sb0 3.731178 1_454
Cs5 Sb1 3.731178 1_554
Cs5 Sb5 3.816873 1_555
Cs5 Sb7 4.015140 1_555
Ba0 Sb5 3.547451 1_555
Ba0 Sb4 3.547451 1_555
Ba0 Sb7 3.623707 1_556
Ba0 Sb2 4.063606 1_555
Ba0 Sb1 4.063607 1_555
Ba1 Sb5 3.547443 1_555
Ba1 Sb3 3.547451 1_555
Ba1 Sb7 3.623699 1_556
Ba1 Sb2 4.063596 1_455
Ba1 Sb0 4.063603 1_455
Ba2 Sb4 3.547443 1_555
Ba2 Sb3 3.547451 1_555
Ba2 Sb7 3.623699 1_556
Ba2 Sb1 4.063597 1_565
Ba2 Sb0 4.063603 1_565
Ba3 Sb2 3.547451 1_554
Ba3 Sb1 3.547451 1_554
Ba3 Sb6 3.623707 1_555
Ba3 Sb5 4.063606 1_555
Ba3 Sb4 4.063607 1_555
Ba4 Sb2 3.547443 1_554
Ba4 Sb0 3.547451 1_554
Ba4 Sb6 3.623699 1_555
Ba4 Sb5 4.063596 1_655
Ba4 Sb3 4.063603 1_655
Ba5 Sb1 3.547443 1_554
Ba5 Sb0 3.547451 1_554
Ba5 Sb6 3.623699 1_555
Ba5 Sb4 4.063597 1_545
Ba5 Sb3 4.063603 1_545
Sb0 Sc0 2.846402 1_555
Sb1 Sc0 2.846402 1_555
Sb2 Sc0 2.846403 1_555
Sb3 Sc1 2.846402 1_555
Sb4 Sc1 2.846402 1_555
Sb5 Sc1 2.846403 1_555
Sb6 Sc0 2.913699 1_555
Sb7 Sc1 2.913699 1_555
