# generated using pymatgen
data_Cs3Rb13(SnSe4)4
_symmetry_space_group_name_H-M   'P 1'
_cell_length_a   8.74802389
_cell_length_b   10.61101793
_cell_length_c   15.52831336
_cell_angle_alpha   90.11842360
_cell_angle_beta   90.41902991
_cell_angle_gamma   90.28501790
_symmetry_Int_Tables_number   1
_chemical_formula_structural   Cs3Rb13(SnSe4)4
_chemical_formula_sum   'Cs3 Rb13 Sn4 Se16'
_cell_volume   1441.36292507
_cell_formula_units_Z   1
loop_
 _symmetry_equiv_pos_site_id
 _symmetry_equiv_pos_as_xyz
  1  'x, y, z'
loop_
 _atom_site_type_symbol
 _atom_site_label
 _atom_site_symmetry_multiplicity
 _atom_site_fract_x
 _atom_site_fract_y
 _atom_site_fract_z
 _atom_site_occupancy
  Cs  Cs0  1  0.00000000  0.00000000  0.00000000  1
  Cs  Cs1  1  0.50000000  0.00000000  0.50000000  1
  Cs  Cs2  1  0.00000000  0.50000000  0.00000000  1
  Rb  Rb0  1  0.50000000  0.50000000  0.50000000  1
  Rb  Rb1  1  0.98134437  0.75059409  0.42184704  1
  Rb  Rb2  1  0.47848336  0.25148326  0.07909985  1
  Rb  Rb3  1  0.01865563  0.24940591  0.57815296  1
  Rb  Rb4  1  0.52151664  0.74851674  0.92090015  1
  Rb  Rb5  1  0.82675128  0.05352041  0.27358997  1
  Rb  Rb6  1  0.32669544  0.95144189  0.22878593  1
  Rb  Rb7  1  0.16963187  0.54737201  0.72279755  1
  Rb  Rb8  1  0.67200135  0.44645496  0.77172490  1
  Rb  Rb9  1  0.17324872  0.94647959  0.72641003  1
  Rb  Rb10  1  0.67330456  0.04855811  0.77121407  1
  Rb  Rb11  1  0.83036813  0.45262799  0.27720245  1
  Rb  Rb12  1  0.32799865  0.55354504  0.22827510  1
  Sn  Sn0  1  0.77322366  0.74641172  0.66617601  1
  Sn  Sn1  1  0.22677634  0.25358828  0.33382399  1
  Sn  Sn2  1  0.72179241  0.75093064  0.17026050  1
  Sn  Sn3  1  0.27820759  0.24906936  0.82973950  1
  Se  Se0  1  0.98657941  0.24796935  0.81651831  1
  Se  Se1  1  0.51787720  0.25285321  0.32127811  1
  Se  Se2  1  0.48212280  0.74714679  0.67872189  1
  Se  Se3  1  0.01342059  0.75203065  0.18348169  1
  Se  Se4  1  0.63203903  0.55568978  0.09179959  1
  Se  Se5  1  0.14269364  0.44829718  0.41388312  1
  Se  Se6  1  0.37045547  0.05603257  0.90906429  1
  Se  Se7  1  0.86847568  0.94012945  0.58916133  1
  Se  Se8  1  0.36796097  0.44431022  0.90820041  1
  Se  Se9  1  0.85730636  0.55170282  0.58611688  1
  Se  Se10  1  0.62954453  0.94396743  0.09093571  1
  Se  Se11  1  0.13152432  0.05987055  0.41083867  1
  Se  Se12  1  0.61317447  0.75169435  0.32352389  1
  Se  Se13  1  0.11459189  0.25418849  0.18021378  1
  Se  Se14  1  0.38682553  0.24830565  0.67647611  1
  Se  Se15  1  0.88540811  0.74581151  0.81978622  1
loop_
_geom_bond_atom_site_label_1
_geom_bond_atom_site_label_2
_geom_bond_distance
_geom_bond_site_symmetry_2
Cs0 Se6 3.591822 1_554
Cs0 Se10 3.591822 1_445
Cs0 Se3 3.883803 1_545
Cs0 Se0 3.883803 1_454
Cs0 Se13 4.001474 1_555
Cs0 Se15 4.001474 1_444
Cs1 Se7 3.559460 1_545
Cs1 Se11 3.559460 1_555
Cs1 Se2 3.867567 1_545
Cs1 Se1 3.867567 1_555
Cs1 Se14 3.932900 1_555
Cs1 Se12 3.932900 1_545
Cs2 Se4 3.581243 1_455
Cs2 Se8 3.581243 1_554
Cs2 Se3 3.904341 1_555
Cs2 Se0 3.904341 1_454
Cs2 Se13 3.956574 1_555
Cs2 Se15 3.956574 1_454
Rb0 Se9 3.431930 1_555
Rb0 Se5 3.431930 1_555
Rb0 Se2 3.818927 1_555
Rb0 Se1 3.818927 1_555
Rb0 Se14 3.958070 1_555
Rb0 Se12 3.958070 1_555
Rb1 Se7 3.435919 1_555
Rb1 Se9 3.489710 1_555
Rb1 Se5 3.513224 1_655
Rb1 Se11 3.533801 1_665
Rb1 Se12 3.554299 1_555
Rb1 Se3 3.714136 1_655
Rb2 Se6 3.476661 1_554
Rb2 Se8 3.488328 1_554
Rb2 Se4 3.494757 1_555
Rb2 Se10 3.531213 1_545
Rb2 Se13 3.559994 1_555
Rb2 Se1 3.773858 1_555
Rb3 Se11 3.435919 1_555
Rb3 Se5 3.489710 1_555
Rb3 Se9 3.513224 1_455
Rb3 Se7 3.533801 1_445
Rb3 Se14 3.554299 1_555
Rb3 Se0 3.714136 1_455
Rb4 Se10 3.476661 1_556
Rb4 Se4 3.488328 1_556
Rb4 Se8 3.494757 1_555
Rb4 Se6 3.531213 1_565
Rb4 Se15 3.559994 1_555
Rb4 Se2 3.773858 1_555
Rb5 Se11 3.401419 1_655
Rb5 Se10 3.502436 1_545
Rb5 Se1 3.521757 1_555
Rb5 Se13 3.604115 1_655
Rb5 Sn2 3.695207 1_545
Rb5 Se12 3.784329 1_545
Rb5 Se3 3.863380 1_645
Rb6 Se10 3.419309 1_555
Rb6 Se11 3.508175 1_565
Rb6 Se3 3.520039 1_555
Rb6 Se12 3.598480 1_555
Rb6 Sn1 3.705467 1_565
Rb6 Se13 3.792149 1_565
Rb6 Se1 3.870607 1_565
Rb7 Se9 3.447999 1_455
Rb7 Se2 3.522889 1_555
Rb7 Se8 3.528960 1_555
Rb7 Se15 3.602486 1_455
Rb7 Sn3 3.702365 1_555
Rb7 Se14 3.777359 1_555
Rb7 Se0 3.844215 1_455
Rb8 Se8 3.412917 1_555
Rb8 Se9 3.499374 1_555
Rb8 Se0 3.539561 1_555
Rb8 Se14 3.565533 1_555
Rb8 Sn0 3.689942 1_555
Rb8 Se15 3.747410 1_555
Rb8 Se2 3.880940 1_555
Rb9 Se7 3.401419 1_455
Rb9 Se6 3.502436 1_565
Rb9 Se2 3.521757 1_555
Rb9 Se15 3.604115 1_455
Rb9 Sn3 3.695207 1_565
Rb9 Se14 3.784329 1_565
Rb9 Se0 3.863380 1_465
Rb10 Se6 3.419309 1_555
Rb10 Se7 3.508175 1_545
Rb10 Se0 3.520039 1_555
Rb10 Se14 3.598480 1_555
Rb10 Sn0 3.705467 1_545
Rb10 Se15 3.792149 1_545
Rb10 Se2 3.870607 1_545
Rb11 Se5 3.447999 1_655
Rb11 Se1 3.522889 1_555
Rb11 Se4 3.528960 1_555
Rb11 Se13 3.602486 1_655
Rb11 Sn2 3.702365 1_555
Rb11 Se12 3.777359 1_555
Rb11 Se3 3.844215 1_655
Rb12 Se4 3.412917 1_555
Rb12 Se5 3.499374 1_555
Rb12 Se3 3.539561 1_555
Rb12 Se12 3.565533 1_555
Rb12 Sn1 3.689942 1_555
Rb12 Se13 3.747410 1_555
Rb12 Se1 3.880940 1_555
Se0 Sn3 2.557887 1_655
Se1 Sn1 2.555468 1_555
Se2 Sn0 2.555468 1_555
Se3 Sn2 2.557887 1_455
Se4 Sn2 2.520367 1_555
Se5 Sn1 2.524486 1_555
Se6 Sn3 2.525163 1_555
Se7 Sn0 2.521404 1_555
Se8 Sn3 2.520367 1_555
Se9 Sn0 2.524486 1_555
Se10 Sn2 2.525163 1_555
Se11 Sn1 2.521404 1_555
Se12 Sn2 2.569053 1_555
Se13 Sn1 2.572693 1_555
Se14 Sn3 2.569053 1_555
Se15 Sn0 2.572693 1_555
