# generated using pymatgen
data_TaNb(B3Mo)2
_symmetry_space_group_name_H-M   'P 1'
_cell_length_a   9.75310841
_cell_length_b   9.75310945
_cell_length_c   3.10195396
_cell_angle_alpha   90.00000000
_cell_angle_beta   90.00000000
_cell_angle_gamma   160.84910624
_symmetry_Int_Tables_number   1
_chemical_formula_structural   TaNb(B3Mo)2
_chemical_formula_sum   'Ta1 Nb1 B6 Mo2'
_cell_volume   96.79902500
_cell_formula_units_Z   1
loop_
 _symmetry_equiv_pos_site_id
 _symmetry_equiv_pos_as_xyz
  1  'x, y, z'
loop_
 _atom_site_type_symbol
 _atom_site_label
 _atom_site_symmetry_multiplicity
 _atom_site_fract_x
 _atom_site_fract_y
 _atom_site_fract_z
 _atom_site_occupancy
  Ta  Ta0  1  0.07124287  0.92875413  0.74999900  1
  Nb  Nb0  1  0.92923738  0.07075962  0.25000100  1
  B  B0  1  0.61786522  0.38213178  0.25000100  1
  B  B1  1  0.52371309  0.47628391  0.25000100  1
  B  B2  1  0.33000179  0.66999521  0.25000100  1
  B  B3  1  0.66921441  0.33078259  0.74999900  1
  B  B4  1  0.47719910  0.52279790  0.74999900  1
  B  B5  1  0.38166481  0.61833219  0.74999900  1
  Mo  Mo0  1  0.20121327  0.79878373  0.25000100  1
  Mo  Mo1  1  0.79863405  0.20136295  0.74999900  1
loop_
_geom_bond_atom_site_label_1
_geom_bond_atom_site_label_2
_geom_bond_distance
_geom_bond_site_symmetry_2
B0 B1 1.810964 1_555
B0 B3 1.838752 1_555
B0 B3 1.838762 1_554
B0 Mo0 2.280846 1_655
B0 Mo0 2.280846 1_545
B0 Ta0 2.416989 1_545
B0 Ta0 2.416990 1_655
B0 Ta0 2.416997 1_544
B0 Ta0 2.416998 1_654
B1 B4 1.790516 1_555
B1 B4 1.790526 1_554
B1 Ta0 2.423519 1_655
B1 Ta0 2.423520 1_545
B1 Ta0 2.423527 1_654
B1 Ta0 2.423528 1_544
B1 Nb0 2.436048 1_455
B1 Nb0 2.436048 1_565
B2 B5 1.842001 1_555
B2 B5 1.842012 1_554
B2 Mo1 2.324153 1_455
B2 Mo1 2.324153 1_565
B2 Mo1 2.324161 1_454
B2 Mo1 2.324162 1_564
B2 Mo0 2.477176 1_555
B2 Nb0 2.505085 1_565
B2 Nb0 2.505086 1_455
B3 Mo0 2.327334 1_655
B3 Mo0 2.327334 1_545
B3 Mo0 2.327342 1_656
B3 Mo0 2.327343 1_546
B3 Ta0 2.486609 1_545
B3 Ta0 2.486610 1_655
B3 Mo1 2.489315 1_555
B4 B5 1.837549 1_555
B4 Nb0 2.426665 1_455
B4 Nb0 2.426666 1_565
B4 Nb0 2.426673 1_456
B4 Nb0 2.426674 1_566
B4 Ta0 2.429856 1_655
B4 Ta0 2.429857 1_545
B5 Mo1 2.276560 1_455
B5 Mo1 2.276561 1_565
B5 Nb0 2.423830 1_565
B5 Nb0 2.423830 1_455
B5 Nb0 2.423838 1_566
B5 Nb0 2.423838 1_456
