# generated using pymatgen
data_GaNi20(SnB3)2
_symmetry_space_group_name_H-M   'P 1'
_cell_length_a   7.43881844
_cell_length_b   7.43881892
_cell_length_c   7.43881932
_cell_angle_alpha   60.00000678
_cell_angle_beta   60.00000468
_cell_angle_gamma   60.00000274
_symmetry_Int_Tables_number   1
_chemical_formula_structural   GaNi20(SnB3)2
_chemical_formula_sum   'Ga1 Ni20 Sn2 B6'
_cell_volume   291.06970470
_cell_formula_units_Z   1
loop_
 _symmetry_equiv_pos_site_id
 _symmetry_equiv_pos_as_xyz
  1  'x, y, z'
loop_
 _atom_site_type_symbol
 _atom_site_label
 _atom_site_symmetry_multiplicity
 _atom_site_fract_x
 _atom_site_fract_y
 _atom_site_fract_z
 _atom_site_occupancy
  Ga  Ga0  1  0.00000000  0.00000000  0.00000000  1
  Ni  Ni0  1  0.33664382  1.00000000  1.00000000  1
  Ni  Ni1  1  0.00000000  0.33664382  0.66335618  1
  Ni  Ni2  1  0.66335618  0.00000000  0.00000000  1
  Ni  Ni3  1  1.00000000  0.66335618  0.33664382  1
  Ni  Ni4  1  1.00000000  0.33664382  1.00000000  1
  Ni  Ni5  1  1.00000000  1.00000000  0.33664382  1
  Ni  Ni6  1  0.33664382  0.00000000  0.66335618  1
  Ni  Ni7  1  0.33664382  0.66335618  0.00000000  1
  Ni  Ni8  1  0.66335618  1.00000000  0.33664382  1
  Ni  Ni9  1  0.00000000  0.00000000  0.66335618  1
  Ni  Ni10  1  0.00000000  0.66335618  0.00000000  1
  Ni  Ni11  1  0.66335618  0.33664382  1.00000000  1
  Ni  Ni12  1  0.38516954  0.38516954  0.38516954  1
  Ni  Ni13  1  0.38516954  0.38516954  0.84448937  1
  Ni  Ni14  1  0.84448937  0.38516954  0.38516954  1
  Ni  Ni15  1  0.38516954  0.84448937  0.38516954  1
  Ni  Ni16  1  0.61483046  0.61483046  0.61483046  1
  Ni  Ni17  1  0.61483046  0.61483046  0.15551063  1
  Ni  Ni18  1  0.61483046  0.15551063  0.61483046  1
  Ni  Ni19  1  0.15551063  0.61483046  0.61483046  1
  Sn  Sn0  1  0.25000000  0.25000000  0.25000000  1
  Sn  Sn1  1  0.75000000  0.75000000  0.75000000  1
  B  B0  1  0.72497453  0.72497453  0.27502547  1
  B  B1  1  0.27502547  0.27502547  0.72497453  1
  B  B2  1  0.27502547  0.72497453  0.72497453  1
  B  B3  1  0.72497453  0.27502547  0.72497453  1
  B  B4  1  0.72497453  0.27502547  0.27502547  1
  B  B5  1  0.27502547  0.72497453  0.27502547  1
loop_
_geom_bond_atom_site_label_1
_geom_bond_atom_site_label_2
_geom_bond_distance
_geom_bond_site_symmetry_2
Ga0 Ni0 2.504232 1_544
Ga0 Ni2 2.504232 1_455
Ga0 Ni4 2.504232 1_454
Ga0 Ni10 2.504232 1_545
Ga0 Ni7 2.504232 1_545
Ga0 Ni11 2.504232 1_454
Ga0 Ni5 2.504233 1_445
Ga0 Ni9 2.504233 1_554
Ga0 Ni6 2.504233 1_554
Ga0 Ni8 2.504233 1_445
Ga0 Ni3 2.504233 1_445
Ga0 Ni1 2.504233 1_554
Ni12 Sn0 2.462966 1_555
Ni13 Sn0 2.462979 1_556
Ni14 Sn0 2.462978 1_655
Ni15 Sn0 2.462979 1_565
Ni16 Sn1 2.462966 1_555
Ni17 Sn1 2.462979 1_554
Ni18 Sn1 2.462979 1_545
Ni19 Sn1 2.462978 1_455
B0 Ni17 2.064278 1_555
B0 Ni15 2.064290 1_555
B0 Ni14 2.064290 1_555
B0 Ni16 2.064290 1_555
B0 Ni3 2.096584 1_555
B0 Ni8 2.096584 1_555
B0 Ni10 2.096584 1_655
B0 Ni2 2.096584 1_565
B1 Ni13 2.064278 1_555
B1 Ni18 2.064290 1_555
B1 Ni19 2.064290 1_555
B1 Ni12 2.064290 1_555
B1 Ni1 2.096584 1_555
B1 Ni6 2.096584 1_555
B1 Ni4 2.096584 1_455
B1 Ni0 2.096584 1_545
B2 Ni19 2.064278 1_555
B2 Ni13 2.064290 1_555
B2 Ni16 2.064290 1_555
B2 Ni15 2.064290 1_555
B2 Ni6 2.096584 1_565
B2 Ni9 2.096584 1_565
B2 Ni7 2.096584 1_556
B2 Ni10 2.096584 1_556
B3 Ni18 2.064278 1_555
B3 Ni13 2.064290 1_555
B3 Ni14 2.064290 1_555
B3 Ni16 2.064290 1_555
B3 Ni1 2.096584 1_655
B3 Ni9 2.096584 1_655
B3 Ni11 2.096584 1_555
B3 Ni2 2.096584 1_556
B4 Ni14 2.064278 1_555
B4 Ni17 2.064290 1_555
B4 Ni12 2.064290 1_555
B4 Ni18 2.064290 1_555
B4 Ni8 2.096584 1_545
B4 Ni5 2.096584 1_545
B4 Ni11 2.096584 1_554
B4 Ni4 2.096584 1_554
B5 Ni15 2.064278 1_555
B5 Ni17 2.064290 1_555
B5 Ni19 2.064290 1_555
B5 Ni12 2.064290 1_555
B5 Ni3 2.096584 1_455
B5 Ni5 2.096584 1_455
B5 Ni7 2.096584 1_555
B5 Ni0 2.096584 1_554
