# generated using pymatgen
data_K12Nb3VTe16
_symmetry_space_group_name_H-M   'P 1'
_cell_length_a   10.34411254
_cell_length_b   10.34948989
_cell_length_c   11.86870412
_cell_angle_alpha   90.00000000
_cell_angle_beta   90.00000000
_cell_angle_gamma   90.26498110
_symmetry_Int_Tables_number   1
_chemical_formula_structural   K12Nb3VTe16
_chemical_formula_sum   'K12 Nb3 V1 Te16'
_cell_volume   1270.60581943
_cell_formula_units_Z   1
loop_
 _symmetry_equiv_pos_site_id
 _symmetry_equiv_pos_as_xyz
  1  'x, y, z'
loop_
 _atom_site_type_symbol
 _atom_site_label
 _atom_site_symmetry_multiplicity
 _atom_site_fract_x
 _atom_site_fract_y
 _atom_site_fract_z
 _atom_site_occupancy
  K  K0  1  0.05575194  0.20249682  0.04602650  1
  K  K1  1  0.12403578  0.41070500  0.75000000  1
  K  K2  1  0.37523282  0.90426957  0.25000000  1
  K  K3  1  0.62619571  0.09184330  0.75000000  1
  K  K4  1  0.87733105  0.59388818  0.25000000  1
  K  K5  1  0.94711075  0.79919302  0.54864983  1
  K  K6  1  0.55342323  0.29446700  0.45237755  1
  K  K7  1  0.44436631  0.70574986  0.95000800  1
  K  K8  1  0.55342323  0.29446700  0.04762245  1
  K  K9  1  0.05575194  0.20249682  0.45397350  1
  K  K10  1  0.44436631  0.70574986  0.54999200  1
  K  K11  1  0.94711075  0.79919302  0.95135017  1
  Nb  Nb0  1  0.78765259  0.01742888  0.25000000  1
  Nb  Nb1  1  0.70962100  0.51474967  0.75000000  1
  Nb  Nb2  1  0.29002170  0.48324299  0.25000000  1
  V  V0  1  0.21069952  0.98238161  0.75000000  1
  Te  Te0  1  0.32966955  0.04920188  0.92350763  1
  Te  Te1  1  0.19082579  0.74189219  0.75000000  1
  Te  Te2  1  0.30882831  0.23123222  0.25000000  1
  Te  Te3  1  0.69191406  0.76636159  0.75000000  1
  Te  Te4  1  0.81149413  0.26817829  0.25000000  1
  Te  Te5  1  0.98930104  0.08112727  0.75000000  1
  Te  Te6  1  0.52330021  0.58493793  0.25000000  1
  Te  Te7  1  0.47602963  0.41344750  0.75000000  1
  Te  Te8  1  0.01981425  0.91512396  0.25000000  1
  Te  Te9  1  0.66359630  0.94968966  0.43310530  1
  Te  Te10  1  0.83371040  0.44448092  0.56862689  1
  Te  Te11  1  0.16622174  0.55431478  0.06849440  1
  Te  Te12  1  0.66359630  0.94968966  0.06689470  1
  Te  Te13  1  0.32966955  0.04920188  0.57649237  1
  Te  Te14  1  0.16622174  0.55431478  0.43150560  1
  Te  Te15  1  0.83371040  0.44448092  0.93137311  1
loop_
_geom_bond_atom_site_label_1
_geom_bond_atom_site_label_2
_geom_bond_distance
_geom_bond_site_symmetry_2
K0 Te0 3.563918 1_554
K0 Te4 3.566875 1_455
K0 Te2 3.577031 1_555
K0 Te15 3.667754 1_454
K0 Te5 3.792974 1_454
K0 Te11 3.820509 1_555
K0 Te8 3.851541 1_545
K1 Te1 3.493420 1_555
K1 Te7 3.641043 1_555
K1 Te5 3.678738 1_455
K1 Te15 3.712792 1_455
K1 Te10 3.712792 1_455
K1 Te11 4.084453 1_556
K1 Te14 4.084453 1_555
K2 Te2 3.456021 1_565
K2 Te6 3.648999 1_555
K2 Te8 3.678725 1_555
K2 Te9 3.718653 1_555
K2 Te12 3.718653 1_555
K3 Te3 3.439559 1_545
K3 Te7 3.679563 1_555
K3 Te0 3.719050 1_555
K3 Te13 3.719050 1_555
K3 Te5 3.758152 1_555
K3 Te12 4.057772 1_546
K3 Te9 4.057772 1_545
K4 Te4 3.435948 1_555
K4 Te8 3.630439 1_655
K4 Te6 3.662878 1_555
K4 Te14 3.708078 1_655
K4 Te11 3.708078 1_655
K4 Te10 4.109662 1_555
K4 Te15 4.109662 1_554
K5 Te1 3.525907 1_655
K5 Te3 3.575835 1_555
K5 Te9 3.598563 1_555
K5 Te14 3.680526 1_655
K5 Te5 3.795216 1_565
K5 Te8 3.815877 1_655
K5 Te10 3.856070 1_555
K6 Te2 3.547378 1_555
K6 Te10 3.560695 1_555
K6 Te4 3.602285 1_555
K6 Te13 3.730417 1_555
K6 Te9 3.757827 1_545
K6 Te7 3.826766 1_555
K6 Te6 3.861678 1_555
K7 Te3 3.545523 1_555
K7 Te1 3.558425 1_555
K7 Te11 3.559538 1_556
K7 Te12 3.658981 1_556
K7 Te0 3.765689 1_565
K7 Te7 3.860473 1_555
K7 Te6 3.862221 1_556
K8 Te2 3.547378 1_555
K8 Te15 3.560695 1_554
K8 Te4 3.602285 1_555
K8 Te0 3.730417 1_554
K8 Te12 3.757827 1_545
K8 Te7 3.826766 1_554
K8 Te6 3.861678 1_555
K9 Te13 3.563918 1_555
K9 Te4 3.566875 1_455
K9 Te2 3.577031 1_555
K9 Te10 3.667754 1_455
K9 Te5 3.792974 1_455
K9 Te14 3.820509 1_555
K9 Te8 3.851541 1_545
K10 Te3 3.545523 1_555
K10 Te1 3.558425 1_555
K10 Te14 3.559538 1_555
K10 Te9 3.658981 1_555
K10 Te13 3.765689 1_565
K10 Te7 3.860473 1_555
K10 Te6 3.862221 1_555
K11 Te1 3.525907 1_655
K11 Te3 3.575835 1_555
K11 Te12 3.598563 1_556
K11 Te11 3.680526 1_656
K11 Te5 3.795216 1_565
K11 Te8 3.815877 1_656
K11 Te15 3.856070 1_555
Nb0 Te4 2.605685 1_555
Nb0 Te9 2.617786 1_545
Nb0 Te12 2.617786 1_545
Nb0 Te8 2.629033 1_645
Nb1 Te3 2.611334 1_555
Nb1 Te15 2.611340 1_555
Nb1 Te10 2.611340 1_555
Nb1 Te7 2.629496 1_555
Nb2 Te14 2.613509 1_555
Nb2 Te11 2.613509 1_555
Nb2 Te2 2.616325 1_555
Nb2 Te6 2.628136 1_555
Te0 V0 2.495118 1_545
Te1 V0 2.496470 1_555
Te5 V0 2.512160 1_645
Te13 V0 2.495118 1_545
