# generated using pymatgen
data_Ti5Al16GaIr7
_symmetry_space_group_name_H-M   'P 1'
_cell_length_a   8.48145010
_cell_length_b   8.57905361
_cell_length_c   8.57905328
_cell_angle_alpha   59.24872709
_cell_angle_beta   60.37563645
_cell_angle_gamma   60.37564445
_symmetry_Int_Tables_number   1
_chemical_formula_structural   Ti5Al16GaIr7
_chemical_formula_sum   'Ti5 Al16 Ga1 Ir7'
_cell_volume   441.28859940
_cell_formula_units_Z   1
loop_
 _symmetry_equiv_pos_site_id
 _symmetry_equiv_pos_as_xyz
  1  'x, y, z'
loop_
 _atom_site_type_symbol
 _atom_site_label
 _atom_site_symmetry_multiplicity
 _atom_site_fract_x
 _atom_site_fract_y
 _atom_site_fract_z
 _atom_site_occupancy
  Ti  Ti0  1  0.80723512  0.19276488  0.19276488  1
  Ti  Ti1  1  0.78363564  0.21636436  0.78311915  1
  Ti  Ti2  1  0.78363564  0.78311915  0.21636436  1
  Ti  Ti3  1  0.21688085  0.78311915  0.21636436  1
  Ti  Ti4  1  0.21688085  0.21636436  0.78311915  1
  Al  Al0  1  0.88559883  0.84115868  0.84115868  1
  Al  Al1  1  0.85331456  0.83097324  0.46239964  1
  Al  Al2  1  0.43208581  0.84115868  0.84115868  1
  Al  Al3  1  0.85331456  0.46239964  0.83097324  1
  Al  Al4  1  0.16902676  0.14668544  0.14668544  1
  Al  Al5  1  0.15884132  0.11440117  0.56791419  1
  Al  Al6  1  0.15884132  0.56791419  0.11440117  1
  Al  Al7  1  0.53760036  0.14668544  0.14668544  1
  Al  Al8  1  0.61655829  0.61784210  0.61784210  1
  Al  Al9  1  0.63016426  0.61745215  0.12221933  1
  Al  Al10  1  0.14775750  0.61784210  0.61784210  1
  Al  Al11  1  0.63016426  0.12221933  0.61745215  1
  Al  Al12  1  0.38254785  0.36983574  0.36983574  1
  Al  Al13  1  0.38215790  0.38344171  0.85224250  1
  Al  Al14  1  0.38215790  0.85224250  0.38344171  1
  Al  Al15  1  0.87778067  0.36983574  0.36983574  1
  Ga  Ga0  1  0.02579196  0.97420804  0.97420804  1
  Ir  Ir0  1  0.51205490  0.48794510  0.48794510  1
  Ir  Ir1  1  0.01094560  0.48905440  0.48905440  1
  Ir  Ir2  1  0.51094560  0.98905440  0.98905440  1
  Ir  Ir3  1  0.51166399  0.99462514  0.48833601  1
  Ir  Ir4  1  0.51166399  0.48833601  0.99462514  1
  Ir  Ir5  1  0.00537486  0.48833601  0.99462514  1
  Ir  Ir6  1  0.00537486  0.99462514  0.48833601  1
loop_
_geom_bond_atom_site_label_1
_geom_bond_atom_site_label_2
_geom_bond_distance
_geom_bond_site_symmetry_2
Al0 Ir6 2.476780 1_655
Al0 Ir5 2.476780 1_655
Al0 Ir2 2.644126 1_555
Al0 Ti2 2.718790 1_556
Al0 Ti1 2.718790 1_565
Al0 Al10 2.759626 1_655
Al0 Ga0 2.834693 1_655
Al0 Al9 2.899085 1_556
Al0 Al11 2.899085 1_565
Al1 Ir6 2.465206 1_655
Al1 Ir3 2.465221 1_555
Al1 Ir1 2.486643 1_655
Al1 Ti3 2.707811 1_655
Al1 Ti2 2.707822 1_555
Al1 Ti0 2.736735 1_565
Al1 Al10 2.764553 1_655
Al1 Al8 2.764567 1_555
Al1 Al11 2.798096 1_565
Al2 Ir3 2.476781 1_555
Al2 Ir4 2.476781 1_555
Al2 Ir2 2.644113 1_555
Al2 Ti3 2.718793 1_556
Al2 Ti4 2.718793 1_565
Al2 Al8 2.759628 1_555
Al2 Ga0 2.834707 1_555
Al2 Al9 2.899074 1_556
Al3 Ir5 2.465206 1_655
Al3 Ir4 2.465220 1_555
Al3 Ir1 2.486643 1_655
Al3 Ti4 2.707811 1_655
Al3 Ti1 2.707822 1_555
Al3 Ti0 2.736735 1_556
Al3 Al8 2.764567 1_555
Al3 Al9 2.798096 1_556
Al4 Ir6 2.465217 1_545
Al4 Ir5 2.465217 1_554
Al4 Ir2 2.486639 1_544
Al4 Ti4 2.707806 1_554
Al4 Ti3 2.707806 1_545
Al4 Ti0 2.736729 1_455
Al5 Ir6 2.476767 1_545
Al5 Ir3 2.476782 1_545
Al5 Ir1 2.644128 1_555
Al5 Ti1 2.718795 1_455
Al5 Ti4 2.718806 1_555
Al5 Ga0 2.834707 1_545
Al6 Ir5 2.476767 1_554
Al6 Ir4 2.476782 1_554
Al6 Ir1 2.644128 1_555
Al6 Ti2 2.718795 1_455
Al6 Ti3 2.718806 1_555
Al6 Ga0 2.834707 1_554
Al7 Ir3 2.465221 1_545
Al7 Ir4 2.465221 1_554
Al7 Ir2 2.486628 1_544
Al7 Ti1 2.707811 1_554
Al7 Ti2 2.707811 1_545
Al7 Ti0 2.736746 1_555
Al8 Ir0 2.548000 1_555
Al8 Ir4 2.633649 1_555
Al8 Ir3 2.633649 1_555
Al8 Ir1 2.751593 1_655
Al8 Ti2 2.837021 1_555
Al8 Ti1 2.837021 1_555
Al9 Ir0 2.551566 1_555
Al9 Ir2 2.592602 1_554
Al9 Ir4 2.619845 1_554
Al9 Ir5 2.619845 1_654
Al9 Ti2 2.899804 1_555
Al9 Ti3 2.899804 1_555
Al9 Ti0 3.021650 1_555
Al10 Ir0 2.548000 1_555
Al10 Ir5 2.633649 1_555
Al10 Ir6 2.633649 1_555
Al10 Ir1 2.751593 1_555
Al10 Al3 2.764553 1_455
Al10 Al14 2.811535 1_555
Al10 Al13 2.811535 1_555
Al10 Ti3 2.837021 1_555
Al10 Ti4 2.837021 1_555
Al10 Al12 3.044877 1_555
Al11 Ir0 2.551566 1_555
Al11 Ir2 2.592601 1_545
Al11 Ir3 2.619845 1_545
Al11 Ir6 2.619845 1_645
Al11 Al2 2.899074 1_545
Al11 Ti1 2.899804 1_555
Al11 Ti4 2.899804 1_555
Al11 Al15 2.970055 1_555
Al11 Al12 2.970056 1_555
Al11 Ti0 3.021649 1_555
Al11 Al13 3.044877 1_555
Al12 Ir0 2.551566 1_555
Al12 Ir1 2.592602 1_555
Al12 Ir4 2.619845 1_554
Al12 Ir3 2.619845 1_545
Al12 Al7 2.798110 1_555
Al12 Al5 2.899087 1_555
Al12 Al6 2.899087 1_555
Al12 Ti4 2.899804 1_555
Al12 Ti3 2.899804 1_555
Al12 Al9 2.970055 1_555
Al12 Ti0 3.021650 1_555
Al13 Ir0 2.548000 1_555
Al13 Ir4 2.633649 1_555
Al13 Ir5 2.633649 1_555
Al13 Ir2 2.751593 1_545
Al13 Al6 2.759615 1_556
Al13 Al7 2.764554 1_556
Al13 Al4 2.764563 1_556
Al13 Al8 2.811535 1_555
Al13 Ti4 2.837021 1_555
Al13 Ti1 2.837021 1_555
Al14 Ir0 2.548000 1_555
Al14 Ir3 2.633649 1_555
Al14 Ir6 2.633649 1_555
Al14 Ir2 2.751593 1_554
Al14 Al5 2.759615 1_565
Al14 Al7 2.764553 1_565
Al14 Al4 2.764563 1_565
Al14 Al8 2.811535 1_555
Al14 Ti3 2.837021 1_555
Al14 Ti2 2.837021 1_555
Al14 Al9 3.044877 1_555
Al15 Ir0 2.551566 1_555
Al15 Ir1 2.592602 1_655
Al15 Ir5 2.619845 1_654
Al15 Ir6 2.619845 1_645
Al15 Al4 2.798106 1_655
Al15 Al6 2.899074 1_655
Al15 Al5 2.899075 1_655
Al15 Ti1 2.899804 1_555
Al15 Ti2 2.899804 1_555
Al15 Al9 2.970056 1_555
Al15 Ti0 3.021649 1_555
Al15 Al8 3.044877 1_555
Ga0 Ti2 2.617115 1_456
Ga0 Ti4 2.617115 1_565
Ga0 Ti3 2.617115 1_556
Ga0 Ti1 2.617115 1_465
Ga0 Ti0 2.681494 1_466
Ir1 Ti1 3.028093 1_455
Ir1 Ti3 3.028093 1_555
Ir1 Ti4 3.028093 1_555
Ir1 Ti2 3.028093 1_455
Ir2 Ti3 3.028093 1_556
Ir2 Ti1 3.028093 1_565
Ir2 Ti2 3.028093 1_556
Ir2 Ti4 3.028093 1_565
Ir3 Ti0 3.020651 1_565
Ir4 Ti0 3.020652 1_556
Ir5 Ti0 3.020651 1_456
Ir6 Ti0 3.020652 1_465
