# generated using pymatgen
data_SrGaIO6
_symmetry_space_group_name_H-M   'P 1'
_cell_length_a   5.13488055
_cell_length_b   5.13488023
_cell_length_c   5.38459366
_cell_angle_alpha   90.00000000
_cell_angle_beta   90.00000000
_cell_angle_gamma   119.99998337
_symmetry_Int_Tables_number   1
_chemical_formula_structural   SrGaIO6
_chemical_formula_sum   'Sr1 Ga1 I1 O6'
_cell_volume   122.95446481
_cell_formula_units_Z   1
loop_
 _symmetry_equiv_pos_site_id
 _symmetry_equiv_pos_as_xyz
  1  'x, y, z'
loop_
 _atom_site_type_symbol
 _atom_site_label
 _atom_site_symmetry_multiplicity
 _atom_site_fract_x
 _atom_site_fract_y
 _atom_site_fract_z
 _atom_site_occupancy
  Sr  Sr0  1  0.66666700  0.33333300  0.50000000  1
  Ga  Ga0  1  0.33333300  0.66666700  0.00000000  1
  I  I0  1  0.00000000  0.00000000  0.00000000  1
  O  O0  1  0.03704132  0.31786831  0.80060507  1
  O  O1  1  0.28082799  0.96295868  0.80060507  1
  O  O2  1  0.28082799  0.31786831  0.19939493  1
  O  O3  1  0.68213169  0.71917201  0.80060507  1
  O  O4  1  0.68213169  0.96295868  0.19939493  1
  O  O5  1  0.03704132  0.71917201  0.19939493  1
loop_
_geom_bond_atom_site_label_1
_geom_bond_atom_site_label_2
_geom_bond_distance
_geom_bond_site_symmetry_2
Ga0 O1 1.987548 1_554
Ga0 O5 1.987548 1_555
Ga0 O0 1.987554 1_554
Ga0 O4 1.987554 1_555
Ga0 O2 1.987557 1_555
Ga0 O3 1.987557 1_554
I0 O0 1.882180 1_554
I0 O4 1.882180 1_445
I0 O2 1.882182 1_555
I0 O3 1.882182 1_444
I0 O5 1.882184 1_545
I0 O1 1.882184 1_544
O0 Sr0 2.528688 1_455
O1 Sr0 2.528688 1_565
O2 Sr0 2.528688 1_555
O3 Sr0 2.528688 1_555
O4 Sr0 2.528688 1_565
O5 Sr0 2.528688 1_455
