# generated using pymatgen
data_Rb4Ba5Sr3I20
_symmetry_space_group_name_H-M   'P 1'
_cell_length_a   9.29470864
_cell_length_b   10.29192740
_cell_length_c   14.84156734
_cell_angle_alpha   90.05920141
_cell_angle_beta   89.68572853
_cell_angle_gamma   90.11654659
_symmetry_Int_Tables_number   1
_chemical_formula_structural   Rb4Ba5Sr3I20
_chemical_formula_sum   'Rb4 Ba5 Sr3 I20'
_cell_volume   1419.72621938
_cell_formula_units_Z   1
loop_
 _symmetry_equiv_pos_site_id
 _symmetry_equiv_pos_as_xyz
  1  'x, y, z'
loop_
 _atom_site_type_symbol
 _atom_site_label
 _atom_site_symmetry_multiplicity
 _atom_site_fract_x
 _atom_site_fract_y
 _atom_site_fract_z
 _atom_site_occupancy
  Rb  Rb0  1  0.45866817  0.49585695  0.82950934  1
  Rb  Rb1  1  0.54146689  0.50346990  0.17065463  1
  Rb  Rb2  1  0.95859950  0.50305659  0.67264817  1
  Rb  Rb3  1  0.04147218  0.49340933  0.32613851  1
  Ba  Ba0  1  0.46973031  0.00127185  0.82466350  1
  Ba  Ba1  1  0.53047172  0.00166136  0.17520103  1
  Ba  Ba2  1  0.97060611  0.00336643  0.67908355  1
  Ba  Ba3  1  0.02972179  0.99900674  0.32051057  1
  Ba  Ba4  1  0.42556464  0.74482861  0.50748052  1
  Sr  Sr0  1  0.57076151  0.24926465  0.49506979  1
  Sr  Sr1  1  0.93166603  0.25481314  0.99548921  1
  Sr  Sr2  1  0.06923828  0.74909938  0.00493221  1
  I  I0  1  0.32969556  0.44894354  0.59096529  1
  I  I1  1  0.66966227  0.52937175  0.40983484  1
  I  I2  1  0.83370751  0.53826779  0.91250670  1
  I  I3  1  0.16844649  0.46502609  0.08596204  1
  I  I4  1  0.66795373  0.77617600  0.68777793  1
  I  I5  1  0.33753968  0.22490125  0.31935073  1
  I  I6  1  0.16232982  0.22786429  0.82116156  1
  I  I7  1  0.83768680  0.77233131  0.18087906  1
  I  I8  1  0.18719587  0.76517465  0.78577369  1
  I  I9  1  0.81361202  0.23570828  0.21135358  1
  I  I10  1  0.68789904  0.23644449  0.71310923  1
  I  I11  1  0.30919945  0.76395773  0.28044257  1
  I  I12  1  0.04017073  0.77203682  0.50272632  1
  I  I13  1  0.95298575  0.22697369  0.49622875  1
  I  I14  1  0.54932266  0.23194754  0.99644306  1
  I  I15  1  0.45218988  0.77128801  0.00246092  1
  I  I16  1  0.83845840  0.96410218  0.90853635  1
  I  I17  1  0.16311807  0.04099363  0.09321908  1
  I  I18  1  0.33654516  0.04519381  0.59821387  1
  I  I19  1  0.66431499  0.96419022  0.40167242  1
loop_
_geom_bond_atom_site_label_1
_geom_bond_atom_site_label_2
_geom_bond_distance
_geom_bond_site_symmetry_2
Ba0 I15 3.549507 1_546
Ba0 I10 3.558497 1_555
Ba0 I14 3.561530 1_555
Ba0 I4 3.585452 1_545
Ba0 I18 3.617080 1_555
Ba0 I8 3.622372 1_545
Ba0 I16 3.673532 1_545
Ba0 I6 3.692402 1_555
Ba1 I11 3.550597 1_545
Ba1 I14 3.562708 1_554
Ba1 I15 3.567156 1_545
Ba1 I9 3.605980 1_555
Ba1 I5 3.610559 1_555
Ba1 I19 3.611710 1_545
Ba1 I17 3.654446 1_555
Ba1 I7 3.709728 1_545
Ba2 I8 3.554255 1_645
Ba2 I13 3.564736 1_555
Ba2 I12 3.593342 1_645
Ba2 I10 3.594809 1_555
Ba2 I6 3.602071 1_655
Ba2 I18 3.625607 1_655
Ba2 I16 3.636470 1_545
Ba2 I4 3.656115 1_545
Ba3 I9 3.557780 1_465
Ba3 I13 3.576105 1_465
Ba3 I12 3.577233 1_555
Ba3 I7 3.596767 1_455
Ba3 I11 3.599891 1_555
Ba3 I17 3.613662 1_565
Ba3 I19 3.614642 1_455
Ba3 I5 3.682887 1_565
Ba4 I0 3.404013 1_555
Ba4 I18 3.470439 1_565
Ba4 I1 3.484633 1_555
Ba4 I4 3.521594 1_555
Ba4 I19 3.526501 1_555
Ba4 I11 3.550351 1_555
Ba4 I12 3.594704 1_555
I0 Sr0 3.353674 1_555
I0 Rb2 3.692909 1_455
I0 Rb0 3.774259 1_555
I1 Sr0 3.277206 1_555
I1 Rb3 3.685129 1_655
I1 Rb1 3.759671 1_555
I2 Sr1 3.299539 1_555
I2 Sr2 3.374907 1_656
I2 Rb0 3.728144 1_555
I2 Rb2 3.755702 1_555
I3 Sr2 3.297689 1_555
I3 Sr1 3.366646 1_454
I3 Rb1 3.714649 1_555
I3 Rb3 3.760003 1_555
I4 Rb2 3.908015 1_555
I4 Rb0 4.059181 1_555
I5 Sr0 3.409070 1_555
I5 Rb3 3.904735 1_555
I5 Rb1 4.077727 1_555
I6 Sr1 3.362684 1_455
I6 Rb0 3.896349 1_555
I6 Rb2 4.067720 1_455
I7 Sr2 3.383390 1_655
I7 Rb1 3.902966 1_555
I7 Rb3 4.068886 1_655
I8 Sr2 3.430809 1_556
I8 Rb0 3.810664 1_555
I8 Rb2 3.823278 1_455
I9 Sr1 3.386540 1_554
I9 Rb1 3.795547 1_555
I9 Rb3 3.798613 1_655
I10 Sr0 3.422707 1_555
I10 Rb2 3.765540 1_555
I10 Rb0 3.824320 1_555
I11 Rb3 3.789824 1_555
I11 Rb1 3.805124 1_555
I12 Rb2 3.818820 1_455
I12 Rb3 3.882837 1_555
I13 Sr0 3.560665 1_555
I13 Rb3 3.814541 1_655
I13 Rb2 3.862337 1_555
I14 Sr1 3.561027 1_555
I14 Rb0 3.777803 1_555
I14 Rb1 3.805721 1_556
I15 Sr2 3.566268 1_555
I15 Rb1 3.816238 1_555
I15 Rb0 3.822570 1_554
I16 Sr1 3.370703 1_565
I16 Sr2 3.406455 1_656
I17 Sr2 3.390726 1_545
I17 Sr1 3.410959 1_454
I18 Sr0 3.383089 1_555
I19 Sr0 3.357748 1_565
