# generated using pymatgen
data_KBaMnN3
_symmetry_space_group_name_H-M   'P 1'
_cell_length_a   6.51869390
_cell_length_b   6.51869337
_cell_length_c   12.79933822
_cell_angle_alpha   90.00000000
_cell_angle_beta   90.00000000
_cell_angle_gamma   128.61610414
_symmetry_Int_Tables_number   1
_chemical_formula_structural   KBaMnN3
_chemical_formula_sum   'K4 Ba4 Mn4 N12'
_cell_volume   424.96341412
_cell_formula_units_Z   4
loop_
 _symmetry_equiv_pos_site_id
 _symmetry_equiv_pos_as_xyz
  1  'x, y, z'
loop_
 _atom_site_type_symbol
 _atom_site_label
 _atom_site_symmetry_multiplicity
 _atom_site_fract_x
 _atom_site_fract_y
 _atom_site_fract_z
 _atom_site_occupancy
  K  K0  1  0.55128778  0.44871222  0.64049750  1
  K  K1  1  0.44871222  0.55128778  0.35950250  1
  K  K2  1  0.94871222  0.05128778  0.14049750  1
  K  K3  1  0.05128778  0.94871222  0.85950250  1
  Ba  Ba0  1  0.85120483  0.14879517  0.58586886  1
  Ba  Ba1  1  0.14879517  0.85120483  0.41413114  1
  Ba  Ba2  1  0.64879517  0.35120483  0.08586886  1
  Ba  Ba3  1  0.35120483  0.64879517  0.91413114  1
  Mn  Mn0  1  0.72327874  0.27672126  0.82950663  1
  Mn  Mn1  1  0.27672126  0.72327874  0.17049337  1
  Mn  Mn2  1  0.77672126  0.22327874  0.32950663  1
  Mn  Mn3  1  0.22327874  0.77672126  0.67049337  1
  N  N0  1  0.81393420  0.18606580  0.93231142  1
  N  N1  1  0.18606580  0.81393420  0.06768858  1
  N  N2  1  0.68606580  0.31393420  0.43231142  1
  N  N3  1  0.31393420  0.68606580  0.56768858  1
  N  N4  1  0.58964824  0.41035176  0.86972355  1
  N  N5  1  0.41035176  0.58964824  0.13027645  1
  N  N6  1  0.91035176  0.08964824  0.36972355  1
  N  N7  1  0.08964824  0.91035176  0.63027645  1
  N  N8  1  0.50180748  0.99819252  0.75000000  1
  N  N9  1  0.99819252  0.50180748  0.25000000  1
  N  N10  1  0.49819252  0.00180748  0.25000000  1
  N  N11  1  0.00180748  0.49819252  0.75000000  1
loop_
_geom_bond_atom_site_label_1
_geom_bond_atom_site_label_2
_geom_bond_distance
_geom_bond_site_symmetry_2
K0 N7 2.864763 1_545
K0 N7 2.864763 1_655
K0 N3 2.940141 1_555
K0 N4 2.968354 1_555
K0 N8 3.083964 1_545
K0 N11 3.083964 1_655
K0 N2 3.099613 1_555
K1 N6 2.864763 1_565
K1 N6 2.864763 1_455
K1 N2 2.940141 1_555
K1 N5 2.968354 1_555
K1 N10 3.083964 1_565
K1 N9 3.083964 1_455
K1 N3 3.099613 1_555
K2 N5 2.864763 1_655
K2 N5 2.864763 1_545
K2 N1 2.940141 1_645
K2 N6 2.968354 1_555
K2 N9 3.083964 1_555
K2 N10 3.083964 1_555
K2 N0 3.099613 1_554
K3 N4 2.864763 1_455
K3 N4 2.864763 1_565
K3 N0 2.940141 1_465
K3 N7 2.968354 1_555
K3 N11 3.083964 1_555
K3 N8 3.083964 1_555
K3 N1 3.099613 1_556
Ba0 N2 2.761711 1_555
Ba0 N11 2.788114 1_655
Ba0 N8 2.788114 1_545
Ba0 N6 2.852452 1_555
Ba0 N7 2.858429 1_645
Ba0 N3 2.869238 1_655
Ba0 N3 2.869238 1_545
Ba1 N3 2.761711 1_555
Ba1 N9 2.788114 1_455
Ba1 N10 2.788114 1_565
Ba1 N7 2.852452 1_555
Ba1 N6 2.858429 1_465
Ba1 N2 2.869238 1_455
Ba1 N2 2.869238 1_565
Ba2 N0 2.761711 1_554
Ba2 N10 2.788114 1_555
Ba2 N9 2.788114 1_555
Ba2 N4 2.852452 1_554
Ba2 N5 2.858429 1_555
Ba2 N1 2.869238 1_545
Ba2 N1 2.869238 1_655
Ba3 N1 2.761711 1_556
Ba3 N8 2.788114 1_555
Ba3 N11 2.788114 1_555
Ba3 N5 2.852452 1_556
Ba3 N4 2.858429 1_555
Ba3 N0 2.869238 1_565
Ba3 N0 2.869238 1_455
Mn0 N4 1.652189 1_555
Mn0 N0 1.692861 1_555
Mn0 N8 1.773295 1_545
Mn0 N11 1.773295 1_655
Mn1 N5 1.652189 1_555
Mn1 N1 1.692861 1_555
Mn1 N10 1.773295 1_565
Mn1 N9 1.773295 1_455
Mn2 N6 1.652189 1_555
Mn2 N2 1.692861 1_555
Mn2 N9 1.773295 1_555
Mn2 N10 1.773295 1_555
Mn3 N7 1.652189 1_555
Mn3 N3 1.692861 1_555
Mn3 N11 1.773295 1_555
Mn3 N8 1.773295 1_555
