# generated using pymatgen
data_SrGaPRu2
_symmetry_space_group_name_H-M   'P 1'
_cell_length_a   5.92530252
_cell_length_b   5.92530320
_cell_length_c   5.92530360
_cell_angle_alpha   137.89018747
_cell_angle_beta   137.89018973
_cell_angle_gamma   61.07122218
_symmetry_Int_Tables_number   1
_chemical_formula_structural   SrGaPRu2
_chemical_formula_sum   'Sr1 Ga1 P1 Ru2'
_cell_volume   92.50741954
_cell_formula_units_Z   1
loop_
 _symmetry_equiv_pos_site_id
 _symmetry_equiv_pos_as_xyz
  1  'x, y, z'
loop_
 _atom_site_type_symbol
 _atom_site_label
 _atom_site_symmetry_multiplicity
 _atom_site_fract_x
 _atom_site_fract_y
 _atom_site_fract_z
 _atom_site_occupancy
  Sr  Sr0  1  0.00196937  0.00196937  0.00000000  1
  Ga  Ga0  1  0.63811498  0.63811498  0.00000000  1
  P  P0  1  0.34418672  0.34418672  1.00000000  1
  Ru  Ru0  1  0.25786397  0.75786397  0.50000000  1
  Ru  Ru1  1  0.75786397  0.25786397  0.50000000  1
loop_
_geom_bond_atom_site_label_1
_geom_bond_atom_site_label_2
_geom_bond_distance
_geom_bond_site_symmetry_2
Ga0 Ru0 2.454693 1_655
Ga0 Ru1 2.454693 1_565
Ga0 Ru0 2.454693 1_554
Ga0 Ru1 2.454693 1_554
Ga0 P0 3.000151 1_554
Ga0 Sr0 3.315748 1_565
Ga0 Sr0 3.315748 1_554
Ga0 Sr0 3.315748 1_655
Ga0 Sr0 3.315748 1_666
P0 Ru1 2.303882 1_455
P0 Ru0 2.303882 1_545
P0 Ru1 2.303882 1_556
P0 Ru0 2.303882 1_556
P0 Sr0 3.414201 1_656
P0 Sr0 3.414201 1_667
P0 Sr0 3.414202 1_566
P0 Sr0 3.414202 1_555
P0 Sr0 3.493042 1_556
Ru0 Sr0 3.277136 1_666
Ru0 Sr0 3.277137 1_565
Ru0 Sr0 3.369533 1_555
Ru0 Sr0 3.369533 1_566
Ru1 Sr0 3.277137 1_666
Ru1 Sr0 3.277137 1_655
Ru1 Sr0 3.369532 1_555
Ru1 Sr0 3.369533 1_656
