# generated using pymatgen
data_Zr6Si6Tc5Ru
_symmetry_space_group_name_H-M   'P 1'
_cell_length_a   7.75046916
_cell_length_b   7.76245563
_cell_length_c   7.75027376
_cell_angle_alpha   126.61645812
_cell_angle_beta   127.68396410
_cell_angle_gamma   77.97206417
_symmetry_Int_Tables_number   1
_chemical_formula_structural   Zr6Si6Tc5Ru
_chemical_formula_sum   'Zr6 Si6 Tc5 Ru1'
_cell_volume   287.08608552
_cell_formula_units_Z   1
loop_
 _symmetry_equiv_pos_site_id
 _symmetry_equiv_pos_as_xyz
  1  'x, y, z'
loop_
 _atom_site_type_symbol
 _atom_site_label
 _atom_site_symmetry_multiplicity
 _atom_site_fract_x
 _atom_site_fract_y
 _atom_site_fract_z
 _atom_site_occupancy
  Zr  Zr0  1  0.45113703  0.65966686  0.70662942  1
  Zr  Zr1  1  0.54817128  0.25325257  0.20350619  1
  Zr  Zr2  1  0.74967220  0.84699263  0.59901568  1
  Zr  Zr3  1  0.24806785  0.84709130  0.09737019  1
  Zr  Zr4  1  0.04944237  0.25321987  0.70463246  1
  Zr  Zr5  1  0.95300368  0.65954382  0.20851316  1
  Si  Si0  1  0.24991902  0.25338207  0.50236795  1
  Si  Si1  1  0.75098294  0.25332118  0.00353070  1
  Si  Si2  1  0.33292690  0.58592256  0.25275368  1
  Si  Si3  1  0.66656340  0.92067968  0.25441967  1
  Si  Si4  1  0.16650518  0.92111162  0.75463747  1
  Si  Si5  1  0.83237537  0.58536189  0.75314860  1
  Tc  Tc0  1  0.50054821  0.50499708  0.00450055  1
  Tc  Tc1  1  0.99970774  0.50556732  0.50589614  1
  Tc  Tc2  1  0.12669436  0.25340768  0.12670281  1
  Tc  Tc3  1  0.87365236  0.00086980  0.12730783  1
  Tc  Tc4  1  0.37473270  0.00192668  0.62709480  1
  Ru  Ru0  1  0.62589740  0.25328739  0.62757869  1
loop_
_geom_bond_atom_site_label_1
_geom_bond_atom_site_label_2
_geom_bond_distance
_geom_bond_site_symmetry_2
Si0 Tc2 2.447442 1_555
Si0 Tc4 2.449651 1_555
Si0 Tc0 2.450446 1_556
Si0 Tc1 2.452010 1_455
Si0 Tc3 2.453076 1_455
Si0 Zr4 2.802278 1_555
Si0 Zr3 2.820261 1_545
Si0 Zr0 2.821372 1_555
Si1 Tc2 2.447884 1_655
Si1 Tc4 2.449909 1_554
Si1 Tc0 2.450316 1_555
Si1 Tc1 2.451878 1_555
Si1 Tc3 2.452619 1_555
Si1 Zr1 2.802281 1_555
Si1 Zr2 2.820592 1_544
Si1 Zr5 2.821220 1_555
Si2 Tc2 2.640803 1_555
Si2 Tc0 2.656760 1_555
Si2 Tc4 2.657203 1_565
Si2 Zr3 2.716824 1_555
Si2 Zr2 2.717402 1_555
Si2 Zr1 2.721109 1_555
Si2 Zr4 2.722030 1_554
Si2 Zr5 2.722636 1_455
Si2 Zr0 2.723462 1_555
Si3 Tc3 2.648634 1_565
Si3 Tc0 2.654563 1_555
Si3 Zr5 2.719182 1_555
Si3 Zr0 2.720186 1_554
Si3 Zr4 2.726342 1_665
Si3 Zr2 2.727693 1_555
Si3 Zr3 2.728429 1_555
Si3 Zr1 2.729007 1_565
Si4 Tc2 2.635720 1_566
Si4 Tc1 2.658080 1_455
Si4 Tc4 2.662196 1_565
Si4 Zr0 2.713027 1_555
Si4 Zr5 2.713156 1_455
Si4 Zr1 2.719824 1_566
Si4 Zr3 2.720637 1_556
Si4 Zr2 2.721357 1_455
Si4 Zr4 2.721478 1_565
Si5 Tc1 2.650561 1_555
Si5 Tc3 2.655723 1_566
Si5 Zr2 2.716204 1_555
Si5 Zr3 2.716386 1_656
Si5 Zr5 2.725247 1_556
Si5 Zr4 2.725476 1_655
Si5 Zr0 2.725561 1_555
Si5 Zr1 2.727392 1_555
Tc0 Zr2 2.945106 1_555
Tc0 Zr3 2.945361 1_555
Tc0 Zr1 2.988744 1_555
Tc0 Zr4 2.989993 1_554
Tc0 Zr5 2.991327 1_555
Tc0 Zr0 2.991919 1_554
Tc1 Zr2 2.930531 1_555
Tc1 Zr3 2.930656 1_656
Tc1 Zr4 2.986067 1_655
Tc1 Zr1 2.988214 1_555
Tc1 Zr5 2.992924 1_555
Tc1 Zr0 2.993684 1_655
Tc2 Zr1 2.940609 1_555
Tc2 Zr4 2.942633 1_554
Tc2 Zr5 3.007230 1_455
Tc2 Zr0 3.008019 1_555
Tc2 Zr3 3.008978 1_545
Tc2 Zr2 3.009513 1_444
Tc3 Zr0 2.937471 1_544
Tc3 Zr5 2.937885 1_545
Tc3 Zr4 2.986191 1_655
Tc3 Zr1 2.988648 1_555
Tc3 Zr2 2.991385 1_544
Tc3 Zr3 2.991461 1_645
Tc4 Zr0 2.939510 1_545
Tc4 Zr5 2.939837 1_445
Tc4 Zr1 2.987397 1_556
Tc4 Zr4 2.987756 1_555
Tc4 Zr3 2.990207 1_545
Tc4 Zr2 2.990438 1_545
Ru0 Si1 2.444441 1_556
Ru0 Si0 2.444547 1_555
Ru0 Si5 2.641071 1_555
Ru0 Si3 2.645252 1_545
Ru0 Zr4 2.955580 1_655
Ru0 Zr1 2.956935 1_555
Ru0 Zr2 3.013609 1_545
Ru0 Zr5 3.013761 1_556
Ru0 Zr3 3.013796 1_545
Ru0 Zr0 3.014826 1_555
Ru0 Tc4 3.026862 1_555
Ru0 Tc0 3.027374 1_556
