# generated using pymatgen
data_Sc3AlCu2O
_symmetry_space_group_name_H-M   'P 1'
_cell_length_a   8.37177819
_cell_length_b   8.37177847
_cell_length_c   8.37177816
_cell_angle_alpha   59.99999735
_cell_angle_beta   59.99999624
_cell_angle_gamma   60.00000085
_symmetry_Int_Tables_number   1
_chemical_formula_structural   Sc3AlCu2O
_chemical_formula_sum   'Sc12 Al4 Cu8 O4'
_cell_volume   414.89493853
_cell_formula_units_Z   4
loop_
 _symmetry_equiv_pos_site_id
 _symmetry_equiv_pos_as_xyz
  1  'x, y, z'
loop_
 _atom_site_type_symbol
 _atom_site_label
 _atom_site_symmetry_multiplicity
 _atom_site_fract_x
 _atom_site_fract_y
 _atom_site_fract_z
 _atom_site_occupancy
  Sc  Sc0  1  0.93921871  0.56078129  0.56078129  1
  Sc  Sc1  1  0.68921871  0.31078129  0.68921871  1
  Sc  Sc2  1  0.93921871  0.56078129  0.93921871  1
  Sc  Sc3  1  0.56078129  0.93921871  0.93921871  1
  Sc  Sc4  1  0.31078129  0.68921871  0.31078129  1
  Sc  Sc5  1  0.56078129  0.93921871  0.56078129  1
  Sc  Sc6  1  0.68921871  0.68921871  0.31078129  1
  Sc  Sc7  1  0.93921871  0.93921871  0.56078129  1
  Sc  Sc8  1  0.31078129  0.31078129  0.68921871  1
  Sc  Sc9  1  0.68921871  0.31078129  0.31078129  1
  Sc  Sc10  1  0.56078129  0.56078129  0.93921871  1
  Sc  Sc11  1  0.31078129  0.68921871  0.68921871  1
  Al  Al0  1  0.12500000  0.62500000  0.12500000  1
  Al  Al1  1  0.12500000  0.12500000  0.62500000  1
  Al  Al2  1  0.62500000  0.12500000  0.12500000  1
  Al  Al3  1  0.12500000  0.12500000  0.12500000  1
  Cu  Cu0  1  0.24253236  0.91915588  0.91915588  1
  Cu  Cu1  1  0.33084412  0.33084412  0.33084412  1
  Cu  Cu2  1  0.33084412  0.33084412  0.00746764  1
  Cu  Cu3  1  0.91915588  0.24253236  0.91915588  1
  Cu  Cu4  1  0.91915588  0.91915588  0.91915588  1
  Cu  Cu5  1  0.00746764  0.33084412  0.33084412  1
  Cu  Cu6  1  0.91915588  0.91915588  0.24253236  1
  Cu  Cu7  1  0.33084412  0.00746764  0.33084412  1
  O  O0  1  0.62500000  0.12500000  0.62500000  1
  O  O1  1  0.62500000  0.62500000  0.12500000  1
  O  O2  1  0.12500000  0.62500000  0.62500000  1
  O  O3  1  0.62500000  0.62500000  0.62500000  1
loop_
_geom_bond_atom_site_label_1
_geom_bond_atom_site_label_2
_geom_bond_distance
_geom_bond_site_symmetry_2
Al0 Cu0 2.546763 1_554
Al0 Cu5 2.546763 1_555
Al0 Cu1 2.546763 1_555
Al0 Cu4 2.546763 1_454
Al0 Cu6 2.546763 1_455
Al0 Cu2 2.546763 1_555
Al0 Sc0 3.036191 1_455
Al0 Sc11 3.036191 1_554
Al0 Sc10 3.036191 1_554
Al0 Sc6 3.036191 1_455
Al0 Sc4 3.036191 1_555
Al0 Sc2 3.036191 1_454
Al1 Cu1 2.546763 1_555
Al1 Cu4 2.546763 1_445
Al1 Cu3 2.546763 1_455
Al1 Cu7 2.546763 1_555
Al1 Cu0 2.546763 1_545
Al1 Cu5 2.546763 1_555
Al1 Sc5 3.036191 1_545
Al1 Sc1 3.036191 1_455
Al1 Sc8 3.036191 1_555
Al1 Sc7 3.036191 1_445
Al1 Sc0 3.036191 1_455
Al1 Sc11 3.036191 1_545
Al2 Cu3 2.546763 1_554
Al2 Cu7 2.546763 1_555
Al2 Cu1 2.546763 1_555
Al2 Cu4 2.546763 1_544
Al2 Cu6 2.546763 1_545
Al2 Cu2 2.546763 1_555
Al2 Sc5 3.036191 1_545
Al2 Sc1 3.036191 1_554
Al2 Sc10 3.036191 1_554
Al2 Sc6 3.036191 1_545
Al2 Sc9 3.036191 1_555
Al2 Sc3 3.036191 1_544
Al3 Cu2 2.546763 1_555
Al3 Cu6 2.546763 1_445
Al3 Cu7 2.546763 1_555
Al3 Cu3 2.546763 1_454
Al3 Cu5 2.546763 1_555
Al3 Cu0 2.546763 1_544
Al3 Sc7 3.036191 1_445
Al3 Sc8 3.036191 1_554
Al3 Sc3 3.036191 1_544
Al3 Sc9 3.036191 1_455
Al3 Sc2 3.036191 1_454
Al3 Sc4 3.036191 1_545
Cu0 Cu6 2.707236 1_456
Cu0 Cu4 2.707236 1_455
Cu0 Cu3 2.707236 1_465
Cu0 Sc5 2.842214 1_555
Cu0 Sc3 2.842214 1_555
Cu0 Sc10 2.842214 1_555
Cu0 Sc4 3.040296 1_556
Cu0 Sc8 3.040296 1_565
Cu0 Sc11 3.040296 1_555
Cu1 Cu2 2.707236 1_555
Cu1 Cu5 2.707236 1_555
Cu1 Cu7 2.707236 1_555
Cu1 Sc8 2.842214 1_555
Cu1 Sc9 2.842214 1_555
Cu1 Sc4 2.842214 1_555
Cu1 Sc10 3.040296 1_554
Cu1 Sc0 3.040296 1_455
Cu1 Sc5 3.040296 1_545
Cu2 Cu5 2.707236 1_555
Cu2 Cu7 2.707236 1_555
Cu2 Sc1 2.842214 1_554
Cu2 Sc11 2.842214 1_554
Cu2 Sc8 2.842214 1_554
Cu2 Sc10 3.040296 1_554
Cu2 Sc2 3.040296 1_454
Cu2 Sc3 3.040296 1_544
Cu3 Cu6 2.707236 1_546
Cu3 Cu4 2.707236 1_545
Cu3 Sc0 2.842214 1_555
Cu3 Sc10 2.842214 1_555
Cu3 Sc2 2.842214 1_555
Cu3 Sc8 3.040296 1_655
Cu3 Sc9 3.040296 1_556
Cu3 Sc1 3.040296 1_555
Cu4 Cu6 2.707236 1_556
Cu4 Sc7 2.842214 1_555
Cu4 Sc3 2.842214 1_555
Cu4 Sc2 2.842214 1_555
Cu4 Sc6 3.040296 1_556
Cu4 Sc11 3.040296 1_655
Cu4 Sc1 3.040296 1_565
Cu5 Cu7 2.707236 1_555
Cu5 Sc1 2.842214 1_455
Cu5 Sc9 2.842214 1_455
Cu5 Sc6 2.842214 1_455
Cu5 Sc2 3.040296 1_454
Cu5 Sc7 3.040296 1_445
Cu5 Sc0 3.040296 1_455
Cu6 Sc5 2.842214 1_555
Cu6 Sc0 2.842214 1_555
Cu6 Sc7 2.842214 1_555
Cu6 Sc6 3.040296 1_555
Cu6 Sc4 3.040296 1_655
Cu6 Sc9 3.040296 1_565
Cu7 Sc11 2.842214 1_545
Cu7 Sc6 2.842214 1_545
Cu7 Sc4 2.842214 1_545
Cu7 Sc7 3.040296 1_445
Cu7 Sc3 3.040296 1_544
Cu7 Sc5 3.040296 1_545
O0 Sc3 2.226768 1_545
O0 Sc9 2.226768 1_555
O0 Sc7 2.226768 1_545
O0 Sc8 2.226768 1_555
O0 Sc1 2.226769 1_555
O0 Sc5 2.226769 1_545
O1 Sc2 2.226768 1_554
O1 Sc4 2.226768 1_555
O1 Sc3 2.226768 1_554
O1 Sc9 2.226768 1_555
O1 Sc6 2.226768 1_555
O1 Sc10 2.226768 1_554
O2 Sc2 2.226768 1_455
O2 Sc4 2.226768 1_555
O2 Sc11 2.226768 1_555
O2 Sc0 2.226768 1_455
O2 Sc7 2.226769 1_455
O2 Sc8 2.226769 1_555
O3 Sc10 2.226768 1_555
O3 Sc6 2.226768 1_555
O3 Sc0 2.226768 1_555
O3 Sc11 2.226768 1_555
O3 Sc5 2.226769 1_555
O3 Sc1 2.226769 1_555
