# generated using pymatgen
data_Li3V4O8
_symmetry_space_group_name_H-M   'P 1'
_cell_length_a   6.10810618
_cell_length_b   6.10810618
_cell_length_c   6.10810587
_cell_angle_alpha   57.97042368
_cell_angle_beta   57.97042368
_cell_angle_gamma   57.97043035
_symmetry_Int_Tables_number   1
_chemical_formula_structural   Li3V4O8
_chemical_formula_sum   'Li3 V4 O8'
_cell_volume   153.63723383
_cell_formula_units_Z   1
loop_
 _symmetry_equiv_pos_site_id
 _symmetry_equiv_pos_as_xyz
  1  'x, y, z'
loop_
 _atom_site_type_symbol
 _atom_site_label
 _atom_site_symmetry_multiplicity
 _atom_site_fract_x
 _atom_site_fract_y
 _atom_site_fract_z
 _atom_site_occupancy
  Li  Li0  1  0.64539700  0.64539700  0.64539700  1
  Li  Li1  1  0.50000000  0.50000000  0.50000000  1
  Li  Li2  1  0.35460300  0.35460300  0.35460300  1
  V  V0  1  0.50000000  0.00000000  0.00000000  1
  V  V1  1  0.00000000  0.00000000  0.50000000  1
  V  V2  1  0.00000000  0.50000000  0.00000000  1
  V  V3  1  0.00000000  0.00000000  0.00000000  1
  O  O0  1  0.75375800  0.75375800  0.22579100  1
  O  O1  1  0.75375800  0.22579100  0.75375800  1
  O  O2  1  0.22579100  0.75375800  0.75375800  1
  O  O3  1  0.76640200  0.76640200  0.76640200  1
  O  O4  1  0.23359800  0.23359800  0.23359800  1
  O  O5  1  0.24624200  0.77420900  0.24624200  1
  O  O6  1  0.77420900  0.24624200  0.24624200  1
  O  O7  1  0.24624200  0.24624200  0.77420900  1
loop_
_geom_bond_atom_site_label_1
_geom_bond_atom_site_label_2
_geom_bond_distance
_geom_bond_site_symmetry_2
Li0 O3 1.837720 1_555
Li0 O0 2.076301 1_555
Li0 O2 2.076301 1_555
Li0 O1 2.076301 1_555
Li1 O0 2.156644 1_555
Li1 O7 2.156644 1_555
Li1 O1 2.156644 1_555
Li1 O2 2.156644 1_555
Li1 O6 2.156644 1_555
Li1 O5 2.156644 1_555
Li2 O4 1.837720 1_555
Li2 O7 2.076301 1_555
Li2 O5 2.076301 1_555
Li2 O6 2.076301 1_555
O0 V0 2.039872 1_565
O0 V2 2.039872 1_655
O0 V3 2.103696 1_665
O1 V0 2.039872 1_556
O1 V1 2.039872 1_655
O1 V3 2.103696 1_656
O2 V2 2.039872 1_556
O2 V1 2.039872 1_565
O2 V3 2.103696 1_566
O3 V1 1.988361 1_665
O3 V0 1.988361 1_566
O3 V2 1.988361 1_656
O4 V1 1.988361 1_555
O4 V0 1.988361 1_555
O4 V2 1.988361 1_555
O5 V0 2.039872 1_565
O5 V1 2.039872 1_565
O5 V3 2.103696 1_565
O6 V2 2.039872 1_655
O6 V1 2.039872 1_655
O6 V3 2.103696 1_655
O7 V0 2.039872 1_556
O7 V2 2.039872 1_556
O7 V3 2.103696 1_556
