# generated using pymatgen
data_CaMn3HgO8
_symmetry_space_group_name_H-M   'P 1'
_cell_length_a   6.26536500
_cell_length_b   6.26536493
_cell_length_c   4.95019446
_cell_angle_alpha   73.31029747
_cell_angle_beta   73.31029960
_cell_angle_gamma   55.34302027
_symmetry_Int_Tables_number   1
_chemical_formula_structural   CaMn3HgO8
_chemical_formula_sum   'Ca1 Mn3 Hg1 O8'
_cell_volume   151.20361997
_cell_formula_units_Z   1
loop_
 _symmetry_equiv_pos_site_id
 _symmetry_equiv_pos_as_xyz
  1  'x, y, z'
loop_
 _atom_site_type_symbol
 _atom_site_label
 _atom_site_symmetry_multiplicity
 _atom_site_fract_x
 _atom_site_fract_y
 _atom_site_fract_z
 _atom_site_occupancy
  Ca  Ca0  1  0.27422132  0.27422132  0.66725490  1
  Mn  Mn0  1  0.00004201  0.00004201  0.49787989  1
  Mn  Mn1  1  0.74119232  0.25830646  0.00093026  1
  Mn  Mn2  1  0.25830646  0.74119232  0.00093026  1
  Hg  Hg0  1  0.72133269  0.72133269  0.33684128  1
  O  O0  1  0.39998552  0.39998552  0.95206390  1
  O  O1  1  0.60224411  0.60224411  0.04210304  1
  O  O2  1  0.90585121  0.90585121  0.89903713  1
  O  O3  1  0.09573087  0.09573087  0.09991836  1
  O  O4  1  0.31937053  0.87845757  0.61329993  1
  O  O5  1  0.87845757  0.31937053  0.61329993  1
  O  O6  1  0.12586903  0.67739536  0.38822006  1
  O  O7  1  0.67739536  0.12586903  0.38822006  1
loop_
_geom_bond_atom_site_label_1
_geom_bond_atom_site_label_2
_geom_bond_distance
_geom_bond_site_symmetry_2
Ca0 O0 2.282929 1_555
Ca0 O6 2.283794 1_555
Ca0 O7 2.283794 1_555
Ca0 O3 2.399855 1_556
Ca0 O4 2.416412 1_545
Ca0 O5 2.416412 1_455
Mn0 O7 1.890666 1_455
Mn0 O6 1.890666 1_545
Mn0 O4 1.892825 1_545
Mn0 O5 1.892825 1_455
Mn0 O3 1.910957 1_555
Mn0 O2 1.920890 1_445
Mn1 O0 1.852579 1_554
Mn1 O1 1.860042 1_555
Mn1 O7 1.883383 1_555
Mn1 O5 1.890149 1_554
Mn1 O2 1.986204 1_544
Mn1 O3 1.994255 1_655
Mn2 O0 1.852579 1_554
Mn2 O1 1.860042 1_555
Mn2 O6 1.883383 1_555
Mn2 O4 1.890149 1_554
Mn2 O2 1.986204 1_454
Mn2 O3 1.994255 1_565
Hg0 O1 2.264037 1_555
Hg0 O5 2.271345 1_555
Hg0 O4 2.271345 1_555
Hg0 O2 2.451883 1_554
Hg0 O7 2.470022 1_565
Hg0 O6 2.470022 1_655
