# generated using pymatgen
data_Y8Zn4In3Ru
_symmetry_space_group_name_H-M   'P 1'
_cell_length_a   7.28657954
_cell_length_b   7.17565546
_cell_length_c   7.28659638
_cell_angle_alpha   90.00000000
_cell_angle_beta   89.99103954
_cell_angle_gamma   90.00000000
_symmetry_Int_Tables_number   1
_chemical_formula_structural   Y8Zn4In3Ru
_chemical_formula_sum   'Y8 Zn4 In3 Ru1'
_cell_volume   380.98685921
_cell_formula_units_Z   1
loop_
 _symmetry_equiv_pos_site_id
 _symmetry_equiv_pos_as_xyz
  1  'x, y, z'
loop_
 _atom_site_type_symbol
 _atom_site_label
 _atom_site_symmetry_multiplicity
 _atom_site_fract_x
 _atom_site_fract_y
 _atom_site_fract_z
 _atom_site_occupancy
  Y  Y0  1  0.75938827  0.48959381  0.25944237  1
  Y  Y1  1  0.75938827  0.01040619  0.25944237  1
  Y  Y2  1  0.24035615  0.01080461  0.25960468  1
  Y  Y3  1  0.24035615  0.48919439  0.25960468  1
  Y  Y4  1  0.75964009  0.48946111  0.74033991  1
  Y  Y5  1  0.75964009  0.01053889  0.74033991  1
  Y  Y6  1  0.24058544  0.01061108  0.74061280  1
  Y  Y7  1  0.24058544  0.48938892  0.74061280  1
  Zn  Zn0  1  0.99978632  0.25000000  0.99999113  1
  Zn  Zn1  1  0.00018584  0.75000100  0.00001220  1
  Zn  Zn2  1  0.50018351  0.25000000  0.50001163  1
  Zn  Zn3  1  0.49980575  0.75000100  0.49999860  1
  In  In0  1  0.50018612  0.25000000  0.99996210  1
  In  In1  1  0.49981612  0.75000100  0.00004644  1
  In  In2  1  0.00022846  0.75000100  0.49996249  1
  Ru  Ru0  1  0.99986697  0.25000000  0.50001090  1
loop_
_geom_bond_atom_site_label_1
_geom_bond_atom_site_label_2
_geom_bond_distance
_geom_bond_site_symmetry_2
Y0 Zn2 3.097543 1_555
Y0 Zn0 3.097934 1_554
Y0 Zn3 3.184445 1_555
Y0 Zn1 3.184754 1_655
Y1 Zn2 3.097543 1_555
Y1 Zn0 3.097934 1_554
Y1 Zn3 3.184436 1_545
Y1 Zn1 3.184746 1_645
Y2 Zn0 3.098113 1_454
Y2 Zn2 3.098393 1_555
Y2 Zn1 3.184937 1_545
Y2 Zn3 3.185215 1_545
Y3 Zn0 3.098109 1_454
Y3 Zn2 3.098389 1_555
Y3 Zn1 3.184950 1_555
Y3 Zn3 3.185227 1_555
Y4 Zn2 3.097476 1_555
Y4 Zn0 3.097592 1_555
Y4 Zn3 3.185558 1_555
Y4 Zn1 3.185676 1_656
Y5 Zn2 3.097476 1_555
Y5 Zn0 3.097592 1_555
Y5 Zn3 3.185549 1_545
Y5 Zn1 3.185668 1_646
Y6 Zn0 3.098447 1_455
Y6 Zn2 3.098608 1_555
Y6 Zn1 3.183880 1_546
Y6 Zn3 3.183966 1_545
Y7 Zn0 3.098447 1_455
Y7 Zn2 3.098608 1_555
Y7 Zn1 3.183888 1_556
Y7 Zn3 3.183974 1_555
In0 Y1 3.177883 1_556
In0 Y0 3.177883 1_556
In0 Y7 3.178248 1_555
In0 Y6 3.178248 1_555
In0 Y4 3.178723 1_555
In0 Y5 3.178723 1_555
In0 Y3 3.179408 1_556
In0 Y2 3.179411 1_556
In1 Y6 3.261859 1_564
In1 Y7 3.261868 1_554
In1 Y1 3.262300 1_565
In1 Y0 3.262308 1_555
In1 Y2 3.263807 1_565
In1 Y3 3.263819 1_555
In1 Y5 3.264877 1_564
In1 Y4 3.264886 1_554
In2 Y2 3.103251 1_565
In2 Y3 3.103264 1_555
In2 Y5 3.104077 1_465
In2 Y4 3.104085 1_455
In2 Y6 3.104869 1_565
In2 Y7 3.104878 1_555
In2 Y1 3.105436 1_465
In2 Y0 3.105445 1_455
Ru0 Y4 3.013670 1_555
Ru0 Y5 3.013670 1_555
Ru0 Y3 3.014017 1_655
Ru0 Y2 3.014021 1_655
Ru0 Y1 3.016612 1_555
Ru0 Y0 3.016612 1_555
Ru0 Y7 3.016931 1_655
Ru0 Y6 3.016931 1_655
