# generated using pymatgen
data_Ba6Fe2PdO12
_symmetry_space_group_name_H-M   'P 1'
_cell_length_a   9.02414238
_cell_length_b   9.02414244
_cell_length_c   7.17474111
_cell_angle_alpha   67.83210247
_cell_angle_beta   67.83210187
_cell_angle_gamma   36.87112738
_symmetry_Int_Tables_number   1
_chemical_formula_structural   Ba6Fe2PdO12
_chemical_formula_sum   'Ba6 Fe2 Pd1 O12'
_cell_volume   321.65350803
_cell_formula_units_Z   1
loop_
 _symmetry_equiv_pos_site_id
 _symmetry_equiv_pos_as_xyz
  1  'x, y, z'
loop_
 _atom_site_type_symbol
 _atom_site_label
 _atom_site_symmetry_multiplicity
 _atom_site_fract_x
 _atom_site_fract_y
 _atom_site_fract_z
 _atom_site_occupancy
  Ba  Ba0  1  0.88199853  0.88199853  0.71592467  1
  Ba  Ba1  1  0.21290004  0.21290004  0.71533468  1
  Ba  Ba2  1  0.54713020  0.54713020  0.71679734  1
  Ba  Ba3  1  0.45286980  0.45286980  0.28320266  1
  Ba  Ba4  1  0.78709996  0.78709996  0.28466532  1
  Ba  Ba5  1  0.11800147  0.11800147  0.28407533  1
  Fe  Fe0  1  0.66860787  0.66860787  0.99991152  1
  Fe  Fe1  1  0.33139213  0.33139213  0.00008848  1
  Pd  Pd0  1  0.00000000  0.00000000  0.00000000  1
  O  O0  1  0.94734701  0.94734701  0.31295570  1
  O  O1  1  0.28398568  0.28398568  0.28580000  1
  O  O2  1  0.62107638  0.62107638  0.28483199  1
  O  O3  1  0.37892362  0.37892362  0.71516801  1
  O  O4  1  0.71601432  0.71601432  0.71420000  1
  O  O5  1  0.05265299  0.05265299  0.68704430  1
  O  O6  1  0.50000000  0.00000000  0.00000000  1
  O  O7  1  0.83106648  0.33902735  0.99878757  1
  O  O8  1  0.16893352  0.66097265  0.00121243  1
  O  O9  1  0.00000000  0.50000000  0.00000000  1
  O  O10  1  0.33902735  0.83106648  0.99878757  1
  O  O11  1  0.66097265  0.16893352  0.00121243  1
loop_
_geom_bond_atom_site_label_1
_geom_bond_atom_site_label_2
_geom_bond_distance
_geom_bond_site_symmetry_2
Ba0 O0 2.652858 1_555
Ba0 O11 2.743741 1_566
Ba0 O8 2.743741 1_656
Ba0 O6 2.762943 1_566
Ba0 O9 2.762943 1_656
Ba0 O5 2.845897 1_665
Ba0 O4 2.846933 1_555
Ba0 O3 2.854307 1_565
Ba0 O3 2.854307 1_655
Ba1 O7 2.736435 1_455
Ba1 O10 2.736435 1_545
Ba1 O9 2.764589 1_556
Ba1 O6 2.764589 1_556
Ba1 O1 2.827568 1_555
Ba1 O5 2.830620 1_555
Ba1 O3 2.842188 1_555
Ba1 O4 2.854226 1_545
Ba1 O4 2.854226 1_455
Ba2 O10 2.744335 1_555
Ba2 O7 2.744335 1_555
Ba2 O8 2.753900 1_556
Ba2 O11 2.753900 1_556
Ba2 O2 2.843752 1_555
Ba2 O5 2.860506 1_655
Ba2 O5 2.860506 1_565
Ba2 O4 2.884280 1_555
Ba2 O3 2.884710 1_555
Ba3 O11 2.744335 1_555
Ba3 O8 2.744335 1_555
Ba3 O7 2.753900 1_554
Ba3 O10 2.753900 1_554
Ba3 O3 2.843752 1_555
Ba3 O0 2.860506 1_455
Ba3 O0 2.860506 1_545
Ba3 O1 2.884280 1_555
Ba3 O2 2.884710 1_555
Ba4 O8 2.736435 1_655
Ba4 O11 2.736435 1_565
Ba4 O9 2.764589 1_655
Ba4 O6 2.764589 1_565
Ba4 O4 2.827568 1_555
Ba4 O0 2.830620 1_555
Ba4 O2 2.842188 1_555
Ba4 O1 2.854226 1_565
Ba4 O1 2.854226 1_655
Ba5 O5 2.652858 1_555
Ba5 O10 2.743741 1_544
Ba5 O7 2.743741 1_454
Ba5 O6 2.762943 1_555
Ba5 O9 2.762943 1_555
Ba5 O0 2.845897 1_445
Ba5 O1 2.846933 1_555
Ba5 O2 2.854307 1_545
Ba5 O2 2.854307 1_455
Fe0 O2 1.875584 1_556
Fe0 O4 1.880794 1_555
Fe0 O9 1.994702 1_656
Fe0 O6 1.994702 1_566
Fe0 O10 2.006972 1_555
Fe0 O7 2.006972 1_555
Fe1 O3 1.875584 1_554
Fe1 O1 1.880794 1_555
Fe1 O9 1.994702 1_555
Fe1 O6 1.994702 1_555
Fe1 O11 2.006972 1_555
Fe1 O8 2.006972 1_555
O0 Pd0 2.060152 1_665
O5 Pd0 2.060152 1_556
O7 Pd0 2.052270 1_656
O8 Pd0 2.052270 1_565
O10 Pd0 2.052270 1_566
O11 Pd0 2.052270 1_655
