# generated using pymatgen
data_Zr8CoBi4Os
_symmetry_space_group_name_H-M   'P 1'
_cell_length_a   8.32630758
_cell_length_b   8.32630712
_cell_length_c   8.32630739
_cell_angle_alpha   95.88320692
_cell_angle_beta   95.88320279
_cell_angle_gamma   142.65508151
_symmetry_Int_Tables_number   1
_chemical_formula_structural   Zr8CoBi4Os
_chemical_formula_sum   'Zr8 Co1 Bi4 Os1'
_cell_volume   331.73033906
_cell_formula_units_Z   1
loop_
 _symmetry_equiv_pos_site_id
 _symmetry_equiv_pos_as_xyz
  1  'x, y, z'
loop_
 _atom_site_type_symbol
 _atom_site_label
 _atom_site_symmetry_multiplicity
 _atom_site_fract_x
 _atom_site_fract_y
 _atom_site_fract_z
 _atom_site_occupancy
  Zr  Zr0  1  0.70138007  0.58565697  0.28189544  1
  Zr  Zr1  1  0.58565697  0.30376153  0.88427790  1
  Zr  Zr2  1  0.08051437  0.19623847  0.28189544  1
  Zr  Zr3  1  0.91434303  0.79861993  0.71810456  1
  Zr  Zr4  1  0.19623847  0.91434303  0.11572210  1
  Zr  Zr5  1  0.79861993  0.08051437  0.88427790  1
  Zr  Zr6  1  0.30376153  0.41948563  0.71810456  1
  Zr  Zr7  1  0.41948563  0.70138007  0.11572210  1
  Co  Co0  1  0.75000000  0.75000000  0.00000000  1
  Bi  Bi0  1  0.14018171  0.64018171  0.78036342  1
  Bi  Bi1  1  0.35981829  0.14018171  0.50000000  1
  Bi  Bi2  1  0.64018171  0.85981829  0.50000000  1
  Bi  Bi3  1  0.85981829  0.35981829  0.21963658  1
  Os  Os0  1  0.25000000  0.25000000  0.00000000  1
loop_
_geom_bond_atom_site_label_1
_geom_bond_atom_site_label_2
_geom_bond_distance
_geom_bond_site_symmetry_2
Zr0 Zr2 3.208390 1_665
Zr0 Zr4 3.224442 1_655
Zr0 Zr2 3.253628 1_555
Zr0 Zr4 3.269448 1_545
Zr0 Zr1 3.399308 1_554
Zr0 Zr7 3.399311 1_555
Zr0 Zr3 3.440947 1_555
Zr1 Zr4 3.208383 1_656
Zr1 Zr3 3.224442 1_555
Zr1 Zr4 3.253608 1_546
Zr1 Zr3 3.269448 1_445
Zr1 Zr6 3.399326 1_555
Zr1 Zr5 3.440955 1_555
Zr2 Zr7 3.224426 1_445
Zr2 Zr7 3.269450 1_555
Zr2 Zr5 3.399302 1_454
Zr2 Zr4 3.399326 1_545
Zr2 Zr6 3.440947 1_555
Zr3 Zr6 3.208391 1_555
Zr3 Zr6 3.253627 1_665
Zr3 Zr4 3.399308 1_656
Zr3 Zr5 3.399311 1_565
Zr4 Zr7 3.440955 1_555
Zr5 Zr7 3.208371 1_546
Zr5 Zr6 3.224426 1_545
Zr5 Zr7 3.253621 1_656
Zr5 Zr6 3.269450 1_655
Zr6 Zr7 3.399302 1_556
Co0 Os0 2.665731 1_665
Co0 Os0 2.665731 1_555
Co0 Zr5 2.741859 1_564
Co0 Zr7 2.741859 1_555
Co0 Zr1 2.741869 1_554
Co0 Zr4 2.741869 1_655
Co0 Zr3 2.741871 1_554
Co0 Zr0 2.741871 1_555
Co0 Zr2 2.741872 1_665
Co0 Zr6 2.741872 1_554
Bi0 Zr6 3.070742 1_555
Bi0 Zr3 3.070750 1_455
Bi0 Zr4 3.155594 1_556
Bi0 Zr7 3.155598 1_556
Bi0 Zr5 3.265724 1_565
Bi0 Zr1 3.265727 1_455
Bi0 Zr1 3.288022 1_565
Bi0 Zr5 3.288033 1_455
Bi1 Zr4 3.070757 1_545
Bi1 Zr1 3.070758 1_555
Bi1 Zr6 3.155607 1_555
Bi1 Zr2 3.155607 1_555
Bi1 Zr3 3.265722 1_555
Bi1 Zr0 3.265722 1_445
Bi1 Zr0 3.288022 1_555
Bi1 Zr3 3.288022 1_445
Bi2 Zr5 3.070756 1_565
Bi2 Zr7 3.070756 1_555
Bi2 Zr0 3.155600 1_555
Bi2 Zr3 3.155600 1_555
Bi2 Zr6 3.265718 1_555
Bi2 Zr2 3.265718 1_665
Bi2 Zr2 3.288022 1_555
Bi2 Zr6 3.288022 1_665
Bi3 Zr2 3.070742 1_655
Bi3 Zr0 3.070750 1_555
Bi3 Zr1 3.155594 1_554
Bi3 Zr5 3.155598 1_554
Bi3 Zr7 3.265724 1_545
Bi3 Zr4 3.265727 1_655
Bi3 Zr4 3.288022 1_545
Bi3 Zr7 3.288033 1_655
Os0 Zr7 2.755157 1_555
Os0 Zr5 2.755158 1_454
Os0 Zr4 2.755160 1_545
Os0 Zr1 2.755160 1_554
Os0 Zr3 2.755164 1_444
Os0 Zr0 2.755164 1_555
Os0 Zr2 2.755168 1_555
Os0 Zr6 2.755168 1_554
