# generated using pymatgen
data_Zr3Al2PdN
_symmetry_space_group_name_H-M   'P 1'
_cell_length_a   8.60783084
_cell_length_b   8.60783168
_cell_length_c   8.60783058
_cell_angle_alpha   59.99999665
_cell_angle_beta   59.99999341
_cell_angle_gamma   59.99999666
_symmetry_Int_Tables_number   1
_chemical_formula_structural   Zr3Al2PdN
_chemical_formula_sum   'Zr12 Al8 Pd4 N4'
_cell_volume   450.98921800
_cell_formula_units_Z   4
loop_
 _symmetry_equiv_pos_site_id
 _symmetry_equiv_pos_as_xyz
  1  'x, y, z'
loop_
 _atom_site_type_symbol
 _atom_site_label
 _atom_site_symmetry_multiplicity
 _atom_site_fract_x
 _atom_site_fract_y
 _atom_site_fract_z
 _atom_site_occupancy
  Zr  Zr0  1  0.81243723  0.18756277  0.18756277  1
  Zr  Zr1  1  0.18756277  0.81243723  0.18756277  1
  Zr  Zr2  1  0.81243723  0.81243723  0.18756277  1
  Zr  Zr3  1  0.18756277  0.81243723  0.81243723  1
  Zr  Zr4  1  0.81243723  0.18756277  0.81243723  1
  Zr  Zr5  1  0.18756277  0.18756277  0.81243723  1
  Zr  Zr6  1  0.43756277  0.06243723  0.06243723  1
  Zr  Zr7  1  0.06243723  0.43756277  0.06243723  1
  Zr  Zr8  1  0.43756277  0.43756277  0.06243723  1
  Zr  Zr9  1  0.06243723  0.43756277  0.43756277  1
  Zr  Zr10  1  0.43756277  0.06243723  0.43756277  1
  Zr  Zr11  1  0.06243723  0.06243723  0.43756277  1
  Al  Al0  1  0.41968991  0.41968991  0.74093028  1
  Al  Al1  1  0.41968991  0.41968991  0.41968991  1
  Al  Al2  1  0.74093028  0.41968991  0.41968991  1
  Al  Al3  1  0.41968991  0.74093028  0.41968991  1
  Al  Al4  1  0.83031009  0.83031009  0.50906972  1
  Al  Al5  1  0.83031009  0.83031009  0.83031009  1
  Al  Al6  1  0.50906972  0.83031009  0.83031009  1
  Al  Al7  1  0.83031009  0.50906972  0.83031009  1
  Pd  Pd0  1  0.62500000  0.62500000  0.12500000  1
  Pd  Pd1  1  0.62500000  0.62500000  0.62500000  1
  Pd  Pd2  1  0.12500000  0.62500000  0.62500000  1
  Pd  Pd3  1  0.62500000  0.12500000  0.62500000  1
  N  N0  1  0.12500000  0.12500000  0.62500000  1
  N  N1  1  0.12500000  0.12500000  0.12500000  1
  N  N2  1  0.62500000  0.12500000  0.12500000  1
  N  N3  1  0.12500000  0.62500000  0.12500000  1
loop_
_geom_bond_atom_site_label_1
_geom_bond_atom_site_label_2
_geom_bond_distance
_geom_bond_site_symmetry_2
Al0 Pd2 2.615042 1_555
Al0 Pd3 2.615042 1_555
Al0 Pd1 2.615042 1_555
Al0 Al2 2.765182 1_555
Al0 Al1 2.765183 1_555
Al0 Al3 2.765183 1_555
Al0 Zr7 2.929415 1_556
Al0 Zr8 2.929415 1_556
Al0 Zr6 2.929415 1_556
Al0 Zr4 3.145863 1_555
Al0 Zr3 3.145863 1_555
Al0 Zr5 3.145863 1_555
Al1 Pd2 2.615042 1_555
Al1 Pd0 2.615042 1_555
Al1 Pd3 2.615042 1_555
Al1 Al2 2.765183 1_555
Al1 Al3 2.765183 1_555
Al1 Zr8 2.929415 1_555
Al1 Zr9 2.929415 1_555
Al1 Zr10 2.929415 1_555
Al1 Zr5 3.145863 1_555
Al1 Zr0 3.145863 1_555
Al1 Zr1 3.145863 1_555
Al2 Pd0 2.615042 1_555
Al2 Pd1 2.615042 1_555
Al2 Pd3 2.615042 1_555
Al2 Al3 2.765183 1_555
Al2 Zr7 2.929415 1_655
Al2 Zr11 2.929415 1_655
Al2 Zr9 2.929415 1_655
Al2 Zr4 3.145863 1_555
Al2 Zr0 3.145863 1_555
Al2 Zr2 3.145863 1_555
Al3 Pd0 2.615042 1_555
Al3 Pd2 2.615042 1_555
Al3 Pd1 2.615042 1_555
Al3 Zr6 2.929415 1_565
Al3 Zr11 2.929415 1_565
Al3 Zr10 2.929415 1_565
Al3 Zr3 3.145863 1_555
Al3 Zr2 3.145863 1_555
Al3 Zr1 3.145863 1_555
Al4 Pd2 2.615042 1_655
Al4 Pd3 2.615042 1_565
Al4 Pd1 2.615042 1_555
Al4 Al6 2.765182 1_555
Al4 Al5 2.765183 1_555
Al4 Al7 2.765183 1_555
Al4 Zr1 2.929415 1_655
Al4 Zr2 2.929415 1_555
Al4 Zr0 2.929415 1_565
Al4 Zr10 3.145863 1_565
Al4 Zr9 3.145863 1_655
Al4 Zr11 3.145863 1_665
Al5 Pd2 2.615042 1_655
Al5 Pd0 2.615042 1_556
Al5 Pd3 2.615042 1_565
Al5 Al6 2.765183 1_555
Al5 Al7 2.765183 1_555
Al5 Zr2 2.929415 1_556
Al5 Zr3 2.929415 1_655
Al5 Zr4 2.929415 1_565
Al5 Zr11 3.145863 1_665
Al5 Zr6 3.145863 1_566
Al5 Zr7 3.145863 1_656
Al6 Pd0 2.615042 1_556
Al6 Pd1 2.615042 1_555
Al6 Pd3 2.615042 1_565
Al6 Al7 2.765183 1_555
Al6 Zr1 2.929415 1_556
Al6 Zr5 2.929415 1_565
Al6 Zr3 2.929415 1_555
Al6 Zr10 3.145863 1_565
Al6 Zr6 3.145863 1_566
Al6 Zr8 3.145863 1_556
Al7 Pd0 2.615042 1_556
Al7 Pd2 2.615042 1_655
Al7 Pd1 2.615042 1_555
Al7 Zr0 2.929415 1_556
Al7 Zr5 2.929415 1_655
Al7 Zr4 2.929415 1_555
Al7 Zr9 3.145863 1_655
Al7 Zr8 3.145863 1_556
Al7 Zr7 3.145863 1_656
Pd0 Zr7 3.136434 1_655
Pd0 Zr1 3.136434 1_555
Pd0 Zr8 3.136435 1_555
Pd0 Zr2 3.136435 1_555
Pd0 Zr6 3.136435 1_565
Pd0 Zr0 3.136435 1_555
Pd1 Zr8 3.136434 1_556
Pd1 Zr2 3.136434 1_555
Pd1 Zr9 3.136434 1_655
Pd1 Zr3 3.136434 1_555
Pd1 Zr10 3.136435 1_565
Pd1 Zr4 3.136435 1_555
Pd2 Zr7 3.136434 1_556
Pd2 Zr1 3.136434 1_555
Pd2 Zr3 3.136435 1_555
Pd2 Zr9 3.136435 1_555
Pd2 Zr11 3.136435 1_565
Pd2 Zr5 3.136435 1_555
Pd3 Zr6 3.136434 1_556
Pd3 Zr0 3.136434 1_555
Pd3 Zr11 3.136434 1_655
Pd3 Zr5 3.136434 1_555
Pd3 Zr4 3.136435 1_555
Pd3 Zr10 3.136435 1_555
N0 Zr10 2.282750 1_555
N0 Zr4 2.282750 1_455
N0 Zr5 2.282751 1_555
N0 Zr11 2.282751 1_555
N0 Zr3 2.282751 1_545
N0 Zr9 2.282751 1_555
N1 Zr11 2.282750 1_555
N1 Zr5 2.282750 1_554
N1 Zr6 2.282751 1_555
N1 Zr0 2.282751 1_455
N1 Zr7 2.282751 1_555
N1 Zr1 2.282751 1_545
N2 Zr10 2.282750 1_555
N2 Zr4 2.282750 1_554
N2 Zr0 2.282751 1_555
N2 Zr6 2.282751 1_555
N2 Zr8 2.282751 1_555
N2 Zr2 2.282751 1_545
N3 Zr9 2.282751 1_555
N3 Zr3 2.282751 1_554
N3 Zr2 2.282751 1_455
N3 Zr8 2.282751 1_555
N3 Zr1 2.282751 1_555
N3 Zr7 2.282751 1_555
