# generated using pymatgen
data_Hg4IrRu3O14
_symmetry_space_group_name_H-M   'P 1'
_cell_length_a   7.22805828
_cell_length_b   7.22805792
_cell_length_c   7.22805783
_cell_angle_alpha   60.38344046
_cell_angle_beta   60.38343700
_cell_angle_gamma   60.38345363
_symmetry_Int_Tables_number   1
_chemical_formula_structural   Hg4IrRu3O14
_chemical_formula_sum   'Hg4 Ir1 Ru3 O14'
_cell_volume   269.33947530
_cell_formula_units_Z   1
loop_
 _symmetry_equiv_pos_site_id
 _symmetry_equiv_pos_as_xyz
  1  'x, y, z'
loop_
 _atom_site_type_symbol
 _atom_site_label
 _atom_site_symmetry_multiplicity
 _atom_site_fract_x
 _atom_site_fract_y
 _atom_site_fract_z
 _atom_site_occupancy
  Hg  Hg0  1  0.12500000  0.12500000  0.12500000  1
  Hg  Hg1  1  0.62500000  0.12500000  0.12500000  1
  Hg  Hg2  1  0.12500000  0.62500000  0.12500000  1
  Hg  Hg3  1  0.12500000  0.12500000  0.62500000  1
  Ir  Ir0  1  0.62500000  0.62500000  0.62500000  1
  Ru  Ru0  1  0.62500000  0.62500000  0.12500000  1
  Ru  Ru1  1  0.62500000  0.12500000  0.62500000  1
  Ru  Ru2  1  0.12500000  0.62500000  0.62500000  1
  O  O0  1  0.68956796  0.30731084  0.30731084  1
  O  O1  1  0.69410873  0.30497542  0.69410873  1
  O  O2  1  0.00082951  0.00082951  0.00082951  1
  O  O3  1  0.30731084  0.68956796  0.30731084  1
  O  O4  1  0.69410873  0.69410873  0.30497542  1
  O  O5  1  0.94502458  0.55589127  0.55589127  1
  O  O6  1  0.30497542  0.69410873  0.69410873  1
  O  O7  1  0.24917049  0.24917049  0.24917049  1
  O  O8  1  0.94268916  0.56043204  0.94268916  1
  O  O9  1  0.55589127  0.94502458  0.55589127  1
  O  O10  1  0.55589127  0.55589127  0.94502458  1
  O  O11  1  0.94268916  0.94268916  0.56043204  1
  O  O12  1  0.56043204  0.94268916  0.94268916  1
  O  O13  1  0.30731084  0.30731084  0.68956796  1
loop_
_geom_bond_atom_site_label_1
_geom_bond_atom_site_label_2
_geom_bond_distance
_geom_bond_site_symmetry_2
Hg0 O7 2.192053 1_555
Hg0 O2 2.192053 1_555
Hg0 O11 2.626110 1_445
Hg0 O13 2.626110 1_554
Hg0 O12 2.626111 1_544
Hg0 O0 2.626111 1_455
Hg0 O8 2.626111 1_454
Hg0 O3 2.626111 1_545
Hg1 O2 2.228702 1_655
Hg1 O7 2.228702 1_555
Hg1 O0 2.573475 1_555
Hg1 O12 2.573475 1_544
Hg1 O9 2.596535 1_545
Hg1 O1 2.596535 1_554
Hg1 O10 2.596535 1_554
Hg1 O4 2.596535 1_545
Hg2 O2 2.228702 1_565
Hg2 O7 2.228702 1_555
Hg2 O3 2.573475 1_555
Hg2 O8 2.573475 1_454
Hg2 O5 2.596535 1_455
Hg2 O6 2.596535 1_554
Hg2 O10 2.596535 1_554
Hg2 O4 2.596535 1_455
Hg3 O2 2.228702 1_556
Hg3 O7 2.228702 1_555
Hg3 O13 2.573475 1_555
Hg3 O11 2.573475 1_445
Hg3 O5 2.596535 1_455
Hg3 O6 2.596535 1_545
Hg3 O9 2.596535 1_545
Hg3 O1 2.596535 1_455
Ir0 O10 1.952499 1_555
Ir0 O4 1.952499 1_555
Ir0 O9 1.952500 1_555
Ir0 O1 1.952500 1_555
Ir0 O5 1.952500 1_555
Ir0 O6 1.952500 1_555
O0 Ru1 1.945510 1_555
O0 Ru0 1.945510 1_555
O1 Ru1 1.929371 1_555
O3 Ru2 1.945510 1_555
O3 Ru0 1.945510 1_555
O4 Ru0 1.929371 1_555
O5 Ru2 1.929371 1_655
O6 Ru2 1.929371 1_555
O8 Ru2 1.945510 1_655
O8 Ru0 1.945510 1_556
O9 Ru1 1.929371 1_565
O10 Ru0 1.929371 1_556
O11 Ru2 1.945510 1_655
O11 Ru1 1.945510 1_565
O12 Ru1 1.945510 1_565
O12 Ru0 1.945510 1_556
O13 Ru2 1.945510 1_555
O13 Ru1 1.945510 1_555
