# generated using pymatgen
data_Ba3HgPtO6
_symmetry_space_group_name_H-M   'P 1'
_cell_length_a   7.15867334
_cell_length_b   7.15867306
_cell_length_c   7.15867253
_cell_angle_alpha   90.10075332
_cell_angle_beta   90.10075640
_cell_angle_gamma   90.10075420
_symmetry_Int_Tables_number   1
_chemical_formula_structural   Ba3HgPtO6
_chemical_formula_sum   'Ba6 Hg2 Pt2 O12'
_cell_volume   366.85593846
_cell_formula_units_Z   2
loop_
 _symmetry_equiv_pos_site_id
 _symmetry_equiv_pos_as_xyz
  1  'x, y, z'
loop_
 _atom_site_type_symbol
 _atom_site_label
 _atom_site_symmetry_multiplicity
 _atom_site_fract_x
 _atom_site_fract_y
 _atom_site_fract_z
 _atom_site_occupancy
  Ba  Ba0  1  0.39113298  0.10886702  0.75000000  1
  Ba  Ba1  1  0.10886702  0.75000000  0.39113298  1
  Ba  Ba2  1  0.75000000  0.39113298  0.10886702  1
  Ba  Ba3  1  0.60886702  0.89113298  0.25000000  1
  Ba  Ba4  1  0.25000000  0.60886702  0.89113298  1
  Ba  Ba5  1  0.89113298  0.25000000  0.60886702  1
  Hg  Hg0  1  0.75000000  0.75000000  0.75000000  1
  Hg  Hg1  1  0.25000000  0.25000000  0.25000000  1
  Pt  Pt0  1  0.50000000  0.50000000  0.50000000  1
  Pt  Pt1  1  0.00000000  0.00000000  0.00000000  1
  O  O0  1  0.94927376  0.08642108  0.26875801  1
  O  O1  1  0.26875801  0.94927376  0.08642108  1
  O  O2  1  0.08642108  0.26875801  0.94927376  1
  O  O3  1  0.55072624  0.23124199  0.41357892  1
  O  O4  1  0.41357892  0.55072624  0.23124199  1
  O  O5  1  0.23124199  0.41357892  0.55072624  1
  O  O6  1  0.05072624  0.91357892  0.73124199  1
  O  O7  1  0.73124199  0.05072624  0.91357892  1
  O  O8  1  0.91357892  0.73124199  0.05072624  1
  O  O9  1  0.44927376  0.76875801  0.58642108  1
  O  O10  1  0.76875801  0.58642108  0.44927376  1
  O  O11  1  0.58642108  0.44927376  0.76875801  1
loop_
_geom_bond_atom_site_label_1
_geom_bond_atom_site_label_2
_geom_bond_distance
_geom_bond_site_symmetry_2
Ba0 O9 2.732700 1_545
Ba0 O7 2.732700 1_555
Ba0 O1 2.808260 1_546
Ba0 O3 2.808260 1_555
Ba0 O11 2.810150 1_555
Ba0 O6 2.810150 1_545
Ba0 O5 2.849092 1_555
Ba0 O2 2.849092 1_555
Ba1 O6 2.732700 1_555
Ba1 O10 2.732700 1_455
Ba1 O5 2.808260 1_555
Ba1 O0 2.808260 1_465
Ba1 O8 2.810150 1_455
Ba1 O9 2.810150 1_555
Ba1 O1 2.849092 1_555
Ba1 O4 2.849092 1_555
Ba2 O11 2.732700 1_554
Ba2 O8 2.732700 1_555
Ba2 O2 2.808260 1_654
Ba2 O4 2.808260 1_555
Ba2 O10 2.810150 1_555
Ba2 O7 2.810150 1_554
Ba2 O3 2.849092 1_555
Ba2 O0 2.849092 1_555
Ba3 O3 2.732700 1_565
Ba3 O1 2.732700 1_555
Ba3 O7 2.808260 1_564
Ba3 O9 2.808260 1_555
Ba3 O4 2.810150 1_555
Ba3 O0 2.810150 1_565
Ba3 O10 2.849092 1_555
Ba3 O8 2.849092 1_555
Ba4 O4 2.732700 1_556
Ba4 O2 2.732700 1_555
Ba4 O8 2.808260 1_456
Ba4 O11 2.808260 1_555
Ba4 O5 2.810150 1_555
Ba4 O1 2.810150 1_556
Ba4 O9 2.849092 1_555
Ba4 O6 2.849092 1_555
Ba5 O0 2.732700 1_555
Ba5 O5 2.732700 1_655
Ba5 O10 2.808260 1_555
Ba5 O6 2.808260 1_645
Ba5 O2 2.810150 1_655
Ba5 O3 2.810150 1_555
Ba5 O7 2.849092 1_555
Ba5 O11 2.849092 1_555
Hg0 O8 2.452865 1_556
Hg0 O10 2.452865 1_555
Hg0 O7 2.452865 1_565
Hg0 O9 2.452865 1_555
Hg0 O11 2.452865 1_555
Hg0 O6 2.452865 1_655
Hg1 O2 2.452865 1_554
Hg1 O5 2.452865 1_555
Hg1 O1 2.452865 1_545
Hg1 O3 2.452865 1_555
Hg1 O4 2.452865 1_555
Hg1 O0 2.452865 1_455
O0 Pt1 2.053108 1_655
O1 Pt1 2.053108 1_565
O2 Pt1 2.053108 1_556
O3 Pt0 2.053108 1_555
O4 Pt0 2.053108 1_555
O5 Pt0 2.053108 1_555
O6 Pt1 2.053108 1_566
O7 Pt1 2.053108 1_656
O8 Pt1 2.053108 1_665
O9 Pt0 2.053108 1_555
O10 Pt0 2.053108 1_555
O11 Pt0 2.053108 1_555
