# generated using pymatgen
data_Zr5InSiSb2
_symmetry_space_group_name_H-M   'P 1'
_cell_length_a   8.65508316
_cell_length_b   8.67694040
_cell_length_c   5.85680360
_cell_angle_alpha   90.00000000
_cell_angle_beta   90.00000000
_cell_angle_gamma   120.08357137
_symmetry_Int_Tables_number   1
_chemical_formula_structural   Zr5InSiSb2
_chemical_formula_sum   'Zr10 In2 Si2 Sb4'
_cell_volume   380.59476242
_cell_formula_units_Z   2
loop_
 _symmetry_equiv_pos_site_id
 _symmetry_equiv_pos_as_xyz
  1  'x, y, z'
loop_
 _atom_site_type_symbol
 _atom_site_label
 _atom_site_symmetry_multiplicity
 _atom_site_fract_x
 _atom_site_fract_y
 _atom_site_fract_z
 _atom_site_occupancy
  Zr  Zr0  1  0.25706427  0.00087934  0.25000000  1
  Zr  Zr1  1  0.25706427  0.25618493  0.75000000  1
  Zr  Zr2  1  0.00152817  0.74061748  0.75000000  1
  Zr  Zr3  1  0.00152817  0.26091068  0.25000000  1
  Zr  Zr4  1  0.74238485  0.74091458  0.25000000  1
  Zr  Zr5  1  0.74238485  0.00147027  0.75000000  1
  Zr  Zr6  1  0.32943463  0.66471831  0.00000000  1
  Zr  Zr7  1  0.66748226  0.33374113  0.50000000  1
  Zr  Zr8  1  0.66748226  0.33374113  0.00000000  1
  Zr  Zr9  1  0.32943463  0.66471831  0.50000000  1
  In  In0  1  0.60722609  0.99848164  0.25000000  1
  In  In1  1  0.60722609  0.60874446  0.75000000  1
  Si  Si0  1  0.99715183  0.99857542  0.00000000  1
  Si  Si1  1  0.99715183  0.99857542  0.50000000  1
  Sb  Sb0  1  0.99860766  0.39272230  0.75000000  1
  Sb  Sb1  1  0.99860766  0.60588436  0.25000000  1
  Sb  Sb2  1  0.39911925  0.39928312  0.25000000  1
  Sb  Sb3  1  0.39911925  0.99983613  0.75000000  1
loop_
_geom_bond_atom_site_label_1
_geom_bond_atom_site_label_2
_geom_bond_distance
_geom_bond_site_symmetry_2
Zr7 Zr8 2.928402 1_556
Zr7 Zr8 2.928402 1_555
In0 Zr4 2.997367 1_555
In0 Zr3 3.006839 1_665
In0 Zr0 3.041162 1_565
In0 Zr6 3.054683 1_555
In0 Zr9 3.054683 1_555
In0 Zr8 3.058979 1_565
In0 Zr7 3.058979 1_565
In0 Zr5 3.148691 1_565
In0 Zr5 3.148691 1_564
In1 Zr5 2.997367 1_565
In1 Zr2 3.006839 1_655
In1 Zr1 3.041162 1_555
In1 Zr9 3.054693 1_555
In1 Zr6 3.054693 1_556
In1 Zr8 3.058979 1_556
In1 Zr7 3.058979 1_555
In1 Zr4 3.148691 1_555
In1 Zr4 3.148691 1_556
Si0 Zr4 2.657476 1_555
Si0 Zr5 2.657479 1_564
Si0 Zr0 2.675768 1_665
Si0 Zr1 2.675772 1_664
Si0 Zr2 2.690769 1_654
Si0 Zr3 2.690776 1_665
Si1 Zr4 2.657476 1_555
Si1 Zr5 2.657479 1_565
Si1 Zr0 2.675768 1_665
Si1 Zr1 2.675772 1_665
Si1 Zr2 2.690769 1_655
Si1 Zr3 2.690776 1_665
Sb0 Zr5 2.982524 1_555
Sb0 Zr2 3.006075 1_655
Sb0 Zr1 3.010725 1_655
Sb0 Zr6 3.022881 1_656
Sb0 Zr9 3.022881 1_655
Sb0 Zr8 3.024710 1_556
Sb0 Zr7 3.024710 1_555
Sb0 Zr3 3.148533 1_656
Sb0 Zr3 3.148533 1_655
Sb1 Zr4 2.982531 1_555
Sb1 Zr3 3.006066 1_655
Sb1 Zr0 3.010732 1_665
Sb1 Zr6 3.022873 1_655
Sb1 Zr9 3.022873 1_655
Sb1 Zr8 3.024708 1_555
Sb1 Zr7 3.024708 1_555
Sb1 Zr2 3.148536 1_655
Sb1 Zr2 3.148536 1_654
Sb2 Zr4 2.963910 1_555
Sb2 Zr3 3.023444 1_555
Sb2 Zr8 3.030929 1_555
Sb2 Zr7 3.030929 1_555
Sb2 Zr0 3.033313 1_555
Sb2 Zr6 3.033945 1_555
Sb2 Zr9 3.033945 1_555
Sb2 Zr1 3.177804 1_555
Sb2 Zr1 3.177804 1_554
Sb3 Zr5 2.963910 1_565
Sb3 Zr2 3.023444 1_555
Sb3 Zr7 3.030929 1_565
Sb3 Zr8 3.030929 1_566
Sb3 Zr1 3.033313 1_565
Sb3 Zr6 3.033930 1_556
Sb3 Zr9 3.033930 1_555
Sb3 Zr0 3.177804 1_566
Sb3 Zr0 3.177804 1_565
