# generated using pymatgen
data_NaTh2F9
_symmetry_space_group_name_H-M   'P 1'
_cell_length_a   7.55002267
_cell_length_b   7.55002524
_cell_length_c   7.55001714
_cell_angle_alpha   108.95338937
_cell_angle_beta   108.95336042
_cell_angle_gamma   110.51288350
_symmetry_Int_Tables_number   1
_chemical_formula_structural   NaTh2F9
_chemical_formula_sum   'Na2 Th4 F18'
_cell_volume   331.21493303
_cell_formula_units_Z   2
loop_
 _symmetry_equiv_pos_site_id
 _symmetry_equiv_pos_as_xyz
  1  'x, y, z'
loop_
 _atom_site_type_symbol
 _atom_site_label
 _atom_site_symmetry_multiplicity
 _atom_site_fract_x
 _atom_site_fract_y
 _atom_site_fract_z
 _atom_site_occupancy
  Na  Na0  1  0.49997144  -0.00002996  0.49999410  1
  Na  Na1  1  -0.00003061  0.49997165  0.49999416  1
  Th  Th0  1  0.00864282  0.38032867  0.00000060  1
  Th  Th1  1  0.61967622  0.61967570  0.62831473  1
  Th  Th2  1  0.99136292  0.99136248  0.37168731  1
  Th  Th3  1  0.38032885  0.00864257  0.00000090  1
  F  F0  1  0.24320032  0.66644912  0.00000145  1
  F  F1  1  0.33355875  0.33355866  0.57675423  1
  F  F2  1  0.75680643  0.75680631  0.42324951  1
  F  F3  1  0.66644899  0.24320068  0.00000137  1
  F  F4  1  0.00109740  0.65017902  0.25604524  1
  F  F5  1  0.39412619  0.74504764  0.74395163  1
  F  F6  1  0.24043446  0.00000251  0.24043207  1
  F  F7  1  0.00000262  0.24043478  0.24043280  1
  F  F8  1  0.00000096  0.75956977  0.75956823  1
  F  F9  1  0.75956889  0.00000094  0.75956778  1
  F  F10  1  0.77527779  0.77527722  0.00000005  1
  F  F11  1  0.22472784  0.22472747  0.00000111  1
  F  F12  1  0.65017882  0.00109685  0.25604486  1
  F  F13  1  0.99891228  0.25495519  0.64908440  1
  F  F14  1  0.60587370  0.34982996  0.35091879  1
  F  F15  1  0.74504810  0.39412687  0.74395247  1
  F  F16  1  0.34982986  0.60587381  0.35091818  1
  F  F17  1  0.25495496  0.99891208  0.64908404  1
loop_
_geom_bond_atom_site_label_1
_geom_bond_atom_site_label_2
_geom_bond_distance
_geom_bond_site_symmetry_2
F0 Th0 2.263088 1_555
F0 Th3 2.423245 1_565
F1 Th1 2.263067 1_555
F1 Th2 2.423236 1_445
F2 Th2 2.263082 1_555
F2 Th1 2.423267 1_555
F3 Th3 2.263090 1_555
F3 Th0 2.423248 1_655
F4 Th0 2.342136 1_555
F4 Na1 2.457387 1_555
F4 Th2 2.473171 1_455
F5 Th3 2.342140 1_566
F5 Na1 2.457363 1_555
F5 Th1 2.473205 1_555
F6 Na0 2.277336 1_555
F6 Th3 2.385182 1_555
F6 Th2 2.385189 1_445
F7 Na1 2.277336 1_555
F7 Th0 2.385187 1_555
F7 Th2 2.385192 1_445
F8 Na1 2.277376 1_555
F8 Th1 2.385160 1_455
F8 Th3 2.385164 1_566
F9 Na0 2.277375 1_555
F9 Th0 2.385164 1_656
F9 Th1 2.385165 1_545
F10 Th1 2.320528 1_554
F10 Th2 2.320532 1_555
F11 Th3 2.320556 1_555
F11 Th0 2.320557 1_555
F12 Th3 2.342133 1_555
F12 Na0 2.457387 1_555
F12 Th2 2.473175 1_545
F13 Th2 2.342135 1_545
F13 Na1 2.457094 1_655
F13 Th0 2.473168 1_656
F14 Th1 2.342128 1_555
F14 Na1 2.457013 1_655
F14 Th3 2.473154 1_555
F15 Th0 2.342138 1_656
F15 Na0 2.457364 1_555
F15 Th1 2.473200 1_555
F16 Th1 2.342137 1_555
F16 Na0 2.457017 1_565
F16 Th0 2.473152 1_555
F17 Th2 2.342130 1_455
F17 Na0 2.457091 1_565
F17 Th3 2.473173 1_566
