# generated using pymatgen
data_Hf16Nb3Ni4Ag
_symmetry_space_group_name_H-M   'P 1'
_cell_length_a   8.73929190
_cell_length_b   8.73929141
_cell_length_c   8.73929268
_cell_angle_alpha   59.82754809
_cell_angle_beta   59.82754955
_cell_angle_gamma   59.82754958
_symmetry_Int_Tables_number   1
_chemical_formula_structural   Hf16Nb3Ni4Ag
_chemical_formula_sum   'Hf16 Nb3 Ni4 Ag1'
_cell_volume   470.12196109
_cell_formula_units_Z   1
loop_
 _symmetry_equiv_pos_site_id
 _symmetry_equiv_pos_as_xyz
  1  'x, y, z'
loop_
 _atom_site_type_symbol
 _atom_site_label
 _atom_site_symmetry_multiplicity
 _atom_site_fract_x
 _atom_site_fract_y
 _atom_site_fract_z
 _atom_site_occupancy
  Hf  Hf0  1  0.70261824  0.09834396  0.09834396  1
  Hf  Hf1  1  0.09834396  0.70261824  0.09834396  1
  Hf  Hf2  1  0.09834396  0.09834396  0.70261824  1
  Hf  Hf3  1  0.10190777  0.10190777  0.10190777  1
  Hf  Hf4  1  0.31557047  0.31557047  0.69006160  1
  Hf  Hf5  1  0.68591848  0.68591848  0.31527425  1
  Hf  Hf6  1  0.31557047  0.69006160  0.31557047  1
  Hf  Hf7  1  0.68591848  0.31527425  0.68591848  1
  Hf  Hf8  1  0.69006160  0.31557047  0.31557047  1
  Hf  Hf9  1  0.31527425  0.68591848  0.68591848  1
  Hf  Hf10  1  0.95055883  0.95055883  0.54784418  1
  Hf  Hf11  1  0.55542548  0.55542548  0.94206316  1
  Hf  Hf12  1  0.95055883  0.54784418  0.95055883  1
  Hf  Hf13  1  0.55542548  0.94206316  0.55542548  1
  Hf  Hf14  1  0.54784418  0.95055883  0.95055883  1
  Hf  Hf15  1  0.94206316  0.55542548  0.55542548  1
  Nb  Nb0  1  0.99531836  0.33251815  0.33251815  1
  Nb  Nb1  1  0.33251815  0.99531836  0.33251815  1
  Nb  Nb2  1  0.33251815  0.33251815  0.99531836  1
  Ni  Ni0  1  0.32474230  0.88967545  0.88967545  1
  Ni  Ni1  1  0.88967545  0.32474230  0.88967545  1
  Ni  Ni2  1  0.88967545  0.88967545  0.32474230  1
  Ni  Ni3  1  0.89124539  0.89124539  0.89124539  1
  Ag  Ag0  1  0.33289812  0.33289812  0.33289812  1
loop_
_geom_bond_atom_site_label_1
_geom_bond_atom_site_label_2
_geom_bond_distance
_geom_bond_site_symmetry_2
Hf0 Ni1 2.557414 1_554
Hf0 Ni2 2.557414 1_545
Hf0 Ni3 2.561929 1_544
Hf0 Nb1 3.143515 1_545
Hf0 Nb2 3.143515 1_554
Hf0 Hf5 3.160442 1_545
Hf0 Hf7 3.160442 1_554
Hf0 Hf8 3.228596 1_555
Hf1 Ni0 2.557414 1_554
Hf1 Ni2 2.557414 1_455
Hf1 Ni3 2.561929 1_454
Hf1 Nb0 3.143515 1_455
Hf1 Nb2 3.143515 1_554
Hf1 Hf5 3.160442 1_455
Hf1 Hf9 3.160442 1_554
Hf1 Hf6 3.228596 1_555
Hf2 Ni1 2.557414 1_455
Hf2 Ni0 2.557414 1_545
Hf2 Ni3 2.561929 1_445
Hf2 Nb0 3.143515 1_455
Hf2 Nb1 3.143515 1_545
Hf2 Hf9 3.160442 1_545
Hf2 Hf7 3.160442 1_455
Hf2 Hf4 3.228596 1_555
Hf3 Ni2 2.620906 1_445
Hf3 Ni0 2.620906 1_544
Hf3 Ni1 2.620906 1_454
Hf3 Nb2 3.049555 1_554
Hf3 Nb0 3.049555 1_455
Hf3 Nb1 3.049555 1_545
Hf3 Hf6 3.149800 1_545
Hf3 Hf8 3.149800 1_455
Hf3 Hf4 3.149800 1_554
Hf4 Nb2 2.824368 1_555
Hf4 Ni0 3.196393 1_545
Hf4 Ni1 3.196393 1_455
Hf4 Hf9 3.217240 1_555
Hf4 Hf7 3.217240 1_555
Hf4 Hf6 3.264253 1_555
Hf4 Hf8 3.264253 1_555
Hf5 Nb0 2.901697 1_555
Hf5 Nb1 2.901697 1_555
Hf5 Ni2 3.135629 1_555
Hf5 Ni3 3.168659 1_554
Hf5 Hf8 3.217240 1_555
Hf5 Hf6 3.217240 1_555
Hf5 Hf7 3.230721 1_555
Hf5 Hf9 3.230721 1_555
Hf6 Nb1 2.824367 1_555
Hf6 Ni2 3.196393 1_455
Hf6 Ni0 3.196393 1_554
Hf6 Hf9 3.217241 1_555
Hf6 Hf8 3.264253 1_555
Hf7 Nb2 2.901698 1_555
Hf7 Nb0 2.901698 1_555
Hf7 Ni1 3.135629 1_555
Hf7 Ni3 3.168658 1_545
Hf7 Hf8 3.217241 1_555
Hf7 Hf9 3.230721 1_555
Hf8 Nb0 2.824367 1_555
Hf8 Ni2 3.196393 1_545
Hf8 Ni1 3.196393 1_554
Hf9 Nb2 2.901697 1_555
Hf9 Nb1 2.901698 1_555
Hf9 Ni0 3.135629 1_555
Hf9 Ni3 3.168659 1_455
Hf10 Ni3 2.585829 1_555
Hf10 Ni2 2.595761 1_555
Hf10 Nb0 3.015812 1_565
Hf10 Nb1 3.015812 1_655
Hf10 Hf8 3.211749 1_565
Hf10 Hf6 3.211749 1_655
Hf10 Hf7 3.258068 1_565
Hf10 Hf9 3.258068 1_655
Hf11 Ni0 2.543733 1_555
Hf11 Ni1 2.543733 1_555
Hf11 Nb2 3.130233 1_555
Hf11 Hf7 3.235244 1_555
Hf11 Hf9 3.235245 1_555
Hf11 Hf8 3.307091 1_556
Hf11 Hf6 3.307091 1_556
Hf12 Ni3 2.585829 1_555
Hf12 Ni1 2.595761 1_555
Hf12 Nb2 3.015812 1_655
Hf12 Nb0 3.015812 1_556
Hf12 Hf8 3.211749 1_556
Hf12 Hf4 3.211749 1_655
Hf12 Hf9 3.258068 1_655
Hf12 Hf5 3.258069 1_556
Hf13 Ni2 2.543733 1_555
Hf13 Ni0 2.543733 1_555
Hf13 Nb1 3.130233 1_555
Hf13 Hf9 3.235244 1_555
Hf13 Hf5 3.235244 1_555
Hf13 Hf8 3.307091 1_565
Hf13 Hf4 3.307091 1_565
Hf14 Ni3 2.585829 1_555
Hf14 Ni0 2.595761 1_555
Hf14 Nb2 3.015812 1_565
Hf14 Nb1 3.015813 1_556
Hf14 Hf6 3.211749 1_556
Hf14 Hf4 3.211749 1_565
Hf14 Hf7 3.258068 1_565
Hf14 Hf5 3.258069 1_556
Hf15 Ni2 2.543733 1_555
Hf15 Ni1 2.543733 1_555
Hf15 Nb0 3.130233 1_555
Hf15 Hf7 3.235244 1_555
Hf15 Hf5 3.235245 1_555
Hf15 Hf6 3.307091 1_655
Hf15 Hf4 3.307091 1_655
Nb0 Nb1 2.939203 1_645
Nb0 Nb2 2.939203 1_654
Nb1 Nb2 2.939203 1_564
Ag0 Nb1 2.953550 1_545
Ag0 Nb0 2.953550 1_455
Ag0 Nb2 2.953550 1_554
Ag0 Hf6 2.976829 1_555
Ag0 Hf8 2.976829 1_555
Ag0 Hf4 2.976829 1_555
Ag0 Hf13 3.110945 1_545
Ag0 Hf15 3.110945 1_455
Ag0 Hf11 3.110945 1_554
Ag0 Hf1 3.122806 1_555
Ag0 Hf2 3.122806 1_555
Ag0 Hf0 3.122806 1_555
