# generated using pymatgen
data_Cs3AsSO3
_symmetry_space_group_name_H-M   'P 1'
_cell_length_a   6.40485949
_cell_length_b   6.90488463
_cell_length_c   9.59603007
_cell_angle_alpha   81.03392651
_cell_angle_beta   90.00000000
_cell_angle_gamma   90.00000000
_symmetry_Int_Tables_number   1
_chemical_formula_structural   Cs3AsSO3
_chemical_formula_sum   'Cs6 As2 S2 O6'
_cell_volume   419.19704494
_cell_formula_units_Z   2
loop_
 _symmetry_equiv_pos_site_id
 _symmetry_equiv_pos_as_xyz
  1  'x, y, z'
loop_
 _atom_site_type_symbol
 _atom_site_label
 _atom_site_symmetry_multiplicity
 _atom_site_fract_x
 _atom_site_fract_y
 _atom_site_fract_z
 _atom_site_occupancy
  Cs  Cs0  1  0.75000000  0.67945340  0.47110483  1
  Cs  Cs1  1  0.25000000  0.26189728  0.00919636  1
  Cs  Cs2  1  0.25000000  0.32054660  0.52889517  1
  Cs  Cs3  1  0.75000000  0.73810272  0.99080364  1
  Cs  Cs4  1  0.25000000  0.78778677  0.74133130  1
  Cs  Cs5  1  0.75000000  0.21221323  0.25866870  1
  As  As0  1  0.75000000  0.31199979  0.78824287  1
  As  As1  1  0.25000000  0.68800021  0.21175713  1
  S  S0  1  0.75000000  0.08913683  0.64800884  1
  S  S1  1  0.25000000  0.91086317  0.35199116  1
  O  O0  1  0.25000000  0.79666085  0.04028280  1
  O  O1  1  0.75000000  0.20333915  0.95971720  1
  O  O2  1  0.96645384  0.45528202  0.75355055  1
  O  O3  1  0.03354616  0.54471798  0.24644945  1
  O  O4  1  0.53354616  0.45528202  0.75355055  1
  O  O5  1  0.46645384  0.54471798  0.24644945  1
loop_
_geom_bond_atom_site_label_1
_geom_bond_atom_site_label_2
_geom_bond_distance
_geom_bond_site_symmetry_2
Cs0 O3 3.071850 1_655
Cs0 O5 3.071850 1_555
Cs0 O2 3.218117 1_555
Cs0 O4 3.218117 1_555
Cs0 S0 3.518635 1_565
Cs0 S1 3.680478 1_555
Cs0 S1 3.680478 1_655
Cs1 O4 3.174621 1_554
Cs1 O2 3.174621 1_454
Cs1 O0 3.179596 1_545
Cs1 O1 3.271746 1_554
Cs1 O1 3.271746 1_454
Cs1 O5 3.507807 1_555
Cs1 O3 3.507807 1_555
Cs1 O0 3.750565 1_555
Cs1 S1 3.769671 1_545
Cs2 O4 3.071850 1_555
Cs2 O2 3.071850 1_455
Cs2 O5 3.218117 1_555
Cs2 O3 3.218117 1_555
Cs2 S1 3.518635 1_545
Cs2 S0 3.680478 1_455
Cs2 S0 3.680478 1_555
Cs3 O3 3.174621 1_656
Cs3 O5 3.174621 1_556
Cs3 O1 3.179596 1_565
Cs3 O0 3.271746 1_556
Cs3 O0 3.271746 1_656
Cs3 O2 3.507807 1_555
Cs3 O4 3.507807 1_555
Cs3 O1 3.750565 1_555
Cs3 S0 3.769671 1_565
Cs4 O0 2.878933 1_556
Cs4 O4 2.915330 1_555
Cs4 O2 2.915330 1_455
Cs4 S1 3.700153 1_555
Cs4 S0 3.847906 1_565
Cs4 S0 3.847906 1_465
Cs5 O1 2.878933 1_554
Cs5 O3 2.915330 1_655
Cs5 O5 2.915330 1_555
Cs5 S0 3.700153 1_555
Cs5 S1 3.847906 1_545
Cs5 S1 3.847906 1_645
As0 O1 1.698734 1_555
As0 O2 1.705567 1_555
As0 O4 1.705567 1_555
As0 S0 2.196449 1_555
As1 O0 1.698734 1_555
As1 O5 1.705567 1_555
As1 O3 1.705567 1_555
As1 S1 2.196449 1_555
