# generated using pymatgen
data_MgIn3P6N13
_symmetry_space_group_name_H-M   'P 1'
_cell_length_a   7.21182132
_cell_length_b   7.21182191
_cell_length_c   7.15437719
_cell_angle_alpha   109.30995101
_cell_angle_beta   109.30995265
_cell_angle_gamma   109.63200438
_symmetry_Int_Tables_number   1
_chemical_formula_structural   MgIn3P6N13
_chemical_formula_sum   'Mg1 In3 P6 N13'
_cell_volume   287.01223021
_cell_formula_units_Z   1
loop_
 _symmetry_equiv_pos_site_id
 _symmetry_equiv_pos_as_xyz
  1  'x, y, z'
loop_
 _atom_site_type_symbol
 _atom_site_label
 _atom_site_symmetry_multiplicity
 _atom_site_fract_x
 _atom_site_fract_y
 _atom_site_fract_z
 _atom_site_occupancy
  Mg  Mg0  1  1.00000000  1.00000000  0.67763510  1
  In  In0  1  0.29116239  0.29116239  0.28836607  1
  In  In1  1  0.00000000  0.70883761  0.99720369  1
  In  In2  1  0.70883761  0.00000000  0.99720369  1
  P  P0  1  0.49761636  0.24960349  0.75302969  1
  P  P1  1  0.50238364  0.75198713  0.25541233  1
  P  P2  1  0.75039651  0.24801287  0.50342520  1
  P  P3  1  0.24960349  0.49761636  0.75302969  1
  P  P4  1  0.75198713  0.50238364  0.25541233  1
  P  P5  1  0.24801287  0.75039651  0.50342520  1
  N  N0  1  0.00000000  0.00000000  0.97348833  1
  N  N1  1  0.00000000  0.72559728  0.44185967  1
  N  N2  1  0.27753266  0.71445230  0.27993345  1
  N  N3  1  0.28554770  0.56308036  0.56548114  1
  N  N4  1  0.56636849  0.56636849  0.29316540  1
  N  N5  1  0.56308036  0.28554770  0.56548114  1
  N  N6  1  0.72559728  1.00000000  0.44185967  1
  N  N7  1  0.43363151  1.00000000  0.72679591  1
  N  N8  1  0.72246734  0.43691964  0.00240079  1
  N  N9  1  0.27440272  0.27440272  0.71626139  1
  N  N10  1  0.71445230  0.27753266  0.27993345  1
  N  N11  1  1.00000000  0.43363151  0.72679591  1
  N  N12  1  0.43691964  0.72246734  0.00240079  1
loop_
_geom_bond_atom_site_label_1
_geom_bond_atom_site_label_2
_geom_bond_distance
_geom_bond_site_symmetry_2
Mg0 N0 2.116646 1_665
Mg0 N6 2.133988 1_555
Mg0 N1 2.133988 1_655
Mg0 N9 2.133991 1_665
In0 N0 2.161855 1_554
In0 N4 2.267697 1_555
In0 N5 2.305008 1_555
In0 N3 2.305009 1_555
In1 N0 2.161855 1_565
In1 N11 2.267700 1_455
In1 N2 2.305008 1_556
In1 N8 2.305009 1_456
In2 N0 2.161855 1_655
In2 N7 2.267700 1_545
In2 N10 2.305009 1_556
In2 N12 2.305009 1_546
N1 P5 1.623911 1_555
N1 P4 1.623911 1_455
N2 P5 1.630101 1_555
N2 P1 1.630393 1_555
N3 P3 1.630108 1_555
N3 P5 1.630393 1_555
N4 P4 1.627772 1_555
N4 P1 1.627772 1_555
N5 P0 1.630108 1_555
N5 P2 1.630393 1_555
N6 P1 1.623911 1_555
N6 P2 1.623912 1_565
N7 P0 1.627767 1_565
N7 P5 1.627769 1_555
N8 P4 1.630101 1_555
N8 P0 1.630390 1_554
N9 P0 1.623910 1_555
N9 P3 1.623910 1_555
N10 P2 1.630101 1_555
N10 P4 1.630394 1_555
N11 P3 1.627767 1_655
N11 P2 1.627769 1_555
N12 P1 1.630101 1_555
N12 P3 1.630390 1_554
