# generated using pymatgen
data_Sr2Ni2P4Pd
_symmetry_space_group_name_H-M   'P 1'
_cell_length_a   8.09891965
_cell_length_b   8.09891846
_cell_length_c   8.09891900
_cell_angle_alpha   137.95902654
_cell_angle_beta   110.38567919
_cell_angle_gamma   84.77862862
_symmetry_Int_Tables_number   1
_chemical_formula_structural   Sr2Ni2P4Pd
_chemical_formula_sum   'Sr4 Ni4 P8 Pd2'
_cell_volume   321.34319345
_cell_formula_units_Z   2
loop_
 _symmetry_equiv_pos_site_id
 _symmetry_equiv_pos_as_xyz
  1  'x, y, z'
loop_
 _atom_site_type_symbol
 _atom_site_label
 _atom_site_symmetry_multiplicity
 _atom_site_fract_x
 _atom_site_fract_y
 _atom_site_fract_z
 _atom_site_occupancy
  Sr  Sr0  1  0.10314996  0.89253142  0.21061853  1
  Sr  Sr1  1  0.89685004  0.10746858  0.78938147  1
  Sr  Sr2  1  0.31808711  0.60746858  0.71061853  1
  Sr  Sr3  1  0.68191289  0.39253142  0.28938147  1
  Ni  Ni0  1  0.27164760  0.02164760  0.75000000  1
  Ni  Ni1  1  0.72835240  0.47835240  0.75000000  1
  Ni  Ni2  1  0.27164760  0.52164760  0.25000000  1
  Ni  Ni3  1  0.72835240  0.97835240  0.25000000  1
  P  P0  1  0.49888083  0.13626497  0.36261487  1
  P  P1  1  0.50111917  0.86373503  0.63738513  1
  P  P2  1  0.22634890  0.36373503  0.86261487  1
  P  P3  1  0.77365110  0.63626497  0.13738513  1
  P  P4  1  0.96719334  0.34142686  0.62576649  1
  P  P5  1  0.03280666  0.65857314  0.37423351  1
  P  P6  1  0.71566037  0.84142686  0.87423351  1
  P  P7  1  0.28433963  0.15857314  0.12576649  1
  Pd  Pd0  1  0.50000000  0.75000000  0.25000000  1
  Pd  Pd1  1  0.50000000  0.25000000  0.75000000  1
loop_
_geom_bond_atom_site_label_1
_geom_bond_atom_site_label_2
_geom_bond_distance
_geom_bond_site_symmetry_2
Ni0 P1 2.221964 1_545
Ni0 P2 2.221973 1_555
Ni0 P7 2.300442 1_556
Ni0 P5 2.300442 1_545
Ni0 Pd1 2.731875 1_555
Ni0 Sr2 3.124104 1_545
Ni0 Sr1 3.124104 1_455
Ni0 Sr0 3.370500 1_545
Ni0 Sr3 3.370501 1_556
Ni1 P0 2.221969 1_555
Ni1 P3 2.221970 1_556
Ni1 P6 2.300442 1_555
Ni1 P4 2.300442 1_555
Ni1 Pd1 2.731875 1_555
Ni1 Sr3 3.124104 1_555
Ni1 Sr0 3.124104 1_656
Ni1 Sr1 3.370500 1_555
Ni1 Sr2 3.370500 1_555
Ni2 P1 2.221969 1_555
Ni2 P2 2.221970 1_554
Ni2 P7 2.300442 1_555
Ni2 P5 2.300442 1_555
Ni2 Pd0 2.731875 1_555
Ni2 Sr2 3.124104 1_555
Ni2 Sr1 3.124104 1_454
Ni2 Sr0 3.370500 1_555
Ni2 Sr3 3.370500 1_555
Ni3 P0 2.221964 1_565
Ni3 P3 2.221973 1_555
Ni3 P6 2.300442 1_554
Ni3 P4 2.300442 1_565
Ni3 Pd0 2.731875 1_555
Ni3 Sr3 3.124104 1_565
Ni3 Sr0 3.124104 1_655
Ni3 Sr1 3.370500 1_565
Ni3 Sr2 3.370501 1_554
P0 P7 2.206104 1_555
P0 Pd0 2.526063 1_545
P0 Pd1 2.526066 1_555
P0 Sr3 3.139701 1_555
P0 Sr0 3.236892 1_545
P0 Sr2 3.245504 1_544
P0 Sr2 3.245509 1_555
P1 P6 2.206104 1_555
P1 Pd1 2.526063 1_565
P1 Pd0 2.526066 1_555
P1 Sr2 3.139701 1_555
P1 Sr1 3.236892 1_565
P1 Sr3 3.245504 1_566
P1 Sr3 3.245509 1_555
P2 P4 2.206095 1_455
P2 Pd0 2.526068 1_556
P2 Pd1 2.526071 1_555
P2 Sr1 3.139699 1_455
P2 Sr2 3.236887 1_555
P2 Sr0 3.245499 1_556
P2 Sr0 3.245505 1_545
P3 P5 2.206095 1_655
P3 Pd1 2.526068 1_554
P3 Pd0 2.526071 1_555
P3 Sr0 3.139699 1_655
P3 Sr3 3.236887 1_555
P3 Sr1 3.245499 1_554
P3 Sr1 3.245505 1_565
P4 Sr0 3.070648 1_645
P4 Sr0 3.070648 1_656
P4 Sr3 3.169733 1_555
P4 Sr1 3.181600 1_555
P4 Sr2 3.278036 1_655
P5 Sr1 3.070648 1_465
P5 Sr1 3.070648 1_454
P5 Sr2 3.169733 1_555
P5 Sr0 3.181600 1_555
P5 Sr3 3.278036 1_455
P6 Sr3 3.070648 1_566
P6 Sr3 3.070648 1_555
P6 Sr0 3.169734 1_656
P6 Sr2 3.181600 1_555
P6 Sr1 3.278035 1_565
P7 Sr2 3.070648 1_544
P7 Sr2 3.070648 1_555
P7 Sr1 3.169734 1_454
P7 Sr3 3.181600 1_555
P7 Sr0 3.278035 1_545
Pd0 Pd1 2.905096 1_554
Pd0 Pd1 2.905096 1_565
Pd0 Sr3 3.304819 1_555
Pd0 Sr0 3.304819 1_555
Pd0 Sr2 3.304819 1_554
Pd0 Sr1 3.304819 1_565
Pd1 Sr2 3.304819 1_555
Pd1 Sr1 3.304819 1_555
Pd1 Sr3 3.304819 1_556
Pd1 Sr0 3.304819 1_545
