# generated using pymatgen
data_Ca2InSn3Rh2
_symmetry_space_group_name_H-M   'P 1'
_cell_length_a   5.83356274
_cell_length_b   5.83356333
_cell_length_c   7.58101186
_cell_angle_alpha   89.65053371
_cell_angle_beta   90.34946342
_cell_angle_gamma   136.25854219
_symmetry_Int_Tables_number   1
_chemical_formula_structural   Ca2InSn3Rh2
_chemical_formula_sum   'Ca2 In1 Sn3 Rh2'
_cell_volume   178.36856652
_cell_formula_units_Z   1
loop_
 _symmetry_equiv_pos_site_id
 _symmetry_equiv_pos_as_xyz
  1  'x, y, z'
loop_
 _atom_site_type_symbol
 _atom_site_label
 _atom_site_symmetry_multiplicity
 _atom_site_fract_x
 _atom_site_fract_y
 _atom_site_fract_z
 _atom_site_occupancy
  Ca  Ca0  1  0.93403756  0.06596244  0.75003222  1
  Ca  Ca1  1  0.06636271  0.93363729  0.25168373  1
  In  In0  1  0.64392821  0.35607179  0.95271569  1
  Sn  Sn0  1  0.34996135  0.65003865  0.04666194  1
  Sn  Sn1  1  0.35656418  0.64343582  0.44939842  1
  Sn  Sn2  1  0.64656673  0.35343327  0.55162237  1
  Rh  Rh0  1  0.21399187  0.78600813  0.74247571  1
  Rh  Rh1  1  0.78858839  0.21141161  0.25540892  1
loop_
_geom_bond_atom_site_label_1
_geom_bond_atom_site_label_2
_geom_bond_distance
_geom_bond_site_symmetry_2
Ca0 Rh0 3.032096 1_645
Ca0 Rh0 3.224933 1_545
Ca0 Rh0 3.224933 1_655
Ca0 Sn1 3.255017 1_655
Ca0 Sn1 3.255017 1_545
Ca0 Sn0 3.261101 1_546
Ca0 Sn0 3.261102 1_656
Ca0 Sn2 3.448038 1_555
Ca0 In0 3.493127 1_655
Ca0 In0 3.493127 1_545
Ca0 In0 3.505869 1_555
Ca0 Sn2 3.510767 1_655
Ca0 Sn2 3.510767 1_545
Ca1 Rh1 3.007893 1_465
Ca1 Rh1 3.242166 1_565
Ca1 Rh1 3.242166 1_455
Ca1 In0 3.254160 1_564
Ca1 In0 3.254160 1_454
Ca1 Sn2 3.258956 1_455
Ca1 Sn2 3.258956 1_565
Ca1 Sn0 3.450697 1_555
Ca1 Sn1 3.472420 1_555
Ca1 Sn1 3.489086 1_455
Ca1 Sn1 3.489086 1_565
Ca1 Sn0 3.546848 1_455
Ca1 Sn0 3.546849 1_565
In0 Rh1 2.769797 1_556
In0 Rh0 2.802492 1_655
In0 Rh0 2.802493 1_545
In0 Sn2 3.041015 1_555
In0 Sn0 3.191415 1_656
In0 Sn0 3.191415 1_546
In0 Sn0 3.266172 1_556
Sn0 Sn1 3.053517 1_555
Sn1 Sn2 3.229245 1_555
Sn1 Sn2 3.242815 1_455
Sn1 Sn2 3.242815 1_565
Rh0 Sn2 2.708278 1_455
Rh0 Sn2 2.708278 1_565
Rh0 Sn1 2.713771 1_555
Rh0 Sn0 2.727738 1_556
Rh1 Sn1 2.722596 1_655
Rh1 Sn1 2.722596 1_545
Rh1 Sn2 2.729963 1_555
Rh1 Sn0 2.771648 1_655
Rh1 Sn0 2.771648 1_545
