# generated using pymatgen
data_Zn2CuAu
_symmetry_space_group_name_H-M   'P 1'
_cell_length_a   4.31426774
_cell_length_b   4.31426852
_cell_length_c   4.31426791
_cell_angle_alpha   60.00000474
_cell_angle_beta   59.99999874
_cell_angle_gamma   60.00000069
_symmetry_Int_Tables_number   1
_chemical_formula_structural   Zn2CuAu
_chemical_formula_sum   'Zn2 Cu1 Au1'
_cell_volume   56.78143860
_cell_formula_units_Z   1
loop_
 _symmetry_equiv_pos_site_id
 _symmetry_equiv_pos_as_xyz
  1  'x, y, z'
loop_
 _atom_site_type_symbol
 _atom_site_label
 _atom_site_symmetry_multiplicity
 _atom_site_fract_x
 _atom_site_fract_y
 _atom_site_fract_z
 _atom_site_occupancy
  Zn  Zn0  1  0.75000000  0.75000000  0.75000000  1
  Zn  Zn1  1  0.25000000  0.25000000  0.25000000  1
  Cu  Cu0  1  0.50000000  0.50000000  0.50000000  1
  Au  Au0  1  0.00000000  -0.00000000  -0.00000000  1
loop_
_geom_bond_atom_site_label_1
_geom_bond_atom_site_label_2
_geom_bond_distance
_geom_bond_site_symmetry_2
Cu0 Zn0 2.641939 1_455
Cu0 Zn1 2.641939 1_655
Cu0 Zn0 2.641939 1_555
Cu0 Zn1 2.641939 1_555
Cu0 Zn1 2.641939 1_556
Cu0 Zn0 2.641939 1_554
Cu0 Zn1 2.641939 1_565
Cu0 Zn0 2.641939 1_545
Au0 Zn0 2.641939 1_544
Au0 Zn1 2.641939 1_455
Au0 Zn0 2.641939 1_444
Au0 Zn1 2.641939 1_555
Au0 Zn0 2.641939 1_445
Au0 Zn1 2.641939 1_554
Au0 Zn0 2.641939 1_454
Au0 Zn1 2.641939 1_545
