# generated using pymatgen
data_Nb6Si5Tc6P
_symmetry_space_group_name_H-M   'P 1'
_cell_length_a   7.48405321
_cell_length_b   7.54895277
_cell_length_c   7.48405274
_cell_angle_alpha   127.50788876
_cell_angle_beta   124.23840822
_cell_angle_gamma   79.90571665
_symmetry_Int_Tables_number   1
_chemical_formula_structural   Nb6Si5Tc6P
_chemical_formula_sum   'Nb6 Si5 Tc6 P1'
_cell_volume   268.11258741
_cell_formula_units_Z   1
loop_
 _symmetry_equiv_pos_site_id
 _symmetry_equiv_pos_as_xyz
  1  'x, y, z'
loop_
 _atom_site_type_symbol
 _atom_site_label
 _atom_site_symmetry_multiplicity
 _atom_site_fract_x
 _atom_site_fract_y
 _atom_site_fract_z
 _atom_site_occupancy
  Nb  Nb0  1  0.54614430  0.09082615  0.04468185  1
  Nb  Nb1  1  0.44334030  0.48085363  0.53751333  1
  Nb  Nb2  1  0.96526450  0.50636329  0.04109879  1
  Nb  Nb3  1  0.04150003  0.07730730  0.53580727  1
  Nb  Nb4  1  0.75548661  0.90861783  0.65313122  1
  Nb  Nb5  1  0.24968641  0.91245266  0.16276526  1
  Si  Si0  1  0.22846972  0.46926463  0.74079490  1
  Si  Si1  1  0.33932322  0.82845376  0.50153363  1
  Si  Si2  1  0.66930329  0.16379081  0.49768417  1
  Si  Si3  1  0.82692013  0.82845376  0.98912953  1
  Si  Si4  1  0.16610564  0.16379081  0.99448852  1
  Tc  Tc0  1  0.52775841  0.24738018  0.77661867  1
  Tc  Tc1  1  0.97076051  0.24738018  0.21962077  1
  Tc  Tc2  1  0.15379841  0.74458381  0.65086839  1
  Tc  Tc3  1  0.84098343  0.49430666  0.58716042  1
  Tc  Tc4  1  0.59371442  0.74458381  0.09078440  1
  Tc  Tc5  1  0.40714724  0.49430666  0.15332222  1
  P  P0  1  0.77429142  0.53948607  0.26519565  1
loop_
_geom_bond_atom_site_label_1
_geom_bond_atom_site_label_2
_geom_bond_distance
_geom_bond_site_symmetry_2
Nb0 Si1 2.651943 1_544
Nb0 Si3 2.651944 1_544
Nb0 Si2 2.652285 1_555
Nb0 Si4 2.652294 1_554
Nb0 Tc4 2.776934 1_545
Nb0 Tc2 2.776938 1_544
Nb0 Tc5 2.801040 1_555
Nb0 Tc3 2.801041 1_555
Nb0 Tc1 2.821351 1_555
Nb0 Tc0 2.821355 1_554
Nb0 P0 3.026527 1_555
Nb1 Si4 2.637631 1_554
Nb1 Si2 2.637635 1_555
Nb1 Si3 2.733585 1_555
Nb1 Si1 2.733585 1_555
Nb1 Tc3 2.796525 1_555
Nb1 Tc5 2.796536 1_555
Nb1 Si0 2.805818 1_555
Nb1 Tc4 2.806885 1_556
Nb1 Tc2 2.806889 1_555
Nb1 Tc0 2.980913 1_555
Nb1 Tc1 2.980918 1_455
Nb2 Si1 2.636509 1_655
Nb2 Si3 2.636513 1_554
Nb2 P0 2.641884 1_555
Nb2 Si4 2.682842 1_654
Nb2 Si2 2.682845 1_554
Nb3 Si0 2.564076 1_555
Nb3 Si2 2.638541 1_455
Nb3 Si4 2.638551 1_555
Nb3 Si1 2.674279 1_545
Nb3 Si3 2.674284 1_444
Nb4 P0 2.585434 1_555
Nb4 Si4 2.632311 1_665
Nb4 Si2 2.632318 1_565
Nb4 Si3 2.683709 1_555
Nb4 Si1 2.683717 1_555
Nb4 Tc1 2.768614 1_566
Nb4 Tc0 2.768618 1_565
Nb4 Tc5 2.865086 1_555
Nb4 Tc3 2.865088 1_555
Nb4 Tc2 3.026095 1_655
Nb4 Tc4 3.026099 1_555
Nb5 Si3 2.678592 1_454
Nb5 Si1 2.678599 1_555
Nb5 Si4 2.680399 1_564
Nb5 Si2 2.680410 1_565
Nb5 Si0 2.819105 1_554
Nb5 Tc2 2.847988 1_554
Nb5 Tc4 2.847989 1_555
Nb5 Tc1 2.961518 1_465
Nb5 Tc0 2.961518 1_565
Nb5 Tc3 3.142567 1_454
Nb5 Tc5 3.142570 1_555
Si0 Tc4 2.440868 1_556
Si0 Tc2 2.440872 1_555
Si0 Tc5 2.467380 1_556
Si0 Tc3 2.467388 1_455
Si0 Tc0 2.539795 1_555
Si0 Tc1 2.539800 1_455
Si1 Tc5 2.539019 1_555
Si1 Tc2 2.548305 1_555
Si1 Tc0 2.568329 1_565
Si2 Tc3 2.538804 1_555
Si2 Tc0 2.555053 1_555
Si2 Tc4 2.561609 1_545
Si3 Tc3 2.539006 1_555
Si3 Tc4 2.548311 1_556
Si3 Tc1 2.568327 1_566
Si4 Tc5 2.538822 1_556
Si4 Tc1 2.555041 1_456
Si4 Tc2 2.561613 1_545
P0 Tc1 2.377543 1_555
P0 Tc0 2.377553 1_554
P0 Tc2 2.381140 1_655
P0 Tc4 2.381151 1_555
P0 Tc5 2.399858 1_555
P0 Tc3 2.399863 1_555
