# generated using pymatgen
data_K3V2InO8
_symmetry_space_group_name_H-M   'P 1'
_cell_length_a   5.80515754
_cell_length_b   5.80515867
_cell_length_c   7.45890125
_cell_angle_alpha   90.00000000
_cell_angle_beta   90.00000000
_cell_angle_gamma   119.99999896
_symmetry_Int_Tables_number   1
_chemical_formula_structural   K3V2InO8
_chemical_formula_sum   'K3 V2 In1 O8'
_cell_volume   217.68755332
_cell_formula_units_Z   1
loop_
 _symmetry_equiv_pos_site_id
 _symmetry_equiv_pos_as_xyz
  1  'x, y, z'
loop_
 _atom_site_type_symbol
 _atom_site_label
 _atom_site_symmetry_multiplicity
 _atom_site_fract_x
 _atom_site_fract_y
 _atom_site_fract_z
 _atom_site_occupancy
  K  K0  1  0.33333300  0.66666700  0.68073651  1
  K  K1  1  0.66666700  0.33333300  0.31926349  1
  K  K2  1  0.00000000  0.00000000  0.00000000  1
  V  V0  1  0.33333300  0.66666700  0.24508425  1
  V  V1  1  0.66666700  0.33333300  0.75491575  1
  In  In0  1  0.00000000  0.00000000  0.50000000  1
  O  O0  1  0.33333300  0.66666700  0.02286040  1
  O  O1  1  0.66666700  0.33333300  0.97713960  1
  O  O2  1  0.17112218  0.82887782  0.32648419  1
  O  O3  1  0.65775465  0.82887782  0.32648419  1
  O  O4  1  0.17112218  0.34224535  0.32648419  1
  O  O5  1  0.82887782  0.17112218  0.67351581  1
  O  O6  1  0.34224535  0.17112218  0.67351581  1
  O  O7  1  0.82887782  0.65775465  0.67351581  1
loop_
_geom_bond_atom_site_label_1
_geom_bond_atom_site_label_2
_geom_bond_distance
_geom_bond_site_symmetry_2
K0 O0 2.551868 1_556
K0 O7 2.903418 1_455
K0 O6 2.903419 1_565
K0 O5 2.903424 1_455
K0 O5 2.903424 1_565
K0 O7 2.903430 1_555
K0 O6 2.903431 1_555
K0 O3 3.105172 1_555
K0 O2 3.105172 1_555
K0 O4 3.105172 1_555
K1 O1 2.551868 1_554
K1 O4 2.903418 1_655
K1 O3 2.903419 1_545
K1 O2 2.903424 1_655
K1 O2 2.903424 1_545
K1 O4 2.903430 1_555
K1 O3 2.903431 1_555
K1 O6 3.105172 1_555
K1 O5 3.105172 1_555
K1 O7 3.105172 1_555
K2 O2 2.981735 1_545
K2 O5 2.981735 1_454
K2 O6 2.981738 1_554
K2 O3 2.981738 1_445
K2 O4 2.981738 1_555
K2 O7 2.981738 1_444
K2 O1 3.355941 1_454
K2 O0 3.355941 1_545
K2 O1 3.355946 1_554
K2 O0 3.355946 1_445
K2 O0 3.355946 1_555
K2 O1 3.355946 1_444
In0 O2 2.153028 1_545
In0 O5 2.153028 1_455
In0 O6 2.153032 1_555
In0 O3 2.153032 1_445
In0 O4 2.153032 1_555
In0 O7 2.153032 1_445
O0 V0 1.657546 1_555
O1 V1 1.657546 1_555
O2 V0 1.740346 1_555
O3 V0 1.740346 1_555
O4 V0 1.740346 1_555
O5 V1 1.740346 1_555
O6 V1 1.740346 1_555
O7 V1 1.740346 1_555
