# generated using pymatgen
data_Ti5Mn3(SiW)12
_symmetry_space_group_name_H-M   'P 1'
_cell_length_a   7.24857346
_cell_length_b   7.24857421
_cell_length_c   13.58517676
_cell_angle_alpha   90.20968139
_cell_angle_beta   89.79031985
_cell_angle_gamma   141.08178026
_symmetry_Int_Tables_number   1
_chemical_formula_structural   Ti5Mn3(SiW)12
_chemical_formula_sum   'Ti5 Mn3 Si12 W12'
_cell_volume   448.40696456
_cell_formula_units_Z   1
loop_
 _symmetry_equiv_pos_site_id
 _symmetry_equiv_pos_as_xyz
  1  'x, y, z'
loop_
 _atom_site_type_symbol
 _atom_site_label
 _atom_site_symmetry_multiplicity
 _atom_site_fract_x
 _atom_site_fract_y
 _atom_site_fract_z
 _atom_site_occupancy
  Ti  Ti0  1  0.42482809  0.06985958  0.40175880  1
  Ti  Ti1  1  0.92889245  0.57226857  0.90280086  1
  Ti  Ti2  1  0.06985958  0.42482809  0.59824120  1
  Ti  Ti3  1  0.57226857  0.92889245  0.09719914  1
  Ti  Ti4  1  0.99814109  0.99814109  0.50000000  1
  Mn  Mn0  1  0.50050813  0.50050813  0.00000000  1
  Mn  Mn1  1  0.49590730  0.49590730  0.50000000  1
  Mn  Mn2  1  0.00197184  0.00197184  1.00000000  1
  Si  Si0  1  0.25030096  0.74999845  0.75012483  1
  Si  Si1  1  0.74999845  0.25030096  0.24987517  1
  Si  Si2  1  0.74906082  0.24999420  0.75006798  1
  Si  Si3  1  0.24999420  0.74906082  0.24993202  1
  Si  Si4  1  0.25921747  0.26248435  0.66437557  1
  Si  Si5  1  0.75017743  0.75250612  0.15953473  1
  Si  Si6  1  0.26248435  0.25921747  0.33562443  1
  Si  Si7  1  0.75250612  0.75017743  0.84046527  1
  Si  Si8  1  0.57699602  0.90210960  0.50096377  1
  Si  Si9  1  0.09225114  0.41052131  0.00112152  1
  Si  Si10  1  0.90210960  0.57699602  0.49903623  1
  Si  Si11  1  0.41052131  0.09225114  0.99887848  1
  W  W0  1  0.07181000  0.42396067  0.39805908  1
  W  W1  1  0.57292099  0.92863547  0.89832209  1
  W  W2  1  0.42396067  0.07181000  0.60194092  1
  W  W3  1  0.92863547  0.57292099  0.10167791  1
  W  W4  1  0.85107699  0.65094889  0.67955296  1
  W  W5  1  0.35063766  0.14794186  0.17724758  1
  W  W6  1  0.65094889  0.85107699  0.32044704  1
  W  W7  1  0.14794186  0.35063766  0.82275242  1
  W  W8  1  0.65340550  0.85143322  0.67765746  1
  W  W9  1  0.14982012  0.34941171  0.17704736  1
  W  W10  1  0.85143322  0.65340550  0.32234254  1
  W  W11  1  0.34941171  0.14982012  0.82295264  1
loop_
_geom_bond_atom_site_label_1
_geom_bond_atom_site_label_2
_geom_bond_distance
_geom_bond_site_symmetry_2
Ti0 W2 2.719504 1_555
Ti0 W10 2.834907 1_445
Ti0 W10 2.876363 1_555
Ti1 W3 2.701763 1_556
Ti1 W11 2.854137 1_665
Ti1 W11 2.862009 1_555
Ti2 W0 2.719504 1_555
Ti2 W8 2.834908 1_445
Ti2 W8 2.876363 1_555
Ti3 W1 2.701763 1_554
Ti3 W9 2.854137 1_665
Ti3 W9 2.862009 1_555
Ti4 W8 3.006611 1_555
Ti4 W10 3.006611 1_555
Ti4 W2 3.031693 1_665
Ti4 W0 3.031693 1_665
Ti4 W6 3.044858 1_555
Ti4 W4 3.044858 1_555
Mn0 Si5 2.482881 1_555
Mn0 Si7 2.482881 1_554
Mn0 Si9 2.485783 1_555
Mn0 Si11 2.485783 1_554
Mn0 W9 3.014730 1_555
Mn0 W11 3.014730 1_554
Mn1 Ti4 2.403959 1_445
Mn1 Ti4 2.425535 1_555
Mn1 Si6 2.505076 1_555
Mn1 Si4 2.505076 1_555
Mn1 Si10 2.514321 1_555
Mn1 Si8 2.514321 1_555
Mn1 Ti2 3.013772 1_555
Mn1 Ti0 3.013772 1_555
Mn1 W10 3.027559 1_555
Mn1 W8 3.027559 1_555
Mn1 W0 3.028394 1_555
Mn1 W2 3.028394 1_555
Mn1 W4 3.060165 1_555
Mn1 W6 3.060165 1_555
Mn2 Si7 2.482401 1_445
Mn2 Si5 2.482401 1_446
Mn2 Si11 2.486467 1_555
Mn2 Si9 2.486467 1_556
Mn2 W11 3.008459 1_555
Mn2 W9 3.008459 1_556
Si0 Si2 2.411757 1_565
Si0 Si2 2.417766 1_455
Si0 W1 2.549932 1_555
Si0 W2 2.554434 1_565
Si0 W7 2.564605 1_555
Si0 W4 2.567294 1_455
Si0 W11 2.576537 1_565
Si0 W8 2.586250 1_555
Si0 Ti1 2.589057 1_455
Si0 Ti2 2.590506 1_555
Si1 Si3 2.411757 1_655
Si1 Si3 2.417766 1_545
Si1 W3 2.549933 1_555
Si1 W0 2.554433 1_655
Si1 W5 2.564605 1_555
Si1 W6 2.567294 1_545
Si1 W9 2.576536 1_655
Si1 W10 2.586250 1_555
Si1 Ti3 2.589057 1_545
Si1 Ti0 2.590506 1_555
Si2 W1 2.549551 1_545
Si2 W2 2.559365 1_555
Si2 W4 2.565596 1_555
Si2 W7 2.569114 1_655
Si2 W11 2.571120 1_555
Si2 W8 2.581066 1_545
Si2 Ti2 2.581845 1_655
Si2 Ti1 2.589857 1_555
Si3 W3 2.549551 1_455
Si3 W0 2.559366 1_555
Si3 W6 2.565595 1_555
Si3 W5 2.569114 1_565
Si3 W9 2.571121 1_555
Si3 W10 2.581066 1_455
Si3 Ti0 2.581845 1_565
Si3 Ti3 2.589857 1_555
Si4 W7 2.543111 1_555
Si4 W11 2.566973 1_555
Si4 Ti4 2.568357 1_445
Si4 Ti2 2.570229 1_555
Si4 W2 2.570590 1_555
Si4 W8 2.727365 1_555
Si4 W4 2.753351 1_555
Si4 W8 2.798541 1_445
Si4 W4 2.835465 1_445
Si5 W6 2.565794 1_555
Si5 W3 2.567286 1_555
Si5 Ti3 2.568355 1_555
Si5 W10 2.605873 1_555
Si5 W9 2.768135 1_665
Si5 W9 2.782639 1_555
Si5 W5 2.794146 1_665
Si5 W5 2.811223 1_555
Si6 W5 2.543111 1_555
Si6 W9 2.566973 1_555
Si6 Ti4 2.568357 1_445
Si6 Ti0 2.570229 1_555
Si6 W0 2.570590 1_555
Si6 W10 2.727365 1_555
Si6 W6 2.753351 1_555
Si6 W10 2.798542 1_445
Si6 W6 2.835465 1_445
Si7 W4 2.565794 1_555
Si7 W1 2.567286 1_555
Si7 Ti1 2.568355 1_555
Si7 W8 2.605873 1_555
Si7 W11 2.768135 1_665
Si7 W11 2.782639 1_555
Si7 W7 2.794146 1_665
Si7 W7 2.811223 1_555
Si8 Ti4 2.548892 1_555
Si8 W8 2.556649 1_555
Si8 Ti0 2.573202 1_565
Si8 W2 2.593312 1_565
Si8 W6 2.594324 1_555
Si8 Ti2 2.727029 1_555
Si8 W0 2.762022 1_555
Si8 Ti2 2.792870 1_665
Si8 W0 2.831513 1_665
Si9 W9 2.526865 1_555
Si9 W7 2.545773 1_554
Si9 Ti1 2.596961 1_454
Si9 W3 2.609071 1_455
Si9 Ti3 2.753527 1_555
Si9 Ti3 2.760343 1_445
Si9 W1 2.799186 1_554
Si9 W1 2.804248 1_444
Si10 Ti4 2.548893 1_555
Si10 W10 2.556649 1_555
Si10 Ti2 2.573202 1_655
Si10 W0 2.593312 1_655
Si10 W4 2.594324 1_555
Si10 Ti0 2.727028 1_555
Si10 W2 2.762022 1_555
Si10 Ti0 2.792870 1_665
Si10 W2 2.831513 1_665
Si11 W11 2.526865 1_555
Si11 W5 2.545773 1_556
Si11 Ti3 2.596961 1_546
Si11 W1 2.609071 1_545
Si11 Ti1 2.753527 1_555
Si11 Ti1 2.760343 1_445
Si11 W3 2.799186 1_556
Si11 W3 2.804248 1_446
W4 W8 2.721439 1_555
W5 W9 2.749458 1_555
W10 W6 2.721439 1_555
W11 W7 2.749458 1_555
