# generated using pymatgen
data_Hf2Mg(NbRe12)2
_symmetry_space_group_name_H-M   'P 1'
_cell_length_a   8.40726627
_cell_length_b   8.40726511
_cell_length_c   8.38611858
_cell_angle_alpha   109.47620051
_cell_angle_beta   109.47620255
_cell_angle_gamma   109.56322026
_symmetry_Int_Tables_number   1
_chemical_formula_structural   Hf2Mg(NbRe12)2
_chemical_formula_sum   'Hf2 Mg1 Nb2 Re24'
_cell_volume   455.72274691
_cell_formula_units_Z   1
loop_
 _symmetry_equiv_pos_site_id
 _symmetry_equiv_pos_as_xyz
  1  'x, y, z'
loop_
 _atom_site_type_symbol
 _atom_site_label
 _atom_site_symmetry_multiplicity
 _atom_site_fract_x
 _atom_site_fract_y
 _atom_site_fract_z
 _atom_site_occupancy
  Hf  Hf0  1  0.00003765  0.00003765  0.63261990  1
  Hf  Hf1  1  0.36741775  0.36741775  0.36738010  1
  Mg  Mg0  1  0.99901246  0.99901246  1.00000000  1
  Nb  Nb0  1  0.63383482  0.99971764  1.00000000  1
  Nb  Nb1  1  0.99971764  0.63383482  1.00000000  1
  Re  Re0  1  0.39867339  0.68111795  1.00000000  1
  Re  Re1  1  0.71745371  0.32002047  0.31842751  1
  Re  Re2  1  0.39902520  0.00159296  0.68157249  1
  Re  Re3  1  0.68111795  0.39867339  1.00000000  1
  Re  Re4  1  0.00159296  0.39902520  0.68157249  1
  Re  Re5  1  0.32002047  0.71745371  0.31842751  1
  Re  Re6  1  0.32508236  0.32508236  0.72028384  1
  Re  Re7  1  0.00131190  0.67600274  0.39560357  1
  Re  Re8  1  0.67600274  0.00131190  0.39560357  1
  Re  Re9  1  0.60479952  0.60479952  0.27971616  1
  Re  Re10  1  0.28039817  0.60570833  0.60439643  1
  Re  Re11  1  0.60570833  0.28039817  0.60439643  1
  Re  Re12  1  0.37538885  0.19230147  0.00000000  1
  Re  Re13  1  0.17974493  0.80492540  0.80573658  1
  Re  Re14  1  0.37400836  0.99918882  0.19426342  1
  Re  Re15  1  0.19230147  0.37538885  0.00000000  1
  Re  Re16  1  0.99918882  0.37400836  0.19426342  1
  Re  Re17  1  0.80492540  0.17974493  0.80573658  1
  Re  Re18  1  0.80542071  0.80542071  0.18050413  1
  Re  Re19  1  0.99966332  0.19267959  0.37589498  1
  Re  Re20  1  0.19267959  0.99966332  0.37589498  1
  Re  Re21  1  0.62491657  0.62491657  0.81949587  1
  Re  Re22  1  0.81678461  0.62376834  0.62410502  1
  Re  Re23  1  0.62376834  0.81678461  0.62410502  1
loop_
_geom_bond_atom_site_label_1
_geom_bond_atom_site_label_2
_geom_bond_distance
_geom_bond_site_symmetry_2
Hf0 Re7 2.792014 1_545
Hf0 Re8 2.792014 1_455
Hf0 Re6 2.792072 1_555
Hf0 Re15 2.973722 1_556
Hf0 Re12 2.973722 1_556
Hf0 Re13 2.977617 1_545
Hf0 Re17 2.977617 1_455
Hf0 Re22 2.982938 1_445
Hf0 Re23 2.982938 1_445
Hf0 Mg0 3.086651 1_445
Hf0 Re19 3.095516 1_455
Hf0 Re20 3.095516 1_545
Hf0 Re18 3.108587 1_445
Hf0 Re9 3.214328 1_445
Hf0 Re4 3.235652 1_555
Hf0 Re2 3.235653 1_555
Hf1 Re10 2.792020 1_555
Hf1 Re11 2.792020 1_555
Hf1 Re9 2.792082 1_555
Hf1 Re15 2.973722 1_555
Hf1 Re12 2.973722 1_555
Hf1 Re14 2.977617 1_545
Hf1 Re16 2.977617 1_455
Hf1 Re20 2.982938 1_545
Hf1 Re19 2.982938 1_455
Hf1 Mg0 3.086651 1_444
Hf1 Re23 3.095515 1_555
Hf1 Re22 3.095516 1_555
Hf1 Re21 3.108587 1_555
Hf1 Re6 3.214334 1_555
Hf1 Re5 3.235660 1_555
Hf1 Re1 3.235661 1_555
Mg0 Re21 3.016807 1_555
Mg0 Re18 3.016807 1_556
Mg0 Re22 3.024573 1_555
Mg0 Re20 3.024574 1_656
Mg0 Re19 3.024574 1_566
Mg0 Re23 3.024574 1_555
Mg0 Re16 3.027181 1_566
Mg0 Re17 3.027181 1_565
Mg0 Re13 3.027182 1_655
Mg0 Re14 3.027182 1_656
Mg0 Re15 3.034778 1_666
Mg0 Re12 3.034779 1_666
Mg0 Nb1 3.072136 1_555
Mg0 Nb0 3.072136 1_555
Nb0 Re0 2.745351 1_555
Nb0 Re1 2.749884 1_566
Nb0 Re2 2.749888 1_565
Nb0 Re16 2.960181 1_566
Nb0 Re17 2.960181 1_565
Nb0 Re21 2.968425 1_555
Nb0 Re18 2.968425 1_556
Nb0 Re23 2.968425 1_555
Nb0 Re19 2.968425 1_566
Nb0 Re12 3.114267 1_566
Nb0 Re13 3.130039 1_555
Nb0 Re14 3.130039 1_556
Nb0 Re8 3.211708 1_566
Nb0 Re10 3.211710 1_555
Nb0 Re3 3.242724 1_565
Nb1 Re3 2.745351 1_555
Nb1 Re5 2.749885 1_656
Nb1 Re4 2.749888 1_655
Nb1 Re14 2.960181 1_656
Nb1 Re13 2.960181 1_655
Nb1 Re20 2.968425 1_656
Nb1 Re22 2.968425 1_555
Nb1 Re18 2.968425 1_556
Nb1 Re21 2.968425 1_555
Nb1 Re15 3.114267 1_656
Nb1 Re17 3.130039 1_555
Nb1 Re16 3.130039 1_556
Nb1 Re7 3.211708 1_656
Nb1 Re11 3.211710 1_555
Nb1 Re0 3.242725 1_655
Re0 Re15 2.574959 1_556
Re0 Re14 2.745813 1_556
Re0 Re13 2.745813 1_555
Re0 Re9 2.820438 1_556
Re0 Re6 2.820441 1_555
Re0 Re18 2.859627 1_556
Re0 Re21 2.859627 1_555
Re0 Re10 2.893526 1_555
Re0 Re8 2.893527 1_566
Re0 Re5 2.903491 1_556
Re0 Re4 2.903492 1_555
Re1 Re22 2.563017 1_555
Re1 Re12 2.730068 1_555
Re1 Re14 2.757445 1_545
Re1 Re7 2.822489 1_655
Re1 Re16 2.853139 1_555
Re1 Re4 2.856475 1_655
Re1 Re19 2.879298 1_555
Re1 Re8 2.898505 1_555
Re1 Re3 2.903491 1_554
Re1 Re9 2.926863 1_555
Re1 Re11 2.927507 1_555
Re2 Re20 2.563014 1_545
Re2 Re5 2.856475 1_545
Re2 Re23 2.879306 1_545
Re2 Re3 2.903492 1_555
Re2 Re6 2.926855 1_555
Re2 Re7 2.927500 1_545
Re3 Re9 2.820438 1_556
Re3 Re6 2.820441 1_555
Re3 Re7 2.893527 1_656
Re4 Re6 2.926855 1_555
Re4 Re8 2.927500 1_455
Re5 Re8 2.822489 1_565
Re5 Re7 2.898505 1_555
Re5 Re9 2.926863 1_555
Re7 Re9 2.920773 1_455
Re8 Re9 2.920772 1_545
Re10 Re13 2.527518 1_555
Re10 Re23 2.750561 1_555
Re10 Re21 2.770900 1_555
Re10 Re7 2.792772 1_555
Re10 Re4 2.822486 1_555
Re10 Re16 2.870444 1_455
Re10 Re19 2.891162 1_455
Re10 Re2 2.898505 1_565
Re10 Re6 2.920781 1_555
Re10 Re5 2.927507 1_555
Re11 Re17 2.527518 1_555
Re11 Re22 2.750561 1_555
Re11 Re21 2.770900 1_555
Re11 Re8 2.792772 1_555
Re11 Re2 2.822486 1_555
Re11 Re14 2.870444 1_545
Re11 Re20 2.891162 1_545
Re11 Re3 2.893526 1_555
Re11 Re4 2.898505 1_655
Re11 Re6 2.920781 1_555
Re12 Re15 2.515034 1_555
Re12 Re3 2.574959 1_554
Re12 Re13 2.655897 1_544
Re12 Re14 2.655897 1_545
Re12 Re2 2.730063 1_554
Re12 Re6 2.885880 1_554
Re12 Re9 2.885886 1_555
Re13 Re22 2.488490 1_455
Re13 Re14 2.658494 1_556
Re13 Re2 2.757440 1_565
Re13 Re4 2.853146 1_555
Re13 Re7 2.870446 1_555
Re14 Re20 2.488490 1_555
Re14 Re8 2.527525 1_565
Re14 Re5 2.853138 1_555
Re15 Re17 2.655897 1_454
Re15 Re16 2.655897 1_455
Re15 Re4 2.730063 1_554
Re15 Re5 2.730068 1_555
Re15 Re6 2.885880 1_554
Re15 Re9 2.885886 1_555
Re16 Re19 2.488490 1_555
Re16 Re7 2.527525 1_655
Re16 Re17 2.658494 1_554
Re16 Re3 2.745813 1_554
Re16 Re5 2.757445 1_655
Re17 Re23 2.488490 1_545
Re17 Re3 2.745813 1_555
Re17 Re4 2.757440 1_655
Re17 Re2 2.853146 1_555
Re17 Re8 2.870446 1_555
Re18 Re21 2.470198 1_554
Re18 Re9 2.519591 1_555
Re18 Re19 2.655083 1_565
Re18 Re20 2.655084 1_655
Re18 Re7 2.770893 1_655
Re18 Re8 2.770893 1_565
Re18 Re3 2.859627 1_554
Re19 Re4 2.563014 1_655
Re19 Re20 2.651425 1_645
Re19 Re8 2.750555 1_555
Re19 Re6 2.759163 1_655
Re20 Re7 2.750554 1_555
Re20 Re6 2.759163 1_565
Re20 Re5 2.879298 1_555
Re21 Re6 2.519600 1_555
Re21 Re23 2.655084 1_555
Re21 Re22 2.655084 1_555
Re21 Re3 2.859627 1_555
Re22 Re23 2.651425 1_555
Re22 Re9 2.759165 1_555
Re22 Re4 2.879305 1_655
Re22 Re7 2.891164 1_655
Re23 Re5 2.563017 1_555
Re23 Re9 2.759165 1_555
Re23 Re8 2.891163 1_565
