# generated using pymatgen
data_Sc2MnWC3
_symmetry_space_group_name_H-M   'P 1'
_cell_length_a   5.68372633
_cell_length_b   5.68372693
_cell_length_c   5.41585414
_cell_angle_alpha   109.82395457
_cell_angle_beta   109.82396004
_cell_angle_gamma   32.38918996
_symmetry_Int_Tables_number   1
_chemical_formula_structural   Sc2MnWC3
_chemical_formula_sum   'Sc2 Mn1 W1 C3'
_cell_volume   87.68078137
_cell_formula_units_Z   1
loop_
 _symmetry_equiv_pos_site_id
 _symmetry_equiv_pos_as_xyz
  1  'x, y, z'
loop_
 _atom_site_type_symbol
 _atom_site_label
 _atom_site_symmetry_multiplicity
 _atom_site_fract_x
 _atom_site_fract_y
 _atom_site_fract_z
 _atom_site_occupancy
  Sc  Sc0  1  0.38860779  0.38860779  0.16862319  1
  Sc  Sc1  1  0.61238449  0.61238449  0.84401844  1
  Mn  Mn0  1  0.15570336  0.15570336  0.32149745  1
  W  W0  1  0.84599081  0.84599081  0.66717825  1
  C  C0  1  0.00377555  0.00377555  0.00866941  1
  C  C1  1  0.75333036  0.75333036  0.26052376  1
  C  C2  1  0.24020864  0.24020864  0.72949249  1
loop_
_geom_bond_atom_site_label_1
_geom_bond_atom_site_label_2
_geom_bond_distance
_geom_bond_site_symmetry_2
C0 Mn0 1.906951 1_555
C0 W0 2.034055 1_444
C0 Sc1 2.336755 1_544
C0 Sc1 2.336755 1_454
C0 Sc0 2.369200 1_455
C0 Sc0 2.369201 1_545
C1 Mn0 2.001560 1_565
C1 Mn0 2.001561 1_655
C1 W0 2.073697 1_555
C1 Sc1 2.237042 1_554
C1 Sc0 2.336762 1_655
C1 Sc0 2.336762 1_565
C2 W0 2.058022 1_545
C2 W0 2.058023 1_455
C2 Mn0 2.072155 1_555
C2 Sc1 2.335792 1_455
C2 Sc1 2.335793 1_545
C2 Sc0 2.357827 1_556
