# generated using pymatgen
data_ScTeClO3
_symmetry_space_group_name_H-M   'P 1'
_cell_length_a   6.82214088
_cell_length_b   7.07294654
_cell_length_c   8.25206064
_cell_angle_alpha   76.68535756
_cell_angle_beta   90.00000000
_cell_angle_gamma   90.00000000
_symmetry_Int_Tables_number   1
_chemical_formula_structural   ScTeClO3
_chemical_formula_sum   'Sc4 Te4 Cl4 O12'
_cell_volume   387.48053495
_cell_formula_units_Z   4
loop_
 _symmetry_equiv_pos_site_id
 _symmetry_equiv_pos_as_xyz
  1  'x, y, z'
loop_
 _atom_site_type_symbol
 _atom_site_label
 _atom_site_symmetry_multiplicity
 _atom_site_fract_x
 _atom_site_fract_y
 _atom_site_fract_z
 _atom_site_occupancy
  Sc  Sc0  1  0.75022858  0.79571933  0.33056068  1
  Sc  Sc1  1  0.24977142  0.20428067  0.66943932  1
  Sc  Sc2  1  0.25022858  0.70428067  0.66943932  1
  Sc  Sc3  1  0.74977142  0.29571933  0.33056068  1
  Te  Te0  1  0.72943074  0.94389714  0.70794329  1
  Te  Te1  1  0.22943074  0.55610286  0.29205671  1
  Te  Te2  1  0.77056926  0.44389714  0.70794329  1
  Te  Te3  1  0.27056926  0.05610286  0.29205671  1
  Cl  Cl0  1  0.71089397  0.60900284  0.09759497  1
  Cl  Cl1  1  0.28910603  0.39099716  0.90240503  1
  Cl  Cl2  1  0.78910603  0.10900284  0.09759497  1
  Cl  Cl3  1  0.21089397  0.89099716  0.90240503  1
  O  O0  1  0.78376751  0.00763487  0.47269217  1
  O  O1  1  0.45020232  0.25136007  0.31883564  1
  O  O2  1  0.04979768  0.75136007  0.31883564  1
  O  O3  1  0.54947030  0.15276367  0.68403276  1
  O  O4  1  0.95052970  0.65276367  0.68403276  1
  O  O5  1  0.04947030  0.34723633  0.31596724  1
  O  O6  1  0.45052970  0.84723633  0.31596724  1
  O  O7  1  0.54979768  0.74863993  0.68116436  1
  O  O8  1  0.71623249  0.50763487  0.47269217  1
  O  O9  1  0.21623249  0.99236513  0.52730783  1
  O  O10  1  0.28376751  0.49236513  0.52730783  1
  O  O11  1  0.95020232  0.24863993  0.68116436  1
loop_
_geom_bond_atom_site_label_1
_geom_bond_atom_site_label_2
_geom_bond_distance
_geom_bond_site_symmetry_2
Cl0 Sc0 2.584817 1_555
Cl0 Sc3 2.591143 1_555
Cl1 Sc1 2.584817 1_555
Cl1 Sc2 2.591143 1_555
Cl2 Sc3 2.584817 1_555
Cl2 Sc0 2.591143 1_545
Cl3 Sc2 2.584817 1_555
Cl3 Sc1 2.591143 1_565
O0 Te0 1.925154 1_545
O0 Sc3 2.116721 1_555
O0 Sc0 2.117622 1_545
O1 Te3 1.896968 1_555
O1 Sc3 2.073283 1_555
O1 Te1 2.596876 1_555
O2 Te1 1.896968 1_555
O2 Sc0 2.073283 1_455
O2 Te3 2.596876 1_565
O3 Te0 1.895885 1_545
O3 Sc1 2.075428 1_555
O3 Te2 2.596427 1_555
O4 Te2 1.895885 1_555
O4 Sc2 2.075428 1_655
O4 Te0 2.596427 1_555
O5 Te1 1.895885 1_555
O5 Sc3 2.075428 1_455
O5 Te3 2.596427 1_555
O6 Te3 1.895885 1_565
O6 Sc0 2.075428 1_555
O6 Te1 2.596427 1_555
O7 Te0 1.896968 1_555
O7 Sc2 2.073283 1_555
O7 Te2 2.596876 1_555
O8 Te2 1.925154 1_555
O8 Sc0 2.116721 1_555
O8 Sc3 2.117622 1_555
O9 Te3 1.925154 1_565
O9 Sc2 2.116721 1_555
O9 Sc1 2.117622 1_565
O10 Te1 1.925154 1_555
O10 Sc1 2.116721 1_555
O10 Sc2 2.117622 1_555
O11 Te2 1.896968 1_555
O11 Sc1 2.073283 1_655
O11 Te0 2.596876 1_545
