# generated using pymatgen
data_InBi3(Rh2O7)2
_symmetry_space_group_name_H-M   'P 1'
_cell_length_a   7.24004536
_cell_length_b   7.14654816
_cell_length_c   7.24004569
_cell_angle_alpha   59.56627385
_cell_angle_beta   60.00000289
_cell_angle_gamma   59.56627287
_symmetry_Int_Tables_number   1
_chemical_formula_structural   InBi3(Rh2O7)2
_chemical_formula_sum   'In1 Bi3 Rh4 O14'
_cell_volume   263.13914844
_cell_formula_units_Z   1
loop_
 _symmetry_equiv_pos_site_id
 _symmetry_equiv_pos_as_xyz
  1  'x, y, z'
loop_
 _atom_site_type_symbol
 _atom_site_label
 _atom_site_symmetry_multiplicity
 _atom_site_fract_x
 _atom_site_fract_y
 _atom_site_fract_z
 _atom_site_occupancy
  In  In0  1  0.12500000  0.62500000  0.12500000  1
  Bi  Bi0  1  0.12500000  0.12500000  0.12500000  1
  Bi  Bi1  1  0.62500000  0.12500000  0.12500000  1
  Bi  Bi2  1  0.12500000  0.12500000  0.62500000  1
  Rh  Rh0  1  0.62500000  0.62500000  0.62500000  1
  Rh  Rh1  1  0.62500000  0.62500000  0.12500000  1
  Rh  Rh2  1  0.12500000  0.62500000  0.62500000  1
  Rh  Rh3  1  0.62500000  0.12500000  0.62500000  1
  O  O0  1  0.24424210  0.26727371  0.24424210  1
  O  O1  1  0.29052595  0.70356261  0.29052595  1
  O  O2  1  0.95836468  0.95907499  0.54127967  1
  O  O3  1  0.54127967  0.95907499  0.54127967  1
  O  O4  1  0.71538548  0.70356261  0.29052595  1
  O  O5  1  0.95947405  0.54643739  0.53461452  1
  O  O6  1  0.70872033  0.29092501  0.70872033  1
  O  O7  1  0.29163532  0.29092501  0.70872033  1
  O  O8  1  0.70872033  0.29092501  0.29163532  1
  O  O9  1  0.29052595  0.70356261  0.71538548  1
  O  O10  1  0.95947405  0.54643739  0.95947405  1
  O  O11  1  0.53461452  0.54643739  0.95947405  1
  O  O12  1  0.00575790  0.98272629  0.00575790  1
  O  O13  1  0.54127967  0.95907499  0.95836468  1
loop_
_geom_bond_atom_site_label_1
_geom_bond_atom_site_label_2
_geom_bond_distance
_geom_bond_site_symmetry_2
In0 O12 2.073591 1_555
In0 O0 2.073591 1_555
In0 O1 2.446863 1_555
In0 O10 2.446863 1_454
In0 O11 2.446863 1_554
In0 O4 2.446863 1_455
In0 O5 2.446863 1_455
In0 O9 2.446863 1_554
Bi0 O0 2.246847 1_555
Bi0 O12 2.246847 1_545
Bi0 O10 2.463007 1_454
Bi0 O1 2.463007 1_545
Bi0 O13 2.477446 1_544
Bi0 O8 2.477446 1_455
Bi0 O2 2.477446 1_445
Bi0 O7 2.477446 1_554
Bi1 O0 2.246847 1_555
Bi1 O12 2.246847 1_645
Bi1 O11 2.463007 1_554
Bi1 O4 2.463007 1_545
Bi1 O3 2.477445 1_545
Bi1 O6 2.477445 1_554
Bi1 O8 2.477451 1_555
Bi1 O13 2.477451 1_544
Bi2 O12 2.246847 1_546
Bi2 O0 2.246847 1_555
Bi2 O5 2.463007 1_455
Bi2 O9 2.463007 1_545
Bi2 O3 2.477445 1_545
Bi2 O6 2.477445 1_455
Bi2 O7 2.477451 1_555
Bi2 O2 2.477451 1_445
O1 Rh1 2.004438 1_555
O1 Rh2 2.004438 1_555
O2 Rh2 1.967266 1_655
O2 Rh3 1.991132 1_565
O3 Rh0 1.967265 1_555
O3 Rh3 1.991138 1_565
O4 Rh1 2.004438 1_555
O4 Rh0 2.004438 1_555
O5 Rh2 2.004438 1_655
O5 Rh0 2.004438 1_555
O6 Rh0 1.967265 1_555
O6 Rh3 1.991138 1_555
O7 Rh2 1.967266 1_555
O7 Rh3 1.991132 1_555
O8 Rh1 1.967266 1_555
O8 Rh3 1.991132 1_555
O9 Rh2 2.004438 1_555
O9 Rh0 2.004438 1_555
O10 Rh1 2.004438 1_556
O10 Rh2 2.004438 1_655
O11 Rh1 2.004438 1_556
O11 Rh0 2.004438 1_555
O13 Rh1 1.967266 1_556
O13 Rh3 1.991132 1_565
