# generated using pymatgen
data_Ta7Tc6B7P
_symmetry_space_group_name_H-M   'P 1'
_cell_length_a   9.62091434
_cell_length_b   9.62091436
_cell_length_c   3.18389614
_cell_angle_alpha   90.00000000
_cell_angle_beta   90.00000000
_cell_angle_gamma   120.00000671
_symmetry_Int_Tables_number   1
_chemical_formula_structural   Ta7Tc6B7P
_chemical_formula_sum   'Ta7 Tc6 B7 P1'
_cell_volume   255.22439965
_cell_formula_units_Z   1
loop_
 _symmetry_equiv_pos_site_id
 _symmetry_equiv_pos_as_xyz
  1  'x, y, z'
loop_
 _atom_site_type_symbol
 _atom_site_label
 _atom_site_symmetry_multiplicity
 _atom_site_fract_x
 _atom_site_fract_y
 _atom_site_fract_z
 _atom_site_occupancy
  Ta  Ta0  1  0.00000000  0.00000000  0.00000000  1
  Ta  Ta1  1  0.72316445  0.64106892  0.00000000  1
  Ta  Ta2  1  0.35893108  0.08209553  0.00000000  1
  Ta  Ta3  1  0.91790447  0.27683555  0.00000000  1
  Ta  Ta4  1  0.27906560  0.37087965  0.00000000  1
  Ta  Ta5  1  0.62912035  0.90818695  0.00000000  1
  Ta  Ta6  1  0.09181305  0.72093440  0.00000000  1
  Tc  Tc0  1  0.35361190  0.84562198  0.50000000  1
  Tc  Tc1  1  0.15437802  0.50799092  0.50000000  1
  Tc  Tc2  1  0.49200908  0.64638810  0.50000000  1
  Tc  Tc3  1  0.64604054  0.14853519  0.50000000  1
  Tc  Tc4  1  0.85146481  0.49750535  0.50000000  1
  Tc  Tc5  1  0.50249465  0.35395946  0.50000000  1
  B  B0  1  0.33333300  0.66666700  0.00000000  1
  B  B1  1  0.15266667  0.93431221  0.50000000  1
  B  B2  1  0.06568779  0.21835345  0.50000000  1
  B  B3  1  0.78164655  0.84733333  0.50000000  1
  B  B4  1  0.84591672  0.06397268  0.50000000  1
  B  B5  1  0.93602732  0.78194404  0.50000000  1
  B  B6  1  0.21805596  0.15408328  0.50000000  1
  P  P0  1  0.66666700  0.33333300  0.00000000  1
loop_
_geom_bond_atom_site_label_1
_geom_bond_atom_site_label_2
_geom_bond_distance
_geom_bond_site_symmetry_2
Ta1 Tc2 2.756188 1_554
Ta1 Tc2 2.756188 1_555
Ta1 Tc4 2.769591 1_555
Ta1 Tc4 2.769591 1_554
Ta1 Tc5 2.967706 1_555
Ta1 Tc5 2.967706 1_554
Ta2 Tc0 2.756181 1_545
Ta2 Tc0 2.756181 1_544
Ta2 Tc5 2.769590 1_555
Ta2 Tc5 2.769590 1_554
Ta2 Tc3 2.967706 1_555
Ta2 Tc3 2.967706 1_554
Ta3 Tc1 2.756184 1_655
Ta3 Tc1 2.756184 1_654
Ta3 Tc3 2.769590 1_554
Ta3 Tc3 2.769590 1_555
Ta3 Tc4 2.967707 1_555
Ta3 Tc4 2.967707 1_554
Ta4 Tc1 2.701097 1_555
Ta4 Tc1 2.701097 1_554
Ta4 Tc5 2.744353 1_555
Ta4 Tc5 2.744353 1_554
Ta4 Tc2 2.885658 1_555
Ta4 Tc2 2.885658 1_554
Ta5 Tc2 2.701097 1_555
Ta5 Tc2 2.701097 1_554
Ta5 Tc3 2.744345 1_564
Ta5 Tc3 2.744345 1_565
Ta5 Tc0 2.885658 1_555
Ta5 Tc0 2.885658 1_554
Ta6 Tc0 2.701097 1_555
Ta6 Tc0 2.701097 1_554
Ta6 Tc4 2.744348 1_454
Ta6 Tc4 2.744348 1_455
Ta6 Tc1 2.885658 1_554
Ta6 Tc1 2.885658 1_555
B0 Tc1 2.280513 1_554
B0 Tc1 2.280513 1_555
B0 Tc0 2.280514 1_555
B0 Tc0 2.280514 1_554
B0 Tc2 2.280514 1_555
B0 Tc2 2.280514 1_554
B0 Ta5 2.623944 1_555
B0 Ta4 2.623944 1_555
B0 Ta6 2.623945 1_555
B1 B5 1.854111 1_455
B1 B6 1.880499 1_565
B1 Ta2 2.381676 1_565
B1 Ta2 2.381676 1_566
B1 Ta6 2.426835 1_555
B1 Ta6 2.426835 1_556
B1 Ta0 2.453424 1_565
B1 Ta0 2.453424 1_566
B1 Tc0 2.472909 1_555
B2 B6 1.854104 1_555
B2 B4 1.880497 1_455
B2 Ta3 2.381681 1_455
B2 Ta3 2.381681 1_456
B2 Ta4 2.426838 1_555
B2 Ta4 2.426838 1_556
B2 Ta0 2.453417 1_556
B2 Ta0 2.453417 1_555
B2 Tc1 2.472927 1_555
B3 B4 1.854113 1_565
B3 B5 1.880490 1_555
B3 Ta1 2.381674 1_555
B3 Ta1 2.381674 1_556
B3 Ta5 2.426849 1_555
B3 Ta5 2.426849 1_556
B3 Ta0 2.453418 1_666
B3 Ta0 2.453418 1_665
B3 Tc2 2.472923 1_555
B4 Ta3 2.406167 1_555
B4 Ta3 2.406167 1_556
B4 Tc3 2.433984 1_555
B4 Ta5 2.450512 1_545
B4 Ta5 2.450512 1_546
B4 Ta0 2.454196 1_656
B4 Ta0 2.454196 1_655
B5 Ta1 2.406167 1_555
B5 Ta1 2.406167 1_556
B5 Tc4 2.433984 1_555
B5 Ta6 2.450507 1_656
B5 Ta6 2.450507 1_655
B5 Ta0 2.454196 1_665
B5 Ta0 2.454196 1_666
B6 Ta2 2.406167 1_555
B6 Ta2 2.406167 1_556
B6 Tc5 2.433983 1_555
B6 Ta4 2.450514 1_555
B6 Ta4 2.450514 1_556
B6 Ta0 2.454196 1_555
B6 Ta0 2.454196 1_556
P0 Tc3 2.319886 1_555
P0 Tc3 2.319886 1_554
P0 Tc4 2.319889 1_555
P0 Tc4 2.319889 1_554
P0 Tc5 2.319893 1_555
P0 Tc5 2.319893 1_554
P0 Ta3 2.729806 1_555
P0 Ta2 2.729812 1_555
P0 Ta1 2.729816 1_555
