# generated using pymatgen
data_YTa5(NbN3)4
_symmetry_space_group_name_H-M   'P 1'
_cell_length_a   5.28520171
_cell_length_b   5.26636214
_cell_length_c   10.51692249
_cell_angle_alpha   90.02824416
_cell_angle_beta   89.98593612
_cell_angle_gamma   119.88214850
_symmetry_Int_Tables_number   1
_chemical_formula_structural   YTa5(NbN3)4
_chemical_formula_sum   'Y1 Ta5 Nb4 N12'
_cell_volume   253.80844045
_cell_formula_units_Z   1
loop_
 _symmetry_equiv_pos_site_id
 _symmetry_equiv_pos_as_xyz
  1  'x, y, z'
loop_
 _atom_site_type_symbol
 _atom_site_label
 _atom_site_symmetry_multiplicity
 _atom_site_fract_x
 _atom_site_fract_y
 _atom_site_fract_z
 _atom_site_occupancy
  Y  Y0  1  0.32839770  0.66419935  0.50000000  1
  Ta  Ta0  1  0.66756356  0.33378078  0.00000000  1
  Ta  Ta1  1  0.66589853  0.33294877  0.50000000  1
  Ta  Ta2  1  0.33073743  0.66536871  0.00000000  1
  Ta  Ta3  1  0.67668956  0.99789115  0.75381864  1
  Ta  Ta4  1  0.67668956  0.67879841  0.24618136  1
  Nb  Nb0  1  0.00153321  0.32442522  0.24483917  1
  Nb  Nb1  1  0.00153321  0.67710799  0.75516083  1
  Nb  Nb2  1  0.32341057  0.32497714  0.75495480  1
  Nb  Nb3  1  0.32341057  0.99843243  0.24504520  1
  N  N0  1  0.36020750  0.34002423  0.37011572  1
  N  N1  1  0.66546278  0.01466616  0.37073914  1
  N  N2  1  0.97576117  0.64693013  0.37066114  1
  N  N3  1  0.99557690  0.33827190  0.88430877  1
  N  N4  1  0.65499690  0.99558953  0.11576649  1
  N  N5  1  0.65499690  0.65940837  0.88423351  1
  N  N6  1  0.35006180  0.99997971  0.88323686  1
  N  N7  1  0.66546278  0.65079562  0.62926086  1
  N  N8  1  0.97576117  0.32883005  0.62933886  1
  N  N9  1  0.99557690  0.65730700  0.11569123  1
  N  N10  1  0.36020750  0.02018228  0.62988428  1
  N  N11  1  0.35006180  0.35008409  0.11676314  1
loop_
_geom_bond_atom_site_label_1
_geom_bond_atom_site_label_2
_geom_bond_distance
_geom_bond_site_symmetry_2
N0 Ta1 2.130424 1_555
N0 Nb3 2.157168 1_545
N0 Ta4 2.169649 1_555
N0 Y0 2.256628 1_555
N0 Nb0 2.276425 1_555
N1 Ta1 2.156750 1_555
N1 Nb0 2.164026 1_655
N1 Nb3 2.206811 1_545
N1 Ta4 2.224959 1_545
N1 Y0 2.270062 1_545
N2 Ta4 2.122748 1_555
N2 Ta1 2.137587 1_555
N2 Nb0 2.209625 1_655
N2 Nb3 2.271585 1_655
N2 Y0 2.272521 1_655
N3 Ta0 2.108203 1_556
N3 Ta2 2.131681 1_656
N3 Ta3 2.219345 1_545
N3 Nb1 2.230785 1_655
N3 Nb2 2.231002 1_655
N4 Ta2 2.114921 1_555
N4 Ta0 2.131445 1_565
N4 Ta4 2.206944 1_555
N4 Nb3 2.223733 1_555
N4 Nb0 2.243787 1_665
N5 Ta2 2.114918 1_556
N5 Ta0 2.131458 1_556
N5 Ta3 2.206940 1_555
N5 Nb2 2.223737 1_555
N5 Nb1 2.243789 1_655
N6 Ta2 2.108652 1_556
N6 Ta0 2.115095 1_566
N6 Ta3 2.202386 1_555
N6 Nb1 2.230841 1_555
N6 Nb2 2.238752 1_565
N7 Ta1 2.156750 1_555
N7 Nb1 2.164024 1_655
N7 Nb2 2.206812 1_555
N7 Ta3 2.224963 1_555
N7 Y0 2.270066 1_555
N8 Ta3 2.122746 1_545
N8 Ta1 2.137587 1_555
N8 Nb1 2.209629 1_655
N8 Nb2 2.271584 1_655
N8 Y0 2.272525 1_655
N9 Ta0 2.108211 1_555
N9 Ta2 2.131685 1_655
N9 Ta4 2.219340 1_555
N9 Nb0 2.230793 1_655
N9 Nb3 2.230995 1_655
N10 Ta1 2.130425 1_555
N10 Nb2 2.157168 1_555
N10 Ta3 2.169646 1_545
N10 Y0 2.256620 1_545
N10 Nb1 2.276424 1_545
N11 Ta2 2.108643 1_555
N11 Ta0 2.115104 1_555
N11 Ta4 2.202382 1_555
N11 Nb0 2.230838 1_555
N11 Nb3 2.238765 1_545
