# generated using pymatgen
data_Sc12Co4IrPb
_symmetry_space_group_name_H-M   'P 1'
_cell_length_a   7.71998609
_cell_length_b   7.71998541
_cell_length_c   7.71998606
_cell_angle_alpha   111.05204408
_cell_angle_beta   110.98315090
_cell_angle_gamma   106.42087070
_symmetry_Int_Tables_number   1
_chemical_formula_structural   Sc12Co4IrPb
_chemical_formula_sum   'Sc12 Co4 Ir1 Pb1'
_cell_volume   353.43495875
_cell_formula_units_Z   1
loop_
 _symmetry_equiv_pos_site_id
 _symmetry_equiv_pos_as_xyz
  1  'x, y, z'
loop_
 _atom_site_type_symbol
 _atom_site_label
 _atom_site_symmetry_multiplicity
 _atom_site_fract_x
 _atom_site_fract_y
 _atom_site_fract_z
 _atom_site_occupancy
  Sc  Sc0  1  0.42324935  0.22218070  0.20106965  1
  Sc  Sc1  1  0.57675065  0.77781930  0.79893035  1
  Sc  Sc2  1  0.02111205  0.22218070  0.79893035  1
  Sc  Sc3  1  0.97888795  0.77781930  0.20106965  1
  Sc  Sc4  1  0.31122029  0.61492183  0.30370055  1
  Sc  Sc5  1  0.68877971  0.38507817  0.69629945  1
  Sc  Sc6  1  0.31122029  0.00751874  0.69629945  1
  Sc  Sc7  1  0.68877971  0.99248126  0.30370055  1
  Sc  Sc8  1  0.18432911  0.27704224  0.46137135  1
  Sc  Sc9  1  0.81567089  0.72295676  0.53862865  1
  Sc  Sc10  1  0.18432911  0.72295676  0.90728687  1
  Sc  Sc11  1  0.81567089  0.27704224  0.09271313  1
  Co  Co0  1  0.37002857  0.00000000  0.37002857  1
  Co  Co1  1  0.62997143  1.00000000  0.62997143  1
  Co  Co2  1  0.11545571  0.61545571  0.50000000  1
  Co  Co3  1  0.88454429  0.38454429  0.50000000  1
  Ir  Ir0  1  0.00000000  0.00000000  0.00000000  1
  Pb  Pb0  1  0.50000000  0.50000000  0.00000000  1
loop_
_geom_bond_atom_site_label_1
_geom_bond_atom_site_label_2
_geom_bond_distance
_geom_bond_site_symmetry_2
Sc0 Sc8 3.178736 1_555
Sc0 Sc10 3.178748 1_544
Sc0 Sc9 3.376525 1_555
Sc0 Sc11 3.376536 1_555
Sc1 Sc9 3.178736 1_555
Sc1 Sc11 3.178742 1_566
Sc1 Sc8 3.376530 1_555
Sc1 Sc10 3.376535 1_555
Sc2 Sc9 3.178748 1_445
Sc2 Sc8 3.376524 1_555
Sc3 Sc8 3.178741 1_665
Sc3 Sc9 3.376526 1_555
Sc4 Sc8 3.306879 1_555
Sc4 Sc9 3.342065 1_555
Sc5 Sc9 3.306872 1_555
Sc5 Sc8 3.342063 1_555
Sc6 Sc9 3.306872 1_445
Sc6 Sc8 3.342067 1_555
Sc7 Sc8 3.306871 1_665
Sc7 Sc9 3.342074 1_555
Sc10 Sc3 3.178749 1_456
Sc10 Sc9 3.224715 1_455
Sc10 Sc5 3.306872 1_455
Sc10 Sc6 3.306872 1_565
Sc10 Sc4 3.342050 1_556
Sc10 Sc7 3.342060 1_556
Sc10 Sc2 3.376521 1_555
Sc11 Sc2 3.178748 1_654
Sc11 Sc8 3.224715 1_655
Sc11 Sc7 3.306866 1_545
Sc11 Sc4 3.306874 1_655
Sc11 Sc5 3.342055 1_554
Sc11 Sc6 3.342060 1_554
Sc11 Sc3 3.376528 1_555
Co0 Co1 2.273764 1_545
Co0 Sc0 2.530789 1_555
Co0 Sc3 2.530797 1_445
Co0 Sc4 2.698641 1_545
Co0 Sc5 2.698645 1_555
Co0 Sc7 2.698648 1_545
Co0 Sc6 2.698651 1_555
Co0 Sc8 2.915609 1_555
Co0 Sc10 2.915610 1_544
Co1 Sc1 2.530789 1_555
Co1 Sc2 2.530797 1_665
Co1 Sc5 2.698641 1_565
Co1 Sc4 2.698645 1_555
Co1 Sc6 2.698648 1_565
Co1 Sc7 2.698651 1_555
Co1 Sc11 2.915609 1_566
Co1 Sc9 2.915615 1_555
Co2 Co3 2.135158 1_455
Co2 Sc6 2.493958 1_565
Co2 Sc4 2.493965 1_555
Co2 Sc9 2.745218 1_455
Co2 Sc11 2.745222 1_455
Co2 Sc8 2.745222 1_555
Co2 Sc10 2.745223 1_555
Co2 Sc3 3.015148 1_455
Co2 Sc1 3.015153 1_555
Co3 Sc7 2.493958 1_545
Co3 Sc5 2.493965 1_555
Co3 Sc9 2.745214 1_555
Co3 Sc10 2.745219 1_655
Co3 Sc11 2.745222 1_555
Co3 Sc8 2.745222 1_655
Co3 Sc2 3.015148 1_655
Co3 Sc0 3.015153 1_555
Ir0 Sc0 2.704438 1_555
Ir0 Sc1 2.704438 1_444
Ir0 Sc2 2.704445 1_554
Ir0 Sc3 2.704445 1_445
Ir0 Sc8 2.908948 1_555
Ir0 Sc11 2.908948 1_455
Ir0 Sc9 2.908949 1_444
Ir0 Sc10 2.908954 1_544
Pb0 Sc3 3.113285 1_555
Pb0 Sc2 3.113285 1_554
Pb0 Sc1 3.113293 1_554
Pb0 Sc0 3.113293 1_555
Pb0 Sc4 3.176762 1_555
Pb0 Sc5 3.176762 1_554
Pb0 Sc7 3.176767 1_555
Pb0 Sc6 3.176767 1_554
Pb0 Sc10 3.379519 1_554
Pb0 Sc8 3.379525 1_554
Pb0 Sc11 3.379525 1_555
Pb0 Sc9 3.379526 1_555
