# generated using pymatgen
data_Ti3VSi3Rh2
_symmetry_space_group_name_H-M   'P 1'
_cell_length_a   7.35555424
_cell_length_b   7.35542671
_cell_length_c   7.35561044
_cell_angle_alpha   126.78950249
_cell_angle_beta   123.92763482
_cell_angle_gamma   80.96719627
_symmetry_Int_Tables_number   1
_chemical_formula_structural   Ti3VSi3Rh2
_chemical_formula_sum   'Ti6 V2 Si6 Rh4'
_cell_volume   254.86031032
_cell_formula_units_Z   2
loop_
 _symmetry_equiv_pos_site_id
 _symmetry_equiv_pos_as_xyz
  1  'x, y, z'
loop_
 _atom_site_type_symbol
 _atom_site_label
 _atom_site_symmetry_multiplicity
 _atom_site_fract_x
 _atom_site_fract_y
 _atom_site_fract_z
 _atom_site_occupancy
  Ti  Ti0  1  0.96442446  0.73102877  0.26655409  1
  Ti  Ti1  1  0.03552328  0.30213986  0.76662051  1
  Ti  Ti2  1  0.24528454  0.16734830  0.42209303  1
  Ti  Ti3  1  0.75472652  0.17681443  0.92205450  1
  Ti  Ti4  1  0.56159951  0.35235299  0.29070462  1
  Ti  Ti5  1  0.43841641  0.72906705  0.79072237  1
  V  V0  1  0.50002975  0.49532912  0.99534521  1
  V  V1  1  0.99999338  0.49536086  0.49533060  1
  Si  Si0  1  0.78132334  0.79613347  0.51486454  1
  Si  Si1  1  0.21867991  0.73351469  0.01479826  1
  Si  Si2  1  0.34011969  0.07452060  0.75059193  1
  Si  Si3  1  0.65985132  0.41043882  0.73434983  1
  Si  Si4  1  0.17608729  0.41048663  0.25065935  1
  Si  Si5  1  0.82392263  0.07460463  0.23442743  1
  Rh  Rh0  1  0.16318815  0.99979463  0.90904079  1
  Rh  Rh1  1  0.83683661  0.74585378  0.83662624  1
  Rh  Rh2  1  0.40920179  0.74583840  0.40899682  1
  Rh  Rh3  1  0.59079144  0.99977896  0.33661989  1
loop_
_geom_bond_atom_site_label_1
_geom_bond_atom_site_label_2
_geom_bond_distance
_geom_bond_site_symmetry_2
Ti0 V0 2.960365 1_554
Ti0 V1 2.960580 1_555
Ti1 V0 2.961055 1_555
Ti1 V1 2.961134 1_455
Ti2 V0 2.743429 1_555
Ti2 V1 2.743702 1_455
Ti3 V0 2.743287 1_555
Ti3 V1 2.743562 1_556
Ti4 V0 2.742216 1_554
Ti4 V1 2.742432 1_555
Ti5 V0 2.742240 1_555
Ti5 V1 2.742424 1_455
Si0 V1 2.502391 1_555
Si0 V0 2.502731 1_554
Si0 Ti0 2.622037 1_555
Si0 Ti3 2.699353 1_565
Si0 Ti4 2.867237 1_555
Si1 V1 2.502556 1_454
Si1 V0 2.502885 1_554
Si1 Ti1 2.621886 1_554
Si1 Ti2 2.699534 1_565
Si1 Ti5 2.867516 1_554
Si2 V0 2.511987 1_555
Si2 Ti4 2.590353 1_556
Si2 Ti1 2.591776 1_555
Si2 Ti2 2.595445 1_555
Si2 Ti3 2.597608 1_555
Si2 Ti0 2.670441 1_445
Si2 Ti5 2.673878 1_545
Si3 V0 2.512062 1_555
Si3 Ti5 2.590144 1_555
Si3 Ti0 2.591616 1_556
Si3 Ti3 2.595352 1_555
Si3 Ti2 2.597280 1_555
Si3 Ti1 2.670149 1_655
Si3 Ti4 2.673618 1_555
Si4 V1 2.511765 1_455
Si4 Ti5 2.590094 1_555
Si4 Ti0 2.591694 1_455
Si4 Ti3 2.595487 1_454
Si4 Ti2 2.597372 1_555
Si4 Ti1 2.670485 1_554
Si4 Ti4 2.673627 1_555
Si5 V1 2.511679 1_555
Si5 Ti4 2.590183 1_555
Si5 Ti1 2.591723 1_655
Si5 Ti2 2.595566 1_655
Si5 Ti3 2.597504 1_554
Si5 Ti0 2.670760 1_545
Si5 Ti5 2.673745 1_544
Rh0 Si0 2.359674 1_455
Rh0 Si1 2.413984 1_556
Rh0 Si2 2.457492 1_565
Rh0 Si4 2.486075 1_566
Rh0 Ti5 2.728804 1_555
Rh0 Ti4 2.770698 1_566
Rh0 Ti1 2.821601 1_565
Rh0 Ti2 2.871288 1_566
Rh0 V1 2.874891 1_455
Rh0 Rh1 2.885109 1_455
Rh0 Rh3 2.956708 1_556
Rh0 Ti3 3.110418 1_465
Rh0 Ti0 3.222453 1_455
Rh1 Si1 2.359632 1_656
Rh1 Si0 2.413958 1_555
Rh1 Si3 2.457551 1_555
Rh1 Si5 2.486267 1_566
Rh1 Ti4 2.728534 1_555
Rh1 Ti5 2.770699 1_555
Rh1 Ti0 2.821565 1_556
Rh1 Ti3 2.871340 1_565
Rh1 V1 2.875067 1_555
Rh1 Rh2 2.956884 1_555
Rh1 Ti2 3.110303 1_666
Rh1 Ti1 3.222141 1_655
Rh2 Si1 2.359815 1_555
Rh2 Si0 2.414302 1_555
Rh2 Si4 2.457405 1_555
Rh2 Si2 2.485966 1_565
Rh2 Ti4 2.728388 1_555
Rh2 Ti5 2.770971 1_555
Rh2 Ti0 2.821644 1_455
Rh2 Ti3 2.871313 1_565
Rh2 V0 2.875209 1_554
Rh2 Rh3 2.885228 1_555
Rh2 Ti2 3.110231 1_565
Rh2 Ti1 3.221952 1_554
Rh3 Si0 2.359819 1_555
Rh3 Si1 2.414232 1_555
Rh3 Si5 2.457497 1_565
Rh3 Si3 2.485813 1_565
Rh3 Ti5 2.728532 1_554
Rh3 Ti4 2.771066 1_565
Rh3 Ti1 2.821419 1_665
Rh3 Ti2 2.871412 1_565
Rh3 V0 2.874972 1_554
Rh3 Ti3 3.110233 1_565
Rh3 Ti0 3.221997 1_555
