# generated using pymatgen
data_K3Cr3SnO8
_symmetry_space_group_name_H-M   'P 1'
_cell_length_a   6.36726259
_cell_length_b   8.10092740
_cell_length_c   8.82499736
_cell_angle_alpha   93.92422527
_cell_angle_beta   118.07705058
_cell_angle_gamma   95.26205523
_symmetry_Int_Tables_number   1
_chemical_formula_structural   K3Cr3SnO8
_chemical_formula_sum   'K6 Cr6 Sn2 O16'
_cell_volume   396.69766652
_cell_formula_units_Z   2
loop_
 _symmetry_equiv_pos_site_id
 _symmetry_equiv_pos_as_xyz
  1  'x, y, z'
loop_
 _atom_site_type_symbol
 _atom_site_label
 _atom_site_symmetry_multiplicity
 _atom_site_fract_x
 _atom_site_fract_y
 _atom_site_fract_z
 _atom_site_occupancy
  K  K0  1  0.00906913  0.99703639  0.00542732  1
  K  K1  1  0.74047313  0.25785449  0.74604246  1
  K  K2  1  0.49844707  0.47966862  0.50136255  1
  K  K3  1  0.62430627  0.87638890  0.63136180  1
  K  K4  1  0.12545796  0.37573644  0.12041619  1
  K  K5  1  0.23581636  0.74983111  0.23035173  1
  Cr  Cr0  1  0.19623110  0.07011219  0.69382725  1
  Cr  Cr1  1  0.31609219  0.43566701  0.81635474  1
  Cr  Cr2  1  0.44054923  0.81167547  0.93775297  1
  Cr  Cr3  1  0.93823964  0.31229544  0.43747878  1
  Cr  Cr4  1  0.55923594  0.19126182  0.06114194  1
  Cr  Cr5  1  0.68348113  0.55641846  0.17962145  1
  Sn  Sn0  1  0.06231510  0.68409210  0.56875605  1
  Sn  Sn1  1  0.81000783  0.94362845  0.31119483  1
  O  O0  1  0.52931642  0.02986487  0.86260816  1
  O  O1  1  0.64943432  0.40039209  0.98588348  1
  O  O2  1  0.27445001  0.27849160  0.61418669  1
  O  O3  1  0.41076637  0.65086159  0.73942935  1
  O  O4  1  0.90352219  0.16027003  0.23272257  1
  O  O5  1  0.03086584  0.52644867  0.35846190  1
  O  O6  1  0.15997593  0.90353101  0.48718774  1
  O  O7  1  0.22218933  0.22271681  0.88951428  1
  O  O8  1  0.77799918  0.77672678  0.10910071  1
  O  O9  1  0.85173879  0.10151777  0.52071979  1
  O  O10  1  0.96896055  0.46516865  0.64054371  1
  O  O11  1  0.10132126  0.85342261  0.76974559  1
  O  O12  1  0.60163732  0.34991811  0.26217544  1
  O  O13  1  0.70891248  0.71891058  0.38900080  1
  O  O14  1  0.35510316  0.59752753  0.01424324  1
  O  O15  1  0.46407878  0.97256242  0.13338347  1
loop_
_geom_bond_atom_site_label_1
_geom_bond_atom_site_label_2
_geom_bond_distance
_geom_bond_site_symmetry_2
K0 O15 2.600859 1_555
K0 O11 2.639820 1_554
K0 O8 2.682521 1_455
K0 O4 2.700495 1_465
K0 O7 2.708835 1_564
K0 O0 2.749776 1_464
K1 O10 2.616246 1_555
K1 O2 2.655977 1_555
K1 O1 2.663169 1_555
K1 O9 2.684370 1_555
K1 O0 2.717257 1_555
K1 O7 2.765100 1_655
K2 O2 2.610371 1_555
K2 O10 2.668003 1_555
K2 O12 2.668445 1_555
K2 O5 2.708488 1_555
K2 O3 2.737921 1_555
K2 O13 2.751864 1_555
K3 O6 2.650425 1_555
K3 O0 2.651182 1_565
K3 O3 2.664497 1_555
K3 O13 2.707299 1_555
K3 O11 2.719243 1_655
K3 O9 2.732550 1_565
K4 O7 2.654039 1_554
K4 O4 2.669947 1_455
K4 O5 2.690980 1_555
K4 O14 2.698586 1_555
K4 O12 2.717213 1_555
K4 O1 2.718892 1_454
K5 O8 2.627198 1_455
K5 O14 2.636238 1_555
K5 O15 2.646013 1_555
K5 O13 2.704345 1_555
K5 O5 2.737058 1_555
K5 O6 2.770408 1_555
Cr0 O2 1.982235 1_555
Cr0 O7 1.984828 1_555
Cr0 O0 2.010613 1_555
Cr0 O9 2.052102 1_455
Cr0 O11 2.059847 1_545
Cr0 O6 2.099904 1_545
Cr1 O1 2.001386 1_555
Cr1 O14 2.012286 1_556
Cr1 O2 2.014072 1_555
Cr1 O7 2.019136 1_555
Cr1 O3 2.053705 1_555
Cr1 O10 2.066220 1_455
Cr2 O14 2.023375 1_556
Cr2 O8 2.023648 1_556
Cr2 O15 2.028408 1_556
Cr2 O3 2.031378 1_555
Cr2 O11 2.041110 1_555
Cr2 O0 2.052664 1_565
Cr3 O4 2.024893 1_555
Cr3 O10 2.026130 1_555
Cr3 O2 2.028089 1_655
Cr3 O9 2.034348 1_555
Cr3 O12 2.035423 1_555
Cr3 O5 2.051537 1_655
Cr4 O1 1.993910 1_554
Cr4 O12 2.011386 1_555
Cr4 O7 2.014447 1_554
Cr4 O0 2.035202 1_554
Cr4 O4 2.046902 1_555
Cr4 O15 2.057588 1_545
Cr5 O1 1.967954 1_554
Cr5 O14 1.983542 1_555
Cr5 O12 1.991240 1_555
Cr5 O8 2.059670 1_555
Cr5 O5 2.075374 1_655
Cr5 O13 2.125926 1_555
O3 Sn0 2.069546 1_555
O4 Sn1 2.068082 1_545
O5 Sn0 2.096192 1_555
O6 Sn1 2.104101 1_455
O6 Sn0 2.111554 1_555
O8 Sn1 2.080300 1_555
O9 Sn1 2.068103 1_545
O10 Sn0 2.053004 1_655
O11 Sn0 2.068640 1_555
O13 Sn0 2.115894 1_655
O13 Sn1 2.138216 1_555
O15 Sn1 2.064066 1_555
