# generated using pymatgen
data_KZr(RhSe2)4
_symmetry_space_group_name_H-M   'P 1'
_cell_length_a   9.51502620
_cell_length_b   9.51502619
_cell_length_c   8.85158504
_cell_angle_alpha   76.51712498
_cell_angle_beta   76.51712577
_cell_angle_gamma   22.62556900
_symmetry_Int_Tables_number   1
_chemical_formula_structural   KZr(RhSe2)4
_chemical_formula_sum   'K1 Zr1 Rh4 Se8'
_cell_volume   299.45663029
_cell_formula_units_Z   1
loop_
 _symmetry_equiv_pos_site_id
 _symmetry_equiv_pos_as_xyz
  1  'x, y, z'
loop_
 _atom_site_type_symbol
 _atom_site_label
 _atom_site_symmetry_multiplicity
 _atom_site_fract_x
 _atom_site_fract_y
 _atom_site_fract_z
 _atom_site_occupancy
  K  K0  1  0.48036363  0.48036363  0.50985936  1
  Zr  Zr0  1  0.64051460  0.64051460  0.02089795  1
  Rh  Rh0  1  0.01055469  0.01055469  0.99769489  1
  Rh  Rh1  1  0.34405435  0.34405435  0.97789397  1
  Rh  Rh2  1  0.30276802  0.30276802  0.32607077  1
  Rh  Rh3  1  0.70812743  0.70812743  0.67266309  1
  Se  Se0  1  0.43285694  0.43285694  0.14476800  1
  Se  Se1  1  0.91628060  0.91628060  0.83813423  1
  Se  Se2  1  0.83063278  0.83063278  0.48552412  1
  Se  Se3  1  0.76573611  0.76573611  0.15082727  1
  Se  Se4  1  0.23861118  0.23861118  0.84343538  1
  Se  Se5  1  0.17960466  0.17960466  0.50921881  1
  Se  Se6  1  0.07957370  0.07957370  0.21781962  1
  Se  Se7  1  0.57032229  0.57032229  0.80519254  1
loop_
_geom_bond_atom_site_label_1
_geom_bond_atom_site_label_2
_geom_bond_distance
_geom_bond_site_symmetry_2
K0 Se6 3.364173 1_565
K0 Se6 3.364173 1_655
K0 Se2 3.409261 1_545
K0 Se2 3.409261 1_455
K0 Se1 3.421233 1_545
K0 Se1 3.421233 1_455
K0 Se7 3.426164 1_555
K0 Se0 3.548479 1_555
Rh0 Se1 2.504208 1_445
Rh0 Se0 2.526491 1_546
Rh0 Se0 2.526491 1_456
Rh0 Se6 2.578480 1_556
Rh0 Se7 2.593733 1_455
Rh0 Se7 2.593734 1_545
Rh0 Zr0 3.105478 1_456
Rh0 Zr0 3.105478 1_546
Rh1 Se1 2.457206 1_455
Rh1 Se1 2.457206 1_545
Rh1 Se0 2.468146 1_556
Rh1 Se4 2.530139 1_555
Rh1 Se3 2.626594 1_546
Rh1 Se3 2.626594 1_456
Rh2 Se2 2.468873 1_545
Rh2 Se2 2.468873 1_455
Rh2 Se5 2.477568 1_555
Rh2 Se0 2.572081 1_555
Rh2 Se3 2.622462 1_455
Rh2 Se3 2.622462 1_545
Rh3 Se2 2.483728 1_555
Rh3 Se5 2.495276 1_565
Rh3 Se5 2.495276 1_655
Rh3 Se4 2.549766 1_655
Rh3 Se4 2.549766 1_565
Rh3 Se7 2.560109 1_555
Rh3 Zr0 3.040359 1_556
Se3 Zr0 2.839137 1_555
Se4 Zr0 2.816868 1_546
Se4 Zr0 2.816868 1_456
Se6 Zr0 2.621586 1_455
Se6 Zr0 2.621586 1_545
Se7 Zr0 2.559384 1_556
