# generated using pymatgen
data_Lu12Co4SnRh
_symmetry_space_group_name_H-M   'P 1'
_cell_length_a   8.05304540
_cell_length_b   8.05304568
_cell_length_c   8.05304477
_cell_angle_alpha   111.15232732
_cell_angle_beta   110.59064802
_cell_angle_gamma   106.70609794
_symmetry_Int_Tables_number   1
_chemical_formula_structural   Lu12Co4SnRh
_chemical_formula_sum   'Lu12 Co4 Sn1 Rh1'
_cell_volume   401.32191387
_cell_formula_units_Z   1
loop_
 _symmetry_equiv_pos_site_id
 _symmetry_equiv_pos_as_xyz
  1  'x, y, z'
loop_
 _atom_site_type_symbol
 _atom_site_label
 _atom_site_symmetry_multiplicity
 _atom_site_fract_x
 _atom_site_fract_y
 _atom_site_fract_z
 _atom_site_occupancy
  Lu  Lu0  1  0.41259810  0.21495053  0.19764657  1
  Lu  Lu1  1  0.58740190  0.78504947  0.80235343  1
  Lu  Lu2  1  0.01730396  0.21495053  0.80235343  1
  Lu  Lu3  1  0.98269604  0.78504947  0.19764657  1
  Lu  Lu4  1  0.18517807  0.28743066  0.47260973  1
  Lu  Lu5  1  0.81482193  0.71256934  0.52739027  1
  Lu  Lu6  1  0.18517807  0.71256934  0.89774642  1
  Lu  Lu7  1  0.81482193  0.28743066  0.10225358  1
  Lu  Lu8  1  0.31287634  0.61712361  0.30424728  1
  Lu  Lu9  1  0.68712366  0.38287639  0.69575272  1
  Lu  Lu10  1  0.31287634  0.00862906  0.69575272  1
  Lu  Lu11  1  0.68712366  0.99137094  0.30424728  1
  Co  Co0  1  0.37863641  0.00000000  0.37863641  1
  Co  Co1  1  0.62136359  1.00000000  0.62136359  1
  Co  Co2  1  0.11196917  0.61196917  0.50000000  1
  Co  Co3  1  0.88803083  0.38803083  0.50000000  1
  Sn  Sn0  1  0.50000000  0.50000000  0.00000000  1
  Rh  Rh0  1  0.00000000  0.00000000  0.00000000  1
loop_
_geom_bond_atom_site_label_1
_geom_bond_atom_site_label_2
_geom_bond_distance
_geom_bond_site_symmetry_2
Lu0 Rh0 2.748624 1_555
Lu0 Sn0 3.285438 1_555
Lu0 Lu6 3.336470 1_544
Lu0 Lu4 3.336483 1_555
Lu0 Lu7 3.522729 1_555
Lu0 Lu5 3.522739 1_555
Lu1 Rh0 2.748624 1_666
Lu1 Sn0 3.285438 1_556
Lu1 Lu7 3.336470 1_566
Lu1 Lu5 3.336483 1_555
Lu1 Lu6 3.522729 1_555
Lu1 Lu4 3.522739 1_555
Lu2 Rh0 2.748617 1_556
Lu2 Sn0 3.285439 1_556
Lu2 Lu5 3.336471 1_445
Lu2 Lu7 3.336477 1_456
Lu2 Lu4 3.522734 1_555
Lu2 Lu6 3.522744 1_555
Lu3 Rh0 2.748617 1_665
Lu3 Sn0 3.285439 1_555
Lu3 Lu4 3.336471 1_665
Lu3 Lu6 3.336477 1_654
Lu3 Lu5 3.522734 1_555
Lu3 Lu7 3.522744 1_555
Lu4 Rh0 3.119676 1_555
Lu4 Lu7 3.396147 1_455
Lu4 Lu8 3.457444 1_555
Lu4 Sn0 3.475635 1_556
Lu4 Lu9 3.502429 1_555
Lu5 Rh0 3.119676 1_666
Lu5 Lu6 3.396147 1_655
Lu5 Lu9 3.457444 1_555
Lu5 Sn0 3.475635 1_555
Lu5 Lu8 3.502429 1_555
Lu6 Rh0 3.119672 1_566
Lu6 Lu9 3.457439 1_455
Lu6 Sn0 3.475643 1_556
Lu6 Lu8 3.502436 1_556
Lu7 Rh0 3.119672 1_655
Lu7 Lu8 3.457439 1_655
Lu7 Sn0 3.475643 1_555
Lu7 Lu9 3.502436 1_554
Lu8 Sn0 3.302998 1_555
Lu9 Sn0 3.302998 1_556
Lu10 Sn0 3.302998 1_556
Lu10 Lu6 3.457431 1_545
Lu10 Lu5 3.457435 1_445
Lu10 Lu4 3.502424 1_555
Lu10 Lu7 3.502431 1_556
Lu11 Sn0 3.302998 1_555
Lu11 Lu7 3.457431 1_565
Lu11 Lu4 3.457435 1_665
Lu11 Lu5 3.502424 1_555
Lu11 Lu6 3.502431 1_554
Co0 Co1 2.225796 1_545
Co0 Lu3 2.650390 1_445
Co0 Lu0 2.650391 1_555
Co0 Lu10 2.766088 1_555
Co0 Lu9 2.766088 1_555
Co0 Lu11 2.766088 1_545
Co0 Lu8 2.766088 1_545
Co0 Lu4 3.161643 1_555
Co0 Lu6 3.161647 1_544
Co1 Lu2 2.650390 1_665
Co1 Lu1 2.650391 1_555
Co1 Lu11 2.766088 1_555
Co1 Lu8 2.766088 1_555
Co1 Lu10 2.766088 1_565
Co1 Lu9 2.766088 1_565
Co1 Lu5 3.161643 1_555
Co1 Lu7 3.161647 1_566
Co2 Co3 2.152819 1_455
Co2 Lu8 2.628116 1_555
Co2 Lu10 2.628116 1_565
Co2 Lu6 2.790691 1_555
Co2 Lu7 2.790695 1_455
Co2 Lu5 2.790697 1_455
Co2 Lu4 2.790701 1_555
Co2 Lu1 3.233517 1_555
Co2 Lu3 3.233523 1_455
Co3 Lu9 2.628116 1_555
Co3 Lu11 2.628116 1_545
Co3 Lu7 2.790691 1_555
Co3 Lu6 2.790695 1_655
Co3 Lu4 2.790697 1_655
Co3 Lu5 2.790701 1_555
Co3 Lu0 3.233517 1_555
Co3 Lu2 3.233523 1_655
