# generated using pymatgen
data_CaY6Sn23Ir6
_symmetry_space_group_name_H-M   'P 1'
_cell_length_a   9.85003656
_cell_length_b   9.85003727
_cell_length_c   10.01805539
_cell_angle_alpha   90.00000000
_cell_angle_beta   90.00000000
_cell_angle_gamma   120.00000423
_symmetry_Int_Tables_number   1
_chemical_formula_structural   CaY6Sn23Ir6
_chemical_formula_sum   'Ca1 Y6 Sn23 Ir6'
_cell_volume   841.76285591
_cell_formula_units_Z   1
loop_
 _symmetry_equiv_pos_site_id
 _symmetry_equiv_pos_as_xyz
  1  'x, y, z'
loop_
 _atom_site_type_symbol
 _atom_site_label
 _atom_site_symmetry_multiplicity
 _atom_site_fract_x
 _atom_site_fract_y
 _atom_site_fract_z
 _atom_site_occupancy
  Ca  Ca0  1  0.00000000  0.00000000  0.00000000  1
  Y  Y0  1  0.03760507  0.51880204  0.30628159  1
  Y  Y1  1  0.48119796  0.96239493  0.30628159  1
  Y  Y2  1  0.48119796  0.51880204  0.30628159  1
  Y  Y3  1  0.96239493  0.48119796  0.69371841  1
  Y  Y4  1  0.51880204  0.03760507  0.69371841  1
  Y  Y5  1  0.51880204  0.48119796  0.69371841  1
  Sn  Sn0  1  0.00000000  0.00000000  0.50000000  1
  Sn  Sn1  1  0.11646235  0.88353765  0.28375845  1
  Sn  Sn2  1  0.76707530  0.88353765  0.28375845  1
  Sn  Sn3  1  0.11646235  0.23292470  0.28375845  1
  Sn  Sn4  1  0.88353765  0.11646235  0.71624155  1
  Sn  Sn5  1  0.23292470  0.11646235  0.71624155  1
  Sn  Sn6  1  0.88353765  0.76707530  0.71624155  1
  Sn  Sn7  1  0.35215839  0.00000000  0.00000000  1
  Sn  Sn8  1  0.64784161  0.64784161  0.00000000  1
  Sn  Sn9  1  0.00000000  0.35215839  0.00000000  1
  Sn  Sn10  1  0.35215839  0.35215839  0.00000000  1
  Sn  Sn11  1  1.00000000  0.64784161  0.00000000  1
  Sn  Sn12  1  0.64784161  1.00000000  0.00000000  1
  Sn  Sn13  1  0.77774013  0.55548126  0.45882476  1
  Sn  Sn14  1  0.77774013  0.22225987  0.45882476  1
  Sn  Sn15  1  0.44451874  0.22225987  0.45882476  1
  Sn  Sn16  1  0.22225987  0.44451874  0.54117524  1
  Sn  Sn17  1  0.22225987  0.77774013  0.54117524  1
  Sn  Sn18  1  0.55548126  0.77774013  0.54117524  1
  Sn  Sn19  1  0.66666700  0.33333300  0.17124687  1
  Sn  Sn20  1  0.33333300  0.66666700  0.82875313  1
  Sn  Sn21  1  0.66666700  0.33333300  0.88019533  1
  Sn  Sn22  1  0.33333300  0.66666700  0.11980467  1
  Ir  Ir0  1  0.17039728  0.82960272  0.79919956  1
  Ir  Ir1  1  0.65920745  0.82960272  0.79919956  1
  Ir  Ir2  1  0.17039728  0.34079255  0.79919956  1
  Ir  Ir3  1  0.82960272  0.17039728  0.20080044  1
  Ir  Ir4  1  0.34079255  0.17039728  0.20080044  1
  Ir  Ir5  1  0.82960272  0.65920745  0.20080044  1
loop_
_geom_bond_atom_site_label_1
_geom_bond_atom_site_label_2
_geom_bond_distance
_geom_bond_site_symmetry_2
Ca0 Sn2 3.468271 1_445
Ca0 Sn5 3.468271 1_554
Ca0 Sn3 3.468271 1_555
Ca0 Sn6 3.468271 1_444
Ca0 Sn1 3.468271 1_545
Ca0 Sn4 3.468271 1_454
Ca0 Sn10 3.468773 1_555
Ca0 Sn8 3.468773 1_445
Ca0 Sn7 3.468773 1_555
Ca0 Sn12 3.468773 1_445
Ca0 Sn9 3.468773 1_555
Ca0 Sn11 3.468773 1_445
Ca0 Ir4 3.535227 1_555
Ca0 Ir1 3.535227 1_444
Ca0 Ir2 3.535227 1_554
Ca0 Ir5 3.535227 1_445
Ca0 Ir0 3.535241 1_544
Ca0 Ir3 3.535241 1_455
Sn0 Sn5 2.939534 1_555
Sn0 Sn2 2.939534 1_445
Sn0 Sn6 2.939534 1_445
Sn0 Sn3 2.939534 1_555
Sn0 Sn4 2.939534 1_455
Sn0 Sn1 2.939534 1_545
Sn1 Sn17 3.147740 1_555
Sn1 Y1 3.281899 1_555
Sn1 Y0 3.281899 1_555
Sn1 Sn2 3.441475 1_455
Sn1 Sn3 3.441475 1_565
Sn1 Sn7 3.481895 1_565
Sn1 Sn11 3.481895 1_455
Sn2 Y1 3.281889 1_555
Sn2 Y2 3.281896 1_555
Sn2 Sn3 3.441475 1_665
Sn2 Sn8 3.481895 1_555
Sn3 Y0 3.281890 1_555
Sn3 Y2 3.281896 1_555
Sn3 Sn9 3.481895 1_555
Sn4 Y4 3.281899 1_555
Sn4 Y3 3.281899 1_555
Sn4 Sn5 3.441475 1_655
Sn4 Sn6 3.441475 1_545
Sn4 Sn9 3.481895 1_656
Sn5 Y4 3.281889 1_555
Sn5 Y5 3.281896 1_555
Sn5 Sn6 3.441475 1_445
Sn5 Sn7 3.481895 1_556
Sn6 Y3 3.281890 1_555
Sn6 Y5 3.281896 1_555
Sn6 Sn8 3.481895 1_556
Sn7 Y4 3.411493 1_554
Sn7 Y1 3.411497 1_545
Sn8 Y2 3.411495 1_555
Sn8 Y5 3.411495 1_554
Sn9 Y0 3.411493 1_555
Sn9 Y3 3.411497 1_454
Sn10 Sn8 2.912490 1_555
Sn10 Y5 3.411495 1_554
Sn10 Y2 3.411495 1_555
Sn10 Sn21 3.412690 1_554
Sn10 Sn22 3.412690 1_555
Sn10 Sn3 3.481895 1_555
Sn10 Sn5 3.481895 1_554
Sn11 Sn9 2.912491 1_655
Sn11 Y3 3.411493 1_554
Sn11 Y0 3.411497 1_655
Sn11 Sn22 3.412681 1_655
Sn11 Sn21 3.412685 1_554
Sn11 Sn6 3.481895 1_554
Sn12 Sn7 2.912490 1_565
Sn12 Y1 3.411493 1_555
Sn12 Y4 3.411497 1_564
Sn12 Sn21 3.412681 1_564
Sn12 Sn22 3.412685 1_555
Sn12 Sn4 3.481895 1_564
Sn12 Sn2 3.481895 1_555
Sn13 Sn6 3.147735 1_555
Sn13 Y2 3.153177 1_555
Sn13 Y0 3.153194 1_655
Sn13 Y5 3.272904 1_555
Sn13 Y3 3.272905 1_555
Sn13 Sn15 3.282243 1_555
Sn13 Sn14 3.282243 1_555
Sn14 Sn4 3.147740 1_555
Sn14 Y1 3.153184 1_545
Sn14 Y0 3.153184 1_655
Sn14 Y4 3.272904 1_555
Sn14 Y3 3.272904 1_555
Sn14 Sn15 3.282243 1_555
Sn15 Sn5 3.147735 1_555
Sn15 Y2 3.153177 1_555
Sn15 Y1 3.153194 1_545
Sn15 Y5 3.272905 1_555
Sn15 Y4 3.272905 1_555
Sn16 Sn3 3.147735 1_555
Sn16 Y5 3.153177 1_555
Sn16 Y3 3.153194 1_455
Sn16 Y2 3.272904 1_555
Sn16 Y0 3.272905 1_555
Sn16 Sn18 3.282243 1_555
Sn16 Sn17 3.282243 1_555
Sn17 Y4 3.153184 1_565
Sn17 Y3 3.153184 1_455
Sn17 Y1 3.272904 1_555
Sn17 Y0 3.272904 1_555
Sn17 Sn18 3.282243 1_555
Sn18 Sn2 3.147735 1_555
Sn18 Y5 3.153177 1_555
Sn18 Y4 3.153194 1_565
Sn18 Y2 3.272905 1_555
Sn18 Y1 3.272905 1_555
Sn19 Sn21 2.915770 1_554
Sn19 Y0 3.441288 1_655
Sn19 Y1 3.441288 1_545
Sn19 Y2 3.441288 1_555
Sn20 Sn22 2.915770 1_556
Sn20 Y3 3.441288 1_455
Sn20 Y4 3.441288 1_565
Sn20 Y5 3.441288 1_555
Sn21 Y3 3.139077 1_555
Sn21 Y4 3.139078 1_555
Sn21 Y5 3.139091 1_555
Sn21 Sn9 3.412681 1_656
Sn21 Sn7 3.412685 1_556
Sn21 Sn8 3.412690 1_556
Sn22 Y0 3.139077 1_555
Sn22 Y1 3.139078 1_555
Sn22 Y2 3.139091 1_555
Sn22 Sn7 3.412681 1_565
Sn22 Sn9 3.412685 1_555
Sn22 Sn8 3.412690 1_555
Ir0 Sn7 2.657847 1_566
Ir0 Sn11 2.657847 1_456
Ir0 Sn6 2.704375 1_455
Ir0 Sn5 2.704375 1_565
Ir0 Sn17 2.732145 1_555
Ir0 Sn20 2.795530 1_555
Ir0 Y4 3.171818 1_565
Ir0 Y3 3.171818 1_455
Ir1 Sn8 2.657841 1_556
Ir1 Sn12 2.657854 1_556
Ir1 Sn6 2.704357 1_555
Ir1 Sn4 2.704369 1_565
Ir1 Sn18 2.732148 1_555
Ir1 Sn20 2.795556 1_555
Ir1 Y5 3.171815 1_555
Ir1 Y4 3.171840 1_565
Ir2 Sn10 2.657841 1_556
Ir2 Sn9 2.657854 1_556
Ir2 Sn5 2.704357 1_555
Ir2 Sn4 2.704369 1_455
Ir2 Sn16 2.732148 1_555
Ir2 Sn20 2.795556 1_555
Ir2 Y5 3.171815 1_555
Ir2 Y3 3.171840 1_455
Ir3 Sn12 2.657847 1_545
Ir3 Sn9 2.657847 1_655
Ir3 Sn3 2.704375 1_655
Ir3 Sn2 2.704375 1_545
Ir3 Sn14 2.732145 1_555
Ir3 Sn19 2.795530 1_555
Ir3 Y1 3.171818 1_545
Ir3 Y0 3.171818 1_655
Ir4 Sn10 2.657841 1_555
Ir4 Sn7 2.657854 1_555
Ir4 Sn3 2.704357 1_555
Ir4 Sn1 2.704369 1_545
Ir4 Sn15 2.732148 1_555
Ir4 Sn19 2.795556 1_555
Ir4 Y2 3.171815 1_555
Ir4 Y1 3.171840 1_545
Ir5 Sn8 2.657841 1_555
Ir5 Sn11 2.657854 1_555
Ir5 Sn2 2.704357 1_555
Ir5 Sn1 2.704369 1_655
Ir5 Sn13 2.732148 1_555
Ir5 Sn19 2.795556 1_555
Ir5 Y2 3.171815 1_555
Ir5 Y0 3.171840 1_655
