# generated using pymatgen
data_Y4Mg4CuIr3
_symmetry_space_group_name_H-M   'P 1'
_cell_length_a   4.11603862
_cell_length_b   7.07185950
_cell_length_c   8.54174605
_cell_angle_alpha   88.82409081
_cell_angle_beta   90.00000000
_cell_angle_gamma   90.00000000
_symmetry_Int_Tables_number   1
_chemical_formula_structural   Y4Mg4CuIr3
_chemical_formula_sum   'Y4 Mg4 Cu1 Ir3'
_cell_volume   248.58118200
_cell_formula_units_Z   1
loop_
 _symmetry_equiv_pos_site_id
 _symmetry_equiv_pos_as_xyz
  1  'x, y, z'
loop_
 _atom_site_type_symbol
 _atom_site_label
 _atom_site_symmetry_multiplicity
 _atom_site_fract_x
 _atom_site_fract_y
 _atom_site_fract_z
 _atom_site_occupancy
  Y  Y0  1  0.25000000  0.53759992  0.17717302  1
  Y  Y1  1  0.75000000  0.47236148  0.83409428  1
  Y  Y2  1  0.75000000  0.94840387  0.67499452  1
  Y  Y3  1  0.25000000  0.03151418  0.31574282  1
  Mg  Mg0  1  0.25000000  0.63764412  0.55792788  1
  Mg  Mg1  1  0.75000000  0.36204583  0.44180236  1
  Mg  Mg2  1  0.75000000  0.86604937  0.05726643  1
  Mg  Mg3  1  0.25000000  0.13688981  0.94261492  1
  Cu  Cu0  1  0.25000000  0.25432990  0.62952963  1
  Ir  Ir0  1  0.25000000  0.75487890  0.86692939  1
  Ir  Ir1  1  0.75000000  0.24984350  0.12936465  1
  Ir  Ir2  1  0.75000000  0.74843912  0.37256110  1
loop_
_geom_bond_atom_site_label_1
_geom_bond_atom_site_label_2
_geom_bond_distance
_geom_bond_site_symmetry_2
Cu0 Mg1 2.708662 1_455
Cu0 Mg1 2.708662 1_555
Cu0 Mg0 2.766613 1_555
Cu0 Mg3 2.783964 1_555
Cu0 Y2 3.005388 1_545
Cu0 Y2 3.005388 1_445
Cu0 Y1 3.126762 1_555
Cu0 Y1 3.126762 1_455
Cu0 Y3 3.136907 1_555
Ir0 Mg2 2.747589 1_456
Ir0 Mg2 2.747589 1_556
Ir0 Mg0 2.782744 1_555
Ir0 Mg3 2.790677 1_565
Ir0 Y1 2.885967 1_455
Ir0 Y1 2.885967 1_555
Ir0 Y2 2.950287 1_555
Ir0 Y2 2.950287 1_455
Ir0 Y0 3.035873 1_556
Ir1 Mg3 2.733199 1_654
Ir1 Mg3 2.733199 1_554
Ir1 Mg2 2.795428 1_545
Ir1 Mg1 2.799790 1_555
Ir1 Y0 2.928725 1_655
Ir1 Y0 2.928725 1_555
Ir1 Y1 2.945247 1_554
Ir1 Y3 3.008807 1_555
Ir1 Y3 3.008807 1_655
Ir2 Mg0 2.702860 1_555
Ir2 Mg0 2.702860 1_655
Ir2 Mg1 2.783906 1_555
Ir2 Mg2 2.802316 1_555
Ir2 Y3 2.904924 1_565
Ir2 Y3 2.904924 1_665
Ir2 Y2 2.970382 1_555
Ir2 Y0 3.057147 1_655
Ir2 Y0 3.057147 1_555
