# generated using pymatgen
data_Ti4Re14Tc10Sn
_symmetry_space_group_name_H-M   'P 1'
_cell_length_a   8.32255372
_cell_length_b   8.32255287
_cell_length_c   8.31511619
_cell_angle_alpha   109.49278997
_cell_angle_beta   109.49279690
_cell_angle_gamma   109.55412459
_symmetry_Int_Tables_number   1
_chemical_formula_structural   Ti4Re14Tc10Sn
_chemical_formula_sum   'Ti4 Re14 Tc10 Sn1'
_cell_volume   442.67198300
_cell_formula_units_Z   1
loop_
 _symmetry_equiv_pos_site_id
 _symmetry_equiv_pos_as_xyz
  1  'x, y, z'
loop_
 _atom_site_type_symbol
 _atom_site_label
 _atom_site_symmetry_multiplicity
 _atom_site_fract_x
 _atom_site_fract_y
 _atom_site_fract_z
 _atom_site_occupancy
  Ti  Ti0  1  0.63013910  0.99967098  0.99990063  1
  Ti  Ti1  1  0.99967098  0.63013910  0.99990063  1
  Ti  Ti2  1  0.99959643  0.99959643  0.62996928  1
  Ti  Ti3  1  0.36938732  0.36938732  0.36842384  1
  Re  Re0  1  0.28125096  0.60184310  0.60170989  1
  Re  Re1  1  0.60184310  0.28125096  0.60170989  1
  Re  Re2  1  0.37763885  0.19518965  0.00013380  1
  Re  Re3  1  0.18138015  0.80534028  0.80534125  1
  Re  Re4  1  0.37766264  0.00097181  0.19568247  1
  Re  Re5  1  0.19518965  0.37763885  0.00013380  1
  Re  Re6  1  0.00097181  0.37766264  0.19568247  1
  Re  Re7  1  0.80534028  0.18138015  0.80534125  1
  Re  Re8  1  0.80475889  0.80475889  0.18250329  1
  Re  Re9  1  0.00053646  0.19494659  0.37783712  1
  Re  Re10  1  0.19494659  0.00053646  0.37783712  1
  Re  Re11  1  0.62190852  0.62190852  0.81702597  1
  Re  Re12  1  0.81594025  0.62189461  0.62151156  1
  Re  Re13  1  0.62189461  0.81594025  0.62151156  1
  Tc  Tc0  1  0.39860441  0.68123207  0.00063170  1
  Tc  Tc1  1  0.71892720  0.31966571  0.31880460  1
  Tc  Tc2  1  0.39899864  0.00073914  0.68077370  1
  Tc  Tc3  1  0.68123207  0.39860441  0.00063170  1
  Tc  Tc4  1  0.00073914  0.39899864  0.68077370  1
  Tc  Tc5  1  0.31966571  0.71892720  0.31880460  1
  Tc  Tc6  1  0.31969393  0.31969393  0.71959918  1
  Tc  Tc7  1  0.00057106  0.68035128  0.39844558  1
  Tc  Tc8  1  0.68035128  0.00057106  0.39844558  1
  Tc  Tc9  1  0.60166984  0.60166984  0.28136596  1
  Sn  Sn0  1  0.99949111  0.99949111  0.99956788  1
loop_
_geom_bond_atom_site_label_1
_geom_bond_atom_site_label_2
_geom_bond_distance
_geom_bond_site_symmetry_2
Re0 Re3 2.528621 1_555
Re0 Re13 2.711201 1_555
Re0 Re11 2.714280 1_555
Re0 Ti3 2.727390 1_555
Re0 Tc4 2.803424 1_555
Re0 Tc7 2.804305 1_555
Re0 Re6 2.819172 1_555
Re0 Re9 2.825909 1_555
Re0 Tc0 2.887340 1_556
Re0 Tc2 2.889558 1_565
Re0 Tc6 2.899506 1_555
Re0 Tc5 2.899770 1_555
Re0 Ti0 3.191946 1_555
Re1 Re7 2.528621 1_555
Re1 Re12 2.711201 1_555
Re1 Re11 2.714280 1_555
Re1 Ti3 2.727390 1_555
Re1 Tc2 2.803424 1_555
Re1 Tc8 2.804305 1_555
Re1 Re4 2.819172 1_555
Re1 Re10 2.825909 1_555
Re1 Tc3 2.887340 1_556
Re1 Tc4 2.889558 1_655
Re1 Tc6 2.899506 1_555
Re1 Tc1 2.899770 1_555
Re1 Ti1 3.191946 1_555
Re2 Re5 2.480875 1_555
Re2 Tc3 2.524899 1_555
Re2 Re3 2.645396 1_544
Re2 Re4 2.647765 1_555
Re2 Tc1 2.708823 1_555
Re2 Tc2 2.709598 1_554
Re2 Tc6 2.818601 1_554
Re2 Tc9 2.824461 1_555
Re2 Ti3 2.954439 1_555
Re2 Ti2 2.964386 1_444
Re2 Sn0 3.018464 1_444
Re2 Ti0 3.058353 1_544
Re3 Re4 2.647361 1_566
Re3 Tc0 2.717039 1_556
Re3 Tc2 2.720705 1_565
Re3 Tc4 2.826544 1_555
Re3 Tc7 2.828305 1_555
Re3 Ti1 2.959954 1_455
Re3 Ti2 2.960978 1_455
Re3 Sn0 3.006340 1_455
Re3 Ti0 3.059390 1_555
Re4 Tc8 2.522604 1_555
Re4 Tc1 2.711890 1_555
Re4 Tc0 2.713084 1_545
Re4 Tc5 2.822448 1_545
Re4 Ti3 2.955906 1_555
Re4 Ti1 2.966759 1_444
Re4 Sn0 3.016715 1_444
Re4 Ti0 3.058097 1_544
Re5 Tc0 2.524899 1_555
Re5 Re7 2.645396 1_454
Re5 Re6 2.647765 1_555
Re5 Tc5 2.708823 1_555
Re5 Tc4 2.709598 1_554
Re5 Tc6 2.818601 1_554
Re5 Tc9 2.824461 1_555
Re5 Ti3 2.954438 1_555
Re5 Ti2 2.964386 1_444
Re5 Sn0 3.018463 1_444
Re5 Ti1 3.058352 1_454
Re6 Re9 2.478643 1_555
Re6 Tc7 2.522604 1_555
Re6 Re7 2.647361 1_454
Re6 Tc5 2.711890 1_555
Re6 Tc3 2.713084 1_455
Re6 Tc1 2.822449 1_455
Re6 Ti3 2.955906 1_555
Re6 Ti0 2.966759 1_444
Re6 Sn0 3.016715 1_444
Re6 Ti1 3.058097 1_454
Re7 Tc3 2.717039 1_556
Re7 Tc4 2.720705 1_655
Re7 Tc2 2.826544 1_555
Re7 Tc8 2.828305 1_555
Re7 Ti0 2.959954 1_545
Re7 Ti2 2.960978 1_545
Re7 Sn0 3.006340 1_545
Re7 Ti1 3.059390 1_555
Re8 Tc9 2.516283 1_555
Re8 Re9 2.647678 1_665
Re8 Tc7 2.714645 1_655
Re8 Tc8 2.714645 1_565
Re8 Tc3 2.827474 1_555
Re8 Tc0 2.827474 1_555
Re8 Ti0 2.966156 1_554
Re8 Ti1 2.966157 1_554
Re8 Sn0 3.016498 1_554
Re8 Ti2 3.047874 1_555
Re9 Tc4 2.523784 1_555
Re9 Tc8 2.711346 1_455
Re9 Tc6 2.712280 1_555
Re9 Tc1 2.830553 1_455
Re9 Ti3 2.964844 1_555
Re9 Ti0 2.965220 1_444
Re9 Sn0 3.016133 1_444
Re9 Ti2 3.052192 1_445
Re10 Re4 2.478643 1_555
Re10 Tc2 2.523784 1_555
Re10 Re9 2.643515 1_555
Re10 Re8 2.647678 1_445
Re10 Tc7 2.711346 1_545
Re10 Tc6 2.712280 1_555
Re10 Tc5 2.830553 1_545
Re10 Ti3 2.964844 1_555
Re10 Ti1 2.965220 1_444
Re10 Sn0 3.016133 1_444
Re10 Ti2 3.052192 1_445
Re11 Re8 2.478726 1_556
Re11 Tc6 2.520772 1_555
Re11 Re13 2.646269 1_555
Re11 Re12 2.646270 1_555
Re11 Tc3 2.834287 1_556
Re11 Tc0 2.834287 1_556
Re11 Ti0 2.966000 1_555
Re11 Ti1 2.966000 1_555
Re11 Sn0 3.012827 1_555
Re11 Ti3 3.054108 1_555
Re12 Re3 2.479750 1_655
Re12 Tc1 2.524524 1_555
Re12 Re13 2.638559 1_555
Re12 Tc9 2.706152 1_555
Re12 Tc7 2.835859 1_655
Re12 Tc4 2.839654 1_655
Re12 Ti2 2.964276 1_555
Re12 Ti1 2.969387 1_555
Re12 Sn0 3.013322 1_555
Re12 Ti3 3.042685 1_555
Re13 Re7 2.479750 1_565
Re13 Tc5 2.524524 1_555
Re13 Tc9 2.706152 1_555
Re13 Tc8 2.835859 1_565
Re13 Tc2 2.839654 1_565
Re13 Ti2 2.964277 1_555
Re13 Ti0 2.969387 1_555
Re13 Sn0 3.013322 1_555
Re13 Ti3 3.042685 1_555
Tc0 Ti0 2.708682 1_554
Tc0 Tc9 2.809195 1_555
Tc0 Tc6 2.811783 1_554
Tc0 Tc5 2.876368 1_555
Tc0 Tc8 2.878977 1_565
Tc0 Tc4 2.881382 1_554
Tc0 Ti1 3.200620 1_454
Tc1 Ti0 2.707789 1_544
Tc1 Tc7 2.805561 1_655
Tc1 Tc4 2.814573 1_655
Tc1 Tc3 2.876368 1_555
Tc1 Tc8 2.887751 1_555
Tc1 Tc9 2.894075 1_555
Tc1 Ti3 3.208897 1_555
Tc2 Ti0 2.713406 1_545
Tc2 Tc5 2.814573 1_545
Tc2 Tc3 2.881382 1_556
Tc2 Tc7 2.885335 1_545
Tc2 Tc6 2.886068 1_555
Tc2 Ti2 3.204192 1_445
Tc3 Ti1 2.708682 1_554
Tc3 Tc9 2.809195 1_555
Tc3 Tc6 2.811783 1_554
Tc3 Tc7 2.878977 1_655
Tc3 Ti0 3.200619 1_544
Tc4 Ti1 2.713406 1_455
Tc4 Tc8 2.885335 1_455
Tc4 Tc6 2.886068 1_555
Tc4 Ti2 3.204191 1_445
Tc5 Ti1 2.707789 1_454
Tc5 Tc8 2.805561 1_565
Tc5 Tc7 2.887751 1_555
Tc5 Tc9 2.894075 1_555
Tc5 Ti3 3.208896 1_555
Tc6 Ti2 2.710853 1_445
Tc6 Ti3 3.219675 1_555
Tc7 Ti2 2.716023 1_455
Tc7 Tc9 2.891453 1_455
Tc7 Ti1 3.195941 1_454
Tc8 Ti2 2.716023 1_545
Tc8 Tc9 2.891453 1_545
Tc8 Ti0 3.195941 1_544
Tc9 Ti3 2.713789 1_555
Tc9 Ti2 3.191058 1_555
Sn0 Ti3 3.068309 1_666
Sn0 Ti2 3.073840 1_555
Sn0 Ti1 3.075377 1_555
Sn0 Ti0 3.075377 1_555
