# generated using pymatgen
data_Li4Al2ZnHg
_symmetry_space_group_name_H-M   'P 1'
_cell_length_a   7.67485003
_cell_length_b   7.67485070
_cell_length_c   7.67485149
_cell_angle_alpha   33.61127289
_cell_angle_beta   33.61126371
_cell_angle_gamma   33.61127071
_symmetry_Int_Tables_number   1
_chemical_formula_structural   Li4Al2ZnHg
_chemical_formula_sum   'Li4 Al2 Zn1 Hg1'
_cell_volume   123.39950903
_cell_formula_units_Z   1
loop_
 _symmetry_equiv_pos_site_id
 _symmetry_equiv_pos_as_xyz
  1  'x, y, z'
loop_
 _atom_site_type_symbol
 _atom_site_label
 _atom_site_symmetry_multiplicity
 _atom_site_fract_x
 _atom_site_fract_y
 _atom_site_fract_z
 _atom_site_occupancy
  Li  Li0  1  0.12577473  0.12577473  0.12577473  1
  Li  Li1  1  0.62429730  0.62429730  0.62429730  1
  Li  Li2  1  0.00220848  0.00220848  0.00220848  1
  Li  Li3  1  0.49756856  0.49756856  0.49756856  1
  Al  Al0  1  0.74723731  0.74723731  0.74723731  1
  Al  Al1  1  0.25307854  0.25307854  0.25307854  1
  Zn  Zn0  1  0.37512987  0.37512987  0.37512987  1
  Hg  Hg0  1  0.87470621  0.87470621  0.87470621  1
loop_
_geom_bond_atom_site_label_1
_geom_bond_atom_site_label_2
_geom_bond_distance
_geom_bond_site_symmetry_2
Li0 Li2 2.681822 1_555
Li0 Li3 2.694818 1_554
Li0 Li3 2.694818 1_455
Li0 Li3 2.694818 1_545
Li1 Li2 2.738854 1_665
Li1 Li2 2.738854 1_566
Li1 Li2 2.738854 1_656
Li1 Li3 2.750459 1_555
Li2 Zn0 2.702498 1_554
Li2 Zn0 2.702498 1_455
Li2 Zn0 2.702499 1_545
Li3 Zn0 2.657350 1_555
Al0 Li1 2.668230 1_555
Al0 Zn0 2.696934 1_556
Al0 Zn0 2.696934 1_655
Al0 Zn0 2.696934 1_565
Al0 Li0 2.743684 1_665
Al0 Li0 2.743684 1_566
Al0 Li0 2.743685 1_656
Al0 Hg0 2.766523 1_555
Al1 Zn0 2.648943 1_555
Al1 Li1 2.690978 1_554
Al1 Li1 2.690978 1_455
Al1 Li1 2.690978 1_545
Al1 Hg0 2.742405 1_445
Al1 Hg0 2.742405 1_544
Al1 Hg0 2.742406 1_454
Al1 Li0 2.762940 1_555
Hg0 Li3 2.732968 1_556
Hg0 Li3 2.732968 1_655
Hg0 Li3 2.732969 1_565
Hg0 Li2 2.767247 1_666
