# generated using pymatgen
data_TiNi2Sn
_symmetry_space_group_name_H-M   'P 1'
_cell_length_a   4.32332723
_cell_length_b   4.32332723
_cell_length_c   4.32332723
_cell_angle_alpha   60.00000000
_cell_angle_beta   60.00000000
_cell_angle_gamma   60.00000000
_symmetry_Int_Tables_number   1
_chemical_formula_structural   TiNi2Sn
_chemical_formula_sum   'Ti1 Ni2 Sn1'
_cell_volume   57.13988030
_cell_formula_units_Z   1
loop_
 _symmetry_equiv_pos_site_id
 _symmetry_equiv_pos_as_xyz
  1  'x, y, z'
loop_
 _atom_site_type_symbol
 _atom_site_label
 _atom_site_symmetry_multiplicity
 _atom_site_fract_x
 _atom_site_fract_y
 _atom_site_fract_z
 _atom_site_occupancy
  Ti  Ti0  1  0.50000000  0.50000000  0.50000000  1
  Ni  Ni0  1  0.75000000  0.75000000  0.75000000  1
  Ni  Ni1  1  0.25000000  0.25000000  0.25000000  1
  Sn  Sn0  1  0.00000000  0.00000000  0.00000000  1
loop_
_geom_bond_atom_site_label_1
_geom_bond_atom_site_label_2
_geom_bond_distance
_geom_bond_site_symmetry_2
Ni0 Sn0 2.647486 1_566
Ni0 Ti0 2.647486 1_655
Ni0 Ti0 2.647486 1_555
Ni0 Ti0 2.647486 1_565
Ni0 Sn0 2.647486 1_665
Ni0 Sn0 2.647486 1_656
Ni0 Sn0 2.647486 1_666
Ni0 Ti0 2.647486 1_556
Ni1 Sn0 2.647486 1_655
Ni1 Ti0 2.647486 1_455
Ni1 Sn0 2.647486 1_555
Ni1 Ti0 2.647486 1_555
Ni1 Ti0 2.647486 1_545
Ni1 Ti0 2.647486 1_554
Ni1 Sn0 2.647486 1_556
Ni1 Sn0 2.647486 1_565
Sn0 Ti0 3.057054 1_545
Sn0 Ti0 3.057054 1_554
Sn0 Ti0 3.057054 1_445
Sn0 Ti0 3.057054 1_455
Sn0 Ti0 3.057054 1_544
Sn0 Ti0 3.057054 1_454
