# generated using pymatgen
data_LiInSe2
_symmetry_space_group_name_H-M   'P 1'
_cell_length_a   6.89767991
_cell_length_b   6.89767991
_cell_length_c   6.89767991
_cell_angle_alpha   131.49898286
_cell_angle_beta   131.49898286
_cell_angle_gamma   71.02148941
_symmetry_Int_Tables_number   1
_chemical_formula_structural   LiInSe2
_chemical_formula_sum   'Li2 In2 Se4'
_cell_volume   180.26168279
_cell_formula_units_Z   2
loop_
 _symmetry_equiv_pos_site_id
 _symmetry_equiv_pos_as_xyz
  1  'x, y, z'
loop_
 _atom_site_type_symbol
 _atom_site_label
 _atom_site_symmetry_multiplicity
 _atom_site_fract_x
 _atom_site_fract_y
 _atom_site_fract_z
 _atom_site_occupancy
  Li  Li0  1  0.00000000  0.00000000  0.00000000  1
  Li  Li1  1  0.75000000  0.25000000  0.50000000  1
  In  In0  1  0.50000000  0.50000000  0.00000000  1
  In  In1  1  0.25000000  0.75000000  0.50000000  1
  Se  Se0  1  0.01077000  0.51077000  0.50000000  1
  Se  Se1  1  0.73923000  0.73923000  0.00000000  1
  Se  Se2  1  0.48923000  0.98923000  0.50000000  1
  Se  Se3  1  0.26077000  0.26077000  0.00000000  1
loop_
_geom_bond_atom_site_label_1
_geom_bond_atom_site_label_2
_geom_bond_distance
_geom_bond_site_symmetry_2
Li0 Se2 2.835643 1_444
Li0 Se2 2.835643 1_545
Li0 Se0 2.835643 1_555
Li0 Se0 2.835643 1_544
Li0 Se1 2.928320 1_445
Li0 Se3 2.928320 1_555
Li1 Se1 2.835643 1_545
Li1 Se3 2.835643 1_656
Li1 Se3 2.835643 1_555
Li1 Se1 2.835643 1_556
Li1 Se2 2.928320 1_545
Li1 Se0 2.928320 1_655
In0 Se3 2.686437 1_555
In0 Se1 2.686437 1_555
In0 Se0 2.835643 1_655
In0 Se0 2.835643 1_554
In0 Se2 2.835643 1_544
In0 Se2 2.835643 1_555
In1 Se2 2.686437 1_555
In1 Se0 2.686437 1_555
In1 Se3 2.835643 1_566
In1 Se1 2.835643 1_455
In1 Se3 2.835643 1_555
In1 Se1 2.835643 1_556
