# generated using pymatgen
data_Lu12In2Tc3
_symmetry_space_group_name_H-M   'P 1'
_cell_length_a   8.24116350
_cell_length_b   8.24116414
_cell_length_c   8.24116382
_cell_angle_alpha   108.89462230
_cell_angle_beta   108.89462815
_cell_angle_gamma   110.63066972
_symmetry_Int_Tables_number   1
_chemical_formula_structural   Lu12In2Tc3
_chemical_formula_sum   'Lu12 In2 Tc3'
_cell_volume   430.73487935
_cell_formula_units_Z   1
loop_
 _symmetry_equiv_pos_site_id
 _symmetry_equiv_pos_as_xyz
  1  'x, y, z'
loop_
 _atom_site_type_symbol
 _atom_site_label
 _atom_site_symmetry_multiplicity
 _atom_site_fract_x
 _atom_site_fract_y
 _atom_site_fract_z
 _atom_site_occupancy
  Lu  Lu0  1  0.30465837  0.30465837  0.60931775  1
  Lu  Lu1  1  0.69534163  0.69534163  0.39068225  1
  Lu  Lu2  1  0.69534163  0.30465837  1.00000000  1
  Lu  Lu3  1  0.30465837  0.69534163  0.00000000  1
  Lu  Lu4  1  0.18867982  0.42862637  0.23994655  1
  Lu  Lu5  1  0.81132018  0.57137363  0.76005345  1
  Lu  Lu6  1  0.18867982  0.94873226  0.76005345  1
  Lu  Lu7  1  0.94873226  0.18867982  0.76005345  1
  Lu  Lu8  1  0.81132018  0.05126774  0.23994655  1
  Lu  Lu9  1  0.05126774  0.81132018  0.23994655  1
  Lu  Lu10  1  0.42862637  0.18867982  0.23994655  1
  Lu  Lu11  1  0.57137363  0.81132018  0.76005345  1
  In  In0  1  0.00000000  0.50000000  0.50000000  1
  In  In1  1  0.50000000  0.00000000  0.50000000  1
  Tc  Tc0  1  0.37316570  0.37316570  1.00000000  1
  Tc  Tc1  1  0.62683430  0.62683430  0.00000000  1
  Tc  Tc2  1  0.00000000  0.00000000  0.00000000  1
loop_
_geom_bond_atom_site_label_1
_geom_bond_atom_site_label_2
_geom_bond_distance
_geom_bond_site_symmetry_2
Lu0 Tc0 2.902520 1_555
Lu0 Tc1 2.902524 1_556
Lu0 Lu8 3.470075 1_455
Lu0 Lu9 3.470076 1_545
Lu0 Lu4 3.470079 1_555
Lu0 Lu10 3.470080 1_555
Lu0 Lu7 3.494838 1_455
Lu0 Lu6 3.494838 1_545
Lu0 Lu5 3.494838 1_555
Lu0 Lu11 3.494839 1_555
Lu1 Tc1 2.902520 1_555
Lu1 Tc0 2.902524 1_554
Lu1 Lu6 3.470075 1_655
Lu1 Lu7 3.470076 1_565
Lu1 Lu5 3.470079 1_555
Lu1 Lu11 3.470080 1_555
Lu1 Lu9 3.494838 1_655
Lu1 Lu8 3.494838 1_565
Lu1 Lu4 3.494838 1_555
Lu1 Lu10 3.494839 1_555
Lu2 Tc0 2.902528 1_555
Lu2 Tc1 2.902528 1_556
Lu2 Lu8 3.470065 1_556
Lu2 Lu7 3.470065 1_555
Lu2 Lu4 3.470072 1_656
Lu2 Lu5 3.494837 1_555
Lu2 Lu6 3.494838 1_545
Lu2 Lu9 3.494839 1_656
Lu3 Tc1 2.902528 1_555
Lu3 Tc0 2.902528 1_554
Lu3 Lu6 3.470065 1_554
Lu3 Lu9 3.470065 1_555
Lu3 Lu5 3.470072 1_454
Lu3 Lu4 3.494837 1_555
Lu3 Lu8 3.494838 1_565
Lu3 Lu7 3.494839 1_454
Lu4 Tc0 2.877882 1_554
Lu4 Tc2 2.901704 1_555
Lu4 Lu7 3.252082 1_454
Lu4 Lu8 3.539412 1_455
Lu4 Lu9 3.707551 1_555
Lu5 Tc1 2.877882 1_556
Lu5 Tc2 2.901704 1_666
Lu5 Lu9 3.252082 1_656
Lu5 Lu6 3.539412 1_655
Lu5 Lu7 3.707551 1_555
Lu6 Tc0 2.877888 1_565
Lu6 Tc2 2.901705 1_566
Lu6 Lu7 3.252095 1_465
Lu6 Lu9 3.707559 1_555
Lu7 Tc0 2.877888 1_655
Lu7 Tc2 2.901705 1_656
Lu7 Lu8 3.707559 1_555
Lu8 Tc1 2.877888 1_545
Lu8 Tc2 2.901705 1_655
Lu8 Lu9 3.252095 1_645
Lu9 Tc1 2.877888 1_455
Lu9 Tc2 2.901705 1_565
Lu10 Tc0 2.877882 1_554
Lu10 Tc2 2.901704 1_555
Lu10 Lu4 3.252082 1_555
Lu10 Lu6 3.252082 1_544
Lu10 Lu3 3.470073 1_545
Lu10 Lu2 3.494837 1_554
Lu10 Lu9 3.539412 1_545
Lu10 Lu8 3.707551 1_555
Lu10 Lu5 3.707556 1_555
Lu11 Tc1 2.877882 1_556
Lu11 Tc2 2.901704 1_666
Lu11 Lu5 3.252082 1_555
Lu11 Lu8 3.252082 1_566
Lu11 Lu2 3.470073 1_565
Lu11 Lu3 3.494837 1_556
Lu11 Lu7 3.539412 1_565
Lu11 Lu6 3.707551 1_555
Lu11 Lu4 3.707556 1_555
In0 Lu6 3.056668 1_555
In0 Lu8 3.056668 1_455
In0 Lu5 3.056675 1_455
In0 Lu4 3.056675 1_555
In0 Lu3 3.468377 1_556
In0 Lu2 3.468377 1_454
In0 Lu0 3.468378 1_555
In0 Lu1 3.468378 1_455
In0 Lu11 3.838986 1_555
In0 Lu10 3.838986 1_455
In0 Lu9 3.838987 1_555
In0 Lu7 3.838987 1_455
In1 Lu9 3.056668 1_545
In1 Lu7 3.056668 1_555
In1 Lu11 3.056675 1_545
In1 Lu10 3.056675 1_555
In1 Lu2 3.468377 1_555
In1 Lu3 3.468377 1_545
In1 Lu0 3.468378 1_555
In1 Lu1 3.468378 1_545
In1 Lu5 3.838987 1_555
In1 Lu4 3.838987 1_545
In1 Lu8 3.838987 1_555
In1 Lu6 3.838987 1_545
Tc0 Tc1 2.379265 1_556
