# generated using pymatgen
data_Ta2Be3Ga
_symmetry_space_group_name_H-M   'P 1'
_cell_length_a   4.71089741
_cell_length_b   4.71089687
_cell_length_c   4.72106566
_cell_angle_alpha   89.99999768
_cell_angle_beta   60.07123650
_cell_angle_gamma   119.99999927
_symmetry_Int_Tables_number   1
_chemical_formula_structural   Ta2Be3Ga
_chemical_formula_sum   'Ta2 Be3 Ga1'
_cell_volume   74.16501098
_cell_formula_units_Z   1
loop_
 _symmetry_equiv_pos_site_id
 _symmetry_equiv_pos_as_xyz
  1  'x, y, z'
loop_
 _atom_site_type_symbol
 _atom_site_label
 _atom_site_symmetry_multiplicity
 _atom_site_fract_x
 _atom_site_fract_y
 _atom_site_fract_z
 _atom_site_occupancy
  Ta  Ta0  1  0.50273072  0.75136536  0.74590392  1
  Ta  Ta1  1  0.99726928  0.99863464  0.00409608  1
  Be  Be0  1  0.25000000  0.37500000  0.37500000  1
  Be  Be1  1  0.25000000  0.87500000  0.37500000  1
  Be  Be2  1  0.75000000  0.37500000  0.37500000  1
  Ga  Ga0  1  0.75000000  0.37500000  0.87500000  1
loop_
_geom_bond_atom_site_label_1
_geom_bond_atom_site_label_2
_geom_bond_distance
_geom_bond_site_symmetry_2
Ta0 Ta1 2.862547 1_555
Ta0 Ta1 2.896583 1_556
Ta0 Ta1 2.896583 1_446
Ta0 Ta1 2.896584 1_456
Be0 Be1 2.355448 1_555
Be0 Be1 2.355448 1_545
Be0 Be2 2.355449 1_555
Be0 Be2 2.355449 1_455
Be0 Ga0 2.360533 1_455
Be0 Ga0 2.360533 1_554
Be0 Ta0 2.756208 1_555
Be0 Ta1 2.756208 1_445
Be0 Ta1 2.756208 1_555
Be0 Ta0 2.756208 1_445
Be0 Ta1 2.782561 1_446
Be0 Ta0 2.782561 1_554
Be1 Be2 2.355449 1_565
Be1 Be2 2.355449 1_455
Be1 Ga0 2.360533 1_455
Be1 Ga0 2.360533 1_564
Be1 Ta0 2.756208 1_555
Be1 Ta1 2.756208 1_455
Be1 Ta1 2.756208 1_555
Be1 Ta0 2.756208 1_455
Be1 Ta1 2.782562 1_456
Be1 Ta0 2.782562 1_554
Be2 Ga0 2.360533 1_554
Be2 Ga0 2.360533 1_555
Be2 Ta0 2.756208 1_545
Be2 Ta1 2.756208 1_555
Be2 Ta0 2.756208 1_555
Be2 Ta1 2.756208 1_545
Be2 Ta1 2.782562 1_446
Be2 Ta0 2.782562 1_654
Ga0 Ta1 2.765083 1_556
Ga0 Ta0 2.765083 1_545
Ga0 Ta1 2.765083 1_546
Ga0 Ta0 2.765083 1_555
Ga0 Ta0 2.765084 1_655
Ga0 Ta1 2.765084 1_446
