# generated using pymatgen
data_Li2ScTcH6
_symmetry_space_group_name_H-M   'P 1'
_cell_length_a   4.83260310
_cell_length_b   4.83259822
_cell_length_c   4.83259493
_cell_angle_alpha   119.99999209
_cell_angle_beta   119.99998786
_cell_angle_gamma   59.99986755
_symmetry_Int_Tables_number   1
_chemical_formula_structural   Li2ScTcH6
_chemical_formula_sum   'Li2 Sc1 Tc1 H6'
_cell_volume   79.80440138
_cell_formula_units_Z   1
loop_
 _symmetry_equiv_pos_site_id
 _symmetry_equiv_pos_as_xyz
  1  'x, y, z'
loop_
 _atom_site_type_symbol
 _atom_site_label
 _atom_site_symmetry_multiplicity
 _atom_site_fract_x
 _atom_site_fract_y
 _atom_site_fract_z
 _atom_site_occupancy
  Li  Li0  1  0.50000000  0.50000000  0.49999900  1
  Li  Li1  1  0.25000100  0.25000100  0.74999900  1
  Sc  Sc0  1  0.75000100  0.75000000  0.25000000  1
  Tc  Tc0  1  0.00000000  0.99999900  0.99999900  1
  H  H0  1  0.25064623  0.25064623  0.25064623  1
  H  H1  1  0.74935377  0.25064723  0.25064623  1
  H  H2  1  0.25064823  0.74935377  0.25064623  1
  H  H3  1  0.74935377  0.25064723  0.74935277  1
  H  H4  1  0.25064723  0.74935377  0.74935277  1
  H  H5  1  0.74935377  0.74935377  0.74935377  1
loop_
_geom_bond_atom_site_label_1
_geom_bond_atom_site_label_2
_geom_bond_distance
_geom_bond_site_symmetry_2
H0 Li0 1.704168 1_555
H0 Tc0 1.713004 1_544
H0 Sc0 2.416297 1_455
H0 Sc0 2.416302 1_545
H1 Li0 1.704160 1_555
H1 Tc0 1.713000 1_644
H1 Sc0 2.416301 1_555
H1 Sc0 2.416306 1_545
H2 Li0 1.704159 1_555
H2 Tc0 1.712996 1_554
H2 Sc0 2.416301 1_555
H2 Sc0 2.416310 1_455
H3 Li0 1.704159 1_555
H3 Tc0 1.713003 1_645
H3 Sc0 2.416303 1_545
H3 Sc0 2.416303 1_556
H4 Li0 1.704160 1_555
H4 Tc0 1.713000 1_555
H4 Sc0 2.416302 1_455
H4 Sc0 2.416306 1_556
H5 Li0 1.704168 1_555
H5 Tc0 1.712997 1_655
H5 Sc0 2.416299 1_556
H5 Sc0 2.416304 1_555
