# generated using pymatgen
data_Lu12AlNi4Ru
_symmetry_space_group_name_H-M   'P 1'
_cell_length_a   8.03204956
_cell_length_b   8.03205056
_cell_length_c   8.03204945
_cell_angle_alpha   111.42927391
_cell_angle_beta   110.37698440
_cell_angle_gamma   106.64566038
_symmetry_Int_Tables_number   1
_chemical_formula_structural   Lu12AlNi4Ru
_chemical_formula_sum   'Lu12 Al1 Ni4 Ru1'
_cell_volume   398.13537372
_cell_formula_units_Z   1
loop_
 _symmetry_equiv_pos_site_id
 _symmetry_equiv_pos_as_xyz
  1  'x, y, z'
loop_
 _atom_site_type_symbol
 _atom_site_label
 _atom_site_symmetry_multiplicity
 _atom_site_fract_x
 _atom_site_fract_y
 _atom_site_fract_z
 _atom_site_occupancy
  Lu  Lu0  1  0.41664637  0.22678037  0.18986799  1
  Lu  Lu1  1  0.58335363  0.77321963  0.81013201  1
  Lu  Lu2  1  0.03691238  0.22678037  0.81013201  1
  Lu  Lu3  1  0.96308762  0.77321963  0.18986799  1
  Lu  Lu4  1  0.18078480  0.28031541  0.46110020  1
  Lu  Lu5  1  0.81921520  0.71968459  0.53889980  1
  Lu  Lu6  1  0.18078480  0.71968459  0.90046939  1
  Lu  Lu7  1  0.81921520  0.28031541  0.09953061  1
  Lu  Lu8  1  0.32358120  0.62748461  0.30390341  1
  Lu  Lu9  1  0.67641880  0.37251539  0.69609659  1
  Lu  Lu10  1  0.32358120  0.01967778  0.69609659  1
  Lu  Lu11  1  0.67641880  0.98032222  0.30390341  1
  Al  Al0  1  0.50000000  0.50000000  0.00000000  1
  Ni  Ni0  1  0.35379414  0.00000000  0.35379414  1
  Ni  Ni1  1  0.64620586  1.00000000  0.64620586  1
  Ni  Ni2  1  0.11998963  0.61998963  0.50000000  1
  Ni  Ni3  1  0.88001037  0.38001037  0.50000000  1
  Ru  Ru0  1  0.00000000  0.00000000  0.00000000  1
loop_
_geom_bond_atom_site_label_1
_geom_bond_atom_site_label_2
_geom_bond_distance
_geom_bond_site_symmetry_2
Lu0 Ni0 2.644786 1_555
Lu0 Ru0 2.786883 1_555
Lu0 Ni3 3.201678 1_555
Lu0 Lu4 3.343087 1_555
Lu0 Lu6 3.343102 1_544
Lu0 Lu8 3.384869 1_555
Lu0 Lu10 3.384883 1_554
Lu0 Lu9 3.386941 1_555
Lu0 Lu11 3.386950 1_545
Lu0 Lu2 3.482416 1_554
Lu0 Lu5 3.497402 1_555
Lu0 Lu7 3.497412 1_555
Lu1 Ni1 2.644786 1_555
Lu1 Ru0 2.786883 1_666
Lu1 Ni2 3.201678 1_555
Lu1 Lu5 3.343087 1_555
Lu1 Lu7 3.343102 1_566
Lu1 Lu9 3.384869 1_555
Lu1 Lu11 3.384883 1_556
Lu1 Lu8 3.386941 1_555
Lu1 Lu10 3.386950 1_565
Lu1 Lu3 3.482416 1_556
Lu1 Lu4 3.497402 1_555
Lu1 Lu6 3.497412 1_555
Lu2 Ni1 2.644788 1_445
Lu2 Ru0 2.786896 1_556
Lu2 Ni3 3.201666 1_455
Lu2 Lu7 3.343101 1_456
Lu2 Lu5 3.343101 1_445
Lu2 Lu8 3.384878 1_556
Lu2 Lu9 3.386939 1_455
Lu2 Lu4 3.497396 1_555
Lu2 Lu6 3.497397 1_555
Lu3 Ni0 2.644788 1_665
Lu3 Ru0 2.786896 1_665
Lu3 Ni2 3.201666 1_655
Lu3 Lu6 3.343101 1_654
Lu3 Lu4 3.343101 1_665
Lu3 Lu9 3.384878 1_554
Lu3 Lu8 3.386939 1_655
Lu3 Lu5 3.497396 1_555
Lu3 Lu7 3.497397 1_555
Lu4 Ni3 2.833055 1_455
Lu4 Ni2 2.833055 1_555
Lu4 Ni0 2.991947 1_555
Lu4 Ru0 3.030363 1_555
Lu4 Lu7 3.315828 1_455
Lu4 Lu9 3.466412 1_555
Lu4 Lu8 3.526208 1_555
Lu5 Ni2 2.833055 1_655
Lu5 Ni3 2.833055 1_555
Lu5 Ni1 2.991947 1_555
Lu5 Ru0 3.030363 1_666
Lu5 Lu6 3.315828 1_655
Lu5 Lu8 3.466412 1_555
Lu5 Lu9 3.526208 1_555
Lu6 Ni2 2.833055 1_555
Lu6 Ni3 2.833055 1_455
Lu6 Ni0 2.991946 1_566
Lu6 Ru0 3.030363 1_566
Lu6 Lu8 3.466412 1_556
Lu6 Lu9 3.526208 1_455
Lu7 Ni3 2.833055 1_555
Lu7 Ni2 2.833055 1_655
Lu7 Ni1 2.991946 1_544
Lu7 Ru0 3.030363 1_655
Lu7 Lu9 3.466412 1_554
Lu7 Lu8 3.526208 1_655
Lu8 Ni2 2.639133 1_555
Lu8 Ni1 2.795013 1_555
Lu8 Ni0 2.795013 1_565
Lu9 Ni3 2.639133 1_555
Lu9 Ni0 2.795013 1_555
Lu9 Ni1 2.795013 1_545
Lu10 Ni2 2.639134 1_545
Lu10 Ni0 2.795013 1_555
Lu10 Ni1 2.795013 1_545
Lu10 Lu2 3.384878 1_555
Lu10 Lu9 3.385539 1_555
Lu10 Lu3 3.386939 1_445
Lu10 Lu7 3.466412 1_556
Lu10 Lu4 3.466412 1_555
Lu10 Lu5 3.526208 1_445
Lu10 Lu6 3.526208 1_545
Lu11 Ni3 2.639134 1_565
Lu11 Ni1 2.795013 1_555
Lu11 Ni0 2.795013 1_565
Lu11 Lu3 3.384878 1_555
Lu11 Lu8 3.385539 1_555
Lu11 Lu2 3.386939 1_665
Lu11 Lu6 3.466412 1_554
Lu11 Lu5 3.466412 1_555
Lu11 Lu4 3.526208 1_665
Lu11 Lu7 3.526208 1_565
Al0 Lu3 3.147151 1_555
Al0 Lu2 3.147151 1_554
Al0 Lu1 3.147154 1_554
Al0 Lu0 3.147154 1_555
Al0 Lu8 3.229294 1_555
Al0 Lu9 3.229294 1_554
Al0 Lu11 3.229294 1_555
Al0 Lu10 3.229294 1_554
Al0 Lu5 3.538603 1_555
Al0 Lu4 3.538603 1_554
Al0 Lu6 3.538603 1_554
Al0 Lu7 3.538603 1_555
Ni0 Ni1 2.681605 1_545
Ni2 Ni3 2.302644 1_455
