# generated using pymatgen
data_Tc(NiS)8
_symmetry_space_group_name_H-M   'P 1'
_cell_length_a   7.02496405
_cell_length_b   7.02496476
_cell_length_c   7.02496454
_cell_angle_alpha   89.99843140
_cell_angle_beta   60.00921892
_cell_angle_gamma   120.00741648
_symmetry_Int_Tables_number   1
_chemical_formula_structural   Tc(NiS)8
_chemical_formula_sum   'Tc1 Ni8 S8'
_cell_volume   245.14513149
_cell_formula_units_Z   1
loop_
 _symmetry_equiv_pos_site_id
 _symmetry_equiv_pos_as_xyz
  1  'x, y, z'
loop_
 _atom_site_type_symbol
 _atom_site_label
 _atom_site_symmetry_multiplicity
 _atom_site_fract_x
 _atom_site_fract_y
 _atom_site_fract_z
 _atom_site_occupancy
  Tc  Tc0  1  1.00000000  0.50006887  0.49993113  1
  Ni  Ni0  1  0.25147113  0.12580484  0.62272303  1
  Ni  Ni1  1  0.74852887  0.12580484  0.12566629  1
  Ni  Ni2  1  0.74807844  0.62216074  0.12591770  1
  Ni  Ni3  1  0.25192156  0.12600485  0.12591770  1
  Ni  Ni4  1  0.74838351  0.87419389  0.37742160  1
  Ni  Ni5  1  0.25161649  0.87419389  0.87418862  1
  Ni  Ni6  1  0.25175385  0.37764002  0.87411583  1
  Ni  Ni7  1  0.74824615  0.87413031  0.87411583  1
  S  S0  1  0.52097983  0.26057802  0.73958233  1
  S  S1  1  0.99983865  0.73943685  0.73958233  1
  S  S2  1  1.00000000  0.26056493  0.73943507  1
  S  S3  1  0.47902017  0.73943685  0.26040180  1
  S  S4  1  0.00016135  0.26057802  0.26040180  1
  S  S5  1  0.00000000  0.73957165  0.26042835  1
  S  S6  1  0.50000000  0.24971637  0.25028363  1
  S  S7  1  0.50000000  0.75011408  0.74988592  1
loop_
_geom_bond_atom_site_label_1
_geom_bond_atom_site_label_2
_geom_bond_distance
_geom_bond_site_symmetry_2
Ni0 S6 2.136451 1_555
Ni0 S2 2.216762 1_455
Ni0 S0 2.217162 1_555
Ni0 S1 2.217162 1_445
Ni1 S6 2.136457 1_555
Ni1 S2 2.216762 1_554
Ni1 S3 2.217162 1_545
Ni1 S4 2.217162 1_655
Ni2 S6 2.136121 1_555
Ni2 S3 2.217265 1_555
Ni2 S1 2.217271 1_554
Ni2 S5 2.217436 1_655
Ni3 S6 2.136121 1_555
Ni3 S4 2.217259 1_555
Ni3 S0 2.217270 1_554
Ni3 S5 2.217442 1_545
Ni4 S7 2.136592 1_555
Ni4 S5 2.216750 1_655
Ni4 S3 2.217218 1_555
Ni4 S4 2.217224 1_665
Ni5 S7 2.136586 1_555
Ni5 S5 2.216756 1_556
Ni5 S0 2.217224 1_565
Ni5 S1 2.217224 1_455
Ni6 S7 2.136290 1_555
Ni6 S4 2.217026 1_556
Ni6 S0 2.217037 1_555
Ni6 S2 2.217515 1_455
Ni7 S7 2.136301 1_555
Ni7 S3 2.217026 1_556
Ni7 S1 2.217026 1_555
Ni7 S2 2.217516 1_565
S0 Tc0 2.379517 1_555
S1 Tc0 2.379513 1_555
S2 Tc0 2.379391 1_555
S3 Tc0 2.379517 1_455
S4 Tc0 2.379518 1_455
S5 Tc0 2.379380 1_455
