# generated using pymatgen
data_Ag7NO11
_symmetry_space_group_name_H-M   'P 1'
_cell_length_a   7.03314090
_cell_length_b   7.03314090
_cell_length_c   7.03314052
_cell_angle_alpha   61.94092886
_cell_angle_beta   61.94092886
_cell_angle_gamma   61.94092542
_symmetry_Int_Tables_number   1
_chemical_formula_structural   Ag7NO11
_chemical_formula_sum   'Ag7 N1 O11'
_cell_volume   256.68308366
_cell_formula_units_Z   1
loop_
 _symmetry_equiv_pos_site_id
 _symmetry_equiv_pos_as_xyz
  1  'x, y, z'
loop_
 _atom_site_type_symbol
 _atom_site_label
 _atom_site_symmetry_multiplicity
 _atom_site_fract_x
 _atom_site_fract_y
 _atom_site_fract_z
 _atom_site_occupancy
  Ag  Ag0  1  0.99931100  0.99931100  0.99931100  1
  Ag  Ag1  1  0.49805100  0.00108300  0.00108300  1
  Ag  Ag2  1  0.50015400  0.50015400  0.00028400  1
  Ag  Ag3  1  0.50015400  0.00028400  0.50015400  1
  Ag  Ag4  1  0.00108300  0.00108300  0.49805100  1
  Ag  Ag5  1  0.00028400  0.50015400  0.50015400  1
  Ag  Ag6  1  0.00108300  0.49805100  0.00108300  1
  N  N0  1  0.50004700  0.50004700  0.50004700  1
  O  O0  1  0.58065200  0.14478100  0.14478100  1
  O  O1  1  0.14478100  0.58065200  0.14478100  1
  O  O2  1  0.13727100  0.13727100  0.13727100  1
  O  O3  1  0.14478100  0.14478100  0.58065200  1
  O  O4  1  0.60087800  0.60087800  0.29844400  1
  O  O5  1  0.60087800  0.29844400  0.60087800  1
  O  O6  1  0.29844400  0.60087800  0.60087800  1
  O  O7  1  0.85615100  0.85615100  0.41755200  1
  O  O8  1  0.85615100  0.41755200  0.85615100  1
  O  O9  1  0.86229300  0.86229300  0.86229300  1
  O  O10  1  0.41755200  0.85615100  0.85615100  1
loop_
_geom_bond_atom_site_label_1
_geom_bond_atom_site_label_2
_geom_bond_distance
_geom_bond_site_symmetry_2
Ag0 O9 2.325272 1_555
Ag0 O2 2.341259 1_666
Ag0 O7 2.461988 1_556
Ag0 O8 2.461988 1_565
Ag0 O10 2.461988 1_655
Ag0 O3 2.465786 1_665
Ag0 O0 2.465786 1_566
Ag0 O1 2.465786 1_656
Ag1 O0 2.108536 1_555
Ag1 O10 2.112323 1_544
Ag1 O2 2.136250 1_555
Ag1 O9 2.158637 1_544
Ag1 O4 2.605647 1_545
Ag1 O5 2.605647 1_554
Ag2 O0 2.102559 1_555
Ag2 O1 2.102559 1_555
Ag2 O8 2.105203 1_554
Ag2 O10 2.105203 1_554
Ag3 O0 2.102559 1_555
Ag3 O3 2.102559 1_555
Ag3 O10 2.105203 1_545
Ag3 O7 2.105203 1_545
Ag4 O3 2.108536 1_555
Ag4 O7 2.112323 1_445
Ag4 O2 2.136250 1_555
Ag4 O9 2.158637 1_445
Ag4 O5 2.605647 1_455
Ag4 O6 2.605647 1_545
Ag5 O1 2.102559 1_555
Ag5 O3 2.102559 1_555
Ag5 O8 2.105203 1_455
Ag5 O7 2.105203 1_455
Ag6 O1 2.108536 1_555
Ag6 O8 2.112323 1_454
Ag6 O2 2.136250 1_555
Ag6 O9 2.158637 1_454
Ag6 O4 2.605647 1_455
Ag6 O6 2.605647 1_554
N0 O6 1.263909 1_555
N0 O5 1.263909 1_555
N0 O4 1.263909 1_555
