# generated using pymatgen
data_CsAlCoF6
_symmetry_space_group_name_H-M   'P 1'
_cell_length_a   7.05103296
_cell_length_b   7.20963010
_cell_length_c   10.15209192
_cell_angle_alpha   90.00000000
_cell_angle_beta   90.00000000
_cell_angle_gamma   90.00000000
_symmetry_Int_Tables_number   1
_chemical_formula_structural   CsAlCoF6
_chemical_formula_sum   'Cs4 Al4 Co4 F24'
_cell_volume   516.08503871
_cell_formula_units_Z   4
loop_
 _symmetry_equiv_pos_site_id
 _symmetry_equiv_pos_as_xyz
  1  'x, y, z'
loop_
 _atom_site_type_symbol
 _atom_site_label
 _atom_site_symmetry_multiplicity
 _atom_site_fract_x
 _atom_site_fract_y
 _atom_site_fract_z
 _atom_site_occupancy
  Cs  Cs0  1  0.25000000  0.51548257  0.12954568  1
  Cs  Cs1  1  0.75000000  0.48451743  0.87045432  1
  Cs  Cs2  1  0.75000000  0.98451743  0.62954568  1
  Cs  Cs3  1  0.25000000  0.01548257  0.37045432  1
  Al  Al0  1  0.00000000  0.50000000  0.50000000  1
  Al  Al1  1  0.00000000  0.00000000  0.00000000  1
  Al  Al2  1  0.50000000  0.50000000  0.50000000  1
  Al  Al3  1  0.50000000  0.00000000  0.00000000  1
  Co  Co0  1  0.25000000  0.73096234  0.75902218  1
  Co  Co1  1  0.75000000  0.26903766  0.24097782  1
  Co  Co2  1  0.75000000  0.76903766  0.25902218  1
  Co  Co3  1  0.25000000  0.23096234  0.74097782  1
  F  F0  1  0.04871043  0.80318181  0.89652498  1
  F  F1  1  0.95128957  0.19681819  0.10347502  1
  F  F2  1  0.95128957  0.69681819  0.39652498  1
  F  F3  1  0.54871043  0.19681819  0.10347502  1
  F  F4  1  0.04871043  0.30318181  0.60347502  1
  F  F5  1  0.45128957  0.80318181  0.89652498  1
  F  F6  1  0.45128957  0.30318181  0.60347502  1
  F  F7  1  0.54871043  0.69681819  0.39652498  1
  F  F8  1  0.25000000  0.02093000  0.04367589  1
  F  F9  1  0.75000000  0.97907000  0.95632411  1
  F  F10  1  0.75000000  0.47907000  0.54367589  1
  F  F11  1  0.25000000  0.52093000  0.45632411  1
  F  F12  1  0.46880779  0.65267513  0.63742136  1
  F  F13  1  0.53119221  0.34732487  0.36257864  1
  F  F14  1  0.53119221  0.84732487  0.13742136  1
  F  F15  1  0.96880779  0.34732487  0.36257864  1
  F  F16  1  0.46880779  0.15267513  0.86257864  1
  F  F17  1  0.03119221  0.65267513  0.63742136  1
  F  F18  1  0.03119221  0.15267513  0.86257864  1
  F  F19  1  0.96880779  0.84732487  0.13742136  1
  F  F20  1  0.25000000  0.97484796  0.66730151  1
  F  F21  1  0.75000000  0.02515204  0.33269849  1
  F  F22  1  0.75000000  0.52515204  0.16730151  1
  F  F23  1  0.25000000  0.47484796  0.83269849  1
loop_
_geom_bond_atom_site_label_1
_geom_bond_atom_site_label_2
_geom_bond_distance
_geom_bond_site_symmetry_2
Cs0 F23 3.027826 1_554
Cs0 F14 3.108270 1_555
Cs0 F19 3.108270 1_455
Cs0 F3 3.128017 1_555
Cs0 F1 3.128017 1_455
Cs1 F22 3.027826 1_556
Cs1 F18 3.108270 1_655
Cs1 F16 3.108270 1_555
Cs1 F0 3.128017 1_655
Cs1 F5 3.128017 1_555
Cs2 F21 3.027826 1_565
Cs2 F17 3.108270 1_655
Cs2 F12 3.108270 1_555
Cs2 F4 3.128017 1_665
Cs2 F6 3.128017 1_565
Cs3 F20 3.027826 1_545
Cs3 F13 3.108270 1_555
Cs3 F15 3.108270 1_455
Cs3 F7 3.128017 1_545
Cs3 F2 3.128017 1_445
Al0 F17 1.790621 1_555
Al0 F15 1.790621 1_455
Al0 F4 1.798614 1_555
Al0 F2 1.798614 1_455
Al0 F11 1.823922 1_555
Al0 F10 1.823922 1_455
Al1 F19 1.790621 1_445
Al1 F18 1.790621 1_554
Al1 F1 1.798614 1_455
Al1 F0 1.798614 1_544
Al1 F8 1.823922 1_555
Al1 F9 1.823922 1_444
Al2 F12 1.790621 1_555
Al2 F13 1.790621 1_555
Al2 F7 1.798614 1_555
Al2 F6 1.798614 1_555
Al2 F11 1.823922 1_555
Al2 F10 1.823922 1_555
Al3 F14 1.790621 1_545
Al3 F16 1.790621 1_554
Al3 F3 1.798614 1_555
Al3 F5 1.798614 1_544
Al3 F8 1.823922 1_555
Al3 F9 1.823922 1_544
Co0 F20 1.989663 1_555
Co0 F23 1.992230 1_555
Co0 F12 2.054961 1_555
Co0 F17 2.054961 1_555
Co0 F5 2.057709 1_555
Co0 F0 2.057709 1_555
Co1 F21 1.989663 1_555
Co1 F22 1.992230 1_555
Co1 F15 2.054961 1_555
Co1 F13 2.054961 1_555
Co1 F1 2.057709 1_555
Co1 F3 2.057709 1_555
Co2 F22 1.989663 1_555
Co2 F21 1.992230 1_565
Co2 F19 2.054961 1_555
Co2 F14 2.054961 1_555
Co2 F2 2.057709 1_555
Co2 F7 2.057709 1_555
Co3 F23 1.989663 1_555
Co3 F20 1.992230 1_545
Co3 F16 2.054961 1_555
Co3 F18 2.054961 1_555
Co3 F6 2.057709 1_555
Co3 F4 2.057709 1_555
