# generated using pymatgen
data_Cs2Mn(TeO4)3
_symmetry_space_group_name_H-M   'P 1'
_cell_length_a   7.06025347
_cell_length_b   7.06025396
_cell_length_c   7.06025455
_cell_angle_alpha   61.13834488
_cell_angle_beta   61.13833969
_cell_angle_gamma   61.13834671
_symmetry_Int_Tables_number   1
_chemical_formula_structural   Cs2Mn(TeO4)3
_chemical_formula_sum   'Cs2 Mn1 Te3 O12'
_cell_volume   255.22967165
_cell_formula_units_Z   1
loop_
 _symmetry_equiv_pos_site_id
 _symmetry_equiv_pos_as_xyz
  1  'x, y, z'
loop_
 _atom_site_type_symbol
 _atom_site_label
 _atom_site_symmetry_multiplicity
 _atom_site_fract_x
 _atom_site_fract_y
 _atom_site_fract_z
 _atom_site_occupancy
  Cs  Cs0  1  0.12928316  0.12928316  0.12928316  1
  Cs  Cs1  1  0.87071684  0.87071684  0.87071684  1
  Mn  Mn0  1  0.50000000  0.50000000  0.50000000  1
  Te  Te0  1  0.00000000  0.50000000  0.50000000  1
  Te  Te1  1  0.50000000  0.50000000  0.00000000  1
  Te  Te2  1  0.50000000  0.00000000  0.50000000  1
  O  O0  1  0.43400890  0.81490102  0.43400890  1
  O  O1  1  0.82395326  0.43373748  0.82395326  1
  O  O2  1  0.43373748  0.82395326  0.82395326  1
  O  O3  1  0.81490102  0.43400890  0.43400890  1
  O  O4  1  0.82395326  0.82395326  0.43373748  1
  O  O5  1  0.43400890  0.43400890  0.81490102  1
  O  O6  1  0.56599110  0.18509898  0.56599110  1
  O  O7  1  0.17604674  0.56626252  0.17604674  1
  O  O8  1  0.56626252  0.17604674  0.17604674  1
  O  O9  1  0.18509898  0.56599110  0.56599110  1
  O  O10  1  0.17604674  0.17604674  0.56626252  1
  O  O11  1  0.56599110  0.56599110  0.18509898  1
loop_
_geom_bond_atom_site_label_1
_geom_bond_atom_site_label_2
_geom_bond_distance
_geom_bond_site_symmetry_2
Cs0 O5 3.071218 1_554
Cs0 O3 3.071219 1_455
Cs0 O0 3.071219 1_545
Cs0 O4 3.074749 1_445
Cs0 O2 3.074749 1_544
Cs0 O1 3.074749 1_454
Cs1 O11 3.071218 1_556
Cs1 O9 3.071219 1_655
Cs1 O6 3.071219 1_565
Cs1 O10 3.074749 1_665
Cs1 O8 3.074749 1_566
Cs1 O7 3.074749 1_656
Mn0 O3 1.893852 1_555
Mn0 O9 1.893852 1_555
Mn0 O0 1.893852 1_555
Mn0 O6 1.893852 1_555
Mn0 O5 1.893852 1_555
Mn0 O11 1.893852 1_555
O0 Te2 1.878077 1_565
O1 Te1 1.943945 1_556
O1 Te0 1.943945 1_655
O2 Te1 1.943945 1_556
O2 Te2 1.943946 1_565
O3 Te0 1.878077 1_655
O4 Te2 1.943945 1_565
O4 Te0 1.943945 1_655
O5 Te1 1.878077 1_556
O6 Te2 1.878077 1_555
O7 Te1 1.943945 1_555
O7 Te0 1.943945 1_555
O8 Te1 1.943945 1_555
O8 Te2 1.943946 1_555
O9 Te0 1.878077 1_555
O10 Te2 1.943945 1_555
O10 Te0 1.943945 1_555
O11 Te1 1.878077 1_555
