# generated using pymatgen
data_Ca6Re2N6O
_symmetry_space_group_name_H-M   'P 1'
_cell_length_a   6.08650555
_cell_length_b   6.08650580
_cell_length_c   6.08650666
_cell_angle_alpha   94.75010450
_cell_angle_beta   94.75011402
_cell_angle_gamma   94.75011140
_symmetry_Int_Tables_number   1
_chemical_formula_structural   Ca6Re2N6O
_chemical_formula_sum   'Ca6 Re2 N6 O1'
_cell_volume   223.01719568
_cell_formula_units_Z   1
loop_
 _symmetry_equiv_pos_site_id
 _symmetry_equiv_pos_as_xyz
  1  'x, y, z'
loop_
 _atom_site_type_symbol
 _atom_site_label
 _atom_site_symmetry_multiplicity
 _atom_site_fract_x
 _atom_site_fract_y
 _atom_site_fract_z
 _atom_site_occupancy
  Ca  Ca0  1  0.66022461  0.11394594  0.80270946  1
  Ca  Ca1  1  0.11394594  0.80270946  0.66022461  1
  Ca  Ca2  1  0.80270946  0.66022461  0.11394594  1
  Ca  Ca3  1  0.33977539  0.88605406  0.19729054  1
  Ca  Ca4  1  0.88605406  0.19729054  0.33977539  1
  Ca  Ca5  1  0.19729054  0.33977539  0.88605406  1
  Re  Re0  1  0.62290704  0.62290704  0.62290704  1
  Re  Re1  1  0.37709296  0.37709296  0.37709296  1
  N  N0  1  0.73537500  0.85869107  0.46904560  1
  N  N1  1  0.85869107  0.46904560  0.73537500  1
  N  N2  1  0.46904560  0.73537500  0.85869107  1
  N  N3  1  0.26462500  0.14130893  0.53095440  1
  N  N4  1  0.14130893  0.53095440  0.26462500  1
  N  N5  1  0.53095440  0.26462500  0.14130893  1
  O  O0  1  0.00000000  0.00000000  0.00000000  1
loop_
_geom_bond_atom_site_label_1
_geom_bond_atom_site_label_2
_geom_bond_distance
_geom_bond_site_symmetry_2
Ca0 N5 2.404671 1_556
Ca0 N1 2.468750 1_555
Ca0 O0 2.482725 1_656
Ca0 N0 2.548774 1_545
Ca0 N2 2.555572 1_545
Ca0 N3 2.830832 1_555
Ca1 N3 2.404670 1_565
Ca1 N2 2.468750 1_555
Ca1 O0 2.482725 1_566
Ca1 N1 2.548774 1_455
Ca1 N0 2.555572 1_455
Ca1 N4 2.830833 1_555
Ca2 N4 2.404670 1_655
Ca2 N0 2.468751 1_555
Ca2 O0 2.482725 1_665
Ca2 N2 2.548774 1_554
Ca2 N1 2.555573 1_554
Ca2 N5 2.830832 1_555
Ca3 N2 2.404671 1_554
Ca3 N4 2.468750 1_555
Ca3 O0 2.482725 1_565
Ca3 N3 2.548774 1_565
Ca3 N5 2.555572 1_565
Ca3 N0 2.830832 1_555
Ca4 N0 2.404670 1_545
Ca4 N5 2.468750 1_555
Ca4 O0 2.482725 1_655
Ca4 N4 2.548774 1_655
Ca4 N3 2.555572 1_655
Ca4 N1 2.830833 1_555
Ca5 N1 2.404670 1_455
Ca5 N3 2.468751 1_555
Ca5 O0 2.482725 1_556
Ca5 N5 2.548774 1_556
Ca5 N4 2.555573 1_556
Ca5 N2 2.830832 1_555
N0 Re0 1.889749 1_555
N1 Re0 1.889749 1_555
N2 Re0 1.889749 1_555
N3 Re1 1.889749 1_555
N4 Re1 1.889749 1_555
N5 Re1 1.889749 1_555
