# generated using pymatgen
data_NbSbO4
_symmetry_space_group_name_H-M   'P 1'
_cell_length_a   4.95855175
_cell_length_b   5.57868753
_cell_length_c   11.90310486
_cell_angle_alpha   90.00000000
_cell_angle_beta   90.00000000
_cell_angle_gamma   90.00000000
_symmetry_Int_Tables_number   1
_chemical_formula_structural   NbSbO4
_chemical_formula_sum   'Nb4 Sb4 O16'
_cell_volume   329.26619599
_cell_formula_units_Z   4
loop_
 _symmetry_equiv_pos_site_id
 _symmetry_equiv_pos_as_xyz
  1  'x, y, z'
loop_
 _atom_site_type_symbol
 _atom_site_label
 _atom_site_symmetry_multiplicity
 _atom_site_fract_x
 _atom_site_fract_y
 _atom_site_fract_z
 _atom_site_occupancy
  Nb  Nb0  1  0.51417537  0.60653987  0.49783220  1
  Nb  Nb1  1  0.48582463  0.39346013  0.99783220  1
  Nb  Nb2  1  0.98582463  0.10653987  0.49783220  1
  Nb  Nb3  1  0.01417537  0.89346013  0.99783220  1
  Sb  Sb0  1  0.45153070  0.95992671  0.74509660  1
  Sb  Sb1  1  0.54846930  0.04007329  0.24509660  1
  Sb  Sb2  1  0.04846930  0.45992671  0.74509660  1
  Sb  Sb3  1  0.95153070  0.54007329  0.24509660  1
  O  O0  1  0.21177456  0.85521745  0.45825801  1
  O  O1  1  0.78822544  0.14478255  0.95825801  1
  O  O2  1  0.28822544  0.35521745  0.45825801  1
  O  O3  1  0.71177456  0.64478255  0.95825801  1
  O  O4  1  0.33434305  0.64614197  0.66149921  1
  O  O5  1  0.66565695  0.35385803  0.16149921  1
  O  O6  1  0.16565695  0.14614197  0.66149921  1
  O  O7  1  0.83434305  0.85385803  0.16149921  1
  O  O8  1  0.16654184  0.81878085  0.84976195  1
  O  O9  1  0.83345816  0.18121915  0.34976195  1
  O  O10  1  0.33345816  0.31878085  0.84976195  1
  O  O11  1  0.66654184  0.68121915  0.34976195  1
  O  O12  1  0.19386506  0.57109311  0.06245203  1
  O  O13  1  0.80613494  0.42890689  0.56245203  1
  O  O14  1  0.30613494  0.07109311  0.06245203  1
  O  O15  1  0.69386506  0.92890689  0.56245203  1
loop_
_geom_bond_atom_site_label_1
_geom_bond_atom_site_label_2
_geom_bond_distance
_geom_bond_site_symmetry_2
Nb0 O2 1.855504 1_555
Nb0 O13 1.915583 1_555
Nb0 O11 1.962336 1_555
Nb0 O0 2.096399 1_555
Nb0 O15 2.149349 1_555
Nb0 O4 2.153886 1_555
Nb1 O3 1.855504 1_555
Nb1 O12 1.915583 1_556
Nb1 O10 1.962336 1_555
Nb1 O1 2.096399 1_555
Nb1 O14 2.149349 1_556
Nb1 O5 2.153886 1_556
Nb2 O0 1.855504 1_645
Nb2 O15 1.915583 1_545
Nb2 O9 1.962336 1_555
Nb2 O2 2.096399 1_655
Nb2 O13 2.149349 1_555
Nb2 O6 2.153886 1_655
Nb3 O1 1.855504 1_465
Nb3 O14 1.915583 1_566
Nb3 O8 1.962336 1_555
Nb3 O3 2.096399 1_455
Nb3 O12 2.149349 1_556
Nb3 O7 2.153886 1_456
O4 Sb2 2.019581 1_555
O4 Sb0 2.095732 1_555
O5 Sb3 2.019581 1_555
O5 Sb1 2.095732 1_555
O6 Sb0 2.019581 1_545
O6 Sb2 2.095732 1_555
O7 Sb1 2.019581 1_565
O7 Sb3 2.095732 1_555
O8 Sb0 2.041832 1_555
O8 Sb2 2.429535 1_555
O9 Sb1 2.041832 1_555
O9 Sb3 2.429535 1_555
O10 Sb2 2.041832 1_555
O10 Sb0 2.429535 1_545
O11 Sb3 2.041832 1_555
O11 Sb1 2.429535 1_565
O12 Sb3 2.490039 1_455
O13 Sb2 2.490039 1_655
O14 Sb1 2.490039 1_555
O15 Sb0 2.490039 1_555
