# generated using pymatgen
data_Sr4Li3InSn6
_symmetry_space_group_name_H-M   'P 1'
_cell_length_a   10.78248219
_cell_length_b   10.78248290
_cell_length_c   7.80138836
_cell_angle_alpha   89.57922096
_cell_angle_beta   89.57922246
_cell_angle_gamma   26.06405773
_symmetry_Int_Tables_number   1
_chemical_formula_structural   Sr4Li3InSn6
_chemical_formula_sum   'Sr4 Li3 In1 Sn6'
_cell_volume   398.50443645
_cell_formula_units_Z   1
loop_
 _symmetry_equiv_pos_site_id
 _symmetry_equiv_pos_as_xyz
  1  'x, y, z'
loop_
 _atom_site_type_symbol
 _atom_site_label
 _atom_site_symmetry_multiplicity
 _atom_site_fract_x
 _atom_site_fract_y
 _atom_site_fract_z
 _atom_site_occupancy
  Sr  Sr0  1  0.65782186  0.65782186  0.24246602  1
  Sr  Sr1  1  0.34046092  0.34046092  0.76803136  1
  Sr  Sr2  1  0.44697026  0.44697026  0.25140903  1
  Sr  Sr3  1  0.55331591  0.55331591  0.74324763  1
  Li  Li0  1  0.19329647  0.19329647  0.56091117  1
  Li  Li1  1  0.81140817  0.81140817  0.06228186  1
  Li  Li2  1  0.19157108  0.19157108  0.93180309  1
  In  In0  1  0.80316146  0.80316146  0.45255221  1
  Sn  Sn0  1  0.27782656  0.27782656  0.23715447  1
  Sn  Sn1  1  0.72091633  0.72091633  0.75921727  1
  Sn  Sn2  1  0.93782788  0.93782788  0.93576530  1
  Sn  Sn3  1  0.06376919  0.06376919  0.05920084  1
  Sn  Sn4  1  0.93858225  0.93858225  0.57170377  1
  Sn  Sn5  1  0.06306864  0.06306864  0.42425598  1
loop_
_geom_bond_atom_site_label_1
_geom_bond_atom_site_label_2
_geom_bond_distance
_geom_bond_site_symmetry_2
Li0 Sn1 2.942004 1_545
Li0 Sn1 2.942004 1_455
Li0 Sn5 2.943873 1_555
Li0 Sn0 3.076647 1_555
Li0 Sr1 3.499399 1_555
Li1 Sn2 2.826499 1_554
Li1 Sn0 2.873354 1_565
Li1 Sn0 2.873354 1_655
Li1 Sn1 3.045050 1_554
Li1 Sr1 3.395994 1_564
Li1 Sr1 3.395994 1_654
Li2 Sn1 2.844668 1_545
Li2 Sn1 2.844668 1_455
Li2 Sn3 2.856065 1_556
Li2 Sn0 3.003967 1_556
Li2 Sr1 3.370042 1_555
In0 Sn1 2.940590 1_555
In0 Sn4 2.999781 1_555
In0 Sn0 3.005374 1_565
In0 Sn0 3.005374 1_655
In0 Li1 3.048272 1_555
In0 Sr0 3.476439 1_555
In0 Sr1 3.551377 1_655
In0 Sr1 3.551378 1_565
Sn0 Sr0 3.502647 1_455
Sn0 Sr0 3.502647 1_545
Sn0 Sr2 3.556209 1_555
Sn0 Sr1 3.879853 1_554
Sn1 Sr1 3.496723 1_655
Sn1 Sr1 3.496724 1_565
Sn1 Sr3 3.524350 1_555
Sn2 Sn3 2.822565 1_666
Sn2 Sn4 2.840110 1_555
Sn2 Sr1 3.442241 1_565
Sn2 Sr1 3.442242 1_655
Sn2 Sr2 3.466908 1_656
Sn2 Sr2 3.466908 1_566
Sn2 Sr3 3.741614 1_655
Sn2 Sr3 3.741615 1_565
Sn3 Sn5 2.847864 1_555
Sn3 Sr0 3.450074 1_545
Sn3 Sr0 3.450074 1_455
Sn3 Sr3 3.470406 1_454
Sn3 Sr3 3.470406 1_544
Sn3 Sr2 3.758498 1_455
Sn3 Sr2 3.758498 1_545
Sn4 Sn5 2.849238 1_665
Sn4 Sr2 3.489966 1_565
Sn4 Sr2 3.489966 1_655
Sn4 Sr1 3.529833 1_565
Sn4 Sr1 3.529833 1_655
Sn4 Sr3 3.682644 1_655
Sn4 Sr3 3.682645 1_565
Sn5 Sr0 3.441433 1_545
Sn5 Sr0 3.441433 1_455
Sn5 Sr3 3.484112 1_545
Sn5 Sr3 3.484112 1_455
Sn5 Sr2 3.705291 1_455
Sn5 Sr2 3.705292 1_545
