# generated using pymatgen
data_Mg4P6Ir6Rh
_symmetry_space_group_name_H-M   'P 1'
_cell_length_a   6.82697027
_cell_length_b   6.82698806
_cell_length_c   6.82698723
_cell_angle_alpha   109.55610670
_cell_angle_beta   109.30298158
_cell_angle_gamma   109.55610475
_symmetry_Int_Tables_number   1
_chemical_formula_structural   Mg4P6Ir6Rh
_chemical_formula_sum   'Mg4 P6 Ir6 Rh1'
_cell_volume   244.93679487
_cell_formula_units_Z   1
loop_
 _symmetry_equiv_pos_site_id
 _symmetry_equiv_pos_as_xyz
  1  'x, y, z'
loop_
 _atom_site_type_symbol
 _atom_site_label
 _atom_site_symmetry_multiplicity
 _atom_site_fract_x
 _atom_site_fract_y
 _atom_site_fract_z
 _atom_site_occupancy
  Mg  Mg0  1  0.49961886  0.99926304  0.99962007  1
  Mg  Mg1  1  0.00035386  0.49999798  0.99963820  1
  Mg  Mg2  1  0.00037987  0.00074023  0.50038207  1
  Mg  Mg3  1  0.49964551  0.49999883  0.50035826  1
  P  P0  1  0.31909859  0.31945566  0.99965100  1
  P  P1  1  0.68019632  0.68054391  0.99964225  1
  P  P2  1  0.31907009  0.00000366  0.31906804  1
  P  P3  1  0.00035351  0.31945024  0.31980282  1
  P  P4  1  0.68093482  0.00000303  0.68093238  1
  P  P5  1  0.00034530  0.68054353  0.68090239  1
  Ir  Ir0  1  0.99999873  0.99999845  0.99999761  1
  Ir  Ir1  1  0.74999492  0.49999833  0.24999656  1
  Ir  Ir2  1  0.49917198  0.74964960  0.24882138  1
  Ir  Ir3  1  0.75117762  0.25035363  0.50083484  1
  Ir  Ir4  1  0.25048053  0.74964899  0.50082566  1
  Ir  Ir5  1  0.49917704  0.25035691  0.74952111  1
  Rh  Rh0  1  0.25000244  0.49999398  0.75000535  1
loop_
_geom_bond_atom_site_label_1
_geom_bond_atom_site_label_2
_geom_bond_distance
_geom_bond_site_symmetry_2
Mg0 Rh0 2.780091 1_555
Mg0 P5 2.837091 1_555
Mg0 P2 2.837165 1_566
Mg0 P4 2.837167 1_565
Mg0 P1 2.837282 1_555
Mg0 P0 2.846152 1_565
Mg0 P3 2.846203 1_666
Mg1 Rh0 2.780205 1_555
Mg1 P4 2.837075 1_455
Mg1 P2 2.837141 1_566
Mg1 P5 2.837214 1_555
Mg1 P0 2.837246 1_555
Mg1 P1 2.846079 1_455
Mg1 P3 2.846133 1_556
Mg2 Rh0 2.780006 1_555
Mg2 P0 2.837073 1_555
Mg2 P4 2.837154 1_455
Mg2 P2 2.837168 1_555
Mg2 P3 2.837239 1_555
Mg2 P5 2.846177 1_545
Mg2 P1 2.846240 1_444
Mg3 Rh0 2.780253 1_555
Mg3 P2 2.837103 1_555
Mg3 P4 2.837161 1_565
Mg3 P1 2.837199 1_555
Mg3 P3 2.837235 1_555
Mg3 P5 2.846018 1_655
Mg3 P0 2.846072 1_554
P0 Rh0 2.431129 1_555
P1 Rh0 2.431130 1_555
P3 Rh0 2.431199 1_555
P5 Rh0 2.431257 1_555
Ir0 P5 2.515614 1_655
Ir0 P1 2.515631 1_555
Ir0 P3 2.515636 1_666
Ir0 P0 2.515639 1_665
Ir0 P4 2.520461 1_565
Ir0 P2 2.520472 1_666
Ir1 P0 2.435645 1_554
Ir1 P5 2.435705 1_655
Ir1 P1 2.435707 1_554
Ir1 P3 2.435748 1_655
Ir1 Mg3 2.788166 1_555
Ir1 Mg1 2.788200 1_654
Ir1 Mg0 2.788256 1_544
Ir1 Mg2 2.788293 1_665
Ir1 Ir5 2.791197 1_554
Ir1 Ir2 2.791234 1_555
Ir1 Ir4 2.791247 1_655
Ir1 Ir3 2.791287 1_555
Ir2 P0 2.426166 1_554
Ir2 P1 2.426263 1_554
Ir2 P2 2.431255 1_565
Ir2 P4 2.438891 1_565
Ir2 Rh0 2.781907 1_554
Ir2 Mg1 2.781912 1_554
Ir2 Mg0 2.781948 1_554
Ir2 Ir4 2.788111 1_555
Ir2 Ir3 2.788112 1_565
Ir2 Mg3 2.795204 1_555
Ir2 Mg2 2.795261 1_665
Ir3 P5 2.426146 1_655
Ir3 P3 2.426278 1_655
Ir3 P4 2.431211 1_555
Ir3 P2 2.438859 1_555
Ir3 Mg1 2.781836 1_655
Ir3 Rh0 2.781949 1_655
Ir3 Mg2 2.781950 1_655
Ir3 Ir5 2.788061 1_555
Ir3 Mg3 2.795143 1_555
Ir3 Mg0 2.795307 1_544
Ir4 P3 2.426198 1_555
Ir4 P5 2.426308 1_555
Ir4 P4 2.431203 1_565
Ir4 P2 2.438937 1_565
Ir4 Mg0 2.781786 1_555
Ir4 Mg3 2.781947 1_555
Ir4 Rh0 2.782059 1_555
Ir4 Ir5 2.788135 1_565
Ir4 Mg1 2.795155 1_554
Ir4 Mg2 2.795224 1_565
Ir5 P1 2.426132 1_555
Ir5 P0 2.426283 1_555
Ir5 P2 2.431202 1_555
Ir5 P4 2.438930 1_555
Ir5 Mg2 2.781795 1_555
Ir5 Mg3 2.781892 1_555
Ir5 Rh0 2.781927 1_555
Ir5 Mg1 2.795088 1_655
Ir5 Mg0 2.795232 1_545
