# generated using pymatgen
data_Li4SiSe4
_symmetry_space_group_name_H-M   'P 1'
_cell_length_a   6.41725710
_cell_length_b   8.09775025
_cell_length_c   14.64923895
_cell_angle_alpha   90.00000000
_cell_angle_beta   90.00000000
_cell_angle_gamma   90.00000000
_symmetry_Int_Tables_number   1
_chemical_formula_structural   Li4SiSe4
_chemical_formula_sum   'Li16 Si4 Se16'
_cell_volume   761.25276037
_cell_formula_units_Z   4
loop_
 _symmetry_equiv_pos_site_id
 _symmetry_equiv_pos_as_xyz
  1  'x, y, z'
loop_
 _atom_site_type_symbol
 _atom_site_label
 _atom_site_symmetry_multiplicity
 _atom_site_fract_x
 _atom_site_fract_y
 _atom_site_fract_z
 _atom_site_occupancy
  Li  Li0  1  0.50000000  0.00000000  0.00000000  1
  Li  Li1  1  0.50000000  0.50000000  0.00000000  1
  Li  Li2  1  0.87089969  0.25000000  0.08595351  1
  Li  Li3  1  0.30662090  0.49966970  0.17706272  1
  Li  Li4  1  0.30662090  0.00033030  0.17706272  1
  Li  Li5  1  0.80662090  0.99966970  0.32293728  1
  Li  Li6  1  0.80662090  0.50033030  0.32293728  1
  Li  Li7  1  0.37089969  0.75000000  0.41404649  1
  Li  Li8  1  0.00000000  0.00000000  0.50000000  1
  Li  Li9  1  0.00000000  0.50000000  0.50000000  1
  Li  Li10  1  0.62910031  0.25000000  0.58595351  1
  Li  Li11  1  0.19337910  0.49966970  0.67706272  1
  Li  Li12  1  0.19337910  0.00033030  0.67706272  1
  Li  Li13  1  0.69337910  0.99966970  0.82293728  1
  Li  Li14  1  0.69337910  0.50033030  0.82293728  1
  Li  Li15  1  0.12910031  0.75000000  0.91404649  1
  Si  Si0  1  0.84798437  0.75000000  0.08749985  1
  Si  Si1  1  0.34798437  0.25000000  0.41250015  1
  Si  Si2  1  0.65201563  0.75000000  0.58749985  1
  Si  Si3  1  0.15201563  0.25000000  0.91250015  1
  Se  Se0  1  0.26948108  0.25000000  0.06094507  1
  Se  Se1  1  0.20154314  0.75000000  0.08743993  1
  Se  Se2  1  0.71882821  0.51858134  0.15523393  1
  Se  Se3  1  0.71882821  0.98141866  0.15523393  1
  Se  Se4  1  0.21882821  0.01858134  0.34476607  1
  Se  Se5  1  0.21882821  0.48141866  0.34476607  1
  Se  Se6  1  0.70154314  0.25000000  0.41256007  1
  Se  Se7  1  0.76948108  0.75000000  0.43905493  1
  Se  Se8  1  0.23051892  0.25000000  0.56094507  1
  Se  Se9  1  0.29845686  0.75000000  0.58743993  1
  Se  Se10  1  0.78117179  0.51858134  0.65523393  1
  Se  Se11  1  0.78117179  0.98141866  0.65523393  1
  Se  Se12  1  0.28117179  0.01858134  0.84476607  1
  Se  Se13  1  0.28117179  0.48141866  0.84476607  1
  Se  Se14  1  0.79845686  0.25000000  0.91256007  1
  Se  Se15  1  0.73051892  0.75000000  0.93905493  1
loop_
_geom_bond_atom_site_label_1
_geom_bond_atom_site_label_2
_geom_bond_distance
_geom_bond_site_symmetry_2
Li0 Se0 2.661534 1_555
Li0 Se15 2.661534 1_544
Li0 Se3 2.676934 1_545
Li0 Se12 2.676934 1_554
Li0 Se1 3.067149 1_545
Li0 Se14 3.067149 1_554
Li1 Se0 2.661534 1_555
Li1 Se15 2.661534 1_554
Li1 Se2 2.676934 1_555
Li1 Se13 2.676934 1_554
Li1 Se1 3.067149 1_555
Li1 Se14 3.067149 1_554
Li2 Se14 2.582273 1_554
Li2 Se0 2.583903 1_655
Li2 Se3 2.590866 1_545
Li2 Se2 2.590866 1_555
Li3 Se1 2.507509 1_555
Li3 Se5 2.524827 1_555
Li3 Se0 2.652895 1_555
Li3 Se2 2.668896 1_555
Li4 Se1 2.507509 1_545
Li4 Se4 2.524827 1_555
Li4 Se0 2.652895 1_555
Li4 Se3 2.668896 1_545
Li5 Se6 2.507509 1_565
Li5 Se3 2.524827 1_555
Li5 Se7 2.652895 1_555
Li5 Se4 2.668896 1_665
Li6 Se6 2.507509 1_555
Li6 Se2 2.524827 1_555
Li6 Se7 2.652895 1_555
Li6 Se5 2.668896 1_655
Li7 Se9 2.582273 1_555
Li7 Se7 2.583903 1_555
Li7 Se5 2.590866 1_555
Li7 Se4 2.590866 1_565
Li8 Se8 2.661534 1_555
Li8 Se7 2.661534 1_445
Li8 Se4 2.676934 1_555
Li8 Se11 2.676934 1_445
Li8 Se9 3.067149 1_545
Li8 Se6 3.067149 1_455
Li9 Se8 2.661534 1_555
Li9 Se7 2.661534 1_455
Li9 Se5 2.676934 1_555
Li9 Se10 2.676934 1_455
Li9 Se9 3.067149 1_555
Li9 Se6 3.067149 1_455
Li10 Se6 2.582273 1_555
Li10 Se8 2.583903 1_555
Li10 Se11 2.590866 1_545
Li10 Se10 2.590866 1_555
Li11 Se9 2.507509 1_555
Li11 Se13 2.524827 1_555
Li11 Se8 2.652895 1_555
Li11 Se10 2.668896 1_455
Li12 Se9 2.507509 1_545
Li12 Se12 2.524827 1_555
Li12 Se8 2.652895 1_555
Li12 Se11 2.668896 1_445
Li13 Se14 2.507509 1_565
Li13 Se11 2.524827 1_555
Li13 Se15 2.652895 1_555
Li13 Se12 2.668896 1_565
Li14 Se14 2.507509 1_555
Li14 Se10 2.524827 1_555
Li14 Se15 2.652895 1_555
Li14 Se13 2.668896 1_555
Li15 Se1 2.582273 1_556
Li15 Se15 2.583903 1_455
Li15 Se12 2.590866 1_565
Li15 Se13 2.590866 1_555
Se0 Si3 2.301550 1_554
Se1 Si0 2.268878 1_455
Se2 Si0 2.276683 1_555
Se3 Si0 2.276683 1_555
Se4 Si1 2.276683 1_555
Se5 Si1 2.276683 1_555
Se6 Si1 2.268878 1_555
Se7 Si2 2.301550 1_555
Se8 Si1 2.301550 1_555
Se9 Si2 2.268878 1_555
Se10 Si2 2.276683 1_555
Se11 Si2 2.276683 1_555
Se12 Si3 2.276683 1_555
Se13 Si3 2.276683 1_555
Se14 Si3 2.268878 1_655
Se15 Si0 2.301550 1_556
