# generated using pymatgen
data_Na2As2Pd
_symmetry_space_group_name_H-M   'P 1'
_cell_length_a   7.34449956
_cell_length_b   7.34449995
_cell_length_c   5.67283553
_cell_angle_alpha   90.00000000
_cell_angle_beta   90.00000000
_cell_angle_gamma   132.05184556
_symmetry_Int_Tables_number   1
_chemical_formula_structural   Na2As2Pd
_chemical_formula_sum   'Na4 As4 Pd2'
_cell_volume   227.21862479
_cell_formula_units_Z   2
loop_
 _symmetry_equiv_pos_site_id
 _symmetry_equiv_pos_as_xyz
  1  'x, y, z'
loop_
 _atom_site_type_symbol
 _atom_site_label
 _atom_site_symmetry_multiplicity
 _atom_site_fract_x
 _atom_site_fract_y
 _atom_site_fract_z
 _atom_site_occupancy
  Na  Na0  1  0.57161235  0.42838765  0.75000000  1
  Na  Na1  1  0.42838765  0.57161235  0.25000000  1
  Na  Na2  1  0.19950335  0.80049665  0.75000000  1
  Na  Na3  1  0.80049665  0.19950335  0.25000000  1
  As  As0  1  0.92161594  0.67174598  0.25000000  1
  As  As1  1  0.07838406  0.32825402  0.75000000  1
  As  As2  1  0.67174598  0.92161594  0.75000000  1
  As  As3  1  0.32825402  0.07838406  0.25000000  1
  Pd  Pd0  1  0.00000000  0.00000000  0.00000000  1
  Pd  Pd1  1  0.00000000  0.00000000  0.50000000  1
loop_
_geom_bond_atom_site_label_1
_geom_bond_atom_site_label_2
_geom_bond_distance
_geom_bond_site_symmetry_2
Na0 Na1 3.426458 1_555
Na0 Na1 3.426458 1_556
Na0 Pd0 3.441053 1_556
Na0 Pd1 3.441053 1_555
Na0 Pd0 3.441054 1_666
Na0 Pd1 3.441054 1_665
Na0 Na2 3.442695 1_655
Na0 Na2 3.442695 1_545
Na1 Pd1 3.441053 1_665
Na1 Pd0 3.441053 1_665
Na1 Pd0 3.441054 1_555
Na1 Pd1 3.441054 1_555
Na1 Na3 3.442695 1_455
Na1 Na3 3.442695 1_565
Na2 Pd0 3.030071 1_566
Na2 Pd1 3.030071 1_565
Na3 Pd0 3.030071 1_655
Na3 Pd1 3.030071 1_655
As0 As3 2.427012 1_665
As0 Pd0 2.509130 1_665
As0 Pd1 2.509130 1_665
As0 Na3 2.947521 1_555
As0 Na1 3.177202 1_555
As0 Na2 3.243384 1_655
As0 Na2 3.243384 1_654
As0 Na0 3.419499 1_555
As0 Na0 3.419499 1_554
As1 As2 2.427012 1_445
As1 Pd1 2.509130 1_555
As1 Pd0 2.509130 1_556
As1 Na2 2.947521 1_555
As1 Na0 3.177202 1_555
As1 Na3 3.243384 1_456
As1 Na3 3.243384 1_455
As1 Na1 3.419499 1_556
As1 Na1 3.419499 1_555
As2 Pd0 2.509130 1_666
As2 Pd1 2.509130 1_665
As2 Na2 2.947521 1_555
As2 Na0 3.177203 1_555
As2 Na3 3.243384 1_566
As2 Na3 3.243384 1_565
As2 Na1 3.419499 1_556
As2 Na1 3.419499 1_555
As3 Pd0 2.509130 1_555
As3 Pd1 2.509130 1_555
As3 Na3 2.947521 1_555
As3 Na1 3.177203 1_555
As3 Na2 3.243384 1_545
As3 Na2 3.243384 1_544
As3 Na0 3.419499 1_555
As3 Na0 3.419499 1_554
Pd0 Pd1 2.836418 1_554
Pd0 Pd1 2.836418 1_555
