# generated using pymatgen
data_ZrScPRh6
_symmetry_space_group_name_H-M   'P 1'
_cell_length_a   5.79970456
_cell_length_b   5.79970439
_cell_length_c   5.79970459
_cell_angle_alpha   60.00000442
_cell_angle_beta   60.00000538
_cell_angle_gamma   59.99999942
_symmetry_Int_Tables_number   1
_chemical_formula_structural   ZrScPRh6
_chemical_formula_sum   'Zr1 Sc1 P1 Rh6'
_cell_volume   137.94394264
_cell_formula_units_Z   1
loop_
 _symmetry_equiv_pos_site_id
 _symmetry_equiv_pos_as_xyz
  1  'x, y, z'
loop_
 _atom_site_type_symbol
 _atom_site_label
 _atom_site_symmetry_multiplicity
 _atom_site_fract_x
 _atom_site_fract_y
 _atom_site_fract_z
 _atom_site_occupancy
  Zr  Zr0  1  0.25000000  0.25000000  0.25000000  1
  Sc  Sc0  1  0.75000000  0.75000000  0.75000000  1
  P  P0  1  0.00000000  0.00000000  0.00000000  1
  Rh  Rh0  1  0.73389332  0.26610768  0.26610768  1
  Rh  Rh1  1  0.26610768  0.73389332  0.26610768  1
  Rh  Rh2  1  0.73389132  0.73389132  0.26610968  1
  Rh  Rh3  1  0.26610768  0.26610768  0.73389332  1
  Rh  Rh4  1  0.73389132  0.26610968  0.73389132  1
  Rh  Rh5  1  0.26610968  0.73389132  0.73389132  1
loop_
_geom_bond_atom_site_label_1
_geom_bond_atom_site_label_2
_geom_bond_distance
_geom_bond_site_symmetry_2
P0 Rh0 2.182621 1_455
P0 Rh1 2.182621 1_545
P0 Rh3 2.182621 1_554
P0 Rh4 2.182629 1_454
P0 Rh5 2.182629 1_544
P0 Rh2 2.182629 1_445
Rh0 Zr0 2.902854 1_655
Rh0 Sc0 2.902860 1_545
Rh0 Sc0 2.902860 1_554
Rh0 Zr0 2.902866 1_555
Rh1 Zr0 2.902854 1_565
Rh1 Sc0 2.902861 1_455
Rh1 Sc0 2.902861 1_554
Rh1 Zr0 2.902866 1_555
Rh2 Sc0 2.902855 1_555
Rh2 Zr0 2.902861 1_565
Rh2 Zr0 2.902861 1_655
Rh2 Sc0 2.902866 1_554
Rh3 Zr0 2.902855 1_556
Rh3 Sc0 2.902860 1_545
Rh3 Sc0 2.902860 1_455
Rh3 Zr0 2.902866 1_555
Rh4 Sc0 2.902855 1_555
Rh4 Zr0 2.902861 1_655
Rh4 Zr0 2.902861 1_556
Rh4 Sc0 2.902866 1_545
Rh5 Sc0 2.902855 1_555
Rh5 Zr0 2.902861 1_565
Rh5 Zr0 2.902861 1_556
Rh5 Sc0 2.902866 1_455
