# generated using pymatgen
data_CaMnAs4F24
_symmetry_space_group_name_H-M   'P 1'
_cell_length_a   9.37844556
_cell_length_b   9.37844510
_cell_length_c   9.37844545
_cell_angle_alpha   132.31290345
_cell_angle_beta   132.31290031
_cell_angle_gamma   69.73528155
_symmetry_Int_Tables_number   1
_chemical_formula_structural   CaMnAs4F24
_chemical_formula_sum   'Ca1 Mn1 As4 F24'
_cell_volume   442.38229337
_cell_formula_units_Z   1
loop_
 _symmetry_equiv_pos_site_id
 _symmetry_equiv_pos_as_xyz
  1  'x, y, z'
loop_
 _atom_site_type_symbol
 _atom_site_label
 _atom_site_symmetry_multiplicity
 _atom_site_fract_x
 _atom_site_fract_y
 _atom_site_fract_z
 _atom_site_occupancy
  Ca  Ca0  1  0.75000000  0.25000000  0.50000000  1
  Mn  Mn0  1  0.00000000  0.00000000  0.00000000  1
  As  As0  1  0.78404482  0.78404482  1.00000000  1
  As  As1  1  0.21595518  0.21595518  0.00000000  1
  As  As2  1  0.97314708  0.47314708  0.50000000  1
  As  As3  1  0.52685292  0.02685292  0.50000000  1
  F  F0  1  0.86488056  0.76564848  0.21194049  1
  F  F1  1  0.55370699  0.65294006  0.78805951  1
  F  F2  1  0.40948353  0.79262769  0.29799704  1
  F  F3  1  0.34705994  0.13511944  0.90076793  1
  F  F4  1  0.23435152  0.44629301  0.09923207  1
  F  F5  1  0.20737231  0.50536835  0.61685483  1
  F  F6  1  0.65198576  0.26297461  0.69057861  1
  F  F7  1  0.73702539  0.42760401  0.38901215  1
  F  F8  1  0.03859286  0.34801424  0.61098785  1
  F  F9  1  0.08047979  0.27733651  0.09750957  1
  F  F10  1  0.17982694  0.98297022  0.90249043  1
  F  F11  1  0.57239599  0.96140714  0.30942139  1
  F  F12  1  0.72266349  0.82017306  0.80314428  1
  F  F13  1  0.01702978  0.91952021  0.19685572  1
  F  F14  1  0.30307448  0.09106184  0.33306576  1
  F  F15  1  0.90893816  0.24200392  0.21201364  1
  F  F16  1  0.02999128  0.69692552  0.78798636  1
  F  F17  1  0.43263525  0.29089706  0.29742023  1
  F  F18  1  0.99347683  0.13521402  0.70257977  1
  F  F19  1  0.75799608  0.97000872  0.66693424  1
  F  F20  1  0.70910294  0.00652317  0.14173719  1
  F  F21  1  0.86478598  0.56736475  0.85826281  1
  F  F22  1  0.49463165  0.11148549  0.70200296  1
  F  F23  1  0.88851451  0.59051647  0.38314517  1
loop_
_geom_bond_atom_site_label_1
_geom_bond_atom_site_label_2
_geom_bond_distance
_geom_bond_site_symmetry_2
Ca0 F17 2.278700 1_555
Ca0 F21 2.278702 1_555
Ca0 F20 2.278706 1_555
Ca0 F18 2.278706 1_555
Ca0 F7 2.428167 1_555
Ca0 F11 2.428175 1_545
Ca0 F6 2.428175 1_555
Ca0 F8 2.428180 1_655
As0 F0 1.702247 1_556
As0 F1 1.702254 1_555
As0 F20 1.766997 1_566
As0 F21 1.767001 1_555
As0 F12 1.769419 1_555
As0 F13 1.769431 1_656
As1 F3 1.702247 1_554
As1 F4 1.702256 1_555
As1 F18 1.766997 1_454
As1 F17 1.766999 1_555
As1 F10 1.769428 1_544
As1 F9 1.769428 1_555
As2 F23 1.700134 1_555
As2 F5 1.700141 1_655
As2 F8 1.767177 1_655
As2 F7 1.767189 1_555
As2 F16 1.785586 1_655
As2 F15 1.785586 1_555
As3 F22 1.700135 1_555
As3 F2 1.700139 1_545
As3 F6 1.767185 1_555
As3 F11 1.767185 1_545
As3 F14 1.785591 1_555
As3 F19 1.785591 1_545
F9 Mn0 2.323640 1_555
F10 Mn0 2.323640 1_566
F12 Mn0 2.323644 1_666
F13 Mn0 2.323631 1_565
F14 Mn0 2.168354 1_555
F15 Mn0 2.168358 1_655
F16 Mn0 2.168355 1_566
F19 Mn0 2.168354 1_666
