# generated using pymatgen
data_Ba4Na(BeAs)10
_symmetry_space_group_name_H-M   'P 1'
_cell_length_a   9.05184683
_cell_length_b   9.05184720
_cell_length_c   9.05184777
_cell_angle_alpha   123.69005953
_cell_angle_beta   123.69006330
_cell_angle_gamma   83.71926162
_symmetry_Int_Tables_number   1
_chemical_formula_structural   Ba4Na(BeAs)10
_chemical_formula_sum   'Ba4 Na1 Be10 As10'
_cell_volume   491.95270396
_cell_formula_units_Z   1
loop_
 _symmetry_equiv_pos_site_id
 _symmetry_equiv_pos_as_xyz
  1  'x, y, z'
loop_
 _atom_site_type_symbol
 _atom_site_label
 _atom_site_symmetry_multiplicity
 _atom_site_fract_x
 _atom_site_fract_y
 _atom_site_fract_z
 _atom_site_occupancy
  Ba  Ba0  1  0.19600198  0.61515180  0.81115378  1
  Ba  Ba1  1  0.38484820  0.19600198  0.58085118  1
  Ba  Ba2  1  0.61515180  0.80399802  0.41914882  1
  Ba  Ba3  1  0.80399802  0.38484820  0.18884622  1
  Na  Na0  1  0.00000000  0.00000000  0.00000000  1
  Be  Be0  1  0.35144502  0.05086197  0.89963910  1
  Be  Be1  1  0.54819508  0.64855498  0.69941895  1
  Be  Be2  1  0.75000000  0.25000000  0.50000000  1
  Be  Be3  1  0.94913803  0.84877613  0.30058105  1
  Be  Be4  1  0.15122387  0.45180492  0.10036090  1
  Be  Be5  1  0.45180492  0.35144502  0.30058105  1
  Be  Be6  1  0.64855498  0.94913803  0.10036090  1
  Be  Be7  1  0.84877613  0.54819508  0.89963910  1
  Be  Be8  1  0.05086197  0.15122387  0.69941895  1
  Be  Be9  1  0.25000000  0.75000000  0.50000000  1
  As  As0  1  0.44932841  0.05318520  0.19958881  1
  As  As1  1  0.65000705  0.65000705  0.00000000  1
  As  As2  1  0.85359640  0.24973961  0.80041119  1
  As  As3  1  0.05318520  0.85359640  0.60385679  1
  As  As4  1  0.24973961  0.44932841  0.39614321  1
  As  As5  1  0.34999295  0.34999295  1.00000000  1
  As  As6  1  0.55067159  0.94681480  0.80041119  1
  As  As7  1  0.75026039  0.55067159  0.60385679  1
  As  As8  1  0.94681480  0.14640360  0.39614321  1
  As  As9  1  0.14640360  0.75026039  0.19958881  1
loop_
_geom_bond_atom_site_label_1
_geom_bond_atom_site_label_2
_geom_bond_distance
_geom_bond_site_symmetry_2
As0 Be5 2.318958 1_555
As0 Be0 2.330055 1_554
As0 Be6 2.330836 1_545
As0 Be2 2.334847 1_555
As0 Ba0 3.304618 1_544
As0 Ba1 3.322980 1_555
As0 Na0 3.368949 1_555
As0 Ba2 3.494798 1_545
As1 Be1 2.330990 1_554
As1 Be7 2.330996 1_554
As1 Be3 2.331001 1_555
As1 Be6 2.331005 1_555
As1 Ba2 3.435422 1_555
As1 Ba1 3.435430 1_554
As1 Ba0 3.435430 1_554
As1 Ba3 3.435431 1_555
As2 Be8 2.318941 1_655
As2 Be4 2.330057 1_656
As2 Be7 2.330845 1_555
As2 Be2 2.334847 1_555
As2 Ba3 3.304618 1_556
As2 Ba2 3.322972 1_545
As2 Na0 3.368950 1_656
As2 Ba1 3.494805 1_555
As3 Be0 2.318953 1_565
As3 Be8 2.330058 1_565
As3 Be3 2.330847 1_455
As3 Be9 2.334847 1_555
As3 Ba2 3.304616 1_455
As3 Ba0 3.322972 1_555
As3 Na0 3.368950 1_566
As3 Ba3 3.494804 1_455
As4 Be4 2.318950 1_555
As4 Be5 2.330057 1_555
As4 Be1 2.330843 1_555
As4 Be9 2.334847 1_555
As4 Ba1 3.304624 1_555
As4 Ba3 3.322971 1_455
As4 Na0 3.368950 1_555
As4 Ba0 3.494804 1_555
As5 Be5 2.330990 1_556
As5 Be4 2.330996 1_556
As5 Be8 2.331001 1_555
As5 Be0 2.331005 1_555
As5 Ba1 3.435422 1_555
As5 Ba2 3.435430 1_556
As5 Ba3 3.435430 1_556
As5 Ba0 3.435431 1_555
As6 Be1 2.318958 1_555
As6 Be6 2.330055 1_556
As6 Be0 2.330836 1_565
As6 Be9 2.334847 1_555
As6 Ba3 3.304618 1_566
As6 Ba2 3.322980 1_555
As6 Na0 3.368949 1_666
As6 Ba1 3.494798 1_565
As7 Be7 2.318950 1_555
As7 Be1 2.330057 1_555
As7 Be5 2.330843 1_555
As7 Be2 2.334847 1_555
As7 Ba2 3.304624 1_555
As7 Ba0 3.322971 1_655
As7 Na0 3.368950 1_666
As7 Ba3 3.494804 1_555
As8 Be6 2.318953 1_545
As8 Be3 2.330058 1_545
As8 Be8 2.330847 1_655
As8 Be2 2.334847 1_555
As8 Ba1 3.304616 1_655
As8 Ba3 3.322972 1_555
As8 Na0 3.368950 1_655
As8 Ba0 3.494804 1_655
As9 Be3 2.318941 1_455
As9 Be7 2.330057 1_454
As9 Be4 2.330845 1_555
As9 Be9 2.334847 1_555
As9 Ba0 3.304618 1_554
As9 Ba1 3.322972 1_565
As9 Na0 3.368950 1_565
As9 Ba2 3.494805 1_555
