# generated using pymatgen
data_Hf3Ta2Ge3C
_symmetry_space_group_name_H-M   'P 1'
_cell_length_a   7.80319203
_cell_length_b   7.80319305
_cell_length_c   5.47189322
_cell_angle_alpha   90.00000000
_cell_angle_beta   90.00000000
_cell_angle_gamma   119.99999985
_symmetry_Int_Tables_number   1
_chemical_formula_structural   Hf3Ta2Ge3C
_chemical_formula_sum   'Hf6 Ta4 Ge6 C2'
_cell_volume   288.54456083
_cell_formula_units_Z   2
loop_
 _symmetry_equiv_pos_site_id
 _symmetry_equiv_pos_as_xyz
  1  'x, y, z'
loop_
 _atom_site_type_symbol
 _atom_site_label
 _atom_site_symmetry_multiplicity
 _atom_site_fract_x
 _atom_site_fract_y
 _atom_site_fract_z
 _atom_site_occupancy
  Hf  Hf0  1  0.76495753  0.00000000  0.75000000  1
  Hf  Hf1  1  0.76495753  0.76495753  0.25000000  1
  Hf  Hf2  1  0.00000000  0.23504247  0.25000000  1
  Hf  Hf3  1  1.00000000  0.76495753  0.75000000  1
  Hf  Hf4  1  0.23504247  0.23504247  0.75000000  1
  Hf  Hf5  1  0.23504247  1.00000000  0.25000000  1
  Ta  Ta0  1  0.66666700  0.33333300  0.00000000  1
  Ta  Ta1  1  0.33333300  0.66666700  0.50000000  1
  Ta  Ta2  1  0.66666700  0.33333300  0.50000000  1
  Ta  Ta3  1  0.33333300  0.66666700  0.00000000  1
  Ge  Ge0  1  0.40544230  1.00000000  0.75000000  1
  Ge  Ge1  1  0.40544230  0.40544230  0.25000000  1
  Ge  Ge2  1  1.00000000  0.59455770  0.25000000  1
  Ge  Ge3  1  0.00000000  0.40544230  0.75000000  1
  Ge  Ge4  1  0.59455770  0.59455770  0.75000000  1
  Ge  Ge5  1  0.59455770  0.00000000  0.25000000  1
  C  C0  1  0.00000000  0.00000000  0.50000000  1
  C  C1  1  0.00000000  0.00000000  0.00000000  1
loop_
_geom_bond_atom_site_label_1
_geom_bond_atom_site_label_2
_geom_bond_distance
_geom_bond_site_symmetry_2
Ge0 Ta1 2.736770 1_555
Ge0 Ta3 2.736770 1_556
Ge0 Ta2 2.736772 1_565
Ge0 Ta0 2.736772 1_566
Ge0 Hf3 2.751466 1_455
Ge0 Hf4 2.751467 1_565
Ge0 Hf0 2.805366 1_565
Ge0 Hf5 3.041941 1_555
Ge0 Hf5 3.041941 1_556
Ge1 Ta0 2.736777 1_555
Ge1 Ta2 2.736777 1_555
Ge1 Ta1 2.736777 1_555
Ge1 Ta3 2.736777 1_555
Ge1 Hf2 2.751466 1_555
Ge1 Hf5 2.751467 1_545
Ge1 Hf1 2.805367 1_555
Ge1 Hf4 3.041941 1_555
Ge1 Hf4 3.041941 1_554
Ge2 Ta1 2.736770 1_655
Ge2 Ta3 2.736770 1_655
Ge2 Ta2 2.736772 1_555
Ge2 Ta0 2.736772 1_555
Ge2 Hf1 2.751467 1_555
Ge2 Hf5 2.751467 1_655
Ge2 Hf2 2.805367 1_655
Ge2 Hf3 3.041941 1_555
Ge2 Hf3 3.041941 1_554
Ge3 Ta2 2.736770 1_455
Ge3 Ta0 2.736770 1_456
Ge3 Ta3 2.736772 1_556
Ge3 Ta1 2.736772 1_555
Ge3 Hf4 2.751467 1_555
Ge3 Hf0 2.751467 1_455
Ge3 Hf3 2.805367 1_455
Ge3 Hf2 3.041941 1_555
Ge3 Hf2 3.041941 1_556
Ge4 Ta3 2.736777 1_556
Ge4 Ta1 2.736777 1_555
Ge4 Ta2 2.736777 1_555
Ge4 Ta0 2.736777 1_556
Ge4 Hf3 2.751466 1_555
Ge4 Hf0 2.751467 1_565
Ge4 Hf4 2.805367 1_555
Ge4 Hf1 3.041941 1_556
Ge4 Hf1 3.041941 1_555
Ge5 Ta2 2.736770 1_555
Ge5 Ta0 2.736770 1_555
Ge5 Ta1 2.736772 1_545
Ge5 Ta3 2.736772 1_545
Ge5 Hf2 2.751466 1_655
Ge5 Hf1 2.751467 1_545
Ge5 Hf5 2.805366 1_545
Ge5 Hf0 3.041941 1_555
Ge5 Hf0 3.041941 1_554
C0 Hf5 2.288057 1_545
C0 Hf0 2.288057 1_455
C0 Hf4 2.288057 1_555
C0 Hf1 2.288057 1_445
C0 Hf2 2.288057 1_555
C0 Hf3 2.288057 1_445
C1 Hf5 2.288057 1_545
C1 Hf0 2.288057 1_454
C1 Hf4 2.288057 1_554
C1 Hf1 2.288057 1_445
C1 Hf2 2.288057 1_555
C1 Hf3 2.288057 1_444
