# generated using pymatgen
data_MgSc2B2IrRh4
_symmetry_space_group_name_H-M   'P 1'
_cell_length_a   9.44602623
_cell_length_b   9.44602623
_cell_length_c   3.03178977
_cell_angle_alpha   90.00000000
_cell_angle_beta   90.00000000
_cell_angle_gamma   90.00000000
_symmetry_Int_Tables_number   1
_chemical_formula_structural   MgSc2B2IrRh4
_chemical_formula_sum   'Mg2 Sc4 B4 Ir2 Rh8'
_cell_volume   270.51875390
_cell_formula_units_Z   2
loop_
 _symmetry_equiv_pos_site_id
 _symmetry_equiv_pos_as_xyz
  1  'x, y, z'
loop_
 _atom_site_type_symbol
 _atom_site_label
 _atom_site_symmetry_multiplicity
 _atom_site_fract_x
 _atom_site_fract_y
 _atom_site_fract_z
 _atom_site_occupancy
  Mg  Mg0  1  0.50000000  0.50000000  0.00000000  1
  Mg  Mg1  1  0.00000000  0.00000000  0.00000000  1
  Sc  Sc0  1  0.67758448  0.17758448  0.00000000  1
  Sc  Sc1  1  0.32241552  0.82241552  0.00000000  1
  Sc  Sc2  1  0.17758448  0.32241552  0.00000000  1
  Sc  Sc3  1  0.82241552  0.67758448  0.00000000  1
  B  B0  1  0.12484188  0.62484188  0.00000000  1
  B  B1  1  0.87515812  0.37515812  0.00000000  1
  B  B2  1  0.62484188  0.87515812  0.00000000  1
  B  B3  1  0.37515812  0.12484188  0.00000000  1
  Ir  Ir0  1  0.50000000  0.00000000  0.50000000  1
  Ir  Ir1  1  0.00000000  0.50000000  0.50000000  1
  Rh  Rh0  1  0.57096852  0.72048512  0.50000000  1
  Rh  Rh1  1  0.42903148  0.27951488  0.50000000  1
  Rh  Rh2  1  0.07096852  0.77951488  0.50000000  1
  Rh  Rh3  1  0.92903148  0.22048512  0.50000000  1
  Rh  Rh4  1  0.27951488  0.57096852  0.50000000  1
  Rh  Rh5  1  0.72048512  0.42903148  0.50000000  1
  Rh  Rh6  1  0.22048512  0.07096852  0.50000000  1
  Rh  Rh7  1  0.77951488  0.92903148  0.50000000  1
loop_
_geom_bond_atom_site_label_1
_geom_bond_atom_site_label_2
_geom_bond_distance
_geom_bond_site_symmetry_2
Mg0 Rh0 2.661768 1_554
Mg0 Rh0 2.661768 1_555
Mg0 Rh5 2.661768 1_555
Mg0 Rh5 2.661768 1_554
Mg0 Rh4 2.661768 1_554
Mg0 Rh4 2.661768 1_555
Mg0 Rh1 2.661768 1_555
Mg0 Rh1 2.661768 1_554
Mg1 Rh6 2.661768 1_555
Mg1 Rh6 2.661768 1_554
Mg1 Rh3 2.661768 1_454
Mg1 Rh3 2.661768 1_455
Mg1 Rh2 2.661768 1_544
Mg1 Rh2 2.661768 1_545
Mg1 Rh7 2.661768 1_444
Mg1 Rh7 2.661768 1_445
B0 Rh2 2.166001 1_555
B0 Rh2 2.166001 1_554
B0 Rh4 2.166001 1_555
B0 Rh4 2.166001 1_554
B0 Ir1 2.253718 1_555
B0 Ir1 2.253718 1_554
B0 Sc1 2.639327 1_555
B0 Sc3 2.899845 1_455
B0 Sc2 2.899845 1_555
B1 Rh5 2.166001 1_555
B1 Rh5 2.166001 1_554
B1 Rh3 2.166001 1_554
B1 Rh3 2.166001 1_555
B1 Ir1 2.253718 1_654
B1 Ir1 2.253718 1_655
B1 Sc0 2.639327 1_555
B1 Sc3 2.899845 1_555
B1 Sc2 2.899845 1_655
B2 Rh7 2.166001 1_555
B2 Rh0 2.166001 1_554
B2 Rh7 2.166001 1_554
B2 Rh0 2.166001 1_555
B2 Ir0 2.253718 1_564
B2 Ir0 2.253718 1_565
B2 Sc3 2.639327 1_555
B2 Sc1 2.899845 1_555
B2 Sc0 2.899845 1_565
B3 Rh1 2.166001 1_554
B3 Rh6 2.166001 1_555
B3 Rh1 2.166001 1_555
B3 Rh6 2.166001 1_554
B3 Ir0 2.253718 1_554
B3 Ir0 2.253718 1_555
B3 Sc2 2.639327 1_555
B3 Sc1 2.899845 1_545
B3 Sc0 2.899845 1_555
Ir0 Sc0 2.815268 1_555
Ir0 Sc0 2.815268 1_556
Ir0 Sc1 2.815268 1_545
Ir0 Sc1 2.815268 1_546
Ir1 Sc3 2.815268 1_456
Ir1 Sc3 2.815268 1_455
Ir1 Sc2 2.815268 1_555
Ir1 Sc2 2.815268 1_556
Rh0 Sc3 2.846685 1_555
Rh0 Sc3 2.846685 1_556
Rh0 Sc1 2.955899 1_556
Rh0 Sc1 2.955899 1_555
Rh1 Sc2 2.846685 1_555
Rh1 Sc2 2.846685 1_556
Rh1 Sc0 2.955899 1_555
Rh1 Sc0 2.955899 1_556
Rh2 Sc1 2.846685 1_556
Rh2 Sc1 2.846685 1_555
Rh2 Sc3 2.955899 1_456
Rh2 Sc3 2.955899 1_455
Rh3 Sc0 2.846685 1_556
Rh3 Sc0 2.846685 1_555
Rh3 Sc2 2.955899 1_656
Rh3 Sc2 2.955899 1_655
Rh4 Sc1 2.846685 1_555
Rh4 Sc1 2.846685 1_556
Rh4 Sc2 2.955899 1_555
Rh4 Sc2 2.955899 1_556
Rh5 Sc0 2.846685 1_555
Rh5 Sc0 2.846685 1_556
Rh5 Sc3 2.955899 1_555
Rh5 Sc3 2.955899 1_556
Rh6 Sc2 2.846685 1_555
Rh6 Sc2 2.846685 1_556
Rh6 Sc1 2.955899 1_545
Rh6 Sc1 2.955899 1_546
Rh7 Sc3 2.846685 1_555
Rh7 Sc3 2.846685 1_556
Rh7 Sc0 2.955899 1_566
Rh7 Sc0 2.955899 1_565
