# generated using pymatgen
data_Y4PdPt3O14
_symmetry_space_group_name_H-M   'P 1'
_cell_length_a   7.20643501
_cell_length_b   7.19646010
_cell_length_c   7.19645997
_cell_angle_alpha   60.00000061
_cell_angle_beta   60.04577792
_cell_angle_gamma   60.04578013
_symmetry_Int_Tables_number   1
_chemical_formula_structural   Y4PdPt3O14
_chemical_formula_sum   'Y4 Pd1 Pt3 O14'
_cell_volume   264.08484388
_cell_formula_units_Z   1
loop_
 _symmetry_equiv_pos_site_id
 _symmetry_equiv_pos_as_xyz
  1  'x, y, z'
loop_
 _atom_site_type_symbol
 _atom_site_label
 _atom_site_symmetry_multiplicity
 _atom_site_fract_x
 _atom_site_fract_y
 _atom_site_fract_z
 _atom_site_occupancy
  Y  Y0  1  0.12500000  0.62500000  0.12500000  1
  Y  Y1  1  0.12500000  0.12500000  0.62500000  1
  Y  Y2  1  0.62500000  0.12500000  0.12500000  1
  Y  Y3  1  0.12500000  0.12500000  0.12500000  1
  Pd  Pd0  1  0.12500000  0.62500000  0.62500000  1
  Pt  Pt0  1  0.62500000  0.62500000  0.62500000  1
  Pt  Pt1  1  0.62500000  0.62500000  0.12500000  1
  Pt  Pt2  1  0.62500000  0.12500000  0.62500000  1
  O  O0  1  0.28626032  0.71404113  0.71404113  1
  O  O1  1  0.53441461  0.96551430  0.96551430  1
  O  O2  1  0.71558539  0.71544222  0.28448570  1
  O  O3  1  0.28626032  0.28565842  0.71404113  1
  O  O4  1  0.99994157  0.00001981  0.00001981  1
  O  O5  1  0.28626032  0.71404113  0.28565842  1
  O  O6  1  0.71558539  0.28448570  0.71544222  1
  O  O7  1  0.96373968  0.53595887  0.96434158  1
  O  O8  1  0.53441461  0.53455778  0.96551430  1
  O  O9  1  0.96373968  0.96434158  0.53595887  1
  O  O10  1  0.25005843  0.24998019  0.24998019  1
  O  O11  1  0.53441461  0.96551430  0.53455778  1
  O  O12  1  0.71558539  0.28448570  0.28448570  1
  O  O13  1  0.96373968  0.53595887  0.53595887  1
loop_
_geom_bond_atom_site_label_1
_geom_bond_atom_site_label_2
_geom_bond_distance
_geom_bond_site_symmetry_2
O0 Pt0 2.016606 1_555
O0 Pd0 2.017316 1_555
O0 Y0 2.433933 1_556
O0 Y1 2.433933 1_565
O1 Pt2 2.021532 1_565
O1 Pt1 2.021532 1_556
O1 Y2 2.423719 1_566
O1 Y3 2.427681 1_566
O2 Pt1 2.021527 1_555
O2 Pt0 2.021533 1_555
O2 Y2 2.423725 1_565
O2 Y0 2.427682 1_655
O3 Pt2 2.016607 1_555
O3 Pd0 2.017310 1_555
O3 Y3 2.433934 1_556
O3 Y1 2.433939 1_555
O4 Y3 2.204077 1_655
O4 Y1 2.204083 1_654
O4 Y0 2.204083 1_645
O4 Y2 2.207693 1_555
O5 Pt1 2.016607 1_555
O5 Pd0 2.017310 1_555
O5 Y3 2.433934 1_565
O5 Y0 2.433939 1_555
O6 Pt2 2.021527 1_555
O6 Pt0 2.021533 1_555
O6 Y2 2.423725 1_556
O6 Y1 2.427682 1_655
O7 Pt1 2.016607 1_556
O7 Pd0 2.017310 1_655
O7 Y3 2.433934 1_656
O7 Y0 2.433939 1_656
O8 Pt1 2.021527 1_556
O8 Pt0 2.021533 1_555
O8 Y2 2.423725 1_556
O8 Y0 2.427682 1_556
O9 Pt2 2.016607 1_565
O9 Pd0 2.017310 1_655
O9 Y3 2.433934 1_665
O9 Y1 2.433939 1_665
O10 Y3 2.204077 1_555
O10 Y1 2.204083 1_555
O10 Y0 2.204083 1_555
O10 Y2 2.207693 1_555
O11 Pt2 2.021527 1_565
O11 Pt0 2.021533 1_555
O11 Y2 2.423725 1_565
O11 Y1 2.427682 1_565
O12 Pt2 2.021532 1_555
O12 Pt1 2.021532 1_555
O12 Y2 2.423719 1_555
O12 Y3 2.427681 1_655
O13 Pt0 2.016606 1_555
O13 Pd0 2.017316 1_655
O13 Y0 2.433933 1_655
O13 Y1 2.433933 1_655
