# generated using pymatgen
data_Ca10Rh3Au
_symmetry_space_group_name_H-M   'P 1'
_cell_length_a   8.77955493
_cell_length_b   8.75988276
_cell_length_c   7.65298652
_cell_angle_alpha   82.84601944
_cell_angle_beta   83.06950105
_cell_angle_gamma   44.15687882
_symmetry_Int_Tables_number   1
_chemical_formula_structural   Ca10Rh3Au
_chemical_formula_sum   'Ca10 Rh3 Au1'
_cell_volume   406.40642260
_cell_formula_units_Z   1
loop_
 _symmetry_equiv_pos_site_id
 _symmetry_equiv_pos_as_xyz
  1  'x, y, z'
loop_
 _atom_site_type_symbol
 _atom_site_label
 _atom_site_symmetry_multiplicity
 _atom_site_fract_x
 _atom_site_fract_y
 _atom_site_fract_z
 _atom_site_occupancy
  Ca  Ca0  1  0.35937013  0.20184170  0.81229523  1
  Ca  Ca1  1  0.79314013  0.63826070  0.67758574  1
  Ca  Ca2  1  0.63254463  0.79228430  0.17634676  1
  Ca  Ca3  1  0.19175828  0.37191666  0.32891310  1
  Ca  Ca4  1  0.42494337  0.57875782  0.25782187  1
  Ca  Ca5  1  0.57323489  0.43312295  0.73967918  1
  Ca  Ca6  1  0.80981195  0.01460751  0.42651085  1
  Ca  Ca7  1  0.98578847  0.19760947  0.08508214  1
  Ca  Ca8  1  0.19451006  0.98615450  0.58659854  1
  Ca  Ca9  1  0.03686587  0.78761423  0.91251900  1
  Rh  Rh0  1  0.17807743  0.59635515  0.58419992  1
  Rh  Rh1  1  0.39414645  0.82607216  0.91759228  1
  Rh  Rh2  1  0.82583266  0.39662149  0.41457816  1
  Au  Au0  1  0.59997568  0.17878235  0.08027724  1
loop_
_geom_bond_atom_site_label_1
_geom_bond_atom_site_label_2
_geom_bond_distance
_geom_bond_site_symmetry_2
Ca0 Rh0 2.966312 1_555
Ca0 Rh1 3.087795 1_545
Ca1 Rh2 2.943513 1_555
Ca1 Rh1 3.046618 1_555
Ca1 Rh0 3.125607 1_655
Ca2 Rh1 2.890522 1_554
Ca2 Rh2 2.991643 1_555
Ca3 Rh0 2.873675 1_555
Ca3 Rh2 3.054061 1_455
Ca4 Rh2 2.976109 1_555
Ca4 Rh0 3.044692 1_555
Ca4 Rh1 3.077436 1_554
Ca5 Rh0 2.991811 1_555
Ca5 Rh1 3.009915 1_555
Ca5 Rh2 3.009922 1_555
Ca6 Rh0 2.859484 1_645
Ca6 Rh2 3.438409 1_555
Ca7 Rh2 2.845593 1_555
Ca7 Rh1 2.876896 1_644
Ca8 Rh1 2.848693 1_555
Ca8 Rh2 2.878965 1_465
Ca8 Rh0 3.521893 1_555
Ca9 Rh0 2.823763 1_555
Ca9 Rh1 3.391639 1_555
Au0 Ca6 2.985052 1_555
Au0 Ca0 3.006523 1_554
Au0 Ca9 3.025006 1_644
Au0 Ca4 3.072467 1_555
Au0 Ca5 3.124750 1_554
Au0 Ca3 3.127865 1_555
Au0 Ca2 3.182257 1_545
Au0 Ca7 3.512159 1_555
