# generated using pymatgen
data_RbZnSiAs2
_symmetry_space_group_name_H-M   'P 1'
_cell_length_a   8.34654509
_cell_length_b   8.16365691
_cell_length_c   8.38014716
_cell_angle_alpha   71.34777659
_cell_angle_beta   75.90008724
_cell_angle_gamma   73.40212627
_symmetry_Int_Tables_number   1
_chemical_formula_structural   RbZnSiAs2
_chemical_formula_sum   'Rb4 Zn4 Si4 As8'
_cell_volume   511.13473396
_cell_formula_units_Z   4
loop_
 _symmetry_equiv_pos_site_id
 _symmetry_equiv_pos_as_xyz
  1  'x, y, z'
loop_
 _atom_site_type_symbol
 _atom_site_label
 _atom_site_symmetry_multiplicity
 _atom_site_fract_x
 _atom_site_fract_y
 _atom_site_fract_z
 _atom_site_occupancy
  Rb  Rb0  1  0.45382772  0.76972366  0.31840723  1
  Rb  Rb1  1  0.54617228  0.23027634  0.68159277  1
  Rb  Rb2  1  0.44068809  0.80134377  0.81491866  1
  Rb  Rb3  1  0.55931191  0.19865623  0.18508134  1
  Zn  Zn0  1  0.99664801  0.89473750  0.68457956  1
  Zn  Zn1  1  0.00335199  0.10526250  0.31542044  1
  Zn  Zn2  1  0.96383293  0.81409408  0.17347087  1
  Zn  Zn3  1  0.03616707  0.18590592  0.82652913  1
  Si  Si0  1  0.96158704  0.58843527  0.59472099  1
  Si  Si1  1  0.03841296  0.41156473  0.40527901  1
  Si  Si2  1  0.14475714  0.44842900  0.97752335  1
  Si  Si3  1  0.85524286  0.55157100  0.02247665  1
  As  As0  1  0.82249894  0.87782084  0.45440114  1
  As  As1  1  0.17750106  0.12217916  0.54559886  1
  As  As2  1  0.79079052  0.40218491  0.31555022  1
  As  As3  1  0.20920948  0.59781509  0.68444978  1
  As  As4  1  0.78905949  0.86710175  0.95701568  1
  As  As5  1  0.21094051  0.13289825  0.04298432  1
  As  As6  1  0.78002751  0.44053636  0.82583870  1
  As  As7  1  0.21997249  0.55946364  0.17416130  1
loop_
_geom_bond_atom_site_label_1
_geom_bond_atom_site_label_2
_geom_bond_distance
_geom_bond_site_symmetry_2
Si0 Si1 2.336166 1_655
Si0 Zn0 2.938586 1_555
Si1 Zn1 2.938586 1_555
Si2 Si3 2.299358 1_456
As0 Si0 2.373378 1_555
As0 Zn2 2.506862 1_555
As0 Zn1 2.538505 1_665
As0 Zn0 2.739303 1_555
As0 Rb3 3.482355 1_565
As0 Rb1 3.846623 1_565
As0 Rb2 3.861639 1_555
As0 Rb0 3.930595 1_555
As1 Si1 2.373378 1_555
As1 Zn3 2.506862 1_555
As1 Zn0 2.538505 1_445
As1 Zn1 2.739303 1_555
As1 Rb2 3.482355 1_545
As1 Rb0 3.846623 1_545
As1 Rb3 3.861639 1_555
As1 Rb1 3.930595 1_555
As2 Si3 2.371459 1_555
As2 Si1 2.393189 1_655
As2 Zn1 2.562638 1_655
As2 Rb1 3.373356 1_555
As2 Rb3 3.422592 1_555
As2 Rb0 3.479282 1_555
As3 Si2 2.371459 1_555
As3 Si0 2.393189 1_455
As3 Zn0 2.562638 1_455
As3 Rb0 3.373356 1_555
As3 Rb2 3.422592 1_555
As3 Rb1 3.479282 1_555
As4 Si3 2.381622 1_556
As4 Zn2 2.456025 1_556
As4 Zn0 2.496362 1_555
As4 Rb1 3.563159 1_565
As4 Rb2 3.626092 1_555
As4 Rb3 3.635131 1_566
As4 Rb0 3.637981 1_556
As5 Si2 2.381622 1_554
As5 Zn3 2.456025 1_554
As5 Zn1 2.496362 1_555
As5 Rb0 3.563159 1_545
As5 Rb3 3.626092 1_555
As5 Rb2 3.635131 1_544
As5 Rb1 3.637981 1_554
As6 Si0 2.371689 1_555
As6 Si3 2.390769 1_556
As6 Zn3 2.520129 1_655
As6 Rb2 3.448779 1_555
As6 Rb3 3.453934 1_556
As6 Rb1 3.550813 1_555
As7 Si1 2.371689 1_555
As7 Si2 2.390769 1_554
As7 Zn2 2.520129 1_455
As7 Rb3 3.448779 1_555
As7 Rb2 3.453934 1_554
As7 Rb0 3.550813 1_555
