# generated using pymatgen
data_Ba6Na16Pt
_symmetry_space_group_name_H-M   'P 1'
_cell_length_a   10.95944524
_cell_length_b   10.95944561
_cell_length_c   10.95944609
_cell_angle_alpha   109.47122153
_cell_angle_beta   109.47122220
_cell_angle_gamma   109.47121840
_symmetry_Int_Tables_number   1
_chemical_formula_structural   Ba6Na16Pt
_chemical_formula_sum   'Ba6 Na16 Pt1'
_cell_volume   1013.31359502
_cell_formula_units_Z   1
loop_
 _symmetry_equiv_pos_site_id
 _symmetry_equiv_pos_as_xyz
  1  'x, y, z'
loop_
 _atom_site_type_symbol
 _atom_site_label
 _atom_site_symmetry_multiplicity
 _atom_site_fract_x
 _atom_site_fract_y
 _atom_site_fract_z
 _atom_site_occupancy
  Ba  Ba0  1  0.24956116  0.24956116  0.00000000  1
  Ba  Ba1  1  1.00000000  0.24956116  0.24956116  1
  Ba  Ba2  1  0.00000000  0.75043884  0.75043884  1
  Ba  Ba3  1  0.75043884  0.00000000  0.75043884  1
  Ba  Ba4  1  0.24956116  0.00000000  0.24956116  1
  Ba  Ba5  1  0.75043884  0.75043884  1.00000000  1
  Na  Na0  1  0.50000000  0.50000000  0.50000000  1
  Na  Na1  1  0.00000000  0.00000000  0.50000000  1
  Na  Na2  1  0.50000000  0.00000000  0.00000000  1
  Na  Na3  1  0.00000000  0.50000000  0.00000000  1
  Na  Na4  1  0.34574778  0.69149557  0.34574778  1
  Na  Na5  1  0.65425222  0.00000000  0.34574778  1
  Na  Na6  1  0.34574778  0.00000000  0.65425222  1
  Na  Na7  1  0.65425222  0.34574778  0.00000000  1
  Na  Na8  1  0.34574778  0.34574778  0.69149557  1
  Na  Na9  1  0.69149557  0.34574778  0.34574778  1
  Na  Na10  1  0.00000000  0.34574778  0.65425222  1
  Na  Na11  1  0.30850443  0.65425222  0.65425222  1
  Na  Na12  1  0.34574778  0.65425222  0.00000000  1
  Na  Na13  1  0.00000000  0.65425222  0.34574778  1
  Na  Na14  1  0.65425222  0.65425222  0.30850443  1
  Na  Na15  1  0.65425222  0.30850443  0.65425222  1
  Pt  Pt0  1  0.00000000  0.00000000  0.00000000  1
loop_
_geom_bond_atom_site_label_1
_geom_bond_atom_site_label_2
_geom_bond_distance
_geom_bond_site_symmetry_2
Ba0 Pt0 3.158166 1_555
Ba0 Na7 4.203003 1_555
Ba0 Na14 4.203003 1_555
Ba0 Na12 4.203003 1_555
Ba0 Na8 4.203003 1_554
Ba1 Pt0 3.158166 1_655
Ba1 Na9 4.203003 1_555
Ba1 Na13 4.203003 1_655
Ba1 Na11 4.203003 1_655
Ba1 Na10 4.203003 1_655
Ba2 Pt0 3.158166 1_566
Ba2 Na11 4.203003 1_555
Ba2 Na10 4.203003 1_555
Ba2 Na9 4.203003 1_455
Ba2 Na13 4.203003 1_555
Ba3 Pt0 3.158166 1_656
Ba3 Na6 4.203003 1_555
Ba3 Na15 4.203003 1_555
Ba3 Na4 4.203003 1_545
Ba3 Na5 4.203003 1_555
Ba4 Pt0 3.158166 1_555
Ba4 Na5 4.203003 1_555
Ba4 Na4 4.203003 1_545
Ba4 Na15 4.203003 1_555
Ba4 Na6 4.203003 1_555
Ba5 Pt0 3.158166 1_666
Ba5 Na12 4.203003 1_556
Ba5 Na8 4.203003 1_555
Ba5 Na7 4.203003 1_556
Ba5 Na14 4.203003 1_556
Na0 Na11 3.597977 1_555
Na0 Na9 3.597977 1_555
Na0 Na15 3.597977 1_555
Na0 Na4 3.597977 1_555
Na0 Na14 3.597977 1_555
Na0 Na8 3.597977 1_555
Na1 Na6 3.597977 1_555
Na1 Na5 3.597977 1_455
Na1 Na8 3.597977 1_555
Na1 Na14 3.597977 1_445
Na1 Na10 3.597977 1_555
Na1 Na13 3.597977 1_545
Na2 Na9 3.597977 1_555
Na2 Na7 3.597977 1_555
Na2 Na5 3.597977 1_555
Na2 Na6 3.597977 1_554
Na3 Na7 3.597977 1_455
Na3 Na4 3.597977 1_555
Na4 Na6 3.904086 1_565
Na4 Na5 3.904086 1_565
Na5 Na9 3.673361 1_555
Na6 Na8 3.673361 1_555
Na6 Na7 3.673361 1_556
Na7 Na9 3.673361 1_555
Na7 Na8 3.904086 1_554
Na10 Na3 3.597977 1_556
Na10 Na8 3.673361 1_555
Na10 Na15 3.673361 1_455
Na10 Na5 3.673361 1_455
Na10 Na12 3.673361 1_556
Na10 Na9 3.904086 1_455
Na10 Na11 3.904086 1_555
Na11 Na2 3.597977 1_566
Na11 Na8 3.673361 1_555
Na11 Na6 3.673361 1_565
Na11 Na12 3.673361 1_556
Na11 Na4 3.673361 1_555
Na11 Na13 3.904086 1_555
Na12 Na3 3.597977 1_555
Na12 Na2 3.597977 1_565
Na12 Na5 3.673361 1_565
Na12 Na4 3.673361 1_555
Na12 Na14 3.904086 1_555
Na12 Na8 3.904086 1_554
Na13 Na3 3.597977 1_555
Na13 Na14 3.673361 1_455
Na13 Na4 3.673361 1_555
Na13 Na6 3.673361 1_565
Na13 Na7 3.673361 1_455
Na13 Na9 3.904086 1_455
Na14 Na4 3.673361 1_555
Na14 Na5 3.673361 1_565
Na14 Na9 3.673361 1_555
Na14 Na7 3.904086 1_555
Na15 Na3 3.597977 1_656
Na15 Na8 3.673361 1_555
Na15 Na7 3.673361 1_556
Na15 Na9 3.673361 1_555
Na15 Na5 3.904086 1_555
Na15 Na6 3.904086 1_555
