# generated using pymatgen
data_Sc2TcH6
_symmetry_space_group_name_H-M   'P 1'
_cell_length_a   4.75219032
_cell_length_b   4.75219116
_cell_length_c   4.75219040
_cell_angle_alpha   59.99999849
_cell_angle_beta   59.99999262
_cell_angle_gamma   60.00000490
_symmetry_Int_Tables_number   1
_chemical_formula_structural   Sc2TcH6
_chemical_formula_sum   'Sc2 Tc1 H6'
_cell_volume   75.88685401
_cell_formula_units_Z   1
loop_
 _symmetry_equiv_pos_site_id
 _symmetry_equiv_pos_as_xyz
  1  'x, y, z'
loop_
 _atom_site_type_symbol
 _atom_site_label
 _atom_site_symmetry_multiplicity
 _atom_site_fract_x
 _atom_site_fract_y
 _atom_site_fract_z
 _atom_site_occupancy
  Sc  Sc0  1  0.75000000  0.75000000  0.75000000  1
  Sc  Sc1  1  0.25000000  0.25000000  0.25000000  1
  Tc  Tc0  1  0.00000000  0.00000000  0.00000000  1
  H  H0  1  0.74069283  0.74069283  0.25930717  1
  H  H1  1  0.25930717  0.74069283  0.25930717  1
  H  H2  1  0.74069283  0.25930717  0.25930717  1
  H  H3  1  0.25930717  0.25930717  0.74069283  1
  H  H4  1  0.74069283  0.25930717  0.74069283  1
  H  H5  1  0.25930717  0.74069283  0.74069283  1
loop_
_geom_bond_atom_site_label_1
_geom_bond_atom_site_label_2
_geom_bond_distance
_geom_bond_site_symmetry_2
H0 Tc0 1.742703 1_665
H0 Sc0 2.376918 1_554
H0 Sc0 2.376918 1_555
H0 Sc1 2.376919 1_655
H0 Sc1 2.376919 1_565
H1 Tc0 1.742703 1_565
H1 Sc0 2.376918 1_554
H1 Sc0 2.376918 1_455
H1 Sc1 2.376919 1_555
H1 Sc1 2.376919 1_565
H2 Tc0 1.742703 1_655
H2 Sc1 2.376918 1_655
H2 Sc1 2.376918 1_555
H2 Sc0 2.376918 1_554
H2 Sc0 2.376919 1_545
H3 Tc0 1.742703 1_556
H3 Sc1 2.376918 1_556
H3 Sc1 2.376918 1_555
H3 Sc0 2.376919 1_455
H3 Sc0 2.376919 1_545
H4 Tc0 1.742703 1_656
H4 Sc1 2.376918 1_556
H4 Sc1 2.376918 1_655
H4 Sc0 2.376919 1_555
H4 Sc0 2.376919 1_545
H5 Tc0 1.742703 1_566
H5 Sc0 2.376918 1_455
H5 Sc0 2.376918 1_555
H5 Sc1 2.376918 1_556
H5 Sc1 2.376919 1_565
