# generated using pymatgen
data_P6Pb4SN12
_symmetry_space_group_name_H-M   'P 1'
_cell_length_a   7.67077752
_cell_length_b   7.67077800
_cell_length_c   7.67077865
_cell_angle_alpha   109.47122494
_cell_angle_beta   109.47122620
_cell_angle_gamma   109.47121746
_symmetry_Int_Tables_number   1
_chemical_formula_structural   P6Pb4SN12
_chemical_formula_sum   'P6 Pb4 S1 N12'
_cell_volume   347.45320738
_cell_formula_units_Z   1
loop_
 _symmetry_equiv_pos_site_id
 _symmetry_equiv_pos_as_xyz
  1  'x, y, z'
loop_
 _atom_site_type_symbol
 _atom_site_label
 _atom_site_symmetry_multiplicity
 _atom_site_fract_x
 _atom_site_fract_y
 _atom_site_fract_z
 _atom_site_occupancy
  P  P0  1  0.25000000  0.75000000  0.50000000  1
  P  P1  1  0.75000000  0.25000000  0.50000000  1
  P  P2  1  0.75000000  0.50000000  0.25000000  1
  P  P3  1  0.25000000  0.50000000  0.75000000  1
  P  P4  1  0.50000000  0.75000000  0.25000000  1
  P  P5  1  0.50000000  0.25000000  0.75000000  1
  Pb  Pb0  1  0.63593285  1.00000000  1.00000000  1
  Pb  Pb1  1  1.00000000  1.00000000  0.63593285  1
  Pb  Pb2  1  0.00000000  0.63593285  1.00000000  1
  Pb  Pb3  1  0.36406715  0.36406715  0.36406715  1
  S  S0  1  0.00000000  0.00000000  0.00000000  1
  N  N0  1  0.69949213  0.31656718  0.31656718  1
  N  N1  1  0.31656718  0.69949213  0.31656718  1
  N  N2  1  0.30050787  0.61707505  0.61707505  1
  N  N3  1  0.61707505  0.61707505  0.30050787  1
  N  N4  1  0.38292495  0.68343282  1.00000000  1
  N  N5  1  0.00000000  0.68343282  0.38292495  1
  N  N6  1  0.61707505  0.30050787  0.61707505  1
  N  N7  1  0.68343282  1.00000000  0.38292495  1
  N  N8  1  0.38292495  1.00000000  0.68343282  1
  N  N9  1  0.68343282  0.38292495  1.00000000  1
  N  N10  1  0.31656718  0.31656718  0.69949213  1
  N  N11  1  1.00000000  0.38292495  0.68343282  1
loop_
_geom_bond_atom_site_label_1
_geom_bond_atom_site_label_2
_geom_bond_distance
_geom_bond_site_symmetry_2
Pb0 S0 2.792678 1_666
Pb1 S0 2.792679 1_666
Pb2 S0 2.792678 1_566
Pb3 S0 2.792678 1_555
N0 P2 1.624235 1_555
N0 P1 1.624235 1_555
N0 Pb0 2.553710 1_544
N0 Pb3 2.836755 1_555
N1 P4 1.624234 1_555
N1 P0 1.624235 1_555
N1 Pb2 2.553710 1_554
N1 Pb3 2.836755 1_555
N2 P0 1.624234 1_555
N2 P3 1.624235 1_555
N2 Pb3 2.553710 1_555
N2 Pb0 2.836755 1_555
N3 P2 1.624234 1_555
N3 P4 1.624234 1_555
N3 Pb3 2.553710 1_555
N3 Pb1 2.836755 1_555
N4 P3 1.624234 1_555
N4 P4 1.624234 1_556
N4 Pb0 2.553710 1_555
N4 Pb2 2.836755 1_555
N5 P0 1.624234 1_555
N5 P2 1.624234 1_455
N5 Pb1 2.553710 1_455
N5 Pb2 2.836755 1_554
N6 P1 1.624234 1_555
N6 P5 1.624235 1_555
N6 Pb3 2.553710 1_555
N6 Pb2 2.836755 1_655
N7 P4 1.624234 1_555
N7 P1 1.624234 1_565
N7 Pb1 2.553710 1_555
N7 Pb0 2.836755 1_554
N8 P0 1.624234 1_555
N8 P5 1.624234 1_565
N8 Pb0 2.553710 1_555
N8 Pb1 2.836755 1_455
N9 P5 1.624234 1_555
N9 P2 1.624234 1_556
N9 Pb2 2.553710 1_655
N9 Pb0 2.836755 1_545
N10 P5 1.624234 1_555
N10 P3 1.624234 1_555
N10 Pb1 2.553710 1_445
N10 Pb3 2.836755 1_555
N11 P1 1.624234 1_555
N11 P3 1.624234 1_655
N11 Pb2 2.553710 1_655
N11 Pb1 2.836755 1_545
