# generated using pymatgen
data_CsHfRhSe4
_symmetry_space_group_name_H-M   'P 1'
_cell_length_a   8.83360872
_cell_length_b   8.83360829
_cell_length_c   6.11197877
_cell_angle_alpha   81.25563135
_cell_angle_beta   81.25563086
_cell_angle_gamma   25.01578853
_symmetry_Int_Tables_number   1
_chemical_formula_structural   CsHfRhSe4
_chemical_formula_sum   'Cs1 Hf1 Rh1 Se4'
_cell_volume   199.21973640
_cell_formula_units_Z   1
loop_
 _symmetry_equiv_pos_site_id
 _symmetry_equiv_pos_as_xyz
  1  'x, y, z'
loop_
 _atom_site_type_symbol
 _atom_site_label
 _atom_site_symmetry_multiplicity
 _atom_site_fract_x
 _atom_site_fract_y
 _atom_site_fract_z
 _atom_site_occupancy
  Cs  Cs0  1  0.49734605  0.49734605  0.50222189  1
  Hf  Hf0  1  0.75531254  0.75531254  0.20285613  1
  Rh  Rh0  1  0.24680960  0.24680960  0.77791496  1
  Se  Se0  1  0.35232273  0.35232273  0.03854382  1
  Se  Se1  1  0.65400290  0.65400290  0.94209372  1
  Se  Se2  1  0.82193171  0.82193171  0.57980583  1
  Se  Se3  1  0.17227248  0.17227248  0.45656364  1
loop_
_geom_bond_atom_site_label_1
_geom_bond_atom_site_label_2
_geom_bond_distance
_geom_bond_site_symmetry_2
Cs0 Se3 3.546646 1_565
Cs0 Se3 3.546647 1_655
Cs0 Se2 3.548512 1_545
Cs0 Se2 3.548512 1_455
Cs0 Se0 3.801092 1_556
Cs0 Se1 4.017482 1_554
Cs0 Se0 4.061528 1_555
Cs0 Se1 4.097707 1_555
Hf0 Se1 2.541810 1_554
Hf0 Se0 2.635330 1_565
Hf0 Se0 2.635331 1_655
Hf0 Se3 2.724755 1_655
Hf0 Se3 2.724755 1_565
Hf0 Se2 2.729977 1_555
Rh0 Se3 2.509355 1_555
Rh0 Se2 2.513248 1_455
Rh0 Se2 2.513249 1_545
Rh0 Se1 2.594040 1_545
Rh0 Se1 2.594041 1_455
Rh0 Se0 2.598530 1_556
