# generated using pymatgen
data_NiPd(PtO3)2
_symmetry_space_group_name_H-M   'P 1'
_cell_length_a   3.15465858
_cell_length_b   7.07688303
_cell_length_c   9.93108547
_cell_angle_alpha   90.00000000
_cell_angle_beta   90.00000000
_cell_angle_gamma   90.00000000
_symmetry_Int_Tables_number   1
_chemical_formula_structural   NiPd(PtO3)2
_chemical_formula_sum   'Ni2 Pd2 Pt4 O12'
_cell_volume   221.71297032
_cell_formula_units_Z   2
loop_
 _symmetry_equiv_pos_site_id
 _symmetry_equiv_pos_as_xyz
  1  'x, y, z'
loop_
 _atom_site_type_symbol
 _atom_site_label
 _atom_site_symmetry_multiplicity
 _atom_site_fract_x
 _atom_site_fract_y
 _atom_site_fract_z
 _atom_site_occupancy
  Ni  Ni0  1  0.00000000  0.00000000  0.00000000  1
  Ni  Ni1  1  0.00000000  0.50000000  0.50000000  1
  Pd  Pd0  1  0.00000000  0.00000000  0.50000000  1
  Pd  Pd1  1  0.00000000  0.50000000  0.00000000  1
  Pt  Pt0  1  0.50000000  0.23128159  0.24037798  1
  Pt  Pt1  1  0.50000000  0.76871841  0.75962202  1
  Pt  Pt2  1  0.50000000  0.26871841  0.74037798  1
  Pt  Pt3  1  0.50000000  0.73128159  0.25962202  1
  O  O0  1  0.50000000  0.97840317  0.14427973  1
  O  O1  1  0.50000000  0.02159683  0.85572027  1
  O  O2  1  0.50000000  0.52159683  0.64427973  1
  O  O3  1  0.50000000  0.47840317  0.35572027  1
  O  O4  1  0.00000000  0.18974913  0.35903166  1
  O  O5  1  0.00000000  0.81025087  0.64096834  1
  O  O6  1  0.00000000  0.31025087  0.85903166  1
  O  O7  1  0.00000000  0.68974913  0.14096834  1
  O  O8  1  0.00000000  0.26922067  0.11387610  1
  O  O9  1  0.00000000  0.73077933  0.88612390  1
  O  O10  1  0.00000000  0.23077933  0.61387610  1
  O  O11  1  0.00000000  0.76922067  0.38612390  1
loop_
_geom_bond_atom_site_label_1
_geom_bond_atom_site_label_2
_geom_bond_distance
_geom_bond_site_symmetry_2
Ni0 O0 2.136445 1_445
Ni0 O0 2.136445 1_545
Ni0 O1 2.136445 1_554
Ni0 O1 2.136445 1_454
Ni0 O8 2.215607 1_555
Ni0 O9 2.215607 1_544
Ni1 O2 2.136445 1_555
Ni1 O2 2.136445 1_455
Ni1 O3 2.136445 1_455
Ni1 O3 2.136445 1_555
Ni1 O11 2.215607 1_555
Ni1 O10 2.215607 1_555
O0 Pt0 2.028161 1_565
O0 Pt3 2.090595 1_555
O1 Pt1 2.028161 1_545
O1 Pt2 2.090595 1_555
O2 Pt2 2.028161 1_555
O2 Pt1 2.090595 1_555
O3 Pt3 2.028161 1_555
O3 Pt0 2.090595 1_555
O4 Pd0 1.939874 1_555
O4 Pt0 1.990701 1_455
O4 Pt0 1.990701 1_555
O5 Pd0 1.939874 1_565
O5 Pt1 1.990701 1_455
O5 Pt1 1.990701 1_555
O6 Pd1 1.939874 1_556
O6 Pt2 1.990701 1_455
O6 Pt2 1.990701 1_555
O7 Pd1 1.939874 1_555
O7 Pt3 1.990701 1_555
O7 Pt3 1.990701 1_455
O8 Pd1 1.986530 1_555
O8 Pt0 2.034293 1_455
O8 Pt0 2.034293 1_555
O9 Pd1 1.986530 1_556
O9 Pt1 2.034293 1_455
O9 Pt1 2.034293 1_555
O10 Pd0 1.986530 1_555
O10 Pt2 2.034293 1_555
O10 Pt2 2.034293 1_455
O11 Pd0 1.986530 1_565
O11 Pt3 2.034293 1_455
O11 Pt3 2.034293 1_555
