# generated using pymatgen
data_K2Zr3VSe8
_symmetry_space_group_name_H-M   'P 1'
_cell_length_a   6.57289748
_cell_length_b   7.65260307
_cell_length_c   16.22771969
_cell_angle_alpha   89.67843592
_cell_angle_beta   90.00000000
_cell_angle_gamma   90.00000000
_symmetry_Int_Tables_number   1
_chemical_formula_structural   K2Zr3VSe8
_chemical_formula_sum   'K4 Zr6 V2 Se16'
_cell_volume   816.23780090
_cell_formula_units_Z   2
loop_
 _symmetry_equiv_pos_site_id
 _symmetry_equiv_pos_as_xyz
  1  'x, y, z'
loop_
 _atom_site_type_symbol
 _atom_site_label
 _atom_site_symmetry_multiplicity
 _atom_site_fract_x
 _atom_site_fract_y
 _atom_site_fract_z
 _atom_site_occupancy
  K  K0  1  0.35139454  0.00000000  0.00000000  1
  K  K1  1  0.64860546  0.50000000  0.50000000  1
  K  K2  1  0.02839139  0.00000000  0.50000000  1
  K  K3  1  0.97160861  0.50000000  0.00000000  1
  Zr  Zr0  1  0.00118956  0.00867695  0.24816683  1
  Zr  Zr1  1  0.00118956  0.99132305  0.75183317  1
  Zr  Zr2  1  0.99881044  0.49132305  0.25183317  1
  Zr  Zr3  1  0.99881044  0.50867695  0.74816683  1
  Zr  Zr4  1  0.50000000  0.75000000  0.25000000  1
  Zr  Zr5  1  0.50000000  0.25000000  0.75000000  1
  V  V0  1  0.50000000  0.25000000  0.25000000  1
  V  V1  1  0.50000000  0.75000000  0.75000000  1
  Se  Se0  1  0.82905010  0.24671789  0.34690672  1
  Se  Se1  1  0.82905010  0.75328211  0.65309328  1
  Se  Se2  1  0.16418580  0.74985205  0.15348086  1
  Se  Se3  1  0.16418580  0.25014795  0.84651914  1
  Se  Se4  1  0.17094990  0.25328211  0.15309328  1
  Se  Se5  1  0.17094990  0.74671789  0.84690672  1
  Se  Se6  1  0.83581420  0.75014795  0.34651914  1
  Se  Se7  1  0.83581420  0.24985205  0.65348086  1
  Se  Se8  1  0.66736859  0.00272442  0.15531263  1
  Se  Se9  1  0.66736859  0.99727558  0.84468737  1
  Se  Se10  1  0.33263141  0.49727558  0.34468737  1
  Se  Se11  1  0.33263141  0.50272442  0.65531263  1
  Se  Se12  1  0.33632917  0.00077920  0.34340092  1
  Se  Se13  1  0.33632917  0.99922080  0.65659908  1
  Se  Se14  1  0.66367083  0.49922080  0.15659908  1
  Se  Se15  1  0.66367083  0.50077920  0.84340092  1
loop_
_geom_bond_atom_site_label_1
_geom_bond_atom_site_label_2
_geom_bond_distance
_geom_bond_site_symmetry_2
K0 Se8 3.265985 1_555
K0 Se9 3.265985 1_544
K0 Se2 3.365771 1_545
K0 Se3 3.365771 1_554
K0 Se4 3.374856 1_555
K0 Se5 3.374856 1_544
K1 Se11 3.265985 1_555
K1 Se10 3.265985 1_555
K1 Se7 3.365771 1_555
K1 Se6 3.365771 1_555
K1 Se1 3.374856 1_555
K1 Se0 3.374856 1_555
K2 Se13 3.248776 1_545
K2 Se12 3.248776 1_555
K2 Se0 3.376507 1_455
K2 Se1 3.376507 1_445
K2 Se7 3.393347 1_455
K2 Se6 3.393347 1_445
K3 Se14 3.248776 1_555
K3 Se15 3.248776 1_554
K3 Se5 3.376507 1_654
K3 Se4 3.376507 1_655
K3 Se2 3.393347 1_655
K3 Se3 3.393347 1_654
Se0 Zr2 2.663988 1_555
Se0 V0 2.674124 1_555
Se0 Zr0 2.683047 1_655
Se1 Zr3 2.663988 1_555
Se1 V1 2.674124 1_555
Se1 Zr1 2.683047 1_655
Se2 Zr4 2.706533 1_555
Se2 Zr0 2.732403 1_565
Se2 Zr2 2.758185 1_455
Se3 Zr5 2.706533 1_555
Se3 Zr1 2.732403 1_545
Se3 Zr3 2.758185 1_455
Se4 Zr0 2.663988 1_555
Se4 V0 2.674124 1_555
Se4 Zr2 2.683047 1_455
Se5 Zr1 2.663988 1_555
Se5 V1 2.674124 1_555
Se5 Zr3 2.683047 1_455
Se6 Zr4 2.706533 1_555
Se6 Zr2 2.732403 1_555
Se6 Zr0 2.758185 1_665
Se7 Zr5 2.706533 1_555
Se7 Zr3 2.732403 1_555
Se7 Zr1 2.758185 1_645
Se8 Zr0 2.662276 1_655
Se8 V0 2.680424 1_555
Se8 Zr4 2.697819 1_545
Se9 Zr1 2.662276 1_655
Se9 V1 2.680424 1_555
Se9 Zr5 2.697819 1_565
Se10 Zr2 2.662276 1_455
Se10 V0 2.680424 1_555
Se10 Zr4 2.697819 1_555
Se11 Zr3 2.662276 1_455
Se11 V1 2.680424 1_555
Se11 Zr5 2.697819 1_555
Se12 V0 2.656980 1_555
Se12 Zr4 2.677736 1_545
Se12 Zr0 2.691368 1_555
Se13 V1 2.656980 1_555
Se13 Zr5 2.677736 1_565
Se13 Zr1 2.691368 1_555
Se14 V0 2.656980 1_555
Se14 Zr4 2.677736 1_555
Se14 Zr2 2.691368 1_555
Se15 V1 2.656980 1_555
Se15 Zr5 2.677736 1_555
Se15 Zr3 2.691368 1_555
