# generated using pymatgen
data_Cs2TiCdSe4
_symmetry_space_group_name_H-M   'P 1'
_cell_length_a   14.74830860
_cell_length_b   13.16892683
_cell_length_c   7.97986893
_cell_angle_alpha   84.65275548
_cell_angle_beta   62.75100981
_cell_angle_gamma   32.59624290
_symmetry_Int_Tables_number   1
_chemical_formula_structural   Cs2TiCdSe4
_chemical_formula_sum   'Cs4 Ti2 Cd2 Se8'
_cell_volume   587.69806818
_cell_formula_units_Z   2
loop_
 _symmetry_equiv_pos_site_id
 _symmetry_equiv_pos_as_xyz
  1  'x, y, z'
loop_
 _atom_site_type_symbol
 _atom_site_label
 _atom_site_symmetry_multiplicity
 _atom_site_fract_x
 _atom_site_fract_y
 _atom_site_fract_z
 _atom_site_occupancy
  Cs  Cs0  1  0.67921849  0.67921849  0.32078151  1
  Cs  Cs1  1  0.32078151  0.32078151  0.67921849  1
  Cs  Cs2  1  0.92921849  0.92921849  0.57078151  1
  Cs  Cs3  1  0.57078151  0.57078151  0.92921849  1
  Ti  Ti0  1  0.75000000  0.75000000  0.75000000  1
  Ti  Ti1  1  0.50000000  0.50000000  0.50000000  1
  Cd  Cd0  1  0.00000000  0.00000000  0.00000000  1
  Cd  Cd1  1  0.25000000  0.25000000  0.25000000  1
  Se  Se0  1  0.38074901  0.01101792  0.92658377  1
  Se  Se1  1  0.68165130  0.92658377  0.01101792  1
  Se  Se2  1  0.92658377  0.68165130  0.38074901  1
  Se  Se3  1  0.01101792  0.38074901  0.68165130  1
  Se  Se4  1  0.23898208  0.86925099  0.56834870  1
  Se  Se5  1  0.56834870  0.32341623  0.23898208  1
  Se  Se6  1  0.32341623  0.56834870  0.86925099  1
  Se  Se7  1  0.86925099  0.23898208  0.32341623  1
loop_
_geom_bond_atom_site_label_1
_geom_bond_atom_site_label_2
_geom_bond_distance
_geom_bond_site_symmetry_2
Cs0 Se3 3.725647 1_654
Cs0 Se0 3.725661 1_565
Cs0 Se7 3.757526 1_555
Cs0 Se4 3.757530 1_555
Cs0 Se1 3.916364 1_555
Cs0 Se2 3.916373 1_555
Cs0 Se3 4.040401 1_565
Cs0 Se0 4.040404 1_654
Cs1 Se1 3.725650 1_456
Cs1 Se2 3.725654 1_545
Cs1 Se6 3.757502 1_555
Cs1 Se5 3.757510 1_555
Cs1 Se3 3.916343 1_555
Cs1 Se0 3.916352 1_555
Cs1 Se1 4.040393 1_545
Cs1 Se2 4.040406 1_456
Cs2 Se5 3.725650 1_655
Cs2 Se6 3.725654 1_565
Cs2 Se2 3.757502 1_555
Cs2 Se1 3.757510 1_556
Cs2 Se4 3.916343 1_655
Cs2 Se7 3.916352 1_565
Cs2 Se5 4.040393 1_566
Cs2 Se6 4.040406 1_654
Cs3 Se4 3.725647 1_556
Cs3 Se7 3.725661 1_555
Cs3 Se0 3.757526 1_565
Cs3 Se3 3.757530 1_655
Cs3 Se5 3.916364 1_556
Cs3 Se6 3.916373 1_555
Cs3 Se4 4.040401 1_645
Cs3 Se7 4.040404 1_466
Cd0 Se7 2.648499 1_455
Cd0 Se4 2.648511 1_544
Cd0 Se6 2.648517 1_544
Cd0 Se5 2.648521 1_455
Cd1 Se0 2.648499 1_554
Cd1 Se3 2.648511 1_555
Cd1 Se2 2.648517 1_455
Cd1 Se1 2.648521 1_545
Se0 Ti0 2.406739 1_545
Se1 Ti0 2.406763 1_554
Se2 Ti0 2.406750 1_555
Se3 Ti0 2.406745 1_455
Se4 Ti1 2.406745 1_555
Se5 Ti1 2.406763 1_555
Se6 Ti1 2.406750 1_555
Se7 Ti1 2.406739 1_555
