# generated using pymatgen
data_Nb6SnAu3N2
_symmetry_space_group_name_H-M   'P 1'
_cell_length_a   7.18698920
_cell_length_b   7.19517003
_cell_length_c   7.19065538
_cell_angle_alpha   90.00000000
_cell_angle_beta   89.94057964
_cell_angle_gamma   90.00000000
_symmetry_Int_Tables_number   1
_chemical_formula_structural   Nb6SnAu3N2
_chemical_formula_sum   'Nb12 Sn2 Au6 N4'
_cell_volume   371.84016133
_cell_formula_units_Z   2
loop_
 _symmetry_equiv_pos_site_id
 _symmetry_equiv_pos_as_xyz
  1  'x, y, z'
loop_
 _atom_site_type_symbol
 _atom_site_label
 _atom_site_symmetry_multiplicity
 _atom_site_fract_x
 _atom_site_fract_y
 _atom_site_fract_z
 _atom_site_occupancy
  Nb  Nb0  1  0.78537221  0.95736908  0.37647473  1
  Nb  Nb1  1  0.70468834  0.04209693  0.87363822  1
  Nb  Nb2  1  0.21462779  0.45736908  0.12352527  1
  Nb  Nb3  1  0.29531166  0.54209693  0.62636178  1
  Nb  Nb4  1  0.95433228  0.37804010  0.78909889  1
  Nb  Nb5  1  0.04566772  0.87804010  0.71090111  1
  Nb  Nb6  1  0.46153147  0.12795331  0.20858879  1
  Nb  Nb7  1  0.53846853  0.62795331  0.29141121  1
  Nb  Nb8  1  0.37734985  0.78758264  0.95500900  1
  Nb  Nb9  1  0.87174811  0.70792130  0.03830756  1
  Nb  Nb10  1  0.12825189  0.20792130  0.46169244  1
  Nb  Nb11  1  0.62265015  0.28758264  0.54499100  1
  Sn  Sn0  1  0.93050853  0.56897279  0.42835822  1
  Sn  Sn1  1  0.06949147  0.06897279  0.07164178  1
  Au  Au0  1  0.18301294  0.81503840  0.31551456  1
  Au  Au1  1  0.31365522  0.18482828  0.81728063  1
  Au  Au2  1  0.81698706  0.31503840  0.18448544  1
  Au  Au3  1  0.68634478  0.68482828  0.68271937  1
  Au  Au4  1  0.56743788  0.43418667  0.93393922  1
  Au  Au5  1  0.43256212  0.93418667  0.56606078  1
  N  N0  1  0.87269927  0.12175640  0.62569553  1
  N  N1  1  0.61993676  0.87425709  0.12299117  1
  N  N2  1  0.12730073  0.62175640  0.87430447  1
  N  N3  1  0.38006324  0.37425709  0.37700883  1
loop_
_geom_bond_atom_site_label_1
_geom_bond_atom_site_label_2
_geom_bond_distance
_geom_bond_site_symmetry_2
Nb0 Sn0 3.006277 1_555
Nb0 Sn1 3.099965 1_665
Nb1 Sn1 2.991036 1_656
Nb2 Sn1 3.006277 1_555
Nb2 Sn0 3.099965 1_455
Nb3 Sn0 2.991036 1_455
Nb4 Sn0 2.940439 1_555
Nb4 Sn1 3.124326 1_656
Nb5 Sn1 2.940439 1_566
Nb5 Sn0 3.124326 1_455
Nb6 Sn1 3.015685 1_555
Nb7 Sn0 3.015685 1_555
Nb8 Sn1 3.113552 1_566
Nb9 Sn1 2.970962 1_665
Nb9 Sn0 3.007785 1_555
Nb10 Sn0 2.970962 1_455
Nb10 Sn1 3.007785 1_555
Nb11 Sn0 3.113552 1_555
Au0 Sn1 2.661213 1_565
Au0 Sn0 2.661441 1_455
Au0 Au5 2.684037 1_555
Au0 Nb7 2.892645 1_555
Au0 Nb2 2.929112 1_555
Au0 Nb8 2.949941 1_554
Au0 Nb10 3.041383 1_565
Au0 Nb5 3.042562 1_555
Au0 Nb0 3.066849 1_455
Au0 Nb3 3.083501 1_555
Au0 Nb9 3.095309 1_455
Au0 Nb6 3.108689 1_565
Au1 Sn1 2.667000 1_556
Au1 Au5 2.691208 1_545
Au1 Au4 2.693074 1_555
Au1 Nb10 2.889292 1_555
Au1 Nb3 2.917268 1_555
Au1 Nb4 2.940040 1_455
Au1 Nb1 3.019825 1_555
Au1 Nb5 3.028256 1_545
Au1 Nb2 3.032813 1_556
Au1 Nb6 3.036517 1_556
Au1 Nb11 3.050054 1_555
Au1 Nb8 3.059558 1_545
Au2 Sn0 2.661213 1_555
Au2 Sn1 2.661441 1_655
Au2 Au4 2.684037 1_554
Au2 Nb6 2.892645 1_555
Au2 Nb0 2.929112 1_545
Au2 Nb11 2.949941 1_555
Au2 Nb9 3.041383 1_555
Au2 Nb4 3.042562 1_554
Au2 Nb2 3.066849 1_655
Au2 Nb1 3.083501 1_554
Au2 Nb10 3.095309 1_655
Au2 Nb7 3.108689 1_555
Au3 Sn0 2.667000 1_555
Au3 Au4 2.691208 1_555
Au3 Au5 2.693074 1_555
Au3 Nb9 2.889292 1_556
Au3 Nb1 2.917268 1_565
Au3 Nb5 2.940040 1_655
Au3 Nb3 3.019825 1_555
Au3 Nb4 3.028256 1_555
Au3 Nb0 3.032813 1_555
Au3 Nb7 3.036517 1_555
Au3 Nb8 3.050054 1_555
Au3 Nb11 3.059558 1_555
Au4 Nb2 2.882461 1_556
Au4 Nb8 2.890410 1_555
Au4 Nb7 2.931423 1_556
Au4 Nb4 2.995610 1_555
Au4 Nb11 3.014945 1_555
Au4 Nb1 3.019776 1_555
Au4 Nb9 3.037945 1_556
Au4 Nb3 3.054242 1_555
Au4 Nb6 3.054746 1_556
Au5 Nb0 2.882461 1_555
Au5 Nb11 2.890410 1_565
Au5 Nb6 2.931423 1_565
Au5 Nb5 2.995610 1_555
Au5 Nb8 3.014945 1_555
Au5 Nb3 3.019776 1_555
Au5 Nb10 3.037945 1_565
Au5 Nb1 3.054242 1_565
Au5 Nb7 3.054746 1_555
N0 Nb1 2.227267 1_555
N0 Nb11 2.234302 1_555
N0 Nb5 2.235477 1_645
N0 Nb0 2.237571 1_545
N0 Nb4 2.264192 1_555
N0 Nb10 2.268015 1_655
N1 Nb8 2.211788 1_554
N1 Nb7 2.224563 1_555
N1 Nb6 2.237301 1_565
N1 Nb1 2.245445 1_564
N1 Nb9 2.253026 1_555
N1 Nb0 2.257890 1_555
N2 Nb3 2.227267 1_555
N2 Nb8 2.234302 1_555
N2 Nb4 2.235477 1_455
N2 Nb2 2.237571 1_556
N2 Nb5 2.264192 1_555
N2 Nb9 2.268015 1_456
N3 Nb11 2.211788 1_555
N3 Nb6 2.224563 1_555
N3 Nb7 2.237301 1_555
N3 Nb3 2.245445 1_555
N3 Nb10 2.253026 1_555
N3 Nb2 2.257890 1_555
