# generated using pymatgen
data_Zr6Zn18GeIr5
_symmetry_space_group_name_H-M   'P 1'
_cell_length_a   8.70335109
_cell_length_b   8.70335055
_cell_length_c   8.70335139
_cell_angle_alpha   59.83245986
_cell_angle_beta   59.83245421
_cell_angle_gamma   59.83245972
_symmetry_Int_Tables_number   1
_chemical_formula_structural   Zr6Zn18GeIr5
_chemical_formula_sum   'Zr6 Zn18 Ge1 Ir5'
_cell_volume   464.39754135
_cell_formula_units_Z   1
loop_
 _symmetry_equiv_pos_site_id
 _symmetry_equiv_pos_as_xyz
  1  'x, y, z'
loop_
 _atom_site_type_symbol
 _atom_site_label
 _atom_site_symmetry_multiplicity
 _atom_site_fract_x
 _atom_site_fract_y
 _atom_site_fract_z
 _atom_site_occupancy
  Zr  Zr0  1  0.71362604  0.28027277  0.28027277  1
  Zr  Zr1  1  0.28637396  0.71972723  0.71972723  1
  Zr  Zr2  1  0.28027277  0.71362604  0.28027277  1
  Zr  Zr3  1  0.71972723  0.28637396  0.71972723  1
  Zr  Zr4  1  0.28027277  0.28027277  0.71362604  1
  Zr  Zr5  1  0.71972723  0.71972723  0.28637396  1
  Zn  Zn0  1  0.12331656  0.12331656  0.62496195  1
  Zn  Zn1  1  0.12331656  0.62496195  0.12331656  1
  Zn  Zn2  1  0.87668344  0.87668344  0.37503805  1
  Zn  Zn3  1  0.87668344  0.37503805  0.87668344  1
  Zn  Zn4  1  0.62496195  0.12331656  0.12331656  1
  Zn  Zn5  1  0.37503805  0.87668344  0.87668344  1
  Zn  Zn6  1  0.50000000  0.00000000  0.00000000  1
  Zn  Zn7  1  0.00000000  0.50000000  0.00000000  1
  Zn  Zn8  1  0.00000000  0.00000000  0.50000000  1
  Zn  Zn9  1  0.33764749  0.33764749  0.33764749  1
  Zn  Zn10  1  0.66235251  0.66235251  0.66235251  1
  Zn  Zn11  1  0.33358723  0.33358723  0.98804943  1
  Zn  Zn12  1  0.33358723  0.98804943  0.33358723  1
  Zn  Zn13  1  0.66641277  0.66641277  0.01195057  1
  Zn  Zn14  1  0.66641277  0.01195057  0.66641277  1
  Zn  Zn15  1  0.98804943  0.33358723  0.33358723  1
  Zn  Zn16  1  0.01195057  0.66641277  0.66641277  1
  Zn  Zn17  1  0.00000000  0.00000000  0.00000000  1
  Ge  Ge0  1  0.50000000  0.50000000  0.50000000  1
  Ir  Ir0  1  0.11861870  0.11861870  0.11861870  1
  Ir  Ir1  1  0.88138130  0.88138130  0.88138130  1
  Ir  Ir2  1  0.00000000  0.50000000  0.50000000  1
  Ir  Ir3  1  0.50000000  0.00000000  0.50000000  1
  Ir  Ir4  1  0.50000000  0.50000000  0.00000000  1
loop_
_geom_bond_atom_site_label_1
_geom_bond_atom_site_label_2
_geom_bond_distance
_geom_bond_site_symmetry_2
Zn0 Zn8 2.644001 1_555
Zn0 Zn17 2.659675 1_556
Zn0 Zn9 2.708005 1_555
Zn0 Zn12 2.708670 1_545
Zn0 Zn15 2.708670 1_455
Zn0 Zr1 2.878716 1_545
Zn0 Zr3 2.878716 1_455
Zn0 Zr4 2.884808 1_555
Zn1 Zn7 2.644001 1_555
Zn1 Zn17 2.659675 1_565
Zn1 Zn9 2.708006 1_555
Zn1 Zn15 2.708670 1_455
Zn1 Zn11 2.708670 1_554
Zn1 Zr5 2.878716 1_455
Zn1 Zr1 2.878716 1_554
Zn1 Zr2 2.884808 1_555
Zn2 Zn8 2.644001 1_665
Zn2 Zr0 2.878716 1_565
Zn2 Zr2 2.878716 1_655
Zn2 Zr5 2.884808 1_555
Zn3 Zn7 2.644001 1_656
Zn3 Zr4 2.878716 1_655
Zn3 Zr0 2.878716 1_556
Zn3 Zr3 2.884808 1_555
Zn4 Zn6 2.644001 1_555
Zn4 Zn9 2.708005 1_555
Zn4 Zr5 2.878716 1_545
Zn4 Zr3 2.878716 1_554
Zn4 Zr0 2.884808 1_555
Zn5 Zn6 2.644001 1_566
Zn5 Zr4 2.878716 1_565
Zn5 Zr2 2.878716 1_556
Zn5 Zr1 2.884808 1_555
Zn6 Zr3 3.132255 1_554
Zn6 Zr2 3.132255 1_545
Zn6 Zr5 3.132255 1_545
Zn6 Zr4 3.132255 1_554
Zn7 Zr1 3.132255 1_554
Zn7 Zr0 3.132255 1_455
Zn7 Zr5 3.132255 1_455
Zn7 Zr4 3.132255 1_554
Zn8 Zr3 3.132255 1_455
Zn8 Zr2 3.132255 1_545
Zn8 Zr1 3.132255 1_545
Zn8 Zr0 3.132255 1_455
Zn9 Zr2 2.858762 1_555
Zn9 Zr0 2.858762 1_555
Zn9 Zr4 2.858762 1_555
Zn10 Zn2 2.708005 1_555
Zn10 Zn5 2.708005 1_555
Zn10 Zn3 2.708006 1_555
Zn10 Zr3 2.858762 1_555
Zn10 Zr1 2.858762 1_555
Zn10 Zr5 2.858762 1_555
Zn11 Zn6 2.481820 1_556
Zn11 Zn7 2.481820 1_556
Zn11 Zn4 2.708670 1_556
Zn11 Zr4 2.929029 1_555
Zn11 Zr3 2.933494 1_555
Zn11 Zr1 2.933494 1_555
Zn12 Zn8 2.481820 1_565
Zn12 Zn6 2.481820 1_565
Zn12 Zn4 2.708670 1_565
Zn12 Zr2 2.929029 1_555
Zn12 Zr5 2.933494 1_555
Zn12 Zr1 2.933495 1_555
Zn13 Zn6 2.481820 1_565
Zn13 Zn7 2.481820 1_655
Zn13 Zn3 2.708670 1_554
Zn13 Zn5 2.708670 1_554
Zn13 Zr5 2.929029 1_555
Zn13 Zr2 2.933494 1_555
Zn13 Zr0 2.933494 1_555
Zn14 Zn8 2.481820 1_655
Zn14 Zn6 2.481820 1_556
Zn14 Zn5 2.708670 1_545
Zn14 Zn2 2.708670 1_545
Zn14 Zr3 2.929029 1_555
Zn14 Zr4 2.933494 1_555
Zn14 Zr0 2.933495 1_555
Zn15 Zn8 2.481820 1_655
Zn15 Zn7 2.481820 1_655
Zn15 Zr0 2.929029 1_555
Zn15 Zr3 2.933494 1_555
Zn15 Zr5 2.933494 1_555
Zn16 Zn8 2.481820 1_565
Zn16 Zn7 2.481820 1_556
Zn16 Zn3 2.708670 1_455
Zn16 Zn2 2.708670 1_455
Zn16 Zr1 2.929029 1_555
Zn16 Zr2 2.933494 1_555
Zn16 Zr4 2.933494 1_555
Zn17 Zn3 2.659675 1_454
Zn17 Zn5 2.659675 1_544
Zn17 Zn4 2.659675 1_455
Zn17 Zn2 2.659675 1_445
Ge0 Zr5 2.701778 1_555
Ge0 Zr4 2.701778 1_555
Ge0 Zr1 2.701778 1_555
Ge0 Zr0 2.701778 1_555
Ge0 Zr3 2.701779 1_555
Ge0 Zr2 2.701779 1_555
Ir0 Zn17 2.532002 1_555
Ir0 Zn7 2.707824 1_555
Ir0 Zn6 2.707824 1_555
Ir0 Zn8 2.707824 1_555
Ir0 Zn11 2.745296 1_554
Ir0 Zn15 2.745296 1_455
Ir0 Zn12 2.745296 1_545
Ir0 Zr0 2.898979 1_455
Ir0 Zr2 2.898979 1_545
Ir0 Zr4 2.898979 1_554
Ir0 Zn2 2.976285 1_445
Ir0 Zn5 2.976285 1_544
Ir0 Zn3 2.976285 1_454
Ir1 Zn17 2.532002 1_666
Ir1 Zn7 2.707824 1_656
Ir1 Zn6 2.707824 1_566
Ir1 Zn8 2.707824 1_665
Ir1 Zn13 2.745296 1_556
Ir1 Zn16 2.745296 1_655
Ir1 Zn14 2.745296 1_565
Ir1 Zr1 2.898979 1_655
Ir1 Zr3 2.898979 1_565
Ir1 Zr5 2.898979 1_556
Ir1 Zn0 2.976285 1_665
Ir1 Zn4 2.976285 1_566
Ir1 Zn1 2.976285 1_656
Ir2 Zn9 2.507767 1_555
Ir2 Zn10 2.507767 1_455
Ir2 Zn16 2.572428 1_555
Ir2 Zn15 2.572428 1_455
Ir2 Zn2 2.671306 1_455
Ir2 Zn0 2.671306 1_555
Ir2 Zn3 2.671306 1_455
Ir2 Zn1 2.671306 1_555
Ir2 Zr2 3.059489 1_555
Ir2 Zr3 3.059489 1_455
Ir2 Zr4 3.059489 1_555
Ir2 Zr5 3.059489 1_455
Ir3 Zn9 2.507767 1_555
Ir3 Zn10 2.507767 1_545
Ir3 Zn14 2.572428 1_555
Ir3 Zn12 2.572428 1_545
Ir3 Zn2 2.671306 1_545
Ir3 Zn0 2.671306 1_555
Ir3 Zn5 2.671306 1_545
Ir3 Zn4 2.671306 1_555
Ir3 Zr0 3.059489 1_555
Ir3 Zr1 3.059489 1_545
Ir3 Zr4 3.059489 1_555
Ir3 Zr5 3.059489 1_545
Ir4 Zn9 2.507767 1_555
Ir4 Zn10 2.507767 1_554
Ir4 Zn13 2.572428 1_555
Ir4 Zn11 2.572428 1_554
Ir4 Zn5 2.671306 1_554
Ir4 Zn4 2.671306 1_555
Ir4 Zn3 2.671306 1_554
Ir4 Zn1 2.671306 1_555
Ir4 Zr2 3.059489 1_555
Ir4 Zr3 3.059489 1_554
Ir4 Zr0 3.059489 1_555
Ir4 Zr1 3.059489 1_554
