# generated using pymatgen
data_Li2Sc2As6Rh7
_symmetry_space_group_name_H-M   'P 1'
_cell_length_a   7.01609120
_cell_length_b   6.94735220
_cell_length_c   7.01609231
_cell_angle_alpha   109.38782029
_cell_angle_beta   110.03434123
_cell_angle_gamma   109.38782923
_symmetry_Int_Tables_number   1
_chemical_formula_structural   Li2Sc2As6Rh7
_chemical_formula_sum   'Li2 Sc2 As6 Rh7'
_cell_volume   261.95793528
_cell_formula_units_Z   1
loop_
 _symmetry_equiv_pos_site_id
 _symmetry_equiv_pos_as_xyz
  1  'x, y, z'
loop_
 _atom_site_type_symbol
 _atom_site_label
 _atom_site_symmetry_multiplicity
 _atom_site_fract_x
 _atom_site_fract_y
 _atom_site_fract_z
 _atom_site_occupancy
  Li  Li0  1  0.00000000  0.00000000  0.50000000  1
  Li  Li1  1  0.50000000  0.00000000  0.00000000  1
  Sc  Sc0  1  0.00000000  0.50000000  0.00000000  1
  Sc  Sc1  1  0.50000000  0.50000000  0.50000000  1
  As  As0  1  0.68556295  0.69628286  0.01071991  1
  As  As1  1  0.31443705  0.30371714  0.98928009  1
  As  As2  1  0.01071991  0.69628286  0.68556295  1
  As  As3  1  0.98928009  0.30371714  0.31443705  1
  As  As4  1  0.68608009  0.00000000  0.68608009  1
  As  As5  1  0.31391991  1.00000000  0.31391991  1
  Rh  Rh0  1  0.00000000  0.00000000  0.00000000  1
  Rh  Rh1  1  0.25000000  0.50000000  0.75000000  1
  Rh  Rh2  1  0.74987240  0.25392723  0.50405483  1
  Rh  Rh3  1  0.50405483  0.25392723  0.74987240  1
  Rh  Rh4  1  0.49594517  0.74607277  0.25012760  1
  Rh  Rh5  1  0.75000000  0.50000000  0.25000000  1
  Rh  Rh6  1  0.25012760  0.74607277  0.49594517  1
loop_
_geom_bond_atom_site_label_1
_geom_bond_atom_site_label_2
_geom_bond_distance
_geom_bond_site_symmetry_2
Li0 Rh1 2.832175 1_555
Li0 Rh5 2.832175 1_445
Li0 Rh3 2.872105 1_555
Li0 Rh4 2.872105 1_445
Li0 Rh6 2.872105 1_545
Li0 Rh2 2.872105 1_455
Li1 Rh1 2.832175 1_544
Li1 Rh5 2.832175 1_555
Li1 Rh4 2.872105 1_545
Li1 Rh3 2.872105 1_554
Li1 Rh2 2.872105 1_555
Li1 Rh6 2.872105 1_544
As0 Rh4 2.482306 1_555
As0 Rh1 2.508291 1_554
As0 Rh5 2.508291 1_555
As0 Rh0 2.540346 1_665
As0 Rh3 2.546826 1_554
As0 Li1 2.831083 1_565
As0 Li0 2.831083 1_665
As0 Sc0 2.962273 1_655
As0 Sc1 2.962273 1_554
As1 Rh3 2.482306 1_555
As1 Rh5 2.508291 1_556
As1 Rh1 2.508291 1_555
As1 Rh0 2.540346 1_556
As1 Rh4 2.546826 1_556
As1 Li1 2.831083 1_556
As1 Li0 2.831083 1_555
As1 Sc0 2.962273 1_556
As1 Sc1 2.962273 1_556
As2 Rh6 2.482305 1_555
As2 Rh1 2.508291 1_555
As2 Rh5 2.508291 1_455
As2 Rh0 2.540346 1_566
As2 Rh2 2.546826 1_455
As2 Li1 2.831083 1_566
As2 Li0 2.831083 1_565
As2 Sc1 2.962273 1_455
As2 Sc0 2.962273 1_556
As3 Rh2 2.482305 1_555
As3 Rh5 2.508291 1_555
As3 Rh1 2.508291 1_655
As3 Rh0 2.540346 1_655
As3 Rh6 2.546826 1_655
As3 Li1 2.831083 1_555
As3 Li0 2.831083 1_655
As3 Sc1 2.962273 1_655
As3 Sc0 2.962273 1_655
As4 Rh6 2.511308 1_545
As4 Rh2 2.511308 1_555
As4 Rh3 2.511308 1_555
As4 Rh4 2.511308 1_545
As4 Rh0 2.525512 1_656
As4 Sc1 2.878482 1_545
As4 Sc0 2.878482 1_656
As4 Li0 2.919866 1_655
As4 Li1 2.919866 1_556
As5 Rh2 2.511308 1_565
As5 Rh6 2.511308 1_555
As5 Rh4 2.511308 1_555
As5 Rh3 2.511308 1_565
As5 Rh0 2.525512 1_565
As5 Sc1 2.878482 1_565
As5 Sc0 2.878482 1_555
As5 Li0 2.919866 1_565
As5 Li1 2.919866 1_565
Rh1 Sc1 2.874226 1_555
Rh1 Sc0 2.874226 1_556
Rh2 Sc1 2.825735 1_555
Rh2 Sc0 2.825735 1_656
Rh3 Sc0 2.825734 1_656
Rh3 Sc1 2.825735 1_555
Rh4 Sc0 2.825734 1_555
Rh4 Sc1 2.825735 1_555
Rh5 Sc0 2.874226 1_655
Rh5 Sc1 2.874226 1_555
Rh6 Sc1 2.825735 1_555
Rh6 Sc0 2.825735 1_555
