# generated using pymatgen
data_Y3Si2GeOs2
_symmetry_space_group_name_H-M   'P 1'
_cell_length_a   5.76755075
_cell_length_b   5.76755159
_cell_length_c   13.83929319
_cell_angle_alpha   90.00000000
_cell_angle_beta   90.00000000
_cell_angle_gamma   137.44090082
_symmetry_Int_Tables_number   1
_chemical_formula_structural   Y3Si2GeOs2
_chemical_formula_sum   'Y6 Si4 Ge2 Os4'
_cell_volume   311.36409488
_cell_formula_units_Z   2
loop_
 _symmetry_equiv_pos_site_id
 _symmetry_equiv_pos_as_xyz
  1  'x, y, z'
loop_
 _atom_site_type_symbol
 _atom_site_label
 _atom_site_symmetry_multiplicity
 _atom_site_fract_x
 _atom_site_fract_y
 _atom_site_fract_z
 _atom_site_occupancy
  Y  Y0  1  0.64473891  0.35526109  0.25000000  1
  Y  Y1  1  0.35526109  0.64473891  0.75000000  1
  Y  Y2  1  0.92474197  0.07525803  0.11296775  1
  Y  Y3  1  0.07525803  0.92474197  0.88703225  1
  Y  Y4  1  0.07525803  0.92474197  0.61296775  1
  Y  Y5  1  0.92474197  0.07525803  0.38703225  1
  Si  Si0  1  0.62022618  0.37977382  0.03858884  1
  Si  Si1  1  0.37977382  0.62022618  0.96141116  1
  Si  Si2  1  0.37977382  0.62022618  0.53858884  1
  Si  Si3  1  0.62022618  0.37977382  0.46141116  1
  Ge  Ge0  1  0.33405261  0.66594739  0.25000000  1
  Ge  Ge1  1  0.66594739  0.33405261  0.75000000  1
  Os  Os0  1  0.78836082  0.21163918  0.57987752  1
  Os  Os1  1  0.21163918  0.78836082  0.42012248  1
  Os  Os2  1  0.21163918  0.78836082  0.07987752  1
  Os  Os3  1  0.78836082  0.21163918  0.92012248  1
loop_
_geom_bond_atom_site_label_1
_geom_bond_atom_site_label_2
_geom_bond_distance
_geom_bond_site_symmetry_2
Si0 Y0 2.937621 1_555
Si0 Y3 3.002357 1_544
Si0 Y3 3.002357 1_654
Si0 Y2 3.139403 1_455
Si0 Y2 3.139404 1_565
Si1 Y1 2.937621 1_555
Si1 Y2 3.002357 1_566
Si1 Y2 3.002357 1_456
Si1 Y3 3.139403 1_655
Si1 Y3 3.139404 1_545
Si2 Y1 2.937621 1_555
Si2 Y5 3.002357 1_565
Si2 Y5 3.002357 1_455
Si2 Y4 3.139403 1_655
Si2 Y4 3.139404 1_545
Si3 Y0 2.937621 1_555
Si3 Y4 3.002357 1_545
Si3 Y4 3.002357 1_655
Si3 Y5 3.139403 1_455
Si3 Y5 3.139404 1_565
Ge0 Os1 2.697101 1_555
Ge0 Os2 2.697101 1_555
Ge0 Y0 2.919240 1_455
Ge0 Y0 2.919241 1_565
Ge0 Y5 2.987966 1_565
Ge0 Y2 2.987966 1_565
Ge0 Y5 2.987966 1_455
Ge0 Y2 2.987966 1_455
Ge0 Y0 3.339458 1_555
Ge1 Os3 2.697101 1_555
Ge1 Os0 2.697101 1_555
Ge1 Y1 2.919240 1_655
Ge1 Y1 2.919241 1_545
Ge1 Y3 2.987966 1_545
Ge1 Y4 2.987966 1_545
Ge1 Y3 2.987966 1_655
Ge1 Y4 2.987966 1_655
Ge1 Y1 3.339458 1_555
Os0 Si2 2.381853 1_655
Os0 Si2 2.381854 1_545
Os0 Si3 2.440077 1_555
Os0 Y5 3.044933 1_555
Os0 Y4 3.117575 1_645
Os0 Y4 3.136510 1_545
Os0 Y4 3.136511 1_655
Os0 Y1 3.231324 1_655
Os0 Y1 3.231324 1_545
Os1 Si3 2.381853 1_455
Os1 Si3 2.381854 1_565
Os1 Si2 2.440077 1_555
Os1 Y4 3.044933 1_555
Os1 Y5 3.117575 1_465
Os1 Y5 3.136510 1_565
Os1 Y5 3.136511 1_455
Os1 Y0 3.231324 1_455
Os1 Y0 3.231324 1_565
Os2 Si0 2.381853 1_455
Os2 Si0 2.381854 1_565
Os2 Si1 2.440077 1_554
Os2 Y3 3.044933 1_554
Os2 Y2 3.117575 1_465
Os2 Y2 3.136510 1_565
Os2 Y2 3.136511 1_455
Os2 Y0 3.231324 1_455
Os2 Y0 3.231324 1_565
Os3 Si1 2.381853 1_655
Os3 Si1 2.381854 1_545
Os3 Si0 2.440077 1_556
Os3 Y2 3.044933 1_556
Os3 Y3 3.117575 1_645
Os3 Y3 3.136510 1_545
Os3 Y3 3.136511 1_655
Os3 Y1 3.231324 1_655
Os3 Y1 3.231324 1_545
