# generated using pymatgen
data_CrSi(BW2)2
_symmetry_space_group_name_H-M   'P 1'
_cell_length_a   5.95297843
_cell_length_b   5.95297965
_cell_length_c   6.90004372
_cell_angle_alpha   115.55469704
_cell_angle_beta   115.55469622
_cell_angle_gamma   89.99999360
_symmetry_Int_Tables_number   1
_chemical_formula_structural   CrSi(BW2)2
_chemical_formula_sum   'Cr2 Si2 B4 W8'
_cell_volume   193.75079126
_cell_formula_units_Z   2
loop_
 _symmetry_equiv_pos_site_id
 _symmetry_equiv_pos_as_xyz
  1  'x, y, z'
loop_
 _atom_site_type_symbol
 _atom_site_label
 _atom_site_symmetry_multiplicity
 _atom_site_fract_x
 _atom_site_fract_y
 _atom_site_fract_z
 _atom_site_occupancy
  Cr  Cr0  1  0.50000000  0.50000000  0.00000000  1
  Cr  Cr1  1  0.00000000  0.00000000  0.00000000  1
  Si  Si0  1  0.25000000  0.25000000  0.50000000  1
  Si  Si1  1  0.75000000  0.75000000  0.50000000  1
  B  B0  1  0.37370261  0.87370261  1.00000000  1
  B  B1  1  0.62629739  0.12629739  0.00000000  1
  B  B2  1  0.12629739  0.37370261  1.00000000  1
  B  B3  1  0.87370261  0.62629739  0.00000000  1
  W  W0  1  0.02731656  0.52731656  0.72381210  1
  W  W1  1  0.69649554  0.19649554  0.72381210  1
  W  W2  1  0.19649554  0.02731656  0.72381210  1
  W  W3  1  0.52731656  0.69649554  0.72381210  1
  W  W4  1  0.97268344  0.47268344  0.27618790  1
  W  W5  1  0.30350446  0.80350446  0.27618790  1
  W  W6  1  0.80350446  0.97268344  0.27618790  1
  W  W7  1  0.47268344  0.30350446  0.27618790  1
loop_
_geom_bond_atom_site_label_1
_geom_bond_atom_site_label_2
_geom_bond_distance
_geom_bond_site_symmetry_2
Cr0 W4 2.686450 1_555
Cr0 W0 2.686450 1_554
Cr0 W5 2.686450 1_555
Cr0 W1 2.686450 1_554
Cr0 W3 2.686450 1_554
Cr0 W7 2.686450 1_555
Cr0 W6 2.686451 1_555
Cr0 W2 2.686451 1_554
Cr0 Si1 2.733662 1_555
Cr0 Si0 2.733662 1_554
Cr1 W2 2.686450 1_554
Cr1 W6 2.686450 1_445
Cr1 W5 2.686450 1_545
Cr1 W1 2.686450 1_454
Cr1 W7 2.686450 1_555
Cr1 W3 2.686450 1_444
Cr1 W4 2.686450 1_455
Cr1 W0 2.686450 1_544
Cr1 Si1 2.733662 1_444
Cr1 Si0 2.733662 1_555
Si0 W1 2.536575 1_555
Si0 W0 2.536576 1_555
Si0 W7 2.536576 1_555
Si0 W4 2.536576 1_455
Si0 W6 2.536576 1_445
Si0 W2 2.536576 1_555
Si0 W5 2.536576 1_545
Si0 W3 2.536576 1_555
Si1 W5 2.536575 1_555
Si1 W4 2.536576 1_555
Si1 W3 2.536576 1_555
Si1 W0 2.536576 1_655
Si1 W2 2.536576 1_665
Si1 W6 2.536576 1_555
Si1 W1 2.536576 1_565
Si1 W7 2.536576 1_555
B0 B1 2.126541 1_566
B0 W3 2.312981 1_555
B0 W6 2.312981 1_556
B0 W2 2.312981 1_565
B0 W7 2.312981 1_566
B0 W5 2.314113 1_556
B0 W0 2.314113 1_555
B0 Cr1 2.348257 1_566
B0 Cr0 2.348257 1_556
B1 W7 2.312981 1_555
B1 W2 2.312981 1_554
B1 W6 2.312981 1_545
B1 W3 2.312981 1_544
B1 W1 2.314113 1_554
B1 W4 2.314113 1_555
B1 Cr1 2.348257 1_655
B1 Cr0 2.348257 1_555
B2 B3 2.126541 1_456
B2 W4 2.312981 1_456
B2 W1 2.312981 1_455
B2 W0 2.312981 1_555
B2 W5 2.312981 1_556
B2 W7 2.314113 1_556
B2 W2 2.314113 1_555
B2 Cr0 2.348257 1_556
B2 Cr1 2.348257 1_556
B3 W0 2.312981 1_654
B3 W5 2.312981 1_655
B3 W4 2.312981 1_555
B3 W1 2.312981 1_554
B3 W3 2.314113 1_554
B3 W6 2.314113 1_555
B3 Cr0 2.348257 1_555
B3 Cr1 2.348257 1_665
