# generated using pymatgen
data_Mn3Nb6O11
_symmetry_space_group_name_H-M   'P 1'
_cell_length_a   6.12120682
_cell_length_b   15.31649322
_cell_length_c   6.12120732
_cell_angle_alpha   90.00003660
_cell_angle_beta   120.00004615
_cell_angle_gamma   89.99991245
_symmetry_Int_Tables_number   1
_chemical_formula_structural   Mn3Nb6O11
_chemical_formula_sum   'Mn6 Nb12 O22'
_cell_volume   497.00861290
_cell_formula_units_Z   2
loop_
 _symmetry_equiv_pos_site_id
 _symmetry_equiv_pos_as_xyz
  1  'x, y, z'
loop_
 _atom_site_type_symbol
 _atom_site_label
 _atom_site_symmetry_multiplicity
 _atom_site_fract_x
 _atom_site_fract_y
 _atom_site_fract_z
 _atom_site_occupancy
  Mn  Mn0  1  0.00000110  0.25000075  0.99999716  1
  Mn  Mn1  1  0.66667823  0.78395747  0.33333998  1
  Mn  Mn2  1  0.33332894  0.71604093  0.66667163  1
  Mn  Mn3  1  0.00000515  0.74999905  0.00000525  1
  Mn  Mn4  1  0.66666834  0.28395862  0.33332687  1
  Mn  Mn5  1  0.33333304  0.21604287  0.66666592  1
  Nb  Nb0  1  0.15416903  0.42517244  0.84582892  1
  Nb  Nb1  1  0.15417153  0.92517882  0.84583232  1
  Nb  Nb2  1  0.69165902  0.42517204  0.84582813  1
  Nb  Nb3  1  0.69166168  0.92517858  0.84583155  1
  Nb  Nb4  1  0.15416971  0.42517235  0.30833941  1
  Nb  Nb5  1  0.15417147  0.92517909  0.30834080  1
  Nb  Nb6  1  0.84583226  0.07482650  0.69166416  1
  Nb  Nb7  1  0.84582523  0.57482144  0.69165580  1
  Nb  Nb8  1  0.30833619  0.07482663  0.15416757  1
  Nb  Nb9  1  0.30833871  0.57482221  0.15417003  1
  Nb  Nb10  1  0.84583250  0.07482679  0.15416754  1
  Nb  Nb11  1  0.84582640  0.57482135  0.15416970  1
  O  O0  1  0.33333169  0.34733218  0.66666596  1
  O  O1  1  0.33333441  0.84732013  0.66666816  1
  O  O2  1  0.66666627  0.15267025  0.33333265  1
  O  O3  1  0.66666385  0.65267802  0.33333153  1
  O  O4  1  0.50000147  0.99999368  0.00000175  1
  O  O5  1  0.49999690  0.50000644  0.99999698  1
  O  O6  1  0.50000166  0.99999364  0.50000029  1
  O  O7  1  0.49999712  0.50000646  0.49999981  1
  O  O8  1  -0.00000129  0.99999348  0.49999940  1
  O  O9  1  -0.00000058  0.50000627  0.49999930  1
  O  O10  1  0.84257463  0.34074980  0.15742206  1
  O  O11  1  0.84257015  0.84073601  0.15743306  1
  O  O12  1  0.31484998  0.34074989  0.15742532  1
  O  O13  1  0.31486664  0.84073610  0.15743487  1
  O  O14  1  0.84257401  0.34075026  0.68514858  1
  O  O15  1  0.84257071  0.84073618  0.68513869  1
  O  O16  1  0.15742540  0.15925183  0.31484954  1
  O  O17  1  0.15742982  0.65926164  0.31486300  1
  O  O18  1  0.68515042  0.15925175  0.84257467  1
  O  O19  1  0.68513711  0.65926223  0.84256869  1
  O  O20  1  0.15742455  0.15925183  0.84257341  1
  O  O21  1  0.15742756  0.65926203  0.84256753  1
loop_
_geom_bond_atom_site_label_1
_geom_bond_atom_site_label_2
_geom_bond_distance
_geom_bond_site_symmetry_2
Mn0 O20 2.172021 1_555
Mn0 O12 2.172032 1_556
Mn0 O14 2.172033 1_455
Mn0 O18 2.172038 1_455
Mn0 O10 2.172039 1_456
Mn0 O16 2.172043 1_556
Mn1 O3 2.010741 1_555
Mn1 O15 2.057728 1_555
Mn1 O11 2.057729 1_555
Mn1 O13 2.057788 1_555
Mn2 O1 2.010737 1_555
Mn2 O21 2.057724 1_555
Mn2 O19 2.057772 1_555
Mn2 O17 2.057779 1_555
Mn3 O17 2.171952 1_555
Mn3 O21 2.171957 1_554
Mn3 O13 2.171965 1_555
Mn3 O11 2.171967 1_455
Mn3 O15 2.171985 1_454
Mn3 O19 2.171989 1_454
Mn4 O2 2.010877 1_555
Mn4 O10 2.057870 1_555
Mn4 O12 2.057902 1_555
Mn4 O14 2.057922 1_555
Mn5 O0 2.010892 1_555
Mn5 O16 2.057893 1_555
Mn5 O20 2.057893 1_555
Mn5 O18 2.057897 1_555
Nb0 O14 2.097935 1_455
Nb0 O12 2.097943 1_556
Nb0 O5 2.165140 1_555
Nb0 O9 2.165145 1_555
Nb0 O0 2.242685 1_555
Nb1 O15 2.098153 1_455
Nb1 O13 2.098160 1_556
Nb1 O4 2.164994 1_556
Nb1 O8 2.165004 1_555
Nb1 O1 2.242841 1_555
Nb2 O14 2.097928 1_555
Nb2 O10 2.097930 1_556
Nb2 O7 2.165144 1_555
Nb2 O5 2.165156 1_555
Nb2 O0 2.242691 1_555
Nb3 O15 2.098154 1_555
Nb3 O11 2.098154 1_556
Nb3 O4 2.164996 1_556
Nb3 O6 2.164999 1_555
Nb3 O1 2.242842 1_555
Nb4 O12 2.097933 1_555
Nb4 O10 2.097939 1_455
Nb4 O7 2.165139 1_555
Nb4 O9 2.165148 1_555
Nb4 O0 2.242689 1_555
Nb5 O13 2.098156 1_555
Nb5 O11 2.098160 1_455
Nb5 O6 2.164992 1_555
Nb5 O8 2.164994 1_555
Nb5 O1 2.242845 1_555
Nb6 O18 2.097952 1_555
Nb6 O20 2.097954 1_655
Nb6 O6 2.165143 1_545
Nb6 O8 2.165146 1_645
Nb6 O2 2.242740 1_555
Nb7 O19 2.098135 1_555
Nb7 O21 2.098140 1_655
Nb7 O7 2.164985 1_555
Nb7 O9 2.164997 1_655
Nb7 O3 2.242812 1_555
Nb8 O16 2.097953 1_555
Nb8 O20 2.097959 1_554
Nb8 O4 2.165145 1_545
Nb8 O6 2.165153 1_545
Nb8 O2 2.242734 1_555
Nb9 O17 2.098126 1_555
Nb9 O21 2.098132 1_554
Nb9 O7 2.164998 1_555
Nb9 O5 2.165004 1_554
Nb9 O3 2.242811 1_555
Nb10 O18 2.097951 1_554
Nb10 O16 2.097954 1_655
Nb10 O4 2.165148 1_545
Nb10 O8 2.165152 1_645
Nb10 O2 2.242737 1_555
Nb11 O19 2.098136 1_554
Nb11 O17 2.098142 1_655
Nb11 O5 2.164991 1_554
Nb11 O9 2.164991 1_655
Nb11 O3 2.242813 1_555
