# generated using pymatgen
data_NaSb12Ir3Os
_symmetry_space_group_name_H-M   'P 1'
_cell_length_a   8.10789238
_cell_length_b   8.10789354
_cell_length_c   8.10789282
_cell_angle_alpha   109.52612229
_cell_angle_beta   109.52612137
_cell_angle_gamma   109.52612324
_symmetry_Int_Tables_number   1
_chemical_formula_structural   NaSb12Ir3Os
_chemical_formula_sum   'Na1 Sb12 Ir3 Os1'
_cell_volume   409.46443769
_cell_formula_units_Z   1
loop_
 _symmetry_equiv_pos_site_id
 _symmetry_equiv_pos_as_xyz
  1  'x, y, z'
loop_
 _atom_site_type_symbol
 _atom_site_label
 _atom_site_symmetry_multiplicity
 _atom_site_fract_x
 _atom_site_fract_y
 _atom_site_fract_z
 _atom_site_occupancy
  Na  Na0  1  0.00000000  0.00000000  0.00000000  1
  Sb  Sb0  1  0.34196769  0.18747683  0.84604855  1
  Sb  Sb1  1  0.65803231  0.81252317  0.15395145  1
  Sb  Sb2  1  0.65922996  0.50508728  0.84346028  1
  Sb  Sb3  1  0.34077004  0.49491272  0.15653972  1
  Sb  Sb4  1  0.18747683  0.84604855  0.34196769  1
  Sb  Sb5  1  0.81252317  0.15395145  0.65803231  1
  Sb  Sb6  1  0.50508728  0.84346028  0.65922996  1
  Sb  Sb7  1  0.49491272  0.15653972  0.34077004  1
  Sb  Sb8  1  0.84604855  0.34196769  0.18747683  1
  Sb  Sb9  1  0.15395145  0.65803231  0.81252317  1
  Sb  Sb10  1  0.84346028  0.65922996  0.50508728  1
  Sb  Sb11  1  0.15653972  0.34077004  0.49491272  1
  Ir  Ir0  1  0.00000000  0.00000000  0.50000000  1
  Ir  Ir1  1  0.50000000  0.00000000  0.00000000  1
  Ir  Ir2  1  0.00000000  0.50000000  0.00000000  1
  Os  Os0  1  0.50000000  0.50000000  0.50000000  1
loop_
_geom_bond_atom_site_label_1
_geom_bond_atom_site_label_2
_geom_bond_distance
_geom_bond_site_symmetry_2
Na0 Sb7 3.490921 1_555
Na0 Sb6 3.490921 1_444
Na0 Sb11 3.490921 1_555
Na0 Sb10 3.490921 1_444
Na0 Sb3 3.490921 1_555
Na0 Sb2 3.490921 1_444
Na0 Sb0 3.510075 1_554
Na0 Sb1 3.510075 1_445
Na0 Sb4 3.510076 1_545
Na0 Sb5 3.510076 1_454
Na0 Sb8 3.510076 1_455
Na0 Sb9 3.510076 1_544
Sb0 Sb3 2.896321 1_556
Sb0 Sb2 2.982092 1_555
Sb1 Sb2 2.896321 1_554
Sb1 Sb3 2.982092 1_555
Sb4 Sb7 2.896321 1_565
Sb4 Sb6 2.982092 1_555
Sb5 Sb6 2.896321 1_545
Sb5 Sb7 2.982092 1_555
Sb10 Sb9 2.896321 1_655
Sb10 Sb8 2.982092 1_555
Sb11 Sb8 2.896321 1_455
Sb11 Sb9 2.982092 1_555
Ir0 Sb0 2.646072 1_555
Ir0 Sb1 2.646072 1_445
Ir0 Sb5 2.647921 1_455
Ir0 Sb4 2.647921 1_545
Ir0 Sb11 2.648278 1_555
Ir0 Sb10 2.648278 1_445
Ir1 Sb8 2.646072 1_555
Ir1 Sb9 2.646072 1_544
Ir1 Sb1 2.647921 1_545
Ir1 Sb0 2.647921 1_554
Ir1 Sb7 2.648278 1_555
Ir1 Sb6 2.648278 1_544
Ir2 Sb4 2.646072 1_555
Ir2 Sb5 2.646072 1_454
Ir2 Sb9 2.647921 1_554
Ir2 Sb8 2.647921 1_455
Ir2 Sb3 2.648278 1_555
Ir2 Sb2 2.648278 1_454
Os0 Sb10 2.628224 1_555
Os0 Sb11 2.628224 1_555
Os0 Sb2 2.628224 1_555
Os0 Sb3 2.628224 1_555
Os0 Sb6 2.628224 1_555
Os0 Sb7 2.628224 1_555
