# generated using pymatgen
data_Ho2Ru2O7
_symmetry_space_group_name_H-M   'P 1'
_cell_length_a   7.22202097
_cell_length_b   7.22202097
_cell_length_c   7.22202097
_cell_angle_alpha   60.00000000
_cell_angle_beta   60.00000000
_cell_angle_gamma   60.00000000
_symmetry_Int_Tables_number   1
_chemical_formula_structural   Ho2Ru2O7
_chemical_formula_sum   'Ho4 Ru4 O14'
_cell_volume   266.35523510
_cell_formula_units_Z   2
loop_
 _symmetry_equiv_pos_site_id
 _symmetry_equiv_pos_as_xyz
  1  'x, y, z'
loop_
 _atom_site_type_symbol
 _atom_site_label
 _atom_site_symmetry_multiplicity
 _atom_site_fract_x
 _atom_site_fract_y
 _atom_site_fract_z
 _atom_site_occupancy
  Ho  Ho0  1  0.62500000  0.62500000  0.12500000  1
  Ho  Ho1  1  0.62500000  0.12500000  0.62500000  1
  Ho  Ho2  1  0.12500000  0.62500000  0.62500000  1
  Ho  Ho3  1  0.62500000  0.62500000  0.62500000  1
  Ru  Ru0  1  0.12500000  0.12500000  0.62500000  1
  Ru  Ru1  1  0.12500000  0.62500000  0.12500000  1
  Ru  Ru2  1  0.62500000  0.12500000  0.12500000  1
  Ru  Ru3  1  0.12500000  0.12500000  0.12500000  1
  O  O0  1  0.46339300  0.03660700  0.46339300  1
  O  O1  1  0.21339300  0.78660700  0.78660700  1
  O  O2  1  0.78660700  0.21339300  0.21339300  1
  O  O3  1  0.21339300  0.78660700  0.21339300  1
  O  O4  1  0.78660700  0.78660700  0.21339300  1
  O  O5  1  0.21339300  0.21339300  0.78660700  1
  O  O6  1  0.46339300  0.46339300  0.03660700  1
  O  O7  1  0.03660700  0.46339300  0.46339300  1
  O  O8  1  0.46339300  0.03660700  0.03660700  1
  O  O9  1  0.03660700  0.03660700  0.46339300  1
  O  O10  1  0.78660700  0.21339300  0.78660700  1
  O  O11  1  0.03660700  0.46339300  0.03660700  1
  O  O12  1  0.50000000  0.50000000  0.50000000  1
  O  O13  1  0.75000000  0.75000000  0.75000000  1
loop_
_geom_bond_atom_site_label_1
_geom_bond_atom_site_label_2
_geom_bond_distance
_geom_bond_site_symmetry_2
Ho0 O12 2.211283 1_555
Ho0 O13 2.211283 1_554
Ho0 O4 2.446269 1_555
Ho0 O6 2.446269 1_555
Ho0 O11 2.446269 1_655
Ho0 O2 2.446269 1_555
Ho0 O3 2.446269 1_555
Ho0 O8 2.446269 1_565
Ho1 O13 2.211283 1_545
Ho1 O12 2.211283 1_555
Ho1 O10 2.446269 1_555
Ho1 O0 2.446269 1_555
Ho1 O2 2.446269 1_555
Ho1 O5 2.446269 1_555
Ho1 O9 2.446269 1_655
Ho1 O8 2.446269 1_556
Ho2 O13 2.211283 1_455
Ho2 O12 2.211283 1_555
Ho2 O1 2.446269 1_555
Ho2 O7 2.446269 1_555
Ho2 O5 2.446269 1_555
Ho2 O3 2.446269 1_555
Ho2 O11 2.446269 1_556
Ho2 O9 2.446269 1_565
Ho3 O13 2.211283 1_555
Ho3 O12 2.211283 1_555
Ho3 O4 2.446269 1_555
Ho3 O7 2.446269 1_655
Ho3 O10 2.446269 1_555
Ho3 O6 2.446269 1_556
Ho3 O1 2.446269 1_555
Ho3 O0 2.446269 1_565
O0 Ru2 2.018637 1_555
O0 Ru0 2.018637 1_555
O1 Ru1 2.018637 1_556
O1 Ru0 2.018637 1_565
O2 Ru2 2.018637 1_555
O2 Ru3 2.018637 1_655
O3 Ru1 2.018637 1_555
O3 Ru3 2.018637 1_565
O4 Ru2 2.018637 1_565
O4 Ru1 2.018637 1_655
O5 Ru0 2.018637 1_555
O5 Ru3 2.018637 1_556
O6 Ru1 2.018637 1_555
O6 Ru2 2.018637 1_555
O7 Ru0 2.018637 1_555
O7 Ru1 2.018637 1_555
O8 Ru3 2.018637 1_555
O8 Ru2 2.018637 1_555
O9 Ru0 2.018637 1_555
O9 Ru3 2.018637 1_555
O10 Ru2 2.018637 1_556
O10 Ru0 2.018637 1_655
O11 Ru3 2.018637 1_555
O11 Ru1 2.018637 1_555
