# generated using pymatgen
data_Hf8Co16GeP11
_symmetry_space_group_name_H-M   'P 1'
_cell_length_a   12.01182015
_cell_length_b   11.97241300
_cell_length_c   3.61556788
_cell_angle_alpha   90.00000000
_cell_angle_beta   90.00000000
_cell_angle_gamma   119.89153714
_symmetry_Int_Tables_number   1
_chemical_formula_structural   Hf8Co16GeP11
_chemical_formula_sum   'Hf8 Co16 Ge1 P11'
_cell_volume   450.78689730
_cell_formula_units_Z   1
loop_
 _symmetry_equiv_pos_site_id
 _symmetry_equiv_pos_as_xyz
  1  'x, y, z'
loop_
 _atom_site_type_symbol
 _atom_site_label
 _atom_site_symmetry_multiplicity
 _atom_site_fract_x
 _atom_site_fract_y
 _atom_site_fract_z
 _atom_site_occupancy
  Hf  Hf0  1  0.82638446  0.82559261  0.50000000  1
  Hf  Hf1  1  0.44612305  0.44475689  0.00000000  1
  Hf  Hf2  1  1.00000000  0.16795708  0.50000000  1
  Hf  Hf3  1  0.55387695  0.99863384  0.00000000  1
  Hf  Hf4  1  0.33233879  0.66682746  0.00000000  1
  Hf  Hf5  1  0.66766121  0.33448667  0.00000000  1
  Hf  Hf6  1  0.00000000  0.55941391  0.00000000  1
  Hf  Hf7  1  0.17361554  0.99920915  0.50000000  1
  Co  Co0  1  0.62895189  0.82209491  0.00000000  1
  Co  Co1  1  0.37104811  0.19314301  0.00000000  1
  Co  Co2  1  1.00000000  0.72264942  0.50000000  1
  Co  Co3  1  0.28099597  0.27766473  0.50000000  1
  Co  Co4  1  0.86699926  0.35621241  0.50000000  1
  Co  Co5  1  0.71900403  0.99666875  0.50000000  1
  Co  Co6  1  0.81867601  0.62689927  0.00000000  1
  Co  Co7  1  0.18132399  0.80822226  0.00000000  1
  Co  Co8  1  0.35650014  0.87367130  0.50000000  1
  Co  Co9  1  0.13300074  0.48921315  0.50000000  1
  Co  Co10  1  0.64349986  0.51717116  0.50000000  1
  Co  Co11  1  0.00000000  0.99965426  0.00000000  1
  Co  Co12  1  0.51777869  0.64543681  0.50000000  1
  Co  Co13  1  0.48222131  0.12765712  0.50000000  1
  Co  Co14  1  0.20246412  0.37314123  0.00000000  1
  Co  Co15  1  0.79753588  0.17067812  0.00000000  1
  Ge  Ge0  1  0.00000000  0.34320893  0.00000000  1
  P  P0  1  0.82615822  0.51972907  0.50000000  1
  P  P1  1  0.68920006  0.17278251  0.50000000  1
  P  P2  1  0.17540891  0.17466852  0.00000000  1
  P  P3  1  0.65595413  0.65629586  0.00000000  1
  P  P4  1  0.82459109  0.99925961  0.00000000  1
  P  P5  1  0.51625447  0.82574515  0.50000000  1
  P  P6  1  0.17384178  0.69357085  0.50000000  1
  P  P7  1  0.34404587  0.00034172  0.00000000  1
  P  P8  1  0.48374553  0.30949068  0.50000000  1
  P  P9  1  1.00000000  0.82426816  0.00000000  1
  P  P10  1  0.31079994  0.48358144  0.50000000  1
loop_
_geom_bond_atom_site_label_1
_geom_bond_atom_site_label_2
_geom_bond_distance
_geom_bond_site_symmetry_2
Hf0 P3 2.726080 1_556
Hf0 P3 2.726080 1_555
Hf0 P4 2.763389 1_555
Hf0 P4 2.763389 1_556
Hf0 P9 2.765926 1_556
Hf0 P9 2.765926 1_555
Hf1 P3 2.530705 1_555
Hf1 P8 2.612360 1_554
Hf1 P8 2.612360 1_555
Hf1 P10 2.622861 1_555
Hf1 P10 2.622861 1_554
Hf2 P4 2.746845 1_545
Hf2 P4 2.746845 1_546
Hf2 P2 2.746845 1_655
Hf2 P2 2.746845 1_656
Hf3 P7 2.530706 1_565
Hf3 P5 2.612360 1_555
Hf3 P5 2.612360 1_554
Hf3 P1 2.622867 1_564
Hf3 P1 2.622867 1_565
Hf4 P5 2.753007 1_555
Hf4 P5 2.753007 1_554
Hf4 P10 2.753626 1_554
Hf4 P10 2.753626 1_555
Hf4 P6 2.757313 1_555
Hf4 P6 2.757313 1_554
Hf5 P8 2.753014 1_555
Hf5 P8 2.753014 1_554
Hf5 P1 2.753600 1_555
Hf5 P1 2.753600 1_554
Hf5 P0 2.757324 1_554
Hf5 P0 2.757324 1_555
Hf6 P6 2.620180 1_555
Hf6 P6 2.620180 1_554
Hf6 P0 2.620180 1_454
Hf6 P0 2.620180 1_455
Hf7 P7 2.726085 1_565
Hf7 P7 2.726085 1_566
Hf7 P2 2.763379 1_566
Hf7 P2 2.763379 1_565
Hf7 P9 2.765931 1_455
Hf7 P9 2.765931 1_456
Co0 P3 2.164995 1_555
Co0 P4 2.247947 1_555
Co0 P5 2.271886 1_554
Co0 P5 2.271886 1_555
Co0 Hf3 2.679603 1_555
Co0 Hf0 2.965633 1_555
Co0 Hf0 2.965633 1_554
Co0 Hf4 3.090021 1_555
Co1 P7 2.164995 1_555
Co1 P2 2.247947 1_555
Co1 P8 2.271886 1_554
Co1 P8 2.271886 1_555
Co1 Hf1 2.679603 1_555
Co1 Hf7 2.965629 1_544
Co1 Hf7 2.965629 1_545
Co1 Hf5 3.090022 1_555
Co2 P9 2.179048 1_556
Co2 P9 2.179048 1_555
Co2 P0 2.281707 1_555
Co2 P6 2.281707 1_655
Co2 Hf6 2.662229 1_656
Co2 Hf6 2.662229 1_655
Co2 Hf0 2.903426 1_555
Co2 Hf7 2.903435 1_655
Co3 P2 2.199636 1_556
Co3 P2 2.199636 1_555
Co3 P8 2.269669 1_555
Co3 P10 2.307873 1_555
Co3 Hf1 2.692458 1_555
Co3 Hf1 2.692458 1_556
Co3 Hf7 2.914082 1_545
Co4 P1 2.170075 1_555
Co4 P0 2.242867 1_555
Co4 Ge0 2.468296 1_655
Co4 Ge0 2.468296 1_656
Co4 Hf6 2.804471 1_655
Co4 Hf6 2.804471 1_656
Co4 Hf5 2.906576 1_556
Co4 Hf5 2.906576 1_555
Co5 P4 2.199636 1_556
Co5 P4 2.199636 1_555
Co5 P5 2.269668 1_555
Co5 P1 2.307885 1_565
Co5 Hf3 2.692458 1_555
Co5 Hf3 2.692458 1_556
Co5 Hf0 2.914093 1_555
Co6 P3 2.151727 1_555
Co6 P0 2.244417 1_555
Co6 P0 2.244417 1_554
Co6 P9 2.279855 1_555
Co6 Hf6 2.674064 1_655
Co6 Hf0 2.952286 1_554
Co6 Hf0 2.952286 1_555
Co6 Hf5 3.035953 1_555
Co7 P7 2.151734 1_565
Co7 P6 2.244410 1_555
Co7 P6 2.244410 1_554
Co7 P9 2.279862 1_455
Co7 Hf6 2.674055 1_555
Co7 Hf7 2.952304 1_555
Co7 Hf7 2.952304 1_554
Co7 Hf4 3.035923 1_555
Co8 P6 2.178959 1_555
Co8 P5 2.260316 1_555
Co8 P7 2.411746 1_565
Co8 P7 2.411746 1_566
Co8 Hf3 2.755350 1_555
Co8 Hf3 2.755350 1_556
Co8 Hf4 2.961184 1_555
Co8 Hf4 2.961184 1_556
Co9 P10 2.170081 1_555
Co9 P6 2.242867 1_555
Co9 Ge0 2.468296 1_555
Co9 Ge0 2.468296 1_556
Co9 Hf6 2.804471 1_555
Co9 Hf6 2.804471 1_556
Co9 Hf4 2.906584 1_556
Co9 Hf4 2.906584 1_555
Co10 P0 2.178959 1_555
Co10 P8 2.260316 1_555
Co10 P3 2.411746 1_556
Co10 P3 2.411746 1_555
Co10 Hf1 2.755350 1_556
Co10 Hf1 2.755350 1_555
Co10 Hf5 2.961203 1_555
Co10 Hf5 2.961203 1_556
Co11 P9 2.099795 1_455
Co11 P2 2.104629 1_565
Co11 P4 2.104630 1_455
Co11 Hf2 2.707078 1_464
Co11 Hf2 2.707078 1_465
Co11 Hf7 2.761927 1_554
Co11 Hf7 2.761927 1_555
Co11 Hf0 2.761932 1_454
Co11 Hf0 2.761932 1_455
Co12 P5 2.167908 1_555
Co12 P10 2.265895 1_555
Co12 P3 2.413430 1_555
Co12 P3 2.413430 1_556
Co12 Hf1 2.778547 1_556
Co12 Hf1 2.778547 1_555
Co12 Hf4 2.977226 1_555
Co12 Hf4 2.977226 1_556
Co13 P8 2.167920 1_555
Co13 P1 2.265888 1_555
Co13 P7 2.413426 1_555
Co13 P7 2.413426 1_556
Co13 Hf3 2.778538 1_545
Co13 Hf3 2.778538 1_546
Co13 Hf5 2.977220 1_555
Co13 Hf5 2.977220 1_556
Co14 P2 2.232093 1_555
Co14 P10 2.234906 1_555
Co14 P10 2.234906 1_554
Co14 Ge0 2.274687 1_555
Co14 Hf1 2.607683 1_555
Co14 Hf4 3.054440 1_555
Co15 P4 2.232105 1_545
Co15 P1 2.234906 1_555
Co15 P1 2.234906 1_554
Co15 Ge0 2.274683 1_655
Co15 Hf3 2.607685 1_545
Co15 Hf5 3.054408 1_555
Ge0 Hf6 2.588495 1_555
Ge0 Hf2 2.769562 1_454
Ge0 Hf2 2.769562 1_455
