# generated using pymatgen
data_YTa(SnPd5)3
_symmetry_space_group_name_H-M   'P 1'
_cell_length_a   4.01131812
_cell_length_b   4.01131812
_cell_length_c   20.06972968
_cell_angle_alpha   90.00000000
_cell_angle_beta   90.00000000
_cell_angle_gamma   90.00000000
_symmetry_Int_Tables_number   1
_chemical_formula_structural   YTa(SnPd5)3
_chemical_formula_sum   'Y1 Ta1 Sn3 Pd15'
_cell_volume   322.93545788
_cell_formula_units_Z   1
loop_
 _symmetry_equiv_pos_site_id
 _symmetry_equiv_pos_as_xyz
  1  'x, y, z'
loop_
 _atom_site_type_symbol
 _atom_site_label
 _atom_site_symmetry_multiplicity
 _atom_site_fract_x
 _atom_site_fract_y
 _atom_site_fract_z
 _atom_site_occupancy
  Y  Y0  1  0.00000000  0.00000000  0.79984925  1
  Ta  Ta0  1  0.00000000  0.00000000  0.00137699  1
  Sn  Sn0  1  0.00000000  0.00000000  0.20198098  1
  Sn  Sn1  1  0.00000000  0.00000000  0.40021003  1
  Sn  Sn2  1  0.00000000  0.00000000  0.59913734  1
  Pd  Pd0  1  0.50000000  0.50000000  0.00323698  1
  Pd  Pd1  1  0.50000000  0.50000000  0.19645216  1
  Pd  Pd2  1  0.50000000  0.50000000  0.39754666  1
  Pd  Pd3  1  0.50000000  0.50000000  0.59754276  1
  Pd  Pd4  1  0.50000000  0.50000000  0.80341192  1
  Pd  Pd5  1  0.50000000  0.00000000  0.09597095  1
  Pd  Pd6  1  0.50000000  0.00000000  0.29809466  1
  Pd  Pd7  1  0.50000000  0.00000000  0.49837526  1
  Pd  Pd8  1  0.50000000  0.00000000  0.69753776  1
  Pd  Pd9  1  0.50000000  0.00000000  0.90964934  1
  Pd  Pd10  1  0.00000000  0.50000000  0.09597095  1
  Pd  Pd11  1  0.00000000  0.50000000  0.29809466  1
  Pd  Pd12  1  0.00000000  0.50000000  0.49837526  1
  Pd  Pd13  1  0.00000000  0.50000000  0.69753776  1
  Pd  Pd14  1  0.00000000  0.50000000  0.90964934  1
loop_
_geom_bond_atom_site_label_1
_geom_bond_atom_site_label_2
_geom_bond_distance
_geom_bond_site_symmetry_2
Pd0 Pd5 2.736153 1_555
Pd0 Pd10 2.736153 1_555
Pd0 Pd10 2.736153 1_655
Pd0 Pd5 2.736153 1_565
Pd0 Pd14 2.747835 1_654
Pd0 Pd9 2.747835 1_554
Pd0 Pd9 2.747835 1_564
Pd0 Pd14 2.747835 1_554
Pd0 Ta0 2.836676 1_565
Pd0 Ta0 2.836676 1_655
Pd0 Ta0 2.836676 1_665
Pd0 Ta0 2.836676 1_555
Pd1 Sn0 2.838600 1_665
Pd1 Sn0 2.838600 1_555
Pd1 Sn0 2.838600 1_655
Pd1 Sn0 2.838600 1_565
Pd1 Pd5 2.844199 1_555
Pd1 Pd10 2.844199 1_555
Pd1 Pd10 2.844199 1_655
Pd1 Pd5 2.844199 1_565
Pd1 Pd11 2.860771 1_655
Pd1 Pd6 2.860771 1_555
Pd1 Pd11 2.860771 1_555
Pd1 Pd6 2.860771 1_565
Pd2 Pd6 2.829591 1_555
Pd2 Pd6 2.829591 1_565
Pd2 Sn1 2.836934 1_665
Pd2 Sn1 2.836934 1_655
Pd2 Sn1 2.836934 1_565
Pd2 Sn1 2.836934 1_555
Pd2 Pd7 2.849147 1_555
Pd2 Pd7 2.849147 1_565
Pd3 Pd7 2.825566 1_565
Pd3 Pd7 2.825566 1_555
Pd3 Sn2 2.836611 1_565
Pd3 Sn2 2.836611 1_555
Pd3 Sn2 2.836611 1_665
Pd3 Sn2 2.836611 1_655
Pd3 Pd8 2.837288 1_555
Pd3 Pd8 2.837288 1_565
Pd4 Y0 2.837331 1_555
Pd4 Y0 2.837331 1_565
Pd4 Y0 2.837331 1_665
Pd4 Y0 2.837331 1_655
Pd4 Pd8 2.921938 1_565
Pd4 Pd8 2.921938 1_555
Pd4 Pd9 2.927244 1_565
Pd4 Pd9 2.927244 1_555
Pd5 Ta0 2.761680 1_655
Pd5 Ta0 2.761680 1_555
Pd5 Sn0 2.923922 1_655
Pd5 Sn0 2.923922 1_555
Pd6 Sn0 2.782735 1_555
Pd6 Sn0 2.782735 1_655
Pd6 Sn1 2.867547 1_655
Pd6 Sn1 2.867547 1_555
Pd7 Sn1 2.811433 1_655
Pd7 Sn1 2.811433 1_555
Pd7 Sn2 2.848199 1_555
Pd7 Sn2 2.848199 1_655
Pd8 Sn2 2.814743 1_655
Pd8 Sn2 2.814743 1_555
Pd8 Y0 2.870361 1_555
Pd8 Y0 2.870361 1_655
Pd9 Ta0 2.722455 1_656
Pd9 Ta0 2.722455 1_556
Pd9 Y0 2.979728 1_555
Pd9 Y0 2.979728 1_655
Pd10 Ta0 2.761680 1_565
Pd10 Ta0 2.761680 1_555
Pd10 Pd5 2.836430 1_455
Pd10 Pd5 2.836430 1_465
Pd10 Pd5 2.836430 1_555
Pd10 Pd5 2.836430 1_565
Pd10 Sn0 2.923922 1_565
Pd10 Sn0 2.923922 1_555
Pd11 Sn0 2.782735 1_565
Pd11 Sn0 2.782735 1_555
Pd11 Pd2 2.829591 1_455
Pd11 Pd2 2.829591 1_555
Pd11 Pd6 2.836430 1_565
Pd11 Pd6 2.836430 1_555
Pd11 Pd6 2.836430 1_465
Pd11 Pd6 2.836430 1_455
Pd11 Sn1 2.867547 1_565
Pd11 Sn1 2.867547 1_555
Pd12 Sn1 2.811433 1_565
Pd12 Sn1 2.811433 1_555
Pd12 Pd3 2.825566 1_455
Pd12 Pd3 2.825566 1_555
Pd12 Pd7 2.836430 1_565
Pd12 Pd7 2.836430 1_465
Pd12 Pd7 2.836430 1_455
Pd12 Pd7 2.836430 1_555
Pd12 Sn2 2.848199 1_565
Pd12 Sn2 2.848199 1_555
Pd12 Pd2 2.849147 1_455
Pd12 Pd2 2.849147 1_555
Pd13 Sn2 2.814743 1_565
Pd13 Sn2 2.814743 1_555
Pd13 Pd8 2.836430 1_455
Pd13 Pd8 2.836430 1_465
Pd13 Pd8 2.836430 1_555
Pd13 Pd8 2.836430 1_565
Pd13 Pd3 2.837288 1_455
Pd13 Pd3 2.837288 1_555
Pd13 Y0 2.870361 1_555
Pd13 Y0 2.870361 1_565
Pd13 Pd4 2.921938 1_555
Pd13 Pd4 2.921938 1_455
Pd14 Ta0 2.722455 1_566
Pd14 Ta0 2.722455 1_556
Pd14 Pd9 2.836430 1_565
Pd14 Pd9 2.836430 1_455
Pd14 Pd9 2.836430 1_465
Pd14 Pd9 2.836430 1_555
Pd14 Pd4 2.927244 1_555
Pd14 Pd4 2.927244 1_455
Pd14 Y0 2.979728 1_555
Pd14 Y0 2.979728 1_565
