# generated using pymatgen
data_CdSb2F12
_symmetry_space_group_name_H-M   'P 1'
_cell_length_a   9.78893883
_cell_length_b   9.78893896
_cell_length_c   9.78893910
_cell_angle_alpha   132.48365498
_cell_angle_beta   132.48365504
_cell_angle_gamma   69.46621094
_symmetry_Int_Tables_number   1
_chemical_formula_structural   CdSb2F12
_chemical_formula_sum   'Cd2 Sb4 F24'
_cell_volume   500.47959594
_cell_formula_units_Z   2
loop_
 _symmetry_equiv_pos_site_id
 _symmetry_equiv_pos_as_xyz
  1  'x, y, z'
loop_
 _atom_site_type_symbol
 _atom_site_label
 _atom_site_symmetry_multiplicity
 _atom_site_fract_x
 _atom_site_fract_y
 _atom_site_fract_z
 _atom_site_occupancy
  Cd  Cd0  1  0.75000000  0.25000000  0.50000000  1
  Cd  Cd1  1  0.00000000  0.00000000  0.00000000  1
  Sb  Sb0  1  0.78220390  0.78220390  1.00000000  1
  Sb  Sb1  1  0.21779610  0.21779610  0.00000000  1
  Sb  Sb2  1  0.96779610  0.46779610  0.50000000  1
  Sb  Sb3  1  0.53220390  0.03220390  0.50000000  1
  F  F0  1  0.87151518  0.76101244  0.22231394  1
  F  F1  1  0.53869850  0.64920224  0.77768606  1
  F  F2  1  0.39920224  0.78869850  0.27768606  1
  F  F3  1  0.35079776  0.12848482  0.88949726  1
  F  F4  1  0.23898756  0.46130150  0.11050274  1
  F  F5  1  0.21130150  0.48898756  0.61050274  1
  F  F6  1  0.67023728  0.27420071  0.69931714  1
  F  F7  1  0.72579929  0.42511643  0.39603657  1
  F  F8  1  0.02908086  0.32976272  0.60396343  1
  F  F9  1  0.07976272  0.27908086  0.10396343  1
  F  F10  1  0.17511643  0.97579929  0.89603657  1
  F  F11  1  0.57488357  0.97091914  0.30068286  1
  F  F12  1  0.72091914  0.82488357  0.80068286  1
  F  F13  1  0.02420071  0.92023728  0.19931714  1
  F  F14  1  0.30378100  0.11037756  0.34229435  1
  F  F15  1  0.88962244  0.23191779  0.19340344  1
  F  F16  1  0.03851435  0.69621900  0.80659656  1
  F  F17  1  0.44621900  0.28851435  0.30659656  1
  F  F18  1  0.98191779  0.13962244  0.69340344  1
  F  F19  1  0.76808221  0.96148565  0.65770565  1
  F  F20  1  0.71148565  0.01808221  0.15770565  1
  F  F21  1  0.86037756  0.55378100  0.84229435  1
  F  F22  1  0.51101244  0.12151518  0.72231394  1
  F  F23  1  0.87848482  0.60079776  0.38949726  1
loop_
_geom_bond_atom_site_label_1
_geom_bond_atom_site_label_2
_geom_bond_distance
_geom_bond_site_symmetry_2
Cd0 F20 2.267665 1_555
Cd0 F21 2.267669 1_555
Cd0 F17 2.267671 1_555
Cd0 F18 2.267671 1_555
Cd0 F7 2.403376 1_555
Cd0 F6 2.403376 1_555
Cd0 F11 2.403385 1_545
Cd0 F8 2.403386 1_655
Cd1 F19 2.267665 1_444
Cd1 F14 2.267669 1_555
Cd1 F16 2.267671 1_544
Cd1 F15 2.267671 1_455
Cd1 F10 2.403376 1_544
Cd1 F13 2.403376 1_545
Cd1 F12 2.403385 1_444
Cd1 F9 2.403386 1_555
F0 Sb0 1.859009 1_554
F1 Sb0 1.859005 1_555
F2 Sb3 1.859005 1_565
F3 Sb1 1.858999 1_556
F4 Sb1 1.859009 1_555
F5 Sb2 1.859009 1_455
F6 Sb3 1.919754 1_555
F7 Sb2 1.919754 1_555
F8 Sb2 1.919751 1_455
F9 Sb1 1.919751 1_555
F10 Sb1 1.919754 1_566
F11 Sb3 1.919749 1_565
F12 Sb0 1.919749 1_555
F13 Sb0 1.919754 1_454
F14 Sb3 1.923868 1_555
F15 Sb2 1.923865 1_555
F16 Sb2 1.923865 1_455
F17 Sb1 1.923865 1_555
F18 Sb1 1.923865 1_656
F19 Sb3 1.923868 1_565
F20 Sb0 1.923868 1_544
F21 Sb0 1.923868 1_555
F22 Sb3 1.859009 1_555
F23 Sb2 1.858999 1_555
