# generated using pymatgen
data_Ti3Al2IrC
_symmetry_space_group_name_H-M   'P 1'
_cell_length_a   8.17931305
_cell_length_b   8.17931358
_cell_length_c   8.17931253
_cell_angle_alpha   60.00000421
_cell_angle_beta   60.00000207
_cell_angle_gamma   59.99999661
_symmetry_Int_Tables_number   1
_chemical_formula_structural   Ti3Al2IrC
_chemical_formula_sum   'Ti12 Al8 Ir4 C4'
_cell_volume   386.93276182
_cell_formula_units_Z   4
loop_
 _symmetry_equiv_pos_site_id
 _symmetry_equiv_pos_as_xyz
  1  'x, y, z'
loop_
 _atom_site_type_symbol
 _atom_site_label
 _atom_site_symmetry_multiplicity
 _atom_site_fract_x
 _atom_site_fract_y
 _atom_site_fract_z
 _atom_site_occupancy
  Ti  Ti0  1  0.56262318  0.93737682  0.56262318  1
  Ti  Ti1  1  0.31262318  0.68737682  0.68737682  1
  Ti  Ti2  1  0.68737682  0.31262318  0.31262318  1
  Ti  Ti3  1  0.31262318  0.68737682  0.31262318  1
  Ti  Ti4  1  0.68737682  0.68737682  0.31262318  1
  Ti  Ti5  1  0.31262318  0.31262318  0.68737682  1
  Ti  Ti6  1  0.56262318  0.56262318  0.93737682  1
  Ti  Ti7  1  0.93737682  0.56262318  0.56262318  1
  Ti  Ti8  1  0.56262318  0.93737682  0.93737682  1
  Ti  Ti9  1  0.93737682  0.93737682  0.56262318  1
  Ti  Ti10  1  0.68737682  0.31262318  0.68737682  1
  Ti  Ti11  1  0.93737682  0.56262318  0.93737682  1
  Al  Al0  1  0.91497386  0.91497386  0.91497386  1
  Al  Al1  1  0.99492059  0.33502614  0.33502614  1
  Al  Al2  1  0.33502614  0.99492059  0.33502614  1
  Al  Al3  1  0.33502614  0.33502614  0.99492059  1
  Al  Al4  1  0.91497386  0.25507941  0.91497386  1
  Al  Al5  1  0.91497386  0.91497386  0.25507941  1
  Al  Al6  1  0.25507941  0.91497386  0.91497386  1
  Al  Al7  1  0.33502614  0.33502614  0.33502614  1
  Ir  Ir0  1  0.12500000  0.12500000  0.12500000  1
  Ir  Ir1  1  0.62500000  0.12500000  0.12500000  1
  Ir  Ir2  1  0.12500000  0.62500000  0.12500000  1
  Ir  Ir3  1  0.12500000  0.12500000  0.62500000  1
  C  C0  1  0.62500000  0.62500000  0.62500000  1
  C  C1  1  0.12500000  0.62500000  0.62500000  1
  C  C2  1  0.62500000  0.12500000  0.62500000  1
  C  C3  1  0.62500000  0.62500000  0.12500000  1
loop_
_geom_bond_atom_site_label_1
_geom_bond_atom_site_label_2
_geom_bond_distance
_geom_bond_site_symmetry_2
Al0 Ir1 2.515901 1_566
Al0 Ir2 2.515901 1_656
Al0 Ir3 2.515902 1_665
Al1 Ir0 2.515899 1_655
Al1 Ir3 2.515906 1_655
Al1 Ir2 2.515906 1_655
Al2 Ir0 2.515899 1_565
Al2 Ir3 2.515906 1_565
Al2 Ir1 2.515906 1_565
Al3 Ir0 2.515899 1_556
Al3 Ir1 2.515906 1_556
Al3 Ir2 2.515906 1_556
Al4 Ir0 2.515899 1_656
Al4 Ir3 2.515906 1_655
Al4 Ir1 2.515906 1_556
Al5 Ir0 2.515899 1_665
Al5 Ir1 2.515906 1_565
Al5 Ir2 2.515906 1_655
Al6 Ir0 2.515899 1_566
Al6 Ir3 2.515906 1_565
Al6 Ir2 2.515906 1_556
Al7 Ir1 2.515901 1_555
Al7 Ir2 2.515901 1_555
Al7 Ir3 2.515902 1_555
Ir0 Ti8 2.981861 1_544
Ir0 Ti2 2.981861 1_455
Ir0 Ti9 2.981861 1_445
Ir0 Ti5 2.981861 1_554
Ir0 Ti11 2.981861 1_454
Ir0 Ti3 2.981861 1_545
Ir1 Ti0 2.981861 1_545
Ir1 Ti10 2.981861 1_554
Ir1 Ti2 2.981861 1_555
Ir1 Ti8 2.981861 1_544
Ir1 Ti6 2.981861 1_554
Ir1 Ti4 2.981861 1_545
Ir2 Ti3 2.981861 1_555
Ir2 Ti11 2.981861 1_454
Ir2 Ti7 2.981861 1_455
Ir2 Ti1 2.981861 1_554
Ir2 Ti6 2.981861 1_554
Ir2 Ti4 2.981861 1_455
Ir3 Ti0 2.981861 1_545
Ir3 Ti10 2.981861 1_455
Ir3 Ti5 2.981861 1_555
Ir3 Ti9 2.981861 1_445
Ir3 Ti7 2.981861 1_455
Ir3 Ti1 2.981861 1_545
C0 Ti6 2.168393 1_555
C0 Ti4 2.168393 1_555
C0 Ti7 2.168393 1_555
C0 Ti1 2.168393 1_555
C0 Ti0 2.168394 1_555
C0 Ti10 2.168394 1_555
C1 Ti1 2.168393 1_555
C1 Ti7 2.168393 1_455
C1 Ti11 2.168393 1_455
C1 Ti3 2.168393 1_555
C1 Ti9 2.168393 1_455
C1 Ti5 2.168393 1_555
C2 Ti9 2.168393 1_545
C2 Ti5 2.168393 1_555
C2 Ti8 2.168393 1_545
C2 Ti2 2.168393 1_555
C2 Ti10 2.168393 1_555
C2 Ti0 2.168393 1_545
C3 Ti4 2.168393 1_555
C3 Ti6 2.168393 1_554
C3 Ti11 2.168393 1_554
C3 Ti3 2.168393 1_555
C3 Ti8 2.168394 1_554
C3 Ti2 2.168394 1_555
