# generated using pymatgen
data_NaSn6IrRh3
_symmetry_space_group_name_H-M   'P 1'
_cell_length_a   6.89156618
_cell_length_b   6.89156609
_cell_length_c   6.89649702
_cell_angle_alpha   119.61438344
_cell_angle_beta   119.61438089
_cell_angle_gamma   90.71985781
_symmetry_Int_Tables_number   1
_chemical_formula_structural   NaSn6IrRh3
_chemical_formula_sum   'Na1 Sn6 Ir1 Rh3'
_cell_volume   232.83417330
_cell_formula_units_Z   1
loop_
 _symmetry_equiv_pos_site_id
 _symmetry_equiv_pos_as_xyz
  1  'x, y, z'
loop_
 _atom_site_type_symbol
 _atom_site_label
 _atom_site_symmetry_multiplicity
 _atom_site_fract_x
 _atom_site_fract_y
 _atom_site_fract_z
 _atom_site_occupancy
  Na  Na0  1  0.99794805  0.99794805  0.99506108  1
  Sn  Sn0  1  0.87479383  0.53893360  0.99863871  1
  Sn  Sn1  1  0.53893360  0.87479383  0.99863871  1
  Sn  Sn2  1  0.12642000  0.12642000  0.66820428  1
  Sn  Sn3  1  0.00081590  0.50021851  0.50086366  1
  Sn  Sn4  1  0.46098921  0.46098921  0.33696346  1
  Sn  Sn5  1  0.50021851  0.00081590  0.50086366  1
  Ir  Ir0  1  0.75553814  0.75553814  0.35228022  1
  Rh  Rh0  1  0.24564931  0.59590987  0.00030474  1
  Rh  Rh1  1  0.40278058  0.40278058  0.64787871  1
  Rh  Rh2  1  0.59590987  0.24564931  0.00030474  1
loop_
_geom_bond_atom_site_label_1
_geom_bond_atom_site_label_2
_geom_bond_distance
_geom_bond_site_symmetry_2
Na0 Sn2 3.251812 1_665
Na0 Rh0 3.278538 1_656
Na0 Rh2 3.278538 1_566
Na0 Sn0 3.279933 1_555
Na0 Sn1 3.279933 1_555
Na0 Sn4 3.285882 1_666
Na0 Rh1 3.288351 1_666
Na0 Sn3 3.449114 1_655
Na0 Sn5 3.449114 1_565
Na0 Sn3 3.485207 1_666
Na0 Sn5 3.485207 1_666
Ir0 Sn2 2.577037 1_665
Ir0 Sn5 2.673601 1_565
Ir0 Sn3 2.673601 1_655
Ir0 Sn0 2.695484 1_554
Ir0 Sn1 2.695484 1_554
Ir0 Sn4 2.779353 1_555
Ir0 Rh2 2.878158 1_555
Ir0 Rh0 2.878158 1_555
Ir0 Na0 3.244119 1_555
Rh0 Sn0 2.574413 1_454
Rh0 Sn3 2.670018 1_554
Rh0 Sn2 2.671847 1_554
Rh0 Sn5 2.674409 1_565
Rh0 Sn4 2.687088 1_555
Rh0 Sn1 2.779637 1_554
Rh0 Rh1 2.879538 1_554
Rh1 Sn4 2.572103 1_555
Rh1 Sn5 2.663922 1_555
Rh1 Sn3 2.663922 1_555
Rh1 Sn1 2.686370 1_555
Rh1 Sn0 2.686370 1_555
Rh1 Sn2 2.776849 1_555
Rh1 Rh2 2.879538 1_556
Rh2 Sn1 2.574412 1_544
Rh2 Sn5 2.670018 1_554
Rh2 Sn2 2.671847 1_554
Rh2 Sn3 2.674409 1_655
Rh2 Sn4 2.687088 1_555
Rh2 Sn0 2.779637 1_554
