# generated using pymatgen
data_RbNa3(Ga3Te5)4
_symmetry_space_group_name_H-M   'P 1'
_cell_length_a   10.55431544
_cell_length_b   10.55431479
_cell_length_c   10.55431597
_cell_angle_alpha   89.75754551
_cell_angle_beta   89.75754219
_cell_angle_gamma   89.75754577
_symmetry_Int_Tables_number   1
_chemical_formula_structural   RbNa3(Ga3Te5)4
_chemical_formula_sum   'Rb1 Na3 Ga12 Te20'
_cell_volume   1175.65141798
_cell_formula_units_Z   1
loop_
 _symmetry_equiv_pos_site_id
 _symmetry_equiv_pos_as_xyz
  1  'x, y, z'
loop_
 _atom_site_type_symbol
 _atom_site_label
 _atom_site_symmetry_multiplicity
 _atom_site_fract_x
 _atom_site_fract_y
 _atom_site_fract_z
 _atom_site_occupancy
  Rb  Rb0  1  0.50000000  0.50000000  0.50000000  1
  Na  Na0  1  0.25142531  1.00000000  0.74857469  1
  Na  Na1  1  0.74857469  0.25142531  1.00000000  1
  Na  Na2  1  0.00000000  0.74857469  0.25142531  1
  Ga  Ga0  1  0.84081912  0.88139278  0.57303007  1
  Ga  Ga1  1  0.57303007  0.84081912  0.88139278  1
  Ga  Ga2  1  0.88139278  0.57303007  0.84081912  1
  Ga  Ga3  1  0.15918088  0.42696993  0.11860722  1
  Ga  Ga4  1  0.11860722  0.15918088  0.42696993  1
  Ga  Ga5  1  0.42696993  0.11860722  0.15918088  1
  Ga  Ga6  1  0.74832357  0.16230241  0.34262470  1
  Ga  Ga7  1  0.34262470  0.74832357  0.16230241  1
  Ga  Ga8  1  0.16230241  0.34262470  0.74832357  1
  Ga  Ga9  1  0.25167643  0.65737530  0.83769759  1
  Ga  Ga10  1  0.83769759  0.25167643  0.65737530  1
  Ga  Ga11  1  0.65737530  0.83769759  0.25167643  1
  Te  Te0  1  0.17368628  0.82631372  1.00000000  1
  Te  Te1  1  0.82631372  0.00000000  0.17368628  1
  Te  Te2  1  0.17681675  0.17681675  0.17681675  1
  Te  Te3  1  0.82318325  0.82318325  0.82318325  1
  Te  Te4  1  0.00000000  0.17368628  0.82631372  1
  Te  Te5  1  0.92378540  0.50000000  0.07621460  1
  Te  Te6  1  0.07621460  0.92378540  0.50000000  1
  Te  Te7  1  0.50000000  0.07621460  0.92378540  1
  Te  Te8  1  0.75916326  0.69805407  0.42863020  1
  Te  Te9  1  0.42863020  0.75916326  0.69805407  1
  Te  Te10  1  0.69805407  0.42863020  0.75916326  1
  Te  Te11  1  0.24083674  0.57136980  0.30194593  1
  Te  Te12  1  0.30194593  0.24083674  0.57136980  1
  Te  Te13  1  0.57136980  0.30194593  0.24083674  1
  Te  Te14  1  0.67801886  0.07342130  0.57176134  1
  Te  Te15  1  0.57176134  0.67801886  0.07342130  1
  Te  Te16  1  0.07342130  0.57176134  0.67801886  1
  Te  Te17  1  0.32198114  0.42823866  0.92657870  1
  Te  Te18  1  0.92657870  0.32198114  0.42823866  1
  Te  Te19  1  0.42823866  0.92657870  0.32198114  1
loop_
_geom_bond_atom_site_label_1
_geom_bond_atom_site_label_2
_geom_bond_distance
_geom_bond_site_symmetry_2
Rb0 Te12 3.526514 1_555
Rb0 Te8 3.526514 1_555
Rb0 Te9 3.526514 1_555
Rb0 Te13 3.526514 1_555
Rb0 Te11 3.526514 1_555
Rb0 Te10 3.526514 1_555
Na0 Te9 3.194703 1_555
Na0 Te12 3.194704 1_565
Na0 Te7 3.319811 1_565
Na0 Te6 3.319811 1_555
Na0 Te4 3.320909 1_565
Na0 Te0 3.320909 1_555
Na1 Te13 3.194704 1_556
Na1 Te10 3.194704 1_555
Na1 Te5 3.319811 1_556
Na1 Te7 3.319811 1_555
Na1 Te1 3.320909 1_556
Na1 Te4 3.320909 1_655
Na2 Te8 3.194704 1_455
Na2 Te11 3.194704 1_555
Na2 Te5 3.319811 1_455
Na2 Te6 3.319811 1_555
Na2 Te1 3.320909 1_465
Na2 Te0 3.320909 1_554
Ga0 Te8 2.619143 1_555
Ga0 Te6 2.637614 1_655
Ga0 Te14 2.651541 1_565
Ga0 Te3 2.714001 1_555
Ga1 Te9 2.619143 1_555
Ga1 Te7 2.637614 1_565
Ga1 Te15 2.651541 1_556
Ga1 Te3 2.714001 1_555
Ga2 Te10 2.619143 1_555
Ga2 Te5 2.637615 1_556
Ga2 Te16 2.651541 1_655
Ga2 Te3 2.714001 1_555
Ga3 Te11 2.619143 1_555
Ga3 Te5 2.637614 1_455
Ga3 Te17 2.651541 1_554
Ga3 Te2 2.714001 1_555
Ga4 Te12 2.619143 1_555
Ga4 Te6 2.637614 1_545
Ga4 Te18 2.651541 1_455
Ga4 Te2 2.714001 1_555
Ga5 Te13 2.619143 1_555
Ga5 Te7 2.637614 1_554
Ga5 Te19 2.651541 1_545
Ga5 Te2 2.714001 1_555
Ga6 Te1 2.606257 1_555
Ga6 Te13 2.606654 1_555
Ga6 Te18 2.692647 1_555
Ga6 Te14 2.692703 1_555
Ga7 Te0 2.606257 1_554
Ga7 Te11 2.606654 1_555
Ga7 Te19 2.692647 1_555
Ga7 Te15 2.692703 1_555
Ga8 Te4 2.606256 1_555
Ga8 Te12 2.606654 1_555
Ga8 Te17 2.692648 1_555
Ga8 Te16 2.692703 1_555
Ga9 Te0 2.606257 1_555
Ga9 Te9 2.606654 1_555
Ga9 Te16 2.692648 1_555
Ga9 Te17 2.692703 1_555
Ga10 Te4 2.606257 1_655
Ga10 Te10 2.606654 1_555
Ga10 Te14 2.692647 1_555
Ga10 Te18 2.692703 1_555
Ga11 Te1 2.606256 1_565
Ga11 Te8 2.606654 1_555
Ga11 Te15 2.692647 1_555
Ga11 Te19 2.692703 1_555
