# generated using pymatgen
data_Ti11Nb9(AlPt4)2
_symmetry_space_group_name_H-M   'P 1'
_cell_length_a   9.83993601
_cell_length_b   9.79875661
_cell_length_c   5.07983419
_cell_angle_alpha   89.99962149
_cell_angle_beta   90.02201822
_cell_angle_gamma   89.86026225
_symmetry_Int_Tables_number   1
_chemical_formula_structural   Ti11Nb9(AlPt4)2
_chemical_formula_sum   'Ti11 Nb9 Al2 Pt8'
_cell_volume   489.79174168
_cell_formula_units_Z   1
loop_
 _symmetry_equiv_pos_site_id
 _symmetry_equiv_pos_as_xyz
  1  'x, y, z'
loop_
 _atom_site_type_symbol
 _atom_site_label
 _atom_site_symmetry_multiplicity
 _atom_site_fract_x
 _atom_site_fract_y
 _atom_site_fract_z
 _atom_site_occupancy
  Ti  Ti0  1  0.12711020  0.46478910  0.99656990  1
  Ti  Ti1  1  0.96596786  0.37340881  0.49666682  1
  Ti  Ti2  1  0.03436618  0.62601768  0.49671261  1
  Ti  Ti3  1  0.87351869  0.53448749  0.99649118  1
  Ti  Ti4  1  0.37167423  0.96655507  0.49723551  1
  Ti  Ti5  1  0.62762824  0.03627307  0.49628297  1
  Ti  Ti6  1  0.46601770  0.12550959  0.99764909  1
  Ti  Ti7  1  0.18718344  0.18672410  0.25160713  1
  Ti  Ti8  1  0.68722735  0.31273264  0.75113393  1
  Ti  Ti9  1  0.31126340  0.68562708  0.75184300  1
  Ti  Ti10  1  0.81476742  0.81277526  0.25150102  1
  Nb  Nb0  1  0.39528146  0.39436177  0.00451485  1
  Nb  Nb1  1  0.89558316  0.10505095  0.50427094  1
  Nb  Nb2  1  0.10415025  0.89486603  0.50419368  1
  Nb  Nb3  1  0.60297653  0.60665309  0.00437246  1
  Nb  Nb4  1  0.53452289  0.87260051  0.99842629  1
  Nb  Nb5  1  0.31384376  0.68251863  0.24427348  1
  Nb  Nb6  1  0.68404360  0.31620103  0.24352725  1
  Nb  Nb7  1  0.18395862  0.18362996  0.74375664  1
  Nb  Nb8  1  0.81778417  0.81622399  0.74248818  1
  Al  Al0  1  0.99990479  0.00049401  0.00740432  1
  Al  Al1  1  0.50033505  0.50044139  0.50784271  1
  Pt  Pt0  1  0.25895852  0.94027213  0.00129007  1
  Pt  Pt1  1  0.44067672  0.23815927  0.50145272  1
  Pt  Pt2  1  0.55933677  0.76222604  0.50117182  1
  Pt  Pt3  1  0.74083058  0.06080421  0.00131828  1
  Pt  Pt4  1  0.23897270  0.44014173  0.50178700  1
  Pt  Pt5  1  0.76185065  0.55991873  0.50131927  1
  Pt  Pt6  1  0.94109466  0.26207791  0.00148945  1
  Pt  Pt7  1  0.05916941  0.73845774  0.00140645  1
loop_
_geom_bond_atom_site_label_1
_geom_bond_atom_site_label_2
_geom_bond_distance
_geom_bond_site_symmetry_2
Ti0 Ti7 3.072997 1_556
Ti0 Ti9 3.087470 1_555
Ti1 Ti2 2.566706 1_655
Ti1 Ti8 3.091601 1_555
Ti1 Ti7 3.101106 1_655
Ti2 Ti9 3.074023 1_555
Ti3 Ti8 3.106925 1_555
Ti4 Ti7 3.079919 1_565
Ti4 Ti9 3.100367 1_555
Ti5 Ti8 3.060326 1_555
Ti6 Ti7 3.089776 1_556
Ti6 Ti8 3.113398 1_555
Ti10 Ti3 3.072632 1_554
Ti10 Ti2 3.090034 1_655
Ti10 Ti5 3.116936 1_565
Nb0 Ti6 2.723402 1_554
Nb0 Ti0 2.726189 1_554
Nb0 Nb3 2.919703 1_555
Nb0 Pt1 2.985027 1_555
Nb0 Pt4 2.991237 1_555
Nb0 Pt1 3.011688 1_554
Nb0 Pt4 3.013677 1_554
Nb0 Ti7 3.151234 1_555
Nb0 Nb5 3.176141 1_555
Nb0 Nb6 3.181351 1_555
Nb0 Nb7 3.218885 1_554
Nb0 Ti9 3.234826 1_554
Nb0 Ti8 3.246646 1_554
Nb1 Ti1 2.721161 1_555
Nb1 Ti5 2.723306 1_555
Nb1 Nb2 2.903965 1_645
Nb1 Pt3 2.981297 1_556
Nb1 Pt6 2.991688 1_556
Nb1 Pt3 3.005761 1_555
Nb1 Pt6 3.015857 1_555
Nb1 Ti8 3.146252 1_555
Nb1 Nb8 3.173540 1_545
Nb1 Nb7 3.183209 1_655
Nb1 Nb6 3.216336 1_555
Nb1 Ti10 3.239386 1_545
Nb1 Ti7 3.245748 1_655
Nb2 Ti2 2.724284 1_555
Nb2 Ti4 2.726431 1_555
Nb2 Pt0 2.982490 1_556
Nb2 Pt7 2.988036 1_556
Nb2 Pt0 3.008491 1_555
Nb2 Pt7 3.011740 1_555
Nb2 Ti9 3.149165 1_555
Nb2 Nb8 3.164245 1_455
Nb2 Nb7 3.180256 1_565
Nb2 Nb5 3.211152 1_555
Nb2 Ti10 3.226677 1_455
Nb2 Ti7 3.241106 1_565
Nb3 Nb4 2.690175 1_554
Nb3 Ti3 2.753073 1_554
Nb3 Pt2 2.979060 1_555
Nb3 Pt5 3.003289 1_555
Nb3 Pt2 3.006360 1_554
Nb3 Pt5 3.030421 1_554
Nb3 Ti10 3.164958 1_555
Nb3 Nb5 3.181888 1_555
Nb3 Nb6 3.193816 1_555
Nb3 Ti9 3.235765 1_554
Nb3 Nb8 3.236939 1_554
Nb3 Ti8 3.259765 1_554
Nb4 Ti6 2.566653 1_565
Nb4 Pt3 2.745999 1_566
Nb4 Pt2 2.758456 1_555
Nb4 Pt2 2.783837 1_556
Nb4 Pt0 2.789910 1_556
Nb4 Ti10 3.096777 1_556
Nb4 Ti9 3.125599 1_555
Nb5 Ti9 2.501769 1_554
Nb5 Ti9 2.578683 1_555
Nb5 Pt4 2.811367 1_555
Nb5 Pt7 2.844885 1_555
Nb5 Pt2 2.855719 1_555
Nb5 Pt0 2.861290 1_555
Nb6 Ti8 2.501715 1_554
Nb6 Ti8 2.578959 1_555
Nb6 Pt5 2.830622 1_555
Nb6 Pt1 2.836802 1_555
Nb6 Pt3 2.843006 1_555
Nb6 Pt6 2.861207 1_555
Nb7 Ti7 2.500436 1_555
Nb7 Ti7 2.580158 1_556
Nb7 Pt0 2.816569 1_546
Nb7 Pt6 2.830095 1_456
Nb7 Pt4 2.851081 1_555
Nb7 Pt1 2.861925 1_555
Nb8 Ti10 2.494529 1_555
Nb8 Ti10 2.586104 1_556
Nb8 Pt7 2.817975 1_656
Nb8 Pt3 2.835080 1_566
Nb8 Pt5 2.849131 1_555
Nb8 Pt2 2.873017 1_555
Al0 Pt0 2.615277 1_645
Al0 Pt3 2.615642 1_555
Al0 Pt6 2.626502 1_555
Al0 Pt7 2.631812 1_645
Al0 Ti10 2.873629 1_545
Al0 Ti7 2.877407 1_655
Al0 Nb1 2.910476 1_555
Al0 Nb2 2.912879 1_645
Al0 Nb1 2.937432 1_554
Al0 Nb2 2.941877 1_644
Al1 Pt2 2.631646 1_555
Al1 Pt1 2.637822 1_555
Al1 Pt5 2.640075 1_555
Al1 Pt4 2.640362 1_555
Al1 Ti8 2.876481 1_555
Al1 Ti9 2.876746 1_555
Al1 Nb3 2.910045 1_556
Al1 Nb0 2.919218 1_556
Al1 Nb3 2.941315 1_555
Al1 Nb0 2.947815 1_555
Pt0 Ti6 2.732066 1_564
Pt0 Ti4 2.764542 1_555
Pt0 Pt7 2.791845 1_555
Pt0 Ti4 2.802902 1_554
Pt0 Ti7 2.817793 1_565
Pt0 Ti9 2.844448 1_554
Pt1 Ti5 2.698237 1_555
Pt1 Ti4 2.748316 1_545
Pt1 Ti6 2.762634 1_555
Pt1 Ti6 2.798124 1_554
Pt1 Pt4 2.799507 1_555
Pt1 Ti8 2.834541 1_555
Pt1 Ti7 2.844354 1_555
Pt2 Ti4 2.720461 1_555
Pt2 Ti5 2.769826 1_565
Pt2 Pt5 2.807388 1_555
Pt2 Ti9 2.855652 1_555
Pt2 Ti10 2.860016 1_555
Pt3 Ti5 2.761143 1_555
Pt3 Ti6 2.776026 1_554
Pt3 Pt6 2.791391 1_555
Pt3 Ti5 2.807035 1_554
Pt3 Ti8 2.824958 1_554
Pt3 Ti10 2.835808 1_545
Pt4 Ti2 2.711734 1_555
Pt4 Ti0 2.754634 1_555
Pt4 Ti1 2.766451 1_455
Pt4 Ti0 2.802310 1_554
Pt4 Ti9 2.813077 1_555
Pt4 Ti7 2.836671 1_555
Pt5 Ti1 2.712335 1_555
Pt5 Ti3 2.755576 1_555
Pt5 Ti2 2.760290 1_655
Pt5 Ti3 2.801193 1_554
Pt5 Ti8 2.832946 1_555
Pt5 Ti10 2.833237 1_555
Pt6 Ti0 2.704468 1_654
Pt6 Ti3 2.749391 1_554
Pt6 Ti1 2.752848 1_555
Pt6 Ti1 2.797847 1_554
Pt6 Ti7 2.830559 1_655
Pt6 Ti8 2.845250 1_554
Pt7 Ti3 2.711123 1_454
Pt7 Ti2 2.757869 1_555
Pt7 Ti0 2.762219 1_554
Pt7 Ti2 2.801287 1_554
Pt7 Ti10 2.814548 1_455
Pt7 Ti9 2.832779 1_554
