# generated using pymatgen
data_K4Ti6CBr18
_symmetry_space_group_name_H-M   'P 1'
_cell_length_a   10.02346611
_cell_length_b   10.22345431
_cell_length_c   10.29329598
_cell_angle_alpha   118.24951631
_cell_angle_beta   100.87084458
_cell_angle_gamma   103.70045887
_symmetry_Int_Tables_number   1
_chemical_formula_structural   K4Ti6CBr18
_chemical_formula_sum   'K4 Ti6 C1 Br18'
_cell_volume   845.17525757
_cell_formula_units_Z   1
loop_
 _symmetry_equiv_pos_site_id
 _symmetry_equiv_pos_as_xyz
  1  'x, y, z'
loop_
 _atom_site_type_symbol
 _atom_site_label
 _atom_site_symmetry_multiplicity
 _atom_site_fract_x
 _atom_site_fract_y
 _atom_site_fract_z
 _atom_site_occupancy
  K  K0  1  0.19232573  0.72981502  0.56895621  1
  K  K1  1  0.84369073  0.95797424  0.76820749  1
  K  K2  1  0.15630927  0.04202576  0.23179251  1
  K  K3  1  0.80767427  0.27018498  0.43104379  1
  Ti  Ti0  1  0.35469425  0.44765786  0.78210217  1
  Ti  Ti1  1  0.37107791  0.62084552  0.12669637  1
  Ti  Ti2  1  0.63876278  0.72451221  0.04217030  1
  Ti  Ti3  1  0.64530575  0.55234214  0.21789783  1
  Ti  Ti4  1  0.36123722  0.27548779  0.95782970  1
  Ti  Ti5  1  0.62892209  0.37915448  0.87330363  1
  C  C0  1  0.50000000  0.50000000  0.00000000  1
  Br  Br0  1  0.81511253  0.42242275  0.10682952  1
  Br  Br1  1  0.52054371  0.70066378  0.40092902  1
  Br  Br2  1  0.18228264  0.98646309  0.90381427  1
  Br  Br3  1  0.18488747  0.57757725  0.89317048  1
  Br  Br4  1  0.82785885  0.82321045  0.30378033  1
  Br  Br5  1  0.50646788  0.30067442  0.20555508  1
  Br  Br6  1  0.78970630  0.22562820  0.71352902  1
  Br  Br7  1  0.17214115  0.17678955  0.69621967  1
  Br  Br8  1  0.51148770  0.90039841  0.19368789  1
  Br  Br9  1  0.80912442  0.62144470  0.90376314  1
  Br  Br10  1  0.21029370  0.77437180  0.28647098  1
  Br  Br11  1  0.16483373  0.38068745  0.50170010  1
  Br  Br12  1  0.49353212  0.69932558  0.79444492  1
  Br  Br13  1  0.81771736  0.01353691  0.09618573  1
  Br  Br14  1  0.47945629  0.29933622  0.59907098  1
  Br  Br15  1  0.19087558  0.37855530  0.09623686  1
  Br  Br16  1  0.83516627  0.61931255  0.49829990  1
  Br  Br17  1  0.48851230  0.09960159  0.80631211  1
loop_
_geom_bond_atom_site_label_1
_geom_bond_atom_site_label_2
_geom_bond_distance
_geom_bond_site_symmetry_2
C0 Ti3 2.168107 1_555
C0 Ti0 2.168107 1_554
C0 Ti2 2.169842 1_555
C0 Ti4 2.169842 1_554
C0 Ti1 2.182595 1_555
C0 Ti5 2.182595 1_554
Br0 Ti3 2.517062 1_555
Br0 Ti5 2.523285 1_554
Br1 Ti3 2.548578 1_555
Br1 Ti1 2.554142 1_555
Br1 K1 3.692505 1_555
Br2 Ti4 2.795647 1_565
Br2 K2 3.220854 1_566
Br2 K0 3.235724 1_555
Br2 K1 3.303267 1_455
Br3 Ti0 2.517062 1_555
Br3 Ti1 2.523285 1_556
Br4 Ti2 2.541409 1_555
Br4 Ti3 2.543712 1_555
Br5 Ti4 2.547202 1_554
Br5 Ti3 2.549602 1_555
Br5 K3 3.617589 1_555
Br6 Ti5 2.742261 1_555
Br6 K3 3.179179 1_555
Br6 K1 3.184580 1_545
Br7 Ti4 2.541409 1_555
Br7 Ti0 2.543712 1_555
Br8 Ti2 2.544734 1_555
Br8 Ti1 2.547040 1_555
Br8 K3 3.504181 1_565
Br9 Ti2 2.530773 1_556
Br9 Ti5 2.535436 1_555
Br10 Ti1 2.742261 1_555
Br10 K0 3.179179 1_555
Br10 K2 3.184580 1_565
Br11 Ti0 2.803791 1_555
Br11 K2 3.221499 1_555
Br11 K0 3.227704 1_555
Br11 K3 3.308443 1_455
Br12 Ti2 2.547202 1_556
Br12 Ti0 2.549602 1_555
Br12 K0 3.617589 1_555
Br13 Ti2 2.795647 1_545
Br13 K1 3.220854 1_544
Br13 K3 3.235724 1_555
Br13 K2 3.303267 1_655
Br14 Ti0 2.548578 1_555
Br14 Ti5 2.554142 1_555
Br14 K2 3.692505 1_555
Br15 Ti4 2.530773 1_554
Br15 Ti1 2.535436 1_555
Br16 Ti3 2.803791 1_555
Br16 K1 3.221499 1_555
Br16 K3 3.227704 1_555
Br16 K0 3.308443 1_655
Br17 Ti4 2.544734 1_555
Br17 Ti5 2.547040 1_555
Br17 K0 3.504181 1_545
