# generated using pymatgen
data_Cs2RbYBi2
_symmetry_space_group_name_H-M   'P 1'
_cell_length_a   10.63689482
_cell_length_b   10.63689681
_cell_length_c   10.63689608
_cell_angle_alpha   131.28632852
_cell_angle_beta   67.51928092
_cell_angle_gamma   136.26543027
_symmetry_Int_Tables_number   1
_chemical_formula_structural   Cs2RbYBi2
_chemical_formula_sum   'Cs4 Rb2 Y2 Bi4'
_cell_volume   614.77665478
_cell_formula_units_Z   2
loop_
 _symmetry_equiv_pos_site_id
 _symmetry_equiv_pos_as_xyz
  1  'x, y, z'
loop_
 _atom_site_type_symbol
 _atom_site_label
 _atom_site_symmetry_multiplicity
 _atom_site_fract_x
 _atom_site_fract_y
 _atom_site_fract_z
 _atom_site_occupancy
  Cs  Cs0  1  0.31754564  0.76520897  0.08275261  1
  Cs  Cs1  1  0.18245436  0.26520797  0.44766333  1
  Cs  Cs2  1  0.81754564  0.73479203  0.55233767  1
  Cs  Cs3  1  0.68245436  0.23479103  0.91724639  1
  Rb  Rb0  1  0.25000000  0.25000000  0.00000000  1
  Rb  Rb1  1  0.75000000  0.75000000  0.00000000  1
  Y  Y0  1  0.75000000  0.25000000  0.50000000  1
  Y  Y1  1  0.25000000  0.74999900  0.49999900  1
  Bi  Bi0  1  0.90324989  0.30501405  0.20826194  1
  Bi  Bi1  1  0.59675011  0.80501405  0.40176516  1
  Bi  Bi2  1  0.40324989  0.19498595  0.59823484  1
  Bi  Bi3  1  0.09675011  0.69498595  0.79173706  1
loop_
_geom_bond_atom_site_label_1
_geom_bond_atom_site_label_2
_geom_bond_distance
_geom_bond_site_symmetry_2
Cs0 Y0 4.310572 1_565
Cs0 Y1 4.310576 1_555
Cs0 Rb1 4.444290 1_555
Cs0 Rb0 4.444298 1_555
Cs0 Cs3 4.634173 1_564
Cs0 Cs3 4.634192 1_454
Cs0 Cs1 4.995300 1_554
Cs0 Cs1 4.995308 1_565
Cs1 Y0 4.310566 1_455
Cs1 Y1 4.310566 1_555
Cs1 Rb1 4.444287 1_445
Cs1 Rb0 4.444292 1_555
Cs1 Cs2 4.634189 1_445
Cs1 Cs2 4.634195 1_555
Cs2 Y0 4.310564 1_555
Cs2 Y1 4.310567 1_655
Cs2 Rb0 4.444280 1_666
Cs2 Rb1 4.444281 1_556
Cs2 Cs3 4.995308 1_565
Cs2 Cs3 4.995316 1_554
Cs3 Y1 4.310570 1_545
Cs3 Y0 4.310570 1_555
Cs3 Rb0 4.444287 1_556
Cs3 Rb1 4.444292 1_556
Rb0 Rb1 3.961796 1_555
Rb0 Rb1 3.961796 1_445
Rb0 Y1 4.386841 1_555
Rb0 Y1 4.386859 1_544
Rb1 Y0 4.386850 1_554
Rb1 Y0 4.386850 1_565
Bi0 Y1 3.127100 1_655
Bi0 Y0 3.127116 1_555
Bi0 Rb0 3.743471 1_655
Bi0 Rb1 3.743480 1_545
Bi0 Cs3 3.953381 1_554
Bi0 Cs2 4.064012 1_555
Bi0 Cs0 4.256228 1_545
Bi0 Cs0 4.256228 1_655
Bi1 Y1 3.127091 1_555
Bi1 Y0 3.127101 1_565
Bi1 Rb0 3.743478 1_555
Bi1 Rb1 3.743483 1_555
Bi1 Cs2 3.953400 1_555
Bi1 Cs3 4.064003 1_565
Bi1 Cs1 4.256228 1_665
Bi1 Cs1 4.256229 1_555
Bi2 Y0 3.127096 1_555
Bi2 Y1 3.127106 1_545
Bi2 Rb1 3.743478 1_556
Bi2 Rb0 3.743483 1_556
Bi2 Cs1 3.953392 1_555
Bi2 Cs0 4.064010 1_545
Bi2 Cs2 4.256223 1_555
Bi2 Cs2 4.256229 1_445
Bi3 Y0 3.127101 1_455
Bi3 Y1 3.127111 1_555
Bi3 Rb1 3.743472 1_456
Bi3 Rb0 3.743477 1_566
Bi3 Cs0 3.953381 1_556
Bi3 Cs1 4.064011 1_555
Bi3 Cs3 4.256228 1_565
Bi3 Cs3 4.256228 1_455
