# generated using pymatgen
data_RbLuP2S7
_symmetry_space_group_name_H-M   'P 1'
_cell_length_a   6.74642974
_cell_length_b   6.74642943
_cell_length_c   6.60448818
_cell_angle_alpha   83.80451989
_cell_angle_beta   83.80452198
_cell_angle_gamma   97.78237363
_symmetry_Int_Tables_number   1
_chemical_formula_structural   RbLuP2S7
_chemical_formula_sum   'Rb1 Lu1 P2 S7'
_cell_volume   293.79060812
_cell_formula_units_Z   1
loop_
 _symmetry_equiv_pos_site_id
 _symmetry_equiv_pos_as_xyz
  1  'x, y, z'
loop_
 _atom_site_type_symbol
 _atom_site_label
 _atom_site_symmetry_multiplicity
 _atom_site_fract_x
 _atom_site_fract_y
 _atom_site_fract_z
 _atom_site_occupancy
  Rb  Rb0  1  0.07773055  0.92226945  0.50000000  1
  Lu  Lu0  1  0.49088305  0.50911695  0.00000000  1
  P  P0  1  0.64324355  0.96294830  0.08985873  1
  P  P1  1  0.03705170  0.35675645  0.91014127  1
  S  S0  1  0.96272806  0.03727194  1.00000000  1
  S  S1  1  0.82259227  0.46107266  0.75703624  1
  S  S2  1  0.63119410  0.71131444  0.28964965  1
  S  S3  1  0.28868556  0.36880590  0.71035035  1
  S  S4  1  0.52081861  0.89535680  0.83676481  1
  S  S5  1  0.10464320  0.47918139  0.16323519  1
  S  S6  1  0.53892734  0.17740773  0.24296376  1
loop_
_geom_bond_atom_site_label_1
_geom_bond_atom_site_label_2
_geom_bond_distance
_geom_bond_site_symmetry_2
Rb0 S0 3.503105 1_464
Rb0 S0 3.503105 1_465
Rb0 S1 3.507767 1_455
Rb0 S6 3.507767 1_565
Rb0 S3 3.633153 1_565
Rb0 S2 3.633153 1_455
Rb0 S5 3.925609 1_555
Rb0 S4 3.925609 1_555
Lu0 S2 2.649673 1_555
Lu0 S3 2.649673 1_554
Lu0 S4 2.682736 1_554
Lu0 S5 2.682737 1_555
Lu0 S6 2.687298 1_555
Lu0 S1 2.687298 1_554
P0 S4 2.011147 1_554
P0 S6 2.012222 1_565
P0 S2 2.021301 1_555
P0 S0 2.148552 1_564
P1 S5 2.011147 1_556
P1 S1 2.012222 1_455
P1 S3 2.021301 1_555
P1 S0 2.148552 1_455
