# generated using pymatgen
data_Ga5Ge(B4Ir9)2
_symmetry_space_group_name_H-M   'P 1'
_cell_length_a   8.97400148
_cell_length_b   8.99900847
_cell_length_c   5.72943157
_cell_angle_alpha   90.00000000
_cell_angle_beta   90.00000000
_cell_angle_gamma   119.77040867
_symmetry_Int_Tables_number   1
_chemical_formula_structural   Ga5Ge(B4Ir9)2
_chemical_formula_sum   'Ga5 Ge1 B8 Ir18'
_cell_volume   401.62715694
_cell_formula_units_Z   1
loop_
 _symmetry_equiv_pos_site_id
 _symmetry_equiv_pos_as_xyz
  1  'x, y, z'
loop_
 _atom_site_type_symbol
 _atom_site_label
 _atom_site_symmetry_multiplicity
 _atom_site_fract_x
 _atom_site_fract_y
 _atom_site_fract_z
 _atom_site_occupancy
  Ga  Ga0  1  0.44767028  0.98603183  0.25000000  1
  Ga  Ga1  1  0.53759221  0.55133631  0.25000000  1
  Ga  Ga2  1  0.55078253  0.53902589  0.75000000  1
  Ga  Ga3  1  0.98603472  0.44771817  0.75000000  1
  Ga  Ga4  1  0.01200416  0.46165074  0.25000000  1
  Ge  Ge0  1  0.47181448  0.01960657  0.75000000  1
  B  B0  1  0.80859922  0.00002126  0.50048378  1
  B  B1  1  0.80859922  0.00002126  0.99951622  1
  B  B2  1  0.99973138  0.80729711  0.49941367  1
  B  B3  1  0.19209493  0.19126616  0.50052057  1
  B  B4  1  0.19209493  0.19126616  0.99947943  1
  B  B5  1  0.99973138  0.80729711  0.00058633  1
  B  B6  1  0.66604036  0.33622360  0.25000000  1
  B  B7  1  0.33048988  0.66305031  0.75000000  1
  Ir  Ir0  1  0.81108909  0.53641650  0.50179820  1
  Ir  Ir1  1  0.53437457  0.81366586  0.50020275  1
  Ir  Ir2  1  0.99793870  0.17787517  0.75000000  1
  Ir  Ir3  1  0.27568426  0.46357137  0.49835851  1
  Ir  Ir4  1  0.00373606  0.18233567  0.25000000  1
  Ir  Ir5  1  0.72367880  0.18852331  0.49888464  1
  Ir  Ir6  1  0.81593050  0.82189542  0.25000000  1
  Ir  Ir7  1  0.18543452  0.72148538  0.49840866  1
  Ir  Ir8  1  0.46327901  0.27680196  0.50154004  1
  Ir  Ir9  1  0.81108909  0.53641650  0.99820180  1
  Ir  Ir10  1  0.46327901  0.27680196  0.99845996  1
  Ir  Ir11  1  0.19027180  0.00271278  0.75000000  1
  Ir  Ir12  1  0.17879300  0.99502277  0.25000000  1
  Ir  Ir13  1  0.18543452  0.72148538  0.00159134  1
  Ir  Ir14  1  0.82297073  0.81741896  0.75000000  1
  Ir  Ir15  1  0.72367880  0.18852331  0.00111536  1
  Ir  Ir16  1  0.27568426  0.46357137  0.00164149  1
  Ir  Ir17  1  0.53437457  0.81366586  0.99979725  1
loop_
_geom_bond_atom_site_label_1
_geom_bond_atom_site_label_2
_geom_bond_distance
_geom_bond_site_symmetry_2
Ga0 Ir12 2.454084 1_555
Ga0 Ir1 2.502977 1_555
Ga0 Ir17 2.502977 1_554
Ga0 Ir5 2.647039 1_565
Ga0 Ir15 2.647039 1_565
Ga0 Ir7 2.769061 1_555
Ga0 Ir13 2.769061 1_555
Ga0 Ge0 2.877468 1_565
Ga0 Ge0 2.877468 1_564
Ga0 Ir8 2.929073 1_565
Ga0 Ir10 2.929073 1_564
Ga1 Ir6 2.475440 1_555
Ga1 Ir16 2.515823 1_555
Ga1 Ir3 2.515823 1_555
Ga1 Ir10 2.643705 1_554
Ga1 Ir8 2.643705 1_555
Ga1 Ir1 2.774245 1_555
Ga1 Ir17 2.774245 1_554
Ga1 Ga2 2.871568 1_555
Ga1 Ga2 2.871568 1_554
Ga1 Ir0 2.906962 1_555
Ga1 Ir9 2.906962 1_554
Ga2 Ir14 2.483111 1_555
Ga2 Ir10 2.524160 1_555
Ga2 Ir8 2.524160 1_555
Ga2 Ir16 2.640023 1_556
Ga2 Ir3 2.640023 1_555
Ga2 Ir9 2.744835 1_555
Ga2 Ir0 2.744835 1_555
Ga2 Ir17 2.922266 1_555
Ga2 Ir1 2.922266 1_555
Ga3 Ir2 2.483093 1_555
Ga3 Ir9 2.523603 1_555
Ga3 Ir0 2.523603 1_555
Ga3 Ir13 2.640363 1_656
Ga3 Ir7 2.640363 1_655
Ga3 Ir15 2.756850 1_556
Ga3 Ir5 2.756850 1_555
Ga3 Ga4 2.871866 1_655
Ga3 Ga4 2.871866 1_656
Ga3 Ir16 2.913284 1_656
Ga3 Ir3 2.913284 1_655
Ga4 Ir4 2.477555 1_555
Ga4 Ir7 2.510264 1_555
Ga4 Ir13 2.510264 1_555
Ga4 Ir0 2.643762 1_455
Ga4 Ir9 2.643762 1_454
Ga4 Ir16 2.753851 1_555
Ga4 Ir3 2.753851 1_555
Ga4 Ir5 2.907567 1_455
Ga4 Ir15 2.907567 1_455
Ge0 Ir11 2.454629 1_555
Ge0 Ir15 2.465244 1_556
Ge0 Ir5 2.465244 1_555
Ge0 Ir17 2.613677 1_545
Ge0 Ir1 2.613677 1_545
Ge0 Ir8 2.750508 1_555
Ge0 Ir10 2.750508 1_555
Ge0 Ir13 3.005529 1_546
Ge0 Ir7 3.005529 1_545
B0 Ir6 2.176722 1_545
B0 Ir5 2.177644 1_555
B0 Ir1 2.184055 1_545
B0 Ir2 2.189022 1_555
B0 Ir4 2.228185 1_655
B0 Ir14 2.229583 1_545
B1 Ir6 2.176722 1_546
B1 Ir15 2.177644 1_556
B1 Ir17 2.184055 1_545
B1 Ir2 2.189022 1_555
B1 Ir4 2.228185 1_656
B1 Ir14 2.229583 1_545
B2 Ir7 2.156744 1_655
B2 Ir0 2.170302 1_555
B2 Ir14 2.174685 1_555
B2 Ir12 2.186848 1_655
B2 Ir6 2.234970 1_555
B2 Ir11 2.256435 1_665
B3 Ir8 2.157486 1_555
B3 Ir3 2.177678 1_555
B3 Ir4 2.188375 1_555
B3 Ir2 2.210191 1_455
B3 Ir11 2.212447 1_555
B3 Ir12 2.232453 1_545
B4 Ir10 2.157486 1_555
B4 Ir16 2.177678 1_556
B4 Ir4 2.188375 1_556
B4 Ir2 2.210191 1_455
B4 Ir11 2.212447 1_555
B4 Ir12 2.232453 1_546
B5 Ir13 2.156744 1_655
B5 Ir9 2.170302 1_554
B5 Ir14 2.174685 1_554
B5 Ir12 2.186848 1_655
B5 Ir6 2.234970 1_555
B5 Ir11 2.256435 1_664
B6 Ir0 2.166203 1_555
B6 Ir9 2.166203 1_554
B6 Ir8 2.169697 1_555
B6 Ir10 2.169697 1_554
B6 Ir5 2.179521 1_555
B6 Ir15 2.179521 1_555
B6 Ga1 2.700354 1_555
B6 Ga4 2.726368 1_655
B6 Ga0 2.763825 1_545
B7 Ir16 2.160151 1_556
B7 Ir3 2.160151 1_555
B7 Ir13 2.174543 1_556
B7 Ir7 2.174543 1_555
B7 Ir17 2.184123 1_555
B7 Ir1 2.184123 1_555
B7 Ga2 2.710151 1_555
B7 Ga3 2.713266 1_455
