# generated using pymatgen
data_Ti5GaAs2
_symmetry_space_group_name_H-M   'P 1'
_cell_length_a   5.07987504
_cell_length_b   7.48178963
_cell_length_c   7.48178952
_cell_angle_alpha   83.35718060
_cell_angle_beta   70.13308662
_cell_angle_gamma   70.13308595
_symmetry_Int_Tables_number   1
_chemical_formula_structural   Ti5GaAs2
_chemical_formula_sum   'Ti10 Ga2 As4'
_cell_volume   251.51697909
_cell_formula_units_Z   2
loop_
 _symmetry_equiv_pos_site_id
 _symmetry_equiv_pos_as_xyz
  1  'x, y, z'
loop_
 _atom_site_type_symbol
 _atom_site_label
 _atom_site_symmetry_multiplicity
 _atom_site_fract_x
 _atom_site_fract_y
 _atom_site_fract_z
 _atom_site_occupancy
  Ti  Ti0  1  0.72207271  0.85752673  0.69885824  1
  Ti  Ti1  1  0.27792729  0.14247327  0.30114176  1
  Ti  Ti2  1  0.77792729  0.30114176  0.14247327  1
  Ti  Ti3  1  0.22207271  0.69885824  0.85752673  1
  Ti  Ti4  1  0.57950754  0.69883106  0.14242458  1
  Ti  Ti5  1  0.42049246  0.30116894  0.85757542  1
  Ti  Ti6  1  0.07950754  0.14242458  0.69883106  1
  Ti  Ti7  1  0.92049246  0.85757542  0.30116894  1
  Ti  Ti8  1  0.75000000  0.49993898  0.50006102  1
  Ti  Ti9  1  0.25000000  0.50006102  0.49993898  1
  Ga  Ga0  1  0.25000000  0.99998276  0.00001724  1
  Ga  Ga1  1  0.75000000  0.00001724  0.99998276  1
  As  As0  1  0.16080031  0.50004928  0.17811586  1
  As  As1  1  0.83919969  0.49995072  0.82188414  1
  As  As2  1  0.33919969  0.82188414  0.49995072  1
  As  As3  1  0.66080031  0.17811586  0.50004928  1
loop_
_geom_bond_atom_site_label_1
_geom_bond_atom_site_label_2
_geom_bond_distance
_geom_bond_site_symmetry_2
Ga0 Ga1 2.539938 1_464
Ga0 Ga1 2.539938 1_564
Ga0 Ti4 2.665912 1_555
Ga0 Ti7 2.665912 1_455
Ga0 Ti6 2.665942 1_564
Ga0 Ti5 2.665942 1_564
Ga0 Ti1 2.666114 1_565
Ga0 Ti3 2.666114 1_554
Ga0 Ti0 2.666380 1_554
Ga0 Ti2 2.666380 1_465
Ga1 Ti5 2.665912 1_555
Ga1 Ti6 2.665912 1_655
Ga1 Ti7 2.665942 1_546
Ga1 Ti4 2.665942 1_546
Ga1 Ti0 2.666114 1_545
Ga1 Ti2 2.666114 1_556
Ga1 Ti1 2.666380 1_556
Ga1 Ti3 2.666380 1_645
As0 Ti8 2.596352 1_455
As0 Ti9 2.597019 1_555
As0 Ti3 2.654125 1_554
As0 Ti5 2.654611 1_554
As0 Ti1 2.660666 1_555
As0 Ti7 2.660749 1_455
As0 Ti4 2.908942 1_455
As0 Ti2 2.909687 1_555
As0 Ti4 2.911934 1_555
As0 Ti2 2.912084 1_455
As1 Ti9 2.596352 1_655
As1 Ti8 2.597019 1_555
As1 Ti2 2.654125 1_556
As1 Ti4 2.654611 1_556
As1 Ti0 2.660666 1_555
As1 Ti6 2.660749 1_655
As1 Ti5 2.908942 1_655
As1 Ti3 2.909687 1_555
As1 Ti5 2.911934 1_555
As1 Ti3 2.912084 1_655
As2 Ti8 2.596352 1_555
As2 Ti9 2.597019 1_555
As2 Ti1 2.654125 1_565
As2 Ti6 2.654611 1_565
As2 Ti3 2.660666 1_555
As2 Ti4 2.660749 1_555
As2 Ti7 2.908942 1_555
As2 Ti0 2.909687 1_455
As2 Ti7 2.911934 1_455
As2 Ti0 2.912084 1_555
As3 Ti9 2.596352 1_555
As3 Ti8 2.597019 1_555
As3 Ti0 2.654125 1_545
As3 Ti7 2.654611 1_545
As3 Ti2 2.660666 1_555
As3 Ti5 2.660749 1_555
As3 Ti6 2.908942 1_555
As3 Ti1 2.909687 1_655
As3 Ti6 2.911934 1_655
As3 Ti1 2.912084 1_555
