# generated using pymatgen
data_RbBa4Sb2P
_symmetry_space_group_name_H-M   'P 1'
_cell_length_a   8.89031632
_cell_length_b   10.49660255
_cell_length_c   14.15798957
_cell_angle_alpha   90.00000000
_cell_angle_beta   90.00000000
_cell_angle_gamma   90.00000000
_symmetry_Int_Tables_number   1
_chemical_formula_structural   RbBa4Sb2P
_chemical_formula_sum   'Rb4 Ba16 Sb8 P4'
_cell_volume   1321.19692603
_cell_formula_units_Z   4
loop_
 _symmetry_equiv_pos_site_id
 _symmetry_equiv_pos_as_xyz
  1  'x, y, z'
loop_
 _atom_site_type_symbol
 _atom_site_label
 _atom_site_symmetry_multiplicity
 _atom_site_fract_x
 _atom_site_fract_y
 _atom_site_fract_z
 _atom_site_occupancy
  Rb  Rb0  1  0.01118355  0.75000000  0.49940620  1
  Rb  Rb1  1  0.98881645  0.25000000  0.50059380  1
  Rb  Rb2  1  0.51118355  0.25000000  0.00059380  1
  Rb  Rb3  1  0.48881645  0.75000000  0.99940620  1
  Ba  Ba0  1  0.84218643  0.75000000  0.79890272  1
  Ba  Ba1  1  0.15781357  0.25000000  0.20109728  1
  Ba  Ba2  1  0.34218643  0.25000000  0.70109728  1
  Ba  Ba3  1  0.65781357  0.75000000  0.29890272  1
  Ba  Ba4  1  0.69070500  0.50288580  0.57214175  1
  Ba  Ba5  1  0.30929500  0.49711420  0.42785825  1
  Ba  Ba6  1  0.19070500  0.49711420  0.92785825  1
  Ba  Ba7  1  0.30929500  0.00288580  0.42785825  1
  Ba  Ba8  1  0.80929500  0.50288580  0.07214175  1
  Ba  Ba9  1  0.69070500  0.99711420  0.57214175  1
  Ba  Ba10  1  0.80929500  0.99711420  0.07214175  1
  Ba  Ba11  1  0.19070500  0.00288580  0.92785825  1
  Ba  Ba12  1  0.33997657  0.75000000  0.70262829  1
  Ba  Ba13  1  0.66002343  0.25000000  0.29737171  1
  Ba  Ba14  1  0.83997657  0.25000000  0.79737171  1
  Ba  Ba15  1  0.16002343  0.75000000  0.20262829  1
  Sb  Sb0  1  0.56133814  0.50065379  0.82018866  1
  Sb  Sb1  1  0.43866186  0.49934621  0.17981134  1
  Sb  Sb2  1  0.06133814  0.49934621  0.67981134  1
  Sb  Sb3  1  0.43866186  0.00065379  0.17981134  1
  Sb  Sb4  1  0.93866186  0.50065379  0.32018866  1
  Sb  Sb5  1  0.56133814  0.99934621  0.82018866  1
  Sb  Sb6  1  0.93866186  0.99934621  0.32018866  1
  Sb  Sb7  1  0.06133814  0.00065379  0.67981134  1
  P  P0  1  0.00604321  0.75000000  0.99914779  1
  P  P1  1  0.99395679  0.25000000  0.00085221  1
  P  P2  1  0.50604321  0.25000000  0.50085221  1
  P  P3  1  0.49395679  0.75000000  0.49914779  1
loop_
_geom_bond_atom_site_label_1
_geom_bond_atom_site_label_2
_geom_bond_distance
_geom_bond_site_symmetry_2
Rb0 Sb7 3.693894 1_565
Rb0 Sb2 3.693894 1_555
Rb0 Sb4 3.701903 1_455
Rb0 Sb6 3.701903 1_455
Rb1 Sb6 3.693894 1_545
Rb1 Sb4 3.693894 1_555
Rb1 Sb2 3.701903 1_655
Rb1 Sb7 3.701903 1_655
Rb2 Sb5 3.693894 1_544
Rb2 Sb0 3.693894 1_554
Rb2 Sb1 3.701903 1_555
Rb2 Sb3 3.701903 1_555
Rb3 Sb3 3.693894 1_566
Rb3 Sb1 3.693894 1_556
Rb3 Sb0 3.701903 1_555
Rb3 Sb5 3.701903 1_555
Ba0 P0 3.187428 1_655
Ba0 Sb0 3.629763 1_555
Ba0 Sb5 3.629763 1_555
Ba0 Sb7 3.682544 1_665
Ba0 Sb2 3.682544 1_655
Ba1 P1 3.187428 1_455
Ba1 Sb1 3.629763 1_555
Ba1 Sb3 3.629763 1_555
Ba1 Sb6 3.682544 1_445
Ba1 Sb4 3.682544 1_455
Ba2 P2 3.187428 1_555
Ba2 Sb2 3.629763 1_555
Ba2 Sb7 3.629763 1_555
Ba2 Sb5 3.682544 1_545
Ba2 Sb0 3.682544 1_555
Ba3 P3 3.187428 1_555
Ba3 Sb4 3.629763 1_555
Ba3 Sb6 3.629763 1_555
Ba3 Sb3 3.682544 1_565
Ba3 Sb1 3.682544 1_555
Ba4 P2 3.280239 1_555
Ba4 P3 3.294793 1_555
Ba4 Sb2 3.630765 1_655
Ba4 Sb0 3.695452 1_555
Ba4 Sb4 4.193393 1_555
Ba5 P3 3.280239 1_555
Ba5 P2 3.294793 1_555
Ba5 Sb4 3.630765 1_455
Ba5 Sb1 3.695452 1_555
Ba5 Sb2 4.193393 1_555
Ba6 P0 3.280239 1_555
Ba6 P1 3.294793 1_456
Ba6 Sb0 3.630765 1_555
Ba6 Sb2 3.695452 1_555
Ba6 Sb1 4.193393 1_556
Ba7 P3 3.280239 1_545
Ba7 P2 3.294793 1_555
Ba7 Sb6 3.630765 1_445
Ba7 Sb3 3.695452 1_555
Ba7 Sb7 4.193393 1_555
Ba8 P1 3.280239 1_555
Ba8 P0 3.294793 1_654
Ba8 Sb1 3.630765 1_555
Ba8 Sb4 3.695452 1_555
Ba8 Sb0 4.193393 1_554
Ba9 P2 3.280239 1_565
Ba9 P3 3.294793 1_555
Ba9 Sb7 3.630765 1_665
Ba9 Sb5 3.695452 1_555
Ba9 Sb6 4.193393 1_555
Ba10 P1 3.280239 1_565
Ba10 P0 3.294793 1_654
Ba10 Sb3 3.630765 1_565
Ba10 Sb6 3.695452 1_555
Ba10 Sb5 4.193393 1_554
Ba11 P0 3.280239 1_545
Ba11 P1 3.294793 1_456
Ba11 Sb5 3.630765 1_545
Ba11 Sb7 3.695452 1_555
Ba11 Sb3 4.193393 1_556
Ba12 P3 3.189579 1_555
Ba12 Sb7 3.628089 1_565
Ba12 Sb2 3.628089 1_555
Ba12 Sb0 3.673338 1_555
Ba12 Sb5 3.673338 1_555
Ba13 P2 3.189579 1_555
Ba13 Sb6 3.628089 1_545
Ba13 Sb4 3.628089 1_555
Ba13 Sb1 3.673338 1_555
Ba13 Sb3 3.673338 1_555
Ba14 P1 3.189579 1_556
Ba14 Sb5 3.628089 1_545
Ba14 Sb0 3.628089 1_555
Ba14 Sb2 3.673338 1_655
Ba14 Sb7 3.673338 1_655
Ba15 P0 3.189579 1_554
Ba15 Sb3 3.628089 1_565
Ba15 Sb1 3.628089 1_555
Ba15 Sb4 3.673338 1_455
Ba15 Sb6 3.673338 1_455
