# generated using pymatgen
data_Y10ReHg3
_symmetry_space_group_name_H-M   'P 1'
_cell_length_a   9.61298271
_cell_length_b   9.61298337
_cell_length_c   9.76746802
_cell_angle_alpha   90.00000000
_cell_angle_beta   90.00000000
_cell_angle_gamma   119.99999427
_symmetry_Int_Tables_number   1
_chemical_formula_structural   Y10ReHg3
_chemical_formula_sum   'Y20 Re2 Hg6'
_cell_volume   781.68001127
_cell_formula_units_Z   2
loop_
 _symmetry_equiv_pos_site_id
 _symmetry_equiv_pos_as_xyz
  1  'x, y, z'
loop_
 _atom_site_type_symbol
 _atom_site_label
 _atom_site_symmetry_multiplicity
 _atom_site_fract_x
 _atom_site_fract_y
 _atom_site_fract_z
 _atom_site_occupancy
  Y  Y0  1  0.00000000  0.00000000  0.50000000  1
  Y  Y1  1  0.00000000  0.00000000  0.00000000  1
  Y  Y2  1  0.20921185  0.79078815  0.43961050  1
  Y  Y3  1  0.20921185  0.41842470  0.43961050  1
  Y  Y4  1  0.58157530  0.79078815  0.43961050  1
  Y  Y5  1  0.79078815  0.20921185  0.56038950  1
  Y  Y6  1  0.79078815  0.58157530  0.56038950  1
  Y  Y7  1  0.41842470  0.20921185  0.56038950  1
  Y  Y8  1  0.79078815  0.20921185  0.93961050  1
  Y  Y9  1  0.79078815  0.58157530  0.93961050  1
  Y  Y10  1  0.41842470  0.20921185  0.93961050  1
  Y  Y11  1  0.20921185  0.79078815  0.06038950  1
  Y  Y12  1  0.20921185  0.41842470  0.06038950  1
  Y  Y13  1  0.58157530  0.79078815  0.06038950  1
  Y  Y14  1  0.53884151  0.46115849  0.25000000  1
  Y  Y15  1  0.53884151  0.07768302  0.25000000  1
  Y  Y16  1  0.92231698  0.46115849  0.25000000  1
  Y  Y17  1  0.46115849  0.53884151  0.75000000  1
  Y  Y18  1  0.46115849  0.92231698  0.75000000  1
  Y  Y19  1  0.07768302  0.53884151  0.75000000  1
  Re  Re0  1  0.33333300  0.66666700  0.25000000  1
  Re  Re1  1  0.66666700  0.33333300  0.75000000  1
  Hg  Hg0  1  0.88260791  0.11739209  0.25000000  1
  Hg  Hg1  1  0.88260791  0.76521681  0.25000000  1
  Hg  Hg2  1  0.23478319  0.11739209  0.25000000  1
  Hg  Hg3  1  0.11739209  0.88260791  0.75000000  1
  Hg  Hg4  1  0.11739209  0.23478319  0.75000000  1
  Hg  Hg5  1  0.76521681  0.88260791  0.75000000  1
loop_
_geom_bond_atom_site_label_1
_geom_bond_atom_site_label_2
_geom_bond_distance
_geom_bond_site_symmetry_2
Re0 Y2 2.775059 1_555
Re0 Y11 2.775059 1_555
Re0 Y4 2.775059 1_555
Re0 Y13 2.775059 1_555
Re0 Y3 2.775059 1_555
Re0 Y12 2.775059 1_555
Re1 Y8 2.775059 1_555
Re1 Y5 2.775059 1_555
Re1 Y10 2.775059 1_555
Re1 Y7 2.775059 1_555
Re1 Y9 2.775059 1_555
Re1 Y6 2.775059 1_555
Hg0 Y0 3.127806 1_655
Hg0 Y1 3.127806 1_655
Hg0 Y15 3.131259 1_555
Hg0 Y16 3.131259 1_555
Hg0 Y5 3.395379 1_555
Hg0 Y8 3.395379 1_554
Hg0 Y3 3.546257 1_655
Hg0 Y12 3.546257 1_655
Hg0 Y4 3.546257 1_545
Hg0 Y13 3.546257 1_545
Hg1 Y0 3.127801 1_665
Hg1 Y1 3.127801 1_665
Hg1 Y14 3.131263 1_555
Hg1 Y16 3.131268 1_555
Hg1 Y6 3.395387 1_555
Hg1 Y9 3.395387 1_554
Hg1 Y4 3.546256 1_555
Hg1 Y13 3.546256 1_555
Hg1 Y2 3.546257 1_655
Hg1 Y11 3.546257 1_655
Hg2 Y1 3.127801 1_555
Hg2 Y0 3.127801 1_555
Hg2 Y14 3.131263 1_555
Hg2 Y15 3.131268 1_555
Hg2 Y7 3.395387 1_555
Hg2 Y10 3.395387 1_554
Hg2 Y3 3.546257 1_555
Hg2 Y12 3.546257 1_555
Hg2 Y2 3.546257 1_545
Hg2 Y11 3.546257 1_545
Hg3 Y0 3.127806 1_565
Hg3 Y1 3.127806 1_566
Hg3 Y18 3.131259 1_555
Hg3 Y19 3.131259 1_555
Hg3 Y11 3.395379 1_556
Hg3 Y2 3.395379 1_555
Hg3 Y9 3.546257 1_455
Hg3 Y6 3.546257 1_455
Hg3 Y10 3.546257 1_565
Hg3 Y7 3.546257 1_565
Hg4 Y0 3.127801 1_555
Hg4 Y1 3.127801 1_556
Hg4 Y17 3.131263 1_555
Hg4 Y19 3.131268 1_555
Hg4 Y12 3.395387 1_556
Hg4 Y3 3.395387 1_555
Hg4 Y10 3.546256 1_555
Hg4 Y7 3.546256 1_555
Hg4 Y8 3.546257 1_455
Hg4 Y5 3.546257 1_455
Hg5 Y1 3.127801 1_666
Hg5 Y0 3.127801 1_665
Hg5 Y17 3.131263 1_555
Hg5 Y18 3.131268 1_555
Hg5 Y13 3.395387 1_556
Hg5 Y4 3.395387 1_555
Hg5 Y9 3.546257 1_555
Hg5 Y6 3.546257 1_555
Hg5 Y8 3.546257 1_565
Hg5 Y5 3.546257 1_565
