# generated using pymatgen
data_Sr4Sc7CrSe16
_symmetry_space_group_name_H-M   'P 1'
_cell_length_a   3.94726513
_cell_length_b   12.20025793
_cell_length_c   14.26311067
_cell_angle_alpha   89.85797713
_cell_angle_beta   90.00000000
_cell_angle_gamma   90.00000000
_symmetry_Int_Tables_number   1
_chemical_formula_structural   Sr4Sc7CrSe16
_chemical_formula_sum   'Sr4 Sc7 Cr1 Se16'
_cell_volume   686.87581979
_cell_formula_units_Z   1
loop_
 _symmetry_equiv_pos_site_id
 _symmetry_equiv_pos_as_xyz
  1  'x, y, z'
loop_
 _atom_site_type_symbol
 _atom_site_label
 _atom_site_symmetry_multiplicity
 _atom_site_fract_x
 _atom_site_fract_y
 _atom_site_fract_z
 _atom_site_occupancy
  Sr  Sr0  1  0.25000000  0.75979254  0.33196763  1
  Sr  Sr1  1  0.25000000  0.26108327  0.17117729  1
  Sr  Sr2  1  0.75000000  0.23540530  0.66420667  1
  Sr  Sr3  1  0.75000000  0.73983175  0.83098249  1
  Sc  Sc0  1  0.25000000  0.43765458  0.39135930  1
  Sc  Sc1  1  0.25000000  0.94427445  0.11469550  1
  Sc  Sc2  1  0.75000000  0.55767883  0.61038299  1
  Sc  Sc3  1  0.75000000  0.05859060  0.89057327  1
  Sc  Sc4  1  0.25000000  0.41838006  0.90316389  1
  Sc  Sc5  1  0.25000000  0.92041713  0.59372372  1
  Sc  Sc6  1  0.75000000  0.58101687  0.09773690  1
  Cr  Cr0  1  0.75000000  0.08078305  0.40217761  1
  Se  Se0  1  0.25000000  0.20359966  0.83904712  1
  Se  Se1  1  0.25000000  0.70487510  0.65690112  1
  Se  Se2  1  0.75000000  0.79719268  0.16108112  1
  Se  Se3  1  0.75000000  0.28969788  0.34424294  1
  Se  Se4  1  0.25000000  0.12090455  0.51754717  1
  Se  Se5  1  0.25000000  0.62467502  0.97214050  1
  Se  Se6  1  0.75000000  0.88428029  0.46490981  1
  Se  Se7  1  0.75000000  0.37569414  0.02890747  1
  Se  Se8  1  0.25000000  0.03358211  0.29179447  1
  Se  Se9  1  0.25000000  0.52656719  0.21654429  1
  Se  Se10  1  0.75000000  0.97342565  0.71333072  1
  Se  Se11  1  0.75000000  0.47187035  0.78479227  1
  Se  Se12  1  0.25000000  0.40960838  0.57645938  1
  Se  Se13  1  0.25000000  0.91173596  0.92764423  1
  Se  Se14  1  0.75000000  0.58739065  0.42544017  1
  Se  Se15  1  0.75000000  0.08999193  0.07706897  1
loop_
_geom_bond_atom_site_label_1
_geom_bond_atom_site_label_2
_geom_bond_distance
_geom_bond_site_symmetry_2
Sc0 Se12 2.661343 1_555
Sc0 Se9 2.716682 1_555
Sc0 Se14 2.733713 1_455
Sc0 Se14 2.733713 1_555
Sc0 Se3 2.758855 1_555
Sc0 Se3 2.758855 1_455
Sc1 Se13 2.698279 1_554
Sc1 Se15 2.709068 1_565
Sc1 Se15 2.709068 1_465
Sc1 Se2 2.747191 1_455
Sc1 Se2 2.747191 1_555
Sc1 Se8 2.753436 1_565
Sc2 Se14 2.661760 1_555
Sc2 Se11 2.696536 1_555
Sc2 Se12 2.719763 1_555
Sc2 Se12 2.719763 1_655
Sc2 Se1 2.750704 1_555
Sc2 Se1 2.750704 1_655
Sc3 Se15 2.688395 1_556
Sc3 Se13 2.716646 1_645
Sc3 Se13 2.716646 1_545
Sc3 Se10 2.735608 1_545
Sc3 Se0 2.749323 1_555
Sc3 Se0 2.749323 1_655
Sc4 Se11 2.676969 1_555
Sc4 Se11 2.676969 1_455
Sc4 Se5 2.704574 1_555
Sc4 Se7 2.716326 1_456
Sc4 Se7 2.716326 1_556
Sc4 Se0 2.777512 1_555
Sc5 Se4 2.673994 1_565
Sc5 Se10 2.688729 1_455
Sc5 Se10 2.688729 1_555
Sc5 Se6 2.732991 1_555
Sc5 Se6 2.732991 1_455
Sc5 Se1 2.777661 1_555
Sc6 Se9 2.683744 1_555
Sc6 Se9 2.683744 1_655
Sc6 Se7 2.692758 1_555
Sc6 Se5 2.717223 1_654
Sc6 Se5 2.717223 1_554
Sc6 Se2 2.789979 1_555
Cr0 Se6 2.556835 1_545
Cr0 Se8 2.590385 1_655
Cr0 Se8 2.590385 1_555
Cr0 Se4 2.616598 1_555
Cr0 Se4 2.616598 1_655
Cr0 Se3 2.677468 1_555
Se0 Sr2 3.203105 1_455
Se0 Sr2 3.203105 1_555
Se1 Sr3 3.201150 1_555
Se1 Sr3 3.201150 1_455
Se2 Sr0 3.168391 1_555
Se2 Sr0 3.168391 1_655
Se3 Sr1 3.180352 1_555
Se3 Sr1 3.180352 1_655
Se4 Sr2 3.199510 1_555
Se4 Sr2 3.199510 1_455
Se5 Sr3 3.147801 1_455
Se5 Sr3 3.147801 1_555
Se6 Sr0 3.132357 1_555
Se6 Sr0 3.132357 1_655
Se7 Sr1 3.155003 1_655
Se7 Sr1 3.155003 1_555
Se8 Sr1 3.261875 1_555
Se8 Sr0 3.387692 1_545
Se9 Sr0 3.290876 1_555
Se9 Sr1 3.304548 1_555
Se10 Sr2 3.270419 1_565
Se10 Sr3 3.303666 1_555
Se11 Sr3 3.336521 1_555
Se11 Sr2 3.362379 1_555
Se12 Sr2 3.156804 1_455
Se12 Sr2 3.156804 1_555
Se13 Sr3 3.195142 1_455
Se13 Sr3 3.195142 1_555
Se14 Sr0 3.175349 1_655
Se14 Sr0 3.175349 1_555
Se15 Sr1 3.172994 1_655
Se15 Sr1 3.172994 1_555
