# generated using pymatgen
data_Fe4Si2W6C
_symmetry_space_group_name_H-M   'P 1'
_cell_length_a   7.76023155
_cell_length_b   7.76023080
_cell_length_c   7.76023037
_cell_angle_alpha   59.99999757
_cell_angle_beta   60.00000078
_cell_angle_gamma   59.99999731
_symmetry_Int_Tables_number   1
_chemical_formula_structural   Fe4Si2W6C
_chemical_formula_sum   'Fe8 Si4 W12 C2'
_cell_volume   330.45240711
_cell_formula_units_Z   2
loop_
 _symmetry_equiv_pos_site_id
 _symmetry_equiv_pos_as_xyz
  1  'x, y, z'
loop_
 _atom_site_type_symbol
 _atom_site_label
 _atom_site_symmetry_multiplicity
 _atom_site_fract_x
 _atom_site_fract_y
 _atom_site_fract_z
 _atom_site_occupancy
  Fe  Fe0  1  0.91882309  0.24353172  0.91882309  1
  Fe  Fe1  1  0.33117691  0.00646828  0.33117691  1
  Fe  Fe2  1  0.33117691  0.33117691  0.33117691  1
  Fe  Fe3  1  0.00646828  0.33117691  0.33117691  1
  Fe  Fe4  1  0.91882309  0.91882309  0.24353172  1
  Fe  Fe5  1  0.24353172  0.91882309  0.91882309  1
  Fe  Fe6  1  0.33117691  0.33117691  0.00646828  1
  Fe  Fe7  1  0.91882309  0.91882309  0.91882309  1
  Si  Si0  1  0.12500000  0.12500000  0.62500000  1
  Si  Si1  1  0.12500000  0.62500000  0.12500000  1
  Si  Si2  1  0.12500000  0.12500000  0.12500000  1
  Si  Si3  1  0.62500000  0.12500000  0.12500000  1
  W  W0  1  0.30501299  0.69498701  0.69498701  1
  W  W1  1  0.30501299  0.30501299  0.69498701  1
  W  W2  1  0.55501299  0.94498701  0.55501299  1
  W  W3  1  0.94498701  0.55501299  0.55501299  1
  W  W4  1  0.55501299  0.94498701  0.94498701  1
  W  W5  1  0.69498701  0.30501299  0.30501299  1
  W  W6  1  0.94498701  0.55501299  0.94498701  1
  W  W7  1  0.30501299  0.69498701  0.30501299  1
  W  W8  1  0.55501299  0.55501299  0.94498701  1
  W  W9  1  0.69498701  0.30501299  0.69498701  1
  W  W10  1  0.69498701  0.69498701  0.30501299  1
  W  W11  1  0.94498701  0.94498701  0.55501299  1
  C  C0  1  0.75000000  0.75000000  0.75000000  1
  C  C1  1  0.50000000  0.50000000  0.50000000  1
loop_
_geom_bond_atom_site_label_1
_geom_bond_atom_site_label_2
_geom_bond_distance
_geom_bond_site_symmetry_2
Fe0 Si2 2.362726 1_656
Fe0 Si0 2.362732 1_655
Fe0 Si3 2.362733 1_556
Fe0 Fe4 2.519814 1_546
Fe0 Fe7 2.519814 1_545
Fe0 Fe5 2.519814 1_645
Fe0 W6 2.635891 1_555
Fe0 W3 2.635895 1_555
Fe0 W8 2.635895 1_555
Fe0 W5 2.760763 1_556
Fe0 W1 2.760763 1_655
Fe0 W9 2.760770 1_555
Fe1 Si2 2.362726 1_555
Fe1 Si0 2.362732 1_555
Fe1 Si3 2.362733 1_555
Fe1 Fe6 2.519814 1_555
Fe1 Fe2 2.519814 1_555
Fe1 Fe3 2.519814 1_555
Fe1 W7 2.635891 1_545
Fe1 W0 2.635895 1_545
Fe1 W10 2.635895 1_545
Fe1 W4 2.760763 1_544
Fe1 W11 2.760763 1_445
Fe1 W2 2.760770 1_545
Fe2 Si1 2.362728 1_555
Fe2 Si3 2.362728 1_555
Fe2 Si0 2.362728 1_555
Fe2 Fe6 2.519814 1_555
Fe2 Fe3 2.519814 1_555
Fe2 W1 2.635898 1_555
Fe2 W7 2.635899 1_555
Fe2 W5 2.635899 1_555
Fe2 W2 2.760766 1_545
Fe2 W8 2.760766 1_554
Fe2 W3 2.760766 1_455
Fe3 Si2 2.362726 1_555
Fe3 Si0 2.362732 1_555
Fe3 Si1 2.362732 1_555
Fe3 Fe6 2.519814 1_555
Fe3 W5 2.635891 1_455
Fe3 W10 2.635895 1_455
Fe3 W9 2.635895 1_455
Fe3 W6 2.760763 1_454
Fe3 W11 2.760763 1_445
Fe3 W3 2.760770 1_455
Fe4 Si2 2.362726 1_665
Fe4 Si1 2.362732 1_655
Fe4 Si3 2.362732 1_565
Fe4 Fe7 2.519814 1_554
Fe4 Fe5 2.519814 1_654
Fe4 W11 2.635891 1_555
Fe4 W3 2.635895 1_555
Fe4 W2 2.635896 1_555
Fe4 W5 2.760763 1_565
Fe4 W7 2.760763 1_655
Fe4 W10 2.760770 1_555
Fe5 Si2 2.362726 1_566
Fe5 Si0 2.362732 1_565
Fe5 Si1 2.362732 1_556
Fe5 Fe7 2.519814 1_455
Fe5 W4 2.635891 1_555
Fe5 W8 2.635895 1_555
Fe5 W2 2.635895 1_555
Fe5 W7 2.760763 1_556
Fe5 W1 2.760763 1_565
Fe5 W0 2.760770 1_555
Fe6 Si2 2.362726 1_555
Fe6 Si1 2.362732 1_555
Fe6 Si3 2.362732 1_555
Fe6 W1 2.635891 1_554
Fe6 W0 2.635895 1_554
Fe6 W9 2.635896 1_554
Fe6 W4 2.760763 1_544
Fe6 W6 2.760763 1_454
Fe6 W8 2.760770 1_554
Fe7 Si1 2.362728 1_656
Fe7 Si3 2.362728 1_566
Fe7 Si0 2.362728 1_665
Fe7 W11 2.635898 1_555
Fe7 W6 2.635899 1_555
Fe7 W4 2.635899 1_555
Fe7 W9 2.760766 1_565
Fe7 W10 2.760766 1_556
Fe7 W0 2.760766 1_655
Si0 W3 2.768884 1_455
Si0 W0 2.768884 1_545
Si0 W1 2.768884 1_555
Si0 W11 2.768884 1_445
Si0 W2 2.768884 1_545
Si0 W9 2.768884 1_455
Si1 W3 2.768884 1_455
Si1 W0 2.768884 1_554
Si1 W7 2.768884 1_555
Si1 W6 2.768884 1_454
Si1 W8 2.768884 1_554
Si1 W10 2.768884 1_455
Si2 W6 2.768884 1_454
Si2 W7 2.768884 1_545
Si2 W11 2.768884 1_445
Si2 W1 2.768884 1_554
Si2 W4 2.768884 1_544
Si2 W5 2.768884 1_455
Si3 W2 2.768884 1_545
Si3 W9 2.768884 1_554
Si3 W8 2.768884 1_554
Si3 W10 2.768884 1_545
Si3 W5 2.768884 1_555
Si3 W4 2.768884 1_544
C0 W6 2.139909 1_555
C0 W4 2.139909 1_555
C0 W3 2.139909 1_555
C0 W2 2.139909 1_555
C0 W11 2.139909 1_555
C0 W8 2.139909 1_555
C1 W9 2.139909 1_555
C1 W0 2.139909 1_555
C1 W7 2.139909 1_555
C1 W5 2.139909 1_555
C1 W10 2.139909 1_555
C1 W1 2.139909 1_555
