# generated using pymatgen
data_Y3B6Ru3Rh5
_symmetry_space_group_name_H-M   'P 1'
_cell_length_a   9.90095419
_cell_length_b   9.11000486
_cell_length_c   5.51433160
_cell_angle_alpha   81.19973850
_cell_angle_beta   65.40629660
_cell_angle_gamma   33.10972425
_symmetry_Int_Tables_number   1
_chemical_formula_structural   Y3B6Ru3Rh5
_chemical_formula_sum   'Y3 B6 Ru3 Rh5'
_cell_volume   227.07800509
_cell_formula_units_Z   1
loop_
 _symmetry_equiv_pos_site_id
 _symmetry_equiv_pos_as_xyz
  1  'x, y, z'
loop_
 _atom_site_type_symbol
 _atom_site_label
 _atom_site_symmetry_multiplicity
 _atom_site_fract_x
 _atom_site_fract_y
 _atom_site_fract_z
 _atom_site_occupancy
  Y  Y0  1  0.99951146  0.99951146  0.00048854  1
  Y  Y1  1  0.18142228  0.18142228  0.81857772  1
  Y  Y2  1  0.81979814  0.81979814  0.18020186  1
  B  B0  1  0.82879375  0.52071350  0.48347695  1
  B  B1  1  0.17343860  0.47839711  0.51030365  1
  B  B2  1  0.47839711  0.17343860  0.83786064  1
  B  B3  1  0.66757379  0.33132316  0.67631003  1
  B  B4  1  0.52071350  0.82879375  0.16701479  1
  B  B5  1  0.33132316  0.66757379  0.32479302  1
  Ru  Ru0  1  0.24881196  0.24881196  0.25118804  1
  Ru  Ru1  1  0.41436573  0.41436573  0.08563427  1
  Ru  Ru2  1  0.75031384  0.75031384  0.74968616  1
  Rh  Rh0  1  0.41526939  0.41526939  0.58473061  1
  Rh  Rh1  1  0.58574310  0.58574310  0.91425690  1
  Rh  Rh2  1  0.08484679  0.08484679  0.41515321  1
  Rh  Rh3  1  0.91430088  0.91430088  0.58569912  1
  Rh  Rh4  1  0.58537752  0.58537752  0.41462248  1
loop_
_geom_bond_atom_site_label_1
_geom_bond_atom_site_label_2
_geom_bond_distance
_geom_bond_site_symmetry_2
Y0 Y2 3.121622 1_555
Y0 Y1 3.159793 1_664
B0 Ru0 2.085807 1_655
B0 Ru2 2.097873 1_555
B0 Rh4 2.148104 1_555
B0 Rh1 2.251428 1_555
B0 Rh2 2.265974 1_655
B0 Y2 2.924331 1_555
B0 Y1 3.104917 1_565
B0 Y1 3.149685 1_654
B1 Ru0 2.094053 1_555
B1 Ru2 2.107531 1_455
B1 Rh0 2.161261 1_555
B1 Ru1 2.225218 1_555
B1 Rh3 2.252546 1_455
B1 Y1 2.926051 1_555
B1 Y2 3.096435 1_545
B1 Y2 3.175676 1_456
B1 Y2 3.252040 1_455
B2 Ru0 2.094053 1_556
B2 Ru2 2.107531 1_545
B2 Rh0 2.161261 1_555
B2 Ru1 2.225218 1_556
B2 Rh3 2.252545 1_545
B2 Y1 2.926051 1_555
B2 Y2 3.096435 1_456
B2 Y2 3.175676 1_545
B2 Y2 3.252040 1_546
B3 Ru1 2.141786 1_556
B3 Rh1 2.156366 1_555
B3 Rh3 2.160494 1_545
B3 Rh2 2.163477 1_655
B3 Rh0 2.193543 1_555
B3 Rh4 2.213921 1_555
B3 Y0 3.118988 1_546
B3 Y0 3.168071 1_456
B3 Y0 3.230533 1_545
B4 Ru0 2.085808 1_565
B4 Ru2 2.097869 1_554
B4 Rh4 2.148108 1_555
B4 Rh1 2.251425 1_554
B4 Rh2 2.265973 1_565
B4 Y2 2.924333 1_555
B4 Y1 3.104916 1_654
B4 Y1 3.149689 1_565
B5 Ru1 2.141787 1_555
B5 Rh1 2.156365 1_554
B5 Rh3 2.160493 1_455
B5 Rh2 2.163478 1_565
B5 Rh0 2.193543 1_555
B5 Rh4 2.213921 1_555
B5 Y0 3.118988 1_455
B5 Y0 3.168071 1_545
B5 Y0 3.230533 1_456
Ru0 Y1 2.995358 1_554
Ru0 Y1 2.995358 1_555
Ru0 Y2 2.999941 1_545
Ru0 Y2 2.999942 1_455
Ru1 Y0 3.109127 1_545
Ru1 Y0 3.109127 1_455
Ru1 Y2 3.190227 1_455
Ru1 Y2 3.190227 1_545
Ru2 Y1 2.985171 1_565
Ru2 Y1 2.985171 1_655
Ru2 Y2 3.009763 1_556
Ru2 Y2 3.009763 1_555
Rh0 Y0 3.115138 1_545
Rh0 Y0 3.115139 1_456
Rh0 Y2 3.211380 1_456
Rh0 Y2 3.211380 1_545
Rh1 Y0 3.118143 1_456
Rh1 Y0 3.118144 1_546
Rh1 Y1 3.200211 1_655
Rh1 Y1 3.200212 1_565
Rh2 Y0 3.130352 1_445
Rh2 Y0 3.130352 1_446
Rh2 Y1 3.227387 1_555
Rh2 Y1 3.227387 1_554
Rh3 Y0 3.129326 1_556
Rh3 Y0 3.129327 1_555
Rh3 Y2 3.208820 1_555
Rh3 Y2 3.208821 1_556
Rh4 Y0 3.128488 1_456
Rh4 Y0 3.128488 1_545
Rh4 Y1 3.216536 1_654
Rh4 Y1 3.216536 1_565
