# generated using pymatgen
data_Sr3Mn2Ir7
_symmetry_space_group_name_H-M   'P 1'
_cell_length_a   9.05098841
_cell_length_b   9.05098772
_cell_length_c   9.05098793
_cell_angle_alpha   35.28066644
_cell_angle_beta   35.28067349
_cell_angle_gamma   35.28067749
_symmetry_Int_Tables_number   1
_chemical_formula_structural   Sr3Mn2Ir7
_chemical_formula_sum   'Sr3 Mn2 Ir7'
_cell_volume   220.96228205
_cell_formula_units_Z   1
loop_
 _symmetry_equiv_pos_site_id
 _symmetry_equiv_pos_as_xyz
  1  'x, y, z'
loop_
 _atom_site_type_symbol
 _atom_site_label
 _atom_site_symmetry_multiplicity
 _atom_site_fract_x
 _atom_site_fract_y
 _atom_site_fract_z
 _atom_site_occupancy
  Sr  Sr0  1  0.85946519  0.85946519  0.85946519  1
  Sr  Sr1  1  0.14053481  0.14053481  0.14053481  1
  Sr  Sr2  1  0.00000000  0.00000000  0.00000000  1
  Mn  Mn0  1  0.66463890  0.66463890  0.66463890  1
  Mn  Mn1  1  0.33536110  0.33536110  0.33536110  1
  Ir  Ir0  1  0.41676231  0.92439426  0.41676231  1
  Ir  Ir1  1  0.41676231  0.41676231  0.92439426  1
  Ir  Ir2  1  0.92439426  0.41676231  0.41676231  1
  Ir  Ir3  1  0.58323769  0.07560574  0.58323769  1
  Ir  Ir4  1  0.58323769  0.58323769  0.07560574  1
  Ir  Ir5  1  0.07560574  0.58323769  0.58323769  1
  Ir  Ir6  1  0.50000000  0.50000000  0.50000000  1
loop_
_geom_bond_atom_site_label_1
_geom_bond_atom_site_label_2
_geom_bond_distance
_geom_bond_site_symmetry_2
Sr0 Sr1 3.434827 1_665
Sr0 Sr1 3.434827 1_656
Sr0 Sr1 3.434828 1_566
Sr0 Sr2 3.574690 1_666
Sr1 Sr2 3.574690 1_555
Mn0 Sr2 3.167554 1_665
Mn0 Sr2 3.167555 1_656
Mn0 Sr2 3.167555 1_566
Mn1 Sr2 3.167554 1_556
Mn1 Sr2 3.167555 1_565
Mn1 Sr2 3.167555 1_655
Ir0 Mn0 2.566849 1_555
Ir0 Mn1 2.618985 1_565
Ir0 Ir1 2.700953 1_564
Ir0 Ir2 2.700953 1_465
Ir0 Ir6 2.714236 1_555
Ir0 Ir1 2.784685 1_555
Ir0 Ir2 2.784686 1_555
Ir0 Sr0 3.136964 1_554
Ir0 Sr0 3.136965 1_455
Ir0 Sr1 3.250072 1_565
Ir0 Sr2 3.425874 1_566
Ir0 Sr2 3.425874 1_665
Ir1 Mn0 2.566849 1_555
Ir1 Mn1 2.618985 1_556
Ir1 Ir2 2.700953 1_456
Ir1 Ir6 2.714236 1_555
Ir1 Ir2 2.784685 1_555
Ir1 Sr0 3.136965 1_545
Ir1 Sr0 3.136965 1_455
Ir1 Sr1 3.250072 1_556
Ir1 Sr2 3.425874 1_566
Ir1 Sr2 3.425874 1_656
Ir2 Mn0 2.566849 1_555
Ir2 Mn1 2.618985 1_655
Ir2 Ir6 2.714236 1_555
Ir2 Sr0 3.136964 1_545
Ir2 Sr0 3.136964 1_554
Ir2 Sr1 3.250072 1_655
Ir2 Sr2 3.425873 1_665
Ir2 Sr2 3.425873 1_656
Ir3 Mn1 2.566849 1_555
Ir3 Mn0 2.618985 1_545
Ir3 Ir4 2.700953 1_546
Ir3 Ir5 2.700953 1_645
Ir3 Ir6 2.714236 1_555
Ir3 Ir4 2.784685 1_555
Ir3 Ir5 2.784686 1_555
Ir3 Sr1 3.136964 1_556
Ir3 Sr1 3.136965 1_655
Ir3 Sr0 3.250072 1_545
Ir3 Sr2 3.425874 1_655
Ir3 Sr2 3.425874 1_556
Ir4 Mn1 2.566849 1_555
Ir4 Mn0 2.618985 1_554
Ir4 Ir5 2.700953 1_654
Ir4 Ir6 2.714236 1_555
Ir4 Ir5 2.784685 1_555
Ir4 Sr1 3.136965 1_565
Ir4 Sr1 3.136965 1_655
Ir4 Sr0 3.250072 1_554
Ir4 Sr2 3.425874 1_655
Ir4 Sr2 3.425874 1_565
Ir5 Mn1 2.566849 1_555
Ir5 Mn0 2.618985 1_455
Ir5 Ir6 2.714236 1_555
Ir5 Sr1 3.136964 1_565
Ir5 Sr1 3.136964 1_556
Ir5 Sr0 3.250072 1_455
Ir5 Sr2 3.425873 1_556
Ir5 Sr2 3.425873 1_565
Ir6 Sr1 3.236134 1_556
Ir6 Sr0 3.236134 1_554
Ir6 Sr0 3.236134 1_545
Ir6 Sr1 3.236134 1_565
Ir6 Sr1 3.236135 1_655
Ir6 Sr0 3.236135 1_455
