# generated using pymatgen
data_CaMo5O8
_symmetry_space_group_name_H-M   'P 1'
_cell_length_a   8.45788283
_cell_length_b   9.49058500
_cell_length_c   10.74275059
_cell_angle_alpha   90.00000000
_cell_angle_beta   108.82081221
_cell_angle_gamma   90.00000000
_symmetry_Int_Tables_number   1
_chemical_formula_structural   CaMo5O8
_chemical_formula_sum   'Ca4 Mo20 O32'
_cell_volume   816.21675340
_cell_formula_units_Z   4
loop_
 _symmetry_equiv_pos_site_id
 _symmetry_equiv_pos_as_xyz
  1  'x, y, z'
loop_
 _atom_site_type_symbol
 _atom_site_label
 _atom_site_symmetry_multiplicity
 _atom_site_fract_x
 _atom_site_fract_y
 _atom_site_fract_z
 _atom_site_occupancy
  Ca  Ca0  1  0.32328100  0.51758500  0.53682900  1
  Ca  Ca1  1  0.67671800  0.01758500  0.96317000  1
  Ca  Ca2  1  0.67671800  0.48241400  0.46317100  1
  Ca  Ca3  1  0.32328200  0.98241500  0.03683000  1
  Mo  Mo0  1  0.40833100  0.63442600  0.19720800  1
  Mo  Mo1  1  0.20742300  0.13767700  0.71988000  1
  Mo  Mo2  1  0.20742300  0.36232200  0.21988000  1
  Mo  Mo3  1  0.79257700  0.86232300  0.28012000  1
  Mo  Mo4  1  0.20492400  0.62482200  0.87879400  1
  Mo  Mo5  1  0.79507500  0.12482300  0.62120700  1
  Mo  Mo6  1  0.79507600  0.37517800  0.12120600  1
  Mo  Mo7  1  0.20492400  0.87517700  0.37879300  1
  Mo  Mo8  1  0.79257700  0.63767700  0.78012000  1
  Mo  Mo9  1  0.59166900  0.13442500  0.30279200  1
  Mo  Mo10  1  0.59167000  0.36557400  0.80279200  1
  Mo  Mo11  1  0.40833100  0.86557400  0.69720800  1
  Mo  Mo12  1  0.60697200  0.64690100  0.98636500  1
  Mo  Mo13  1  0.39302800  0.14690000  0.51363500  1
  Mo  Mo14  1  0.39302800  0.35310000  0.01363500  1
  Mo  Mo15  1  0.60697200  0.85309900  0.48636500  1
  Mo  Mo16  1  0.00947100  0.84764800  0.59283400  1
  Mo  Mo17  1  0.99052900  0.34764800  0.90716700  1
  Mo  Mo18  1  0.99052900  0.15235200  0.40716600  1
  Mo  Mo19  1  0.00947100  0.65235200  0.09283300  1
  O  O0  1  0.41818200  0.50270300  0.86543800  1
  O  O1  1  0.58181700  0.00270200  0.63456100  1
  O  O2  1  0.58181800  0.49729800  0.13456100  1
  O  O3  1  0.41818200  0.99729700  0.36543900  1
  O  O4  1  0.62487400  0.72095900  0.33256600  1
  O  O5  1  0.37512700  0.22095900  0.16743500  1
  O  O6  1  0.37512700  0.27904100  0.66743400  1
  O  O7  1  0.62487400  0.77904100  0.83256500  1
  O  O8  1  0.20465200  0.73098300  0.70636700  1
  O  O9  1  0.79534700  0.23098400  0.79363300  1
  O  O10  1  0.79534700  0.26901600  0.29363300  1
  O  O11  1  0.20465200  0.76901700  0.20636700  1
  O  O12  1  0.81314600  0.73063200  0.60874300  1
  O  O13  1  0.18685500  0.23063300  0.89125700  1
  O  O14  1  0.18685500  0.26936800  0.39125700  1
  O  O15  1  0.81314500  0.76936800  0.10874300  1
  O  O16  1  0.39789800  0.75379500  0.51728500  1
  O  O17  1  0.60210200  0.25379500  0.98271500  1
  O  O18  1  0.60210200  0.24620500  0.48271500  1
  O  O19  1  0.39789800  0.74620500  0.01728500  1
  O  O20  1  0.99301800  0.49435800  0.77975000  1
  O  O21  1  0.00698300  0.99435800  0.72025000  1
  O  O22  1  0.00698100  0.50564100  0.22025000  1
  O  O23  1  0.99301800  0.00564200  0.27975100  1
  O  O24  1  0.39644900  0.00708800  0.84736900  1
  O  O25  1  0.60355100  0.50708700  0.65263000  1
  O  O26  1  0.60355100  0.99291300  0.15263100  1
  O  O27  1  0.39644900  0.49291300  0.34737000  1
  O  O28  1  0.00910200  0.76535200  0.42386100  1
  O  O29  1  0.99089900  0.23464800  0.57614000  1
  O  O30  1  0.99089800  0.26535200  0.07613900  1
  O  O31  1  0.00910200  0.73464800  0.92386000  1
loop_
_geom_bond_atom_site_label_1
_geom_bond_atom_site_label_2
_geom_bond_distance
_geom_bond_site_symmetry_2
Ca0 O25 2.296525 1_555
Ca0 O27 2.322277 1_555
Ca0 O16 2.356566 1_555
Ca0 O6 2.624734 1_555
Ca0 O14 2.856954 1_555
Ca0 O8 3.099139 1_555
Ca1 O24 2.296518 1_555
Ca1 O26 2.322293 1_546
Ca1 O17 2.356565 1_555
Ca1 O7 2.624734 1_545
Ca1 O15 2.856961 1_546
Ca1 O9 3.099138 1_555
Ca2 O27 2.296519 1_555
Ca2 O25 2.322273 1_555
Ca2 O18 2.356554 1_555
Ca2 O4 2.624742 1_555
Ca2 O12 2.856966 1_555
Ca2 O10 3.099139 1_555
Ca3 O26 2.296518 1_555
Ca3 O24 2.322294 1_564
Ca3 O19 2.356565 1_555
Ca3 O5 2.624734 1_565
Ca3 O13 2.856969 1_564
Ca3 O11 3.099136 1_555
Mo0 O4 2.103551 1_555
Mo0 O27 2.126199 1_555
Mo0 O11 2.172173 1_555
Mo0 O19 2.181540 1_555
Mo0 O2 2.221906 1_555
Mo1 O13 2.098738 1_555
Mo1 O24 2.134250 1_555
Mo1 O6 2.155214 1_555
Mo1 O21 2.174510 1_545
Mo1 O29 2.181879 1_455
Mo2 O14 2.098730 1_555
Mo2 O27 2.134266 1_555
Mo2 O5 2.155203 1_555
Mo2 O22 2.174523 1_555
Mo2 O30 2.181885 1_455
Mo3 O15 2.098734 1_555
Mo3 O26 2.134256 1_555
Mo3 O4 2.155208 1_555
Mo3 O23 2.174513 1_565
Mo3 O28 2.181889 1_655
Mo4 O8 2.107970 1_555
Mo4 O31 2.140395 1_555
Mo4 O19 2.153536 1_556
Mo4 O20 2.155695 1_455
Mo4 O0 2.187276 1_555
Mo5 O9 2.107960 1_555
Mo5 O29 2.140410 1_555
Mo5 O18 2.153531 1_555
Mo5 O21 2.155710 1_645
Mo5 O1 2.187279 1_555
Mo6 O10 2.107977 1_555
Mo6 O30 2.140401 1_555
Mo6 O17 2.153536 1_554
Mo6 O22 2.155684 1_655
Mo6 O2 2.187278 1_555
Mo7 O11 2.107956 1_555
Mo7 O28 2.140401 1_555
Mo7 O16 2.153536 1_555
Mo7 O23 2.155696 1_465
Mo7 O3 2.187274 1_555
Mo8 O12 2.098737 1_555
Mo8 O25 2.134260 1_555
Mo8 O7 2.155203 1_555
Mo8 O20 2.174516 1_555
Mo8 O31 2.181885 1_655
Mo9 O5 2.103545 1_555
Mo9 O26 2.126185 1_545
Mo9 O10 2.172166 1_555
Mo9 O18 2.181544 1_555
Mo9 O3 2.221906 1_545
Mo10 O6 2.103551 1_555
Mo10 O25 2.126196 1_555
Mo10 O9 2.172153 1_555
Mo10 O17 2.181542 1_555
Mo10 O0 2.221913 1_555
Mo11 O7 2.103547 1_555
Mo11 O24 2.126197 1_565
Mo11 O8 2.172173 1_555
Mo11 O16 2.181540 1_555
Mo11 O1 2.221900 1_565
Mo12 O7 2.118243 1_555
Mo12 O19 2.122382 1_556
Mo12 O15 2.154274 1_556
Mo12 O0 2.184431 1_555
Mo12 O2 2.194142 1_556
Mo13 O6 2.118237 1_555
Mo13 O18 2.122386 1_555
Mo13 O14 2.154279 1_555
Mo13 O1 2.184423 1_555
Mo13 O3 2.194142 1_545
Mo14 O5 2.118246 1_555
Mo14 O17 2.122386 1_554
Mo14 O13 2.154274 1_554
Mo14 O2 2.184427 1_555
Mo14 O0 2.194150 1_554
Mo15 O4 2.118234 1_555
Mo15 O16 2.122382 1_555
Mo15 O12 2.154279 1_555
Mo15 O3 2.184427 1_555
Mo15 O1 2.194144 1_565
Mo16 O21 1.957374 1_555
Mo16 O28 1.975209 1_555
Mo16 O8 2.034599 1_555
Mo16 O12 2.050092 1_455
Mo17 O20 1.957384 1_555
Mo17 O30 1.975199 1_556
Mo17 O9 2.034603 1_555
Mo17 O13 2.050098 1_655
Mo18 O23 1.957369 1_555
Mo18 O29 1.975216 1_555
Mo18 O10 2.034599 1_555
Mo18 O14 2.050099 1_655
Mo19 O22 1.957392 1_555
Mo19 O31 1.975209 1_554
Mo19 O11 2.034602 1_555
Mo19 O15 2.050103 1_455
