# generated using pymatgen
data_RbFeTcAs2
_symmetry_space_group_name_H-M   'P 1'
_cell_length_a   8.07732175
_cell_length_b   8.07732199
_cell_length_c   8.07732184
_cell_angle_alpha   152.66819723
_cell_angle_beta   152.66819609
_cell_angle_gamma   39.03830781
_symmetry_Int_Tables_number   1
_chemical_formula_structural   RbFeTcAs2
_chemical_formula_sum   'Rb1 Fe1 Tc1 As2'
_cell_volume   110.90147709
_cell_formula_units_Z   1
loop_
 _symmetry_equiv_pos_site_id
 _symmetry_equiv_pos_as_xyz
  1  'x, y, z'
loop_
 _atom_site_type_symbol
 _atom_site_label
 _atom_site_symmetry_multiplicity
 _atom_site_fract_x
 _atom_site_fract_y
 _atom_site_fract_z
 _atom_site_occupancy
  Rb  Rb0  1  0.00000000  0.00000000  0.00000000  1
  Fe  Fe0  1  0.25000000  0.75000000  0.50000000  1
  Tc  Tc0  1  0.75000000  0.25000000  0.50000000  1
  As  As0  1  0.35121485  0.35121485  0.00000000  1
  As  As1  1  0.64878515  0.64878515  1.00000000  1
loop_
_geom_bond_atom_site_label_1
_geom_bond_atom_site_label_2
_geom_bond_distance
_geom_bond_site_symmetry_2
Fe0 Tc0 2.698811 1_465
Fe0 Tc0 2.698811 1_555
Fe0 Tc0 2.698811 1_454
Fe0 Tc0 2.698811 1_566
As0 Fe0 2.452925 1_555
As0 Tc0 2.452925 1_454
As0 Fe0 2.452925 1_544
As0 Tc0 2.452925 1_555
As0 Rb0 3.523604 1_655
As0 Rb0 3.523604 1_554
As0 Rb0 3.523604 1_666
As0 Rb0 3.523604 1_565
As1 Tc0 2.452925 1_555
As1 Fe0 2.452925 1_656
As1 Tc0 2.452925 1_566
As1 Fe0 2.452925 1_555
As1 Rb0 3.523604 1_566
As1 Rb0 3.523604 1_667
As1 Rb0 3.523604 1_555
As1 Rb0 3.523604 1_656
