# generated using pymatgen
data_Sr4Mg(Si2Pt)5
_symmetry_space_group_name_H-M   'P 1'
_cell_length_a   8.45247240
_cell_length_b   8.45247228
_cell_length_c   8.45247298
_cell_angle_alpha   138.33909743
_cell_angle_beta   105.54666568
_cell_angle_gamma   89.13394033
_symmetry_Int_Tables_number   1
_chemical_formula_structural   Sr4Mg(Si2Pt)5
_chemical_formula_sum   'Sr4 Mg1 Si10 Pt5'
_cell_volume   370.21493807
_cell_formula_units_Z   1
loop_
 _symmetry_equiv_pos_site_id
 _symmetry_equiv_pos_as_xyz
  1  'x, y, z'
loop_
 _atom_site_type_symbol
 _atom_site_label
 _atom_site_symmetry_multiplicity
 _atom_site_fract_x
 _atom_site_fract_y
 _atom_site_fract_z
 _atom_site_occupancy
  Sr  Sr0  1  0.11142433  0.86913935  0.23211185  1
  Sr  Sr1  1  0.88857567  0.12068751  0.75771502  1
  Sr  Sr2  1  0.63702751  0.37931249  0.26788815  1
  Sr  Sr3  1  0.36297249  0.63086065  0.74228498  1
  Mg  Mg0  1  0.50000000  0.75000000  0.25000000  1
  Si  Si0  1  0.00000000  0.75000000  0.75000000  1
  Si  Si1  1  0.00000000  0.25000000  0.25000000  1
  Si  Si2  1  0.26520217  0.01520217  0.75000000  1
  Si  Si3  1  0.73479783  0.48479783  0.75000000  1
  Si  Si4  1  0.73747036  0.98747036  0.25000000  1
  Si  Si5  1  0.26252964  0.51252964  0.25000000  1
  Si  Si6  1  0.77032120  0.60686668  0.13331181  1
  Si  Si7  1  0.22967880  0.36298961  0.83654449  1
  Si  Si8  1  0.47355587  0.13701039  0.36668819  1
  Si  Si9  1  0.52644413  0.89313332  0.66345551  1
  Pt  Pt0  1  0.50000000  0.25000000  0.75000000  1
  Pt  Pt1  1  0.02224722  0.63161891  0.38610908  1
  Pt  Pt2  1  0.97775278  0.36386086  0.60937169  1
  Pt  Pt3  1  0.24551083  0.13613914  0.11389092  1
  Pt  Pt4  1  0.75448917  0.86838109  0.89062831  1
loop_
_geom_bond_atom_site_label_1
_geom_bond_atom_site_label_2
_geom_bond_distance
_geom_bond_site_symmetry_2
Mg0 Si6 2.645503 1_555
Mg0 Si7 2.645506 1_554
Mg0 Si8 2.645509 1_565
Mg0 Si9 2.645513 1_555
Mg0 Si4 2.859998 1_555
Mg0 Si5 2.859998 1_555
Mg0 Pt0 3.005731 1_565
Mg0 Pt0 3.005731 1_554
Mg0 Sr1 3.418438 1_565
Mg0 Sr2 3.418438 1_555
Mg0 Sr0 3.418438 1_555
Mg0 Sr3 3.418439 1_554
Si0 Sr2 3.216642 1_455
Si0 Sr1 3.216642 1_465
Si0 Sr3 3.216642 1_555
Si0 Sr0 3.216643 1_556
Si1 Sr3 3.245089 1_555
Si1 Sr0 3.245089 1_545
Si1 Sr2 3.245089 1_455
Si1 Sr1 3.245090 1_454
Si2 Si9 2.478873 1_545
Si2 Si7 2.478880 1_555
Si2 Sr3 3.297274 1_545
Si2 Sr1 3.297275 1_455
Si2 Sr2 3.361409 1_556
Si2 Sr0 3.361409 1_545
Si3 Si8 2.478877 1_555
Si3 Si6 2.478884 1_556
Si3 Sr0 3.297274 1_656
Si3 Sr2 3.297275 1_555
Si3 Sr1 3.361409 1_555
Si3 Sr3 3.361409 1_555
Si4 Si8 2.603461 1_565
Si4 Si6 2.603467 1_555
Si4 Sr2 3.308893 1_565
Si4 Sr0 3.308893 1_655
Si4 Sr3 3.346762 1_554
Si4 Sr1 3.346762 1_565
Si5 Si9 2.603464 1_555
Si5 Si7 2.603471 1_554
Si5 Sr1 3.308893 1_454
Si5 Sr3 3.308894 1_555
Si5 Sr0 3.346762 1_555
Si5 Sr2 3.346762 1_555
Si6 Sr1 3.169951 1_554
Si6 Sr0 3.171883 1_655
Si6 Sr2 3.206915 1_555
Si6 Sr1 3.281805 1_565
Si7 Sr0 3.169946 1_545
Si7 Sr1 3.171883 1_455
Si7 Sr3 3.206915 1_555
Si7 Sr0 3.281811 1_556
Si8 Sr3 3.169951 1_555
Si8 Sr2 3.171871 1_555
Si8 Sr0 3.206926 1_545
Si8 Sr3 3.281805 1_544
Si9 Sr2 3.169946 1_566
Si9 Sr3 3.171871 1_555
Si9 Sr1 3.206926 1_565
Si9 Sr2 3.281811 1_555
Pt0 Si7 2.540477 1_555
Pt0 Si6 2.540480 1_556
Pt0 Si9 2.540484 1_545
Pt0 Si8 2.540487 1_555
Pt0 Si3 2.827812 1_555
Pt0 Si2 2.827812 1_555
Pt0 Sr0 3.445219 1_545
Pt0 Sr3 3.445220 1_555
Pt0 Sr1 3.445220 1_555
Pt0 Sr2 3.445220 1_556
Pt1 Si5 2.433524 1_555
Pt1 Si6 2.459743 1_455
Pt1 Si2 2.470723 1_565
Pt1 Si1 2.474085 1_555
Pt1 Si0 2.490533 1_555
Pt1 Sr1 3.254408 1_465
Pt1 Sr0 3.281683 1_555
Pt1 Sr1 3.285650 1_454
Pt1 Sr2 3.380848 1_455
Pt1 Sr3 3.569083 1_555
Pt2 Si4 2.433521 1_545
Pt2 Si7 2.459738 1_655
Pt2 Si3 2.470724 1_555
Pt2 Si1 2.474090 1_655
Pt2 Si0 2.490541 1_655
Pt2 Sr0 3.254409 1_656
Pt2 Sr1 3.281675 1_555
Pt2 Sr0 3.285645 1_645
Pt2 Sr3 3.380851 1_655
Pt2 Sr2 3.569088 1_555
Pt3 Si5 2.433516 1_555
Pt3 Si8 2.459743 1_555
Pt3 Si2 2.470716 1_554
Pt3 Si1 2.474093 1_555
Pt3 Si0 2.490540 1_544
Pt3 Sr3 3.254409 1_544
Pt3 Sr2 3.281672 1_555
Pt3 Sr3 3.285650 1_555
Pt3 Sr0 3.380859 1_545
Pt3 Sr1 3.569083 1_454
Pt4 Si4 2.433521 1_556
Pt4 Si9 2.459738 1_555
Pt4 Si3 2.470724 1_555
Pt4 Si1 2.474089 1_666
Pt4 Si0 2.490541 1_655
Pt4 Sr2 3.254409 1_555
Pt4 Sr3 3.281675 1_555
Pt4 Sr2 3.285645 1_566
Pt4 Sr1 3.380852 1_565
Pt4 Sr0 3.569088 1_656
