# generated using pymatgen
data_KAlZnF6
_symmetry_space_group_name_H-M   'P 1'
_cell_length_a   6.82183252
_cell_length_b   7.00589125
_cell_length_c   9.67799544
_cell_angle_alpha   90.00000000
_cell_angle_beta   90.00000000
_cell_angle_gamma   90.00000000
_symmetry_Int_Tables_number   1
_chemical_formula_structural   KAlZnF6
_chemical_formula_sum   'K4 Al4 Zn4 F24'
_cell_volume   462.54059869
_cell_formula_units_Z   4
loop_
 _symmetry_equiv_pos_site_id
 _symmetry_equiv_pos_as_xyz
  1  'x, y, z'
loop_
 _atom_site_type_symbol
 _atom_site_label
 _atom_site_symmetry_multiplicity
 _atom_site_fract_x
 _atom_site_fract_y
 _atom_site_fract_z
 _atom_site_occupancy
  K  K0  1  0.98935570  0.25000000  0.38107218  1
  K  K1  1  0.51064430  0.75000000  0.88107218  1
  K  K2  1  0.48935570  0.25000000  0.11892782  1
  K  K3  1  0.01064430  0.75000000  0.61892782  1
  Al  Al0  1  0.50000000  0.00000000  0.50000000  1
  Al  Al1  1  0.00000000  0.50000000  0.00000000  1
  Al  Al2  1  0.50000000  0.50000000  0.50000000  1
  Al  Al3  1  0.00000000  0.00000000  0.00000000  1
  Zn  Zn0  1  0.30580416  0.25000000  0.76957211  1
  Zn  Zn1  1  0.69419584  0.75000000  0.23042789  1
  Zn  Zn2  1  0.19419584  0.75000000  0.26957211  1
  Zn  Zn3  1  0.80580416  0.25000000  0.73042789  1
  F  F0  1  0.61193146  0.00339707  0.33207135  1
  F  F1  1  0.11193146  0.49660293  0.16792865  1
  F  F2  1  0.38806854  0.50339707  0.66792865  1
  F  F3  1  0.88806854  0.99660293  0.83207135  1
  F  F4  1  0.38806854  0.99660293  0.66792865  1
  F  F5  1  0.88806854  0.50339707  0.83207135  1
  F  F6  1  0.61193146  0.49660293  0.33207135  1
  F  F7  1  0.11193146  0.00339707  0.16792865  1
  F  F8  1  0.73270822  0.05845603  0.57606272  1
  F  F9  1  0.23270822  0.44154397  0.92393728  1
  F  F10  1  0.26729178  0.55845603  0.42393728  1
  F  F11  1  0.76729178  0.94154397  0.07606272  1
  F  F12  1  0.07301726  0.25000000  0.65464379  1
  F  F13  1  0.57301726  0.25000000  0.84535621  1
  F  F14  1  0.92698274  0.75000000  0.34535621  1
  F  F15  1  0.42698274  0.75000000  0.15464379  1
  F  F16  1  0.43680874  0.25000000  0.48165996  1
  F  F17  1  0.93680874  0.25000000  0.01834004  1
  F  F18  1  0.56319126  0.75000000  0.51834004  1
  F  F19  1  0.06319126  0.75000000  0.98165996  1
  F  F20  1  0.23270822  0.05845603  0.92393728  1
  F  F21  1  0.73270822  0.44154397  0.57606272  1
  F  F22  1  0.76729178  0.55845603  0.07606272  1
  F  F23  1  0.26729178  0.94154397  0.42393728  1
loop_
_geom_bond_atom_site_label_1
_geom_bond_atom_site_label_2
_geom_bond_distance
_geom_bond_site_symmetry_2
Al0 F4 1.795810 1_545
Al0 F0 1.795810 1_555
Al0 F8 1.797153 1_555
Al0 F23 1.797153 1_545
Al0 F18 1.812455 1_545
Al0 F16 1.812455 1_555
Al1 F1 1.795810 1_555
Al1 F5 1.795810 1_454
Al1 F9 1.797153 1_554
Al1 F22 1.797153 1_455
Al1 F19 1.812455 1_554
Al1 F17 1.812455 1_455
Al2 F2 1.795810 1_555
Al2 F6 1.795810 1_555
Al2 F21 1.797153 1_555
Al2 F10 1.797153 1_555
Al2 F18 1.812455 1_555
Al2 F16 1.812455 1_555
Al3 F7 1.795810 1_555
Al3 F3 1.795810 1_444
Al3 F20 1.797153 1_554
Al3 F11 1.797153 1_445
Al3 F19 1.812455 1_544
Al3 F17 1.812455 1_455
F0 Zn1 2.105755 1_545
F0 K2 2.817663 1_555
F0 K0 3.136711 1_555
F1 Zn2 2.105755 1_555
F1 K0 2.817663 1_455
F1 K2 3.136711 1_555
F2 Zn0 2.105755 1_555
F2 K1 2.817663 1_555
F2 K3 3.136711 1_555
F3 Zn3 2.105755 1_565
F3 K3 2.817663 1_655
F3 K1 3.136711 1_555
F4 Zn0 2.105755 1_565
F4 K1 2.817663 1_555
F4 K3 3.136711 1_555
F5 Zn3 2.105755 1_555
F5 K3 2.817663 1_655
F5 K1 3.136711 1_555
F6 Zn1 2.105755 1_555
F6 K2 2.817663 1_555
F6 K0 3.136711 1_555
F7 Zn2 2.105755 1_545
F7 K0 2.817663 1_455
F7 K2 3.136711 1_555
F8 Zn3 2.069134 1_555
F8 K0 2.902986 1_555
F8 K3 2.904652 1_645
F9 Zn0 2.069134 1_555
F9 K2 2.902986 1_556
F9 K1 2.904652 1_555
F10 Zn2 2.069134 1_555
F10 K3 2.902986 1_555
F10 K0 2.904652 1_455
F11 Zn1 2.069134 1_555
F11 K1 2.902986 1_554
F11 K2 2.904652 1_565
F12 Zn0 1.938816 1_555
F12 Zn3 1.964900 1_455
F12 K0 2.708439 1_455
F13 Zn3 1.938816 1_555
F13 Zn0 1.964900 1_555
F13 K2 2.708439 1_556
F14 Zn1 1.938816 1_555
F14 Zn2 1.964900 1_655
F14 K3 2.708439 1_655
F15 Zn2 1.938816 1_555
F15 Zn1 1.964900 1_555
F15 K1 2.708439 1_554
F16 K0 3.203924 1_455
F17 K2 3.203924 1_555
F18 K3 3.203924 1_655
F19 K1 3.203924 1_555
F20 Zn0 2.069134 1_555
F20 K2 2.902986 1_556
F20 K1 2.904652 1_545
F21 Zn3 2.069134 1_555
F21 K0 2.902986 1_555
F21 K3 2.904652 1_655
F22 Zn1 2.069134 1_555
F22 K1 2.902986 1_554
F22 K2 2.904652 1_555
F23 Zn2 2.069134 1_555
F23 K3 2.902986 1_555
F23 K0 2.904652 1_465
