# generated using pymatgen
data_Sc6Ti7Al9Os7
_symmetry_space_group_name_H-M   'P 1'
_cell_length_a   8.89028033
_cell_length_b   8.89028112
_cell_length_c   8.89028111
_cell_angle_alpha   59.47050557
_cell_angle_beta   59.47050164
_cell_angle_gamma   59.47050257
_symmetry_Int_Tables_number   1
_chemical_formula_structural   Sc6Ti7Al9Os7
_chemical_formula_sum   'Sc6 Ti7 Al9 Os7'
_cell_volume   490.87272755
_cell_formula_units_Z   1
loop_
 _symmetry_equiv_pos_site_id
 _symmetry_equiv_pos_as_xyz
  1  'x, y, z'
loop_
 _atom_site_type_symbol
 _atom_site_label
 _atom_site_symmetry_multiplicity
 _atom_site_fract_x
 _atom_site_fract_y
 _atom_site_fract_z
 _atom_site_occupancy
  Sc  Sc0  1  0.70860358  0.70860358  0.28993322  1
  Sc  Sc1  1  0.28959267  0.71678895  0.28959267  1
  Sc  Sc2  1  0.71678895  0.28959267  0.28959267  1
  Sc  Sc3  1  0.28959267  0.28959267  0.71678895  1
  Sc  Sc4  1  0.70860358  0.28993322  0.70860358  1
  Sc  Sc5  1  0.28993322  0.70860358  0.70860358  1
  Ti  Ti0  1  0.88029701  0.88029701  0.36100364  1
  Ti  Ti1  1  0.88029701  0.36100364  0.88029701  1
  Ti  Ti2  1  0.36100364  0.88029701  0.88029701  1
  Ti  Ti3  1  0.87743986  0.87743986  0.87743986  1
  Ti  Ti4  1  0.12291747  0.12291747  0.63338701  1
  Ti  Ti5  1  0.12291747  0.63338701  0.12291747  1
  Ti  Ti6  1  0.63338701  0.12291747  0.12291747  1
  Al  Al0  1  0.11868180  0.11868180  0.11868180  1
  Al  Al1  1  0.66638400  0.66638400  0.99910249  1
  Al  Al2  1  0.66638400  0.99910249  0.66638400  1
  Al  Al3  1  0.99910249  0.66638400  0.66638400  1
  Al  Al4  1  0.66671610  0.66671610  0.66671610  1
  Al  Al5  1  0.33170346  0.33170346  0.00156612  1
  Al  Al6  1  0.33170346  0.00156612  0.33170346  1
  Al  Al7  1  0.00156612  0.33170346  0.33170346  1
  Al  Al8  1  0.33645852  0.33645852  0.33645852  1
  Os  Os0  1  0.99679927  0.99679927  0.99679927  1
  Os  Os1  1  0.99996826  0.99996826  0.50298301  1
  Os  Os2  1  0.50020894  0.99979024  0.50020894  1
  Os  Os3  1  0.99979024  0.50020894  0.50020894  1
  Os  Os4  1  0.50020894  0.50020894  0.99979024  1
  Os  Os5  1  0.99996826  0.50298301  0.99996826  1
  Os  Os6  1  0.50298301  0.99996826  0.99996826  1
loop_
_geom_bond_atom_site_label_1
_geom_bond_atom_site_label_2
_geom_bond_distance
_geom_bond_site_symmetry_2
Sc0 Ti3 3.009746 1_554
Sc0 Ti5 3.028029 1_655
Sc0 Ti6 3.028030 1_565
Sc0 Ti0 3.063624 1_555
Sc0 Sc1 3.690215 1_555
Sc0 Sc2 3.690215 1_555
Sc0 Sc5 3.692268 1_555
Sc0 Sc4 3.692268 1_555
Sc1 Ti0 2.995559 1_455
Sc1 Ti2 2.995560 1_554
Sc1 Ti5 3.066659 1_555
Sc1 Sc5 3.690215 1_555
Sc1 Sc2 3.767459 1_555
Sc1 Sc3 3.767459 1_555
Sc2 Ti1 2.995560 1_554
Sc2 Ti0 2.995560 1_545
Sc2 Ti6 3.066659 1_555
Sc2 Sc4 3.690215 1_555
Sc2 Sc3 3.767459 1_555
Sc3 Ti1 2.995559 1_455
Sc3 Ti2 2.995560 1_545
Sc3 Ti4 3.066659 1_555
Sc3 Sc4 3.690215 1_555
Sc3 Sc5 3.690215 1_555
Sc4 Ti3 3.009746 1_545
Sc4 Ti4 3.028029 1_655
Sc4 Ti6 3.028030 1_556
Sc4 Ti1 3.063624 1_555
Sc4 Sc5 3.692268 1_555
Sc5 Ti3 3.009746 1_455
Sc5 Ti5 3.028030 1_556
Sc5 Ti4 3.028030 1_565
Sc5 Ti2 3.063624 1_555
Ti0 Ti5 3.036914 1_655
Ti0 Ti6 3.036914 1_565
Ti1 Ti6 3.036914 1_556
Ti1 Ti4 3.036914 1_655
Ti2 Ti5 3.036914 1_556
Ti2 Ti4 3.036914 1_565
Ti3 Ti6 3.074158 1_566
Ti3 Ti4 3.074158 1_665
Ti3 Ti5 3.074158 1_656
Al0 Os0 2.664765 1_444
Al0 Os6 2.775861 1_544
Al0 Os1 2.775861 1_445
Al0 Os5 2.775861 1_454
Al0 Al5 2.809698 1_555
Al0 Al6 2.809698 1_555
Al0 Al7 2.809698 1_555
Al0 Sc2 2.949202 1_455
Al0 Sc3 2.949203 1_554
Al0 Sc1 2.949203 1_545
Al0 Ti2 2.984977 1_544
Al0 Ti0 2.984977 1_445
Al0 Ti1 2.984977 1_454
Al1 Os5 2.557414 1_555
Al1 Os6 2.557415 1_555
Al1 Os4 2.562060 1_555
Al1 Ti3 2.768456 1_555
Al1 Ti2 2.780304 1_555
Al1 Ti1 2.780304 1_555
Al1 Al3 2.934256 1_555
Al1 Al2 2.934256 1_555
Al1 Al4 2.952012 1_555
Al1 Sc1 2.992157 1_556
Al1 Sc2 2.992157 1_556
Al1 Sc0 3.013634 1_556
Al2 Os1 2.557414 1_555
Al2 Os6 2.557415 1_555
Al2 Os2 2.562060 1_555
Al2 Ti3 2.768456 1_555
Al2 Ti2 2.780304 1_555
Al2 Ti0 2.780304 1_555
Al2 Al3 2.934256 1_555
Al2 Al4 2.952012 1_555
Al2 Sc3 2.992157 1_565
Al2 Sc2 2.992157 1_565
Al2 Sc4 3.013634 1_565
Al3 Os5 2.557415 1_555
Al3 Os1 2.557415 1_555
Al3 Os3 2.562060 1_555
Al3 Ti3 2.768457 1_555
Al3 Ti1 2.780304 1_555
Al3 Ti0 2.780304 1_555
Al3 Al4 2.952012 1_555
Al3 Sc1 2.992157 1_655
Al3 Sc3 2.992157 1_655
Al3 Sc5 3.013634 1_655
Al4 Os3 2.543704 1_555
Al4 Os4 2.543704 1_555
Al4 Os2 2.543704 1_555
Al4 Ti2 2.788281 1_555
Al4 Ti0 2.788281 1_555
Al4 Ti1 2.788281 1_555
Al4 Sc5 3.017306 1_555
Al4 Sc0 3.017306 1_555
Al4 Sc4 3.017306 1_555
Al5 Os5 2.544569 1_454
Al5 Os6 2.544569 1_544
Al5 Os4 2.592408 1_554
Al5 Ti6 2.765879 1_555
Al5 Ti5 2.765879 1_555
Al5 Al7 2.911492 1_555
Al5 Al6 2.911493 1_555
Al5 Sc3 2.959456 1_554
Al5 Sc4 3.000165 1_554
Al5 Sc5 3.000166 1_554
Al5 Al8 3.020823 1_555
Al6 Os1 2.544569 1_445
Al6 Os6 2.544569 1_544
Al6 Os2 2.592408 1_545
Al6 Ti6 2.765879 1_555
Al6 Ti4 2.765879 1_555
Al6 Al7 2.911492 1_555
Al6 Sc1 2.959456 1_545
Al6 Sc0 3.000165 1_545
Al6 Sc5 3.000166 1_545
Al6 Al8 3.020823 1_555
Al7 Os5 2.544570 1_454
Al7 Os1 2.544570 1_445
Al7 Os3 2.592408 1_455
Al7 Ti5 2.765879 1_555
Al7 Ti4 2.765879 1_555
Al7 Sc2 2.959456 1_455
Al7 Sc4 3.000165 1_455
Al7 Sc0 3.000165 1_455
Al7 Al8 3.020823 1_555
Al8 Os3 2.548843 1_455
Al8 Os4 2.548844 1_554
Al8 Os2 2.548844 1_545
Al8 Ti6 2.766814 1_555
Al8 Ti4 2.766814 1_555
Al8 Ti5 2.766814 1_555
Al8 Sc2 3.015593 1_555
Al8 Sc3 3.015594 1_555
Al8 Sc1 3.015594 1_555
Os0 Ti3 2.609601 1_555
Os0 Ti6 2.620909 1_566
Os0 Ti4 2.620909 1_665
Os0 Ti5 2.620909 1_656
Os0 Ti2 2.627734 1_655
Os0 Ti0 2.627734 1_556
Os0 Ti1 2.627734 1_565
Os1 Ti3 2.700497 1_555
Os1 Ti4 2.742678 1_665
Os1 Ti0 2.781316 1_555
Os1 Sc1 3.141756 1_655
Os1 Sc2 3.141756 1_565
Os1 Sc4 3.144775 1_565
Os1 Sc5 3.144775 1_655
Os2 Ti4 2.720769 1_565
Os2 Ti6 2.720770 1_565
Os2 Ti0 2.741976 1_555
Os2 Ti2 2.741977 1_555
Os2 Sc0 3.186524 1_555
Os2 Sc5 3.186524 1_555
Os2 Sc2 3.213612 1_565
Os2 Sc3 3.213612 1_565
Os3 Ti5 2.720770 1_655
Os3 Ti4 2.720770 1_655
Os3 Ti1 2.741977 1_555
Os3 Ti0 2.741977 1_555
Os3 Sc4 3.186524 1_555
Os3 Sc0 3.186524 1_555
Os3 Sc1 3.213612 1_655
Os3 Sc3 3.213612 1_655
Os4 Ti5 2.720769 1_556
Os4 Ti6 2.720770 1_556
Os4 Ti1 2.741976 1_555
Os4 Ti2 2.741977 1_555
Os4 Sc4 3.186524 1_555
Os4 Sc5 3.186524 1_555
Os4 Sc1 3.213612 1_556
Os4 Sc2 3.213612 1_556
Os5 Ti3 2.700497 1_555
Os5 Ti5 2.742678 1_656
Os5 Ti1 2.781316 1_555
Os5 Sc3 3.141756 1_655
Os5 Sc2 3.141756 1_556
Os5 Sc0 3.144775 1_556
Os5 Sc5 3.144775 1_655
Os6 Ti3 2.700497 1_555
Os6 Ti6 2.742678 1_566
Os6 Ti2 2.781316 1_555
Os6 Sc1 3.141756 1_556
Os6 Sc3 3.141756 1_565
Os6 Sc4 3.144775 1_565
Os6 Sc0 3.144776 1_556
