# generated using pymatgen
data_Sr4LiSi6Hg
_symmetry_space_group_name_H-M   'P 1'
_cell_length_a   11.86849545
_cell_length_b   10.24323312
_cell_length_c   8.48028898
_cell_angle_alpha   78.04813949
_cell_angle_beta   57.60250128
_cell_angle_gamma   44.34935856
_symmetry_Int_Tables_number   1
_chemical_formula_structural   Sr4LiSi6Hg
_chemical_formula_sum   'Sr8 Li2 Si12 Hg2'
_cell_volume   580.80530352
_cell_formula_units_Z   2
loop_
 _symmetry_equiv_pos_site_id
 _symmetry_equiv_pos_as_xyz
  1  'x, y, z'
loop_
 _atom_site_type_symbol
 _atom_site_label
 _atom_site_symmetry_multiplicity
 _atom_site_fract_x
 _atom_site_fract_y
 _atom_site_fract_z
 _atom_site_occupancy
  Sr  Sr0  1  0.12549640  0.12274230  0.87537594  1
  Sr  Sr1  1  0.87537694  0.87638536  0.12549540  1
  Sr  Sr2  1  0.12725870  0.12450460  0.37361464  1
  Sr  Sr3  1  0.37361564  0.37462406  0.12725770  1
  Sr  Sr4  1  0.62408496  0.62289922  0.37551824  1
  Sr  Sr5  1  0.37551824  0.37749757  0.62408496  1
  Sr  Sr6  1  0.62710178  0.62591504  0.87250243  1
  Sr  Sr7  1  0.87250343  0.87448276  0.62710078  1
  Li  Li0  1  0.16705535  0.83294465  0.16705535  1
  Li  Li1  1  0.41705535  0.08294465  0.41705535  1
  Si  Si0  1  0.91159175  0.59644518  0.43032234  1
  Si  Si1  1  0.07499248  0.41896805  0.58898269  1
  Si  Si2  1  0.43032234  0.06164072  0.91159175  1
  Si  Si3  1  0.58898269  0.91705678  0.07499248  1
  Si  Si4  1  0.33294322  0.66101731  0.83103195  1
  Si  Si5  1  0.65355482  0.33840825  0.18835928  1
  Si  Si6  1  0.83103195  0.17500752  0.33294322  1
  Si  Si7  1  0.18835928  0.81967766  0.65355482  1
  Si  Si8  1  0.90805840  0.59194260  0.90805740  1
  Si  Si9  1  0.58556991  0.91443109  0.58556891  1
  Si  Si10  1  0.33556991  0.66443109  0.33556991  1
  Si  Si11  1  0.65805740  0.34194260  0.65805740  1
  Hg  Hg0  1  0.08295151  0.41704849  0.08295151  1
  Hg  Hg1  1  0.83295151  0.16704849  0.83295151  1
loop_
_geom_bond_atom_site_label_1
_geom_bond_atom_site_label_2
_geom_bond_distance
_geom_bond_site_symmetry_2
Li0 Si10 2.474958 1_555
Li0 Si4 2.491091 1_554
Li0 Si6 2.491091 1_465
Li0 Sr1 3.368317 1_455
Li0 Sr0 3.368323 1_564
Li0 Sr3 3.387233 1_555
Li0 Sr2 3.387255 1_565
Li0 Sr7 3.401167 1_455
Li0 Sr6 3.401183 1_554
Li1 Si9 2.474951 1_545
Li1 Si3 2.491091 1_545
Li1 Si1 2.491091 1_555
Li1 Sr2 3.368305 1_555
Li1 Sr3 3.368324 1_555
Li1 Sr0 3.387237 1_555
Li1 Sr1 3.387246 1_545
Li1 Sr5 3.401174 1_555
Li1 Sr4 3.401174 1_545
Si0 Si9 2.367899 1_555
Si0 Si1 2.370024 1_655
Si0 Sr7 3.218735 1_555
Si0 Sr6 3.316095 1_555
Si0 Sr3 3.366687 1_655
Si0 Sr1 3.383400 1_555
Si0 Sr2 3.478437 1_655
Si0 Sr4 3.501122 1_555
Si1 Si8 2.367857 1_455
Si1 Sr6 3.291088 1_455
Si1 Sr2 3.348127 1_555
Si1 Sr0 3.372154 1_555
Si1 Sr7 3.377299 1_455
Si1 Sr3 3.415064 1_555
Si1 Sr5 3.451013 1_555
Si2 Si9 2.367899 1_545
Si2 Si3 2.370024 1_546
Si2 Sr6 3.218713 1_545
Si2 Sr7 3.316112 1_545
Si2 Sr2 3.366671 1_556
Si2 Sr0 3.383393 1_555
Si2 Sr3 3.478459 1_556
Si2 Sr5 3.501122 1_555
Si3 Si8 2.367857 1_554
Si3 Sr7 3.291105 1_554
Si3 Sr3 3.348149 1_565
Si3 Sr1 3.372160 1_555
Si3 Sr6 3.377276 1_554
Si3 Sr2 3.415048 1_565
Si3 Sr4 3.451013 1_555
Si4 Si7 2.370024 1_555
Si4 Sr5 3.291097 1_555
Si4 Sr1 3.348136 1_456
Si4 Sr3 3.372153 1_556
Si4 Sr4 3.377286 1_555
Si4 Sr0 3.415060 1_565
Si4 Sr6 3.451025 1_555
Si5 Si6 2.370024 1_555
Si5 Sr5 3.218717 1_555
Si5 Sr4 3.316099 1_555
Si5 Sr1 3.366674 1_545
Si5 Sr3 3.383382 1_555
Si5 Sr0 3.478450 1_654
Si5 Sr6 3.501123 1_554
Si6 Sr4 3.291097 1_555
Si6 Sr0 3.348145 1_654
Si6 Sr2 3.372172 1_655
Si6 Sr5 3.377286 1_555
Si6 Sr1 3.415057 1_545
Si6 Sr7 3.451005 1_545
Si7 Sr4 3.218717 1_555
Si7 Sr5 3.316099 1_555
Si7 Sr0 3.366678 1_565
Si7 Sr2 3.383400 1_565
Si7 Sr1 3.478441 1_456
Si7 Sr7 3.501104 1_455
Si8 Sr6 3.271925 1_555
Si8 Sr7 3.271931 1_555
Si8 Sr5 3.442333 1_655
Si8 Sr4 3.442346 1_556
Si8 Sr1 3.447053 1_556
Si8 Sr0 3.447062 1_655
Si9 Sr6 3.334855 1_555
Si9 Sr7 3.334862 1_555
Si9 Sr1 3.396629 1_555
Si9 Sr0 3.396633 1_565
Si9 Sr5 3.417276 1_565
Si9 Sr4 3.417289 1_555
Si10 Si7 2.367891 1_555
Si10 Si5 2.367899 1_555
Si10 Sr4 3.334838 1_555
Si10 Sr5 3.334851 1_555
Si10 Sr3 3.396629 1_555
Si10 Sr2 3.396633 1_565
Si10 Sr7 3.417276 1_455
Si10 Sr6 3.417285 1_554
Si11 Si6 2.367853 1_555
Si11 Si4 2.367853 1_555
Si11 Sr4 3.271925 1_555
Si11 Sr5 3.271925 1_555
Si11 Sr7 3.442330 1_545
Si11 Sr6 3.442352 1_555
Si11 Sr3 3.447055 1_556
Si11 Sr2 3.447071 1_655
Hg0 Si8 2.568647 1_454
Hg0 Si0 2.582228 1_455
Hg0 Si2 2.582228 1_554
Hg0 Sr2 3.377562 1_555
Hg0 Sr3 3.377581 1_555
Hg0 Sr0 3.392655 1_554
Hg0 Sr1 3.392658 1_455
Hg0 Sr5 3.394922 1_554
Hg0 Sr4 3.394922 1_455
Hg1 Si11 2.568654 1_555
Hg1 Si5 2.582228 1_556
Hg1 Si7 2.582228 1_645
Hg1 Sr1 3.377563 1_546
Hg1 Sr0 3.377570 1_655
Hg1 Sr3 3.392646 1_556
Hg1 Sr2 3.392662 1_655
Hg1 Sr7 3.394904 1_545
Hg1 Sr6 3.394926 1_555
