# generated using pymatgen
data_YRe2NiC
_symmetry_space_group_name_H-M   'P 1'
_cell_length_a   5.61099900
_cell_length_b   5.61099824
_cell_length_c   7.53850274
_cell_angle_alpha   90.00000000
_cell_angle_beta   90.00000000
_cell_angle_gamma   140.33339795
_symmetry_Int_Tables_number   1
_chemical_formula_structural   YRe2NiC
_chemical_formula_sum   'Y2 Re4 Ni2 C2'
_cell_volume   151.49675984
_cell_formula_units_Z   2
loop_
 _symmetry_equiv_pos_site_id
 _symmetry_equiv_pos_as_xyz
  1  'x, y, z'
loop_
 _atom_site_type_symbol
 _atom_site_label
 _atom_site_symmetry_multiplicity
 _atom_site_fract_x
 _atom_site_fract_y
 _atom_site_fract_z
 _atom_site_occupancy
  Y  Y0  1  0.53213260  0.46786740  0.25000000  1
  Y  Y1  1  0.46786740  0.53213260  0.75000000  1
  Re  Re0  1  0.82133446  0.17866554  0.06530552  1
  Re  Re1  1  0.17866554  0.82133446  0.93469448  1
  Re  Re2  1  0.17866554  0.82133446  0.56530552  1
  Re  Re3  1  0.82133446  0.17866554  0.43469448  1
  Ni  Ni0  1  0.25385451  0.74614549  0.25000000  1
  Ni  Ni1  1  0.74614549  0.25385451  0.75000000  1
  C  C0  1  0.00000000  0.00000000  0.00000000  1
  C  C1  1  0.00000000  0.00000000  0.50000000  1
loop_
_geom_bond_atom_site_label_1
_geom_bond_atom_site_label_2
_geom_bond_distance
_geom_bond_site_symmetry_2
Ni0 Re3 2.463769 1_455
Ni0 Re0 2.463769 1_455
Ni0 Re3 2.463769 1_565
Ni0 Re0 2.463769 1_565
Ni0 Re2 2.505952 1_555
Ni0 Re1 2.505952 1_554
Ni0 Y0 2.937601 1_555
Ni0 Y0 3.017028 1_565
Ni0 Y0 3.017029 1_455
Ni1 Re1 2.463769 1_655
Ni1 Re2 2.463769 1_655
Ni1 Re1 2.463769 1_545
Ni1 Re2 2.463769 1_545
Ni1 Re0 2.505952 1_556
Ni1 Re3 2.505952 1_555
Ni1 Y1 2.937601 1_555
Ni1 Y1 3.017028 1_545
Ni1 Y1 3.017029 1_655
C0 Re1 1.949249 1_544
C0 Re0 1.949249 1_455
C0 Y1 2.700194 1_554
C0 Y0 2.700194 1_445
C0 Y0 2.700194 1_555
C0 Y1 2.700194 1_444
C1 Re2 1.949249 1_545
C1 Re3 1.949249 1_455
C1 Y1 2.700194 1_555
C1 Y0 2.700194 1_445
C1 Y0 2.700194 1_555
C1 Y1 2.700194 1_445
