# generated using pymatgen
data_Cs6InTe4I
_symmetry_space_group_name_H-M   'P 1'
_cell_length_a   12.20219583
_cell_length_b   12.20219619
_cell_length_c   9.14730071
_cell_angle_alpha   90.00000000
_cell_angle_beta   90.00000000
_cell_angle_gamma   120.00000165
_symmetry_Int_Tables_number   1
_chemical_formula_structural   Cs6InTe4I
_chemical_formula_sum   'Cs12 In2 Te8 I2'
_cell_volume   1179.50442660
_cell_formula_units_Z   2
loop_
 _symmetry_equiv_pos_site_id
 _symmetry_equiv_pos_as_xyz
  1  'x, y, z'
loop_
 _atom_site_type_symbol
 _atom_site_label
 _atom_site_symmetry_multiplicity
 _atom_site_fract_x
 _atom_site_fract_y
 _atom_site_fract_z
 _atom_site_occupancy
  Cs  Cs0  1  0.14046941  0.85953059  0.51474366  1
  Cs  Cs1  1  0.71905917  0.85953059  0.51474366  1
  Cs  Cs2  1  0.95116183  0.47558091  0.32076345  1
  Cs  Cs3  1  0.52441909  0.47558091  0.32076345  1
  Cs  Cs4  1  0.85953059  0.71905917  0.01474366  1
  Cs  Cs5  1  0.28094083  0.14046941  0.01474366  1
  Cs  Cs6  1  0.52441909  0.04883817  0.32076345  1
  Cs  Cs7  1  0.14046941  0.28094083  0.51474366  1
  Cs  Cs8  1  0.85953059  0.14046941  0.01474366  1
  Cs  Cs9  1  0.04883817  0.52441909  0.82076345  1
  Cs  Cs10  1  0.47558091  0.95116183  0.82076345  1
  Cs  Cs11  1  0.47558091  0.52441909  0.82076345  1
  In  In0  1  0.66666700  0.33333300  0.70704365  1
  In  In1  1  0.33333300  0.66666700  0.20704365  1
  Te  Te0  1  0.41240273  0.20620187  0.61172083  1
  Te  Te1  1  0.58759727  0.79379813  0.11172083  1
  Te  Te2  1  0.66666700  0.33333300  0.02200785  1
  Te  Te3  1  0.79379813  0.58759727  0.61172083  1
  Te  Te4  1  0.20620187  0.41240273  0.11172083  1
  Te  Te5  1  0.33333300  0.66666700  0.52200785  1
  Te  Te6  1  0.20620187  0.79379813  0.11172083  1
  Te  Te7  1  0.79379813  0.20620187  0.61172083  1
  I  I0  1  0.00000000  0.00000000  0.26986670  1
  I  I1  1  0.00000000  0.00000000  0.76986670  1
loop_
_geom_bond_atom_site_label_1
_geom_bond_atom_site_label_2
_geom_bond_distance
_geom_bond_site_symmetry_2
Cs0 I0 3.719030 1_565
Cs0 I1 3.776221 1_565
Cs0 Te6 3.939645 1_555
Cs0 Te3 3.956641 1_455
Cs0 Te0 3.956641 1_565
Cs0 Te5 4.076679 1_555
Cs1 I0 3.719047 1_665
Cs1 I1 3.776238 1_665
Cs1 Te1 3.939634 1_555
Cs1 Te7 3.956638 1_565
Cs1 Te3 3.956649 1_555
Cs1 Te5 4.076669 1_555
Cs2 Te7 3.906834 1_555
Cs2 Te3 3.906841 1_555
Cs2 Te6 4.041612 1_655
Cs2 Te4 4.041619 1_655
Cs2 Te2 4.062822 1_555
Cs3 Te3 3.906833 1_555
Cs3 Te0 3.906833 1_555
Cs3 Te4 4.041609 1_555
Cs3 Te1 4.041609 1_555
Cs3 Te2 4.062830 1_555
Cs4 I1 3.719047 1_664
Cs4 I0 3.776238 1_665
Cs4 Te3 3.939634 1_554
Cs4 Te6 3.956638 1_655
Cs4 Te1 3.956649 1_555
Cs4 Te2 4.076669 1_555
Cs5 I1 3.719047 1_554
Cs5 I0 3.776238 1_555
Cs5 Te0 3.939634 1_554
Cs5 Te6 3.956638 1_545
Cs5 Te4 3.956649 1_555
Cs5 Te2 4.076669 1_555
Cs6 Te7 3.906834 1_555
Cs6 Te0 3.906841 1_555
Cs6 Te6 4.041612 1_545
Cs6 Te1 4.041619 1_545
Cs6 Te2 4.062822 1_555
Cs7 I0 3.719047 1_555
Cs7 I1 3.776238 1_555
Cs7 Te4 3.939634 1_555
Cs7 Te7 3.956638 1_455
Cs7 Te0 3.956649 1_555
Cs7 Te5 4.076669 1_555
Cs8 I1 3.719030 1_654
Cs8 I0 3.776221 1_655
Cs8 Te7 3.939645 1_554
Cs8 Te4 3.956641 1_655
Cs8 Te1 3.956641 1_545
Cs8 Te2 4.076679 1_555
Cs9 Te6 3.906834 1_556
Cs9 Te4 3.906841 1_556
Cs9 Te7 4.041612 1_455
Cs9 Te3 4.041619 1_455
Cs9 Te5 4.062822 1_555
Cs10 Te6 3.906834 1_556
Cs10 Te1 3.906841 1_556
Cs10 Te7 4.041612 1_565
Cs10 Te0 4.041619 1_565
Cs10 Te5 4.062822 1_555
Cs11 Te4 3.906833 1_556
Cs11 Te1 3.906833 1_556
Cs11 Te3 4.041609 1_555
Cs11 Te0 4.041609 1_555
Cs11 Te5 4.062830 1_555
In0 Te7 2.824835 1_555
In0 Te0 2.824855 1_555
In0 Te3 2.824855 1_555
In0 Te2 2.881072 1_556
In1 Te6 2.824835 1_555
In1 Te1 2.824855 1_555
In1 Te4 2.824855 1_555
In1 Te5 2.881072 1_555
