# generated using pymatgen
data_Ti2VP2Pd
_symmetry_space_group_name_H-M   'P 1'
_cell_length_a   3.47480369
_cell_length_b   6.34109363
_cell_length_c   7.56080218
_cell_angle_alpha   89.56853999
_cell_angle_beta   90.00000000
_cell_angle_gamma   90.00000000
_symmetry_Int_Tables_number   1
_chemical_formula_structural   Ti2VP2Pd
_chemical_formula_sum   'Ti4 V2 P4 Pd2'
_cell_volume   166.59041177
_cell_formula_units_Z   2
loop_
 _symmetry_equiv_pos_site_id
 _symmetry_equiv_pos_as_xyz
  1  'x, y, z'
loop_
 _atom_site_type_symbol
 _atom_site_label
 _atom_site_symmetry_multiplicity
 _atom_site_fract_x
 _atom_site_fract_y
 _atom_site_fract_z
 _atom_site_occupancy
  Ti  Ti0  1  0.25000000  0.54481666  0.16115332  1
  Ti  Ti1  1  0.75000000  0.45518334  0.83884668  1
  Ti  Ti2  1  0.75000000  0.97365698  0.66784155  1
  Ti  Ti3  1  0.25000000  0.02634302  0.33215845  1
  V  V0  1  0.75000000  0.86634941  0.05998979  1
  V  V1  1  0.25000000  0.13365059  0.94001021  1
  P  P0  1  0.25000000  0.75777297  0.86700973  1
  P  P1  1  0.75000000  0.24222703  0.13299027  1
  P  P2  1  0.75000000  0.74769696  0.35916195  1
  P  P3  1  0.25000000  0.25230304  0.64083805  1
  Pd  Pd0  1  0.25000000  0.64858248  0.56830068  1
  Pd  Pd1  1  0.75000000  0.35141752  0.43169932  1
loop_
_geom_bond_atom_site_label_1
_geom_bond_atom_site_label_2
_geom_bond_distance
_geom_bond_site_symmetry_2
P0 Pd0 2.367210 1_555
P0 V0 2.374162 1_556
P0 V0 2.374162 1_456
P0 V1 2.450593 1_565
P0 Ti0 2.593124 1_556
P0 Ti1 2.598395 1_455
P0 Ti1 2.598395 1_555
P0 Ti2 2.670050 1_455
P0 Ti2 2.670050 1_555
P1 Pd1 2.367210 1_555
P1 V1 2.374162 1_554
P1 V1 2.374162 1_654
P1 V0 2.450593 1_545
P1 Ti1 2.593124 1_554
P1 Ti0 2.598395 1_555
P1 Ti0 2.598395 1_655
P1 Ti3 2.670050 1_555
P1 Ti3 2.670050 1_655
P2 V0 2.378448 1_555
P2 Pd0 2.428781 1_655
P2 Pd0 2.428781 1_555
P2 Ti3 2.485322 1_565
P2 Ti3 2.485322 1_665
P2 Pd1 2.567961 1_555
P2 Ti0 2.635134 1_555
P2 Ti0 2.635134 1_655
P2 Ti2 2.747782 1_555
P3 V1 2.378448 1_555
P3 Pd1 2.428781 1_555
P3 Pd1 2.428781 1_455
P3 Ti2 2.485322 1_545
P3 Ti2 2.485322 1_445
P3 Pd0 2.567961 1_555
P3 Ti1 2.635134 1_555
P3 Ti1 2.635134 1_455
P3 Ti3 2.747782 1_555
Pd0 Pd1 2.768639 1_455
Pd0 Pd1 2.768639 1_555
Pd0 Ti2 2.803109 1_455
Pd0 Ti2 2.803109 1_555
Pd0 Ti1 2.944317 1_455
Pd0 Ti1 2.944317 1_555
Pd0 Ti3 2.976801 1_565
Pd0 Ti0 3.152738 1_555
Pd1 Ti3 2.803109 1_655
Pd1 Ti3 2.803109 1_555
Pd1 Ti0 2.944317 1_555
Pd1 Ti0 2.944317 1_655
Pd1 Ti2 2.976801 1_545
Pd1 Ti1 3.152738 1_555
