# generated using pymatgen
data_K4TaRhCl12
_symmetry_space_group_name_H-M   'P 1'
_cell_length_a   6.90207892
_cell_length_b   6.90207892
_cell_length_c   10.21038104
_cell_angle_alpha   90.00000000
_cell_angle_beta   90.00000000
_cell_angle_gamma   90.00000000
_symmetry_Int_Tables_number   1
_chemical_formula_structural   K4TaRhCl12
_chemical_formula_sum   'K4 Ta1 Rh1 Cl12'
_cell_volume   486.40921208
_cell_formula_units_Z   1
loop_
 _symmetry_equiv_pos_site_id
 _symmetry_equiv_pos_as_xyz
  1  'x, y, z'
loop_
 _atom_site_type_symbol
 _atom_site_label
 _atom_site_symmetry_multiplicity
 _atom_site_fract_x
 _atom_site_fract_y
 _atom_site_fract_z
 _atom_site_occupancy
  K  K0  1  0.50000000  0.00000000  0.79391079  1
  K  K1  1  0.00000000  0.50000000  0.20608921  1
  K  K2  1  0.50000000  0.00000000  0.20608921  1
  K  K3  1  0.00000000  0.50000000  0.79391079  1
  Ta  Ta0  1  0.50000000  0.50000000  0.50000000  1
  Rh  Rh0  1  0.00000000  0.00000000  0.00000000  1
  Cl  Cl0  1  0.00000000  0.00000000  0.76880425  1
  Cl  Cl1  1  0.50000000  0.50000000  0.26731516  1
  Cl  Cl2  1  0.74092280  0.74092280  0.50000000  1
  Cl  Cl3  1  0.24091342  0.24091342  0.00000000  1
  Cl  Cl4  1  0.74092280  0.25907720  0.50000000  1
  Cl  Cl5  1  0.24091342  0.75908658  0.00000000  1
  Cl  Cl6  1  0.00000000  0.00000000  0.23119575  1
  Cl  Cl7  1  0.50000000  0.50000000  0.73268484  1
  Cl  Cl8  1  0.25907720  0.25907720  0.50000000  1
  Cl  Cl9  1  0.75908658  0.75908658  0.00000000  1
  Cl  Cl10  1  0.25907720  0.74092280  0.50000000  1
  Cl  Cl11  1  0.75908658  0.24091342  0.00000000  1
loop_
_geom_bond_atom_site_label_1
_geom_bond_atom_site_label_2
_geom_bond_distance
_geom_bond_site_symmetry_2
Cl0 Rh0 2.360597 1_556
Cl0 K3 3.460547 1_545
Cl0 K3 3.460547 1_555
Cl0 K0 3.460547 1_455
Cl0 K0 3.460547 1_555
Cl1 Ta0 2.375801 1_555
Cl1 K2 3.507203 1_565
Cl1 K1 3.507203 1_555
Cl1 K1 3.507203 1_655
Cl1 K2 3.507203 1_555
Cl2 Ta0 2.351651 1_555
Cl3 Rh0 2.351559 1_555
Cl3 K3 3.223440 1_554
Cl3 K0 3.223440 1_554
Cl3 K2 3.223440 1_555
Cl3 K1 3.223440 1_555
Cl4 Ta0 2.351651 1_555
Cl5 Rh0 2.351559 1_565
Cl5 K3 3.223440 1_554
Cl5 K0 3.223440 1_564
Cl5 K2 3.223440 1_565
Cl5 K1 3.223440 1_555
Cl6 Rh0 2.360597 1_555
Cl6 K1 3.460547 1_555
Cl6 K2 3.460547 1_455
Cl6 K1 3.460547 1_545
Cl6 K2 3.460547 1_555
Cl7 Ta0 2.375801 1_555
Cl7 K3 3.507203 1_555
Cl7 K0 3.507203 1_555
Cl7 K3 3.507203 1_655
Cl7 K0 3.507203 1_565
Cl8 Ta0 2.351651 1_555
Cl9 Rh0 2.351559 1_665
Cl9 K0 3.223440 1_564
Cl9 K3 3.223440 1_654
Cl9 K1 3.223440 1_655
Cl9 K2 3.223440 1_565
Cl10 Ta0 2.351651 1_555
Cl11 Rh0 2.351559 1_655
Cl11 K3 3.223440 1_654
Cl11 K0 3.223440 1_554
Cl11 K1 3.223440 1_655
Cl11 K2 3.223440 1_555
