# generated using pymatgen
data_TeAs4Ru4Se3
_symmetry_space_group_name_H-M   'P 1'
_cell_length_a   6.16323324
_cell_length_b   6.20387591
_cell_length_c   6.26725874
_cell_angle_alpha   67.16324430
_cell_angle_beta   89.52250311
_cell_angle_gamma   89.49890795
_symmetry_Int_Tables_number   1
_chemical_formula_structural   TeAs4Ru4Se3
_chemical_formula_sum   'Te1 As4 Ru4 Se3'
_cell_volume   220.83897309
_cell_formula_units_Z   1
loop_
 _symmetry_equiv_pos_site_id
 _symmetry_equiv_pos_as_xyz
  1  'x, y, z'
loop_
 _atom_site_type_symbol
 _atom_site_label
 _atom_site_symmetry_multiplicity
 _atom_site_fract_x
 _atom_site_fract_y
 _atom_site_fract_z
 _atom_site_occupancy
  Te  Te0  1  0.87477187  0.84562410  0.86712576  1
  As  As0  1  0.36079657  0.65130720  0.17315508  1
  As  As1  1  0.86194560  0.34748578  0.32748983  1
  As  As2  1  0.63789831  0.34834322  0.82612774  1
  As  As3  1  0.14387604  0.65030716  0.67035031  1
  Ru  Ru0  1  0.00643741  0.72187927  0.29441094  1
  Ru  Ru1  1  0.50443411  0.27532296  0.20997813  1
  Ru  Ru2  1  0.99703071  0.28168415  0.70630115  1
  Ru  Ru3  1  0.49204559  0.72151583  0.78987579  1
  Se  Se0  1  0.62024523  0.84253552  0.36720030  1
  Se  Se1  1  0.12263384  0.15701774  0.13433658  1
  Se  Se2  1  0.37788571  0.15697808  0.63364741  1
loop_
_geom_bond_atom_site_label_1
_geom_bond_atom_site_label_2
_geom_bond_distance
_geom_bond_site_symmetry_2
As0 Ru0 2.398524 1_555
As0 Ru3 2.403298 1_554
As0 Ru1 2.413969 1_555
As0 Se0 2.574654 1_555
As1 Ru2 2.402273 1_555
As1 Ru0 2.426986 1_655
As1 Ru1 2.428609 1_555
As1 Se1 2.547116 1_655
As2 Ru3 2.403782 1_555
As2 Ru1 2.407655 1_556
As2 Ru2 2.414862 1_555
As2 Se2 2.570972 1_555
As3 Ru3 2.379333 1_555
As3 Ru0 2.383393 1_555
As3 Ru2 2.394282 1_455
As3 Te0 2.613549 1_455
Ru0 Se0 2.578668 1_455
Ru0 Se1 2.593555 1_565
Ru0 Te0 2.616987 1_454
Ru1 Se0 2.571774 1_545
Ru1 Se1 2.572838 1_555
Ru1 Se2 2.580694 1_555
Ru2 Se2 2.557256 1_655
Ru2 Se1 2.609119 1_656
Ru2 Te0 2.609335 1_545
Ru3 Se0 2.576234 1_555
Ru3 Se2 2.584018 1_565
Ru3 Te0 2.594506 1_555
