# generated using pymatgen
data_K3Ba3AlP4
_symmetry_space_group_name_H-M   'P 1'
_cell_length_a   10.17610464
_cell_length_b   10.17629693
_cell_length_c   7.83934262
_cell_angle_alpha   90.00000000
_cell_angle_beta   90.00000000
_cell_angle_gamma   119.99926592
_symmetry_Int_Tables_number   1
_chemical_formula_structural   K3Ba3AlP4
_chemical_formula_sum   'K6 Ba6 Al2 P8'
_cell_volume   703.04775315
_cell_formula_units_Z   2
loop_
 _symmetry_equiv_pos_site_id
 _symmetry_equiv_pos_as_xyz
  1  'x, y, z'
loop_
 _atom_site_type_symbol
 _atom_site_label
 _atom_site_symmetry_multiplicity
 _atom_site_fract_x
 _atom_site_fract_y
 _atom_site_fract_z
 _atom_site_occupancy
  K  K0  1  0.73086069  0.86542259  0.17200801  1
  K  K1  1  0.86542969  0.13457558  0.67201644  1
  K  K2  1  0.86542258  0.73084720  0.67200894  1
  K  K3  1  0.13457742  0.26915280  0.17200894  1
  K  K4  1  0.13457031  0.86542442  0.17201644  1
  K  K5  1  0.26913931  0.13457741  0.67200801  1
  Ba  Ba0  1  0.05006790  0.52503457  0.49759168  1
  Ba  Ba1  1  0.47496805  0.94993551  0.49759063  1
  Ba  Ba2  1  0.47496719  0.52503463  0.49759142  1
  Ba  Ba3  1  0.52503281  0.47496537  0.99759142  1
  Ba  Ba4  1  0.52503195  0.05006449  0.99759063  1
  Ba  Ba5  1  0.94993210  0.47496543  0.99759168  1
  Al  Al0  1  0.33333367  0.66666712  0.87855311  1
  Al  Al1  1  0.66666633  0.33333288  0.37855311  1
  P  P0  1  0.66666609  0.33333234  0.69864988  1
  P  P1  1  0.59672688  0.79836247  0.78106246  1
  P  P2  1  0.79836460  0.20163783  0.28106236  1
  P  P3  1  0.79836269  0.59672482  0.28106307  1
  P  P4  1  0.33333391  0.66666766  0.19864988  1
  P  P5  1  0.20163731  0.40327518  0.78106307  1
  P  P6  1  0.20163540  0.79836217  0.78106236  1
  P  P7  1  0.40327312  0.20163753  0.28106246  1
loop_
_geom_bond_atom_site_label_1
_geom_bond_atom_site_label_2
_geom_bond_distance
_geom_bond_site_symmetry_2
K0 P3 3.249245 1_555
K0 P2 3.249413 1_565
K0 P1 3.284827 1_554
K0 P4 3.509556 1_555
K1 P5 3.249290 1_655
K1 P1 3.249359 1_545
K1 P2 3.284868 1_555
K1 P0 3.509490 1_555
K2 P1 3.249266 1_555
K2 P6 3.249287 1_655
K2 P3 3.284801 1_555
K2 P0 3.509517 1_555
K3 P7 3.249266 1_555
K3 P2 3.249287 1_455
K3 P5 3.284801 1_554
K3 P4 3.509517 1_555
K4 P3 3.249290 1_455
K4 P7 3.249359 1_565
K4 P6 3.284868 1_554
K4 P4 3.509490 1_555
K5 P5 3.249245 1_555
K5 P6 3.249413 1_545
K5 P7 3.284827 1_555
K5 P0 3.509556 1_555
Ba0 P5 3.280792 1_555
Ba0 P6 3.280818 1_555
Ba0 P4 3.424020 1_555
Ba0 P3 3.441335 1_455
Ba0 P2 3.441402 1_455
Ba0 P0 3.728398 1_455
Ba1 P1 3.280820 1_555
Ba1 P6 3.280827 1_555
Ba1 P4 3.424061 1_555
Ba1 P7 3.441367 1_565
Ba1 P2 3.441371 1_565
Ba1 P0 3.728420 1_565
Ba2 P5 3.280803 1_555
Ba2 P1 3.280822 1_555
Ba2 P4 3.424018 1_555
Ba2 P3 3.441337 1_555
Ba2 P7 3.441399 1_555
Ba2 P0 3.728389 1_555
Ba3 P3 3.280803 1_556
Ba3 P7 3.280822 1_556
Ba3 P0 3.424018 1_555
Ba3 P5 3.441337 1_555
Ba3 P1 3.441399 1_555
Ba3 P4 3.728389 1_556
Ba4 P7 3.280820 1_556
Ba4 P2 3.280827 1_556
Ba4 P0 3.424061 1_555
Ba4 P1 3.441367 1_545
Ba4 P6 3.441371 1_545
Ba4 P4 3.728420 1_546
Ba5 P3 3.280792 1_556
Ba5 P2 3.280818 1_556
Ba5 P0 3.424020 1_555
Ba5 P5 3.441335 1_655
Ba5 P6 3.441402 1_655
Ba5 P4 3.728398 1_656
Al0 P6 2.443816 1_555
Al0 P1 2.443819 1_555
Al0 P5 2.443848 1_555
Al0 P4 2.509348 1_556
Al1 P2 2.443816 1_555
Al1 P7 2.443819 1_555
Al1 P3 2.443848 1_555
Al1 P0 2.509348 1_555
