# generated using pymatgen
data_KTeRuO6
_symmetry_space_group_name_H-M   'P 1'
_cell_length_a   5.18835385
_cell_length_b   5.18835281
_cell_length_c   5.97934841
_cell_angle_alpha   90.00000000
_cell_angle_beta   90.00000000
_cell_angle_gamma   120.00001266
_symmetry_Int_Tables_number   1
_chemical_formula_structural   KTeRuO6
_chemical_formula_sum   'K1 Te1 Ru1 O6'
_cell_volume   139.39382161
_cell_formula_units_Z   1
loop_
 _symmetry_equiv_pos_site_id
 _symmetry_equiv_pos_as_xyz
  1  'x, y, z'
loop_
 _atom_site_type_symbol
 _atom_site_label
 _atom_site_symmetry_multiplicity
 _atom_site_fract_x
 _atom_site_fract_y
 _atom_site_fract_z
 _atom_site_occupancy
  K  K0  1  0.00000000  0.00000000  0.00000000  1
  Te  Te0  1  0.66666700  0.33333300  0.50000000  1
  Ru  Ru0  1  0.33333300  0.66666700  0.50000000  1
  O  O0  1  0.37937810  0.00294163  0.68000257  1
  O  O1  1  0.99705837  0.37643647  0.68000257  1
  O  O2  1  0.62356353  0.62062190  0.68000257  1
  O  O3  1  0.99705837  0.62062190  0.31999743  1
  O  O4  1  0.62356353  0.00294163  0.31999743  1
  O  O5  1  0.37937810  0.37643647  0.31999743  1
loop_
_geom_bond_atom_site_label_1
_geom_bond_atom_site_label_2
_geom_bond_distance
_geom_bond_site_symmetry_2
K0 O2 2.739633 1_444
K0 O5 2.739633 1_555
K0 O3 2.739633 1_445
K0 O1 2.739633 1_454
K0 O0 2.739634 1_554
K0 O4 2.739634 1_455
O0 Te0 1.939979 1_555
O0 Ru0 1.960280 1_545
O1 Te0 1.939978 1_555
O1 Ru0 1.960282 1_655
O2 Te0 1.939982 1_555
O2 Ru0 1.960285 1_555
O3 Te0 1.939979 1_555
O3 Ru0 1.960281 1_655
O4 Te0 1.939978 1_555
O4 Ru0 1.960282 1_545
O5 Te0 1.939982 1_555
O5 Ru0 1.960285 1_555
