# generated using pymatgen
data_Cs6BiTe4Br
_symmetry_space_group_name_H-M   'P 1'
_cell_length_a   12.37096464
_cell_length_b   12.37096362
_cell_length_c   9.06543335
_cell_angle_alpha   90.00000000
_cell_angle_beta   90.00000000
_cell_angle_gamma   120.00000274
_symmetry_Int_Tables_number   1
_chemical_formula_structural   Cs6BiTe4Br
_chemical_formula_sum   'Cs12 Bi2 Te8 Br2'
_cell_volume   1201.50694155
_cell_formula_units_Z   2
loop_
 _symmetry_equiv_pos_site_id
 _symmetry_equiv_pos_as_xyz
  1  'x, y, z'
loop_
 _atom_site_type_symbol
 _atom_site_label
 _atom_site_symmetry_multiplicity
 _atom_site_fract_x
 _atom_site_fract_y
 _atom_site_fract_z
 _atom_site_occupancy
  Cs  Cs0  1  0.13122425  0.86877575  0.51123883  1
  Cs  Cs1  1  0.73754949  0.86877575  0.51123883  1
  Cs  Cs2  1  0.95095059  0.47547580  0.32233772  1
  Cs  Cs3  1  0.52452420  0.47547580  0.32233772  1
  Cs  Cs4  1  0.86877575  0.73754949  0.01123883  1
  Cs  Cs5  1  0.26245051  0.13122425  0.01123883  1
  Cs  Cs6  1  0.52452420  0.04904941  0.32233772  1
  Cs  Cs7  1  0.13122425  0.26245051  0.51123883  1
  Cs  Cs8  1  0.86877575  0.13122425  0.01123883  1
  Cs  Cs9  1  0.04904941  0.52452420  0.82233772  1
  Cs  Cs10  1  0.47547580  0.95095059  0.82233772  1
  Cs  Cs11  1  0.47547580  0.52452420  0.82233772  1
  Bi  Bi0  1  0.66666700  0.33333300  0.71330899  1
  Bi  Bi1  1  0.33333300  0.66666700  0.21330899  1
  Te  Te0  1  0.40150398  0.20075199  0.60276908  1
  Te  Te1  1  0.59849602  0.79924801  0.10276908  1
  Te  Te2  1  0.66666700  0.33333300  0.05137150  1
  Te  Te3  1  0.79924801  0.59849602  0.60276908  1
  Te  Te4  1  0.20075199  0.40150398  0.10276908  1
  Te  Te5  1  0.33333300  0.66666700  0.55137150  1
  Te  Te6  1  0.20075199  0.79924801  0.10276908  1
  Te  Te7  1  0.79924801  0.20075199  0.60276908  1
  Br  Br0  1  0.00000000  0.00000000  0.26688562  1
  Br  Br1  1  0.00000000  0.00000000  0.76688562  1
loop_
_geom_bond_atom_site_label_1
_geom_bond_atom_site_label_2
_geom_bond_distance
_geom_bond_site_symmetry_2
Cs0 Te0 3.873351 1_565
Cs0 Te3 3.873351 1_455
Cs0 Te6 3.991406 1_555
Cs0 Te5 4.345868 1_555
Cs1 Te7 3.873343 1_565
Cs1 Te3 3.873367 1_555
Cs1 Te1 3.991398 1_555
Cs1 Te5 4.345857 1_555
Cs2 Te3 3.893226 1_555
Cs2 Te7 3.893234 1_555
Cs2 Te2 3.912834 1_555
Cs2 Te6 4.144534 1_655
Cs2 Te4 4.144542 1_655
Cs3 Te0 3.893234 1_555
Cs3 Te3 3.893234 1_555
Cs3 Te2 3.912851 1_555
Cs3 Te1 4.144531 1_555
Cs3 Te4 4.144531 1_555
Cs4 Te6 3.873343 1_655
Cs4 Te1 3.873367 1_555
Cs4 Te3 3.991398 1_554
Cs4 Te2 4.345857 1_555
Cs5 Te6 3.873343 1_545
Cs5 Te4 3.873367 1_555
Cs5 Te0 3.991398 1_554
Cs5 Te2 4.345857 1_555
Cs6 Te0 3.893226 1_555
Cs6 Te7 3.893234 1_555
Cs6 Te2 3.912834 1_555
Cs6 Te6 4.144534 1_545
Cs6 Te1 4.144542 1_545
Cs7 Te7 3.873343 1_455
Cs7 Te0 3.873367 1_555
Cs7 Te4 3.991398 1_555
Cs7 Te5 4.345857 1_555
Cs8 Te1 3.873351 1_545
Cs8 Te4 3.873351 1_655
Cs8 Te7 3.991406 1_554
Cs8 Te2 4.345868 1_555
Cs9 Te4 3.893226 1_556
Cs9 Te6 3.893234 1_556
Cs9 Te5 3.912834 1_555
Cs9 Te7 4.144534 1_455
Cs9 Te3 4.144542 1_455
Cs10 Te1 3.893226 1_556
Cs10 Te6 3.893234 1_556
Cs10 Te5 3.912834 1_555
Cs10 Te7 4.144534 1_565
Cs10 Te0 4.144542 1_565
Cs11 Te1 3.893234 1_556
Cs11 Te4 3.893234 1_556
Cs11 Te5 3.912851 1_555
Cs11 Te0 4.144531 1_555
Cs11 Te3 4.144531 1_555
Bi0 Te7 3.012393 1_555
Bi0 Te3 3.012403 1_555
Bi0 Te0 3.012403 1_555
Bi0 Te2 3.064683 1_556
Bi0 Cs10 4.214227 1_545
Bi0 Cs11 4.214227 1_555
Bi0 Cs9 4.214227 1_655
Bi1 Te6 3.012393 1_555
Bi1 Te4 3.012403 1_555
Bi1 Te1 3.012403 1_555
Bi1 Te5 3.064683 1_555
Bi1 Cs6 4.214227 1_565
Bi1 Cs3 4.214227 1_555
Bi1 Cs2 4.214227 1_455
Br0 Cs0 3.579520 1_545
Br0 Cs7 3.579537 1_555
Br0 Cs1 3.579537 1_445
Br0 Cs8 3.643766 1_455
Br0 Cs4 3.643782 1_445
Br0 Cs5 3.643782 1_555
Br1 Cs8 3.579520 1_456
Br1 Cs4 3.579537 1_446
Br1 Cs5 3.579537 1_556
Br1 Cs0 3.643766 1_545
Br1 Cs7 3.643782 1_555
Br1 Cs1 3.643782 1_445
