# generated using pymatgen
data_Hf10BeSiSn6
_symmetry_space_group_name_H-M   'P 1'
_cell_length_a   8.53509706
_cell_length_b   8.53509613
_cell_length_c   5.74987460
_cell_angle_alpha   90.00000000
_cell_angle_beta   90.00000000
_cell_angle_gamma   120.00000364
_symmetry_Int_Tables_number   1
_chemical_formula_structural   Hf10BeSiSn6
_chemical_formula_sum   'Hf10 Be1 Si1 Sn6'
_cell_volume   362.74870438
_cell_formula_units_Z   1
loop_
 _symmetry_equiv_pos_site_id
 _symmetry_equiv_pos_as_xyz
  1  'x, y, z'
loop_
 _atom_site_type_symbol
 _atom_site_label
 _atom_site_symmetry_multiplicity
 _atom_site_fract_x
 _atom_site_fract_y
 _atom_site_fract_z
 _atom_site_occupancy
  Hf  Hf0  1  0.66666700  0.33333300  0.00000000  1
  Hf  Hf1  1  0.33333300  0.66666700  0.00000000  1
  Hf  Hf2  1  0.33333300  0.66666700  0.50000000  1
  Hf  Hf3  1  0.66666700  0.33333300  0.50000000  1
  Hf  Hf4  1  0.74490785  0.74490785  0.75685387  1
  Hf  Hf5  1  0.25509215  0.00000000  0.75685387  1
  Hf  Hf6  1  1.00000000  0.25509215  0.75685387  1
  Hf  Hf7  1  0.25509215  0.25509215  0.24314613  1
  Hf  Hf8  1  0.74490785  0.00000000  0.24314613  1
  Hf  Hf9  1  0.00000000  0.74490785  0.24314613  1
  Be  Be0  1  0.00000000  0.00000000  0.00000000  1
  Si  Si0  1  0.00000000  0.00000000  0.50000000  1
  Sn  Sn0  1  0.39275769  0.39275769  0.74855801  1
  Sn  Sn1  1  0.60724231  0.00000000  0.74855801  1
  Sn  Sn2  1  1.00000000  0.60724231  0.74855801  1
  Sn  Sn3  1  0.60724231  0.60724231  0.25144199  1
  Sn  Sn4  1  0.39275769  0.00000000  0.25144199  1
  Sn  Sn5  1  0.00000000  0.39275769  0.25144199  1
loop_
_geom_bond_atom_site_label_1
_geom_bond_atom_site_label_2
_geom_bond_distance
_geom_bond_site_symmetry_2
Hf0 Sn1 2.999779 1_554
Hf0 Sn5 2.999779 1_655
Hf0 Sn4 2.999782 1_555
Hf0 Sn2 2.999782 1_554
Hf0 Sn3 2.999786 1_555
Hf0 Sn0 2.999787 1_554
Hf1 Sn4 2.999779 1_565
Hf1 Sn2 2.999779 1_454
Hf1 Sn1 2.999782 1_564
Hf1 Sn5 2.999782 1_555
Hf1 Sn0 2.999786 1_554
Hf1 Sn3 2.999787 1_555
Hf2 Sn4 2.991822 1_565
Hf2 Sn2 2.991823 1_455
Hf2 Sn1 2.991825 1_565
Hf2 Sn5 2.991825 1_555
Hf2 Sn0 2.991830 1_555
Hf2 Sn3 2.991830 1_555
Hf3 Sn1 2.991822 1_555
Hf3 Sn5 2.991823 1_655
Hf3 Sn4 2.991825 1_555
Hf3 Sn2 2.991825 1_555
Hf3 Sn3 2.991830 1_555
Hf3 Sn0 2.991830 1_555
Hf4 Si0 2.630879 1_665
Hf4 Sn1 2.946432 1_565
Hf4 Sn2 2.946432 1_555
Hf4 Sn0 3.006014 1_555
Hf4 Sn3 3.076997 1_556
Hf4 Sn3 3.134606 1_555
Hf5 Si0 2.630879 1_555
Hf5 Sn0 2.946431 1_555
Hf5 Sn2 2.946431 1_445
Hf5 Sn1 3.006014 1_555
Hf5 Sn4 3.076997 1_556
Hf5 Sn4 3.134606 1_555
Hf6 Si0 2.630879 1_655
Hf6 Sn1 2.946432 1_555
Hf6 Sn0 2.946432 1_655
Hf6 Sn2 3.006014 1_555
Hf6 Sn5 3.076997 1_656
Hf6 Sn5 3.134606 1_655
Hf7 Si0 2.630879 1_555
Hf7 Sn4 2.946432 1_555
Hf7 Sn5 2.946432 1_555
Hf7 Sn3 3.006014 1_555
Hf7 Sn0 3.076997 1_554
Hf7 Sn0 3.134606 1_555
Hf8 Si0 2.630879 1_655
Hf8 Sn3 2.946431 1_545
Hf8 Sn5 2.946431 1_655
Hf8 Sn4 3.006014 1_555
Hf8 Sn1 3.076997 1_554
Hf8 Sn1 3.134606 1_555
Hf9 Si0 2.630879 1_565
Hf9 Sn4 2.946432 1_565
Hf9 Sn3 2.946432 1_455
Hf9 Sn5 3.006014 1_555
Hf9 Sn2 3.076997 1_454
Hf9 Sn2 3.134606 1_455
Be0 Hf6 2.587456 1_454
Be0 Hf9 2.587456 1_545
Be0 Hf7 2.587456 1_555
Be0 Hf4 2.587456 1_444
Be0 Hf5 2.587456 1_554
Be0 Hf8 2.587456 1_455
