# generated using pymatgen
data_IrOs3Pb4O13
_symmetry_space_group_name_H-M   'P 1'
_cell_length_a   7.33539929
_cell_length_b   7.33539975
_cell_length_c   7.30033633
_cell_angle_alpha   120.15900850
_cell_angle_beta   90.00000002
_cell_angle_gamma   120.00000231
_symmetry_Int_Tables_number   1
_chemical_formula_structural   IrOs3Pb4O13
_chemical_formula_sum   'Ir1 Os3 Pb4 O13'
_cell_volume   277.09419014
_cell_formula_units_Z   1
loop_
 _symmetry_equiv_pos_site_id
 _symmetry_equiv_pos_as_xyz
  1  'x, y, z'
loop_
 _atom_site_type_symbol
 _atom_site_label
 _atom_site_symmetry_multiplicity
 _atom_site_fract_x
 _atom_site_fract_y
 _atom_site_fract_z
 _atom_site_occupancy
  Ir  Ir0  1  0.62491275  0.24982449  0.87473724  1
  Os  Os0  1  0.62494131  0.24988263  0.37552872  1
  Os  Os1  1  0.12564709  0.75058641  0.37552872  1
  Os  Os2  1  0.62494131  0.75058641  0.37552872  1
  Pb  Pb0  1  0.12263879  0.24527659  0.36791538  1
  Pb  Pb1  1  0.12403367  0.24806634  0.87828768  1
  Pb  Pb2  1  0.12403367  0.75425401  0.87828768  1
  Pb  Pb3  1  0.63022134  0.75425401  0.87828768  1
  O  O0  1  0.54644039  0.09288077  0.05065214  1
  O  O1  1  0.54644039  0.50421175  0.05065214  1
  O  O2  1  0.95777137  0.50421175  0.05065314  1
  O  O3  1  0.30922320  0.00636226  0.31558546  1
  O  O4  1  0.69713906  0.00636226  0.31558546  1
  O  O5  1  0.30922320  0.61844540  0.31558546  1
  O  O6  1  0.94484439  0.49354449  0.43838688  1
  O  O7  1  0.94484439  0.88968778  0.43838688  1
  O  O8  1  0.54870010  0.49354449  0.43838788  1
  O  O9  1  0.29702226  0.99597940  0.69493755  1
  O  O10  1  0.69895714  0.99597940  0.69493755  1
  O  O11  1  0.69895714  0.39791529  0.69493755  1
  O  O12  1  0.24907103  0.49814306  0.74721409  1
loop_
_geom_bond_atom_site_label_1
_geom_bond_atom_site_label_2
_geom_bond_distance
_geom_bond_site_symmetry_2
Ir0 O10 2.010141 1_545
Ir0 O9 2.010146 1_545
Ir0 O11 2.010147 1_555
Ir0 O0 2.031961 1_556
Ir0 O2 2.031962 1_556
Ir0 O1 2.031966 1_556
O0 Os0 1.968556 1_555
O0 Pb2 2.552848 1_544
O0 Pb3 2.552853 1_544
O1 Os2 1.968555 1_555
O1 Pb1 2.552847 1_554
O1 Pb3 2.552847 1_554
O2 Os1 1.968552 1_655
O2 Pb2 2.552854 1_654
O2 Pb1 2.552854 1_654
O3 Os0 1.955373 1_555
O3 Os1 1.955377 1_545
O3 Pb0 2.610840 1_555
O3 Pb2 2.648121 1_544
O4 Os0 1.955374 1_555
O4 Os2 1.955380 1_545
O4 Pb0 2.610846 1_655
O4 Pb3 2.648122 1_544
O5 Os1 1.955367 1_555
O5 Os2 1.955373 1_555
O5 Pb0 2.610840 1_555
O5 Pb1 2.648121 1_554
O6 Os1 1.973167 1_655
O6 Os0 1.973185 1_555
O6 Pb0 2.591499 1_655
O6 Pb2 2.648300 1_655
O7 Os2 1.973182 1_555
O7 Os1 1.973189 1_655
O7 Pb0 2.591487 1_665
O7 Pb1 2.648298 1_665
O8 Os2 1.973169 1_555
O8 Os0 1.973183 1_555
O8 Pb0 2.591492 1_555
O8 Pb3 2.648293 1_555
O9 Os1 1.943552 1_555
O9 Pb2 2.584701 1_555
O9 Pb1 2.584701 1_565
O10 Os2 1.943554 1_555
O10 Pb3 2.584702 1_555
O10 Pb1 2.584707 1_665
O11 Os0 1.943553 1_555
O11 Pb3 2.584696 1_555
O11 Pb2 2.584706 1_655
O12 Pb0 2.255437 1_555
O12 Pb2 2.281034 1_555
O12 Pb3 2.281046 1_555
O12 Pb1 2.281046 1_555
