# generated using pymatgen
data_Cs3Bi(AsS2)6
_symmetry_space_group_name_H-M   'P 1'
_cell_length_a   9.65410214
_cell_length_b   9.65410119
_cell_length_c   8.44928133
_cell_angle_alpha   90.00000000
_cell_angle_beta   90.00000000
_cell_angle_gamma   119.99999754
_symmetry_Int_Tables_number   1
_chemical_formula_structural   Cs3Bi(AsS2)6
_chemical_formula_sum   'Cs3 Bi1 As6 S12'
_cell_volume   681.98394248
_cell_formula_units_Z   1
loop_
 _symmetry_equiv_pos_site_id
 _symmetry_equiv_pos_as_xyz
  1  'x, y, z'
loop_
 _atom_site_type_symbol
 _atom_site_label
 _atom_site_symmetry_multiplicity
 _atom_site_fract_x
 _atom_site_fract_y
 _atom_site_fract_z
 _atom_site_occupancy
  Cs  Cs0  1  0.00000000  0.00000000  0.00000000  1
  Cs  Cs1  1  0.33333300  0.66666700  0.85361251  1
  Cs  Cs2  1  0.66666700  0.33333300  0.14638749  1
  Bi  Bi0  1  0.00000000  0.00000000  0.50000000  1
  As  As0  1  0.28890269  0.83546332  0.39228375  1
  As  As1  1  0.16453668  0.45343937  0.39228375  1
  As  As2  1  0.54656063  0.71109731  0.39228375  1
  As  As3  1  0.71109731  0.16453668  0.60771625  1
  As  As4  1  0.83546332  0.54656063  0.60771625  1
  As  As5  1  0.45343937  0.28890269  0.60771625  1
  S  S0  1  0.25404548  0.02959599  0.30369392  1
  S  S1  1  0.97040401  0.22445049  0.30369392  1
  S  S2  1  0.77554951  0.74595452  0.30369392  1
  S  S3  1  0.74595452  0.97040401  0.69630608  1
  S  S4  1  0.02959599  0.77554951  0.69630608  1
  S  S5  1  0.22445049  0.25404548  0.69630608  1
  S  S6  1  0.51650874  0.89813946  0.24840209  1
  S  S7  1  0.10186054  0.61836828  0.24840209  1
  S  S8  1  0.38163172  0.48349126  0.24840209  1
  S  S9  1  0.48349126  0.10186054  0.75159791  1
  S  S10  1  0.89813946  0.38163172  0.75159791  1
  S  S11  1  0.61836828  0.51650874  0.75159791  1
loop_
_geom_bond_atom_site_label_1
_geom_bond_atom_site_label_2
_geom_bond_distance
_geom_bond_site_symmetry_2
Cs0 S0 3.461266 1_555
Cs0 S3 3.461266 1_444
Cs0 S5 3.461269 1_554
Cs0 S2 3.461269 1_445
Cs0 S1 3.461273 1_455
Cs0 S4 3.461273 1_544
Cs1 S9 3.795480 1_565
Cs1 S11 3.795481 1_555
Cs1 S10 3.795481 1_455
Cs1 S4 3.814746 1_555
Cs1 S3 3.814758 1_555
Cs1 S5 3.814763 1_555
Cs1 S7 3.911004 1_556
Cs1 S6 3.911008 1_556
Cs1 S8 3.911014 1_556
Cs2 S6 3.795480 1_545
Cs2 S8 3.795481 1_555
Cs2 S7 3.795481 1_655
Cs2 S1 3.814746 1_555
Cs2 S0 3.814758 1_555
Cs2 S2 3.814763 1_555
Cs2 S10 3.911004 1_554
Cs2 S9 3.911008 1_554
Cs2 S11 3.911014 1_554
Bi0 S0 2.854319 1_555
Bi0 S3 2.854319 1_445
Bi0 S5 2.854322 1_555
Bi0 S2 2.854322 1_445
Bi0 S1 2.854327 1_455
Bi0 S4 2.854327 1_545
As0 S0 2.194710 1_565
As0 S6 2.311438 1_555
As0 S7 2.312279 1_555
As1 S1 2.194704 1_455
As1 S7 2.311430 1_555
As1 S8 2.312283 1_555
As2 S2 2.194701 1_555
As2 S8 2.311436 1_555
As2 S6 2.312274 1_555
As3 S3 2.194710 1_545
As3 S9 2.311438 1_555
As3 S10 2.312279 1_555
As4 S4 2.194704 1_655
As4 S10 2.311430 1_555
As4 S11 2.312283 1_555
As5 S5 2.194701 1_555
As5 S11 2.311436 1_555
As5 S9 2.312274 1_555
