# generated using pymatgen
data_Hf5SiSn2Sb
_symmetry_space_group_name_H-M   'P 1'
_cell_length_a   8.56416091
_cell_length_b   8.56415907
_cell_length_c   5.75999352
_cell_angle_alpha   90.00000000
_cell_angle_beta   90.00000000
_cell_angle_gamma   120.03141422
_symmetry_Int_Tables_number   1
_chemical_formula_structural   Hf5SiSn2Sb
_chemical_formula_sum   'Hf10 Si2 Sn4 Sb2'
_cell_volume   365.75022985
_cell_formula_units_Z   2
loop_
 _symmetry_equiv_pos_site_id
 _symmetry_equiv_pos_as_xyz
  1  'x, y, z'
loop_
 _atom_site_type_symbol
 _atom_site_label
 _atom_site_symmetry_multiplicity
 _atom_site_fract_x
 _atom_site_fract_y
 _atom_site_fract_z
 _atom_site_occupancy
  Hf  Hf0  1  0.66694066  0.33237579  0.99833953  1
  Hf  Hf1  1  0.33237579  0.66694066  0.99833953  1
  Hf  Hf2  1  0.33237579  0.66694066  0.50166047  1
  Hf  Hf3  1  0.66694066  0.33237579  0.50166047  1
  Hf  Hf4  1  0.73615121  0.73615121  0.75000000  1
  Hf  Hf5  1  0.26497744  0.00022895  0.75000000  1
  Hf  Hf6  1  0.00022895  0.26497744  0.75000000  1
  Hf  Hf7  1  0.25363327  0.25363327  0.25000000  1
  Hf  Hf8  1  0.74503359  0.99989541  0.25000000  1
  Hf  Hf9  1  0.99989541  0.74503359  0.25000000  1
  Si  Si0  1  0.99978187  0.99978187  0.98917508  1
  Si  Si1  1  0.99978187  0.99978187  0.51082492  1
  Sn  Sn0  1  0.39314750  0.39314750  0.75000000  1
  Sn  Sn1  1  0.60916503  0.99944709  0.75000000  1
  Sn  Sn2  1  0.99944709  0.60916503  0.75000000  1
  Sn  Sn3  1  0.60141328  0.60141328  0.25000000  1
  Sb  Sb0  1  0.39890310  0.99980549  0.25000000  1
  Sb  Sb1  1  0.99980549  0.39890310  0.25000000  1
loop_
_geom_bond_atom_site_label_1
_geom_bond_atom_site_label_2
_geom_bond_distance
_geom_bond_site_symmetry_2
Hf0 Sb1 2.987750 1_556
Hf0 Sb0 2.989736 1_546
Hf0 Sn1 3.001413 1_545
Hf0 Sn2 3.002942 1_555
Hf0 Sn3 3.003197 1_556
Hf0 Sn0 3.006107 1_555
Hf1 Sb0 2.987749 1_556
Hf1 Sb1 2.989736 1_456
Hf1 Sn2 3.001414 1_455
Hf1 Sn1 3.002941 1_555
Hf1 Sn3 3.003198 1_556
Hf1 Sn0 3.006107 1_555
Hf2 Sb0 2.987749 1_555
Hf2 Sb1 2.989736 1_455
Hf2 Sn2 3.001414 1_455
Hf2 Sn1 3.002941 1_555
Hf2 Sn3 3.003198 1_555
Hf2 Sn0 3.006107 1_555
Hf3 Sb1 2.987750 1_555
Hf3 Sb0 2.989736 1_545
Hf3 Sn1 3.001413 1_545
Hf3 Sn2 3.002942 1_555
Hf3 Sn3 3.003197 1_555
Hf3 Sn0 3.006107 1_555
Hf4 Si0 2.643978 1_555
Hf4 Si1 2.643978 1_555
Hf4 Sn0 2.936144 1_555
Hf4 Sn1 2.953293 1_555
Hf4 Sn2 2.953293 1_555
Hf4 Sn3 3.102361 1_555
Hf4 Sn3 3.102361 1_556
Hf5 Si0 2.654707 1_445
Hf5 Si1 2.654707 1_445
Hf5 Sn1 2.951035 1_545
Hf5 Sn2 2.960518 1_445
Hf5 Sn0 2.971706 1_555
Hf5 Sb0 3.100658 1_546
Hf5 Sb0 3.100658 1_545
Hf6 Si0 2.654706 1_445
Hf6 Si1 2.654706 1_445
Hf6 Sn2 2.951034 1_455
Hf6 Sn1 2.960518 1_445
Hf6 Sn0 2.971706 1_555
Hf6 Sb1 3.100657 1_456
Hf6 Sb1 3.100657 1_455
Hf7 Si1 2.641770 1_445
Hf7 Si0 2.641770 1_444
Hf7 Sn3 2.977029 1_555
Hf7 Sb0 2.996727 1_545
Hf7 Sb1 2.996727 1_455
Hf7 Sn0 3.117792 1_554
Hf7 Sn0 3.117792 1_555
Hf8 Si1 2.649343 1_555
Hf8 Si0 2.649343 1_554
Hf8 Sb0 2.963932 1_555
Hf8 Sn3 2.992929 1_555
Hf8 Sb1 2.995784 1_565
Hf8 Sn1 3.105461 1_555
Hf8 Sn1 3.105461 1_554
Hf9 Si1 2.649342 1_555
Hf9 Si0 2.649342 1_554
Hf9 Sb1 2.963931 1_555
Hf9 Sn3 2.992930 1_555
Hf9 Sb0 2.995784 1_655
Hf9 Sn2 3.105461 1_555
Hf9 Sn2 3.105461 1_554
