# generated using pymatgen
data_Ti6CuSi6Tc5
_symmetry_space_group_name_H-M   'P 1'
_cell_length_a   7.47462981
_cell_length_b   7.47996473
_cell_length_c   7.47468524
_cell_angle_alpha   126.43904593
_cell_angle_beta   128.67336406
_cell_angle_gamma   77.34817282
_symmetry_Int_Tables_number   1
_chemical_formula_structural   Ti6CuSi6Tc5
_chemical_formula_sum   'Ti6 Cu1 Si6 Tc5'
_cell_volume   254.66505656
_cell_formula_units_Z   1
loop_
 _symmetry_equiv_pos_site_id
 _symmetry_equiv_pos_as_xyz
  1  'x, y, z'
loop_
 _atom_site_type_symbol
 _atom_site_label
 _atom_site_symmetry_multiplicity
 _atom_site_fract_x
 _atom_site_fract_y
 _atom_site_fract_z
 _atom_site_occupancy
  Ti  Ti0  1  0.24904390  0.89871581  0.15205511  1
  Ti  Ti1  1  0.95139840  0.49346762  0.04233119  1
  Ti  Ti2  1  0.04885609  0.09907259  0.54489534  1
  Ti  Ti3  1  0.45093067  0.49328357  0.54208447  1
  Ti  Ti4  1  0.74670982  0.89835071  0.64921047  1
  Ti  Ti5  1  0.55439338  0.09977029  0.05034470  1
  Cu  Cu0  1  0.13447779  0.76446620  0.63224526  1
  Si  Si0  1  0.75774983  0.50388198  0.25428603  1
  Si  Si1  1  0.16612996  0.16141168  0.99507046  1
  Si  Si2  1  0.66514222  0.15875755  0.49333941  1
  Si  Si3  1  0.33289229  0.82871905  0.49604182  1
  Si  Si4  1  0.24922456  0.50327111  0.74600974  1
  Si  Si5  1  0.83048320  0.82751800  0.99666197  1
  Tc  Tc0  1  0.49894686  0.23552803  0.73638804  1
  Tc  Tc1  1  0.99867779  0.23312922  0.23437115  1
  Tc  Tc2  1  0.86818162  0.49475438  0.62623651  1
  Tc  Tc3  1  0.62805610  0.75509133  0.12637102  1
  Tc  Tc4  1  0.36870753  0.49301988  0.12426632  1
loop_
_geom_bond_atom_site_label_1
_geom_bond_atom_site_label_2
_geom_bond_distance
_geom_bond_site_symmetry_2
Cu0 Si4 2.367244 1_555
Cu0 Si0 2.372864 1_455
Cu0 Si1 2.483331 1_565
Cu0 Si3 2.499492 1_555
Cu0 Ti5 2.790501 1_566
Cu0 Ti2 2.795974 1_565
Cu0 Ti0 2.902012 1_556
Cu0 Ti3 2.903483 1_555
Cu0 Ti4 2.908061 1_455
Cu0 Ti1 2.912157 1_455
Si0 Tc3 2.358524 1_555
Si0 Tc1 2.397082 1_555
Si0 Tc2 2.397568 1_555
Si0 Tc0 2.422445 1_554
Si0 Tc4 2.425903 1_555
Si0 Ti4 2.697720 1_555
Si0 Ti1 2.698354 1_555
Si0 Ti5 2.722905 1_555
Si1 Tc4 2.519941 1_556
Si1 Tc1 2.533339 1_456
Si1 Ti1 2.605767 1_456
Si1 Ti3 2.606027 1_556
Si1 Ti4 2.629423 1_445
Si1 Ti0 2.630352 1_546
Si1 Ti2 2.633878 1_555
Si1 Ti5 2.635765 1_556
Si2 Tc3 2.509041 1_545
Si2 Tc2 2.535227 1_555
Si2 Tc0 2.538124 1_555
Si2 Ti0 2.608476 1_545
Si2 Ti4 2.609814 1_545
Si2 Ti2 2.614589 1_655
Si2 Ti5 2.615920 1_555
Si2 Ti3 2.616996 1_555
Si2 Ti1 2.618071 1_556
Si3 Tc0 2.530035 1_565
Si3 Tc4 2.538738 1_555
Si3 Ti0 2.592197 1_555
Si3 Ti4 2.592508 1_555
Si3 Ti1 2.620066 1_455
Si3 Ti3 2.620834 1_555
Si3 Ti5 2.633754 1_566
Si3 Ti2 2.634607 1_565
Si4 Tc3 2.358535 1_556
Si4 Tc2 2.396365 1_455
Si4 Tc1 2.396391 1_455
Si4 Tc0 2.420594 1_555
Si4 Tc4 2.422642 1_556
Si4 Ti3 2.699922 1_555
Si4 Ti0 2.701777 1_556
Si4 Ti2 2.722946 1_555
Si5 Tc3 2.517787 1_556
Si5 Tc1 2.533331 1_566
Si5 Tc2 2.534174 1_555
Si5 Ti2 2.605315 1_666
Si5 Ti5 2.605776 1_566
Si5 Ti3 2.610103 1_555
Si5 Ti1 2.610600 1_556
Si5 Ti0 2.621893 1_656
Si5 Ti4 2.621939 1_555
Tc0 Ti0 2.776071 1_545
Tc0 Ti4 2.779386 1_545
Tc0 Ti5 2.853257 1_556
Tc0 Ti2 2.856460 1_555
Tc0 Ti3 2.885686 1_555
Tc0 Ti1 2.888056 1_556
Tc1 Ti0 2.774497 1_645
Tc1 Ti4 2.776388 1_544
Tc1 Ti5 2.833286 1_555
Tc1 Ti2 2.836482 1_655
Tc1 Ti3 2.889939 1_655
Tc1 Ti1 2.891814 1_555
Tc2 Ti1 2.770447 1_556
Tc2 Ti3 2.770876 1_555
Tc2 Ti5 2.840661 1_555
Tc2 Ti2 2.844431 1_655
Tc2 Ti4 2.888920 1_555
Tc2 Ti0 2.891158 1_656
Tc3 Ti2 2.825916 1_665
Tc3 Ti5 2.828555 1_565
Tc3 Ti4 2.884023 1_555
Tc3 Ti0 2.884137 1_555
Tc3 Ti3 2.900188 1_554
Tc3 Ti1 2.903562 1_555
Tc4 Ti1 2.777605 1_455
Tc4 Ti3 2.779506 1_555
Tc4 Ti5 2.850147 1_555
Tc4 Ti2 2.853146 1_554
Tc4 Ti4 2.887281 1_555
Tc4 Ti0 2.889002 1_555
