# generated using pymatgen
data_Y4Si10PdPt5
_symmetry_space_group_name_H-M   'P 1'
_cell_length_a   8.13182063
_cell_length_b   8.13182016
_cell_length_c   5.99707789
_cell_angle_alpha   68.27839663
_cell_angle_beta   68.27840510
_cell_angle_gamma   88.52745737
_symmetry_Int_Tables_number   1
_chemical_formula_structural   Y4Si10PdPt5
_chemical_formula_sum   'Y4 Si10 Pd1 Pt5'
_cell_volume   339.39077524
_cell_formula_units_Z   1
loop_
 _symmetry_equiv_pos_site_id
 _symmetry_equiv_pos_as_xyz
  1  'x, y, z'
loop_
 _atom_site_type_symbol
 _atom_site_label
 _atom_site_symmetry_multiplicity
 _atom_site_fract_x
 _atom_site_fract_y
 _atom_site_fract_z
 _atom_site_occupancy
  Y  Y0  1  0.85912543  0.60196030  0.77019355  1
  Y  Y1  1  0.14086343  0.39809037  0.23253131  1
  Y  Y2  1  0.39803970  0.14087457  0.72980645  1
  Y  Y3  1  0.60190963  0.85913657  0.26746869  1
  Si  Si0  1  0.77099320  0.22900680  0.75000000  1
  Si  Si1  1  0.22802168  0.77197832  0.25000000  1
  Si  Si2  1  0.49960175  0.50039825  0.75000000  1
  Si  Si3  1  0.50036185  0.49963815  0.25000000  1
  Si  Si4  1  0.22946385  0.77053615  0.75000000  1
  Si  Si5  1  0.77161236  0.22838764  0.25000000  1
  Si  Si6  1  0.26381509  0.03600206  0.35018978  1
  Si  Si7  1  0.73620196  0.96407007  0.65035446  1
  Si  Si8  1  0.96399794  0.73618491  0.14981022  1
  Si  Si9  1  0.03592993  0.26379804  0.84964554  1
  Pd  Pd0  1  0.00001113  0.99998887  0.75000000  1
  Pt  Pt0  1  0.52312944  0.24931560  0.11381012  1
  Pt  Pt1  1  0.75068440  0.47687056  0.38618988  1
  Pt  Pt2  1  0.47690328  0.75070863  0.88627272  1
  Pt  Pt3  1  0.24929137  0.52309672  0.61372728  1
  Pt  Pt4  1  0.00004160  0.99995840  0.25000000  1
loop_
_geom_bond_atom_site_label_1
_geom_bond_atom_site_label_2
_geom_bond_distance
_geom_bond_site_symmetry_2
Si0 Si7 2.487586 1_545
Si0 Si9 2.487587 1_655
Si0 Y0 3.189658 1_555
Si0 Y2 3.189658 1_555
Si0 Y3 3.273025 1_546
Si0 Y1 3.273026 1_655
Si1 Si6 2.484299 1_565
Si1 Si8 2.484299 1_455
Si1 Y1 3.187280 1_555
Si1 Y3 3.187280 1_555
Si1 Y2 3.276599 1_564
Si1 Y0 3.276599 1_455
Si2 Y3 3.109718 1_555
Si2 Y1 3.109719 1_556
Si2 Y2 3.115169 1_555
Si2 Y0 3.115169 1_555
Si3 Y2 3.101954 1_555
Si3 Y0 3.101955 1_554
Si3 Y3 3.107055 1_555
Si3 Y1 3.107055 1_555
Si4 Si6 2.488185 1_565
Si4 Si8 2.488185 1_456
Si4 Y1 3.185511 1_556
Si4 Y3 3.185512 1_555
Si4 Y2 3.283667 1_565
Si4 Y0 3.283667 1_455
Si5 Si7 2.483465 1_545
Si5 Si9 2.483466 1_654
Si5 Y0 3.184293 1_554
Si5 Y2 3.184294 1_555
Si5 Y3 3.287032 1_545
Si5 Y1 3.287032 1_655
Si6 Y1 3.000047 1_555
Si6 Y3 3.031296 1_545
Si6 Y2 3.228885 1_555
Si6 Y2 3.233285 1_554
Si7 Y0 3.000077 1_555
Si7 Y2 3.031497 1_565
Si7 Y3 3.214978 1_556
Si7 Y3 3.247683 1_555
Si8 Y3 3.000047 1_555
Si8 Y1 3.031296 1_655
Si8 Y0 3.228885 1_554
Si8 Y0 3.233285 1_555
Si9 Y2 3.000078 1_555
Si9 Y0 3.031497 1_455
Si9 Y1 3.214978 1_555
Si9 Y1 3.247683 1_556
Pd0 Si8 2.478291 1_456
Pd0 Si6 2.478292 1_565
Pd0 Si9 2.480889 1_565
Pd0 Si7 2.480890 1_455
Pd0 Si0 2.599675 1_465
Pd0 Si4 2.604611 1_555
Pd0 Y1 3.397911 1_565
Pd0 Y3 3.397911 1_456
Pd0 Y0 3.406047 1_455
Pd0 Y2 3.406047 1_565
Pt0 Si6 2.370723 1_555
Pt0 Si0 2.417564 1_554
Pt0 Si5 2.424857 1_555
Pt0 Si3 2.438079 1_555
Pt0 Si2 2.440733 1_554
Pt0 Y3 3.081389 1_545
Pt0 Y2 3.211332 1_555
Pt0 Y2 3.224724 1_554
Pt0 Y1 3.231027 1_555
Pt0 Y0 3.434555 1_554
Pt1 Si8 2.370723 1_555
Pt1 Si0 2.417564 1_555
Pt1 Si5 2.424857 1_555
Pt1 Si3 2.438079 1_555
Pt1 Si2 2.440734 1_555
Pt1 Y1 3.081390 1_655
Pt1 Y0 3.211332 1_554
Pt1 Y0 3.224724 1_555
Pt1 Y3 3.231026 1_555
Pt1 Y2 3.434555 1_555
Pt2 Si7 2.370850 1_555
Pt2 Si4 2.417750 1_555
Pt2 Si1 2.424371 1_556
Pt2 Si2 2.438329 1_555
Pt2 Si3 2.440161 1_556
Pt2 Y2 3.081452 1_565
Pt2 Y3 3.208579 1_556
Pt2 Y3 3.227108 1_555
Pt2 Y0 3.230616 1_555
Pt2 Y1 3.434612 1_556
Pt3 Si9 2.370850 1_555
Pt3 Si4 2.417750 1_555
Pt3 Si1 2.424371 1_555
Pt3 Si2 2.438329 1_555
Pt3 Si3 2.440161 1_555
Pt3 Y0 3.081453 1_455
Pt3 Y1 3.208579 1_555
Pt3 Y1 3.227108 1_556
Pt3 Y2 3.230616 1_555
Pt3 Y3 3.434612 1_555
Pt4 Si9 2.480631 1_564
Pt4 Si7 2.480632 1_455
Pt4 Si8 2.482819 1_455
Pt4 Si6 2.482819 1_565
Pt4 Si1 2.587894 1_555
Pt4 Si5 2.592993 1_465
Pt4 Y0 3.404556 1_455
Pt4 Y2 3.404557 1_564
Pt4 Y1 3.413893 1_565
Pt4 Y3 3.413893 1_455
