# generated using pymatgen
data_LuCu6IO8
_symmetry_space_group_name_H-M   'P 1'
_cell_length_a   6.49559116
_cell_length_b   6.49559016
_cell_length_c   6.49559064
_cell_angle_alpha   59.99999755
_cell_angle_beta   60.00000268
_cell_angle_gamma   59.99999666
_symmetry_Int_Tables_number   1
_chemical_formula_structural   LuCu6IO8
_chemical_formula_sum   'Lu1 Cu6 I1 O8'
_cell_volume   193.79427195
_cell_formula_units_Z   1
loop_
 _symmetry_equiv_pos_site_id
 _symmetry_equiv_pos_as_xyz
  1  'x, y, z'
loop_
 _atom_site_type_symbol
 _atom_site_label
 _atom_site_symmetry_multiplicity
 _atom_site_fract_x
 _atom_site_fract_y
 _atom_site_fract_z
 _atom_site_occupancy
  Lu  Lu0  1  0.00000000  0.00000000  0.00000000  1
  Cu  Cu0  1  0.00000000  0.00000000  0.50000000  1
  Cu  Cu1  1  0.50000000  0.00000000  0.50000000  1
  Cu  Cu2  1  0.00000000  0.50000000  0.50000000  1
  Cu  Cu3  1  0.50000000  0.50000000  0.00000000  1
  Cu  Cu4  1  0.00000000  0.50000000  0.00000000  1
  Cu  Cu5  1  0.50000000  0.00000000  0.00000000  1
  I  I0  1  0.50000000  0.50000000  0.50000000  1
  O  O0  1  0.85749976  0.85749976  0.42749971  1
  O  O1  1  0.85749976  0.42749971  0.85749976  1
  O  O2  1  0.42749971  0.85749976  0.85749976  1
  O  O3  1  0.85749976  0.85749976  0.85749976  1
  O  O4  1  0.14250024  0.14250024  0.57250029  1
  O  O5  1  0.14250024  0.57250029  0.14250024  1
  O  O6  1  0.57250029  0.14250024  0.14250024  1
  O  O7  1  0.14250024  0.14250024  0.14250024  1
loop_
_geom_bond_atom_site_label_1
_geom_bond_atom_site_label_2
_geom_bond_distance
_geom_bond_site_symmetry_2
Lu0 O1 2.267299 1_454
Lu0 O5 2.267299 1_545
Lu0 O4 2.267299 1_554
Lu0 O0 2.267299 1_445
Lu0 O2 2.267299 1_544
Lu0 O6 2.267299 1_455
Lu0 O7 2.267305 1_555
Lu0 O3 2.267305 1_444
Cu0 O3 1.914133 1_445
Cu0 O7 1.914133 1_555
Cu0 O4 1.914138 1_555
Cu0 O0 1.914138 1_445
Cu0 I0 3.247795 1_545
Cu0 I0 3.247795 1_455
Cu1 O2 1.914132 1_545
Cu1 O6 1.914132 1_555
Cu1 O0 1.914132 1_545
Cu1 O4 1.914132 1_555
Cu1 I0 3.247795 1_555
Cu1 I0 3.247795 1_545
Cu2 O0 1.914132 1_455
Cu2 O4 1.914132 1_555
Cu2 O1 1.914132 1_455
Cu2 O5 1.914132 1_555
Cu2 I0 3.247796 1_555
Cu2 I0 3.247796 1_455
Cu3 O2 1.914132 1_554
Cu3 O6 1.914132 1_555
Cu3 O1 1.914133 1_554
Cu3 O5 1.914133 1_555
Cu3 I0 3.247795 1_555
Cu3 I0 3.247795 1_554
Cu4 O3 1.914133 1_454
Cu4 O7 1.914133 1_555
Cu4 O5 1.914138 1_555
Cu4 O1 1.914138 1_454
Cu4 I0 3.247796 1_554
Cu4 I0 3.247796 1_455
Cu5 O3 1.914133 1_544
Cu5 O7 1.914133 1_555
Cu5 O6 1.914138 1_555
Cu5 O2 1.914138 1_544
Cu5 I0 3.247795 1_554
Cu5 I0 3.247795 1_545
