# generated using pymatgen
data_Te3P2O11
_symmetry_space_group_name_H-M   'P 1'
_cell_length_a   7.35496419
_cell_length_b   9.88264197
_cell_length_c   12.42466138
_cell_angle_alpha   81.99138355
_cell_angle_beta   90.00000000
_cell_angle_gamma   90.00000000
_symmetry_Int_Tables_number   1
_chemical_formula_structural   Te3P2O11
_chemical_formula_sum   'Te12 P8 O44'
_cell_volume   894.29700735
_cell_formula_units_Z   4
loop_
 _symmetry_equiv_pos_site_id
 _symmetry_equiv_pos_as_xyz
  1  'x, y, z'
loop_
 _atom_site_type_symbol
 _atom_site_label
 _atom_site_symmetry_multiplicity
 _atom_site_fract_x
 _atom_site_fract_y
 _atom_site_fract_z
 _atom_site_occupancy
  Te  Te0  1  0.27383970  0.12464940  0.35943118  1
  Te  Te1  1  0.77383970  0.37535060  0.64056882  1
  Te  Te2  1  0.72616030  0.87535060  0.64056882  1
  Te  Te3  1  0.22616030  0.62464940  0.35943118  1
  Te  Te4  1  0.25011325  0.94020617  0.14858455  1
  Te  Te5  1  0.75011325  0.55979383  0.85141545  1
  Te  Te6  1  0.74988675  0.05979383  0.85141545  1
  Te  Te7  1  0.24988675  0.44020617  0.14858455  1
  Te  Te8  1  0.80044893  0.02685944  0.23733081  1
  Te  Te9  1  0.30044893  0.47314056  0.76266919  1
  Te  Te10  1  0.19955107  0.97314056  0.76266919  1
  Te  Te11  1  0.69955107  0.52685944  0.23733081  1
  P  P0  1  0.69096162  0.22965419  0.41372275  1
  P  P1  1  0.19096162  0.27034581  0.58627725  1
  P  P2  1  0.30903838  0.77034581  0.58627725  1
  P  P3  1  0.80903838  0.72965419  0.41372275  1
  P  P4  1  0.68424383  0.82198872  0.07053492  1
  P  P5  1  0.18424383  0.67801128  0.92946508  1
  P  P6  1  0.31575617  0.17801128  0.92946508  1
  P  P7  1  0.81575617  0.32198872  0.07053492  1
  O  O0  1  0.75237706  0.21076606  0.53104133  1
  O  O1  1  0.25237706  0.28923394  0.46895867  1
  O  O2  1  0.24762294  0.78923394  0.46895867  1
  O  O3  1  0.74762294  0.71076606  0.53104133  1
  O  O4  1  0.63448392  0.37743406  0.37606987  1
  O  O5  1  0.13448392  0.12256594  0.62393013  1
  O  O6  1  0.36551608  0.62256594  0.62393013  1
  O  O7  1  0.86551608  0.87743406  0.37606987  1
  O  O8  1  0.52969029  0.12691230  0.40614399  1
  O  O9  1  0.02969029  0.37308770  0.59385601  1
  O  O10  1  0.47030971  0.87308770  0.59385601  1
  O  O11  1  0.97030971  0.62691230  0.40614399  1
  O  O12  1  0.84035016  0.18483384  0.33821576  1
  O  O13  1  0.34035016  0.31516616  0.66178424  1
  O  O14  1  0.15964984  0.81516616  0.66178424  1
  O  O15  1  0.70551549  0.66586269  0.09327093  1
  O  O16  1  0.65964984  0.68483384  0.33821576  1
  O  O17  1  0.19165136  0.63834426  0.05210125  1
  O  O18  1  0.30834864  0.13834426  0.05210125  1
  O  O19  1  0.80834864  0.36165574  0.94789875  1
  O  O20  1  0.44509154  0.54708978  0.22908315  1
  O  O21  1  0.94509154  0.95291022  0.77091685  1
  O  O22  1  0.55490846  0.45291022  0.77091685  1
  O  O23  1  0.05490846  0.04708978  0.22908315  1
  O  O24  1  0.11175199  0.51256635  0.25616090  1
  O  O25  1  0.61175199  0.98743365  0.74383910  1
  O  O26  1  0.88824801  0.48743365  0.74383910  1
  O  O27  1  0.38824801  0.01256635  0.25616090  1
  O  O28  1  0.20021820  0.77558804  0.25604350  1
  O  O29  1  0.70021820  0.72441196  0.74395650  1
  O  O30  1  0.79978180  0.22441196  0.74395650  1
  O  O31  1  0.29978180  0.27558804  0.25604350  1
  O  O32  1  0.65585838  0.38779706  0.12746566  1
  O  O33  1  0.15585838  0.11220294  0.87253434  1
  O  O34  1  0.34414162  0.61220294  0.87253434  1
  O  O35  1  0.84414162  0.88779706  0.12746566  1
  O  O36  1  0.99167914  0.36822646  0.11900410  1
  O  O37  1  0.49167914  0.13177354  0.88099590  1
  O  O38  1  0.00832086  0.63177354  0.88099590  1
  O  O39  1  0.50832086  0.86822646  0.11900410  1
  O  O40  1  0.79448451  0.16586269  0.09327093  1
  O  O41  1  0.29448451  0.33413731  0.90672907  1
  O  O42  1  0.20551549  0.83413731  0.90672907  1
  O  O43  1  0.69165136  0.86165574  0.94789875  1
loop_
_geom_bond_atom_site_label_1
_geom_bond_atom_site_label_2
_geom_bond_distance
_geom_bond_site_symmetry_2
O0 P0 1.512545 1_555
O0 Te1 2.266975 1_555
O1 P1 1.512545 1_555
O1 Te0 2.266975 1_555
O2 P2 1.512545 1_555
O2 Te3 2.266975 1_555
O3 P3 1.512545 1_555
O3 Te2 2.266975 1_555
O4 P0 1.527730 1_555
O4 Te11 2.161448 1_555
O5 P1 1.527730 1_555
O5 Te10 2.161448 1_545
O6 P2 1.527730 1_555
O6 Te9 2.161448 1_555
O7 P3 1.527730 1_555
O7 Te8 2.161448 1_565
O8 P0 1.572707 1_555
O8 Te0 1.970288 1_555
O9 P1 1.572707 1_555
O9 Te1 1.970288 1_455
O10 P2 1.572707 1_555
O10 Te2 1.970288 1_555
O11 P3 1.572707 1_555
O11 Te3 1.970288 1_655
O12 P0 1.548986 1_555
O12 Te8 2.154050 1_555
O13 P1 1.548986 1_555
O13 Te9 2.154050 1_555
O14 P2 1.548986 1_555
O14 Te10 2.154050 1_555
O15 P4 1.537362 1_555
O15 Te11 2.099433 1_555
O16 P3 1.548986 1_555
O16 Te11 2.154050 1_555
O17 P5 1.520495 1_554
O17 Te7 2.191050 1_555
O18 P6 1.520495 1_554
O18 Te4 2.191050 1_545
O19 P7 1.520495 1_556
O19 Te5 2.191050 1_555
O20 Te11 1.883462 1_555
O20 Te7 2.114657 1_555
O20 Te3 2.479745 1_555
O21 Te10 1.883462 1_655
O21 Te6 2.114657 1_565
O21 Te2 2.479745 1_555
O22 Te9 1.883462 1_555
O22 Te5 2.114657 1_555
O22 Te1 2.479745 1_555
O23 Te8 1.883462 1_455
O23 Te4 2.114657 1_545
O23 Te0 2.479745 1_555
O24 Te7 1.896423 1_555
O24 Te3 1.994338 1_555
O25 Te6 1.896423 1_565
O25 Te2 1.994338 1_555
O26 Te5 1.896423 1_555
O26 Te1 1.994338 1_555
O27 Te4 1.896423 1_545
O27 Te0 1.994338 1_555
O28 Te3 1.837841 1_555
O28 Te4 1.989652 1_555
O29 Te2 1.837841 1_555
O29 Te5 1.989652 1_555
O30 Te1 1.837841 1_555
O30 Te6 1.989652 1_555
O31 Te0 1.837841 1_555
O31 Te7 1.989652 1_555
O32 P7 1.560310 1_555
O32 Te11 2.092376 1_555
O33 P6 1.560310 1_555
O33 Te10 2.092376 1_545
O34 P5 1.560310 1_555
O34 Te9 2.092376 1_555
O35 P4 1.560310 1_555
O35 Te8 2.092376 1_565
O36 P7 1.523922 1_555
O36 Te7 2.078594 1_655
O37 P6 1.523922 1_555
O37 Te6 2.078594 1_555
O38 P5 1.523922 1_555
O38 Te5 2.078594 1_455
O39 P4 1.523922 1_555
O39 Te4 2.078594 1_555
O40 P7 1.537362 1_555
O40 Te8 2.099433 1_555
O41 P6 1.537362 1_555
O41 Te9 2.099433 1_555
O42 P5 1.537362 1_555
O42 Te10 2.099433 1_555
O43 P4 1.520495 1_556
O43 Te6 2.191050 1_565
