# generated using pymatgen
data_ZnCr2(SeO3)4
_symmetry_space_group_name_H-M   'P 1'
_cell_length_a   7.96198475
_cell_length_b   7.96654562
_cell_length_c   8.10859533
_cell_angle_alpha   88.04101338
_cell_angle_beta   90.00000000
_cell_angle_gamma   90.00000000
_symmetry_Int_Tables_number   1
_chemical_formula_structural   ZnCr2(SeO3)4
_chemical_formula_sum   'Zn2 Cr4 Se8 O24'
_cell_volume   514.02367116
_cell_formula_units_Z   2
loop_
 _symmetry_equiv_pos_site_id
 _symmetry_equiv_pos_as_xyz
  1  'x, y, z'
loop_
 _atom_site_type_symbol
 _atom_site_label
 _atom_site_symmetry_multiplicity
 _atom_site_fract_x
 _atom_site_fract_y
 _atom_site_fract_z
 _atom_site_occupancy
  Zn  Zn0  1  0.60405807  0.34193823  0.16416257  1
  Zn  Zn1  1  0.39594193  0.84193823  0.16416257  1
  Cr  Cr0  1  0.75336323  0.75088487  0.00335083  1
  Cr  Cr1  1  0.74081575  0.24626681  0.50681179  1
  Cr  Cr2  1  0.24663677  0.25088487  0.00335083  1
  Cr  Cr3  1  0.25918425  0.74626681  0.50681179  1
  Se  Se0  1  0.08958742  0.55167703  0.18482779  1
  Se  Se1  1  0.91041258  0.05167703  0.18482779  1
  Se  Se2  1  0.57283249  0.44996391  0.81726356  1
  Se  Se3  1  0.31782283  0.17078976  0.41972312  1
  Se  Se4  1  0.05987194  0.41813229  0.68521118  1
  Se  Se5  1  0.42716751  0.94996391  0.81726356  1
  Se  Se6  1  0.68217717  0.67078976  0.41972312  1
  Se  Se7  1  0.94012806  0.91813229  0.68521118  1
  O  O0  1  0.97393573  0.71326738  0.10412141  1
  O  O1  1  0.30766702  0.00891897  0.98855611  1
  O  O2  1  0.16898099  0.25141766  0.77594544  1
  O  O3  1  0.67181166  0.45940795  0.37118412  1
  O  O4  1  0.75176152  0.17011010  0.27271996  1
  O  O5  1  0.19938343  0.49202378  0.01597208  1
  O  O6  1  0.22494466  0.51333624  0.58342086  1
  O  O7  1  0.63033674  0.75709195  0.22634497  1
  O  O8  1  0.72512760  0.34225223  0.72415681  1
  O  O9  1  0.32818834  0.95940795  0.37118412  1
  O  O10  1  0.97590329  0.31361479  0.51985691  1
  O  O11  1  0.48371150  0.28989619  0.93745491  1
  O  O12  1  0.83101901  0.75141766  0.77594544  1
  O  O13  1  0.50523519  0.69970986  0.52481459  1
  O  O14  1  0.27487240  0.84225223  0.72415681  1
  O  O15  1  0.24823848  0.67011010  0.27271996  1
  O  O16  1  0.36966326  0.25709195  0.22634497  1
  O  O17  1  0.02606427  0.21326738  0.10412141  1
  O  O18  1  0.02409671  0.81361479  0.51985691  1
  O  O19  1  0.51628850  0.78989619  0.93745491  1
  O  O20  1  0.69233298  0.50891797  0.98855611  1
  O  O21  1  0.77505534  0.01333624  0.58342086  1
  O  O22  1  0.49476481  0.19970986  0.52481459  1
  O  O23  1  0.80061657  0.99202378  0.01597208  1
loop_
_geom_bond_atom_site_label_1
_geom_bond_atom_site_label_2
_geom_bond_distance
_geom_bond_site_symmetry_2
Cr0 O12 1.944705 1_554
Cr0 O0 1.955749 1_555
Cr0 O23 1.963638 1_555
Cr0 O19 1.983359 1_554
Cr0 O20 1.995525 1_554
Cr0 O7 2.058525 1_555
Cr1 O8 1.948944 1_555
Cr1 O10 1.951008 1_555
Cr1 O21 1.955718 1_555
Cr1 O22 1.998265 1_555
Cr1 O4 2.014303 1_555
Cr1 O3 2.065631 1_555
Cr2 O2 1.944705 1_554
Cr2 O17 1.955749 1_555
Cr2 O5 1.963638 1_555
Cr2 O11 1.983359 1_554
Cr2 O1 1.995517 1_554
Cr2 O16 2.058525 1_555
Cr3 O14 1.948944 1_555
Cr3 O18 1.951008 1_555
Cr3 O6 1.955718 1_555
Cr3 O13 1.998265 1_555
Cr3 O15 2.014303 1_555
Cr3 O9 2.065631 1_555
O0 Se0 1.695804 1_655
O1 Se5 1.760575 1_545
O1 Zn1 2.040008 1_546
O2 Se4 1.730065 1_555
O3 Se6 1.744371 1_555
O3 Zn0 2.022885 1_555
O4 Se1 1.743474 1_555
O4 Zn0 1.987281 1_555
O5 Se0 1.705639 1_555
O6 Se4 1.714961 1_555
O7 Se6 1.740132 1_555
O7 Zn1 2.042228 1_555
O8 Se2 1.679557 1_555
O9 Se3 1.744371 1_565
O9 Zn1 2.022885 1_555
O10 Se4 1.736177 1_655
O11 Se2 1.730448 1_555
O11 Zn0 2.126362 1_556
O12 Se7 1.730065 1_555
O13 Se6 1.666552 1_555
O14 Se5 1.679557 1_555
O15 Se0 1.743474 1_555
O15 Zn1 1.987281 1_555
O16 Se3 1.740132 1_555
O16 Zn0 2.042228 1_555
O17 Se1 1.695804 1_455
O18 Se7 1.736177 1_455
O19 Se5 1.730448 1_555
O19 Zn1 2.126362 1_556
O20 Se2 1.760573 1_555
O20 Zn0 2.040003 1_556
O21 Se7 1.714961 1_545
O22 Se3 1.666552 1_555
O23 Se1 1.705639 1_565
