# generated using pymatgen
data_Li3TaO4
_symmetry_space_group_name_H-M   'P 1'
_cell_length_a   5.24666129
_cell_length_b   5.24666129
_cell_length_c   5.24666129
_cell_angle_alpha   133.64953449
_cell_angle_beta   133.64953449
_cell_angle_gamma   67.63591753
_symmetry_Int_Tables_number   1
_chemical_formula_structural   Li3TaO4
_chemical_formula_sum   'Li3 Ta1 O4'
_cell_volume   74.33590752
_cell_formula_units_Z   1
loop_
 _symmetry_equiv_pos_site_id
 _symmetry_equiv_pos_as_xyz
  1  'x, y, z'
loop_
 _atom_site_type_symbol
 _atom_site_label
 _atom_site_symmetry_multiplicity
 _atom_site_fract_x
 _atom_site_fract_y
 _atom_site_fract_z
 _atom_site_occupancy
  Li  Li0  1  0.50000000  0.50000000  0.00000000  1
  Li  Li1  1  0.25000000  0.75000000  0.50000000  1
  Li  Li2  1  0.75000000  0.25000000  0.50000000  1
  Ta  Ta0  1  0.00000000  0.00000000  0.00000000  1
  O  O0  1  0.00000000  0.50000000  0.50000000  1
  O  O1  1  0.77785900  0.77785900  0.00000000  1
  O  O2  1  0.50000000  0.00000000  0.50000000  1
  O  O3  1  0.22214100  0.22214100  0.00000000  1
loop_
_geom_bond_atom_site_label_1
_geom_bond_atom_site_label_2
_geom_bond_distance
_geom_bond_site_symmetry_2
Li0 O0 2.064795 1_554
Li0 O2 2.064795 1_565
Li0 O0 2.064795 1_655
Li0 O2 2.064795 1_554
Li0 O1 2.422363 1_555
Li0 O3 2.422363 1_555
Li1 O1 2.079030 1_455
Li1 O1 2.079030 1_556
Li1 O3 2.079030 1_566
Li1 O3 2.079030 1_555
Li1 O0 2.179489 1_555
Li1 O2 2.179489 1_565
Li2 O1 2.079030 1_545
Li2 O1 2.079030 1_556
Li2 O3 2.079030 1_656
Li2 O3 2.079030 1_555
Li2 O2 2.179489 1_555
Li2 O0 2.179489 1_655
O0 Ta0 2.064795 1_555
O0 Ta0 2.064795 1_566
O1 Ta0 1.936616 1_665
O2 Ta0 2.064795 1_555
O2 Ta0 2.064795 1_656
O3 Ta0 1.936616 1_555
