# generated using pymatgen
data_K4CuP2Au
_symmetry_space_group_name_H-M   'P 1'
_cell_length_a   6.15158705
_cell_length_b   6.15158640
_cell_length_c   5.90518148
_cell_angle_alpha   89.27327469
_cell_angle_beta   89.27328005
_cell_angle_gamma   105.59852234
_symmetry_Int_Tables_number   1
_chemical_formula_structural   K4CuP2Au
_chemical_formula_sum   'K4 Cu1 P2 Au1'
_cell_volume   215.18633748
_cell_formula_units_Z   1
loop_
 _symmetry_equiv_pos_site_id
 _symmetry_equiv_pos_as_xyz
  1  'x, y, z'
loop_
 _atom_site_type_symbol
 _atom_site_label
 _atom_site_symmetry_multiplicity
 _atom_site_fract_x
 _atom_site_fract_y
 _atom_site_fract_z
 _atom_site_occupancy
  K  K0  1  0.97393761  0.31476073  0.74886830  1
  K  K1  1  0.31476073  0.97393761  0.74886830  1
  K  K2  1  0.02606239  0.68523927  0.25113170  1
  K  K3  1  0.68523927  0.02606239  0.25113170  1
  Cu  Cu0  1  0.50000000  0.50000000  0.00000000  1
  P  P0  1  0.73994503  0.73994503  0.76657135  1
  P  P1  1  0.26005497  0.26005497  0.23342865  1
  Au  Au0  1  0.50000000  0.50000000  0.50000000  1
loop_
_geom_bond_atom_site_label_1
_geom_bond_atom_site_label_2
_geom_bond_distance
_geom_bond_site_symmetry_2
K0 P0 3.309360 1_555
K0 K1 3.339981 1_645
K0 P1 3.438123 1_656
K0 P0 3.440335 1_545
K0 P1 3.561495 1_655
K0 K3 3.625119 1_556
K0 K2 3.653630 1_655
K0 K3 3.676369 1_555
K0 K2 3.727772 1_656
K0 K1 4.033176 1_655
K0 K1 4.033177 1_545
K1 P0 3.309360 1_555
K1 P1 3.438123 1_566
K1 P0 3.440336 1_455
K1 P1 3.561495 1_565
K1 K2 3.625119 1_556
K1 K3 3.653630 1_565
K1 K2 3.676369 1_555
K1 K3 3.727772 1_566
K2 P1 3.309360 1_555
K2 K3 3.339981 1_465
K2 P0 3.438123 1_454
K2 P1 3.440335 1_565
K2 P0 3.561495 1_455
K2 K3 4.033176 1_455
K2 K3 4.033177 1_565
K3 P1 3.309360 1_555
K3 P0 3.438123 1_544
K3 P1 3.440336 1_655
K3 P0 3.561495 1_545
Cu0 P0 2.232171 1_554
Cu0 P1 2.232171 1_555
Cu0 K3 3.485919 1_565
Cu0 K1 3.485919 1_544
Cu0 K2 3.485919 1_655
Cu0 K0 3.485919 1_454
Cu0 K3 3.703717 1_555
Cu0 K1 3.703717 1_554
Cu0 K0 3.703718 1_554
Cu0 K2 3.703718 1_555
Au0 P0 2.404486 1_555
Au0 P1 2.404486 1_555
Au0 Cu0 2.952591 1_556
Au0 Cu0 2.952591 1_555
Au0 K3 3.432847 1_565
Au0 K1 3.432847 1_545
Au0 K2 3.432847 1_655
Au0 K0 3.432847 1_455
Au0 K1 3.716325 1_555
Au0 K3 3.716325 1_555
Au0 K0 3.716325 1_555
Au0 K2 3.716325 1_555
