# generated using pymatgen
data_Cs6V2Se7S
_symmetry_space_group_name_H-M   'P 1'
_cell_length_a   10.17563606
_cell_length_b   10.12228165
_cell_length_c   11.86469519
_cell_angle_alpha   90.00000000
_cell_angle_beta   90.00000000
_cell_angle_gamma   90.00000000
_symmetry_Int_Tables_number   1
_chemical_formula_structural   Cs6V2Se7S
_chemical_formula_sum   'Cs12 V4 Se14 S2'
_cell_volume   1222.07136608
_cell_formula_units_Z   2
loop_
 _symmetry_equiv_pos_site_id
 _symmetry_equiv_pos_as_xyz
  1  'x, y, z'
loop_
 _atom_site_type_symbol
 _atom_site_label
 _atom_site_symmetry_multiplicity
 _atom_site_fract_x
 _atom_site_fract_y
 _atom_site_fract_z
 _atom_site_occupancy
  Cs  Cs0  1  0.54589188  0.20713468  0.04548431  1
  Cs  Cs1  1  0.04589188  0.29286532  0.45451569  1
  Cs  Cs2  1  0.45477248  0.79300268  0.53973631  1
  Cs  Cs3  1  0.95477248  0.70699732  0.96026369  1
  Cs  Cs4  1  0.45477248  0.79300268  0.96026369  1
  Cs  Cs5  1  0.95477248  0.70699732  0.53973631  1
  Cs  Cs6  1  0.54589188  0.20713468  0.45451569  1
  Cs  Cs7  1  0.04589188  0.29286532  0.04548431  1
  Cs  Cs8  1  0.64842362  0.40767141  0.75000000  1
  Cs  Cs9  1  0.14842362  0.09232859  0.75000000  1
  Cs  Cs10  1  0.35165992  0.58271256  0.25000000  1
  Cs  Cs11  1  0.85165992  0.91728744  0.25000000  1
  V  V0  1  0.72101108  0.98230295  0.75000000  1
  V  V1  1  0.22101108  0.51769705  0.75000000  1
  V  V2  1  0.27890677  0.02186054  0.25000000  1
  V  V3  1  0.77890677  0.47813946  0.25000000  1
  Se  Se0  1  0.82895860  0.04841741  0.59147595  1
  Se  Se1  1  0.32895860  0.45158259  0.90852405  1
  Se  Se2  1  0.17025263  0.95558222  0.09184944  1
  Se  Se3  1  0.67025263  0.54441778  0.40815056  1
  Se  Se4  1  0.17025263  0.95558222  0.40815056  1
  Se  Se5  1  0.67025263  0.54441778  0.09184944  1
  Se  Se6  1  0.82895860  0.04841741  0.90852405  1
  Se  Se7  1  0.32895860  0.45158259  0.59147595  1
  Se  Se8  1  0.51277722  0.06734993  0.75000000  1
  Se  Se9  1  0.01277722  0.43265007  0.75000000  1
  Se  Se10  1  0.48631463  0.93250230  0.25000000  1
  Se  Se11  1  0.98631463  0.56749770  0.25000000  1
  Se  Se12  1  0.70894456  0.75786668  0.75000000  1
  Se  Se13  1  0.20894456  0.74213332  0.75000000  1
  S  S0  1  0.29221101  0.23311706  0.25000000  1
  S  S1  1  0.79221101  0.26688294  0.25000000  1
loop_
_geom_bond_atom_site_label_1
_geom_bond_atom_site_label_2
_geom_bond_distance
_geom_bond_site_symmetry_2
Cs0 S1 3.540630 1_555
Cs0 S0 3.552547 1_555
Cs0 Se6 3.676726 1_554
Cs0 Se5 3.682375 1_555
Cs0 Se1 3.692678 1_554
Cs0 Se10 3.739436 1_545
Cs0 Se8 3.795584 1_554
Cs1 S0 3.540630 1_555
Cs1 S1 3.552547 1_455
Cs1 Se7 3.676726 1_555
Cs1 Se4 3.682375 1_545
Cs1 Se0 3.692678 1_455
Cs1 Se11 3.739436 1_455
Cs1 Se9 3.795584 1_555
Cs2 Se13 3.570156 1_555
Cs2 Se12 3.611006 1_555
Cs2 Se4 3.678000 1_555
Cs2 Se3 3.684647 1_555
Cs2 Se10 3.730179 1_555
Cs2 Se7 3.736233 1_555
Cs2 Se8 3.779394 1_565
Cs3 Se12 3.570156 1_555
Cs3 Se13 3.611006 1_655
Cs3 Se5 3.678000 1_556
Cs3 Se2 3.684647 1_656
Cs3 Se11 3.730179 1_556
Cs3 Se6 3.736233 1_565
Cs3 Se9 3.779394 1_655
Cs4 Se13 3.570156 1_555
Cs4 Se12 3.611006 1_555
Cs4 Se2 3.678000 1_556
Cs4 Se5 3.684647 1_556
Cs4 Se10 3.730179 1_556
Cs4 Se1 3.736233 1_555
Cs4 Se8 3.779394 1_565
Cs5 Se12 3.570156 1_555
Cs5 Se13 3.611006 1_655
Cs5 Se3 3.678000 1_555
Cs5 Se4 3.684647 1_655
Cs5 Se11 3.730179 1_555
Cs5 Se0 3.736233 1_565
Cs5 Se9 3.779394 1_655
Cs6 S1 3.540630 1_555
Cs6 S0 3.552547 1_555
Cs6 Se0 3.676726 1_555
Cs6 Se3 3.682375 1_555
Cs6 Se7 3.692678 1_555
Cs6 Se10 3.739436 1_545
Cs6 Se8 3.795584 1_555
Cs7 S0 3.540630 1_555
Cs7 S1 3.552547 1_455
Cs7 Se1 3.676726 1_554
Cs7 Se2 3.682375 1_545
Cs7 Se6 3.692678 1_454
Cs7 Se11 3.739436 1_455
Cs7 Se9 3.795584 1_554
Cs8 Se12 3.597873 1_555
Cs8 Se8 3.711071 1_555
Cs8 Se9 3.716141 1_655
Cs8 Se7 3.781873 1_555
Cs8 Se1 3.781873 1_555
Cs9 Se13 3.597873 1_545
Cs9 Se9 3.711071 1_555
Cs9 Se8 3.716141 1_555
Cs9 Se0 3.781873 1_455
Cs9 Se6 3.781873 1_455
Cs10 S0 3.590037 1_555
Cs10 Se11 3.720809 1_455
Cs10 Se5 3.765763 1_555
Cs10 Se3 3.765763 1_555
Cs10 Se10 3.796549 1_555
Cs11 S1 3.590037 1_565
Cs11 Se10 3.720809 1_555
Cs11 Se4 3.765763 1_655
Cs11 Se2 3.765763 1_655
Cs11 Se11 3.796549 1_555
Se0 V0 2.278592 1_545
Se1 V1 2.278592 1_555
Se2 V2 2.278904 1_565
Se3 V3 2.278904 1_555
Se4 V2 2.278904 1_565
Se5 V3 2.278904 1_555
Se6 V0 2.278592 1_545
Se7 V1 2.278592 1_555
Se8 V0 2.287113 1_545
Se9 V1 2.287113 1_555
Se10 V2 2.296166 1_565
Se11 V3 2.296166 1_555
Se12 V0 2.275123 1_555
Se13 V1 2.275123 1_555
S0 V2 2.142679 1_555
S1 V3 2.142679 1_555
