# generated using pymatgen
data_Nb3SBr6Cl
_symmetry_space_group_name_H-M   'P 1'
_cell_length_a   7.15028205
_cell_length_b   7.13773912
_cell_length_c   6.50734634
_cell_angle_alpha   90.00000072
_cell_angle_beta   89.93871291
_cell_angle_gamma   119.94199486
_symmetry_Int_Tables_number   1
_chemical_formula_structural   Nb3SBr6Cl
_chemical_formula_sum   'Nb3 S1 Br6 Cl1'
_cell_volume   287.78729314
_cell_formula_units_Z   1
loop_
 _symmetry_equiv_pos_site_id
 _symmetry_equiv_pos_as_xyz
  1  'x, y, z'
loop_
 _atom_site_type_symbol
 _atom_site_label
 _atom_site_symmetry_multiplicity
 _atom_site_fract_x
 _atom_site_fract_y
 _atom_site_fract_z
 _atom_site_occupancy
  Nb  Nb0  1  0.60228586  0.80114293  0.22140329  1
  Nb  Nb1  1  0.19762970  0.39784070  0.22127629  1
  Nb  Nb2  1  0.19762970  0.79978800  0.22127629  1
  S  S0  1  0.33320540  0.66660320  0.48813171  1
  Br  Br0  1  0.50110962  0.00370652  0.95883694  1
  Br  Br1  1  0.99843901  0.99921951  0.00220168  1
  Br  Br2  1  0.33466281  0.16733190  0.44221200  1
  Br  Br3  1  0.83142148  0.16820847  0.44442872  1
  Br  Br4  1  0.83142148  0.66321402  0.44442872  1
  Br  Br5  1  0.50110962  0.49740310  0.95883694  1
  Cl  Cl0  1  0.00441931  0.50220865  0.98186841  1
loop_
_geom_bond_atom_site_label_1
_geom_bond_atom_site_label_2
_geom_bond_distance
_geom_bond_site_symmetry_2
Nb0 S0 2.405217 1_555
Nb1 S0 2.404691 1_555
Nb2 S0 2.404683 1_555
Br0 Nb0 2.565146 1_546
Br0 Nb2 2.565736 1_546
Br1 Nb0 2.837395 1_555
Br1 Nb1 2.848750 1_665
Br1 Nb2 2.848756 1_655
Br2 Nb1 2.710426 1_555
Br2 Nb2 2.710437 1_545
Br3 Nb1 2.712789 1_655
Br3 Nb0 2.715713 1_545
Br4 Nb2 2.712791 1_655
Br4 Nb0 2.715709 1_555
Br5 Nb0 2.565146 1_556
Br5 Nb1 2.565735 1_556
Cl0 Nb1 2.433631 1_556
Cl0 Nb2 2.433635 1_556
