# generated using pymatgen
data_KBaGaO3
_symmetry_space_group_name_H-M   'P 1'
_cell_length_a   6.98250249
_cell_length_b   6.41663420
_cell_length_c   5.83417110
_cell_angle_alpha   64.03379113
_cell_angle_beta   67.04454795
_cell_angle_gamma   73.81665328
_symmetry_Int_Tables_number   1
_chemical_formula_structural   KBaGaO3
_chemical_formula_sum   'K2 Ba2 Ga2 O6'
_cell_volume   214.54974727
_cell_formula_units_Z   2
loop_
 _symmetry_equiv_pos_site_id
 _symmetry_equiv_pos_as_xyz
  1  'x, y, z'
loop_
 _atom_site_type_symbol
 _atom_site_label
 _atom_site_symmetry_multiplicity
 _atom_site_fract_x
 _atom_site_fract_y
 _atom_site_fract_z
 _atom_site_occupancy
  K  K0  1  0.70958278  0.44581807  0.16371756  1
  K  K1  1  0.29040336  0.55417738  0.83629273  1
  Ba  Ba0  1  0.17147967  0.19431245  0.56662193  1
  Ba  Ba1  1  0.82852255  0.80568867  0.43337793  1
  Ga  Ga0  1  0.31210301  0.92387928  0.13605064  1
  Ga  Ga1  1  0.68789908  0.07612162  0.86394303  1
  O  O0  1  0.08298263  0.15011180  0.13577367  1
  O  O1  1  0.50507603  0.01879043  0.22218847  1
  O  O2  1  0.25703230  0.62265220  0.32389360  1
  O  O3  1  0.74296866  0.37734826  0.67610608  1
  O  O4  1  0.49492645  0.98120791  0.77781219  1
  O  O5  1  0.91701948  0.84988993  0.86422216  1
loop_
_geom_bond_atom_site_label_1
_geom_bond_atom_site_label_2
_geom_bond_distance
_geom_bond_site_symmetry_2
K0 O0 2.757963 1_655
K0 O5 2.832950 1_554
K0 O3 2.918914 1_555
K0 O2 2.961834 1_555
K0 O3 2.976641 1_554
K0 O1 3.262832 1_555
K1 O5 2.757900 1_455
K1 O0 2.832858 1_556
K1 O2 2.918919 1_555
K1 O3 2.961918 1_555
K1 O2 2.976632 1_556
K1 O4 3.262897 1_555
Ba0 O2 2.600676 1_555
Ba0 O4 2.731735 1_545
Ba0 O5 2.734611 1_445
Ba0 O1 2.756925 1_555
Ba0 O3 2.819081 1_455
Ba0 O0 2.951990 1_555
Ba0 O0 3.026662 1_556
Ba1 O3 2.600683 1_555
Ba1 O1 2.731730 1_565
Ba1 O0 2.734614 1_665
Ba1 O4 2.756918 1_555
Ba1 O2 2.819075 1_655
Ba1 O5 2.951969 1_555
Ba1 O5 3.026684 1_554
Ga0 O2 1.820859 1_555
Ga0 O0 1.836345 1_565
Ga0 O4 1.908007 1_554
Ga0 O1 1.921625 1_565
Ga1 O3 1.820852 1_555
Ga1 O5 1.836342 1_545
Ga1 O1 1.908035 1_556
Ga1 O4 1.921606 1_545
