# generated using pymatgen
data_Sc6Ti4SnSb5
_symmetry_space_group_name_H-M   'P 1'
_cell_length_a   8.28552660
_cell_length_b   8.30259687
_cell_length_c   5.64909705
_cell_angle_alpha   90.00000000
_cell_angle_beta   90.00000000
_cell_angle_gamma   119.93201474
_symmetry_Int_Tables_number   1
_chemical_formula_structural   Sc6Ti4SnSb5
_chemical_formula_sum   'Sc6 Ti4 Sn1 Sb5'
_cell_volume   336.77577721
_cell_formula_units_Z   1
loop_
 _symmetry_equiv_pos_site_id
 _symmetry_equiv_pos_as_xyz
  1  'x, y, z'
loop_
 _atom_site_type_symbol
 _atom_site_label
 _atom_site_symmetry_multiplicity
 _atom_site_fract_x
 _atom_site_fract_y
 _atom_site_fract_z
 _atom_site_occupancy
  Sc  Sc0  1  0.24323907  0.00000000  0.25000000  1
  Sc  Sc1  1  0.24775773  0.24584876  0.75000000  1
  Sc  Sc2  1  0.00190897  0.75415124  0.75000000  1
  Sc  Sc3  1  0.99810369  0.24691600  0.25000000  1
  Sc  Sc4  1  0.75118669  0.75308400  0.25000000  1
  Sc  Sc5  1  0.75483451  1.00000000  0.75000000  1
  Ti  Ti0  1  0.33314412  0.66525892  0.99996576  1
  Ti  Ti1  1  0.66788620  0.33474108  0.50003424  1
  Ti  Ti2  1  0.66788620  0.33474108  0.99996576  1
  Ti  Ti3  1  0.33314412  0.66525892  0.50003424  1
  Sn  Sn0  1  0.39625192  1.00000000  0.75000000  1
  Sb  Sb0  1  0.60354739  0.00000000  0.25000000  1
  Sb  Sb1  1  0.60815130  0.60775162  0.75000000  1
  Sb  Sb2  1  0.00039968  0.39224838  0.75000000  1
  Sb  Sb3  1  0.00047070  0.60838201  0.25000000  1
  Sb  Sb4  1  0.39208869  0.39161799  0.25000000  1
loop_
_geom_bond_atom_site_label_1
_geom_bond_atom_site_label_2
_geom_bond_distance
_geom_bond_site_symmetry_2
Sc0 Sn0 3.096025 1_544
Sc0 Sn0 3.096025 1_545
Sc1 Sn0 2.861190 1_545
Sc2 Sn0 2.861190 1_555
Sc5 Sn0 2.971046 1_555
Sn0 Ti0 2.922538 1_555
Sn0 Ti3 2.922538 1_555
Sn0 Ti2 2.922540 1_565
Sn0 Ti1 2.922540 1_565
Sb0 Sc4 2.863856 1_545
Sb0 Sc3 2.863862 1_555
Sb0 Ti1 2.919726 1_555
Sb0 Ti2 2.919726 1_554
Sb0 Ti3 2.919729 1_545
Sb0 Ti0 2.919729 1_544
Sb0 Sc0 2.985344 1_555
Sb0 Sc5 3.090197 1_544
Sb0 Sc5 3.090197 1_545
Sb1 Sc5 2.851872 1_555
Sb1 Sc2 2.857250 1_655
Sb1 Ti2 2.914860 1_555
Sb1 Ti1 2.914860 1_555
Sb1 Ti0 2.915400 1_555
Sb1 Ti3 2.915400 1_555
Sb1 Sc1 2.998513 1_555
Sb1 Sc4 3.067815 1_556
Sb1 Sc4 3.067815 1_555
Sb2 Sc5 2.851872 1_445
Sb2 Sc1 2.857250 1_555
Sb2 Ti0 2.914855 1_555
Sb2 Ti3 2.914855 1_555
Sb2 Ti2 2.915393 1_455
Sb2 Ti1 2.915393 1_455
Sb2 Sc2 2.998513 1_555
Sb2 Sc3 3.067817 1_455
Sb2 Sc3 3.067817 1_456
Sb3 Sc0 2.844498 1_565
Sb3 Sc4 2.861081 1_455
Sb3 Ti1 2.915909 1_455
Sb3 Ti2 2.915909 1_454
Sb3 Ti3 2.918340 1_555
Sb3 Ti0 2.918340 1_554
Sb3 Sc3 2.991369 1_455
Sb3 Sc2 3.070596 1_555
Sb3 Sc2 3.070596 1_554
Sb4 Sc0 2.844498 1_555
Sb4 Sc3 2.861073 1_455
Sb4 Ti3 2.915914 1_555
Sb4 Ti0 2.915914 1_554
Sb4 Ti1 2.918347 1_555
Sb4 Ti2 2.918347 1_554
Sb4 Sc4 2.991365 1_555
Sb4 Sc1 3.070596 1_555
Sb4 Sc1 3.070596 1_554
