# generated using pymatgen
data_BaB2SeS3
_symmetry_space_group_name_H-M   'P 1'
_cell_length_a   8.73449201
_cell_length_b   8.73449183
_cell_length_c   6.12293826
_cell_angle_alpha   82.51031161
_cell_angle_beta   97.48969697
_cell_angle_gamma   46.06174267
_symmetry_Int_Tables_number   1
_chemical_formula_structural   BaB2SeS3
_chemical_formula_sum   'Ba2 B4 Se2 S6'
_cell_volume   317.15380252
_cell_formula_units_Z   2
loop_
 _symmetry_equiv_pos_site_id
 _symmetry_equiv_pos_as_xyz
  1  'x, y, z'
loop_
 _atom_site_type_symbol
 _atom_site_label
 _atom_site_symmetry_multiplicity
 _atom_site_fract_x
 _atom_site_fract_y
 _atom_site_fract_z
 _atom_site_occupancy
  Ba  Ba0  1  0.89364366  0.80589583  0.45449239  1
  Ba  Ba1  1  0.19410417  0.10635634  0.95449239  1
  B  B0  1  0.85769340  0.40273244  0.37158965  1
  B  B1  1  0.59726756  0.14230760  0.87158765  1
  B  B2  1  0.45667696  0.50627001  0.06157195  1
  B  B3  1  0.49373099  0.54332204  0.56157395  1
  Se  Se0  1  0.14984855  0.28670372  0.42016217  1
  Se  Se1  1  0.71329528  0.85015245  0.92016217  1
  S  S0  1  0.44060250  0.29545947  0.06066752  1
  S  S1  1  0.70454153  0.55939650  0.56066852  1
  S  S2  1  0.29055104  0.68696350  0.25099480  1
  S  S3  1  0.31303650  0.70944796  0.75099480  1
  S  S4  1  0.67226834  0.22645948  0.66260353  1
  S  S5  1  0.77354152  0.32772966  0.16260353  1
loop_
_geom_bond_atom_site_label_1
_geom_bond_atom_site_label_2
_geom_bond_distance
_geom_bond_site_symmetry_2
Ba0 Se1 3.288826 1_554
Ba0 S4 3.295740 1_565
Ba0 S3 3.318056 1_655
Ba0 S0 3.331716 1_565
Ba0 S2 3.334063 1_655
Ba0 Se1 3.372501 1_555
Ba0 Se0 3.450349 1_655
Ba0 S1 3.554802 1_555
Ba1 Se0 3.288827 1_555
Ba1 S5 3.295736 1_456
Ba1 S2 3.318062 1_546
Ba1 S1 3.331709 1_455
Ba1 S3 3.334070 1_545
Ba1 Se0 3.372497 1_556
Ba1 Se1 3.450343 1_545
Ba1 S0 3.554801 1_556
B0 S5 1.802335 1_555
B0 S1 1.810710 1_555
B0 Se0 1.939576 1_655
B1 S4 1.802314 1_555
B1 S0 1.810718 1_556
B1 Se1 1.939578 1_545
B2 S2 1.918177 1_555
B2 S3 1.935994 1_554
B2 S0 1.942020 1_555
B2 S5 1.946023 1_555
B3 S3 1.918170 1_555
B3 S2 1.936009 1_555
B3 S1 1.942021 1_555
B3 S4 1.946014 1_555
