# generated using pymatgen
data_Y2Si14Ir5Pt
_symmetry_space_group_name_H-M   'P 1'
_cell_length_a   7.98725717
_cell_length_b   7.98725631
_cell_length_c   7.99598197
_cell_angle_alpha   57.11129558
_cell_angle_beta   57.11129078
_cell_angle_gamma   56.99475198
_symmetry_Int_Tables_number   1
_chemical_formula_structural   Y2Si14Ir5Pt
_chemical_formula_sum   'Y2 Si14 Ir5 Pt1'
_cell_volume   336.36413797
_cell_formula_units_Z   1
loop_
 _symmetry_equiv_pos_site_id
 _symmetry_equiv_pos_as_xyz
  1  'x, y, z'
loop_
 _atom_site_type_symbol
 _atom_site_label
 _atom_site_symmetry_multiplicity
 _atom_site_fract_x
 _atom_site_fract_y
 _atom_site_fract_z
 _atom_site_occupancy
  Y  Y0  1  0.99893760  0.00027129  0.00197460  1
  Y  Y1  1  0.49972871  0.50106240  0.49802540  1
  Si  Si0  1  0.74646348  0.75353652  0.75000000  1
  Si  Si1  1  0.25038466  0.24961534  0.25000000  1
  Si  Si2  1  0.85184031  0.06552215  0.67310490  1
  Si  Si3  1  0.67360116  0.85226480  0.06324823  1
  Si  Si4  1  0.06064581  0.67875046  0.85325947  1
  Si  Si5  1  0.64773520  0.82639884  0.43675177  1
  Si  Si6  1  0.43447785  0.64815969  0.82689510  1
  Si  Si7  1  0.82124954  0.43935419  0.64674053  1
  Si  Si8  1  0.17903471  0.56239219  0.34337554  1
  Si  Si9  1  0.56936867  0.35134572  0.17019911  1
  Si  Si10  1  0.35494716  0.17052873  0.56364621  1
  Si  Si11  1  0.93760781  0.32096529  0.15662446  1
  Si  Si12  1  0.32947127  0.14505284  0.93635379  1
  Si  Si13  1  0.14865428  0.93063133  0.32980089  1
  Ir  Ir0  1  0.24896568  0.93058163  0.57061817  1
  Ir  Ir1  1  0.56941837  0.25103432  0.92938183  1
  Ir  Ir2  1  0.92839917  0.57160083  0.25000000  1
  Ir  Ir3  1  0.43166163  0.75019566  0.06800907  1
  Ir  Ir4  1  0.74980434  0.06833837  0.43199093  1
  Pt  Pt0  1  0.06760060  0.43239940  0.75000000  1
loop_
_geom_bond_atom_site_label_1
_geom_bond_atom_site_label_2
_geom_bond_distance
_geom_bond_site_symmetry_2
Si2 Y0 3.125197 1_556
Si2 Y1 3.209282 1_555
Si3 Y0 3.118489 1_565
Si3 Y1 3.208315 1_555
Si4 Y0 3.090776 1_466
Si4 Y1 3.243287 1_555
Si5 Y1 3.118489 1_555
Si5 Y0 3.208315 1_565
Si6 Y1 3.125197 1_555
Si6 Y0 3.209281 1_466
Si7 Y1 3.090777 1_555
Si7 Y0 3.243287 1_556
Si8 Y1 3.121743 1_555
Si8 Y0 3.188781 1_465
Si9 Y1 3.115558 1_555
Si9 Y0 3.169743 1_555
Si10 Y1 3.121721 1_555
Si10 Y0 3.229879 1_456
Si11 Y0 3.121743 1_555
Si11 Y1 3.188781 1_555
Si12 Y0 3.121721 1_456
Si12 Y1 3.229879 1_555
Si13 Y0 3.115558 1_465
Si13 Y1 3.169743 1_555
Ir0 Si1 2.443577 1_565
Ir0 Si10 2.448032 1_565
Ir0 Si13 2.454402 1_555
Ir0 Si4 2.466455 1_555
Ir0 Si6 2.473711 1_555
Ir0 Si2 2.511221 1_465
Ir0 Si5 2.521951 1_555
Ir0 Y1 3.087445 1_555
Ir0 Y0 3.096433 1_466
Ir1 Si1 2.443577 1_556
Ir1 Si12 2.448032 1_555
Ir1 Si9 2.454402 1_556
Ir1 Si7 2.466455 1_555
Ir1 Si2 2.473711 1_555
Ir1 Si6 2.511221 1_555
Ir1 Si3 2.521951 1_546
Ir1 Y0 3.087445 1_556
Ir1 Y1 3.096434 1_555
Ir2 Si11 2.444098 1_555
Ir2 Si8 2.444099 1_655
Ir2 Si1 2.454088 1_655
Ir2 Si5 2.468138 1_555
Ir2 Si3 2.468139 1_555
Ir2 Si4 2.511787 1_654
Ir2 Si7 2.511787 1_555
Ir2 Y0 3.080154 1_565
Ir2 Y1 3.080154 1_555
Ir3 Si0 2.417555 1_554
Ir3 Si3 2.450123 1_555
Ir3 Si6 2.453775 1_554
Ir3 Si8 2.460727 1_555
Ir3 Si13 2.481319 1_555
Ir3 Si12 2.498820 1_564
Ir3 Si9 2.521499 1_555
Ir3 Y1 3.082017 1_555
Ir3 Y0 3.087045 1_465
Ir4 Si0 2.417555 1_545
Ir4 Si5 2.450123 1_545
Ir4 Si2 2.453775 1_555
Ir4 Si11 2.460727 1_555
Ir4 Si9 2.481319 1_555
Ir4 Si10 2.498820 1_555
Ir4 Si13 2.521499 1_645
Ir4 Y0 3.082017 1_555
Ir4 Y1 3.087045 1_555
Pt0 Si0 2.447622 1_455
Pt0 Si4 2.480324 1_555
Pt0 Si7 2.480324 1_455
Pt0 Si10 2.510709 1_555
Pt0 Si12 2.510710 1_555
Pt0 Si11 2.576689 1_456
Pt0 Si8 2.576689 1_555
Pt0 Y0 3.095651 1_456
Pt0 Y1 3.095651 1_555
