# generated using pymatgen
data_Cs8Si7GeSe20
_symmetry_space_group_name_H-M   'P 1'
_cell_length_a   11.70095135
_cell_length_b   11.67563552
_cell_length_c   9.85212745
_cell_angle_alpha   80.29308382
_cell_angle_beta   80.30820991
_cell_angle_gamma   89.81102177
_symmetry_Int_Tables_number   1
_chemical_formula_structural   Cs8Si7GeSe20
_chemical_formula_sum   'Cs8 Si7 Ge1 Se20'
_cell_volume   1307.31773726
_cell_formula_units_Z   1
loop_
 _symmetry_equiv_pos_site_id
 _symmetry_equiv_pos_as_xyz
  1  'x, y, z'
loop_
 _atom_site_type_symbol
 _atom_site_label
 _atom_site_symmetry_multiplicity
 _atom_site_fract_x
 _atom_site_fract_y
 _atom_site_fract_z
 _atom_site_occupancy
  Cs  Cs0  1  0.70864879  0.98298796  0.36688006  1
  Cs  Cs1  1  0.01656017  0.29167358  0.13513903  1
  Cs  Cs2  1  0.29516834  0.01792324  0.63199467  1
  Cs  Cs3  1  0.97976382  0.70659429  0.86848833  1
  Cs  Cs4  1  0.55269112  0.70987352  0.87307807  1
  Cs  Cs5  1  0.29306493  0.44676456  0.62881938  1
  Cs  Cs6  1  0.44550482  0.29226689  0.12820105  1
  Cs  Cs7  1  0.71105350  0.55258912  0.37025140  1
  Si  Si0  1  0.22973790  0.64112121  0.11684909  1
  Si  Si1  1  0.64327625  0.23174320  0.61794850  1
  Si  Si2  1  0.76826091  0.35756154  0.88250154  1
  Si  Si3  1  0.76807561  0.03426970  0.88966249  1
  Si  Si4  1  0.96646439  0.23176226  0.61299205  1
  Si  Si5  1  0.23078010  0.96680246  0.10863713  1
  Si  Si6  1  0.03383654  0.76830515  0.38958094  1
  Ge  Ge0  1  0.35993582  0.76864310  0.38054278  1
  Se  Se0  1  0.74650360  0.86768959  0.03005850  1
  Se  Se1  1  0.13281871  0.25311156  0.47267321  1
  Se  Se2  1  0.24999845  0.13326747  0.96786718  1
  Se  Se3  1  0.86715016  0.74715024  0.52879898  1
  Se  Se4  1  0.49424329  0.74581083  0.52378913  1
  Se  Se5  1  0.24848280  0.51210982  0.97797111  1
  Se  Se6  1  0.51478899  0.25373168  0.47846803  1
  Se  Se7  1  0.74591679  0.48694176  0.02108499  1
  Se  Se8  1  0.62106354  0.05197008  0.75650769  1
  Se  Se9  1  0.94847856  0.37917687  0.74586241  1
  Se  Se10  1  0.38062970  0.95455002  0.23591167  1
  Se  Se11  1  0.05137988  0.62010332  0.25765901  1
  Se  Se12  1  0.74583864  0.17893839  0.02574174  1
  Se  Se13  1  0.82237607  0.25283362  0.47623746  1
  Se  Se14  1  0.25202156  0.82058468  0.97452034  1
  Se  Se15  1  0.17474043  0.74699663  0.52910972  1
  Se  Se16  1  0.94856185  0.05149057  0.75203702  1
  Se  Se17  1  0.05177022  0.94845188  0.24974074  1
  Se  Se18  1  0.37876653  0.61484369  0.24473030  1
  Se  Se19  1  0.62164721  0.37936552  0.74966426  1
loop_
_geom_bond_atom_site_label_1
_geom_bond_atom_site_label_2
_geom_bond_distance
_geom_bond_site_symmetry_2
Cs0 Se3 3.612156 1_555
Cs0 Se12 3.693329 1_565
Cs0 Se4 3.694385 1_555
Cs0 Se0 3.745373 1_555
Cs0 Se13 3.809603 1_565
Cs0 Se8 4.018315 1_565
Cs0 Se17 4.024881 1_655
Cs0 Se6 4.078183 1_565
Cs0 Se10 4.280979 1_555
Cs1 Se2 3.616100 1_554
Cs1 Se13 3.685585 1_455
Cs1 Se5 3.697754 1_554
Cs1 Se1 3.758443 1_555
Cs1 Se12 3.818889 1_455
Cs1 Se9 4.011131 1_454
Cs1 Se17 4.015372 1_545
Cs1 Se7 4.095805 1_455
Cs1 Se11 4.250196 1_555
Cs2 Se1 3.623383 1_555
Cs2 Se14 3.709933 1_545
Cs2 Se6 3.715562 1_555
Cs2 Se2 3.735247 1_555
Cs2 Se15 3.822399 1_545
Cs2 Se10 4.053396 1_545
Cs2 Se16 4.065868 1_455
Cs2 Se4 4.112604 1_545
Cs2 Se8 4.237150 1_555
Cs3 Se0 3.610262 1_556
Cs3 Se15 3.676125 1_655
Cs3 Se7 3.699370 1_556
Cs3 Se3 3.755922 1_555
Cs3 Se14 3.824711 1_655
Cs3 Se11 4.024089 1_656
Cs3 Se16 4.029733 1_565
Cs3 Se5 4.058937 1_655
Cs3 Se9 4.233553 1_555
Cs4 Se4 3.576239 1_555
Cs4 Se0 3.619318 1_556
Cs4 Se7 3.715418 1_556
Cs4 Se14 3.777390 1_555
Cs4 Se18 3.862082 1_556
Cs4 Se8 4.009669 1_565
Cs4 Se5 4.132889 1_555
Cs4 Se19 4.272212 1_555
Cs5 Se5 3.600728 1_555
Cs5 Se1 3.628590 1_555
Cs5 Se6 3.714544 1_555
Cs5 Se15 3.799265 1_555
Cs5 Se18 3.925207 1_555
Cs5 Se9 4.044509 1_455
Cs5 Se4 4.101055 1_555
Cs5 Se19 4.245463 1_555
Cs6 Se6 3.630998 1_555
Cs6 Se2 3.661728 1_554
Cs6 Se5 3.731280 1_554
Cs6 Se12 3.787437 1_555
Cs6 Se19 3.916288 1_554
Cs6 Se10 3.948108 1_545
Cs6 Se7 4.078089 1_555
Cs6 Se18 4.153267 1_555
Cs7 Se7 3.605870 1_555
Cs7 Se3 3.622262 1_555
Cs7 Se4 3.692479 1_555
Cs7 Se13 3.772456 1_555
Cs7 Se19 3.912240 1_555
Cs7 Se11 3.993479 1_655
Cs7 Se6 4.069406 1_555
Cs7 Se18 4.297893 1_555
Ge0 Se4 2.269270 1_555
Ge0 Se10 2.375874 1_555
Ge0 Se15 2.390180 1_555
Ge0 Se18 2.402463 1_555
Se0 Si3 2.176740 1_564
Se1 Si4 2.177871 1_455
Se2 Si5 2.177254 1_546
Se3 Si6 2.175895 1_655
Se5 Si0 2.186522 1_556
Se6 Si1 2.188299 1_555
Se7 Si2 2.187950 1_554
Se8 Si1 2.292297 1_555
Se8 Si3 2.321365 1_555
Se9 Si2 2.292544 1_555
Se9 Si4 2.320547 1_555
Se10 Si5 2.311983 1_555
Se11 Si0 2.292146 1_555
Se11 Si6 2.322006 1_555
Se12 Si2 2.301373 1_554
Se12 Si3 2.315478 1_554
Se13 Si1 2.303028 1_555
Se13 Si4 2.317027 1_555
Se14 Si0 2.305310 1_556
Se14 Si5 2.317217 1_556
Se15 Si6 2.305401 1_555
Se16 Si4 2.298823 1_555
Se16 Si3 2.299044 1_555
Se17 Si5 2.299541 1_555
Se17 Si6 2.300984 1_555
Se18 Si0 2.308263 1_555
Se19 Si1 2.315071 1_555
Se19 Si2 2.315447 1_555
