# generated using pymatgen
data_TaTc(Te4I)2
_symmetry_space_group_name_H-M   'P 1'
_cell_length_a   6.95482339
_cell_length_b   8.21771363
_cell_length_c   8.70161624
_cell_angle_alpha   113.97410060
_cell_angle_beta   103.77448671
_cell_angle_gamma   100.08452779
_symmetry_Int_Tables_number   1
_chemical_formula_structural   TaTc(Te4I)2
_chemical_formula_sum   'Ta1 Tc1 Te8 I2'
_cell_volume   420.13142092
_cell_formula_units_Z   1
loop_
 _symmetry_equiv_pos_site_id
 _symmetry_equiv_pos_as_xyz
  1  'x, y, z'
loop_
 _atom_site_type_symbol
 _atom_site_label
 _atom_site_symmetry_multiplicity
 _atom_site_fract_x
 _atom_site_fract_y
 _atom_site_fract_z
 _atom_site_occupancy
  Ta  Ta0  1  0.22214917  0.00061987  0.99858434  1
  Tc  Tc0  1  0.77771222  0.00012049  0.99993635  1
  Te  Te0  1  0.11164324  0.31841089  0.17546047  1
  Te  Te1  1  0.03191403  0.88446368  0.20104446  1
  Te  Te2  1  0.39530330  0.87034690  0.70966250  1
  Te  Te3  1  0.62012836  0.13085628  0.28858228  1
  Te  Te4  1  0.87615206  0.68201699  0.82433150  1
  Te  Te5  1  0.54533922  0.23578215  0.95167976  1
  Te  Te6  1  0.47403903  0.76485625  0.04583523  1
  Te  Te7  1  0.95897353  0.11994865  0.79963191  1
  I  I0  1  0.24618999  0.38374158  0.58379743  1
  I  I1  1  0.74045686  0.60883628  0.42145377  1
loop_
_geom_bond_atom_site_label_1
_geom_bond_atom_site_label_2
_geom_bond_distance
_geom_bond_site_symmetry_2
Ta0 Te4 2.788280 1_445
Ta0 Te0 2.789149 1_556
Ta0 Te1 2.792771 1_546
Ta0 Te7 2.794284 1_455
Ta0 Te6 2.912844 1_546
Ta0 Te5 2.917202 1_555
Ta0 Te3 2.935328 1_556
Ta0 Te2 2.936490 1_545
Ta0 Tc0 3.093094 1_455
Tc0 Te0 2.739517 1_656
Tc0 Te4 2.741521 1_545
Tc0 Te1 2.749192 1_646
Tc0 Te7 2.757391 1_555
Tc0 Te6 2.820825 1_546
Tc0 Te5 2.823526 1_555
Tc0 Te3 2.862563 1_556
Tc0 Te2 2.865196 1_545
Te0 Te7 2.808541 1_454
Te1 Te4 2.816508 1_454
Te2 Te5 2.694231 1_565
Te3 Te6 2.699118 1_545
Te3 Te5 3.330675 1_554
I0 Te0 3.237216 1_555
I1 Te4 3.170905 1_555
I1 Te3 3.487557 1_555
