# generated using pymatgen
data_Na2B4Ir3Pt
_symmetry_space_group_name_H-M   'P 1'
_cell_length_a   7.03995766
_cell_length_b   6.09668493
_cell_length_c   5.44110788
_cell_angle_alpha   74.96178773
_cell_angle_beta   56.75699083
_cell_angle_gamma   48.31446929
_symmetry_Int_Tables_number   1
_chemical_formula_structural   Na2B4Ir3Pt
_chemical_formula_sum   'Na2 B4 Ir3 Pt1'
_cell_volume   143.78404012
_cell_formula_units_Z   1
loop_
 _symmetry_equiv_pos_site_id
 _symmetry_equiv_pos_as_xyz
  1  'x, y, z'
loop_
 _atom_site_type_symbol
 _atom_site_label
 _atom_site_symmetry_multiplicity
 _atom_site_fract_x
 _atom_site_fract_y
 _atom_site_fract_z
 _atom_site_occupancy
  Na  Na0  1  0.00091737  0.00091737  0.99908263  1
  Na  Na1  1  0.24755650  0.24755650  0.25244350  1
  B  B0  1  0.32117947  0.66787199  0.31084959  1
  B  B1  1  0.57708586  0.93014344  0.57197574  1
  B  B2  1  0.66787199  0.32117947  0.70009795  1
  B  B3  1  0.93014344  0.57708586  0.92079497  1
  Ir  Ir0  1  0.88116424  0.88116424  0.61883576  1
  Ir  Ir1  1  0.62114561  0.62114561  0.87885439  1
  Ir  Ir2  1  0.37188670  0.37188670  0.62811330  1
  Pt  Pt0  1  0.63104781  0.63104781  0.36895219  1
loop_
_geom_bond_atom_site_label_1
_geom_bond_atom_site_label_2
_geom_bond_distance
_geom_bond_site_symmetry_2
Na0 Pt0 3.248148 1_545
Na0 Pt0 3.248149 1_456
Na1 Pt0 2.993504 1_455
Na1 Pt0 2.993504 1_545
B0 Ir1 2.042256 1_554
B0 Ir0 2.043661 1_455
B0 Ir2 2.136837 1_555
B0 Pt0 2.230919 1_555
B0 Na0 2.898384 1_564
B0 Na1 3.050565 1_555
B0 Na1 3.165635 1_565
B1 Ir2 2.049800 1_565
B1 Pt0 2.086519 1_555
B1 Ir0 2.108423 1_555
B1 Ir1 2.142788 1_555
B1 Na1 2.975637 1_565
B1 Na0 3.102076 1_664
B1 Na0 3.145980 1_565
B2 Ir1 2.042259 1_555
B2 Ir0 2.043661 1_545
B2 Ir2 2.136833 1_555
B2 Pt0 2.230916 1_555
B2 Na0 2.898388 1_655
B2 Na1 3.050567 1_556
B2 Na1 3.165633 1_655
B3 Ir2 2.049799 1_655
B3 Pt0 2.086519 1_556
B3 Ir0 2.108423 1_555
B3 Ir1 2.142788 1_555
B3 Na1 2.975637 1_656
B3 Na0 3.102076 1_665
B3 Na0 3.145981 1_655
Ir0 Na0 3.006545 1_664
Ir0 Na0 3.006546 1_665
Ir0 Na1 3.264232 1_566
Ir0 Na1 3.264232 1_655
Ir1 Na0 3.010255 1_565
Ir1 Na0 3.010256 1_655
Ir1 Na1 3.231328 1_655
Ir1 Na1 3.231329 1_566
Ir2 Na1 3.027691 1_556
Ir2 Na1 3.027691 1_555
Ir2 Na0 3.243133 1_654
Ir2 Na0 3.243134 1_565
