# generated using pymatgen
data_Sr3BiPb4
_symmetry_space_group_name_H-M   'P 1'
_cell_length_a   9.19355606
_cell_length_b   9.19355510
_cell_length_c   9.19355550
_cell_angle_alpha   119.91513236
_cell_angle_beta   119.91513485
_cell_angle_gamma   90.14705260
_symmetry_Int_Tables_number   1
_chemical_formula_structural   Sr3BiPb4
_chemical_formula_sum   'Sr6 Bi2 Pb8'
_cell_volume   550.16215908
_cell_formula_units_Z   2
loop_
 _symmetry_equiv_pos_site_id
 _symmetry_equiv_pos_as_xyz
  1  'x, y, z'
loop_
 _atom_site_type_symbol
 _atom_site_label
 _atom_site_symmetry_multiplicity
 _atom_site_fract_x
 _atom_site_fract_y
 _atom_site_fract_z
 _atom_site_occupancy
  Sr  Sr0  1  0.25000000  0.25000000  0.00000000  1
  Sr  Sr1  1  0.75000000  0.75000000  0.00000000  1
  Sr  Sr2  1  0.16467160  0.66467160  0.82934320  1
  Sr  Sr3  1  0.83532840  0.33532840  0.17065680  1
  Sr  Sr4  1  0.66467160  0.83532840  0.50000000  1
  Sr  Sr5  1  0.33532840  0.16467160  0.50000000  1
  Bi  Bi0  1  0.00000000  0.00000000  0.00000000  1
  Bi  Bi1  1  0.50000000  0.50000000  0.00000000  1
  Pb  Pb0  1  0.82986235  0.32986235  0.78696722  1
  Pb  Pb1  1  0.17013765  0.67013765  0.21303278  1
  Pb  Pb2  1  0.54289513  0.04289513  0.21303278  1
  Pb  Pb3  1  0.32986235  0.54289513  0.50000000  1
  Pb  Pb4  1  0.95710487  0.17013765  0.50000000  1
  Pb  Pb5  1  0.45710487  0.95710487  0.78696722  1
  Pb  Pb6  1  0.67013765  0.45710487  0.50000000  1
  Pb  Pb7  1  0.04289513  0.82986235  0.50000000  1
loop_
_geom_bond_atom_site_label_1
_geom_bond_atom_site_label_2
_geom_bond_distance
_geom_bond_site_symmetry_2
Bi0 Sr1 3.246239 1_445
Bi0 Sr0 3.246239 1_555
Bi0 Sr3 3.438931 1_455
Bi0 Sr2 3.438931 1_544
Bi0 Sr5 3.438931 1_555
Bi0 Sr4 3.438931 1_444
Bi1 Sr1 3.246239 1_555
Bi1 Sr0 3.246239 1_555
Bi1 Sr3 3.438931 1_555
Bi1 Sr2 3.438931 1_554
Bi1 Sr4 3.438931 1_555
Bi1 Sr5 3.438931 1_554
Pb0 Sr3 3.477711 1_556
Pb0 Sr1 3.632852 1_556
Pb0 Sr0 3.632852 1_656
Pb0 Sr4 3.733865 1_545
Pb0 Sr5 3.733865 1_555
Pb1 Sr2 3.477711 1_554
Pb1 Sr0 3.632852 1_555
Pb1 Sr1 3.632852 1_455
Pb1 Sr5 3.733865 1_565
Pb1 Sr4 3.733865 1_555
Pb2 Sr2 3.477711 1_544
Pb2 Sr0 3.632852 1_555
Pb2 Sr1 3.632852 1_545
Pb2 Sr4 3.733865 1_545
Pb2 Sr5 3.733865 1_555
Pb3 Sr5 3.477711 1_555
Pb3 Sr0 3.632852 1_555
Pb3 Sr1 3.632852 1_556
Pb3 Sr2 3.733865 1_555
Pb3 Sr3 3.733865 1_455
Pb4 Sr5 3.477711 1_655
Pb4 Sr0 3.632852 1_656
Pb4 Sr1 3.632852 1_545
Pb4 Sr3 3.733865 1_555
Pb4 Sr2 3.733865 1_655
Pb5 Sr3 3.477711 1_566
Pb5 Sr1 3.632852 1_556
Pb5 Sr0 3.632852 1_566
Pb5 Sr5 3.733865 1_565
Pb5 Sr4 3.733865 1_555
Pb6 Sr4 3.477711 1_555
Pb6 Sr1 3.632852 1_556
Pb6 Sr0 3.632852 1_555
Pb6 Sr3 3.733865 1_555
Pb6 Sr2 3.733865 1_655
Pb7 Sr4 3.477711 1_455
Pb7 Sr1 3.632852 1_455
Pb7 Sr0 3.632852 1_566
Pb7 Sr2 3.733865 1_555
Pb7 Sr3 3.733865 1_455
