# generated using pymatgen
data_Ba3AlSe4Br
_symmetry_space_group_name_H-M   'P 1'
_cell_length_a   8.87241579
_cell_length_b   10.00634484
_cell_length_c   12.91128499
_cell_angle_alpha   90.00000000
_cell_angle_beta   90.00000000
_cell_angle_gamma   90.00000000
_symmetry_Int_Tables_number   1
_chemical_formula_structural   Ba3AlSe4Br
_chemical_formula_sum   'Ba12 Al4 Se16 Br4'
_cell_volume   1146.26971676
_cell_formula_units_Z   4
loop_
 _symmetry_equiv_pos_site_id
 _symmetry_equiv_pos_as_xyz
  1  'x, y, z'
loop_
 _atom_site_type_symbol
 _atom_site_label
 _atom_site_symmetry_multiplicity
 _atom_site_fract_x
 _atom_site_fract_y
 _atom_site_fract_z
 _atom_site_occupancy
  Ba  Ba0  1  0.91639551  0.75000000  0.48111267  1
  Ba  Ba1  1  0.58360449  0.75000000  0.98111267  1
  Ba  Ba2  1  0.08360449  0.25000000  0.51888733  1
  Ba  Ba3  1  0.41639551  0.25000000  0.01888733  1
  Ba  Ba4  1  0.58493702  0.48023127  0.66711062  1
  Ba  Ba5  1  0.91506298  0.01976873  0.16711062  1
  Ba  Ba6  1  0.41506298  0.98023127  0.33288938  1
  Ba  Ba7  1  0.08493702  0.51976873  0.83288938  1
  Ba  Ba8  1  0.41506298  0.51976873  0.33288938  1
  Ba  Ba9  1  0.08493702  0.98023127  0.83288938  1
  Ba  Ba10  1  0.58493702  0.01976873  0.66711062  1
  Ba  Ba11  1  0.91506298  0.48023127  0.16711062  1
  Al  Al0  1  0.31227790  0.75000000  0.60672182  1
  Al  Al1  1  0.18772210  0.75000000  0.10672182  1
  Al  Al2  1  0.68772210  0.25000000  0.39327818  1
  Al  Al3  1  0.81227790  0.25000000  0.89327818  1
  Se  Se0  1  0.81187393  0.45199818  0.42673562  1
  Se  Se1  1  0.68812607  0.04800182  0.92673562  1
  Se  Se2  1  0.18812607  0.95199818  0.57326438  1
  Se  Se3  1  0.31187393  0.54800182  0.07326438  1
  Se  Se4  1  0.18812607  0.54800182  0.57326438  1
  Se  Se5  1  0.31187393  0.95199818  0.07326438  1
  Se  Se6  1  0.81187393  0.04800182  0.42673562  1
  Se  Se7  1  0.68812607  0.45199818  0.92673562  1
  Se  Se8  1  0.13716053  0.75000000  0.28697909  1
  Se  Se9  1  0.36283947  0.75000000  0.78697909  1
  Se  Se10  1  0.86283947  0.25000000  0.71302091  1
  Se  Se11  1  0.63716053  0.25000000  0.21302091  1
  Se  Se12  1  0.53701050  0.75000000  0.50725294  1
  Se  Se13  1  0.96298950  0.75000000  0.00725294  1
  Se  Se14  1  0.46298950  0.25000000  0.49274706  1
  Se  Se15  1  0.03701050  0.25000000  0.99274706  1
  Br  Br0  1  0.66781827  0.75000000  0.23021889  1
  Br  Br1  1  0.83218173  0.75000000  0.73021889  1
  Br  Br2  1  0.33218173  0.25000000  0.76978111  1
  Br  Br3  1  0.16781827  0.25000000  0.26978111  1
loop_
_geom_bond_atom_site_label_1
_geom_bond_atom_site_label_2
_geom_bond_distance
_geom_bond_site_symmetry_2
Ba0 Se8 3.181068 1_655
Ba0 Se6 3.200733 1_565
Ba0 Se0 3.200733 1_555
Ba0 Br1 3.301930 1_555
Ba0 Se2 3.363569 1_655
Ba0 Se4 3.363569 1_655
Ba0 Se12 3.382940 1_555
Ba0 Br0 3.918878 1_555
Ba1 Se9 3.181068 1_555
Ba1 Se1 3.200733 1_565
Ba1 Se7 3.200733 1_555
Ba1 Br0 3.301930 1_556
Ba1 Se5 3.363569 1_556
Ba1 Se3 3.363569 1_556
Ba1 Se13 3.382940 1_556
Ba1 Br1 3.918878 1_555
Ba2 Se10 3.181068 1_455
Ba2 Se4 3.200733 1_555
Ba2 Se2 3.200733 1_545
Ba2 Br3 3.301930 1_555
Ba2 Se0 3.363569 1_455
Ba2 Se6 3.363569 1_455
Ba2 Se14 3.382940 1_555
Ba2 Br2 3.918878 1_555
Ba3 Se11 3.181068 1_555
Ba3 Se3 3.200733 1_555
Ba3 Se5 3.200733 1_545
Ba3 Br2 3.301930 1_554
Ba3 Se7 3.363569 1_554
Ba3 Se1 3.363569 1_554
Ba3 Se15 3.382940 1_554
Ba3 Br3 3.918878 1_555
Ba4 Se14 3.397969 1_555
Ba4 Se12 3.424549 1_555
Ba4 Se10 3.426113 1_555
Ba4 Br2 3.477591 1_555
Ba4 Se7 3.486336 1_555
Ba4 Br1 3.572507 1_555
Ba4 Se9 3.683073 1_555
Ba4 Se0 3.710247 1_555
Ba4 Se4 3.784594 1_555
Ba5 Se15 3.397969 1_654
Ba5 Se13 3.424549 1_545
Ba5 Se11 3.426113 1_555
Ba5 Br3 3.477591 1_655
Ba5 Se6 3.486336 1_555
Ba5 Br0 3.572507 1_545
Ba5 Se8 3.683073 1_645
Ba5 Se1 3.710247 1_554
Ba5 Se5 3.784594 1_645
Ba6 Se12 3.397969 1_555
Ba6 Se14 3.424549 1_565
Ba6 Se8 3.426113 1_555
Ba6 Br0 3.477591 1_555
Ba6 Se5 3.486336 1_555
Ba6 Br3 3.572507 1_565
Ba6 Se11 3.683073 1_565
Ba6 Se2 3.710247 1_555
Ba6 Se6 3.784594 1_565
Ba7 Se13 3.397969 1_456
Ba7 Se15 3.424549 1_555
Ba7 Se9 3.426113 1_555
Ba7 Br1 3.477591 1_455
Ba7 Se4 3.486336 1_555
Ba7 Br2 3.572507 1_555
Ba7 Se10 3.683073 1_455
Ba7 Se3 3.710247 1_556
Ba7 Se7 3.784594 1_455
Ba8 Se12 3.397969 1_555
Ba8 Se14 3.424549 1_555
Ba8 Se8 3.426113 1_555
Ba8 Br0 3.477591 1_555
Ba8 Se3 3.486336 1_555
Ba8 Br3 3.572507 1_555
Ba8 Se11 3.683073 1_555
Ba8 Se4 3.710247 1_555
Ba8 Se0 3.784594 1_555
Ba9 Se13 3.397969 1_456
Ba9 Se15 3.424549 1_565
Ba9 Se9 3.426113 1_555
Ba9 Br1 3.477591 1_455
Ba9 Se2 3.486336 1_555
Ba9 Br2 3.572507 1_565
Ba9 Se10 3.683073 1_465
Ba9 Se5 3.710247 1_556
Ba9 Se1 3.784594 1_465
Ba10 Se14 3.397969 1_555
Ba10 Se12 3.424549 1_545
Ba10 Se10 3.426113 1_555
Ba10 Br2 3.477591 1_555
Ba10 Se1 3.486336 1_555
Ba10 Br1 3.572507 1_545
Ba10 Se9 3.683073 1_545
Ba10 Se6 3.710247 1_555
Ba10 Se2 3.784594 1_545
Ba11 Se15 3.397969 1_654
Ba11 Se13 3.424549 1_555
Ba11 Se11 3.426113 1_555
Ba11 Br3 3.477591 1_655
Ba11 Se0 3.486336 1_555
Ba11 Br0 3.572507 1_555
Ba11 Se8 3.683073 1_655
Ba11 Se7 3.710247 1_554
Ba11 Se3 3.784594 1_655
Al0 Se2 2.342109 1_555
Al0 Se4 2.342109 1_555
Al0 Se9 2.370193 1_555
Al0 Se12 2.371724 1_555
Al1 Se5 2.342109 1_555
Al1 Se3 2.342109 1_555
Al1 Se8 2.370193 1_555
Al1 Se13 2.371724 1_455
Al2 Se0 2.342109 1_555
Al2 Se6 2.342109 1_555
Al2 Se11 2.370193 1_555
Al2 Se14 2.371724 1_555
Al3 Se7 2.342109 1_555
Al3 Se1 2.342109 1_555
Al3 Se10 2.370193 1_555
Al3 Se15 2.371724 1_655
