# generated using pymatgen
data_CsSiSbSe4
_symmetry_space_group_name_H-M   'P 1'
_cell_length_a   7.57493175
_cell_length_b   9.69830592
_cell_length_c   13.41917103
_cell_angle_alpha   71.82179129
_cell_angle_beta   90.00000000
_cell_angle_gamma   90.00000000
_symmetry_Int_Tables_number   1
_chemical_formula_structural   CsSiSbSe4
_chemical_formula_sum   'Cs4 Si4 Sb4 Se16'
_cell_volume   936.62423814
_cell_formula_units_Z   4
loop_
 _symmetry_equiv_pos_site_id
 _symmetry_equiv_pos_as_xyz
  1  'x, y, z'
loop_
 _atom_site_type_symbol
 _atom_site_label
 _atom_site_symmetry_multiplicity
 _atom_site_fract_x
 _atom_site_fract_y
 _atom_site_fract_z
 _atom_site_occupancy
  Cs  Cs0  1  0.26940715  0.42833565  0.38952632  1
  Cs  Cs1  1  0.76940715  0.57166435  0.11047368  1
  Cs  Cs2  1  0.73059285  0.57166435  0.61047368  1
  Cs  Cs3  1  0.23059285  0.42833565  0.88952632  1
  Si  Si0  1  0.78571614  0.18142551  0.34200938  1
  Si  Si1  1  0.28571614  0.81857449  0.15799062  1
  Si  Si2  1  0.21428386  0.81857449  0.65799062  1
  Si  Si3  1  0.71428386  0.18142551  0.84200938  1
  Sb  Sb0  1  0.13716813  0.93860560  0.37239522  1
  Sb  Sb1  1  0.63716813  0.06139440  0.12760478  1
  Sb  Sb2  1  0.86283187  0.06139440  0.62760478  1
  Sb  Sb3  1  0.36283187  0.93860560  0.87239522  1
  Se  Se0  1  0.97313917  0.21730877  0.75146185  1
  Se  Se1  1  0.80702606  0.93647829  0.43738937  1
  Se  Se2  1  0.48313492  0.21684624  0.73292218  1
  Se  Se3  1  0.69297394  0.93647829  0.93738937  1
  Se  Se4  1  0.78246135  0.31376443  0.45384348  1
  Se  Se5  1  0.02686083  0.78269123  0.24853815  1
  Se  Se6  1  0.28246135  0.68623557  0.04615652  1
  Se  Se7  1  0.19297394  0.06352171  0.56261063  1
  Se  Se8  1  0.71753865  0.31376443  0.95384348  1
  Se  Se9  1  0.51686508  0.78315376  0.26707782  1
  Se  Se10  1  0.98313492  0.78315376  0.76707782  1
  Se  Se11  1  0.21753865  0.68623557  0.54615652  1
  Se  Se12  1  0.52686083  0.21730877  0.25146185  1
  Se  Se13  1  0.01686508  0.21684624  0.23292218  1
  Se  Se14  1  0.47313917  0.78269123  0.74853815  1
  Se  Se15  1  0.30702606  0.06352171  0.06261063  1
loop_
_geom_bond_atom_site_label_1
_geom_bond_atom_site_label_2
_geom_bond_distance
_geom_bond_site_symmetry_2
Cs0 Se7 3.622221 1_555
Cs0 Se12 3.713521 1_555
Cs0 Se11 3.756097 1_555
Cs0 Se9 3.811435 1_555
Cs0 Se5 3.835193 1_555
Cs0 Se13 3.869395 1_555
Cs0 Se4 3.871281 1_455
Cs0 Se4 4.060161 1_555
Cs1 Se3 3.622221 1_554
Cs1 Se5 3.713521 1_655
Cs1 Se8 3.756097 1_554
Cs1 Se13 3.811435 1_655
Cs1 Se12 3.835193 1_555
Cs1 Se9 3.869395 1_555
Cs1 Se6 3.871281 1_555
Cs1 Se6 4.060161 1_655
Cs2 Se1 3.622221 1_555
Cs2 Se14 3.713521 1_555
Cs2 Se4 3.756097 1_555
Cs2 Se2 3.811435 1_555
Cs2 Se0 3.835193 1_555
Cs2 Se10 3.869395 1_555
Cs2 Se11 3.871281 1_655
Cs2 Se11 4.060161 1_555
Cs3 Se15 3.622221 1_556
Cs3 Se0 3.713521 1_455
Cs3 Se6 3.756097 1_556
Cs3 Se10 3.811435 1_455
Cs3 Se14 3.835193 1_555
Cs3 Se2 3.869395 1_555
Cs3 Se8 3.871281 1_555
Cs3 Se8 4.060161 1_455
Sb0 Se1 2.646487 1_455
Sb0 Se5 2.704661 1_555
Sb0 Se11 2.870065 1_555
Sb0 Se13 2.909270 1_565
Sb0 Se7 3.176672 1_565
Sb1 Se15 2.646487 1_555
Sb1 Se12 2.704661 1_555
Sb1 Se8 2.870065 1_554
Sb1 Se9 2.909270 1_545
Sb1 Se3 3.176672 1_544
Sb2 Se7 2.646487 1_655
Sb2 Se0 2.704661 1_555
Sb2 Se4 2.870065 1_555
Sb2 Se10 2.909270 1_545
Sb2 Se1 3.176672 1_545
Sb3 Se3 2.646487 1_555
Sb3 Se14 2.704661 1_555
Sb3 Se6 2.870065 1_556
Sb3 Se2 2.909270 1_565
Sb3 Se15 3.176672 1_566
Se0 Si3 2.275621 1_555
Se1 Si0 2.326040 1_565
Se2 Si3 2.238953 1_555
Se3 Si3 2.326040 1_565
Se4 Si0 2.258727 1_555
Se5 Si1 2.275621 1_555
Se6 Si1 2.258727 1_555
Se7 Si2 2.326040 1_545
Se8 Si3 2.258727 1_555
Se9 Si1 2.238953 1_555
Se10 Si2 2.238953 1_655
Se11 Si2 2.258727 1_555
Se12 Si0 2.275621 1_555
Se13 Si0 2.238953 1_455
Se14 Si2 2.275621 1_555
Se15 Si1 2.326040 1_545
