# generated using pymatgen
data_Lu6GaCuOs
_symmetry_space_group_name_H-M   'P 1'
_cell_length_a   8.17350039
_cell_length_b   8.17349919
_cell_length_c   8.17349866
_cell_angle_alpha   112.89736440
_cell_angle_beta   110.32979630
_cell_angle_gamma   105.27753484
_symmetry_Int_Tables_number   1
_chemical_formula_structural   Lu6GaCuOs
_chemical_formula_sum   'Lu12 Ga2 Cu2 Os2'
_cell_volume   418.44114416
_cell_formula_units_Z   2
loop_
 _symmetry_equiv_pos_site_id
 _symmetry_equiv_pos_as_xyz
  1  'x, y, z'
loop_
 _atom_site_type_symbol
 _atom_site_label
 _atom_site_symmetry_multiplicity
 _atom_site_fract_x
 _atom_site_fract_y
 _atom_site_fract_z
 _atom_site_occupancy
  Lu  Lu0  1  0.43454041  0.24235304  0.19218738  1
  Lu  Lu1  1  0.56545959  0.75764696  0.80781262  1
  Lu  Lu2  1  0.05016566  0.24235304  0.80781262  1
  Lu  Lu3  1  0.94983434  0.75764696  0.19218738  1
  Lu  Lu4  1  0.18222671  0.27311637  0.45534308  1
  Lu  Lu5  1  0.81777329  0.72688363  0.54465692  1
  Lu  Lu6  1  0.18222671  0.72688363  0.90911135  1
  Lu  Lu7  1  0.81777329  0.27311637  0.09088865  1
  Lu  Lu8  1  0.33400640  0.64435573  0.31034933  1
  Lu  Lu9  1  0.66599360  0.35564427  0.68965067  1
  Lu  Lu10  1  0.33400640  0.02365607  0.68965067  1
  Lu  Lu11  1  0.66599360  0.97634393  0.31034933  1
  Ga  Ga0  1  0.50000000  0.50000000  0.00000000  1
  Ga  Ga1  1  0.00000000  0.00000000  0.00000000  1
  Cu  Cu0  1  0.11898191  0.61898191  0.50000000  1
  Cu  Cu1  1  0.88101809  0.38101809  0.50000000  1
  Os  Os0  1  0.33097935  0.00000000  0.33097935  1
  Os  Os1  1  0.66902065  1.00000000  0.66902065  1
loop_
_geom_bond_atom_site_label_1
_geom_bond_atom_site_label_2
_geom_bond_distance
_geom_bond_site_symmetry_2
Lu0 Os0 2.731205 1_555
Lu0 Lu11 3.430882 1_545
Lu0 Lu9 3.430889 1_555
Lu0 Lu4 3.446336 1_555
Lu0 Lu6 3.446336 1_544
Lu0 Lu10 3.450961 1_554
Lu0 Lu8 3.450961 1_555
Lu0 Lu5 3.479853 1_555
Lu0 Lu7 3.479857 1_555
Lu0 Lu2 3.589167 1_554
Lu1 Os1 2.731205 1_555
Lu1 Lu10 3.430882 1_565
Lu1 Lu8 3.430889 1_555
Lu1 Lu5 3.446336 1_555
Lu1 Lu7 3.446336 1_566
Lu1 Lu11 3.450961 1_556
Lu1 Lu9 3.450961 1_555
Lu1 Lu4 3.479853 1_555
Lu1 Lu6 3.479857 1_555
Lu1 Lu3 3.589167 1_556
Lu2 Os1 2.731206 1_445
Lu2 Lu9 3.430889 1_455
Lu2 Lu7 3.446329 1_456
Lu2 Lu5 3.446336 1_445
Lu2 Lu8 3.450962 1_556
Lu2 Lu6 3.479849 1_555
Lu2 Lu4 3.479851 1_555
Lu3 Os0 2.731206 1_665
Lu3 Lu8 3.430889 1_655
Lu3 Lu6 3.446329 1_654
Lu3 Lu4 3.446336 1_665
Lu3 Lu9 3.450962 1_554
Lu3 Lu7 3.479849 1_555
Lu3 Lu5 3.479851 1_555
Lu4 Os0 2.831613 1_555
Lu4 Lu9 3.476317 1_555
Lu4 Lu8 3.739882 1_555
Lu5 Os1 2.831613 1_555
Lu5 Lu8 3.476317 1_555
Lu5 Lu9 3.739882 1_555
Lu6 Os0 2.831607 1_566
Lu6 Lu8 3.476308 1_556
Lu6 Lu9 3.739881 1_455
Lu7 Os1 2.831607 1_544
Lu7 Lu9 3.476308 1_554
Lu7 Lu8 3.739881 1_655
Lu8 Os0 2.852762 1_565
Lu8 Os1 2.852763 1_555
Lu9 Os1 2.852762 1_545
Lu9 Os0 2.852763 1_555
Lu10 Os1 2.852760 1_545
Lu10 Os0 2.852764 1_555
Lu10 Lu9 3.293313 1_555
Lu10 Lu8 3.426876 1_545
Lu10 Lu3 3.430890 1_445
Lu10 Lu2 3.450966 1_555
Lu10 Lu7 3.476314 1_556
Lu10 Lu4 3.476323 1_555
Lu10 Lu5 3.739881 1_445
Lu10 Lu6 3.739883 1_545
Lu11 Os0 2.852760 1_565
Lu11 Os1 2.852764 1_555
Lu11 Lu8 3.293313 1_555
Lu11 Lu9 3.426876 1_565
Lu11 Lu2 3.430890 1_665
Lu11 Lu3 3.450966 1_555
Lu11 Lu6 3.476314 1_554
Lu11 Lu5 3.476323 1_555
Lu11 Lu4 3.739881 1_665
Lu11 Lu7 3.739883 1_565
Ga0 Lu1 3.122966 1_554
Ga0 Lu0 3.122966 1_555
Ga0 Lu3 3.122967 1_555
Ga0 Lu2 3.122967 1_554
Ga0 Lu8 3.251681 1_555
Ga0 Lu9 3.251681 1_554
Ga0 Lu11 3.251688 1_555
Ga0 Lu10 3.251688 1_554
Ga0 Lu7 3.606445 1_555
Ga0 Lu6 3.606445 1_554
Ga0 Lu5 3.606447 1_555
Ga0 Lu4 3.606447 1_554
Ga1 Lu7 2.997340 1_455
Ga1 Lu6 2.997340 1_544
Ga1 Lu4 2.997342 1_555
Ga1 Lu5 2.997342 1_444
Ga1 Lu2 3.000068 1_554
Ga1 Lu3 3.000068 1_445
Ga1 Lu0 3.000069 1_555
Ga1 Lu1 3.000069 1_444
Ga1 Os0 3.090578 1_555
Ga1 Os1 3.090578 1_444
Cu0 Cu1 2.360597 1_455
Cu0 Lu10 2.736001 1_565
Cu0 Lu8 2.736007 1_555
Cu0 Lu4 2.913805 1_555
Cu0 Lu5 2.913805 1_455
Cu0 Lu7 2.913810 1_455
Cu0 Lu6 2.913813 1_555
Cu0 Lu3 3.186454 1_455
Cu0 Lu1 3.186455 1_555
Cu1 Lu11 2.736001 1_545
Cu1 Lu9 2.736007 1_555
Cu1 Lu5 2.913805 1_555
Cu1 Lu4 2.913805 1_655
Cu1 Lu6 2.913810 1_655
Cu1 Lu7 2.913813 1_555
Cu1 Lu2 3.186454 1_655
Cu1 Lu0 3.186455 1_555
Os0 Os1 3.156520 1_545
