# generated using pymatgen
data_CsNa(CoAs)4
_symmetry_space_group_name_H-M   'P 1'
_cell_length_a   3.74961297
_cell_length_b   3.74961297
_cell_length_c   13.55024047
_cell_angle_alpha   90.00000000
_cell_angle_beta   90.00000000
_cell_angle_gamma   90.00000000
_symmetry_Int_Tables_number   1
_chemical_formula_structural   CsNa(CoAs)4
_chemical_formula_sum   'Cs1 Na1 Co4 As4'
_cell_volume   190.51092597
_cell_formula_units_Z   1
loop_
 _symmetry_equiv_pos_site_id
 _symmetry_equiv_pos_as_xyz
  1  'x, y, z'
loop_
 _atom_site_type_symbol
 _atom_site_label
 _atom_site_symmetry_multiplicity
 _atom_site_fract_x
 _atom_site_fract_y
 _atom_site_fract_z
 _atom_site_occupancy
  Cs  Cs0  1  0.50000000  0.50000000  0.50000000  1
  Na  Na0  1  0.00000000  0.00000000  0.00000000  1
  Co  Co0  1  0.50000000  0.00000000  0.77941375  1
  Co  Co1  1  0.00000000  0.50000000  0.77941375  1
  Co  Co2  1  0.50000000  0.00000000  0.22058625  1
  Co  Co3  1  0.00000000  0.50000000  0.22058625  1
  As  As0  1  0.00000000  0.00000000  0.68223462  1
  As  As1  1  0.00000000  0.00000000  0.31776538  1
  As  As2  1  0.50000000  0.50000000  0.87545192  1
  As  As3  1  0.50000000  0.50000000  0.12454808  1
loop_
_geom_bond_atom_site_label_1
_geom_bond_atom_site_label_2
_geom_bond_distance
_geom_bond_site_symmetry_2
As0 Co0 2.291040 1_555
As0 Co1 2.291040 1_545
As0 Co1 2.291040 1_555
As0 Co0 2.291040 1_455
As0 Cs0 3.623169 1_455
As0 Cs0 3.623169 1_555
As0 Cs0 3.623169 1_445
As0 Cs0 3.623169 1_545
As1 Co2 2.291040 1_555
As1 Co3 2.291040 1_555
As1 Co3 2.291040 1_545
As1 Co2 2.291040 1_455
As1 Cs0 3.623169 1_555
As1 Cs0 3.623169 1_445
As1 Cs0 3.623169 1_545
As1 Cs0 3.623169 1_455
As2 Co0 2.282189 1_555
As2 Co0 2.282189 1_565
As2 Co1 2.282189 1_555
As2 Co1 2.282189 1_655
As2 Na0 3.142926 1_556
As2 Na0 3.142926 1_566
As2 Na0 3.142926 1_656
As2 Na0 3.142926 1_666
As3 Co3 2.282189 1_555
As3 Co3 2.282189 1_655
As3 Co2 2.282189 1_555
As3 Co2 2.282189 1_565
As3 Na0 3.142926 1_565
As3 Na0 3.142926 1_555
As3 Na0 3.142926 1_655
As3 Na0 3.142926 1_665
