# generated using pymatgen
data_Hf2Nb(SiRu)3
_symmetry_space_group_name_H-M   'P 1'
_cell_length_a   7.47732280
_cell_length_b   7.47732267
_cell_length_c   7.47732355
_cell_angle_alpha   126.89128276
_cell_angle_beta   121.61024430
_cell_angle_gamma   82.85176735
_symmetry_Int_Tables_number   1
_chemical_formula_structural   Hf2Nb(SiRu)3
_chemical_formula_sum   'Hf4 Nb2 Si6 Ru6'
_cell_volume   273.41934475
_cell_formula_units_Z   2
loop_
 _symmetry_equiv_pos_site_id
 _symmetry_equiv_pos_as_xyz
  1  'x, y, z'
loop_
 _atom_site_type_symbol
 _atom_site_label
 _atom_site_symmetry_multiplicity
 _atom_site_fract_x
 _atom_site_fract_y
 _atom_site_fract_z
 _atom_site_occupancy
  Hf  Hf0  1  0.55664076  0.09940890  0.04276814  1
  Hf  Hf1  1  0.44335924  0.48612738  0.54276814  1
  Hf  Hf2  1  0.96878635  0.48694674  0.01816039  1
  Hf  Hf3  1  0.03121365  0.04937304  0.51816039  1
  Nb  Nb0  1  0.75374908  0.92028153  0.66653245  1
  Nb  Nb1  1  0.24625092  0.91278337  0.16653245  1
  Si  Si0  1  0.77769323  0.54437355  0.26668032  1
  Si  Si1  1  0.22230677  0.48898709  0.76668032  1
  Si  Si2  1  0.34338603  0.82682074  0.49835450  1
  Si  Si3  1  0.65661397  0.15496647  0.48343371  1
  Si  Si4  1  0.82846625  0.82682074  0.98343371  1
  Si  Si5  1  0.17153375  0.15496647  0.99835450  1
  Ru  Ru0  1  0.50000000  0.25536295  0.75536295  1
  Ru  Ru1  1  0.00000000  0.25536295  0.25536295  1
  Ru  Ru2  1  0.15362920  0.74516924  0.64826848  1
  Ru  Ru3  1  0.84637080  0.49463928  0.59154004  1
  Ru  Ru4  1  0.59690076  0.74516924  0.09154004  1
  Ru  Ru5  1  0.40309924  0.49463928  0.14826848  1
loop_
_geom_bond_atom_site_label_1
_geom_bond_atom_site_label_2
_geom_bond_distance
_geom_bond_site_symmetry_2
Hf0 Si2 2.703879 1_544
Hf0 Si4 2.703880 1_544
Hf0 Si5 2.727682 1_554
Hf0 Si3 2.727684 1_555
Hf0 Ru5 2.824896 1_555
Hf0 Ru3 2.824896 1_555
Hf0 Ru4 2.843549 1_545
Hf0 Ru2 2.843549 1_544
Hf0 Ru1 2.844152 1_655
Hf0 Ru0 2.844152 1_554
Hf0 Si0 2.895653 1_555
Hf1 Si5 2.703881 1_554
Hf1 Si3 2.703889 1_555
Hf1 Si4 2.727683 1_555
Hf1 Si2 2.727683 1_555
Hf1 Ru2 2.824896 1_555
Hf1 Ru4 2.824896 1_556
Hf1 Ru3 2.843549 1_555
Hf1 Ru5 2.843549 1_555
Hf1 Ru1 2.844152 1_555
Hf1 Ru0 2.844152 1_555
Hf1 Si1 2.895654 1_555
Hf2 Si3 2.709157 1_554
Hf2 Si5 2.709163 1_654
Hf2 Si0 2.711435 1_555
Hf2 Si2 2.733090 1_655
Hf2 Si4 2.733093 1_554
Hf2 Ru5 2.857171 1_655
Hf2 Ru3 2.857172 1_554
Hf2 Ru0 3.058047 1_554
Hf2 Ru1 3.058047 1_655
Hf3 Si2 2.709147 1_545
Hf3 Si4 2.709159 1_444
Hf3 Si1 2.711441 1_555
Hf3 Si3 2.733086 1_455
Hf3 Si5 2.733094 1_555
Hf3 Ru2 2.857164 1_545
Hf3 Ru4 2.857169 1_445
Hf3 Ru0 3.058049 1_555
Hf3 Ru1 3.058054 1_555
Nb0 Si4 2.630319 1_555
Nb0 Si2 2.630326 1_555
Nb0 Si3 2.646913 1_565
Nb0 Si5 2.646918 1_665
Nb0 Si0 2.686631 1_555
Nb0 Ru0 2.908387 1_565
Nb0 Ru1 2.908387 1_666
Nb0 Ru3 2.939270 1_555
Nb0 Ru5 2.939270 1_555
Nb1 Si5 2.630312 1_564
Nb1 Si3 2.630323 1_565
Nb1 Si4 2.646919 1_454
Nb1 Si2 2.646921 1_555
Nb1 Si1 2.686631 1_554
Nb1 Ru1 2.908387 1_565
Nb1 Ru0 2.908387 1_565
Nb1 Ru4 2.939270 1_555
Nb1 Ru2 2.939270 1_554
Ru0 Si1 2.544445 1_555
Ru0 Si0 2.544445 1_556
Ru0 Si2 2.552235 1_545
Ru0 Si3 2.552238 1_555
Ru0 Ru4 2.820511 1_556
Ru0 Ru5 2.820512 1_556
Ru1 Si0 2.544445 1_455
Ru1 Si1 2.544445 1_555
Ru1 Si5 2.552232 1_554
Ru1 Si4 2.552233 1_444
Ru1 Ru2 2.820511 1_555
Ru1 Ru3 2.820511 1_455
Ru2 Si0 2.407576 1_455
Ru2 Si1 2.455978 1_555
Ru2 Si2 2.519331 1_555
Ru2 Si5 2.522719 1_565
Ru3 Si1 2.407576 1_655
Ru3 Si0 2.455978 1_555
Ru3 Si3 2.519340 1_555
Ru3 Si4 2.522724 1_555
Ru4 Si0 2.407576 1_555
Ru4 Si1 2.455978 1_554
Ru4 Si4 2.519337 1_554
Ru4 Si3 2.522718 1_565
Ru5 Si1 2.407576 1_554
Ru5 Si0 2.455978 1_555
Ru5 Si5 2.519344 1_554
Ru5 Si2 2.522728 1_555
