# generated using pymatgen
data_Sr2Cd(BrO)2
_symmetry_space_group_name_H-M   'P 1'
_cell_length_a   6.46728528
_cell_length_b   6.46728587
_cell_length_c   7.81197269
_cell_angle_alpha   120.62340038
_cell_angle_beta   120.62340290
_cell_angle_gamma   36.38353121
_symmetry_Int_Tables_number   1
_chemical_formula_structural   Sr2Cd(BrO)2
_chemical_formula_sum   'Sr2 Cd1 Br2 O2'
_cell_volume   163.60182970
_cell_formula_units_Z   1
loop_
 _symmetry_equiv_pos_site_id
 _symmetry_equiv_pos_as_xyz
  1  'x, y, z'
loop_
 _atom_site_type_symbol
 _atom_site_label
 _atom_site_symmetry_multiplicity
 _atom_site_fract_x
 _atom_site_fract_y
 _atom_site_fract_z
 _atom_site_occupancy
  Sr  Sr0  1  0.80254604  0.80254604  0.23247427  1
  Sr  Sr1  1  0.19745396  0.19745396  0.76752673  1
  Cd  Cd0  1  0.00000000  0.00000000  0.00000000  1
  Br  Br0  1  0.57350491  0.57350491  0.35463564  1
  Br  Br1  1  0.42649509  0.42649509  0.64536536  1
  O  O0  1  0.18582758  0.18582758  0.06972607  1
  O  O1  1  0.81417242  0.81417242  0.93027293  1
loop_
_geom_bond_atom_site_label_1
_geom_bond_atom_site_label_2
_geom_bond_distance
_geom_bond_site_symmetry_2
Cd0 O1 2.043782 1_444
Cd0 O0 2.043785 1_555
Br0 Cd0 3.143912 1_565
Br0 Cd0 3.143912 1_655
Br0 Sr1 3.395872 1_655
Br0 Sr1 3.395872 1_565
Br0 Sr0 3.422326 1_555
Br0 Sr0 3.558916 1_455
Br0 Sr0 3.558917 1_545
Br1 Cd0 3.143906 1_656
Br1 Cd0 3.143906 1_566
Br1 Sr0 3.395872 1_455
Br1 Sr0 3.395872 1_545
Br1 Sr1 3.422326 1_555
Br1 Sr1 3.558916 1_655
Br1 Sr1 3.558917 1_565
O0 Sr0 2.407212 1_545
O0 Sr0 2.407212 1_455
O0 Sr1 2.440358 1_554
O1 Sr1 2.407209 1_565
O1 Sr1 2.407209 1_655
O1 Sr0 2.440374 1_556
