# generated using pymatgen
data_ScZn2InNi2
_symmetry_space_group_name_H-M   'P 1'
_cell_length_a   4.96304171
_cell_length_b   4.96304222
_cell_length_c   4.96716832
_cell_angle_alpha   59.97250134
_cell_angle_beta   59.97249790
_cell_angle_gamma   61.90379944
_symmetry_Int_Tables_number   1
_chemical_formula_structural   ScZn2InNi2
_chemical_formula_sum   'Sc1 Zn2 In1 Ni2'
_cell_volume   87.65261514
_cell_formula_units_Z   1
loop_
 _symmetry_equiv_pos_site_id
 _symmetry_equiv_pos_as_xyz
  1  'x, y, z'
loop_
 _atom_site_type_symbol
 _atom_site_label
 _atom_site_symmetry_multiplicity
 _atom_site_fract_x
 _atom_site_fract_y
 _atom_site_fract_z
 _atom_site_occupancy
  Sc  Sc0  1  0.24234683  0.24234683  0.25765317  1
  Zn  Zn0  1  0.62620334  0.62620334  0.62253910  1
  Zn  Zn1  1  0.62620334  0.62620334  0.12505321  1
  In  In0  1  0.00331657  0.00331657  0.99668343  1
  Ni  Ni0  1  0.62602231  0.12590661  0.62403504  1
  Ni  Ni1  1  0.12590661  0.62602231  0.62403504  1
loop_
_geom_bond_atom_site_label_1
_geom_bond_atom_site_label_2
_geom_bond_distance
_geom_bond_site_symmetry_2
Sc0 Zn1 2.932489 1_555
Sc0 Zn0 2.932491 1_554
Sc0 Zn0 2.947360 1_455
Sc0 Zn0 2.947360 1_545
Sc0 Zn1 2.947362 1_455
Sc0 Zn1 2.947362 1_545
Zn0 Zn1 2.471096 1_555
Zn0 Zn1 2.496072 1_556
In0 Ni0 2.875123 1_555
In0 Ni1 2.875123 1_555
In0 Zn0 2.885002 1_446
In0 Zn1 2.885004 1_446
In0 Ni0 2.927705 1_456
In0 Ni1 2.927705 1_546
In0 Ni0 2.927709 1_455
In0 Ni1 2.927709 1_545
In0 Zn1 2.965633 1_546
In0 Zn1 2.965633 1_456
In0 Zn0 2.965635 1_545
In0 Zn0 2.965635 1_455
In0 Sc0 2.983084 1_556
In0 Sc0 2.983084 1_555
In0 Sc0 3.125787 1_456
In0 Sc0 3.125787 1_546
Ni0 Zn0 2.479706 1_555
Ni0 Zn1 2.479707 1_555
Ni0 Zn0 2.483351 1_545
Ni0 Zn1 2.483352 1_546
Ni0 Ni1 2.551993 1_645
Ni0 Ni1 2.553174 1_555
Ni0 Sc0 2.836112 1_655
Ni0 Sc0 2.941277 1_555
Ni0 Sc0 2.941281 1_556
Ni1 Zn0 2.479706 1_555
Ni1 Zn1 2.479706 1_555
Ni1 Zn0 2.483351 1_455
Ni1 Zn1 2.483351 1_456
Ni1 Sc0 2.836112 1_565
Ni1 Sc0 2.941277 1_555
Ni1 Sc0 2.941281 1_556
