# generated using pymatgen
data_Ca6MnOsN6
_symmetry_space_group_name_H-M   'P 1'
_cell_length_a   6.67211056
_cell_length_b   6.67211020
_cell_length_c   5.00516797
_cell_angle_alpha   90.00000000
_cell_angle_beta   90.00000000
_cell_angle_gamma   101.09755556
_symmetry_Int_Tables_number   1
_chemical_formula_structural   Ca6MnOsN6
_chemical_formula_sum   'Ca6 Mn1 Os1 N6'
_cell_volume   218.64889570
_cell_formula_units_Z   1
loop_
 _symmetry_equiv_pos_site_id
 _symmetry_equiv_pos_as_xyz
  1  'x, y, z'
loop_
 _atom_site_type_symbol
 _atom_site_label
 _atom_site_symmetry_multiplicity
 _atom_site_fract_x
 _atom_site_fract_y
 _atom_site_fract_z
 _atom_site_occupancy
  Ca  Ca0  1  0.66885845  0.90140745  0.75000000  1
  Ca  Ca1  1  0.39290265  0.60709735  0.25000000  1
  Ca  Ca2  1  0.90271449  0.67068000  0.25000000  1
  Ca  Ca3  1  0.60820718  0.39179282  0.75000000  1
  Ca  Ca4  1  0.32932000  0.09728551  0.25000000  1
  Ca  Ca5  1  0.09859255  0.33114155  0.75000000  1
  Mn  Mn0  1  0.19803610  0.80196390  0.75000000  1
  Os  Os0  1  0.80710275  0.19289725  0.25000000  1
  N  N0  1  0.67230436  0.91969294  0.25000000  1
  N  N1  1  0.37163508  0.62836492  0.75000000  1
  N  N2  1  0.61880573  0.38119427  0.25000000  1
  N  N3  1  0.93399192  0.68277531  0.75000000  1
  N  N4  1  0.31722469  0.06600808  0.75000000  1
  N  N5  1  0.08030706  0.32769564  0.25000000  1
loop_
_geom_bond_atom_site_label_1
_geom_bond_atom_site_label_2
_geom_bond_distance
_geom_bond_site_symmetry_2
Ca0 N1 2.420907 1_555
Ca0 N3 2.500134 1_555
Ca0 N0 2.505446 1_556
Ca0 N0 2.505446 1_555
Ca0 N4 2.775316 1_565
Ca1 N2 2.327694 1_555
Ca1 N1 2.512160 1_554
Ca1 N1 2.512160 1_555
Ca1 N0 2.515651 1_555
Ca1 N5 2.515651 1_555
Ca2 N2 2.431133 1_555
Ca2 N0 2.471235 1_555
Ca2 N3 2.511276 1_555
Ca2 N3 2.511276 1_554
Ca2 N5 2.772146 1_655
Ca3 N1 2.437627 1_555
Ca3 N2 2.504966 1_555
Ca3 N2 2.504966 1_556
Ca3 N4 2.620986 1_555
Ca3 N3 2.620986 1_555
Ca4 N2 2.431133 1_555
Ca4 N5 2.471235 1_555
Ca4 N4 2.511276 1_555
Ca4 N4 2.511276 1_554
Ca4 N0 2.772147 1_545
Ca5 N1 2.420907 1_555
Ca5 N4 2.500134 1_555
Ca5 N5 2.505446 1_556
Ca5 N5 2.505446 1_555
Ca5 N3 2.775316 1_455
Mn0 N4 1.787953 1_565
Mn0 N3 1.787953 1_455
Mn0 N1 1.788755 1_555
N0 Os0 1.870978 1_565
N2 Os0 1.940203 1_555
N5 Os0 1.870978 1_455
