# generated using pymatgen
data_CsPtRhS4
_symmetry_space_group_name_H-M   'P 1'
_cell_length_a   6.20444584
_cell_length_b   7.15234463
_cell_length_c   16.13387716
_cell_angle_alpha   90.00000000
_cell_angle_beta   90.00000000
_cell_angle_gamma   90.00000000
_symmetry_Int_Tables_number   1
_chemical_formula_structural   CsPtRhS4
_chemical_formula_sum   'Cs4 Pt4 Rh4 S16'
_cell_volume   715.96233610
_cell_formula_units_Z   4
loop_
 _symmetry_equiv_pos_site_id
 _symmetry_equiv_pos_as_xyz
  1  'x, y, z'
loop_
 _atom_site_type_symbol
 _atom_site_label
 _atom_site_symmetry_multiplicity
 _atom_site_fract_x
 _atom_site_fract_y
 _atom_site_fract_z
 _atom_site_occupancy
  Cs  Cs0  1  0.36040805  0.00000000  0.00000000  1
  Cs  Cs1  1  0.63959195  0.50000000  0.50000000  1
  Cs  Cs2  1  0.02048626  0.00000000  0.50000000  1
  Cs  Cs3  1  0.97951374  0.50000000  0.00000000  1
  Pt  Pt0  1  0.50000000  0.25000000  0.25000000  1
  Pt  Pt1  1  0.50000000  0.75000000  0.75000000  1
  Pt  Pt2  1  0.50000000  0.75000000  0.25000000  1
  Pt  Pt3  1  0.50000000  0.25000000  0.75000000  1
  Rh  Rh0  1  0.00179475  0.00000000  0.25085534  1
  Rh  Rh1  1  0.00179475  0.00000000  0.74914466  1
  Rh  Rh2  1  0.99820525  0.50000000  0.24914466  1
  Rh  Rh3  1  0.99820525  0.50000000  0.75085534  1
  S  S0  1  0.83473668  0.25074954  0.32518331  1
  S  S1  1  0.83473668  0.74925046  0.67481669  1
  S  S2  1  0.16526332  0.75074954  0.17481669  1
  S  S3  1  0.16526332  0.24925046  0.82518331  1
  S  S4  1  0.16526332  0.24925046  0.17481669  1
  S  S5  1  0.16526332  0.75074954  0.82518331  1
  S  S6  1  0.83473668  0.74925046  0.32518331  1
  S  S7  1  0.83473668  0.25074954  0.67481669  1
  S  S8  1  0.67343462  0.00000000  0.17630760  1
  S  S9  1  0.67343462  0.00000000  0.82369240  1
  S  S10  1  0.32656538  0.50000000  0.32369240  1
  S  S11  1  0.32656538  0.50000000  0.67630760  1
  S  S12  1  0.33593369  0.00000000  0.32484668  1
  S  S13  1  0.33593369  0.00000000  0.67515332  1
  S  S14  1  0.66406631  0.50000000  0.17515332  1
  S  S15  1  0.66406631  0.50000000  0.82484668  1
loop_
_geom_bond_atom_site_label_1
_geom_bond_atom_site_label_2
_geom_bond_distance
_geom_bond_site_symmetry_2
Cs0 S8 3.444313 1_555
Cs0 S9 3.444313 1_554
Cs0 S4 3.549524 1_555
Cs0 S2 3.549524 1_545
Cs0 S3 3.549524 1_554
Cs0 S5 3.549524 1_544
Cs1 S11 3.444313 1_555
Cs1 S10 3.444313 1_555
Cs1 S1 3.549524 1_555
Cs1 S7 3.549524 1_555
Cs1 S6 3.549524 1_555
Cs1 S0 3.549524 1_555
Cs2 S13 3.437479 1_555
Cs2 S12 3.437479 1_555
Cs2 S7 3.535492 1_455
Cs2 S1 3.535492 1_445
Cs2 S0 3.535492 1_455
Cs2 S6 3.535492 1_445
Cs3 S14 3.437479 1_555
Cs3 S15 3.437479 1_554
Cs3 S2 3.535492 1_655
Cs3 S4 3.535492 1_655
Cs3 S5 3.535492 1_654
Cs3 S3 3.535492 1_654
Pt0 S14 2.385723 1_555
Pt0 S12 2.385723 1_555
Pt0 S10 2.401824 1_555
Pt0 S8 2.401824 1_555
Pt0 S0 2.405145 1_555
Pt0 S4 2.405145 1_555
Pt1 S15 2.385723 1_555
Pt1 S13 2.385723 1_565
Pt1 S9 2.401824 1_565
Pt1 S11 2.401824 1_555
Pt1 S5 2.405145 1_555
Pt1 S1 2.405145 1_555
Pt2 S14 2.385723 1_555
Pt2 S12 2.385723 1_565
Pt2 S10 2.401824 1_555
Pt2 S8 2.401824 1_565
Pt2 S6 2.405145 1_555
Pt2 S2 2.405145 1_555
Pt3 S15 2.385723 1_555
Pt3 S13 2.385723 1_555
Pt3 S9 2.401824 1_555
Pt3 S11 2.401824 1_555
Pt3 S3 2.405145 1_555
Pt3 S7 2.405145 1_555
Rh0 S8 2.365831 1_455
Rh0 S4 2.389939 1_555
Rh0 S2 2.389939 1_545
Rh0 S12 2.392283 1_555
Rh0 S0 2.393505 1_455
Rh0 S6 2.393505 1_445
Rh1 S9 2.365831 1_455
Rh1 S3 2.389939 1_555
Rh1 S5 2.389939 1_545
Rh1 S13 2.392283 1_555
Rh1 S7 2.393505 1_455
Rh1 S1 2.393505 1_445
Rh2 S10 2.365831 1_655
Rh2 S6 2.389939 1_555
Rh2 S0 2.389939 1_555
Rh2 S14 2.392283 1_555
Rh2 S2 2.393505 1_655
Rh2 S4 2.393505 1_655
Rh3 S11 2.365831 1_655
Rh3 S1 2.389939 1_555
Rh3 S7 2.389939 1_555
Rh3 S15 2.392283 1_555
Rh3 S5 2.393505 1_655
Rh3 S3 2.393505 1_655
