# generated using pymatgen
data_CsAg(HS)2
_symmetry_space_group_name_H-M   'P 1'
_cell_length_a   7.27019435
_cell_length_b   7.27019425
_cell_length_c   7.16317169
_cell_angle_alpha   107.74009393
_cell_angle_beta   107.58866831
_cell_angle_gamma   113.70657054
_symmetry_Int_Tables_number   1
_chemical_formula_structural   CsAg(HS)2
_chemical_formula_sum   'Cs2 Ag2 H4 S4'
_cell_volume   288.38419815
_cell_formula_units_Z   2
loop_
 _symmetry_equiv_pos_site_id
 _symmetry_equiv_pos_as_xyz
  1  'x, y, z'
loop_
 _atom_site_type_symbol
 _atom_site_label
 _atom_site_symmetry_multiplicity
 _atom_site_fract_x
 _atom_site_fract_y
 _atom_site_fract_z
 _atom_site_occupancy
  Cs  Cs0  1  0.82762008  0.82762008  0.00000000  1
  Cs  Cs1  1  0.58920860  0.08920860  0.50000000  1
  Ag  Ag0  1  0.08555633  0.58555633  0.50000000  1
  Ag  Ag1  1  0.33563519  0.33563519  0.00000000  1
  H  H0  1  0.19531927  0.30876461  0.57095878  1
  H  H1  1  0.36468857  0.98640439  0.93048174  1
  H  H2  1  0.05592066  0.43420584  0.06951826  1
  H  H3  1  0.73780583  0.62436050  0.42904122  1
  S  S0  1  0.27582074  0.76837650  0.89538031  1
  S  S1  1  0.13913791  0.12500909  0.60472047  1
  S  S2  1  0.52028862  0.53441844  0.39527953  1
  S  S3  1  0.87299619  0.38044043  0.10461969  1
loop_
_geom_bond_atom_site_label_1
_geom_bond_atom_site_label_2
_geom_bond_distance
_geom_bond_site_symmetry_2
Cs0 S1 3.604692 1_665
Cs0 S2 3.604693 1_554
Cs0 S3 3.665749 1_555
Cs0 S0 3.665749 1_554
Cs0 S3 3.711153 1_565
Cs0 S0 3.711153 1_654
Cs1 S0 3.604996 1_544
Cs1 S3 3.604996 1_556
Cs1 S2 3.658727 1_545
Cs1 S1 3.658734 1_555
Cs1 S1 3.721143 1_655
Cs1 S2 3.721150 1_555
Ag0 S3 2.358218 1_455
Ag0 S0 2.358218 1_555
Ag0 Cs1 3.946194 1_455
Ag0 Cs1 4.004269 1_565
Ag1 S1 2.357318 1_554
Ag1 S2 2.357318 1_555
Ag1 Cs0 3.911508 1_555
Ag1 Cs0 4.038956 1_445
H0 S1 1.351985 1_555
H1 S0 1.352277 1_555
H2 S3 1.352264 1_455
H3 S2 1.351986 1_555
