# generated using pymatgen
data_KZnPtO4
_symmetry_space_group_name_H-M   'P 1'
_cell_length_a   6.16845225
_cell_length_b   7.75898312
_cell_length_c   6.16845216
_cell_angle_alpha   126.42852429
_cell_angle_beta   120.19143036
_cell_angle_gamma   78.54409298
_symmetry_Int_Tables_number   1
_chemical_formula_structural   KZnPtO4
_chemical_formula_sum   'K2 Zn2 Pt2 O8'
_cell_volume   203.18331914
_cell_formula_units_Z   2
loop_
 _symmetry_equiv_pos_site_id
 _symmetry_equiv_pos_as_xyz
  1  'x, y, z'
loop_
 _atom_site_type_symbol
 _atom_site_label
 _atom_site_symmetry_multiplicity
 _atom_site_fract_x
 _atom_site_fract_y
 _atom_site_fract_z
 _atom_site_occupancy
  K  K0  1  0.58073455  0.95953756  0.87880301  1
  K  K1  1  0.92227126  0.96884570  0.54657444  1
  Zn  Zn0  1  0.49441285  0.44672390  0.45231005  1
  Zn  Zn1  1  0.00443150  0.48073730  0.97630680  1
  Pt  Pt0  1  0.00089687  0.46452545  0.46580670  1
  Pt  Pt1  1  0.49871875  0.46452545  0.96362858  1
  O  O0  1  0.81422974  0.30633426  0.49549338  1
  O  O1  1  0.31084087  0.30633426  0.99210251  1
  O  O2  1  0.29171251  0.29268743  0.50097492  1
  O  O3  1  0.20682987  0.63556705  0.92873818  1
  O  O4  1  0.79493705  0.29414267  0.99920461  1
  O  O5  1  0.68420560  0.62224255  0.93228531  1
  O  O6  1  0.70581932  0.63555488  0.42973656  1
  O  O7  1  0.18995824  0.62224255  0.43803595  1
loop_
_geom_bond_atom_site_label_1
_geom_bond_atom_site_label_2
_geom_bond_distance
_geom_bond_site_symmetry_2
K0 O4 2.668954 1_565
K0 O7 2.741407 1_555
K0 O5 2.741411 1_555
K0 O0 2.767274 1_566
K0 O1 2.767275 1_565
K0 O6 2.774331 1_555
K1 O6 2.679501 1_555
K1 O0 2.734194 1_565
K1 O1 2.734194 1_665
K1 O5 2.759824 1_554
K1 O7 2.759826 1_655
K1 O4 2.798518 1_565
O0 Pt0 1.976434 1_655
O0 Zn0 2.027755 1_555
O0 Zn1 2.090074 1_655
O1 Pt1 1.976424 1_555
O1 Zn0 2.027761 1_556
O1 Zn1 2.090070 1_555
O2 Pt0 2.011159 1_555
O2 Pt1 2.011159 1_555
O2 Zn0 2.116391 1_555
O3 Pt1 2.012376 1_555
O3 Pt0 2.012381 1_555
O3 Zn1 2.114439 1_555
O4 Pt1 2.028853 1_555
O4 Pt0 2.028858 1_656
O4 Zn1 2.226112 1_655
O5 Pt1 1.975767 1_555
O5 Zn1 2.033252 1_655
O5 Zn0 2.085548 1_555
O6 Pt0 2.026665 1_655
O6 Pt1 2.026670 1_554
O6 Zn0 2.247316 1_555
O7 Pt0 1.975776 1_555
O7 Zn1 2.033243 1_554
O7 Zn0 2.085539 1_555
