# generated using pymatgen
data_YGa2Co3
_symmetry_space_group_name_H-M   'P 1'
_cell_length_a   8.77171564
_cell_length_b   8.77126625
_cell_length_c   4.00065150
_cell_angle_alpha   89.99999985
_cell_angle_beta   90.00001468
_cell_angle_gamma   119.99925103
_symmetry_Int_Tables_number   1
_chemical_formula_structural   YGa2Co3
_chemical_formula_sum   'Y3 Ga6 Co9'
_cell_volume   266.57012103
_cell_formula_units_Z   3
loop_
 _symmetry_equiv_pos_site_id
 _symmetry_equiv_pos_as_xyz
  1  'x, y, z'
loop_
 _atom_site_type_symbol
 _atom_site_label
 _atom_site_symmetry_multiplicity
 _atom_site_fract_x
 _atom_site_fract_y
 _atom_site_fract_z
 _atom_site_occupancy
  Y  Y0  1  0.00001512  0.00005459  -0.00000018  1
  Y  Y1  1  0.33334999  0.66666934  0.50000108  1
  Y  Y2  1  0.66662800  0.33328297  0.49999972  1
  Ga  Ga0  1  0.30826234  0.00005046  0.50000013  1
  Ga  Ga1  1  0.30826178  0.30817751  0.50000000  1
  Ga  Ga2  1  -0.00003097  0.69176516  0.49999986  1
  Ga  Ga3  1  -0.00003602  0.30819133  0.49999998  1
  Ga  Ga4  1  0.69176894  0.69177571  0.49999987  1
  Ga  Ga5  1  0.69177409  0.00002610  0.49999979  1
  Co  Co0  1  0.50001555  0.00003671  0.00000009  1
  Co  Co1  1  0.50002811  0.49996118  0.00000006  1
  Co  Co2  1  -0.00002657  0.49997222  0.00000005  1
  Co  Co3  1  0.18566624  0.37129609  -0.00000001  1
  Co  Co4  1  0.81430944  0.18565780  -0.00000016  1
  Co  Co5  1  0.37133632  0.18565395  0.00000022  1
  Co  Co6  1  0.62868333  0.81436103  -0.00000034  1
  Co  Co7  1  0.18566605  0.81438441  0.00000004  1
  Co  Co8  1  0.81432827  0.62868343  -0.00000020  1
loop_
_geom_bond_atom_site_label_1
_geom_bond_atom_site_label_2
_geom_bond_distance
_geom_bond_site_symmetry_2
Ga0 Ga1 2.702667 1_555
Ga0 Ga2 2.704187 1_545
Ga0 Y2 3.039222 1_555
Ga0 Y1 3.040182 1_545
Ga0 Y0 3.363368 1_556
Ga0 Y0 3.363368 1_555
Ga1 Ga3 2.704361 1_555
Ga1 Y2 3.039375 1_555
Ga1 Y1 3.040376 1_555
Ga1 Y0 3.362882 1_556
Ga1 Y0 3.362882 1_555
Ga2 Ga4 2.703490 1_455
Ga2 Y2 3.040188 1_455
Ga2 Y1 3.040364 1_555
Ga2 Y0 3.363377 1_566
Ga2 Y0 3.363377 1_565
Ga3 Ga5 2.703207 1_455
Ga3 Y2 3.039950 1_455
Ga3 Y1 3.040343 1_555
Ga3 Y0 3.362643 1_556
Ga3 Y0 3.362644 1_555
Ga4 Ga5 2.703724 1_565
Ga4 Y1 3.039833 1_555
Ga4 Y2 3.040178 1_555
Ga4 Y0 3.363430 1_666
Ga4 Y0 3.363431 1_665
Ga5 Y2 3.039378 1_555
Ga5 Y1 3.039990 1_545
Ga5 Y0 3.363209 1_656
Ga5 Y0 3.363210 1_655
Co0 Co5 2.400501 1_555
Co0 Co4 2.400584 1_555
Co0 Co6 2.400888 1_545
Co0 Co7 2.401007 1_545
Co0 Ga0 2.613550 1_554
Co0 Ga0 2.613551 1_555
Co0 Ga5 2.613570 1_555
Co0 Ga5 2.613573 1_554
Co0 Y2 3.226345 1_555
Co0 Y2 3.226347 1_554
Co0 Y1 3.227065 1_544
Co0 Y1 3.227071 1_545
Co1 Co5 2.400547 1_555
Co1 Co8 2.400597 1_555
Co1 Co3 2.401144 1_555
Co1 Co6 2.401322 1_555
Co1 Ga1 2.613619 1_554
Co1 Ga1 2.613619 1_555
Co1 Ga4 2.613633 1_555
Co1 Ga4 2.613635 1_554
Co1 Y2 3.226563 1_555
Co1 Y2 3.226565 1_554
Co1 Y1 3.227206 1_554
Co1 Y1 3.227212 1_555
Co2 Co4 2.400663 1_455
Co2 Co8 2.400981 1_455
Co2 Co3 2.401114 1_555
Co2 Co7 2.401383 1_555
Co2 Ga3 2.613585 1_555
Co2 Ga3 2.613586 1_554
Co2 Ga2 2.613692 1_555
Co2 Ga2 2.613693 1_554
Co2 Y2 3.227039 1_455
Co2 Y2 3.227039 1_454
Co2 Y1 3.227223 1_554
Co2 Y1 3.227227 1_555
Co3 Ga3 2.461600 1_554
Co3 Ga3 2.461600 1_555
Co3 Ga1 2.461622 1_555
Co3 Ga1 2.461622 1_554
Co3 Y0 2.820023 1_555
Co3 Y1 3.005917 1_554
Co3 Y1 3.005922 1_555
Co4 Ga5 2.461232 1_554
Co4 Ga5 2.461232 1_555
Co4 Ga3 2.461350 1_654
Co4 Ga3 2.461350 1_655
Co4 Y0 2.820576 1_655
Co4 Y2 3.005566 1_555
Co4 Y2 3.005566 1_554
Co5 Ga1 2.461086 1_555
Co5 Ga1 2.461087 1_554
Co5 Ga0 2.461104 1_555
Co5 Ga0 2.461104 1_554
Co5 Y0 2.820773 1_555
Co5 Y2 3.005541 1_555
Co5 Y2 3.005545 1_554
Co6 Ga5 2.461385 1_564
Co6 Ga5 2.461385 1_565
Co6 Ga4 2.461426 1_554
Co6 Ga4 2.461427 1_555
Co6 Y0 2.820854 1_665
Co6 Y1 3.005775 1_554
Co6 Y1 3.005783 1_555
Co7 Ga0 2.461422 1_564
Co7 Ga0 2.461422 1_565
Co7 Ga2 2.461595 1_555
Co7 Ga2 2.461595 1_554
Co7 Y0 2.820669 1_565
Co7 Y1 3.006087 1_554
Co7 Y1 3.006092 1_555
Co8 Ga2 2.461325 1_655
Co8 Ga2 2.461325 1_654
Co8 Ga4 2.461345 1_554
Co8 Ga4 2.461346 1_555
Co8 Y0 2.821008 1_665
Co8 Y2 3.006074 1_554
Co8 Y2 3.006074 1_555
