# generated using pymatgen
data_Sr3AgRuO6
_symmetry_space_group_name_H-M   'P 1'
_cell_length_a   6.80274073
_cell_length_b   6.80274063
_cell_length_c   6.80274101
_cell_angle_alpha   89.64693027
_cell_angle_beta   89.64693690
_cell_angle_gamma   89.64693367
_symmetry_Int_Tables_number   1
_chemical_formula_structural   Sr3AgRuO6
_chemical_formula_sum   'Sr6 Ag2 Ru2 O12'
_cell_volume   314.79449780
_cell_formula_units_Z   2
loop_
 _symmetry_equiv_pos_site_id
 _symmetry_equiv_pos_as_xyz
  1  'x, y, z'
loop_
 _atom_site_type_symbol
 _atom_site_label
 _atom_site_symmetry_multiplicity
 _atom_site_fract_x
 _atom_site_fract_y
 _atom_site_fract_z
 _atom_site_occupancy
  Sr  Sr0  1  0.75000000  0.39398557  0.10601443  1
  Sr  Sr1  1  0.10601443  0.75000000  0.39398557  1
  Sr  Sr2  1  0.39398557  0.10601443  0.75000000  1
  Sr  Sr3  1  0.25000000  0.60601443  0.89398557  1
  Sr  Sr4  1  0.89398557  0.25000000  0.60601443  1
  Sr  Sr5  1  0.60601443  0.89398557  0.25000000  1
  Ag  Ag0  1  0.25000000  0.25000000  0.25000000  1
  Ag  Ag1  1  0.75000000  0.75000000  0.75000000  1
  Ru  Ru0  1  0.00000000  0.00000000  0.00000000  1
  Ru  Ru1  1  0.50000000  0.50000000  0.50000000  1
  O  O0  1  0.43882701  0.77516720  0.57315926  1
  O  O1  1  0.57315926  0.43882701  0.77516720  1
  O  O2  1  0.77516720  0.57315926  0.43882701  1
  O  O3  1  0.06117299  0.92684074  0.72483280  1
  O  O4  1  0.72483280  0.06117299  0.92684074  1
  O  O5  1  0.92684074  0.72483280  0.06117299  1
  O  O6  1  0.56117299  0.22483280  0.42684074  1
  O  O7  1  0.42684074  0.56117299  0.22483280  1
  O  O8  1  0.22483280  0.42684074  0.56117299  1
  O  O9  1  0.93882701  0.07315926  0.27516720  1
  O  O10  1  0.07315926  0.27516720  0.93882701  1
  O  O11  1  0.27516720  0.93882701  0.07315926  1
loop_
_geom_bond_atom_site_label_1
_geom_bond_atom_site_label_2
_geom_bond_distance
_geom_bond_site_symmetry_2
Ag0 O6 2.445786 1_555
Ag0 O7 2.445786 1_555
Ag0 O9 2.445786 1_455
Ag0 O10 2.445786 1_554
Ag0 O11 2.445786 1_545
Ag0 O8 2.445786 1_555
Ag1 O0 2.445786 1_555
Ag1 O1 2.445786 1_555
Ag1 O3 2.445786 1_655
Ag1 O5 2.445786 1_556
Ag1 O4 2.445786 1_565
Ag1 O2 2.445786 1_555
O0 Ru1 1.980952 1_555
O0 Sr2 2.574132 1_565
O0 Sr1 2.584992 1_555
O0 Sr5 2.595824 1_555
O0 Sr3 2.773117 1_555
O1 Ru1 1.980952 1_555
O1 Sr0 2.574132 1_556
O1 Sr2 2.584992 1_555
O1 Sr3 2.595824 1_555
O1 Sr4 2.773117 1_555
O2 Ru1 1.980952 1_555
O2 Sr1 2.574132 1_655
O2 Sr0 2.584993 1_555
O2 Sr4 2.595824 1_555
O2 Sr5 2.773116 1_555
O3 Ru0 1.980952 1_566
O3 Sr1 2.574132 1_555
O3 Sr2 2.584992 1_565
O3 Sr4 2.595824 1_465
O3 Sr3 2.773116 1_555
O4 Ru0 1.980952 1_656
O4 Sr2 2.574132 1_555
O4 Sr0 2.584993 1_556
O4 Sr5 2.595824 1_546
O4 Sr4 2.773117 1_555
O5 Ru0 1.980952 1_665
O5 Sr0 2.574132 1_555
O5 Sr1 2.584993 1_655
O5 Sr3 2.595824 1_654
O5 Sr5 2.773117 1_555
O6 Ru1 1.980952 1_555
O6 Sr5 2.574132 1_545
O6 Sr4 2.584992 1_555
O6 Sr2 2.595824 1_555
O6 Sr0 2.773117 1_555
O7 Ru1 1.980952 1_555
O7 Sr3 2.574132 1_554
O7 Sr5 2.584992 1_555
O7 Sr0 2.595824 1_555
O7 Sr1 2.773117 1_555
O8 Ru1 1.980952 1_555
O8 Sr4 2.574132 1_455
O8 Sr3 2.584993 1_555
O8 Sr1 2.595824 1_555
O8 Sr2 2.773116 1_555
O9 Ru0 1.980952 1_655
O9 Sr4 2.574132 1_555
O9 Sr5 2.584992 1_545
O9 Sr1 2.595824 1_645
O9 Sr0 2.773116 1_555
O10 Ru0 1.980952 1_556
O10 Sr3 2.574132 1_555
O10 Sr4 2.584993 1_455
O10 Sr0 2.595824 1_456
O10 Sr2 2.773117 1_555
O11 Ru0 1.980952 1_565
O11 Sr5 2.574132 1_555
O11 Sr3 2.584993 1_554
O11 Sr2 2.595824 1_564
O11 Sr1 2.773117 1_555
