# generated using pymatgen
data_Sc2FeB2Ir4Ru
_symmetry_space_group_name_H-M   'P 1'
_cell_length_a   9.38833523
_cell_length_b   9.38833523
_cell_length_c   2.99695831
_cell_angle_alpha   90.00000000
_cell_angle_beta   90.00000000
_cell_angle_gamma   90.00000000
_symmetry_Int_Tables_number   1
_chemical_formula_structural   Sc2FeB2Ir4Ru
_chemical_formula_sum   'Sc4 Fe2 B4 Ir8 Ru2'
_cell_volume   264.15441841
_cell_formula_units_Z   2
loop_
 _symmetry_equiv_pos_site_id
 _symmetry_equiv_pos_as_xyz
  1  'x, y, z'
loop_
 _atom_site_type_symbol
 _atom_site_label
 _atom_site_symmetry_multiplicity
 _atom_site_fract_x
 _atom_site_fract_y
 _atom_site_fract_z
 _atom_site_occupancy
  Sc  Sc0  1  0.67341470  0.17341470  0.00000000  1
  Sc  Sc1  1  0.32658530  0.82658530  0.00000000  1
  Sc  Sc2  1  0.17341470  0.32658530  0.00000000  1
  Sc  Sc3  1  0.82658530  0.67341470  0.00000000  1
  Fe  Fe0  1  0.50000000  0.50000000  0.00000000  1
  Fe  Fe1  1  0.00000000  0.00000000  0.00000000  1
  B  B0  1  0.12262008  0.62262008  0.00000000  1
  B  B1  1  0.87737992  0.37737992  0.00000000  1
  B  B2  1  0.62262008  0.87737992  0.00000000  1
  B  B3  1  0.37737992  0.12262008  0.00000000  1
  Ir  Ir0  1  0.57093709  0.71437241  0.50000000  1
  Ir  Ir1  1  0.42906291  0.28562759  0.50000000  1
  Ir  Ir2  1  0.07093709  0.78562759  0.50000000  1
  Ir  Ir3  1  0.92906291  0.21437241  0.50000000  1
  Ir  Ir4  1  0.28562759  0.57093709  0.50000000  1
  Ir  Ir5  1  0.71437241  0.42906291  0.50000000  1
  Ir  Ir6  1  0.21437241  0.07093709  0.50000000  1
  Ir  Ir7  1  0.78562759  0.92906291  0.50000000  1
  Ru  Ru0  1  0.50000000  0.00000000  0.50000000  1
  Ru  Ru1  1  0.00000000  0.50000000  0.50000000  1
loop_
_geom_bond_atom_site_label_1
_geom_bond_atom_site_label_2
_geom_bond_distance
_geom_bond_site_symmetry_2
Fe0 Ir0 2.596060 1_554
Fe0 Ir0 2.596060 1_555
Fe0 Ir5 2.596060 1_555
Fe0 Ir5 2.596060 1_554
Fe0 Ir4 2.596060 1_555
Fe0 Ir4 2.596060 1_554
Fe0 Ir1 2.596060 1_555
Fe0 Ir1 2.596060 1_554
Fe1 Ir6 2.596060 1_555
Fe1 Ir6 2.596060 1_554
Fe1 Ir3 2.596060 1_455
Fe1 Ir3 2.596060 1_454
Fe1 Ir2 2.596060 1_544
Fe1 Ir2 2.596060 1_545
Fe1 Ir7 2.596060 1_444
Fe1 Ir7 2.596060 1_445
B0 Ir4 2.196111 1_554
B0 Ir2 2.196111 1_555
B0 Ir2 2.196111 1_554
B0 Ir4 2.196111 1_555
B0 Ru1 2.212681 1_554
B0 Ru1 2.212681 1_555
B0 Sc1 2.708069 1_555
B0 Sc3 2.819889 1_455
B0 Sc2 2.819889 1_555
B1 Ir5 2.196111 1_555
B1 Ir3 2.196111 1_555
B1 Ir5 2.196111 1_554
B1 Ir3 2.196111 1_554
B1 Ru1 2.212681 1_655
B1 Ru1 2.212681 1_654
B1 Sc0 2.708069 1_555
B1 Sc2 2.819889 1_655
B1 Sc3 2.819889 1_555
B2 Ir0 2.196111 1_554
B2 Ir7 2.196111 1_555
B2 Ir0 2.196111 1_555
B2 Ir7 2.196111 1_554
B2 Ru0 2.212681 1_565
B2 Ru0 2.212681 1_564
B2 Sc3 2.708069 1_555
B2 Sc1 2.819889 1_555
B2 Sc0 2.819889 1_565
B3 Ir1 2.196111 1_554
B3 Ir6 2.196111 1_555
B3 Ir6 2.196111 1_554
B3 Ir1 2.196111 1_555
B3 Ru0 2.212681 1_555
B3 Ru0 2.212681 1_554
B3 Sc2 2.708069 1_555
B3 Sc1 2.819889 1_545
B3 Sc0 2.819889 1_555
Ir0 Sc3 2.855492 1_556
Ir0 Sc3 2.855492 1_555
Ir0 Sc1 2.935640 1_556
Ir0 Sc1 2.935640 1_555
Ir1 Sc2 2.855492 1_556
Ir1 Sc2 2.855492 1_555
Ir1 Sc0 2.935640 1_555
Ir1 Sc0 2.935640 1_556
Ir2 Sc1 2.855492 1_555
Ir2 Sc1 2.855492 1_556
Ir2 Sc3 2.935640 1_455
Ir2 Sc3 2.935640 1_456
Ir3 Sc0 2.855492 1_555
Ir3 Sc0 2.855492 1_556
Ir3 Sc2 2.935640 1_656
Ir3 Sc2 2.935640 1_655
Ir4 Sc1 2.855492 1_555
Ir4 Sc1 2.855492 1_556
Ir4 Sc2 2.935640 1_556
Ir4 Sc2 2.935640 1_555
Ir5 Sc0 2.855492 1_555
Ir5 Sc0 2.855492 1_556
Ir5 Sc3 2.935640 1_555
Ir5 Sc3 2.935640 1_556
Ir6 Sc2 2.855492 1_556
Ir6 Sc2 2.855492 1_555
Ir6 Sc1 2.935640 1_546
Ir6 Sc1 2.935640 1_545
Ir7 Sc3 2.855492 1_556
Ir7 Sc3 2.855492 1_555
Ir7 Sc0 2.935640 1_565
Ir7 Sc0 2.935640 1_566
Ru0 Sc0 2.747126 1_555
Ru0 Sc0 2.747126 1_556
Ru0 Sc1 2.747126 1_545
Ru0 Sc1 2.747126 1_546
Ru1 Sc2 2.747126 1_555
Ru1 Sc2 2.747126 1_556
Ru1 Sc3 2.747126 1_455
Ru1 Sc3 2.747126 1_456
