# generated using pymatgen
data_Cs6GaBi3
_symmetry_space_group_name_H-M   'P 1'
_cell_length_a   6.62860297
_cell_length_b   11.26092575
_cell_length_c   13.13674573
_cell_angle_alpha   78.73399833
_cell_angle_beta   90.00000000
_cell_angle_gamma   90.00000000
_symmetry_Int_Tables_number   1
_chemical_formula_structural   Cs6GaBi3
_chemical_formula_sum   'Cs12 Ga2 Bi6'
_cell_volume   961.68688115
_cell_formula_units_Z   2
loop_
 _symmetry_equiv_pos_site_id
 _symmetry_equiv_pos_as_xyz
  1  'x, y, z'
loop_
 _atom_site_type_symbol
 _atom_site_label
 _atom_site_symmetry_multiplicity
 _atom_site_fract_x
 _atom_site_fract_y
 _atom_site_fract_z
 _atom_site_occupancy
  Cs  Cs0  1  0.75000000  0.45637613  0.07819953  1
  Cs  Cs1  1  0.25000000  0.54362387  0.92180047  1
  Cs  Cs2  1  0.75000000  0.74900176  0.22289121  1
  Cs  Cs3  1  0.25000000  0.25099824  0.77710879  1
  Cs  Cs4  1  0.25000000  0.55764215  0.54808852  1
  Cs  Cs5  1  0.75000000  0.44235785  0.45191148  1
  Cs  Cs6  1  0.25000000  0.86427311  0.02445613  1
  Cs  Cs7  1  0.75000000  0.13572689  0.97554387  1
  Cs  Cs8  1  0.25000000  0.87099904  0.67742553  1
  Cs  Cs9  1  0.75000000  0.12900096  0.32257447  1
  Cs  Cs10  1  0.25000000  0.91296963  0.36820599  1
  Cs  Cs11  1  0.75000000  0.08703037  0.63179401  1
  Ga  Ga0  1  0.75000000  0.67862171  0.71968139  1
  Ga  Ga1  1  0.25000000  0.32137829  0.28031861  1
  Bi  Bi0  1  0.25000000  0.21335668  0.48511768  1
  Bi  Bi1  1  0.75000000  0.78664332  0.51488232  1
  Bi  Bi2  1  0.25000000  0.56626866  0.23204222  1
  Bi  Bi3  1  0.75000000  0.43373134  0.76795778  1
  Bi  Bi4  1  0.75000000  0.81256654  0.87684189  1
  Bi  Bi5  1  0.25000000  0.18743346  0.12315811  1
loop_
_geom_bond_atom_site_label_1
_geom_bond_atom_site_label_2
_geom_bond_distance
_geom_bond_site_symmetry_2
Cs0 Cs1 3.922045 1_554
Cs0 Cs1 3.922045 1_654
Cs0 Cs7 4.093795 1_554
Cs0 Cs2 4.113255 1_555
Cs0 Ga1 4.332260 1_655
Cs0 Ga1 4.332260 1_555
Cs0 Cs9 4.390031 1_555
Cs0 Cs5 4.880975 1_555
Cs1 Cs6 4.093795 1_556
Cs1 Cs3 4.113255 1_555
Cs1 Ga0 4.332260 1_555
Cs1 Ga0 4.332260 1_455
Cs1 Cs8 4.390031 1_555
Cs1 Cs4 4.880975 1_555
Cs2 Cs5 4.112928 1_555
Cs2 Cs6 4.259434 1_555
Cs2 Cs6 4.259434 1_655
Cs2 Cs9 4.713319 1_565
Cs2 Cs7 4.898389 1_564
Cs3 Cs4 4.112928 1_555
Cs3 Cs7 4.259434 1_555
Cs3 Cs7 4.259434 1_455
Cs3 Cs8 4.713319 1_545
Cs3 Cs6 4.898389 1_546
Cs4 Cs5 3.860976 1_555
Cs4 Cs5 3.860976 1_455
Cs4 Cs8 4.204887 1_555
Cs4 Ga0 4.372845 1_555
Cs4 Ga0 4.372845 1_455
Cs5 Cs9 4.204887 1_555
Cs5 Ga1 4.372845 1_655
Cs5 Ga1 4.372845 1_555
Cs6 Cs7 4.469247 1_464
Cs6 Cs7 4.469247 1_564
Cs6 Cs8 4.544663 1_554
Cs7 Cs9 4.544663 1_556
Cs8 Ga0 3.939026 1_455
Cs8 Ga0 3.939026 1_555
Cs9 Ga1 3.939026 1_655
Cs9 Ga1 3.939026 1_555
Cs10 Cs8 3.996773 1_555
Cs10 Cs9 4.085613 1_565
Cs10 Cs9 4.085613 1_465
Cs10 Cs4 4.230856 1_555
Cs10 Cs2 4.406276 1_555
Cs10 Cs2 4.406276 1_455
Cs10 Cs6 4.654063 1_555
Cs11 Cs9 3.996773 1_555
Cs11 Cs8 4.085613 1_645
Cs11 Cs8 4.085613 1_545
Cs11 Cs5 4.230856 1_555
Cs11 Cs3 4.406276 1_655
Cs11 Cs3 4.406276 1_555
Cs11 Cs7 4.654063 1_555
Bi0 Ga1 2.727486 1_555
Bi0 Cs3 3.940613 1_555
Bi0 Cs11 3.956007 1_555
Bi0 Cs11 3.956007 1_455
Bi0 Cs10 3.978811 1_545
Bi0 Cs4 4.119267 1_555
Bi0 Cs9 4.151981 1_555
Bi0 Cs9 4.151981 1_455
Bi0 Cs5 4.169578 1_455
Bi0 Cs5 4.169578 1_555
Bi0 Cs8 4.176090 1_545
Bi1 Ga0 2.727486 1_555
Bi1 Cs2 3.940613 1_555
Bi1 Cs10 3.956007 1_555
Bi1 Cs10 3.956007 1_655
Bi1 Cs11 3.978811 1_565
Bi1 Cs5 4.119267 1_555
Bi1 Cs8 4.151981 1_555
Bi1 Cs8 4.151981 1_655
Bi1 Cs4 4.169578 1_655
Bi1 Cs4 4.169578 1_555
Bi1 Cs9 4.176090 1_565
Bi2 Ga1 2.706237 1_555
Bi2 Cs6 3.888743 1_555
Bi2 Cs2 3.890591 1_455
Bi2 Cs2 3.890591 1_555
Bi2 Cs1 4.132959 1_554
Bi2 Cs4 4.133940 1_555
Bi2 Cs0 4.192563 1_555
Bi2 Cs0 4.192563 1_455
Bi2 Cs5 4.438413 1_455
Bi2 Cs5 4.438413 1_555
Bi2 Cs10 4.601183 1_555
Bi3 Ga0 2.706237 1_555
Bi3 Cs7 3.888743 1_555
Bi3 Cs3 3.890591 1_655
Bi3 Cs3 3.890591 1_555
Bi3 Cs0 4.132959 1_556
Bi3 Cs5 4.133940 1_555
Bi3 Cs1 4.192563 1_555
Bi3 Cs1 4.192563 1_655
Bi3 Cs4 4.438413 1_655
Bi3 Cs4 4.438413 1_555
Bi3 Cs11 4.601183 1_555
Bi4 Ga0 2.784662 1_555
Bi4 Cs6 3.940201 1_656
Bi4 Cs6 3.940201 1_556
Bi4 Cs11 4.003475 1_565
Bi4 Cs7 4.094854 1_565
Bi4 Cs8 4.196043 1_655
Bi4 Cs8 4.196043 1_555
Bi4 Cs0 4.351987 1_556
Bi4 Cs1 4.450460 1_655
Bi4 Cs1 4.450460 1_555
Bi4 Cs2 4.461694 1_556
Bi5 Ga1 2.784662 1_555
Bi5 Cs7 3.940201 1_554
Bi5 Cs7 3.940201 1_454
Bi5 Cs10 4.003475 1_545
Bi5 Cs6 4.094854 1_545
Bi5 Cs9 4.196043 1_555
Bi5 Cs9 4.196043 1_455
Bi5 Cs1 4.351987 1_554
Bi5 Cs0 4.450460 1_455
Bi5 Cs0 4.450460 1_555
Bi5 Cs3 4.461694 1_554
