# generated using pymatgen
data_Lu2Ni5BRh
_symmetry_space_group_name_H-M   'P 1'
_cell_length_a   5.44154058
_cell_length_b   5.46341095
_cell_length_c   5.46341068
_cell_angle_alpha   59.73535595
_cell_angle_beta   60.13231827
_cell_angle_gamma   60.13231378
_symmetry_Int_Tables_number   1
_chemical_formula_structural   Lu2Ni5BRh
_chemical_formula_sum   'Lu2 Ni5 B1 Rh1'
_cell_volume   114.84727380
_cell_formula_units_Z   1
loop_
 _symmetry_equiv_pos_site_id
 _symmetry_equiv_pos_as_xyz
  1  'x, y, z'
loop_
 _atom_site_type_symbol
 _atom_site_label
 _atom_site_symmetry_multiplicity
 _atom_site_fract_x
 _atom_site_fract_y
 _atom_site_fract_z
 _atom_site_occupancy
  Lu  Lu0  1  0.74831269  0.75168731  0.75168731  1
  Lu  Lu1  1  0.24831269  0.25168731  0.25168731  1
  Ni  Ni0  1  0.75640704  0.76120049  0.24359296  1
  Ni  Ni1  1  0.76365192  0.23634808  0.23634808  1
  Ni  Ni2  1  0.23879951  0.76120049  0.24359296  1
  Ni  Ni3  1  0.23879951  0.24359296  0.76120049  1
  Ni  Ni4  1  0.75640704  0.24359296  0.76120049  1
  B  B0  1  0.50875905  0.49124095  0.49124095  1
  Rh  Rh0  1  0.24055053  0.75944947  0.75944947  1
loop_
_geom_bond_atom_site_label_1
_geom_bond_atom_site_label_2
_geom_bond_distance
_geom_bond_site_symmetry_2
Lu0 Rh0 2.721436 1_555
Lu0 Rh0 2.721437 1_655
Lu0 Ni1 2.723372 1_565
Lu0 Ni1 2.723372 1_556
Lu0 Ni3 2.728642 1_655
Lu0 Ni2 2.728642 1_655
Lu0 Ni0 2.728643 1_555
Lu0 Ni4 2.728643 1_555
Lu0 Ni3 2.736453 1_565
Lu0 Ni2 2.736453 1_556
Lu0 Ni0 2.736454 1_556
Lu0 Ni4 2.736454 1_565
Lu1 Rh0 2.721437 1_545
Lu1 Rh0 2.721437 1_554
Lu1 Ni1 2.723371 1_555
Lu1 Ni1 2.723371 1_455
Lu1 Ni0 2.728642 1_545
Lu1 Ni4 2.728642 1_554
Lu1 Ni3 2.728643 1_554
Lu1 Ni2 2.728643 1_545
Lu1 Ni0 2.736453 1_455
Lu1 Ni4 2.736453 1_455
Lu1 Ni3 2.736454 1_555
Lu1 Ni2 2.736454 1_555
Ni0 Rh0 2.645168 1_654
Ni2 Rh0 2.645168 1_554
Ni3 Rh0 2.645169 1_545
Ni4 Rh0 2.645168 1_645
B0 Ni1 1.977263 1_555
B0 Ni2 1.993504 1_555
B0 Ni4 1.993504 1_555
B0 Ni3 1.993504 1_555
B0 Ni0 1.993504 1_555
B0 Rh0 2.080556 1_555
