# generated using pymatgen
data_SrMgSn
_symmetry_space_group_name_H-M   'P 1'
_cell_length_a   4.87361937
_cell_length_b   8.22048673
_cell_length_c   8.87840881
_cell_angle_alpha   90.00000000
_cell_angle_beta   90.00000000
_cell_angle_gamma   90.00000000
_symmetry_Int_Tables_number   1
_chemical_formula_structural   SrMgSn
_chemical_formula_sum   'Sr4 Mg4 Sn4'
_cell_volume   355.70033874
_cell_formula_units_Z   4
loop_
 _symmetry_equiv_pos_site_id
 _symmetry_equiv_pos_as_xyz
  1  'x, y, z'
loop_
 _atom_site_type_symbol
 _atom_site_label
 _atom_site_symmetry_multiplicity
 _atom_site_fract_x
 _atom_site_fract_y
 _atom_site_fract_z
 _atom_site_occupancy
  Sr  Sr0  1  0.75000000  0.98848624  0.81137986  1
  Sr  Sr1  1  0.25000000  0.51151376  0.31137986  1
  Sr  Sr2  1  0.25000000  0.01151376  0.18862014  1
  Sr  Sr3  1  0.75000000  0.48848624  0.68862014  1
  Mg  Mg0  1  0.75000000  0.35335219  0.06632051  1
  Mg  Mg1  1  0.25000000  0.64664781  0.93367949  1
  Mg  Mg2  1  0.75000000  0.85335219  0.43367949  1
  Mg  Mg3  1  0.25000000  0.14664781  0.56632051  1
  Sn  Sn0  1  0.25000000  0.77817294  0.60796959  1
  Sn  Sn1  1  0.25000000  0.27817294  0.89203041  1
  Sn  Sn2  1  0.75000000  0.72182706  0.10796959  1
  Sn  Sn3  1  0.75000000  0.22182706  0.39203041  1
loop_
_geom_bond_atom_site_label_1
_geom_bond_atom_site_label_2
_geom_bond_distance
_geom_bond_site_symmetry_2
Mg0 Sn1 2.952030 1_654
Mg0 Sn1 2.952030 1_554
Mg0 Sn2 3.051530 1_555
Mg0 Sn3 3.087300 1_555
Mg0 Sr1 3.516007 1_555
Mg0 Sr1 3.516007 1_655
Mg0 Sr3 3.532587 1_554
Mg0 Sr0 3.757597 1_544
Mg0 Sr2 3.874739 1_655
Mg0 Sr2 3.874739 1_555
Mg1 Sn2 2.952030 1_456
Mg1 Sn2 2.952030 1_556
Mg1 Sn1 3.051530 1_555
Mg1 Sn0 3.087300 1_555
Mg1 Sr3 3.516007 1_455
Mg1 Sr3 3.516007 1_555
Mg1 Sr1 3.532587 1_556
Mg1 Sr2 3.757597 1_566
Mg1 Sr0 3.874739 1_455
Mg1 Sr0 3.874739 1_555
Mg2 Sn0 2.952030 1_655
Mg2 Sn0 2.952030 1_555
Mg2 Sn3 3.051530 1_565
Mg2 Sn2 3.087300 1_555
Mg2 Sr2 3.516007 1_565
Mg2 Sr2 3.516007 1_665
Mg2 Sr0 3.532587 1_555
Mg2 Sr3 3.757597 1_555
Mg2 Sr1 3.874739 1_555
Mg2 Sr1 3.874739 1_655
Mg3 Sn3 2.952030 1_455
Mg3 Sn3 2.952030 1_555
Mg3 Sn0 3.051530 1_545
Mg3 Sn1 3.087300 1_555
Mg3 Sr0 3.516007 1_445
Mg3 Sr0 3.516007 1_545
Mg3 Sr2 3.532587 1_555
Mg3 Sr1 3.757597 1_555
Mg3 Sr3 3.874739 1_555
Mg3 Sr3 3.874739 1_455
Sn0 Sr1 3.426243 1_555
Sn0 Sr3 3.481619 1_555
Sn0 Sr3 3.481619 1_455
Sn0 Sr0 3.491210 1_455
Sn0 Sr0 3.491210 1_555
Sn1 Sr2 3.426243 1_556
Sn1 Sr0 3.481619 1_445
Sn1 Sr0 3.481619 1_545
Sn1 Sr3 3.491210 1_455
Sn1 Sr3 3.491210 1_555
Sn2 Sr0 3.426243 1_554
Sn2 Sr2 3.481619 1_565
Sn2 Sr2 3.481619 1_665
Sn2 Sr1 3.491210 1_555
Sn2 Sr1 3.491210 1_655
Sn3 Sr3 3.426243 1_555
Sn3 Sr1 3.481619 1_655
Sn3 Sr1 3.481619 1_555
Sn3 Sr2 3.491210 1_555
Sn3 Sr2 3.491210 1_655
