# generated using pymatgen
data_Y2Se2BrCl
_symmetry_space_group_name_H-M   'P 1'
_cell_length_a   4.09596378
_cell_length_b   5.63789481
_cell_length_c   8.06994869
_cell_angle_alpha   90.00000000
_cell_angle_beta   90.00000000
_cell_angle_gamma   90.00000000
_symmetry_Int_Tables_number   1
_chemical_formula_structural   Y2Se2BrCl
_chemical_formula_sum   'Y2 Se2 Br1 Cl1'
_cell_volume   186.35620143
_cell_formula_units_Z   1
loop_
 _symmetry_equiv_pos_site_id
 _symmetry_equiv_pos_as_xyz
  1  'x, y, z'
loop_
 _atom_site_type_symbol
 _atom_site_label
 _atom_site_symmetry_multiplicity
 _atom_site_fract_x
 _atom_site_fract_y
 _atom_site_fract_z
 _atom_site_occupancy
  Y  Y0  1  0.00000000  0.50000000  0.14079174  1
  Y  Y1  1  0.50000000  0.00000000  0.84944705  1
  Se  Se0  1  0.50000000  0.50000000  0.89229871  1
  Se  Se1  1  0.00000000  0.00000000  0.10036586  1
  Br  Br0  1  0.50000000  0.50000000  0.37959047  1
  Cl  Cl0  1  0.00000000  0.00000000  0.63750616  1
loop_
_geom_bond_atom_site_label_1
_geom_bond_atom_site_label_2
_geom_bond_distance
_geom_bond_site_symmetry_2
Se0 Y1 2.840079 1_565
Se0 Y1 2.840079 1_555
Se0 Y0 2.866280 1_656
Se0 Y0 2.866280 1_556
Se1 Y0 2.837762 1_555
Se1 Y0 2.837762 1_545
Se1 Y1 2.880010 1_454
Se1 Y1 2.880010 1_554
Br0 Y0 2.812102 1_655
Br0 Y0 2.812102 1_555
Cl0 Y1 2.668246 1_555
Cl0 Y1 2.668246 1_455
