# generated using pymatgen
data_Sr(NdS2)2
_symmetry_space_group_name_H-M   'P 1'
_cell_length_a   7.52916891
_cell_length_b   7.52916853
_cell_length_c   7.52916908
_cell_angle_alpha   109.41382435
_cell_angle_beta   109.58606596
_cell_angle_gamma   109.41382899
_symmetry_Int_Tables_number   1
_chemical_formula_structural   Sr(NdS2)2
_chemical_formula_sum   'Sr2 Nd4 S8'
_cell_volume   328.56245010
_cell_formula_units_Z   2
loop_
 _symmetry_equiv_pos_site_id
 _symmetry_equiv_pos_as_xyz
  1  'x, y, z'
loop_
 _atom_site_type_symbol
 _atom_site_label
 _atom_site_symmetry_multiplicity
 _atom_site_fract_x
 _atom_site_fract_y
 _atom_site_fract_z
 _atom_site_occupancy
  Sr  Sr0  1  0.12500000  0.75000000  0.87500000  1
  Sr  Sr1  1  0.37500000  0.25000000  0.62500000  1
  Nd  Nd0  1  0.25000000  0.62747031  0.37747031  1
  Nd  Nd1  1  0.62252969  0.37252969  0.25000000  1
  Nd  Nd2  1  0.75000000  0.87252969  0.12252969  1
  Nd  Nd3  1  0.87747031  0.12747031  0.75000000  1
  S  S0  1  0.98966913  0.84858567  0.49090689  1
  S  S1  1  0.51033087  0.00123675  0.85891553  1
  S  S2  1  0.14108447  0.15141433  0.14232122  1
  S  S3  1  0.35891553  0.50123675  0.01033087  1
  S  S4  1  0.64232122  0.65141433  0.64108447  1
  S  S5  1  0.50909311  0.99876325  0.35767878  1
  S  S6  1  0.85767878  0.49876325  0.00909311  1
  S  S7  1  0.99090689  0.34858567  0.48966913  1
loop_
_geom_bond_atom_site_label_1
_geom_bond_atom_site_label_2
_geom_bond_distance
_geom_bond_site_symmetry_2
Nd0 S4 2.859127 1_555
Nd0 S6 2.859127 1_455
Nd0 S7 2.913609 1_455
Nd0 S5 2.913615 1_555
Nd0 S3 3.083548 1_555
Nd0 S2 3.083554 1_555
Nd0 S1 3.112768 1_565
Nd0 S0 3.112775 1_455
Nd1 S3 2.859123 1_555
Nd1 S7 2.859124 1_555
Nd1 S4 2.913615 1_555
Nd1 S1 2.913618 1_554
Nd1 S0 3.083552 1_555
Nd1 S6 3.083554 1_555
Nd1 S5 3.112768 1_545
Nd1 S2 3.112768 1_555
Nd2 S1 2.859123 1_564
Nd2 S0 2.859124 1_555
Nd2 S2 2.913615 1_665
Nd2 S3 2.913618 1_555
Nd2 S7 3.083552 1_565
Nd2 S5 3.083554 1_555
Nd2 S6 3.112768 1_555
Nd2 S4 3.112768 1_554
Nd3 S2 2.859127 1_656
Nd3 S5 2.859127 1_545
Nd3 S0 2.913609 1_545
Nd3 S6 2.913615 1_556
Nd3 S1 3.083548 1_555
Nd3 S4 3.083554 1_545
Nd3 S3 3.112768 1_656
Nd3 S7 3.112775 1_555
S0 Sr1 2.957951 1_665
S0 Sr0 3.147457 1_655
S1 Sr0 2.957953 1_545
S1 Sr1 3.147459 1_555
S2 Sr0 2.957947 1_544
S2 Sr1 3.147457 1_555
S3 Sr1 2.957953 1_554
S3 Sr0 3.147459 1_554
S4 Sr1 2.957947 1_555
S4 Sr0 3.147456 1_655
S5 Sr1 2.957947 1_565
S5 Sr0 3.147457 1_554
S6 Sr0 2.957947 1_654
S6 Sr1 3.147457 1_554
S7 Sr0 2.957951 1_655
S7 Sr1 3.147457 1_655
