# generated using pymatgen
data_Sc4Si6Ir2Rh5
_symmetry_space_group_name_H-M   'P 1'
_cell_length_a   6.93575962
_cell_length_b   6.93575867
_cell_length_c   6.93575905
_cell_angle_alpha   109.53224051
_cell_angle_beta   109.44071030
_cell_angle_gamma   109.44072646
_symmetry_Int_Tables_number   1
_chemical_formula_structural   Sc4Si6Ir2Rh5
_chemical_formula_sum   'Sc4 Si6 Ir2 Rh5'
_cell_volume   256.83828000
_cell_formula_units_Z   1
loop_
 _symmetry_equiv_pos_site_id
 _symmetry_equiv_pos_as_xyz
  1  'x, y, z'
loop_
 _atom_site_type_symbol
 _atom_site_label
 _atom_site_symmetry_multiplicity
 _atom_site_fract_x
 _atom_site_fract_y
 _atom_site_fract_z
 _atom_site_occupancy
  Sc  Sc0  1  0.99993954  0.99996977  0.49996977  1
  Sc  Sc1  1  0.00006046  0.50003023  0.00003023  1
  Sc  Sc2  1  0.50000000  0.99996977  0.00003023  1
  Sc  Sc3  1  0.50000000  0.50003023  0.49996977  1
  Si  Si0  1  0.67975675  0.67970756  0.99995082  1
  Si  Si1  1  0.32024325  0.00004918  0.32029244  1
  Si  Si2  1  0.00000000  0.32077380  0.32077380  1
  Si  Si3  1  0.32024325  0.32019407  0.99995082  1
  Si  Si4  1  0.67975675  0.00004918  0.67980593  1
  Si  Si5  1  1.00000000  0.67922620  0.67922620  1
  Ir  Ir0  1  0.50000000  0.75000000  0.25000000  1
  Ir  Ir1  1  0.00000000  0.00000000  0.00000000  1
  Rh  Rh0  1  0.75048512  0.25107508  0.50058896  1
  Rh  Rh1  1  0.75048512  0.49941104  0.24989616  1
  Rh  Rh2  1  0.50000000  0.25000000  0.75000000  1
  Rh  Rh3  1  0.24951488  0.49941104  0.74892492  1
  Rh  Rh4  1  0.24951488  0.75010384  0.50058896  1
loop_
_geom_bond_atom_site_label_1
_geom_bond_atom_site_label_2
_geom_bond_distance
_geom_bond_site_symmetry_2
Sc0 Si1 2.886316 1_665
Sc0 Si3 2.886316 1_665
Sc0 Si4 2.886431 1_565
Sc0 Si0 2.886431 1_554
Sc0 Si2 2.888647 1_665
Sc0 Si5 2.888647 1_555
Sc1 Si4 2.886316 1_454
Sc1 Si0 2.886316 1_454
Sc1 Si1 2.886431 1_565
Sc1 Si3 2.886431 1_554
Sc1 Si2 2.888647 1_555
Sc1 Si5 2.888647 1_454
Sc2 Si4 2.886316 1_564
Sc2 Si3 2.886316 1_564
Sc2 Si1 2.886431 1_565
Sc2 Si0 2.886431 1_554
Sc2 Si2 2.888648 1_665
Sc2 Si5 2.888648 1_454
Sc3 Si1 2.886316 1_555
Sc3 Si0 2.886316 1_555
Sc3 Si4 2.886431 1_565
Sc3 Si3 2.886431 1_554
Sc3 Si2 2.888648 1_555
Sc3 Si5 2.888648 1_555
Ir0 Si3 2.465429 1_554
Ir0 Si0 2.465429 1_554
Ir0 Si1 2.465429 1_565
Ir0 Si4 2.465429 1_565
Ir0 Sc3 2.832235 1_555
Ir0 Sc2 2.832235 1_555
Ir0 Sc0 2.832235 1_555
Ir0 Sc1 2.832235 1_555
Ir0 Rh4 2.837059 1_555
Ir0 Rh1 2.837060 1_555
Ir0 Rh0 2.837065 1_565
Ir0 Rh3 2.837065 1_554
Ir1 Si0 2.565705 1_444
Ir1 Si3 2.565705 1_554
Ir1 Si4 2.565706 1_454
Ir1 Si1 2.565706 1_555
Ir1 Si2 2.567054 1_555
Ir1 Si5 2.567054 1_444
Rh0 Si5 2.457613 1_555
Rh0 Si2 2.463113 1_655
Rh0 Si1 2.470107 1_555
Rh0 Si4 2.470111 1_555
Rh0 Sc3 2.827818 1_555
Rh0 Sc1 2.827824 1_656
Rh0 Sc2 2.834144 1_545
Rh0 Sc0 2.834149 1_545
Rh1 Si2 2.457619 1_655
Rh1 Si5 2.463114 1_555
Rh1 Si0 2.470106 1_554
Rh1 Si3 2.470106 1_554
Rh1 Sc2 2.827823 1_545
Rh1 Sc1 2.827824 1_655
Rh1 Sc0 2.834143 1_555
Rh1 Sc3 2.834143 1_555
Rh2 Si0 2.464790 1_555
Rh2 Si3 2.464790 1_555
Rh2 Si4 2.464790 1_555
Rh2 Si1 2.464790 1_555
Rh2 Sc2 2.832920 1_546
Rh2 Sc3 2.832920 1_555
Rh2 Sc1 2.832920 1_656
Rh2 Sc0 2.832920 1_445
Rh3 Si2 2.457613 1_555
Rh3 Si5 2.463113 1_455
Rh3 Si0 2.470107 1_555
Rh3 Si3 2.470112 1_555
Rh3 Sc3 2.827818 1_555
Rh3 Sc0 2.827823 1_445
Rh3 Sc2 2.834143 1_556
Rh3 Sc1 2.834149 1_556
Rh4 Si5 2.457619 1_455
Rh4 Si2 2.463114 1_555
Rh4 Si1 2.470106 1_565
Rh4 Si4 2.470106 1_565
Rh4 Sc0 2.827824 1_455
Rh4 Sc2 2.827824 1_556
Rh4 Sc3 2.834144 1_555
Rh4 Sc1 2.834144 1_555
