# generated using pymatgen
data_Ti5GaSnSb
_symmetry_space_group_name_H-M   'P 1'
_cell_length_a   5.18316701
_cell_length_b   7.82987829
_cell_length_c   7.85282830
_cell_angle_alpha   83.74468032
_cell_angle_beta   70.71471035
_cell_angle_gamma   70.70135115
_symmetry_Int_Tables_number   1
_chemical_formula_structural   Ti5GaSnSb
_chemical_formula_sum   'Ti10 Ga2 Sn2 Sb2'
_cell_volume   283.90938231
_cell_formula_units_Z   2
loop_
 _symmetry_equiv_pos_site_id
 _symmetry_equiv_pos_as_xyz
  1  'x, y, z'
loop_
 _atom_site_type_symbol
 _atom_site_label
 _atom_site_symmetry_multiplicity
 _atom_site_fract_x
 _atom_site_fract_y
 _atom_site_fract_z
 _atom_site_occupancy
  Ti  Ti0  1  0.71712354  0.85907168  0.70776477  1
  Ti  Ti1  1  0.28287646  0.14092832  0.29223523  1
  Ti  Ti2  1  0.78276380  0.29147741  0.14360791  1
  Ti  Ti3  1  0.21723620  0.70852259  0.85639209  1
  Ti  Ti4  1  0.57373921  0.70850885  0.14354200  1
  Ti  Ti5  1  0.42626079  0.29149115  0.85645800  1
  Ti  Ti6  1  0.07603447  0.14079354  0.70777966  1
  Ti  Ti7  1  0.92396553  0.85920646  0.29222034  1
  Ti  Ti8  1  0.75223590  0.49995856  0.49997996  1
  Ti  Ti9  1  0.24776410  0.50004144  0.50002004  1
  Ga  Ga0  1  0.25003684  0.99999515  0.99992596  1
  Ga  Ga1  1  0.74996316  0.00000485  0.00007404  1
  Sn  Sn0  1  0.16515622  0.50003201  0.16976230  1
  Sn  Sn1  1  0.83484378  0.49996799  0.83023770  1
  Sb  Sb0  1  0.33676736  0.82727127  0.49993482  1
  Sb  Sb1  1  0.66323264  0.17272873  0.50006518  1
loop_
_geom_bond_atom_site_label_1
_geom_bond_atom_site_label_2
_geom_bond_distance
_geom_bond_site_symmetry_2
Ti8 Ti9 2.568724 1_655
Ti8 Ti9 2.614443 1_555
Ga0 Ga1 2.591557 1_466
Ga0 Ga1 2.591611 1_566
Ga0 Ti1 2.729469 1_566
Ga0 Ti2 2.729498 1_466
Ga0 Ti6 2.729535 1_565
Ga0 Ti5 2.729599 1_565
Ga0 Ti3 2.729722 1_555
Ga0 Ti4 2.730154 1_556
Ga0 Ti7 2.730890 1_456
Ga0 Ti0 2.731203 1_555
Ga1 Ti0 2.729469 1_544
Ga1 Ti3 2.729498 1_644
Ga1 Ti7 2.729535 1_545
Ga1 Ti4 2.729599 1_545
Ga1 Ti2 2.729722 1_555
Ga1 Ti5 2.730154 1_554
Ga1 Ti6 2.730890 1_654
Ga1 Ti1 2.731203 1_555
Sn0 Ti8 2.763966 1_455
Sn0 Ti9 2.764581 1_555
Sn0 Ti5 2.786817 1_554
Sn0 Ti3 2.787577 1_554
Sn0 Ti1 2.804903 1_555
Sn0 Ti7 2.804991 1_455
Sn0 Ti4 3.019193 1_555
Sn0 Ti2 3.019659 1_455
Sn0 Ti2 3.023205 1_555
Sn0 Ti4 3.023234 1_455
Sn1 Ti9 2.763966 1_655
Sn1 Ti8 2.764581 1_555
Sn1 Ti4 2.786817 1_556
Sn1 Ti2 2.787577 1_556
Sn1 Ti0 2.804903 1_555
Sn1 Ti6 2.804991 1_655
Sn1 Ti5 3.019193 1_555
Sn1 Ti3 3.019659 1_655
Sn1 Ti3 3.023205 1_555
Sn1 Ti5 3.023234 1_655
Sb0 Ti8 2.749139 1_555
Sb0 Ti9 2.749222 1_555
Sb0 Ti6 2.782063 1_565
Sb0 Ti1 2.782860 1_565
Sb0 Ti4 2.783443 1_555
Sb0 Ti3 2.784224 1_555
Sb0 Ti7 3.020138 1_555
Sb0 Ti0 3.022966 1_455
Sb0 Ti0 3.024985 1_555
Sb0 Ti7 3.027201 1_455
Sb1 Ti9 2.749139 1_555
Sb1 Ti8 2.749222 1_555
Sb1 Ti7 2.782063 1_545
Sb1 Ti0 2.782860 1_545
Sb1 Ti5 2.783443 1_555
Sb1 Ti2 2.784224 1_555
Sb1 Ti6 3.020138 1_555
Sb1 Ti1 3.022966 1_655
Sb1 Ti1 3.024985 1_555
Sb1 Ti6 3.027201 1_655
