# generated using pymatgen
data_Cs3Si4Ag
_symmetry_space_group_name_H-M   'P 1'
_cell_length_a   6.09137280
_cell_length_b   7.22545084
_cell_length_c   13.00600340
_cell_angle_alpha   90.00000000
_cell_angle_beta   90.00000000
_cell_angle_gamma   90.00000000
_symmetry_Int_Tables_number   1
_chemical_formula_structural   Cs3Si4Ag
_chemical_formula_sum   'Cs6 Si8 Ag2'
_cell_volume   572.43211816
_cell_formula_units_Z   2
loop_
 _symmetry_equiv_pos_site_id
 _symmetry_equiv_pos_as_xyz
  1  'x, y, z'
loop_
 _atom_site_type_symbol
 _atom_site_label
 _atom_site_symmetry_multiplicity
 _atom_site_fract_x
 _atom_site_fract_y
 _atom_site_fract_z
 _atom_site_occupancy
  Cs  Cs0  1  0.84513905  0.50000000  0.26881010  1
  Cs  Cs1  1  0.84513905  0.50000000  0.73118990  1
  Cs  Cs2  1  0.42993562  0.50000000  0.50000000  1
  Cs  Cs3  1  0.15486095  0.00000000  0.23118990  1
  Cs  Cs4  1  0.15486095  0.00000000  0.76881010  1
  Cs  Cs5  1  0.57006438  0.00000000  0.00000000  1
  Si  Si0  1  0.07193497  0.32582787  0.00000000  1
  Si  Si1  1  0.33133867  0.50000000  0.09786885  1
  Si  Si2  1  0.66866133  0.00000000  0.59786885  1
  Si  Si3  1  0.07193497  0.67417213  0.00000000  1
  Si  Si4  1  0.92806503  0.82582787  0.50000000  1
  Si  Si5  1  0.66866133  0.00000000  0.40213115  1
  Si  Si6  1  0.33133867  0.50000000  0.90213115  1
  Si  Si7  1  0.92806503  0.17417213  0.50000000  1
  Ag  Ag0  1  0.70008055  0.50000000  0.00000000  1
  Ag  Ag1  1  0.29991945  0.00000000  0.50000000  1
loop_
_geom_bond_atom_site_label_1
_geom_bond_atom_site_label_2
_geom_bond_distance
_geom_bond_site_symmetry_2
Cs0 Si1 3.703256 1_655
Cs0 Si1 3.839040 1_555
Cs0 Si4 3.852123 1_555
Cs0 Si7 3.852123 1_555
Cs0 Si3 3.964255 1_655
Cs0 Si0 3.964255 1_655
Cs0 Si5 4.148983 1_565
Cs0 Si5 4.148983 1_555
Cs1 Si6 3.703256 1_655
Cs1 Si6 3.839040 1_555
Cs1 Si4 3.852123 1_555
Cs1 Si7 3.852123 1_555
Cs1 Si3 3.964255 1_656
Cs1 Si0 3.964255 1_656
Cs1 Si2 4.148983 1_555
Cs1 Si2 4.148983 1_565
Cs2 Si4 3.840499 1_555
Cs2 Si7 3.840499 1_555
Cs2 Si4 3.858530 1_455
Cs2 Si7 3.858530 1_455
Cs2 Si5 4.097148 1_565
Cs2 Si5 4.097148 1_555
Cs2 Si2 4.097148 1_555
Cs2 Si2 4.097148 1_565
Cs3 Si5 3.703256 1_455
Cs3 Si5 3.839040 1_555
Cs3 Si0 3.852123 1_555
Cs3 Si3 3.852123 1_545
Cs3 Si7 3.964255 1_455
Cs3 Si4 3.964255 1_445
Cs3 Si1 4.148983 1_545
Cs3 Si1 4.148983 1_555
Cs4 Si2 3.703256 1_455
Cs4 Si2 3.839040 1_555
Cs4 Si0 3.852123 1_556
Cs4 Si3 3.852123 1_546
Cs4 Si7 3.964255 1_455
Cs4 Si4 3.964255 1_445
Cs4 Si6 4.148983 1_545
Cs4 Si6 4.148983 1_555
Cs5 Si0 3.840499 1_555
Cs5 Si3 3.840499 1_545
Cs5 Si0 3.858530 1_655
Cs5 Si3 3.858530 1_645
Cs5 Si6 4.097148 1_554
Cs5 Si6 4.097148 1_544
Cs5 Si1 4.097148 1_555
Cs5 Si1 4.097148 1_545
Si0 Si6 2.387630 1_554
Si0 Si1 2.387630 1_555
Si0 Si3 2.516944 1_555
Si1 Si3 2.387630 1_555
Si1 Si6 2.545765 1_554
Si2 Si7 2.387630 1_555
Si2 Si4 2.387630 1_545
Si2 Si5 2.545765 1_555
Si3 Si6 2.387630 1_554
Si4 Si5 2.387630 1_565
Si4 Si7 2.516944 1_565
Si5 Si7 2.387630 1_555
Ag0 Si6 2.581742 1_554
Ag0 Si1 2.581742 1_555
Ag0 Si3 2.591225 1_655
Ag0 Si0 2.591225 1_655
Ag0 Cs0 3.606077 1_555
Ag0 Cs1 3.606077 1_554
Ag0 Cs5 3.698515 1_555
Ag0 Cs5 3.698515 1_565
Ag1 Si5 2.581742 1_555
Ag1 Si2 2.581742 1_555
Ag1 Si7 2.591225 1_455
Ag1 Si4 2.591225 1_445
Ag1 Cs4 3.606077 1_555
Ag1 Cs3 3.606077 1_555
Ag1 Cs2 3.698515 1_545
Ag1 Cs2 3.698515 1_555
