# generated using pymatgen
data_Sr5P3F
_symmetry_space_group_name_H-M   'P 1'
_cell_length_a   6.97251749
_cell_length_b   8.75332849
_cell_length_c   8.75332875
_cell_angle_alpha   119.99999726
_cell_angle_beta   90.00000000
_cell_angle_gamma   90.00000000
_symmetry_Int_Tables_number   1
_chemical_formula_structural   Sr5P3F
_chemical_formula_sum   'Sr10 P6 F2'
_cell_volume   462.66507960
_cell_formula_units_Z   2
loop_
 _symmetry_equiv_pos_site_id
 _symmetry_equiv_pos_as_xyz
  1  'x, y, z'
loop_
 _atom_site_type_symbol
 _atom_site_label
 _atom_site_symmetry_multiplicity
 _atom_site_fract_x
 _atom_site_fract_y
 _atom_site_fract_z
 _atom_site_occupancy
  Sr  Sr0  1  0.50000000  0.33333300  0.66666700  1
  Sr  Sr1  1  0.50000000  0.66666600  0.33333300  1
  Sr  Sr2  1  0.00000000  0.66666700  0.33333300  1
  Sr  Sr3  1  0.00000000  0.33333400  0.66666700  1
  Sr  Sr4  1  0.75000000  0.24755067  0.00000000  1
  Sr  Sr5  1  0.75000000  0.75244933  0.75244933  1
  Sr  Sr6  1  0.75000000  0.00000000  0.24755067  1
  Sr  Sr7  1  0.25000000  0.75244933  0.00000000  1
  Sr  Sr8  1  0.25000000  0.24755067  0.24755067  1
  Sr  Sr9  1  0.25000000  1.00000000  0.75244933  1
  P  P0  1  0.75000000  0.60742838  1.00000000  1
  P  P1  1  0.75000000  0.39257162  0.39257162  1
  P  P2  1  0.75000000  1.00000000  0.60742838  1
  P  P3  1  0.25000000  0.39257162  0.00000000  1
  P  P4  1  0.25000000  0.60742838  0.60742838  1
  P  P5  1  0.25000000  0.00000000  0.39257162  1
  F  F0  1  0.50000000  0.00000000  0.00000000  1
  F  F1  1  0.00000000  0.00000000  0.00000000  1
loop_
_geom_bond_atom_site_label_1
_geom_bond_atom_site_label_2
_geom_bond_distance
_geom_bond_site_symmetry_2
P0 Sr5 3.009573 1_555
P0 Sr6 3.009573 1_566
P0 Sr4 3.150128 1_556
P0 Sr2 3.210578 1_656
P0 Sr3 3.210578 1_655
P0 Sr1 3.210581 1_556
P0 Sr0 3.210581 1_555
P1 Sr6 3.009573 1_555
P1 Sr4 3.009573 1_555
P1 Sr5 3.150128 1_555
P1 Sr1 3.210578 1_555
P1 Sr3 3.210581 1_655
P1 Sr2 3.210585 1_655
P1 Sr0 3.210585 1_555
P2 Sr5 3.009573 1_555
P2 Sr4 3.009573 1_566
P2 Sr6 3.150128 1_565
P2 Sr0 3.210578 1_565
P2 Sr2 3.210581 1_655
P2 Sr3 3.210585 1_665
P2 Sr1 3.210585 1_555
P3 Sr8 3.009573 1_555
P3 Sr9 3.009573 1_544
P3 Sr7 3.150128 1_555
P3 Sr0 3.210578 1_554
P3 Sr1 3.210578 1_555
P3 Sr3 3.210581 1_554
P3 Sr2 3.210581 1_555
P4 Sr9 3.009573 1_555
P4 Sr7 3.009573 1_556
P4 Sr8 3.150128 1_555
P4 Sr3 3.210578 1_555
P4 Sr1 3.210581 1_555
P4 Sr0 3.210585 1_555
P4 Sr2 3.210585 1_555
P5 Sr8 3.009573 1_555
P5 Sr7 3.009573 1_545
P5 Sr9 3.150128 1_545
P5 Sr2 3.210578 1_545
P5 Sr0 3.210581 1_555
P5 Sr1 3.210585 1_545
P5 Sr3 3.210585 1_555
F0 Sr4 2.780993 1_555
F0 Sr7 2.780993 1_545
F0 Sr6 2.780993 1_555
F0 Sr9 2.780993 1_544
F0 Sr8 2.780993 1_555
F0 Sr5 2.780993 1_544
F1 Sr4 2.780993 1_455
F1 Sr7 2.780993 1_545
F1 Sr6 2.780993 1_455
F1 Sr9 2.780993 1_544
F1 Sr8 2.780993 1_555
F1 Sr5 2.780993 1_444
