# generated using pymatgen
data_Sr4LiCrH12
_symmetry_space_group_name_H-M   'P 1'
_cell_length_a   7.83697475
_cell_length_b   7.83697505
_cell_length_c   5.45275886
_cell_angle_alpha   90.00120745
_cell_angle_beta   90.00121045
_cell_angle_gamma   139.33159256
_symmetry_Int_Tables_number   1
_chemical_formula_structural   Sr4LiCrH12
_chemical_formula_sum   'Sr4 Li1 Cr1 H12'
_cell_volume   218.24674622
_cell_formula_units_Z   1
loop_
 _symmetry_equiv_pos_site_id
 _symmetry_equiv_pos_as_xyz
  1  'x, y, z'
loop_
 _atom_site_type_symbol
 _atom_site_label
 _atom_site_symmetry_multiplicity
 _atom_site_fract_x
 _atom_site_fract_y
 _atom_site_fract_z
 _atom_site_occupancy
  Sr  Sr0  1  0.14999609  0.85000391  0.50000000  1
  Sr  Sr1  1  0.65408858  0.34591142  0.00000000  1
  Sr  Sr2  1  0.85000391  0.14999609  0.50000000  1
  Sr  Sr3  1  0.34591142  0.65408858  0.00000000  1
  Li  Li0  1  0.00000000  0.00000000  0.00000000  1
  Cr  Cr0  1  0.50000000  0.50000000  0.50000000  1
  H  H0  1  0.99996834  0.50000097  0.74353139  1
  H  H1  1  0.49999903  0.00003166  0.25646861  1
  H  H2  1  0.00003166  0.49999903  0.25646861  1
  H  H3  1  0.50000097  0.99996834  0.74353139  1
  H  H4  1  0.38313826  0.61686174  0.50000000  1
  H  H5  1  0.87744675  0.12255325  1.00000000  1
  H  H6  1  0.61686174  0.38313826  0.50000000  1
  H  H7  1  0.12255325  0.87744675  0.00000000  1
  H  H8  1  0.27436559  0.27436559  0.72522830  1
  H  H9  1  0.72563441  0.72563441  0.27477170  1
  H  H10  1  0.27418395  0.27418395  0.27494755  1
  H  H11  1  0.72581605  0.72581605  0.72505245  1
loop_
_geom_bond_atom_site_label_1
_geom_bond_atom_site_label_2
_geom_bond_distance
_geom_bond_site_symmetry_2
Cr0 H6 1.717537 1_555
Cr0 H4 1.717537 1_555
Cr0 H11 1.737375 1_555
Cr0 H10 1.737375 1_555
Cr0 H8 1.737458 1_555
Cr0 H9 1.737458 1_555
H0 Sr0 2.403634 1_655
H0 Sr2 2.403741 1_555
H0 Sr1 2.407526 1_556
H0 Sr3 2.407805 1_656
H1 Sr0 2.403634 1_545
H1 Sr2 2.403741 1_555
H1 Sr1 2.407526 1_555
H1 Sr3 2.407805 1_545
H2 Sr2 2.403634 1_455
H2 Sr0 2.403741 1_555
H2 Sr3 2.407526 1_555
H2 Sr1 2.407805 1_455
H3 Sr2 2.403634 1_565
H3 Sr0 2.403741 1_555
H3 Sr3 2.407526 1_556
H3 Sr1 2.407805 1_566
H4 Sr2 2.766512 1_455
H4 Sr2 2.766512 1_565
H4 Sr3 2.780736 1_555
H4 Sr3 2.780736 1_556
H5 Li0 1.801187 1_656
H5 Sr2 2.756052 1_555
H5 Sr2 2.756052 1_556
H5 Sr3 2.762472 1_546
H5 Sr3 2.762472 1_656
H6 Sr0 2.766512 1_655
H6 Sr0 2.766512 1_545
H6 Sr1 2.780736 1_556
H6 Sr1 2.780736 1_555
H7 Li0 1.801187 1_565
H7 Sr0 2.756052 1_555
H7 Sr0 2.756052 1_554
H7 Sr1 2.762472 1_565
H7 Sr1 2.762472 1_455
H8 Li0 2.116176 1_556
H8 Sr2 2.932760 1_455
H8 Sr0 2.932760 1_545
H9 Li0 2.116176 1_665
H9 Sr0 2.932760 1_655
H9 Sr2 2.932760 1_565
H10 Li0 2.116028 1_555
H10 Sr2 2.931930 1_455
H10 Sr0 2.931930 1_545
H11 Li0 2.116028 1_666
H11 Sr0 2.931930 1_655
H11 Sr2 2.931930 1_565
