# generated using pymatgen
data_ZrGaRuRh
_symmetry_space_group_name_H-M   'P 1'
_cell_length_a   4.43292781
_cell_length_b   4.43285989
_cell_length_c   4.43290861
_cell_angle_alpha   60.00032381
_cell_angle_beta   59.99947319
_cell_angle_gamma   60.00025109
_symmetry_Int_Tables_number   1
_chemical_formula_structural   ZrGaRuRh
_chemical_formula_sum   'Zr1 Ga1 Ru1 Rh1'
_cell_volume   61.59544554
_cell_formula_units_Z   1
loop_
 _symmetry_equiv_pos_site_id
 _symmetry_equiv_pos_as_xyz
  1  'x, y, z'
loop_
 _atom_site_type_symbol
 _atom_site_label
 _atom_site_symmetry_multiplicity
 _atom_site_fract_x
 _atom_site_fract_y
 _atom_site_fract_z
 _atom_site_occupancy
  Zr  Zr0  1  0.24999912  0.24999898  0.25000087  1
  Ga  Ga0  1  0.74999981  0.74999955  0.74999973  1
  Ru  Ru0  1  0.99999990  0.00000182  0.00000196  1
  Rh  Rh0  1  0.50000117  0.49999965  0.49999744  1
loop_
_geom_bond_atom_site_label_1
_geom_bond_atom_site_label_2
_geom_bond_distance
_geom_bond_site_symmetry_2
Ga0 Ru0 2.714568 1_556
Ga0 Rh0 2.714577 1_556
Ga0 Rh0 2.714577 1_565
Ga0 Ru0 2.714577 1_565
Ga0 Rh0 2.714588 1_555
Ga0 Ru0 2.714595 1_466
Ga0 Rh0 2.714600 1_655
Ga0 Ru0 2.714601 1_566
Ru0 Zr0 2.714568 1_655
Ru0 Zr0 2.714587 1_645
Ru0 Zr0 2.714589 1_654
Ru0 Zr0 2.714598 1_555
Rh0 Zr0 2.714574 1_565
Rh0 Zr0 2.714582 1_555
Rh0 Zr0 2.714588 1_655
Rh0 Zr0 2.714598 1_556
