# generated using pymatgen
data_Lu12Fe(TcPb)2
_symmetry_space_group_name_H-M   'P 1'
_cell_length_a   8.25590004
_cell_length_b   8.25590120
_cell_length_c   8.25590091
_cell_angle_alpha   108.81201889
_cell_angle_beta   108.81201792
_cell_angle_gamma   110.79781818
_symmetry_Int_Tables_number   1
_chemical_formula_structural   Lu12Fe(TcPb)2
_chemical_formula_sum   'Lu12 Fe1 Tc2 Pb2'
_cell_volume   433.00850163
_cell_formula_units_Z   1
loop_
 _symmetry_equiv_pos_site_id
 _symmetry_equiv_pos_as_xyz
  1  'x, y, z'
loop_
 _atom_site_type_symbol
 _atom_site_label
 _atom_site_symmetry_multiplicity
 _atom_site_fract_x
 _atom_site_fract_y
 _atom_site_fract_z
 _atom_site_occupancy
  Lu  Lu0  1  0.30704691  0.30704691  0.61674178  1
  Lu  Lu1  1  0.69030412  0.69030412  0.38325822  1
  Lu  Lu2  1  0.69030412  0.30704691  1.00000000  1
  Lu  Lu3  1  0.30704691  0.69030412  0.00000000  1
  Lu  Lu4  1  0.18964433  0.42706311  0.23741879  1
  Lu  Lu5  1  0.80952503  0.57324898  0.76372395  1
  Lu  Lu6  1  0.18964433  0.95222554  0.76258121  1
  Lu  Lu7  1  0.95222554  0.18964433  0.76258121  1
  Lu  Lu8  1  0.80952503  0.04580208  0.23627605  1
  Lu  Lu9  1  0.04580208  0.80952503  0.23627605  1
  Lu  Lu10  1  0.42706311  0.18964433  0.23741879  1
  Lu  Lu11  1  0.57324898  0.80952503  0.76372395  1
  Fe  Fe0  1  0.63104228  0.63104228  1.00000000  1
  Tc  Tc0  1  0.38016026  0.38016026  0.00000000  1
  Tc  Tc1  1  0.99951620  0.99951620  1.00000000  1
  Pb  Pb0  1  0.99894988  0.49894988  0.50000000  1
  Pb  Pb1  1  0.49894988  0.99894988  0.50000000  1
loop_
_geom_bond_atom_site_label_1
_geom_bond_atom_site_label_2
_geom_bond_distance
_geom_bond_site_symmetry_2
Lu0 Tc0 2.831647 1_556
Lu0 Pb0 3.489209 1_455
Lu0 Pb1 3.489209 1_545
Lu1 Tc0 2.831643 1_555
Lu1 Pb0 3.489209 1_555
Lu1 Pb1 3.489209 1_555
Lu2 Tc0 2.831638 1_556
Lu2 Pb0 3.489211 1_556
Lu2 Pb1 3.489211 1_545
Lu3 Tc0 2.831638 1_555
Lu3 Pb0 3.489211 1_454
Lu3 Pb1 3.489211 1_555
Lu4 Tc1 2.895561 1_444
Lu4 Tc0 2.897801 1_555
Lu4 Pb0 3.092774 1_455
Lu4 Pb1 3.844372 1_555
Lu5 Tc1 2.886122 1_555
Lu5 Pb0 3.094895 1_555
Lu5 Pb1 3.860562 1_545
Lu6 Tc1 2.895561 1_455
Lu6 Tc0 2.897802 1_566
Lu6 Pb0 3.092775 1_455
Lu6 Pb1 3.844371 1_555
Lu7 Tc1 2.895561 1_545
Lu7 Tc0 2.897801 1_656
Lu7 Pb1 3.092775 1_545
Lu7 Pb0 3.844372 1_555
Lu8 Tc1 2.886123 1_544
Lu8 Pb0 3.094889 1_555
Lu8 Pb1 3.860561 1_545
Lu9 Tc1 2.886123 1_454
Lu9 Pb1 3.094888 1_555
Lu9 Pb0 3.860562 1_455
Lu10 Tc1 2.895561 1_444
Lu10 Tc0 2.897801 1_555
Lu10 Pb1 3.092775 1_545
Lu10 Pb0 3.844372 1_555
Lu11 Tc1 2.886122 1_555
Lu11 Pb1 3.094895 1_555
Lu11 Pb0 3.860561 1_455
Fe0 Tc0 2.352366 1_556
Fe0 Lu5 2.820795 1_555
Fe0 Lu11 2.820795 1_555
Fe0 Lu9 2.820802 1_656
Fe0 Lu8 2.820802 1_566
Fe0 Lu3 2.885081 1_556
Fe0 Lu2 2.885081 1_555
Fe0 Lu0 2.885086 1_555
Fe0 Lu1 2.885090 1_556
