# generated using pymatgen
data_Sc5Al16Ir7Pb
_symmetry_space_group_name_H-M   'P 1'
_cell_length_a   8.69247394
_cell_length_b   8.74783679
_cell_length_c   8.74783790
_cell_angle_alpha   59.58174466
_cell_angle_beta   60.20913231
_cell_angle_gamma   60.20913896
_symmetry_Int_Tables_number   1
_chemical_formula_structural   Sc5Al16Ir7Pb
_chemical_formula_sum   'Sc5 Al16 Ir7 Pb1'
_cell_volume   470.32198351
_cell_formula_units_Z   1
loop_
 _symmetry_equiv_pos_site_id
 _symmetry_equiv_pos_as_xyz
  1  'x, y, z'
loop_
 _atom_site_type_symbol
 _atom_site_label
 _atom_site_symmetry_multiplicity
 _atom_site_fract_x
 _atom_site_fract_y
 _atom_site_fract_z
 _atom_site_occupancy
  Sc  Sc0  1  0.78946685  0.21053315  0.21053315  1
  Sc  Sc1  1  0.77266098  0.22733902  0.76556244  1
  Sc  Sc2  1  0.77266098  0.76556244  0.22733902  1
  Sc  Sc3  1  0.23443756  0.76556244  0.22733902  1
  Sc  Sc4  1  0.23443756  0.22733902  0.76556244  1
  Al  Al0  1  0.86920721  0.83554347  0.83554347  1
  Al  Al1  1  0.84929708  0.82286643  0.47854241  1
  Al  Al2  1  0.45970686  0.83554347  0.83554347  1
  Al  Al3  1  0.84929708  0.47854241  0.82286643  1
  Al  Al4  1  0.17713357  0.15070292  0.15070292  1
  Al  Al5  1  0.16445653  0.13079279  0.54029314  1
  Al  Al6  1  0.16445653  0.54029314  0.13079279  1
  Al  Al7  1  0.52145759  0.15070292  0.15070292  1
  Al  Al8  1  0.60572514  0.62452728  0.62452728  1
  Al  Al9  1  0.63294679  0.61695208  0.11715435  1
  Al  Al10  1  0.14522130  0.62452728  0.62452728  1
  Al  Al11  1  0.63294679  0.11715435  0.61695208  1
  Al  Al12  1  0.38304792  0.36705321  0.36705321  1
  Al  Al13  1  0.37547272  0.39427486  0.85477870  1
  Al  Al14  1  0.37547272  0.85477870  0.39427486  1
  Al  Al15  1  0.88284565  0.36705321  0.36705321  1
  Ir  Ir0  1  0.51142875  0.48857125  0.48857125  1
  Ir  Ir1  1  0.01100654  0.48899346  0.48899346  1
  Ir  Ir2  1  0.51100654  0.98899346  0.98899346  1
  Ir  Ir3  1  0.51566153  0.99530240  0.48433847  1
  Ir  Ir4  1  0.51566153  0.48433847  0.99530240  1
  Ir  Ir5  1  0.00469760  0.48433847  0.99530240  1
  Ir  Ir6  1  0.00469760  0.99530240  0.48433847  1
  Pb  Pb0  1  0.03348050  0.96651950  0.96651950  1
loop_
_geom_bond_atom_site_label_1
_geom_bond_atom_site_label_2
_geom_bond_distance
_geom_bond_site_symmetry_2
Al0 Ir5 2.543892 1_655
Al0 Ir6 2.543892 1_655
Al0 Ir2 2.610931 1_555
Al0 Al10 2.687035 1_655
Al0 Al9 2.836863 1_556
Al0 Al11 2.836864 1_565
Al0 Sc1 2.890264 1_565
Al0 Sc2 2.890264 1_556
Al0 Pb0 3.040608 1_655
Al1 Ir6 2.504576 1_655
Al1 Ir3 2.504599 1_555
Al1 Ir1 2.508457 1_655
Al1 Al10 2.800660 1_655
Al1 Al8 2.800675 1_555
Al1 Sc0 2.945450 1_565
Al2 Ir4 2.543893 1_555
Al2 Ir3 2.543893 1_555
Al2 Ir2 2.610925 1_555
Al2 Al8 2.687035 1_555
Al2 Al9 2.836858 1_556
Al2 Sc4 2.890265 1_565
Al2 Sc3 2.890265 1_556
Al2 Pb0 3.040615 1_555
Al3 Ir5 2.504577 1_655
Al3 Ir4 2.504598 1_555
Al3 Ir1 2.508458 1_655
Al3 Al8 2.800675 1_555
Al3 Sc0 2.945450 1_556
Al4 Ir6 2.504592 1_545
Al4 Ir5 2.504592 1_554
Al4 Ir2 2.508450 1_544
Al4 Sc0 2.945441 1_455
Al5 Ir6 2.543885 1_545
Al5 Ir3 2.543893 1_545
Al5 Ir1 2.610933 1_555
Al5 Sc1 2.890266 1_455
Al5 Sc4 2.890272 1_555
Al5 Pb0 3.040615 1_545
Al6 Ir5 2.543885 1_554
Al6 Ir4 2.543893 1_554
Al6 Ir1 2.610933 1_555
Al6 Sc2 2.890266 1_455
Al6 Sc3 2.890272 1_555
Al6 Pb0 3.040615 1_554
Al7 Ir4 2.504600 1_554
Al7 Ir3 2.504600 1_545
Al7 Ir2 2.508435 1_544
Al7 Sc0 2.945467 1_555
Al8 Ir0 2.621167 1_555
Al8 Ir3 2.653299 1_555
Al8 Ir4 2.653299 1_555
Al8 Sc1 2.851037 1_555
Al8 Sc2 2.851037 1_555
Al8 Ir1 2.888748 1_655
Al9 Ir0 2.647105 1_555
Al9 Ir4 2.651159 1_554
Al9 Ir5 2.651159 1_654
Al9 Ir2 2.651554 1_554
Al9 Sc0 2.918119 1_555
Al10 Ir0 2.621161 1_555
Al10 Ir6 2.653300 1_555
Al10 Ir5 2.653300 1_555
Al10 Al3 2.800660 1_455
Al10 Al14 2.830484 1_555
Al10 Al13 2.830485 1_555
Al10 Sc4 2.851038 1_555
Al10 Sc3 2.851038 1_555
Al10 Ir1 2.888755 1_555
Al11 Ir0 2.647105 1_555
Al11 Ir6 2.651159 1_645
Al11 Ir3 2.651159 1_545
Al11 Ir2 2.651554 1_545
Al11 Al2 2.836858 1_545
Al11 Sc0 2.918119 1_555
Al12 Ir0 2.647105 1_555
Al12 Ir3 2.651160 1_545
Al12 Ir4 2.651160 1_554
Al12 Ir1 2.651553 1_555
Al12 Al5 2.836865 1_555
Al12 Al6 2.836865 1_555
Al12 Sc0 2.918119 1_555
Al13 Ir0 2.621161 1_555
Al13 Ir5 2.653299 1_555
Al13 Ir4 2.653306 1_555
Al13 Al6 2.687035 1_556
Al13 Al7 2.800662 1_556
Al13 Al4 2.800671 1_556
Al13 Al8 2.830496 1_555
Al13 Sc4 2.851030 1_555
Al13 Sc1 2.851037 1_555
Al13 Ir2 2.888748 1_545
Al14 Ir0 2.621160 1_555
Al14 Ir6 2.653299 1_555
Al14 Ir3 2.653306 1_555
Al14 Al5 2.687035 1_565
Al14 Al7 2.800661 1_565
Al14 Al4 2.800671 1_565
Al14 Al8 2.830497 1_555
Al14 Sc3 2.851030 1_555
Al14 Sc2 2.851037 1_555
Al14 Ir2 2.888748 1_554
Al15 Ir0 2.647105 1_555
Al15 Ir6 2.651160 1_645
Al15 Ir5 2.651160 1_654
Al15 Ir1 2.651553 1_655
Al15 Al6 2.836858 1_655
Al15 Al5 2.836858 1_655
Al15 Sc0 2.918119 1_555
Ir1 Sc3 3.083619 1_555
Ir1 Sc1 3.083619 1_455
Ir1 Sc2 3.083619 1_455
Ir1 Sc4 3.083619 1_555
Ir2 Sc1 3.083619 1_565
Ir2 Sc3 3.083619 1_556
Ir2 Sc4 3.083619 1_565
Ir2 Sc2 3.083619 1_556
Ir3 Sc0 3.027896 1_565
Ir4 Sc0 3.027896 1_556
Ir5 Sc0 3.027896 1_456
Ir6 Sc0 3.027896 1_465
Pb0 Sc4 2.862668 1_565
Pb0 Sc2 2.862668 1_456
Pb0 Sc1 2.862668 1_465
Pb0 Sc3 2.862668 1_556
Pb0 Sc0 3.037753 1_466
