# generated using pymatgen
data_Tl2ZnI4
_symmetry_space_group_name_H-M   'P 1'
_cell_length_a   7.76333505
_cell_length_b   8.16883728
_cell_length_c   9.50719345
_cell_angle_alpha   90.00000000
_cell_angle_beta   108.15553064
_cell_angle_gamma   90.00000000
_symmetry_Int_Tables_number   1
_chemical_formula_structural   Tl2ZnI4
_chemical_formula_sum   'Tl4 Zn2 I8'
_cell_volume   572.90473673
_cell_formula_units_Z   2
loop_
 _symmetry_equiv_pos_site_id
 _symmetry_equiv_pos_as_xyz
  1  'x, y, z'
loop_
 _atom_site_type_symbol
 _atom_site_label
 _atom_site_symmetry_multiplicity
 _atom_site_fract_x
 _atom_site_fract_y
 _atom_site_fract_z
 _atom_site_occupancy
  Tl  Tl0  1  0.74399291  0.96703541  0.43059096  1
  Tl  Tl1  1  0.25600709  0.46703541  0.56940904  1
  Tl  Tl2  1  0.77608093  0.98158078  0.94798714  1
  Tl  Tl3  1  0.22391907  0.48158078  0.05201286  1
  Zn  Zn0  1  0.21390778  0.02872444  0.79634763  1
  Zn  Zn1  1  0.78609222  0.52872444  0.20365237  1
  I  I0  1  0.96609119  0.26093105  0.72581895  1
  I  I1  1  0.03390881  0.76093105  0.27418105  1
  I  I2  1  0.02185776  0.75956823  0.74518204  1
  I  I3  1  0.97814224  0.25956823  0.25481796  1
  I  I4  1  0.58147628  0.55070224  0.37546542  1
  I  I5  1  0.41852372  0.05070224  0.62453458  1
  I  I6  1  0.59772965  0.56412887  0.92473913  1
  I  I7  1  0.40227035  0.06412887  0.07526087  1
loop_
_geom_bond_atom_site_label_1
_geom_bond_atom_site_label_2
_geom_bond_distance
_geom_bond_site_symmetry_2
I0 Zn0 2.635351 1_655
I0 Tl1 3.492464 1_655
I1 Zn1 2.635351 1_455
I1 Tl0 3.492464 1_455
I2 Zn0 2.615689 1_565
I2 Tl0 3.528482 1_455
I3 Zn1 2.615689 1_555
I3 Tl1 3.528482 1_655
I4 Zn1 2.615492 1_555
I4 Tl3 3.487243 1_555
I5 Zn0 2.615492 1_555
I5 Tl2 3.487243 1_545
I6 Zn1 2.614754 1_556
I6 Tl3 3.539617 1_556
I7 Zn0 2.614754 1_554
I7 Tl2 3.539617 1_544
