# generated using pymatgen
data_Li4B4Os3Ru
_symmetry_space_group_name_H-M   'P 1'
_cell_length_a   6.70524751
_cell_length_b   6.01753452
_cell_length_c   5.52314987
_cell_angle_alpha   70.89555145
_cell_angle_beta   57.99575044
_cell_angle_gamma   50.82580589
_symmetry_Int_Tables_number   1
_chemical_formula_structural   Li4B4Os3Ru
_chemical_formula_sum   'Li4 B4 Os3 Ru1'
_cell_volume   146.49488610
_cell_formula_units_Z   1
loop_
 _symmetry_equiv_pos_site_id
 _symmetry_equiv_pos_as_xyz
  1  'x, y, z'
loop_
 _atom_site_type_symbol
 _atom_site_label
 _atom_site_symmetry_multiplicity
 _atom_site_fract_x
 _atom_site_fract_y
 _atom_site_fract_z
 _atom_site_occupancy
  Li  Li0  1  0.12315506  0.62600319  0.62392217  1
  Li  Li1  1  0.62702429  0.62317023  0.62498435  1
  Li  Li2  1  0.62317023  0.62702429  0.12481912  1
  Li  Li3  1  0.62600319  0.12315506  0.62691859  1
  B  B0  1  0.43537967  0.06506618  0.43594342  1
  B  B1  1  0.17719692  0.82054082  0.18887340  1
  B  B2  1  0.06506618  0.43537967  0.06361073  1
  B  B3  1  0.82054082  0.17719692  0.81338785  1
  Os  Os0  1  0.86295168  0.86295168  0.13704832  1
  Os  Os1  1  0.13617273  0.13617273  0.86382727  1
  Os  Os2  1  0.11526358  0.11526358  0.38473642  1
  Ru  Ru0  1  0.38807365  0.38807365  0.11192635  1
loop_
_geom_bond_atom_site_label_1
_geom_bond_atom_site_label_2
_geom_bond_distance
_geom_bond_site_symmetry_2
Li0 Ru0 2.704565 1_555
Li0 Os0 2.714801 1_456
Li0 Os1 2.773536 1_555
Li0 Os2 2.783401 1_565
Li1 Os2 2.688642 1_655
Li1 Os1 2.707377 1_565
Li1 Ru0 2.758123 1_556
Li1 Os0 2.768880 1_555
Li2 Os2 2.688645 1_565
Li2 Os1 2.707375 1_654
Li2 Ru0 2.758117 1_555
Li2 Os0 2.768885 1_555
Li3 Ru0 2.704570 1_556
Li3 Os0 2.714797 1_545
Li3 Os1 2.773535 1_555
Li3 Os2 2.783401 1_655
B0 Os0 2.077589 1_545
B0 Os1 2.084452 1_555
B0 Os2 2.132355 1_555
B0 Ru0 2.151073 1_555
B0 Li1 2.258361 1_545
B0 Li3 2.259058 1_555
B1 Os2 2.082601 1_565
B1 Ru0 2.095365 1_555
B1 Os0 2.121087 1_455
B1 Os1 2.130145 1_564
B1 Li0 2.246573 1_555
B1 Li2 2.274296 1_555
B2 Os0 2.077589 1_455
B2 Os1 2.084452 1_554
B2 Os2 2.132356 1_555
B2 Ru0 2.151073 1_555
B2 Li2 2.258365 1_455
B2 Li0 2.259063 1_554
B3 Os2 2.082597 1_655
B3 Ru0 2.095366 1_556
B3 Os0 2.121091 1_546
B3 Os1 2.130148 1_655
B3 Li3 2.246573 1_555
B3 Li1 2.274299 1_555
