# generated using pymatgen
data_Ho(Mo3S4)2
_symmetry_space_group_name_H-M   'P 1'
_cell_length_a   6.47419221
_cell_length_b   6.47419260
_cell_length_c   6.47419108
_cell_angle_alpha   89.55950142
_cell_angle_beta   89.55951053
_cell_angle_gamma   89.55951188
_symmetry_Int_Tables_number   1
_chemical_formula_structural   Ho(Mo3S4)2
_chemical_formula_sum   'Ho1 Mo6 S8'
_cell_volume   271.34286601
_cell_formula_units_Z   1
loop_
 _symmetry_equiv_pos_site_id
 _symmetry_equiv_pos_as_xyz
  1  'x, y, z'
loop_
 _atom_site_type_symbol
 _atom_site_label
 _atom_site_symmetry_multiplicity
 _atom_site_fract_x
 _atom_site_fract_y
 _atom_site_fract_z
 _atom_site_occupancy
  Ho  Ho0  1  0.00000299  -0.00000189  0.99999405  1
  Mo  Mo0  1  0.42014448  0.22602582  0.55993245  1
  Mo  Mo1  1  0.22602512  0.55993211  0.42014491  1
  Mo  Mo2  1  0.57985557  0.77397658  0.44006825  1
  Mo  Mo3  1  0.55993170  0.42014454  0.22602568  1
  Mo  Mo4  1  0.77397636  0.44006810  0.57985626  1
  Mo  Mo5  1  0.44006751  0.57985596  0.77397714  1
  S  S0  1  0.24815957  0.87292200  0.63191556  1
  S  S1  1  0.36808544  0.75184007  0.12707967  1
  S  S2  1  0.75183972  0.12707950  0.36808560  1
  S  S3  1  0.76230552  0.76230601  0.76230660  1
  S  S4  1  0.87292190  0.63191527  0.24816044  1
  S  S5  1  0.63191501  0.24816034  0.87292277  1
  S  S6  1  0.23769107  0.23769170  0.23769167  1
  S  S7  1  0.12707903  0.36808589  0.75184096  1
loop_
_geom_bond_atom_site_label_1
_geom_bond_atom_site_label_2
_geom_bond_distance
_geom_bond_site_symmetry_2
Ho0 S3 2.685807 1_445
Ho0 S6 2.685816 1_556
Ho0 S0 2.981235 1_545
Ho0 S7 2.981270 1_555
Ho0 S1 2.981277 1_546
Ho0 S5 2.981295 1_455
Ho0 S4 2.981300 1_446
Ho0 S2 2.981335 1_456
Mo0 S6 2.405734 1_555
Mo0 S7 2.438043 1_555
Mo0 S5 2.461022 1_555
Mo0 S2 2.552393 1_555
Mo0 S0 2.588020 1_545
Mo1 S6 2.405732 1_555
Mo1 S1 2.438041 1_555
Mo1 S0 2.461021 1_555
Mo1 S7 2.552395 1_555
Mo1 S4 2.588015 1_455
Mo2 S3 2.405710 1_555
Mo2 S4 2.438049 1_555
Mo2 S1 2.461012 1_555
Mo2 S0 2.552397 1_555
Mo2 S2 2.588012 1_565
Mo3 S6 2.405732 1_555
Mo3 S2 2.438039 1_555
Mo3 S4 2.461023 1_555
Mo3 S1 2.552393 1_555
Mo3 S5 2.588012 1_554
Mo4 S3 2.405709 1_555
Mo4 S5 2.438049 1_555
Mo4 S2 2.461015 1_555
Mo4 S4 2.552396 1_555
Mo4 S7 2.588011 1_655
Mo5 S3 2.405709 1_555
Mo5 S0 2.438048 1_555
Mo5 S7 2.461012 1_555
Mo5 S5 2.552396 1_555
Mo5 S1 2.588009 1_556
