# generated using pymatgen
data_BaMn(Sb4Ru)3
_symmetry_space_group_name_H-M   'P 1'
_cell_length_a   8.17408377
_cell_length_b   8.17408287
_cell_length_c   8.14289027
_cell_angle_alpha   109.39394203
_cell_angle_beta   109.39393980
_cell_angle_gamma   109.54838862
_symmetry_Int_Tables_number   1
_chemical_formula_structural   BaMn(Sb4Ru)3
_chemical_formula_sum   'Ba1 Mn1 Sb12 Ru3'
_cell_volume   419.22592464
_cell_formula_units_Z   1
loop_
 _symmetry_equiv_pos_site_id
 _symmetry_equiv_pos_as_xyz
  1  'x, y, z'
loop_
 _atom_site_type_symbol
 _atom_site_label
 _atom_site_symmetry_multiplicity
 _atom_site_fract_x
 _atom_site_fract_y
 _atom_site_fract_z
 _atom_site_occupancy
  Ba  Ba0  1  0.00000000  0.00000000  0.00000000  1
  Mn  Mn0  1  0.00000000  0.00000000  0.50000000  1
  Sb  Sb0  1  0.16104466  0.80853488  0.65968438  1
  Sb  Sb1  1  0.15869194  0.49906202  0.33985034  1
  Sb  Sb2  1  0.50093798  0.65963092  0.84078832  1
  Sb  Sb3  1  0.34036908  0.84130806  0.18115840  1
  Sb  Sb4  1  0.80853488  0.64749023  0.14885050  1
  Sb  Sb5  1  0.64749023  0.83895534  0.49863972  1
  Sb  Sb6  1  0.19146512  0.35250977  0.85114950  1
  Sb  Sb7  1  0.65963092  0.15869194  0.81884160  1
  Sb  Sb8  1  0.35250977  0.16104466  0.50136028  1
  Sb  Sb9  1  0.49906202  0.34036908  0.15921168  1
  Sb  Sb10  1  0.84130806  0.50093798  0.66014966  1
  Sb  Sb11  1  0.83895534  0.19146512  0.34031562  1
  Ru  Ru0  1  0.50000000  0.50000000  0.50000000  1
  Ru  Ru1  1  0.50000000  0.00000000  0.00000000  1
  Ru  Ru2  1  0.00000000  0.50000000  0.00000000  1
loop_
_geom_bond_atom_site_label_1
_geom_bond_atom_site_label_2
_geom_bond_distance
_geom_bond_site_symmetry_2
Ba0 Sb3 3.543958 1_545
Ba0 Sb7 3.543958 1_454
Ba0 Sb2 3.543963 1_444
Ba0 Sb9 3.543963 1_555
Ba0 Sb10 3.543964 1_444
Ba0 Sb1 3.543964 1_555
Ba0 Sb8 3.575283 1_555
Ba0 Sb5 3.575283 1_444
Ba0 Sb11 3.575283 1_455
Ba0 Sb0 3.575283 1_544
Ba0 Sb6 3.575283 1_554
Ba0 Sb4 3.575283 1_445
Mn0 Sb6 2.732486 1_555
Mn0 Sb4 2.732486 1_445
Mn0 Sb0 2.732486 1_545
Mn0 Sb11 2.732486 1_455
Mn0 Sb8 2.732486 1_555
Mn0 Sb5 2.732486 1_445
Sb0 Sb1 2.956539 1_555
Sb0 Sb10 2.961053 1_455
Sb1 Sb11 2.961053 1_455
Sb2 Sb6 2.956544 1_555
Sb2 Sb4 2.961058 1_556
Sb3 Sb5 2.956544 1_555
Sb3 Sb8 2.961048 1_565
Sb4 Sb9 2.956544 1_555
Sb5 Sb7 2.961048 1_565
Sb6 Sb9 2.961058 1_556
Sb7 Sb8 2.956544 1_555
Sb10 Sb11 2.956539 1_555
Ru0 Sb5 2.631349 1_555
Ru0 Sb8 2.631349 1_555
Ru0 Sb2 2.641539 1_555
Ru0 Sb9 2.641539 1_555
Ru0 Sb10 2.654606 1_555
Ru0 Sb1 2.654606 1_555
Ru1 Sb11 2.631348 1_555
Ru1 Sb0 2.631348 1_544
Ru1 Sb7 2.641543 1_554
Ru1 Sb3 2.641543 1_545
Ru1 Sb9 2.654599 1_555
Ru1 Sb2 2.654599 1_544
Ru2 Sb4 2.631348 1_455
Ru2 Sb6 2.631348 1_554
Ru2 Sb1 2.641538 1_555
Ru2 Sb10 2.641538 1_454
Ru2 Sb3 2.654602 1_555
Ru2 Sb7 2.654602 1_454
