# generated using pymatgen
data_Ir5Pt(RhS4)3
_symmetry_space_group_name_H-M   'P 1'
_cell_length_a   7.56252776
_cell_length_b   7.55267175
_cell_length_c   6.29685813
_cell_angle_alpha   77.06775697
_cell_angle_beta   76.94780874
_cell_angle_gamma   91.73223404
_symmetry_Int_Tables_number   1
_chemical_formula_structural   Ir5Pt(RhS4)3
_chemical_formula_sum   'Ir5 Pt1 Rh3 S12'
_cell_volume   340.24274881
_cell_formula_units_Z   1
loop_
 _symmetry_equiv_pos_site_id
 _symmetry_equiv_pos_as_xyz
  1  'x, y, z'
loop_
 _atom_site_type_symbol
 _atom_site_label
 _atom_site_symmetry_multiplicity
 _atom_site_fract_x
 _atom_site_fract_y
 _atom_site_fract_z
 _atom_site_occupancy
  Ir  Ir0  1  0.16283844  0.83869969  0.99930879  1
  Ir  Ir1  1  0.83841362  0.16109867  0.00038635  1
  Ir  Ir2  1  0.00124440  0.00123679  0.49909384  1
  Ir  Ir3  1  0.34833153  0.34820255  0.94458236  1
  Ir  Ir4  1  0.65099862  0.64903376  0.05592738  1
  Pt  Pt0  1  0.77466318  0.48988825  0.45296194  1
  Rh  Rh0  1  0.50912356  0.22030220  0.54843338  1
  Rh  Rh1  1  0.22034106  0.51153174  0.54880580  1
  Rh  Rh2  1  0.48782165  0.77953187  0.45265695  1
  S  S0  1  0.85746719  0.43855904  0.09651367  1
  S  S1  1  0.56025162  0.14168604  0.89946847  1
  S  S2  1  0.14591548  0.56186916  0.89628439  1
  S  S3  1  0.43910456  0.85534944  0.10347692  1
  S  S4  1  0.11610798  0.11611146  0.10880489  1
  S  S5  1  0.88491839  0.88380331  0.89026172  1
  S  S6  1  0.03518268  0.71856971  0.38732126  1
  S  S7  1  0.28655669  0.97035096  0.61077974  1
  S  S8  1  0.97109647  0.28305378  0.61300752  1
  S  S9  1  0.57922634  0.58570462  0.73682234  1
  S  S10  1  0.41386795  0.41484904  0.26710985  1
  S  S11  1  0.71652759  0.03056693  0.38799244  1
loop_
_geom_bond_atom_site_label_1
_geom_bond_atom_site_label_2
_geom_bond_distance
_geom_bond_site_symmetry_2
Ir0 S2 2.331769 1_555
Ir0 S3 2.334766 1_556
Ir0 S4 2.360391 1_566
Ir0 S5 2.365471 1_455
Ir0 S6 2.369420 1_556
Ir0 S7 2.381284 1_555
Ir1 S0 2.316775 1_555
Ir1 S1 2.340368 1_554
Ir1 S5 2.361174 1_544
Ir1 S4 2.361929 1_655
Ir1 S11 2.372865 1_555
Ir1 S8 2.374495 1_554
Ir2 S4 2.362815 1_555
Ir2 S5 2.371462 1_445
Ir2 S8 2.394938 1_455
Ir2 S6 2.396472 1_545
Ir2 S11 2.411333 1_455
Ir2 S7 2.418054 1_545
Ir3 S2 2.275944 1_555
Ir3 S1 2.286007 1_555
Ir3 S4 2.325623 1_556
Ir3 S10 2.349624 1_556
Ir3 S9 2.388852 1_555
Ir4 S0 2.275697 1_555
Ir4 S3 2.286631 1_555
Ir4 S9 2.338378 1_554
Ir4 S5 2.347466 1_554
Ir4 S10 2.406452 1_555
Pt0 S0 2.312904 1_555
Pt0 S9 2.313755 1_555
Pt0 S8 2.403040 1_555
Pt0 S6 2.478400 1_655
Rh0 S1 2.280453 1_555
Rh0 S10 2.300285 1_555
Rh0 S11 2.366962 1_555
Rh0 S7 2.393465 1_545
Rh1 S2 2.253397 1_555
Rh1 S10 2.300727 1_555
Rh1 S6 2.345985 1_555
Rh1 S8 2.416823 1_455
Rh2 S3 2.261233 1_555
Rh2 S9 2.295655 1_555
Rh2 S7 2.339980 1_555
Rh2 S11 2.426963 1_565
S0 S2 2.307562 1_654
S1 S3 2.296001 1_546
