# generated using pymatgen
data_LiBi(PtO2)2
_symmetry_space_group_name_H-M   'P 1'
_cell_length_a   6.90933368
_cell_length_b   6.90933368
_cell_length_c   4.34825614
_cell_angle_alpha   90.00000000
_cell_angle_beta   90.00000000
_cell_angle_gamma   90.00000000
_symmetry_Int_Tables_number   1
_chemical_formula_structural   LiBi(PtO2)2
_chemical_formula_sum   'Li2 Bi2 Pt4 O8'
_cell_volume   207.58092989
_cell_formula_units_Z   2
loop_
 _symmetry_equiv_pos_site_id
 _symmetry_equiv_pos_as_xyz
  1  'x, y, z'
loop_
 _atom_site_type_symbol
 _atom_site_label
 _atom_site_symmetry_multiplicity
 _atom_site_fract_x
 _atom_site_fract_y
 _atom_site_fract_z
 _atom_site_occupancy
  Li  Li0  1  0.00000000  0.00000000  0.50000000  1
  Li  Li1  1  0.50000000  0.50000000  0.50000000  1
  Bi  Bi0  1  0.00000000  0.50000000  0.53910918  1
  Bi  Bi1  1  0.50000000  0.00000000  0.46089082  1
  Pt  Pt0  1  0.25000000  0.25000000  0.00000000  1
  Pt  Pt1  1  0.25000000  0.75000000  0.00000000  1
  Pt  Pt2  1  0.75000000  0.75000000  0.00000000  1
  Pt  Pt3  1  0.75000000  0.25000000  0.00000000  1
  O  O0  1  0.22632009  0.00000000  0.75724113  1
  O  O1  1  0.00000000  0.77367991  0.24275887  1
  O  O2  1  0.77367991  0.00000000  0.75724113  1
  O  O3  1  0.27367991  0.50000000  0.24275887  1
  O  O4  1  0.00000000  0.22632009  0.24275887  1
  O  O5  1  0.50000000  0.27367991  0.75724113  1
  O  O6  1  0.72632009  0.50000000  0.24275887  1
  O  O7  1  0.50000000  0.72632009  0.75724113  1
loop_
_geom_bond_atom_site_label_1
_geom_bond_atom_site_label_2
_geom_bond_distance
_geom_bond_site_symmetry_2
Li0 O0 1.922597 1_555
Li0 O4 1.922597 1_555
Li0 O2 1.922597 1_455
Li0 O1 1.922597 1_545
Li1 O7 1.922597 1_555
Li1 O6 1.922597 1_555
Li1 O5 1.922597 1_555
Li1 O3 1.922597 1_555
Bi0 O3 2.288271 1_555
Bi0 O1 2.288271 1_555
Bi0 O6 2.288271 1_455
Bi0 O4 2.288271 1_555
Bi1 O5 2.288271 1_555
Bi1 O2 2.288271 1_555
Bi1 O7 2.288271 1_545
Bi1 O0 2.288271 1_555
O0 Pt0 2.030934 1_556
O0 Pt1 2.030934 1_546
O1 Pt1 2.030934 1_555
O1 Pt2 2.030934 1_455
O2 Pt3 2.030934 1_556
O2 Pt2 2.030934 1_546
O3 Pt1 2.030934 1_555
O3 Pt0 2.030934 1_555
O4 Pt3 2.030934 1_455
O4 Pt0 2.030934 1_555
O5 Pt3 2.030934 1_556
O5 Pt0 2.030934 1_556
O6 Pt3 2.030934 1_555
O6 Pt2 2.030934 1_555
O7 Pt1 2.030934 1_556
O7 Pt2 2.030934 1_556
