# generated using pymatgen
data_Y6Sn7PPd16
_symmetry_space_group_name_H-M   'P 1'
_cell_length_a   9.26484080
_cell_length_b   9.26484123
_cell_length_c   9.26484057
_cell_angle_alpha   60.00000237
_cell_angle_beta   60.00000083
_cell_angle_gamma   59.99999605
_symmetry_Int_Tables_number   1
_chemical_formula_structural   Y6Sn7PPd16
_chemical_formula_sum   'Y6 Sn7 P1 Pd16'
_cell_volume   562.33989089
_cell_formula_units_Z   1
loop_
 _symmetry_equiv_pos_site_id
 _symmetry_equiv_pos_as_xyz
  1  'x, y, z'
loop_
 _atom_site_type_symbol
 _atom_site_label
 _atom_site_symmetry_multiplicity
 _atom_site_fract_x
 _atom_site_fract_y
 _atom_site_fract_z
 _atom_site_occupancy
  Y  Y0  1  0.71271520  0.28728480  0.28728480  1
  Y  Y1  1  0.28728480  0.71271520  0.71271520  1
  Y  Y2  1  0.28728480  0.71271520  0.28728480  1
  Y  Y3  1  0.71271520  0.28728480  0.71271520  1
  Y  Y4  1  0.28728480  0.28728480  0.71271520  1
  Y  Y5  1  0.71271520  0.71271520  0.28728480  1
  Sn  Sn0  1  0.00000000  0.00000000  0.00000000  1
  Sn  Sn1  1  0.50000000  0.00000000  0.00000000  1
  Sn  Sn2  1  0.00000000  0.50000000  0.50000000  1
  Sn  Sn3  1  0.00000000  0.50000000  0.00000000  1
  Sn  Sn4  1  0.50000000  0.00000000  0.50000000  1
  Sn  Sn5  1  0.00000000  0.00000000  0.50000000  1
  Sn  Sn6  1  0.50000000  0.50000000  0.00000000  1
  P  P0  1  0.50000000  0.50000000  0.50000000  1
  Pd  Pd0  1  0.11939776  0.11939776  0.11939776  1
  Pd  Pd1  1  0.88060224  0.88060224  0.88060224  1
  Pd  Pd2  1  0.11939776  0.11939776  0.64180671  1
  Pd  Pd3  1  0.11939776  0.64180671  0.11939776  1
  Pd  Pd4  1  0.88060224  0.88060224  0.35819329  1
  Pd  Pd5  1  0.88060224  0.35819329  0.88060224  1
  Pd  Pd6  1  0.64180671  0.11939776  0.11939776  1
  Pd  Pd7  1  0.35819329  0.88060224  0.88060224  1
  Pd  Pd8  1  0.33258501  0.33258501  0.33258501  1
  Pd  Pd9  1  0.66741499  0.66741499  0.66741499  1
  Pd  Pd10  1  0.33258501  0.33258501  0.00224596  1
  Pd  Pd11  1  0.33258501  0.00224596  0.33258501  1
  Pd  Pd12  1  0.66741499  0.66741499  0.99775404  1
  Pd  Pd13  1  0.66741499  0.99775404  0.66741499  1
  Pd  Pd14  1  0.00224596  0.33258501  0.33258501  1
  Pd  Pd15  1  0.99775404  0.66741499  0.66741499  1
loop_
_geom_bond_atom_site_label_1
_geom_bond_atom_site_label_2
_geom_bond_distance
_geom_bond_site_symmetry_2
Sn1 Y5 3.311844 1_545
Sn1 Y4 3.311844 1_554
Sn1 Y3 3.311845 1_554
Sn1 Y2 3.311845 1_545
Sn2 Y4 3.311844 1_555
Sn2 Y5 3.311844 1_455
Sn2 Y2 3.311845 1_555
Sn2 Y3 3.311845 1_455
Sn3 Y5 3.311844 1_455
Sn3 Y4 3.311844 1_554
Sn3 Y1 3.311845 1_554
Sn3 Y0 3.311845 1_455
Sn4 Y4 3.311844 1_555
Sn4 Y5 3.311844 1_545
Sn4 Y0 3.311845 1_555
Sn4 Y1 3.311845 1_545
Sn5 Y3 3.311844 1_455
Sn5 Y2 3.311844 1_545
Sn5 Y1 3.311844 1_545
Sn5 Y0 3.311844 1_455
Sn6 Y0 3.311844 1_555
Sn6 Y1 3.311844 1_554
Sn6 Y2 3.311844 1_555
Sn6 Y3 3.311844 1_554
P0 Y3 2.787093 1_555
P0 Y2 2.787093 1_555
P0 Y1 2.787093 1_555
P0 Y0 2.787093 1_555
P0 Y5 2.787093 1_555
P0 Y4 2.787093 1_555
Pd0 Sn0 2.709629 1_555
Pd0 Sn1 2.881640 1_555
Pd0 Sn5 2.881640 1_555
Pd0 Sn3 2.881640 1_555
Pd0 Y0 3.119864 1_455
Pd0 Y2 3.119864 1_545
Pd0 Y4 3.119864 1_554
Pd1 Sn0 2.709629 1_666
Pd1 Sn1 2.881640 1_566
Pd1 Sn5 2.881640 1_665
Pd1 Sn3 2.881640 1_656
Pd1 Y1 3.119864 1_655
Pd1 Y3 3.119864 1_565
Pd1 Y5 3.119864 1_556
Pd2 Sn0 2.709629 1_556
Pd2 Sn4 2.881640 1_555
Pd2 Sn5 2.881640 1_555
Pd2 Sn2 2.881640 1_555
Pd2 Y3 3.119864 1_455
Pd2 Y1 3.119864 1_545
Pd2 Y4 3.119864 1_555
Pd3 Sn0 2.709629 1_565
Pd3 Sn6 2.881640 1_555
Pd3 Sn2 2.881640 1_555
Pd3 Sn3 2.881640 1_555
Pd3 Y5 3.119864 1_455
Pd3 Y1 3.119864 1_554
Pd3 Y2 3.119864 1_555
Pd4 Sn0 2.709629 1_665
Pd4 Sn4 2.881640 1_565
Pd4 Sn5 2.881640 1_665
Pd4 Sn2 2.881640 1_655
Pd4 Y2 3.119864 1_655
Pd4 Y0 3.119864 1_565
Pd4 Y5 3.119864 1_555
Pd5 Sn0 2.709629 1_656
Pd5 Sn6 2.881640 1_556
Pd5 Sn2 2.881640 1_655
Pd5 Sn3 2.881640 1_656
Pd5 Y4 3.119864 1_655
Pd5 Y0 3.119864 1_556
Pd5 Y3 3.119864 1_555
Pd6 Sn0 2.709629 1_655
Pd6 Sn4 2.881640 1_555
Pd6 Sn1 2.881640 1_555
Pd6 Sn6 2.881640 1_555
Pd6 Y0 3.119864 1_555
Pd6 Y3 3.119864 1_554
Pd6 Y5 3.119865 1_545
Pd7 Sn0 2.709629 1_566
Pd7 Sn4 2.881640 1_565
Pd7 Sn1 2.881640 1_566
Pd7 Sn6 2.881640 1_556
Pd7 Y1 3.119864 1_555
Pd7 Y2 3.119864 1_556
Pd7 Y4 3.119865 1_565
Pd8 Sn2 2.674583 1_555
Pd8 Sn4 2.674583 1_555
Pd8 Sn6 2.674583 1_555
Pd8 Y4 3.158418 1_555
Pd8 Y0 3.158418 1_555
Pd8 Y2 3.158419 1_555
Pd9 Sn2 2.674583 1_655
Pd9 Sn4 2.674583 1_565
Pd9 Sn6 2.674583 1_556
Pd9 Y5 3.158418 1_555
Pd9 Y1 3.158418 1_555
Pd9 Y3 3.158419 1_555
Pd10 Sn6 2.674578 1_555
Pd10 Sn3 2.674586 1_555
Pd10 Sn1 2.674586 1_555
Pd10 Y3 3.158422 1_554
Pd10 Y1 3.158422 1_554
Pd10 Y4 3.158427 1_554
Pd11 Sn4 2.674578 1_555
Pd11 Sn1 2.674586 1_555
Pd11 Sn5 2.674586 1_555
Pd11 Y5 3.158422 1_545
Pd11 Y1 3.158422 1_545
Pd11 Y2 3.158428 1_545
Pd12 Sn6 2.674578 1_556
Pd12 Sn3 2.674586 1_656
Pd12 Sn1 2.674586 1_566
Pd12 Y2 3.158422 1_556
Pd12 Y0 3.158422 1_556
Pd12 Y5 3.158427 1_556
Pd13 Sn4 2.674578 1_565
Pd13 Sn1 2.674586 1_566
Pd13 Sn5 2.674586 1_665
Pd13 Y4 3.158422 1_565
Pd13 Y0 3.158422 1_565
Pd13 Y3 3.158428 1_565
Pd14 Sn2 2.674578 1_555
Pd14 Sn3 2.674586 1_555
Pd14 Sn5 2.674586 1_555
Pd14 Y5 3.158422 1_455
Pd14 Y3 3.158422 1_455
Pd14 Y0 3.158428 1_455
Pd15 Sn2 2.674578 1_655
Pd15 Sn3 2.674586 1_656
Pd15 Sn5 2.674586 1_665
Pd15 Y4 3.158422 1_655
Pd15 Y2 3.158422 1_655
Pd15 Y1 3.158428 1_655
