# generated using pymatgen
data_Hg(AuO2)2
_symmetry_space_group_name_H-M   'P 1'
_cell_length_a   6.66365630
_cell_length_b   6.66365591
_cell_length_c   6.66365598
_cell_angle_alpha   126.17926410
_cell_angle_beta   126.17926120
_cell_angle_gamma   79.59370620
_symmetry_Int_Tables_number   1
_chemical_formula_structural   Hg(AuO2)2
_chemical_formula_sum   'Hg2 Au4 O8'
_cell_volume   186.27762652
_cell_formula_units_Z   2
loop_
 _symmetry_equiv_pos_site_id
 _symmetry_equiv_pos_as_xyz
  1  'x, y, z'
loop_
 _atom_site_type_symbol
 _atom_site_label
 _atom_site_symmetry_multiplicity
 _atom_site_fract_x
 _atom_site_fract_y
 _atom_site_fract_z
 _atom_site_occupancy
  Hg  Hg0  1  0.75000000  0.25000000  0.50000000  1
  Hg  Hg1  1  0.00000000  0.00000000  0.00000000  1
  Au  Au0  1  0.37500000  0.62500000  0.75000000  1
  Au  Au1  1  0.37500000  0.12500000  0.75000000  1
  Au  Au2  1  0.87500000  0.62500000  0.25000000  1
  Au  Au3  1  0.37500000  0.62500000  0.25000000  1
  O  O0  1  0.04271823  0.41516705  0.04633071  1
  O  O1  1  0.74638852  0.29271823  0.12755118  1
  O  O2  1  0.16516705  0.61883634  0.87244882  1
  O  O3  1  0.36883634  0.99638852  0.95366929  1
  O  O4  1  0.70728177  0.83483295  0.45366929  1
  O  O5  1  0.00361148  0.95728177  0.37244882  1
  O  O6  1  0.38116366  0.25361148  0.54633071  1
  O  O7  1  0.58483295  0.63116366  0.62755118  1
loop_
_geom_bond_atom_site_label_1
_geom_bond_atom_site_label_2
_geom_bond_distance
_geom_bond_site_symmetry_2
Hg0 O5 2.435333 1_645
Hg0 O7 2.435338 1_555
Hg0 O0 2.435338 1_656
Hg0 O3 2.435338 1_544
Hg0 O4 2.646201 1_545
Hg0 O2 2.646202 1_655
Hg0 O6 2.646203 1_555
Hg0 O1 2.646205 1_555
Hg1 O1 2.435333 1_455
Hg1 O2 2.435338 1_544
Hg1 O4 2.435338 1_444
Hg1 O6 2.435338 1_555
Hg1 O0 2.646201 1_555
Hg1 O7 2.646202 1_444
Hg1 O3 2.646203 1_544
Hg1 O5 2.646205 1_545
Au0 O7 2.007461 1_555
Au0 O2 2.007461 1_555
Au0 O6 2.007969 1_555
Au0 O3 2.007969 1_555
Au1 O6 2.007455 1_555
Au1 O3 2.007455 1_545
Au1 O1 2.007967 1_556
Au1 O5 2.007967 1_545
Au2 O5 2.007458 1_655
Au2 O1 2.007458 1_555
Au2 O4 2.007963 1_555
Au2 O0 2.007963 1_655
Au3 O4 2.007461 1_555
Au3 O0 2.007461 1_555
Au3 O7 2.007963 1_555
Au3 O2 2.007963 1_554
