# generated using pymatgen
data_Hf16Nb3CdNi4
_symmetry_space_group_name_H-M   'P 1'
_cell_length_a   8.77074631
_cell_length_b   8.73007349
_cell_length_c   8.73007364
_cell_angle_alpha   59.99999571
_cell_angle_beta   60.15327906
_cell_angle_gamma   60.15327548
_symmetry_Int_Tables_number   1
_chemical_formula_structural   Hf16Nb3CdNi4
_chemical_formula_sum   'Hf16 Nb3 Cd1 Ni4'
_cell_volume   473.76135896
_cell_formula_units_Z   1
loop_
 _symmetry_equiv_pos_site_id
 _symmetry_equiv_pos_as_xyz
  1  'x, y, z'
loop_
 _atom_site_type_symbol
 _atom_site_label
 _atom_site_symmetry_multiplicity
 _atom_site_fract_x
 _atom_site_fract_y
 _atom_site_fract_z
 _atom_site_occupancy
  Hf  Hf0  1  0.69444515  0.10185128  0.10185128  1
  Hf  Hf1  1  0.10132548  0.70475810  0.09695771  1
  Hf  Hf2  1  0.10132548  0.09695771  0.70475810  1
  Hf  Hf3  1  0.10132548  0.09695771  0.09695771  1
  Hf  Hf4  1  0.31244075  0.31480949  0.68637488  1
  Hf  Hf5  1  0.67572813  0.69248557  0.31589265  1
  Hf  Hf6  1  0.31244075  0.68637488  0.31480949  1
  Hf  Hf7  1  0.67572813  0.31589265  0.69248557  1
  Hf  Hf8  1  0.67572813  0.31589265  0.31589265  1
  Hf  Hf9  1  0.31244075  0.68637488  0.68637488  1
  Hf  Hf10  1  0.94716526  0.93989589  0.55646993  1
  Hf  Hf11  1  0.55116277  0.54763174  0.95060275  1
  Hf  Hf12  1  0.94716526  0.55646993  0.93989589  1
  Hf  Hf13  1  0.55116277  0.95060275  0.54763174  1
  Hf  Hf14  1  0.55116277  0.95060275  0.95060275  1
  Hf  Hf15  1  0.94716526  0.55646993  0.55646993  1
  Nb  Nb0  1  0.34170840  0.99425016  0.33202122  1
  Nb  Nb1  1  0.34170840  0.33202122  0.99425016  1
  Nb  Nb2  1  0.34170840  0.33202122  0.33202122  1
  Cd  Cd0  1  0.00263669  0.33245477  0.33245477  1
  Ni  Ni0  1  0.32760029  0.89080057  0.89080057  1
  Ni  Ni1  1  0.89557583  0.32531378  0.88955570  1
  Ni  Ni2  1  0.89557583  0.88955570  0.32531378  1
  Ni  Ni3  1  0.89557583  0.88955570  0.88955570  1
loop_
_geom_bond_atom_site_label_1
_geom_bond_atom_site_label_2
_geom_bond_distance
_geom_bond_site_symmetry_2
Hf0 Ni3 2.628336 1_544
Hf0 Ni2 2.628349 1_545
Hf0 Ni1 2.628349 1_554
Hf0 Nb1 3.051038 1_554
Hf0 Nb0 3.051038 1_545
Hf0 Nb2 3.051046 1_555
Hf0 Hf5 3.145036 1_545
Hf0 Hf7 3.145036 1_554
Hf0 Hf8 3.145036 1_555
Hf1 Ni0 2.558457 1_554
Hf1 Ni3 2.563395 1_454
Hf1 Ni2 2.563408 1_455
Hf1 Hf9 3.158413 1_554
Hf1 Hf6 3.158421 1_555
Hf1 Nb1 3.169382 1_554
Hf1 Nb2 3.169390 1_555
Hf1 Hf5 3.269597 1_455
Hf2 Ni0 2.558457 1_545
Hf2 Ni3 2.563395 1_445
Hf2 Ni1 2.563408 1_455
Hf2 Hf9 3.158413 1_545
Hf2 Hf4 3.158421 1_555
Hf2 Nb0 3.169382 1_545
Hf2 Nb2 3.169391 1_555
Hf2 Hf7 3.269597 1_455
Hf3 Ni0 2.558439 1_544
Hf3 Ni1 2.563397 1_454
Hf3 Ni2 2.563397 1_445
Hf3 Hf6 3.158416 1_545
Hf3 Hf4 3.158416 1_554
Hf3 Nb0 3.169397 1_545
Hf3 Nb1 3.169397 1_554
Hf3 Hf8 3.269597 1_455
Hf4 Nb2 2.905436 1_555
Hf4 Nb1 2.905444 1_555
Hf4 Ni1 3.145839 1_455
Hf4 Ni0 3.169369 1_545
Hf4 Hf7 3.217940 1_555
Hf4 Hf8 3.217944 1_555
Hf4 Hf6 3.243793 1_555
Hf4 Hf9 3.243793 1_555
Hf5 Nb0 2.796590 1_555
Hf5 Ni3 3.207184 1_554
Hf5 Ni2 3.207195 1_555
Hf5 Hf6 3.217940 1_555
Hf5 Hf9 3.217944 1_555
Hf5 Hf7 3.287684 1_555
Hf5 Hf8 3.287684 1_555
Hf6 Nb2 2.905436 1_555
Hf6 Nb0 2.905444 1_555
Hf6 Ni2 3.145839 1_455
Hf6 Ni0 3.169369 1_554
Hf6 Hf8 3.217944 1_555
Hf6 Hf9 3.243793 1_555
Hf7 Nb1 2.796590 1_555
Hf7 Ni3 3.207184 1_545
Hf7 Ni1 3.207195 1_555
Hf7 Hf9 3.217944 1_555
Hf7 Hf8 3.287684 1_555
Hf8 Nb2 2.796583 1_555
Hf8 Ni2 3.207180 1_545
Hf8 Ni1 3.207180 1_554
Hf9 Nb1 2.905439 1_555
Hf9 Nb0 2.905439 1_555
Hf9 Ni3 3.145841 1_455
Hf9 Ni0 3.169384 1_555
Hf10 Ni3 2.542420 1_555
Hf10 Ni2 2.542420 1_555
Hf10 Nb0 3.161449 1_655
Hf10 Hf9 3.239939 1_655
Hf10 Hf6 3.239943 1_655
Hf10 Hf7 3.340349 1_565
Hf10 Hf8 3.340358 1_565
Hf11 Ni0 2.588518 1_555
Hf11 Ni1 2.602345 1_555
Hf11 Nb1 3.015118 1_555
Hf11 Nb2 3.015122 1_556
Hf11 Hf8 3.205079 1_556
Hf11 Hf7 3.205086 1_555
Hf11 Hf6 3.265125 1_556
Hf11 Hf9 3.265125 1_555
Hf12 Ni3 2.542420 1_555
Hf12 Ni1 2.542420 1_555
Hf12 Nb1 3.161449 1_655
Hf12 Hf9 3.239939 1_655
Hf12 Hf4 3.239943 1_655
Hf12 Hf5 3.340349 1_556
Hf12 Hf8 3.340358 1_556
Hf13 Ni0 2.588518 1_555
Hf13 Ni2 2.602345 1_555
Hf13 Nb0 3.015118 1_555
Hf13 Nb2 3.015122 1_565
Hf13 Hf8 3.205079 1_565
Hf13 Hf5 3.205086 1_555
Hf13 Hf4 3.265125 1_565
Hf13 Hf9 3.265125 1_555
Hf14 Ni0 2.588506 1_555
Hf14 Ni3 2.602347 1_555
Hf14 Nb1 3.015126 1_565
Hf14 Nb0 3.015126 1_556
Hf14 Hf5 3.205079 1_556
Hf14 Hf7 3.205079 1_565
Hf14 Hf4 3.265125 1_565
Hf14 Hf6 3.265125 1_556
Hf15 Ni2 2.542420 1_555
Hf15 Ni1 2.542420 1_555
Hf15 Nb2 3.161448 1_655
Hf15 Hf4 3.239939 1_655
Hf15 Hf6 3.239939 1_655
Hf15 Hf5 3.340363 1_555
Hf15 Hf7 3.340363 1_555
Nb0 Nb1 2.948766 1_564
Nb0 Nb2 2.948766 1_565
Nb1 Nb2 2.948766 1_556
Cd0 Nb0 2.970149 1_545
Cd0 Nb1 2.970149 1_554
Cd0 Nb2 2.970149 1_555
Cd0 Hf5 3.018107 1_455
Cd0 Hf7 3.018107 1_455
Cd0 Hf8 3.018117 1_455
Cd0 Hf10 3.133127 1_445
Cd0 Hf12 3.133127 1_454
Cd0 Hf15 3.133127 1_455
Cd0 Hf2 3.144329 1_555
Cd0 Hf1 3.144329 1_555
Cd0 Hf3 3.144344 1_555
