# generated using pymatgen
data_Sc5Ta(SiTc)6
_symmetry_space_group_name_H-M   'P 1'
_cell_length_a   7.70319253
_cell_length_b   7.70279701
_cell_length_c   7.70319167
_cell_angle_alpha   126.46616439
_cell_angle_beta   128.00843775
_cell_angle_gamma   77.87144770
_symmetry_Int_Tables_number   1
_chemical_formula_structural   Sc5Ta(SiTc)6
_chemical_formula_sum   'Sc5 Ta1 Si6 Tc6'
_cell_volume   280.72739228
_cell_formula_units_Z   1
loop_
 _symmetry_equiv_pos_site_id
 _symmetry_equiv_pos_as_xyz
  1  'x, y, z'
loop_
 _atom_site_type_symbol
 _atom_site_label
 _atom_site_symmetry_multiplicity
 _atom_site_fract_x
 _atom_site_fract_y
 _atom_site_fract_z
 _atom_site_occupancy
  Sc  Sc0  1  0.94433108  0.89919503  0.45486495  1
  Sc  Sc1  1  0.05034152  0.49616108  0.94581856  1
  Sc  Sc2  1  0.55553589  0.51051758  0.45498069  1
  Sc  Sc3  1  0.44954624  0.89536489  0.94581865  1
  Sc  Sc4  1  0.75005419  0.10941263  0.85935844  1
  Ta  Ta0  1  0.25014563  0.10942012  0.35927449  1
  Si  Si0  1  0.74997297  0.50584441  0.25586944  1
  Si  Si1  1  0.24995898  0.50128404  0.75132406  1
  Si  Si2  1  0.65372099  0.16979809  0.49162337  1
  Si  Si3  1  0.32188623  0.83820129  0.49177122  1
  Si  Si4  1  0.17817572  0.16979809  0.01607610  1
  Si  Si5  1  0.84643006  0.83820129  0.01631605  1
  Tc  Tc0  1  0.49198915  0.76499845  0.25711190  1
  Tc  Tc1  1  0.00788655  0.76499845  0.77300931  1
  Tc  Tc2  1  0.87446286  0.24364167  0.37305879  1
  Tc  Tc3  1  0.12949450  0.49866062  0.37317505  1
  Tc  Tc4  1  0.37058288  0.24364167  0.86917981  1
  Tc  Tc5  1  0.62548457  0.49866062  0.86916612  1
loop_
_geom_bond_atom_site_label_1
_geom_bond_atom_site_label_2
_geom_bond_distance
_geom_bond_site_symmetry_2
Sc0 Si5 2.706750 1_555
Sc0 Si3 2.706754 1_655
Sc0 Si0 2.707478 1_555
Sc0 Si4 2.748559 1_666
Sc0 Si2 2.748570 1_565
Sc0 Tc1 2.938582 1_655
Sc0 Tc0 2.938586 1_555
Sc0 Tc4 2.948889 1_665
Sc0 Tc2 2.948894 1_565
Sc0 Tc3 2.982874 1_655
Sc0 Tc5 2.982879 1_554
Sc1 Si5 2.704524 1_456
Sc1 Si3 2.704528 1_556
Sc1 Si2 2.739163 1_455
Sc1 Si4 2.739163 1_556
Sc1 Si1 2.746596 1_555
Sc1 Tc1 2.936537 1_555
Sc1 Tc0 2.936541 1_556
Sc1 Tc2 2.937638 1_455
Sc1 Tc4 2.937640 1_555
Sc1 Tc3 2.943982 1_556
Sc1 Tc5 2.943986 1_455
Sc2 Si4 2.706139 1_555
Sc2 Si2 2.706147 1_555
Sc2 Si0 2.708899 1_555
Sc2 Si3 2.749479 1_555
Sc2 Si5 2.749487 1_556
Sc2 Tc0 2.938502 1_555
Sc2 Tc1 2.938506 1_655
Sc2 Tc3 2.947322 1_555
Sc2 Tc5 2.947330 1_555
Sc2 Tc4 2.984088 1_554
Sc2 Tc2 2.984099 1_555
Sc3 Si4 2.703301 1_566
Sc3 Si2 2.703308 1_566
Sc3 Si5 2.740357 1_556
Sc3 Si3 2.740359 1_555
Sc3 Si1 2.746102 1_555
Sc3 Tc5 2.936575 1_555
Sc3 Tc3 2.936577 1_555
Sc3 Tc0 2.936720 1_556
Sc3 Tc1 2.936720 1_555
Sc3 Tc4 2.944503 1_565
Sc3 Tc2 2.944508 1_566
Sc4 Si0 2.751109 1_556
Sc4 Si3 2.760899 1_545
Sc4 Si5 2.760904 1_546
Sc4 Si2 2.761114 1_555
Sc4 Si4 2.761125 1_656
Sc4 Tc3 2.920157 1_656
Sc4 Tc5 2.920158 1_555
Sc4 Tc2 2.920417 1_556
Sc4 Tc4 2.920421 1_555
Sc4 Tc0 2.956444 1_545
Sc4 Tc1 2.956444 1_645
Ta0 Tc1 2.894016 1_544
Ta0 Tc0 2.894016 1_545
Ta0 Tc5 2.904250 1_555
Ta0 Tc3 2.904253 1_555
Ta0 Tc2 2.906173 1_455
Ta0 Tc4 2.906180 1_555
Si0 Tc4 2.470005 1_554
Si0 Tc2 2.470014 1_555
Si0 Tc5 2.470732 1_554
Si0 Tc3 2.470745 1_655
Si0 Tc0 2.503600 1_555
Si0 Tc1 2.503609 1_655
Si1 Tc2 2.440076 1_455
Si1 Tc4 2.440085 1_555
Si1 Tc5 2.440429 1_555
Si1 Tc3 2.440431 1_555
Si1 Tc1 2.453571 1_555
Si1 Tc0 2.453575 1_556
Si1 Ta0 2.720152 1_555
Si2 Tc0 2.589012 1_545
Si2 Tc5 2.590860 1_555
Si2 Tc2 2.643052 1_555
Si2 Ta0 2.657257 1_555
Si3 Tc0 2.587939 1_555
Si3 Tc4 2.588944 1_565
Si3 Tc3 2.644339 1_555
Si3 Ta0 2.658286 1_565
Si4 Tc1 2.589016 1_544
Si4 Tc3 2.590865 1_555
Si4 Tc4 2.643031 1_554
Si4 Ta0 2.657268 1_555
Si5 Tc1 2.587946 1_654
Si5 Tc2 2.588939 1_565
Si5 Tc5 2.644339 1_554
Si5 Ta0 2.658287 1_665
