# generated using pymatgen
data_Ta6V5AsN2
_symmetry_space_group_name_H-M   'P 1'
_cell_length_a   8.20411041
_cell_length_b   8.18894755
_cell_length_c   8.23490714
_cell_angle_alpha   90.00000000
_cell_angle_beta   59.87574686
_cell_angle_gamma   119.93887198
_symmetry_Int_Tables_number   1
_chemical_formula_structural   Ta6V5AsN2
_chemical_formula_sum   'Ta12 V10 As2 N4'
_cell_volume   390.82942499
_cell_formula_units_Z   2
loop_
 _symmetry_equiv_pos_site_id
 _symmetry_equiv_pos_as_xyz
  1  'x, y, z'
loop_
 _atom_site_type_symbol
 _atom_site_label
 _atom_site_symmetry_multiplicity
 _atom_site_fract_x
 _atom_site_fract_y
 _atom_site_fract_z
 _atom_site_occupancy
  Ta  Ta0  1  0.62774440  0.81387320  0.43612680  1
  Ta  Ta1  1  0.87173492  0.43586696  0.81413304  1
  Ta  Ta2  1  0.25071446  0.81267331  0.81496829  1
  Ta  Ta3  1  0.25071446  0.43804214  0.43431825  1
  Ta  Ta4  1  0.25071446  0.43804214  0.81496829  1
  Ta  Ta5  1  0.25071446  0.81267331  0.43431825  1
  Ta  Ta6  1  0.37225560  0.18612680  0.56387320  1
  Ta  Ta7  1  0.12826508  0.56413304  0.18586696  1
  Ta  Ta8  1  0.74928554  0.18732669  0.18503171  1
  Ta  Ta9  1  0.74928554  0.56195786  0.56568175  1
  Ta  Ta10  1  0.74928554  0.56195786  0.18503171  1
  Ta  Ta11  1  0.74928554  0.18732669  0.56568175  1
  V  V0  1  0.09628049  0.88286349  0.20185975  1
  V  V1  1  0.09628049  0.21341701  0.20185975  1
  V  V2  1  0.41721840  0.20860920  0.87695847  1
  V  V3  1  0.41721840  0.20860920  0.20582313  1
  V  V4  1  0.90371951  0.11713651  0.79814025  1
  V  V5  1  0.90371951  0.78658299  0.79814025  1
  V  V6  1  0.58278160  0.79139080  0.12304153  1
  V  V7  1  0.58278160  0.79139080  0.79417687  1
  V  V8  1  0.50000000  0.50000000  0.00000000  1
  V  V9  1  0.50000000  0.00000000  0.00000000  1
  As  As0  1  0.00000000  0.00000000  0.50000000  1
  As  As1  1  0.00000000  0.00000000  0.00000000  1
  N  N0  1  0.50000000  0.00000000  0.50000000  1
  N  N1  1  0.50000000  0.50000000  0.50000000  1
  N  N2  1  0.00000000  0.50000000  0.00000000  1
  N  N3  1  0.00000000  0.50000000  0.50000000  1
loop_
_geom_bond_atom_site_label_1
_geom_bond_atom_site_label_2
_geom_bond_distance
_geom_bond_site_symmetry_2
Ta0 V6 2.775620 1_555
Ta0 V7 2.775636 1_555
Ta0 V1 3.034059 1_665
Ta0 V0 3.034066 1_655
Ta1 V4 2.747288 1_555
Ta1 V5 2.747296 1_555
Ta1 V3 2.961856 1_556
Ta1 V2 2.961859 1_555
Ta1 V9 2.971996 1_556
Ta1 V8 2.972002 1_556
Ta2 V7 2.736295 1_555
Ta2 V5 2.820978 1_455
Ta2 V0 2.959971 1_556
Ta2 V9 2.975577 1_566
Ta2 V2 2.986334 1_565
Ta3 V6 2.736294 1_555
Ta3 V4 2.820978 1_455
Ta3 V1 2.959982 1_555
Ta3 V8 2.975585 1_555
Ta3 V3 2.986344 1_555
Ta4 V7 2.736290 1_555
Ta4 V4 2.820982 1_455
Ta4 V1 2.959975 1_556
Ta4 V8 2.975578 1_556
Ta4 V2 2.986341 1_555
Ta5 V6 2.736298 1_555
Ta5 V5 2.820974 1_455
Ta5 V0 2.959978 1_555
Ta5 V9 2.975584 1_565
Ta5 V3 2.986338 1_565
Ta6 V2 2.775620 1_555
Ta6 V3 2.775636 1_555
Ta6 V5 3.034059 1_445
Ta6 V4 3.034066 1_455
Ta7 V0 2.747288 1_555
Ta7 V1 2.747296 1_555
Ta7 V7 2.961856 1_554
Ta7 V6 2.961859 1_555
Ta7 V9 2.971996 1_565
Ta7 V8 2.972002 1_555
Ta8 V3 2.736295 1_555
Ta8 V1 2.820978 1_655
Ta8 V4 2.959971 1_554
Ta8 V9 2.975577 1_555
Ta8 V6 2.986334 1_545
Ta9 V2 2.736294 1_555
Ta9 V0 2.820978 1_655
Ta9 V5 2.959982 1_555
Ta9 V8 2.975585 1_556
Ta9 V7 2.986344 1_555
Ta10 V3 2.736290 1_555
Ta10 V0 2.820982 1_655
Ta10 V5 2.959975 1_554
Ta10 V8 2.975578 1_555
Ta10 V6 2.986341 1_555
Ta11 V2 2.736298 1_555
Ta11 V1 2.820974 1_655
Ta11 V4 2.959978 1_555
Ta11 V9 2.975584 1_556
Ta11 V7 2.986338 1_545
V0 V9 2.440502 1_565
V0 V2 2.669286 1_564
V0 V3 2.669286 1_565
V0 V1 2.706885 1_565
V1 V8 2.440502 1_555
V1 V2 2.669286 1_554
V1 V3 2.669286 1_555
V2 V9 2.500981 1_556
V2 V8 2.500981 1_556
V2 V3 2.708170 1_556
V3 V9 2.500981 1_555
V3 V8 2.500981 1_555
V4 V9 2.440502 1_556
V4 V6 2.669286 1_546
V4 V7 2.669286 1_545
V4 V5 2.706885 1_545
V5 V8 2.440502 1_556
V5 V6 2.669286 1_556
V5 V7 2.669286 1_555
V6 V9 2.500981 1_565
V6 V8 2.500981 1_555
V6 V7 2.708170 1_554
V7 V9 2.500981 1_566
V7 V8 2.500981 1_556
As0 V3 2.518620 1_555
As0 V7 2.518620 1_445
As0 V4 2.526170 1_455
As0 V0 2.526170 1_545
As0 V5 2.526170 1_445
As0 V1 2.526170 1_555
As0 Ta0 2.982114 1_445
As0 Ta6 2.982114 1_555
As0 Ta11 2.984840 1_455
As0 Ta5 2.984840 1_545
As0 Ta3 2.984847 1_555
As0 Ta9 2.984847 1_445
As1 V2 2.518620 1_554
As1 V6 2.518620 1_445
As1 V4 2.526170 1_454
As1 V0 2.526170 1_545
As1 V1 2.526170 1_555
As1 V5 2.526170 1_444
As1 Ta6 2.982102 1_554
As1 Ta0 2.982102 1_445
As1 Ta8 2.984839 1_455
As1 Ta2 2.984839 1_544
As1 Ta4 2.984846 1_554
As1 Ta10 2.984846 1_445
N0 Ta6 2.176988 1_555
N0 Ta0 2.176988 1_545
N0 Ta11 2.192552 1_555
N0 Ta5 2.192552 1_545
N0 Ta8 2.192558 1_555
N0 Ta2 2.192558 1_545
N1 Ta0 2.177004 1_555
N1 Ta6 2.177004 1_555
N1 Ta9 2.192554 1_555
N1 Ta3 2.192554 1_555
N1 Ta4 2.192560 1_555
N1 Ta10 2.192560 1_555
N2 Ta10 2.169268 1_455
N2 Ta4 2.169268 1_554
N2 Ta2 2.169274 1_554
N2 Ta8 2.169274 1_455
N2 Ta7 2.188823 1_555
N2 Ta1 2.188823 1_454
N3 Ta9 2.169270 1_455
N3 Ta3 2.169270 1_555
N3 Ta5 2.169276 1_555
N3 Ta11 2.169276 1_455
N3 Ta1 2.188831 1_455
N3 Ta7 2.188831 1_555
