# generated using pymatgen
data_Ta2VAsO10
_symmetry_space_group_name_H-M   'P 1'
_cell_length_a   5.53448539
_cell_length_b   11.75423335
_cell_length_c   6.91570395
_cell_angle_alpha   88.76108921
_cell_angle_beta   90.00000000
_cell_angle_gamma   90.00000000
_symmetry_Int_Tables_number   1
_chemical_formula_structural   Ta2VAsO10
_chemical_formula_sum   'Ta4 V2 As2 O20'
_cell_volume   449.78649385
_cell_formula_units_Z   2
loop_
 _symmetry_equiv_pos_site_id
 _symmetry_equiv_pos_as_xyz
  1  'x, y, z'
loop_
 _atom_site_type_symbol
 _atom_site_label
 _atom_site_symmetry_multiplicity
 _atom_site_fract_x
 _atom_site_fract_y
 _atom_site_fract_z
 _atom_site_occupancy
  Ta  Ta0  1  0.75000000  0.93636884  0.84695174  1
  Ta  Ta1  1  0.25000000  0.06363116  0.15304826  1
  Ta  Ta2  1  0.25000000  0.55318957  0.33309027  1
  Ta  Ta3  1  0.75000000  0.44681043  0.66690973  1
  V  V0  1  0.75000000  0.15909430  0.46559411  1
  V  V1  1  0.25000000  0.84090570  0.53440589  1
  As  As0  1  0.25000000  0.34964663  0.97646969  1
  As  As1  1  0.75000000  0.65035337  0.02353031  1
  O  O0  1  0.75000000  0.79364070  0.00444773  1
  O  O1  1  0.25000000  0.20635930  0.99555227  1
  O  O2  1  0.25000000  0.70375034  0.45224855  1
  O  O3  1  0.75000000  0.29624966  0.54775145  1
  O  O4  1  0.50025914  0.86300167  0.67073421  1
  O  O5  1  0.49974086  0.13699833  0.32926579  1
  O  O6  1  0.49836674  0.61026696  0.14012285  1
  O  O7  1  0.00025914  0.13699833  0.32926579  1
  O  O8  1  0.50163326  0.38973304  0.85987715  1
  O  O9  1  0.99974086  0.86300167  0.67073421  1
  O  O10  1  0.99836674  0.38973304  0.85987715  1
  O  O11  1  0.00163326  0.61026696  0.14012285  1
  O  O12  1  0.75000000  0.59675173  0.80000489  1
  O  O13  1  0.25000000  0.40324827  0.19999511  1
  O  O14  1  0.25000000  0.93358915  0.33695523  1
  O  O15  1  0.75000000  0.06641085  0.66304477  1
  O  O16  1  0.00000000  0.00000000  0.00000000  1
  O  O17  1  0.00000000  0.50000000  0.50000000  1
  O  O18  1  0.50000000  0.00000000  0.00000000  1
  O  O19  1  0.50000000  0.50000000  0.50000000  1
loop_
_geom_bond_atom_site_label_1
_geom_bond_atom_site_label_2
_geom_bond_distance
_geom_bond_site_symmetry_2
As0 O8 1.671897 1_555
As0 O10 1.671897 1_455
As0 O13 1.681869 1_556
As0 O1 1.686548 1_555
As1 O11 1.671897 1_655
As1 O6 1.671897 1_555
As1 O12 1.681869 1_554
As1 O0 1.686548 1_555
O0 Ta0 1.980372 1_554
O1 Ta1 1.980372 1_556
O2 V1 1.720895 1_555
O2 Ta2 1.968267 1_555
O3 V0 1.720895 1_555
O3 Ta3 1.968267 1_555
O4 V1 1.698619 1_555
O4 Ta0 2.045661 1_555
O5 V0 1.698619 1_555
O5 Ta1 2.045661 1_555
O6 Ta2 2.020340 1_555
O7 V0 1.698619 1_455
O7 Ta1 2.045661 1_555
O8 Ta3 2.020340 1_555
O9 V1 1.698619 1_655
O9 Ta0 2.045661 1_555
O10 Ta3 2.020340 1_555
O11 Ta2 2.020340 1_555
O12 Ta3 2.005888 1_555
O13 Ta2 2.005888 1_555
O14 V1 1.728332 1_555
O14 Ta1 1.967225 1_565
O15 V0 1.728332 1_555
O15 Ta0 1.967225 1_545
O16 Ta1 1.904819 1_555
O16 Ta0 1.904819 1_444
O17 Ta3 1.899074 1_455
O17 Ta2 1.899074 1_555
O18 Ta1 1.904819 1_555
O18 Ta0 1.904819 1_544
O19 Ta3 1.899074 1_555
O19 Ta2 1.899074 1_555
