# generated using pymatgen
data_BaAs12(RuRh)2
_symmetry_space_group_name_H-M   'P 1'
_cell_length_a   7.44277989
_cell_length_b   7.44432273
_cell_length_c   7.44432354
_cell_angle_alpha   109.46633888
_cell_angle_beta   109.47618132
_cell_angle_gamma   109.47954262
_symmetry_Int_Tables_number   1
_chemical_formula_structural   BaAs12(RuRh)2
_chemical_formula_sum   'Ba1 As12 Ru2 Rh2'
_cell_volume   317.48168580
_cell_formula_units_Z   1
loop_
 _symmetry_equiv_pos_site_id
 _symmetry_equiv_pos_as_xyz
  1  'x, y, z'
loop_
 _atom_site_type_symbol
 _atom_site_label
 _atom_site_symmetry_multiplicity
 _atom_site_fract_x
 _atom_site_fract_y
 _atom_site_fract_z
 _atom_site_occupancy
  Ba  Ba0  1  0.00000000  0.00000000  0.00000000  1
  As  As0  1  0.84904219  0.64641256  0.49873735  1
  As  As1  1  0.15095781  0.35358744  0.50126265  1
  As  As2  1  0.15095781  0.64969516  0.79737237  1
  As  As3  1  0.84904219  0.35030484  0.20262763  1
  As  As4  1  0.64617419  0.49873725  0.84873174  1
  As  As5  1  0.35382581  0.50126275  0.15126826  1
  As  As6  1  0.64617419  0.79744245  0.14743695  1
  As  As7  1  0.35382581  0.20255755  0.85256305  1
  As  As8  1  0.49917946  0.84946674  0.64971373  1
  As  As9  1  0.50082054  0.15053326  0.35028627  1
  As  As10  1  0.20493309  0.85169217  0.35324193  1
  As  As11  1  0.79506691  0.14830783  0.64675807  1
  Ru  Ru0  1  0.50000000  0.50000000  0.50000000  1
  Ru  Ru1  1  0.50000000  0.00000000  0.00000000  1
  Rh  Rh0  1  0.00000000  0.50000000  0.00000000  1
  Rh  Rh1  1  0.00000000  0.00000000  0.50000000  1
loop_
_geom_bond_atom_site_label_1
_geom_bond_atom_site_label_2
_geom_bond_distance
_geom_bond_site_symmetry_2
As0 Ru0 2.464047 1_555
As0 Rh1 2.488989 1_665
As0 As3 2.545493 1_555
As0 As2 2.566770 1_655
As0 Ba0 3.286443 1_666
As1 Ru0 2.464047 1_555
As1 Rh1 2.488989 1_555
As1 As2 2.545493 1_555
As1 As3 2.566770 1_455
As1 Ba0 3.286443 1_555
As2 Ru1 2.464048 1_566
As2 Rh0 2.488975 1_556
As2 Ba0 3.286438 1_566
As3 Ru1 2.464048 1_555
As3 Rh0 2.488975 1_655
As3 Ba0 3.286438 1_655
As4 Ru0 2.462317 1_555
As4 Rh0 2.490414 1_656
As4 As7 2.545648 1_555
As4 As6 2.567814 1_556
As4 Ba0 3.285658 1_666
As5 Ru0 2.462317 1_555
As5 Rh0 2.490414 1_555
As5 As6 2.545648 1_555
As5 As7 2.567814 1_554
As5 Ba0 3.285658 1_555
As6 Ru1 2.462317 1_565
As6 Rh1 2.490415 1_665
As6 Ba0 3.285658 1_665
As7 Ru1 2.462317 1_556
As7 Rh1 2.490415 1_555
As7 Ba0 3.285658 1_556
As8 Ru1 2.468360 1_566
As8 Ru0 2.468367 1_555
As8 Ba0 3.276389 1_666
As9 Ru1 2.468360 1_555
As9 Ru0 2.468367 1_555
As9 Ba0 3.276389 1_555
As10 Rh1 2.483816 1_565
As10 Rh0 2.483824 1_555
As10 As8 2.548119 1_555
As10 As9 2.568439 1_565
As10 Ba0 3.293020 1_565
As11 Rh1 2.483816 1_655
As11 Rh0 2.483824 1_656
As11 As9 2.548119 1_555
As11 As8 2.568439 1_545
As11 Ba0 3.293020 1_656
