# generated using pymatgen
data_Tc5P2W
_symmetry_space_group_name_H-M   'P 1'
_cell_length_a   7.13313170
_cell_length_b   7.16519384
_cell_length_c   7.16519304
_cell_angle_alpha   97.00621724
_cell_angle_beta   96.43038616
_cell_angle_gamma   140.35151173
_symmetry_Int_Tables_number   1
_chemical_formula_structural   Tc5P2W
_chemical_formula_sum   'Tc10 P4 W2'
_cell_volume   219.32642928
_cell_formula_units_Z   2
loop_
 _symmetry_equiv_pos_site_id
 _symmetry_equiv_pos_as_xyz
  1  'x, y, z'
loop_
 _atom_site_type_symbol
 _atom_site_label
 _atom_site_symmetry_multiplicity
 _atom_site_fract_x
 _atom_site_fract_y
 _atom_site_fract_z
 _atom_site_occupancy
  Tc  Tc0  1  0.90557792  0.90487222  0.41203654  1
  Tc  Tc1  1  0.09442208  0.50645962  0.99929530  1
  Tc  Tc2  1  0.49623585  0.08836055  0.99969051  1
  Tc  Tc3  1  0.50376415  0.50345367  0.59212471  1
  Tc  Tc4  1  0.00000000  0.34647914  0.34647914  1
  Tc  Tc5  1  0.64512887  0.99694626  0.65396816  1
  Tc  Tc6  1  0.35487113  0.00883929  0.35181740  1
  Tc  Tc7  1  1.00000000  0.65004701  0.65004701  1
  Tc  Tc8  1  0.11069440  0.10917232  0.80802957  1
  Tc  Tc9  1  0.88930560  0.69733617  0.99847792  1
  P  P0  1  0.50000000  0.20930899  0.70930899  1
  P  P1  1  0.80503476  0.50732461  0.29070500  1
  P  P2  1  0.19496524  0.48567024  0.70228885  1
  P  P3  1  0.50000000  0.79704678  0.29704678  1
  W  W0  1  0.69302539  0.88555510  0.99615444  1
  W  W1  1  0.30697461  0.30312904  0.19252970  1
loop_
_geom_bond_atom_site_label_1
_geom_bond_atom_site_label_2
_geom_bond_distance
_geom_bond_site_symmetry_2
Tc0 W1 2.790434 1_555
Tc0 W1 2.887257 1_665
Tc1 W0 2.790438 1_555
Tc1 W0 2.887261 1_445
Tc2 W0 2.687543 1_545
Tc3 W1 2.687543 1_555
Tc4 W0 2.759136 1_444
Tc4 W1 2.759136 1_555
Tc5 W0 2.734028 1_555
Tc6 W1 2.734029 1_555
Tc8 W1 2.585990 1_556
Tc8 W0 2.708451 1_445
Tc9 W0 2.585983 1_555
Tc9 W1 2.708446 1_666
P0 Tc3 2.344641 1_555
P0 Tc2 2.344647 1_555
P0 Tc6 2.432026 1_555
P0 Tc5 2.432027 1_545
P0 Tc7 2.489024 1_555
P0 Tc7 2.489024 1_445
P0 Tc8 2.494434 1_555
P0 Tc9 2.494437 1_555
P1 Tc2 2.339438 1_554
P1 Tc0 2.344008 1_555
P1 Tc4 2.424477 1_655
P1 Tc7 2.444326 1_555
P1 Tc6 2.452555 1_665
P1 Tc6 2.508930 1_555
P1 Tc9 2.513222 1_554
P1 W1 2.538083 1_555
P2 Tc3 2.339440 1_555
P2 Tc1 2.344023 1_555
P2 Tc4 2.424470 1_555
P2 Tc7 2.444325 1_455
P2 Tc5 2.452557 1_445
P2 Tc5 2.508926 1_555
P2 Tc8 2.513222 1_555
P2 W0 2.538087 1_555
P3 Tc1 2.348237 1_554
P3 Tc0 2.348241 1_555
P3 Tc5 2.427665 1_555
P3 Tc6 2.427666 1_565
P3 Tc4 2.469598 1_555
P3 Tc4 2.469598 1_665
P3 W0 2.569027 1_554
P3 W1 2.569028 1_555
