# generated using pymatgen
data_TaSb3(Se4O13)2
_symmetry_space_group_name_H-M   'P 1'
_cell_length_a   6.71697640
_cell_length_b   7.35482221
_cell_length_c   11.33641530
_cell_angle_alpha   71.61644600
_cell_angle_beta   91.83458266
_cell_angle_gamma   90.22364486
_symmetry_Int_Tables_number   1
_chemical_formula_structural   TaSb3(Se4O13)2
_chemical_formula_sum   'Ta1 Sb3 Se8 O26'
_cell_volume   531.17880567
_cell_formula_units_Z   1
loop_
 _symmetry_equiv_pos_site_id
 _symmetry_equiv_pos_as_xyz
  1  'x, y, z'
loop_
 _atom_site_type_symbol
 _atom_site_label
 _atom_site_symmetry_multiplicity
 _atom_site_fract_x
 _atom_site_fract_y
 _atom_site_fract_z
 _atom_site_occupancy
  Ta  Ta0  1  0.99525499  0.34597334  0.05112916  1
  Sb  Sb0  1  0.50585933  0.91804730  0.39748712  1
  Sb  Sb1  1  0.50247812  0.41730600  0.39450827  1
  Sb  Sb2  1  0.99080653  0.84653426  0.04778360  1
  Se  Se0  1  0.52352658  0.89456397  0.71766597  1
  Se  Se1  1  0.49138848  0.40635130  0.69453506  1
  Se  Se2  1  0.07262450  0.05498085  0.73483107  1
  Se  Se3  1  0.93705821  0.55938008  0.71829475  1
  Se  Se4  1  0.05844981  0.67554583  0.38261820  1
  Se  Se5  1  0.94738019  0.17132677  0.39064785  1
  Se  Se6  1  0.54731673  0.59307630  0.05599410  1
  Se  Se7  1  0.44285156  0.08669698  0.06331557  1
  O  O0  1  0.11374251  0.50860634  0.63631910  1
  O  O1  1  0.91718915  0.01940392  0.63018947  1
  O  O2  1  0.58366292  0.68090635  0.81343501  1
  O  O3  1  0.43033966  0.22206889  0.81191989  1
  O  O4  1  0.25603787  0.87017350  0.73832144  1
  O  O5  1  0.76497855  0.37411429  0.70720839  1
  O  O6  1  0.58774443  0.65461136  0.42078209  1
  O  O7  1  0.41595236  0.17660895  0.37492488  1
  O  O8  1  0.51922559  0.83366946  0.58092120  1
  O  O9  1  0.46535384  0.29410966  0.57591569  1
  O  O10  1  0.21530876  0.85618485  0.39589202  1
  O  O11  1  0.79289531  0.34857034  0.40847612  1
  O  O12  1  0.97112323  0.25075699  0.23473641  1
  O  O13  1  0.97588155  0.77338335  0.23259561  1
  O  O14  1  0.28299331  0.26156904  0.07559300  1
  O  O15  1  0.69923347  0.78701430  0.04208852  1
  O  O16  1  0.28237391  0.91545622  0.03900328  1
  O  O17  1  0.70535980  0.41571365  0.04477384  1
  O  O18  1  0.01888834  0.44020759  0.86954819  1
  O  O19  1  0.95545610  0.90773134  0.86492308  1
  O  O20  1  0.91570010  0.10033650  0.04028511  1
  O  O21  1  0.07381233  0.59194384  0.06216342  1
  O  O22  1  0.51780038  0.97396086  0.21396790  1
  O  O23  1  0.51538415  0.52961707  0.21204376  1
  O  O24  1  0.21240657  0.49422342  0.37273790  1
  O  O25  1  0.79616177  0.97667596  0.40042995  1
loop_
_geom_bond_atom_site_label_1
_geom_bond_atom_site_label_2
_geom_bond_distance
_geom_bond_site_symmetry_2
O0 Se3 1.644535 1_455
O1 Se2 1.637097 1_655
O2 Se0 1.646809 1_555
O3 Se1 1.633693 1_555
O4 Se0 1.820199 1_555
O4 Se2 1.828352 1_565
O5 Se3 1.815182 1_555
O5 Se1 1.849054 1_555
O6 Sb1 1.942194 1_555
O6 Sb0 1.950012 1_555
O7 Sb0 1.933588 1_545
O7 Sb1 1.937157 1_555
O8 Se0 1.743411 1_555
O8 Sb0 1.972800 1_555
O9 Se1 1.790066 1_555
O9 Sb1 1.992021 1_555
O10 Se4 1.732878 1_555
O10 Sb0 2.003039 1_555
O11 Se5 1.734111 1_555
O11 Sb1 2.005842 1_555
O12 Se5 1.690186 1_555
O12 Ta0 1.987568 1_555
O13 Se4 1.699598 1_655
O13 Sb2 1.997754 1_555
O14 Se7 1.720404 1_555
O14 Ta0 2.015982 1_455
O15 Se6 1.719819 1_555
O15 Sb2 2.008611 1_555
O16 Se7 1.735919 1_565
O16 Sb2 2.018738 1_455
O17 Se6 1.723041 1_555
O17 Ta0 2.008844 1_555
O18 Se3 1.733757 1_455
O18 Ta0 1.965468 1_456
O19 Se2 1.739965 1_665
O19 Sb2 1.984194 1_556
O20 Sb2 1.910683 1_545
O20 Ta0 1.921682 1_555
O21 Sb2 1.911378 1_455
O21 Ta0 1.922985 1_455
O22 Se7 1.706671 1_565
O22 Sb0 1.993641 1_555
O23 Se6 1.701787 1_555
O23 Sb1 1.975272 1_555
O24 Se4 1.724190 1_555
O24 Sb1 2.016673 1_555
O25 Se5 1.728951 1_565
O25 Sb0 1.996927 1_555
