# generated using pymatgen
data_NdNbO4
_symmetry_space_group_name_H-M   'P 1'
_cell_length_a   5.20644903
_cell_length_b   5.48057156
_cell_length_c   6.75161657
_cell_angle_alpha   112.28589230
_cell_angle_beta   110.94826842
_cell_angle_gamma   93.96227435
_symmetry_Int_Tables_number   1
_chemical_formula_structural   NdNbO4
_chemical_formula_sum   'Nd2 Nb2 O8'
_cell_volume   161.74223753
_cell_formula_units_Z   2
loop_
 _symmetry_equiv_pos_site_id
 _symmetry_equiv_pos_as_xyz
  1  'x, y, z'
loop_
 _atom_site_type_symbol
 _atom_site_label
 _atom_site_symmetry_multiplicity
 _atom_site_fract_x
 _atom_site_fract_y
 _atom_site_fract_z
 _atom_site_occupancy
  Nd  Nd0  1  0.12110486  0.37110486  0.74220971  1
  Nd  Nd1  1  0.87889514  0.62889514  0.25779029  1
  Nb  Nb0  1  0.64364245  0.89364245  0.78728391  1
  Nb  Nb1  1  0.35635755  0.10635755  0.21271609  1
  O  O0  1  0.78573659  0.94541502  0.58365349  1
  O  O1  1  0.29791689  0.63823847  0.58365349  1
  O  O2  1  0.21426341  0.05458498  0.41634651  1
  O  O3  1  0.70208311  0.36176153  0.41634651  1
  O  O4  1  0.08280178  0.27481955  0.06452253  1
  O  O5  1  0.48172175  0.78970398  0.06452253  1
  O  O6  1  0.91719822  0.72518045  0.93547747  1
  O  O7  1  0.51827825  0.21029602  0.93547747  1
loop_
_geom_bond_atom_site_label_1
_geom_bond_atom_site_label_2
_geom_bond_distance
_geom_bond_site_symmetry_2
Nd0 O1 2.417431 1_555
Nd0 O0 2.417431 1_445
Nd0 O6 2.439295 1_455
Nd0 O7 2.439295 1_555
Nd0 O2 2.463646 1_555
Nd0 O3 2.463647 1_455
Nd0 O4 2.494098 1_556
Nd0 O5 2.494103 1_556
Nd1 O3 2.417431 1_555
Nd1 O2 2.417431 1_665
Nd1 O4 2.439295 1_655
Nd1 O5 2.439295 1_555
Nd1 O0 2.463646 1_555
Nd1 O1 2.463647 1_655
Nd1 O6 2.494098 1_554
Nd1 O7 2.494103 1_554
Nb0 O0 1.874071 1_555
Nb0 O1 1.874077 1_555
Nb0 O7 1.935306 1_565
Nb0 O6 1.935308 1_555
Nb0 O5 2.531710 1_556
Nb0 O4 2.531710 1_666
Nb1 O2 1.874071 1_555
Nb1 O3 1.874077 1_555
Nb1 O5 1.935306 1_545
Nb1 O4 1.935308 1_555
Nb1 O7 2.531710 1_554
Nb1 O6 2.531710 1_444
