# generated using pymatgen
data_Y12AlInSi4
_symmetry_space_group_name_H-M   'P 1'
_cell_length_a   8.52218701
_cell_length_b   8.52218772
_cell_length_c   8.52218782
_cell_angle_alpha   112.11781203
_cell_angle_beta   111.02167381
_cell_angle_gamma   105.35308473
_symmetry_Int_Tables_number   1
_chemical_formula_structural   Y12AlInSi4
_chemical_formula_sum   'Y12 Al1 In1 Si4'
_cell_volume   474.58969377
_cell_formula_units_Z   1
loop_
 _symmetry_equiv_pos_site_id
 _symmetry_equiv_pos_as_xyz
  1  'x, y, z'
loop_
 _atom_site_type_symbol
 _atom_site_label
 _atom_site_symmetry_multiplicity
 _atom_site_fract_x
 _atom_site_fract_y
 _atom_site_fract_z
 _atom_site_occupancy
  Y  Y0  1  0.43507890  0.23632591  0.19875299  1
  Y  Y1  1  0.56492110  0.76367409  0.80124701  1
  Y  Y2  1  0.03757292  0.23632591  0.80124701  1
  Y  Y3  1  0.96242708  0.76367409  0.19875299  1
  Y  Y4  1  0.18048466  0.27192079  0.45240445  1
  Y  Y5  1  0.81951534  0.72807921  0.54759555  1
  Y  Y6  1  0.18048466  0.72807921  0.90856488  1
  Y  Y7  1  0.81951534  0.27192079  0.09143512  1
  Y  Y8  1  0.32021152  0.61897918  0.29876866  1
  Y  Y9  1  0.67978848  0.38102082  0.70123134  1
  Y  Y10  1  0.32021152  0.02144286  0.70123134  1
  Y  Y11  1  0.67978848  0.97855714  0.29876866  1
  Al  Al0  1  0.00000000  0.00000000  0.00000000  1
  In  In0  1  0.50000000  0.50000000  0.00000000  1
  Si  Si0  1  0.36837985  0.00000000  0.36837985  1
  Si  Si1  1  0.63162015  1.00000000  0.63162015  1
  Si  Si2  1  0.11544868  0.61544868  0.50000000  1
  Si  Si3  1  0.88455132  0.38455132  0.50000000  1
loop_
_geom_bond_atom_site_label_1
_geom_bond_atom_site_label_2
_geom_bond_distance
_geom_bond_site_symmetry_2
Al0 Y0 3.105516 1_555
Al0 Y1 3.105516 1_444
Al0 Y3 3.105517 1_445
Al0 Y2 3.105517 1_554
Al0 Y4 3.119411 1_555
Al0 Y5 3.119411 1_444
Al0 Y7 3.119416 1_455
Al0 Y6 3.119416 1_544
In0 Y3 3.332353 1_555
In0 Y2 3.332353 1_554
In0 Y0 3.332353 1_555
In0 Y1 3.332353 1_554
In0 Y8 3.396490 1_555
In0 Y9 3.396490 1_554
In0 Y11 3.396491 1_555
In0 Y10 3.396491 1_554
In0 Y7 3.771047 1_555
In0 Y6 3.771047 1_554
In0 Y5 3.771055 1_555
In0 Y4 3.771055 1_554
Si0 Si1 2.540633 1_545
Si0 Y3 2.940202 1_445
Si0 Y0 2.940202 1_555
Si0 Y11 2.955186 1_545
Si0 Y10 2.955187 1_555
Si0 Y9 2.955191 1_555
Si0 Y8 2.955195 1_545
Si0 Y6 3.159906 1_544
Si0 Y4 3.159912 1_555
Si1 Y2 2.940202 1_665
Si1 Y1 2.940202 1_555
Si1 Y10 2.955186 1_565
Si1 Y11 2.955187 1_555
Si1 Y8 2.955191 1_555
Si1 Y9 2.955195 1_565
Si1 Y7 3.159906 1_566
Si1 Y5 3.159912 1_555
Si2 Si3 2.386150 1_455
Si2 Y8 2.853960 1_555
Si2 Y10 2.853960 1_565
Si2 Y4 3.028024 1_555
Si2 Y5 3.028027 1_455
Si2 Y7 3.028029 1_455
Si2 Y6 3.028033 1_555
Si2 Y1 3.286285 1_555
Si2 Y3 3.286285 1_455
Si3 Y9 2.853960 1_555
Si3 Y11 2.853960 1_545
Si3 Y5 3.028024 1_555
Si3 Y4 3.028027 1_655
Si3 Y6 3.028029 1_655
Si3 Y7 3.028033 1_555
Si3 Y0 3.286285 1_555
Si3 Y2 3.286285 1_655
