# generated using pymatgen
data_AlGa2(Ni10B3)2
_symmetry_space_group_name_H-M   'P 1'
_cell_length_a   7.34957073
_cell_length_b   7.34957104
_cell_length_c   7.34957010
_cell_angle_alpha   60.00000422
_cell_angle_beta   60.00000282
_cell_angle_gamma   60.00000329
_symmetry_Int_Tables_number   1
_chemical_formula_structural   AlGa2(Ni10B3)2
_chemical_formula_sum   'Al1 Ga2 Ni20 B6'
_cell_volume   280.71843817
_cell_formula_units_Z   1
loop_
 _symmetry_equiv_pos_site_id
 _symmetry_equiv_pos_as_xyz
  1  'x, y, z'
loop_
 _atom_site_type_symbol
 _atom_site_label
 _atom_site_symmetry_multiplicity
 _atom_site_fract_x
 _atom_site_fract_y
 _atom_site_fract_z
 _atom_site_occupancy
  Al  Al0  1  0.00000000  0.00000000  0.00000000  1
  Ga  Ga0  1  0.75000000  0.75000000  0.75000000  1
  Ga  Ga1  1  0.25000000  0.25000000  0.25000000  1
  Ni  Ni0  1  1.00000000  0.33740814  0.66259186  1
  Ni  Ni1  1  0.00000000  0.00000000  0.66259186  1
  Ni  Ni2  1  0.66259186  0.33740814  1.00000000  1
  Ni  Ni3  1  1.00000000  0.33740814  1.00000000  1
  Ni  Ni4  1  0.33740814  0.00000000  0.66259186  1
  Ni  Ni5  1  0.33740814  0.00000000  1.00000000  1
  Ni  Ni6  1  0.66259186  0.00000000  0.00000000  1
  Ni  Ni7  1  0.33740814  0.66259186  0.00000000  1
  Ni  Ni8  1  0.66259186  0.00000000  0.33740814  1
  Ni  Ni9  1  0.00000000  0.00000000  0.33740814  1
  Ni  Ni10  1  0.00000000  0.66259186  0.00000000  1
  Ni  Ni11  1  0.00000000  0.66259186  0.33740814  1
  Ni  Ni12  1  0.61773382  0.14679653  0.61773382  1
  Ni  Ni13  1  0.38226618  0.38226618  0.85320347  1
  Ni  Ni14  1  0.85320347  0.38226618  0.38226618  1
  Ni  Ni15  1  0.38226618  0.38226618  0.38226618  1
  Ni  Ni16  1  0.14679653  0.61773382  0.61773382  1
  Ni  Ni17  1  0.61773382  0.61773382  0.61773382  1
  Ni  Ni18  1  0.61773382  0.61773382  0.14679653  1
  Ni  Ni19  1  0.38226618  0.85320347  0.38226618  1
  B  B0  1  0.72561239  0.27438761  0.72561239  1
  B  B1  1  0.72561239  0.27438761  0.27438761  1
  B  B2  1  0.27438761  0.72561239  0.72561239  1
  B  B3  1  0.27438761  0.27438761  0.72561239  1
  B  B4  1  0.72561239  0.72561239  0.27438761  1
  B  B5  1  0.27438761  0.72561239  0.27438761  1
loop_
_geom_bond_atom_site_label_1
_geom_bond_atom_site_label_2
_geom_bond_distance
_geom_bond_site_symmetry_2
Al0 Ni9 2.479805 1_555
Al0 Ni1 2.479805 1_554
Al0 Ni8 2.479805 1_455
Al0 Ni5 2.479805 1_554
Al0 Ni6 2.479805 1_455
Al0 Ni4 2.479805 1_554
Al0 Ni3 2.479805 1_454
Al0 Ni11 2.479805 1_545
Al0 Ni0 2.479805 1_454
Al0 Ni10 2.479805 1_545
Al0 Ni2 2.479805 1_454
Al0 Ni7 2.479805 1_545
Ga0 Ni18 2.381136 1_556
Ga0 Ni16 2.381136 1_655
Ga0 Ni12 2.381136 1_565
Ga0 Ni17 2.381148 1_555
Ga0 Ni10 2.860070 1_656
Ga0 Ni11 2.860070 1_655
Ga0 Ni6 2.860070 1_566
Ga0 Ni8 2.860070 1_565
Ga0 Ni5 2.860070 1_565
Ga0 Ni4 2.860070 1_565
Ga0 Ni1 2.860070 1_665
Ga0 Ni9 2.860070 1_665
Ga0 Ni7 2.860070 1_556
Ga0 Ni3 2.860070 1_555
Ga0 Ni0 2.860070 1_555
Ga0 Ni2 2.860070 1_555
Ga1 Ni13 2.381136 1_554
Ga1 Ni14 2.381136 1_455
Ga1 Ni19 2.381136 1_545
Ga1 Ni15 2.381148 1_555
Ga1 Ni0 2.860070 1_455
Ga1 Ni3 2.860070 1_454
Ga1 Ni4 2.860070 1_555
Ga1 Ni5 2.860070 1_554
Ga1 Ni8 2.860070 1_555
Ga1 Ni6 2.860070 1_555
Ga1 Ni1 2.860070 1_555
Ga1 Ni9 2.860070 1_555
Ga1 Ni2 2.860070 1_554
Ga1 Ni11 2.860070 1_555
Ga1 Ni10 2.860070 1_555
Ga1 Ni7 2.860070 1_555
Ni0 Ni11 2.389961 1_655
Ni0 Ni3 2.479805 1_555
Ni0 Ni2 2.479805 1_555
Ni0 Ni1 2.479805 1_655
Ni0 Ni4 2.479805 1_655
Ni0 Ni14 2.589458 1_555
Ni0 Ni16 2.589459 1_655
Ni0 Ni15 2.589470 1_655
Ni0 Ni17 2.589470 1_555
Ni1 Ni9 2.389960 1_555
Ni1 Ni6 2.479805 1_456
Ni1 Ni4 2.479805 1_555
Ni1 Ni10 2.479805 1_546
Ni1 Ni19 2.589466 1_545
Ni1 Ni14 2.589466 1_455
Ni1 Ni12 2.589472 1_455
Ni1 Ni16 2.589473 1_545
Ni2 Ni7 2.389961 1_556
Ni2 Ni3 2.479805 1_555
Ni2 Ni8 2.479805 1_556
Ni2 Ni6 2.479805 1_556
Ni3 Ni9 2.479805 1_656
Ni3 Ni5 2.479805 1_655
Ni4 Ni8 2.389961 1_555
Ni4 Ni5 2.479805 1_555
Ni4 Ni7 2.479805 1_546
Ni5 Ni6 2.389961 1_556
Ni5 Ni9 2.479805 1_556
Ni5 Ni7 2.479805 1_546
Ni6 Ni8 2.479805 1_555
Ni8 Ni9 2.479805 1_655
Ni10 Ni3 2.389961 1_454
Ni10 Ni11 2.479805 1_555
Ni10 Ni7 2.479805 1_555
Ni10 Ni6 2.479805 1_465
Ni10 Ni14 2.589466 1_455
Ni10 Ni13 2.589466 1_554
Ni10 Ni16 2.589472 1_554
Ni10 Ni18 2.589472 1_455
Ni11 Ni7 2.479805 1_555
Ni11 Ni9 2.479805 1_565
Ni11 Ni8 2.479805 1_465
Ni11 Ni16 2.589458 1_555
Ni11 Ni14 2.589459 1_455
Ni11 Ni17 2.589470 1_455
Ni11 Ni15 2.589470 1_555
Ni12 Ni8 2.589458 1_555
Ni12 Ni4 2.589459 1_555
Ni12 Ni5 2.589466 1_555
Ni12 Ni9 2.589466 1_655
Ni12 Ni6 2.589472 1_556
Ni13 Ni2 2.589458 1_555
Ni13 Ni7 2.589459 1_556
Ni13 Ni6 2.589466 1_556
Ni13 Ni3 2.589472 1_455
Ni13 Ni5 2.589473 1_555
Ni14 Ni3 2.589472 1_554
Ni14 Ni9 2.589473 1_655
Ni15 Ni2 2.589470 1_554
Ni15 Ni7 2.589470 1_555
Ni15 Ni8 2.589470 1_555
Ni15 Ni4 2.589470 1_555
Ni16 Ni3 2.589466 1_455
Ni16 Ni9 2.589466 1_565
Ni17 Ni7 2.589470 1_556
Ni17 Ni2 2.589470 1_555
Ni17 Ni4 2.589470 1_565
Ni17 Ni8 2.589470 1_565
Ni18 Ni7 2.589458 1_555
Ni18 Ni2 2.589459 1_554
Ni18 Ni3 2.589466 1_554
Ni18 Ni5 2.589466 1_564
Ni18 Ni6 2.589473 1_565
Ni19 Ni4 2.589458 1_565
Ni19 Ni8 2.589459 1_565
Ni19 Ni6 2.589466 1_565
Ni19 Ni5 2.589472 1_564
Ni19 Ni9 2.589472 1_565
B0 Ni17 2.062083 1_555
B0 Ni14 2.062083 1_555
B0 Ni13 2.062084 1_555
B0 Ni12 2.062095 1_555
B0 Ni2 2.069138 1_555
B0 Ni0 2.069138 1_555
B0 Ni6 2.069138 1_556
B0 Ni1 2.069138 1_655
B1 Ni15 2.062083 1_555
B1 Ni12 2.062083 1_555
B1 Ni18 2.062084 1_555
B1 Ni14 2.062095 1_555
B1 Ni2 2.069138 1_554
B1 Ni3 2.069138 1_554
B1 Ni8 2.069138 1_555
B1 Ni9 2.069138 1_655
B2 Ni17 2.062083 1_555
B2 Ni19 2.062083 1_555
B2 Ni13 2.062084 1_555
B2 Ni16 2.062095 1_555
B2 Ni7 2.069138 1_556
B2 Ni10 2.069138 1_556
B2 Ni4 2.069138 1_565
B2 Ni1 2.069138 1_565
B3 Ni15 2.062083 1_555
B3 Ni12 2.062084 1_555
B3 Ni16 2.062084 1_555
B3 Ni13 2.062095 1_555
B3 Ni3 2.069138 1_455
B3 Ni0 2.069138 1_455
B3 Ni5 2.069138 1_555
B3 Ni4 2.069138 1_555
B4 Ni17 2.062083 1_555
B4 Ni19 2.062084 1_555
B4 Ni14 2.062084 1_555
B4 Ni18 2.062095 1_555
B4 Ni10 2.069138 1_655
B4 Ni11 2.069138 1_655
B4 Ni6 2.069138 1_565
B4 Ni8 2.069138 1_565
B5 Ni15 2.062083 1_555
B5 Ni16 2.062083 1_555
B5 Ni18 2.062084 1_555
B5 Ni19 2.062095 1_555
B5 Ni7 2.069138 1_555
B5 Ni11 2.069138 1_555
B5 Ni5 2.069138 1_564
B5 Ni9 2.069138 1_565
