# generated using pymatgen
data_Ti16Pd3Rh5O4
_symmetry_space_group_name_H-M   'P 1'
_cell_length_a   8.20675381
_cell_length_b   8.20675259
_cell_length_c   8.20675319
_cell_angle_alpha   60.07333081
_cell_angle_beta   60.07332570
_cell_angle_gamma   60.07332866
_symmetry_Int_Tables_number   1
_chemical_formula_structural   Ti16Pd3Rh5O4
_chemical_formula_sum   'Ti16 Pd3 Rh5 O4'
_cell_volume   391.48959017
_cell_formula_units_Z   1
loop_
 _symmetry_equiv_pos_site_id
 _symmetry_equiv_pos_as_xyz
  1  'x, y, z'
loop_
 _atom_site_type_symbol
 _atom_site_label
 _atom_site_symmetry_multiplicity
 _atom_site_fract_x
 _atom_site_fract_y
 _atom_site_fract_z
 _atom_site_occupancy
  Ti  Ti0  1  0.11744213  0.62602585  0.62602585  1
  Ti  Ti1  1  0.62602585  0.11744213  0.62602585  1
  Ti  Ti2  1  0.62602585  0.62602585  0.11744213  1
  Ti  Ti3  1  0.62964960  0.62964960  0.62964960  1
  Ti  Ti4  1  0.81910878  0.81910878  0.18052165  1
  Ti  Ti5  1  0.18134659  0.18134659  0.81858442  1
  Ti  Ti6  1  0.81910878  0.18052165  0.81910878  1
  Ti  Ti7  1  0.18134659  0.81858442  0.18134659  1
  Ti  Ti8  1  0.18052165  0.81910878  0.81910878  1
  Ti  Ti9  1  0.81858442  0.18134659  0.18134659  1
  Ti  Ti10  1  0.43232872  0.43232872  0.07076347  1
  Ti  Ti11  1  0.06735693  0.06735693  0.43265023  1
  Ti  Ti12  1  0.43232872  0.07076347  0.43232872  1
  Ti  Ti13  1  0.06735693  0.43265023  0.06735693  1
  Ti  Ti14  1  0.07076347  0.43232872  0.43232872  1
  Ti  Ti15  1  0.43265023  0.06735693  0.06735693  1
  Pd  Pd0  1  0.76843577  0.41106567  0.41106567  1
  Pd  Pd1  1  0.41106567  0.76843577  0.41106567  1
  Pd  Pd2  1  0.41106567  0.41106567  0.76843577  1
  Rh  Rh0  1  0.40699816  0.40699816  0.40699816  1
  Rh  Rh1  1  0.46976590  0.84428025  0.84428025  1
  Rh  Rh2  1  0.84428025  0.46976590  0.84428025  1
  Rh  Rh3  1  0.84428025  0.84428025  0.46976590  1
  Rh  Rh4  1  0.84273434  0.84273434  0.84273434  1
  O  O0  1  0.62443586  0.12492272  0.12492272  1
  O  O1  1  0.12492272  0.62443586  0.12492272  1
  O  O2  1  0.12492272  0.12492272  0.62443586  1
  O  O3  1  0.12514143  0.12514143  0.12514143  1
loop_
_geom_bond_atom_site_label_1
_geom_bond_atom_site_label_2
_geom_bond_distance
_geom_bond_site_symmetry_2
Pd0 Ti1 2.606900 1_555
Pd0 Ti2 2.606900 1_555
Pd0 Ti3 2.620437 1_555
Pd0 Ti13 2.652659 1_655
Pd0 Ti11 2.652659 1_655
Pd0 Ti14 2.666699 1_655
Pd1 Ti2 2.606900 1_555
Pd1 Ti0 2.606900 1_555
Pd1 Ti3 2.620438 1_555
Pd1 Ti15 2.652659 1_565
Pd1 Ti11 2.652660 1_565
Pd1 Ti12 2.666698 1_565
Pd2 Ti1 2.606900 1_555
Pd2 Ti0 2.606900 1_555
Pd2 Ti3 2.620438 1_555
Pd2 Ti15 2.652659 1_556
Pd2 Ti13 2.652659 1_556
Pd2 Ti10 2.666698 1_556
Rh0 Ti12 2.568871 1_555
Rh0 Ti10 2.568871 1_555
Rh0 Ti14 2.568871 1_555
Rh0 Ti0 2.609378 1_555
Rh0 Ti2 2.609378 1_555
Rh0 Ti1 2.609379 1_555
Rh1 Ti3 2.531885 1_555
Rh1 Ti1 2.539374 1_565
Rh1 Ti2 2.539374 1_556
Rh1 Ti7 2.584952 1_556
Rh1 Ti5 2.584952 1_565
Rh1 Ti8 2.596381 1_555
Rh2 Ti3 2.531885 1_555
Rh2 Ti2 2.539374 1_556
Rh2 Ti0 2.539374 1_655
Rh2 Ti9 2.584952 1_556
Rh2 Ti5 2.584952 1_655
Rh2 Ti6 2.596380 1_555
Rh3 Ti3 2.531885 1_555
Rh3 Ti1 2.539374 1_565
Rh3 Ti0 2.539374 1_655
Rh3 Ti9 2.584952 1_565
Rh3 Ti7 2.584952 1_655
Rh3 Ti4 2.596381 1_555
Rh4 Ti0 2.561887 1_655
Rh4 Ti2 2.561887 1_556
Rh4 Ti1 2.561887 1_565
Rh4 Ti6 2.593231 1_565
Rh4 Ti4 2.593231 1_556
Rh4 Ti8 2.593232 1_655
O0 Ti15 2.151789 1_555
O0 Ti4 2.154857 1_545
O0 Ti6 2.154857 1_554
O0 Ti9 2.157271 1_555
O0 Ti10 2.158583 1_555
O0 Ti12 2.158583 1_555
O1 Ti13 2.151789 1_555
O1 Ti8 2.154857 1_554
O1 Ti4 2.154857 1_455
O1 Ti7 2.157271 1_555
O1 Ti14 2.158583 1_555
O1 Ti10 2.158583 1_555
O2 Ti11 2.151789 1_555
O2 Ti8 2.154857 1_545
O2 Ti6 2.154857 1_455
O2 Ti5 2.157271 1_555
O2 Ti14 2.158583 1_555
O2 Ti12 2.158583 1_555
O3 Ti7 2.156729 1_545
O3 Ti5 2.156729 1_554
O3 Ti9 2.156730 1_455
O3 Ti13 2.157482 1_555
O3 Ti11 2.157482 1_555
O3 Ti15 2.157482 1_555
