# generated using pymatgen
data_Cs2VCuTe4
_symmetry_space_group_name_H-M   'P 1'
_cell_length_a   15.49618782
_cell_length_b   13.76678727
_cell_length_c   8.30144701
_cell_angle_alpha   85.40611481
_cell_angle_beta   62.31857360
_cell_angle_gamma   32.27530236
_symmetry_Int_Tables_number   1
_chemical_formula_structural   Cs2VCuTe4
_chemical_formula_sum   'Cs4 V2 Cu2 Te8'
_cell_volume   628.21802947
_cell_formula_units_Z   2
loop_
 _symmetry_equiv_pos_site_id
 _symmetry_equiv_pos_as_xyz
  1  'x, y, z'
loop_
 _atom_site_type_symbol
 _atom_site_label
 _atom_site_symmetry_multiplicity
 _atom_site_fract_x
 _atom_site_fract_y
 _atom_site_fract_z
 _atom_site_occupancy
  Cs  Cs0  1  0.68005679  0.68005679  0.31994321  1
  Cs  Cs1  1  0.31994321  0.31994321  0.68005679  1
  Cs  Cs2  1  0.56994321  0.56994321  0.93005679  1
  Cs  Cs3  1  0.93005679  0.93005679  0.56994321  1
  V  V0  1  0.50000000  0.50000000  0.50000000  1
  V  V1  1  0.75000000  0.75000000  0.75000000  1
  Cu  Cu0  1  0.00000000  0.00000000  0.00000000  1
  Cu  Cu1  1  0.25000000  0.25000000  0.25000000  1
  Te  Te0  1  0.36199623  0.02965192  0.95099509  1
  Te  Te1  1  0.65735676  0.95099509  0.02965192  1
  Te  Te2  1  0.95099509  0.65735676  0.36199623  1
  Te  Te3  1  0.02965192  0.36199623  0.65735676  1
  Te  Te4  1  0.88800377  0.22034808  0.29900491  1
  Te  Te5  1  0.59264324  0.29900491  0.22034808  1
  Te  Te6  1  0.29900491  0.59264324  0.88800377  1
  Te  Te7  1  0.22034808  0.88800377  0.59264324  1
loop_
_geom_bond_atom_site_label_1
_geom_bond_atom_site_label_2
_geom_bond_distance
_geom_bond_site_symmetry_2
Cs0 Te3 3.851777 1_654
Cs0 Te0 3.851777 1_565
Cs0 Te0 3.942684 1_654
Cs0 Te3 3.942684 1_565
Cs0 Te7 3.954392 1_555
Cs0 Te4 3.954392 1_555
Cs0 Te1 4.119790 1_555
Cs0 Te2 4.119790 1_555
Cs1 Te1 3.851777 1_456
Cs1 Te2 3.851777 1_545
Cs1 Te2 3.942685 1_456
Cs1 Te1 3.942685 1_545
Cs1 Te5 3.954392 1_555
Cs1 Te6 3.954392 1_555
Cs1 Te0 4.119790 1_555
Cs1 Te3 4.119790 1_555
Cs2 Te7 3.851777 1_556
Cs2 Te4 3.851777 1_555
Cs2 Te4 3.942684 1_466
Cs2 Te7 3.942684 1_645
Cs2 Te3 3.954392 1_655
Cs2 Te0 3.954392 1_565
Cs2 Te5 4.119790 1_556
Cs2 Te6 4.119790 1_555
Cs3 Te5 3.851777 1_655
Cs3 Te6 3.851777 1_565
Cs3 Te6 3.942685 1_654
Cs3 Te5 3.942685 1_566
Cs3 Te1 3.954392 1_556
Cs3 Te2 3.954392 1_555
Cs3 Te4 4.119790 1_565
Cs3 Te7 4.119790 1_655
Cu0 Te5 2.583882 1_455
Cu0 Te6 2.583882 1_544
Cu0 Te7 2.583882 1_544
Cu0 Te4 2.583882 1_455
Cu0 V0 3.025443 1_544
Cu0 V0 3.025443 1_455
Cu1 Te1 2.583882 1_545
Cu1 Te2 2.583882 1_455
Cu1 Te3 2.583882 1_555
Cu1 Te0 2.583882 1_554
Cu1 V1 3.025443 1_544
Cu1 V1 3.025443 1_455
Te0 V1 2.514390 1_545
Te1 V1 2.514390 1_554
Te2 V1 2.514390 1_555
Te3 V1 2.514390 1_455
Te4 V0 2.514390 1_555
Te5 V0 2.514390 1_555
Te6 V0 2.514390 1_555
Te7 V0 2.514390 1_555
