# generated using pymatgen
data_Cs6K3AlAs4
_symmetry_space_group_name_H-M   'P 1'
_cell_length_a   10.51377797
_cell_length_b   10.51377750
_cell_length_c   11.10843370
_cell_angle_alpha   90.00000000
_cell_angle_beta   90.00000000
_cell_angle_gamma   119.99999844
_symmetry_Int_Tables_number   1
_chemical_formula_structural   Cs6K3AlAs4
_chemical_formula_sum   'Cs12 K6 Al2 As8'
_cell_volume   1063.41075580
_cell_formula_units_Z   2
loop_
 _symmetry_equiv_pos_site_id
 _symmetry_equiv_pos_as_xyz
  1  'x, y, z'
loop_
 _atom_site_type_symbol
 _atom_site_label
 _atom_site_symmetry_multiplicity
 _atom_site_fract_x
 _atom_site_fract_y
 _atom_site_fract_z
 _atom_site_occupancy
  Cs  Cs0  1  0.20826073  0.79173927  0.95307429  1
  Cs  Cs1  1  0.20826073  0.41652145  0.95307429  1
  Cs  Cs2  1  0.58347855  0.79173927  0.95307429  1
  Cs  Cs3  1  0.41652145  0.20826073  0.45307429  1
  Cs  Cs4  1  0.79173927  0.58347855  0.04692571  1
  Cs  Cs5  1  0.79173927  0.20826073  0.45307429  1
  Cs  Cs6  1  0.79173927  0.58347855  0.45307429  1
  Cs  Cs7  1  0.20826073  0.79173927  0.54692571  1
  Cs  Cs8  1  0.58347855  0.79173927  0.54692571  1
  Cs  Cs9  1  0.41652145  0.20826073  0.04692571  1
  Cs  Cs10  1  0.79173927  0.20826073  0.04692571  1
  Cs  Cs11  1  0.20826073  0.41652145  0.54692571  1
  K  K0  1  0.24252058  0.12126029  0.75000000  1
  K  K1  1  0.87873971  0.12126029  0.75000000  1
  K  K2  1  0.75747942  0.87873971  0.25000000  1
  K  K3  1  0.12126029  0.24252058  0.25000000  1
  K  K4  1  0.12126029  0.87873971  0.25000000  1
  K  K5  1  0.87873971  0.75747942  0.75000000  1
  Al  Al0  1  0.33333300  0.66666700  0.25000000  1
  Al  Al1  1  0.66666700  0.33333300  0.75000000  1
  As  As0  1  0.00000000  0.00000000  0.00000000  1
  As  As1  1  0.06405744  0.53202872  0.25000000  1
  As  As2  1  0.46797128  0.93594256  0.25000000  1
  As  As3  1  0.53202872  0.06405744  0.75000000  1
  As  As4  1  0.53202872  0.46797128  0.75000000  1
  As  As5  1  0.00000000  0.00000000  0.50000000  1
  As  As6  1  0.46797128  0.53202872  0.25000000  1
  As  As7  1  0.93594256  0.46797128  0.75000000  1
loop_
_geom_bond_atom_site_label_1
_geom_bond_atom_site_label_2
_geom_bond_distance
_geom_bond_site_symmetry_2
Al0 As2 2.451807 1_555
Al0 As1 2.451808 1_555
Al0 As6 2.451817 1_555
Al1 As3 2.451807 1_555
Al1 As7 2.451808 1_555
Al1 As4 2.451817 1_555
As0 K1 3.548023 1_454
As0 K4 3.548023 1_545
As0 K3 3.548023 1_555
As0 K5 3.548023 1_444
As0 K0 3.548023 1_554
As0 K2 3.548023 1_445
As0 Cs10 3.828167 1_455
As0 Cs0 3.828167 1_544
As0 Cs1 3.828167 1_554
As0 Cs4 3.828167 1_445
As0 Cs9 3.828167 1_555
As0 Cs2 3.828167 1_444
As1 K3 3.384846 1_555
As1 K4 3.384846 1_555
As1 Cs6 3.889402 1_455
As1 Cs4 3.889402 1_455
As1 Cs5 3.889402 1_455
As1 Cs10 3.889402 1_455
As2 K2 3.384846 1_555
As2 K4 3.384846 1_555
As2 Cs3 3.889402 1_565
As2 Cs9 3.889402 1_565
As2 Cs5 3.889402 1_565
As2 Cs10 3.889402 1_565
As3 K0 3.384846 1_555
As3 K1 3.384846 1_555
As3 Cs2 3.889402 1_545
As3 Cs8 3.889402 1_545
As3 Cs0 3.889402 1_545
As3 Cs7 3.889402 1_545
As4 K0 3.384846 1_555
As4 K5 3.384846 1_555
As4 Cs2 3.889402 1_555
As4 Cs8 3.889402 1_555
As4 Cs1 3.889402 1_555
As4 Cs11 3.889402 1_555
As5 K1 3.548023 1_455
As5 K4 3.548023 1_545
As5 K3 3.548023 1_555
As5 K5 3.548023 1_445
As5 K0 3.548023 1_555
As5 K2 3.548023 1_445
As5 Cs5 3.828167 1_455
As5 Cs7 3.828167 1_545
As5 Cs11 3.828167 1_555
As5 Cs6 3.828167 1_445
As5 Cs3 3.828167 1_555
As5 Cs8 3.828167 1_445
As6 K2 3.384846 1_555
As6 K3 3.384846 1_555
As6 Cs3 3.889402 1_555
As6 Cs9 3.889402 1_555
As6 Cs6 3.889402 1_555
As6 Cs4 3.889402 1_555
As7 K5 3.384846 1_555
As7 K1 3.384846 1_555
As7 Cs1 3.889402 1_655
As7 Cs11 3.889402 1_655
As7 Cs0 3.889402 1_655
As7 Cs7 3.889402 1_655
