# generated using pymatgen
data_K2Ba2IrO6
_symmetry_space_group_name_H-M   'P 1'
_cell_length_a   7.19931164
_cell_length_b   7.19931072
_cell_length_c   7.23567911
_cell_angle_alpha   91.11163891
_cell_angle_beta   91.11153770
_cell_angle_gamma   88.83266360
_symmetry_Int_Tables_number   1
_chemical_formula_structural   K2Ba2IrO6
_chemical_formula_sum   'K4 Ba4 Ir2 O12'
_cell_volume   374.80968610
_cell_formula_units_Z   2
loop_
 _symmetry_equiv_pos_site_id
 _symmetry_equiv_pos_as_xyz
  1  'x, y, z'
loop_
 _atom_site_type_symbol
 _atom_site_label
 _atom_site_symmetry_multiplicity
 _atom_site_fract_x
 _atom_site_fract_y
 _atom_site_fract_z
 _atom_site_occupancy
  K  K0  1  0.73933412  0.26066088  0.99999600  1
  K  K1  1  0.25385864  0.74613936  0.50000000  1
  K  K2  1  0.74958919  0.60745486  0.35880899  1
  K  K3  1  0.39254614  0.25041081  0.64119301  1
  Ba  Ba0  1  0.10538892  0.89461308  0.99999900  1
  Ba  Ba1  1  0.60796397  0.74749597  0.85495943  1
  Ba  Ba2  1  0.89053377  0.10946523  0.50000100  1
  Ba  Ba3  1  0.25250403  0.39203603  0.14503957  1
  Ir  Ir0  1  0.49974558  0.99648670  0.25265624  1
  Ir  Ir1  1  0.00351430  0.50025542  0.74734376  1
  O  O0  1  0.57035334  0.25001645  0.31183890  1
  O  O1  1  0.43536779  0.06917276  0.99679112  1
  O  O2  1  0.75656471  0.94020611  0.17319765  1
  O  O3  1  0.25972572  0.57541912  0.81541626  1
  O  O4  1  0.94328005  0.76235144  0.68133799  1
  O  O5  1  0.07468962  0.43779800  0.49448390  1
  O  O6  1  0.42458288  0.74027428  0.18458274  1
  O  O7  1  0.56220100  0.92531038  0.50551610  1
  O  O8  1  0.23764956  0.05672095  0.31866201  1
  O  O9  1  0.74998455  0.42964666  0.68816110  1
  O  O10  1  0.05979489  0.24343529  0.82680335  1
  O  O11  1  0.93082824  0.56463221  0.00320988  1
loop_
_geom_bond_atom_site_label_1
_geom_bond_atom_site_label_2
_geom_bond_distance
_geom_bond_site_symmetry_2
K0 O9 2.587282 1_555
K0 O0 2.587312 1_556
K0 O1 2.609522 1_555
K0 O11 2.609575 1_556
K0 O2 2.646312 1_546
K0 O10 2.646315 1_655
K1 O5 2.589279 1_555
K1 O7 2.589292 1_555
K1 O3 2.612287 1_555
K1 O6 2.612306 1_555
K1 O4 2.613804 1_455
K1 O8 2.613824 1_565
K2 O9 2.726850 1_555
K2 O2 2.770811 1_555
K2 O5 2.788265 1_655
K2 O6 2.796336 1_555
K2 O7 2.831756 1_555
K2 O4 2.910392 1_555
K2 O0 2.913219 1_555
K2 O11 2.915640 1_555
K3 O0 2.726857 1_555
K3 O10 2.770805 1_555
K3 O7 2.788262 1_545
K3 O3 2.796338 1_555
K3 O5 2.831766 1_555
K3 O8 2.910399 1_555
K3 O9 2.913218 1_555
K3 O1 2.915632 1_555
Ba0 O1 2.710783 1_565
Ba0 O11 2.710800 1_456
Ba0 O4 2.727783 1_455
Ba0 O8 2.727790 1_566
Ba0 O10 2.838541 1_565
Ba0 O2 2.838561 1_456
Ba0 O3 2.851931 1_555
Ba0 O6 2.851943 1_556
Ba1 O4 2.747846 1_555
Ba1 O6 2.750256 1_556
Ba1 O9 2.753851 1_555
Ba1 O1 2.792911 1_565
Ba1 O3 2.826123 1_555
Ba1 O11 2.849568 1_556
Ba1 O2 2.865759 1_556
Ba1 O7 2.866444 1_555
Ba2 O7 2.734980 1_545
Ba2 O5 2.734984 1_655
Ba2 O2 2.802541 1_545
Ba2 O10 2.802544 1_655
Ba2 O9 2.833286 1_555
Ba2 O0 2.833295 1_555
Ba2 O4 2.860057 1_545
Ba2 O8 2.860073 1_655
Ba3 O8 2.747844 1_555
Ba3 O3 2.750265 1_554
Ba3 O0 2.753854 1_555
Ba3 O11 2.792902 1_455
Ba3 O6 2.826129 1_555
Ba3 O1 2.849554 1_554
Ba3 O10 2.865745 1_554
Ba3 O5 2.866448 1_555
Ir0 O0 1.942242 1_565
Ir0 O7 1.951231 1_555
Ir0 O1 1.977520 1_564
Ir0 O2 1.978614 1_555
Ir0 O6 1.983147 1_555
Ir0 O8 1.992528 1_565
Ir1 O9 1.942245 1_455
Ir1 O5 1.951230 1_555
Ir1 O11 1.977524 1_456
Ir1 O10 1.978624 1_555
Ir1 O3 1.983142 1_555
Ir1 O4 1.992529 1_455
