# generated using pymatgen
data_Lu10BiIrPd4
_symmetry_space_group_name_H-M   'P 1'
_cell_length_a   8.69951687
_cell_length_b   8.69951593
_cell_length_c   8.69951632
_cell_angle_alpha   130.24866958
_cell_angle_beta   130.24866670
_cell_angle_gamma   73.00953964
_symmetry_Int_Tables_number   1
_chemical_formula_structural   Lu10BiIrPd4
_chemical_formula_sum   'Lu10 Bi1 Ir1 Pd4'
_cell_volume   374.57621766
_cell_formula_units_Z   1
loop_
 _symmetry_equiv_pos_site_id
 _symmetry_equiv_pos_as_xyz
  1  'x, y, z'
loop_
 _atom_site_type_symbol
 _atom_site_label
 _atom_site_symmetry_multiplicity
 _atom_site_fract_x
 _atom_site_fract_y
 _atom_site_fract_z
 _atom_site_occupancy
  Lu  Lu0  1  0.97911772  0.97911772  1.00000000  1
  Lu  Lu1  1  0.52088228  0.52088228  0.00000000  1
  Lu  Lu2  1  0.83143528  0.28478561  0.82784181  1
  Lu  Lu3  1  0.21521439  0.66856472  0.17215819  1
  Lu  Lu4  1  0.45694479  0.00359447  0.17215819  1
  Lu  Lu5  1  0.28478561  0.45694479  0.45335032  1
  Lu  Lu6  1  0.04305521  0.21521439  0.54664968  1
  Lu  Lu7  1  0.49640553  0.04305521  0.82784181  1
  Lu  Lu8  1  0.66856472  0.49640553  0.45335032  1
  Lu  Lu9  1  0.00359447  0.83143528  0.54664968  1
  Bi  Bi0  1  0.75000000  0.75000000  0.00000000  1
  Ir  Ir0  1  0.25000000  0.25000000  0.00000000  1
  Pd  Pd0  1  0.13687645  0.63687645  0.77375289  1
  Pd  Pd1  1  0.86312355  0.36312355  0.22624711  1
  Pd  Pd2  1  0.63687645  0.86312355  0.50000000  1
  Pd  Pd3  1  0.36312355  0.13687645  0.50000000  1
loop_
_geom_bond_atom_site_label_1
_geom_bond_atom_site_label_2
_geom_bond_distance
_geom_bond_site_symmetry_2
Lu0 Pd1 2.855184 1_566
Lu0 Pd0 2.855184 1_655
Lu0 Pd2 2.855184 1_555
Lu0 Pd3 2.855184 1_666
Lu1 Pd3 2.855184 1_554
Lu1 Pd2 2.855184 1_555
Lu1 Pd1 2.855184 1_555
Lu1 Pd0 2.855184 1_554
Lu2 Pd2 2.885575 1_545
Lu2 Pd1 2.894134 1_556
Lu2 Pd3 3.113629 1_555
Lu3 Pd2 2.885576 1_555
Lu3 Pd0 2.894134 1_554
Lu3 Pd3 3.113629 1_565
Lu4 Pd3 2.885585 1_555
Lu4 Pd0 2.894144 1_544
Lu4 Pd2 3.113638 1_545
Lu5 Pd1 2.885578 1_455
Lu5 Pd3 2.894142 1_555
Lu5 Pd0 3.113631 1_555
Lu6 Pd0 2.885577 1_555
Lu6 Pd3 2.894143 1_555
Lu6 Pd1 3.113631 1_455
Lu7 Pd3 2.885585 1_555
Lu7 Pd1 2.894144 1_556
Lu7 Pd2 3.113638 1_545
Lu8 Pd1 2.885578 1_555
Lu8 Pd2 2.894142 1_555
Lu8 Pd0 3.113631 1_655
Lu9 Pd0 2.885577 1_555
Lu9 Pd2 2.894143 1_455
Lu9 Pd1 3.113631 1_455
Bi0 Lu0 3.204319 1_554
Bi0 Lu1 3.204319 1_555
Bi0 Lu7 3.314684 1_564
Bi0 Lu4 3.314684 1_565
Bi0 Lu6 3.314689 1_665
Bi0 Lu8 3.314689 1_554
Bi0 Lu9 3.314689 1_655
Bi0 Lu5 3.314689 1_554
Bi0 Lu2 3.314690 1_554
Bi0 Lu3 3.314691 1_655
Ir0 Lu4 2.913464 1_555
Ir0 Lu7 2.913464 1_554
Ir0 Lu9 2.913469 1_544
Ir0 Lu5 2.913469 1_555
Ir0 Lu6 2.913469 1_554
Ir0 Lu8 2.913469 1_555
Ir0 Lu3 2.913471 1_555
Ir0 Lu2 2.913471 1_454
Pd0 Pd1 2.833481 1_455
Pd2 Pd3 2.833481 1_565
