# generated using pymatgen
data_K2RbAs2Pt3
_symmetry_space_group_name_H-M   'P 1'
_cell_length_a   7.75875463
_cell_length_b   7.75875419
_cell_length_c   7.75875419
_cell_angle_alpha   43.17903016
_cell_angle_beta   43.17903269
_cell_angle_gamma   43.17902768
_symmetry_Int_Tables_number   1
_chemical_formula_structural   K2RbAs2Pt3
_chemical_formula_sum   'K2 Rb1 As2 Pt3'
_cell_volume   198.30042874
_cell_formula_units_Z   1
loop_
 _symmetry_equiv_pos_site_id
 _symmetry_equiv_pos_as_xyz
  1  'x, y, z'
loop_
 _atom_site_type_symbol
 _atom_site_label
 _atom_site_symmetry_multiplicity
 _atom_site_fract_x
 _atom_site_fract_y
 _atom_site_fract_z
 _atom_site_occupancy
  K  K0  1  0.08322987  0.08322987  0.08322987  1
  K  K1  1  0.91677013  0.91677013  0.91677013  1
  Rb  Rb0  1  0.50000000  0.50000000  0.50000000  1
  As  As0  1  0.75304431  0.75304431  0.75304431  1
  As  As1  1  0.24695569  0.24695569  0.24695569  1
  Pt  Pt0  1  0.00000000  0.50000000  0.50000000  1
  Pt  Pt1  1  0.50000000  0.50000000  0.00000000  1
  Pt  Pt2  1  0.50000000  0.00000000  0.50000000  1
loop_
_geom_bond_atom_site_label_1
_geom_bond_atom_site_label_2
_geom_bond_distance
_geom_bond_site_symmetry_2
K0 Pt1 3.350496 1_545
K0 Pt0 3.350496 1_554
K0 Pt1 3.350496 1_455
K0 Pt0 3.350496 1_545
K0 Pt2 3.350496 1_554
K0 Pt2 3.350496 1_455
K0 Rb0 3.736026 1_545
K0 Rb0 3.736026 1_455
K0 Rb0 3.736026 1_554
K1 Pt1 3.350496 1_566
K1 Pt0 3.350496 1_656
K1 Pt1 3.350496 1_656
K1 Pt0 3.350496 1_665
K1 Pt2 3.350496 1_566
K1 Pt2 3.350496 1_665
K1 Rb0 3.736026 1_565
K1 Rb0 3.736026 1_655
K1 Rb0 3.736026 1_556
As0 Pt0 2.455472 1_655
As0 Pt2 2.455472 1_565
As0 Pt1 2.455472 1_556
As0 K0 3.297184 1_656
As0 K0 3.297185 1_566
As0 K0 3.297185 1_665
As0 K1 3.449844 1_555
As0 Rb0 3.705276 1_565
As0 Rb0 3.705277 1_556
As0 Rb0 3.705277 1_655
As1 Pt0 2.455472 1_555
As1 Pt2 2.455472 1_555
As1 Pt1 2.455472 1_555
As1 K1 3.297184 1_454
As1 K1 3.297185 1_544
As1 K1 3.297185 1_445
As1 K0 3.449844 1_555
As1 Rb0 3.705276 1_545
As1 Rb0 3.705277 1_554
As1 Rb0 3.705277 1_455
Pt0 Pt2 2.854868 1_465
Pt0 Pt2 2.854868 1_555
Pt0 Pt1 2.854868 1_456
Pt0 Pt1 2.854868 1_555
Pt0 Rb0 3.879377 1_455
Pt0 Rb0 3.879377 1_555
Pt1 Pt2 2.854868 1_555
Pt1 Pt2 2.854868 1_564
Pt1 Rb0 3.879377 1_554
Pt1 Rb0 3.879377 1_555
Pt2 Rb0 3.879377 1_545
Pt2 Rb0 3.879377 1_555
