# generated using pymatgen
data_NdGaO3
_symmetry_space_group_name_H-M   'P 1'
_cell_length_a   5.47123600
_cell_length_b   5.61586700
_cell_length_c   7.80168300
_cell_angle_alpha   90.00000000
_cell_angle_beta   90.00000000
_cell_angle_gamma   90.00000000
_symmetry_Int_Tables_number   1
_chemical_formula_structural   NdGaO3
_chemical_formula_sum   'Nd4 Ga4 O12'
_cell_volume   239.71243428
_cell_formula_units_Z   4
loop_
 _symmetry_equiv_pos_site_id
 _symmetry_equiv_pos_as_xyz
  1  'x, y, z'
loop_
 _atom_site_type_symbol
 _atom_site_label
 _atom_site_symmetry_multiplicity
 _atom_site_fract_x
 _atom_site_fract_y
 _atom_site_fract_z
 _atom_site_occupancy
  Nd  Nd0  1  0.98689800  0.44819800  0.75000000  1
  Nd  Nd1  1  0.01310200  0.55180200  0.25000000  1
  Nd  Nd2  1  0.51310200  0.94819800  0.75000000  1
  Nd  Nd3  1  0.48689800  0.05180200  0.25000000  1
  Ga  Ga0  1  0.50000000  0.50000000  0.50000000  1
  Ga  Ga1  1  0.50000000  0.50000000  0.00000000  1
  Ga  Ga2  1  0.00000000  0.00000000  0.50000000  1
  Ga  Ga3  1  0.00000000  0.00000000  0.00000000  1
  O  O0  1  0.70821900  0.20706000  0.95324300  1
  O  O1  1  0.29178100  0.79294000  0.45324300  1
  O  O2  1  0.79178100  0.70706000  0.95324300  1
  O  O3  1  0.20821900  0.29294000  0.45324300  1
  O  O4  1  0.70821900  0.20706000  0.54675700  1
  O  O5  1  0.29178100  0.79294000  0.04675700  1
  O  O6  1  0.79178100  0.70706000  0.54675700  1
  O  O7  1  0.20821900  0.29294000  0.04675700  1
  O  O8  1  0.91258000  0.97723400  0.25000000  1
  O  O9  1  0.08742000  0.02276600  0.75000000  1
  O  O10  1  0.58742000  0.47723400  0.25000000  1
  O  O11  1  0.41258000  0.52276600  0.75000000  1
loop_
_geom_bond_atom_site_label_1
_geom_bond_atom_site_label_2
_geom_bond_distance
_geom_bond_site_symmetry_2
Nd0 O11 2.366355 1_655
Nd0 O2 2.401502 1_555
Nd0 O6 2.401502 1_555
Nd0 O9 2.451654 1_655
Nd0 O0 2.583189 1_555
Nd0 O4 2.583189 1_555
Nd0 O3 2.754391 1_655
Nd0 O7 2.754391 1_656
Nd1 O10 2.366355 1_455
Nd1 O7 2.401502 1_555
Nd1 O3 2.401502 1_555
Nd1 O8 2.451654 1_455
Nd1 O1 2.583189 1_555
Nd1 O5 2.583189 1_555
Nd1 O6 2.754391 1_455
Nd1 O2 2.754391 1_454
Nd2 O9 2.366355 1_565
Nd2 O0 2.401502 1_565
Nd2 O4 2.401502 1_565
Nd2 O11 2.451654 1_555
Nd2 O2 2.583189 1_555
Nd2 O6 2.583189 1_555
Nd2 O1 2.754391 1_555
Nd2 O5 2.754391 1_556
Nd3 O8 2.366355 1_545
Nd3 O1 2.401502 1_545
Nd3 O5 2.401502 1_545
Nd3 O10 2.451654 1_555
Nd3 O7 2.583189 1_555
Nd3 O3 2.583189 1_555
Nd3 O4 2.754391 1_555
Nd3 O0 2.754391 1_554
Ga0 O6 2.008413 1_555
Ga0 O3 2.008413 1_555
Ga0 O10 2.012276 1_555
Ga0 O11 2.012276 1_555
Ga0 O4 2.034029 1_555
Ga0 O1 2.034029 1_555
Ga1 O2 2.008413 1_554
Ga1 O7 2.008413 1_555
Ga1 O11 2.012276 1_554
Ga1 O10 2.012276 1_555
Ga1 O0 2.034029 1_554
Ga1 O5 2.034029 1_555
Ga2 O1 2.008413 1_545
Ga2 O4 2.008413 1_455
Ga2 O9 2.012276 1_555
Ga2 O8 2.012276 1_445
Ga2 O6 2.034029 1_445
Ga2 O3 2.034029 1_555
Ga3 O5 2.008413 1_545
Ga3 O0 2.008413 1_454
Ga3 O9 2.012276 1_554
Ga3 O8 2.012276 1_445
Ga3 O7 2.034029 1_555
Ga3 O2 2.034029 1_444
