# generated using pymatgen
data_Hf15Zr(TaNi)4
_symmetry_space_group_name_H-M   'P 1'
_cell_length_a   8.73547134
_cell_length_b   8.70319118
_cell_length_c   8.73547170
_cell_angle_alpha   60.12215596
_cell_angle_beta   60.15177635
_cell_angle_gamma   60.12215778
_symmetry_Int_Tables_number   1
_chemical_formula_structural   Hf15Zr(TaNi)4
_chemical_formula_sum   'Hf15 Zr1 Ta4 Ni4'
_cell_volume   471.01329681
_cell_formula_units_Z   1
loop_
 _symmetry_equiv_pos_site_id
 _symmetry_equiv_pos_as_xyz
  1  'x, y, z'
loop_
 _atom_site_type_symbol
 _atom_site_label
 _atom_site_symmetry_multiplicity
 _atom_site_fract_x
 _atom_site_fract_y
 _atom_site_fract_z
 _atom_site_occupancy
  Hf  Hf0  1  0.19197607  0.60242857  0.60316779  1
  Hf  Hf1  1  0.60168191  0.19396993  0.60168191  1
  Hf  Hf2  1  0.60168191  0.60266725  0.60168191  1
  Hf  Hf3  1  0.60316779  0.60242857  0.19197607  1
  Hf  Hf4  1  0.44558542  0.44891294  0.05321620  1
  Hf  Hf5  1  0.05321620  0.05228543  0.44558542  1
  Hf  Hf6  1  0.44558542  0.05228543  0.05321620  1
  Hf  Hf7  1  0.05321620  0.44891294  0.44558542  1
  Hf  Hf8  1  0.05151520  0.44848480  0.05151520  1
  Hf  Hf9  1  0.44729617  0.05270383  0.44729617  1
  Hf  Hf10  1  0.81389543  0.81306639  0.18793655  1
  Hf  Hf11  1  0.18793655  0.18510263  0.81389543  1
  Hf  Hf12  1  0.81389543  0.18510263  0.18793655  1
  Hf  Hf13  1  0.18793655  0.81306639  0.81389543  1
  Hf  Hf14  1  0.18485964  0.81514036  0.18485964  1
  Zr  Zr0  1  0.81589166  0.18410834  0.81589166  1
  Ta  Ta0  1  0.49907868  0.83396484  0.83299165  1
  Ta  Ta1  1  0.83431984  0.49750048  0.83431984  1
  Ta  Ta2  1  0.83431984  0.83385984  0.83431984  1
  Ta  Ta3  1  0.83299165  0.83396484  0.49907868  1
  Ni  Ni0  1  0.82159917  0.39296107  0.39247968  1
  Ni  Ni1  1  0.39293729  0.82003381  0.39293729  1
  Ni  Ni2  1  0.39293729  0.39409261  0.39293729  1
  Ni  Ni3  1  0.39247968  0.39296107  0.82159917  1
loop_
_geom_bond_atom_site_label_1
_geom_bond_atom_site_label_2
_geom_bond_distance
_geom_bond_site_symmetry_2
Hf0 Ni1 2.584410 1_555
Hf0 Ni2 2.584410 1_555
Hf0 Ni3 2.590714 1_555
Hf0 Ta2 3.065642 1_455
Hf0 Ta1 3.065646 1_455
Hf0 Ta3 3.072171 1_455
Hf0 Hf11 3.159673 1_555
Hf0 Hf13 3.159673 1_555
Hf0 Hf14 3.186745 1_555
Hf1 Ni2 2.581679 1_555
Hf1 Ni0 2.587751 1_555
Hf1 Ni3 2.587751 1_555
Hf1 Ta0 3.064418 1_545
Hf1 Ta3 3.064419 1_545
Hf1 Ta2 3.082530 1_545
Hf1 Hf11 3.157755 1_555
Hf1 Hf12 3.157755 1_555
Hf1 Zr0 3.189937 1_555
Hf2 Ni1 2.581679 1_555
Hf2 Ni3 2.587751 1_555
Hf2 Ni0 2.587751 1_555
Hf2 Ta3 3.064411 1_555
Hf2 Ta0 3.064411 1_555
Hf2 Ta1 3.082527 1_555
Hf2 Zr0 3.189942 1_555
Hf3 Ni2 2.584410 1_555
Hf3 Ni1 2.584410 1_555
Hf3 Ni0 2.590714 1_555
Hf3 Ta2 3.065642 1_554
Hf3 Ta1 3.065647 1_554
Hf3 Ta0 3.072171 1_554
Hf4 Ni3 2.585923 1_554
Hf4 Ni2 2.587535 1_555
Hf4 Ta0 3.064626 1_554
Hf4 Ta1 3.086759 1_554
Hf4 Zr0 3.275746 1_554
Hf5 Ni0 2.585929 1_455
Hf5 Ni1 2.587532 1_545
Hf5 Ta3 3.064627 1_445
Hf5 Ta2 3.086759 1_445
Hf5 Zr0 3.275746 1_455
Hf6 Ni3 2.585929 1_554
Hf6 Ni1 2.587532 1_545
Hf6 Ta0 3.064627 1_544
Hf6 Ta2 3.086759 1_544
Hf6 Zr0 3.275746 1_554
Hf7 Ni0 2.585923 1_455
Hf7 Ni2 2.587535 1_555
Hf7 Ta3 3.064626 1_455
Hf7 Ta1 3.086759 1_455
Hf7 Zr0 3.275746 1_455
Hf8 Ni3 2.591723 1_554
Hf8 Ni0 2.591724 1_455
Hf8 Ta2 3.058098 1_454
Hf8 Ta1 3.058099 1_454
Hf9 Ni1 2.586877 1_545
Hf9 Ni2 2.586886 1_555
Hf9 Ta3 3.073958 1_545
Hf9 Ta0 3.073958 1_545
Hf10 Ta3 2.902130 1_555
Hf10 Ta2 2.921160 1_554
Hf10 Ni0 3.151363 1_555
Hf10 Hf2 3.157755 1_555
Hf10 Hf3 3.159673 1_555
Hf10 Ni1 3.172374 1_555
Hf10 Hf7 3.233614 1_655
Hf10 Hf14 3.236246 1_655
Hf10 Hf12 3.237902 1_565
Hf10 Zr0 3.245647 1_564
Hf10 Hf8 3.246525 1_655
Hf10 Hf9 3.251091 1_565
Hf10 Hf13 3.274919 1_654
Hf10 Hf6 3.274924 1_565
Hf11 Ta0 2.902134 1_545
Hf11 Ta1 2.921156 1_455
Hf11 Ni3 3.151363 1_555
Hf11 Ni2 3.172374 1_555
Hf11 Hf6 3.233612 1_556
Hf11 Hf14 3.236250 1_546
Hf11 Hf13 3.237902 1_545
Hf11 Zr0 3.245652 1_455
Hf11 Hf8 3.246518 1_556
Hf11 Hf9 3.251095 1_555
Hf11 Hf12 3.274919 1_456
Hf11 Hf7 3.274924 1_555
Hf12 Ta3 2.902134 1_545
Hf12 Ta1 2.921156 1_554
Hf12 Ni0 3.151363 1_555
Hf12 Hf3 3.159673 1_555
Hf12 Ni2 3.172374 1_555
Hf12 Hf5 3.233612 1_655
Hf12 Hf14 3.236250 1_645
Hf12 Zr0 3.245652 1_554
Hf12 Hf8 3.246518 1_655
Hf12 Hf9 3.251095 1_555
Hf12 Hf4 3.274924 1_555
Hf13 Ta0 2.902130 1_555
Hf13 Ta2 2.921160 1_455
Hf13 Ni3 3.151363 1_555
Hf13 Hf2 3.157755 1_555
Hf13 Ni1 3.172374 1_555
Hf13 Hf4 3.233614 1_556
Hf13 Hf14 3.236246 1_556
Hf13 Zr0 3.245647 1_465
Hf13 Hf8 3.246525 1_556
Hf13 Hf9 3.251091 1_565
Hf13 Hf5 3.274924 1_565
Hf14 Ta3 2.925235 1_455
Hf14 Ta0 2.925235 1_554
Hf14 Ni2 3.170565 1_555
Hf14 Ni1 3.170571 1_555
Hf14 Hf3 3.186745 1_555
Hf14 Hf7 3.237444 1_555
Hf14 Hf4 3.237444 1_555
Hf14 Hf6 3.237444 1_565
Hf14 Hf5 3.237445 1_565
Ta0 Ta3 2.923576 1_555
Ta0 Ta1 2.933825 1_555
Ta0 Ta2 2.933825 1_555
Ta1 Zr0 2.896868 1_555
Ta1 Ta2 2.927400 1_555
Ta1 Ta3 2.933825 1_555
Ta2 Zr0 2.896868 1_565
Ta2 Ta3 2.933825 1_555
Ni0 Zr0 3.193018 1_555
Ni3 Zr0 3.193018 1_555
