# generated using pymatgen
data_Cs2Zn3SiAs4
_symmetry_space_group_name_H-M   'P 1'
_cell_length_a   8.22440698
_cell_length_b   8.22440666
_cell_length_c   5.80040191
_cell_angle_alpha   90.00000000
_cell_angle_beta   90.00000000
_cell_angle_gamma   138.65600732
_symmetry_Int_Tables_number   1
_chemical_formula_structural   Cs2Zn3SiAs4
_chemical_formula_sum   'Cs2 Zn3 Si1 As4'
_cell_volume   259.17407839
_cell_formula_units_Z   1
loop_
 _symmetry_equiv_pos_site_id
 _symmetry_equiv_pos_as_xyz
  1  'x, y, z'
loop_
 _atom_site_type_symbol
 _atom_site_label
 _atom_site_symmetry_multiplicity
 _atom_site_fract_x
 _atom_site_fract_y
 _atom_site_fract_z
 _atom_site_occupancy
  Cs  Cs0  1  0.50000000  0.00000000  0.25802715  1
  Cs  Cs1  1  0.00000000  0.50000000  0.74197285  1
  Zn  Zn0  1  0.50000000  0.50000000  0.50000000  1
  Zn  Zn1  1  0.50000000  0.50000000  0.00000000  1
  Zn  Zn2  1  0.00000000  0.00000000  0.50000000  1
  Si  Si0  1  0.00000000  0.00000000  0.00000000  1
  As  As0  1  0.67021956  0.86206461  0.76682111  1
  As  As1  1  0.13793539  0.32978044  0.23317889  1
  As  As2  1  0.86206461  0.67021956  0.23317889  1
  As  As3  1  0.32978044  0.13793539  0.76682111  1
loop_
_geom_bond_atom_site_label_1
_geom_bond_atom_site_label_2
_geom_bond_distance
_geom_bond_site_symmetry_2
As0 Si0 2.419217 1_666
As0 Zn1 2.529207 1_556
As0 Zn2 2.533486 1_665
As0 Zn0 2.638717 1_555
As0 Cs1 3.679329 1_665
As0 Cs0 3.708013 1_566
As0 Cs0 3.786965 1_565
As0 Cs1 3.824398 1_555
As1 Si0 2.419216 1_555
As1 Zn1 2.529207 1_555
As1 Zn2 2.533486 1_555
As1 Zn0 2.638717 1_555
As1 Cs0 3.679329 1_455
As1 Cs1 3.708013 1_554
As1 Cs1 3.786965 1_555
As1 Cs0 3.824398 1_565
As2 Si0 2.419216 1_665
As2 Zn1 2.529207 1_555
As2 Zn2 2.533486 1_665
As2 Zn0 2.638717 1_555
As2 Cs0 3.679329 1_665
As2 Cs1 3.708013 1_654
As2 Cs1 3.786965 1_655
As2 Cs0 3.824398 1_555
As3 Si0 2.419217 1_556
As3 Zn1 2.529207 1_556
As3 Zn2 2.533486 1_555
As3 Zn0 2.638717 1_555
As3 Cs1 3.679329 1_545
As3 Cs0 3.708013 1_556
As3 Cs0 3.786965 1_555
As3 Cs1 3.824398 1_655
