# generated using pymatgen
data_Ba14Na14SrN6
_symmetry_space_group_name_H-M   'P 1'
_cell_length_a   12.72841058
_cell_length_b   12.72841050
_cell_length_c   12.72841045
_cell_angle_alpha   60.00000014
_cell_angle_beta   60.00000033
_cell_angle_gamma   60.00000153
_symmetry_Int_Tables_number   1
_chemical_formula_structural   Ba14Na14SrN6
_chemical_formula_sum   'Ba14 Na14 Sr1 N6'
_cell_volume   1458.16788551
_cell_formula_units_Z   1
loop_
 _symmetry_equiv_pos_site_id
 _symmetry_equiv_pos_as_xyz
  1  'x, y, z'
loop_
 _atom_site_type_symbol
 _atom_site_label
 _atom_site_symmetry_multiplicity
 _atom_site_fract_x
 _atom_site_fract_y
 _atom_site_fract_z
 _atom_site_occupancy
  Ba  Ba0  1  0.89318013  0.89318013  0.89318013  1
  Ba  Ba1  1  0.67954139  0.10681987  0.10681987  1
  Ba  Ba2  1  0.10681987  0.10681987  0.67954139  1
  Ba  Ba3  1  0.10681987  0.67954139  0.10681987  1
  Ba  Ba4  1  0.89318013  0.89318013  0.32045861  1
  Ba  Ba5  1  0.89318013  0.32045861  0.89318013  1
  Ba  Ba6  1  0.32045861  0.89318013  0.89318013  1
  Ba  Ba7  1  0.10681987  0.10681987  0.10681987  1
  Ba  Ba8  1  0.28756224  0.71243776  0.28756224  1
  Ba  Ba9  1  0.71243776  0.71243776  0.28756224  1
  Ba  Ba10  1  0.28756224  0.28756224  0.71243776  1
  Ba  Ba11  1  0.28756224  0.71243776  0.71243776  1
  Ba  Ba12  1  0.71243776  0.28756224  0.28756224  1
  Ba  Ba13  1  0.71243776  0.28756224  0.71243776  1
  Na  Na0  1  0.67151187  0.67151187  0.67151187  1
  Na  Na1  1  0.01453662  0.32848813  0.32848813  1
  Na  Na2  1  0.32848813  0.32848813  0.01453662  1
  Na  Na3  1  0.32848813  0.01453662  0.32848813  1
  Na  Na4  1  0.67151187  0.67151187  0.98546338  1
  Na  Na5  1  0.67151187  0.98546338  0.67151187  1
  Na  Na6  1  0.98546338  0.67151187  0.67151187  1
  Na  Na7  1  0.32848813  0.32848813  0.32848813  1
  Na  Na8  1  0.50000000  0.00000000  0.00000000  1
  Na  Na9  1  0.00000000  0.50000000  0.50000000  1
  Na  Na10  1  0.00000000  0.50000000  0.00000000  1
  Na  Na11  1  0.50000000  0.00000000  0.50000000  1
  Na  Na12  1  0.50000000  0.50000000  0.00000000  1
  Na  Na13  1  0.00000000  0.00000000  0.50000000  1
  Sr  Sr0  1  0.00000000  0.00000000  0.00000000  1
  N  N0  1  0.14755684  0.85244316  0.14755684  1
  N  N1  1  0.85244316  0.85244316  0.14755684  1
  N  N2  1  0.14755684  0.14755684  0.85244316  1
  N  N3  1  0.14755684  0.85244316  0.85244316  1
  N  N4  1  0.85244316  0.14755684  0.14755684  1
  N  N5  1  0.85244316  0.14755684  0.85244316  1
loop_
_geom_bond_atom_site_label_1
_geom_bond_atom_site_label_2
_geom_bond_distance
_geom_bond_site_symmetry_2
Ba0 N1 2.816431 1_556
Ba0 N5 2.816431 1_565
Ba0 N3 2.816431 1_655
Ba0 Na13 4.121002 1_665
Ba0 Na10 4.121002 1_656
Ba0 Na8 4.121002 1_566
Ba0 Na4 4.316679 1_555
Ba0 Na6 4.316679 1_555
Ba0 Na5 4.316679 1_555
Ba1 N4 2.816418 1_555
Ba1 N5 2.816427 1_554
Ba1 N1 2.816427 1_545
Ba1 Na11 4.121003 1_555
Ba1 Na12 4.121003 1_555
Ba1 Na8 4.121013 1_555
Ba1 Na3 4.316679 1_555
Ba1 Na7 4.316679 1_555
Ba1 Na2 4.316679 1_555
Ba2 N2 2.816418 1_555
Ba2 N3 2.816427 1_545
Ba2 N5 2.816427 1_455
Ba2 Na9 4.121003 1_555
Ba2 Na11 4.121003 1_555
Ba2 Na13 4.121013 1_555
Ba2 Na7 4.316679 1_555
Ba2 Na1 4.316679 1_555
Ba2 Na3 4.316679 1_555
Ba3 N0 2.816418 1_555
Ba3 N3 2.816427 1_554
Ba3 N1 2.816427 1_455
Ba3 Na9 4.121003 1_555
Ba3 Na12 4.121003 1_555
Ba3 Na10 4.121013 1_555
Ba3 Na1 4.316679 1_555
Ba3 Na7 4.316679 1_555
Ba3 Na2 4.316679 1_555
Ba4 N1 2.816418 1_555
Ba4 N4 2.816427 1_565
Ba4 N0 2.816427 1_655
Ba4 Na9 4.121003 1_655
Ba4 Na11 4.121003 1_565
Ba4 Na13 4.121013 1_665
Ba4 Na0 4.316679 1_555
Ba4 Na6 4.316679 1_555
Ba4 Na5 4.316679 1_555
Ba5 N5 2.816418 1_555
Ba5 N4 2.816427 1_556
Ba5 N2 2.816427 1_655
Ba5 Na9 4.121003 1_655
Ba5 Na12 4.121003 1_556
Ba5 Na10 4.121013 1_656
Ba5 Na6 4.316679 1_555
Ba5 Na0 4.316679 1_555
Ba5 Na4 4.316679 1_555
Ba6 N3 2.816418 1_555
Ba6 N0 2.816427 1_556
Ba6 N2 2.816427 1_565
Ba6 Na11 4.121003 1_565
Ba6 Na12 4.121003 1_556
Ba6 Na8 4.121013 1_566
Ba6 Na5 4.316679 1_555
Ba6 Na0 4.316679 1_555
Ba6 Na4 4.316679 1_555
Ba7 N2 2.816431 1_554
Ba7 N0 2.816431 1_545
Ba7 N4 2.816431 1_455
Ba7 Na13 4.121002 1_555
Ba7 Na10 4.121002 1_555
Ba7 Na8 4.121002 1_555
Ba7 Na2 4.316679 1_555
Ba7 Na1 4.316679 1_555
Ba7 Na3 4.316679 1_555
Ba8 N0 2.520194 1_555
Ba8 Na7 4.427862 1_555
Ba8 Na6 4.427866 1_455
Ba8 Na4 4.427866 1_554
Ba8 Na3 4.427874 1_565
Ba9 N1 2.520194 1_555
Ba9 Na0 4.427862 1_555
Ba9 Na1 4.427866 1_655
Ba9 Na3 4.427867 1_565
Ba9 Na4 4.427874 1_554
Ba10 N2 2.520194 1_555
Ba10 Na7 4.427862 1_555
Ba10 Na6 4.427866 1_455
Ba10 Na5 4.427867 1_545
Ba10 Na2 4.427874 1_556
Ba11 N3 2.520194 1_555
Ba11 Na0 4.427862 1_555
Ba11 Na3 4.427866 1_565
Ba11 Na2 4.427866 1_556
Ba11 Na6 4.427874 1_455
Ba12 N4 2.520194 1_555
Ba12 Na7 4.427862 1_555
Ba12 Na5 4.427866 1_545
Ba12 Na4 4.427866 1_554
Ba12 Na1 4.427874 1_655
Ba13 N5 2.520194 1_555
Ba13 Na0 4.427862 1_555
Ba13 Na1 4.427866 1_655
Ba13 Na2 4.427866 1_556
Ba13 Na5 4.427874 1_545
Na0 Na12 3.677480 1_556
Na0 Na11 3.677480 1_565
Na0 Na9 3.677480 1_655
Na0 Na4 3.996104 1_555
Na0 Na5 3.996104 1_555
Na0 Na6 3.996104 1_555
Na1 Na9 3.677473 1_555
Na1 Na10 3.677484 1_555
Na1 Na13 3.677484 1_555
Na1 Na2 3.996104 1_555
Na1 Na7 3.996104 1_555
Na1 Na3 3.996104 1_555
Na2 Na8 3.677484 1_555
Na2 Na7 3.996104 1_555
Na2 Na3 3.996104 1_555
Na3 Na8 3.677484 1_555
Na3 Na7 3.996104 1_555
Na4 Na8 3.677484 1_566
Na4 Na5 3.996104 1_555
Na4 Na6 3.996104 1_555
Na5 Na8 3.677484 1_566
Na5 Na6 3.996104 1_555
Na6 Na9 3.677473 1_655
Na7 Na9 3.677480 1_555
Na10 Na6 3.677484 1_454
Na10 Na2 3.677484 1_555
Na10 Na4 3.677484 1_454
Na11 Na5 3.677473 1_545
Na11 Na3 3.677473 1_555
Na11 Na7 3.677480 1_555
Na12 Na4 3.677473 1_554
Na12 Na2 3.677473 1_555
Na12 Na7 3.677480 1_555
Na13 Na6 3.677484 1_445
Na13 Na3 3.677484 1_555
Na13 Na5 3.677484 1_445
N0 Sr0 2.656125 1_565
N1 Sr0 2.656125 1_665
N2 Sr0 2.656125 1_556
N3 Sr0 2.656125 1_566
N4 Sr0 2.656125 1_655
N5 Sr0 2.656125 1_656
