# generated using pymatgen
data_YFeTeO6
_symmetry_space_group_name_H-M   'P 1'
_cell_length_a   5.15558890
_cell_length_b   5.15529438
_cell_length_c   9.70356165
_cell_angle_alpha   90.00465048
_cell_angle_beta   89.99767504
_cell_angle_gamma   119.99809496
_symmetry_Int_Tables_number   1
_chemical_formula_structural   YFeTeO6
_chemical_formula_sum   'Y2 Fe2 Te2 O12'
_cell_volume   223.35819241
_cell_formula_units_Z   2
loop_
 _symmetry_equiv_pos_site_id
 _symmetry_equiv_pos_as_xyz
  1  'x, y, z'
loop_
 _atom_site_type_symbol
 _atom_site_label
 _atom_site_symmetry_multiplicity
 _atom_site_fract_x
 _atom_site_fract_y
 _atom_site_fract_z
 _atom_site_occupancy
  Y  Y0  1  0.00000000  0.00000000  0.00000000  1
  Y  Y1  1  0.00000000  0.00000000  0.50000000  1
  Fe  Fe0  1  0.33330380  0.66665240  0.25000000  1
  Fe  Fe1  1  0.66669620  0.33334760  0.75000000  1
  Te  Te0  1  0.33334541  0.66667221  0.75000000  1
  Te  Te1  1  0.66665459  0.33332779  0.25000000  1
  O  O0  1  0.36762866  0.35310614  0.13955061  1
  O  O1  1  0.64686002  0.01449727  0.13954119  1
  O  O2  1  0.98545827  0.63233176  0.13954014  1
  O  O3  1  0.63237134  0.64689386  0.86044939  1
  O  O4  1  0.35313998  0.98550273  0.86045881  1
  O  O5  1  0.01454173  0.36766824  0.86045986  1
  O  O6  1  0.64686002  0.63236375  0.36045881  1
  O  O7  1  0.36762866  0.01452253  0.36044939  1
  O  O8  1  0.98545827  0.35312752  0.36045986  1
  O  O9  1  0.35313998  0.36763625  0.63954119  1
  O  O10  1  0.63237134  0.98547747  0.63955061  1
  O  O11  1  0.01454173  0.64687248  0.63954014  1
loop_
_geom_bond_atom_site_label_1
_geom_bond_atom_site_label_2
_geom_bond_distance
_geom_bond_site_symmetry_2
Fe0 O7 2.019533 1_565
Fe0 O0 2.019537 1_555
Fe0 O2 2.019682 1_455
Fe0 O8 2.019683 1_455
Fe0 O6 2.019727 1_555
Fe0 O1 2.019727 1_565
Fe1 O10 2.019533 1_545
Fe1 O3 2.019537 1_555
Fe1 O5 2.019682 1_655
Fe1 O11 2.019683 1_655
Fe1 O9 2.019727 1_555
Fe1 O4 2.019727 1_545
O0 Te1 1.921740 1_555
O0 Y0 2.299899 1_555
O1 Te1 1.921690 1_555
O1 Y0 2.299918 1_655
O2 Te1 1.921756 1_555
O2 Y0 2.300007 1_665
O3 Te0 1.921740 1_555
O3 Y0 2.299899 1_666
O4 Te0 1.921690 1_555
O4 Y0 2.299918 1_566
O5 Te0 1.921756 1_555
O5 Y0 2.300007 1_556
O6 Te1 1.921690 1_555
O6 Y1 2.299916 1_665
O7 Te1 1.921742 1_555
O7 Y1 2.299899 1_555
O8 Te1 1.921755 1_555
O8 Y1 2.300012 1_655
O9 Te0 1.921690 1_555
O9 Y1 2.299916 1_555
O10 Te0 1.921742 1_555
O10 Y1 2.299899 1_665
O11 Te0 1.921755 1_555
O11 Y1 2.300012 1_565
