# generated using pymatgen
data_Sc10GaSi3As2
_symmetry_space_group_name_H-M   'P 1'
_cell_length_a   7.91606365
_cell_length_b   7.91606314
_cell_length_c   5.85183414
_cell_angle_alpha   90.00000000
_cell_angle_beta   90.00000000
_cell_angle_gamma   120.00765621
_symmetry_Int_Tables_number   1
_chemical_formula_structural   Sc10GaSi3As2
_chemical_formula_sum   'Sc10 Ga1 Si3 As2'
_cell_volume   317.54673860
_cell_formula_units_Z   1
loop_
 _symmetry_equiv_pos_site_id
 _symmetry_equiv_pos_as_xyz
  1  'x, y, z'
loop_
 _atom_site_type_symbol
 _atom_site_label
 _atom_site_symmetry_multiplicity
 _atom_site_fract_x
 _atom_site_fract_y
 _atom_site_fract_z
 _atom_site_occupancy
  Sc  Sc0  1  0.66589325  0.33272235  0.24555546  1
  Sc  Sc1  1  0.33272235  0.66589325  0.24555546  1
  Sc  Sc2  1  0.33272235  0.66589325  0.75444454  1
  Sc  Sc3  1  0.66589325  0.33272235  0.75444454  1
  Sc  Sc4  1  0.24423117  0.00407795  0.50000000  1
  Sc  Sc5  1  0.00407795  0.24423117  0.50000000  1
  Sc  Sc6  1  0.75891738  0.75891738  0.50000000  1
  Sc  Sc7  1  0.75604497  0.99785308  0.00000000  1
  Sc  Sc8  1  0.99785308  0.75604497  0.00000000  1
  Sc  Sc9  1  0.24110291  0.24110291  0.00000000  1
  Ga  Ga0  1  0.39787065  0.39787065  0.50000000  1
  Si  Si0  1  0.38970189  0.99821879  0.00000000  1
  Si  Si1  1  0.99821879  0.38970189  0.00000000  1
  Si  Si2  1  0.60491152  0.60491152  0.00000000  1
  As  As0  1  0.60969040  0.00001710  0.50000000  1
  As  As1  1  0.00001710  0.60969040  0.50000000  1
loop_
_geom_bond_atom_site_label_1
_geom_bond_atom_site_label_2
_geom_bond_distance
_geom_bond_site_symmetry_2
Sc0 Si2 2.825035 1_555
Sc0 Si1 2.828788 1_555
Sc0 Si0 2.840054 1_545
Sc1 Si2 2.825035 1_555
Sc1 Si0 2.828788 1_555
Sc1 Si1 2.840054 1_455
Sc2 Si2 2.825035 1_556
Sc2 Si0 2.828788 1_556
Sc2 Si1 2.840054 1_456
Sc3 Si2 2.825035 1_556
Sc3 Si1 2.828788 1_556
Sc3 Si0 2.840054 1_546
Sc4 Si0 3.153196 1_545
Sc4 Si0 3.153196 1_546
Sc5 Si1 3.153196 1_455
Sc5 Si1 3.153196 1_456
Sc6 Si2 3.169685 1_555
Sc6 Si2 3.169685 1_556
Sc7 Si1 2.710904 1_565
Sc7 Si2 2.717459 1_555
Sc7 Si0 2.901444 1_555
Sc8 Si0 2.710904 1_655
Sc8 Si2 2.717459 1_555
Sc8 Si1 2.901444 1_555
Sc9 Si0 2.709735 1_545
Sc9 Si1 2.709735 1_455
Sc9 Si2 2.879599 1_555
Ga0 Sc4 2.721119 1_555
Ga0 Sc5 2.721119 1_555
Ga0 Sc2 2.842354 1_555
Ga0 Sc1 2.842354 1_555
Ga0 Sc3 2.842354 1_555
Ga0 Sc0 2.842354 1_555
Ga0 Sc6 2.857738 1_555
Ga0 Sc9 3.178156 1_556
Ga0 Sc9 3.178156 1_555
As0 Sc6 2.700581 1_545
As0 Sc5 2.728973 1_655
As0 Sc3 2.859965 1_555
As0 Sc0 2.859965 1_555
As0 Sc2 2.866954 1_545
As0 Sc1 2.866954 1_545
As0 Sc4 2.909208 1_555
As0 Sc7 3.150139 1_545
As0 Sc7 3.150139 1_546
As1 Sc6 2.700581 1_455
As1 Sc4 2.728973 1_565
As1 Sc2 2.859965 1_555
As1 Sc1 2.859965 1_555
As1 Sc3 2.866954 1_455
As1 Sc0 2.866954 1_455
As1 Sc5 2.909208 1_555
As1 Sc8 3.150139 1_455
As1 Sc8 3.150139 1_456
