# generated using pymatgen
data_BaCrP2Ir
_symmetry_space_group_name_H-M   'P 1'
_cell_length_a   6.98238865
_cell_length_b   6.98238922
_cell_length_c   6.98238950
_cell_angle_alpha   147.00202393
_cell_angle_beta   147.00203106
_cell_angle_gamma   47.36078272
_symmetry_Int_Tables_number   1
_chemical_formula_structural   BaCrP2Ir
_chemical_formula_sum   'Ba1 Cr1 P2 Ir1'
_cell_volume   100.57835961
_cell_formula_units_Z   1
loop_
 _symmetry_equiv_pos_site_id
 _symmetry_equiv_pos_as_xyz
  1  'x, y, z'
loop_
 _atom_site_type_symbol
 _atom_site_label
 _atom_site_symmetry_multiplicity
 _atom_site_fract_x
 _atom_site_fract_y
 _atom_site_fract_z
 _atom_site_occupancy
  Ba  Ba0  1  0.00000000  0.00000000  0.00000000  1
  Cr  Cr0  1  0.25000000  0.75000000  0.50000000  1
  P  P0  1  0.65073275  0.65073275  0.00000000  1
  P  P1  1  0.34926725  0.34926725  1.00000000  1
  Ir  Ir0  1  0.75000000  0.25000000  0.50000000  1
loop_
_geom_bond_atom_site_label_1
_geom_bond_atom_site_label_2
_geom_bond_distance
_geom_bond_site_symmetry_2
Ba0 P0 3.403021 1_556
Ba0 P1 3.403021 1_443
Ba0 P1 3.403021 1_454
Ba0 P0 3.403021 1_545
Ba0 P0 3.403021 1_455
Ba0 P1 3.403021 1_544
Ba0 P1 3.403022 1_555
Ba0 P0 3.403022 1_444
Cr0 P0 2.354554 1_455
Cr0 P0 2.354555 1_556
Cr0 P1 2.354555 1_565
Cr0 P1 2.354555 1_554
Cr0 Ir0 2.804367 1_454
Cr0 Ir0 2.804367 1_566
Cr0 Ir0 2.804367 1_555
Cr0 Ir0 2.804367 1_465
Ir0 P1 2.354554 1_655
Ir0 P1 2.354555 1_554
Ir0 P0 2.354555 1_545
Ir0 P0 2.354555 1_556
