# generated using pymatgen
data_Ba3(ScS3)2
_symmetry_space_group_name_H-M   'P 1'
_cell_length_a   8.33302427
_cell_length_b   8.33302347
_cell_length_c   8.33302406
_cell_angle_alpha   93.62809815
_cell_angle_beta   93.62809756
_cell_angle_gamma   93.62809264
_symmetry_Int_Tables_number   1
_chemical_formula_structural   Ba3(ScS3)2
_chemical_formula_sum   'Ba6 Sc4 S12'
_cell_volume   575.00560624
_cell_formula_units_Z   2
loop_
 _symmetry_equiv_pos_site_id
 _symmetry_equiv_pos_as_xyz
  1  'x, y, z'
loop_
 _atom_site_type_symbol
 _atom_site_label
 _atom_site_symmetry_multiplicity
 _atom_site_fract_x
 _atom_site_fract_y
 _atom_site_fract_z
 _atom_site_occupancy
  Ba  Ba0  1  0.37089959  0.75000000  0.12910041  1
  Ba  Ba1  1  0.12910041  0.37089959  0.75000000  1
  Ba  Ba2  1  0.75000000  0.12910041  0.37089959  1
  Ba  Ba3  1  0.62910041  0.25000000  0.87089959  1
  Ba  Ba4  1  0.87089959  0.62910041  0.25000000  1
  Ba  Ba5  1  0.25000000  0.87089959  0.62910041  1
  Sc  Sc0  1  0.50000000  0.50000000  0.50000000  1
  Sc  Sc1  1  0.00000000  0.00000000  0.00000000  1
  Sc  Sc2  1  0.25000000  0.25000000  0.25000000  1
  Sc  Sc3  1  0.75000000  0.75000000  0.75000000  1
  S  S0  1  0.53049542  0.40387727  0.20416370  1
  S  S1  1  0.20416370  0.53049542  0.40387727  1
  S  S2  1  0.40387727  0.20416370  0.53049542  1
  S  S3  1  0.96950458  0.29583630  0.09612273  1
  S  S4  1  0.09612273  0.96950458  0.29583630  1
  S  S5  1  0.29583630  0.09612273  0.96950458  1
  S  S6  1  0.46950458  0.59612273  0.79583630  1
  S  S7  1  0.79583630  0.46950458  0.59612273  1
  S  S8  1  0.59612273  0.79583630  0.46950458  1
  S  S9  1  0.03049542  0.70416370  0.90387727  1
  S  S10  1  0.70416370  0.90387727  0.03049542  1
  S  S11  1  0.90387727  0.03049542  0.70416370  1
loop_
_geom_bond_atom_site_label_1
_geom_bond_atom_site_label_2
_geom_bond_distance
_geom_bond_site_symmetry_2
Ba0 S6 3.162766 1_554
Ba0 S10 3.162766 1_555
Ba0 S8 3.288297 1_555
Ba0 S9 3.288297 1_554
Ba0 S0 3.329764 1_555
Ba0 S5 3.329764 1_564
Ba0 S4 3.336179 1_555
Ba0 S1 3.336179 1_555
Ba1 S9 3.162766 1_555
Ba1 S7 3.162766 1_455
Ba1 S11 3.288297 1_455
Ba1 S6 3.288297 1_555
Ba1 S1 3.329764 1_555
Ba1 S3 3.329764 1_456
Ba1 S5 3.336179 1_555
Ba1 S2 3.336179 1_555
Ba2 S8 3.162766 1_545
Ba2 S11 3.162766 1_555
Ba2 S7 3.288297 1_555
Ba2 S10 3.288297 1_545
Ba2 S4 3.329764 1_645
Ba2 S2 3.329764 1_555
Ba2 S0 3.336179 1_555
Ba2 S3 3.336179 1_555
Ba3 S0 3.162766 1_556
Ba3 S5 3.162766 1_555
Ba3 S2 3.288297 1_555
Ba3 S3 3.288297 1_556
Ba3 S6 3.329764 1_555
Ba3 S10 3.329764 1_546
Ba3 S11 3.336179 1_555
Ba3 S7 3.336179 1_555
Ba4 S3 3.162766 1_555
Ba4 S1 3.162766 1_655
Ba4 S4 3.288297 1_655
Ba4 S0 3.288297 1_555
Ba4 S7 3.329764 1_555
Ba4 S9 3.329764 1_654
Ba4 S10 3.336179 1_555
Ba4 S8 3.336179 1_555
Ba5 S2 3.162766 1_565
Ba5 S4 3.162766 1_555
Ba5 S1 3.288297 1_555
Ba5 S5 3.288297 1_565
Ba5 S11 3.329764 1_465
Ba5 S8 3.329764 1_555
Ba5 S6 3.336179 1_555
Ba5 S9 3.336179 1_555
S0 Sc0 2.576542 1_555
S0 Sc2 2.655008 1_555
S1 Sc0 2.576542 1_555
S1 Sc2 2.655008 1_555
S2 Sc0 2.576542 1_555
S2 Sc2 2.655008 1_555
S3 Sc1 2.576542 1_655
S3 Sc2 2.655008 1_655
S4 Sc1 2.576542 1_565
S4 Sc2 2.655008 1_565
S5 Sc1 2.576542 1_556
S5 Sc2 2.655008 1_556
S6 Sc0 2.576542 1_555
S6 Sc3 2.655008 1_555
S7 Sc0 2.576542 1_555
S7 Sc3 2.655008 1_555
S8 Sc0 2.576542 1_555
S8 Sc3 2.655008 1_555
S9 Sc1 2.576542 1_566
S9 Sc3 2.655008 1_455
S10 Sc1 2.576542 1_665
S10 Sc3 2.655008 1_554
S11 Sc1 2.576542 1_656
S11 Sc3 2.655008 1_545
