# generated using pymatgen
data_CdHgIr2O7
_symmetry_space_group_name_H-M   'P 1'
_cell_length_a   7.21481031
_cell_length_b   7.21481097
_cell_length_c   7.15661893
_cell_angle_alpha   60.26644354
_cell_angle_beta   60.26644052
_cell_angle_gamma   60.50249481
_symmetry_Int_Tables_number   1
_chemical_formula_structural   CdHgIr2O7
_chemical_formula_sum   'Cd2 Hg2 Ir4 O14'
_cell_volume   265.47006499
_cell_formula_units_Z   2
loop_
 _symmetry_equiv_pos_site_id
 _symmetry_equiv_pos_as_xyz
  1  'x, y, z'
loop_
 _atom_site_type_symbol
 _atom_site_label
 _atom_site_symmetry_multiplicity
 _atom_site_fract_x
 _atom_site_fract_y
 _atom_site_fract_z
 _atom_site_occupancy
  Cd  Cd0  1  0.62500000  0.12500000  0.12500000  1
  Cd  Cd1  1  0.12500000  0.62500000  0.12500000  1
  Hg  Hg0  1  0.12500000  0.12500000  0.62500000  1
  Hg  Hg1  1  0.12500000  0.12500000  0.12500000  1
  Ir  Ir0  1  0.12500000  0.62500000  0.62500000  1
  Ir  Ir1  1  0.62500000  0.12500000  0.62500000  1
  Ir  Ir2  1  0.62500000  0.62500000  0.12500000  1
  Ir  Ir3  1  0.62500000  0.62500000  0.62500000  1
  O  O0  1  0.70049357  0.70049357  0.29950643  1
  O  O1  1  0.30392888  0.30392888  0.69607112  1
  O  O2  1  0.69202291  0.30166953  0.70647991  1
  O  O3  1  0.30166953  0.69202291  0.29982764  1
  O  O4  1  0.30166953  0.69202291  0.70647991  1
  O  O5  1  0.69202291  0.30166953  0.29982764  1
  O  O6  1  0.54950643  0.54950643  0.95049357  1
  O  O7  1  0.94607112  0.94607112  0.55392888  1
  O  O8  1  0.55797709  0.94833047  0.54352009  1
  O  O9  1  0.94833047  0.55797709  0.95017236  1
  O  O10  1  0.94833047  0.55797709  0.54352009  1
  O  O11  1  0.55797709  0.94833047  0.95017236  1
  O  O12  1  0.24289958  0.24289958  0.25710042  1
  O  O13  1  0.00710042  0.00710042  0.99289958  1
loop_
_geom_bond_atom_site_label_1
_geom_bond_atom_site_label_2
_geom_bond_distance
_geom_bond_site_symmetry_2
Cd0 O12 2.262823 1_555
Cd0 O13 2.262823 1_654
Cd0 O8 2.492590 1_545
Cd0 O2 2.492590 1_554
Cd0 O5 2.492591 1_555
Cd0 O11 2.492591 1_544
Cd0 O6 2.544510 1_554
Cd0 O0 2.544510 1_545
Cd1 O13 2.262823 1_564
Cd1 O12 2.262823 1_555
Cd1 O10 2.492590 1_455
Cd1 O4 2.492590 1_554
Cd1 O3 2.492591 1_555
Cd1 O9 2.492591 1_454
Cd1 O6 2.544510 1_554
Cd1 O0 2.544510 1_455
Hg0 O13 2.156107 1_555
Hg0 O12 2.156107 1_555
Hg0 O1 2.556465 1_555
Hg0 O7 2.556465 1_445
Hg0 O8 2.594687 1_545
Hg0 O2 2.594687 1_455
Hg0 O10 2.594688 1_455
Hg0 O4 2.594688 1_545
Hg1 O12 2.156108 1_555
Hg1 O13 2.156108 1_554
Hg1 O7 2.556464 1_445
Hg1 O1 2.556464 1_554
Hg1 O11 2.594687 1_544
Hg1 O5 2.594687 1_455
Hg1 O9 2.594688 1_454
Hg1 O3 2.594688 1_545
Ir0 O9 1.955122 1_455
Ir0 O3 1.955122 1_555
Ir0 O4 1.955122 1_555
Ir0 O10 1.955122 1_455
Ir0 O7 1.956774 1_455
Ir0 O1 1.956774 1_555
Ir1 O11 1.955122 1_545
Ir1 O5 1.955122 1_555
Ir1 O2 1.955122 1_555
Ir1 O8 1.955122 1_545
Ir1 O7 1.956773 1_545
Ir1 O1 1.956773 1_555
Ir2 O0 1.947988 1_555
Ir2 O6 1.947988 1_554
Ir2 O9 1.958366 1_554
Ir2 O3 1.958366 1_555
Ir2 O11 1.958367 1_554
Ir2 O5 1.958367 1_555
Ir3 O6 1.947988 1_555
Ir3 O0 1.947988 1_555
Ir3 O10 1.958366 1_555
Ir3 O4 1.958366 1_555
Ir3 O8 1.958367 1_555
Ir3 O2 1.958367 1_555
