# generated using pymatgen
data_K3B2SbPt6
_symmetry_space_group_name_H-M   'P 1'
_cell_length_a   8.17572939
_cell_length_b   8.17572942
_cell_length_c   8.17572764
_cell_angle_alpha   41.29786048
_cell_angle_beta   41.29785981
_cell_angle_gamma   41.29786141
_symmetry_Int_Tables_number   1
_chemical_formula_structural   K3B2SbPt6
_chemical_formula_sum   'K3 B2 Sb1 Pt6'
_cell_volume   215.01491575
_cell_formula_units_Z   1
loop_
 _symmetry_equiv_pos_site_id
 _symmetry_equiv_pos_as_xyz
  1  'x, y, z'
loop_
 _atom_site_type_symbol
 _atom_site_label
 _atom_site_symmetry_multiplicity
 _atom_site_fract_x
 _atom_site_fract_y
 _atom_site_fract_z
 _atom_site_occupancy
  K  K0  1  0.86168230  0.86168230  0.86168230  1
  K  K1  1  0.13831770  0.13831770  0.13831770  1
  K  K2  1  0.00000000  0.00000000  0.00000000  1
  B  B0  1  0.66971589  0.66971589  0.66971589  1
  B  B1  1  0.33028411  0.33028411  0.33028411  1
  Sb  Sb0  1  0.50000000  0.50000000  0.50000000  1
  Pt  Pt0  1  0.43826900  0.93391303  0.43826900  1
  Pt  Pt1  1  0.43826900  0.43826900  0.93391303  1
  Pt  Pt2  1  0.93391303  0.43826900  0.43826900  1
  Pt  Pt3  1  0.56173100  0.06608697  0.56173100  1
  Pt  Pt4  1  0.56173100  0.56173100  0.06608697  1
  Pt  Pt5  1  0.06608697  0.56173100  0.56173100  1
loop_
_geom_bond_atom_site_label_1
_geom_bond_atom_site_label_2
_geom_bond_distance
_geom_bond_site_symmetry_2
K0 K2 3.098551 1_666
K0 Pt0 3.338477 1_556
K0 Pt2 3.338477 1_556
K0 Pt1 3.338478 1_655
K0 Pt1 3.338478 1_565
K0 Pt0 3.338478 1_655
K0 Pt2 3.338478 1_565
K0 Sb0 3.389144 1_556
K0 Sb0 3.389145 1_655
K0 Sb0 3.389145 1_565
K0 Pt5 3.397214 1_655
K0 Pt3 3.397214 1_565
K0 Pt4 3.397215 1_556
K0 K1 3.563175 1_665
K0 K1 3.563176 1_566
K0 K1 3.563176 1_656
K1 K2 3.098551 1_555
K1 Pt3 3.338477 1_554
K1 Pt5 3.338477 1_554
K1 Pt4 3.338478 1_455
K1 Pt4 3.338478 1_545
K1 Pt3 3.338478 1_455
K1 Pt5 3.338478 1_545
K1 Sb0 3.389144 1_554
K1 Sb0 3.389145 1_455
K1 Sb0 3.389145 1_545
K1 Pt2 3.397214 1_455
K1 Pt0 3.397214 1_545
K1 Pt1 3.397215 1_554
K2 Pt3 3.211826 1_455
K2 Pt0 3.211826 1_544
K2 Pt5 3.211826 1_545
K2 Pt2 3.211826 1_454
K2 Pt4 3.211827 1_545
K2 Pt1 3.211827 1_454
K2 Pt4 3.211827 1_455
K2 Pt1 3.211827 1_544
K2 Pt3 3.211827 1_554
K2 Pt0 3.211827 1_445
K2 Pt5 3.211827 1_554
K2 Pt2 3.211827 1_445
B0 Pt4 2.152651 1_556
B0 Pt5 2.152652 1_655
B0 Pt3 2.152652 1_565
B0 Pt2 2.219028 1_555
B0 Pt0 2.219028 1_555
B0 Pt1 2.219029 1_555
B0 K2 3.329813 1_665
B0 K2 3.329814 1_566
B0 K2 3.329814 1_656
B1 Pt1 2.152651 1_554
B1 Pt2 2.152652 1_455
B1 Pt0 2.152652 1_545
B1 Pt5 2.219028 1_555
B1 Pt3 2.219028 1_555
B1 Pt4 2.219029 1_555
B1 K2 3.329813 1_556
B1 K2 3.329814 1_655
B1 K2 3.329814 1_565
Pt0 Sb0 2.845484 1_555
Pt1 Sb0 2.845483 1_555
Pt2 Sb0 2.845484 1_555
Pt3 Sb0 2.845484 1_555
Pt4 Sb0 2.845483 1_555
Pt5 Sb0 2.845484 1_555
