# generated using pymatgen
data_Ti2MnAl2Ir3
_symmetry_space_group_name_H-M   'P 1'
_cell_length_a   4.28104834
_cell_length_b   6.01694733
_cell_length_c   12.79396855
_cell_angle_alpha   89.92322564
_cell_angle_beta   90.00000627
_cell_angle_gamma   90.00001814
_symmetry_Int_Tables_number   1
_chemical_formula_structural   Ti2MnAl2Ir3
_chemical_formula_sum   'Ti6 Mn3 Al6 Ir9'
_cell_volume   329.55752357
_cell_formula_units_Z   3
loop_
 _symmetry_equiv_pos_site_id
 _symmetry_equiv_pos_as_xyz
  1  'x, y, z'
loop_
 _atom_site_type_symbol
 _atom_site_label
 _atom_site_symmetry_multiplicity
 _atom_site_fract_x
 _atom_site_fract_y
 _atom_site_fract_z
 _atom_site_occupancy
  Ti  Ti0  1  0.00000830  0.49852710  0.98407934  1
  Ti  Ti1  1  0.49996652  0.99949919  0.16361827  1
  Ti  Ti2  1  0.99996477  0.49884995  0.33495503  1
  Ti  Ti3  1  0.50000321  0.99121027  0.51078172  1
  Ti  Ti4  1  0.00003071  0.51445039  0.67882024  1
  Ti  Ti5  1  0.50002380  0.99241657  0.82751168  1
  Mn  Mn0  1  0.50002816  0.75436882  0.66439824  1
  Mn  Mn1  1  0.00003107  0.25320695  0.83406286  1
  Mn  Mn2  1  0.00002853  0.74914108  0.83459416  1
  Al  Al0  1  0.00000793  0.00023005  0.98932700  1
  Al  Al1  1  0.49995306  0.49856825  0.16421000  1
  Al  Al2  1  0.99996978  0.99968267  0.33481513  1
  Al  Al3  1  0.50000082  0.50186579  0.50682091  1
  Al  Al4  1  0.00003611  0.99471499  0.67658539  1
  Al  Al5  1  0.50002813  0.50702633  0.82809358  1
  Ir  Ir0  1  0.50000712  0.24947303  0.99916340  1
  Ir  Ir1  1  0.50000085  0.74986374  0.00038014  1
  Ir  Ir2  1  0.99996341  0.24839466  0.16675141  1
  Ir  Ir3  1  0.99996611  0.74961470  0.16669696  1
  Ir  Ir4  1  0.49996988  0.24913381  0.33379876  1
  Ir  Ir5  1  0.49997101  0.74850685  0.33288060  1
  Ir  Ir6  1  0.00000092  0.24964795  0.50025700  1
  Ir  Ir7  1  0.00000153  0.74926615  0.50019264  1
  Ir  Ir8  1  0.50003424  0.25234371  0.66720254  1
loop_
_geom_bond_atom_site_label_1
_geom_bond_atom_site_label_2
_geom_bond_distance
_geom_bond_site_symmetry_2
Mn0 Ti3 2.426099 1_555
Mn0 Ti5 2.532701 1_555
Mn0 Ti4 2.588250 1_555
Mn0 Ti4 2.588269 1_655
Mn1 Ti0 2.422836 1_555
Mn1 Ti4 2.531271 1_555
Mn1 Ti5 2.655440 1_545
Mn1 Ti5 2.655489 1_445
Mn2 Ti0 2.433889 1_555
Mn2 Ti4 2.444084 1_555
Mn2 Ti5 2.594658 1_555
Mn2 Ti5 2.594692 1_455
Al0 Mn2 2.491887 1_545
Al0 Mn1 2.500959 1_555
Al0 Ir0 2.616718 1_555
Al0 Ir0 2.616725 1_455
Al0 Ir1 2.621165 1_546
Al0 Ir1 2.621214 1_446
Al0 Ir2 2.718720 1_456
Al0 Ir3 2.722917 1_446
Al1 Ir1 2.582848 1_555
Al1 Ir0 2.591085 1_554
Al1 Ir2 2.616954 1_455
Al1 Ir2 2.617028 1_555
Al1 Ir3 2.620011 1_455
Al1 Ir3 2.620102 1_555
Al1 Ir5 2.631945 1_555
Al1 Ir4 2.636557 1_555
Al2 Ir7 2.595860 1_655
Al2 Ir6 2.598244 1_665
Al2 Ir4 2.614338 1_665
Al2 Ir4 2.614338 1_565
Al2 Ir2 2.618056 1_565
Al2 Ir5 2.620419 1_555
Al2 Ir5 2.620428 1_655
Al2 Ir3 2.626594 1_555
Al3 Mn0 2.526042 1_555
Al3 Ir8 2.540904 1_555
Al3 Ir7 2.608563 1_555
Al3 Ir7 2.608567 1_655
Al3 Ir6 2.625317 1_555
Al3 Ir6 2.625318 1_655
Al3 Ir5 2.673169 1_555
Al3 Ir4 2.687318 1_555
Al4 Mn2 2.502402 1_555
Al4 Mn1 2.546904 1_565
Al4 Mn0 2.588043 1_555
Al4 Mn0 2.588099 1_455
Al4 Ir8 2.645496 1_565
Al4 Ir8 2.645510 1_465
Al4 Ir7 2.698705 1_555
Al4 Ir6 2.726334 1_565
Al5 Mn0 2.567620 1_555
Al5 Ir8 2.567858 1_555
Al5 Mn2 2.590622 1_555
Al5 Mn2 2.590624 1_655
Al5 Mn1 2.630533 1_555
Al5 Mn1 2.630554 1_655
Al5 Ir1 2.646164 1_556
Al5 Ir0 2.680051 1_555
Ir0 Ti1 2.584708 1_546
Ir0 Ti0 2.619910 1_555
Ir0 Ti0 2.619918 1_655
Ir0 Ti5 2.687797 1_545
Ir1 Ti1 2.574145 1_555
Ir1 Ti0 2.629265 1_554
Ir1 Ti0 2.629317 1_654
Ir1 Ti5 2.648165 1_554
Ir1 Ir3 3.018104 1_555
Ir1 Ir3 3.018316 1_455
Ir2 Ti1 2.612725 1_545
Ir2 Ti1 2.612747 1_645
Ir2 Ti2 2.628828 1_555
Ir2 Ti0 2.778082 1_654
Ir2 Ir3 3.001134 1_545
Ir2 Ir3 3.015814 1_555
Ir3 Ti1 2.616079 1_555
Ir3 Ti1 2.616081 1_655
Ir3 Ti2 2.627157 1_555
Ir3 Ti0 2.784008 1_654
Ir3 Ir5 3.016996 1_555
Ir3 Ir5 3.017026 1_655
Ir4 Ti2 2.615267 1_555
Ir4 Ti2 2.615303 1_455
Ir4 Ti1 2.646781 1_545
Ir4 Ti3 2.743380 1_545
Ir4 Ir6 3.019397 1_555
Ir4 Ir6 3.019586 1_655
Ir5 Ti2 2.615120 1_555
Ir5 Ti2 2.615163 1_455
Ir5 Ti1 2.638468 1_555
Ir5 Ti3 2.705908 1_555
Ir6 Ti2 2.590845 1_455
Ir6 Ti3 2.649040 1_445
Ir6 Ti3 2.649057 1_545
Ir6 Ti4 2.787016 1_555
Ir6 Ir7 3.006175 1_555
Ir6 Ir7 3.010772 1_545
Ir6 Ir8 3.023845 1_455
Ir6 Ir8 3.024047 1_555
Ir7 Ti3 2.592286 1_455
Ir7 Ti3 2.592298 1_555
Ir7 Ti2 2.597689 1_455
Ir7 Ti4 2.685221 1_555
Ir8 Ti3 2.546007 1_545
Ir8 Ti5 2.577588 1_545
Ir8 Ti4 2.663022 1_655
Ir8 Ti4 2.663047 1_555
