# generated using pymatgen
data_Hf3AlOs2N
_symmetry_space_group_name_H-M   'P 1'
_cell_length_a   8.43977273
_cell_length_b   8.43977209
_cell_length_c   8.43977226
_cell_angle_alpha   59.99999936
_cell_angle_beta   60.00000185
_cell_angle_gamma   60.00000319
_symmetry_Int_Tables_number   1
_chemical_formula_structural   Hf3AlOs2N
_chemical_formula_sum   'Hf12 Al4 Os8 N4'
_cell_volume   425.08640460
_cell_formula_units_Z   4
loop_
 _symmetry_equiv_pos_site_id
 _symmetry_equiv_pos_as_xyz
  1  'x, y, z'
loop_
 _atom_site_type_symbol
 _atom_site_label
 _atom_site_symmetry_multiplicity
 _atom_site_fract_x
 _atom_site_fract_y
 _atom_site_fract_z
 _atom_site_occupancy
  Hf  Hf0  1  0.80800247  0.80800247  0.19199753  1
  Hf  Hf1  1  0.19199753  0.19199753  0.80800247  1
  Hf  Hf2  1  0.80800247  0.19199753  0.80800247  1
  Hf  Hf3  1  0.19199753  0.80800247  0.19199753  1
  Hf  Hf4  1  0.19199753  0.80800247  0.80800247  1
  Hf  Hf5  1  0.80800247  0.19199753  0.19199753  1
  Hf  Hf6  1  0.44199753  0.44199753  0.05800247  1
  Hf  Hf7  1  0.05800247  0.05800247  0.44199753  1
  Hf  Hf8  1  0.44199753  0.05800247  0.44199753  1
  Hf  Hf9  1  0.05800247  0.44199753  0.05800247  1
  Hf  Hf10  1  0.05800247  0.44199753  0.44199753  1
  Hf  Hf11  1  0.44199753  0.05800247  0.05800247  1
  Al  Al0  1  0.12500000  0.62500000  0.62500000  1
  Al  Al1  1  0.62500000  0.12500000  0.62500000  1
  Al  Al2  1  0.62500000  0.62500000  0.12500000  1
  Al  Al3  1  0.62500000  0.62500000  0.62500000  1
  Os  Os0  1  0.75165426  0.41611425  0.41611425  1
  Os  Os1  1  0.41611425  0.75165426  0.41611425  1
  Os  Os2  1  0.41611425  0.41611425  0.75165426  1
  Os  Os3  1  0.41611425  0.41611425  0.41611425  1
  Os  Os4  1  0.49834574  0.83388575  0.83388575  1
  Os  Os5  1  0.83388575  0.49834574  0.83388575  1
  Os  Os6  1  0.83388575  0.83388575  0.49834574  1
  Os  Os7  1  0.83388575  0.83388575  0.83388575  1
  N  N0  1  0.62500000  0.12500000  0.12500000  1
  N  N1  1  0.12500000  0.62500000  0.12500000  1
  N  N2  1  0.12500000  0.12500000  0.62500000  1
  N  N3  1  0.12500000  0.12500000  0.12500000  1
loop_
_geom_bond_atom_site_label_1
_geom_bond_atom_site_label_2
_geom_bond_distance
_geom_bond_site_symmetry_2
Hf0 N0 2.256394 1_565
Hf0 N1 2.256394 1_655
Hf0 Os7 2.820900 1_554
Hf0 Os6 2.820926 1_555
Hf0 Os0 3.026629 1_555
Hf0 Os1 3.026629 1_555
Hf1 N3 2.256394 1_556
Hf1 N2 2.256394 1_555
Hf1 Os4 2.820911 1_545
Hf1 Os5 2.820911 1_455
Hf1 Os2 3.026607 1_555
Hf1 Os3 3.026619 1_555
Hf2 N0 2.256394 1_556
Hf2 N2 2.256394 1_655
Hf2 Os7 2.820900 1_545
Hf2 Os5 2.820926 1_555
Hf2 Os0 3.026629 1_555
Hf2 Os2 3.026629 1_555
Hf3 N3 2.256394 1_565
Hf3 N1 2.256394 1_555
Hf3 Os4 2.820911 1_554
Hf3 Os6 2.820911 1_455
Hf3 Os1 3.026607 1_555
Hf3 Os3 3.026619 1_555
Hf4 N2 2.256394 1_565
Hf4 N1 2.256394 1_556
Hf4 Os7 2.820901 1_455
Hf4 Os4 2.820926 1_555
Hf4 Os2 3.026629 1_555
Hf4 Os1 3.026629 1_555
Hf5 N0 2.256394 1_555
Hf5 N3 2.256394 1_655
Hf5 Os6 2.820911 1_545
Hf5 Os5 2.820911 1_554
Hf5 Os0 3.026607 1_555
Hf5 Os3 3.026619 1_555
Hf6 N0 2.256394 1_555
Hf6 N1 2.256394 1_555
Hf6 Os3 2.820900 1_555
Hf6 Os2 2.820926 1_554
Hf6 Os4 3.026629 1_554
Hf6 Os5 3.026629 1_554
Hf7 N3 2.256394 1_555
Hf7 N2 2.256394 1_555
Hf7 Os0 2.820911 1_455
Hf7 Os1 2.820911 1_545
Hf7 Os6 3.026607 1_445
Hf7 Os7 3.026619 1_445
Hf8 N0 2.256394 1_555
Hf8 N2 2.256394 1_555
Hf8 Os3 2.820900 1_555
Hf8 Os1 2.820926 1_545
Hf8 Os4 3.026629 1_545
Hf8 Os6 3.026629 1_545
Hf9 N3 2.256394 1_555
Hf9 N1 2.256394 1_555
Hf9 Os0 2.820911 1_455
Hf9 Os2 2.820911 1_554
Hf9 Os5 3.026607 1_454
Hf9 Os7 3.026619 1_454
Hf10 N2 2.256394 1_555
Hf10 N1 2.256394 1_555
Hf10 Os3 2.820901 1_555
Hf10 Os0 2.820926 1_455
Hf10 Os6 3.026629 1_455
Hf10 Os5 3.026629 1_455
Hf11 N0 2.256394 1_555
Hf11 N3 2.256394 1_555
Hf11 Os2 2.820911 1_554
Hf11 Os1 2.820911 1_545
Hf11 Os4 3.026607 1_544
Hf11 Os7 3.026619 1_544
Al0 Os1 2.587957 1_555
Al0 Os5 2.587957 1_455
Al0 Os2 2.587957 1_555
Al0 Os6 2.587957 1_455
Al0 Os7 2.587971 1_455
Al0 Os3 2.587971 1_555
Al1 Os0 2.587957 1_555
Al1 Os4 2.587957 1_545
Al1 Os2 2.587957 1_555
Al1 Os6 2.587957 1_545
Al1 Os7 2.587971 1_545
Al1 Os3 2.587971 1_555
Al2 Os0 2.587957 1_555
Al2 Os4 2.587957 1_554
Al2 Os1 2.587957 1_555
Al2 Os5 2.587957 1_554
Al2 Os7 2.587971 1_554
Al2 Os3 2.587971 1_555
Al3 Os6 2.587978 1_555
Al3 Os2 2.587978 1_555
Al3 Os4 2.587978 1_555
Al3 Os0 2.587978 1_555
Al3 Os5 2.587978 1_555
Al3 Os1 2.587978 1_555
