# generated using pymatgen
data_Lu4Cu(SiIr)6
_symmetry_space_group_name_H-M   'P 1'
_cell_length_a   7.03623390
_cell_length_b   7.03623423
_cell_length_c   7.03623404
_cell_angle_alpha   109.49296911
_cell_angle_beta   109.49297244
_cell_angle_gamma   109.42772716
_symmetry_Int_Tables_number   1
_chemical_formula_structural   Lu4Cu(SiIr)6
_chemical_formula_sum   'Lu4 Cu1 Si6 Ir6'
_cell_volume   268.16294433
_cell_formula_units_Z   1
loop_
 _symmetry_equiv_pos_site_id
 _symmetry_equiv_pos_as_xyz
  1  'x, y, z'
loop_
 _atom_site_type_symbol
 _atom_site_label
 _atom_site_symmetry_multiplicity
 _atom_site_fract_x
 _atom_site_fract_y
 _atom_site_fract_z
 _atom_site_occupancy
  Lu  Lu0  1  0.00150059  0.99849941  0.50000000  1
  Lu  Lu1  1  0.00150059  0.50150059  0.00300217  1
  Lu  Lu2  1  0.49849941  0.99849941  0.99699783  1
  Lu  Lu3  1  0.49849941  0.50150059  0.50000000  1
  Cu  Cu0  1  0.75000000  0.25000000  0.50000000  1
  Si  Si0  1  0.67693509  0.67693509  0.00000000  1
  Si  Si1  1  0.31744344  0.99672801  0.32071543  1
  Si  Si2  1  0.00327199  0.32398843  0.32071543  1
  Si  Si3  1  0.32306491  0.32306491  1.00000000  1
  Si  Si4  1  0.67601157  0.99672801  0.67928457  1
  Si  Si5  1  0.00327199  0.68255656  0.67928457  1
  Ir  Ir0  1  0.74773623  0.49430495  0.25343128  1
  Ir  Ir1  1  0.50569505  0.25226377  0.74656872  1
  Ir  Ir2  1  0.24087366  0.49430495  0.74656872  1
  Ir  Ir3  1  0.25000000  0.75000000  0.50000000  1
  Ir  Ir4  1  0.50569505  0.75912634  0.25343128  1
  Ir  Ir5  1  0.00000000  0.00000000  0.00000000  1
loop_
_geom_bond_atom_site_label_1
_geom_bond_atom_site_label_2
_geom_bond_distance
_geom_bond_site_symmetry_2
Lu0 Si1 2.900511 1_555
Lu0 Si5 2.900511 1_555
Lu0 Si0 2.932589 1_455
Lu0 Si3 2.932589 1_565
Lu0 Si4 2.959092 1_455
Lu0 Si2 2.959092 1_565
Lu1 Si2 2.900499 1_555
Lu1 Si1 2.900510 1_555
Lu1 Si0 2.932588 1_455
Lu1 Si3 2.932590 1_554
Lu1 Si4 2.959088 1_444
Lu1 Si5 2.959092 1_554
Lu2 Si4 2.900499 1_555
Lu2 Si5 2.900510 1_555
Lu2 Si3 2.932588 1_565
Lu2 Si0 2.932590 1_556
Lu2 Si2 2.959088 1_666
Lu2 Si1 2.959092 1_556
Lu3 Si2 2.900511 1_555
Lu3 Si4 2.900512 1_555
Lu3 Si0 2.932589 1_556
Lu3 Si3 2.932589 1_554
Lu3 Si5 2.959086 1_655
Lu3 Si1 2.959086 1_545
Cu0 Si1 2.521830 1_545
Cu0 Si5 2.521830 1_655
Cu0 Si2 2.521831 1_655
Cu0 Si4 2.521831 1_545
Cu0 Ir2 2.820497 1_655
Cu0 Ir1 2.820497 1_555
Cu0 Ir0 2.820497 1_555
Cu0 Ir4 2.820497 1_545
Cu0 Lu3 2.888997 1_555
Cu0 Lu0 2.888997 1_645
Cu0 Lu2 2.889002 1_544
Cu0 Lu1 2.889002 1_656
Ir0 Si2 2.477304 1_655
Ir0 Si5 2.477310 1_655
Ir0 Si3 2.484997 1_554
Ir0 Si0 2.538024 1_555
Ir0 Lu3 2.849364 1_555
Ir0 Lu2 2.849364 1_544
Ir0 Lu1 2.897382 1_655
Ir0 Lu0 2.897388 1_655
Ir1 Si4 2.477304 1_545
Ir1 Si1 2.477310 1_545
Ir1 Si0 2.484997 1_556
Ir1 Si3 2.538024 1_555
Ir1 Lu3 2.849364 1_555
Ir1 Lu1 2.849364 1_656
Ir1 Lu2 2.897382 1_545
Ir1 Lu0 2.897387 1_545
Ir2 Si5 2.477310 1_555
Ir2 Si2 2.477311 1_555
Ir2 Si3 2.484997 1_555
Ir2 Si0 2.538024 1_556
Ir2 Lu0 2.849364 1_545
Ir2 Lu1 2.849369 1_556
Ir2 Lu3 2.897387 1_555
Ir2 Lu2 2.897388 1_555
Ir3 Si4 2.478584 1_555
Ir3 Si2 2.478584 1_555
Ir3 Si5 2.478590 1_555
Ir3 Si1 2.478590 1_555
Ir3 Lu1 2.854516 1_555
Ir3 Lu2 2.854516 1_555
Ir3 Lu3 2.854522 1_555
Ir3 Lu0 2.854522 1_555
Ir4 Si1 2.477310 1_555
Ir4 Si4 2.477311 1_555
Ir4 Si0 2.484997 1_555
Ir4 Si3 2.538024 1_554
Ir4 Lu0 2.849364 1_655
Ir4 Lu2 2.849369 1_554
Ir4 Lu3 2.897387 1_555
Ir4 Lu1 2.897387 1_555
Ir5 Si1 2.605167 1_545
Ir5 Si5 2.605167 1_544
Ir5 Si4 2.605171 1_444
Ir5 Si2 2.605171 1_555
Ir5 Si3 2.626228 1_554
Ir5 Si0 2.626228 1_445
