# generated using pymatgen
data_Zr4Re24Sn
_symmetry_space_group_name_H-M   'P 1'
_cell_length_a   8.44202538
_cell_length_b   8.44202506
_cell_length_c   8.44202494
_cell_angle_alpha   109.47122507
_cell_angle_beta   109.47122430
_cell_angle_gamma   109.47122108
_symmetry_Int_Tables_number   1
_chemical_formula_structural   Zr4Re24Sn
_chemical_formula_sum   'Zr4 Re24 Sn1'
_cell_volume   463.14607171
_cell_formula_units_Z   1
loop_
 _symmetry_equiv_pos_site_id
 _symmetry_equiv_pos_as_xyz
  1  'x, y, z'
loop_
 _atom_site_type_symbol
 _atom_site_label
 _atom_site_symmetry_multiplicity
 _atom_site_fract_x
 _atom_site_fract_y
 _atom_site_fract_z
 _atom_site_occupancy
  Zr  Zr0  1  0.63041304  1.00000000  1.00000000  1
  Zr  Zr1  1  1.00000000  0.63041304  1.00000000  1
  Zr  Zr2  1  1.00000000  1.00000000  0.63041304  1
  Zr  Zr3  1  0.36958696  0.36958696  0.36958696  1
  Re  Re0  1  0.39418551  0.67558021  1.00000000  1
  Re  Re1  1  0.71860530  0.32441979  0.32441979  1
  Re  Re2  1  0.39418551  1.00000000  0.67558021  1
  Re  Re3  1  0.67558021  0.39418551  1.00000000  1
  Re  Re4  1  1.00000000  0.39418551  0.67558021  1
  Re  Re5  1  0.32441979  0.71860530  0.32441979  1
  Re  Re6  1  0.32441979  0.32441979  0.71860530  1
  Re  Re7  1  1.00000000  0.67558021  0.39418551  1
  Re  Re8  1  0.67558021  1.00000000  0.39418551  1
  Re  Re9  1  0.60581449  0.60581449  0.28139470  1
  Re  Re10  1  0.28139470  0.60581449  0.60581449  1
  Re  Re11  1  0.60581449  0.28139470  0.60581449  1
  Re  Re12  1  0.37685611  0.19464168  0.00000000  1
  Re  Re13  1  0.18221343  0.80535832  0.80535832  1
  Re  Re14  1  0.37685611  0.00000000  0.19464168  1
  Re  Re15  1  0.19464168  0.37685611  0.00000000  1
  Re  Re16  1  0.00000000  0.37685611  0.19464168  1
  Re  Re17  1  0.80535832  0.18221343  0.80535832  1
  Re  Re18  1  0.80535832  0.80535832  0.18221343  1
  Re  Re19  1  0.00000000  0.19464168  0.37685611  1
  Re  Re20  1  0.19464168  0.00000000  0.37685611  1
  Re  Re21  1  0.62314389  0.62314389  0.81778657  1
  Re  Re22  1  0.81778657  0.62314389  0.62314389  1
  Re  Re23  1  0.62314389  0.81778657  0.62314389  1
  Sn  Sn0  1  0.00000000  0.00000000  0.00000000  1
loop_
_geom_bond_atom_site_label_1
_geom_bond_atom_site_label_2
_geom_bond_distance
_geom_bond_site_symmetry_2
Re0 Re15 2.522948 1_556
Re0 Re14 2.765759 1_566
Re0 Re13 2.765764 1_555
Re0 Zr0 2.799399 1_555
Re0 Re6 2.826086 1_555
Re0 Re9 2.826087 1_556
Re0 Re21 2.897721 1_555
Re0 Re18 2.897726 1_556
Re0 Re8 2.921370 1_556
Re0 Re4 2.921370 1_455
Re0 Re10 2.921370 1_555
Re0 Re5 2.921370 1_556
Re0 Zr1 3.220749 1_455
Re1 Re22 2.522945 1_555
Re1 Re12 2.765758 1_555
Re1 Re14 2.765759 1_555
Re1 Zr0 2.799399 1_544
Re1 Re4 2.826086 1_555
Re1 Re7 2.826087 1_555
Re1 Re19 2.897727 1_655
Re1 Re16 2.897727 1_655
Re1 Re3 2.921370 1_554
Re1 Re8 2.921370 1_545
Re1 Re9 2.921370 1_555
Re1 Re11 2.921370 1_555
Re1 Zr3 3.220749 1_555
Re2 Re20 2.522948 1_565
Re2 Zr0 2.799399 1_555
Re2 Re5 2.826086 1_555
Re2 Re23 2.897721 1_555
Re2 Re3 2.921370 1_565
Re2 Re7 2.921370 1_455
Re2 Re6 2.921370 1_565
Re2 Zr2 3.220749 1_455
Re3 Zr1 2.799399 1_555
Re3 Re6 2.826086 1_555
Re3 Re9 2.826086 1_556
Re3 Re7 2.921370 1_556
Re3 Zr0 3.220749 1_545
Re4 Zr1 2.799399 1_555
Re4 Re8 2.921370 1_545
Re4 Re6 2.921370 1_655
Re4 Zr2 3.220749 1_545
Re5 Zr1 2.799399 1_454
Re5 Re8 2.826087 1_555
Re5 Re9 2.921370 1_555
Re5 Re7 2.921370 1_455
Re5 Zr3 3.220749 1_555
Re6 Zr2 2.799399 1_445
Re6 Zr3 3.220749 1_555
Re7 Zr2 2.799399 1_555
Re7 Re9 2.921370 1_555
Re7 Zr1 3.220749 1_554
Re8 Zr2 2.799399 1_555
Re8 Re9 2.921370 1_555
Re8 Zr0 3.220749 1_554
Re9 Zr3 2.799399 1_555
Re9 Zr2 3.220749 1_555
Re10 Re13 2.522955 1_555
Re10 Re21 2.765761 1_555
Re10 Re23 2.765761 1_555
Re10 Zr3 2.799399 1_555
Re10 Re7 2.826087 1_455
Re10 Re4 2.826087 1_455
Re10 Re16 2.897726 1_555
Re10 Re19 2.897726 1_555
Re10 Re2 2.921370 1_555
Re10 Re5 2.921370 1_555
Re10 Re6 2.921370 1_555
Re10 Zr0 3.220749 1_555
Re11 Re17 2.522955 1_555
Re11 Re21 2.765761 1_555
Re11 Re22 2.765761 1_555
Re11 Zr3 2.799399 1_555
Re11 Re8 2.826086 1_545
Re11 Re2 2.826087 1_545
Re11 Re14 2.897726 1_555
Re11 Re20 2.897726 1_555
Re11 Re3 2.921370 1_555
Re11 Re4 2.921370 1_555
Re11 Re6 2.921370 1_555
Re11 Zr1 3.220749 1_555
Re12 Re15 2.511966 1_555
Re12 Re3 2.522948 1_554
Re12 Re13 2.683285 1_544
Re12 Re14 2.683285 1_555
Re12 Re2 2.765759 1_544
Re12 Re9 2.897726 1_555
Re12 Re6 2.897726 1_554
Re12 Zr2 3.005966 1_444
Re12 Zr3 3.005966 1_555
Re12 Sn0 3.055554 1_555
Re12 Zr0 3.102698 1_544
Re13 Re22 2.511952 1_455
Re13 Re14 2.683285 1_566
Re13 Re2 2.765764 1_555
Re13 Re7 2.897726 1_455
Re13 Re4 2.897726 1_455
Re13 Zr2 3.005962 1_455
Re13 Zr1 3.005962 1_455
Re13 Sn0 3.055547 1_566
Re13 Zr0 3.102705 1_555
Re14 Re20 2.511966 1_555
Re14 Re8 2.522948 1_545
Re14 Re5 2.897727 1_545
Re14 Zr1 3.005966 1_444
Re14 Zr3 3.005966 1_555
Re14 Sn0 3.055554 1_555
Re14 Zr0 3.102698 1_544
Re15 Re17 2.683285 1_454
Re15 Re16 2.683285 1_555
Re15 Re5 2.765758 1_555
Re15 Re4 2.765759 1_454
Re15 Re9 2.897726 1_555
Re15 Re6 2.897726 1_554
Re15 Zr2 3.005966 1_444
Re15 Zr3 3.005966 1_555
Re15 Sn0 3.055554 1_555
Re15 Zr1 3.102698 1_454
Re16 Re19 2.511966 1_555
Re16 Re7 2.522948 1_455
Re16 Re17 2.683285 1_454
Re16 Re5 2.765759 1_555
Re16 Re3 2.765759 1_454
Re16 Zr0 3.005966 1_444
Re16 Zr3 3.005966 1_555
Re16 Sn0 3.055554 1_555
Re16 Zr1 3.102698 1_454
Re17 Re23 2.511952 1_545
Re17 Re3 2.765764 1_555
Re17 Re4 2.765764 1_555
Re17 Re8 2.897726 1_545
Re17 Re2 2.897726 1_545
Re17 Zr2 3.005962 1_545
Re17 Zr0 3.005962 1_545
Re17 Sn0 3.055547 1_656
Re17 Zr1 3.102705 1_555
Re18 Re21 2.511952 1_554
Re18 Re9 2.522955 1_555
Re18 Re19 2.683285 1_665
Re18 Re20 2.683285 1_665
Re18 Re8 2.765764 1_555
Re18 Re7 2.765764 1_555
Re18 Re3 2.897726 1_554
Re18 Zr0 3.005962 1_554
Re18 Zr1 3.005962 1_554
Re18 Sn0 3.055547 1_665
Re18 Zr2 3.102705 1_555
Re19 Re4 2.522948 1_455
Re19 Re20 2.683285 1_555
Re19 Re6 2.765758 1_555
Re19 Re8 2.765759 1_445
Re19 Zr0 3.005966 1_444
Re19 Zr3 3.005967 1_555
Re19 Sn0 3.055554 1_555
Re19 Zr2 3.102698 1_445
Re20 Re6 2.765758 1_555
Re20 Re7 2.765759 1_445
Re20 Re5 2.897726 1_545
Re20 Zr1 3.005966 1_444
Re20 Zr3 3.005966 1_555
Re20 Sn0 3.055554 1_555
Re20 Zr2 3.102698 1_445
Re21 Re6 2.522945 1_555
Re21 Re23 2.683299 1_555
Re21 Re22 2.683299 1_555
Re21 Re3 2.897721 1_555
Re21 Zr0 3.005965 1_555
Re21 Zr1 3.005965 1_555
Re21 Sn0 3.055556 1_666
Re21 Zr3 3.102704 1_555
Re22 Re23 2.683299 1_555
Re22 Re9 2.765761 1_555
Re22 Re4 2.897721 1_555
Re22 Re7 2.897721 1_555
Re22 Zr1 3.005965 1_555
Re22 Zr2 3.005965 1_555
Re22 Sn0 3.055555 1_666
Re22 Zr3 3.102704 1_555
Re23 Re5 2.522945 1_555
Re23 Re9 2.765761 1_555
Re23 Re8 2.897721 1_555
Re23 Zr0 3.005965 1_555
Re23 Zr2 3.005965 1_555
Re23 Sn0 3.055555 1_666
Re23 Zr3 3.102704 1_555
Sn0 Zr3 3.120062 1_555
Sn0 Zr2 3.120062 1_444
Sn0 Zr1 3.120062 1_444
Sn0 Zr0 3.120062 1_444
