# generated using pymatgen
data_TiPdF6
_symmetry_space_group_name_H-M   'P 1'
_cell_length_a   5.55274867
_cell_length_b   5.55274846
_cell_length_c   5.55274835
_cell_angle_alpha   54.91145976
_cell_angle_beta   54.91145820
_cell_angle_gamma   54.91145649
_symmetry_Int_Tables_number   1
_chemical_formula_structural   TiPdF6
_chemical_formula_sum   'Ti1 Pd1 F6'
_cell_volume   106.72397275
_cell_formula_units_Z   1
loop_
 _symmetry_equiv_pos_site_id
 _symmetry_equiv_pos_as_xyz
  1  'x, y, z'
loop_
 _atom_site_type_symbol
 _atom_site_label
 _atom_site_symmetry_multiplicity
 _atom_site_fract_x
 _atom_site_fract_y
 _atom_site_fract_z
 _atom_site_occupancy
  Ti  Ti0  1  0.50000000  0.50000000  0.50000000  1
  Pd  Pd0  1  0.00000000  0.00000000  0.00000000  1
  F  F0  1  0.72810307  0.13012955  0.41016272  1
  F  F1  1  0.58983728  0.27189693  0.86987045  1
  F  F2  1  0.41016272  0.72810307  0.13012955  1
  F  F3  1  0.13012955  0.41016272  0.72810307  1
  F  F4  1  0.27189693  0.86987045  0.58983728  1
  F  F5  1  0.86987045  0.58983728  0.27189693  1
loop_
_geom_bond_atom_site_label_1
_geom_bond_atom_site_label_2
_geom_bond_distance
_geom_bond_site_symmetry_2
F0 Ti0 1.879350 1_555
F0 Pd0 2.161765 1_655
F1 Ti0 1.879350 1_555
F1 Pd0 2.161766 1_656
F2 Ti0 1.879350 1_555
F2 Pd0 2.161766 1_565
F3 Ti0 1.879350 1_555
F3 Pd0 2.161766 1_556
F4 Ti0 1.879350 1_555
F4 Pd0 2.161765 1_566
F5 Ti0 1.879350 1_555
F5 Pd0 2.161766 1_665
