# generated using pymatgen
data_Ba6CuPd4O15
_symmetry_space_group_name_H-M   'P 1'
_cell_length_a   7.41229983
_cell_length_b   7.41298146
_cell_length_c   7.38718723
_cell_angle_alpha   85.98660711
_cell_angle_beta   85.99139673
_cell_angle_gamma   86.17448103
_symmetry_Int_Tables_number   1
_chemical_formula_structural   Ba6CuPd4O15
_chemical_formula_sum   'Ba6 Cu1 Pd4 O15'
_cell_volume   403.13924181
_cell_formula_units_Z   1
loop_
 _symmetry_equiv_pos_site_id
 _symmetry_equiv_pos_as_xyz
  1  'x, y, z'
loop_
 _atom_site_type_symbol
 _atom_site_label
 _atom_site_symmetry_multiplicity
 _atom_site_fract_x
 _atom_site_fract_y
 _atom_site_fract_z
 _atom_site_occupancy
  Ba  Ba0  1  0.33816795  0.66177716  0.99997730  1
  Ba  Ba1  1  0.00496024  0.33571365  0.66437181  1
  Ba  Ba2  1  0.66440470  0.99471037  0.33546548  1
  Ba  Ba3  1  0.15792687  0.84208025  0.49998464  1
  Ba  Ba4  1  0.49853372  0.13622842  0.84783428  1
  Ba  Ba5  1  0.86368219  0.50140511  0.15206221  1
  Cu  Cu0  1  0.55096871  0.44917641  0.50004471  1
  Pd  Pd0  1  0.28848741  0.30067344  0.29380078  1
  Pd  Pd1  1  0.69950203  0.71136337  0.70628788  1
  Pd  Pd2  1  0.09951462  0.09349977  0.09741459  1
  Pd  Pd3  1  0.90655553  0.90054885  0.90253085  1
  O  O0  1  0.15216228  0.99985775  0.84842043  1
  O  O1  1  0.85097089  0.14895058  0.00007184  1
  O  O2  1  0.00042287  0.84777674  0.15138156  1
  O  O3  1  0.03656037  0.19052990  0.34189951  1
  O  O4  1  0.34477731  0.03208499  0.19746806  1
  O  O5  1  0.19937661  0.33540344  0.03168225  1
  O  O6  1  0.80924591  0.96345164  0.65809541  1
  O  O7  1  0.66470206  0.80050433  0.96840795  1
  O  O8  1  0.96812264  0.65539681  0.80245876  1
  O  O9  1  0.37631972  0.25920872  0.54033207  1
  O  O10  1  0.53204882  0.39599348  0.24349243  1
  O  O11  1  0.18486080  0.53799122  0.35573697  1
  O  O12  1  0.74103840  0.62370866  0.45972646  1
  O  O13  1  0.46187286  0.81441569  0.64442768  1
  O  O14  1  0.60481352  0.46754925  0.75662410  1
loop_
_geom_bond_atom_site_label_1
_geom_bond_atom_site_label_2
_geom_bond_distance
_geom_bond_site_symmetry_2
Ba0 O5 2.680640 1_556
Ba0 O7 2.681377 1_555
Ba0 O13 2.899201 1_555
Ba0 O11 2.902428 1_556
Ba0 O10 2.944598 1_556
Ba0 O14 2.949062 1_555
Ba0 O2 2.963646 1_556
Ba0 O0 2.966024 1_555
Ba0 O8 3.200184 1_455
Ba0 O4 3.202314 1_566
Ba1 O8 2.635182 1_455
Ba1 O3 2.671160 1_555
Ba1 O9 2.872282 1_555
Ba1 O11 2.930518 1_555
Ba1 O0 2.934058 1_545
Ba1 O1 2.950239 1_456
Ba1 O14 3.104926 1_455
Ba1 O5 3.159836 1_556
Ba1 O12 3.174051 1_455
Ba1 O6 3.206773 1_445
Ba2 O4 2.634293 1_565
Ba2 O6 2.670921 1_555
Ba2 O12 2.870556 1_555
Ba2 O13 2.934422 1_555
Ba2 O2 2.934423 1_655
Ba2 O1 2.948504 1_565
Ba2 O10 3.113491 1_565
Ba2 O7 3.157548 1_554
Ba2 O9 3.177962 1_565
Ba2 O3 3.206433 1_665
Ba3 O13 2.549541 1_555
Ba3 O11 2.550140 1_555
Ba3 O3 2.873982 1_565
Ba3 O6 2.875457 1_455
Ba3 O8 2.876558 1_455
Ba3 O4 2.878043 1_565
Ba3 O0 2.897314 1_555
Ba3 O2 2.897402 1_555
Ba4 O9 2.588324 1_555
Ba4 O14 2.656917 1_555
Ba4 O7 2.817478 1_545
Ba4 O0 2.820942 1_545
Ba4 O4 2.827108 1_556
Ba4 O6 2.883678 1_545
Ba4 O5 2.892110 1_556
Ba4 O1 2.925165 1_556
Ba4 O13 2.944158 1_545
Ba5 O12 2.589109 1_555
Ba5 O10 2.657005 1_555
Ba5 O5 2.816346 1_655
Ba5 O2 2.822213 1_655
Ba5 O8 2.828052 1_554
Ba5 O3 2.885181 1_655
Ba5 O7 2.890384 1_554
Ba5 O1 2.924755 1_555
Ba5 O11 2.940918 1_655
Cu0 O12 1.969295 1_555
Cu0 O9 1.969330 1_555
Cu0 O10 1.978889 1_555
Cu0 O14 1.979782 1_555
O0 Pd3 2.012932 1_455
O0 Pd2 2.014857 1_566
O1 Pd3 2.030439 1_544
O1 Pd2 2.030480 1_655
O2 Pd2 2.013049 1_565
O2 Pd3 2.014535 1_454
O3 Pd2 2.004041 1_555
O3 Pd0 2.085668 1_555
O4 Pd2 2.022093 1_555
O4 Pd0 2.165806 1_555
O5 Pd2 2.001083 1_555
O5 Pd0 2.082843 1_555
O6 Pd3 2.004386 1_555
O6 Pd1 2.085620 1_555
O7 Pd3 2.001371 1_555
O7 Pd1 2.083050 1_555
O8 Pd3 2.021777 1_555
O8 Pd1 2.165084 1_555
O9 Pd0 1.973756 1_555
O10 Pd0 1.984024 1_555
O11 Pd0 1.943568 1_555
O12 Pd1 1.973590 1_555
O13 Pd1 1.943961 1_555
O14 Pd1 1.983995 1_555
