# generated using pymatgen
data_Li2InSiPd4
_symmetry_space_group_name_H-M   'P 1'
_cell_length_a   7.55151995
_cell_length_b   7.55152067
_cell_length_c   7.55152175
_cell_angle_alpha   33.02814552
_cell_angle_beta   33.02813772
_cell_angle_gamma   33.02814318
_symmetry_Int_Tables_number   1
_chemical_formula_structural   Li2InSiPd4
_chemical_formula_sum   'Li2 In1 Si1 Pd4'
_cell_volume   113.85316924
_cell_formula_units_Z   1
loop_
 _symmetry_equiv_pos_site_id
 _symmetry_equiv_pos_as_xyz
  1  'x, y, z'
loop_
 _atom_site_type_symbol
 _atom_site_label
 _atom_site_symmetry_multiplicity
 _atom_site_fract_x
 _atom_site_fract_y
 _atom_site_fract_z
 _atom_site_occupancy
  Li  Li0  1  0.25214494  0.25214494  0.25214494  1
  Li  Li1  1  0.74785506  0.74785506  0.74785506  1
  In  In0  1  0.00000000  0.00000000  0.00000000  1
  Si  Si0  1  0.50000000  0.50000000  0.50000000  1
  Pd  Pd0  1  0.61280968  0.61280968  0.61280968  1
  Pd  Pd1  1  0.13211014  0.13211014  0.13211014  1
  Pd  Pd2  1  0.86788986  0.86788986  0.86788986  1
  Pd  Pd3  1  0.38719032  0.38719032  0.38719032  1
loop_
_geom_bond_atom_site_label_1
_geom_bond_atom_site_label_2
_geom_bond_distance
_geom_bond_site_symmetry_2
Li0 Pd0 2.546667 1_455
Li0 Pd0 2.546667 1_554
Li0 Pd0 2.546668 1_545
Li0 Pd1 2.568684 1_555
Li0 Pd2 2.707559 1_445
Li0 Pd2 2.707559 1_544
Li0 Pd2 2.707559 1_454
Li0 Pd3 2.889903 1_555
Li1 Pd3 2.546667 1_655
Li1 Pd3 2.546667 1_556
Li1 Pd3 2.546668 1_565
Li1 Pd2 2.568684 1_555
Li1 Pd1 2.707559 1_665
Li1 Pd1 2.707559 1_566
Li1 Pd1 2.707559 1_656
Li1 Pd0 2.889903 1_555
In0 Pd3 2.733444 1_554
In0 Pd0 2.733444 1_445
In0 Pd3 2.733444 1_455
In0 Pd0 2.733444 1_544
In0 Pd3 2.733444 1_545
In0 Pd0 2.733444 1_454
In0 Pd1 2.827090 1_555
In0 Pd2 2.827090 1_444
In0 Li1 3.026872 1_544
In0 Li0 3.026872 1_455
In0 Li1 3.026873 1_454
In0 Li0 3.026873 1_545
In0 Li1 3.026873 1_445
In0 Li0 3.026873 1_554
Pd0 Si0 2.414070 1_555
Pd1 Si0 2.586557 1_554
Pd1 Si0 2.586557 1_455
Pd1 Si0 2.586558 1_545
Pd2 Si0 2.586557 1_556
Pd2 Si0 2.586557 1_655
Pd2 Si0 2.586558 1_565
Pd3 Si0 2.414070 1_555
