# generated using pymatgen
data_Nb16Ni8CN3
_symmetry_space_group_name_H-M   'P 1'
_cell_length_a   8.23325590
_cell_length_b   8.25372467
_cell_length_c   8.23325578
_cell_angle_alpha   60.08200251
_cell_angle_beta   60.00000048
_cell_angle_gamma   60.08200464
_symmetry_Int_Tables_number   1
_chemical_formula_structural   Nb16Ni8CN3
_chemical_formula_sum   'Nb16 Ni8 C1 N3'
_cell_volume   396.10962303
_cell_formula_units_Z   1
loop_
 _symmetry_equiv_pos_site_id
 _symmetry_equiv_pos_as_xyz
  1  'x, y, z'
loop_
 _atom_site_type_symbol
 _atom_site_label
 _atom_site_symmetry_multiplicity
 _atom_site_fract_x
 _atom_site_fract_y
 _atom_site_fract_z
 _atom_site_occupancy
  Nb  Nb0  1  0.43181995  0.06931139  0.06704871  1
  Nb  Nb1  1  0.06612173  0.43352420  0.43423134  1
  Nb  Nb2  1  0.06612173  0.43352420  0.06612173  1
  Nb  Nb3  1  0.06704871  0.06931139  0.43181995  1
  Nb  Nb4  1  0.43181995  0.06931139  0.43181995  1
  Nb  Nb5  1  0.43423134  0.43352420  0.06612173  1
  Nb  Nb6  1  0.18387827  0.81647580  0.18387827  1
  Nb  Nb7  1  0.81818005  0.18068861  0.81818005  1
  Nb  Nb8  1  0.81818005  0.18068861  0.18295129  1
  Nb  Nb9  1  0.18295129  0.18068861  0.81818005  1
  Nb  Nb10  1  0.18387827  0.81647580  0.81576866  1
  Nb  Nb11  1  0.81576866  0.81647580  0.18387827  1
  Nb  Nb12  1  0.62500000  0.62500000  0.62500000  1
  Nb  Nb13  1  0.62500000  0.62500000  0.12500000  1
  Nb  Nb14  1  0.12500000  0.62500000  0.62500000  1
  Nb  Nb15  1  0.62500000  0.12500000  0.62500000  1
  Ni  Ni0  1  0.82843998  0.82997311  0.82843998  1
  Ni  Ni1  1  0.82843998  0.82997311  0.51314492  1
  Ni  Ni2  1  0.51314492  0.82997311  0.82843998  1
  Ni  Ni3  1  0.82987717  0.51036850  0.82987717  1
  Ni  Ni4  1  0.42156002  0.42002689  0.42156002  1
  Ni  Ni5  1  0.42156002  0.42002689  0.73685508  1
  Ni  Ni6  1  0.42012283  0.73963150  0.42012283  1
  Ni  Ni7  1  0.73685508  0.42002689  0.42156002  1
  C  C0  1  0.12500000  0.62500000  0.12500000  1
  N  N0  1  0.62500000  0.12500000  0.12500000  1
  N  N1  1  0.12500000  0.12500000  0.62500000  1
  N  N2  1  0.12500000  0.12500000  0.12500000  1
loop_
_geom_bond_atom_site_label_1
_geom_bond_atom_site_label_2
_geom_bond_distance
_geom_bond_site_symmetry_2
Nb0 Ni5 2.812982 1_554
Nb0 Ni6 2.820452 1_545
Nb0 Ni0 3.073491 1_544
Nb0 Ni2 3.073498 1_544
Nb1 Ni7 2.822790 1_455
Nb1 Ni4 2.822815 1_555
Nb1 Ni3 3.048101 1_455
Nb1 Ni1 3.069298 1_455
Nb2 Ni7 2.822804 1_455
Nb2 Ni5 2.822804 1_554
Nb2 Ni3 3.048094 1_454
Nb2 Ni0 3.069301 1_454
Nb3 Ni7 2.812983 1_455
Nb3 Ni6 2.820452 1_545
Nb3 Ni0 3.073491 1_445
Nb3 Ni1 3.073498 1_445
Nb4 Ni4 2.812990 1_555
Nb4 Ni6 2.820452 1_545
Nb4 Ni2 3.073484 1_545
Nb4 Ni1 3.073484 1_545
Nb5 Ni5 2.822790 1_554
Nb5 Ni4 2.822815 1_555
Nb5 Ni3 3.048101 1_554
Nb5 Ni2 3.069298 1_554
Nb6 Ni2 2.822804 1_554
Nb6 Ni1 2.822804 1_455
Nb6 Ni6 3.048094 1_555
Nb6 Ni4 3.069301 1_555
Nb7 Ni0 2.812990 1_545
Nb7 Ni3 2.820452 1_555
Nb7 Ni7 3.073484 1_555
Nb7 Ni5 3.073484 1_555
Nb8 Ni1 2.812982 1_545
Nb8 Ni3 2.820452 1_554
Nb8 Ni4 3.073491 1_555
Nb8 Ni7 3.073498 1_555
Nb9 Ni2 2.812983 1_545
Nb9 Ni3 2.820452 1_455
Nb9 Ni4 3.073491 1_555
Nb9 Ni5 3.073498 1_555
Nb10 Ni2 2.822790 1_555
Nb10 Ni0 2.822815 1_455
Nb10 Ni6 3.048101 1_555
Nb10 Ni5 3.069298 1_555
Nb11 Ni1 2.822790 1_555
Nb11 Ni0 2.822815 1_554
Nb11 Ni6 3.048101 1_555
Nb11 Ni7 3.069298 1_555
Nb12 Ni1 2.499158 1_555
Nb12 Ni5 2.499158 1_555
Nb12 Ni2 2.499158 1_555
Nb12 Ni7 2.499158 1_555
Nb12 Ni6 2.499427 1_555
Nb12 Ni3 2.499427 1_555
Nb13 Ni0 2.499163 1_554
Nb13 Ni4 2.499163 1_555
Nb13 Ni7 2.499172 1_555
Nb13 Ni2 2.499172 1_554
Nb13 Ni3 2.499427 1_554
Nb13 Ni6 2.499427 1_555
Nb14 Ni0 2.499163 1_455
Nb14 Ni4 2.499163 1_555
Nb14 Ni5 2.499172 1_555
Nb14 Ni1 2.499172 1_455
Nb14 Ni3 2.499427 1_455
Nb14 Ni6 2.499427 1_555
Nb15 Ni0 2.491797 1_545
Nb15 Ni4 2.491797 1_555
Nb15 Ni7 2.491805 1_555
Nb15 Ni2 2.491805 1_545
Nb15 Ni5 2.491805 1_555
Nb15 Ni1 2.491805 1_545
Ni0 Ni1 2.595905 1_555
Ni0 Ni2 2.595905 1_555
Ni0 Ni3 2.626179 1_555
Ni1 Ni2 2.595905 1_555
Ni1 Ni3 2.626187 1_555
Ni2 Ni3 2.626187 1_555
Ni4 Ni5 2.595905 1_555
Ni4 Ni7 2.595905 1_555
Ni4 Ni6 2.626179 1_555
Ni5 Ni7 2.595905 1_555
Ni5 Ni6 2.626187 1_555
Ni6 Ni7 2.626187 1_555
C0 Nb10 2.175086 1_554
C0 Nb1 2.175086 1_555
C0 Nb5 2.175086 1_555
C0 Nb11 2.175086 1_455
C0 Nb6 2.175091 1_555
C0 Nb2 2.175091 1_555
N0 Nb8 2.162288 1_555
N0 Nb0 2.162288 1_555
N0 Nb4 2.162288 1_555
N0 Nb7 2.162288 1_554
N0 Nb5 2.174116 1_555
N0 Nb11 2.174116 1_545
N1 Nb9 2.162288 1_555
N1 Nb3 2.162288 1_555
N1 Nb4 2.162288 1_555
N1 Nb7 2.162288 1_455
N1 Nb1 2.174116 1_555
N1 Nb10 2.174116 1_545
N2 Nb3 2.162288 1_555
N2 Nb9 2.162288 1_554
N2 Nb0 2.162288 1_555
N2 Nb8 2.162288 1_455
N2 Nb2 2.174114 1_555
N2 Nb6 2.174114 1_545
