# generated using pymatgen
data_Ca10HfReN10
_symmetry_space_group_name_H-M   'P 1'
_cell_length_a   6.95455512
_cell_length_b   6.95455407
_cell_length_c   8.94070657
_cell_angle_alpha   80.38883917
_cell_angle_beta   80.38883900
_cell_angle_gamma   59.76195500
_symmetry_Int_Tables_number   1
_chemical_formula_structural   Ca10HfReN10
_chemical_formula_sum   'Ca10 Hf1 Re1 N10'
_cell_volume   366.59765718
_cell_formula_units_Z   1
loop_
 _symmetry_equiv_pos_site_id
 _symmetry_equiv_pos_as_xyz
  1  'x, y, z'
loop_
 _atom_site_type_symbol
 _atom_site_label
 _atom_site_symmetry_multiplicity
 _atom_site_fract_x
 _atom_site_fract_y
 _atom_site_fract_z
 _atom_site_occupancy
  Ca  Ca0  1  0.87599586  0.35242140  0.82746514  1
  Ca  Ca1  1  0.87378148  0.87378148  0.81986465  1
  Ca  Ca2  1  0.73895721  0.73895721  0.53452716  1
  Ca  Ca3  1  0.75096350  0.24789426  0.51060915  1
  Ca  Ca4  1  0.63166846  0.13769694  0.14894524  1
  Ca  Ca5  1  0.35242140  0.87599586  0.82746514  1
  Ca  Ca6  1  0.24789426  0.75096350  0.51060915  1
  Ca  Ca7  1  0.24104965  0.24104965  0.50098915  1
  Ca  Ca8  1  0.14119430  0.14119430  0.15645850  1
  Ca  Ca9  1  0.13769694  0.63166846  0.14894524  1
  Hf  Hf0  1  0.36959228  0.36959228  0.77845256  1
  Re  Re0  1  0.63233780  0.63233780  0.22873790  1
  N  N0  1  0.90246274  0.47379291  0.31566502  1
  N  N1  1  0.99626871  0.99626871  0.01457394  1
  N  N2  1  0.67532838  0.67532838  0.02386196  1
  N  N3  1  0.54169675  0.54169675  0.68789898  1
  N  N4  1  0.47379291  0.90246274  0.31566502  1
  N  N5  1  0.54281677  0.07648679  0.67294655  1
  N  N6  1  0.47710173  0.47710173  0.29588781  1
  N  N7  1  0.32082994  0.32082994  0.00889054  1
  N  N8  1  0.06194714  0.06194714  0.64440364  1
  N  N9  1  0.07648679  0.54281677  0.67294655  1
loop_
_geom_bond_atom_site_label_1
_geom_bond_atom_site_label_2
_geom_bond_distance
_geom_bond_site_symmetry_2
Ca0 N3 2.456188 1_555
Ca0 N8 2.489602 1_655
Ca0 N9 2.492276 1_655
Ca0 N1 2.574898 1_546
Ca0 N2 2.723211 1_556
Ca1 N9 2.476644 1_655
Ca1 N5 2.476644 1_565
Ca1 N1 2.490584 1_556
Ca1 N8 2.497927 1_665
Ca1 N2 2.715433 1_556
Ca2 N5 2.466527 1_565
Ca2 N9 2.466527 1_655
Ca2 N3 2.506696 1_555
Ca2 N0 2.621576 1_555
Ca2 N4 2.621576 1_555
Ca3 N8 2.304596 1_655
Ca3 N5 2.466118 1_555
Ca3 N3 2.474197 1_555
Ca3 N0 2.599161 1_555
Ca3 N6 2.644836 1_555
Ca4 N7 2.336994 1_555
Ca4 N1 2.388642 1_545
Ca4 N6 2.541931 1_555
Ca4 N4 2.559693 1_545
Ca5 N3 2.456188 1_555
Ca5 N8 2.489602 1_565
Ca5 N5 2.492276 1_565
Ca5 N1 2.574898 1_456
Ca5 N2 2.723211 1_556
Ca6 N8 2.304596 1_565
Ca6 N9 2.466118 1_555
Ca6 N3 2.474198 1_555
Ca6 N4 2.599161 1_555
Ca6 N6 2.644836 1_555
Ca7 N8 2.289766 1_555
Ca7 N9 2.479633 1_555
Ca7 N5 2.479633 1_555
Ca7 N4 2.734691 1_545
Ca7 N0 2.734691 1_455
Ca7 N6 3.075140 1_555
Ca8 N7 2.309394 1_555
Ca8 N1 2.349029 1_445
Ca8 N0 2.564233 1_455
Ca8 N4 2.564233 1_545
Ca9 N7 2.336994 1_555
Ca9 N1 2.388642 1_455
Ca9 N6 2.541931 1_555
Ca9 N0 2.559693 1_455
Hf0 N7 2.030756 1_556
Hf0 N5 2.070155 1_555
Hf0 N9 2.070155 1_555
Hf0 N3 2.077592 1_555
N0 Re0 1.861194 1_555
N2 Re0 1.805082 1_555
N4 Re0 1.861193 1_555
N6 Re0 1.852713 1_555
