# generated using pymatgen
data_CsRb5(CdH5)2
_symmetry_space_group_name_H-M   'P 1'
_cell_length_a   8.34158670
_cell_length_b   8.34158681
_cell_length_c   8.34158678
_cell_angle_alpha   122.30260527
_cell_angle_beta   122.30260426
_cell_angle_gamma   86.05598826
_symmetry_Int_Tables_number   1
_chemical_formula_structural   CsRb5(CdH5)2
_chemical_formula_sum   'Cs1 Rb5 Cd2 H10'
_cell_volume   395.11824150
_cell_formula_units_Z   1
loop_
 _symmetry_equiv_pos_site_id
 _symmetry_equiv_pos_as_xyz
  1  'x, y, z'
loop_
 _atom_site_type_symbol
 _atom_site_label
 _atom_site_symmetry_multiplicity
 _atom_site_fract_x
 _atom_site_fract_y
 _atom_site_fract_z
 _atom_site_occupancy
  Cs  Cs0  1  0.75000000  0.75000000  0.00000000  1
  Rb  Rb0  1  0.81875027  0.31875027  0.13750054  1
  Rb  Rb1  1  0.68124973  0.81875027  0.50000000  1
  Rb  Rb2  1  0.31875027  0.18124973  0.50000000  1
  Rb  Rb3  1  0.18124973  0.68124973  0.86249946  1
  Rb  Rb4  1  0.25000000  0.25000000  0.00000000  1
  Cd  Cd0  1  0.25000000  0.75000000  0.50000000  1
  Cd  Cd1  1  0.75000000  0.25000000  0.50000000  1
  H  H0  1  0.00722590  0.00722590  0.00000000  1
  H  H1  1  0.49277410  0.49277410  1.00000000  1
  H  H2  1  0.28630010  0.53036127  0.49954777  1
  H  H3  1  0.03081449  0.78675332  0.50045223  1
  H  H4  1  0.78675332  0.28630010  0.75593883  1
  H  H5  1  0.53036127  0.03081449  0.24406117  1
  H  H6  1  0.46918551  0.96963873  0.75593883  1
  H  H7  1  0.21369990  0.71324668  0.24406117  1
  H  H8  1  0.96963873  0.21369990  0.50045223  1
  H  H9  1  0.71324668  0.46918551  0.49954777  1
loop_
_geom_bond_atom_site_label_1
_geom_bond_atom_site_label_2
_geom_bond_distance
_geom_bond_site_symmetry_2
Cs0 H0 3.137060 1_665
Cs0 H1 3.137060 1_554
Cs0 H9 3.359713 1_554
Cs0 H3 3.359713 1_655
Cs0 H8 3.359717 1_565
Cs0 H2 3.359717 1_554
Cs0 H5 3.359720 1_565
Cs0 H6 3.359720 1_554
Cs0 H7 3.359720 1_655
Cs0 H4 3.359720 1_554
Cd0 H3 1.834643 1_555
Cd0 H7 1.834646 1_555
Cd0 H6 1.834647 1_555
Cd0 H2 1.834650 1_555
Cd1 H9 1.834643 1_555
Cd1 H4 1.834646 1_555
Cd1 H5 1.834647 1_555
Cd1 H8 1.834650 1_555
H0 Rb0 2.952932 1_455
H0 Rb3 2.952932 1_544
H0 Rb2 2.952933 1_555
H0 Rb1 2.952933 1_444
H0 Rb4 2.960810 1_555
H1 Rb3 2.952932 1_555
H1 Rb0 2.952932 1_556
H1 Rb2 2.952933 1_555
H1 Rb1 2.952933 1_556
H1 Rb4 2.960810 1_556
H2 Rb2 2.907934 1_555
H2 Rb0 3.179334 1_455
H2 Rb3 3.182673 1_555
H3 Rb1 2.907942 1_455
H3 Rb3 3.179342 1_555
H3 Rb0 3.182681 1_455
H4 Rb0 2.907938 1_556
H4 Rb1 3.179334 1_545
H4 Rb2 3.182681 1_555
H5 Rb3 2.907938 1_544
H5 Rb2 3.179334 1_555
H5 Rb1 3.182681 1_545
H6 Rb0 2.907938 1_566
H6 Rb2 3.179334 1_565
H6 Rb1 3.182681 1_555
H7 Rb3 2.907938 1_554
H7 Rb1 3.179334 1_555
H7 Rb2 3.182681 1_565
H8 Rb2 2.907934 1_655
H8 Rb3 3.179334 1_655
H8 Rb0 3.182673 1_555
H9 Rb1 2.907942 1_555
H9 Rb0 3.179342 1_555
H9 Rb3 3.182681 1_655
