# generated using pymatgen
data_Sc2Be2SnRh5
_symmetry_space_group_name_H-M   'P 1'
_cell_length_a   19.04914131
_cell_length_b   19.04914131
_cell_length_c   6.32468129
_cell_angle_alpha   90.00000000
_cell_angle_beta   90.00000000
_cell_angle_gamma   90.00000000
_symmetry_Int_Tables_number   1
_chemical_formula_structural   Sc2Be2SnRh5
_chemical_formula_sum   'Sc32 Be32 Sn16 Rh80'
_cell_volume   2295.03573805
_cell_formula_units_Z   16
loop_
 _symmetry_equiv_pos_site_id
 _symmetry_equiv_pos_as_xyz
  1  'x, y, z'
loop_
 _atom_site_type_symbol
 _atom_site_label
 _atom_site_symmetry_multiplicity
 _atom_site_fract_x
 _atom_site_fract_y
 _atom_site_fract_z
 _atom_site_occupancy
  Sc  Sc0_0  1  0.41235011  0.16235011  0.00000000  1
  Sc  Sc0_1  1  0.41235011  0.16235011  0.50000000  1
  Sc  Sc0_2  1  0.41235011  0.66235011  0.00000000  1
  Sc  Sc0_3  1  0.41235011  0.66235011  0.50000000  1
  Sc  Sc0_4  1  0.91235011  0.16235011  0.00000000  1
  Sc  Sc0_5  1  0.91235011  0.16235011  0.50000000  1
  Sc  Sc0_6  1  0.91235011  0.66235011  0.00000000  1
  Sc  Sc0_7  1  0.91235011  0.66235011  0.50000000  1
  Sc  Sc1_0  1  0.16235011  0.08764989  0.00000000  1
  Sc  Sc1_1  1  0.16235011  0.08764989  0.50000000  1
  Sc  Sc1_2  1  0.16235011  0.58764989  0.00000000  1
  Sc  Sc1_3  1  0.16235011  0.58764989  0.50000000  1
  Sc  Sc1_4  1  0.66235011  0.08764989  0.00000000  1
  Sc  Sc1_5  1  0.66235011  0.08764989  0.50000000  1
  Sc  Sc1_6  1  0.66235011  0.58764989  0.00000000  1
  Sc  Sc1_7  1  0.66235011  0.58764989  0.50000000  1
  Sc  Sc2_0  1  0.33764989  0.41235011  0.00000000  1
  Sc  Sc2_1  1  0.33764989  0.41235011  0.50000000  1
  Sc  Sc2_2  1  0.33764989  0.91235011  0.00000000  1
  Sc  Sc2_3  1  0.33764989  0.91235011  0.50000000  1
  Sc  Sc2_4  1  0.83764989  0.41235011  0.00000000  1
  Sc  Sc2_5  1  0.83764989  0.41235011  0.50000000  1
  Sc  Sc2_6  1  0.83764989  0.91235011  0.00000000  1
  Sc  Sc2_7  1  0.83764989  0.91235011  0.50000000  1
  Sc  Sc3_0  1  0.08764989  0.33764989  0.00000000  1
  Sc  Sc3_1  1  0.08764989  0.33764989  0.50000000  1
  Sc  Sc3_2  1  0.08764989  0.83764989  0.00000000  1
  Sc  Sc3_3  1  0.08764989  0.83764989  0.50000000  1
  Sc  Sc3_4  1  0.58764989  0.33764989  0.00000000  1
  Sc  Sc3_5  1  0.58764989  0.33764989  0.50000000  1
  Sc  Sc3_6  1  0.58764989  0.83764989  0.00000000  1
  Sc  Sc3_7  1  0.58764989  0.83764989  0.50000000  1
  Be  Be0_0  1  0.31051843  0.06051843  0.00000000  1
  Be  Be0_1  1  0.31051843  0.06051843  0.50000000  1
  Be  Be0_2  1  0.31051843  0.56051843  0.00000000  1
  Be  Be0_3  1  0.31051843  0.56051843  0.50000000  1
  Be  Be0_4  1  0.81051843  0.06051843  0.00000000  1
  Be  Be0_5  1  0.81051843  0.06051843  0.50000000  1
  Be  Be0_6  1  0.81051843  0.56051843  0.00000000  1
  Be  Be0_7  1  0.81051843  0.56051843  0.50000000  1
  Be  Be1_0  1  0.06051843  0.18948157  0.00000000  1
  Be  Be1_1  1  0.06051843  0.18948157  0.50000000  1
  Be  Be1_2  1  0.06051843  0.68948157  0.00000000  1
  Be  Be1_3  1  0.06051843  0.68948157  0.50000000  1
  Be  Be1_4  1  0.56051843  0.18948157  0.00000000  1
  Be  Be1_5  1  0.56051843  0.18948157  0.50000000  1
  Be  Be1_6  1  0.56051843  0.68948157  0.00000000  1
  Be  Be1_7  1  0.56051843  0.68948157  0.50000000  1
  Be  Be2_0  1  0.43948157  0.31051843  0.00000000  1
  Be  Be2_1  1  0.43948157  0.31051843  0.50000000  1
  Be  Be2_2  1  0.43948157  0.81051843  0.00000000  1
  Be  Be2_3  1  0.43948157  0.81051843  0.50000000  1
  Be  Be2_4  1  0.93948157  0.31051843  0.00000000  1
  Be  Be2_5  1  0.93948157  0.31051843  0.50000000  1
  Be  Be2_6  1  0.93948157  0.81051843  0.00000000  1
  Be  Be2_7  1  0.93948157  0.81051843  0.50000000  1
  Be  Be3_0  1  0.18948157  0.43948157  0.00000000  1
  Be  Be3_1  1  0.18948157  0.43948157  0.50000000  1
  Be  Be3_2  1  0.18948157  0.93948157  0.00000000  1
  Be  Be3_3  1  0.18948157  0.93948157  0.50000000  1
  Be  Be3_4  1  0.68948157  0.43948157  0.00000000  1
  Be  Be3_5  1  0.68948157  0.43948157  0.50000000  1
  Be  Be3_6  1  0.68948157  0.93948157  0.00000000  1
  Be  Be3_7  1  0.68948157  0.93948157  0.50000000  1
  Sn  Sn0_0  1  0.00000000  0.00000000  0.00000000  1
  Sn  Sn0_1  1  0.00000000  0.00000000  0.50000000  1
  Sn  Sn0_2  1  0.00000000  0.50000000  0.00000000  1
  Sn  Sn0_3  1  0.00000000  0.50000000  0.50000000  1
  Sn  Sn0_4  1  0.50000000  0.00000000  0.00000000  1
  Sn  Sn0_5  1  0.50000000  0.00000000  0.50000000  1
  Sn  Sn0_6  1  0.50000000  0.50000000  0.00000000  1
  Sn  Sn0_7  1  0.50000000  0.50000000  0.50000000  1
  Sn  Sn1_0  1  0.25000000  0.25000000  0.00000000  1
  Sn  Sn1_1  1  0.25000000  0.25000000  0.50000000  1
  Sn  Sn1_2  1  0.25000000  0.75000000  0.00000000  1
  Sn  Sn1_3  1  0.25000000  0.75000000  0.50000000  1
  Sn  Sn1_4  1  0.75000000  0.25000000  0.00000000  1
  Sn  Sn1_5  1  0.75000000  0.25000000  0.50000000  1
  Sn  Sn1_6  1  0.75000000  0.75000000  0.00000000  1
  Sn  Sn1_7  1  0.75000000  0.75000000  0.50000000  1
  Rh  Rh0_0  1  0.03525684  0.10795236  0.25000000  1
  Rh  Rh0_1  1  0.03525684  0.10795236  0.75000000  1
  Rh  Rh0_2  1  0.03525684  0.60795236  0.25000000  1
  Rh  Rh0_3  1  0.03525684  0.60795236  0.75000000  1
  Rh  Rh0_4  1  0.53525684  0.10795236  0.25000000  1
  Rh  Rh0_5  1  0.53525684  0.10795236  0.75000000  1
  Rh  Rh0_6  1  0.53525684  0.60795236  0.25000000  1
  Rh  Rh0_7  1  0.53525684  0.60795236  0.75000000  1
  Rh  Rh1_0  1  0.10795236  0.46474316  0.25000000  1
  Rh  Rh1_1  1  0.10795236  0.46474316  0.75000000  1
  Rh  Rh1_2  1  0.10795236  0.96474316  0.25000000  1
  Rh  Rh1_3  1  0.10795236  0.96474316  0.75000000  1
  Rh  Rh1_4  1  0.60795236  0.46474316  0.25000000  1
  Rh  Rh1_5  1  0.60795236  0.46474316  0.75000000  1
  Rh  Rh1_6  1  0.60795236  0.96474316  0.25000000  1
  Rh  Rh1_7  1  0.60795236  0.96474316  0.75000000  1
  Rh  Rh2_0  1  0.39204764  0.03525684  0.25000000  1
  Rh  Rh2_1  1  0.39204764  0.03525684  0.75000000  1
  Rh  Rh2_2  1  0.39204764  0.53525684  0.25000000  1
  Rh  Rh2_3  1  0.39204764  0.53525684  0.75000000  1
  Rh  Rh2_4  1  0.89204764  0.03525684  0.25000000  1
  Rh  Rh2_5  1  0.89204764  0.03525684  0.75000000  1
  Rh  Rh2_6  1  0.89204764  0.53525684  0.25000000  1
  Rh  Rh2_7  1  0.89204764  0.53525684  0.75000000  1
  Rh  Rh3_0  1  0.46474316  0.39204764  0.25000000  1
  Rh  Rh3_1  1  0.46474316  0.39204764  0.75000000  1
  Rh  Rh3_2  1  0.46474316  0.89204764  0.25000000  1
  Rh  Rh3_3  1  0.46474316  0.89204764  0.75000000  1
  Rh  Rh3_4  1  0.96474316  0.39204764  0.25000000  1
  Rh  Rh3_5  1  0.96474316  0.39204764  0.75000000  1
  Rh  Rh3_6  1  0.96474316  0.89204764  0.25000000  1
  Rh  Rh3_7  1  0.96474316  0.89204764  0.75000000  1
  Rh  Rh4_0  1  0.21474316  0.35795236  0.25000000  1
  Rh  Rh4_1  1  0.21474316  0.35795236  0.75000000  1
  Rh  Rh4_2  1  0.21474316  0.85795236  0.25000000  1
  Rh  Rh4_3  1  0.21474316  0.85795236  0.75000000  1
  Rh  Rh4_4  1  0.71474316  0.35795236  0.25000000  1
  Rh  Rh4_5  1  0.71474316  0.35795236  0.75000000  1
  Rh  Rh4_6  1  0.71474316  0.85795236  0.25000000  1
  Rh  Rh4_7  1  0.71474316  0.85795236  0.75000000  1
  Rh  Rh5_0  1  0.28525684  0.14204764  0.25000000  1
  Rh  Rh5_1  1  0.28525684  0.14204764  0.75000000  1
  Rh  Rh5_2  1  0.28525684  0.64204764  0.25000000  1
  Rh  Rh5_3  1  0.28525684  0.64204764  0.75000000  1
  Rh  Rh5_4  1  0.78525684  0.14204764  0.25000000  1
  Rh  Rh5_5  1  0.78525684  0.14204764  0.75000000  1
  Rh  Rh5_6  1  0.78525684  0.64204764  0.25000000  1
  Rh  Rh5_7  1  0.78525684  0.64204764  0.75000000  1
  Rh  Rh6_0  1  0.35795236  0.28525684  0.25000000  1
  Rh  Rh6_1  1  0.35795236  0.28525684  0.75000000  1
  Rh  Rh6_2  1  0.35795236  0.78525684  0.25000000  1
  Rh  Rh6_3  1  0.35795236  0.78525684  0.75000000  1
  Rh  Rh6_4  1  0.85795236  0.28525684  0.25000000  1
  Rh  Rh6_5  1  0.85795236  0.28525684  0.75000000  1
  Rh  Rh6_6  1  0.85795236  0.78525684  0.25000000  1
  Rh  Rh6_7  1  0.85795236  0.78525684  0.75000000  1
  Rh  Rh7_0  1  0.14204764  0.21474316  0.25000000  1
  Rh  Rh7_1  1  0.14204764  0.21474316  0.75000000  1
  Rh  Rh7_2  1  0.14204764  0.71474316  0.25000000  1
  Rh  Rh7_3  1  0.14204764  0.71474316  0.75000000  1
  Rh  Rh7_4  1  0.64204764  0.21474316  0.25000000  1
  Rh  Rh7_5  1  0.64204764  0.21474316  0.75000000  1
  Rh  Rh7_6  1  0.64204764  0.71474316  0.25000000  1
  Rh  Rh7_7  1  0.64204764  0.71474316  0.75000000  1
  Rh  Rh8_0  1  0.25000000  0.00000000  0.25000000  1
  Rh  Rh8_1  1  0.25000000  0.00000000  0.75000000  1
  Rh  Rh8_2  1  0.25000000  0.50000000  0.25000000  1
  Rh  Rh8_3  1  0.25000000  0.50000000  0.75000000  1
  Rh  Rh8_4  1  0.75000000  0.00000000  0.25000000  1
  Rh  Rh8_5  1  0.75000000  0.00000000  0.75000000  1
  Rh  Rh8_6  1  0.75000000  0.50000000  0.25000000  1
  Rh  Rh8_7  1  0.75000000  0.50000000  0.75000000  1
  Rh  Rh9_0  1  0.00000000  0.25000000  0.25000000  1
  Rh  Rh9_1  1  0.00000000  0.25000000  0.75000000  1
  Rh  Rh9_2  1  0.00000000  0.75000000  0.25000000  1
  Rh  Rh9_3  1  0.00000000  0.75000000  0.75000000  1
  Rh  Rh9_4  1  0.50000000  0.25000000  0.25000000  1
  Rh  Rh9_5  1  0.50000000  0.25000000  0.75000000  1
  Rh  Rh9_6  1  0.50000000  0.75000000  0.25000000  1
  Rh  Rh9_7  1  0.50000000  0.75000000  0.75000000  1
loop_
_geom_bond_atom_site_label_1
_geom_bond_atom_site_label_2
_geom_bond_distance
_geom_bond_site_symmetry_2
Sc0_0 Sc0_1 3.162341 1_554
Sc0_0 Sc0_1 3.162341 1_555
Sc0_2 Sc0_3 3.162341 1_554
Sc0_2 Sc0_3 3.162341 1_555
Sc0_4 Sc0_5 3.162341 1_555
Sc0_4 Sc0_5 3.162341 1_554
Sc0_6 Sc0_7 3.162341 1_555
Sc0_6 Sc0_7 3.162341 1_554
Sc1_0 Sc1_1 3.162341 1_554
Sc1_0 Sc1_1 3.162341 1_555
Sc1_2 Sc1_3 3.162341 1_555
Sc1_2 Sc1_3 3.162341 1_554
Sc1_4 Sc1_5 3.162341 1_554
Sc1_4 Sc1_5 3.162341 1_555
Sc1_6 Sc1_7 3.162341 1_555
Sc1_6 Sc1_7 3.162341 1_554
Sc2_0 Sc2_1 3.162341 1_554
Sc2_0 Sc2_1 3.162341 1_555
Sc2_2 Sc2_3 3.162341 1_555
Sc2_2 Sc2_3 3.162341 1_554
Sc2_4 Sc2_5 3.162341 1_555
Sc2_4 Sc2_5 3.162341 1_554
Sc2_6 Sc2_7 3.162341 1_555
Sc2_6 Sc2_7 3.162341 1_554
Sc3_0 Sc3_1 3.162341 1_555
Sc3_0 Sc3_1 3.162341 1_554
Sc3_2 Sc3_3 3.162341 1_555
Sc3_2 Sc3_3 3.162341 1_554
Sc3_4 Sc3_5 3.162341 1_555
Sc3_4 Sc3_5 3.162341 1_554
Sc3_6 Sc3_7 3.162341 1_555
Sc3_6 Sc3_7 3.162341 1_554
Be0_0 Rh5_0 2.267965 1_555
Be0_0 Rh5_1 2.267965 1_554
Be0_0 Rh2_0 2.267965 1_555
Be0_0 Rh2_1 2.267965 1_554
Be0_0 Rh8_0 2.271147 1_555
Be0_0 Rh8_1 2.271147 1_554
Be0_0 Sc0_0 2.743300 1_555
Be0_0 Sc2_2 2.869408 1_545
Be0_0 Sc1_0 2.869408 1_555
Be0_1 Rh2_1 2.267965 1_555
Be0_1 Rh5_0 2.267965 1_555
Be0_1 Rh5_1 2.267965 1_555
Be0_1 Rh2_0 2.267965 1_555
Be0_1 Rh8_0 2.271147 1_555
Be0_1 Rh8_1 2.271147 1_555
Be0_1 Sc0_1 2.743300 1_555
Be0_1 Sc2_3 2.869408 1_545
Be0_1 Sc1_1 2.869408 1_555
Be0_2 Rh2_3 2.267965 1_554
Be0_2 Rh2_2 2.267965 1_555
Be0_2 Rh5_3 2.267965 1_554
Be0_2 Rh5_2 2.267965 1_555
Be0_2 Rh8_2 2.271147 1_555
Be0_2 Rh8_3 2.271147 1_554
Be0_2 Sc0_2 2.743300 1_555
Be0_2 Sc2_0 2.869408 1_555
Be0_2 Sc1_2 2.869408 1_555
Be0_3 Rh2_3 2.267965 1_555
Be0_3 Rh2_2 2.267965 1_555
Be0_3 Rh5_2 2.267965 1_555
Be0_3 Rh5_3 2.267965 1_555
Be0_3 Rh8_2 2.271147 1_555
Be0_3 Rh8_3 2.271147 1_555
Be0_3 Sc0_3 2.743300 1_555
Be0_3 Sc2_1 2.869408 1_555
Be0_3 Sc1_3 2.869408 1_555
Be0_4 Rh5_4 2.267965 1_555
Be0_4 Rh5_5 2.267965 1_554
Be0_4 Rh2_5 2.267965 1_554
Be0_4 Rh2_4 2.267965 1_555
Be0_4 Rh8_5 2.271147 1_554
Be0_4 Rh8_4 2.271147 1_555
Be0_4 Sc0_4 2.743300 1_555
Be0_4 Sc2_6 2.869408 1_545
Be0_4 Sc1_4 2.869408 1_555
Be0_5 Rh5_4 2.267965 1_555
Be0_5 Rh5_5 2.267965 1_555
Be0_5 Rh2_4 2.267965 1_555
Be0_5 Rh2_5 2.267965 1_555
Be0_5 Rh8_5 2.271147 1_555
Be0_5 Rh8_4 2.271147 1_555
Be0_5 Sc0_5 2.743300 1_555
Be0_5 Sc2_7 2.869408 1_545
Be0_5 Sc1_5 2.869408 1_555
Be0_6 Rh5_6 2.267965 1_555
Be0_6 Rh5_7 2.267965 1_554
Be0_6 Rh2_6 2.267965 1_555
Be0_6 Rh2_7 2.267965 1_554
Be0_6 Rh8_6 2.271147 1_555
Be0_6 Rh8_7 2.271147 1_554
Be0_6 Sc0_6 2.743300 1_555
Be0_6 Sc2_4 2.869408 1_555
Be0_6 Sc1_6 2.869408 1_555
Be0_7 Rh5_6 2.267965 1_555
Be0_7 Rh5_7 2.267965 1_555
Be0_7 Rh2_6 2.267965 1_555
Be0_7 Rh2_7 2.267965 1_555
Be0_7 Rh8_6 2.271147 1_555
Be0_7 Rh8_7 2.271147 1_555
Be0_7 Sc0_7 2.743300 1_555
Be0_7 Sc2_5 2.869408 1_555
Be0_7 Sc1_7 2.869408 1_555
Be1_0 Rh0_0 2.267965 1_555
Be1_0 Rh0_1 2.267965 1_554
Be1_0 Rh7_0 2.267965 1_555
Be1_0 Rh7_1 2.267965 1_554
Be1_0 Rh9_1 2.271147 1_554
Be1_0 Rh9_0 2.271147 1_555
Be1_0 Sc1_0 2.743300 1_555
Be1_0 Sc0_4 2.869408 1_455
Be1_0 Sc3_0 2.869408 1_555
Be1_1 Rh0_0 2.267965 1_555
Be1_1 Rh0_1 2.267965 1_555
Be1_1 Rh7_0 2.267965 1_555
Be1_1 Rh7_1 2.267965 1_555
Be1_1 Rh9_0 2.271147 1_555
Be1_1 Rh9_1 2.271147 1_555
Be1_1 Sc1_1 2.743300 1_555
Be1_1 Sc0_5 2.869408 1_455
Be1_1 Sc3_1 2.869408 1_555
Be1_2 Rh0_2 2.267965 1_555
Be1_2 Rh0_3 2.267965 1_554
Be1_2 Rh7_2 2.267965 1_555
Be1_2 Rh7_3 2.267965 1_554
Be1_2 Rh9_2 2.271147 1_555
Be1_2 Rh9_3 2.271147 1_554
Be1_2 Sc1_2 2.743300 1_555
Be1_2 Sc0_6 2.869408 1_455
Be1_2 Sc3_2 2.869408 1_555
Be1_3 Rh0_2 2.267965 1_555
Be1_3 Rh0_3 2.267965 1_555
Be1_3 Rh7_2 2.267965 1_555
Be1_3 Rh7_3 2.267965 1_555
Be1_3 Rh9_2 2.271147 1_555
Be1_3 Rh9_3 2.271147 1_555
Be1_3 Sc1_3 2.743300 1_555
Be1_3 Sc0_7 2.869408 1_455
Be1_3 Sc3_3 2.869408 1_555
Be1_4 Rh0_5 2.267965 1_554
Be1_4 Rh0_4 2.267965 1_555
Be1_4 Rh7_5 2.267965 1_554
Be1_4 Rh7_4 2.267965 1_555
Be1_4 Rh9_5 2.271147 1_554
Be1_4 Rh9_4 2.271147 1_555
Be1_4 Sc1_4 2.743300 1_555
Be1_4 Sc0_0 2.869408 1_555
Be1_4 Sc3_4 2.869408 1_555
Be1_5 Rh0_5 2.267965 1_555
Be1_5 Rh0_4 2.267965 1_555
Be1_5 Rh7_5 2.267965 1_555
Be1_5 Rh7_4 2.267965 1_555
Be1_5 Rh9_4 2.271147 1_555
Be1_5 Rh9_5 2.271147 1_555
Be1_5 Sc1_5 2.743300 1_555
Be1_5 Sc0_1 2.869408 1_555
Be1_5 Sc3_5 2.869408 1_555
Be1_6 Rh0_7 2.267965 1_554
Be1_6 Rh0_6 2.267965 1_555
Be1_6 Rh7_6 2.267965 1_555
Be1_6 Rh7_7 2.267965 1_554
Be1_6 Rh9_7 2.271147 1_554
Be1_6 Rh9_6 2.271147 1_555
Be1_6 Sc1_6 2.743300 1_555
Be1_6 Sc0_2 2.869408 1_555
Be1_6 Sc3_6 2.869408 1_555
Be1_7 Rh0_7 2.267965 1_555
Be1_7 Rh0_6 2.267965 1_555
Be1_7 Rh7_6 2.267965 1_555
Be1_7 Rh7_7 2.267965 1_555
Be1_7 Rh9_7 2.271147 1_555
Be1_7 Rh9_6 2.271147 1_555
Be1_7 Sc1_7 2.743300 1_555
Be1_7 Sc0_3 2.869408 1_555
Be1_7 Sc3_7 2.869408 1_555
Be2_0 Rh6_0 2.267965 1_555
Be2_0 Rh6_1 2.267965 1_554
Be2_0 Rh3_1 2.267965 1_554
Be2_0 Rh3_0 2.267965 1_555
Be2_0 Rh9_5 2.271147 1_554
Be2_0 Rh9_4 2.271147 1_555
Be2_0 Sc2_0 2.743300 1_555
Be2_0 Sc0_0 2.869408 1_555
Be2_0 Sc3_4 2.869408 1_555
Be2_1 Rh6_0 2.267965 1_555
Be2_1 Rh6_1 2.267965 1_555
Be2_1 Rh3_1 2.267965 1_555
Be2_1 Rh3_0 2.267965 1_555
Be2_1 Rh9_5 2.271147 1_555
Be2_1 Rh9_4 2.271147 1_555
Be2_1 Sc2_1 2.743300 1_555
Be2_1 Sc0_1 2.869408 1_555
Be2_1 Sc3_5 2.869408 1_555
Be2_2 Rh6_3 2.267965 1_554
Be2_2 Rh6_2 2.267965 1_555
Be2_2 Rh3_3 2.267965 1_554
Be2_2 Rh3_2 2.267965 1_555
Be2_2 Rh9_7 2.271147 1_554
Be2_2 Rh9_6 2.271147 1_555
Be2_2 Sc2_2 2.743300 1_555
Be2_2 Sc0_2 2.869408 1_555
Be2_2 Sc3_6 2.869408 1_555
Be2_3 Rh6_3 2.267965 1_555
Be2_3 Rh6_2 2.267965 1_555
Be2_3 Rh3_3 2.267965 1_555
Be2_3 Rh3_2 2.267965 1_555
Be2_3 Rh9_7 2.271147 1_555
Be2_3 Rh9_6 2.271147 1_555
Be2_3 Sc2_3 2.743300 1_555
Be2_3 Sc0_3 2.869408 1_555
Be2_3 Sc3_7 2.869408 1_555
Be2_4 Rh6_5 2.267965 1_554
Be2_4 Rh6_4 2.267965 1_555
Be2_4 Rh3_4 2.267965 1_555
Be2_4 Rh3_5 2.267965 1_554
Be2_4 Rh9_0 2.271147 1_655
Be2_4 Rh9_1 2.271147 1_654
Be2_4 Sc2_4 2.743300 1_555
Be2_4 Sc0_4 2.869408 1_555
Be2_4 Sc3_0 2.869408 1_655
Be2_5 Rh6_5 2.267965 1_555
Be2_5 Rh6_4 2.267965 1_555
Be2_5 Rh3_4 2.267965 1_555
Be2_5 Rh3_5 2.267965 1_555
Be2_5 Rh9_0 2.271147 1_655
Be2_5 Rh9_1 2.271147 1_655
Be2_5 Sc2_5 2.743300 1_555
Be2_5 Sc0_5 2.869408 1_555
Be2_5 Sc3_1 2.869408 1_655
Be2_6 Rh6_7 2.267965 1_554
Be2_6 Rh6_6 2.267965 1_555
Be2_6 Rh3_7 2.267965 1_554
Be2_6 Rh3_6 2.267965 1_555
Be2_6 Rh9_3 2.271147 1_654
Be2_6 Rh9_2 2.271147 1_655
Be2_6 Sc2_6 2.743300 1_555
Be2_6 Sc0_6 2.869408 1_555
Be2_6 Sc3_2 2.869408 1_655
Be2_7 Rh6_6 2.267965 1_555
Be2_7 Rh6_7 2.267965 1_555
Be2_7 Rh3_7 2.267965 1_555
Be2_7 Rh3_6 2.267965 1_555
Be2_7 Rh9_2 2.271147 1_655
Be2_7 Rh9_3 2.271147 1_655
Be2_7 Sc2_7 2.743300 1_555
Be2_7 Sc0_7 2.869408 1_555
Be2_7 Sc3_3 2.869408 1_655
Be3_0 Rh1_0 2.267965 1_555
Be3_0 Rh1_1 2.267965 1_554
Be3_0 Rh4_0 2.267965 1_555
Be3_0 Rh4_1 2.267965 1_554
Be3_0 Rh8_3 2.271147 1_554
Be3_0 Rh8_2 2.271147 1_555
Be3_0 Sc3_0 2.743300 1_555
Be3_0 Sc2_0 2.869408 1_555
Be3_0 Sc1_2 2.869408 1_555
Be3_1 Rh1_0 2.267965 1_555
Be3_1 Rh1_1 2.267965 1_555
Be3_1 Rh4_0 2.267965 1_555
Be3_1 Rh4_1 2.267965 1_555
Be3_1 Rh8_2 2.271147 1_555
Be3_1 Rh8_3 2.271147 1_555
Be3_1 Sc3_1 2.743300 1_555
Be3_1 Sc2_1 2.869408 1_555
Be3_1 Sc1_3 2.869408 1_555
Be3_2 Rh1_2 2.267965 1_555
Be3_2 Rh1_3 2.267965 1_554
Be3_2 Rh4_2 2.267965 1_555
Be3_2 Rh4_3 2.267965 1_554
Be3_2 Rh8_0 2.271147 1_565
Be3_2 Rh8_1 2.271147 1_564
Be3_2 Sc3_2 2.743300 1_555
Be3_2 Sc1_0 2.869408 1_565
Be3_2 Sc2_2 2.869408 1_555
Be3_3 Rh1_2 2.267965 1_555
Be3_3 Rh1_3 2.267965 1_555
Be3_3 Rh4_2 2.267965 1_555
Be3_3 Rh4_3 2.267965 1_555
Be3_3 Rh8_1 2.271147 1_565
Be3_3 Rh8_0 2.271147 1_565
Be3_3 Sc3_3 2.743300 1_555
Be3_3 Sc1_1 2.869408 1_565
Be3_3 Sc2_3 2.869408 1_555
Be3_4 Rh1_5 2.267965 1_554
Be3_4 Rh1_4 2.267965 1_555
Be3_4 Rh4_4 2.267965 1_555
Be3_4 Rh4_5 2.267965 1_554
Be3_4 Rh8_6 2.271147 1_555
Be3_4 Rh8_7 2.271147 1_554
Be3_4 Sc3_4 2.743300 1_555
Be3_4 Sc2_4 2.869408 1_555
Be3_4 Sc1_6 2.869408 1_555
Be3_5 Rh1_5 2.267965 1_555
Be3_5 Rh1_4 2.267965 1_555
Be3_5 Rh4_4 2.267965 1_555
Be3_5 Rh4_5 2.267965 1_555
Be3_5 Rh8_6 2.271147 1_555
Be3_5 Rh8_7 2.271147 1_555
Be3_5 Sc3_5 2.743300 1_555
Be3_5 Sc2_5 2.869408 1_555
Be3_5 Sc1_7 2.869408 1_555
Be3_6 Rh1_6 2.267965 1_555
Be3_6 Rh1_7 2.267965 1_554
Be3_6 Rh4_6 2.267965 1_555
Be3_6 Rh4_7 2.267965 1_554
Be3_6 Rh8_4 2.271147 1_565
Be3_6 Rh8_5 2.271147 1_564
Be3_6 Sc3_6 2.743300 1_555
Be3_6 Sc2_6 2.869408 1_555
Be3_6 Sc1_4 2.869408 1_565
Be3_7 Rh1_6 2.267965 1_555
Be3_7 Rh1_7 2.267965 1_555
Be3_7 Rh4_6 2.267965 1_555
Be3_7 Rh4_7 2.267965 1_555
Be3_7 Rh8_4 2.271147 1_565
Be3_7 Rh8_5 2.271147 1_565
Be3_7 Sc3_7 2.743300 1_555
Be3_7 Sc1_5 2.869408 1_565
Be3_7 Sc2_7 2.869408 1_555
Rh0_0 Sn0_0 2.679542 1_555
Rh0_0 Sn0_1 2.679542 1_555
Rh0_0 Sc1_1 2.917361 1_555
Rh0_0 Sc1_0 2.917361 1_555
Rh0_0 Sc0_4 3.009220 1_455
Rh0_0 Sc0_5 3.009220 1_455
Rh0_1 Sn0_1 2.679542 1_555
Rh0_1 Sn0_0 2.679542 1_556
Rh0_1 Sc1_1 2.917361 1_555
Rh0_1 Sc1_0 2.917361 1_556
Rh0_1 Sc0_5 3.009220 1_455
Rh0_1 Sc0_4 3.009220 1_456
Rh0_2 Sn0_3 2.679542 1_555
Rh0_2 Sn0_2 2.679542 1_555
Rh0_2 Sc1_3 2.917361 1_555
Rh0_2 Sc1_2 2.917361 1_555
Rh0_2 Sc0_6 3.009220 1_455
Rh0_2 Sc0_7 3.009220 1_455
Rh0_3 Sn0_2 2.679542 1_556
Rh0_3 Sn0_3 2.679542 1_555
Rh0_3 Sc1_3 2.917361 1_555
Rh0_3 Sc1_2 2.917361 1_556
Rh0_3 Sc0_6 3.009220 1_456
Rh0_3 Sc0_7 3.009220 1_455
Rh0_4 Sn0_4 2.679542 1_555
Rh0_4 Sn0_5 2.679542 1_555
Rh0_4 Sc1_4 2.917361 1_555
Rh0_4 Sc1_5 2.917361 1_555
Rh0_4 Sc0_1 3.009220 1_555
Rh0_4 Sc0_0 3.009220 1_555
Rh0_5 Sn0_5 2.679542 1_555
Rh0_5 Sn0_4 2.679542 1_556
Rh0_5 Sc1_4 2.917361 1_556
Rh0_5 Sc1_5 2.917361 1_555
Rh0_5 Sc0_1 3.009220 1_555
Rh0_5 Sc0_0 3.009220 1_556
Rh0_6 Sn0_7 2.679542 1_555
Rh0_6 Sn0_6 2.679542 1_555
Rh0_6 Sc1_6 2.917361 1_555
Rh0_6 Sc1_7 2.917361 1_555
Rh0_6 Sc0_2 3.009220 1_555
Rh0_6 Sc0_3 3.009220 1_555
Rh0_7 Sn0_7 2.679542 1_555
Rh0_7 Sn0_6 2.679542 1_556
Rh0_7 Sc1_7 2.917361 1_555
Rh0_7 Sc1_6 2.917361 1_556
Rh0_7 Sc0_3 3.009220 1_555
Rh0_7 Sc0_2 3.009220 1_556
Rh1_0 Sn0_2 2.679542 1_555
Rh1_0 Sn0_3 2.679542 1_555
Rh1_0 Sc3_1 2.917361 1_555
Rh1_0 Sc3_0 2.917361 1_555
Rh1_0 Sc1_2 3.009220 1_555
Rh1_0 Sc1_3 3.009220 1_555
Rh1_1 Sn0_2 2.679542 1_556
Rh1_1 Sn0_3 2.679542 1_555
Rh1_1 Sc3_0 2.917361 1_556
Rh1_1 Sc3_1 2.917361 1_555
Rh1_1 Sc1_2 3.009220 1_556
Rh1_1 Sc1_3 3.009220 1_555
Rh1_2 Sn0_1 2.679542 1_565
Rh1_2 Sn0_0 2.679542 1_565
Rh1_2 Sc3_2 2.917361 1_555
Rh1_2 Sc3_3 2.917361 1_555
Rh1_2 Sc1_0 3.009220 1_565
Rh1_2 Sc1_1 3.009220 1_565
Rh1_3 Sn0_1 2.679542 1_565
Rh1_3 Sn0_0 2.679542 1_566
Rh1_3 Sc3_2 2.917361 1_556
Rh1_3 Sc3_3 2.917361 1_555
Rh1_3 Sc1_0 3.009220 1_566
Rh1_3 Sc1_1 3.009220 1_565
Rh1_4 Sn0_6 2.679542 1_555
Rh1_4 Sn0_7 2.679542 1_555
Rh1_4 Sc3_4 2.917361 1_555
Rh1_4 Sc3_5 2.917361 1_555
Rh1_4 Sc1_7 3.009220 1_555
Rh1_4 Sc1_6 3.009220 1_555
Rh1_5 Sn0_6 2.679542 1_556
Rh1_5 Sn0_7 2.679542 1_555
Rh1_5 Sc3_4 2.917361 1_556
Rh1_5 Sc3_5 2.917361 1_555
Rh1_5 Sc1_7 3.009220 1_555
Rh1_5 Sc1_6 3.009220 1_556
Rh1_6 Sn0_5 2.679542 1_565
Rh1_6 Sn0_4 2.679542 1_565
Rh1_6 Sc3_6 2.917361 1_555
Rh1_6 Sc3_7 2.917361 1_555
Rh1_6 Sc1_5 3.009220 1_565
Rh1_6 Sc1_4 3.009220 1_565
Rh1_7 Sn0_5 2.679542 1_565
Rh1_7 Sn0_4 2.679542 1_566
Rh1_7 Sc3_6 2.917361 1_556
Rh1_7 Sc3_7 2.917361 1_555
Rh1_7 Sc1_4 3.009220 1_566
Rh1_7 Sc1_5 3.009220 1_565
Rh2_0 Sn0_5 2.679542 1_555
Rh2_0 Sn0_4 2.679542 1_555
Rh2_0 Sc0_0 2.917361 1_555
Rh2_0 Sc0_1 2.917361 1_555
Rh2_0 Sc2_3 3.009220 1_545
Rh2_0 Sc2_2 3.009220 1_545
Rh2_1 Sn0_5 2.679542 1_555
Rh2_1 Sn0_4 2.679542 1_556
Rh2_1 Sc0_0 2.917361 1_556
Rh2_1 Sc0_1 2.917361 1_555
Rh2_1 Sc2_3 3.009220 1_545
Rh2_1 Sc2_2 3.009220 1_546
Rh2_2 Sn0_6 2.679542 1_555
Rh2_2 Sn0_7 2.679542 1_555
Rh2_2 Sc0_2 2.917361 1_555
Rh2_2 Sc0_3 2.917361 1_555
Rh2_2 Sc2_0 3.009220 1_555
Rh2_2 Sc2_1 3.009220 1_555
Rh2_3 Sn0_6 2.679542 1_556
Rh2_3 Sn0_7 2.679542 1_555
Rh2_3 Sc0_2 2.917361 1_556
Rh2_3 Sc0_3 2.917361 1_555
Rh2_3 Sc2_0 3.009220 1_556
Rh2_3 Sc2_1 3.009220 1_555
Rh2_4 Sn0_0 2.679542 1_655
Rh2_4 Sn0_1 2.679542 1_655
Rh2_4 Sc0_5 2.917361 1_555
Rh2_4 Sc0_4 2.917361 1_555
Rh2_4 Sc2_7 3.009220 1_545
Rh2_4 Sc2_6 3.009220 1_545
Rh2_5 Sn0_0 2.679542 1_656
Rh2_5 Sn0_1 2.679542 1_655
Rh2_5 Sc0_5 2.917361 1_555
Rh2_5 Sc0_4 2.917361 1_556
Rh2_5 Sc2_6 3.009220 1_546
Rh2_5 Sc2_7 3.009220 1_545
Rh2_6 Sn0_2 2.679542 1_655
Rh2_6 Sn0_3 2.679542 1_655
Rh2_6 Sc0_7 2.917361 1_555
Rh2_6 Sc0_6 2.917361 1_555
Rh2_6 Sc2_4 3.009220 1_555
Rh2_6 Sc2_5 3.009220 1_555
Rh2_7 Sn0_2 2.679542 1_656
Rh2_7 Sn0_3 2.679542 1_655
Rh2_7 Sc0_7 2.917361 1_555
Rh2_7 Sc0_6 2.917361 1_556
Rh2_7 Sc2_4 3.009220 1_556
Rh2_7 Sc2_5 3.009220 1_555
Rh3_0 Sn0_6 2.679542 1_555
Rh3_0 Sn0_7 2.679542 1_555
Rh3_0 Sc2_1 2.917361 1_555
Rh3_0 Sc2_0 2.917361 1_555
Rh3_0 Sc3_5 3.009220 1_555
Rh3_0 Sc3_4 3.009220 1_555
Rh3_1 Sn0_6 2.679542 1_556
Rh3_1 Sn0_7 2.679542 1_555
Rh3_1 Sc2_1 2.917361 1_555
Rh3_1 Sc2_0 2.917361 1_556
Rh3_1 Sc3_4 3.009220 1_556
Rh3_1 Sc3_5 3.009220 1_555
Rh3_2 Sn0_4 2.679542 1_565
Rh3_2 Sn0_5 2.679542 1_565
Rh3_2 Sc2_2 2.917361 1_555
Rh3_2 Sc2_3 2.917361 1_555
Rh3_2 Sc3_7 3.009220 1_555
Rh3_2 Sc3_6 3.009220 1_555
Rh3_3 Sn0_5 2.679542 1_565
Rh3_3 Sn0_4 2.679542 1_566
Rh3_3 Sc2_2 2.917361 1_556
Rh3_3 Sc2_3 2.917361 1_555
Rh3_3 Sc3_6 3.009220 1_556
Rh3_3 Sc3_7 3.009220 1_555
Rh3_4 Sn0_3 2.679542 1_655
Rh3_4 Sn0_2 2.679542 1_655
Rh3_4 Sc2_4 2.917361 1_555
Rh3_4 Sc2_5 2.917361 1_555
Rh3_4 Sc3_0 3.009220 1_655
Rh3_4 Sc3_1 3.009220 1_655
Rh3_5 Sn0_3 2.679542 1_655
Rh3_5 Sn0_2 2.679542 1_656
Rh3_5 Sc2_5 2.917361 1_555
Rh3_5 Sc2_4 2.917361 1_556
Rh3_5 Sc3_0 3.009220 1_656
Rh3_5 Sc3_1 3.009220 1_655
Rh3_6 Sn0_0 2.679542 1_665
Rh3_6 Sn0_1 2.679542 1_665
Rh3_6 Sc2_6 2.917361 1_555
Rh3_6 Sc2_7 2.917361 1_555
Rh3_6 Sc3_3 3.009220 1_655
Rh3_6 Sc3_2 3.009220 1_655
Rh3_7 Sn0_0 2.679542 1_666
Rh3_7 Sn0_1 2.679542 1_665
Rh3_7 Sc2_6 2.917361 1_556
Rh3_7 Sc2_7 2.917361 1_555
Rh3_7 Sc3_2 3.009220 1_656
Rh3_7 Sc3_3 3.009220 1_655
Rh4_0 Sn1_1 2.679542 1_555
Rh4_0 Sn1_0 2.679542 1_555
Rh4_0 Sc3_1 2.917361 1_555
Rh4_0 Sc3_0 2.917361 1_555
Rh4_0 Sc2_0 3.009220 1_555
Rh4_0 Sc2_1 3.009220 1_555
Rh4_1 Sn1_0 2.679542 1_556
Rh4_1 Sn1_1 2.679542 1_555
Rh4_1 Sc3_0 2.917361 1_556
Rh4_1 Sc3_1 2.917361 1_555
Rh4_1 Sc2_0 3.009220 1_556
Rh4_1 Sc2_1 3.009220 1_555
Rh4_2 Sn1_2 2.679542 1_555
Rh4_2 Sn1_3 2.679542 1_555
Rh4_2 Sc3_3 2.917361 1_555
Rh4_2 Sc3_2 2.917361 1_555
Rh4_2 Sc2_3 3.009220 1_555
Rh4_2 Sc2_2 3.009220 1_555
Rh4_3 Sn1_2 2.679542 1_556
Rh4_3 Sn1_3 2.679542 1_555
Rh4_3 Sc3_3 2.917361 1_555
Rh4_3 Sc3_2 2.917361 1_556
Rh4_3 Sc2_3 3.009220 1_555
Rh4_3 Sc2_2 3.009220 1_556
Rh4_4 Sn1_5 2.679542 1_555
Rh4_4 Sn1_4 2.679542 1_555
Rh4_4 Sc3_5 2.917361 1_555
Rh4_4 Sc3_4 2.917361 1_555
Rh4_4 Sc2_4 3.009220 1_555
Rh4_4 Sc2_5 3.009220 1_555
Rh4_5 Sn1_5 2.679542 1_555
Rh4_5 Sn1_4 2.679542 1_556
Rh4_5 Sc3_5 2.917361 1_555
Rh4_5 Sc3_4 2.917361 1_556
Rh4_5 Sc2_4 3.009220 1_556
Rh4_5 Sc2_5 3.009220 1_555
Rh4_6 Sn1_7 2.679542 1_555
Rh4_6 Sn1_6 2.679542 1_555
Rh4_6 Sc3_7 2.917361 1_555
Rh4_6 Sc3_6 2.917361 1_555
Rh4_6 Sc2_6 3.009220 1_555
Rh4_6 Sc2_7 3.009220 1_555
Rh4_7 Sn1_6 2.679542 1_556
Rh4_7 Sn1_7 2.679542 1_555
Rh4_7 Sc3_6 2.917361 1_556
Rh4_7 Sc3_7 2.917361 1_555
Rh4_7 Sc2_6 3.009220 1_556
Rh4_7 Sc2_7 3.009220 1_555
Rh5_0 Sn1_0 2.679542 1_555
Rh5_0 Sn1_1 2.679542 1_555
Rh5_0 Sc0_1 2.917361 1_555
Rh5_0 Sc0_0 2.917361 1_555
Rh5_0 Sc1_1 3.009220 1_555
Rh5_0 Sc1_0 3.009220 1_555
Rh5_1 Sn1_1 2.679542 1_555
Rh5_1 Sn1_0 2.679542 1_556
Rh5_1 Sc0_1 2.917361 1_555
Rh5_1 Sc0_0 2.917361 1_556
Rh5_1 Sc1_1 3.009220 1_555
Rh5_1 Sc1_0 3.009220 1_556
Rh5_2 Sn1_3 2.679542 1_555
Rh5_2 Sn1_2 2.679542 1_555
Rh5_2 Sc0_2 2.917361 1_555
Rh5_2 Sc0_3 2.917361 1_555
Rh5_2 Sc1_3 3.009220 1_555
Rh5_2 Sc1_2 3.009220 1_555
Rh5_3 Sn1_2 2.679542 1_556
Rh5_3 Sn1_3 2.679542 1_555
Rh5_3 Sc0_3 2.917361 1_555
Rh5_3 Sc0_2 2.917361 1_556
Rh5_3 Sc1_3 3.009220 1_555
Rh5_3 Sc1_2 3.009220 1_556
Rh5_4 Sn1_4 2.679542 1_555
Rh5_4 Sn1_5 2.679542 1_555
Rh5_4 Sc0_4 2.917361 1_555
Rh5_4 Sc0_5 2.917361 1_555
Rh5_4 Sc1_5 3.009220 1_555
Rh5_4 Sc1_4 3.009220 1_555
Rh5_5 Sn1_5 2.679542 1_555
Rh5_5 Sn1_4 2.679542 1_556
Rh5_5 Sc0_4 2.917361 1_556
Rh5_5 Sc0_5 2.917361 1_555
Rh5_5 Sc1_5 3.009220 1_555
Rh5_5 Sc1_4 3.009220 1_556
Rh5_6 Sn1_6 2.679542 1_555
Rh5_6 Sn1_7 2.679542 1_555
Rh5_6 Sc0_6 2.917361 1_555
Rh5_6 Sc0_7 2.917361 1_555
Rh5_6 Sc1_6 3.009220 1_555
Rh5_6 Sc1_7 3.009220 1_555
Rh5_7 Sn1_6 2.679542 1_556
Rh5_7 Sn1_7 2.679542 1_555
Rh5_7 Sc0_7 2.917361 1_555
Rh5_7 Sc0_6 2.917361 1_556
Rh5_7 Sc1_7 3.009220 1_555
Rh5_7 Sc1_6 3.009220 1_556
Rh6_0 Sn1_1 2.679542 1_555
Rh6_0 Sn1_0 2.679542 1_555
Rh6_0 Sc2_1 2.917361 1_555
Rh6_0 Sc2_0 2.917361 1_555
Rh6_0 Sc0_0 3.009220 1_555
Rh6_0 Sc0_1 3.009220 1_555
Rh6_1 Sn1_0 2.679542 1_556
Rh6_1 Sn1_1 2.679542 1_555
Rh6_1 Sc2_1 2.917361 1_555
Rh6_1 Sc2_0 2.917361 1_556
Rh6_1 Sc0_0 3.009220 1_556
Rh6_1 Sc0_1 3.009220 1_555
Rh6_2 Sn1_3 2.679542 1_555
Rh6_2 Sn1_2 2.679542 1_555
Rh6_2 Sc2_2 2.917361 1_555
Rh6_2 Sc2_3 2.917361 1_555
Rh6_2 Sc0_3 3.009220 1_555
Rh6_2 Sc0_2 3.009220 1_555
Rh6_3 Sn1_3 2.679542 1_555
Rh6_3 Sn1_2 2.679542 1_556
Rh6_3 Sc2_2 2.917361 1_556
Rh6_3 Sc2_3 2.917361 1_555
Rh6_3 Sc0_2 3.009220 1_556
Rh6_3 Sc0_3 3.009220 1_555
Rh6_4 Sn1_4 2.679542 1_555
Rh6_4 Sn1_5 2.679542 1_555
Rh6_4 Sc2_4 2.917361 1_555
Rh6_4 Sc2_5 2.917361 1_555
Rh6_4 Sc0_5 3.009220 1_555
Rh6_4 Sc0_4 3.009220 1_555
Rh6_5 Sn1_4 2.679542 1_556
Rh6_5 Sn1_5 2.679542 1_555
Rh6_5 Sc2_5 2.917361 1_555
Rh6_5 Sc2_4 2.917361 1_556
Rh6_5 Sc0_5 3.009220 1_555
Rh6_5 Sc0_4 3.009220 1_556
Rh6_6 Sn1_7 2.679542 1_555
Rh6_6 Sn1_6 2.679542 1_555
Rh6_6 Sc2_6 2.917361 1_555
Rh6_6 Sc2_7 2.917361 1_555
Rh6_6 Sc0_7 3.009220 1_555
Rh6_6 Sc0_6 3.009220 1_555
Rh6_7 Sn1_6 2.679542 1_556
Rh6_7 Sn1_7 2.679542 1_555
Rh6_7 Sc2_6 2.917361 1_556
Rh6_7 Sc2_7 2.917361 1_555
Rh6_7 Sc0_7 3.009220 1_555
Rh6_7 Sc0_6 3.009220 1_556
Rh7_0 Sn1_1 2.679542 1_555
Rh7_0 Sn1_0 2.679542 1_555
Rh7_0 Sc1_1 2.917361 1_555
Rh7_0 Sc1_0 2.917361 1_555
Rh7_0 Sc3_1 3.009220 1_555
Rh7_0 Sc3_0 3.009220 1_555
Rh7_1 Sn1_1 2.679542 1_555
Rh7_1 Sn1_0 2.679542 1_556
Rh7_1 Sc1_1 2.917361 1_555
Rh7_1 Sc1_0 2.917361 1_556
Rh7_1 Sc3_0 3.009220 1_556
Rh7_1 Sc3_1 3.009220 1_555
Rh7_2 Sn1_3 2.679542 1_555
Rh7_2 Sn1_2 2.679542 1_555
Rh7_2 Sc1_2 2.917361 1_555
Rh7_2 Sc1_3 2.917361 1_555
Rh7_2 Sc3_2 3.009220 1_555
Rh7_2 Sc3_3 3.009220 1_555
Rh7_3 Sn1_3 2.679542 1_555
Rh7_3 Sn1_2 2.679542 1_556
Rh7_3 Sc1_3 2.917361 1_555
Rh7_3 Sc1_2 2.917361 1_556
Rh7_3 Sc3_2 3.009220 1_556
Rh7_3 Sc3_3 3.009220 1_555
Rh7_4 Sn1_4 2.679542 1_555
Rh7_4 Sn1_5 2.679542 1_555
Rh7_4 Sc1_4 2.917361 1_555
Rh7_4 Sc1_5 2.917361 1_555
Rh7_4 Sc3_5 3.009220 1_555
Rh7_4 Sc3_4 3.009220 1_555
Rh7_5 Sn1_5 2.679542 1_555
Rh7_5 Sn1_4 2.679542 1_556
Rh7_5 Sc1_4 2.917361 1_556
Rh7_5 Sc1_5 2.917361 1_555
Rh7_5 Sc3_4 3.009220 1_556
Rh7_5 Sc3_5 3.009220 1_555
Rh7_6 Sn1_6 2.679542 1_555
Rh7_6 Sn1_7 2.679542 1_555
Rh7_6 Sc1_6 2.917361 1_555
Rh7_6 Sc1_7 2.917361 1_555
Rh7_6 Sc3_7 3.009220 1_555
Rh7_6 Sc3_6 3.009220 1_555
Rh7_7 Sn1_6 2.679542 1_556
Rh7_7 Sn1_7 2.679542 1_555
Rh7_7 Sc1_6 2.917361 1_556
Rh7_7 Sc1_7 2.917361 1_555
Rh7_7 Sc3_6 3.009220 1_556
Rh7_7 Sc3_7 3.009220 1_555
Rh8_0 Sc2_2 2.841759 1_545
Rh8_0 Sc2_3 2.841759 1_545
Rh8_0 Sc1_1 2.841759 1_555
Rh8_0 Sc1_0 2.841759 1_555
Rh8_1 Sc2_2 2.841759 1_546
Rh8_1 Sc2_3 2.841759 1_545
Rh8_1 Sc1_1 2.841759 1_555
Rh8_1 Sc1_0 2.841759 1_556
Rh8_2 Sc2_0 2.841759 1_555
Rh8_2 Sc2_1 2.841759 1_555
Rh8_2 Sc1_2 2.841759 1_555
Rh8_2 Sc1_3 2.841759 1_555
Rh8_3 Sc2_0 2.841759 1_556
Rh8_3 Sc2_1 2.841759 1_555
Rh8_3 Sc1_3 2.841759 1_555
Rh8_3 Sc1_2 2.841759 1_556
Rh8_4 Sc2_7 2.841759 1_545
Rh8_4 Sc2_6 2.841759 1_545
Rh8_4 Sc1_5 2.841759 1_555
Rh8_4 Sc1_4 2.841759 1_555
Rh8_5 Sc2_6 2.841759 1_546
Rh8_5 Sc2_7 2.841759 1_545
Rh8_5 Sc1_5 2.841759 1_555
Rh8_5 Sc1_4 2.841759 1_556
Rh8_6 Sc2_5 2.841759 1_555
Rh8_6 Sc2_4 2.841759 1_555
Rh8_6 Sc1_6 2.841759 1_555
Rh8_6 Sc1_7 2.841759 1_555
Rh8_7 Sc2_5 2.841759 1_555
Rh8_7 Sc2_4 2.841759 1_556
Rh8_7 Sc1_6 2.841759 1_556
Rh8_7 Sc1_7 2.841759 1_555
Rh9_0 Sc0_4 2.841759 1_455
Rh9_0 Sc0_5 2.841759 1_455
Rh9_0 Sc3_1 2.841759 1_555
Rh9_0 Sc3_0 2.841759 1_555
Rh9_1 Sc0_4 2.841759 1_456
Rh9_1 Sc0_5 2.841759 1_455
Rh9_1 Sc3_0 2.841759 1_556
Rh9_1 Sc3_1 2.841759 1_555
Rh9_2 Sc3_2 2.841759 1_555
Rh9_2 Sc3_3 2.841759 1_555
Rh9_2 Sc0_7 2.841759 1_455
Rh9_2 Sc0_6 2.841759 1_455
Rh9_3 Sc3_3 2.841759 1_555
Rh9_3 Sc3_2 2.841759 1_556
Rh9_3 Sc0_7 2.841759 1_455
Rh9_3 Sc0_6 2.841759 1_456
Rh9_4 Sc0_0 2.841759 1_555
Rh9_4 Sc3_4 2.841759 1_555
Rh9_4 Sc3_5 2.841759 1_555
Rh9_4 Sc0_1 2.841759 1_555
Rh9_5 Sc3_4 2.841759 1_556
Rh9_5 Sc0_0 2.841759 1_556
Rh9_5 Sc3_5 2.841759 1_555
Rh9_5 Sc0_1 2.841759 1_555
Rh9_6 Sc3_6 2.841759 1_555
Rh9_6 Sc3_7 2.841759 1_555
Rh9_6 Sc0_2 2.841759 1_555
Rh9_6 Sc0_3 2.841759 1_555
Rh9_7 Sc3_6 2.841759 1_556
Rh9_7 Sc3_7 2.841759 1_555
Rh9_7 Sc0_2 2.841759 1_556
Rh9_7 Sc0_3 2.841759 1_555
