# generated using pymatgen
data_Sc6Nb4Al12Os7
_symmetry_space_group_name_H-M   'P 1'
_cell_length_a   8.85162586
_cell_length_b   8.85162609
_cell_length_c   8.85162621
_cell_angle_alpha   60.00000692
_cell_angle_beta   60.00000607
_cell_angle_gamma   60.00000277
_symmetry_Int_Tables_number   1
_chemical_formula_structural   Sc6Nb4Al12Os7
_chemical_formula_sum   'Sc6 Nb4 Al12 Os7'
_cell_volume   490.40425433
_cell_formula_units_Z   1
loop_
 _symmetry_equiv_pos_site_id
 _symmetry_equiv_pos_as_xyz
  1  'x, y, z'
loop_
 _atom_site_type_symbol
 _atom_site_label
 _atom_site_symmetry_multiplicity
 _atom_site_fract_x
 _atom_site_fract_y
 _atom_site_fract_z
 _atom_site_occupancy
  Sc  Sc0  1  0.71030713  0.71030713  0.28969287  1
  Sc  Sc1  1  0.28969287  0.71030713  0.28969287  1
  Sc  Sc2  1  0.71030713  0.28969287  0.28969287  1
  Sc  Sc3  1  0.28969287  0.28969287  0.71030713  1
  Sc  Sc4  1  0.71030713  0.28969287  0.71030713  1
  Sc  Sc5  1  0.28969287  0.71030713  0.71030713  1
  Nb  Nb0  1  0.87936301  0.87936301  0.36190798  1
  Nb  Nb1  1  0.87936301  0.36190798  0.87936301  1
  Nb  Nb2  1  0.36190798  0.87936301  0.87936301  1
  Nb  Nb3  1  0.87936301  0.87936301  0.87936301  1
  Al  Al0  1  0.12188489  0.12188489  0.63434532  1
  Al  Al1  1  0.12188489  0.63434532  0.12188489  1
  Al  Al2  1  0.63434532  0.12188489  0.12188489  1
  Al  Al3  1  0.12188489  0.12188489  0.12188489  1
  Al  Al4  1  0.66272066  0.66272066  0.01183902  1
  Al  Al5  1  0.66272066  0.01183902  0.66272066  1
  Al  Al6  1  0.01183902  0.66272066  0.66272066  1
  Al  Al7  1  0.66272066  0.66272066  0.66272066  1
  Al  Al8  1  0.33393339  0.33393339  0.99819982  1
  Al  Al9  1  0.33393339  0.99819982  0.33393339  1
  Al  Al10  1  0.99819982  0.33393339  0.33393339  1
  Al  Al11  1  0.33393339  0.33393339  0.33393339  1
  Os  Os0  1  0.00000000  0.00000000  0.00000000  1
  Os  Os1  1  0.99717253  0.99717253  0.50282747  1
  Os  Os2  1  0.50282747  0.99717253  0.50282747  1
  Os  Os3  1  0.99717253  0.50282747  0.50282747  1
  Os  Os4  1  0.50282747  0.50282747  0.99717253  1
  Os  Os5  1  0.99717253  0.50282747  0.99717253  1
  Os  Os6  1  0.50282747  0.99717253  0.99717253  1
loop_
_geom_bond_atom_site_label_1
_geom_bond_atom_site_label_2
_geom_bond_distance
_geom_bond_site_symmetry_2
Nb0 Os0 2.615626 1_665
Nb0 Os2 2.723906 1_555
Nb0 Os3 2.723906 1_555
Nb0 Os1 2.723927 1_555
Nb0 Sc0 3.006576 1_555
Nb0 Sc1 3.006599 1_655
Nb0 Sc2 3.006599 1_565
Nb1 Os0 2.615626 1_656
Nb1 Os4 2.723906 1_555
Nb1 Os3 2.723906 1_555
Nb1 Os5 2.723927 1_555
Nb1 Sc4 3.006576 1_555
Nb1 Sc3 3.006599 1_655
Nb1 Sc2 3.006600 1_556
Nb2 Os0 2.615626 1_566
Nb2 Os4 2.723906 1_555
Nb2 Os2 2.723906 1_555
Nb2 Os6 2.723927 1_555
Nb2 Sc5 3.006576 1_555
Nb2 Sc3 3.006599 1_565
Nb2 Sc1 3.006600 1_556
Nb3 Os0 2.615647 1_666
Nb3 Os6 2.723905 1_555
Nb3 Os5 2.723905 1_555
Nb3 Os1 2.723905 1_555
Nb3 Sc5 3.006596 1_655
Nb3 Sc4 3.006596 1_565
Nb3 Sc0 3.006596 1_556
Al0 Os0 2.642705 1_556
Al0 Os1 2.753414 1_445
Al0 Os2 2.753415 1_545
Al0 Os3 2.753415 1_455
Al0 Sc3 3.011410 1_555
Al0 Sc4 3.011410 1_455
Al0 Sc5 3.011411 1_545
Al1 Os0 2.642704 1_565
Al1 Os5 2.753414 1_454
Al1 Os4 2.753415 1_554
Al1 Os3 2.753415 1_455
Al1 Sc1 3.011410 1_555
Al1 Sc0 3.011411 1_455
Al1 Sc5 3.011411 1_554
Al2 Os0 2.642704 1_655
Al2 Os6 2.753414 1_544
Al2 Os4 2.753415 1_554
Al2 Os2 2.753415 1_545
Al2 Sc2 3.011410 1_555
Al2 Sc0 3.011411 1_545
Al2 Sc4 3.011411 1_554
Al3 Os0 2.642704 1_555
Al3 Os6 2.753415 1_544
Al3 Os5 2.753415 1_454
Al3 Os1 2.753415 1_445
Al3 Sc2 3.011411 1_455
Al3 Sc1 3.011411 1_545
Al3 Sc3 3.011411 1_554
Al4 Os5 2.528565 1_554
Al4 Os6 2.528565 1_554
Al4 Os4 2.528573 1_554
Al4 Sc0 2.941622 1_555
Al4 Sc1 2.941628 1_555
Al4 Sc2 2.941628 1_555
Al5 Os1 2.528565 1_545
Al5 Os6 2.528565 1_545
Al5 Os2 2.528573 1_545
Al5 Sc4 2.941622 1_555
Al5 Sc3 2.941628 1_555
Al5 Sc2 2.941628 1_555
Al6 Os1 2.528565 1_455
Al6 Os5 2.528565 1_455
Al6 Os3 2.528573 1_455
Al6 Sc5 2.941622 1_555
Al6 Sc3 2.941628 1_555
Al6 Sc1 2.941628 1_555
Al7 Os3 2.528567 1_555
Al7 Os2 2.528568 1_555
Al7 Os4 2.528568 1_555
Al7 Sc5 2.941631 1_555
Al7 Sc4 2.941631 1_555
Al7 Sc0 2.941631 1_555
Al8 Os4 2.584154 1_555
Al8 Os5 2.584154 1_455
Al8 Os6 2.584155 1_545
Al8 Sc3 2.991626 1_555
Al8 Sc4 2.991626 1_555
Al8 Sc5 2.991626 1_555
Al9 Os2 2.584154 1_555
Al9 Os1 2.584155 1_455
Al9 Os6 2.584155 1_554
Al9 Sc1 2.991626 1_555
Al9 Sc0 2.991626 1_555
Al9 Sc5 2.991626 1_555
Al10 Os3 2.584154 1_555
Al10 Os1 2.584155 1_545
Al10 Os5 2.584155 1_554
Al10 Sc2 2.991626 1_555
Al10 Sc0 2.991626 1_555
Al10 Sc4 2.991626 1_555
Al11 Os3 2.584155 1_455
Al11 Os2 2.584155 1_545
Al11 Os4 2.584155 1_554
Al11 Sc2 2.991626 1_555
Al11 Sc1 2.991626 1_555
Al11 Sc3 2.991626 1_555
Os1 Sc5 3.168920 1_655
Os1 Sc4 3.168920 1_565
Os1 Sc1 3.168920 1_655
Os1 Sc2 3.168920 1_565
Os2 Sc0 3.168920 1_555
Os2 Sc3 3.168920 1_565
Os2 Sc5 3.168920 1_555
Os2 Sc2 3.168920 1_565
Os3 Sc0 3.168920 1_555
Os3 Sc3 3.168920 1_655
Os3 Sc4 3.168920 1_555
Os3 Sc1 3.168920 1_655
Os4 Sc5 3.168920 1_555
Os4 Sc4 3.168920 1_555
Os4 Sc1 3.168920 1_556
Os4 Sc2 3.168920 1_556
Os5 Sc3 3.168920 1_655
Os5 Sc0 3.168920 1_556
Os5 Sc5 3.168920 1_655
Os5 Sc2 3.168920 1_556
Os6 Sc0 3.168920 1_556
Os6 Sc3 3.168920 1_565
Os6 Sc4 3.168920 1_565
Os6 Sc1 3.168920 1_556
