# generated using pymatgen
data_Ti3NbP2
_symmetry_space_group_name_H-M   'P 1'
_cell_length_a   3.43228306
_cell_length_b   6.48692439
_cell_length_c   8.02644800
_cell_angle_alpha   90.31935947
_cell_angle_beta   90.00000000
_cell_angle_gamma   90.00000000
_symmetry_Int_Tables_number   1
_chemical_formula_structural   Ti3NbP2
_chemical_formula_sum   'Ti6 Nb2 P4'
_cell_volume   178.70577324
_cell_formula_units_Z   2
loop_
 _symmetry_equiv_pos_site_id
 _symmetry_equiv_pos_as_xyz
  1  'x, y, z'
loop_
 _atom_site_type_symbol
 _atom_site_label
 _atom_site_symmetry_multiplicity
 _atom_site_fract_x
 _atom_site_fract_y
 _atom_site_fract_z
 _atom_site_occupancy
  Ti  Ti0  1  0.75000000  0.96420513  0.67137822  1
  Ti  Ti1  1  0.25000000  0.03579487  0.32862178  1
  Ti  Ti2  1  0.25000000  0.63909621  0.56366349  1
  Ti  Ti3  1  0.75000000  0.36090379  0.43633651  1
  Ti  Ti4  1  0.75000000  0.85685013  0.06299916  1
  Ti  Ti5  1  0.25000000  0.14314987  0.93700084  1
  Nb  Nb0  1  0.25000000  0.53524099  0.17361725  1
  Nb  Nb1  1  0.75000000  0.46475901  0.82638275  1
  P  P0  1  0.25000000  0.76369388  0.85825844  1
  P  P1  1  0.75000000  0.23630612  0.14174156  1
  P  P2  1  0.75000000  0.74858877  0.36536236  1
  P  P3  1  0.25000000  0.25141123  0.63463764  1
loop_
_geom_bond_atom_site_label_1
_geom_bond_atom_site_label_2
_geom_bond_distance
_geom_bond_site_symmetry_2
Nb0 P1 2.601046 1_555
Nb0 P1 2.601046 1_455
Nb0 P2 2.684286 1_555
Nb0 P2 2.684286 1_455
Nb0 P0 2.940245 1_554
Nb1 P0 2.601046 1_555
Nb1 P0 2.601046 1_655
Nb1 P3 2.684286 1_655
Nb1 P3 2.684286 1_555
Nb1 P1 2.940245 1_556
P0 Ti4 2.449452 1_456
P0 Ti4 2.449452 1_556
P0 Ti2 2.494609 1_555
P0 Ti5 2.537933 1_565
P0 Ti0 2.628435 1_555
P0 Ti0 2.628435 1_455
P1 Ti5 2.449452 1_654
P1 Ti5 2.449452 1_554
P1 Ti3 2.494609 1_555
P1 Ti4 2.537933 1_545
P1 Ti1 2.628435 1_655
P1 Ti1 2.628435 1_555
P2 Ti2 2.448589 1_555
P2 Ti2 2.448589 1_655
P2 Ti4 2.530229 1_555
P2 Ti1 2.551336 1_565
P2 Ti1 2.551336 1_665
P2 Ti3 2.581692 1_555
P2 Ti0 2.819760 1_555
P3 Ti3 2.448589 1_455
P3 Ti3 2.448589 1_555
P3 Ti5 2.530229 1_555
P3 Ti0 2.551336 1_545
P3 Ti0 2.551336 1_445
P3 Ti2 2.581692 1_555
P3 Ti1 2.819760 1_555
