# generated using pymatgen
data_Hf6Si6Tc5Au
_symmetry_space_group_name_H-M   'P 1'
_cell_length_a   7.71413438
_cell_length_b   7.71425149
_cell_length_c   7.71425098
_cell_angle_alpha   126.89212788
_cell_angle_beta   126.75481598
_cell_angle_gamma   78.53927146
_symmetry_Int_Tables_number   1
_chemical_formula_structural   Hf6Si6Tc5Au
_chemical_formula_sum   'Hf6 Si6 Tc5 Au1'
_cell_volume   284.77835924
_cell_formula_units_Z   1
loop_
 _symmetry_equiv_pos_site_id
 _symmetry_equiv_pos_as_xyz
  1  'x, y, z'
loop_
 _atom_site_type_symbol
 _atom_site_label
 _atom_site_symmetry_multiplicity
 _atom_site_fract_x
 _atom_site_fract_y
 _atom_site_fract_z
 _atom_site_occupancy
  Hf  Hf0  1  0.54472474  0.09104754  0.04342608  1
  Hf  Hf1  1  0.45527526  0.49870134  0.54632080  1
  Hf  Hf2  1  0.95227297  0.49875754  0.04346672  1
  Hf  Hf3  1  0.04772703  0.09119375  0.54648558  1
  Hf  Hf4  1  0.74606606  0.89828429  0.64434116  1
  Hf  Hf5  1  0.25393394  0.89827510  0.15221723  1
  Si  Si0  1  0.33442839  0.83384779  0.49942165  1
  Si  Si1  1  0.66557161  0.16499325  0.49941839  1
  Si  Si2  1  0.83080883  0.82262511  0.99184401  1
  Si  Si3  1  0.16919117  0.16103519  0.99181428  1
  Si  Si4  1  0.74212292  0.49848990  0.24054184  1
  Si  Si5  1  0.25787708  0.49841892  0.75636698  1
  Tc  Tc0  1  0.12652225  0.74854223  0.62199360  1
  Tc  Tc1  1  0.87347775  0.49547135  0.62201998  1
  Tc  Tc2  1  0.62717075  0.75441301  0.12689647  1
  Tc  Tc3  1  0.37282925  0.49972372  0.12724126  1
  Tc  Tc4  1  0.50000000  0.24643553  0.74643553  1
  Au  Au0  1  0.00000000  0.24374846  0.24374846  1
loop_
_geom_bond_atom_site_label_1
_geom_bond_atom_site_label_2
_geom_bond_distance
_geom_bond_site_symmetry_2
Hf0 Si3 2.664267 1_554
Hf0 Si0 2.704490 1_544
Hf0 Si1 2.728710 1_555
Hf0 Si2 2.749933 1_544
Hf0 Si4 2.811181 1_555
Hf0 Tc2 2.902430 1_545
Hf0 Tc0 2.912062 1_544
Hf0 Tc1 2.994238 1_555
Hf0 Tc4 2.998632 1_554
Hf0 Tc3 3.005484 1_555
Hf1 Si2 2.664274 1_555
Hf1 Si1 2.704491 1_555
Hf1 Si0 2.728710 1_555
Hf1 Si3 2.749933 1_554
Hf1 Si5 2.811195 1_555
Hf1 Tc3 2.902412 1_555
Hf1 Tc1 2.912055 1_555
Hf1 Tc0 2.994243 1_555
Hf1 Tc4 2.998645 1_555
Hf1 Tc2 3.005508 1_556
Hf2 Si2 2.663872 1_554
Hf2 Si1 2.704660 1_554
Hf2 Si0 2.728898 1_655
Hf2 Si3 2.750537 1_654
Hf2 Si4 2.809624 1_555
Hf2 Tc3 2.904713 1_655
Hf2 Tc1 2.912419 1_554
Hf2 Tc0 2.993707 1_655
Hf2 Tc4 2.997973 1_554
Hf2 Tc2 3.005904 1_555
Hf3 Si3 2.663849 1_555
Hf3 Si0 2.704658 1_545
Hf3 Si1 2.728892 1_455
Hf3 Si2 2.750543 1_444
Hf3 Si5 2.809628 1_555
Hf3 Tc2 2.904710 1_445
Hf3 Tc0 2.912414 1_545
Hf3 Tc1 2.993708 1_455
Hf3 Tc4 2.997976 1_555
Hf3 Tc3 3.005894 1_556
Hf4 Si1 2.700317 1_565
Hf4 Si0 2.700328 1_555
Hf4 Si3 2.753628 1_665
Hf4 Si2 2.753885 1_555
Hf4 Si4 2.757795 1_555
Hf4 Tc4 2.942820 1_565
Hf4 Tc3 2.950025 1_555
Hf4 Tc2 2.951377 1_555
Hf4 Tc0 2.999474 1_655
Hf4 Tc1 2.999675 1_555
Hf5 Si0 2.700319 1_555
Hf5 Si1 2.700328 1_565
Hf5 Si2 2.753629 1_454
Hf5 Si3 2.753891 1_564
Hf5 Si5 2.757792 1_554
Hf5 Tc4 2.942825 1_565
Hf5 Tc2 2.950014 1_555
Hf5 Tc3 2.951392 1_555
Hf5 Tc1 2.999473 1_454
Hf5 Tc0 2.999667 1_554
Si0 Tc3 2.608452 1_555
Si0 Tc4 2.610305 1_565
Si0 Tc0 2.623117 1_555
Si1 Tc2 2.608441 1_545
Si1 Tc4 2.610311 1_555
Si1 Tc1 2.623113 1_555
Si2 Tc1 2.601149 1_555
Si2 Tc2 2.602949 1_556
Si3 Tc0 2.601145 1_545
Si3 Tc3 2.602931 1_556
Si4 Tc4 2.413022 1_554
Si4 Tc3 2.428763 1_555
Si4 Tc2 2.429928 1_555
Si4 Tc0 2.487610 1_655
Si4 Tc1 2.488303 1_555
Si5 Tc4 2.413023 1_555
Si5 Tc2 2.428766 1_556
Si5 Tc3 2.429930 1_556
Si5 Tc1 2.487610 1_455
Si5 Tc0 2.488303 1_555
Au0 Si5 2.503130 1_555
Au0 Si4 2.503130 1_455
Au0 Si2 2.665249 1_444
Au0 Si3 2.665262 1_554
Au0 Hf4 2.959693 1_444
Au0 Hf5 2.959694 1_545
Au0 Hf2 3.012157 1_455
Au0 Hf3 3.012164 1_555
Au0 Hf0 3.012206 1_455
Au0 Hf1 3.012211 1_555
Au0 Tc1 3.015071 1_455
Au0 Tc0 3.015071 1_555
