# generated using pymatgen
data_CaTePdO6
_symmetry_space_group_name_H-M   'P 1'
_cell_length_a   5.16094931
_cell_length_b   5.16094939
_cell_length_c   5.05704541
_cell_angle_alpha   90.00000000
_cell_angle_beta   90.00000000
_cell_angle_gamma   119.99999950
_symmetry_Int_Tables_number   1
_chemical_formula_structural   CaTePdO6
_chemical_formula_sum   'Ca1 Te1 Pd1 O6'
_cell_volume   116.65052053
_cell_formula_units_Z   1
loop_
 _symmetry_equiv_pos_site_id
 _symmetry_equiv_pos_as_xyz
  1  'x, y, z'
loop_
 _atom_site_type_symbol
 _atom_site_label
 _atom_site_symmetry_multiplicity
 _atom_site_fract_x
 _atom_site_fract_y
 _atom_site_fract_z
 _atom_site_occupancy
  Ca  Ca0  1  0.00000000  0.00000000  0.00000000  1
  Te  Te0  1  0.66666800  0.33333400  0.50000000  1
  Pd  Pd0  1  0.33333300  0.66666700  0.50000000  1
  O  O0  1  0.63955873  0.00998834  0.28667883  1
  O  O1  1  0.37042961  0.36044027  0.28667883  1
  O  O2  1  0.99001066  0.62957039  0.28667883  1
  O  O3  1  0.37042861  0.00998834  0.71332117  1
  O  O4  1  0.99001066  0.36044027  0.71332117  1
  O  O5  1  0.63955773  0.62957039  0.71332117  1
loop_
_geom_bond_atom_site_label_1
_geom_bond_atom_site_label_2
_geom_bond_distance
_geom_bond_site_symmetry_2
Ca0 O3 2.379226 1_554
Ca0 O1 2.379228 1_555
Ca0 O4 2.379228 1_454
Ca0 O2 2.379228 1_445
Ca0 O0 2.379230 1_455
Ca0 O5 2.379232 1_444
O0 Te0 1.932524 1_555
O0 Pd0 2.000172 1_545
O1 Te0 1.932525 1_555
O1 Pd0 2.000179 1_555
O2 Te0 1.932517 1_555
O2 Pd0 2.000175 1_655
O3 Te0 1.932529 1_555
O3 Pd0 2.000172 1_545
O4 Te0 1.932517 1_555
O4 Pd0 2.000177 1_655
O5 Te0 1.932526 1_555
O5 Pd0 2.000170 1_555
