# generated using pymatgen
data_ErInRh
_symmetry_space_group_name_H-M   'P 1'
_cell_length_a   7.42382029
_cell_length_b   7.42382077
_cell_length_c   3.89944901
_cell_angle_alpha   90.00000000
_cell_angle_beta   90.00000000
_cell_angle_gamma   120.00000699
_symmetry_Int_Tables_number   1
_chemical_formula_structural   ErInRh
_chemical_formula_sum   'Er3 In3 Rh3'
_cell_volume   186.11817073
_cell_formula_units_Z   3
loop_
 _symmetry_equiv_pos_site_id
 _symmetry_equiv_pos_as_xyz
  1  'x, y, z'
loop_
 _atom_site_type_symbol
 _atom_site_label
 _atom_site_symmetry_multiplicity
 _atom_site_fract_x
 _atom_site_fract_y
 _atom_site_fract_z
 _atom_site_occupancy
  Er  Er0  1  0.00000000  0.59444067  0.50000000  1
  Er  Er1  1  0.40555933  0.40555933  0.50000000  1
  Er  Er2  1  0.59444067  0.00000000  0.50000000  1
  In  In0  1  0.25761013  0.00000000  -0.00000000  1
  In  In1  1  0.74238987  0.74238987  -0.00000000  1
  In  In2  1  0.00000000  0.25761013  0.00000000  1
  Rh  Rh0  1  0.66666700  0.33333300  -0.00000000  1
  Rh  Rh1  1  0.33333300  0.66666700  0.00000000  1
  Rh  Rh2  1  0.00000000  0.00000000  0.50000000  1
loop_
_geom_bond_atom_site_label_1
_geom_bond_atom_site_label_2
_geom_bond_distance
_geom_bond_site_symmetry_2
Er0 Rh1 2.980893 1_555
Er0 Rh1 2.980893 1_556
Er0 Rh0 2.980895 1_456
Er0 Rh0 2.980895 1_455
Er0 Rh2 3.010800 1_565
Er0 In2 3.170847 1_556
Er0 In2 3.170847 1_555
Er0 In0 3.281128 1_565
Er0 In0 3.281128 1_566
Er0 In1 3.281128 1_456
Er0 In1 3.281128 1_455
Er1 Rh0 2.980899 1_555
Er1 Rh0 2.980899 1_556
Er1 Rh1 2.980899 1_555
Er1 Rh1 2.980899 1_556
Er1 Rh2 3.010799 1_555
Er1 In1 3.170847 1_555
Er1 In1 3.170847 1_556
Er1 In2 3.281128 1_556
Er1 In2 3.281128 1_555
Er1 In0 3.281128 1_555
Er1 In0 3.281128 1_556
Er2 Rh0 2.980894 1_556
Er2 Rh0 2.980894 1_555
Er2 Rh1 2.980895 1_546
Er2 Rh1 2.980895 1_545
Er2 Rh2 3.010800 1_655
Er2 In0 3.170847 1_555
Er2 In0 3.170847 1_556
Er2 In2 3.281128 1_656
Er2 In2 3.281128 1_655
Er2 In1 3.281128 1_545
Er2 In1 3.281128 1_546
In0 Rh2 2.731098 1_554
In0 Rh2 2.731098 1_555
In0 Rh1 2.798355 1_545
In0 Rh0 2.798359 1_555
In0 In1 3.312463 1_445
In0 In2 3.312463 1_555
In1 Rh2 2.731098 1_664
In1 Rh2 2.731098 1_665
In1 Rh1 2.798362 1_555
In1 Rh0 2.798362 1_555
In1 In2 3.312463 1_665
In2 Rh2 2.731098 1_554
In2 Rh2 2.731098 1_555
In2 Rh0 2.798355 1_455
In2 Rh1 2.798359 1_555
