# generated using pymatgen
data_Zr3ScSi6Ir7
_symmetry_space_group_name_H-M   'P 1'
_cell_length_a   6.97499867
_cell_length_b   7.00201150
_cell_length_c   6.97499884
_cell_angle_alpha   109.54968239
_cell_angle_beta   109.39263710
_cell_angle_gamma   109.54969874
_symmetry_Int_Tables_number   1
_chemical_formula_structural   Zr3ScSi6Ir7
_chemical_formula_sum   'Zr3 Sc1 Si6 Ir7'
_cell_volume   261.97973477
_cell_formula_units_Z   1
loop_
 _symmetry_equiv_pos_site_id
 _symmetry_equiv_pos_as_xyz
  1  'x, y, z'
loop_
 _atom_site_type_symbol
 _atom_site_label
 _atom_site_symmetry_multiplicity
 _atom_site_fract_x
 _atom_site_fract_y
 _atom_site_fract_z
 _atom_site_occupancy
  Zr  Zr0  1  0.00000000  0.00000000  0.50000000  1
  Zr  Zr1  1  0.50000000  0.00000000  0.00000000  1
  Zr  Zr2  1  0.50000000  0.50000000  0.50000000  1
  Sc  Sc0  1  0.00000000  0.50000000  0.00000000  1
  Si  Si0  1  0.68044471  0.67780863  0.00000000  1
  Si  Si1  1  0.31955529  0.99736392  0.31955529  1
  Si  Si2  1  1.00000000  0.32219137  0.31955529  1
  Si  Si3  1  0.31955529  0.32219137  1.00000000  1
  Si  Si4  1  0.68044471  0.00263608  0.68044471  1
  Si  Si5  1  0.00000000  0.67780863  0.68044471  1
  Ir  Ir0  1  0.74955908  0.24955908  0.49911716  1
  Ir  Ir1  1  0.74955908  0.50000000  0.25044092  1
  Ir  Ir2  1  0.49911716  0.24955908  0.74955908  1
  Ir  Ir3  1  0.25044092  0.50000000  0.74955908  1
  Ir  Ir4  1  0.25044092  0.75044092  0.50088284  1
  Ir  Ir5  1  0.50088284  0.75044092  0.25044092  1
  Ir  Ir6  1  0.00000000  0.00000000  0.00000000  1
loop_
_geom_bond_atom_site_label_1
_geom_bond_atom_site_label_2
_geom_bond_distance
_geom_bond_site_symmetry_2
Sc0 Si2 2.893999 1_455
Sc0 Si5 2.893999 1_554
Sc0 Si1 2.893999 1_555
Sc0 Si4 2.893999 1_454
Sc0 Si3 2.893999 1_554
Sc0 Si0 2.893999 1_455
Si0 Zr0 2.902986 1_665
Si0 Zr2 2.902986 1_554
Si0 Zr1 2.928108 1_565
Si1 Zr0 2.902986 1_565
Si1 Zr1 2.902986 1_565
Si1 Zr2 2.928108 1_565
Si2 Zr2 2.902986 1_655
Si2 Zr1 2.902986 1_555
Si2 Zr0 2.928108 1_655
Si3 Zr0 2.902986 1_555
Si3 Zr2 2.902986 1_556
Si3 Zr1 2.928108 1_556
Si4 Zr0 2.902986 1_655
Si4 Zr1 2.902986 1_556
Si4 Zr2 2.928108 1_545
Si5 Zr2 2.902986 1_455
Si5 Zr1 2.902986 1_566
Si5 Zr0 2.928108 1_565
Ir0 Si5 2.476250 1_655
Ir0 Si4 2.476257 1_555
Ir0 Si2 2.482592 1_555
Ir0 Si1 2.482599 1_545
Ir0 Zr1 2.841125 1_555
Ir0 Sc0 2.851175 1_656
Ir0 Zr2 2.854433 1_555
Ir0 Zr0 2.854433 1_655
Ir1 Si0 2.476251 1_555
Ir1 Si2 2.476251 1_555
Ir1 Si3 2.482598 1_554
Ir1 Si5 2.482598 1_655
Ir1 Zr2 2.841130 1_555
Ir1 Sc0 2.851170 1_655
Ir1 Zr0 2.854433 1_665
Ir1 Zr1 2.854433 1_555
Ir2 Si0 2.476250 1_556
Ir2 Si4 2.476257 1_555
Ir2 Si3 2.482592 1_555
Ir2 Si1 2.482599 1_545
Ir2 Zr0 2.841124 1_555
Ir2 Sc0 2.851175 1_656
Ir2 Zr2 2.854433 1_555
Ir2 Zr1 2.854433 1_556
Ir3 Si3 2.476251 1_555
Ir3 Si5 2.476251 1_555
Ir3 Si0 2.482598 1_556
Ir3 Si2 2.482598 1_455
Ir3 Zr2 2.841130 1_555
Ir3 Sc0 2.851170 1_556
Ir3 Zr0 2.854433 1_555
Ir3 Zr1 2.854433 1_566
Ir4 Si2 2.476250 1_455
Ir4 Si1 2.476257 1_555
Ir4 Si5 2.482592 1_555
Ir4 Si4 2.482599 1_565
Ir4 Zr1 2.841125 1_566
Ir4 Sc0 2.851175 1_555
Ir4 Zr2 2.854433 1_555
Ir4 Zr0 2.854433 1_565
Ir5 Si3 2.476250 1_554
Ir5 Si1 2.476257 1_555
Ir5 Si0 2.482592 1_555
Ir5 Si4 2.482599 1_565
Ir5 Zr0 2.841124 1_665
Ir5 Sc0 2.851175 1_555
Ir5 Zr2 2.854433 1_555
Ir5 Zr1 2.854433 1_565
Ir6 Si3 2.586936 1_554
Ir6 Si0 2.586936 1_445
Ir6 Si1 2.586936 1_545
Ir6 Si4 2.586936 1_454
Ir6 Si2 2.586937 1_455
Ir6 Si5 2.586937 1_544
