# generated using pymatgen
data_InH4I4N
_symmetry_space_group_name_H-M   'P 1'
_cell_length_a   10.47051738
_cell_length_b   10.47051663
_cell_length_c   10.47051652
_cell_angle_alpha   135.33425119
_cell_angle_beta   135.33425711
_cell_angle_gamma   65.01128477
_symmetry_Int_Tables_number   1
_chemical_formula_structural   InH4I4N
_chemical_formula_sum   'In2 H8 I8 N2'
_cell_volume   559.11816922
_cell_formula_units_Z   2
loop_
 _symmetry_equiv_pos_site_id
 _symmetry_equiv_pos_as_xyz
  1  'x, y, z'
loop_
 _atom_site_type_symbol
 _atom_site_label
 _atom_site_symmetry_multiplicity
 _atom_site_fract_x
 _atom_site_fract_y
 _atom_site_fract_z
 _atom_site_occupancy
  In  In0  1  0.50000000  0.50000000  0.00000000  1
  In  In1  1  0.25000000  0.75000000  0.50000000  1
  H  H0  1  0.88735707  0.26530048  0.58501605  1
  H  H1  1  0.69765898  0.11264293  0.37794341  1
  H  H2  1  0.73469952  0.31971557  0.62205659  1
  H  H3  1  0.06971557  0.94765898  0.08501605  1
  H  H4  1  0.68028443  0.30234102  0.41498395  1
  H  H5  1  0.01530048  0.93028443  0.87794341  1
  H  H6  1  0.05234102  0.13735707  0.12205659  1
  H  H7  1  0.86264293  0.98469952  0.91498395  1
  I  I0  1  0.73885757  0.33861326  0.90840015  1
  I  I1  1  0.08861326  0.68021310  0.09975469  1
  I  I2  1  0.16954159  0.26114243  0.59975469  1
  I  I3  1  0.43021310  0.83045841  0.09159985  1
  I  I4  1  0.31978690  0.41954159  0.40840015  1
  I  I5  1  0.58045841  0.98885757  0.90024531  1
  I  I6  1  0.66138674  0.56978690  0.40024531  1
  I  I7  1  0.01114243  0.91138674  0.59159985  1
  N  N0  1  0.75000000  0.25000000  0.50000000  1
  N  N1  1  0.00000000  0.00000000  0.00000000  1
loop_
_geom_bond_atom_site_label_1
_geom_bond_atom_site_label_2
_geom_bond_distance
_geom_bond_site_symmetry_2
H0 N0 1.028219 1_555
H1 N0 1.028219 1_555
H2 N0 1.028219 1_555
H3 N1 1.028219 1_565
H4 N0 1.028219 1_555
H5 N1 1.028219 1_566
H6 N1 1.028219 1_555
H7 N1 1.028219 1_666
I0 In0 2.750668 1_556
I1 In1 2.750677 1_555
I2 In0 2.750673 1_556
I3 In0 2.750677 1_555
I4 In1 2.750677 1_555
I5 In1 2.750673 1_555
I6 In0 2.750677 1_555
I7 In1 2.750668 1_555
