# generated using pymatgen
data_Cs2CdSiSe4
_symmetry_space_group_name_H-M   'P 1'
_cell_length_a   14.44495298
_cell_length_b   12.96528389
_cell_length_c   7.85877911
_cell_angle_alpha   84.02792511
_cell_angle_beta   63.21371475
_cell_angle_gamma   32.75837590
_symmetry_Int_Tables_number   1
_chemical_formula_structural   Cs2CdSiSe4
_chemical_formula_sum   'Cs4 Cd2 Si2 Se8'
_cell_volume   584.52836901
_cell_formula_units_Z   2
loop_
 _symmetry_equiv_pos_site_id
 _symmetry_equiv_pos_as_xyz
  1  'x, y, z'
loop_
 _atom_site_type_symbol
 _atom_site_label
 _atom_site_symmetry_multiplicity
 _atom_site_fract_x
 _atom_site_fract_y
 _atom_site_fract_z
 _atom_site_occupancy
  Cs  Cs0  1  0.68055031  0.68055031  0.31944969  1
  Cs  Cs1  1  0.31944969  0.31944969  0.68055031  1
  Cs  Cs2  1  0.93055031  0.93055031  0.56944969  1
  Cs  Cs3  1  0.56944969  0.56944969  0.93055031  1
  Cd  Cd0  1  0.00000000  0.00000000  0.00000000  1
  Cd  Cd1  1  0.25000000  0.25000000  0.25000000  1
  Si  Si0  1  0.75000000  0.75000000  0.75000000  1
  Si  Si1  1  0.50000000  0.50000000  0.50000000  1
  Se  Se0  1  0.39864757  0.99646007  0.91851877  1
  Se  Se1  1  0.68637359  0.91851877  0.99646007  1
  Se  Se2  1  0.91851877  0.68637359  0.39864757  1
  Se  Se3  1  0.99646007  0.39864757  0.68637359  1
  Se  Se4  1  0.25353993  0.85135243  0.56362641  1
  Se  Se5  1  0.56362641  0.33148123  0.25353993  1
  Se  Se6  1  0.33148123  0.56362641  0.85135243  1
  Se  Se7  1  0.85135243  0.25353993  0.33148123  1
loop_
_geom_bond_atom_site_label_1
_geom_bond_atom_site_label_2
_geom_bond_distance
_geom_bond_site_symmetry_2
Cs0 Se7 3.724823 1_555
Cs0 Se4 3.724824 1_555
Cs0 Se0 3.768770 1_555
Cs0 Se3 3.768771 1_554
Cs0 Se2 3.818866 1_555
Cs0 Se1 3.818866 1_554
Cs0 Se3 4.220062 1_465
Cs0 Se0 4.220062 1_644
Cs1 Se6 3.724823 1_555
Cs1 Se5 3.724824 1_555
Cs1 Se2 3.768770 1_545
Cs1 Se1 3.768770 1_455
Cs1 Se3 3.818866 1_455
Cs1 Se0 3.818866 1_545
Cs1 Se1 4.220062 1_544
Cs1 Se2 4.220062 1_456
Cs2 Se2 3.724823 1_555
Cs2 Se1 3.724824 1_555
Cs2 Se6 3.768770 1_565
Cs2 Se5 3.768770 1_655
Cs2 Se4 3.818866 1_655
Cs2 Se7 3.818866 1_565
Cs2 Se5 4.220062 1_566
Cs2 Se6 4.220062 1_654
Cs3 Se0 3.724823 1_555
Cs3 Se3 3.724824 1_555
Cs3 Se7 3.768770 1_555
Cs3 Se4 3.768771 1_556
Cs3 Se6 3.818866 1_555
Cs3 Se5 3.818866 1_556
Cs3 Se4 4.220062 1_645
Cs3 Se7 4.220062 1_466
Cd0 Se6 2.659183 1_544
Cd0 Se7 2.659183 1_455
Cd0 Se5 2.659183 1_455
Cd0 Se4 2.659184 1_544
Cd1 Se2 2.659183 1_455
Cd1 Se0 2.659183 1_544
Cd1 Se1 2.659183 1_544
Cd1 Se3 2.659184 1_455
Se0 Si0 2.295345 1_555
Se1 Si0 2.295345 1_555
Se2 Si0 2.295345 1_555
Se3 Si0 2.295345 1_555
Se4 Si1 2.295345 1_555
Se5 Si1 2.295345 1_555
Se6 Si1 2.295345 1_555
Se7 Si1 2.295345 1_555
