# generated using pymatgen
data_SrCrCoP2
_symmetry_space_group_name_H-M   'P 1'
_cell_length_a   6.52591394
_cell_length_b   6.52591365
_cell_length_c   6.52591407
_cell_angle_alpha   145.51386703
_cell_angle_beta   145.51386781
_cell_angle_gamma   49.56939996
_symmetry_Int_Tables_number   1
_chemical_formula_structural   SrCrCoP2
_chemical_formula_sum   'Sr1 Cr1 Co1 P2'
_cell_volume   88.68487679
_cell_formula_units_Z   1
loop_
 _symmetry_equiv_pos_site_id
 _symmetry_equiv_pos_as_xyz
  1  'x, y, z'
loop_
 _atom_site_type_symbol
 _atom_site_label
 _atom_site_symmetry_multiplicity
 _atom_site_fract_x
 _atom_site_fract_y
 _atom_site_fract_z
 _atom_site_occupancy
  Sr  Sr0  1  0.00000000  0.00000000  0.00000000  1
  Cr  Cr0  1  0.75000000  0.25000000  0.50000000  1
  Co  Co0  1  0.25000000  0.75000000  0.50000000  1
  P  P0  1  0.64798482  0.64798482  0.00000000  1
  P  P1  1  0.35201518  0.35201518  1.00000000  1
loop_
_geom_bond_atom_site_label_1
_geom_bond_atom_site_label_2
_geom_bond_distance
_geom_bond_site_symmetry_2
Cr0 P0 2.281095 1_545
Cr0 P1 2.281095 1_655
Cr0 P1 2.281095 1_554
Cr0 P0 2.281095 1_556
Co0 P1 2.281095 1_565
Co0 P0 2.281095 1_455
Co0 P0 2.281095 1_556
Co0 P1 2.281095 1_554
P0 Sr0 3.249489 1_655
P0 Sr0 3.249490 1_565
P0 Sr0 3.249490 1_554
P0 Sr0 3.249490 1_666
P1 Sr0 3.249489 1_566
P1 Sr0 3.249490 1_656
P1 Sr0 3.249490 1_667
P1 Sr0 3.249490 1_555
