# generated using pymatgen
data_Hf2MnCuSi2
_symmetry_space_group_name_H-M   'P 1'
_cell_length_a   3.78041598
_cell_length_b   6.50069521
_cell_length_c   7.43181019
_cell_angle_alpha   89.21895334
_cell_angle_beta   90.00000000
_cell_angle_gamma   90.00000000
_symmetry_Int_Tables_number   1
_chemical_formula_structural   Hf2MnCuSi2
_chemical_formula_sum   'Hf4 Mn2 Cu2 Si4'
_cell_volume   182.62223410
_cell_formula_units_Z   2
loop_
 _symmetry_equiv_pos_site_id
 _symmetry_equiv_pos_as_xyz
  1  'x, y, z'
loop_
 _atom_site_type_symbol
 _atom_site_label
 _atom_site_symmetry_multiplicity
 _atom_site_fract_x
 _atom_site_fract_y
 _atom_site_fract_z
 _atom_site_occupancy
  Hf  Hf0  1  0.25000000  0.52743420  0.67666456  1
  Hf  Hf1  1  0.75000000  0.47256580  0.32333544  1
  Hf  Hf2  1  0.25000000  0.01828362  0.81829791  1
  Hf  Hf3  1  0.75000000  0.98171638  0.18170209  1
  Mn  Mn0  1  0.75000000  0.85864898  0.56126262  1
  Mn  Mn1  1  0.25000000  0.14135102  0.43873738  1
  Cu  Cu0  1  0.75000000  0.35158264  0.93390081  1
  Cu  Cu1  1  0.25000000  0.64841736  0.06609919  1
  Si  Si0  1  0.25000000  0.27204322  0.11814741  1
  Si  Si1  1  0.75000000  0.72795678  0.88185259  1
  Si  Si2  1  0.25000000  0.76657216  0.37498684  1
  Si  Si3  1  0.75000000  0.23342784  0.62501316  1
loop_
_geom_bond_atom_site_label_1
_geom_bond_atom_site_label_2
_geom_bond_distance
_geom_bond_site_symmetry_2
Hf0 Si2 2.710768 1_555
Hf0 Si3 2.719025 1_555
Hf0 Si3 2.719025 1_455
Hf0 Si1 2.766164 1_555
Hf0 Si1 2.766164 1_455
Hf0 Mn0 2.982290 1_455
Hf0 Mn0 2.982290 1_555
Hf0 Mn1 3.089784 1_555
Hf1 Si3 2.710768 1_555
Hf1 Si2 2.719025 1_555
Hf1 Si2 2.719025 1_655
Hf1 Si0 2.766164 1_655
Hf1 Si0 2.766164 1_555
Hf1 Mn1 2.982290 1_555
Hf1 Mn1 2.982290 1_655
Hf1 Mn0 3.089784 1_555
Hf2 Si1 2.708076 1_545
Hf2 Si1 2.708076 1_445
Hf2 Si3 2.745463 1_455
Hf2 Si3 2.745463 1_555
Hf2 Si0 2.790577 1_556
Hf2 Mn0 2.890127 1_445
Hf2 Mn0 2.890127 1_545
Hf2 Mn1 2.921566 1_555
Hf3 Si0 2.708076 1_565
Hf3 Si0 2.708076 1_665
Hf3 Si2 2.745463 1_555
Hf3 Si2 2.745463 1_655
Hf3 Si1 2.790577 1_554
Hf3 Mn1 2.890127 1_565
Hf3 Mn1 2.890127 1_665
Hf3 Mn0 2.921566 1_555
Mn0 Si2 2.422855 1_555
Mn0 Si2 2.422855 1_655
Mn0 Si3 2.488294 1_565
Mn0 Si1 2.518577 1_555
Mn1 Si3 2.422855 1_455
Mn1 Si3 2.422855 1_555
Mn1 Si2 2.488294 1_545
Mn1 Si0 2.518577 1_555
Cu0 Si0 2.386604 1_656
Cu0 Si0 2.386604 1_556
Cu0 Si3 2.430593 1_555
Cu0 Si1 2.471868 1_555
Cu0 Cu1 2.883280 1_556
Cu0 Cu1 2.883280 1_656
Cu0 Hf0 2.911156 1_555
Cu0 Hf0 2.911156 1_655
Cu0 Hf3 3.008637 1_546
Cu0 Hf2 3.009358 1_655
Cu0 Hf2 3.009358 1_555
Cu0 Hf1 3.009488 1_556
Cu1 Si1 2.386604 1_454
Cu1 Si1 2.386604 1_554
Cu1 Si2 2.430593 1_555
Cu1 Si0 2.471868 1_555
Cu1 Hf1 2.911156 1_455
Cu1 Hf1 2.911156 1_555
Cu1 Hf2 3.008637 1_564
Cu1 Hf3 3.009358 1_455
Cu1 Hf3 3.009358 1_555
Cu1 Hf0 3.009488 1_554
