# generated using pymatgen
data_Ba5Sr(ScP3)2
_symmetry_space_group_name_H-M   'P 1'
_cell_length_a   4.55659101
_cell_length_b   13.29261025
_cell_length_c   14.67900862
_cell_angle_alpha   90.00000000
_cell_angle_beta   90.00000000
_cell_angle_gamma   90.00000000
_symmetry_Int_Tables_number   1
_chemical_formula_structural   Ba5Sr(ScP3)2
_chemical_formula_sum   'Ba10 Sr2 Sc4 P12'
_cell_volume   889.09270192
_cell_formula_units_Z   2
loop_
 _symmetry_equiv_pos_site_id
 _symmetry_equiv_pos_as_xyz
  1  'x, y, z'
loop_
 _atom_site_type_symbol
 _atom_site_label
 _atom_site_symmetry_multiplicity
 _atom_site_fract_x
 _atom_site_fract_y
 _atom_site_fract_z
 _atom_site_occupancy
  Ba  Ba0  1  0.75000000  0.13622188  0.99990736  1
  Ba  Ba1  1  0.25000000  0.26885394  0.20453462  1
  Ba  Ba2  1  0.25000000  0.36377812  0.49990736  1
  Ba  Ba3  1  0.75000000  0.65210718  0.49771896  1
  Ba  Ba4  1  0.75000000  0.42254633  0.90076222  1
  Ba  Ba5  1  0.25000000  0.84789282  0.99771896  1
  Ba  Ba6  1  0.75000000  0.23114606  0.70453462  1
  Ba  Ba7  1  0.75000000  0.91909414  0.60087214  1
  Ba  Ba8  1  0.25000000  0.07745367  0.40076222  1
  Ba  Ba9  1  0.25000000  0.58090586  0.10087214  1
  Sr  Sr0  1  0.25000000  0.77434086  0.29010065  1
  Sr  Sr1  1  0.75000000  0.72565914  0.79010065  1
  Sc  Sc0  1  0.75000000  0.94603536  0.20639861  1
  Sc  Sc1  1  0.75000000  0.45532384  0.29404927  1
  Sc  Sc2  1  0.25000000  0.55396464  0.70639861  1
  Sc  Sc3  1  0.25000000  0.04467616  0.79404927  1
  P  P0  1  0.75000000  0.76985143  0.13700766  1
  P  P1  1  0.25000000  0.08921996  0.62327189  1
  P  P2  1  0.25000000  0.59889903  0.87699309  1
  P  P3  1  0.75000000  0.90110097  0.37699309  1
  P  P4  1  0.25000000  0.73014857  0.63700766  1
  P  P5  1  0.25000000  0.02895246  0.15527028  1
  P  P6  1  0.75000000  0.95713039  0.84478675  1
  P  P7  1  0.75000000  0.47104754  0.65527028  1
  P  P8  1  0.25000000  0.54286961  0.34478675  1
  P  P9  1  0.75000000  0.27814338  0.36832649  1
  P  P10  1  0.75000000  0.41078004  0.12327189  1
  P  P11  1  0.25000000  0.22185662  0.86832649  1
loop_
_geom_bond_atom_site_label_1
_geom_bond_atom_site_label_2
_geom_bond_distance
_geom_bond_site_symmetry_2
Ba0 P11 3.196401 1_655
Ba0 P11 3.196401 1_555
Ba0 P6 3.294242 1_545
Ba0 P5 3.524885 1_656
Ba0 P5 3.524885 1_556
Ba1 P10 3.189463 1_455
Ba1 P10 3.189463 1_555
Ba1 P5 3.269884 1_555
Ba1 P9 3.314596 1_555
Ba1 P9 3.314596 1_455
Ba2 P9 3.196401 1_555
Ba2 P9 3.196401 1_455
Ba2 P8 3.294242 1_555
Ba2 P7 3.524885 1_555
Ba2 P7 3.524885 1_455
Ba3 P4 3.232220 1_555
Ba3 P4 3.232220 1_655
Ba3 P7 3.337819 1_555
Ba3 P8 3.512639 1_555
Ba3 P8 3.512639 1_655
Ba3 P3 3.754343 1_555
Ba4 P10 3.269964 1_556
Ba4 P2 3.287489 1_655
Ba4 P2 3.287489 1_555
Ba4 P11 3.540324 1_655
Ba4 P11 3.540324 1_555
Ba4 P7 3.660796 1_555
Ba5 P0 3.232220 1_556
Ba5 P0 3.232220 1_456
Ba5 P5 3.337819 1_566
Ba5 P6 3.512639 1_555
Ba5 P6 3.512639 1_455
Ba5 P2 3.754343 1_555
Ba6 P1 3.189463 1_555
Ba6 P1 3.189463 1_655
Ba6 P7 3.269884 1_555
Ba6 P11 3.314596 1_555
Ba6 P11 3.314596 1_655
Ba7 P1 3.226879 1_565
Ba7 P1 3.226879 1_665
Ba7 P3 3.295015 1_555
Ba7 P4 3.432204 1_655
Ba7 P4 3.432204 1_555
Ba7 P6 3.615947 1_555
Ba8 P1 3.269964 1_555
Ba8 P3 3.287489 1_445
Ba8 P3 3.287489 1_545
Ba8 P9 3.540324 1_455
Ba8 P9 3.540324 1_555
Ba8 P5 3.660796 1_555
Ba9 P10 3.226879 1_555
Ba9 P10 3.226879 1_455
Ba9 P2 3.295015 1_554
Ba9 P0 3.432204 1_555
Ba9 P0 3.432204 1_455
Ba9 P8 3.615947 1_555
P0 Sc0 2.553866 1_555
P0 Sr0 3.200678 1_655
P0 Sr0 3.200678 1_555
P1 Sc3 2.575820 1_555
P2 Sc2 2.574406 1_555
P2 Sr1 3.107515 1_555
P2 Sr1 3.107515 1_455
P3 Sc0 2.574406 1_555
P3 Sr0 3.107515 1_655
P3 Sr0 3.107515 1_555
P4 Sc2 2.553866 1_555
P4 Sr1 3.200678 1_455
P4 Sr1 3.200678 1_555
P5 Sc0 2.639832 1_545
P5 Sc0 2.639832 1_445
P6 Sc3 2.664497 1_565
P6 Sc3 2.664497 1_665
P6 Sr1 3.179849 1_555
P7 Sc2 2.639832 1_555
P7 Sc2 2.639832 1_655
P8 Sc1 2.664497 1_455
P8 Sc1 2.664497 1_555
P8 Sr0 3.179849 1_555
P9 Sc1 2.595325 1_555
P10 Sc1 2.575820 1_555
P11 Sc3 2.595325 1_555
