# generated using pymatgen
data_BaNaCoH6
_symmetry_space_group_name_H-M   'P 1'
_cell_length_a   5.38334746
_cell_length_b   5.38334774
_cell_length_c   5.38334780
_cell_angle_alpha   60.00000573
_cell_angle_beta   60.00000402
_cell_angle_gamma   60.00000790
_symmetry_Int_Tables_number   1
_chemical_formula_structural   BaNaCoH6
_chemical_formula_sum   'Ba1 Na1 Co1 H6'
_cell_volume   110.31697513
_cell_formula_units_Z   1
loop_
 _symmetry_equiv_pos_site_id
 _symmetry_equiv_pos_as_xyz
  1  'x, y, z'
loop_
 _atom_site_type_symbol
 _atom_site_label
 _atom_site_symmetry_multiplicity
 _atom_site_fract_x
 _atom_site_fract_y
 _atom_site_fract_z
 _atom_site_occupancy
  Ba  Ba0  1  0.75000000  0.75000000  0.75000000  1
  Na  Na0  1  0.25000000  0.25000000  0.25000000  1
  Co  Co0  1  0.00000000  0.00000000  0.00000000  1
  H  H0  1  0.79707931  0.20292069  0.20292069  1
  H  H1  1  0.20292069  0.79707931  0.20292069  1
  H  H2  1  0.79707931  0.79707931  0.20292069  1
  H  H3  1  0.20292069  0.79707931  0.79707931  1
  H  H4  1  0.79707931  0.20292069  0.79707931  1
  H  H5  1  0.20292069  0.20292069  0.79707931  1
loop_
_geom_bond_atom_site_label_1
_geom_bond_atom_site_label_2
_geom_bond_distance
_geom_bond_site_symmetry_2
Ba0 H3 2.715433 1_655
Ba0 H3 2.715433 1_555
Ba0 H4 2.715433 1_565
Ba0 H2 2.715433 1_556
Ba0 H4 2.715433 1_555
Ba0 H2 2.715433 1_555
Ba0 H1 2.715433 1_556
Ba0 H1 2.715433 1_655
Ba0 H5 2.715433 1_565
Ba0 H0 2.715433 1_565
Ba0 H0 2.715433 1_556
Ba0 H5 2.715433 1_655
Co0 H5 1.544876 1_554
Co0 H2 1.544876 1_445
Co0 H1 1.544877 1_545
Co0 H0 1.544877 1_455
Co0 H4 1.544877 1_454
Co0 H3 1.544877 1_544
H0 Na0 2.715433 1_655
H0 Na0 2.715433 1_555
H1 Na0 2.715433 1_565
H1 Na0 2.715433 1_555
H2 Na0 2.715433 1_565
H2 Na0 2.715433 1_655
H3 Na0 2.715433 1_565
H3 Na0 2.715433 1_556
H4 Na0 2.715433 1_556
H4 Na0 2.715433 1_655
H5 Na0 2.715433 1_556
H5 Na0 2.715433 1_555
