# generated using pymatgen
data_K5HfSb3
_symmetry_space_group_name_H-M   'P 1'
_cell_length_a   8.80878398
_cell_length_b   9.68577364
_cell_length_c   18.77870726
_cell_angle_alpha   59.49636479
_cell_angle_beta   90.00000000
_cell_angle_gamma   90.00000000
_symmetry_Int_Tables_number   1
_chemical_formula_structural   K5HfSb3
_chemical_formula_sum   'K20 Hf4 Sb12'
_cell_volume   1380.44822663
_cell_formula_units_Z   4
loop_
 _symmetry_equiv_pos_site_id
 _symmetry_equiv_pos_as_xyz
  1  'x, y, z'
loop_
 _atom_site_type_symbol
 _atom_site_label
 _atom_site_symmetry_multiplicity
 _atom_site_fract_x
 _atom_site_fract_y
 _atom_site_fract_z
 _atom_site_occupancy
  K  K0  1  0.16981693  0.15853289  0.25895893  1
  K  K1  1  0.66981693  0.84146711  0.24104107  1
  K  K2  1  0.83018307  0.84146711  0.74104107  1
  K  K3  1  0.33018307  0.15853289  0.75895893  1
  K  K4  1  0.16802853  0.84081628  0.57976539  1
  K  K5  1  0.66802853  0.15918372  0.92023461  1
  K  K6  1  0.83197147  0.15918372  0.42023461  1
  K  K7  1  0.33197147  0.84081628  0.07976539  1
  K  K8  1  0.00558910  0.91169536  0.90727230  1
  K  K9  1  0.50558910  0.08830464  0.59272770  1
  K  K10  1  0.99441090  0.08830464  0.09272770  1
  K  K11  1  0.49441090  0.91169536  0.40727230  1
  K  K12  1  0.51514464  0.74178732  0.92278072  1
  K  K13  1  0.01514464  0.25821268  0.57721928  1
  K  K14  1  0.48485536  0.25821268  0.07721928  1
  K  K15  1  0.98485536  0.74178732  0.42278072  1
  K  K16  1  0.99007568  0.45912072  0.74192582  1
  K  K17  1  0.49007568  0.54087928  0.75807418  1
  K  K18  1  0.00992432  0.54087928  0.25807418  1
  K  K19  1  0.50992432  0.45912072  0.24192582  1
  Hf  Hf0  1  0.36634811  0.50729736  0.41843326  1
  Hf  Hf1  1  0.86634811  0.49270264  0.08156674  1
  Hf  Hf2  1  0.63365189  0.49270264  0.58156674  1
  Hf  Hf3  1  0.13365189  0.50729736  0.91843326  1
  Sb  Sb0  1  0.25220986  0.23700385  0.92101823  1
  Sb  Sb1  1  0.75220986  0.76299615  0.57898177  1
  Sb  Sb2  1  0.74779014  0.76299615  0.07898177  1
  Sb  Sb3  1  0.24779014  0.23700385  0.42101823  1
  Sb  Sb4  1  0.18869130  0.51509078  0.06592868  1
  Sb  Sb5  1  0.68869130  0.48490922  0.43407132  1
  Sb  Sb6  1  0.81130870  0.48490922  0.93407132  1
  Sb  Sb7  1  0.31130870  0.51509078  0.56592868  1
  Sb  Sb8  1  0.27806753  0.79163969  0.27722377  1
  Sb  Sb9  1  0.77806753  0.20836031  0.22277623  1
  Sb  Sb10  1  0.72193247  0.20836031  0.72277623  1
  Sb  Sb11  1  0.22193247  0.79163969  0.77722377  1
loop_
_geom_bond_atom_site_label_1
_geom_bond_atom_site_label_2
_geom_bond_distance
_geom_bond_site_symmetry_2
K0 Sb9 3.502850 1_455
K0 Sb4 3.519300 1_555
K0 Sb8 3.523908 1_545
K0 Sb3 3.557958 1_555
K1 Sb8 3.502850 1_555
K1 Sb5 3.519300 1_555
K1 Sb9 3.523908 1_565
K1 Sb2 3.557958 1_555
K2 Sb11 3.502850 1_655
K2 Sb6 3.519300 1_555
K2 Sb10 3.523908 1_565
K2 Sb1 3.557958 1_555
K3 Sb10 3.502850 1_555
K3 Sb7 3.519300 1_555
K3 Sb11 3.523908 1_545
K3 Sb0 3.557958 1_555
K4 Sb11 3.522598 1_555
K4 Sb7 3.527902 1_555
K4 Sb3 3.534502 1_565
K4 Sb1 3.741141 1_455
K5 Sb10 3.522598 1_555
K5 Sb6 3.527902 1_555
K5 Sb2 3.534502 1_546
K5 Sb0 3.741141 1_555
K6 Sb9 3.522598 1_555
K6 Sb5 3.527902 1_555
K6 Sb1 3.534502 1_545
K6 Sb3 3.741141 1_655
K7 Sb8 3.522598 1_555
K7 Sb4 3.527902 1_555
K7 Sb0 3.534502 1_564
K7 Sb2 3.741141 1_555
K8 Sb2 3.593602 1_456
K8 Sb11 3.718998 1_555
K8 Sb4 3.823062 1_556
K8 Sb0 3.942044 1_565
K8 Sb10 4.049312 1_465
K9 Sb3 3.593602 1_555
K9 Sb10 3.718998 1_555
K9 Sb5 3.823062 1_555
K9 Sb1 3.942044 1_545
K9 Sb11 4.049312 1_545
K10 Sb0 3.593602 1_654
K10 Sb9 3.718998 1_555
K10 Sb6 3.823062 1_554
K10 Sb2 3.942044 1_545
K10 Sb8 4.049312 1_645
K11 Sb1 3.593602 1_555
K11 Sb8 3.718998 1_555
K11 Sb7 3.823062 1_555
K11 Sb3 3.942044 1_565
K11 Sb9 4.049312 1_565
K12 Sb6 3.536375 1_555
K12 Sb11 3.610495 1_555
K12 Sb2 3.668462 1_556
K12 Sb4 3.784792 1_556
K13 Sb7 3.536375 1_555
K13 Sb10 3.610495 1_455
K13 Sb3 3.668462 1_555
K13 Sb5 3.784792 1_455
K14 Sb4 3.536375 1_555
K14 Sb9 3.610495 1_555
K14 Sb0 3.668462 1_554
K14 Sb6 3.784792 1_554
K15 Sb5 3.536375 1_555
K15 Sb8 3.610495 1_655
K15 Sb1 3.668462 1_555
K15 Sb7 3.784792 1_655
K16 Sb10 3.534716 1_555
K16 Sb1 3.643240 1_555
K16 Sb0 3.731711 1_655
K17 Sb11 3.534716 1_555
K17 Sb0 3.643240 1_555
K17 Sb1 3.731711 1_555
K18 Sb8 3.534716 1_555
K18 Sb3 3.643240 1_555
K18 Sb2 3.731711 1_455
K19 Sb9 3.534716 1_555
K19 Sb2 3.643240 1_555
K19 Sb3 3.731711 1_555
Hf0 Sb8 2.794167 1_555
Hf0 Sb3 2.796059 1_555
Hf0 Sb7 2.850378 1_555
Hf0 Sb5 2.851508 1_555
Hf1 Sb9 2.794167 1_555
Hf1 Sb2 2.796059 1_555
Hf1 Sb6 2.850378 1_554
Hf1 Sb4 2.851508 1_655
Hf2 Sb10 2.794167 1_555
Hf2 Sb1 2.796059 1_555
Hf2 Sb5 2.850378 1_555
Hf2 Sb7 2.851508 1_555
Hf3 Sb11 2.794167 1_555
Hf3 Sb0 2.796059 1_555
Hf3 Sb4 2.850378 1_556
Hf3 Sb6 2.851508 1_455
