# generated using pymatgen
data_Zr5SnBi2B
_symmetry_space_group_name_H-M   'P 1'
_cell_length_a   8.62440707
_cell_length_b   8.62439086
_cell_length_c   5.85303674
_cell_angle_alpha   90.00000000
_cell_angle_beta   90.00000000
_cell_angle_gamma   119.70766330
_symmetry_Int_Tables_number   1
_chemical_formula_structural   Zr5SnBi2B
_chemical_formula_sum   'Zr10 Sn2 Bi4 B2'
_cell_volume   378.13020659
_cell_formula_units_Z   2
loop_
 _symmetry_equiv_pos_site_id
 _symmetry_equiv_pos_as_xyz
  1  'x, y, z'
loop_
 _atom_site_type_symbol
 _atom_site_label
 _atom_site_symmetry_multiplicity
 _atom_site_fract_x
 _atom_site_fract_y
 _atom_site_fract_z
 _atom_site_occupancy
  Zr  Zr0  1  0.66719622  0.33151280  0.00321291  1
  Zr  Zr1  1  0.33151957  0.66719515  0.00320368  1
  Zr  Zr2  1  0.33151957  0.66719515  0.49679632  1
  Zr  Zr3  1  0.66719622  0.33151280  0.49678709  1
  Zr  Zr4  1  0.77354162  0.77353174  0.75000000  1
  Zr  Zr5  1  0.22735491  0.99845318  0.75000000  1
  Zr  Zr6  1  0.99842309  0.22734009  0.75000000  1
  Zr  Zr7  1  0.22695220  0.22693391  0.25000000  1
  Zr  Zr8  1  0.77244417  0.00551911  0.25000000  1
  Zr  Zr9  1  0.00548276  0.77242262  0.25000000  1
  Sn  Sn0  1  0.39936186  0.00082842  0.25000000  1
  Sn  Sn1  1  0.00077601  0.39932894  0.25000000  1
  Bi  Bi0  1  0.39813673  0.39812623  0.75000000  1
  Bi  Bi1  1  0.59702373  0.99930964  0.75000000  1
  Bi  Bi2  1  0.99927821  0.59700657  0.75000000  1
  Bi  Bi3  1  0.60442133  0.60441041  0.25000000  1
  B  B0  1  0.99968490  0.99968560  0.00048027  1
  B  B1  1  0.99968490  0.99968560  0.49951973  1
loop_
_geom_bond_atom_site_label_1
_geom_bond_atom_site_label_2
_geom_bond_distance
_geom_bond_site_symmetry_2
Sn0 Zr9 2.964361 1_545
Sn0 Zr7 2.981180 1_555
Sn0 Zr3 3.004383 1_555
Sn0 Zr0 3.004383 1_555
Sn0 Zr2 3.006597 1_545
Sn0 Zr1 3.006597 1_545
Sn0 Zr8 3.197759 1_555
Sn0 Zr5 3.276501 1_544
Sn0 Zr5 3.276501 1_545
Sn1 Zr8 2.963807 1_455
Sn1 Zr7 2.981627 1_555
Sn1 Zr2 3.004782 1_555
Sn1 Zr1 3.004782 1_555
Sn1 Zr3 3.006242 1_455
Sn1 Zr0 3.006242 1_455
Sn1 Zr9 3.197783 1_555
Sn1 Zr6 3.276471 1_455
Sn1 Zr6 3.276471 1_454
Bi0 Zr5 3.003123 1_545
Bi0 Zr6 3.003443 1_455
Bi0 Zr0 3.038503 1_556
Bi0 Zr3 3.038503 1_555
Bi0 Zr1 3.038562 1_556
Bi0 Zr2 3.038562 1_555
Bi0 Zr4 3.251940 1_555
Bi0 Zr7 3.280785 1_555
Bi0 Zr7 3.280785 1_556
Bi1 Zr4 3.007867 1_555
Bi1 Zr0 3.008773 1_566
Bi1 Zr3 3.008773 1_565
Bi1 Zr6 3.017287 1_565
Bi1 Zr1 3.023756 1_556
Bi1 Zr2 3.023756 1_555
Bi1 Zr5 3.184520 1_555
Bi1 Zr8 3.282672 1_565
Bi1 Zr8 3.282672 1_566
Bi2 Zr4 3.007600 1_555
Bi2 Zr1 3.008995 1_656
Bi2 Zr2 3.008995 1_655
Bi2 Zr5 3.017651 1_655
Bi2 Zr0 3.023599 1_556
Bi2 Zr3 3.023599 1_555
Bi2 Zr6 3.184500 1_555
Bi2 Zr9 3.282662 1_655
Bi2 Zr9 3.282662 1_656
Bi3 Zr9 3.015973 1_655
Bi3 Zr8 3.016329 1_565
Bi3 Zr3 3.030151 1_555
Bi3 Zr0 3.030151 1_555
Bi3 Zr2 3.030259 1_555
Bi3 Zr1 3.030259 1_555
Bi3 Zr7 3.269850 1_555
Bi3 Zr4 3.272728 1_555
Bi3 Zr4 3.272728 1_554
B0 Zr4 2.446849 1_554
B0 Zr7 2.451195 1_665
B0 Zr6 2.454694 1_564
B0 Zr5 2.454703 1_654
B0 Zr8 2.464558 1_565
B0 Zr9 2.464582 1_655
B1 Zr4 2.446849 1_555
B1 Zr7 2.451195 1_665
B1 Zr6 2.454694 1_565
B1 Zr5 2.454703 1_655
B1 Zr8 2.464558 1_565
B1 Zr9 2.464582 1_655
