# generated using pymatgen
data_Al(CN)3
_symmetry_space_group_name_H-M   'P 1'
_cell_length_a   7.35179900
_cell_length_b   7.35179900
_cell_length_c   5.20542000
_cell_angle_alpha   90.00000000
_cell_angle_beta   90.00000000
_cell_angle_gamma   90.00000000
_symmetry_Int_Tables_number   1
_chemical_formula_structural   Al(CN)3
_chemical_formula_sum   'Al2 C6 N6'
_cell_volume   281.34747769
_cell_formula_units_Z   2
loop_
 _symmetry_equiv_pos_site_id
 _symmetry_equiv_pos_as_xyz
  1  'x, y, z'
loop_
 _atom_site_type_symbol
 _atom_site_label
 _atom_site_symmetry_multiplicity
 _atom_site_fract_x
 _atom_site_fract_y
 _atom_site_fract_z
 _atom_site_occupancy
  Al  Al0  1  0.00000000  0.50000000  0.99292400  1
  Al  Al1  1  0.50000000  0.00000000  0.00707600  1
  C  C0  1  0.80138600  0.30138600  0.99760200  1
  C  C1  1  0.00000000  0.50000000  0.39205300  1
  C  C2  1  0.50000000  0.00000000  0.60794700  1
  C  C3  1  0.30138600  0.19861400  0.00239800  1
  C  C4  1  0.19861400  0.69861400  0.99760200  1
  C  C5  1  0.69861400  0.80138600  0.00239800  1
  N  N0  1  0.81053200  0.68946800  0.99681100  1
  N  N1  1  0.68946800  0.18946800  0.00318900  1
  N  N2  1  0.50000000  0.00000000  0.38402800  1
  N  N3  1  0.00000000  0.50000000  0.61597200  1
  N  N4  1  0.18946800  0.31053200  0.99681100  1
  N  N5  1  0.31053200  0.81053200  0.00318900  1
loop_
_geom_bond_atom_site_label_1
_geom_bond_atom_site_label_2
_geom_bond_distance
_geom_bond_site_symmetry_2
Al0 N3 1.962193 1_555
Al0 N0 1.970005 1_455
Al0 N4 1.970005 1_555
Al0 C0 2.065136 1_455
Al0 C4 2.065136 1_555
Al0 C1 2.077634 1_556
Al1 N2 1.962193 1_555
Al1 N1 1.970005 1_555
Al1 N5 1.970005 1_545
Al1 C5 2.065136 1_545
Al1 C3 2.065136 1_555
Al1 C2 2.077634 1_554
C0 N1 1.163976 1_556
C1 N3 1.165592 1_555
C2 N2 1.165592 1_555
C3 N4 1.163976 1_554
C4 N5 1.163976 1_556
C5 N0 1.163976 1_554
