# generated using pymatgen
data_Cr2FeO4
_symmetry_space_group_name_H-M   'P 1'
_cell_length_a   5.99383582
_cell_length_b   5.99383582
_cell_length_c   5.99383582
_cell_angle_alpha   118.50457842
_cell_angle_beta   116.71085488
_cell_angle_gamma   94.20256091
_symmetry_Int_Tables_number   1
_chemical_formula_structural   Cr2FeO4
_chemical_formula_sum   'Cr4 Fe2 O8'
_cell_volume   157.26866262
_cell_formula_units_Z   2
loop_
 _symmetry_equiv_pos_site_id
 _symmetry_equiv_pos_as_xyz
  1  'x, y, z'
loop_
 _atom_site_type_symbol
 _atom_site_label
 _atom_site_symmetry_multiplicity
 _atom_site_fract_x
 _atom_site_fract_y
 _atom_site_fract_z
 _atom_site_occupancy
  Cr  Cr0  1  0.62072300  0.87072300  0.75000000  1
  Cr  Cr1  1  0.37927700  0.12927700  0.25000000  1
  Cr  Cr2  1  0.00000000  0.50000000  0.00000000  1
  Cr  Cr3  1  0.00000000  0.00000000  0.50000000  1
  Fe  Fe0  1  0.00000000  0.50000000  0.50000000  1
  Fe  Fe1  1  0.50000000  0.50000000  0.00000000  1
  O  O0  1  0.24935500  0.73635200  0.98699600  1
  O  O1  1  0.77371000  0.24010000  0.53361000  1
  O  O2  1  0.24935500  0.26235900  0.51300400  1
  O  O3  1  0.20649100  0.24010000  0.96639000  1
  O  O4  1  0.79350900  0.75990000  0.03361000  1
  O  O5  1  0.75064500  0.73764100  0.48699600  1
  O  O6  1  0.22629000  0.75990000  0.46639000  1
  O  O7  1  0.75064500  0.26364800  0.01300400  1
loop_
_geom_bond_atom_site_label_1
_geom_bond_atom_site_label_2
_geom_bond_distance
_geom_bond_site_symmetry_2
Cr0 O7 1.929291 1_566
Cr0 O5 1.929296 1_555
Cr0 O4 1.999856 1_556
Cr0 O6 1.999857 1_555
Cr1 O0 1.929291 1_544
Cr1 O2 1.929296 1_555
Cr1 O3 1.999856 1_554
Cr1 O1 1.999857 1_555
Cr2 O7 2.036316 1_455
Cr2 O0 2.036316 1_554
Cr2 O1 2.050935 1_454
Cr2 O6 2.050935 1_555
Cr2 O3 2.050939 1_554
Cr2 O4 2.050939 1_455
Cr3 O5 2.036313 1_445
Cr3 O2 2.036313 1_555
Cr3 O4 2.050934 1_445
Cr3 O3 2.050934 1_555
Cr3 O1 2.050935 1_455
Cr3 O6 2.050935 1_545
Fe0 O6 2.131309 1_555
Fe0 O1 2.131309 1_455
Fe0 O0 2.140561 1_555
Fe0 O7 2.140561 1_455
Fe0 O2 2.140562 1_555
Fe0 O5 2.140562 1_455
Fe1 O3 2.131304 1_554
Fe1 O4 2.131304 1_555
Fe1 O2 2.140562 1_554
Fe1 O5 2.140562 1_555
Fe1 O0 2.140566 1_554
Fe1 O7 2.140566 1_555
