# generated using pymatgen
data_KY(NbBr3)6
_symmetry_space_group_name_H-M   'P 1'
_cell_length_a   10.65849065
_cell_length_b   10.65849122
_cell_length_c   10.65849110
_cell_angle_alpha   55.38039345
_cell_angle_beta   55.38039923
_cell_angle_gamma   55.38040190
_symmetry_Int_Tables_number   1
_chemical_formula_structural   KY(NbBr3)6
_chemical_formula_sum   'K1 Y1 Nb6 Br18'
_cell_volume   764.31258906
_cell_formula_units_Z   1
loop_
 _symmetry_equiv_pos_site_id
 _symmetry_equiv_pos_as_xyz
  1  'x, y, z'
loop_
 _atom_site_type_symbol
 _atom_site_label
 _atom_site_symmetry_multiplicity
 _atom_site_fract_x
 _atom_site_fract_y
 _atom_site_fract_z
 _atom_site_occupancy
  K  K0  1  0.21983526  0.21983526  0.21983526  1
  Y  Y0  1  0.49866144  0.49866144  0.49866144  1
  Nb  Nb0  1  0.80723194  0.14438856  0.91512975  1
  Nb  Nb1  1  0.91512975  0.80723194  0.14438856  1
  Nb  Nb2  1  0.14438856  0.91512975  0.80723194  1
  Nb  Nb3  1  0.19384869  0.85612498  0.08438647  1
  Nb  Nb4  1  0.08438647  0.19384869  0.85612498  1
  Nb  Nb5  1  0.85612498  0.08438647  0.19384869  1
  Br  Br0  1  0.86467195  0.41511722  0.72152848  1
  Br  Br1  1  0.72152848  0.86467195  0.41511722  1
  Br  Br2  1  0.41511722  0.72152848  0.86467195  1
  Br  Br3  1  0.13530299  0.58407760  0.28025647  1
  Br  Br4  1  0.28025647  0.13530299  0.58407760  1
  Br  Br5  1  0.58407760  0.28025647  0.13530299  1
  Br  Br6  1  0.52744814  0.34339780  0.80766460  1
  Br  Br7  1  0.80766460  0.52744814  0.34339780  1
  Br  Br8  1  0.34339780  0.80766460  0.52744814  1
  Br  Br9  1  0.46823257  0.65828355  0.19551610  1
  Br  Br10  1  0.19551610  0.46823257  0.65828355  1
  Br  Br11  1  0.65828355  0.19551610  0.46823257  1
  Br  Br12  1  0.65916973  0.93860120  0.07209714  1
  Br  Br13  1  0.07209714  0.65916973  0.93860120  1
  Br  Br14  1  0.93860120  0.07209714  0.65916973  1
  Br  Br15  1  0.34266154  0.06142461  0.92608021  1
  Br  Br16  1  0.92608021  0.34266154  0.06142461  1
  Br  Br17  1  0.06142461  0.92608021  0.34266154  1
loop_
_geom_bond_atom_site_label_1
_geom_bond_atom_site_label_2
_geom_bond_distance
_geom_bond_site_symmetry_2
Br0 Nb0 2.601062 1_555
Br0 Nb4 2.608020 1_655
Br1 Nb1 2.601062 1_555
Br1 Nb5 2.608020 1_565
Br2 Nb2 2.601062 1_555
Br2 Nb3 2.608021 1_556
Br3 Nb3 2.617821 1_555
Br3 Nb1 2.620494 1_455
Br3 K0 3.808627 1_555
Br4 Nb4 2.617822 1_555
Br4 Nb2 2.620494 1_545
Br4 K0 3.808626 1_555
Br5 Nb5 2.617822 1_555
Br5 Nb0 2.620494 1_554
Br5 K0 3.808626 1_555
Br6 Y0 2.838707 1_555
Br6 Nb0 2.938916 1_555
Br6 K0 3.708086 1_556
Br7 Y0 2.838707 1_555
Br7 Nb1 2.938916 1_555
Br7 K0 3.708087 1_655
Br8 Y0 2.838707 1_555
Br8 Nb2 2.938916 1_555
Br8 K0 3.708086 1_565
Br9 Y0 2.785168 1_555
Br9 Nb3 2.914310 1_555
Br10 Y0 2.785168 1_555
Br10 Nb4 2.914310 1_555
Br11 Y0 2.785169 1_555
Br11 Nb5 2.914310 1_555
Br12 Nb1 2.611368 1_555
Br12 Nb0 2.619904 1_564
Br12 K0 3.798427 1_565
Br13 Nb2 2.611368 1_555
Br13 Nb1 2.619905 1_456
Br13 K0 3.798427 1_556
Br14 Nb0 2.611369 1_555
Br14 Nb2 2.619904 1_645
Br14 K0 3.798427 1_655
Br15 Nb4 2.616817 1_555
Br15 Nb3 2.618861 1_546
Br15 K0 3.633929 1_556
Br16 Nb5 2.616817 1_555
Br16 Nb4 2.618862 1_654
Br16 K0 3.633929 1_655
Br17 Nb3 2.616817 1_555
Br17 Nb5 2.618861 1_465
Br17 K0 3.633929 1_565
