# generated using pymatgen
data_MnNb4(NiP)4
_symmetry_space_group_name_H-M   'P 1'
_cell_length_a   7.15058144
_cell_length_b   7.15058133
_cell_length_c   7.15058189
_cell_angle_alpha   93.50067424
_cell_angle_beta   93.50066975
_cell_angle_gamma   151.38763504
_symmetry_Int_Tables_number   1
_chemical_formula_structural   MnNb4(NiP)4
_chemical_formula_sum   'Mn1 Nb4 Ni4 P4'
_cell_volume   169.65663145
_cell_formula_units_Z   1
loop_
 _symmetry_equiv_pos_site_id
 _symmetry_equiv_pos_as_xyz
  1  'x, y, z'
loop_
 _atom_site_type_symbol
 _atom_site_label
 _atom_site_symmetry_multiplicity
 _atom_site_fract_x
 _atom_site_fract_y
 _atom_site_fract_z
 _atom_site_occupancy
  Mn  Mn0  1  0.50000000  0.50000000  0.00000000  1
  Nb  Nb0  1  0.80734091  0.12698797  0.93432888  1
  Nb  Nb1  1  0.12698797  0.19265909  0.31964705  1
  Nb  Nb2  1  0.87301203  0.80734091  0.68035295  1
  Nb  Nb3  1  0.19265909  0.87301203  0.06567112  1
  Ni  Ni0  1  0.91487416  0.39105946  0.30593262  1
  Ni  Ni1  1  0.08512584  0.60894054  0.69406738  1
  Ni  Ni2  1  0.60894054  0.91487416  0.52381370  1
  Ni  Ni3  1  0.39105946  0.08512584  0.47618630  1
  P  P0  1  0.55680270  0.24212888  0.79893257  1
  P  P1  1  0.24212888  0.44319730  0.68532518  1
  P  P2  1  0.75787112  0.55680270  0.31467482  1
  P  P3  1  0.44319730  0.75787112  0.20106743  1
loop_
_geom_bond_atom_site_label_1
_geom_bond_atom_site_label_2
_geom_bond_distance
_geom_bond_site_symmetry_2
Mn0 P3 2.587414 1_555
Mn0 P0 2.587414 1_554
Mn0 P2 2.587424 1_555
Mn0 P1 2.587424 1_554
Mn0 Nb1 2.869557 1_665
Mn0 Nb2 2.869557 1_444
Mn0 Nb3 2.869558 1_655
Mn0 Nb0 2.869558 1_454
Mn0 Nb3 2.869558 1_545
Mn0 Nb0 2.869558 1_564
Mn0 Nb1 2.869558 1_555
Mn0 Nb2 2.869558 1_554
Nb0 P3 2.557154 1_546
Nb0 P3 2.557156 1_656
Nb0 P1 2.602647 1_545
Nb0 P1 2.602651 1_655
Nb0 P0 2.701832 1_555
Nb0 Ni0 2.793907 1_556
Nb0 Ni1 2.809734 1_655
Nb0 Ni1 2.809735 1_545
Nb0 Ni2 2.845979 1_545
Nb1 P2 2.557159 1_555
Nb1 P2 2.557161 1_445
Nb1 P3 2.602645 1_445
Nb1 P3 2.602648 1_555
Nb1 P1 2.701827 1_555
Nb1 Ni3 2.793916 1_555
Nb1 Ni2 2.809734 1_445
Nb1 Ni2 2.809736 1_555
Nb1 Ni0 2.845972 1_455
Nb2 P1 2.557159 1_555
Nb2 P1 2.557161 1_665
Nb2 P0 2.602645 1_665
Nb2 P0 2.602648 1_555
Nb2 P2 2.701827 1_555
Nb2 Ni2 2.793916 1_555
Nb2 Ni3 2.809734 1_665
Nb2 Ni3 2.809736 1_555
Nb2 Ni1 2.845972 1_655
Nb3 P0 2.557154 1_564
Nb3 P0 2.557156 1_454
Nb3 P2 2.602647 1_565
Nb3 P2 2.602651 1_455
Nb3 P3 2.701832 1_555
Nb3 Ni1 2.793907 1_554
Nb3 Ni0 2.809734 1_455
Nb3 Ni0 2.809735 1_565
Nb3 Ni3 2.845979 1_565
Ni0 P3 2.214125 1_545
Ni0 P3 2.214125 1_655
Ni0 P2 2.237076 1_555
Ni1 P0 2.214125 1_565
Ni1 P0 2.214125 1_455
Ni1 P1 2.237076 1_555
Ni2 P1 2.214125 1_665
Ni2 P1 2.214125 1_555
Ni2 P3 2.237076 1_555
Ni3 P2 2.214125 1_445
Ni3 P2 2.214125 1_555
Ni3 P0 2.237076 1_555
