# generated using pymatgen
data_Na5Ca(Si3Ir)8
_symmetry_space_group_name_H-M   'P 1'
_cell_length_a   10.02927757
_cell_length_b   10.02927725
_cell_length_c   8.11279829
_cell_angle_alpha   90.06107765
_cell_angle_beta   89.93892977
_cell_angle_gamma   132.24092651
_symmetry_Int_Tables_number   1
_chemical_formula_structural   Na5Ca(Si3Ir)8
_chemical_formula_sum   'Na5 Ca1 Si24 Ir8'
_cell_volume   604.13201293
_cell_formula_units_Z   1
loop_
 _symmetry_equiv_pos_site_id
 _symmetry_equiv_pos_as_xyz
  1  'x, y, z'
loop_
 _atom_site_type_symbol
 _atom_site_label
 _atom_site_symmetry_multiplicity
 _atom_site_fract_x
 _atom_site_fract_y
 _atom_site_fract_z
 _atom_site_occupancy
  Na  Na0  1  0.99995066  0.49995066  0.75000000  1
  Na  Na1  1  0.49960386  0.99960386  0.75000000  1
  Na  Na2  1  0.99993408  0.49993408  0.25000000  1
  Na  Na3  1  0.50038408  0.50028192  0.49948879  1
  Na  Na4  1  0.00028192  0.00038408  0.00051121  1
  Ca  Ca0  1  0.49977174  0.99977174  0.25000000  1
  Si  Si0  1  0.39124408  0.15722854  0.99909897  1
  Si  Si1  1  0.65722854  0.89124408  0.50090103  1
  Si  Si2  1  0.11040479  0.34546213  0.50092982  1
  Si  Si3  1  0.84546213  0.61040479  0.99907018  1
  Si  Si4  1  0.60881050  0.84310587  0.99694438  1
  Si  Si5  1  0.34310587  0.10881050  0.50305562  1
  Si  Si6  1  0.88941570  0.65372919  0.49804747  1
  Si  Si7  1  0.15372919  0.38941570  0.00195253  1
  Si  Si8  1  0.61657602  0.38264331  0.22555071  1
  Si  Si9  1  0.88264331  0.11657602  0.27444929  1
  Si  Si10  1  0.88393270  0.11881469  0.72812975  1
  Si  Si11  1  0.61881469  0.38393270  0.77187025  1
  Si  Si12  1  0.38554625  0.62063239  0.77175296  1
  Si  Si13  1  0.12063239  0.88554625  0.72824704  1
  Si  Si14  1  0.70956205  0.29733654  0.99650315  1
  Si  Si15  1  0.79733654  0.20956205  0.50349685  1
  Si  Si16  1  0.29034760  0.70272020  0.99670922  1
  Si  Si17  1  0.20272020  0.79034760  0.50329078  1
  Si  Si18  1  0.16989433  0.16737882  0.33183570  1
  Si  Si19  1  0.66737882  0.66989433  0.16816430  1
  Si  Si20  1  0.32997704  0.33414364  0.83152605  1
  Si  Si21  1  0.83414364  0.82997704  0.66847395  1
  Si  Si22  1  0.37842414  0.61301837  0.22619484  1
  Si  Si23  1  0.11301837  0.87842414  0.27380516  1
  Ir  Ir0  1  0.62604850  0.62474320  0.87445336  1
  Ir  Ir1  1  0.12474320  0.12604850  0.62554664  1
  Ir  Ir2  1  0.87475876  0.87510434  0.37503701  1
  Ir  Ir3  1  0.37510434  0.37475876  0.12496299  1
  Ir  Ir4  1  0.33496768  0.66774103  0.49880062  1
  Ir  Ir5  1  0.16774103  0.83496768  0.00119938  1
  Ir  Ir6  1  0.66475592  0.33160834  0.49821641  1
  Ir  Ir7  1  0.83160834  0.16475592  0.00178359  1
loop_
_geom_bond_atom_site_label_1
_geom_bond_atom_site_label_2
_geom_bond_distance
_geom_bond_site_symmetry_2
Na0 Si15 2.941071 1_555
Na0 Si14 2.941071 1_555
Na0 Si16 2.943566 1_655
Na0 Si17 2.943566 1_655
Na0 Si2 3.163405 1_655
Na0 Si3 3.163405 1_555
Na0 Si10 3.164803 1_555
Na0 Si11 3.164803 1_555
Na0 Si7 3.177426 1_656
Na0 Si6 3.177426 1_555
Na0 Si13 3.187389 1_655
Na0 Si12 3.187389 1_655
Na1 Si17 2.979645 1_555
Na1 Si16 2.979645 1_555
Na1 Si14 2.981976 1_565
Na1 Si15 2.981976 1_565
Na1 Si12 3.152970 1_555
Na1 Si13 3.152971 1_555
Na1 Si5 3.162193 1_565
Na1 Si4 3.162193 1_555
Na1 Si0 3.172158 1_565
Na1 Si1 3.172159 1_555
Na1 Si11 3.181401 1_565
Na1 Si10 3.181401 1_565
Na2 Si17 2.978945 1_655
Na2 Si16 2.978945 1_654
Na2 Si14 2.981128 1_554
Na2 Si15 2.981128 1_555
Na2 Si23 3.153349 1_655
Na2 Si22 3.153349 1_655
Na2 Si6 3.153513 1_555
Na2 Si7 3.153513 1_655
Na2 Si3 3.176674 1_554
Na2 Si2 3.176674 1_655
Na2 Si9 3.182117 1_555
Na2 Si8 3.182117 1_555
Na3 Si19 3.015555 1_555
Na3 Si18 3.017394 1_555
Na3 Si20 3.020689 1_555
Na3 Si21 3.022684 1_555
Na3 Si6 3.085229 1_555
Na3 Si12 3.085502 1_555
Na3 Si8 3.086498 1_555
Na3 Si11 3.087094 1_555
Na3 Si2 3.089239 1_555
Na3 Si1 3.091350 1_555
Na3 Si22 3.092086 1_555
Na3 Si5 3.094733 1_555
Na4 Si18 3.015554 1_555
Na4 Si19 3.017394 1_445
Na4 Si21 3.020689 1_444
Na4 Si20 3.022685 1_554
Na4 Si7 3.085229 1_555
Na4 Si13 3.085502 1_544
Na4 Si9 3.086498 1_455
Na4 Si10 3.087094 1_454
Na4 Si3 3.089239 1_444
Na4 Si0 3.091350 1_554
Na4 Si23 3.092086 1_545
Na4 Si4 3.094733 1_444
Ca0 Si16 3.015440 1_554
Ca0 Si17 3.015440 1_555
Ca0 Si15 3.020650 1_565
Ca0 Si14 3.020651 1_564
Ca0 Si8 3.179595 1_565
Ca0 Si9 3.179595 1_565
Ca0 Si1 3.185030 1_555
Ca0 Si0 3.185030 1_564
Ca0 Si4 3.190307 1_554
Ca0 Si5 3.190307 1_565
Ca0 Si22 3.196238 1_555
Ca0 Si23 3.196239 1_555
Ca0 Ir6 3.233881 1_565
Ca0 Ir7 3.233882 1_565
Ca0 Ir5 3.240716 1_555
Ca0 Ir4 3.240717 1_555
Si0 Si14 2.476988 1_555
Si0 Si8 2.593099 1_556
Si0 Si11 2.607686 1_555
Si0 Si20 2.616638 1_555
Si1 Si15 2.476988 1_565
Si1 Si9 2.593099 1_565
Si1 Si10 2.607686 1_565
Si1 Si21 2.616638 1_555
Si2 Si9 2.610239 1_455
Si3 Si8 2.610239 1_556
Si10 Si15 2.444061 1_555
Si10 Si2 2.604202 1_655
Si10 Si21 2.632089 1_545
Si11 Si14 2.444061 1_555
Si11 Si3 2.604202 1_555
Si11 Si20 2.632089 1_555
Si12 Si16 2.443363 1_555
Si12 Si4 2.571530 1_555
Si12 Si20 2.578929 1_555
Si12 Si7 2.649885 1_556
Si13 Si17 2.443363 1_555
Si13 Si5 2.571530 1_565
Si13 Si21 2.578929 1_455
Si13 Si6 2.649884 1_455
Si14 Si3 2.441898 1_555
Si14 Si8 2.473933 1_556
Si15 Si2 2.441898 1_655
Si15 Si9 2.473933 1_555
Si16 Si7 2.442187 1_556
Si16 Si22 2.476165 1_556
Si16 Si4 2.477404 1_555
Si17 Si6 2.442187 1_455
Si17 Si23 2.476165 1_555
Si17 Si5 2.477404 1_565
Si18 Si5 2.582869 1_555
Si18 Si23 2.592402 1_545
Si18 Si9 2.608612 1_455
Si18 Si2 2.617939 1_555
Si19 Si4 2.582869 1_554
Si19 Si22 2.592402 1_555
Si19 Si8 2.608612 1_555
Si19 Si3 2.617940 1_554
Si20 Si7 2.579556 1_556
Si21 Si6 2.579556 1_555
Si22 Si7 2.573417 1_555
Si22 Si4 2.637084 1_554
Si23 Si6 2.573417 1_455
Si23 Si5 2.637083 1_565
Ir0 Si21 2.368361 1_555
Ir0 Si20 2.407742 1_555
Ir0 Si19 2.408762 1_556
Ir0 Si11 2.508210 1_555
Ir0 Si3 2.513119 1_555
Ir0 Si4 2.513494 1_555
Ir0 Si12 2.526749 1_555
Ir0 Na3 3.207070 1_555
Ir0 Na4 3.211688 1_666
Ir1 Si20 2.368361 1_555
Ir1 Si21 2.407742 1_445
Ir1 Si18 2.408762 1_555
Ir1 Si10 2.508210 1_455
Ir1 Si2 2.513119 1_555
Ir1 Si5 2.513495 1_555
Ir1 Si13 2.526749 1_545
Ir1 Na4 3.207070 1_556
Ir1 Na3 3.211688 1_555
Ir2 Si19 2.371336 1_555
Ir2 Si21 2.406316 1_555
Ir2 Si18 2.410641 1_665
Ir2 Si23 2.504907 1_655
Ir2 Si9 2.506757 1_565
Ir2 Si1 2.509633 1_555
Ir2 Si6 2.528004 1_555
Ir2 Na4 3.204534 1_665
Ir2 Na3 3.204937 1_555
Ir3 Si18 2.371336 1_555
Ir3 Si20 2.406316 1_554
Ir3 Si19 2.410640 1_555
Ir3 Si22 2.504906 1_555
Ir3 Si8 2.506757 1_555
Ir3 Si0 2.509633 1_554
Ir3 Si7 2.528004 1_555
Ir3 Na3 3.204533 1_555
Ir3 Na4 3.204936 1_555
Ir4 Si17 2.337774 1_555
Ir4 Si22 2.387317 1_555
Ir4 Si12 2.389770 1_555
Ir4 Si1 2.393819 1_555
Ir4 Si2 2.394280 1_555
Ir4 Na3 3.052743 1_555
Ir4 Na1 3.249797 1_555
Ir4 Na2 3.255950 1_455
Ir4 Na0 3.265746 1_455
Ir5 Si16 2.337774 1_554
Ir5 Si23 2.387317 1_555
Ir5 Si13 2.389770 1_554
Ir5 Si0 2.393819 1_564
Ir5 Si3 2.394280 1_454
Ir5 Na4 3.052743 1_565
Ir5 Na1 3.249798 1_554
Ir5 Na2 3.255950 1_455
Ir5 Na0 3.265746 1_454
Ir6 Si15 2.335956 1_555
Ir6 Si5 2.389440 1_555
Ir6 Si8 2.392908 1_555
Ir6 Si6 2.393107 1_555
Ir6 Si11 2.395193 1_555
Ir6 Na3 3.054334 1_555
Ir6 Na2 3.250875 1_555
Ir6 Na1 3.255050 1_545
Ir6 Na0 3.271177 1_555
Ir7 Si14 2.335956 1_554
Ir7 Si4 2.389440 1_544
Ir7 Si9 2.392908 1_555
Ir7 Si7 2.393107 1_655
Ir7 Si10 2.395193 1_554
Ir7 Na4 3.054334 1_655
Ir7 Na2 3.250874 1_555
Ir7 Na1 3.255050 1_544
Ir7 Na0 3.271177 1_554
