# generated using pymatgen
data_Sc4TiRe24
_symmetry_space_group_name_H-M   'P 1'
_cell_length_a   8.39312459
_cell_length_b   8.39312374
_cell_length_c   8.39312378
_cell_angle_alpha   109.43618899
_cell_angle_beta   109.43619133
_cell_angle_gamma   109.43619301
_symmetry_Int_Tables_number   1
_chemical_formula_structural   Sc4TiRe24
_chemical_formula_sum   'Sc4 Ti1 Re24'
_cell_volume   455.73355779
_cell_formula_units_Z   1
loop_
 _symmetry_equiv_pos_site_id
 _symmetry_equiv_pos_as_xyz
  1  'x, y, z'
loop_
 _atom_site_type_symbol
 _atom_site_label
 _atom_site_symmetry_multiplicity
 _atom_site_fract_x
 _atom_site_fract_y
 _atom_site_fract_z
 _atom_site_occupancy
  Sc  Sc0  1  0.00098319  0.00098319  0.00098319  1
  Sc  Sc1  1  0.63206223  0.00028933  0.00028933  1
  Sc  Sc2  1  0.00028933  0.63206223  0.00028933  1
  Sc  Sc3  1  0.00028933  0.00028933  0.63206223  1
  Ti  Ti0  1  0.36941943  0.36941943  0.36941943  1
  Re  Re0  1  0.39550378  0.67540327  0.99847206  1
  Re  Re1  1  0.72175677  0.32430652  0.32430652  1
  Re  Re2  1  0.39550378  0.99847206  0.67540327  1
  Re  Re3  1  0.67540327  0.39550378  0.99847206  1
  Re  Re4  1  0.99847206  0.39550378  0.67540327  1
  Re  Re5  1  0.32430652  0.72175677  0.32430652  1
  Re  Re6  1  0.32430652  0.32430652  0.72175677  1
  Re  Re7  1  0.99847206  0.67540327  0.39550378  1
  Re  Re8  1  0.67540327  0.99847206  0.39550378  1
  Re  Re9  1  0.59856735  0.59856735  0.28113730  1
  Re  Re10  1  0.28113730  0.59856735  0.59856735  1
  Re  Re11  1  0.59856735  0.28113730  0.59856735  1
  Re  Re12  1  0.37753207  0.19346808  0.00178510  1
  Re  Re13  1  0.18643224  0.80836998  0.80836998  1
  Re  Re14  1  0.37753207  0.00178510  0.19346808  1
  Re  Re15  1  0.19346808  0.37753207  0.00178510  1
  Re  Re16  1  0.00178510  0.37753207  0.19346808  1
  Re  Re17  1  0.80836998  0.18643224  0.80836998  1
  Re  Re18  1  0.80836998  0.80836998  0.18643224  1
  Re  Re19  1  0.00178510  0.19346808  0.37753207  1
  Re  Re20  1  0.19346808  0.00178510  0.37753207  1
  Re  Re21  1  0.62273124  0.62273124  0.81535130  1
  Re  Re22  1  0.81535130  0.62273124  0.62273124  1
  Re  Re23  1  0.62273124  0.81535130  0.62273124  1
loop_
_geom_bond_atom_site_label_1
_geom_bond_atom_site_label_2
_geom_bond_distance
_geom_bond_site_symmetry_2
Sc0 Sc2 3.092528 1_545
Sc0 Sc3 3.092528 1_554
Sc0 Sc1 3.092529 1_455
Sc0 Ti0 3.097674 1_555
Re0 Re15 2.526426 1_556
Re0 Re13 2.737785 1_555
Re0 Re14 2.767849 1_566
Re0 Sc1 2.779726 1_566
Re0 Re6 2.790062 1_555
Re0 Re9 2.829819 1_556
Re0 Re21 2.873074 1_555
Re0 Re18 2.891116 1_556
Re0 Re8 2.917727 1_556
Re0 Re4 2.917727 1_455
Re0 Re5 2.919184 1_556
Re0 Re10 2.933659 1_555
Re0 Sc2 3.220238 1_556
Re1 Re22 2.523929 1_555
Re1 Re14 2.754267 1_555
Re1 Re12 2.754268 1_555
Re1 Sc1 2.776918 1_555
Re1 Re7 2.790062 1_555
Re1 Re4 2.790062 1_555
Re1 Re16 2.876605 1_655
Re1 Re19 2.876605 1_655
Re1 Re11 2.896340 1_555
Re1 Re9 2.896340 1_555
Re1 Re8 2.919184 1_545
Re1 Re3 2.919184 1_554
Re1 Ti0 3.229054 1_555
Re2 Re20 2.526426 1_565
Re2 Sc1 2.779726 1_566
Re2 Re5 2.790062 1_555
Re2 Re23 2.873074 1_555
Re2 Re3 2.917727 1_565
Re2 Re7 2.917727 1_455
Re2 Re6 2.919184 1_565
Re2 Sc3 3.220238 1_565
Re3 Sc2 2.779726 1_656
Re3 Re6 2.790063 1_555
Re3 Re9 2.829819 1_556
Re3 Re7 2.917727 1_556
Re3 Sc1 3.220237 1_556
Re4 Sc2 2.779726 1_656
Re4 Re8 2.917727 1_545
Re4 Re6 2.919184 1_655
Re4 Sc3 3.220237 1_655
Re5 Sc2 2.776919 1_555
Re5 Re8 2.790063 1_555
Re5 Re9 2.896340 1_555
Re5 Re7 2.919184 1_455
Re5 Ti0 3.229053 1_555
Re6 Sc3 2.776918 1_555
Re6 Ti0 3.229053 1_555
Re7 Sc3 2.779726 1_665
Re7 Re9 2.933659 1_555
Re7 Sc2 3.220237 1_655
Re8 Sc3 2.779726 1_665
Re8 Re9 2.933659 1_555
Re8 Sc1 3.220237 1_565
Re9 Ti0 2.716991 1_555
Re9 Sc3 3.260033 1_665
Re10 Re13 2.575418 1_555
Re10 Ti0 2.716991 1_555
Re10 Re23 2.732647 1_555
Re10 Re21 2.732647 1_555
Re10 Re4 2.829819 1_455
Re10 Re7 2.829819 1_455
Re10 Re19 2.846276 1_555
Re10 Re16 2.846276 1_555
Re10 Re5 2.896339 1_555
Re10 Re6 2.896339 1_555
Re10 Re2 2.933659 1_555
Re10 Sc1 3.260033 1_566
Re11 Re17 2.575418 1_555
Re11 Ti0 2.716991 1_555
Re11 Re22 2.732647 1_555
Re11 Re21 2.732647 1_555
Re11 Re2 2.829819 1_545
Re11 Re8 2.829819 1_545
Re11 Re14 2.846276 1_555
Re11 Re20 2.846276 1_555
Re11 Re6 2.896340 1_555
Re11 Re3 2.933659 1_555
Re11 Re4 2.933659 1_555
Re11 Sc2 3.260033 1_656
Re12 Re15 2.522220 1_555
Re12 Re3 2.526426 1_554
Re12 Re14 2.626622 1_555
Re12 Re13 2.641956 1_544
Re12 Re2 2.767849 1_544
Re12 Re9 2.846276 1_555
Re12 Re6 2.876605 1_554
Re12 Ti0 2.980035 1_555
Re12 Sc3 2.996594 1_554
Re12 Sc0 3.029674 1_555
Re12 Sc1 3.082576 1_555
Re13 Re22 2.545751 1_455
Re13 Re14 2.641956 1_566
Re13 Re2 2.737785 1_555
Re13 Re4 2.891116 1_455
Re13 Re7 2.891116 1_455
Re13 Sc2 2.991292 1_556
Re13 Sc3 2.991292 1_565
Re13 Sc0 3.042954 1_566
Re13 Sc1 3.071277 1_566
Re14 Re20 2.522220 1_555
Re14 Re8 2.526426 1_545
Re14 Re5 2.876605 1_545
Re14 Ti0 2.980035 1_555
Re14 Sc2 2.996594 1_545
Re14 Sc0 3.029674 1_555
Re14 Sc1 3.082576 1_555
Re15 Re16 2.626623 1_555
Re15 Re17 2.641956 1_454
Re15 Re5 2.754267 1_555
Re15 Re4 2.767849 1_454
Re15 Re9 2.846276 1_555
Re15 Re6 2.876605 1_554
Re15 Ti0 2.980035 1_555
Re15 Sc3 2.996594 1_554
Re15 Sc0 3.029674 1_555
Re15 Sc2 3.082576 1_555
Re16 Re19 2.522220 1_555
Re16 Re7 2.526426 1_455
Re16 Re17 2.641956 1_454
Re16 Re5 2.754267 1_555
Re16 Re3 2.767849 1_454
Re16 Ti0 2.980036 1_555
Re16 Sc1 2.996594 1_455
Re16 Sc0 3.029674 1_555
Re16 Sc2 3.082575 1_555
Re17 Re23 2.545751 1_545
Re17 Re4 2.737785 1_555
Re17 Re3 2.737785 1_555
Re17 Re8 2.891116 1_545
Re17 Re2 2.891116 1_545
Re17 Sc1 2.991292 1_556
Re17 Sc3 2.991293 1_655
Re17 Sc0 3.042954 1_656
Re17 Sc2 3.071277 1_656
Re18 Re21 2.545751 1_554
Re18 Re9 2.575418 1_555
Re18 Re19 2.641956 1_665
Re18 Re20 2.641956 1_665
Re18 Re7 2.737785 1_555
Re18 Re8 2.737785 1_555
Re18 Re3 2.891116 1_554
Re18 Sc1 2.991292 1_565
Re18 Sc2 2.991293 1_655
Re18 Sc0 3.042954 1_665
Re18 Sc3 3.071277 1_665
Re19 Re4 2.526426 1_455
Re19 Re20 2.626623 1_555
Re19 Re6 2.754268 1_555
Re19 Re8 2.767849 1_445
Re19 Ti0 2.980035 1_555
Re19 Sc1 2.996594 1_455
Re19 Sc0 3.029674 1_555
Re19 Sc3 3.082575 1_555
Re20 Re6 2.754267 1_555
Re20 Re7 2.767849 1_445
Re20 Re5 2.876605 1_545
Re20 Ti0 2.980035 1_555
Re20 Sc2 2.996594 1_545
Re20 Sc0 3.029674 1_555
Re20 Sc3 3.082576 1_555
Re21 Re6 2.523929 1_555
Re21 Re23 2.639463 1_555
Re21 Re22 2.639463 1_555
Re21 Re3 2.873074 1_555
Re21 Sc1 2.989612 1_566
Re21 Sc2 2.989612 1_656
Re21 Sc0 3.048580 1_666
Re21 Ti0 3.073906 1_555
Re22 Re23 2.639463 1_555
Re22 Re9 2.732647 1_555
Re22 Re7 2.873074 1_555
Re22 Re4 2.873074 1_555
Re22 Sc3 2.989611 1_665
Re22 Sc2 2.989612 1_656
Re22 Sc0 3.048580 1_666
Re22 Ti0 3.073906 1_555
Re23 Re5 2.523929 1_555
Re23 Re9 2.732647 1_555
Re23 Re8 2.873074 1_555
Re23 Sc1 2.989612 1_566
Re23 Sc3 2.989612 1_665
Re23 Sc0 3.048580 1_666
Re23 Ti0 3.073906 1_555
