# generated using pymatgen
data_HfAg3(NO3)8
_symmetry_space_group_name_H-M   'P 1'
_cell_length_a   7.88400555
_cell_length_b   7.88400471
_cell_length_c   7.88400552
_cell_angle_alpha   90.36555776
_cell_angle_beta   90.36556071
_cell_angle_gamma   90.36556058
_symmetry_Int_Tables_number   1
_chemical_formula_structural   HfAg3(NO3)8
_chemical_formula_sum   'Hf1 Ag3 N8 O24'
_cell_volume   490.02031393
_cell_formula_units_Z   1
loop_
 _symmetry_equiv_pos_site_id
 _symmetry_equiv_pos_as_xyz
  1  'x, y, z'
loop_
 _atom_site_type_symbol
 _atom_site_label
 _atom_site_symmetry_multiplicity
 _atom_site_fract_x
 _atom_site_fract_y
 _atom_site_fract_z
 _atom_site_occupancy
  Hf  Hf0  1  0.00000000  0.00000000  0.00000000  1
  Ag  Ag0  1  0.50000000  0.50000000  0.00000000  1
  Ag  Ag1  1  0.00000000  0.50000000  0.50000000  1
  Ag  Ag2  1  0.50000000  0.00000000  0.50000000  1
  N  N0  1  0.31364606  0.13456017  0.80796660  1
  N  N1  1  0.80796660  0.31364606  0.13456017  1
  N  N2  1  0.13456017  0.80796660  0.31364606  1
  N  N3  1  0.67008593  0.67008593  0.67008593  1
  N  N4  1  0.68635394  0.86543983  0.19203340  1
  N  N5  1  0.19203340  0.68635394  0.86543983  1
  N  N6  1  0.86543983  0.19203340  0.68635394  1
  N  N7  1  0.32991407  0.32991407  0.32991407  1
  O  O0  1  0.43023594  0.23660019  0.79646083  1
  O  O1  1  0.79646083  0.43023594  0.23660019  1
  O  O2  1  0.23660019  0.79646083  0.43023594  1
  O  O3  1  0.21848109  0.13887652  0.94429067  1
  O  O4  1  0.27822183  0.02458026  0.69931088  1
  O  O5  1  0.69931088  0.27822183  0.02458026  1
  O  O6  1  0.68510353  0.55070515  0.77425256  1
  O  O7  1  0.13887653  0.94429067  0.21848109  1
  O  O8  1  0.77425256  0.68510353  0.55070515  1
  O  O9  1  0.94429067  0.21848109  0.13887653  1
  O  O10  1  0.55070515  0.77425256  0.68510353  1
  O  O11  1  0.02458026  0.69931088  0.27822183  1
  O  O12  1  0.56976406  0.76339981  0.20353917  1
  O  O13  1  0.20353917  0.56976406  0.76339981  1
  O  O14  1  0.76339981  0.20353917  0.56976406  1
  O  O15  1  0.78151891  0.86112348  0.05570933  1
  O  O16  1  0.72177817  0.97541974  0.30068912  1
  O  O17  1  0.30068912  0.72177817  0.97541974  1
  O  O18  1  0.31489647  0.44929485  0.22574744  1
  O  O19  1  0.86112347  0.05570933  0.78151891  1
  O  O20  1  0.22574744  0.31489647  0.44929485  1
  O  O21  1  0.05570933  0.78151891  0.86112347  1
  O  O22  1  0.44929485  0.22574744  0.31489647  1
  O  O23  1  0.97541974  0.30068912  0.72177817  1
loop_
_geom_bond_atom_site_label_1
_geom_bond_atom_site_label_2
_geom_bond_distance
_geom_bond_site_symmetry_2
Hf0 O9 2.085779 1_455
Hf0 O21 2.085779 1_544
Hf0 O3 2.085779 1_554
Hf0 O15 2.085779 1_445
Hf0 O7 2.085779 1_545
Hf0 O19 2.085779 1_454
Ag0 O6 2.343497 1_554
Ag0 O18 2.343497 1_555
Ag0 O5 2.366327 1_555
Ag0 O17 2.366327 1_554
Ag0 O12 2.668650 1_555
Ag0 O0 2.668650 1_554
Ag1 O8 2.343496 1_455
Ag1 O20 2.343496 1_555
Ag1 O11 2.366327 1_555
Ag1 O23 2.366327 1_455
Ag1 O13 2.668650 1_555
Ag1 O1 2.668650 1_455
Ag2 O22 2.343496 1_555
Ag2 O10 2.343496 1_545
Ag2 O16 2.366327 1_545
Ag2 O4 2.366327 1_555
Ag2 O14 2.668650 1_555
Ag2 O2 2.668650 1_545
N0 O0 1.221844 1_555
N0 O4 1.244205 1_555
N0 O3 1.315059 1_555
N1 O1 1.221844 1_555
N1 O5 1.244205 1_555
N1 O9 1.315059 1_555
N2 O2 1.221844 1_555
N2 O11 1.244205 1_555
N2 O7 1.315059 1_555
N3 O6 1.258717 1_555
N3 O10 1.258718 1_555
N3 O8 1.258718 1_555
N4 O12 1.221844 1_555
N4 O16 1.244205 1_555
N4 O15 1.315059 1_555
N5 O13 1.221844 1_555
N5 O17 1.244205 1_555
N5 O21 1.315059 1_555
N6 O14 1.221844 1_555
N6 O23 1.244205 1_555
N6 O19 1.315059 1_555
N7 O18 1.258717 1_555
N7 O22 1.258718 1_555
N7 O20 1.258718 1_555
