# generated using pymatgen
data_Cd2In10TcIr3
_symmetry_space_group_name_H-M   'P 1'
_cell_length_a   7.10398261
_cell_length_b   7.10398210
_cell_length_c   7.20274426
_cell_angle_alpha   90.00000000
_cell_angle_beta   90.00000000
_cell_angle_gamma   91.28179860
_symmetry_Int_Tables_number   1
_chemical_formula_structural   Cd2In10TcIr3
_chemical_formula_sum   'Cd2 In10 Tc1 Ir3'
_cell_volume   363.40680436
_cell_formula_units_Z   1
loop_
 _symmetry_equiv_pos_site_id
 _symmetry_equiv_pos_as_xyz
  1  'x, y, z'
loop_
 _atom_site_type_symbol
 _atom_site_label
 _atom_site_symmetry_multiplicity
 _atom_site_fract_x
 _atom_site_fract_y
 _atom_site_fract_z
 _atom_site_occupancy
  Cd  Cd0  1  0.00301214  0.50087830  0.00000000  1
  Cd  Cd1  1  0.49912170  0.99698786  0.00000000  1
  In  In0  1  0.34593211  0.33947511  0.26173066  1
  In  In1  1  0.15589840  0.84410160  0.76910702  1
  In  In2  1  0.15589840  0.84410160  0.23089298  1
  In  In3  1  0.84075998  0.15924002  0.23266796  1
  In  In4  1  0.84075998  0.15924002  0.76733204  1
  In  In5  1  0.66052489  0.65406789  0.26173066  1
  In  In6  1  0.66052489  0.65406789  0.73826934  1
  In  In7  1  0.99934850  0.49696902  0.50000000  1
  In  In8  1  0.34593211  0.33947511  0.73826934  1
  In  In9  1  0.50303098  0.00065150  0.50000000  1
  Tc  Tc0  1  0.65177046  0.34822954  0.50000000  1
  Ir  Ir0  1  0.15249638  0.15413593  0.00000000  1
  Ir  Ir1  1  0.33912503  0.66087497  0.50000000  1
  Ir  Ir2  1  0.84586407  0.84750362  0.00000000  1
loop_
_geom_bond_atom_site_label_1
_geom_bond_atom_site_label_2
_geom_bond_distance
_geom_bond_site_symmetry_2
Cd0 Ir0 2.704134 1_555
Cd0 Ir2 2.726316 1_455
Cd1 Ir2 2.704134 1_555
Cd1 Ir0 2.726316 1_565
In0 Ir0 2.663614 1_555
In0 Tc0 2.768328 1_555
In0 Ir1 2.857566 1_555
In1 Ir1 2.687261 1_555
In1 Ir0 2.760372 1_566
In1 Ir2 2.760372 1_456
In2 Ir1 2.687261 1_555
In2 Ir0 2.760372 1_565
In2 Ir2 2.760372 1_455
In3 Tc0 2.719066 1_555
In3 Ir2 2.778074 1_545
In3 Ir0 2.778074 1_655
In4 Tc0 2.719066 1_555
In4 Ir2 2.778074 1_546
In4 Ir0 2.778074 1_656
In5 Ir2 2.663614 1_555
In5 Tc0 2.768327 1_555
In5 Ir1 2.857566 1_555
In6 Ir2 2.663614 1_556
In6 Tc0 2.768327 1_555
In6 Ir1 2.857566 1_555
In7 Ir1 2.656373 1_655
In7 Tc0 2.663955 1_555
In8 Ir0 2.663614 1_556
In8 Tc0 2.768328 1_555
In8 Ir1 2.857566 1_555
In9 Ir1 2.656373 1_545
In9 Tc0 2.663955 1_555
Ir1 Tc0 3.175945 1_555
