# generated using pymatgen
data_K4Zr6OsBr18
_symmetry_space_group_name_H-M   'P 1'
_cell_length_a   10.46124896
_cell_length_b   10.63584883
_cell_length_c   10.66958484
_cell_angle_alpha   118.55103049
_cell_angle_beta   100.83659544
_cell_angle_gamma   103.45731846
_symmetry_Int_Tables_number   1
_chemical_formula_structural   K4Zr6OsBr18
_chemical_formula_sum   'K4 Zr6 Os1 Br18'
_cell_volume   949.89474441
_cell_formula_units_Z   1
loop_
 _symmetry_equiv_pos_site_id
 _symmetry_equiv_pos_as_xyz
  1  'x, y, z'
loop_
 _atom_site_type_symbol
 _atom_site_label
 _atom_site_symmetry_multiplicity
 _atom_site_fract_x
 _atom_site_fract_y
 _atom_site_fract_z
 _atom_site_occupancy
  K  K0  1  0.65543522  0.54182742  0.23230099  1
  K  K1  1  0.34456478  0.45817258  0.76769901  1
  K  K2  1  0.69111496  0.23071636  0.57208337  1
  K  K3  1  0.30888504  0.76928364  0.42791663  1
  Zr  Zr0  1  0.16549969  0.05974005  0.24758516  1
  Zr  Zr1  1  0.83450031  0.94025995  0.75241484  1
  Zr  Zr2  1  0.85580267  0.13921547  0.14566547  1
  Zr  Zr3  1  0.14419733  0.86078453  0.85433453  1
  Zr  Zr4  1  0.15637443  0.25315790  0.04647047  1
  Zr  Zr5  1  0.84362557  0.74684210  0.95352953  1
  Os  Os0  1  0.00000000  0.00000000  0.00000000  1
  Br  Br0  1  0.01372614  0.42014952  0.20378325  1
  Br  Br1  1  0.98627386  0.57985048  0.79621675  1
  Br  Br2  1  0.33988855  0.33790637  0.31758831  1
  Br  Br3  1  0.66011145  0.66209363  0.68241169  1
  Br  Br4  1  0.33293093  0.52871037  0.09897338  1
  Br  Br5  1  0.66706907  0.47128963  0.90102662  1
  Br  Br6  1  0.00903785  0.79345221  0.21614347  1
  Br  Br7  1  0.99096215  0.20654779  0.78385653  1
  Br  Br8  1  0.70474418  0.29201574  0.30525056  1
  Br  Br9  1  0.29525582  0.70798426  0.69474944  1
  Br  Br10  1  0.31872493  0.12272632  0.89483962  1
  Br  Br11  1  0.68127507  0.87727368  0.10516038  1
  Br  Br12  1  0.02437128  0.21268904  0.42182938  1
  Br  Br13  1  0.97562872  0.78731096  0.57817062  1
  Br  Br14  1  0.32660470  0.91484015  0.10922460  1
  Br  Br15  1  0.67339530  0.08515985  0.89077540  1
  Br  Br16  1  0.34875238  0.12237677  0.51632877  1
  Br  Br17  1  0.65124762  0.87762323  0.48367123  1
loop_
_geom_bond_atom_site_label_1
_geom_bond_atom_site_label_2
_geom_bond_distance
_geom_bond_site_symmetry_2
Os0 Zr4 2.557442 1_555
Os0 Zr5 2.557442 1_444
Os0 Zr1 2.557985 1_444
Os0 Zr0 2.557985 1_555
Os0 Zr2 2.569993 1_455
Os0 Zr3 2.569993 1_544
Br0 Zr4 2.743084 1_555
Br0 Zr2 2.754628 1_455
Br0 K3 3.527077 1_555
Br1 Zr5 2.743084 1_555
Br1 Zr3 2.754628 1_655
Br1 K2 3.527077 1_555
Br2 Zr4 2.734937 1_555
Br2 Zr0 2.739014 1_555
Br3 Zr5 2.734937 1_555
Br3 Zr1 2.739014 1_555
Br4 Zr4 2.799390 1_555
Br4 K1 3.277236 1_554
Br4 K3 3.312949 1_555
Br4 K0 3.348460 1_555
Br5 Zr5 2.799390 1_555
Br5 K0 3.277236 1_556
Br5 K2 3.312949 1_555
Br5 K1 3.348460 1_555
Br6 Zr0 2.746021 1_565
Br6 Zr5 2.746090 1_454
Br6 K3 3.643671 1_555
Br7 Zr1 2.746021 1_545
Br7 Zr4 2.746090 1_656
Br7 K2 3.643671 1_555
Br8 Zr2 2.756734 1_555
Br8 K0 3.224137 1_555
Br8 K2 3.230234 1_555
Br9 Zr3 2.756734 1_555
Br9 K1 3.224137 1_555
Br9 K3 3.230234 1_555
Br10 Zr4 2.722291 1_556
Br10 Zr3 2.732541 1_545
Br11 Zr5 2.722291 1_554
Br11 Zr2 2.732541 1_565
Br12 Zr0 2.746150 1_555
Br12 Zr2 2.757960 1_455
Br12 K1 3.704940 1_555
Br13 Zr1 2.746150 1_555
Br13 Zr3 2.757960 1_655
Br13 K0 3.704940 1_555
Br14 Zr0 2.713775 1_565
Br14 Zr3 2.722374 1_554
Br15 Zr1 2.713775 1_545
Br15 Zr2 2.722374 1_556
Br16 Zr0 2.802402 1_555
Br16 K3 3.302110 1_545
Br16 K1 3.303240 1_555
Br16 K2 3.336443 1_555
Br17 Zr1 2.802402 1_555
Br17 K2 3.302110 1_565
Br17 K0 3.303240 1_555
Br17 K3 3.336443 1_555
