# generated using pymatgen
data_Rb2LiIrBr6
_symmetry_space_group_name_H-M   'P 1'
_cell_length_a   7.38923917
_cell_length_b   7.38923925
_cell_length_c   6.41014717
_cell_angle_alpha   90.00000000
_cell_angle_beta   90.00000000
_cell_angle_gamma   119.99999965
_symmetry_Int_Tables_number   1
_chemical_formula_structural   Rb2LiIrBr6
_chemical_formula_sum   'Rb2 Li1 Ir1 Br6'
_cell_volume   303.10847980
_cell_formula_units_Z   1
loop_
 _symmetry_equiv_pos_site_id
 _symmetry_equiv_pos_as_xyz
  1  'x, y, z'
loop_
 _atom_site_type_symbol
 _atom_site_label
 _atom_site_symmetry_multiplicity
 _atom_site_fract_x
 _atom_site_fract_y
 _atom_site_fract_z
 _atom_site_occupancy
  Rb  Rb0  1  0.33333300  0.66666700  0.28579346  1
  Rb  Rb1  1  0.66666700  0.33333300  0.71420654  1
  Li  Li0  1  0.00000000  0.00000000  0.00000000  1
  Ir  Ir0  1  0.00000000  0.00000000  0.50000000  1
  Br  Br0  1  0.84041981  0.15958019  0.27136876  1
  Br  Br1  1  0.15958019  0.84041981  0.72863124  1
  Br  Br2  1  0.84041981  0.68083862  0.27136876  1
  Br  Br3  1  0.15958019  0.31916138  0.72863124  1
  Br  Br4  1  0.31916138  0.15958019  0.27136876  1
  Br  Br5  1  0.68083862  0.84041981  0.72863124  1
loop_
_geom_bond_atom_site_label_1
_geom_bond_atom_site_label_2
_geom_bond_distance
_geom_bond_site_symmetry_2
Br0 Ir0 2.513809 1_655
Br0 Li0 2.682774 1_655
Br0 Rb1 3.605991 1_555
Br0 Rb0 3.696889 1_545
Br0 Rb0 3.696889 1_655
Br1 Ir0 2.513809 1_565
Br1 Li0 2.682774 1_566
Br1 Rb0 3.605991 1_555
Br1 Rb1 3.696889 1_565
Br1 Rb1 3.696889 1_455
Br2 Ir0 2.513814 1_665
Br2 Li0 2.682779 1_665
Br2 Rb1 3.605991 1_555
Br2 Rb0 3.696882 1_655
Br2 Rb0 3.696896 1_555
Br3 Ir0 2.513814 1_555
Br3 Li0 2.682779 1_556
Br3 Rb0 3.605991 1_555
Br3 Rb1 3.696882 1_455
Br3 Rb1 3.696896 1_555
Br4 Ir0 2.513814 1_555
Br4 Li0 2.682779 1_555
Br4 Rb1 3.605991 1_555
Br4 Rb0 3.696882 1_545
Br4 Rb0 3.696896 1_555
Br5 Ir0 2.513814 1_665
Br5 Li0 2.682779 1_666
Br5 Rb0 3.605991 1_555
Br5 Rb1 3.696882 1_565
Br5 Rb1 3.696896 1_555
