# generated using pymatgen
data_AlGa(SeO4)3
_symmetry_space_group_name_H-M   'P 1'
_cell_length_a   8.92954338
_cell_length_b   8.92954378
_cell_length_c   8.92954380
_cell_angle_alpha   55.75066470
_cell_angle_beta   55.75066537
_cell_angle_gamma   55.75067373
_symmetry_Int_Tables_number   1
_chemical_formula_structural   AlGa(SeO4)3
_chemical_formula_sum   'Al2 Ga2 Se6 O24'
_cell_volume   453.85009769
_cell_formula_units_Z   2
loop_
 _symmetry_equiv_pos_site_id
 _symmetry_equiv_pos_as_xyz
  1  'x, y, z'
loop_
 _atom_site_type_symbol
 _atom_site_label
 _atom_site_symmetry_multiplicity
 _atom_site_fract_x
 _atom_site_fract_y
 _atom_site_fract_z
 _atom_site_occupancy
  Al  Al0  1  0.14261939  0.14261939  0.14261939  1
  Al  Al1  1  0.35009600  0.35009600  0.35009600  1
  Ga  Ga0  1  0.64823955  0.64823955  0.64823955  1
  Ga  Ga1  1  0.85808718  0.85808718  0.85808718  1
  Se  Se0  1  0.96857251  0.53655623  0.24792168  1
  Se  Se1  1  0.53655623  0.24792168  0.96857251  1
  Se  Se2  1  0.24792168  0.96857251  0.53655623  1
  Se  Se3  1  0.75016078  0.03757864  0.45893555  1
  Se  Se4  1  0.45893555  0.75016078  0.03757864  1
  Se  Se5  1  0.03757864  0.45893555  0.75016078  1
  O  O0  1  0.82054452  0.49691402  0.47698877  1
  O  O1  1  0.87303570  0.75775071  0.11157723  1
  O  O2  1  0.99633001  0.37870037  0.18594283  1
  O  O3  1  0.51708445  0.20942078  0.18138289  1
  O  O4  1  0.75775071  0.11157723  0.87303570  1
  O  O5  1  0.49691402  0.47698877  0.82054452  1
  O  O6  1  0.47698877  0.82054452  0.49691402  1
  O  O7  1  0.20942078  0.18138289  0.51708445  1
  O  O8  1  0.78173032  0.02440631  0.63094759  1
  O  O9  1  0.18138289  0.51708445  0.20942078  1
  O  O10  1  0.89656534  0.12985895  0.24489031  1
  O  O11  1  0.63094759  0.78173032  0.02440631  1
  O  O12  1  0.37870037  0.18594283  0.99633001  1
  O  O13  1  0.11157723  0.87303570  0.75775071  1
  O  O14  1  0.82111832  0.47609176  0.79855238  1
  O  O15  1  0.18594283  0.99633001  0.37870037  1
  O  O16  1  0.79855238  0.82111832  0.47609176  1
  O  O17  1  0.52366911  0.18382490  0.48390491  1
  O  O18  1  0.48390491  0.52366911  0.18382490  1
  O  O19  1  0.24489031  0.89656534  0.12985895  1
  O  O20  1  0.47609176  0.79855238  0.82111832  1
  O  O21  1  0.02440631  0.63094759  0.78173032  1
  O  O22  1  0.12985895  0.24489031  0.89656534  1
  O  O23  1  0.18382490  0.48390491  0.52366911  1
loop_
_geom_bond_atom_site_label_1
_geom_bond_atom_site_label_2
_geom_bond_distance
_geom_bond_site_symmetry_2
Al0 O12 1.884045 1_554
Al0 O15 1.884045 1_545
Al0 O2 1.884045 1_455
Al0 O10 1.892249 1_455
Al0 O22 1.892250 1_554
Al0 O19 1.892250 1_545
Al1 O18 1.879314 1_555
Al1 O17 1.879315 1_555
Al1 O23 1.879315 1_555
Al1 O7 1.887927 1_555
Al1 O9 1.887927 1_555
Al1 O3 1.887927 1_555
Ga0 O5 1.966983 1_555
Ga0 O6 1.966984 1_555
Ga0 O0 1.966984 1_555
Ga0 O16 1.971412 1_555
Ga0 O14 1.971412 1_555
Ga0 O20 1.971412 1_555
Ga1 O11 1.952080 1_556
Ga1 O8 1.952080 1_565
Ga1 O21 1.952080 1_655
Ga1 O13 1.966455 1_655
Ga1 O1 1.966455 1_556
Ga1 O4 1.966455 1_565
O0 Se0 1.650700 1_555
O1 Se0 1.636165 1_555
O2 Se0 1.638623 1_555
O3 Se1 1.649114 1_554
O4 Se1 1.636165 1_555
O5 Se1 1.650700 1_555
O6 Se2 1.650700 1_555
O7 Se2 1.649114 1_545
O8 Se3 1.642944 1_555
O9 Se0 1.649114 1_455
O10 Se3 1.633561 1_555
O11 Se4 1.642944 1_555
O12 Se1 1.638623 1_555
O13 Se2 1.636165 1_555
O14 Se5 1.657512 1_655
O15 Se2 1.638623 1_555
O16 Se3 1.657512 1_565
O17 Se3 1.640973 1_555
O18 Se4 1.640973 1_555
O19 Se4 1.633561 1_555
O20 Se4 1.657512 1_556
O21 Se5 1.642944 1_555
O22 Se5 1.633561 1_555
O23 Se5 1.640973 1_555
