# generated using pymatgen
data_K2ZrIrO6
_symmetry_space_group_name_H-M   'P 1'
_cell_length_a   5.68412039
_cell_length_b   5.68412056
_cell_length_c   5.68412063
_cell_angle_alpha   59.99999962
_cell_angle_beta   59.99999861
_cell_angle_gamma   60.00000008
_symmetry_Int_Tables_number   1
_chemical_formula_structural   K2ZrIrO6
_chemical_formula_sum   'K2 Zr1 Ir1 O6'
_cell_volume   129.85983046
_cell_formula_units_Z   1
loop_
 _symmetry_equiv_pos_site_id
 _symmetry_equiv_pos_as_xyz
  1  'x, y, z'
loop_
 _atom_site_type_symbol
 _atom_site_label
 _atom_site_symmetry_multiplicity
 _atom_site_fract_x
 _atom_site_fract_y
 _atom_site_fract_z
 _atom_site_occupancy
  K  K0  1  0.75000000  0.75000000  0.75000000  1
  K  K1  1  0.25000000  0.25000000  0.25000000  1
  Zr  Zr0  1  0.50000000  0.50000000  0.50000000  1
  Ir  Ir0  1  0.00000000  0.00000000  0.00000000  1
  O  O0  1  0.75943073  0.24056927  0.24056927  1
  O  O1  1  0.24056927  0.24056927  0.75943073  1
  O  O2  1  0.24056927  0.75943073  0.75943073  1
  O  O3  1  0.24056927  0.75943073  0.24056927  1
  O  O4  1  0.75943073  0.24056927  0.75943073  1
  O  O5  1  0.75943073  0.75943073  0.24056927  1
loop_
_geom_bond_atom_site_label_1
_geom_bond_atom_site_label_2
_geom_bond_distance
_geom_bond_site_symmetry_2
K0 O3 2.843071 1_556
K0 O2 2.843071 1_555
K0 O2 2.843071 1_655
K0 O3 2.843071 1_655
K0 O1 2.843071 1_565
K0 O1 2.843071 1_655
K0 O4 2.843071 1_565
K0 O0 2.843071 1_565
K0 O0 2.843071 1_556
K0 O4 2.843071 1_555
K0 O5 2.843071 1_556
K0 O5 2.843071 1_555
K1 O0 2.843071 1_555
K1 O4 2.843071 1_554
K1 O4 2.843071 1_455
K1 O0 2.843071 1_455
K1 O5 2.843071 1_545
K1 O5 2.843071 1_455
K1 O2 2.843071 1_545
K1 O3 2.843071 1_545
K1 O3 2.843071 1_555
K1 O2 2.843071 1_554
K1 O1 2.843071 1_555
K1 O1 2.843071 1_554
Ir0 O1 1.933831 1_554
Ir0 O5 1.933831 1_445
Ir0 O3 1.933831 1_545
Ir0 O0 1.933831 1_455
Ir0 O4 1.933831 1_454
Ir0 O2 1.933831 1_544
O0 Zr0 2.085450 1_555
O1 Zr0 2.085450 1_555
O2 Zr0 2.085450 1_555
O3 Zr0 2.085450 1_555
O4 Zr0 2.085450 1_555
O5 Zr0 2.085450 1_555
