# generated using pymatgen
data_Yb3SiO
_symmetry_space_group_name_H-M   'P 1'
_cell_length_a   6.37127927
_cell_length_b   6.37127927
_cell_length_c   6.37127927
_cell_angle_alpha   122.94850689
_cell_angle_beta   110.93324766
_cell_angle_gamma   95.67208153
_symmetry_Int_Tables_number   1
_chemical_formula_structural   Yb3SiO
_chemical_formula_sum   'Yb6 Si2 O2'
_cell_volume   187.99449950
_cell_formula_units_Z   2
loop_
 _symmetry_equiv_pos_site_id
 _symmetry_equiv_pos_as_xyz
  1  'x, y, z'
loop_
 _atom_site_type_symbol
 _atom_site_label
 _atom_site_symmetry_multiplicity
 _atom_site_fract_x
 _atom_site_fract_y
 _atom_site_fract_z
 _atom_site_occupancy
  Yb  Yb0  1  0.83430026  0.25000000  0.58430026  1
  Yb  Yb1  1  0.16569974  0.75000000  0.41569974  1
  Yb  Yb2  1  0.31056399  0.31056399  0.50000000  1
  Yb  Yb3  1  0.68943601  0.18943601  0.00000000  1
  Yb  Yb4  1  0.68943601  0.68943601  0.50000000  1
  Yb  Yb5  1  0.31056399  0.81056399  0.00000000  1
  Si  Si0  1  0.78210476  0.75000000  0.03210476  1
  Si  Si1  1  0.21789524  0.25000000  0.96789524  1
  O  O0  1  0.00000000  0.50000000  0.50000000  1
  O  O1  1  0.50000000  0.00000000  0.50000000  1
loop_
_geom_bond_atom_site_label_1
_geom_bond_atom_site_label_2
_geom_bond_distance
_geom_bond_site_symmetry_2
Si0 Yb1 2.770929 1_655
Si0 Yb4 3.015386 1_554
Si0 Yb3 3.015386 1_565
Si0 Yb2 3.015386 1_554
Si0 Yb5 3.015386 1_555
Si0 Yb0 3.065900 1_554
Si0 Yb0 3.065900 1_565
Si0 Yb2 3.442140 1_665
Si0 Yb5 3.442140 1_655
Si0 Yb3 3.442140 1_555
Si0 Yb4 3.442140 1_555
Si1 Yb0 2.770929 1_455
Si1 Yb3 3.015386 1_556
Si1 Yb4 3.015386 1_556
Si1 Yb5 3.015386 1_546
Si1 Yb2 3.015386 1_556
Si1 Yb1 3.065900 1_545
Si1 Yb1 3.065900 1_556
Si1 Yb2 3.442140 1_555
Si1 Yb5 3.442140 1_556
Si1 Yb3 3.442140 1_456
Si1 Yb4 3.442140 1_445
O0 Yb0 2.223391 1_455
O0 Yb1 2.223391 1_555
O0 Yb5 2.417439 1_556
O0 Yb2 2.417439 1_555
O0 Yb3 2.417439 1_455
O0 Yb4 2.417439 1_455
O1 Yb0 2.223391 1_555
O1 Yb1 2.223391 1_545
O1 Yb5 2.417439 1_545
O1 Yb2 2.417439 1_555
O1 Yb4 2.417439 1_545
O1 Yb3 2.417439 1_556
