# generated using pymatgen
data_Zr3Ta3Sn5
_symmetry_space_group_name_H-M   'P 1'
_cell_length_a   9.61978780
_cell_length_b   9.61978791
_cell_length_c   5.76484012
_cell_angle_alpha   90.00000000
_cell_angle_beta   90.00000000
_cell_angle_gamma   119.99999962
_symmetry_Int_Tables_number   1
_chemical_formula_structural   Zr3Ta3Sn5
_chemical_formula_sum   'Zr6 Ta6 Sn10'
_cell_volume   462.00735524
_cell_formula_units_Z   2
loop_
 _symmetry_equiv_pos_site_id
 _symmetry_equiv_pos_as_xyz
  1  'x, y, z'
loop_
 _atom_site_type_symbol
 _atom_site_label
 _atom_site_symmetry_multiplicity
 _atom_site_fract_x
 _atom_site_fract_y
 _atom_site_fract_z
 _atom_site_occupancy
  Zr  Zr0  1  0.84622878  0.69245755  0.75000000  1
  Zr  Zr1  1  0.15377122  0.84622878  0.25000000  1
  Zr  Zr2  1  0.69245755  0.84622878  0.25000000  1
  Zr  Zr3  1  0.30754245  0.15377122  0.75000000  1
  Zr  Zr4  1  0.84622878  0.15377122  0.75000000  1
  Zr  Zr5  1  0.15377122  0.30754245  0.25000000  1
  Ta  Ta0  1  0.50000000  0.00000000  0.50000000  1
  Ta  Ta1  1  0.50000000  0.50000000  0.00000000  1
  Ta  Ta2  1  0.00000000  0.50000000  0.00000000  1
  Ta  Ta3  1  0.00000000  0.50000000  0.50000000  1
  Ta  Ta4  1  0.50000000  0.00000000  0.00000000  1
  Ta  Ta5  1  0.50000000  0.50000000  0.50000000  1
  Sn  Sn0  1  0.20982797  0.41965594  0.75000000  1
  Sn  Sn1  1  0.79017203  0.20982797  0.25000000  1
  Sn  Sn2  1  0.41965594  0.20982797  0.25000000  1
  Sn  Sn3  1  0.58034406  0.79017203  0.75000000  1
  Sn  Sn4  1  0.20982797  0.79017203  0.75000000  1
  Sn  Sn5  1  0.79017203  0.58034406  0.25000000  1
  Sn  Sn6  1  0.66666700  0.33333300  0.75000000  1
  Sn  Sn7  1  0.33333300  0.66666700  0.25000000  1
  Sn  Sn8  1  0.00000000  0.00000000  0.50000000  1
  Sn  Sn9  1  0.00000000  0.00000000  0.00000000  1
loop_
_geom_bond_atom_site_label_1
_geom_bond_atom_site_label_2
_geom_bond_distance
_geom_bond_site_symmetry_2
Ta0 Ta4 2.882420 1_555
Ta0 Ta4 2.882420 1_556
Ta0 Zr2 3.229802 1_545
Ta0 Zr3 3.229802 1_555
Ta0 Zr4 3.229802 1_555
Ta0 Zr1 3.229802 1_545
Ta1 Ta5 2.882420 1_554
Ta1 Ta5 2.882420 1_555
Ta1 Zr0 3.229802 1_554
Ta1 Zr5 3.229802 1_555
Ta1 Zr2 3.229802 1_555
Ta1 Zr3 3.229802 1_554
Ta2 Ta3 2.882420 1_554
Ta2 Ta3 2.882420 1_555
Ta2 Zr0 3.229802 1_454
Ta2 Zr5 3.229802 1_555
Ta2 Zr1 3.229802 1_555
Ta2 Zr4 3.229802 1_454
Ta3 Zr0 3.229802 1_455
Ta3 Zr5 3.229802 1_555
Ta3 Zr1 3.229802 1_555
Ta3 Zr4 3.229802 1_455
Ta4 Zr2 3.229802 1_545
Ta4 Zr3 3.229802 1_554
Ta4 Zr4 3.229802 1_554
Ta4 Zr1 3.229802 1_545
Ta5 Zr0 3.229802 1_555
Ta5 Zr5 3.229802 1_555
Ta5 Zr2 3.229802 1_555
Ta5 Zr3 3.229802 1_555
Sn0 Ta2 2.882513 1_556
Sn0 Ta3 2.882513 1_555
Sn0 Ta1 2.882513 1_556
Sn0 Ta5 2.882513 1_555
Sn0 Zr5 3.029972 1_556
Sn0 Zr5 3.029972 1_555
Sn0 Zr4 3.135277 1_455
Sn0 Zr3 3.135277 1_555
Sn1 Ta4 2.882513 1_555
Sn1 Ta0 2.882513 1_555
Sn1 Ta2 2.882513 1_655
Sn1 Ta3 2.882513 1_655
Sn1 Zr4 3.029972 1_555
Sn1 Zr4 3.029972 1_554
Sn1 Zr5 3.135277 1_655
Sn1 Zr2 3.135277 1_545
Sn2 Ta0 2.882513 1_555
Sn2 Ta4 2.882513 1_555
Sn2 Ta1 2.882513 1_555
Sn2 Ta5 2.882513 1_555
Sn2 Zr3 3.029972 1_554
Sn2 Zr3 3.029972 1_555
Sn2 Zr5 3.135277 1_555
Sn2 Zr1 3.135277 1_545
Sn3 Ta0 2.882513 1_565
Sn3 Ta4 2.882513 1_566
Sn3 Ta1 2.882513 1_556
Sn3 Ta5 2.882513 1_555
Sn3 Zr2 3.029972 1_556
Sn3 Zr2 3.029972 1_555
Sn3 Zr0 3.135277 1_555
Sn3 Zr4 3.135277 1_565
Sn4 Ta4 2.882513 1_566
Sn4 Ta0 2.882513 1_565
Sn4 Ta2 2.882513 1_556
Sn4 Ta3 2.882513 1_555
Sn4 Zr1 3.029972 1_556
Sn4 Zr1 3.029972 1_555
Sn4 Zr0 3.135277 1_455
Sn4 Zr3 3.135277 1_565
Sn5 Ta2 2.882513 1_655
Sn5 Ta3 2.882513 1_655
Sn5 Ta1 2.882513 1_555
Sn5 Ta5 2.882513 1_555
Sn5 Zr0 3.029972 1_555
Sn5 Zr0 3.029972 1_554
Sn5 Zr1 3.135277 1_655
Sn5 Zr2 3.135277 1_555
Sn6 Zr4 2.991851 1_555
Sn6 Zr3 2.991860 1_555
Sn6 Zr0 2.991860 1_555
Sn6 Ta2 3.128700 1_656
Sn6 Ta3 3.128700 1_655
Sn6 Ta0 3.128700 1_555
Sn6 Ta4 3.128700 1_556
Sn6 Ta1 3.128707 1_556
Sn6 Ta5 3.128707 1_555
Sn7 Zr1 2.991851 1_555
Sn7 Zr2 2.991860 1_555
Sn7 Zr5 2.991860 1_555
Sn7 Ta3 3.128700 1_555
Sn7 Ta2 3.128700 1_555
Sn7 Ta4 3.128700 1_565
Sn7 Ta0 3.128700 1_565
Sn7 Ta5 3.128707 1_555
Sn7 Ta1 3.128707 1_555
Sn8 Sn9 2.882420 1_555
Sn8 Sn9 2.882420 1_556
Sn8 Zr4 2.939659 1_455
Sn8 Zr1 2.939659 1_545
Sn8 Zr3 2.939659 1_555
Sn8 Zr2 2.939659 1_445
Sn8 Zr5 2.939659 1_555
Sn8 Zr0 2.939659 1_445
Sn9 Zr4 2.939659 1_454
Sn9 Zr1 2.939659 1_545
Sn9 Zr3 2.939659 1_554
Sn9 Zr2 2.939659 1_445
Sn9 Zr5 2.939659 1_555
Sn9 Zr0 2.939659 1_444
