# generated using pymatgen
data_Cd2Ga3FeBr16
_symmetry_space_group_name_H-M   'P 1'
_cell_length_a   7.07806650
_cell_length_b   7.53059023
_cell_length_c   13.78017370
_cell_angle_alpha   87.45503688
_cell_angle_beta   90.17979318
_cell_angle_gamma   90.20176014
_symmetry_Int_Tables_number   1
_chemical_formula_structural   Cd2Ga3FeBr16
_chemical_formula_sum   'Cd2 Ga3 Fe1 Br16'
_cell_volume   733.77879451
_cell_formula_units_Z   1
loop_
 _symmetry_equiv_pos_site_id
 _symmetry_equiv_pos_as_xyz
  1  'x, y, z'
loop_
 _atom_site_type_symbol
 _atom_site_label
 _atom_site_symmetry_multiplicity
 _atom_site_fract_x
 _atom_site_fract_y
 _atom_site_fract_z
 _atom_site_occupancy
  Cd  Cd0  1  0.76074117  0.07634036  0.81347191  1
  Cd  Cd1  1  0.24183765  0.07266939  0.31330377  1
  Ga  Ga0  1  0.06923242  0.22733573  0.07803272  1
  Ga  Ga1  1  0.58234813  0.63687788  0.77455867  1
  Ga  Ga2  1  0.41849716  0.63548059  0.27480755  1
  Fe  Fe0  1  0.92945832  0.22084916  0.58124415  1
  Br  Br0  1  0.42292926  0.61237083  0.63206221  1
  Br  Br1  1  0.57868572  0.61032140  0.13334741  1
  Br  Br2  1  0.89795310  0.73824126  0.75773382  1
  Br  Br3  1  0.10318707  0.73430530  0.25704378  1
  Br  Br4  1  0.92965159  0.48634019  0.49614082  1
  Br  Br5  1  0.06881905  0.49325988  0.99369904  1
  Br  Br6  1  0.91286452  0.99504335  0.99848773  1
  Br  Br7  1  0.08465400  0.99569940  0.49605888  1
  Br  Br8  1  0.61836146  0.12393108  0.62099286  1
  Br  Br9  1  0.37577907  0.12164207  0.11978899  1
  Br  Br10  1  0.57221181  0.37388338  0.87717133  1
  Br  Br11  1  0.42723516  0.37387328  0.37836815  1
  Br  Br12  1  0.44839883  0.86418613  0.86835368  1
  Br  Br13  1  0.55422802  0.86468551  0.36794480  1
  Br  Br14  1  0.92538102  0.23687975  0.23462725  1
  Br  Br15  1  0.07754545  0.24058908  0.73716249  1
loop_
_geom_bond_atom_site_label_1
_geom_bond_atom_site_label_2
_geom_bond_distance
_geom_bond_site_symmetry_2
Br0 Ga1 2.275947 1_555
Br1 Ga2 2.273672 1_555
Br2 Ga1 2.366883 1_555
Br2 Cd0 2.865569 1_565
Br3 Ga2 2.363626 1_555
Br3 Cd1 2.865295 1_565
Br4 Fe0 2.272511 1_555
Br5 Ga0 2.270281 1_556
Br6 Ga0 2.373938 1_666
Br6 Cd0 2.807700 1_565
Br7 Fe0 2.378519 1_465
Br7 Cd1 2.792756 1_565
Br8 Fe0 2.375311 1_555
Br8 Cd0 2.842639 1_555
Br9 Ga0 2.374050 1_555
Br9 Cd1 2.841123 1_555
Br10 Ga1 2.382841 1_555
Br10 Cd0 2.788351 1_555
Br11 Ga2 2.381627 1_555
Br11 Cd1 2.796979 1_555
Br12 Ga1 2.390654 1_555
Br12 Cd0 2.808967 1_565
Br13 Ga2 2.393066 1_555
Br13 Cd1 2.796127 1_565
Br14 Ga0 2.393008 1_655
Br14 Cd1 2.758076 1_655
Br15 Fe0 2.397978 1_455
Br15 Cd0 2.746564 1_455
