# generated using pymatgen
data_Hf4GaAs
_symmetry_space_group_name_H-M   'P 1'
_cell_length_a   5.35341649
_cell_length_b   5.35341684
_cell_length_c   5.35341688
_cell_angle_alpha   104.09969797
_cell_angle_beta   104.09969292
_cell_angle_gamma   120.84920696
_symmetry_Int_Tables_number   1
_chemical_formula_structural   Hf4GaAs
_chemical_formula_sum   'Hf4 Ga1 As1'
_cell_volume   114.55562101
_cell_formula_units_Z   1
loop_
 _symmetry_equiv_pos_site_id
 _symmetry_equiv_pos_as_xyz
  1  'x, y, z'
loop_
 _atom_site_type_symbol
 _atom_site_label
 _atom_site_symmetry_multiplicity
 _atom_site_fract_x
 _atom_site_fract_y
 _atom_site_fract_z
 _atom_site_occupancy
  Hf  Hf0  1  0.65470533  0.15470533  0.80941066  1
  Hf  Hf1  1  0.84529467  0.65470533  0.50000000  1
  Hf  Hf2  1  0.15470533  0.34529467  0.50000000  1
  Hf  Hf3  1  0.34529467  0.84529467  0.19058934  1
  Ga  Ga0  1  0.25000000  0.25000000  0.00000000  1
  As  As0  1  0.75000000  0.75000000  0.00000000  1
loop_
_geom_bond_atom_site_label_1
_geom_bond_atom_site_label_2
_geom_bond_distance
_geom_bond_site_symmetry_2
Ga0 Hf1 2.819962 1_555
Ga0 Hf1 2.819962 1_444
Ga0 Hf0 2.819962 1_454
Ga0 Hf0 2.819962 1_554
Ga0 Hf3 2.819962 1_555
Ga0 Hf2 2.819962 1_555
Ga0 Hf3 2.819962 1_545
Ga0 Hf2 2.819962 1_554
As0 Ga0 2.642278 1_555
As0 Ga0 2.642278 1_665
As0 Hf2 2.819962 1_554
As0 Hf2 2.819962 1_665
As0 Hf3 2.819962 1_655
As0 Hf3 2.819962 1_555
As0 Hf0 2.819962 1_554
As0 Hf1 2.819962 1_554
As0 Hf0 2.819962 1_564
As0 Hf1 2.819962 1_555
