# generated using pymatgen
data_Y20Si3GeBi8
_symmetry_space_group_name_H-M   'P 1'
_cell_length_a   12.15246649
_cell_length_b   9.16225267
_cell_length_c   8.09312870
_cell_angle_alpha   90.00000000
_cell_angle_beta   90.01393806
_cell_angle_gamma   90.00000000
_symmetry_Int_Tables_number   1
_chemical_formula_structural   Y20Si3GeBi8
_chemical_formula_sum   'Y20 Si3 Ge1 Bi8'
_cell_volume   901.12104016
_cell_formula_units_Z   1
loop_
 _symmetry_equiv_pos_site_id
 _symmetry_equiv_pos_as_xyz
  1  'x, y, z'
loop_
 _atom_site_type_symbol
 _atom_site_label
 _atom_site_symmetry_multiplicity
 _atom_site_fract_x
 _atom_site_fract_y
 _atom_site_fract_z
 _atom_site_occupancy
  Y  Y0  1  0.56317655  0.05203895  0.31946930  1
  Y  Y1  1  0.06430081  0.44919704  0.18154523  1
  Y  Y2  1  0.43658331  0.55211005  0.68096971  1
  Y  Y3  1  0.93629916  0.94625360  0.81862082  1
  Y  Y4  1  0.43658331  0.94788995  0.68096971  1
  Y  Y5  1  0.93629916  0.55374640  0.81862082  1
  Y  Y6  1  0.56317655  0.44796105  0.31946930  1
  Y  Y7  1  0.06430081  0.05080296  0.18154523  1
  Y  Y8  1  0.70915197  0.25000000  0.65957157  1
  Y  Y9  1  0.21087658  0.25000000  0.83984520  1
  Y  Y10  1  0.29089310  0.75000000  0.34088526  1
  Y  Y11  1  0.79034805  0.75000000  0.15984167  1
  Y  Y12  1  0.50177753  0.25000000  0.96138287  1
  Y  Y13  1  0.00149825  0.25000000  0.53699787  1
  Y  Y14  1  0.49892336  0.75000000  0.03904647  1
  Y  Y15  1  0.99865930  0.75000000  0.46049721  1
  Y  Y16  1  0.79476167  0.25000000  0.13853038  1
  Y  Y17  1  0.29573239  0.25000000  0.36313498  1
  Y  Y18  1  0.20393630  0.75000000  0.86352998  1
  Y  Y19  1  0.70405042  0.75000000  0.63674160  1
  Si  Si0  1  0.47945207  0.25000000  0.58387874  1
  Si  Si1  1  0.01954337  0.75000000  0.08273490  1
  Si  Si2  1  0.52008104  0.75000000  0.41656726  1
  Ge  Ge0  1  0.97851248  0.25000000  0.91511291  1
  Bi  Bi0  1  0.82680164  0.00985948  0.43113644  1
  Bi  Bi1  1  0.32699020  0.49023098  0.06889300  1
  Bi  Bi2  1  0.17329867  0.50980780  0.56900237  1
  Bi  Bi3  1  0.67345072  0.99021946  0.93121369  1
  Bi  Bi4  1  0.17329867  0.99019220  0.56900237  1
  Bi  Bi5  1  0.67345072  0.50978054  0.93121369  1
  Bi  Bi6  1  0.82680164  0.49014052  0.43113644  1
  Bi  Bi7  1  0.32699020  0.00976902  0.06889300  1
loop_
_geom_bond_atom_site_label_1
_geom_bond_atom_site_label_2
_geom_bond_distance
_geom_bond_site_symmetry_2
Si0 Y8 2.857703 1_555
Si0 Y17 2.859088 1_555
Si0 Y2 2.924193 1_555
Si0 Y4 2.924193 1_545
Si0 Y6 2.984160 1_555
Si0 Y0 2.984160 1_555
Si0 Y12 3.067147 1_555
Si1 Y11 2.854487 1_455
Si1 Y18 2.858411 1_554
Si1 Y7 2.920761 1_565
Si1 Y1 2.920761 1_555
Si1 Y3 2.970611 1_454
Si1 Y5 2.970611 1_454
Si1 Y15 3.067856 1_455
Si2 Y10 2.851607 1_555
Si2 Y19 2.858584 1_555
Si2 Y0 2.924084 1_565
Si2 Y6 2.924084 1_555
Si2 Y4 2.982785 1_555
Si2 Y2 2.982785 1_555
Si2 Y14 3.066062 1_555
Ge0 Y16 2.873632 1_556
Ge0 Y9 2.888898 1_655
Ge0 Y5 2.935627 1_555
Ge0 Y3 2.935627 1_545
Ge0 Y1 3.011024 1_656
Ge0 Y7 3.011024 1_656
Ge0 Y13 3.072924 1_655
Bi0 Y13 3.175098 1_655
Bi0 Y15 3.175958 1_545
Bi0 Y8 3.210035 1_555
Bi0 Y16 3.255772 1_555
Bi0 Y19 3.265578 1_545
Bi0 Y11 3.268825 1_545
Bi0 Y0 3.350872 1_555
Bi0 Y3 3.455794 1_545
Bi0 Y7 3.543164 1_655
Bi1 Y14 3.176313 1_555
Bi1 Y12 3.180315 1_554
Bi1 Y9 3.204800 1_554
Bi1 Y17 3.264990 1_555
Bi1 Y18 3.265288 1_554
Bi1 Y10 3.271577 1_555
Bi1 Y1 3.341393 1_555
Bi1 Y2 3.457423 1_554
Bi1 Y6 3.535257 1_555
Bi2 Y13 3.176815 1_555
Bi2 Y15 3.180798 1_455
Bi2 Y10 3.208578 1_555
Bi2 Y17 3.264555 1_555
Bi2 Y18 3.265435 1_555
Bi2 Y9 3.267903 1_555
Bi2 Y2 3.347703 1_555
Bi2 Y1 3.448737 1_555
Bi2 Y5 3.541359 1_455
Bi3 Y12 3.174515 1_565
Bi3 Y14 3.178849 1_556
Bi3 Y11 3.206970 1_556
Bi3 Y16 3.263821 1_566
Bi3 Y19 3.265355 1_555
Bi3 Y8 3.269105 1_565
Bi3 Y3 3.346237 1_555
Bi3 Y0 3.462972 1_566
Bi3 Y4 3.540500 1_555
Bi4 Y13 3.176815 1_565
Bi4 Y15 3.180798 1_455
Bi4 Y10 3.208578 1_555
Bi4 Y17 3.264555 1_565
Bi4 Y18 3.265435 1_555
Bi4 Y9 3.267903 1_565
Bi4 Y4 3.347703 1_555
Bi4 Y7 3.448737 1_565
Bi4 Y3 3.541359 1_455
Bi5 Y12 3.174515 1_555
Bi5 Y14 3.178849 1_556
Bi5 Y11 3.206970 1_556
Bi5 Y16 3.263821 1_556
Bi5 Y19 3.265355 1_555
Bi5 Y8 3.269105 1_555
Bi5 Y5 3.346237 1_555
Bi5 Y6 3.462972 1_556
Bi5 Y2 3.540500 1_555
Bi6 Y13 3.175098 1_655
Bi6 Y15 3.175958 1_555
Bi6 Y8 3.210035 1_555
Bi6 Y16 3.255772 1_555
Bi6 Y19 3.265578 1_555
Bi6 Y11 3.268825 1_555
Bi6 Y6 3.350872 1_555
Bi6 Y5 3.455794 1_555
Bi6 Y1 3.543164 1_655
Bi7 Y14 3.176313 1_545
Bi7 Y12 3.180315 1_554
Bi7 Y9 3.204800 1_554
Bi7 Y17 3.264990 1_555
Bi7 Y18 3.265288 1_544
Bi7 Y10 3.271577 1_545
Bi7 Y7 3.341393 1_555
Bi7 Y4 3.457423 1_544
Bi7 Y0 3.535257 1_555
