# generated using pymatgen
data_Cd6RhIO12
_symmetry_space_group_name_H-M   'P 1'
_cell_length_a   5.65666043
_cell_length_b   5.54325469
_cell_length_c   9.72586056
_cell_angle_alpha   55.26426154
_cell_angle_beta   89.96997354
_cell_angle_gamma   89.67494433
_symmetry_Int_Tables_number   1
_chemical_formula_structural   Cd6RhIO12
_chemical_formula_sum   'Cd6 Rh1 I1 O12'
_cell_volume   250.61314410
_cell_formula_units_Z   1
loop_
 _symmetry_equiv_pos_site_id
 _symmetry_equiv_pos_as_xyz
  1  'x, y, z'
loop_
 _atom_site_type_symbol
 _atom_site_label
 _atom_site_symmetry_multiplicity
 _atom_site_fract_x
 _atom_site_fract_y
 _atom_site_fract_z
 _atom_site_occupancy
  Cd  Cd0  1  0.95759381  0.27833605  0.22669374  1
  Cd  Cd1  1  0.44070976  0.78325697  0.23817027  1
  Cd  Cd2  1  0.04240619  0.72166395  0.77330626  1
  Cd  Cd3  1  0.55929024  0.21674303  0.76182973  1
  Cd  Cd4  1  0.00000000  0.50000000  0.50000000  1
  Cd  Cd5  1  0.50000000  0.50000000  0.00000000  1
  Rh  Rh0  1  0.00000000  0.00000000  0.00000000  1
  I  I0  1  0.50000000  0.00000000  0.50000000  1
  O  O0  1  0.28136071  0.90391326  0.93205076  1
  O  O1  1  0.77826751  0.07047480  0.57843576  1
  O  O2  1  0.71863929  0.09608674  0.06794924  1
  O  O3  1  0.22173249  0.92952520  0.42156424  1
  O  O4  1  0.17884520  0.25054804  0.04680589  1
  O  O5  1  0.66848351  0.78386354  0.43683724  1
  O  O6  1  0.82115480  0.74945196  0.95319411  1
  O  O7  1  0.33151649  0.21613646  0.56316276  1
  O  O8  1  0.43487128  0.65588146  0.71542187  1
  O  O9  1  0.93203646  0.34333223  0.76512389  1
  O  O10  1  0.56512872  0.34411854  0.28457813  1
  O  O11  1  0.06796354  0.65666777  0.23487611  1
loop_
_geom_bond_atom_site_label_1
_geom_bond_atom_site_label_2
_geom_bond_distance
_geom_bond_site_symmetry_2
Cd0 O4 2.225690 1_655
Cd0 O11 2.235937 1_655
Cd0 O3 2.314565 1_645
Cd0 O10 2.366843 1_555
Cd0 O6 2.560142 1_554
Cd0 O2 2.650761 1_555
Cd1 O2 2.230737 1_565
Cd1 O11 2.231967 1_555
Cd1 O10 2.313756 1_555
Cd1 O5 2.324559 1_555
Cd1 O4 2.614053 1_565
Cd1 O3 2.647176 1_555
Cd1 O0 2.801915 1_554
Cd2 O6 2.225690 1_455
Cd2 O9 2.235937 1_455
Cd2 O1 2.314565 1_465
Cd2 O8 2.366843 1_555
Cd2 O4 2.560142 1_556
Cd2 O0 2.650761 1_555
Cd3 O0 2.230737 1_545
Cd3 O9 2.231967 1_555
Cd3 O8 2.313756 1_555
Cd3 O7 2.324559 1_555
Cd3 O6 2.614053 1_545
Cd3 O1 2.647176 1_555
Cd3 O2 2.801915 1_556
Cd4 O11 2.236468 1_555
Cd4 O9 2.236468 1_455
Cd4 O5 2.288273 1_455
Cd4 O7 2.288273 1_555
Cd4 O1 2.405650 1_455
Cd4 O3 2.405650 1_555
Cd5 O6 2.174824 1_554
Cd5 O4 2.174824 1_555
Cd5 O0 2.294048 1_554
Cd5 O2 2.294048 1_555
Cd5 O10 2.411419 1_555
Cd5 O8 2.411419 1_554
I0 O7 1.883164 1_555
I0 O5 1.883164 1_545
I0 O3 1.886821 1_545
I0 O1 1.886821 1_555
I0 O8 1.901797 1_545
I0 O10 1.901797 1_555
O0 Rh0 1.908906 1_566
O2 Rh0 1.908906 1_655
O4 Rh0 1.973963 1_555
O6 Rh0 1.973963 1_666
O9 Rh0 2.006599 1_656
O11 Rh0 2.006599 1_565
