# generated using pymatgen
data_Ti8Pt3RhO2
_symmetry_space_group_name_H-M   'P 1'
_cell_length_a   8.24914222
_cell_length_b   8.24914266
_cell_length_c   8.25876766
_cell_angle_alpha   59.96138366
_cell_angle_beta   59.96138187
_cell_angle_gamma   59.94303391
_symmetry_Int_Tables_number   1
_chemical_formula_structural   Ti8Pt3RhO2
_chemical_formula_sum   'Ti16 Pt6 Rh2 O4'
_cell_volume   396.98766103
_cell_formula_units_Z   2
loop_
 _symmetry_equiv_pos_site_id
 _symmetry_equiv_pos_as_xyz
  1  'x, y, z'
loop_
 _atom_site_type_symbol
 _atom_site_label
 _atom_site_symmetry_multiplicity
 _atom_site_fract_x
 _atom_site_fract_y
 _atom_site_fract_z
 _atom_site_occupancy
  Ti  Ti0  1  0.81739063  0.18661427  0.81696157  1
  Ti  Ti1  1  0.18496767  0.81635208  0.18302610  1
  Ti  Ti2  1  0.43364792  0.06503233  0.43434584  1
  Ti  Ti3  1  0.43364792  0.06503233  0.06697390  1
  Ti  Ti4  1  0.06338573  0.43260937  0.43303843  1
  Ti  Ti5  1  0.06338573  0.43260937  0.07096648  1
  Ti  Ti6  1  0.18138960  0.18638409  0.81611315  1
  Ti  Ti7  1  0.43285915  0.43324134  0.06694975  1
  Ti  Ti8  1  0.11893305  0.62302190  0.62902203  1
  Ti  Ti9  1  0.63032605  0.61967395  0.12500000  1
  Ti  Ti10  1  0.63032605  0.61967395  0.62500000  1
  Ti  Ti11  1  0.62697810  0.13106695  0.62097797  1
  Ti  Ti12  1  0.18496767  0.81635208  0.81565416  1
  Ti  Ti13  1  0.81739063  0.18661427  0.17903352  1
  Ti  Ti14  1  0.06361591  0.06861040  0.43388685  1
  Ti  Ti15  1  0.81675866  0.81714085  0.18305025  1
  Pt  Pt0  1  0.40762359  0.77448617  0.40894612  1
  Pt  Pt1  1  0.84147588  0.84452287  0.47079649  1
  Pt  Pt2  1  0.84147588  0.84452287  0.84320476  1
  Pt  Pt3  1  0.47551383  0.84237641  0.84105388  1
  Pt  Pt4  1  0.40547713  0.40852412  0.40679524  1
  Pt  Pt5  1  0.40547713  0.40852412  0.77920351  1
  Rh  Rh0  1  0.84274524  0.46871690  0.84426943  1
  Rh  Rh1  1  0.78128310  0.40725476  0.40573057  1
  O  O0  1  0.12487297  0.12512703  0.62500000  1
  O  O1  1  0.62457347  0.12536064  0.12503345  1
  O  O2  1  0.12487297  0.12512703  0.12500000  1
  O  O3  1  0.12463936  0.62542653  0.12496655  1
loop_
_geom_bond_atom_site_label_1
_geom_bond_atom_site_label_2
_geom_bond_distance
_geom_bond_site_symmetry_2
Pt0 Ti10 2.615346 1_555
Pt0 Ti9 2.615359 1_555
Pt0 Ti2 2.626479 1_565
Pt0 Ti3 2.626488 1_565
Pt0 Ti8 2.628592 1_555
Pt0 Ti14 2.645797 1_565
Pt1 Ti8 2.588318 1_655
Pt1 Ti10 2.597426 1_555
Pt1 Ti11 2.608613 1_565
Pt1 Ti15 2.609342 1_555
Pt1 Ti1 2.623439 1_655
Pt1 Ti13 2.630408 1_565
Pt2 Ti8 2.588323 1_655
Pt2 Ti9 2.597426 1_556
Pt2 Ti11 2.608608 1_565
Pt2 Ti15 2.609342 1_556
Pt2 Ti12 2.623439 1_655
Pt2 Ti0 2.630409 1_565
Pt3 Ti10 2.615346 1_555
Pt3 Ti9 2.615359 1_556
Pt3 Ti12 2.626479 1_555
Pt3 Ti1 2.626488 1_556
Pt3 Ti11 2.628592 1_565
Pt3 Ti6 2.645797 1_565
Pt4 Ti11 2.588323 1_555
Pt4 Ti9 2.597426 1_555
Pt4 Ti8 2.608607 1_555
Pt4 Ti7 2.609342 1_555
Pt4 Ti2 2.623439 1_555
Pt4 Ti4 2.630408 1_555
Pt5 Ti11 2.588319 1_555
Pt5 Ti10 2.597426 1_555
Pt5 Ti8 2.608612 1_555
Pt5 Ti7 2.609342 1_556
Pt5 Ti3 2.623439 1_556
Pt5 Ti5 2.630408 1_556
Rh0 Ti8 2.560439 1_655
Rh0 Ti13 2.563245 1_556
Rh0 Ti0 2.563251 1_555
Rh0 Ti9 2.575631 1_556
Rh0 Ti10 2.575637 1_555
Rh0 Ti6 2.580046 1_655
Rh1 Ti11 2.560439 1_555
Rh1 Ti5 2.563245 1_655
Rh1 Ti4 2.563251 1_655
Rh1 Ti9 2.575631 1_555
Rh1 Ti10 2.575637 1_555
Rh1 Ti14 2.580046 1_655
O0 Ti0 2.166726 1_455
O0 Ti4 2.166726 1_555
O0 Ti2 2.171216 1_555
O0 Ti12 2.171216 1_545
O0 Ti14 2.176035 1_555
O0 Ti6 2.176035 1_555
O1 Ti7 2.167447 1_555
O1 Ti15 2.170378 1_545
O1 Ti13 2.173712 1_555
O1 Ti0 2.173717 1_554
O1 Ti2 2.176746 1_555
O1 Ti3 2.176752 1_555
O2 Ti13 2.166726 1_455
O2 Ti5 2.166726 1_555
O2 Ti3 2.171216 1_555
O2 Ti1 2.171216 1_545
O2 Ti14 2.176034 1_555
O2 Ti6 2.176034 1_554
O3 Ti15 2.167447 1_455
O3 Ti7 2.170378 1_555
O3 Ti5 2.173712 1_555
O3 Ti4 2.173717 1_555
O3 Ti12 2.176746 1_554
O3 Ti1 2.176752 1_555
