# generated using pymatgen
data_Zr10AlB2Sb5
_symmetry_space_group_name_H-M   'P 1'
_cell_length_a   8.48228178
_cell_length_b   8.48228084
_cell_length_c   5.76468334
_cell_angle_alpha   90.00000000
_cell_angle_beta   90.00000000
_cell_angle_gamma   120.28377536
_symmetry_Int_Tables_number   1
_chemical_formula_structural   Zr10AlB2Sb5
_chemical_formula_sum   'Zr10 Al1 B2 Sb5'
_cell_volume   358.16442430
_cell_formula_units_Z   1
loop_
 _symmetry_equiv_pos_site_id
 _symmetry_equiv_pos_as_xyz
  1  'x, y, z'
loop_
 _atom_site_type_symbol
 _atom_site_label
 _atom_site_symmetry_multiplicity
 _atom_site_fract_x
 _atom_site_fract_y
 _atom_site_fract_z
 _atom_site_occupancy
  Zr  Zr0  1  0.66491724  0.33360278  0.49738444  1
  Zr  Zr1  1  0.33360278  0.66491724  0.49738444  1
  Zr  Zr2  1  0.33360278  0.66491724  0.00261556  1
  Zr  Zr3  1  0.66491724  0.33360278  0.00261556  1
  Zr  Zr4  1  0.76302541  0.76302541  0.25000000  1
  Zr  Zr5  1  0.23782882  0.00762906  0.25000000  1
  Zr  Zr6  1  0.00762906  0.23782882  0.25000000  1
  Zr  Zr7  1  0.23247414  0.23247414  0.75000000  1
  Zr  Zr8  1  0.76610798  0.99793660  0.75000000  1
  Zr  Zr9  1  0.99793660  0.76610798  0.75000000  1
  Al  Al0  1  0.40258896  0.40258896  0.25000000  1
  B  B0  1  0.99982552  0.99982552  0.49865858  1
  B  B1  1  0.99982552  0.99982552  0.00134142  1
  Sb  Sb0  1  0.60457070  0.00102010  0.25000000  1
  Sb  Sb1  1  0.00102010  0.60457070  0.25000000  1
  Sb  Sb2  1  0.59260738  0.59260738  0.75000000  1
  Sb  Sb3  1  0.39789372  0.99962806  0.75000000  1
  Sb  Sb4  1  0.99962806  0.39789372  0.75000000  1
loop_
_geom_bond_atom_site_label_1
_geom_bond_atom_site_label_2
_geom_bond_distance
_geom_bond_site_symmetry_2
Zr0 Zr3 2.852186 1_555
Zr0 Zr3 2.912497 1_556
Zr1 Zr2 2.852186 1_555
Zr1 Zr2 2.912497 1_556
Al0 Zr5 2.907680 1_555
Al0 Zr6 2.907680 1_555
Al0 Zr1 2.939495 1_555
Al0 Zr2 2.939495 1_555
Al0 Zr0 2.939495 1_555
Al0 Zr3 2.939495 1_555
Al0 Zr4 3.044200 1_555
Al0 Zr7 3.220589 1_555
Al0 Zr7 3.220589 1_554
Al0 Sb2 3.299016 1_554
Al0 Sb2 3.299016 1_555
B0 Zr7 2.441359 1_665
B0 Zr9 2.449017 1_555
B0 Zr8 2.449017 1_555
B0 Zr6 2.449479 1_665
B0 Zr5 2.449480 1_665
B0 Zr4 2.460626 1_555
B1 Zr7 2.441359 1_664
B1 Zr9 2.449017 1_554
B1 Zr8 2.449017 1_554
B1 Zr6 2.449479 1_665
B1 Zr5 2.449480 1_665
B1 Zr4 2.460626 1_555
Sb0 Zr4 2.935700 1_545
Sb0 Zr6 2.965999 1_655
Sb0 Zr0 2.966097 1_555
Sb0 Zr3 2.966097 1_555
Sb0 Zr1 2.972454 1_545
Sb0 Zr2 2.972454 1_545
Sb0 Zr5 3.139451 1_555
Sb0 Zr8 3.197215 1_545
Sb0 Zr8 3.197215 1_544
Sb1 Zr4 2.935700 1_455
Sb1 Zr5 2.965998 1_565
Sb1 Zr1 2.966097 1_555
Sb1 Zr2 2.966097 1_555
Sb1 Zr0 2.972454 1_455
Sb1 Zr3 2.972454 1_455
Sb1 Zr6 3.139450 1_555
Sb1 Zr9 3.197215 1_454
Sb1 Zr9 3.197215 1_455
Sb2 Zr3 2.946608 1_556
Sb2 Zr0 2.946608 1_555
Sb2 Zr2 2.946608 1_556
Sb2 Zr1 2.946608 1_555
Sb2 Zr8 2.980492 1_555
Sb2 Zr9 2.980493 1_555
Sb2 Zr7 3.041640 1_555
Sb2 Zr4 3.221733 1_555
Sb2 Zr4 3.221733 1_556
Sb3 Zr9 2.942010 1_455
Sb3 Zr7 2.943586 1_565
Sb3 Zr3 2.967248 1_566
Sb3 Zr0 2.967248 1_565
Sb3 Zr2 2.986147 1_556
Sb3 Zr1 2.986147 1_555
Sb3 Zr8 3.130557 1_555
Sb3 Zr5 3.201378 1_566
Sb3 Zr5 3.201378 1_565
Sb4 Zr8 2.942010 1_545
Sb4 Zr7 2.943586 1_655
Sb4 Zr2 2.967248 1_656
Sb4 Zr1 2.967248 1_655
Sb4 Zr3 2.986147 1_556
Sb4 Zr0 2.986147 1_555
Sb4 Zr9 3.130556 1_555
Sb4 Zr6 3.201378 1_655
Sb4 Zr6 3.201378 1_656
