# generated using pymatgen
data_NaSn2(AsO4)3
_symmetry_space_group_name_H-M   'P 1'
_cell_length_a   9.19809155
_cell_length_b   9.19809174
_cell_length_c   9.19809209
_cell_angle_alpha   58.85119341
_cell_angle_beta   58.85119676
_cell_angle_gamma   58.85120061
_symmetry_Int_Tables_number   1
_chemical_formula_structural   NaSn2(AsO4)3
_chemical_formula_sum   'Na2 Sn4 As6 O24'
_cell_volume   535.84080020
_cell_formula_units_Z   2
loop_
 _symmetry_equiv_pos_site_id
 _symmetry_equiv_pos_as_xyz
  1  'x, y, z'
loop_
 _atom_site_type_symbol
 _atom_site_label
 _atom_site_symmetry_multiplicity
 _atom_site_fract_x
 _atom_site_fract_y
 _atom_site_fract_z
 _atom_site_occupancy
  Na  Na0  1  0.50000000  0.50000000  0.50000000  1
  Na  Na1  1  0.00000000  0.00000000  0.00000000  1
  Sn  Sn0  1  0.35728407  0.35728407  0.35728407  1
  Sn  Sn1  1  0.85728407  0.85728407  0.85728407  1
  Sn  Sn2  1  0.64271593  0.64271593  0.64271593  1
  Sn  Sn3  1  0.14271593  0.14271593  0.14271593  1
  As  As0  1  0.95992213  0.54007787  0.25000000  1
  As  As1  1  0.25000000  0.95992213  0.54007787  1
  As  As2  1  0.54007787  0.25000000  0.95992213  1
  As  As3  1  0.75000000  0.04007787  0.45992213  1
  As  As4  1  0.45992213  0.75000000  0.04007787  1
  As  As5  1  0.04007787  0.45992213  0.75000000  1
  O  O0  1  0.13237598  0.51473644  0.28935388  1
  O  O1  1  0.28935388  0.13237598  0.51473644  1
  O  O2  1  0.51473644  0.28935388  0.13237598  1
  O  O3  1  0.78935388  0.01473644  0.63237598  1
  O  O4  1  0.63237598  0.78935388  0.01473644  1
  O  O5  1  0.01473644  0.63237598  0.78935388  1
  O  O6  1  0.86762402  0.48526356  0.71064612  1
  O  O7  1  0.71064612  0.86762402  0.48526356  1
  O  O8  1  0.48526356  0.71064612  0.86762402  1
  O  O9  1  0.21064612  0.98526356  0.36762402  1
  O  O10  1  0.36762402  0.21064612  0.98526356  1
  O  O11  1  0.98526356  0.36762402  0.21064612  1
  O  O12  1  0.23561128  0.44144555  0.57384396  1
  O  O13  1  0.57384396  0.23561128  0.44144555  1
  O  O14  1  0.44144555  0.57384396  0.23561128  1
  O  O15  1  0.07384396  0.94144555  0.73561128  1
  O  O16  1  0.73561128  0.07384396  0.94144555  1
  O  O17  1  0.94144555  0.73561128  0.07384396  1
  O  O18  1  0.76438872  0.55855445  0.42615604  1
  O  O19  1  0.42615604  0.76438872  0.55855445  1
  O  O20  1  0.55855445  0.42615604  0.76438872  1
  O  O21  1  0.92615604  0.05855445  0.26438872  1
  O  O22  1  0.26438872  0.92615604  0.05855445  1
  O  O23  1  0.05855445  0.26438872  0.92615604  1
loop_
_geom_bond_atom_site_label_1
_geom_bond_atom_site_label_2
_geom_bond_distance
_geom_bond_site_symmetry_2
Na0 O18 2.435807 1_555
Na0 O12 2.435807 1_555
Na0 O20 2.435808 1_555
Na0 O14 2.435808 1_555
Na0 O19 2.435808 1_555
Na0 O13 2.435808 1_555
Na1 O23 2.435807 1_554
Na1 O17 2.435807 1_445
Na1 O22 2.435807 1_545
Na1 O16 2.435807 1_454
Na1 O21 2.435808 1_455
Na1 O15 2.435808 1_544
As0 O0 1.680999 1_655
As0 O11 1.680999 1_555
As0 O17 1.686080 1_555
As0 O18 1.686080 1_555
As1 O1 1.680999 1_565
As1 O9 1.680999 1_555
As1 O15 1.686080 1_555
As1 O19 1.686080 1_555
As2 O10 1.680999 1_555
As2 O2 1.680999 1_556
As2 O20 1.686080 1_555
As2 O16 1.686080 1_555
As3 O7 1.680999 1_545
As3 O3 1.680999 1_555
As3 O21 1.686080 1_555
As3 O13 1.686080 1_555
As4 O4 1.680999 1_555
As4 O8 1.680999 1_554
As4 O14 1.686080 1_555
As4 O22 1.686080 1_555
As5 O6 1.680999 1_455
As5 O5 1.680999 1_555
As5 O23 1.686080 1_555
As5 O12 1.686080 1_555
O0 Sn0 2.017194 1_555
O1 Sn0 2.017193 1_555
O2 Sn0 2.017194 1_555
O3 Sn1 2.017194 1_545
O4 Sn1 2.017193 1_554
O5 Sn1 2.017194 1_455
O6 Sn2 2.017194 1_555
O7 Sn2 2.017193 1_555
O8 Sn2 2.017194 1_555
O9 Sn3 2.017194 1_565
O10 Sn3 2.017193 1_556
O11 Sn3 2.017194 1_655
O12 Sn0 2.052391 1_555
O13 Sn0 2.052391 1_555
O14 Sn0 2.052391 1_555
O15 Sn1 2.052391 1_455
O16 Sn1 2.052391 1_545
O17 Sn1 2.052391 1_554
O18 Sn2 2.052391 1_555
O19 Sn2 2.052391 1_555
O20 Sn2 2.052391 1_555
O21 Sn3 2.052391 1_655
O22 Sn3 2.052391 1_565
O23 Sn3 2.052391 1_556
