# generated using pymatgen
data_TaAlCo2
_symmetry_space_group_name_H-M   'P 1'
_cell_length_a   4.18687060
_cell_length_b   4.18687023
_cell_length_c   4.18687095
_cell_angle_alpha   60.00000232
_cell_angle_beta   60.00000520
_cell_angle_gamma   60.00000054
_symmetry_Int_Tables_number   1
_chemical_formula_structural   TaAlCo2
_chemical_formula_sum   'Ta1 Al1 Co2'
_cell_volume   51.89836104
_cell_formula_units_Z   1
loop_
 _symmetry_equiv_pos_site_id
 _symmetry_equiv_pos_as_xyz
  1  'x, y, z'
loop_
 _atom_site_type_symbol
 _atom_site_label
 _atom_site_symmetry_multiplicity
 _atom_site_fract_x
 _atom_site_fract_y
 _atom_site_fract_z
 _atom_site_occupancy
  Ta  Ta0  1  0.00000000  0.00000000  0.00000000  1
  Al  Al0  1  0.50000000  0.50000000  0.50000000  1
  Co  Co0  1  0.25000000  0.25000000  0.25000000  1
  Co  Co1  1  0.75000000  0.75000000  0.75000000  1
loop_
_geom_bond_atom_site_label_1
_geom_bond_atom_site_label_2
_geom_bond_distance
_geom_bond_site_symmetry_2
Al0 Co1 2.563924 1_545
Al0 Co0 2.563924 1_565
Al0 Co0 2.563924 1_555
Al0 Co1 2.563924 1_555
Al0 Co0 2.563924 1_655
Al0 Co1 2.563924 1_455
Al0 Co1 2.563925 1_554
Al0 Co0 2.563925 1_556
Co0 Ta0 2.563924 1_565
Co0 Ta0 2.563924 1_555
Co0 Ta0 2.563924 1_655
Co0 Ta0 2.563925 1_556
Co1 Ta0 2.563924 1_656
Co1 Ta0 2.563924 1_666
Co1 Ta0 2.563924 1_566
Co1 Ta0 2.563925 1_665
