# generated using pymatgen
data_Sr3NbAs3O
_symmetry_space_group_name_H-M   'P 1'
_cell_length_a   6.43812658
_cell_length_b   10.74201307
_cell_length_c   13.00981287
_cell_angle_alpha   90.00000000
_cell_angle_beta   90.00000000
_cell_angle_gamma   90.00000000
_symmetry_Int_Tables_number   1
_chemical_formula_structural   Sr3NbAs3O
_chemical_formula_sum   'Sr12 Nb4 As12 O4'
_cell_volume   899.73836042
_cell_formula_units_Z   4
loop_
 _symmetry_equiv_pos_site_id
 _symmetry_equiv_pos_as_xyz
  1  'x, y, z'
loop_
 _atom_site_type_symbol
 _atom_site_label
 _atom_site_symmetry_multiplicity
 _atom_site_fract_x
 _atom_site_fract_y
 _atom_site_fract_z
 _atom_site_occupancy
  Sr  Sr0  1  0.24614971  0.04409603  0.62800425  1
  Sr  Sr1  1  0.74614971  0.45590397  0.87199575  1
  Sr  Sr2  1  0.75385029  0.54409603  0.37199575  1
  Sr  Sr3  1  0.25385029  0.95590397  0.12800425  1
  Sr  Sr4  1  0.24614971  0.45590397  0.62800425  1
  Sr  Sr5  1  0.75385029  0.95590397  0.37199575  1
  Sr  Sr6  1  0.76780836  0.25000000  0.12804198  1
  Sr  Sr7  1  0.26780836  0.25000000  0.37195802  1
  Sr  Sr8  1  0.23219164  0.75000000  0.87195802  1
  Sr  Sr9  1  0.73219164  0.75000000  0.62804198  1
  Sr  Sr10  1  0.25385029  0.54409603  0.12800425  1
  Sr  Sr11  1  0.74614971  0.04409603  0.87199575  1
  Nb  Nb0  1  0.34165014  0.25000000  0.95133763  1
  Nb  Nb1  1  0.84165014  0.25000000  0.54866237  1
  Nb  Nb2  1  0.65834986  0.75000000  0.04866237  1
  Nb  Nb3  1  0.15834986  0.75000000  0.45133763  1
  As  As0  1  0.23630700  0.75000000  0.63565068  1
  As  As1  1  0.73630700  0.75000000  0.86434932  1
  As  As2  1  0.76369300  0.25000000  0.36434932  1
  As  As3  1  0.26369300  0.25000000  0.13565068  1
  As  As4  1  0.23664423  0.45131372  0.87660355  1
  As  As5  1  0.73664423  0.04868628  0.62339645  1
  As  As6  1  0.23664423  0.04868628  0.87660355  1
  As  As7  1  0.73664423  0.45131372  0.62339645  1
  As  As8  1  0.76335577  0.54868628  0.12339645  1
  As  As9  1  0.26335577  0.54868628  0.37660355  1
  As  As10  1  0.26335577  0.95131372  0.37660355  1
  As  As11  1  0.76335577  0.95131372  0.12339645  1
  O  O0  1  0.63857212  0.25000000  0.94584742  1
  O  O1  1  0.13857212  0.25000000  0.55415258  1
  O  O2  1  0.36142788  0.75000000  0.05415258  1
  O  O3  1  0.86142788  0.75000000  0.44584742  1
loop_
_geom_bond_atom_site_label_1
_geom_bond_atom_site_label_2
_geom_bond_distance
_geom_bond_site_symmetry_2
Nb0 O0 1.912955 1_555
Nb1 O1 1.912955 1_655
Nb2 O2 1.912955 1_555
Nb3 O3 1.912955 1_455
As0 Nb3 2.449841 1_555
As0 Sr8 3.074428 1_555
As0 Sr4 3.161384 1_555
As0 Sr0 3.161384 1_565
As0 Sr9 3.194102 1_555
As0 Sr9 3.247068 1_455
As1 Nb2 2.449841 1_556
As1 Sr9 3.074428 1_555
As1 Sr1 3.161384 1_555
As1 Sr11 3.161384 1_565
As1 Sr8 3.194102 1_655
As1 Sr8 3.247068 1_555
As2 Nb1 2.449841 1_555
As2 Sr6 3.074428 1_555
As2 Sr5 3.161384 1_545
As2 Sr2 3.161384 1_555
As2 Sr7 3.194102 1_555
As2 Sr7 3.247068 1_655
As3 Nb0 2.449841 1_554
As3 Sr7 3.074428 1_555
As3 Sr3 3.161384 1_545
As3 Sr10 3.161384 1_555
As3 Sr6 3.194102 1_455
As3 Sr6 3.247068 1_555
As4 Nb0 2.465527 1_555
As4 Sr1 3.158820 1_455
As4 Sr8 3.209189 1_555
As4 Sr4 3.235185 1_555
As4 Sr1 3.281179 1_555
As4 Sr10 3.420956 1_556
As5 Nb1 2.465527 1_555
As5 Sr0 3.158820 1_555
As5 Sr9 3.209189 1_545
As5 Sr11 3.235185 1_555
As5 Sr0 3.281179 1_655
As5 Sr5 3.420956 1_545
As6 Nb0 2.465527 1_555
As6 Sr11 3.158820 1_455
As6 Sr8 3.209189 1_545
As6 Sr0 3.235185 1_555
As6 Sr11 3.281179 1_555
As6 Sr3 3.420956 1_546
As7 Nb1 2.465527 1_555
As7 Sr4 3.158820 1_555
As7 Sr9 3.209189 1_555
As7 Sr1 3.235185 1_555
As7 Sr4 3.281179 1_655
As7 Sr2 3.420956 1_555
As8 Nb2 2.465527 1_555
As8 Sr10 3.158820 1_655
As8 Sr6 3.209189 1_555
As8 Sr2 3.235185 1_555
As8 Sr10 3.281179 1_555
As8 Sr1 3.420956 1_554
As9 Nb3 2.465527 1_555
As9 Sr2 3.158820 1_555
As9 Sr7 3.209189 1_555
As9 Sr10 3.235185 1_555
As9 Sr2 3.281179 1_455
As9 Sr4 3.420956 1_555
As10 Nb3 2.465527 1_555
As10 Sr5 3.158820 1_555
As10 Sr7 3.209189 1_565
As10 Sr3 3.235185 1_555
As10 Sr5 3.281179 1_455
As10 Sr0 3.420956 1_565
As11 Nb2 2.465527 1_555
As11 Sr3 3.158820 1_655
As11 Sr6 3.209189 1_565
As11 Sr5 3.235185 1_555
As11 Sr3 3.281179 1_555
As11 Sr11 3.420956 1_564
O0 Sr1 2.508980 1_555
O0 Sr11 2.508980 1_555
O0 Sr6 2.512109 1_556
O1 Sr4 2.508980 1_555
O1 Sr0 2.508980 1_555
O1 Sr7 2.512109 1_555
O2 Sr10 2.508980 1_555
O2 Sr3 2.508980 1_555
O2 Sr8 2.512109 1_554
O3 Sr2 2.508980 1_555
O3 Sr5 2.508980 1_555
O3 Sr9 2.512109 1_555
