# generated using pymatgen
data_Cd3FeP6N13
_symmetry_space_group_name_H-M   'P 1'
_cell_length_a   7.06665056
_cell_length_b   7.16360748
_cell_length_c   7.16360822
_cell_angle_alpha   109.74376643
_cell_angle_beta   109.19728027
_cell_angle_gamma   109.19728518
_symmetry_Int_Tables_number   1
_chemical_formula_structural   Cd3FeP6N13
_chemical_formula_sum   'Cd3 Fe1 P6 N13'
_cell_volume   280.09954896
_cell_formula_units_Z   1
loop_
 _symmetry_equiv_pos_site_id
 _symmetry_equiv_pos_as_xyz
  1  'x, y, z'
loop_
 _atom_site_type_symbol
 _atom_site_label
 _atom_site_symmetry_multiplicity
 _atom_site_fract_x
 _atom_site_fract_y
 _atom_site_fract_z
 _atom_site_occupancy
  Cd  Cd0  1  0.99536510  1.00000000  0.71623635  1
  Cd  Cd1  1  0.99536510  0.71623635  1.00000000  1
  Cd  Cd2  1  0.27912974  0.28376365  0.28376365  1
  Fe  Fe0  1  0.67516728  0.00000000  0.00000000  1
  P  P0  1  0.25658806  0.74975470  0.50165745  1
  P  P1  1  0.75493061  0.24809725  0.49834255  1
  P  P2  1  0.75493061  0.49834255  0.24809725  1
  P  P3  1  0.25658806  0.50165745  0.74975470  1
  P  P4  1  0.50683336  0.75190275  0.25024530  1
  P  P5  1  0.50683336  0.25024530  0.75190275  1
  N  N0  1  0.94293978  0.00000000  0.00000000  1
  N  N1  1  0.71768860  0.26788590  0.26788590  1
  N  N2  1  0.28264772  0.72339043  0.27902848  1
  N  N3  1  0.30005983  0.56659652  0.56659652  1
  N  N4  1  0.55925729  0.55563805  0.27660957  1
  N  N5  1  0.44980270  0.73211410  1.00000000  1
  N  N6  1  0.00361924  0.72097152  0.44436195  1
  N  N7  1  0.55925729  0.27660957  0.55563805  1
  N  N8  1  0.73346431  1.00000000  0.43340348  1
  N  N9  1  0.44980270  1.00000000  0.73211410  1
  N  N10  1  0.73346431  0.43340348  1.00000000  1
  N  N11  1  0.28264772  0.27902848  0.72339043  1
  N  N12  1  0.00361924  0.44436195  0.72097152  1
loop_
_geom_bond_atom_site_label_1
_geom_bond_atom_site_label_2
_geom_bond_distance
_geom_bond_site_symmetry_2
Cd0 N0 2.182812 1_566
Cd0 N8 2.250413 1_555
Cd0 N11 2.305026 1_665
Cd0 N6 2.305026 1_655
Cd1 N0 2.182812 1_566
Cd1 N10 2.250413 1_555
Cd1 N2 2.305026 1_656
Cd1 N12 2.305026 1_655
Cd2 N0 2.182815 1_455
Cd2 N3 2.250421 1_555
Cd2 N4 2.305021 1_555
Cd2 N7 2.305022 1_555
Fe0 N0 1.892255 1_555
Fe0 N5 2.051603 1_544
Fe0 N9 2.051603 1_544
Fe0 N1 2.051603 1_555
N1 P2 1.646739 1_555
N1 P1 1.646740 1_555
N2 P4 1.620040 1_555
N2 P0 1.620362 1_555
N3 P0 1.617342 1_555
N3 P3 1.617342 1_555
N4 P2 1.620040 1_555
N4 P4 1.620361 1_555
N5 P3 1.646739 1_555
N5 P4 1.646740 1_556
N6 P0 1.620040 1_555
N6 P2 1.620361 1_455
N7 P1 1.620040 1_555
N7 P5 1.620362 1_555
N8 P4 1.617345 1_555
N8 P1 1.617345 1_565
N9 P0 1.646739 1_555
N9 P5 1.646739 1_565
N10 P5 1.617345 1_555
N10 P2 1.617345 1_556
N11 P5 1.620040 1_555
N11 P3 1.620361 1_555
N12 P3 1.620040 1_555
N12 P1 1.620361 1_455
