# generated using pymatgen
data_Ba2CdSi3
_symmetry_space_group_name_H-M   'P 1'
_cell_length_a   12.71593886
_cell_length_b   11.15206279
_cell_length_c   8.63934644
_cell_angle_alpha   78.83513173
_cell_angle_beta   59.36334315
_cell_angle_gamma   41.80153131
_symmetry_Int_Tables_number   1
_chemical_formula_structural   Ba2CdSi3
_chemical_formula_sum   'Ba8 Cd4 Si12'
_cell_volume   664.54906447
_cell_formula_units_Z   4
loop_
 _symmetry_equiv_pos_site_id
 _symmetry_equiv_pos_as_xyz
  1  'x, y, z'
loop_
 _atom_site_type_symbol
 _atom_site_label
 _atom_site_symmetry_multiplicity
 _atom_site_fract_x
 _atom_site_fract_y
 _atom_site_fract_z
 _atom_site_occupancy
  Ba  Ba0  1  0.12582638  0.12582638  0.37417362  1
  Ba  Ba1  1  0.87582638  0.87582638  0.12417362  1
  Ba  Ba2  1  0.12417362  0.12417362  0.87582638  1
  Ba  Ba3  1  0.37417362  0.37417362  0.12582638  1
  Ba  Ba4  1  0.62232078  0.62232078  0.37767922  1
  Ba  Ba5  1  0.37767922  0.37767922  0.62232078  1
  Ba  Ba6  1  0.62767922  0.62767922  0.87232078  1
  Ba  Ba7  1  0.87232078  0.87232078  0.62767922  1
  Cd  Cd0  1  0.08259992  0.41740008  0.08259992  1
  Cd  Cd1  1  0.16740008  0.83259992  0.16740008  1
  Cd  Cd2  1  0.41740008  0.08259992  0.41740008  1
  Cd  Cd3  1  0.83259992  0.16740008  0.83259992  1
  Si  Si0  1  0.33703440  0.65546786  0.82219003  1
  Si  Si1  1  0.18530671  0.82219003  0.65546786  1
  Si  Si2  1  0.82219003  0.18530671  0.33703440  1
  Si  Si3  1  0.65546786  0.33703440  0.18530671  1
  Si  Si4  1  0.91296560  0.59453214  0.42780997  1
  Si  Si5  1  0.06469329  0.42780997  0.59453214  1
  Si  Si6  1  0.42780997  0.06469329  0.91296560  1
  Si  Si7  1  0.90934893  0.59065107  0.90934893  1
  Si  Si8  1  0.65934893  0.34065107  0.65934893  1
  Si  Si9  1  0.34065107  0.65934893  0.34065107  1
  Si  Si10  1  0.59065107  0.90934893  0.59065107  1
  Si  Si11  1  0.59453214  0.91296560  0.06469329  1
loop_
_geom_bond_atom_site_label_1
_geom_bond_atom_site_label_2
_geom_bond_distance
_geom_bond_site_symmetry_2
Ba0 Si6 3.555508 1_554
Ba0 Si5 3.555514 1_555
Ba0 Cd2 3.577025 1_555
Ba0 Cd0 3.577025 1_555
Ba0 Si1 3.579408 1_545
Ba0 Si2 3.579414 1_455
Ba0 Cd1 3.589773 1_545
Ba0 Cd3 3.589773 1_455
Ba0 Si8 3.633018 1_455
Ba0 Si9 3.633018 1_545
Ba0 Si11 3.664556 1_545
Ba0 Si4 3.664557 1_455
Ba1 Si3 3.555504 1_565
Ba1 Si0 3.555504 1_654
Ba1 Cd1 3.577025 1_655
Ba1 Cd3 3.577025 1_564
Ba1 Si11 3.579401 1_555
Ba1 Si4 3.579407 1_555
Ba1 Cd2 3.589773 1_565
Ba1 Cd0 3.589773 1_655
Ba1 Si7 3.633018 1_554
Ba1 Si10 3.633018 1_555
Ba1 Si2 3.664546 1_565
Ba1 Si1 3.664551 1_654
Ba2 Si2 3.555508 1_456
Ba2 Si1 3.555514 1_545
Ba2 Cd3 3.577025 1_455
Ba2 Cd1 3.577025 1_546
Ba2 Si5 3.579408 1_555
Ba2 Si6 3.579414 1_555
Ba2 Cd0 3.589773 1_556
Ba2 Cd2 3.589773 1_555
Ba2 Si10 3.633018 1_545
Ba2 Si7 3.633018 1_455
Ba2 Si3 3.664556 1_456
Ba2 Si0 3.664557 1_545
Ba3 Si11 3.555504 1_545
Ba3 Si4 3.555504 1_455
Ba3 Cd0 3.577025 1_555
Ba3 Cd2 3.577025 1_555
Ba3 Si3 3.579401 1_555
Ba3 Si0 3.579407 1_554
Ba3 Cd3 3.589773 1_554
Ba3 Cd1 3.589773 1_555
Ba3 Si9 3.633018 1_555
Ba3 Si8 3.633018 1_554
Ba3 Si6 3.664546 1_554
Ba3 Si5 3.664551 1_555
Ba4 Si1 3.408930 1_555
Ba4 Si2 3.408931 1_555
Ba4 Si9 3.465962 1_555
Ba4 Si8 3.465962 1_555
Ba4 Si0 3.520846 1_555
Ba4 Si3 3.520851 1_555
Ba4 Cd0 3.617331 1_655
Ba4 Cd2 3.617331 1_565
Ba4 Si10 3.660251 1_555
Ba4 Si7 3.660251 1_554
Ba4 Si11 3.716779 1_555
Ba4 Si4 3.716784 1_555
Ba5 Si0 3.408920 1_555
Ba5 Si3 3.408926 1_555
Ba5 Si8 3.465962 1_555
Ba5 Si9 3.465962 1_555
Ba5 Si2 3.520841 1_555
Ba5 Si1 3.520841 1_555
Ba5 Cd2 3.617331 1_555
Ba5 Cd0 3.617331 1_556
Ba5 Si7 3.660251 1_455
Ba5 Si10 3.660251 1_545
Ba5 Si5 3.716772 1_555
Ba5 Si6 3.716777 1_555
Ba6 Si5 3.408930 1_655
Ba6 Si6 3.408931 1_565
Ba6 Si7 3.465962 1_555
Ba6 Si10 3.465962 1_555
Ba6 Si4 3.520846 1_555
Ba6 Si11 3.520851 1_556
Ba6 Cd1 3.617331 1_556
Ba6 Cd3 3.617331 1_555
Ba6 Si8 3.660251 1_555
Ba6 Si9 3.660251 1_556
Ba6 Si3 3.716779 1_556
Ba6 Si0 3.716784 1_555
Ba7 Si4 3.408920 1_555
Ba7 Si11 3.408926 1_556
Ba7 Si10 3.465962 1_555
Ba7 Si7 3.465962 1_555
Ba7 Si6 3.520841 1_565
Ba7 Si5 3.520841 1_655
Ba7 Cd3 3.617331 1_565
Ba7 Cd1 3.617331 1_655
Ba7 Si9 3.660251 1_655
Ba7 Si8 3.660251 1_565
Ba7 Si1 3.716772 1_655
Ba7 Si2 3.716777 1_565
Cd0 Si7 2.592577 1_454
Cd0 Si6 2.611852 1_554
Cd0 Si4 2.611856 1_455
Cd1 Si9 2.592577 1_555
Cd1 Si2 2.611852 1_465
Cd1 Si0 2.611856 1_554
Cd2 Si10 2.592577 1_545
Cd2 Si11 2.611849 1_545
Cd2 Si5 2.611852 1_555
Cd3 Si8 2.592577 1_555
Cd3 Si3 2.611849 1_556
Cd3 Si1 2.611852 1_645
Si0 Si8 2.384563 1_555
Si0 Si1 2.387670 1_555
Si1 Si9 2.384559 1_555
Si2 Si8 2.384566 1_555
Si2 Si3 2.387670 1_555
Si3 Si9 2.384563 1_555
Si4 Si5 2.387670 1_655
Si5 Si7 2.384559 1_455
Si10 Si4 2.384563 1_555
Si10 Si6 2.384566 1_565
Si11 Si7 2.384563 1_554
Si11 Si6 2.387670 1_564
