# generated using pymatgen
data_Y5(TcB3)2
_symmetry_space_group_name_H-M   'P 1'
_cell_length_a   5.53851146
_cell_length_b   5.53851396
_cell_length_c   8.47636326
_cell_angle_alpha   70.93119705
_cell_angle_beta   70.93118710
_cell_angle_gamma   59.99999107
_symmetry_Int_Tables_number   1
_chemical_formula_structural   Y5(TcB3)2
_chemical_formula_sum   'Y5 Tc2 B6'
_cell_volume   208.54066686
_cell_formula_units_Z   1
loop_
 _symmetry_equiv_pos_site_id
 _symmetry_equiv_pos_as_xyz
  1  'x, y, z'
loop_
 _atom_site_type_symbol
 _atom_site_label
 _atom_site_symmetry_multiplicity
 _atom_site_fract_x
 _atom_site_fract_y
 _atom_site_fract_z
 _atom_site_occupancy
  Y  Y0  1  0.00000000  0.00000000  0.00000000  1
  Y  Y1  1  0.24792362  0.24792362  0.25622913  1
  Y  Y2  1  0.75207638  0.75207638  0.74377087  1
  Y  Y3  1  0.41860496  0.41860496  0.74418511  1
  Y  Y4  1  0.58139504  0.58139504  0.25581489  1
  Tc  Tc0  1  0.11114780  0.11114780  0.66655560  1
  Tc  Tc1  1  0.88885220  0.88885220  0.33344440  1
  B  B0  1  0.17014758  0.82985242  0.50000000  1
  B  B1  1  0.82985242  0.50000000  0.50000000  1
  B  B2  1  0.50000000  0.17014758  0.50000000  1
  B  B3  1  0.17014758  0.50000000  0.50000000  1
  B  B4  1  0.50000000  0.82985242  0.50000000  1
  B  B5  1  0.82985242  0.17014758  0.50000000  1
loop_
_geom_bond_atom_site_label_1
_geom_bond_atom_site_label_2
_geom_bond_distance
_geom_bond_site_symmetry_2
Tc0 Y0 2.617564 1_556
Tc1 Y0 2.617564 1_665
B0 B4 1.826891 1_555
B0 B3 1.826892 1_555
B0 B5 1.884729 1_465
B0 Tc1 2.270196 1_455
B0 Tc0 2.270196 1_565
B0 Y4 2.648005 1_555
B0 Y3 2.648005 1_555
B0 Y2 2.665755 1_455
B0 Y1 2.665756 1_565
B1 B4 1.826892 1_555
B1 B5 1.826892 1_555
B1 B3 1.884729 1_655
B1 Tc0 2.270198 1_655
B1 Tc1 2.270201 1_555
B1 Y3 2.648005 1_555
B1 Y4 2.648005 1_555
B1 Y1 2.665755 1_655
B1 Y2 2.665756 1_555
B2 B5 1.826891 1_555
B2 B3 1.826892 1_555
B2 B4 1.884730 1_545
B2 Tc1 2.270198 1_545
B2 Tc0 2.270200 1_555
B2 Y3 2.648005 1_555
B2 Y4 2.648005 1_555
B2 Y1 2.665755 1_555
B2 Y2 2.665756 1_545
B3 Tc1 2.270198 1_455
B3 Tc0 2.270201 1_555
B3 Y4 2.648005 1_555
B3 Y3 2.648005 1_555
B3 Y2 2.665755 1_455
B3 Y1 2.665756 1_555
B4 Tc0 2.270198 1_565
B4 Tc1 2.270200 1_555
B4 Y4 2.648005 1_555
B4 Y3 2.648005 1_555
B4 Y2 2.665755 1_555
B4 Y1 2.665756 1_565
B5 Tc0 2.270196 1_655
B5 Tc1 2.270196 1_545
B5 Y3 2.648005 1_555
B5 Y4 2.648005 1_555
B5 Y1 2.665755 1_655
B5 Y2 2.665756 1_545
