# generated using pymatgen
data_K2LuOsO6
_symmetry_space_group_name_H-M   'P 1'
_cell_length_a   5.74367834
_cell_length_b   5.74367733
_cell_length_c   5.74367731
_cell_angle_alpha   60.00000572
_cell_angle_beta   60.00001151
_cell_angle_gamma   89.99999935
_symmetry_Int_Tables_number   1
_chemical_formula_structural   K2LuOsO6
_chemical_formula_sum   'K2 Lu1 Os1 O6'
_cell_volume   133.98472664
_cell_formula_units_Z   1
loop_
 _symmetry_equiv_pos_site_id
 _symmetry_equiv_pos_as_xyz
  1  'x, y, z'
loop_
 _atom_site_type_symbol
 _atom_site_label
 _atom_site_symmetry_multiplicity
 _atom_site_fract_x
 _atom_site_fract_y
 _atom_site_fract_z
 _atom_site_occupancy
  K  K0  1  0.25000200  0.75000200  0.49999800  1
  K  K1  1  0.75000100  0.24999900  0.50000100  1
  Lu  Lu0  1  0.50000100  0.50000100  0.00000000  1
  Os  Os0  1  0.00000000  0.00000000  0.00000000  1
  O  O0  1  0.76744067  0.23255933  0.00000000  1
  O  O1  1  0.23256033  0.23256033  1.00000000  1
  O  O2  1  0.23256033  0.76744167  1.00000000  1
  O  O3  1  0.76744167  0.76744167  0.00000000  1
  O  O4  1  0.76743967  0.76743967  0.46511865  1
  O  O5  1  0.23256033  0.23256033  0.53487835  1
loop_
_geom_bond_atom_site_label_1
_geom_bond_atom_site_label_2
_geom_bond_distance
_geom_bond_site_symmetry_2
K0 O4 2.875319 1_555
K0 O0 2.875320 1_565
K0 O5 2.875322 1_565
K0 O2 2.875325 1_554
K0 O1 2.875325 1_564
K0 O3 2.875326 1_555
K0 O2 2.875336 1_555
K0 O1 2.875337 1_555
K0 O3 2.875337 1_456
K0 O5 2.875339 1_555
K0 O4 2.875342 1_455
K0 O0 2.875343 1_456
K1 O5 2.875319 1_655
K1 O3 2.875323 1_546
K1 O0 2.875325 1_556
K1 O2 2.875326 1_545
K1 O4 2.875328 1_555
K1 O1 2.875328 1_654
K1 O4 2.875334 1_545
K1 O1 2.875334 1_555
K1 O0 2.875336 1_555
K1 O2 2.875338 1_654
K1 O3 2.875340 1_555
K1 O5 2.875342 1_555
Lu0 O5 2.172352 1_555
Lu0 O2 2.172364 1_554
Lu0 O0 2.172364 1_555
Lu0 O1 2.172364 1_554
Lu0 O3 2.172364 1_555
Lu0 O4 2.172364 1_554
O0 Os0 1.889030 1_655
O1 Os0 1.889038 1_556
O2 Os0 1.889030 1_566
O3 Os0 1.889022 1_665
O4 Os0 1.889030 1_665
O5 Os0 1.889042 1_556
