# generated using pymatgen
data_Ti8Al15Ir5Pt2
_symmetry_space_group_name_H-M   'P 1'
_cell_length_a   8.62202608
_cell_length_b   8.61014661
_cell_length_c   8.62202583
_cell_angle_alpha   119.97820663
_cell_angle_beta   119.92172743
_cell_angle_gamma   90.12630979
_symmetry_Int_Tables_number   1
_chemical_formula_structural   Ti8Al15Ir5Pt2
_chemical_formula_sum   'Ti8 Al15 Ir5 Pt2'
_cell_volume   452.78412487
_cell_formula_units_Z   1
loop_
 _symmetry_equiv_pos_site_id
 _symmetry_equiv_pos_as_xyz
  1  'x, y, z'
loop_
 _atom_site_type_symbol
 _atom_site_label
 _atom_site_symmetry_multiplicity
 _atom_site_fract_x
 _atom_site_fract_y
 _atom_site_fract_z
 _atom_site_occupancy
  Ti  Ti0  1  0.79236760  0.29228685  0.07710953  1
  Ti  Ti1  1  0.21517632  0.29228685  0.49991825  1
  Ti  Ti2  1  0.20800511  0.70651226  0.49850714  1
  Ti  Ti3  1  0.21127614  0.71293082  0.92019266  1
  Ti  Ti4  1  0.79273916  0.71293082  0.50165367  1
  Ti  Ti5  1  0.78536690  0.28700924  0.50164234  1
  Ti  Ti6  1  0.38261431  0.12704568  0.74443137  1
  Ti  Ti7  1  0.37882350  0.63475025  0.25592676  1
  Al  Al0  1  0.99714583  0.49595256  0.49880673  1
  Al  Al1  1  0.15405889  0.34293624  0.18887734  1
  Al  Al2  1  0.15417225  0.96603292  0.81186067  1
  Al  Al3  1  0.15041166  0.34728419  0.80583998  1
  Al  Al4  1  0.54144321  0.34728419  0.19687153  1
  Al  Al5  1  0.84383252  0.65334889  0.80951737  1
  Al  Al6  1  0.84669495  0.03820649  0.19151154  1
  Al  Al7  1  0.84134275  0.65341635  0.18499374  1
  Al  Al8  1  0.46842162  0.65341635  0.81207261  1
  Al  Al9  1  0.37753972  0.12349719  0.26095502  1
  Al  Al10  1  0.86254517  0.12349719  0.74595846  1
  Al  Al11  1  0.61904607  0.87566722  0.25662015  1
  Al  Al12  1  0.62243508  0.36565182  0.74321574  1
  Al  Al13  1  0.62432615  0.87636676  0.74137299  1
  Al  Al14  1  0.13499177  0.87636676  0.25203960  1
  Ir  Ir0  1  0.49693838  0.49717982  0.00024144  1
  Ir  Ir1  1  0.49742960  0.50022146  0.49802766  1
  Ir  Ir2  1  0.00219380  0.50022146  0.00279086  1
  Ir  Ir3  1  0.00001207  0.99975124  0.99973917  1
  Ir  Ir4  1  0.49874723  0.99917232  0.50042510  1
  Pt  Pt0  1  0.00076644  0.99938940  0.50025862  1
  Pt  Pt1  1  0.49912979  0.99938940  0.99862196  1
loop_
_geom_bond_atom_site_label_1
_geom_bond_atom_site_label_2
_geom_bond_distance
_geom_bond_site_symmetry_2
Ti0 Ti6 2.919423 1_554
Ti1 Ti6 2.919430 1_555
Ti2 Ti7 2.951457 1_555
Ti2 Ti6 2.998648 1_565
Ti3 Ti7 2.949423 1_556
Ti4 Ti7 2.949431 1_555
Al0 Ti2 2.566491 1_655
Al0 Ti4 2.570745 1_555
Al0 Ti3 2.570750 1_655
Al0 Ti1 2.573407 1_655
Al0 Ti0 2.573413 1_555
Al0 Ti5 2.577841 1_555
Al1 Ir3 2.482157 1_544
Al1 Ir1 2.491190 1_555
Al1 Ir2 2.491196 1_555
Al1 Ti1 2.723941 1_555
Al1 Ti0 2.723947 1_455
Al1 Ti2 2.747023 1_555
Al2 Ir3 2.480884 1_555
Al2 Pt1 2.505514 1_555
Al2 Pt0 2.505521 1_555
Al2 Ti4 2.728376 1_455
Al2 Ti3 2.728381 1_555
Al2 Ti2 2.780360 1_555
Al3 Ir2 2.487662 1_556
Al3 Ir0 2.495393 1_556
Al3 Pt0 2.506737 1_545
Al3 Ti5 2.729780 1_455
Al3 Ti3 2.744748 1_555
Al3 Ti1 2.777711 1_555
Al4 Ir1 2.487669 1_555
Al4 Ir0 2.495387 1_555
Al4 Pt1 2.506737 1_544
Al4 Ti5 2.729789 1_555
Al4 Ti4 2.744753 1_555
Al4 Ti0 2.777711 1_555
Al5 Ir3 2.507880 1_655
Al5 Ir2 2.512604 1_656
Al5 Ir1 2.512617 1_555
Al5 Ti5 2.745969 1_555
Al5 Ti3 2.774581 1_655
Al5 Ti4 2.774597 1_555
Al6 Ir3 2.495272 1_644
Al6 Pt0 2.515142 1_645
Al6 Pt1 2.515150 1_544
Al6 Ti1 2.770964 1_655
Al6 Ti0 2.770969 1_555
Al6 Ti5 2.776669 1_555
Al7 Ir2 2.498394 1_655
Al7 Ir0 2.507340 1_555
Al7 Pt0 2.512842 1_655
Al7 Ti0 2.724657 1_555
Al7 Ti4 2.763459 1_555
Al7 Ti2 2.782709 1_655
Al8 Ir1 2.498386 1_555
Al8 Ir0 2.507345 1_556
Al8 Pt1 2.512843 1_555
Al8 Ti1 2.724657 1_555
Al8 Ti3 2.763470 1_555
Al8 Ti2 2.782700 1_555
Al9 Ir4 2.561660 1_545
Al9 Ir1 2.649418 1_555
Al9 Ir3 2.660069 1_544
Al9 Pt1 2.704072 1_544
Al9 Ti1 2.865473 1_555
Al9 Ti5 2.903725 1_555
Al9 Ti3 2.929200 1_544
Al10 Ir4 2.561681 1_545
Al10 Ir2 2.649417 1_656
Al10 Ir3 2.660061 1_645
Al10 Pt0 2.704057 1_645
Al10 Ti0 2.865483 1_556
Al10 Ti5 2.903729 1_555
Al10 Ti4 2.929198 1_545
Al11 Ir4 2.563509 1_555
Al11 Ir0 2.660629 1_555
Al11 Pt0 2.688960 1_655
Al11 Pt1 2.688960 1_554
Al11 Ti3 2.912152 1_554
Al11 Ti4 2.912155 1_555
Al11 Ti5 2.922536 1_565
Al12 Ir4 2.575490 1_545
Al12 Ir1 2.674596 1_555
Al12 Ir2 2.674603 1_656
Al12 Ir0 2.693311 1_556
Al12 Ti5 2.878208 1_555
Al12 Ti0 2.906349 1_556
Al12 Ti1 2.906349 1_555
Al13 Ir4 2.561724 1_555
Al13 Ir1 2.644191 1_555
Al13 Ir3 2.646589 1_655
Al13 Pt1 2.693045 1_555
Al13 Ti4 2.908123 1_555
Al13 Ti0 2.955771 1_566
Al13 Ti2 2.970886 1_555
Al14 Ir4 2.561738 1_555
Al14 Ir2 2.644190 1_555
Al14 Ir3 2.646582 1_554
Al14 Pt0 2.693038 1_555
Al14 Ti3 2.908114 1_554
Al14 Ti1 2.955770 1_565
Al14 Ti2 2.970891 1_555
Ir0 Ti6 2.604896 1_554
Ir0 Ti7 2.633557 1_555
Ir0 Ti0 3.089303 1_555
Ir0 Ti1 3.089310 1_554
Ir0 Ti4 3.098232 1_555
Ir0 Ti3 3.098237 1_554
Ir1 Ti7 2.652660 1_555
Ir1 Ti1 3.029443 1_555
Ir1 Ti2 3.066680 1_555
Ir1 Ti5 3.087797 1_555
Ir1 Ti4 3.111429 1_555
Ir2 Ti7 2.652660 1_555
Ir2 Ti0 3.029449 1_455
Ir2 Ti2 3.066687 1_555
Ir2 Ti5 3.087790 1_454
Ir2 Ti3 3.111409 1_554
Ir3 Ti3 3.075814 1_555
Ir3 Ti4 3.075821 1_455
Ir3 Ti1 3.086527 1_566
Ir3 Ti0 3.086532 1_466
Ir4 Ti6 2.536247 1_565
Ir4 Ti7 2.561127 1_555
Pt0 Ti6 2.690043 1_565
Pt0 Ti4 3.054873 1_455
Pt0 Ti2 3.092042 1_555
Pt0 Ti5 3.097566 1_465
Pt0 Ti1 3.125650 1_565
Pt1 Ti6 2.690036 1_565
Pt1 Ti3 3.054883 1_555
Pt1 Ti2 3.092035 1_555
Pt1 Ti5 3.097572 1_566
Pt1 Ti0 3.125650 1_566
