# generated using pymatgen
data_Ca3Ga3Ir2
_symmetry_space_group_name_H-M   'P 1'
_cell_length_a   5.81735217
_cell_length_b   8.10066583
_cell_length_c   14.78175002
_cell_angle_alpha   90.00000000
_cell_angle_beta   90.00000000
_cell_angle_gamma   90.00000000
_symmetry_Int_Tables_number   1
_chemical_formula_structural   Ca3Ga3Ir2
_chemical_formula_sum   'Ca12 Ga12 Ir8'
_cell_volume   696.58148415
_cell_formula_units_Z   4
loop_
 _symmetry_equiv_pos_site_id
 _symmetry_equiv_pos_as_xyz
  1  'x, y, z'
loop_
 _atom_site_type_symbol
 _atom_site_label
 _atom_site_symmetry_multiplicity
 _atom_site_fract_x
 _atom_site_fract_y
 _atom_site_fract_z
 _atom_site_occupancy
  Ca  Ca0  1  0.88714812  0.45270346  0.10771338  1
  Ca  Ca1  1  0.38714812  0.04729654  0.89228662  1
  Ca  Ca2  1  0.61285188  0.95270346  0.39228662  1
  Ca  Ca3  1  0.11285188  0.54729654  0.60771338  1
  Ca  Ca4  1  0.11285188  0.54729654  0.89228662  1
  Ca  Ca5  1  0.61285188  0.95270346  0.10771338  1
  Ca  Ca6  1  0.38714812  0.04729654  0.60771338  1
  Ca  Ca7  1  0.88714812  0.45270346  0.39228662  1
  Ca  Ca8  1  0.38045270  0.30130006  0.25000000  1
  Ca  Ca9  1  0.88045270  0.19869994  0.75000000  1
  Ca  Ca10  1  0.11954730  0.80130006  0.25000000  1
  Ca  Ca11  1  0.61954730  0.69869994  0.75000000  1
  Ga  Ga0  1  0.92718952  0.14399786  0.25000000  1
  Ga  Ga1  1  0.42718952  0.35600214  0.75000000  1
  Ga  Ga2  1  0.57281048  0.64399786  0.25000000  1
  Ga  Ga3  1  0.07281048  0.85600214  0.75000000  1
  Ga  Ga4  1  0.37177609  0.32241654  0.03993845  1
  Ga  Ga5  1  0.87177609  0.17758346  0.96006155  1
  Ga  Ga6  1  0.12822391  0.82241654  0.46006155  1
  Ga  Ga7  1  0.62822391  0.67758346  0.53993845  1
  Ga  Ga8  1  0.62822391  0.67758346  0.96006155  1
  Ga  Ga9  1  0.12822391  0.82241654  0.03993845  1
  Ga  Ga10  1  0.87177609  0.17758346  0.53993845  1
  Ga  Ga11  1  0.37177609  0.32241654  0.46006155  1
  Ir  Ir0  1  0.10524534  0.10958298  0.09777203  1
  Ir  Ir1  1  0.60524534  0.39041702  0.90222797  1
  Ir  Ir2  1  0.39475466  0.60958298  0.40222797  1
  Ir  Ir3  1  0.89475466  0.89041702  0.59777203  1
  Ir  Ir4  1  0.89475466  0.89041702  0.90222797  1
  Ir  Ir5  1  0.39475466  0.60958298  0.09777203  1
  Ir  Ir6  1  0.60524534  0.39041702  0.59777203  1
  Ir  Ir7  1  0.10524534  0.10958298  0.40222797  1
loop_
_geom_bond_atom_site_label_1
_geom_bond_atom_site_label_2
_geom_bond_distance
_geom_bond_site_symmetry_2
Ca0 Ir0 3.058915 1_655
Ca0 Ga5 3.120647 1_554
Ca0 Ir5 3.137122 1_555
Ca0 Ga4 3.172655 1_655
Ca0 Ga2 3.188850 1_555
Ca0 Ga8 3.217273 1_554
Ca0 Ir5 3.218132 1_655
Ca0 Ga0 3.275897 1_555
Ca0 Ga4 3.332592 1_555
Ca0 Ga9 3.455433 1_655
Ca0 Ir1 3.488546 1_554
Ca0 Ca4 3.528659 1_654
Ca0 Ca8 3.763402 1_655
Ca0 Ca10 3.771686 1_655
Ca0 Ca8 3.823135 1_555
Ca1 Ir1 3.058915 1_555
Ca1 Ga4 3.120647 1_556
Ca1 Ir4 3.137122 1_445
Ca1 Ga5 3.172655 1_555
Ca1 Ga3 3.188850 1_545
Ca1 Ga9 3.217273 1_546
Ca1 Ir4 3.218132 1_545
Ca1 Ga1 3.275897 1_555
Ca1 Ga5 3.332592 1_455
Ca1 Ga8 3.455433 1_545
Ca1 Ir0 3.488546 1_556
Ca1 Ca5 3.528659 1_546
Ca1 Ca9 3.763402 1_555
Ca1 Ca11 3.771686 1_545
Ca1 Ca9 3.823135 1_455
Ca2 Ir2 3.058915 1_555
Ca2 Ga7 3.120647 1_555
Ca2 Ir7 3.137122 1_665
Ca2 Ga6 3.172655 1_555
Ca2 Ga0 3.188850 1_565
Ca2 Ga10 3.217273 1_565
Ca2 Ir7 3.218132 1_565
Ca2 Ga2 3.275897 1_555
Ca2 Ga6 3.332592 1_655
Ca2 Ga11 3.455433 1_565
Ca2 Ir3 3.488546 1_555
Ca2 Ca6 3.528659 1_565
Ca2 Ca8 3.771686 1_565
Ca3 Ir3 3.058915 1_455
Ca3 Ga6 3.120647 1_555
Ca3 Ir6 3.137122 1_555
Ca3 Ga7 3.172655 1_455
Ca3 Ga1 3.188850 1_555
Ca3 Ga11 3.217273 1_555
Ca3 Ir6 3.218132 1_455
Ca3 Ga3 3.275897 1_555
Ca3 Ga7 3.332592 1_555
Ca3 Ga10 3.455433 1_455
Ca3 Ir2 3.488546 1_555
Ca3 Ca7 3.528659 1_455
Ca3 Ca9 3.771686 1_455
Ca4 Ir4 3.058915 1_455
Ca4 Ga9 3.120647 1_556
Ca4 Ir1 3.137122 1_555
Ca4 Ga8 3.172655 1_455
Ca4 Ga1 3.188850 1_555
Ca4 Ga4 3.217273 1_556
Ca4 Ir1 3.218132 1_455
Ca4 Ga3 3.275897 1_555
Ca4 Ga8 3.332592 1_555
Ca4 Ga5 3.455433 1_455
Ca4 Ir5 3.488546 1_556
Ca4 Ca9 3.771686 1_455
Ca5 Ir5 3.058915 1_555
Ca5 Ga8 3.120647 1_554
Ca5 Ir0 3.137122 1_665
Ca5 Ga9 3.172655 1_555
Ca5 Ga0 3.188850 1_565
Ca5 Ga5 3.217273 1_564
Ca5 Ir0 3.218132 1_565
Ca5 Ga2 3.275897 1_555
Ca5 Ga9 3.332592 1_655
Ca5 Ga4 3.455433 1_565
Ca5 Ir4 3.488546 1_554
Ca5 Ca8 3.771686 1_565
Ca6 Ir6 3.058915 1_555
Ca6 Ga11 3.120647 1_555
Ca6 Ir3 3.137122 1_445
Ca6 Ga10 3.172655 1_555
Ca6 Ga3 3.188850 1_545
Ca6 Ga6 3.217273 1_545
Ca6 Ir3 3.218132 1_545
Ca6 Ga1 3.275897 1_555
Ca6 Ga10 3.332592 1_455
Ca6 Ga7 3.455433 1_545
Ca6 Ir7 3.488546 1_555
Ca6 Ca9 3.763402 1_555
Ca6 Ca9 3.823135 1_455
Ca7 Ir7 3.058915 1_655
Ca7 Ga10 3.120647 1_555
Ca7 Ir2 3.137122 1_555
Ca7 Ga11 3.172655 1_655
Ca7 Ga2 3.188850 1_555
Ca7 Ga7 3.217273 1_555
Ca7 Ir2 3.218132 1_655
Ca7 Ga0 3.275897 1_555
Ca7 Ga11 3.332592 1_555
Ca7 Ga6 3.455433 1_655
Ca7 Ir6 3.488546 1_555
Ca7 Ca8 3.763402 1_655
Ca7 Ca8 3.823135 1_555
Ca8 Ga0 2.928547 1_455
Ca8 Ga2 2.993127 1_555
Ca8 Ga11 3.110195 1_555
Ca8 Ga4 3.110195 1_555
Ca8 Ir0 3.168349 1_555
Ca8 Ir7 3.168349 1_555
Ca8 Ir5 3.362558 1_555
Ca8 Ir2 3.362558 1_555
Ca8 Ga0 3.426322 1_555
Ca9 Ga1 2.928547 1_555
Ca9 Ga3 2.993127 1_645
Ca9 Ga10 3.110195 1_555
Ca9 Ga5 3.110195 1_555
Ca9 Ir1 3.168349 1_555
Ca9 Ir6 3.168349 1_555
Ca9 Ir4 3.362558 1_545
Ca9 Ir3 3.362558 1_545
Ca9 Ga1 3.426322 1_655
Ca10 Ga2 2.928547 1_555
Ca10 Ga0 2.993127 1_465
Ca10 Ga9 3.110195 1_555
Ca10 Ga6 3.110195 1_555
Ca10 Ir5 3.168349 1_555
Ca10 Ir2 3.168349 1_555
Ca10 Ir0 3.362558 1_565
Ca10 Ir7 3.362558 1_565
Ca10 Ga2 3.426322 1_455
Ca10 Ca5 3.763402 1_555
Ca10 Ca2 3.763402 1_555
Ca10 Ca7 3.771686 1_455
Ca10 Ca5 3.823135 1_455
Ca10 Ca2 3.823135 1_455
Ca11 Ga3 2.928547 1_655
Ca11 Ga1 2.993127 1_555
Ca11 Ga7 3.110195 1_555
Ca11 Ga8 3.110195 1_555
Ca11 Ir3 3.168349 1_555
Ca11 Ir4 3.168349 1_555
Ca11 Ir1 3.362558 1_555
Ca11 Ir6 3.362558 1_555
Ca11 Ga3 3.426322 1_555
Ca11 Ca4 3.763402 1_655
Ca11 Ca3 3.763402 1_655
Ca11 Ca6 3.771686 1_565
Ca11 Ca3 3.823135 1_555
Ca11 Ca4 3.823135 1_555
Ga0 Ir7 2.492792 1_655
Ga0 Ir0 2.492792 1_655
Ga1 Ir1 2.492792 1_555
Ga1 Ir6 2.492792 1_555
Ga2 Ir5 2.492792 1_555
Ga2 Ir2 2.492792 1_555
Ga3 Ir3 2.492792 1_455
Ga3 Ir4 2.492792 1_455
Ga4 Ir0 2.471312 1_555
Ga4 Ir5 2.481951 1_555
Ga4 Ir1 2.508335 1_554
Ga5 Ir1 2.471312 1_555
Ga5 Ir4 2.481951 1_545
Ga5 Ir0 2.508335 1_656
Ga6 Ir2 2.471312 1_555
Ga6 Ir7 2.481951 1_565
Ga6 Ir3 2.508335 1_455
Ga7 Ir3 2.471312 1_555
Ga7 Ir6 2.481951 1_555
Ga7 Ir2 2.508335 1_555
Ga8 Ir4 2.471312 1_555
Ga8 Ir1 2.481951 1_555
Ga8 Ir5 2.508335 1_556
Ga9 Ir5 2.471312 1_555
Ga9 Ir0 2.481951 1_565
Ga9 Ir4 2.508335 1_454
Ga10 Ir6 2.471312 1_555
Ga10 Ir3 2.481951 1_545
Ga10 Ir7 2.508335 1_655
Ga11 Ir7 2.471312 1_555
Ga11 Ir2 2.481951 1_555
Ga11 Ir6 2.508335 1_555
