# generated using pymatgen
data_Nb2Tl2O7
_symmetry_space_group_name_H-M   'P 1'
_cell_length_a   7.61835432
_cell_length_b   7.61835432
_cell_length_c   7.61835432
_cell_angle_alpha   60.00000000
_cell_angle_beta   60.00000000
_cell_angle_gamma   60.00000000
_symmetry_Int_Tables_number   1
_chemical_formula_structural   Nb2Tl2O7
_chemical_formula_sum   'Nb4 Tl4 O14'
_cell_volume   312.65725002
_cell_formula_units_Z   2
loop_
 _symmetry_equiv_pos_site_id
 _symmetry_equiv_pos_as_xyz
  1  'x, y, z'
loop_
 _atom_site_type_symbol
 _atom_site_label
 _atom_site_symmetry_multiplicity
 _atom_site_fract_x
 _atom_site_fract_y
 _atom_site_fract_z
 _atom_site_occupancy
  Nb  Nb0  1  0.62500000  0.12500000  0.62500000  1
  Nb  Nb1  1  0.62500000  0.62500000  0.62500000  1
  Nb  Nb2  1  0.62500000  0.62500000  0.12500000  1
  Nb  Nb3  1  0.12500000  0.62500000  0.62500000  1
  Tl  Tl0  1  0.62500000  0.12500000  0.12500000  1
  Tl  Tl1  1  0.12500000  0.12500000  0.12500000  1
  Tl  Tl2  1  0.12500000  0.12500000  0.62500000  1
  Tl  Tl3  1  0.12500000  0.62500000  0.12500000  1
  O  O0  1  0.93719800  0.56280200  0.93719800  1
  O  O1  1  0.68719800  0.31280200  0.68719800  1
  O  O2  1  0.68719800  0.31280200  0.31280200  1
  O  O3  1  0.93719800  0.56280200  0.56280200  1
  O  O4  1  0.31280200  0.31280200  0.68719800  1
  O  O5  1  0.68719800  0.68719800  0.31280200  1
  O  O6  1  0.93719800  0.93719800  0.56280200  1
  O  O7  1  0.00000000  0.00000000  0.00000000  1
  O  O8  1  0.31280200  0.68719800  0.31280200  1
  O  O9  1  0.31280200  0.68719800  0.68719800  1
  O  O10  1  0.56280200  0.56280200  0.93719800  1
  O  O11  1  0.25000000  0.25000000  0.25000000  1
  O  O12  1  0.56280200  0.93719800  0.93719800  1
  O  O13  1  0.56280200  0.93719800  0.56280200  1
loop_
_geom_bond_atom_site_label_1
_geom_bond_atom_site_label_2
_geom_bond_distance
_geom_bond_site_symmetry_2
Nb0 O1 2.019039 1_555
Nb0 O12 2.019039 1_545
Nb0 O6 2.019039 1_545
Nb0 O13 2.019039 1_545
Nb0 O4 2.019039 1_555
Nb0 O2 2.019039 1_555
Nb1 O10 2.019039 1_555
Nb1 O3 2.019039 1_555
Nb1 O13 2.019039 1_555
Nb1 O5 2.019039 1_555
Nb1 O1 2.019039 1_555
Nb1 O9 2.019039 1_555
Nb2 O5 2.019039 1_555
Nb2 O10 2.019039 1_554
Nb2 O12 2.019039 1_554
Nb2 O0 2.019039 1_554
Nb2 O8 2.019039 1_555
Nb2 O2 2.019039 1_555
Nb3 O9 2.019039 1_555
Nb3 O6 2.019039 1_455
Nb3 O0 2.019039 1_455
Nb3 O3 2.019039 1_455
Nb3 O8 2.019039 1_555
Nb3 O4 2.019039 1_555
O0 Tl3 2.778759 1_656
O0 Tl1 2.778759 1_656
O1 Tl2 2.778759 1_655
O1 Tl0 2.778759 1_556
O2 Tl0 2.778759 1_555
O2 Tl1 2.778759 1_655
O3 Tl3 2.778759 1_655
O3 Tl2 2.778759 1_655
O4 Tl2 2.778759 1_555
O4 Tl1 2.778759 1_556
O5 Tl3 2.778759 1_655
O5 Tl0 2.778759 1_565
O6 Tl2 2.778759 1_665
O6 Tl1 2.778759 1_665
O7 Tl3 2.332635 1_545
O7 Tl0 2.332635 1_455
O7 Tl1 2.332635 1_555
O7 Tl2 2.332635 1_554
O8 Tl3 2.778759 1_555
O8 Tl1 2.778759 1_565
O9 Tl3 2.778759 1_556
O9 Tl2 2.778759 1_565
O10 Tl3 2.778759 1_556
O10 Tl0 2.778759 1_556
O11 Tl0 2.332635 1_555
O11 Tl3 2.332635 1_555
O11 Tl1 2.332635 1_555
O11 Tl2 2.332635 1_555
O12 Tl1 2.778759 1_566
O12 Tl0 2.778759 1_566
O13 Tl2 2.778759 1_565
O13 Tl0 2.778759 1_565
