# generated using pymatgen
data_HoCu5
_symmetry_space_group_name_H-M   'P 1'
_cell_length_a   4.96516736
_cell_length_b   4.96517435
_cell_length_c   4.03897452
_cell_angle_alpha   90.00000000
_cell_angle_beta   90.00000000
_cell_angle_gamma   120.00004975
_symmetry_Int_Tables_number   1
_chemical_formula_structural   HoCu5
_chemical_formula_sum   'Ho1 Cu5'
_cell_volume   86.23229056
_cell_formula_units_Z   1
loop_
 _symmetry_equiv_pos_site_id
 _symmetry_equiv_pos_as_xyz
  1  'x, y, z'
loop_
 _atom_site_type_symbol
 _atom_site_label
 _atom_site_symmetry_multiplicity
 _atom_site_fract_x
 _atom_site_fract_y
 _atom_site_fract_z
 _atom_site_occupancy
  Ho  Ho0  1  0.00000000  -0.00000000  -0.00000000  1
  Cu  Cu0  1  0.33333400  0.66666700  -0.00000000  1
  Cu  Cu1  1  0.66666600  0.33333300  0.00000000  1
  Cu  Cu2  1  0.50000000  -0.00000000  0.50000000  1
  Cu  Cu3  1  0.50000000  0.50000000  0.50000000  1
  Cu  Cu4  1  0.00000000  0.50000000  0.50000000  1
loop_
_geom_bond_atom_site_label_1
_geom_bond_atom_site_label_2
_geom_bond_distance
_geom_bond_site_symmetry_2
Cu0 Cu2 2.476436 1_565
Cu0 Cu2 2.476436 1_564
Cu0 Cu3 2.476436 1_555
Cu0 Cu3 2.476436 1_554
Cu0 Cu4 2.476437 1_554
Cu0 Cu4 2.476437 1_555
Cu0 Ho0 2.866636 1_665
Cu0 Cu1 2.866640 1_565
Cu0 Cu1 2.866641 1_555
Cu0 Ho0 2.866645 1_555
Cu0 Ho0 2.866645 1_565
Cu0 Cu1 2.866645 1_455
Cu1 Cu2 2.476436 1_555
Cu1 Cu2 2.476436 1_554
Cu1 Cu3 2.476436 1_554
Cu1 Cu3 2.476436 1_555
Cu1 Cu4 2.476437 1_654
Cu1 Cu4 2.476437 1_655
Cu1 Ho0 2.866636 1_555
Cu1 Ho0 2.866645 1_665
Cu1 Ho0 2.866645 1_655
Cu2 Cu4 2.482584 1_545
Cu2 Cu4 2.482584 1_655
Cu2 Cu3 2.482587 1_555
Cu2 Cu3 2.482587 1_545
Cu2 Ho0 3.200242 1_655
Cu2 Ho0 3.200242 1_556
Cu2 Ho0 3.200242 1_656
Cu2 Ho0 3.200242 1_555
Cu3 Cu4 2.482584 1_555
Cu3 Cu4 2.482584 1_655
Cu3 Ho0 3.200242 1_665
Cu3 Ho0 3.200242 1_555
Cu3 Ho0 3.200242 1_666
Cu3 Ho0 3.200242 1_556
Cu4 Ho0 3.200245 1_565
Cu4 Ho0 3.200245 1_566
Cu4 Ho0 3.200245 1_555
Cu4 Ho0 3.200245 1_556
