# generated using pymatgen
data_Nb4Ni4MoP4
_symmetry_space_group_name_H-M   'P 1'
_cell_length_a   7.20025765
_cell_length_b   7.20025759
_cell_length_c   7.20025804
_cell_angle_alpha   93.43437639
_cell_angle_beta   93.43438227
_cell_angle_gamma   151.66522867
_symmetry_Int_Tables_number   1
_chemical_formula_structural   Nb4Ni4MoP4
_chemical_formula_sum   'Nb4 Ni4 Mo1 P4'
_cell_volume   171.78221287
_cell_formula_units_Z   1
loop_
 _symmetry_equiv_pos_site_id
 _symmetry_equiv_pos_as_xyz
  1  'x, y, z'
loop_
 _atom_site_type_symbol
 _atom_site_label
 _atom_site_symmetry_multiplicity
 _atom_site_fract_x
 _atom_site_fract_y
 _atom_site_fract_z
 _atom_site_occupancy
  Nb  Nb0  1  0.80622059  0.12913605  0.93535564  1
  Nb  Nb1  1  0.12913605  0.19377941  0.32291546  1
  Nb  Nb2  1  0.87086395  0.80622059  0.67708454  1
  Nb  Nb3  1  0.19377941  0.87086395  0.06464436  1
  Ni  Ni0  1  0.91467405  0.39077228  0.30544533  1
  Ni  Ni1  1  0.08532595  0.60922772  0.69455467  1
  Ni  Ni2  1  0.60922772  0.91467405  0.52390077  1
  Ni  Ni3  1  0.39077228  0.08532595  0.47609923  1
  Mo  Mo0  1  0.50000000  0.50000000  0.00000000  1
  P  P0  1  0.55575948  0.24044034  0.79620082  1
  P  P1  1  0.24044034  0.44424052  0.68467985  1
  P  P2  1  0.75955966  0.55575948  0.31532015  1
  P  P3  1  0.44424052  0.75955966  0.20379918  1
loop_
_geom_bond_atom_site_label_1
_geom_bond_atom_site_label_2
_geom_bond_distance
_geom_bond_site_symmetry_2
Nb0 P3 2.573067 1_656
Nb0 P3 2.573068 1_546
Nb0 P1 2.619130 1_545
Nb0 P1 2.619131 1_655
Nb0 P0 2.705977 1_555
Nb0 Ni0 2.796266 1_556
Nb0 Ni1 2.810796 1_655
Nb0 Ni1 2.810800 1_545
Nb0 Ni2 2.875061 1_545
Nb1 P2 2.573066 1_555
Nb1 P2 2.573069 1_445
Nb1 P3 2.619131 1_445
Nb1 P3 2.619134 1_555
Nb1 P1 2.705976 1_555
Nb1 Ni3 2.796268 1_555
Nb1 Ni2 2.810802 1_445
Nb1 Ni2 2.810804 1_555
Nb1 Ni0 2.875062 1_455
Nb2 P1 2.573066 1_555
Nb2 P1 2.573069 1_665
Nb2 P0 2.619131 1_665
Nb2 P0 2.619134 1_555
Nb2 P2 2.705976 1_555
Nb2 Ni2 2.796268 1_555
Nb2 Ni3 2.810802 1_665
Nb2 Ni3 2.810804 1_555
Nb2 Ni1 2.875062 1_655
Nb3 P0 2.573067 1_454
Nb3 P0 2.573068 1_564
Nb3 P2 2.619130 1_565
Nb3 P2 2.619131 1_455
Nb3 P3 2.705977 1_555
Nb3 Ni1 2.796266 1_554
Nb3 Ni0 2.810796 1_455
Nb3 Ni0 2.810800 1_565
Nb3 Ni3 2.875061 1_565
Ni0 P3 2.206613 1_545
Ni0 P3 2.206613 1_655
Ni0 P2 2.235776 1_555
Ni1 P0 2.206613 1_565
Ni1 P0 2.206613 1_455
Ni1 P1 2.235776 1_555
Ni2 P1 2.206613 1_665
Ni2 P1 2.206614 1_555
Ni2 P3 2.235775 1_555
Ni3 P2 2.206613 1_445
Ni3 P2 2.206614 1_555
Ni3 P0 2.235775 1_555
Mo0 P0 2.621092 1_554
Mo0 P3 2.621092 1_555
Mo0 P2 2.621101 1_555
Mo0 P1 2.621101 1_554
Mo0 Nb1 2.896808 1_665
Mo0 Nb2 2.896808 1_444
Mo0 Nb3 2.896809 1_655
Mo0 Nb0 2.896809 1_454
Mo0 Nb1 2.896809 1_555
Mo0 Nb2 2.896809 1_554
Mo0 Nb3 2.896811 1_545
Mo0 Nb0 2.896811 1_564
