# generated using pymatgen
data_Sc2CuBRh5
_symmetry_space_group_name_H-M   'P 1'
_cell_length_a   5.66374093
_cell_length_b   5.59253893
_cell_length_c   5.59253954
_cell_angle_alpha   60.84411648
_cell_angle_beta   59.57794823
_cell_angle_gamma   59.57795308
_symmetry_Int_Tables_number   1
_chemical_formula_structural   Sc2CuBRh5
_chemical_formula_sum   'Sc2 Cu1 B1 Rh5'
_cell_volume   125.21717004
_cell_formula_units_Z   1
loop_
 _symmetry_equiv_pos_site_id
 _symmetry_equiv_pos_as_xyz
  1  'x, y, z'
loop_
 _atom_site_type_symbol
 _atom_site_label
 _atom_site_symmetry_multiplicity
 _atom_site_fract_x
 _atom_site_fract_y
 _atom_site_fract_z
 _atom_site_occupancy
  Sc  Sc0  1  0.25036006  0.24963994  0.24963994  1
  Sc  Sc1  1  0.75036006  0.74963994  0.74963994  1
  Cu  Cu0  1  0.73560710  0.26439390  0.26439390  1
  B  B0  1  0.99754803  0.00245197  0.00245197  1
  Rh  Rh0  1  0.25847906  0.74152194  0.25569326  1
  Rh  Rh1  1  0.74430574  0.74151994  0.25569526  1
  Rh  Rh2  1  0.25847906  0.25569326  0.74152194  1
  Rh  Rh3  1  0.74430574  0.25569526  0.74151994  1
  Rh  Rh4  1  0.26055413  0.73944687  0.73944687  1
loop_
_geom_bond_atom_site_label_1
_geom_bond_atom_site_label_2
_geom_bond_distance
_geom_bond_site_symmetry_2
Cu0 Rh1 2.670035 1_555
Cu0 Rh3 2.670036 1_555
Cu0 Rh2 2.670048 1_555
Cu0 Rh0 2.670048 1_555
Cu0 Sc0 2.834206 1_655
Cu0 Sc1 2.834212 1_545
Cu0 Sc1 2.834212 1_554
Cu0 Sc0 2.834218 1_555
B0 Cu0 2.044994 1_555
B0 Rh4 2.053295 1_644
B0 Rh2 2.059412 1_654
B0 Rh0 2.059412 1_645
B0 Rh1 2.059420 1_545
B0 Rh3 2.059420 1_554
Rh0 Sc1 2.791225 1_554
Rh0 Sc0 2.791230 1_555
Rh0 Sc0 2.802473 1_565
Rh0 Sc1 2.802479 1_455
Rh1 Sc0 2.791225 1_655
Rh1 Sc1 2.791230 1_554
Rh1 Sc1 2.802473 1_555
Rh1 Sc0 2.802479 1_565
Rh2 Sc1 2.791225 1_545
Rh2 Sc0 2.791230 1_555
Rh2 Sc0 2.802473 1_556
Rh2 Sc1 2.802479 1_455
Rh3 Sc0 2.791225 1_655
Rh3 Sc1 2.791230 1_545
Rh3 Sc1 2.802473 1_555
Rh3 Sc0 2.802479 1_556
Rh4 Sc1 2.832983 1_555
Rh4 Sc0 2.832988 1_565
Rh4 Sc0 2.832988 1_556
Rh4 Sc1 2.832994 1_455
