# generated using pymatgen
data_Nb3CrSi2C
_symmetry_space_group_name_H-M   'P 1'
_cell_length_a   8.12006322
_cell_length_b   8.12006241
_cell_length_c   8.12006322
_cell_angle_alpha   119.99999524
_cell_angle_beta   90.00000000
_cell_angle_gamma   119.99999524
_symmetry_Int_Tables_number   1
_chemical_formula_structural   Nb3CrSi2C
_chemical_formula_sum   'Nb12 Cr4 Si8 C4'
_cell_volume   378.58486990
_cell_formula_units_Z   4
loop_
 _symmetry_equiv_pos_site_id
 _symmetry_equiv_pos_as_xyz
  1  'x, y, z'
loop_
 _atom_site_type_symbol
 _atom_site_label
 _atom_site_symmetry_multiplicity
 _atom_site_fract_x
 _atom_site_fract_y
 _atom_site_fract_z
 _atom_site_occupancy
  Nb  Nb0  1  0.55096571  0.50000100  0.05096471  1
  Nb  Nb1  1  0.55096571  0.10193042  0.05096471  1
  Nb  Nb2  1  0.94903529  0.50000100  0.05096571  1
  Nb  Nb3  1  0.19903429  1.00000000  0.19903429  1
  Nb  Nb4  1  0.19903429  0.39806858  0.19903429  1
  Nb  Nb5  1  0.80096471  0.00000000  0.19903429  1
  Nb  Nb6  1  0.94903529  0.50000100  0.44903529  1
  Nb  Nb7  1  0.94903529  0.89806858  0.44903529  1
  Nb  Nb8  1  0.55096571  0.50000100  0.44903529  1
  Nb  Nb9  1  0.19903429  0.00000000  0.80096471  1
  Nb  Nb10  1  0.80096471  0.00000000  0.80096471  1
  Nb  Nb11  1  0.80096471  0.60193142  0.80096471  1
  Cr  Cr0  1  0.37500000  0.75000000  0.12500100  1
  Cr  Cr1  1  0.37500000  0.24999900  0.62499900  1
  Cr  Cr2  1  0.37500000  0.75000000  0.62499900  1
  Cr  Cr3  1  0.87500000  0.24999900  0.62500000  1
  Si  Si0  1  0.58348508  0.16696717  0.41651692  1
  Si  Si1  1  0.24954975  0.83303383  0.41651692  1
  Si  Si2  1  0.58348508  0.83303383  0.41651692  1
  Si  Si3  1  0.16651592  0.33303383  0.49954975  1
  Si  Si4  1  0.58348408  0.16696717  0.75045125  1
  Si  Si5  1  0.16651592  0.33303383  0.83348308  1
  Si  Si6  1  0.16651592  0.66696617  0.83348308  1
  Si  Si7  1  0.50045025  0.66696617  0.83348308  1
  C  C0  1  0.37499900  0.24999900  0.12500000  1
  C  C1  1  0.87500000  0.24999900  0.12500000  1
  C  C2  1  0.87500000  0.75000000  0.12500000  1
  C  C3  1  0.87500000  0.75000000  0.62500000  1
loop_
_geom_bond_atom_site_label_1
_geom_bond_atom_site_label_2
_geom_bond_distance
_geom_bond_site_symmetry_2
Nb0 Si4 2.729910 1_554
Nb0 Si2 2.729910 1_555
Nb0 Si7 2.841716 1_554
Nb0 Si5 2.841734 1_554
Nb1 Si4 2.729901 1_554
Nb1 Si0 2.729917 1_555
Nb1 Si7 2.841730 1_544
Nb1 Si6 2.841734 1_544
Nb2 Si1 2.729909 1_655
Nb2 Si4 2.729909 1_554
Nb2 Si6 2.841723 1_654
Nb2 Si5 2.841723 1_654
Nb3 Si6 2.729912 1_554
Nb3 Si3 2.729917 1_565
Nb3 Si1 2.841730 1_555
Nb3 Si0 2.841744 1_565
Nb4 Si3 2.729907 1_555
Nb4 Si5 2.729915 1_554
Nb4 Si1 2.841737 1_555
Nb4 Si2 2.841741 1_555
Nb5 Si7 2.729909 1_544
Nb5 Si3 2.729912 1_655
Nb5 Si0 2.841716 1_555
Nb5 Si2 2.841724 1_545
Nb6 Si0 2.729907 1_555
Nb6 Si1 2.729909 1_655
Nb6 Si3 2.841720 1_655
Nb6 Si6 2.841723 1_655
Nb7 Si1 2.729899 1_655
Nb7 Si2 2.729907 1_555
Nb7 Si5 2.841730 1_665
Nb7 Si3 2.841741 1_665
Nb8 Si2 2.729905 1_555
Nb8 Si0 2.729921 1_555
Nb8 Si7 2.841723 1_555
Nb8 Si3 2.841734 1_555
Nb9 Si5 2.729916 1_555
Nb9 Si6 2.729916 1_545
Nb9 Si1 2.841723 1_545
Nb9 Si4 2.841731 1_555
Nb10 Si5 2.729912 1_655
Nb10 Si7 2.729913 1_545
Nb10 Si4 2.841717 1_555
Nb10 Si2 2.841717 1_545
Nb11 Si7 2.729899 1_555
Nb11 Si6 2.729915 1_655
Nb11 Si0 2.841726 1_555
Nb11 Si4 2.841738 1_555
Cr0 Si1 2.487244 1_555
Cr0 Si2 2.487248 1_555
Cr0 Si5 2.487248 1_554
Cr0 Si0 2.487248 1_565
Cr0 Si7 2.487257 1_554
Cr0 Si6 2.487257 1_554
Cr1 Si1 2.487237 1_545
Cr1 Si0 2.487250 1_555
Cr1 Si7 2.487250 1_555
Cr1 Si4 2.487252 1_555
Cr1 Si3 2.487259 1_555
Cr1 Si5 2.487259 1_555
Cr2 Si1 2.487244 1_555
Cr2 Si3 2.487246 1_555
Cr2 Si4 2.487246 1_565
Cr2 Si2 2.487248 1_555
Cr2 Si7 2.487257 1_555
Cr2 Si6 2.487257 1_555
Cr3 Si5 2.487235 1_655
Cr3 Si2 2.487237 1_545
Cr3 Si0 2.487242 1_555
Cr3 Si3 2.487244 1_655
Cr3 Si4 2.487248 1_555
Cr3 Si6 2.487248 1_655
Si0 Si2 2.711560 1_545
Si0 Si4 2.711568 1_555
Si0 Si1 2.711568 1_545
Si1 Si4 2.711568 1_565
Si1 Si2 2.711576 1_555
Si2 Si4 2.711568 1_565
Si3 Si6 2.711556 1_555
Si3 Si5 2.711560 1_555
Si3 Si7 2.711564 1_555
Si5 Si6 2.711551 1_555
Si5 Si7 2.711560 1_555
Si6 Si7 2.711568 1_555
C0 Nb3 2.200846 1_545
C0 Nb4 2.200852 1_555
C0 Nb9 2.200859 1_554
C0 Nb1 2.200861 1_555
C0 Nb8 2.200862 1_555
C0 Nb0 2.200873 1_555
C1 Nb5 2.200845 1_555
C1 Nb4 2.200853 1_655
C1 Nb1 2.200854 1_555
C1 Nb10 2.200857 1_554
C1 Nb6 2.200862 1_555
C1 Nb2 2.200867 1_555
C2 Nb0 2.200851 1_555
C2 Nb2 2.200852 1_555
C2 Nb3 2.200854 1_655
C2 Nb5 2.200860 1_565
C2 Nb7 2.200862 1_555
C2 Nb11 2.200862 1_554
C3 Nb11 2.200846 1_555
C3 Nb7 2.200846 1_555
C3 Nb6 2.200852 1_555
C3 Nb8 2.200853 1_555
C3 Nb9 2.200853 1_665
C3 Nb10 2.200858 1_565
