# generated using pymatgen
data_AgSnIrS4
_symmetry_space_group_name_H-M   'P 1'
_cell_length_a   7.39057314
_cell_length_b   7.39057294
_cell_length_c   7.39057275
_cell_angle_alpha   120.38670921
_cell_angle_beta   119.33717222
_cell_angle_gamma   90.24167822
_symmetry_Int_Tables_number   1
_chemical_formula_structural   AgSnIrS4
_chemical_formula_sum   'Ag2 Sn2 Ir2 S8'
_cell_volume   286.00602939
_cell_formula_units_Z   2
loop_
 _symmetry_equiv_pos_site_id
 _symmetry_equiv_pos_as_xyz
  1  'x, y, z'
loop_
 _atom_site_type_symbol
 _atom_site_label
 _atom_site_symmetry_multiplicity
 _atom_site_fract_x
 _atom_site_fract_y
 _atom_site_fract_z
 _atom_site_occupancy
  Ag  Ag0  1  0.88876086  0.63876086  0.25000000  1
  Ag  Ag1  1  0.11123914  0.36123914  0.75000000  1
  Sn  Sn0  1  0.50000000  0.00000000  0.50000000  1
  Sn  Sn1  1  0.00000000  0.00000000  0.00000000  1
  Ir  Ir0  1  0.50000000  0.00000000  0.00000000  1
  Ir  Ir1  1  0.50000000  0.50000000  0.50000000  1
  S  S0  1  0.72863739  0.73650632  0.50786893  1
  S  S1  1  0.72863739  0.22076745  0.99213107  1
  S  S2  1  0.71391313  0.75650497  0.95740916  1
  S  S3  1  0.29909481  0.75650497  0.54259084  1
  S  S4  1  0.27136261  0.26349368  0.49213107  1
  S  S5  1  0.27136261  0.77923255  0.00786893  1
  S  S6  1  0.28608687  0.24349503  0.04259084  1
  S  S7  1  0.70090519  0.24349503  0.45740916  1
loop_
_geom_bond_atom_site_label_1
_geom_bond_atom_site_label_2
_geom_bond_distance
_geom_bond_site_symmetry_2
Ag0 S3 2.505615 1_655
Ag0 S2 2.505621 1_554
Ag0 S0 2.525623 1_555
Ag0 S1 2.525629 1_554
Ag1 S7 2.505615 1_455
Ag1 S6 2.505621 1_556
Ag1 S4 2.525623 1_555
Ag1 S5 2.525629 1_556
Ir0 S1 2.385334 1_554
Ir0 S5 2.385334 1_545
Ir0 S6 2.403220 1_555
Ir0 S2 2.403220 1_544
Ir0 S7 2.403225 1_555
Ir0 S3 2.403225 1_544
Ir1 S0 2.385339 1_555
Ir1 S4 2.385339 1_555
Ir1 S6 2.403226 1_555
Ir1 S2 2.403226 1_555
Ir1 S3 2.403231 1_555
Ir1 S7 2.403231 1_555
S0 Sn0 2.587849 1_565
S0 Sn1 2.587849 1_666
S1 Sn1 2.587844 1_656
S1 Sn0 2.587849 1_555
S2 Sn1 2.559428 1_666
S3 Sn0 2.559427 1_565
S4 Sn0 2.587849 1_555
S4 Sn1 2.587849 1_555
S5 Sn1 2.587844 1_565
S5 Sn0 2.587849 1_565
S6 Sn1 2.559428 1_555
S7 Sn0 2.559427 1_555
