# generated using pymatgen
data_Rb3NaMgCl6
_symmetry_space_group_name_H-M   'P 1'
_cell_length_a   8.58478958
_cell_length_b   8.58478983
_cell_length_c   8.58478911
_cell_angle_alpha   93.27380031
_cell_angle_beta   93.27380413
_cell_angle_gamma   93.27379390
_symmetry_Int_Tables_number   1
_chemical_formula_structural   Rb3NaMgCl6
_chemical_formula_sum   'Rb6 Na2 Mg2 Cl12'
_cell_volume   629.46598775
_cell_formula_units_Z   2
loop_
 _symmetry_equiv_pos_site_id
 _symmetry_equiv_pos_as_xyz
  1  'x, y, z'
loop_
 _atom_site_type_symbol
 _atom_site_label
 _atom_site_symmetry_multiplicity
 _atom_site_fract_x
 _atom_site_fract_y
 _atom_site_fract_z
 _atom_site_occupancy
  Rb  Rb0  1  0.37528061  0.75000000  0.12471939  1
  Rb  Rb1  1  0.12471939  0.37528061  0.75000000  1
  Rb  Rb2  1  0.75000000  0.12471939  0.37528061  1
  Rb  Rb3  1  0.62471939  0.25000000  0.87528061  1
  Rb  Rb4  1  0.87528061  0.62471939  0.25000000  1
  Rb  Rb5  1  0.25000000  0.87528061  0.62471939  1
  Na  Na0  1  0.25000000  0.25000000  0.25000000  1
  Na  Na1  1  0.75000000  0.75000000  0.75000000  1
  Mg  Mg0  1  0.50000000  0.50000000  0.50000000  1
  Mg  Mg1  1  0.00000000  0.00000000  0.00000000  1
  Cl  Cl0  1  0.41648581  0.21822483  0.53955588  1
  Cl  Cl1  1  0.53955588  0.41648581  0.21822483  1
  Cl  Cl2  1  0.21822483  0.53955588  0.41648581  1
  Cl  Cl3  1  0.08351419  0.96044412  0.28177517  1
  Cl  Cl4  1  0.28177517  0.08351419  0.96044412  1
  Cl  Cl5  1  0.96044412  0.28177517  0.08351419  1
  Cl  Cl6  1  0.03955588  0.71822483  0.91648581  1
  Cl  Cl7  1  0.71822483  0.91648581  0.03955588  1
  Cl  Cl8  1  0.91648581  0.03955588  0.71822483  1
  Cl  Cl9  1  0.78177517  0.46044412  0.58351419  1
  Cl  Cl10  1  0.46044412  0.58351419  0.78177517  1
  Cl  Cl11  1  0.58351419  0.78177517  0.46044412  1
loop_
_geom_bond_atom_site_label_1
_geom_bond_atom_site_label_2
_geom_bond_distance
_geom_bond_site_symmetry_2
Cl0 Mg0 2.530681 1_555
Cl0 Na0 2.830624 1_555
Cl0 Rb3 3.292836 1_555
Cl0 Rb5 3.336107 1_545
Cl0 Rb2 3.380123 1_555
Cl0 Rb1 3.461198 1_555
Cl1 Mg0 2.530681 1_555
Cl1 Na0 2.830624 1_555
Cl1 Rb4 3.292837 1_555
Cl1 Rb3 3.336106 1_554
Cl1 Rb0 3.380123 1_555
Cl1 Rb2 3.461198 1_555
Cl2 Mg0 2.530681 1_555
Cl2 Na0 2.830624 1_555
Cl2 Rb5 3.292837 1_555
Cl2 Rb4 3.336106 1_455
Cl2 Rb1 3.380123 1_555
Cl2 Rb0 3.461199 1_555
Cl3 Mg1 2.530681 1_565
Cl3 Na0 2.830624 1_565
Cl3 Rb4 3.292837 1_455
Cl3 Rb5 3.336106 1_555
Cl3 Rb2 3.380123 1_465
Cl3 Rb0 3.461198 1_555
Cl4 Mg1 2.530681 1_556
Cl4 Na0 2.830624 1_556
Cl4 Rb5 3.292837 1_545
Cl4 Rb3 3.336107 1_555
Cl4 Rb0 3.380123 1_546
Cl4 Rb1 3.461198 1_555
Cl5 Mg1 2.530681 1_655
Cl5 Na0 2.830624 1_655
Cl5 Rb3 3.292837 1_554
Cl5 Rb4 3.336106 1_555
Cl5 Rb1 3.380123 1_654
Cl5 Rb2 3.461199 1_555
Cl6 Mg1 2.530681 1_566
Cl6 Na1 2.830624 1_455
Cl6 Rb0 3.292837 1_556
Cl6 Rb1 3.336106 1_555
Cl6 Rb4 3.380123 1_456
Cl6 Rb5 3.461199 1_555
Cl7 Mg1 2.530681 1_665
Cl7 Na1 2.830624 1_554
Cl7 Rb2 3.292837 1_565
Cl7 Rb0 3.336107 1_555
Cl7 Rb3 3.380123 1_564
Cl7 Rb4 3.461198 1_555
Cl8 Mg1 2.530681 1_656
Cl8 Na1 2.830624 1_545
Cl8 Rb1 3.292837 1_655
Cl8 Rb2 3.336106 1_555
Cl8 Rb5 3.380123 1_645
Cl8 Rb3 3.461198 1_555
Cl9 Mg0 2.530681 1_555
Cl9 Na1 2.830624 1_555
Cl9 Rb2 3.292837 1_555
Cl9 Rb1 3.336106 1_655
Cl9 Rb4 3.380123 1_555
Cl9 Rb3 3.461199 1_555
Cl10 Mg0 2.530681 1_555
Cl10 Na1 2.830624 1_555
Cl10 Rb1 3.292837 1_555
Cl10 Rb0 3.336106 1_556
Cl10 Rb3 3.380123 1_555
Cl10 Rb5 3.461198 1_555
Cl11 Mg0 2.530681 1_555
Cl11 Na1 2.830624 1_555
Cl11 Rb0 3.292836 1_555
Cl11 Rb2 3.336107 1_565
Cl11 Rb5 3.380123 1_555
Cl11 Rb4 3.461198 1_555
