# generated using pymatgen
data_ScCo4MoP3
_symmetry_space_group_name_H-M   'P 1'
_cell_length_a   3.61734236
_cell_length_b   10.20438860
_cell_length_c   11.66394508
_cell_angle_alpha   90.00000000
_cell_angle_beta   90.00000000
_cell_angle_gamma   90.00000000
_symmetry_Int_Tables_number   1
_chemical_formula_structural   ScCo4MoP3
_chemical_formula_sum   'Sc4 Co16 Mo4 P12'
_cell_volume   430.54848890
_cell_formula_units_Z   4
loop_
 _symmetry_equiv_pos_site_id
 _symmetry_equiv_pos_as_xyz
  1  'x, y, z'
loop_
 _atom_site_type_symbol
 _atom_site_label
 _atom_site_symmetry_multiplicity
 _atom_site_fract_x
 _atom_site_fract_y
 _atom_site_fract_z
 _atom_site_occupancy
  Sc  Sc0  1  0.25000000  0.58232846  0.70463458  1
  Sc  Sc1  1  0.25000000  0.91767154  0.20463458  1
  Sc  Sc2  1  0.75000000  0.41767154  0.29536542  1
  Sc  Sc3  1  0.75000000  0.08232846  0.79536542  1
  Co  Co0  1  0.25000000  0.40748988  0.48645771  1
  Co  Co1  1  0.25000000  0.09251012  0.98645771  1
  Co  Co2  1  0.75000000  0.59251012  0.51354229  1
  Co  Co3  1  0.75000000  0.90748988  0.01354229  1
  Co  Co4  1  0.25000000  0.22154178  0.17824161  1
  Co  Co5  1  0.25000000  0.27845922  0.67824161  1
  Co  Co6  1  0.75000000  0.77845922  0.82175839  1
  Co  Co7  1  0.75000000  0.72154078  0.32175839  1
  Co  Co8  1  0.25000000  0.88777058  0.70147337  1
  Co  Co9  1  0.25000000  0.61222942  0.20147337  1
  Co  Co10  1  0.75000000  0.11222942  0.29852663  1
  Co  Co11  1  0.75000000  0.38777058  0.79852663  1
  Co  Co12  1  0.25000000  0.46548919  0.93198744  1
  Co  Co13  1  0.25000000  0.03451081  0.43198744  1
  Co  Co14  1  0.75000000  0.53451081  0.06801256  1
  Co  Co15  1  0.75000000  0.96548919  0.56801256  1
  Mo  Mo0  1  0.25000000  0.71059693  0.98787715  1
  Mo  Mo1  1  0.25000000  0.78940307  0.48787715  1
  Mo  Mo2  1  0.75000000  0.28940307  0.01212285  1
  Mo  Mo3  1  0.75000000  0.21059693  0.51212285  1
  P  P0  1  0.25000000  0.42053283  0.11801967  1
  P  P1  1  0.25000000  0.07946717  0.61801967  1
  P  P2  1  0.75000000  0.57946717  0.88198033  1
  P  P3  1  0.75000000  0.92053283  0.38198033  1
  P  P4  1  0.25000000  0.26460871  0.86342884  1
  P  P5  1  0.25000000  0.23539129  0.36342884  1
  P  P6  1  0.75000000  0.73539129  0.13657116  1
  P  P7  1  0.75000000  0.76460871  0.63657116  1
  P  P8  1  0.25000000  0.59284110  0.38914131  1
  P  P9  1  0.25000000  0.90715890  0.88914131  1
  P  P10  1  0.75000000  0.40715890  0.61085869  1
  P  P11  1  0.75000000  0.09284110  0.11085869  1
loop_
_geom_bond_atom_site_label_1
_geom_bond_atom_site_label_2
_geom_bond_distance
_geom_bond_site_symmetry_2
Co0 P8 2.205859 1_555
Co0 P5 2.267891 1_555
Co0 P10 2.318776 1_555
Co0 P10 2.318776 1_455
Co0 Mo3 2.719867 1_555
Co0 Mo3 2.719867 1_455
Co1 P9 2.205859 1_545
Co1 P4 2.267891 1_555
Co1 P11 2.318776 1_556
Co1 P11 2.318776 1_456
Co1 Mo2 2.719867 1_456
Co1 Mo2 2.719867 1_556
Co2 P10 2.205859 1_555
Co2 P7 2.267891 1_555
Co2 P8 2.318776 1_555
Co2 P8 2.318776 1_655
Co2 Mo1 2.719867 1_555
Co2 Mo1 2.719867 1_655
Co3 P11 2.205859 1_565
Co3 P6 2.267891 1_555
Co3 P9 2.318776 1_554
Co3 P9 2.318776 1_654
Co3 Mo0 2.719867 1_654
Co3 Mo0 2.719867 1_554
Co4 P0 2.148643 1_555
Co4 P5 2.164632 1_555
Co4 P11 2.369345 1_555
Co4 P11 2.369345 1_455
Co4 Mo2 2.739547 1_455
Co4 Mo2 2.739547 1_555
Co5 P1 2.148652 1_555
Co5 P4 2.164633 1_555
Co5 P10 2.369340 1_555
Co5 P10 2.369340 1_455
Co5 Mo3 2.739550 1_455
Co5 Mo3 2.739550 1_555
Co6 P2 2.148652 1_555
Co6 P7 2.164633 1_555
Co6 P9 2.369340 1_655
Co6 P9 2.369340 1_555
Co6 Mo0 2.739550 1_655
Co6 Mo0 2.739550 1_555
Co7 P3 2.148652 1_555
Co7 P6 2.164633 1_555
Co7 P8 2.369340 1_655
Co7 P8 2.369340 1_555
Co7 Mo1 2.739550 1_555
Co7 Mo1 2.739550 1_655
Co8 P1 2.184952 1_565
Co8 P9 2.197872 1_555
Co8 P7 2.328925 1_455
Co8 P7 2.328925 1_555
Co8 Mo1 2.685986 1_555
Co9 P0 2.184952 1_555
Co9 P8 2.197872 1_555
Co9 P6 2.328925 1_455
Co9 P6 2.328925 1_555
Co9 Mo0 2.685986 1_554
Co10 P3 2.184952 1_545
Co10 P11 2.197872 1_555
Co10 P5 2.328925 1_655
Co10 P5 2.328925 1_555
Co10 Mo3 2.685986 1_555
Co11 P2 2.184952 1_555
Co11 P10 2.197872 1_555
Co11 P4 2.328925 1_655
Co11 P4 2.328925 1_555
Co11 Mo2 2.685986 1_556
Co12 P4 2.200318 1_555
Co12 P0 2.217834 1_556
Co12 P2 2.228060 1_555
Co12 P2 2.228060 1_455
Co12 Mo0 2.584732 1_555
Co12 Mo2 2.715441 1_556
Co12 Mo2 2.715441 1_456
Co13 P5 2.200318 1_555
Co13 P1 2.217834 1_555
Co13 P3 2.228060 1_445
Co13 P3 2.228060 1_545
Co13 Mo1 2.584732 1_545
Co13 Mo3 2.715441 1_455
Co13 Mo3 2.715441 1_555
Co14 P6 2.200318 1_555
Co14 P2 2.217834 1_554
Co14 P0 2.228060 1_555
Co14 P0 2.228060 1_655
Co14 Mo2 2.584732 1_555
Co14 Mo0 2.715441 1_554
Co14 Mo0 2.715441 1_654
Co15 P7 2.200318 1_555
Co15 P3 2.217834 1_555
Co15 P1 2.228060 1_565
Co15 P1 2.228060 1_665
Co15 Mo3 2.584732 1_565
Co15 Mo1 2.715441 1_655
Co15 Mo1 2.715441 1_555
Mo0 P9 2.312901 1_555
Mo0 P6 2.518592 1_556
Mo0 P6 2.518592 1_456
Mo0 P2 2.566604 1_455
Mo0 P2 2.566604 1_555
Mo1 P8 2.312901 1_555
Mo1 P7 2.518592 1_455
Mo1 P7 2.518592 1_555
Mo1 P3 2.566604 1_455
Mo1 P3 2.566604 1_555
Mo2 P11 2.312901 1_555
Mo2 P4 2.518592 1_554
Mo2 P4 2.518592 1_654
Mo2 P0 2.566604 1_655
Mo2 P0 2.566604 1_555
Mo3 P10 2.312901 1_555
Mo3 P5 2.518592 1_555
Mo3 P5 2.518592 1_655
Mo3 P1 2.566604 1_655
Mo3 P1 2.566604 1_555
P0 Sc2 2.747917 1_455
P0 Sc2 2.747917 1_555
P1 Sc3 2.747917 1_555
P1 Sc3 2.747917 1_455
P2 Sc0 2.747917 1_655
P2 Sc0 2.747917 1_555
P3 Sc1 2.747917 1_555
P3 Sc1 2.747917 1_655
P4 Sc3 2.713184 1_455
P4 Sc3 2.713184 1_555
P5 Sc2 2.713184 1_455
P5 Sc2 2.713184 1_555
P6 Sc1 2.713184 1_655
P6 Sc1 2.713184 1_555
P7 Sc0 2.713184 1_655
P7 Sc0 2.713184 1_555
P8 Sc2 2.768182 1_455
P8 Sc2 2.768182 1_555
P9 Sc3 2.768182 1_565
P9 Sc3 2.768182 1_465
P10 Sc0 2.768182 1_655
P10 Sc0 2.768182 1_555
P11 Sc1 2.768182 1_545
P11 Sc1 2.768182 1_645
