# generated using pymatgen
data_Cs3CaInBr6
_symmetry_space_group_name_H-M   'P 1'
_cell_length_a   9.65470057
_cell_length_b   9.65470069
_cell_length_c   9.65470061
_cell_angle_alpha   91.23314076
_cell_angle_beta   91.23314062
_cell_angle_gamma   91.23314833
_symmetry_Int_Tables_number   1
_chemical_formula_structural   Cs3CaInBr6
_chemical_formula_sum   'Cs6 Ca2 In2 Br12'
_cell_volume   899.31156711
_cell_formula_units_Z   2
loop_
 _symmetry_equiv_pos_site_id
 _symmetry_equiv_pos_as_xyz
  1  'x, y, z'
loop_
 _atom_site_type_symbol
 _atom_site_label
 _atom_site_symmetry_multiplicity
 _atom_site_fract_x
 _atom_site_fract_y
 _atom_site_fract_z
 _atom_site_occupancy
  Cs  Cs0  1  0.25000000  0.62419779  0.87580221  1
  Cs  Cs1  1  0.87580221  0.25000000  0.62419779  1
  Cs  Cs2  1  0.62419779  0.87580221  0.25000000  1
  Cs  Cs3  1  0.75000000  0.37580221  0.12419779  1
  Cs  Cs4  1  0.12419779  0.75000000  0.37580221  1
  Cs  Cs5  1  0.37580221  0.12419779  0.75000000  1
  Ca  Ca0  1  0.00000000  0.00000000  0.00000000  1
  Ca  Ca1  1  0.50000000  0.50000000  0.50000000  1
  In  In0  1  0.25000000  0.25000000  0.25000000  1
  In  In1  1  0.75000000  0.75000000  0.75000000  1
  Br  Br0  1  0.54960574  0.21306780  0.41997869  1
  Br  Br1  1  0.41997869  0.54960574  0.21306780  1
  Br  Br2  1  0.21306780  0.41997869  0.54960574  1
  Br  Br3  1  0.95039426  0.08002131  0.28693220  1
  Br  Br4  1  0.28693220  0.95039426  0.08002131  1
  Br  Br5  1  0.08002131  0.28693220  0.95039426  1
  Br  Br6  1  0.45039426  0.78693220  0.58002131  1
  Br  Br7  1  0.58002131  0.45039426  0.78693220  1
  Br  Br8  1  0.78693220  0.58002131  0.45039426  1
  Br  Br9  1  0.04960574  0.91997869  0.71306780  1
  Br  Br10  1  0.91997869  0.71306780  0.04960574  1
  Br  Br11  1  0.71306780  0.04960574  0.91997869  1
loop_
_geom_bond_atom_site_label_1
_geom_bond_atom_site_label_2
_geom_bond_distance
_geom_bond_site_symmetry_2
Br0 Ca1 2.912288 1_555
Br0 In0 3.324567 1_555
Br0 Cs1 3.686063 1_555
Br0 Cs2 3.706272 1_545
Br0 Cs5 3.740321 1_555
Br0 Cs3 3.829717 1_555
Br1 Ca1 2.912288 1_555
Br1 In0 3.324567 1_555
Br1 Cs2 3.686063 1_555
Br1 Cs0 3.706272 1_554
Br1 Cs3 3.740321 1_555
Br1 Cs4 3.829717 1_555
Br2 Ca1 2.912288 1_555
Br2 In0 3.324567 1_555
Br2 Cs0 3.686063 1_555
Br2 Cs1 3.706272 1_455
Br2 Cs4 3.740321 1_555
Br2 Cs5 3.829717 1_555
Br3 Ca0 2.912288 1_655
Br3 In0 3.324567 1_655
Br3 Cs2 3.686063 1_545
Br3 Cs1 3.706272 1_555
Br3 Cs4 3.740321 1_645
Br3 Cs3 3.829717 1_555
Br4 Ca0 2.912288 1_565
Br4 In0 3.324567 1_565
Br4 Cs0 3.686063 1_554
Br4 Cs2 3.706272 1_555
Br4 Cs5 3.740321 1_564
Br4 Cs4 3.829717 1_555
Br5 Ca0 2.912288 1_556
Br5 In0 3.324567 1_556
Br5 Cs1 3.686063 1_455
Br5 Cs0 3.706272 1_555
Br5 Cs3 3.740321 1_456
Br5 Cs5 3.829717 1_555
Br6 Ca1 2.912288 1_555
Br6 In1 3.324567 1_555
Br6 Cs4 3.686063 1_555
Br6 Cs5 3.706272 1_565
Br6 Cs2 3.740321 1_555
Br6 Cs0 3.829717 1_555
Br7 Ca1 2.912288 1_555
Br7 In1 3.324567 1_555
Br7 Cs5 3.686063 1_555
Br7 Cs3 3.706272 1_556
Br7 Cs0 3.740321 1_555
Br7 Cs1 3.829717 1_555
Br8 Ca1 2.912288 1_555
Br8 In1 3.324567 1_555
Br8 Cs3 3.686063 1_555
Br8 Cs4 3.706272 1_655
Br8 Cs1 3.740321 1_555
Br8 Cs2 3.829717 1_555
Br9 Ca0 2.912288 1_566
Br9 In1 3.324567 1_455
Br9 Cs5 3.686063 1_565
Br9 Cs4 3.706272 1_555
Br9 Cs1 3.740321 1_465
Br9 Cs0 3.829717 1_555
Br10 Ca0 2.912288 1_665
Br10 In1 3.324567 1_554
Br10 Cs4 3.686063 1_655
Br10 Cs3 3.706272 1_555
Br10 Cs0 3.740321 1_654
Br10 Cs2 3.829717 1_555
Br11 Ca0 2.912288 1_656
Br11 In1 3.324567 1_545
Br11 Cs3 3.686063 1_556
Br11 Cs5 3.706272 1_555
Br11 Cs2 3.740321 1_546
Br11 Cs1 3.829717 1_555
