# generated using pymatgen
data_K3SrOs2O9
_symmetry_space_group_name_H-M   'P 1'
_cell_length_a   6.02774632
_cell_length_b   6.02774605
_cell_length_c   15.47501094
_cell_angle_alpha   90.00000000
_cell_angle_beta   90.00000000
_cell_angle_gamma   119.99998580
_symmetry_Int_Tables_number   1
_chemical_formula_structural   K3SrOs2O9
_chemical_formula_sum   'K6 Sr2 Os4 O18'
_cell_volume   486.93565077
_cell_formula_units_Z   2
loop_
 _symmetry_equiv_pos_site_id
 _symmetry_equiv_pos_as_xyz
  1  'x, y, z'
loop_
 _atom_site_type_symbol
 _atom_site_label
 _atom_site_symmetry_multiplicity
 _atom_site_fract_x
 _atom_site_fract_y
 _atom_site_fract_z
 _atom_site_occupancy
  K  K0  1  0.00000000  0.00000000  0.25000000  1
  K  K1  1  0.00000000  0.00000000  0.75000000  1
  K  K2  1  0.33333300  0.66666700  0.37427793  1
  K  K3  1  0.66666700  0.33333300  0.62572207  1
  K  K4  1  0.66666700  0.33333300  0.87427793  1
  K  K5  1  0.33333300  0.66666700  0.12572207  1
  Sr  Sr0  1  0.00000000  0.00000000  0.50000000  1
  Sr  Sr1  1  0.00000000  0.00000000  0.00000000  1
  Os  Os0  1  0.66666700  0.33333300  0.34336451  1
  Os  Os1  1  0.33333300  0.66666700  0.65663549  1
  Os  Os2  1  0.33333300  0.66666700  0.84336451  1
  Os  Os3  1  0.66666700  0.33333300  0.15663549  1
  O  O0  1  0.53169182  0.46830818  0.25000000  1
  O  O1  1  0.53169182  0.06338263  0.25000000  1
  O  O2  1  0.93661737  0.46830818  0.25000000  1
  O  O3  1  0.46830818  0.53169182  0.75000000  1
  O  O4  1  0.46830818  0.93661737  0.75000000  1
  O  O5  1  0.06338263  0.53169182  0.75000000  1
  O  O6  1  0.36067112  0.18033606  0.40008033  1
  O  O7  1  0.81966394  0.18033606  0.40008033  1
  O  O8  1  0.81966394  0.63932888  0.40008033  1
  O  O9  1  0.63932888  0.81966394  0.59991967  1
  O  O10  1  0.18033606  0.81966394  0.59991967  1
  O  O11  1  0.18033606  0.36067112  0.59991967  1
  O  O12  1  0.63932888  0.81966394  0.90008033  1
  O  O13  1  0.18033606  0.81966394  0.90008033  1
  O  O14  1  0.18033606  0.36067112  0.90008033  1
  O  O15  1  0.36067112  0.18033606  0.09991967  1
  O  O16  1  0.81966394  0.18033606  0.09991967  1
  O  O17  1  0.81966394  0.63932888  0.09991967  1
loop_
_geom_bond_atom_site_label_1
_geom_bond_atom_site_label_2
_geom_bond_distance
_geom_bond_site_symmetry_2
K0 O8 2.989783 1_445
K0 O17 2.989783 1_445
K0 O6 2.989783 1_555
K0 O15 2.989783 1_555
K0 O7 2.989786 1_455
K0 O16 2.989786 1_455
K0 O2 3.031977 1_455
K0 O1 3.031977 1_455
K0 O0 3.031982 1_445
K0 O0 3.031982 1_555
K0 O2 3.031983 1_445
K0 O1 3.031984 1_555
K1 O14 2.989783 1_555
K1 O11 2.989783 1_555
K1 O12 2.989783 1_445
K1 O9 2.989783 1_445
K1 O13 2.989786 1_545
K1 O10 2.989786 1_545
K1 O5 3.031977 1_545
K1 O4 3.031977 1_545
K1 O3 3.031982 1_555
K1 O3 3.031982 1_445
K1 O5 3.031983 1_555
K1 O4 3.031984 1_445
K2 O1 2.826208 1_565
K2 O2 2.826208 1_455
K2 O0 2.826215 1_555
K2 O6 3.043556 1_555
K2 O6 3.043556 1_565
K2 O8 3.043556 1_555
K2 O8 3.043556 1_455
K2 O7 3.043556 1_565
K2 O7 3.043556 1_455
K3 O4 2.826208 1_545
K3 O5 2.826208 1_655
K3 O3 2.826215 1_555
K3 O9 3.043556 1_555
K3 O9 3.043556 1_545
K3 O11 3.043556 1_555
K3 O11 3.043556 1_655
K3 O10 3.043556 1_545
K3 O10 3.043556 1_655
K4 O4 2.826208 1_545
K4 O5 2.826208 1_655
K4 O3 2.826215 1_555
K4 O12 3.043556 1_555
K4 O12 3.043556 1_545
K4 O14 3.043556 1_555
K4 O14 3.043556 1_655
K4 O13 3.043556 1_545
K4 O13 3.043556 1_655
K5 O1 2.826208 1_565
K5 O2 2.826208 1_455
K5 O0 2.826215 1_555
K5 O15 3.043556 1_555
K5 O15 3.043556 1_565
K5 O17 3.043556 1_555
K5 O17 3.043556 1_455
K5 O16 3.043556 1_565
K5 O16 3.043556 1_455
O0 Os0 2.018245 1_555
O0 Os3 2.018245 1_555
O1 Os0 2.018245 1_555
O1 Os3 2.018245 1_555
O2 Os0 2.018245 1_555
O2 Os3 2.018245 1_555
O3 Os2 2.018245 1_555
O3 Os1 2.018245 1_555
O4 Os2 2.018245 1_555
O4 Os1 2.018245 1_555
O5 Os2 2.018245 1_555
O5 Os1 2.018245 1_555
O6 Os0 1.822597 1_555
O6 Sr0 2.436336 1_555
O7 Os0 1.822587 1_555
O7 Sr0 2.436340 1_655
O8 Os0 1.822597 1_555
O8 Sr0 2.436336 1_665
O9 Os1 1.822597 1_555
O9 Sr0 2.436336 1_665
O10 Os1 1.822587 1_555
O10 Sr0 2.436340 1_565
O11 Os1 1.822597 1_555
O11 Sr0 2.436336 1_555
O12 Os2 1.822597 1_555
O12 Sr1 2.436336 1_666
O13 Os2 1.822587 1_555
O13 Sr1 2.436340 1_566
O14 Os2 1.822597 1_555
O14 Sr1 2.436336 1_556
O15 Os3 1.822597 1_555
O15 Sr1 2.436336 1_555
O16 Os3 1.822587 1_555
O16 Sr1 2.436340 1_655
O17 Os3 1.822597 1_555
O17 Sr1 2.436336 1_665
