# generated using pymatgen
data_YZn3
_symmetry_space_group_name_H-M   'P 1'
_cell_length_a   4.34964261
_cell_length_b   6.60907061
_cell_length_c   10.04414344
_cell_angle_alpha   90.00000000
_cell_angle_beta   90.00000000
_cell_angle_gamma   90.00000000
_symmetry_Int_Tables_number   1
_chemical_formula_structural   YZn3
_chemical_formula_sum   'Y4 Zn12'
_cell_volume   288.73994705
_cell_formula_units_Z   4
loop_
 _symmetry_equiv_pos_site_id
 _symmetry_equiv_pos_as_xyz
  1  'x, y, z'
loop_
 _atom_site_type_symbol
 _atom_site_label
 _atom_site_symmetry_multiplicity
 _atom_site_fract_x
 _atom_site_fract_y
 _atom_site_fract_z
 _atom_site_occupancy
  Y  Y0  1  0.25000000  0.77582537  0.15922172  1
  Y  Y1  1  0.75000000  0.22417463  0.84077828  1
  Y  Y2  1  0.25000000  0.27582537  0.34077828  1
  Y  Y3  1  0.75000000  0.72417463  0.65922172  1
  Zn  Zn0  1  0.25000000  0.03903293  0.60926181  1
  Zn  Zn1  1  0.75000000  0.96096707  0.39073819  1
  Zn  Zn2  1  0.25000000  0.53903293  0.89073819  1
  Zn  Zn3  1  0.75000000  0.46096707  0.10926181  1
  Zn  Zn4  1  0.75000000  0.77292213  0.95447862  1
  Zn  Zn5  1  0.25000000  0.22707787  0.04552138  1
  Zn  Zn6  1  0.75000000  0.27292213  0.54552138  1
  Zn  Zn7  1  0.25000000  0.72707787  0.45447862  1
  Zn  Zn8  1  0.75000000  0.08066849  0.14393011  1
  Zn  Zn9  1  0.25000000  0.91933151  0.85606989  1
  Zn  Zn10  1  0.75000000  0.58066849  0.35606989  1
  Zn  Zn11  1  0.25000000  0.41933151  0.64393011  1
loop_
_geom_bond_atom_site_label_1
_geom_bond_atom_site_label_2
_geom_bond_distance
_geom_bond_site_symmetry_2
Y0 Zn8 2.968598 1_465
Y0 Zn8 2.968598 1_565
Y0 Zn7 2.983052 1_555
Y0 Zn4 2.993206 1_554
Y0 Zn4 2.993206 1_454
Y0 Zn3 3.051538 1_455
Y0 Zn3 3.051538 1_555
Y0 Zn2 3.117896 1_554
Y0 Zn9 3.189194 1_554
Y0 Zn5 3.193538 1_565
Y0 Zn10 3.209775 1_455
Y0 Zn10 3.209775 1_555
Y0 Zn1 3.410937 1_555
Y0 Zn1 3.410937 1_455
Y1 Zn9 2.968598 1_645
Y1 Zn9 2.968598 1_545
Y1 Zn6 2.983052 1_555
Y1 Zn5 2.993206 1_656
Y1 Zn5 2.993206 1_556
Y1 Zn2 3.051538 1_655
Y1 Zn2 3.051538 1_555
Y1 Zn3 3.117896 1_556
Y1 Zn8 3.189194 1_556
Y1 Zn4 3.193538 1_545
Y1 Zn11 3.209775 1_555
Y1 Zn11 3.209775 1_655
Y1 Zn0 3.410937 1_655
Y1 Zn0 3.410937 1_555
Y2 Zn10 2.968598 1_555
Y2 Zn10 2.968598 1_455
Y2 Zn5 2.983052 1_555
Y2 Zn6 2.993206 1_555
Y2 Zn6 2.993206 1_455
Y2 Zn1 3.051538 1_545
Y2 Zn1 3.051538 1_445
Y2 Zn0 3.117896 1_555
Y2 Zn11 3.189194 1_555
Y2 Zn7 3.193538 1_555
Y2 Zn8 3.209775 1_555
Y2 Zn8 3.209775 1_455
Y2 Zn3 3.410937 1_455
Y2 Zn3 3.410937 1_555
Y3 Zn11 2.968598 1_555
Y3 Zn11 2.968598 1_655
Y3 Zn4 2.983052 1_555
Y3 Zn7 2.993206 1_555
Y3 Zn7 2.993206 1_655
Y3 Zn0 3.051538 1_665
Y3 Zn0 3.051538 1_565
Y3 Zn1 3.117896 1_555
Y3 Zn10 3.189194 1_555
Y3 Zn6 3.193538 1_555
Y3 Zn9 3.209775 1_555
Y3 Zn9 3.209775 1_655
Y3 Zn2 3.410937 1_555
Y3 Zn2 3.410937 1_655
Zn0 Zn11 2.537427 1_555
Zn0 Zn7 2.582194 1_545
Zn0 Zn9 2.602150 1_545
Zn0 Zn6 2.743938 1_555
Zn0 Zn6 2.743938 1_455
Zn0 Zn1 3.132659 1_445
Zn0 Zn1 3.132659 1_545
Zn1 Zn10 2.537427 1_555
Zn1 Zn6 2.582194 1_565
Zn1 Zn8 2.602150 1_565
Zn1 Zn7 2.743938 1_555
Zn1 Zn7 2.743938 1_655
Zn2 Zn9 2.537427 1_555
Zn2 Zn5 2.582194 1_556
Zn2 Zn4 2.743938 1_555
Zn2 Zn4 2.743938 1_455
Zn2 Zn3 3.132659 1_456
Zn2 Zn3 3.132659 1_556
Zn3 Zn8 2.537427 1_555
Zn3 Zn4 2.582194 1_554
Zn3 Zn5 2.743938 1_555
Zn3 Zn5 2.743938 1_655
Zn4 Zn9 2.577431 1_655
Zn4 Zn9 2.577431 1_555
Zn4 Zn8 2.785276 1_566
Zn5 Zn8 2.577431 1_455
Zn5 Zn8 2.577431 1_555
Zn5 Zn9 2.785276 1_544
Zn10 Zn7 2.577431 1_555
Zn10 Zn7 2.577431 1_655
Zn10 Zn3 2.602150 1_555
Zn10 Zn6 2.785276 1_555
Zn11 Zn6 2.577431 1_555
Zn11 Zn6 2.577431 1_455
Zn11 Zn2 2.602150 1_555
Zn11 Zn7 2.785276 1_555
