# generated using pymatgen
data_Ti3AlC2
_symmetry_space_group_name_H-M   'P 1'
_cell_length_a   6.14317700
_cell_length_b   6.14317585
_cell_length_c   37.24796646
_cell_angle_alpha   90.00000000
_cell_angle_beta   90.00000000
_cell_angle_gamma   119.99998425
_symmetry_Int_Tables_number   1
_chemical_formula_structural   Ti3AlC2
_chemical_formula_sum   'Ti48 Al16 C32'
_cell_volume   1217.36060668
_cell_formula_units_Z   16
loop_
 _symmetry_equiv_pos_site_id
 _symmetry_equiv_pos_as_xyz
  1  'x, y, z'
loop_
 _atom_site_type_symbol
 _atom_site_label
 _atom_site_symmetry_multiplicity
 _atom_site_fract_x
 _atom_site_fract_y
 _atom_site_fract_z
 _atom_site_occupancy
  Ti  Ti0_0  1  0.33333350  0.16666650  0.18630170  1
  Ti  Ti0_1  1  0.33333350  0.16666650  0.68630169  1
  Ti  Ti0_2  1  0.33333350  0.66666650  0.18630170  1
  Ti  Ti0_3  1  0.33333350  0.66666650  0.68630169  1
  Ti  Ti0_4  1  0.83333350  0.16666650  0.18630170  1
  Ti  Ti0_5  1  0.83333350  0.16666650  0.68630169  1
  Ti  Ti0_6  1  0.83333350  0.66666650  0.18630170  1
  Ti  Ti0_7  1  0.83333350  0.66666650  0.68630169  1
  Ti  Ti1_0  1  0.16666650  0.33333350  0.43630169  1
  Ti  Ti1_1  1  0.16666650  0.33333350  0.93630170  1
  Ti  Ti1_2  1  0.16666650  0.83333350  0.43630169  1
  Ti  Ti1_3  1  0.16666650  0.83333350  0.93630170  1
  Ti  Ti1_4  1  0.66666650  0.33333350  0.43630169  1
  Ti  Ti1_5  1  0.66666650  0.33333350  0.93630170  1
  Ti  Ti1_6  1  0.66666650  0.83333350  0.43630169  1
  Ti  Ti1_7  1  0.66666650  0.83333350  0.93630170  1
  Ti  Ti2_0  1  0.16666650  0.33333350  0.31369831  1
  Ti  Ti2_1  1  0.16666650  0.33333350  0.81369830  1
  Ti  Ti2_2  1  0.16666650  0.83333350  0.31369831  1
  Ti  Ti2_3  1  0.16666650  0.83333350  0.81369830  1
  Ti  Ti2_4  1  0.66666650  0.33333350  0.31369831  1
  Ti  Ti2_5  1  0.66666650  0.33333350  0.81369830  1
  Ti  Ti2_6  1  0.66666650  0.83333350  0.31369831  1
  Ti  Ti2_7  1  0.66666650  0.83333350  0.81369830  1
  Ti  Ti3_0  1  0.33333350  0.16666650  0.06369830  1
  Ti  Ti3_1  1  0.33333350  0.16666650  0.56369830  1
  Ti  Ti3_2  1  0.33333350  0.66666650  0.06369830  1
  Ti  Ti3_3  1  0.33333350  0.66666650  0.56369830  1
  Ti  Ti3_4  1  0.83333350  0.16666650  0.06369830  1
  Ti  Ti3_5  1  0.83333350  0.16666650  0.56369830  1
  Ti  Ti3_6  1  0.83333350  0.66666650  0.06369830  1
  Ti  Ti3_7  1  0.83333350  0.66666650  0.56369830  1
  Ti  Ti4_0  1  0.00000000  0.00000000  0.25000000  1
  Ti  Ti4_1  1  0.00000000  0.00000000  0.75000000  1
  Ti  Ti4_2  1  0.00000000  0.50000000  0.25000000  1
  Ti  Ti4_3  1  0.00000000  0.50000000  0.75000000  1
  Ti  Ti4_4  1  0.50000000  0.00000000  0.25000000  1
  Ti  Ti4_5  1  0.50000000  0.00000000  0.75000000  1
  Ti  Ti4_6  1  0.50000000  0.50000000  0.25000000  1
  Ti  Ti4_7  1  0.50000000  0.50000000  0.75000000  1
  Ti  Ti5_0  1  0.00000000  0.00000000  0.00000000  1
  Ti  Ti5_1  1  0.00000000  0.00000000  0.50000000  1
  Ti  Ti5_2  1  0.00000000  0.50000000  0.00000000  1
  Ti  Ti5_3  1  0.00000000  0.50000000  0.50000000  1
  Ti  Ti5_4  1  0.50000000  0.00000000  0.00000000  1
  Ti  Ti5_5  1  0.50000000  0.00000000  0.50000000  1
  Ti  Ti5_6  1  0.50000000  0.50000000  0.00000000  1
  Ti  Ti5_7  1  0.50000000  0.50000000  0.50000000  1
  Al  Al0_0  1  0.00000000  0.00000000  0.37500000  1
  Al  Al0_1  1  0.00000000  0.00000000  0.87500000  1
  Al  Al0_2  1  0.00000000  0.50000000  0.37500000  1
  Al  Al0_3  1  0.00000000  0.50000000  0.87500000  1
  Al  Al0_4  1  0.50000000  0.00000000  0.37500000  1
  Al  Al0_5  1  0.50000000  0.00000000  0.87500000  1
  Al  Al0_6  1  0.50000000  0.50000000  0.37500000  1
  Al  Al0_7  1  0.50000000  0.50000000  0.87500000  1
  Al  Al1_0  1  0.00000000  0.00000000  0.12500000  1
  Al  Al1_1  1  0.00000000  0.00000000  0.62500000  1
  Al  Al1_2  1  0.00000000  0.50000000  0.12500000  1
  Al  Al1_3  1  0.00000000  0.50000000  0.62500000  1
  Al  Al1_4  1  0.50000000  0.00000000  0.12500000  1
  Al  Al1_5  1  0.50000000  0.00000000  0.62500000  1
  Al  Al1_6  1  0.50000000  0.50000000  0.12500000  1
  Al  Al1_7  1  0.50000000  0.50000000  0.62500000  1
  C  C0_0  1  0.16666650  0.33333350  0.21526939  1
  C  C0_1  1  0.16666650  0.33333350  0.71526939  1
  C  C0_2  1  0.16666650  0.83333350  0.21526939  1
  C  C0_3  1  0.16666650  0.83333350  0.71526939  1
  C  C0_4  1  0.66666650  0.33333350  0.21526939  1
  C  C0_5  1  0.66666650  0.33333350  0.71526939  1
  C  C0_6  1  0.66666650  0.83333350  0.21526939  1
  C  C0_7  1  0.66666650  0.83333350  0.71526939  1
  C  C1_0  1  0.33333350  0.16666650  0.46526939  1
  C  C1_1  1  0.33333350  0.16666650  0.96526939  1
  C  C1_2  1  0.33333350  0.66666650  0.46526939  1
  C  C1_3  1  0.33333350  0.66666650  0.96526939  1
  C  C1_4  1  0.83333350  0.16666650  0.46526939  1
  C  C1_5  1  0.83333350  0.16666650  0.96526939  1
  C  C1_6  1  0.83333350  0.66666650  0.46526939  1
  C  C1_7  1  0.83333350  0.66666650  0.96526939  1
  C  C2_0  1  0.16666650  0.33333350  0.03473061  1
  C  C2_1  1  0.16666650  0.33333350  0.53473061  1
  C  C2_2  1  0.16666650  0.83333350  0.03473061  1
  C  C2_3  1  0.16666650  0.83333350  0.53473061  1
  C  C2_4  1  0.66666650  0.33333350  0.03473061  1
  C  C2_5  1  0.66666650  0.33333350  0.53473061  1
  C  C2_6  1  0.66666650  0.83333350  0.03473061  1
  C  C2_7  1  0.66666650  0.83333350  0.53473061  1
  C  C3_0  1  0.33333350  0.16666650  0.28473061  1
  C  C3_1  1  0.33333350  0.16666650  0.78473061  1
  C  C3_2  1  0.33333350  0.66666650  0.28473061  1
  C  C3_3  1  0.33333350  0.66666650  0.78473061  1
  C  C3_4  1  0.83333350  0.16666650  0.28473061  1
  C  C3_5  1  0.83333350  0.16666650  0.78473061  1
  C  C3_6  1  0.83333350  0.66666650  0.28473061  1
  C  C3_7  1  0.83333350  0.66666650  0.78473061  1
loop_
_geom_bond_atom_site_label_1
_geom_bond_atom_site_label_2
_geom_bond_distance
_geom_bond_site_symmetry_2
Al0_0 Ti1_2 2.891129 1_545
Al0_0 Ti2_2 2.891129 1_545
Al0_0 Ti2_0 2.891131 1_555
Al0_0 Ti1_0 2.891131 1_555
Al0_0 Ti2_6 2.891131 1_445
Al0_0 Ti1_6 2.891131 1_445
Al0_0 Al0_2 3.071588 1_555
Al0_0 Al0_2 3.071588 1_545
Al0_0 Al0_4 3.071588 1_455
Al0_0 Al0_4 3.071589 1_555
Al0_0 Al0_6 3.071589 1_555
Al0_0 Al0_6 3.071589 1_445
Al0_1 Ti1_3 2.891129 1_545
Al0_1 Ti2_3 2.891129 1_545
Al0_1 Ti1_1 2.891131 1_555
Al0_1 Ti2_1 2.891131 1_555
Al0_1 Ti2_7 2.891131 1_445
Al0_1 Ti1_7 2.891131 1_445
Al0_1 Al0_3 3.071588 1_555
Al0_1 Al0_3 3.071588 1_545
Al0_1 Al0_5 3.071588 1_455
Al0_1 Al0_5 3.071589 1_555
Al0_1 Al0_7 3.071589 1_555
Al0_1 Al0_7 3.071589 1_445
Al0_2 Ti2_0 2.891129 1_555
Al0_2 Ti1_0 2.891129 1_555
Al0_2 Ti1_2 2.891131 1_555
Al0_2 Ti2_2 2.891131 1_555
Al0_2 Ti2_4 2.891131 1_455
Al0_2 Ti1_4 2.891131 1_455
Al0_2 Al0_6 3.071588 1_555
Al0_2 Al0_6 3.071588 1_455
Al0_2 Al0_4 3.071589 1_455
Al0_2 Al0_4 3.071589 1_565
Al0_3 Ti2_1 2.891129 1_555
Al0_3 Ti1_1 2.891129 1_555
Al0_3 Ti2_3 2.891131 1_555
Al0_3 Ti1_3 2.891131 1_555
Al0_3 Ti2_5 2.891131 1_455
Al0_3 Ti1_5 2.891131 1_455
Al0_3 Al0_7 3.071588 1_555
Al0_3 Al0_7 3.071588 1_455
Al0_3 Al0_5 3.071589 1_455
Al0_3 Al0_5 3.071589 1_565
Al0_4 Ti2_6 2.891129 1_545
Al0_4 Ti1_6 2.891129 1_545
Al0_4 Ti1_4 2.891131 1_555
Al0_4 Ti2_4 2.891131 1_555
Al0_4 Ti1_2 2.891131 1_545
Al0_4 Ti2_2 2.891131 1_545
Al0_4 Al0_6 3.071588 1_545
Al0_4 Al0_6 3.071588 1_555
Al0_5 Ti1_7 2.891129 1_545
Al0_5 Ti2_7 2.891129 1_545
Al0_5 Ti2_5 2.891131 1_555
Al0_5 Ti1_5 2.891131 1_555
Al0_5 Ti1_3 2.891131 1_545
Al0_5 Ti2_3 2.891131 1_545
Al0_5 Al0_7 3.071588 1_545
Al0_5 Al0_7 3.071588 1_555
Al0_6 Ti2_4 2.891129 1_555
Al0_6 Ti1_4 2.891129 1_555
Al0_6 Ti2_6 2.891131 1_555
Al0_6 Ti1_6 2.891131 1_555
Al0_6 Ti2_0 2.891131 1_555
Al0_6 Ti1_0 2.891131 1_555
Al0_7 Ti1_5 2.891129 1_555
Al0_7 Ti2_5 2.891129 1_555
Al0_7 Ti2_7 2.891131 1_555
Al0_7 Ti1_7 2.891131 1_555
Al0_7 Ti2_1 2.891131 1_555
Al0_7 Ti1_1 2.891131 1_555
Al1_0 Ti3_4 2.891129 1_455
Al1_0 Ti0_4 2.891129 1_455
Al1_0 Ti3_6 2.891131 1_445
Al1_0 Ti0_6 2.891131 1_445
Al1_0 Ti3_0 2.891131 1_555
Al1_0 Ti0_0 2.891131 1_555
Al1_0 Al1_2 3.071588 1_555
Al1_0 Al1_2 3.071588 1_545
Al1_0 Al1_4 3.071588 1_455
Al1_0 Al1_4 3.071589 1_555
Al1_0 Al1_6 3.071589 1_555
Al1_0 Al1_6 3.071589 1_445
Al1_1 Ti3_5 2.891129 1_455
Al1_1 Ti0_5 2.891129 1_455
Al1_1 Ti3_7 2.891131 1_445
Al1_1 Ti0_7 2.891131 1_445
Al1_1 Ti3_1 2.891131 1_555
Al1_1 Ti0_1 2.891131 1_555
Al1_1 Al1_3 3.071588 1_555
Al1_1 Al1_3 3.071588 1_545
Al1_1 Al1_5 3.071588 1_455
Al1_1 Al1_5 3.071589 1_555
Al1_1 Al1_7 3.071589 1_555
Al1_1 Al1_7 3.071589 1_445
Al1_2 Ti3_6 2.891129 1_455
Al1_2 Ti0_6 2.891129 1_455
Al1_2 Ti0_4 2.891131 1_455
Al1_2 Ti3_4 2.891131 1_455
Al1_2 Ti0_2 2.891131 1_555
Al1_2 Ti3_2 2.891131 1_555
Al1_2 Al1_6 3.071588 1_555
Al1_2 Al1_6 3.071588 1_455
Al1_2 Al1_4 3.071589 1_455
Al1_2 Al1_4 3.071589 1_565
Al1_3 Ti3_7 2.891129 1_455
Al1_3 Ti0_7 2.891129 1_455
Al1_3 Ti3_5 2.891131 1_455
Al1_3 Ti0_5 2.891131 1_455
Al1_3 Ti3_3 2.891131 1_555
Al1_3 Ti0_3 2.891131 1_555
Al1_3 Al1_7 3.071588 1_555
Al1_3 Al1_7 3.071588 1_455
Al1_3 Al1_5 3.071589 1_455
Al1_3 Al1_5 3.071589 1_565
Al1_4 Ti0_0 2.891129 1_555
Al1_4 Ti3_0 2.891129 1_555
Al1_4 Ti3_2 2.891131 1_545
Al1_4 Ti0_2 2.891131 1_545
Al1_4 Ti3_4 2.891131 1_555
Al1_4 Ti0_4 2.891131 1_555
Al1_4 Al1_6 3.071588 1_545
Al1_4 Al1_6 3.071588 1_555
Al1_5 Ti3_1 2.891129 1_555
Al1_5 Ti0_1 2.891129 1_555
Al1_5 Ti3_3 2.891131 1_545
Al1_5 Ti0_3 2.891131 1_545
Al1_5 Ti3_5 2.891131 1_555
Al1_5 Ti0_5 2.891131 1_555
Al1_5 Al1_7 3.071588 1_545
Al1_5 Al1_7 3.071588 1_555
Al1_6 Ti3_2 2.891129 1_555
Al1_6 Ti0_2 2.891129 1_555
Al1_6 Ti3_0 2.891131 1_555
Al1_6 Ti0_0 2.891131 1_555
Al1_6 Ti0_6 2.891131 1_555
Al1_6 Ti3_6 2.891131 1_555
Al1_7 Ti3_3 2.891129 1_555
Al1_7 Ti0_3 2.891129 1_555
Al1_7 Ti3_1 2.891131 1_555
Al1_7 Ti0_1 2.891131 1_555
Al1_7 Ti3_7 2.891131 1_555
Al1_7 Ti0_7 2.891131 1_555
C0_0 Ti0_2 2.075836 1_555
C0_0 Ti0_4 2.075836 1_455
C0_0 Ti0_0 2.075840 1_555
C0_0 Ti4_2 2.195084 1_555
C0_0 Ti4_0 2.195086 1_555
C0_0 Ti4_6 2.195087 1_555
C0_1 Ti0_3 2.075836 1_555
C0_1 Ti0_5 2.075836 1_455
C0_1 Ti0_1 2.075840 1_555
C0_1 Ti4_3 2.195084 1_555
C0_1 Ti4_1 2.195086 1_555
C0_1 Ti4_7 2.195087 1_555
C0_2 Ti0_0 2.075836 1_565
C0_2 Ti0_6 2.075836 1_455
C0_2 Ti0_2 2.075840 1_555
C0_2 Ti4_0 2.195084 1_565
C0_2 Ti4_2 2.195086 1_555
C0_2 Ti4_4 2.195087 1_565
C0_3 Ti0_1 2.075836 1_565
C0_3 Ti0_7 2.075836 1_455
C0_3 Ti0_3 2.075840 1_555
C0_3 Ti4_1 2.195084 1_565
C0_3 Ti4_3 2.195086 1_555
C0_3 Ti4_5 2.195087 1_565
C0_4 Ti0_6 2.075836 1_555
C0_4 Ti0_0 2.075836 1_555
C0_4 Ti0_4 2.075840 1_555
C0_4 Ti4_6 2.195084 1_555
C0_4 Ti4_4 2.195086 1_555
C0_4 Ti4_2 2.195087 1_655
C0_5 Ti0_7 2.075836 1_555
C0_5 Ti0_1 2.075836 1_555
C0_5 Ti0_5 2.075840 1_555
C0_5 Ti4_7 2.195084 1_555
C0_5 Ti4_5 2.195086 1_555
C0_5 Ti4_3 2.195087 1_655
C0_6 Ti0_4 2.075836 1_565
C0_6 Ti0_2 2.075836 1_555
C0_6 Ti0_6 2.075840 1_555
C0_6 Ti4_4 2.195084 1_565
C0_6 Ti4_6 2.195086 1_555
C0_6 Ti4_0 2.195087 1_665
C0_7 Ti0_5 2.075836 1_565
C0_7 Ti0_3 2.075836 1_555
C0_7 Ti0_7 2.075840 1_555
C0_7 Ti4_5 2.195084 1_565
C0_7 Ti4_7 2.195086 1_555
C0_7 Ti4_1 2.195087 1_665
C1_0 Ti1_2 2.075836 1_545
C1_0 Ti1_4 2.075836 1_555
C1_0 Ti1_0 2.075840 1_555
C1_0 Ti5_5 2.195084 1_555
C1_0 Ti5_7 2.195086 1_555
C1_0 Ti5_1 2.195087 1_555
C1_1 Ti1_3 2.075836 1_545
C1_1 Ti1_5 2.075836 1_555
C1_1 Ti1_1 2.075840 1_555
C1_1 Ti5_4 2.195084 1_556
C1_1 Ti5_6 2.195086 1_556
C1_1 Ti5_0 2.195087 1_556
C1_2 Ti1_0 2.075836 1_555
C1_2 Ti1_6 2.075836 1_555
C1_2 Ti1_2 2.075840 1_555
C1_2 Ti5_7 2.195084 1_555
C1_2 Ti5_5 2.195086 1_565
C1_2 Ti5_3 2.195087 1_555
C1_3 Ti1_1 2.075836 1_555
C1_3 Ti1_7 2.075836 1_555
C1_3 Ti1_3 2.075840 1_555
C1_3 Ti5_6 2.195084 1_556
C1_3 Ti5_4 2.195086 1_566
C1_3 Ti5_2 2.195087 1_556
C1_4 Ti1_6 2.075836 1_545
C1_4 Ti1_0 2.075836 1_655
C1_4 Ti1_4 2.075840 1_555
C1_4 Ti5_1 2.195084 1_655
C1_4 Ti5_3 2.195086 1_655
C1_4 Ti5_5 2.195087 1_555
C1_5 Ti1_7 2.075836 1_545
C1_5 Ti1_1 2.075836 1_655
C1_5 Ti1_5 2.075840 1_555
C1_5 Ti5_0 2.195084 1_656
C1_5 Ti5_2 2.195086 1_656
C1_5 Ti5_4 2.195087 1_556
C1_6 Ti1_4 2.075836 1_555
C1_6 Ti1_2 2.075836 1_655
C1_6 Ti1_6 2.075840 1_555
C1_6 Ti5_3 2.195084 1_655
C1_6 Ti5_1 2.195086 1_665
C1_6 Ti5_7 2.195087 1_555
C1_7 Ti1_5 2.075836 1_555
C1_7 Ti1_3 2.075836 1_655
C1_7 Ti1_7 2.075840 1_555
C1_7 Ti5_2 2.195084 1_656
C1_7 Ti5_0 2.195086 1_666
C1_7 Ti5_6 2.195087 1_556
C2_0 Ti3_2 2.075836 1_555
C2_0 Ti3_4 2.075836 1_455
C2_0 Ti3_0 2.075840 1_555
C2_0 Ti5_2 2.195084 1_555
C2_0 Ti5_0 2.195086 1_555
C2_0 Ti5_6 2.195087 1_555
C2_1 Ti3_3 2.075836 1_555
C2_1 Ti3_5 2.075836 1_455
C2_1 Ti3_1 2.075840 1_555
C2_1 Ti5_3 2.195084 1_555
C2_1 Ti5_1 2.195086 1_555
C2_1 Ti5_7 2.195087 1_555
C2_2 Ti3_0 2.075836 1_565
C2_2 Ti3_6 2.075836 1_455
C2_2 Ti3_2 2.075840 1_555
C2_2 Ti5_0 2.195084 1_565
C2_2 Ti5_2 2.195086 1_555
C2_2 Ti5_4 2.195087 1_565
C2_3 Ti3_1 2.075836 1_565
C2_3 Ti3_7 2.075836 1_455
C2_3 Ti3_3 2.075840 1_555
C2_3 Ti5_1 2.195084 1_565
C2_3 Ti5_3 2.195086 1_555
C2_3 Ti5_5 2.195087 1_565
C2_4 Ti3_6 2.075836 1_555
C2_4 Ti3_0 2.075836 1_555
C2_4 Ti3_4 2.075840 1_555
C2_4 Ti5_6 2.195084 1_555
C2_4 Ti5_4 2.195086 1_555
C2_4 Ti5_2 2.195087 1_655
C2_5 Ti3_7 2.075836 1_555
C2_5 Ti3_1 2.075836 1_555
C2_5 Ti3_5 2.075840 1_555
C2_5 Ti5_7 2.195084 1_555
C2_5 Ti5_5 2.195086 1_555
C2_5 Ti5_3 2.195087 1_655
C2_6 Ti3_4 2.075836 1_565
C2_6 Ti3_2 2.075836 1_555
C2_6 Ti3_6 2.075840 1_555
C2_6 Ti5_4 2.195084 1_565
C2_6 Ti5_6 2.195086 1_555
C2_6 Ti5_0 2.195087 1_665
C2_7 Ti3_5 2.075836 1_565
C2_7 Ti3_3 2.075836 1_555
C2_7 Ti3_7 2.075840 1_555
C2_7 Ti5_5 2.195084 1_565
C2_7 Ti5_7 2.195086 1_555
C2_7 Ti5_1 2.195087 1_665
C3_0 Ti2_2 2.075836 1_545
C3_0 Ti2_4 2.075836 1_555
C3_0 Ti2_0 2.075840 1_555
C3_0 Ti4_4 2.195084 1_555
C3_0 Ti4_6 2.195086 1_555
C3_0 Ti4_0 2.195087 1_555
C3_1 Ti2_3 2.075836 1_545
C3_1 Ti2_5 2.075836 1_555
C3_1 Ti2_1 2.075840 1_555
C3_1 Ti4_5 2.195084 1_555
C3_1 Ti4_7 2.195086 1_555
C3_1 Ti4_1 2.195087 1_555
C3_2 Ti2_0 2.075836 1_555
C3_2 Ti2_6 2.075836 1_555
C3_2 Ti2_2 2.075840 1_555
C3_2 Ti4_6 2.195084 1_555
C3_2 Ti4_4 2.195086 1_565
C3_2 Ti4_2 2.195087 1_555
C3_3 Ti2_1 2.075836 1_555
C3_3 Ti2_7 2.075836 1_555
C3_3 Ti2_3 2.075840 1_555
C3_3 Ti4_7 2.195084 1_555
C3_3 Ti4_5 2.195086 1_565
C3_3 Ti4_3 2.195087 1_555
C3_4 Ti2_6 2.075836 1_545
C3_4 Ti2_0 2.075836 1_655
C3_4 Ti2_4 2.075840 1_555
C3_4 Ti4_0 2.195084 1_655
C3_4 Ti4_2 2.195086 1_655
C3_4 Ti4_4 2.195087 1_555
C3_5 Ti2_7 2.075836 1_545
C3_5 Ti2_1 2.075836 1_655
C3_5 Ti2_5 2.075840 1_555
C3_5 Ti4_1 2.195084 1_655
C3_5 Ti4_3 2.195086 1_655
C3_5 Ti4_5 2.195087 1_555
C3_6 Ti2_4 2.075836 1_555
C3_6 Ti2_2 2.075836 1_655
C3_6 Ti2_6 2.075840 1_555
C3_6 Ti4_2 2.195084 1_655
C3_6 Ti4_0 2.195086 1_665
C3_6 Ti4_6 2.195087 1_555
C3_7 Ti2_5 2.075836 1_555
C3_7 Ti2_3 2.075836 1_655
C3_7 Ti2_7 2.075840 1_555
C3_7 Ti4_3 2.195084 1_655
C3_7 Ti4_1 2.195086 1_665
C3_7 Ti4_7 2.195087 1_555
