# generated using pymatgen
data_CsSrP
_symmetry_space_group_name_H-M   'P 1'
_cell_length_a   5.38313491
_cell_length_b   5.38313491
_cell_length_c   8.12749800
_cell_angle_alpha   90.00000000
_cell_angle_beta   90.00000000
_cell_angle_gamma   90.00000000
_symmetry_Int_Tables_number   1
_chemical_formula_structural   CsSrP
_chemical_formula_sum   'Cs2 Sr2 P2'
_cell_volume   235.51978656
_cell_formula_units_Z   2
loop_
 _symmetry_equiv_pos_site_id
 _symmetry_equiv_pos_as_xyz
  1  'x, y, z'
loop_
 _atom_site_type_symbol
 _atom_site_label
 _atom_site_symmetry_multiplicity
 _atom_site_fract_x
 _atom_site_fract_y
 _atom_site_fract_z
 _atom_site_occupancy
  Cs  Cs0  1  0.50000100  0.00000000  0.38172176  1
  Cs  Cs1  1  0.00000000  0.50000100  0.61827824  1
  Sr  Sr0  1  0.00000000  0.00000000  0.00000000  1
  Sr  Sr1  1  0.50000100  0.50000100  0.00000000  1
  P  P0  1  0.00000000  0.50000100  0.17993379  1
  P  P1  1  0.50000100  0.00000000  0.82006621  1
loop_
_geom_bond_atom_site_label_1
_geom_bond_atom_site_label_2
_geom_bond_distance
_geom_bond_site_symmetry_2
Cs0 P1 3.562644 1_555
Cs1 P0 3.562644 1_555
P0 Sr0 3.063193 1_565
P0 Sr1 3.063193 1_455
P0 Sr1 3.063203 1_555
P0 Sr0 3.063203 1_555
P1 Sr1 3.063193 1_546
P1 Sr0 3.063193 1_656
P1 Sr1 3.063203 1_556
P1 Sr0 3.063203 1_556
