# generated using pymatgen
data_BeNb2B5Rh2
_symmetry_space_group_name_H-M   'P 1'
_cell_length_a   9.44932673
_cell_length_b   9.44932654
_cell_length_c   3.17660011
_cell_angle_alpha   90.00000000
_cell_angle_beta   90.00000000
_cell_angle_gamma   159.99089365
_symmetry_Int_Tables_number   1
_chemical_formula_structural   BeNb2B5Rh2
_chemical_formula_sum   'Be1 Nb2 B5 Rh2'
_cell_volume   97.05223755
_cell_formula_units_Z   1
loop_
 _symmetry_equiv_pos_site_id
 _symmetry_equiv_pos_as_xyz
  1  'x, y, z'
loop_
 _atom_site_type_symbol
 _atom_site_label
 _atom_site_symmetry_multiplicity
 _atom_site_fract_x
 _atom_site_fract_y
 _atom_site_fract_z
 _atom_site_occupancy
  Be  Be0  1  0.68109965  0.31889935  0.25000100  1
  Nb  Nb0  1  0.07184449  0.92815451  0.25000100  1
  Nb  Nb1  1  0.92656606  0.07343294  0.74999900  1
  B  B0  1  0.47442475  0.52557525  0.25000100  1
  B  B1  1  0.37603787  0.62396113  0.25000100  1
  B  B2  1  0.62044342  0.37955558  0.74999900  1
  B  B3  1  0.52362811  0.47637189  0.74999900  1
  B  B4  1  0.32156857  0.67843043  0.74999900  1
  Rh  Rh0  1  0.80196842  0.19803158  0.25000100  1
  Rh  Rh1  1  0.20241465  0.79758535  0.74999900  1
loop_
_geom_bond_atom_site_label_1
_geom_bond_atom_site_label_2
_geom_bond_distance
_geom_bond_site_symmetry_2
Be0 Rh0 2.249513 1_555
Be0 Rh1 2.318378 1_545
Be0 Rh1 2.318381 1_655
Be0 Rh1 2.318387 1_544
Be0 Rh1 2.318389 1_654
Nb1 Rh0 2.810715 1_555
Nb1 Rh0 2.810722 1_556
B0 B1 1.831096 1_555
B0 B3 1.833372 1_555
B0 B3 1.833383 1_554
B0 Nb0 2.445859 1_655
B0 Nb0 2.445861 1_545
B0 Nb1 2.451707 1_565
B0 Nb1 2.451709 1_455
B0 Nb1 2.451715 1_564
B0 Nb1 2.451717 1_454
B1 B4 1.884238 1_555
B1 B4 1.884249 1_554
B1 Rh0 2.143642 1_455
B1 Rh0 2.143644 1_565
B1 Nb1 2.470195 1_455
B1 Nb1 2.470195 1_565
B1 Nb1 2.470203 1_454
B1 Nb1 2.470203 1_564
B2 B3 1.801866 1_555
B2 Be0 1.948607 1_555
B2 Be0 1.948617 1_556
B2 Rh1 2.241034 1_545
B2 Rh1 2.241036 1_655
B2 Nb0 2.456750 1_655
B2 Nb0 2.456750 1_545
B2 Nb0 2.456758 1_656
B2 Nb0 2.456758 1_546
B3 Nb1 2.440914 1_565
B3 Nb1 2.440916 1_455
B3 Nb0 2.454140 1_655
B3 Nb0 2.454142 1_545
B3 Nb0 2.454148 1_656
B3 Nb0 2.454150 1_546
B4 Rh1 2.217616 1_555
B4 Rh0 2.313134 1_455
B4 Rh0 2.313136 1_565
B4 Rh0 2.313143 1_456
B4 Rh0 2.313145 1_566
B4 Nb1 2.552155 1_455
B4 Nb1 2.552156 1_565
