# generated using pymatgen
data_Rb2TaAgTe4
_symmetry_space_group_name_H-M   'P 1'
_cell_length_a   15.17094484
_cell_length_b   13.58885759
_cell_length_c   8.12463459
_cell_angle_alpha   84.67058028
_cell_angle_beta   63.10587458
_cell_angle_gamma   32.22354855
_symmetry_Int_Tables_number   1
_chemical_formula_structural   Rb2TaAgTe4
_chemical_formula_sum   'Rb4 Ta2 Ag2 Te8'
_cell_volume   631.54968423
_cell_formula_units_Z   2
loop_
 _symmetry_equiv_pos_site_id
 _symmetry_equiv_pos_as_xyz
  1  'x, y, z'
loop_
 _atom_site_type_symbol
 _atom_site_label
 _atom_site_symmetry_multiplicity
 _atom_site_fract_x
 _atom_site_fract_y
 _atom_site_fract_z
 _atom_site_occupancy
  Rb  Rb0  1  0.43111451  0.43111451  0.06888549  1
  Rb  Rb1  1  0.81888549  0.81888549  0.18111451  1
  Rb  Rb2  1  0.06888549  0.06888549  0.43111451  1
  Rb  Rb3  1  0.18111451  0.18111451  0.81888549  1
  Ta  Ta0  1  0.00000000  0.00000000  0.00000000  1
  Ta  Ta1  1  0.25000000  0.25000000  0.25000000  1
  Ag  Ag0  1  0.50000000  0.50000000  0.50000000  1
  Ag  Ag1  1  0.75000000  0.75000000  0.75000000  1
  Te  Te0  1  0.72739442  0.38953150  0.06517374  1
  Te  Te1  1  0.81789834  0.06517374  0.38953150  1
  Te  Te2  1  0.06517374  0.81789834  0.72739442  1
  Te  Te3  1  0.38953150  0.72739442  0.81789834  1
  Te  Te4  1  0.52260558  0.86046850  0.18482626  1
  Te  Te5  1  0.86046850  0.52260558  0.43210166  1
  Te  Te6  1  0.18482626  0.43210166  0.52260558  1
  Te  Te7  1  0.43210166  0.18482626  0.86046850  1
loop_
_geom_bond_atom_site_label_1
_geom_bond_atom_site_label_2
_geom_bond_distance
_geom_bond_site_symmetry_2
Rb0 Te2 3.767610 1_644
Rb0 Te1 3.767613 1_465
Rb0 Te7 3.874718 1_554
Rb0 Te6 3.874727 1_555
Rb0 Te2 4.006585 1_555
Rb0 Te1 4.006598 1_554
Rb0 Te0 4.013357 1_555
Rb0 Te3 4.013365 1_554
Rb1 Te6 3.767610 1_565
Rb1 Te7 3.767613 1_654
Rb1 Te1 3.874718 1_565
Rb1 Te2 3.874727 1_654
Rb1 Te6 4.006585 1_654
Rb1 Te7 4.006598 1_565
Rb1 Te4 4.013357 1_555
Rb1 Te5 4.013365 1_555
Rb2 Te0 3.767607 1_456
Rb2 Te3 3.767621 1_544
Rb2 Te5 3.874743 1_455
Rb2 Te4 3.874746 1_545
Rb2 Te0 4.006591 1_545
Rb2 Te3 4.006594 1_455
Rb2 Te2 4.013379 1_545
Rb2 Te1 4.013388 1_455
Rb3 Te4 3.767607 1_545
Rb3 Te5 3.767621 1_456
Rb3 Te3 3.874743 1_545
Rb3 Te0 3.874746 1_456
Rb3 Te4 4.006591 1_456
Rb3 Te5 4.006594 1_545
Rb3 Te6 4.013379 1_555
Rb3 Te7 4.013388 1_555
Ta0 Te3 2.627466 1_544
Ta0 Te0 2.627471 1_455
Ta0 Te1 2.627478 1_455
Ta0 Te2 2.627491 1_544
Ta1 Te5 2.627466 1_455
Ta1 Te4 2.627471 1_545
Ta1 Te7 2.627478 1_554
Ta1 Te6 2.627491 1_555
Ag0 Te3 2.798660 1_555
Ag0 Te0 2.798672 1_555
Ag0 Te1 2.798678 1_555
Ag0 Te2 2.798682 1_555
Ag0 Ta0 3.202277 1_655
Ag0 Ta0 3.202277 1_566
Ag1 Te5 2.798660 1_555
Ag1 Te4 2.798672 1_556
Ag1 Te7 2.798678 1_565
Ag1 Te6 2.798682 1_655
Ag1 Ta1 3.202277 1_655
Ag1 Ta1 3.202277 1_566
