# generated using pymatgen
data_K4Si2AgAu6
_symmetry_space_group_name_H-M   'P 1'
_cell_length_a   9.84457205
_cell_length_b   9.84457201
_cell_length_c   9.84457259
_cell_angle_alpha   38.42240979
_cell_angle_beta   38.42240695
_cell_angle_gamma   38.42241210
_symmetry_Int_Tables_number   1
_chemical_formula_structural   K4Si2AgAu6
_chemical_formula_sum   'K4 Si2 Ag1 Au6'
_cell_volume   331.01858544
_cell_formula_units_Z   1
loop_
 _symmetry_equiv_pos_site_id
 _symmetry_equiv_pos_as_xyz
  1  'x, y, z'
loop_
 _atom_site_type_symbol
 _atom_site_label
 _atom_site_symmetry_multiplicity
 _atom_site_fract_x
 _atom_site_fract_y
 _atom_site_fract_z
 _atom_site_occupancy
  K  K0  1  0.68154963  0.68154963  0.68154963  1
  K  K1  1  0.31845037  0.31845037  0.31845037  1
  K  K2  1  0.80790303  0.80790303  0.80790303  1
  K  K3  1  0.19209697  0.19209697  0.19209697  1
  Si  Si0  1  0.54430188  0.54430188  0.54430188  1
  Si  Si1  1  0.45569812  0.45569812  0.45569812  1
  Ag  Ag0  1  0.00000000  0.00000000  0.00000000  1
  Au  Au0  1  0.22747771  0.22747771  0.79776080  1
  Au  Au1  1  0.79776080  0.22747771  0.22747771  1
  Au  Au2  1  0.22747771  0.79776080  0.22747771  1
  Au  Au3  1  0.77252229  0.20223920  0.77252229  1
  Au  Au4  1  0.77252229  0.77252229  0.20223920  1
  Au  Au5  1  0.20223920  0.77252229  0.77252229  1
loop_
_geom_bond_atom_site_label_1
_geom_bond_atom_site_label_2
_geom_bond_distance
_geom_bond_site_symmetry_2
Ag0 Au0 2.807061 1_554
Ag0 Au4 2.807061 1_445
Ag0 Au1 2.807061 1_455
Ag0 Au5 2.807061 1_544
Ag0 Au2 2.807062 1_545
Ag0 Au3 2.807062 1_454
Au0 Si1 2.373847 1_555
Au0 Au1 2.784024 1_456
Au0 Au2 2.784024 1_546
Au0 K3 3.356459 1_556
Au0 K1 3.447168 1_555
Au0 K2 3.603778 1_455
Au0 K2 3.603778 1_545
Au0 K0 3.761992 1_545
Au0 K0 3.761992 1_455
Au1 Si1 2.373848 1_555
Au1 Au2 2.784024 1_645
Au1 K3 3.356458 1_655
Au1 K1 3.447168 1_555
Au1 K2 3.603778 1_554
Au1 K2 3.603778 1_545
Au1 K0 3.761992 1_545
Au1 K0 3.761993 1_554
Au2 Si1 2.373848 1_555
Au2 K3 3.356458 1_565
Au2 K1 3.447168 1_555
Au2 K2 3.603777 1_554
Au2 K2 3.603778 1_455
Au2 K0 3.761992 1_455
Au2 K0 3.761992 1_554
Au3 Si0 2.373848 1_555
Au3 Au4 2.784024 1_546
Au3 Au5 2.784024 1_645
Au3 K2 3.356458 1_545
Au3 K0 3.447168 1_555
Au3 K3 3.603777 1_556
Au3 K3 3.603778 1_655
Au3 K1 3.761992 1_655
Au3 K1 3.761992 1_556
Au4 Si0 2.373847 1_555
Au4 Au5 2.784024 1_654
Au4 K2 3.356459 1_554
Au4 K0 3.447168 1_555
Au4 K3 3.603778 1_655
Au4 K3 3.603778 1_565
Au4 K1 3.761992 1_565
Au4 K1 3.761992 1_655
Au5 Si0 2.373848 1_555
Au5 K2 3.356458 1_455
Au5 K0 3.447168 1_555
Au5 K3 3.603778 1_556
Au5 K3 3.603778 1_565
Au5 K1 3.761992 1_565
Au5 K1 3.761993 1_556
