# generated using pymatgen
data_Hf6Al16Pd6Rh
_symmetry_space_group_name_H-M   'P 1'
_cell_length_a   8.68299904
_cell_length_b   8.68299936
_cell_length_c   8.68299965
_cell_angle_alpha   59.99999891
_cell_angle_beta   59.99999769
_cell_angle_gamma   59.99999753
_symmetry_Int_Tables_number   1
_chemical_formula_structural   Hf6Al16Pd6Rh
_chemical_formula_sum   'Hf6 Al16 Pd6 Rh1'
_cell_volume   462.90757611
_cell_formula_units_Z   1
loop_
 _symmetry_equiv_pos_site_id
 _symmetry_equiv_pos_as_xyz
  1  'x, y, z'
loop_
 _atom_site_type_symbol
 _atom_site_label
 _atom_site_symmetry_multiplicity
 _atom_site_fract_x
 _atom_site_fract_y
 _atom_site_fract_z
 _atom_site_occupancy
  Hf  Hf0  1  0.68291411  0.31708489  0.31708489  1
  Hf  Hf1  1  0.31708489  0.68291411  0.68291411  1
  Hf  Hf2  1  0.31708489  0.68291411  0.31708489  1
  Hf  Hf3  1  0.31708489  0.31708489  0.68291411  1
  Hf  Hf4  1  0.68291411  0.31708489  0.68291411  1
  Hf  Hf5  1  0.68291411  0.68291411  0.31708489  1
  Al  Al0  1  0.33376682  0.33376682  0.33376682  1
  Al  Al1  1  0.33376682  0.33376682  0.99869855  1
  Al  Al2  1  0.99869855  0.33376682  0.33376682  1
  Al  Al3  1  0.33376682  0.99869855  0.33376682  1
  Al  Al4  1  0.66623318  0.66623318  0.66623318  1
  Al  Al5  1  0.66623318  0.66623318  0.00130145  1
  Al  Al6  1  0.66623318  0.00130145  0.66623318  1
  Al  Al7  1  0.00130145  0.66623318  0.66623318  1
  Al  Al8  1  0.11881384  0.11881384  0.11881384  1
  Al  Al9  1  0.11881384  0.11881384  0.64355947  1
  Al  Al10  1  0.64355947  0.11881384  0.11881384  1
  Al  Al11  1  0.11881384  0.64355947  0.11881384  1
  Al  Al12  1  0.88118516  0.88118516  0.88118516  1
  Al  Al13  1  0.88118516  0.88118516  0.35644353  1
  Al  Al14  1  0.88118516  0.35644353  0.88118516  1
  Al  Al15  1  0.35644353  0.88118516  0.88118516  1
  Pd  Pd0  1  0.50000000  0.00000000  0.00000000  1
  Pd  Pd1  1  0.00000000  0.50000000  0.50000000  1
  Pd  Pd2  1  0.00000000  0.50000000  0.00000000  1
  Pd  Pd3  1  0.00000000  0.00000000  0.50000000  1
  Pd  Pd4  1  0.50000000  0.00000000  0.50000000  1
  Pd  Pd5  1  0.50000000  0.50000000  0.00000000  1
  Rh  Rh0  1  0.00000000  0.00000000  0.00000000  1
loop_
_geom_bond_atom_site_label_1
_geom_bond_atom_site_label_2
_geom_bond_distance
_geom_bond_site_symmetry_2
Hf0 Hf2 3.176495 1_555
Hf0 Hf3 3.176495 1_555
Hf0 Hf5 3.176495 1_555
Hf0 Hf4 3.176495 1_555
Hf0 Pd4 3.178503 1_555
Hf0 Pd5 3.178503 1_555
Hf0 Pd2 3.178515 1_655
Hf0 Pd3 3.178515 1_655
Hf1 Hf4 3.176495 1_555
Hf1 Hf5 3.176495 1_555
Hf1 Hf3 3.176495 1_555
Hf1 Hf2 3.176495 1_555
Hf1 Pd2 3.178506 1_556
Hf1 Pd3 3.178506 1_565
Hf1 Pd4 3.178518 1_565
Hf1 Pd5 3.178518 1_556
Hf2 Hf5 3.176495 1_555
Hf2 Hf3 3.176495 1_555
Hf2 Pd1 3.178503 1_555
Hf2 Pd5 3.178503 1_555
Hf2 Pd3 3.178515 1_565
Hf2 Pd0 3.178515 1_565
Hf3 Hf4 3.176495 1_555
Hf3 Pd1 3.178503 1_555
Hf3 Pd4 3.178503 1_555
Hf3 Pd2 3.178515 1_556
Hf3 Pd0 3.178515 1_556
Hf4 Hf5 3.176495 1_555
Hf4 Pd3 3.178506 1_655
Hf4 Pd0 3.178506 1_556
Hf4 Pd1 3.178518 1_655
Hf4 Pd5 3.178518 1_556
Hf5 Pd2 3.178506 1_655
Hf5 Pd0 3.178506 1_565
Hf5 Pd1 3.178518 1_655
Hf5 Pd4 3.178518 1_565
Al0 Pd1 2.506583 1_555
Al0 Pd4 2.506583 1_555
Al0 Pd5 2.506583 1_555
Al0 Hf0 2.894055 1_555
Al0 Hf2 2.894055 1_555
Al0 Hf3 2.894056 1_555
Al1 Pd2 2.506580 1_556
Al1 Pd0 2.506580 1_556
Al1 Pd5 2.506588 1_556
Al1 Hf4 2.894059 1_555
Al1 Hf1 2.894059 1_555
Al1 Hf3 2.894064 1_555
Al2 Pd3 2.506580 1_655
Al2 Pd2 2.506581 1_655
Al2 Pd1 2.506588 1_655
Al2 Hf5 2.894059 1_555
Al2 Hf4 2.894059 1_555
Al2 Hf0 2.894064 1_555
Al3 Pd3 2.506580 1_565
Al3 Pd0 2.506581 1_565
Al3 Pd4 2.506588 1_565
Al3 Hf5 2.894059 1_555
Al3 Hf1 2.894059 1_555
Al3 Hf2 2.894064 1_555
Al4 Pd1 2.506583 1_655
Al4 Pd4 2.506583 1_565
Al4 Pd5 2.506583 1_556
Al4 Hf1 2.894072 1_555
Al4 Hf4 2.894072 1_555
Al4 Hf5 2.894072 1_555
Al5 Pd2 2.506580 1_655
Al5 Pd0 2.506580 1_565
Al5 Pd5 2.506588 1_555
Al5 Hf5 2.894046 1_555
Al5 Hf2 2.894060 1_555
Al5 Hf0 2.894060 1_555
Al6 Pd3 2.506580 1_655
Al6 Pd0 2.506581 1_556
Al6 Pd4 2.506588 1_555
Al6 Hf4 2.894046 1_555
Al6 Hf3 2.894060 1_555
Al6 Hf0 2.894060 1_555
Al7 Pd3 2.506580 1_565
Al7 Pd2 2.506581 1_556
Al7 Pd1 2.506588 1_555
Al7 Hf1 2.894046 1_555
Al7 Hf3 2.894060 1_555
Al7 Hf2 2.894060 1_555
Al8 Rh0 2.527042 1_555
Al8 Pd0 2.705318 1_555
Al8 Pd2 2.705318 1_555
Al8 Pd3 2.705318 1_555
Al8 Hf0 3.191403 1_455
Al8 Hf2 3.191403 1_545
Al8 Hf3 3.191403 1_554
Al9 Rh0 2.527035 1_556
Al9 Pd4 2.705318 1_555
Al9 Pd1 2.705318 1_555
Al9 Pd3 2.705325 1_555
Al9 Hf3 3.191387 1_555
Al9 Hf4 3.191409 1_455
Al9 Hf1 3.191409 1_545
Al10 Rh0 2.527035 1_655
Al10 Pd5 2.705318 1_555
Al10 Pd4 2.705318 1_555
Al10 Pd0 2.705325 1_555
Al10 Hf0 3.191387 1_555
Al10 Hf5 3.191409 1_545
Al10 Hf4 3.191409 1_554
Al11 Rh0 2.527035 1_565
Al11 Pd5 2.705318 1_555
Al11 Pd1 2.705318 1_555
Al11 Pd2 2.705325 1_555
Al11 Hf2 3.191387 1_555
Al11 Hf5 3.191409 1_455
Al11 Hf1 3.191409 1_554
Al12 Rh0 2.527063 1_666
Al12 Pd0 2.705310 1_566
Al12 Pd2 2.705310 1_656
Al12 Pd3 2.705310 1_665
Al12 Hf1 3.191403 1_655
Al12 Hf4 3.191403 1_565
Al12 Hf5 3.191403 1_556
Al13 Rh0 2.527056 1_665
Al13 Pd4 2.705310 1_565
Al13 Pd1 2.705310 1_655
Al13 Pd3 2.705317 1_665
Al13 Hf2 3.191401 1_655
Al13 Hf0 3.191401 1_565
Al13 Hf5 3.191409 1_555
Al14 Rh0 2.527056 1_656
Al14 Pd5 2.705310 1_556
Al14 Pd1 2.705310 1_655
Al14 Pd2 2.705317 1_656
Al14 Hf3 3.191401 1_655
Al14 Hf0 3.191402 1_556
Al14 Hf4 3.191409 1_555
Al15 Rh0 2.527056 1_566
Al15 Pd5 2.705310 1_556
Al15 Pd4 2.705310 1_565
Al15 Pd0 2.705317 1_566
Al15 Hf3 3.191401 1_565
Al15 Hf2 3.191402 1_556
Al15 Hf1 3.191409 1_555
