# generated using pymatgen
data_Lu6Nb3Al13Os7
_symmetry_space_group_name_H-M   'P 1'
_cell_length_a   8.93287559
_cell_length_b   8.93287688
_cell_length_c   8.93287493
_cell_angle_alpha   59.76628335
_cell_angle_beta   59.76627857
_cell_angle_gamma   59.76628379
_symmetry_Int_Tables_number   1
_chemical_formula_structural   Lu6Nb3Al13Os7
_chemical_formula_sum   'Lu6 Nb3 Al13 Os7'
_cell_volume   501.35814792
_cell_formula_units_Z   1
loop_
 _symmetry_equiv_pos_site_id
 _symmetry_equiv_pos_as_xyz
  1  'x, y, z'
loop_
 _atom_site_type_symbol
 _atom_site_label
 _atom_site_symmetry_multiplicity
 _atom_site_fract_x
 _atom_site_fract_y
 _atom_site_fract_z
 _atom_site_occupancy
  Lu  Lu0  1  0.71098881  0.71098881  0.28205885  1
  Lu  Lu1  1  0.29184432  0.70998261  0.29184432  1
  Lu  Lu2  1  0.70998261  0.29184432  0.29184432  1
  Lu  Lu3  1  0.29184432  0.29184432  0.70998261  1
  Lu  Lu4  1  0.71098881  0.28205885  0.71098881  1
  Lu  Lu5  1  0.28205885  0.71098881  0.71098881  1
  Nb  Nb0  1  0.87761915  0.87761915  0.36173725  1
  Nb  Nb1  1  0.87761915  0.36173725  0.87761915  1
  Nb  Nb2  1  0.36173725  0.87761915  0.87761915  1
  Al  Al0  1  0.88126077  0.88126077  0.88126077  1
  Al  Al1  1  0.12094605  0.12094605  0.63748485  1
  Al  Al2  1  0.12094605  0.63748485  0.12094605  1
  Al  Al3  1  0.63748485  0.12094605  0.12094605  1
  Al  Al4  1  0.12141424  0.12141424  0.12141424  1
  Al  Al5  1  0.66997617  0.66997617  0.99658001  1
  Al  Al6  1  0.66997617  0.99658001  0.66997617  1
  Al  Al7  1  0.99658001  0.66997617  0.66997617  1
  Al  Al8  1  0.66449519  0.66449519  0.66449519  1
  Al  Al9  1  0.33272830  0.33272830  0.00477436  1
  Al  Al10  1  0.33272830  0.00477436  0.33272830  1
  Al  Al11  1  0.00477436  0.33272830  0.33272830  1
  Al  Al12  1  0.33284346  0.33284346  0.33284346  1
  Os  Os0  1  0.00167222  0.00167222  0.00167222  1
  Os  Os1  1  0.99910646  0.99910646  0.49784020  1
  Os  Os2  1  0.50236461  0.99670624  0.50236461  1
  Os  Os3  1  0.99670624  0.50236461  0.50236461  1
  Os  Os4  1  0.50236461  0.50236461  0.99670624  1
  Os  Os5  1  0.99910646  0.49784020  0.99910646  1
  Os  Os6  1  0.49784020  0.99910646  0.99910646  1
loop_
_geom_bond_atom_site_label_1
_geom_bond_atom_site_label_2
_geom_bond_distance
_geom_bond_site_symmetry_2
Lu0 Nb0 3.050059 1_555
Lu0 Os5 3.162018 1_554
Lu0 Os6 3.162018 1_554
Lu0 Os3 3.230304 1_555
Lu0 Os2 3.230305 1_555
Lu1 Nb2 3.059217 1_554
Lu1 Nb0 3.059217 1_455
Lu1 Os1 3.167556 1_455
Lu1 Os6 3.167556 1_554
Lu1 Os4 3.216476 1_554
Lu1 Os3 3.216476 1_455
Lu2 Nb1 3.059217 1_554
Lu2 Nb0 3.059218 1_545
Lu2 Os5 3.167556 1_554
Lu2 Os1 3.167556 1_545
Lu2 Os4 3.216476 1_554
Lu2 Os2 3.216476 1_545
Lu3 Nb1 3.059217 1_455
Lu3 Nb2 3.059218 1_545
Lu3 Os5 3.167556 1_455
Lu3 Os6 3.167556 1_545
Lu3 Os3 3.216476 1_455
Lu3 Os2 3.216476 1_545
Lu4 Nb1 3.050059 1_555
Lu4 Os1 3.162018 1_545
Lu4 Os6 3.162018 1_545
Lu4 Os4 3.230304 1_555
Lu4 Os3 3.230305 1_555
Lu5 Nb2 3.050059 1_555
Lu5 Os5 3.162018 1_455
Lu5 Os1 3.162018 1_455
Lu5 Os4 3.230304 1_555
Lu5 Os2 3.230305 1_555
Nb0 Os0 2.618996 1_665
Nb0 Os2 2.731358 1_555
Nb0 Os3 2.731359 1_555
Nb0 Os1 2.770756 1_555
Nb1 Os0 2.618996 1_656
Nb1 Os3 2.731358 1_555
Nb1 Os4 2.731358 1_555
Nb1 Os5 2.770756 1_555
Nb2 Os0 2.618996 1_566
Nb2 Os2 2.731358 1_555
Nb2 Os4 2.731359 1_555
Nb2 Os6 2.770756 1_555
Al0 Os0 2.639366 1_666
Al0 Os1 2.793084 1_555
Al0 Os6 2.793085 1_555
Al0 Os5 2.793085 1_555
Al0 Lu0 2.967662 1_556
Al0 Lu5 2.967662 1_655
Al0 Lu4 2.967662 1_565
Al0 Al3 3.022634 1_566
Al0 Al2 3.022634 1_656
Al0 Al1 3.022634 1_665
Al1 Os0 2.648751 1_556
Al1 Os2 2.774317 1_545
Al1 Os3 2.774317 1_455
Al1 Al10 2.783617 1_555
Al1 Al11 2.783617 1_555
Al1 Al12 2.793695 1_555
Al1 Os1 2.802257 1_445
Al1 Lu4 3.022554 1_455
Al1 Lu5 3.022555 1_545
Al1 Nb1 3.032382 1_455
Al1 Nb2 3.032382 1_545
Al1 Lu3 3.068999 1_555
Al2 Os0 2.648752 1_565
Al2 Os3 2.774317 1_455
Al2 Os4 2.774317 1_554
Al2 Al9 2.783617 1_555
Al2 Os5 2.802257 1_454
Al2 Lu5 3.022554 1_554
Al2 Lu0 3.022554 1_455
Al2 Nb0 3.032382 1_455
Al2 Nb2 3.032382 1_554
Al2 Lu1 3.068999 1_555
Al3 Os0 2.648751 1_655
Al3 Os2 2.774317 1_545
Al3 Os4 2.774317 1_554
Al3 Al9 2.783617 1_555
Al3 Os6 2.802257 1_544
Al3 Lu4 3.022554 1_554
Al3 Lu0 3.022555 1_545
Al3 Nb0 3.032382 1_545
Al3 Nb1 3.032382 1_554
Al3 Lu2 3.068999 1_555
Al4 Os0 2.624692 1_555
Al4 Os1 2.738042 1_445
Al4 Os6 2.738042 1_544
Al4 Os5 2.738043 1_454
Al4 Lu3 3.034416 1_554
Al4 Lu2 3.034416 1_455
Al4 Lu1 3.034417 1_545
Al5 Os5 2.547176 1_555
Al5 Os6 2.547176 1_555
Al5 Os4 2.595712 1_555
Al5 Lu0 2.964556 1_556
Al5 Lu1 3.042294 1_556
Al5 Lu2 3.042295 1_556
Al6 Os6 2.547176 1_555
Al6 Os1 2.547176 1_555
Al6 Os2 2.595712 1_555
Al6 Lu4 2.964556 1_565
Al6 Lu2 3.042295 1_565
Al6 Lu3 3.042295 1_565
Al7 Os5 2.547176 1_555
Al7 Os1 2.547176 1_555
Al7 Os3 2.595712 1_555
Al7 Lu5 2.964556 1_655
Al7 Lu1 3.042294 1_655
Al7 Lu3 3.042295 1_655
Al8 Os4 2.541169 1_555
Al8 Os3 2.541169 1_555
Al8 Os2 2.541169 1_555
Al8 Lu0 3.054797 1_555
Al8 Lu5 3.054797 1_555
Al8 Lu4 3.054797 1_555
Al9 Os4 2.586542 1_554
Al9 Os5 2.590315 1_454
Al9 Os6 2.590315 1_544
Al9 Lu4 3.038966 1_554
Al9 Lu5 3.038966 1_554
Al9 Lu3 3.045090 1_554
Al10 Os2 2.586542 1_545
Al10 Os6 2.590314 1_544
Al10 Os1 2.590315 1_445
Al10 Al3 2.783617 1_555
Al10 Lu5 3.038966 1_545
Al10 Lu0 3.038966 1_545
Al10 Lu1 3.045090 1_545
Al11 Os3 2.586542 1_455
Al11 Os5 2.590315 1_454
Al11 Os1 2.590315 1_445
Al11 Al2 2.783617 1_555
Al11 Lu4 3.038965 1_455
Al11 Lu0 3.038966 1_455
Al11 Lu2 3.045090 1_455
Al12 Os4 2.598750 1_554
Al12 Os3 2.598750 1_455
Al12 Os2 2.598750 1_545
Al12 Al3 2.793695 1_555
Al12 Al2 2.793695 1_555
Al12 Lu3 3.044336 1_555
Al12 Lu2 3.044336 1_555
Al12 Lu1 3.044337 1_555
