# generated using pymatgen
data_Ti12FeTc6Rh5
_symmetry_space_group_name_H-M   'P 1'
_cell_length_a   4.34344190
_cell_length_b   6.15678727
_cell_length_c   13.04192580
_cell_angle_alpha   90.00000000
_cell_angle_beta   90.00017287
_cell_angle_gamma   90.00000000
_symmetry_Int_Tables_number   1
_chemical_formula_structural   Ti12FeTc6Rh5
_chemical_formula_sum   'Ti12 Fe1 Tc6 Rh5'
_cell_volume   348.76258605
_cell_formula_units_Z   1
loop_
 _symmetry_equiv_pos_site_id
 _symmetry_equiv_pos_as_xyz
  1  'x, y, z'
loop_
 _atom_site_type_symbol
 _atom_site_label
 _atom_site_symmetry_multiplicity
 _atom_site_fract_x
 _atom_site_fract_y
 _atom_site_fract_z
 _atom_site_occupancy
  Ti  Ti0  1  0.50000200  0.25726914  0.00000000  1
  Ti  Ti1  1  0.50000200  0.74272986  0.00000000  1
  Ti  Ti2  1  0.00003984  0.25333679  0.16201403  1
  Ti  Ti3  1  0.00003984  0.74666421  0.16201403  1
  Ti  Ti4  1  0.50004204  0.24940155  0.33214780  1
  Ti  Ti5  1  0.50004204  0.75059745  0.33214780  1
  Ti  Ti6  1  0.00000000  0.24990920  0.50000000  1
  Ti  Ti7  1  0.00000000  0.75009180  0.50000000  1
  Ti  Ti8  1  0.49995696  0.24940155  0.66785220  1
  Ti  Ti9  1  0.49995696  0.75059745  0.66785220  1
  Ti  Ti10  1  0.99995916  0.25333679  0.83798597  1
  Ti  Ti11  1  0.99995916  0.74666421  0.83798597  1
  Fe  Fe0  1  0.00000000  0.50000000  0.00000000  1
  Tc  Tc0  1  0.00000000  0.00000000  0.00000000  1
  Tc  Tc1  1  0.50004133  0.50000000  0.16567179  1
  Tc  Tc2  1  0.00004355  0.00000000  0.33262731  1
  Tc  Tc3  1  0.50000200  0.50000000  0.50000000  1
  Tc  Tc4  1  0.99995745  0.00000000  0.66737169  1
  Tc  Tc5  1  0.49995967  0.50000000  0.83432821  1
  Rh  Rh0  1  0.50004222  0.00000000  0.16585737  1
  Rh  Rh1  1  0.00004608  0.50000000  0.33255559  1
  Rh  Rh2  1  0.50000200  0.00000000  0.50000000  1
  Rh  Rh3  1  0.99995292  0.50000000  0.66744541  1
  Rh  Rh4  1  0.49995678  0.00000000  0.83414263  1
loop_
_geom_bond_atom_site_label_1
_geom_bond_atom_site_label_2
_geom_bond_distance
_geom_bond_site_symmetry_2
Fe0 Ti2 2.602109 1_555
Fe0 Ti10 2.602109 1_454
Fe0 Ti3 2.602112 1_555
Fe0 Ti11 2.602112 1_454
Fe0 Ti1 2.636223 1_455
Fe0 Ti0 2.636227 1_455
Fe0 Ti1 2.636238 1_555
Fe0 Ti0 2.636241 1_555
Tc0 Ti3 2.626297 1_545
Tc0 Ti11 2.626297 1_444
Tc0 Ti2 2.626301 1_555
Tc0 Ti10 2.626301 1_454
Tc0 Ti0 2.687980 1_455
Tc0 Ti1 2.687984 1_445
Tc0 Ti0 2.687994 1_555
Tc0 Ti1 2.687998 1_545
Tc1 Ti1 2.627142 1_555
Tc1 Ti0 2.627145 1_555
Tc1 Ti2 2.650458 1_655
Tc1 Ti3 2.650461 1_655
Tc1 Ti2 2.650468 1_555
Tc1 Ti3 2.650472 1_555
Tc1 Ti5 2.663538 1_555
Tc1 Ti4 2.663541 1_555
Tc2 Ti4 2.659733 1_555
Tc2 Ti5 2.659737 1_545
Tc2 Ti4 2.659744 1_455
Tc2 Ti5 2.659747 1_445
Tc2 Ti7 2.670632 1_545
Tc2 Ti6 2.670635 1_555
Tc2 Ti3 2.717344 1_545
Tc2 Ti2 2.717347 1_555
Tc3 Ti6 2.662176 1_655
Tc3 Ti7 2.662180 1_655
Tc3 Ti6 2.662190 1_555
Tc3 Ti7 2.662194 1_555
Tc3 Ti5 2.678188 1_555
Tc3 Ti9 2.678188 1_555
Tc3 Ti4 2.678192 1_555
Tc3 Ti8 2.678192 1_555
Tc4 Ti8 2.659737 1_655
Tc4 Ti8 2.659740 1_555
Tc4 Ti9 2.659740 1_645
Tc4 Ti9 2.659744 1_545
Tc4 Ti7 2.670621 1_645
Tc4 Ti6 2.670625 1_655
Tc4 Ti11 2.717354 1_545
Tc4 Ti10 2.717358 1_555
Tc5 Ti1 2.627142 1_556
Tc5 Ti0 2.627145 1_556
Tc5 Ti10 2.650461 1_555
Tc5 Ti11 2.650465 1_555
Tc5 Ti10 2.650465 1_455
Tc5 Ti11 2.650468 1_455
Tc5 Ti9 2.663538 1_555
Tc5 Ti8 2.663541 1_555
Rh0 Ti4 2.657304 1_555
Rh0 Ti5 2.657307 1_545
Rh0 Ti3 2.674250 1_645
Rh0 Ti2 2.674253 1_655
Rh0 Ti3 2.674266 1_545
Rh0 Ti2 2.674270 1_555
Rh0 Ti0 2.681026 1_555
Rh0 Ti1 2.681030 1_545
Rh1 Ti5 2.663980 1_555
Rh1 Ti4 2.663983 1_555
Rh1 Ti5 2.664008 1_455
Rh1 Ti4 2.664012 1_455
Rh1 Ti6 2.672044 1_555
Rh1 Ti7 2.672048 1_555
Rh1 Ti2 2.693201 1_555
Rh1 Ti3 2.693204 1_555
Rh2 Ti7 2.661526 1_645
Rh2 Ti6 2.661530 1_655
Rh2 Ti7 2.661540 1_545
Rh2 Ti6 2.661544 1_555
Rh2 Ti4 2.673953 1_555
Rh2 Ti8 2.673953 1_555
Rh2 Ti5 2.673957 1_545
Rh2 Ti9 2.673957 1_545
Rh3 Ti9 2.663980 1_555
Rh3 Ti8 2.663983 1_555
Rh3 Ti9 2.664008 1_655
Rh3 Ti8 2.664012 1_655
Rh3 Ti6 2.672055 1_655
Rh3 Ti7 2.672058 1_655
Rh3 Ti10 2.693190 1_555
Rh3 Ti11 2.693193 1_555
Rh4 Ti8 2.657304 1_555
Rh4 Ti9 2.657307 1_545
Rh4 Ti11 2.674250 1_445
Rh4 Ti10 2.674253 1_455
Rh4 Ti11 2.674266 1_545
Rh4 Ti10 2.674270 1_555
Rh4 Ti0 2.681026 1_556
Rh4 Ti1 2.681030 1_546
