# generated using pymatgen
data_NaSb12OsRh3
_symmetry_space_group_name_H-M   'P 1'
_cell_length_a   8.09777976
_cell_length_b   8.09777937
_cell_length_c   8.09778122
_cell_angle_alpha   109.52190683
_cell_angle_beta   109.52190699
_cell_angle_gamma   109.52190703
_symmetry_Int_Tables_number   1
_chemical_formula_structural   NaSb12OsRh3
_chemical_formula_sum   'Na1 Sb12 Os1 Rh3'
_cell_volume   407.99830845
_cell_formula_units_Z   1
loop_
 _symmetry_equiv_pos_site_id
 _symmetry_equiv_pos_as_xyz
  1  'x, y, z'
loop_
 _atom_site_type_symbol
 _atom_site_label
 _atom_site_symmetry_multiplicity
 _atom_site_fract_x
 _atom_site_fract_y
 _atom_site_fract_z
 _atom_site_occupancy
  Na  Na0  1  0.00000000  0.00000000  0.00000000  1
  Sb  Sb0  1  0.65813299  0.81342209  0.15496177  1
  Sb  Sb1  1  0.84503823  0.34186701  0.18657791  1
  Sb  Sb2  1  0.50482535  0.84379388  0.65989461  1
  Sb  Sb3  1  0.84379388  0.65989461  0.50482535  1
  Sb  Sb4  1  0.49517465  0.15620612  0.34010539  1
  Sb  Sb5  1  0.15496177  0.65813299  0.81342209  1
  Sb  Sb6  1  0.81342209  0.15496177  0.65813299  1
  Sb  Sb7  1  0.18657791  0.84503823  0.34186701  1
  Sb  Sb8  1  0.15620612  0.34010539  0.49517465  1
  Sb  Sb9  1  0.65989461  0.50482535  0.84379388  1
  Sb  Sb10  1  0.34010539  0.49517465  0.15620612  1
  Sb  Sb11  1  0.34186701  0.18657791  0.84503823  1
  Os  Os0  1  0.50000000  0.50000000  0.50000000  1
  Rh  Rh0  1  0.00000000  0.00000000  0.50000000  1
  Rh  Rh1  1  0.00000000  0.50000000  0.00000000  1
  Rh  Rh2  1  0.50000000  0.00000000  0.00000000  1
loop_
_geom_bond_atom_site_label_1
_geom_bond_atom_site_label_2
_geom_bond_distance
_geom_bond_site_symmetry_2
Na0 Sb10 3.487814 1_555
Na0 Sb9 3.487814 1_444
Na0 Sb4 3.487814 1_555
Na0 Sb2 3.487814 1_444
Na0 Sb8 3.487815 1_555
Na0 Sb3 3.487815 1_444
Na0 Sb1 3.509217 1_455
Na0 Sb5 3.509217 1_544
Na0 Sb0 3.509218 1_445
Na0 Sb11 3.509218 1_554
Na0 Sb7 3.509218 1_545
Na0 Sb6 3.509218 1_454
Sb0 Sb9 2.904080 1_554
Sb0 Sb10 2.978735 1_555
Sb1 Sb8 2.904080 1_655
Sb1 Sb3 2.978735 1_555
Sb2 Sb6 2.904080 1_565
Sb2 Sb7 2.978735 1_555
Sb3 Sb5 2.904080 1_655
Sb4 Sb7 2.904080 1_545
Sb4 Sb6 2.978735 1_555
Sb5 Sb8 2.978735 1_555
Sb10 Sb11 2.904080 1_554
Sb11 Sb9 2.978735 1_555
Os0 Sb2 2.629230 1_555
Os0 Sb4 2.629230 1_555
Os0 Sb3 2.629230 1_555
Os0 Sb8 2.629230 1_555
Os0 Sb9 2.629231 1_555
Os0 Sb10 2.629231 1_555
Rh0 Sb8 2.638803 1_555
Rh0 Sb3 2.638803 1_445
Rh0 Sb11 2.639507 1_555
Rh0 Sb0 2.639507 1_445
Rh0 Sb6 2.642596 1_455
Rh0 Sb7 2.642596 1_545
Rh1 Sb9 2.638803 1_454
Rh1 Sb10 2.638803 1_555
Rh1 Sb7 2.639507 1_555
Rh1 Sb6 2.639507 1_454
Rh1 Sb5 2.642596 1_554
Rh1 Sb1 2.642596 1_455
Rh2 Sb4 2.638803 1_555
Rh2 Sb2 2.638803 1_544
Rh2 Sb1 2.639506 1_555
Rh2 Sb5 2.639506 1_544
Rh2 Sb11 2.642596 1_554
Rh2 Sb0 2.642596 1_545
