# generated using pymatgen
data_V3Si2IrC
_symmetry_space_group_name_H-M   'P 1'
_cell_length_a   7.79763846
_cell_length_b   7.79763842
_cell_length_c   7.80443316
_cell_angle_alpha   59.97128741
_cell_angle_beta   59.97128759
_cell_angle_gamma   60.05627412
_symmetry_Int_Tables_number   1
_chemical_formula_structural   V3Si2IrC
_chemical_formula_sum   'V12 Si8 Ir4 C4'
_cell_volume   335.54296710
_cell_formula_units_Z   4
loop_
 _symmetry_equiv_pos_site_id
 _symmetry_equiv_pos_as_xyz
  1  'x, y, z'
loop_
 _atom_site_type_symbol
 _atom_site_label
 _atom_site_symmetry_multiplicity
 _atom_site_fract_x
 _atom_site_fract_y
 _atom_site_fract_z
 _atom_site_occupancy
  V  V0  1  0.81849224  0.81849224  0.18151094  1
  V  V1  1  0.18150210  0.18150210  0.81851677  1
  V  V2  1  0.81664450  0.18335239  0.81665041  1
  V  V3  1  0.18334835  0.81666564  0.18335386  1
  V  V4  1  0.18335239  0.81664450  0.81665041  1
  V  V5  1  0.81666564  0.18334835  0.18335386  1
  V  V6  1  0.43150776  0.43150776  0.06848906  1
  V  V7  1  0.06849790  0.06849790  0.43148323  1
  V  V8  1  0.43335550  0.06664761  0.43334959  1
  V  V9  1  0.06665165  0.43333436  0.06664614  1
  V  V10  1  0.06664761  0.43335550  0.43334959  1
  V  V11  1  0.43333436  0.06665165  0.06664614  1
  Si  Si0  1  0.77066438  0.41049185  0.40941471  1
  Si  Si1  1  0.41049185  0.77066438  0.40941471  1
  Si  Si2  1  0.40941595  0.40941595  0.77066845  1
  Si  Si3  1  0.40942386  0.40942386  0.41049308  1
  Si  Si4  1  0.47933562  0.83950815  0.84058529  1
  Si  Si5  1  0.83950815  0.47933562  0.84058529  1
  Si  Si6  1  0.84058405  0.84058405  0.47933155  1
  Si  Si7  1  0.84057614  0.84057614  0.83950692  1
  Ir  Ir0  1  0.12500000  0.62500000  0.62500000  1
  Ir  Ir1  1  0.62500000  0.12500000  0.62500000  1
  Ir  Ir2  1  0.62500000  0.62500000  0.12500000  1
  Ir  Ir3  1  0.62500000  0.62500000  0.62500000  1
  C  C0  1  0.62500000  0.12500000  0.12500000  1
  C  C1  1  0.12500000  0.62500000  0.12500000  1
  C  C2  1  0.12500000  0.12500000  0.62500000  1
  C  C3  1  0.12500000  0.12500000  0.12500000  1
loop_
_geom_bond_atom_site_label_1
_geom_bond_atom_site_label_2
_geom_bond_distance
_geom_bond_site_symmetry_2
Si0 V9 2.503758 1_655
Si0 V10 2.503798 1_655
Si0 V7 2.508518 1_655
Si1 V11 2.503758 1_565
Si1 V8 2.503798 1_565
Si1 V7 2.508518 1_565
Si2 V11 2.503699 1_556
Si2 V9 2.503699 1_556
Si2 V6 2.508571 1_556
Si3 V8 2.503783 1_555
Si3 V10 2.503783 1_555
Si3 V6 2.508624 1_555
Si4 V3 2.503758 1_556
Si4 V4 2.503798 1_555
Si4 V1 2.508518 1_565
Si5 V5 2.503758 1_556
Si5 V2 2.503798 1_555
Si5 V1 2.508518 1_655
Si6 V5 2.503699 1_565
Si6 V3 2.503699 1_655
Si6 V0 2.508571 1_555
Si7 V2 2.503783 1_565
Si7 V4 2.503783 1_655
Si7 V0 2.508624 1_556
Ir0 Si2 2.434288 1_555
Ir0 Si6 2.434288 1_455
Ir0 Si7 2.434297 1_455
Ir0 Si3 2.434297 1_555
Ir0 Si1 2.437112 1_555
Ir0 Si5 2.437112 1_455
Ir0 V4 2.876534 1_555
Ir0 V10 2.876534 1_555
Ir0 V9 2.876538 1_556
Ir0 V3 2.876538 1_555
Ir0 V7 2.889975 1_565
Ir0 V1 2.889975 1_555
Ir1 Si2 2.434288 1_555
Ir1 Si6 2.434288 1_545
Ir1 Si7 2.434297 1_545
Ir1 Si3 2.434297 1_555
Ir1 Si0 2.437112 1_555
Ir1 Si4 2.437112 1_545
Ir1 V2 2.876534 1_555
Ir1 V8 2.876534 1_555
Ir1 V11 2.876538 1_556
Ir1 V5 2.876538 1_555
Ir1 V7 2.889975 1_655
Ir1 V1 2.889975 1_555
Ir2 Si0 2.434279 1_555
Ir2 Si4 2.434279 1_554
Ir2 Si1 2.434279 1_555
Ir2 Si5 2.434279 1_554
Ir2 Si7 2.437100 1_554
Ir2 Si3 2.437100 1_555
Ir2 V11 2.876521 1_565
Ir2 V5 2.876521 1_555
Ir2 V9 2.876521 1_655
Ir2 V3 2.876521 1_555
Ir2 V0 2.889969 1_555
Ir2 V6 2.889969 1_555
Ir3 Si4 2.434367 1_555
Ir3 Si0 2.434367 1_555
Ir3 Si5 2.434367 1_555
Ir3 Si1 2.434367 1_555
Ir3 Si6 2.437180 1_555
Ir3 Si2 2.437180 1_555
Ir3 V8 2.876497 1_565
Ir3 V2 2.876497 1_555
Ir3 V10 2.876497 1_655
Ir3 V4 2.876497 1_555
Ir3 V6 2.889943 1_556
Ir3 V0 2.889943 1_555
C0 V6 2.047999 1_555
C0 V0 2.047999 1_545
C0 V8 2.053034 1_555
C0 V2 2.053034 1_554
C0 V5 2.053170 1_555
C0 V11 2.053170 1_555
C1 V0 2.047999 1_455
C1 V6 2.047999 1_555
C1 V4 2.053034 1_554
C1 V10 2.053034 1_555
C1 V3 2.053170 1_555
C1 V9 2.053170 1_555
C2 V1 2.048158 1_555
C2 V7 2.048158 1_555
C2 V10 2.053058 1_555
C2 V4 2.053058 1_545
C2 V8 2.053058 1_555
C2 V2 2.053058 1_455
C3 V7 2.047880 1_555
C3 V1 2.047880 1_554
C3 V9 2.052905 1_555
C3 V3 2.052905 1_545
C3 V11 2.052905 1_555
C3 V5 2.052905 1_455
