# generated using pymatgen
data_ZrSc2(TcP)3
_symmetry_space_group_name_H-M   'P 1'
_cell_length_a   6.78983042
_cell_length_b   6.78983102
_cell_length_c   3.40132184
_cell_angle_alpha   90.00000000
_cell_angle_beta   90.00000000
_cell_angle_gamma   119.67181750
_symmetry_Int_Tables_number   1
_chemical_formula_structural   ZrSc2(TcP)3
_chemical_formula_sum   'Zr1 Sc2 Tc3 P3'
_cell_volume   136.24575490
_cell_formula_units_Z   1
loop_
 _symmetry_equiv_pos_site_id
 _symmetry_equiv_pos_as_xyz
  1  'x, y, z'
loop_
 _atom_site_type_symbol
 _atom_site_label
 _atom_site_symmetry_multiplicity
 _atom_site_fract_x
 _atom_site_fract_y
 _atom_site_fract_z
 _atom_site_occupancy
  Zr  Zr0  1  0.40388284  0.40388284  0.50000000  1
  Sc  Sc0  1  0.59628845  0.99843508  0.50000000  1
  Sc  Sc1  1  0.99843508  0.59628845  0.50000000  1
  Tc  Tc0  1  0.00122013  0.24957235  0.00000000  1
  Tc  Tc1  1  0.24957235  0.00122013  0.00000000  1
  Tc  Tc2  1  0.75057197  0.75057197  0.00000000  1
  P  P0  1  0.66905440  0.33200194  0.00000000  1
  P  P1  1  0.33200194  0.66905440  0.00000000  1
  P  P2  1  0.99897284  0.99897284  0.50000000  1
loop_
_geom_bond_atom_site_label_1
_geom_bond_atom_site_label_2
_geom_bond_distance
_geom_bond_site_symmetry_2
Sc0 Tc1 2.911816 1_566
Sc0 Tc1 2.911816 1_565
Sc0 Tc2 2.927014 1_555
Sc0 Tc2 2.927014 1_556
Sc0 Tc0 2.952545 1_665
Sc0 Tc0 2.952545 1_666
Sc1 Tc0 2.911816 1_656
Sc1 Tc0 2.911816 1_655
Sc1 Tc2 2.927014 1_556
Sc1 Tc2 2.927014 1_555
Sc1 Tc1 2.952545 1_666
Sc1 Tc1 2.952545 1_665
Tc0 Zr0 2.937475 1_555
Tc0 Zr0 2.937475 1_554
Tc1 Zr0 2.937475 1_555
Tc1 Zr0 2.937475 1_554
Tc2 Zr0 2.913493 1_555
Tc2 Zr0 2.913493 1_554
P0 Tc0 2.578678 1_655
P0 Tc1 2.612132 1_555
P0 Tc2 2.612667 1_555
P0 Sc1 2.672204 1_554
P0 Sc1 2.672204 1_555
P0 Sc0 2.675458 1_545
P0 Sc0 2.675458 1_544
P0 Zr0 2.691123 1_555
P0 Zr0 2.691123 1_554
P1 Tc1 2.578678 1_565
P1 Tc0 2.612132 1_555
P1 Tc2 2.612667 1_555
P1 Sc0 2.672204 1_554
P1 Sc0 2.672204 1_555
P1 Sc1 2.675458 1_455
P1 Sc1 2.675458 1_454
P1 Zr0 2.691123 1_555
P1 Zr0 2.691123 1_554
P2 Tc1 2.400411 1_666
P2 Tc1 2.400411 1_665
P2 Tc0 2.400411 1_665
P2 Tc0 2.400411 1_666
P2 Tc2 2.401069 1_555
P2 Tc2 2.401069 1_556
P2 Sc0 2.732353 1_555
P2 Sc1 2.732353 1_555
P2 Zr0 2.762897 1_665
