# generated using pymatgen
data_V3O5
_symmetry_space_group_name_H-M   'P 1'
_cell_length_a   4.98261369
_cell_length_b   7.02140842
_cell_length_c   9.85267835
_cell_angle_alpha   109.15516440
_cell_angle_beta   90.00000000
_cell_angle_gamma   90.00000000
_symmetry_Int_Tables_number   1
_chemical_formula_structural   V3O5
_chemical_formula_sum   'V12 O20'
_cell_volume   325.61100022
_cell_formula_units_Z   4
loop_
 _symmetry_equiv_pos_site_id
 _symmetry_equiv_pos_as_xyz
  1  'x, y, z'
loop_
 _atom_site_type_symbol
 _atom_site_label
 _atom_site_symmetry_multiplicity
 _atom_site_fract_x
 _atom_site_fract_y
 _atom_site_fract_z
 _atom_site_occupancy
  V  V0  1  0.49537889  0.90943468  0.62936364  1
  V  V1  1  0.50488062  0.40943501  0.62929225  1
  V  V2  1  0.50488062  0.09056499  0.37070775  1
  V  V3  1  0.49537889  0.59056532  0.37063636  1
  V  V4  1  0.00458409  0.59056694  0.87059091  1
  V  V5  1  0.00458409  0.90943306  0.12940909  1
  V  V6  1  0.99508634  0.40942208  0.12931720  1
  V  V7  1  0.99508634  0.09057792  0.87068280  1
  V  V8  1  0.00028083  0.00001112  0.50010038  1
  V  V9  1  0.00028083  0.49998888  0.49989962  1
  V  V10  1  0.49978151  0.00001015  0.00010266  1
  V  V11  1  0.49978151  0.49998985  0.99989734  1
  O  O0  1  0.64950831  0.53104861  0.19305483  1
  O  O1  1  0.35025330  0.03087019  0.19322187  1
  O  O2  1  0.35025330  0.46912981  0.80677813  1
  O  O3  1  0.64950831  0.96895139  0.80694517  1
  O  O4  1  0.15817845  0.86329523  0.91915098  1
  O  O5  1  0.84128714  0.13677841  0.08103758  1
  O  O6  1  0.84128714  0.36322159  0.91896242  1
  O  O7  1  0.15817845  0.63670477  0.08084902  1
  O  O8  1  0.85054222  0.53090575  0.69299011  1
  O  O9  1  0.85054222  0.96909425  0.30700989  1
  O  O10  1  0.14980675  0.03110249  0.69326089  1
  O  O11  1  0.14980675  0.46889751  0.30673911  1
  O  O12  1  0.30529666  0.25000000  0.00000000  1
  O  O13  1  0.69413710  0.75000000  0.00000000  1
  O  O14  1  0.65864223  0.36329115  0.41902537  1
  O  O15  1  0.34174595  0.86320613  0.41911261  1
  O  O16  1  0.34174595  0.63679387  0.58088739  1
  O  O17  1  0.65864223  0.13670885  0.58097463  1
  O  O18  1  0.19473525  0.25000000  0.50000000  1
  O  O19  1  0.80590970  0.75000000  0.50000000  1
loop_
_geom_bond_atom_site_label_1
_geom_bond_atom_site_label_2
_geom_bond_distance
_geom_bond_site_symmetry_2
O0 V3 1.829170 1_555
O0 V6 1.933028 1_555
O0 V11 1.988371 1_554
O1 V2 1.829277 1_555
O1 V5 1.933121 1_545
O1 V10 1.987938 1_555
O2 V1 1.829277 1_555
O2 V4 1.933121 1_555
O2 V11 1.987938 1_555
O3 V0 1.829170 1_555
O3 V7 1.933028 1_565
O3 V10 1.988371 1_566
O4 V4 1.969853 1_555
O4 V7 1.983745 1_465
O4 V10 1.988022 1_566
O4 V5 2.131142 1_556
O5 V6 1.969932 1_555
O5 V5 1.984072 1_645
O5 V10 1.987698 1_555
O5 V7 2.132314 1_554
O6 V7 1.969932 1_555
O6 V4 1.984072 1_655
O6 V11 1.987698 1_555
O6 V6 2.132314 1_556
O7 V5 1.969853 1_555
O7 V6 1.983745 1_455
O7 V11 1.988022 1_554
O7 V4 2.131142 1_554
O8 V4 1.829068 1_655
O8 V1 1.932962 1_555
O8 V9 1.987988 1_655
O9 V5 1.829068 1_655
O9 V2 1.932962 1_565
O9 V8 1.987988 1_665
O10 V7 1.829048 1_455
O10 V0 1.933382 1_545
O10 V8 1.987976 1_555
O11 V6 1.829048 1_455
O11 V3 1.933382 1_555
O11 V9 1.987976 1_555
O12 V10 2.005298 1_555
O12 V11 2.005298 1_554
O12 V6 2.080738 1_455
O12 V7 2.080738 1_454
O13 V11 2.004531 1_554
O13 V10 2.004531 1_565
O13 V5 2.082034 1_655
O13 V4 2.082034 1_654
O14 V2 1.970347 1_555
O14 V3 1.983649 1_555
O14 V9 1.987946 1_655
O14 V1 2.131514 1_555
O15 V3 1.969443 1_555
O15 V2 1.983990 1_565
O15 V8 1.987742 1_565
O15 V0 2.131041 1_555
O16 V0 1.969443 1_555
O16 V1 1.983990 1_555
O16 V9 1.987742 1_555
O16 V3 2.131041 1_555
O17 V1 1.970347 1_555
O17 V0 1.983649 1_545
O17 V8 1.987946 1_655
O17 V2 2.131514 1_555
O18 V8 2.005213 1_555
O18 V9 2.005213 1_555
O18 V1 2.080421 1_555
O18 V2 2.080421 1_555
O19 V8 2.004581 1_665
O19 V9 2.004581 1_655
O19 V3 2.082153 1_555
O19 V0 2.082153 1_555
