# generated using pymatgen
data_Ti13Al9(TcIr3)2
_symmetry_space_group_name_H-M   'P 1'
_cell_length_a   8.71165897
_cell_length_b   8.71174291
_cell_length_c   8.71171093
_cell_angle_alpha   59.69549432
_cell_angle_beta   59.69446897
_cell_angle_gamma   59.69495750
_symmetry_Int_Tables_number   1
_chemical_formula_structural   Ti13Al9(TcIr3)2
_chemical_formula_sum   'Ti13 Al9 Tc2 Ir6'
_cell_volume   464.27439982
_cell_formula_units_Z   1
loop_
 _symmetry_equiv_pos_site_id
 _symmetry_equiv_pos_as_xyz
  1  'x, y, z'
loop_
 _atom_site_type_symbol
 _atom_site_label
 _atom_site_symmetry_multiplicity
 _atom_site_fract_x
 _atom_site_fract_y
 _atom_site_fract_z
 _atom_site_occupancy
  Ti  Ti0  1  0.21480408  0.21481531  0.78841296  1
  Ti  Ti1  1  0.78841742  0.21479837  0.21480042  1
  Ti  Ti2  1  0.21480364  0.78841724  0.21481648  1
  Ti  Ti3  1  0.79537778  0.79539024  0.18605814  1
  Ti  Ti4  1  0.18604517  0.79538263  0.79538360  1
  Ti  Ti5  1  0.79538280  0.18604982  0.79539711  1
  Ti  Ti6  1  0.37890418  0.37889800  0.37889383  1
  Ti  Ti7  1  0.38016520  0.86616653  0.38015245  1
  Ti  Ti8  1  0.86614867  0.38016783  0.38016651  1
  Ti  Ti9  1  0.38017277  0.38015848  0.86615449  1
  Ti  Ti10  1  0.84675340  0.46014841  0.84675989  1
  Ti  Ti11  1  0.46018591  0.84674395  0.84674235  1
  Ti  Ti12  1  0.84674659  0.84675196  0.46016925  1
  Al  Al0  1  0.15139646  0.15140060  0.15139534  1
  Al  Al1  1  0.15427478  0.54491032  0.15426860  1
  Al  Al2  1  0.54489696  0.15428389  0.15427667  1
  Al  Al3  1  0.15427933  0.15426703  0.54491497  1
  Al  Al4  1  0.61882974  0.61881432  0.61881904  1
  Al  Al5  1  0.61924412  0.14377923  0.61922724  1
  Al  Al6  1  0.14376030  0.61923730  0.61922267  1
  Al  Al7  1  0.61923416  0.61922839  0.14377738  1
  Al  Al8  1  0.82910119  0.82908362  0.82909915  1
  Tc  Tc0  1  0.50008330  0.50013119  0.50013353  1
  Tc  Tc1  1  0.00301723  0.00297501  0.00297359  1
  Ir  Ir0  1  0.00376569  0.00377458  0.49865910  1
  Ir  Ir1  1  0.49866103  0.00376855  0.00377120  1
  Ir  Ir2  1  0.00375957  0.49866842  0.00377156  1
  Ir  Ir3  1  0.50007760  0.50006619  0.00164380  1
  Ir  Ir4  1  0.00163355  0.50007729  0.50007424  1
  Ir  Ir5  1  0.50007738  0.00164231  0.50006443  1
loop_
_geom_bond_atom_site_label_1
_geom_bond_atom_site_label_2
_geom_bond_distance
_geom_bond_site_symmetry_2
Al0 Ir1 2.505243 1_555
Al0 Ir0 2.505268 1_555
Al0 Ir2 2.505321 1_555
Al1 Ir3 2.507949 1_555
Al1 Ir4 2.508009 1_555
Al1 Ir2 2.530156 1_555
Al2 Ir3 2.507889 1_555
Al2 Ir5 2.507915 1_555
Al2 Ir1 2.530186 1_555
Al3 Ir5 2.507912 1_555
Al3 Ir4 2.508054 1_555
Al3 Ir0 2.530193 1_555
Al4 Tc0 2.538898 1_555
Al4 Ir4 2.716304 1_655
Al4 Ir3 2.716481 1_556
Al4 Ir5 2.716525 1_565
Al5 Tc0 2.525023 1_555
Al5 Ir5 2.714947 1_555
Al5 Ir0 2.725942 1_655
Al5 Ir1 2.726132 1_556
Al5 Al8 2.730905 1_545
Al5 Ti12 2.866206 1_545
Al5 Ti11 2.866281 1_545
Al5 Ti5 2.891877 1_555
Al5 Ti1 2.906558 1_555
Al5 Ti0 2.906608 1_555
Al5 Ti6 2.954837 1_555
Al5 Ti8 2.970857 1_555
Al5 Ti9 2.970926 1_555
Al6 Tc0 2.524768 1_555
Al6 Ir4 2.714723 1_555
Al6 Ir0 2.726104 1_565
Al6 Ir2 2.726162 1_556
Al6 Al8 2.730727 1_455
Al6 Ti12 2.866101 1_455
Al6 Ti10 2.866215 1_455
Al6 Ti4 2.891943 1_555
Al6 Ti2 2.906392 1_555
Al6 Ti0 2.906528 1_555
Al6 Ti6 2.954769 1_555
Al6 Ti7 2.971113 1_555
Al6 Ti9 2.971190 1_555
Al7 Tc0 2.525031 1_555
Al7 Ir3 2.714846 1_555
Al7 Ir2 2.725968 1_655
Al7 Ir1 2.726128 1_565
Al7 Al8 2.730804 1_554
Al7 Ti11 2.866237 1_554
Al7 Ti10 2.866239 1_554
Al7 Ti3 2.891912 1_555
Al7 Ti2 2.906542 1_555
Al7 Ti1 2.906604 1_555
Al7 Ti6 2.954740 1_555
Al7 Ti8 2.970940 1_555
Al7 Ti7 2.970970 1_555
Al8 Ir2 2.532303 1_656
Al8 Ir1 2.532443 1_566
Al8 Ir0 2.532466 1_665
Tc0 Ti6 2.592632 1_555
Tc0 Ti9 2.593854 1_555
Tc0 Ti7 2.593978 1_555
Tc0 Ti8 2.594137 1_555
Tc1 Ti4 2.562011 1_544
Tc1 Ti5 2.562183 1_454
Tc1 Ti3 2.562249 1_445
Tc1 Ti0 2.603528 1_554
Tc1 Ti2 2.603556 1_545
Tc1 Ti1 2.603657 1_455
Ir0 Ti12 2.582455 1_445
Ir0 Ti7 2.668443 1_545
Ir0 Ti8 2.668454 1_455
Ir0 Ti4 2.999472 1_545
Ir0 Ti5 2.999518 1_455
Ir0 Ti2 3.102780 1_545
Ir0 Ti1 3.102882 1_455
Ir1 Ti11 2.582459 1_544
Ir1 Ti7 2.668346 1_545
Ir1 Ti9 2.668433 1_554
Ir1 Ti5 2.999449 1_554
Ir1 Ti3 2.999459 1_545
Ir1 Ti2 3.102847 1_545
Ir1 Ti0 3.102901 1_554
Ir2 Ti10 2.582451 1_454
Ir2 Ti8 2.668440 1_455
Ir2 Ti9 2.668540 1_554
Ir2 Ti4 2.999428 1_554
Ir2 Ti3 2.999477 1_455
Ir2 Ti0 3.102860 1_554
Ir2 Ti1 3.102907 1_455
Ir3 Ti10 2.522629 1_554
Ir3 Ti11 2.522741 1_554
Ir3 Ti6 2.674294 1_555
Ir3 Ti9 2.676825 1_554
Ir4 Ti12 2.522685 1_455
Ir4 Ti10 2.522704 1_455
Ir4 Ti6 2.674408 1_555
Ir4 Ti8 2.676826 1_455
Ir5 Ti12 2.522627 1_545
Ir5 Ti11 2.522729 1_545
Ir5 Ti6 2.674357 1_555
Ir5 Ti7 2.676809 1_545
