# generated using pymatgen
data_Hf3Pb4WO13
_symmetry_space_group_name_H-M   'P 1'
_cell_length_a   7.54838548
_cell_length_b   7.54838397
_cell_length_c   7.54838524
_cell_angle_alpha   60.00447313
_cell_angle_beta   60.00448311
_cell_angle_gamma   60.00446993
_symmetry_Int_Tables_number   1
_chemical_formula_structural   Hf3Pb4WO13
_chemical_formula_sum   'Hf3 Pb4 W1 O13'
_cell_volume   304.15235014
_cell_formula_units_Z   1
loop_
 _symmetry_equiv_pos_site_id
 _symmetry_equiv_pos_as_xyz
  1  'x, y, z'
loop_
 _atom_site_type_symbol
 _atom_site_label
 _atom_site_symmetry_multiplicity
 _atom_site_fract_x
 _atom_site_fract_y
 _atom_site_fract_z
 _atom_site_occupancy
  Hf  Hf0  1  0.99943810  0.50100412  0.50100412  1
  Hf  Hf1  1  0.50100412  0.50100412  0.99943810  1
  Hf  Hf2  1  0.50100412  0.99943810  0.50100412  1
  Pb  Pb0  1  0.49979387  0.00214930  0.00214930  1
  Pb  Pb1  1  0.00214930  0.00214930  0.49979387  1
  Pb  Pb2  1  0.00214930  0.49979387  0.00214930  1
  Pb  Pb3  1  0.99990060  0.99990060  0.99990060  1
  W  W0  1  0.50065716  0.50065716  0.50065716  1
  O  O0  1  0.17004729  0.57112386  0.17004729  1
  O  O1  1  0.56483214  0.19776012  0.56483214  1
  O  O2  1  0.17004729  0.17004729  0.57112386  1
  O  O3  1  0.56483214  0.56483214  0.19776012  1
  O  O4  1  0.57112386  0.17004729  0.17004729  1
  O  O5  1  0.19776012  0.56483214  0.56483214  1
  O  O6  1  0.82476459  0.43371753  0.82476459  1
  O  O7  1  0.43744515  0.80071648  0.43744515  1
  O  O8  1  0.82476459  0.82476459  0.43371753  1
  O  O9  1  0.43744515  0.43744515  0.80071648  1
  O  O10  1  0.43371753  0.82476459  0.82476459  1
  O  O11  1  0.80071648  0.43744515  0.43744515  1
  O  O12  1  0.87140309  0.87140309  0.87140309  1
loop_
_geom_bond_atom_site_label_1
_geom_bond_atom_site_label_2
_geom_bond_distance
_geom_bond_site_symmetry_2
Hf0 O8 2.043428 1_555
Hf0 O6 2.043428 1_555
Hf0 O2 2.079001 1_655
Hf0 O0 2.079002 1_655
Hf0 O11 2.092777 1_555
Hf0 O5 2.092778 1_655
Hf1 O10 2.043428 1_555
Hf1 O6 2.043428 1_555
Hf1 O4 2.079001 1_556
Hf1 O0 2.079002 1_556
Hf1 O9 2.092777 1_555
Hf1 O3 2.092778 1_556
Hf2 O8 2.043428 1_555
Hf2 O10 2.043428 1_555
Hf2 O2 2.079002 1_565
Hf2 O4 2.079002 1_565
Hf2 O7 2.092777 1_555
Hf2 O1 2.092778 1_565
O0 Pb2 2.544180 1_555
O0 Pb3 2.666675 1_454
O1 W0 1.927866 1_555
O1 Pb1 2.747544 1_655
O1 Pb0 2.747544 1_556
O2 Pb1 2.544180 1_555
O2 Pb3 2.666676 1_445
O3 W0 1.927867 1_555
O3 Pb0 2.747544 1_565
O3 Pb2 2.747544 1_655
O4 Pb0 2.544180 1_555
O4 Pb3 2.666676 1_544
O5 W0 1.927867 1_555
O5 Pb1 2.747544 1_565
O5 Pb2 2.747544 1_556
O6 Pb2 2.638660 1_656
O6 Pb3 2.703517 1_545
O7 W0 1.910990 1_555
O7 Pb1 2.739294 1_565
O7 Pb0 2.739294 1_565
O8 Pb1 2.638660 1_665
O8 Pb3 2.703518 1_554
O9 W0 1.910991 1_555
O9 Pb0 2.739293 1_556
O9 Pb2 2.739294 1_556
O10 Pb0 2.638660 1_566
O10 Pb3 2.703518 1_455
O11 W0 1.910991 1_555
O11 Pb1 2.739293 1_655
O11 Pb2 2.739294 1_655
O12 Pb2 2.292211 1_656
O12 Pb0 2.292212 1_566
O12 Pb1 2.292212 1_665
O12 Pb3 2.375799 1_555
