# generated using pymatgen
data_Zr6Co23
_symmetry_space_group_name_H-M   'P 1'
_cell_length_a   8.11584254
_cell_length_b   8.11585027
_cell_length_c   8.11590663
_cell_angle_alpha   59.99933095
_cell_angle_beta   59.99925986
_cell_angle_gamma   59.99941610
_symmetry_Int_Tables_number   1
_chemical_formula_structural   Zr6Co23
_chemical_formula_sum   'Zr6 Co23'
_cell_volume   377.99246389
_cell_formula_units_Z   1
loop_
 _symmetry_equiv_pos_site_id
 _symmetry_equiv_pos_as_xyz
  1  'x, y, z'
loop_
 _atom_site_type_symbol
 _atom_site_label
 _atom_site_symmetry_multiplicity
 _atom_site_fract_x
 _atom_site_fract_y
 _atom_site_fract_z
 _atom_site_occupancy
  Zr  Zr0  1  0.78817703  0.21182698  0.21180479  1
  Zr  Zr1  1  0.78819458  0.78818175  0.21181327  1
  Zr  Zr2  1  0.21183241  0.21181156  0.78817714  1
  Zr  Zr3  1  0.78817928  0.21182590  0.78819138  1
  Zr  Zr4  1  0.21183041  0.78817613  0.21180239  1
  Zr  Zr5  1  0.21182943  0.78817861  0.78819144  1
  Co  Co0  1  0.49999508  0.49999826  0.50000266  1
  Co  Co1  1  0.50000172  -0.00000267  -0.00000488  1
  Co  Co2  1  -0.00000664  -0.00000827  0.50000710  1
  Co  Co3  1  0.50000041  0.50000330  -0.00000094  1
  Co  Co4  1  -0.00000311  0.50000549  0.50000603  1
  Co  Co5  1  -0.00000362  0.50000513  -0.00000765  1
  Co  Co6  1  0.50000073  -0.00000113  0.50000519  1
  Co  Co7  1  0.37791917  0.37791871  0.37793418  1
  Co  Co8  1  0.62207878  0.62208191  0.13376145  1
  Co  Co9  1  0.13375713  0.62208653  0.62207746  1
  Co  Co10  1  0.62208756  0.13375733  0.62207759  1
  Co  Co11  1  0.86622863  0.37791448  0.37792811  1
  Co  Co12  1  0.37790793  0.86623935  0.37792565  1
  Co  Co13  1  0.37792191  0.37791756  0.86622573  1
  Co  Co14  1  0.62207951  0.62208056  0.62207885  1
  Co  Co15  1  0.17396133  0.17395847  0.17396504  1
  Co  Co16  1  0.82603030  0.82603653  0.52190172  1
  Co  Co17  1  0.52190270  0.82603730  0.82602803  1
  Co  Co18  1  0.82603844  0.52189392  0.82603212  1
  Co  Co19  1  0.47810165  0.17396153  0.17397142  1
  Co  Co20  1  0.17395934  0.47811757  0.17396373  1
  Co  Co21  1  0.17396273  0.17396128  0.47811260  1
  Co  Co22  1  0.82603515  0.82603692  0.82602938  1
loop_
_geom_bond_atom_site_label_1
_geom_bond_atom_site_label_2
_geom_bond_distance
_geom_bond_site_symmetry_2
Zr0 Zr3 3.438002 1_554
Zr0 Zr1 3.438136 1_545
Zr0 Zr2 3.438183 1_654
Zr0 Zr4 3.438265 1_645
Zr1 Zr5 3.438076 1_654
Zr1 Zr4 3.438095 1_655
Zr1 Zr3 3.438119 1_564
Zr2 Zr5 3.438096 1_545
Zr2 Zr4 3.438098 1_546
Zr2 Zr3 3.438186 1_455
Zr3 Zr5 3.438238 1_645
Zr4 Zr5 3.437981 1_554
Co0 Co13 2.426795 1_555
Co0 Co7 2.426823 1_555
Co0 Co11 2.426848 1_555
Co0 Co9 2.426877 1_555
Co0 Co10 2.426901 1_555
Co0 Co12 2.426902 1_555
Co0 Co8 2.426915 1_555
Co0 Co14 2.426949 1_555
Co1 Co22 2.347294 1_544
Co1 Co17 2.347302 1_544
Co1 Co15 2.347337 1_555
Co1 Co19 2.347399 1_555
Co1 Co8 2.504861 1_545
Co1 Co10 2.504887 1_554
Co1 Co13 2.504893 1_554
Co1 Co12 2.504972 1_545
Co1 Zr2 2.902579 1_554
Co1 Zr4 2.902600 1_545
Co1 Zr3 2.902686 1_554
Co1 Zr1 2.902732 1_545
Co2 Co22 2.347214 1_445
Co2 Co21 2.347401 1_555
Co2 Co9 2.504793 1_545
Co2 Zr3 2.902772 1_455
Co2 Zr0 2.902772 1_455
Co2 Zr4 2.902780 1_545
Co2 Zr5 2.902785 1_545
Co3 Co8 2.504923 1_555
Co3 Co7 2.505005 1_555
Co3 Zr4 2.902515 1_555
Co3 Zr5 2.902531 1_554
Co3 Zr0 2.902555 1_555
Co3 Zr3 2.902569 1_554
Co4 Co9 2.504878 1_555
Co4 Co7 2.504902 1_555
Co4 Zr3 2.902625 1_455
Co4 Zr1 2.902634 1_455
Co4 Zr4 2.902666 1_555
Co4 Zr2 2.902686 1_555
Co5 Co9 2.504869 1_554
Co5 Co8 2.504871 1_455
Co5 Zr0 2.902631 1_455
Co5 Zr1 2.902653 1_455
Co5 Zr5 2.902688 1_554
Co5 Zr2 2.902702 1_554
Co6 Co7 2.504890 1_555
Co6 Zr2 2.902556 1_555
Co6 Zr5 2.902590 1_545
Co6 Zr0 2.902668 1_555
Co6 Zr1 2.902713 1_545
Co7 Zr2 2.749616 1_555
Co7 Zr0 2.749718 1_555
Co7 Zr4 2.749719 1_555
Co7 Co9 2.802302 1_555
Co7 Co8 2.802355 1_555
Co8 Zr4 2.749652 1_555
Co8 Zr0 2.749698 1_555
Co8 Zr1 2.749810 1_555
Co9 Zr2 2.749802 1_555
Co9 Zr4 2.749822 1_555
Co9 Zr5 2.749869 1_555
Co10 Co16 2.487715 1_545
Co10 Co22 2.487720 1_545
Co10 Co17 2.487739 1_545
Co10 Co2 2.504793 1_655
Co10 Co6 2.504911 1_555
Co10 Zr2 2.749683 1_555
Co10 Zr0 2.749810 1_555
Co10 Zr3 2.749843 1_555
Co10 Co11 2.802214 1_555
Co10 Co13 2.802287 1_555
Co10 Co7 2.802308 1_555
Co11 Co15 2.487830 1_655
Co11 Co21 2.487839 1_655
Co11 Co20 2.487882 1_655
Co11 Co2 2.504909 1_655
Co11 Co5 2.505008 1_655
Co11 Co4 2.505041 1_655
Co11 Zr3 2.749766 1_555
Co11 Zr0 2.749781 1_555
Co11 Zr1 2.749793 1_555
Co11 Co8 2.802335 1_555
Co11 Co14 2.802335 1_555
Co12 Co15 2.487748 1_565
Co12 Co21 2.487767 1_565
Co12 Co19 2.487789 1_565
Co12 Co2 2.504849 1_565
Co12 Co6 2.505004 1_565
Co12 Zr5 2.749771 1_555
Co12 Zr4 2.749779 1_555
Co12 Zr1 2.749897 1_555
Co12 Co9 2.802245 1_555
Co12 Co8 2.802363 1_555
Co12 Co14 2.802382 1_555
Co13 Co15 2.487847 1_556
Co13 Co19 2.487910 1_556
Co13 Co20 2.487937 1_556
Co13 Co5 2.504923 1_556
Co13 Co3 2.505045 1_556
Co13 Zr2 2.749652 1_555
Co13 Zr3 2.749721 1_555
Co13 Zr5 2.749750 1_555
Co13 Co9 2.802315 1_555
Co13 Co14 2.802342 1_555
Co14 Co16 2.487784 1_555
Co14 Co17 2.487794 1_555
Co14 Co18 2.487810 1_555
Co14 Co4 2.504870 1_655
Co14 Co6 2.504880 1_565
Co14 Co3 2.504906 1_556
Co14 Zr5 2.749661 1_555
Co14 Zr3 2.749694 1_555
Co14 Zr1 2.749772 1_555
Co15 Co2 2.347358 1_555
Co15 Co5 2.347385 1_555
Co15 Co19 2.468393 1_555
Co15 Co21 2.468450 1_555
Co15 Co20 2.468496 1_555
Co15 Zr4 2.856962 1_545
Co15 Zr0 2.856968 1_455
Co15 Zr2 2.856972 1_554
Co16 Co2 2.347255 1_665
Co16 Co6 2.347284 1_565
Co16 Co4 2.347294 1_655
Co16 Co17 2.468229 1_555
Co16 Co22 2.468293 1_555
Co16 Co18 2.468310 1_555
Co16 Co9 2.487754 1_655
Co16 Zr1 2.857014 1_555
Co16 Zr0 2.857053 1_565
Co16 Zr4 2.857103 1_655
Co17 Co6 2.347267 1_565
Co17 Co3 2.347330 1_556
Co17 Co22 2.468295 1_555
Co17 Co18 2.468328 1_555
Co17 Co8 2.487812 1_556
Co17 Zr2 2.856886 1_565
Co17 Zr5 2.856897 1_555
Co17 Zr4 2.856898 1_556
Co18 Co4 2.347251 1_655
Co18 Co5 2.347291 1_656
Co18 Co3 2.347322 1_556
Co18 Co22 2.468355 1_555
Co18 Co9 2.487758 1_655
Co18 Co8 2.487830 1_556
Co18 Zr0 2.856877 1_556
Co18 Zr3 2.856880 1_555
Co18 Zr2 2.857018 1_655
Co19 Co6 2.347336 1_555
Co19 Co3 2.347375 1_555
Co19 Co21 2.468335 1_555
Co19 Co20 2.468406 1_555
Co19 Co7 2.487874 1_555
Co19 Zr0 2.856932 1_555
Co19 Zr3 2.856943 1_554
Co19 Zr1 2.856984 1_545
Co20 Co3 2.347330 1_555
Co20 Co4 2.347363 1_555
Co20 Co5 2.347409 1_555
Co20 Co21 2.468440 1_555
Co20 Co7 2.487899 1_555
Co20 Zr1 2.856819 1_455
Co20 Zr4 2.856852 1_555
Co20 Zr5 2.856857 1_554
Co21 Co6 2.347332 1_555
Co21 Co4 2.347380 1_555
Co21 Co7 2.487829 1_555
Co21 Zr3 2.856957 1_455
Co21 Zr5 2.856958 1_545
Co21 Zr2 2.856966 1_555
Co22 Co5 2.347285 1_656
Co22 Co9 2.487733 1_655
Co22 Co8 2.487794 1_556
Co22 Zr1 2.857029 1_556
Co22 Zr3 2.857054 1_565
Co22 Zr5 2.857086 1_655
