# generated using pymatgen
data_Rb4RePtBr12
_symmetry_space_group_name_H-M   'P 1'
_cell_length_a   7.45889017
_cell_length_b   7.45889017
_cell_length_c   10.57255231
_cell_angle_alpha   90.00000000
_cell_angle_beta   90.00000000
_cell_angle_gamma   90.00000000
_symmetry_Int_Tables_number   1
_chemical_formula_structural   Rb4RePtBr12
_chemical_formula_sum   'Rb4 Re1 Pt1 Br12'
_cell_volume   588.20439753
_cell_formula_units_Z   1
loop_
 _symmetry_equiv_pos_site_id
 _symmetry_equiv_pos_as_xyz
  1  'x, y, z'
loop_
 _atom_site_type_symbol
 _atom_site_label
 _atom_site_symmetry_multiplicity
 _atom_site_fract_x
 _atom_site_fract_y
 _atom_site_fract_z
 _atom_site_occupancy
  Rb  Rb0  1  0.50000000  0.00000000  0.75192097  1
  Rb  Rb1  1  0.00000000  0.50000000  0.24807903  1
  Rb  Rb2  1  0.50000000  0.00000000  0.24807903  1
  Rb  Rb3  1  0.00000000  0.50000000  0.75192097  1
  Re  Re0  1  0.50000000  0.50000000  0.50000000  1
  Pt  Pt0  1  0.00000000  0.00000000  0.00000000  1
  Br  Br0  1  0.00000000  0.00000000  0.76466401  1
  Br  Br1  1  0.50000000  0.50000000  0.26083156  1
  Br  Br2  1  0.73940910  0.73940910  0.50000000  1
  Br  Br3  1  0.23604186  0.23604186  0.00000000  1
  Br  Br4  1  0.73940910  0.26059090  0.50000000  1
  Br  Br5  1  0.23604186  0.76395814  0.00000000  1
  Br  Br6  1  0.00000000  0.00000000  0.23533599  1
  Br  Br7  1  0.50000000  0.50000000  0.73916844  1
  Br  Br8  1  0.26059090  0.26059090  0.50000000  1
  Br  Br9  1  0.76395814  0.76395814  0.00000000  1
  Br  Br10  1  0.26059090  0.73940910  0.50000000  1
  Br  Br11  1  0.76395814  0.23604186  0.00000000  1
loop_
_geom_bond_atom_site_label_1
_geom_bond_atom_site_label_2
_geom_bond_distance
_geom_bond_site_symmetry_2
Br0 Pt0 2.488102 1_556
Br0 Rb3 3.731878 1_545
Br0 Rb3 3.731878 1_555
Br0 Rb0 3.731878 1_455
Br0 Rb0 3.731878 1_555
Br1 Re0 2.528621 1_555
Br1 Rb2 3.731881 1_565
Br1 Rb1 3.731881 1_555
Br1 Rb2 3.731881 1_555
Br1 Rb1 3.731881 1_655
Br2 Re0 2.525398 1_555
Br2 Rb0 3.749775 1_565
Br2 Rb3 3.749775 1_655
Br2 Rb2 3.749775 1_565
Br2 Rb1 3.749775 1_655
Br3 Pt0 2.489879 1_555
Br3 Rb1 3.722269 1_555
Br3 Rb2 3.722269 1_555
Br3 Rb0 3.722269 1_554
Br3 Rb3 3.722269 1_554
Br4 Re0 2.525398 1_555
Br4 Rb0 3.749775 1_555
Br4 Rb3 3.749775 1_655
Br4 Rb2 3.749775 1_555
Br4 Rb1 3.749775 1_655
Br5 Pt0 2.489879 1_565
Br5 Rb1 3.722269 1_555
Br5 Rb2 3.722269 1_565
Br5 Rb0 3.722269 1_564
Br5 Rb3 3.722269 1_554
Br6 Pt0 2.488102 1_555
Br6 Rb2 3.731878 1_555
Br6 Rb2 3.731878 1_455
Br6 Rb1 3.731878 1_545
Br6 Rb1 3.731878 1_555
Br7 Re0 2.528621 1_555
Br7 Rb0 3.731881 1_555
Br7 Rb0 3.731881 1_565
Br7 Rb3 3.731881 1_655
Br7 Rb3 3.731881 1_555
Br8 Re0 2.525398 1_555
Br8 Rb0 3.749775 1_555
Br8 Rb3 3.749775 1_555
Br8 Rb2 3.749775 1_555
Br8 Rb1 3.749775 1_555
Br9 Pt0 2.489879 1_665
Br9 Rb2 3.722269 1_565
Br9 Rb1 3.722269 1_655
Br9 Rb3 3.722269 1_654
Br9 Rb0 3.722269 1_564
Br10 Re0 2.525398 1_555
Br10 Rb3 3.749775 1_555
Br10 Rb0 3.749775 1_565
Br10 Rb1 3.749775 1_555
Br10 Rb2 3.749775 1_565
Br11 Pt0 2.489879 1_655
Br11 Rb2 3.722269 1_555
Br11 Rb1 3.722269 1_655
Br11 Rb3 3.722269 1_654
Br11 Rb0 3.722269 1_554
