# generated using pymatgen
data_BaNaTaS4
_symmetry_space_group_name_H-M   'P 1'
_cell_length_a   9.54675409
_cell_length_b   6.76330823
_cell_length_c   12.57995838
_cell_angle_alpha   69.21253598
_cell_angle_beta   90.00000000
_cell_angle_gamma   90.00000000
_symmetry_Int_Tables_number   1
_chemical_formula_structural   BaNaTaS4
_chemical_formula_sum   'Ba4 Na4 Ta4 S16'
_cell_volume   759.38294030
_cell_formula_units_Z   4
loop_
 _symmetry_equiv_pos_site_id
 _symmetry_equiv_pos_as_xyz
  1  'x, y, z'
loop_
 _atom_site_type_symbol
 _atom_site_label
 _atom_site_symmetry_multiplicity
 _atom_site_fract_x
 _atom_site_fract_y
 _atom_site_fract_z
 _atom_site_occupancy
  Ba  Ba0  1  0.87953184  0.38593904  0.34393831  1
  Ba  Ba1  1  0.62046816  0.38593904  0.84393831  1
  Ba  Ba2  1  0.12046816  0.61406096  0.65606169  1
  Ba  Ba3  1  0.37953184  0.61406096  0.15606169  1
  Na  Na0  1  0.11374029  0.23447830  0.02541681  1
  Na  Na1  1  0.38625971  0.23447830  0.52541681  1
  Na  Na2  1  0.88625971  0.76552170  0.97458319  1
  Na  Na3  1  0.61374029  0.76552170  0.47458319  1
  Ta  Ta0  1  0.61876741  0.11562010  0.18453709  1
  Ta  Ta1  1  0.88123259  0.11562010  0.68453709  1
  Ta  Ta2  1  0.38123259  0.88437990  0.81546291  1
  Ta  Ta3  1  0.11876741  0.88437990  0.31546291  1
  S  S0  1  0.80273850  0.31998200  0.09156503  1
  S  S1  1  0.69726150  0.31998200  0.59156503  1
  S  S2  1  0.19726150  0.68001800  0.90843497  1
  S  S3  1  0.30273850  0.68001800  0.40843497  1
  S  S4  1  0.92955114  0.81120810  0.43073407  1
  S  S5  1  0.57044886  0.81120810  0.93073407  1
  S  S6  1  0.07044886  0.18879190  0.56926593  1
  S  S7  1  0.42955114  0.18879190  0.06926593  1
  S  S8  1  0.56628316  0.20334756  0.33915624  1
  S  S9  1  0.93371684  0.20334756  0.83915624  1
  S  S10  1  0.43371684  0.79665244  0.66084376  1
  S  S11  1  0.06628316  0.79665244  0.16084376  1
  S  S12  1  0.16165651  0.23500192  0.26129411  1
  S  S13  1  0.33834349  0.23500192  0.76129411  1
  S  S14  1  0.83834349  0.76499808  0.73870589  1
  S  S15  1  0.66165651  0.76499808  0.23870589  1
loop_
_geom_bond_atom_site_label_1
_geom_bond_atom_site_label_2
_geom_bond_distance
_geom_bond_site_symmetry_2
Ba0 S12 3.182860 1_655
Ba0 S15 3.200382 1_555
Ba0 S6 3.232977 1_655
Ba0 S8 3.244152 1_555
Ba0 S11 3.414464 1_655
Ba0 S0 3.438223 1_555
Ba0 S4 3.452835 1_555
Ba0 S1 3.456097 1_555
Ba0 S4 3.676556 1_545
Ba1 S13 3.182860 1_555
Ba1 S14 3.200382 1_555
Ba1 S7 3.232977 1_556
Ba1 S9 3.244152 1_555
Ba1 S10 3.414464 1_555
Ba1 S1 3.438223 1_555
Ba1 S5 3.452835 1_555
Ba1 S0 3.456097 1_556
Ba1 S5 3.676556 1_545
Ba2 S14 3.182860 1_455
Ba2 S13 3.200382 1_555
Ba2 S4 3.232977 1_455
Ba2 S10 3.244152 1_555
Ba2 S9 3.414464 1_455
Ba2 S2 3.438223 1_555
Ba2 S6 3.452835 1_555
Ba2 S3 3.456097 1_555
Ba2 S6 3.676556 1_565
Ba3 S15 3.182860 1_555
Ba3 S12 3.200382 1_555
Ba3 S5 3.232977 1_554
Ba3 S11 3.244152 1_555
Ba3 S8 3.414464 1_555
Ba3 S3 3.438223 1_555
Ba3 S7 3.452835 1_555
Ba3 S2 3.456097 1_554
Ba3 S7 3.676556 1_565
Na0 S11 2.880161 1_545
Na0 S2 2.955326 1_554
Na0 S9 2.972975 1_454
Na0 S12 3.003624 1_555
Na0 S7 3.060852 1_555
Na0 S0 3.191199 1_455
Na1 S10 2.880161 1_545
Na1 S3 2.955326 1_555
Na1 S8 2.972975 1_555
Na1 S13 3.003624 1_555
Na1 S6 3.060852 1_555
Na1 S1 3.191199 1_555
Na2 S9 2.880161 1_565
Na2 S0 2.955326 1_556
Na2 S11 2.972975 1_656
Na2 S14 3.003624 1_555
Na2 S5 3.060852 1_555
Na2 S2 3.191199 1_655
Na3 S8 2.880161 1_565
Na3 S1 2.955326 1_555
Na3 S10 2.972975 1_555
Na3 S15 3.003624 1_555
Na3 S4 3.060852 1_555
Na3 S3 3.191199 1_555
S0 Ta0 2.283757 1_555
S1 Ta1 2.283757 1_555
S2 Ta2 2.283757 1_555
S3 Ta3 2.283757 1_555
S4 Ta3 2.258633 1_655
S5 Ta2 2.258633 1_555
S6 Ta1 2.258633 1_455
S7 Ta0 2.258633 1_555
S8 Ta0 2.281598 1_555
S9 Ta1 2.281598 1_555
S10 Ta2 2.281598 1_555
S11 Ta3 2.281598 1_555
S12 Ta3 2.260172 1_545
S13 Ta2 2.260172 1_545
S14 Ta1 2.260172 1_565
S15 Ta0 2.260172 1_565
