# generated using pymatgen
data_Ca2Tc3B4C
_symmetry_space_group_name_H-M   'P 1'
_cell_length_a   5.63670755
_cell_length_b   5.63670732
_cell_length_c   7.96788707
_cell_angle_alpha   57.74917651
_cell_angle_beta   57.74917746
_cell_angle_gamma   42.37927701
_symmetry_Int_Tables_number   1
_chemical_formula_structural   Ca2Tc3B4C
_chemical_formula_sum   'Ca2 Tc3 B4 C1'
_cell_volume   139.92845609
_cell_formula_units_Z   1
loop_
 _symmetry_equiv_pos_site_id
 _symmetry_equiv_pos_as_xyz
  1  'x, y, z'
loop_
 _atom_site_type_symbol
 _atom_site_label
 _atom_site_symmetry_multiplicity
 _atom_site_fract_x
 _atom_site_fract_y
 _atom_site_fract_z
 _atom_site_occupancy
  Ca  Ca0  1  0.39776082  0.92153861  0.74218636  1
  Ca  Ca1  1  0.07846139  0.60223918  0.25781364  1
  Tc  Tc0  1  0.00014785  0.99985215  0.50000000  1
  Tc  Tc1  1  0.61652053  0.12292454  0.90696692  1
  Tc  Tc2  1  0.87707546  0.38347947  0.09303308  1
  B  B0  1  0.53234032  0.52829233  0.37860318  1
  B  B1  1  0.47170767  0.46765968  0.62139682  1
  B  B2  1  0.09086015  0.63350999  0.81209170  1
  B  B3  1  0.36649001  0.90913985  0.18790830  1
  C  C0  1  0.73490978  0.26509022  0.00000000  1
loop_
_geom_bond_atom_site_label_1
_geom_bond_atom_site_label_2
_geom_bond_distance
_geom_bond_site_symmetry_2
Ca0 Tc0 3.124143 1_655
Ca0 Tc0 3.344663 1_555
Ca1 Tc0 3.124143 1_545
Ca1 Tc0 3.344663 1_555
B0 B1 1.654510 1_555
B0 B3 1.691424 1_555
B0 Tc2 2.130644 1_555
B0 Tc0 2.191881 1_645
B0 Tc0 2.206048 1_555
B0 Ca1 2.875695 1_555
B0 Ca1 2.980212 1_655
B1 B2 1.691424 1_555
B1 Tc1 2.130644 1_555
B1 Tc0 2.191881 1_645
B1 Tc0 2.206048 1_555
B1 Ca0 2.875695 1_555
B1 Ca0 2.980212 1_545
B2 Tc1 2.121773 1_465
B2 Tc2 2.170827 1_456
B2 Tc0 2.241883 1_555
B2 Tc1 2.259150 1_555
B2 Ca0 2.845098 1_555
B3 Tc2 2.121773 1_465
B3 Tc1 2.170827 1_564
B3 Tc0 2.241883 1_555
B3 Tc2 2.259150 1_555
B3 Ca1 2.845098 1_555
C0 Tc1 1.894448 1_554
C0 Tc2 1.894448 1_555
C0 Ca0 2.681077 1_554
C0 Ca1 2.681077 1_555
C0 Ca1 2.700830 1_645
C0 Ca0 2.700831 1_644
