# generated using pymatgen
data_Ti2GaSbRu4
_symmetry_space_group_name_H-M   'P 1'
_cell_length_a   4.35624056
_cell_length_b   6.16100981
_cell_length_c   13.05998889
_cell_angle_alpha   90.00000000
_cell_angle_beta   90.00068123
_cell_angle_gamma   90.00000000
_symmetry_Int_Tables_number   1
_chemical_formula_structural   Ti2GaSbRu4
_chemical_formula_sum   'Ti6 Ga3 Sb3 Ru12'
_cell_volume   350.51496339
_cell_formula_units_Z   3
loop_
 _symmetry_equiv_pos_site_id
 _symmetry_equiv_pos_as_xyz
  1  'x, y, z'
loop_
 _atom_site_type_symbol
 _atom_site_label
 _atom_site_symmetry_multiplicity
 _atom_site_fract_x
 _atom_site_fract_y
 _atom_site_fract_z
 _atom_site_occupancy
  Ti  Ti0  1  0.00000664  0.00000000  0.98889747  1
  Ti  Ti1  1  0.49986063  0.50000100  0.16666708  1
  Ti  Ti2  1  0.99988972  0.00000000  0.34445033  1
  Ti  Ti3  1  0.50000632  0.50000100  0.51044703  1
  Ti  Ti4  1  0.00013627  0.00000000  0.66664345  1
  Ti  Ti5  1  0.50010415  0.50000100  0.82289872  1
  Ga  Ga0  1  0.50000258  0.00000000  0.50437689  1
  Ga  Ga1  1  0.00013578  0.50000100  0.66671240  1
  Ga  Ga2  1  0.50018516  0.00000000  0.82884559  1
  Sb  Sb0  1  0.99999235  0.50000100  0.99469276  1
  Sb  Sb1  1  0.49982985  0.00000000  0.16666273  1
  Sb  Sb2  1  0.99989048  0.50000100  0.33872777  1
  Ru  Ru0  1  0.49999645  0.24743944  0.99889143  1
  Ru  Ru1  1  0.49999645  0.75256056  0.99889143  1
  Ru  Ru2  1  0.99986069  0.25194256  0.16667554  1
  Ru  Ru3  1  0.99986069  0.74805744  0.16667554  1
  Ru  Ru4  1  0.49987779  0.24748548  0.33444674  1
  Ru  Ru5  1  0.49987779  0.75251452  0.33444674  1
  Ru  Ru6  1  0.00000754  0.24683769  0.50219445  1
  Ru  Ru7  1  0.00000754  0.75316231  0.50219445  1
  Ru  Ru8  1  0.50012280  0.25032846  0.66663273  1
  Ru  Ru9  1  0.50012280  0.74967154  0.66663273  1
  Ru  Ru10  1  0.00011327  0.24678771  0.83114750  1
  Ru  Ru11  1  0.00011327  0.75321229  0.83114750  1
loop_
_geom_bond_atom_site_label_1
_geom_bond_atom_site_label_2
_geom_bond_distance
_geom_bond_site_symmetry_2
Ga0 Ru8 2.620883 1_555
Ga0 Ru9 2.620883 1_545
Ga0 Ru6 2.656626 1_555
Ga0 Ru7 2.656626 1_545
Ga0 Ru6 2.656662 1_655
Ga0 Ru7 2.656662 1_645
Ga0 Ru4 2.692605 1_555
Ga0 Ru5 2.692605 1_545
Ga1 Ru11 2.654348 1_555
Ga1 Ru10 2.654355 1_555
Ga1 Ru7 2.655042 1_555
Ga1 Ru6 2.655049 1_555
Ga1 Ru9 2.666475 1_555
Ga1 Ru8 2.666483 1_555
Ga1 Ru9 2.666568 1_455
Ga1 Ru8 2.666575 1_455
Ga2 Ru8 2.620429 1_555
Ga2 Ru9 2.620429 1_545
Ga2 Ru10 2.656228 1_655
Ga2 Ru11 2.656228 1_645
Ga2 Ru10 2.656743 1_555
Ga2 Ru11 2.656743 1_545
Ga2 Ru0 2.693691 1_555
Ga2 Ru1 2.693691 1_545
Sb0 Ti0 3.081428 1_665
Sb0 Ti0 3.081441 1_655
Sb0 Ti5 3.126634 1_555
Sb0 Ti5 3.127349 1_655
Sb0 Ti1 3.128263 1_656
Sb0 Ti1 3.129099 1_556
Sb2 Ti2 3.081405 1_565
Sb2 Ti2 3.081418 1_555
Sb2 Ti3 3.125958 1_555
Sb2 Ti3 3.126624 1_655
Sb2 Ti1 3.129419 1_655
Sb2 Ti1 3.129563 1_555
Ru0 Ti0 2.661780 1_555
Ru0 Ti0 2.661855 1_655
Ru0 Sb1 2.669253 1_556
Ru0 Sb0 2.677383 1_555
Ru0 Sb0 2.677412 1_455
Ru0 Ti1 2.687447 1_556
Ru0 Ti5 2.775639 1_555
Ru1 Ti0 2.661780 1_565
Ru1 Ti0 2.661855 1_665
Ru1 Sb1 2.669253 1_566
Ru1 Sb0 2.677376 1_555
Ru1 Sb0 2.677404 1_455
Ru1 Ti1 2.687440 1_556
Ru1 Ti5 2.775632 1_555
Ru2 Ti1 2.660804 1_655
Ru2 Ti1 2.660805 1_555
Ru2 Sb1 2.674511 1_655
Ru2 Sb1 2.674730 1_555
Ru2 Sb0 2.716727 1_554
Ru2 Sb2 2.717477 1_555
Ru2 Ti2 2.792821 1_555
Ru2 Ti0 2.792857 1_654
Ru3 Ti1 2.660797 1_655
Ru3 Ti1 2.660797 1_555
Ru3 Sb1 2.674511 1_665
Ru3 Sb1 2.674730 1_565
Ru3 Sb0 2.716720 1_554
Ru3 Sb2 2.717470 1_555
Ru3 Ti2 2.792821 1_565
Ru3 Ti0 2.792857 1_664
Ru4 Ti2 2.661945 1_455
Ru4 Ti2 2.662028 1_555
Ru4 Sb1 2.669551 1_555
Ru4 Sb2 2.677210 1_455
Ru4 Sb2 2.677299 1_555
Ru4 Ti1 2.687326 1_555
Ru4 Ti3 2.775562 1_555
Ru5 Ti2 2.661945 1_465
Ru5 Ti2 2.662028 1_565
Ru5 Sb1 2.669551 1_565
Ru5 Sb2 2.677203 1_455
Ru5 Sb2 2.677292 1_555
Ru5 Ti1 2.687319 1_555
Ru5 Ti3 2.775555 1_555
Ru6 Ti2 2.560645 1_455
Ru6 Ti4 2.631609 1_555
Ru6 Sb2 2.643951 1_455
Ru6 Ti3 2.681154 1_555
Ru6 Ti3 2.681165 1_455
Ru7 Ti2 2.560645 1_465
Ru7 Ti4 2.631609 1_565
Ru7 Sb2 2.643944 1_455
Ru7 Ti3 2.681147 1_555
Ru7 Ti3 2.681158 1_455
Ru8 Ti3 2.554777 1_555
Ru8 Ti5 2.555614 1_555
Ru8 Ti4 2.668814 1_555
Ru8 Ti4 2.668910 1_655
Ru9 Ti3 2.554769 1_555
Ru9 Ti5 2.555607 1_555
Ru9 Ti4 2.668814 1_565
Ru9 Ti4 2.668910 1_665
Ru10 Ti0 2.560523 1_555
Ru10 Ti4 2.632018 1_555
Ru10 Sb0 2.644961 1_455
Ru10 Ti5 2.681306 1_555
Ru10 Ti5 2.681368 1_455
Ru11 Ti0 2.560523 1_565
Ru11 Ti4 2.632018 1_565
Ru11 Sb0 2.644954 1_455
Ru11 Ti5 2.681299 1_555
Ru11 Ti5 2.681361 1_455
