# generated using pymatgen
data_CsCdInAs2
_symmetry_space_group_name_H-M   'P 1'
_cell_length_a   4.46546627
_cell_length_b   4.46546605
_cell_length_c   8.30370028
_cell_angle_alpha   105.59787794
_cell_angle_beta   105.59787480
_cell_angle_gamma   89.99999928
_symmetry_Int_Tables_number   1
_chemical_formula_structural   CsCdInAs2
_chemical_formula_sum   'Cs1 Cd1 In1 As2'
_cell_volume   153.14067894
_cell_formula_units_Z   1
loop_
 _symmetry_equiv_pos_site_id
 _symmetry_equiv_pos_as_xyz
  1  'x, y, z'
loop_
 _atom_site_type_symbol
 _atom_site_label
 _atom_site_symmetry_multiplicity
 _atom_site_fract_x
 _atom_site_fract_y
 _atom_site_fract_z
 _atom_site_occupancy
  Cs  Cs0  1  0.00000000  0.00000000  0.00000000  1
  Cd  Cd0  1  0.75000000  0.25000000  0.50000000  1
  In  In0  1  0.25000000  0.75000000  0.50000000  1
  As  As0  1  0.64302056  0.64302056  0.28604112  1
  As  As1  1  0.35698144  0.35698144  0.71396188  1
loop_
_geom_bond_atom_site_label_1
_geom_bond_atom_site_label_2
_geom_bond_distance
_geom_bond_site_symmetry_2
As0 Cd0 2.772213 1_565
As0 In0 2.772213 1_555
As0 Cd0 2.772213 1_555
As0 In0 2.772213 1_655
As0 Cs0 3.846558 1_655
As0 Cs0 3.846558 1_555
As0 Cs0 3.846558 1_665
As0 Cs0 3.846558 1_565
As1 Cd0 2.772225 1_555
As1 In0 2.772225 1_555
As1 In0 2.772228 1_545
As1 Cd0 2.772228 1_455
As1 Cs0 3.846543 1_666
As1 Cs0 3.846545 1_566
As1 Cs0 3.846545 1_656
As1 Cs0 3.846548 1_556
