# generated using pymatgen
data_NaLiP2S5
_symmetry_space_group_name_H-M   'P 1'
_cell_length_a   7.60842498
_cell_length_b   9.91283715
_cell_length_c   12.19372858
_cell_angle_alpha   60.05033961
_cell_angle_beta   90.00000000
_cell_angle_gamma   90.00000000
_symmetry_Int_Tables_number   1
_chemical_formula_structural   NaLiP2S5
_chemical_formula_sum   'Na4 Li4 P8 S20'
_cell_volume   796.85621558
_cell_formula_units_Z   4
loop_
 _symmetry_equiv_pos_site_id
 _symmetry_equiv_pos_as_xyz
  1  'x, y, z'
loop_
 _atom_site_type_symbol
 _atom_site_label
 _atom_site_symmetry_multiplicity
 _atom_site_fract_x
 _atom_site_fract_y
 _atom_site_fract_z
 _atom_site_occupancy
  Na  Na0  1  0.62742156  0.61004439  0.78390524  1
  Na  Na1  1  0.37257844  0.38995561  0.21609476  1
  Na  Na2  1  0.87257844  0.61004439  0.28390524  1
  Na  Na3  1  0.12742156  0.38995561  0.71609476  1
  Li  Li0  1  0.33952556  0.86772552  0.34294448  1
  Li  Li1  1  0.83952556  0.13227448  0.15705552  1
  Li  Li2  1  0.16047444  0.86772552  0.84294448  1
  Li  Li3  1  0.66047444  0.13227448  0.65705552  1
  P  P0  1  0.63762054  0.20302388  0.89879248  1
  P  P1  1  0.92519881  0.81297510  0.46822629  1
  P  P2  1  0.07480119  0.18702490  0.53177371  1
  P  P3  1  0.86237946  0.20302388  0.39879248  1
  P  P4  1  0.36237946  0.79697612  0.10120752  1
  P  P5  1  0.13762054  0.79697612  0.60120752  1
  P  P6  1  0.57480119  0.81297510  0.96822629  1
  P  P7  1  0.42519881  0.18702490  0.03177371  1
  S  S0  1  0.70025221  0.61299308  0.04823152  1
  S  S1  1  0.52562006  0.29181690  0.73162106  1
  S  S2  1  0.16137032  0.68603796  0.07731187  1
  S  S3  1  0.47973888  0.88932521  0.79409177  1
  S  S4  1  0.20025221  0.38700692  0.45176848  1
  S  S5  1  0.33862968  0.68603796  0.57731187  1
  S  S6  1  0.29974779  0.38700692  0.95176848  1
  S  S7  1  0.97973888  0.11067479  0.70590823  1
  S  S8  1  0.74801192  0.97451946  0.97975681  1
  S  S9  1  0.24801192  0.02548054  0.52024319  1
  S  S10  1  0.83862968  0.31396204  0.92268813  1
  S  S11  1  0.75198808  0.97451946  0.47975681  1
  S  S12  1  0.02562006  0.70818310  0.76837894  1
  S  S13  1  0.02026112  0.88932521  0.29409177  1
  S  S14  1  0.66137032  0.31396204  0.42268813  1
  S  S15  1  0.47437994  0.70818310  0.26837894  1
  S  S16  1  0.97437994  0.29181690  0.23162106  1
  S  S17  1  0.52026112  0.11067479  0.20590823  1
  S  S18  1  0.25198808  0.02548054  0.02024319  1
  S  S19  1  0.79974779  0.61299308  0.54823152  1
loop_
_geom_bond_atom_site_label_1
_geom_bond_atom_site_label_2
_geom_bond_distance
_geom_bond_site_symmetry_2
Na0 S10 3.016811 1_555
Na0 S3 3.047250 1_555
Na0 S5 3.137939 1_555
Na0 S19 3.145542 1_555
Na0 S12 3.158672 1_655
Na0 S6 3.282495 1_555
Na0 S0 3.284890 1_556
Na1 S2 3.016811 1_555
Na1 S17 3.047250 1_555
Na1 S14 3.137939 1_555
Na1 S4 3.145542 1_555
Na1 S16 3.158672 1_455
Na1 S0 3.282495 1_555
Na1 S6 3.284890 1_554
Na2 S14 3.016811 1_555
Na2 S13 3.047250 1_655
Na2 S2 3.137939 1_655
Na2 S0 3.145542 1_555
Na2 S15 3.158672 1_555
Na2 S4 3.282495 1_655
Na2 S19 3.284890 1_555
Na3 S5 3.016811 1_555
Na3 S7 3.047250 1_455
Na3 S10 3.137939 1_455
Na3 S6 3.145542 1_555
Na3 S1 3.158672 1_555
Na3 S19 3.282495 1_455
Na3 S4 3.284890 1_555
Li0 S15 2.411725 1_555
Li0 S13 2.484728 1_555
Li0 S5 2.504333 1_555
Li0 S17 2.542632 1_565
Li1 S16 2.411725 1_555
Li1 S17 2.484728 1_555
Li1 S10 2.504333 1_554
Li1 S13 2.542632 1_645
Li2 S12 2.411725 1_555
Li2 S3 2.484728 1_555
Li2 S2 2.504333 1_556
Li2 S7 2.542632 1_465
Li3 S1 2.411725 1_555
Li3 S7 2.484728 1_555
Li3 S14 2.504333 1_555
Li3 S3 2.542632 1_545
P0 S1 1.965872 1_555
P0 S10 1.988256 1_555
P0 S8 2.139640 1_545
P0 P7 2.238268 1_556
P1 S19 1.965103 1_555
P1 S13 1.999988 1_655
P1 S11 2.132064 1_555
P1 P5 2.238268 1_655
P2 S4 1.965103 1_555
P2 S7 1.999988 1_455
P2 S9 2.132064 1_555
P2 P3 2.238268 1_455
P3 S16 1.965872 1_555
P3 S14 1.988256 1_555
P3 S11 2.139640 1_545
P4 S15 1.965872 1_555
P4 S2 1.988256 1_555
P4 S18 2.139640 1_565
P4 P6 2.238268 1_554
P5 S12 1.965872 1_555
P5 S5 1.988256 1_555
P5 S9 2.139640 1_565
P6 S0 1.965103 1_556
P6 S3 1.999988 1_555
P6 S8 2.132064 1_555
P7 S6 1.965103 1_554
P7 S17 1.999988 1_555
P7 S18 2.132064 1_555
