# generated using pymatgen
data_P2OsNCl12
_symmetry_space_group_name_H-M   'P 1'
_cell_length_a   8.05382130
_cell_length_b   8.05382146
_cell_length_c   15.31737400
_cell_angle_alpha   78.44996464
_cell_angle_beta   78.44996359
_cell_angle_gamma   65.35867832
_symmetry_Int_Tables_number   1
_chemical_formula_structural   P2OsNCl12
_chemical_formula_sum   'P4 Os2 N2 Cl24'
_cell_volume   877.14736426
_cell_formula_units_Z   2
loop_
 _symmetry_equiv_pos_site_id
 _symmetry_equiv_pos_as_xyz
  1  'x, y, z'
loop_
 _atom_site_type_symbol
 _atom_site_label
 _atom_site_symmetry_multiplicity
 _atom_site_fract_x
 _atom_site_fract_y
 _atom_site_fract_z
 _atom_site_occupancy
  P  P0  1  0.45613687  0.31978021  0.27197755  1
  P  P1  1  0.68021979  0.54386313  0.22802245  1
  P  P2  1  0.31978021  0.45613687  0.77197755  1
  P  P3  1  0.54386313  0.68021979  0.72802245  1
  Os  Os0  1  0.00000000  0.00000000  0.50000000  1
  Os  Os1  1  0.00000000  0.00000000  0.00000000  1
  N  N0  1  0.37898467  0.62101533  0.75000000  1
  N  N1  1  0.62101533  0.37898467  0.25000000  1
  Cl  Cl0  1  0.76972268  0.49661329  0.67168788  1
  Cl  Cl1  1  0.27331825  0.39307488  0.66417285  1
  Cl  Cl2  1  0.39307488  0.27331825  0.16417285  1
  Cl  Cl3  1  0.49661329  0.76972268  0.17168788  1
  Cl  Cl4  1  0.10245762  0.21265868  0.52713408  1
  Cl  Cl5  1  0.04119387  0.09370866  0.34749295  1
  Cl  Cl6  1  0.50338671  0.23027732  0.82831212  1
  Cl  Cl7  1  0.09370866  0.04119387  0.84749295  1
  Cl  Cl8  1  0.08967147  0.51566544  0.85386134  1
  Cl  Cl9  1  0.91032853  0.48433456  0.14613866  1
  Cl  Cl10  1  0.90629134  0.95880613  0.15250705  1
  Cl  Cl11  1  0.70170030  0.22004672  0.51105594  1
  Cl  Cl12  1  0.21265868  0.10245762  0.02713408  1
  Cl  Cl13  1  0.95880613  0.90629134  0.65250705  1
  Cl  Cl14  1  0.29829970  0.77995328  0.48894406  1
  Cl  Cl15  1  0.22004672  0.70170030  0.01105594  1
  Cl  Cl16  1  0.51566544  0.08967147  0.35386134  1
  Cl  Cl17  1  0.78734132  0.89754238  0.97286592  1
  Cl  Cl18  1  0.23027732  0.50338671  0.32831212  1
  Cl  Cl19  1  0.48433456  0.91032853  0.64613866  1
  Cl  Cl20  1  0.89754238  0.78734132  0.47286592  1
  Cl  Cl21  1  0.72668175  0.60692612  0.33582715  1
  Cl  Cl22  1  0.60692512  0.72668175  0.83582715  1
  Cl  Cl23  1  0.77995328  0.29829970  0.98894406  1
loop_
_geom_bond_atom_site_label_1
_geom_bond_atom_site_label_2
_geom_bond_distance
_geom_bond_site_symmetry_2
N0 P3 1.545544 1_555
N0 P2 1.545544 1_555
N1 P0 1.545544 1_555
N1 P1 1.545544 1_555
Cl0 P3 1.969653 1_555
Cl1 P2 1.966336 1_555
Cl2 P0 1.966336 1_555
Cl3 P1 1.969653 1_555
Cl4 Os0 2.321195 1_555
Cl5 Os0 2.308471 1_555
Cl6 P2 1.969653 1_555
Cl7 Os1 2.308471 1_556
Cl8 P2 1.951056 1_555
Cl9 P1 1.951056 1_555
Cl10 Os1 2.308471 1_665
Cl11 Os0 2.312600 1_655
Cl12 Os1 2.321195 1_555
Cl13 Os0 2.308471 1_665
Cl14 Os0 2.312600 1_565
Cl15 Os1 2.312600 1_565
Cl16 P0 1.951056 1_555
Cl17 Os1 2.321195 1_666
Cl18 P0 1.969653 1_555
Cl19 P3 1.951056 1_555
Cl20 Os0 2.321195 1_665
Cl21 P1 1.966340 1_555
Cl22 P3 1.966336 1_555
Cl23 Os1 2.312600 1_656
