# generated using pymatgen
data_Ba6Na(SrAu3)2
_symmetry_space_group_name_H-M   'P 1'
_cell_length_a   8.61272188
_cell_length_b   8.61272204
_cell_length_c   8.61272178
_cell_angle_alpha   70.05394444
_cell_angle_beta   70.05394489
_cell_angle_gamma   70.05395141
_symmetry_Int_Tables_number   1
_chemical_formula_structural   Ba6Na(SrAu3)2
_chemical_formula_sum   'Ba6 Na1 Sr2 Au6'
_cell_volume   545.96584024
_cell_formula_units_Z   1
loop_
 _symmetry_equiv_pos_site_id
 _symmetry_equiv_pos_as_xyz
  1  'x, y, z'
loop_
 _atom_site_type_symbol
 _atom_site_label
 _atom_site_symmetry_multiplicity
 _atom_site_fract_x
 _atom_site_fract_y
 _atom_site_fract_z
 _atom_site_occupancy
  Ba  Ba0  1  0.89061195  0.17474971  0.64887996  1
  Ba  Ba1  1  0.64887996  0.89061195  0.17474971  1
  Ba  Ba2  1  0.17474971  0.64887996  0.89061195  1
  Ba  Ba3  1  0.10938805  0.82525029  0.35112004  1
  Ba  Ba4  1  0.35112004  0.10938805  0.82525029  1
  Ba  Ba5  1  0.82525029  0.35112004  0.10938805  1
  Na  Na0  1  0.50000000  0.50000000  0.50000000  1
  Sr  Sr0  1  0.31261623  0.31261623  0.31261623  1
  Sr  Sr1  1  0.68738377  0.68738377  0.68738377  1
  Au  Au0  1  0.92285297  0.54072997  0.33989845  1
  Au  Au1  1  0.33989845  0.92285297  0.54072997  1
  Au  Au2  1  0.54072997  0.33989845  0.92285297  1
  Au  Au3  1  0.07714703  0.45927003  0.66010155  1
  Au  Au4  1  0.66010155  0.07714703  0.45927003  1
  Au  Au5  1  0.45927003  0.66010155  0.07714703  1
loop_
_geom_bond_atom_site_label_1
_geom_bond_atom_site_label_2
_geom_bond_distance
_geom_bond_site_symmetry_2
Ba0 Na0 3.856439 1_555
Ba1 Na0 3.856439 1_555
Ba2 Na0 3.856439 1_555
Ba3 Na0 3.856439 1_555
Ba4 Na0 3.856439 1_555
Ba5 Na0 3.856439 1_555
Na0 Sr1 3.625609 1_555
Na0 Sr0 3.625609 1_555
Au0 Au3 3.226138 1_655
Au0 Sr0 3.234370 1_655
Au0 Ba1 3.344558 1_555
Au0 Sr1 3.369792 1_555
Au0 Ba0 3.385934 1_555
Au0 Ba3 3.398368 1_655
Au0 Ba5 3.406217 1_555
Au0 Na0 3.521838 1_555
Au0 Ba2 3.706741 1_654
Au1 Au4 3.226138 1_565
Au1 Sr0 3.234370 1_565
Au1 Ba2 3.344558 1_555
Au1 Sr1 3.369792 1_555
Au1 Ba1 3.385934 1_555
Au1 Ba4 3.398368 1_565
Au1 Ba3 3.406217 1_555
Au1 Na0 3.521838 1_555
Au1 Ba0 3.706741 1_465
Au2 Au5 3.226138 1_556
Au2 Sr0 3.234370 1_556
Au2 Ba0 3.344558 1_555
Au2 Sr1 3.369792 1_555
Au2 Ba2 3.385934 1_555
Au2 Ba5 3.398368 1_556
Au2 Ba4 3.406217 1_555
Au2 Na0 3.521838 1_555
Au2 Ba1 3.706741 1_546
Au3 Sr1 3.234370 1_455
Au3 Ba4 3.344558 1_555
Au3 Sr0 3.369792 1_555
Au3 Ba3 3.385934 1_555
Au3 Ba0 3.398368 1_455
Au3 Ba2 3.406217 1_555
Au3 Na0 3.521838 1_555
Au3 Ba5 3.706741 1_456
Au4 Sr1 3.234370 1_545
Au4 Ba5 3.344558 1_555
Au4 Sr0 3.369792 1_555
Au4 Ba4 3.385934 1_555
Au4 Ba1 3.398368 1_545
Au4 Ba0 3.406217 1_555
Au4 Na0 3.521838 1_555
Au4 Ba3 3.706741 1_645
Au5 Sr1 3.234370 1_554
Au5 Ba3 3.344558 1_555
Au5 Sr0 3.369792 1_555
Au5 Ba5 3.385934 1_555
Au5 Ba2 3.398368 1_554
Au5 Ba1 3.406217 1_555
Au5 Na0 3.521838 1_555
Au5 Ba4 3.706741 1_564
