# generated using pymatgen
data_CdAg6BrO8
_symmetry_space_group_name_H-M   'P 1'
_cell_length_a   6.95737851
_cell_length_b   6.95737765
_cell_length_c   6.95737990
_cell_angle_alpha   60.00000737
_cell_angle_beta   60.00001143
_cell_angle_gamma   60.00000095
_symmetry_Int_Tables_number   1
_chemical_formula_structural   CdAg6BrO8
_chemical_formula_sum   'Cd1 Ag6 Br1 O8'
_cell_volume   238.13432199
_cell_formula_units_Z   1
loop_
 _symmetry_equiv_pos_site_id
 _symmetry_equiv_pos_as_xyz
  1  'x, y, z'
loop_
 _atom_site_type_symbol
 _atom_site_label
 _atom_site_symmetry_multiplicity
 _atom_site_fract_x
 _atom_site_fract_y
 _atom_site_fract_z
 _atom_site_occupancy
  Cd  Cd0  1  0.00000000  0.00000000  0.00000000  1
  Ag  Ag0  1  0.00000000  0.00000000  0.50000000  1
  Ag  Ag1  1  0.50000000  0.00000000  0.50000000  1
  Ag  Ag2  1  0.00000000  0.50000000  0.50000000  1
  Ag  Ag3  1  0.50000000  0.50000000  0.00000000  1
  Ag  Ag4  1  0.00000000  0.50000000  0.00000000  1
  Ag  Ag5  1  0.50000000  0.00000000  0.00000000  1
  Br  Br0  1  0.50000000  0.50000000  0.50000000  1
  O  O0  1  0.85892158  0.85892158  0.42323625  1
  O  O1  1  0.85892158  0.42323625  0.85892158  1
  O  O2  1  0.42323625  0.85892158  0.85892158  1
  O  O3  1  0.85892158  0.85892158  0.85892158  1
  O  O4  1  0.14107842  0.14107842  0.57676375  1
  O  O5  1  0.14107842  0.57676375  0.14107842  1
  O  O6  1  0.57676375  0.14107842  0.14107842  1
  O  O7  1  0.14107842  0.14107842  0.14107842  1
loop_
_geom_bond_atom_site_label_1
_geom_bond_atom_site_label_2
_geom_bond_distance
_geom_bond_site_symmetry_2
Cd0 O7 2.404262 1_555
Cd0 O3 2.404262 1_444
Cd0 O1 2.404268 1_454
Cd0 O5 2.404268 1_545
Cd0 O2 2.404268 1_544
Cd0 O6 2.404268 1_455
Cd0 O0 2.404269 1_445
Cd0 O4 2.404269 1_554
Ag0 O4 2.055213 1_555
Ag0 O0 2.055213 1_445
Ag0 O3 2.055219 1_445
Ag0 O7 2.055219 1_555
Ag1 O0 2.055219 1_545
Ag1 O4 2.055219 1_555
Ag1 O2 2.055220 1_545
Ag1 O6 2.055220 1_555
Ag2 O0 2.055219 1_455
Ag2 O4 2.055219 1_555
Ag2 O1 2.055220 1_455
Ag2 O5 2.055220 1_555
Ag3 O2 2.055219 1_554
Ag3 O6 2.055219 1_555
Ag3 O1 2.055219 1_554
Ag3 O5 2.055219 1_555
Ag4 O5 2.055213 1_555
Ag4 O1 2.055213 1_454
Ag4 O3 2.055218 1_454
Ag4 O7 2.055218 1_555
Ag5 O6 2.055213 1_555
Ag5 O2 2.055213 1_544
Ag5 O3 2.055218 1_544
Ag5 O7 2.055218 1_555
