# generated using pymatgen
data_Ca3(Al3Os)4
_symmetry_space_group_name_H-M   'P 1'
_cell_length_a   8.81898870
_cell_length_b   8.81898927
_cell_length_c   9.60593211
_cell_angle_alpha   90.00000000
_cell_angle_beta   90.00000000
_cell_angle_gamma   119.99999787
_symmetry_Int_Tables_number   1
_chemical_formula_structural   Ca3(Al3Os)4
_chemical_formula_sum   'Ca6 Al24 Os8'
_cell_volume   647.00517494
_cell_formula_units_Z   2
loop_
 _symmetry_equiv_pos_site_id
 _symmetry_equiv_pos_as_xyz
  1  'x, y, z'
loop_
 _atom_site_type_symbol
 _atom_site_label
 _atom_site_symmetry_multiplicity
 _atom_site_fract_x
 _atom_site_fract_y
 _atom_site_fract_z
 _atom_site_occupancy
  Ca  Ca0  1  0.19427849  0.38855698  0.25000000  1
  Ca  Ca1  1  0.80572151  0.61144302  0.75000000  1
  Ca  Ca2  1  0.61144302  0.80572151  0.25000000  1
  Ca  Ca3  1  0.38855698  0.19427849  0.75000000  1
  Ca  Ca4  1  0.19427849  0.80572151  0.25000000  1
  Ca  Ca5  1  0.80572151  0.19427849  0.75000000  1
  Al  Al0  1  0.33333300  0.66666700  0.99519449  1
  Al  Al1  1  0.66666700  0.33333300  0.00480551  1
  Al  Al2  1  0.66666700  0.33333300  0.49519449  1
  Al  Al3  1  0.33333300  0.66666700  0.50480551  1
  Al  Al4  1  0.16258482  0.32516964  0.57116218  1
  Al  Al5  1  0.83741518  0.67483036  0.42883782  1
  Al  Al6  1  0.67483036  0.83741518  0.57116218  1
  Al  Al7  1  0.83741518  0.67483036  0.07116218  1
  Al  Al8  1  0.32516964  0.16258482  0.42883782  1
  Al  Al9  1  0.16258482  0.32516964  0.92883782  1
  Al  Al10  1  0.16258482  0.83741518  0.57116218  1
  Al  Al11  1  0.32516964  0.16258482  0.07116218  1
  Al  Al12  1  0.83741518  0.16258482  0.42883782  1
  Al  Al13  1  0.67483036  0.83741518  0.92883782  1
  Al  Al14  1  0.83741518  0.16258482  0.07116218  1
  Al  Al15  1  0.16258482  0.83741518  0.92883782  1
  Al  Al16  1  0.56143903  0.12287807  0.25000000  1
  Al  Al17  1  0.43856097  0.87712193  0.75000000  1
  Al  Al18  1  0.87712193  0.43856097  0.25000000  1
  Al  Al19  1  0.12287807  0.56143903  0.75000000  1
  Al  Al20  1  0.56143903  0.43856097  0.25000000  1
  Al  Al21  1  0.43856097  0.56143903  0.75000000  1
  Al  Al22  1  0.00000000  0.00000000  0.25000000  1
  Al  Al23  1  0.00000000  0.00000000  0.75000000  1
  Os  Os0  1  0.50000000  0.00000000  0.00000000  1
  Os  Os1  1  0.00000000  0.50000000  0.00000000  1
  Os  Os2  1  0.50000000  0.00000000  0.50000000  1
  Os  Os3  1  0.50000000  0.50000000  0.00000000  1
  Os  Os4  1  0.00000000  0.50000000  0.50000000  1
  Os  Os5  1  0.50000000  0.50000000  0.50000000  1
  Os  Os6  1  0.00000000  0.00000000  0.00000000  1
  Os  Os7  1  0.00000000  0.00000000  0.50000000  1
loop_
_geom_bond_atom_site_label_1
_geom_bond_atom_site_label_2
_geom_bond_distance
_geom_bond_site_symmetry_2
Ca0 Os3 3.369343 1_555
Ca0 Os5 3.369343 1_555
Ca0 Os1 3.369343 1_555
Ca0 Os4 3.369343 1_555
Ca1 Os3 3.369343 1_556
Ca1 Os5 3.369343 1_555
Ca1 Os1 3.369343 1_656
Ca1 Os4 3.369343 1_655
Ca2 Os0 3.369343 1_565
Ca2 Os2 3.369343 1_565
Ca2 Os3 3.369343 1_555
Ca2 Os5 3.369343 1_555
Ca3 Os2 3.369343 1_555
Ca3 Os0 3.369343 1_556
Ca3 Os5 3.369343 1_555
Ca3 Os3 3.369343 1_556
Ca4 Os2 3.369343 1_565
Ca4 Os0 3.369343 1_565
Ca4 Os4 3.369343 1_555
Ca4 Os1 3.369343 1_555
Ca5 Os0 3.369343 1_556
Ca5 Os2 3.369343 1_555
Ca5 Os4 3.369343 1_655
Ca5 Os1 3.369343 1_656
Al0 Os1 2.546239 1_556
Al0 Os0 2.546239 1_566
Al0 Os3 2.546246 1_556
Al0 Ca4 3.240763 1_556
Al0 Ca2 3.240768 1_556
Al0 Ca0 3.240768 1_556
Al1 Os1 2.546239 1_655
Al1 Os0 2.546239 1_555
Al1 Os3 2.546246 1_555
Al1 Ca5 3.240763 1_554
Al1 Ca3 3.240768 1_554
Al1 Ca1 3.240768 1_554
Al2 Os4 2.546239 1_655
Al2 Os2 2.546239 1_555
Al2 Os5 2.546246 1_555
Al2 Ca5 3.240763 1_555
Al2 Ca3 3.240768 1_555
Al2 Ca1 3.240768 1_555
Al3 Os4 2.546239 1_555
Al3 Os2 2.546239 1_565
Al3 Os5 2.546246 1_555
Al3 Ca4 3.240763 1_555
Al3 Ca2 3.240768 1_555
Al3 Ca0 3.240768 1_555
Al4 Os7 2.575834 1_555
Al4 Os4 2.666667 1_555
Al4 Os5 2.666667 1_555
Al4 Ca0 3.122816 1_555
Al4 Ca3 3.248923 1_555
Al4 Ca5 3.248923 1_455
Al5 Os7 2.575834 1_665
Al5 Os4 2.666667 1_655
Al5 Os5 2.666667 1_555
Al5 Ca1 3.122816 1_555
Al5 Ca2 3.248923 1_555
Al5 Ca4 3.248923 1_655
Al6 Os7 2.575833 1_665
Al6 Os2 2.666667 1_565
Al6 Os5 2.666667 1_555
Al6 Ca2 3.122816 1_555
Al6 Ca1 3.248923 1_555
Al6 Ca5 3.248923 1_565
Al7 Os6 2.575834 1_665
Al7 Os1 2.666667 1_655
Al7 Os3 2.666667 1_555
Al7 Ca1 3.122816 1_554
Al7 Ca2 3.248923 1_555
Al7 Ca4 3.248923 1_655
Al8 Os7 2.575833 1_555
Al8 Os2 2.666667 1_555
Al8 Os5 2.666667 1_555
Al8 Ca3 3.122816 1_555
Al8 Ca0 3.248923 1_555
Al8 Ca4 3.248923 1_545
Al9 Os6 2.575834 1_556
Al9 Os1 2.666667 1_556
Al9 Os3 2.666667 1_556
Al9 Ca0 3.122816 1_556
Al9 Ca3 3.248923 1_555
Al9 Ca5 3.248923 1_455
Al10 Os7 2.575833 1_565
Al10 Os2 2.666667 1_565
Al10 Os4 2.666667 1_555
Al10 Ca4 3.122816 1_555
Al10 Ca1 3.248923 1_455
Al10 Ca3 3.248923 1_565
Al11 Os6 2.575833 1_555
Al11 Os0 2.666667 1_555
Al11 Os3 2.666667 1_555
Al11 Ca3 3.122816 1_554
Al11 Ca0 3.248923 1_555
Al11 Ca4 3.248923 1_545
Al12 Os7 2.575833 1_655
Al12 Os2 2.666667 1_555
Al12 Os4 2.666667 1_655
Al12 Ca5 3.122816 1_555
Al12 Ca0 3.248923 1_655
Al12 Ca2 3.248923 1_545
Al13 Os6 2.575833 1_666
Al13 Os0 2.666667 1_566
Al13 Os3 2.666667 1_556
Al13 Ca2 3.122816 1_556
Al13 Ca1 3.248923 1_555
Al13 Ca5 3.248923 1_565
Al14 Os6 2.575833 1_655
Al14 Os0 2.666667 1_555
Al14 Os1 2.666667 1_655
Al14 Ca5 3.122816 1_554
Al14 Ca0 3.248923 1_655
Al14 Ca2 3.248923 1_545
Al15 Os6 2.575833 1_566
Al15 Os0 2.666667 1_566
Al15 Os1 2.666667 1_556
Al15 Ca4 3.122816 1_556
Al15 Ca1 3.248923 1_455
Al15 Ca3 3.248923 1_565
Al16 Os0 2.578345 1_555
Al16 Os2 2.578345 1_555
Al16 Ca4 3.041564 1_545
Al16 Ca2 3.041564 1_545
Al17 Os2 2.578345 1_565
Al17 Os0 2.578345 1_566
Al17 Ca5 3.041564 1_565
Al17 Ca3 3.041564 1_565
Al18 Os1 2.578345 1_655
Al18 Os4 2.578345 1_655
Al18 Ca0 3.041564 1_655
Al18 Ca4 3.041564 1_655
Al19 Os4 2.578345 1_555
Al19 Os1 2.578345 1_556
Al19 Ca1 3.041564 1_455
Al19 Ca5 3.041564 1_455
Al20 Os3 2.578345 1_555
Al20 Os5 2.578345 1_555
Al20 Ca0 3.041564 1_555
Al20 Ca2 3.041564 1_555
Al21 Os3 2.578345 1_556
Al21 Os5 2.578345 1_555
Al21 Ca1 3.041564 1_555
Al21 Ca3 3.041564 1_555
Al22 Os7 2.401483 1_555
Al22 Os6 2.401483 1_555
Al22 Ca2 2.967592 1_445
Al22 Ca4 2.967592 1_545
Al22 Ca0 2.967592 1_555
Al23 Os7 2.401483 1_555
Al23 Os6 2.401483 1_556
Al23 Ca3 2.967592 1_555
Al23 Ca5 2.967592 1_455
Al23 Ca1 2.967592 1_445
