# generated using pymatgen
data_Ta4VB2P
_symmetry_space_group_name_H-M   'P 1'
_cell_length_a   6.05536781
_cell_length_b   6.05536751
_cell_length_c   7.12300605
_cell_angle_alpha   115.15428503
_cell_angle_beta   115.15428609
_cell_angle_gamma   89.99998929
_symmetry_Int_Tables_number   1
_chemical_formula_structural   Ta4VB2P
_chemical_formula_sum   'Ta8 V2 B4 P2'
_cell_volume   208.72609660
_cell_formula_units_Z   2
loop_
 _symmetry_equiv_pos_site_id
 _symmetry_equiv_pos_as_xyz
  1  'x, y, z'
loop_
 _atom_site_type_symbol
 _atom_site_label
 _atom_site_symmetry_multiplicity
 _atom_site_fract_x
 _atom_site_fract_y
 _atom_site_fract_z
 _atom_site_occupancy
  Ta  Ta0  1  0.03100418  0.53100418  0.72299127  1
  Ta  Ta1  1  0.69198609  0.19198609  0.72299127  1
  Ta  Ta2  1  0.19198609  0.03100418  0.72299127  1
  Ta  Ta3  1  0.53100418  0.69198609  0.72299127  1
  Ta  Ta4  1  0.96899582  0.46899582  0.27700873  1
  Ta  Ta5  1  0.30801391  0.80801391  0.27700873  1
  Ta  Ta6  1  0.80801391  0.96899582  0.27700873  1
  Ta  Ta7  1  0.46899582  0.30801391  0.27700873  1
  V  V0  1  0.50000000  0.50000000  0.00000000  1
  V  V1  1  0.00000000  0.00000000  0.00000000  1
  B  B0  1  0.38040762  0.88040762  0.00000000  1
  B  B1  1  0.61959238  0.11959238  1.00000000  1
  B  B2  1  0.11959238  0.38040762  0.00000000  1
  B  B3  1  0.88040762  0.61959238  1.00000000  1
  P  P0  1  0.25000000  0.25000000  0.50000000  1
  P  P1  1  0.75000000  0.75000000  0.50000000  1
loop_
_geom_bond_atom_site_label_1
_geom_bond_atom_site_label_2
_geom_bond_distance
_geom_bond_site_symmetry_2
Ta0 V1 2.746817 1_566
Ta0 V0 2.746817 1_556
Ta1 V1 2.746815 1_656
Ta1 V0 2.746815 1_556
Ta2 V1 2.746813 1_556
Ta2 V0 2.746819 1_556
Ta3 V0 2.746813 1_556
Ta3 V1 2.746819 1_666
Ta4 V1 2.746817 1_655
Ta4 V0 2.746817 1_555
Ta5 V1 2.746815 1_565
Ta5 V0 2.746815 1_555
Ta6 V1 2.746813 1_665
Ta6 V0 2.746819 1_555
Ta7 V0 2.746813 1_555
Ta7 V1 2.746819 1_555
B0 B1 2.048279 1_564
B0 Ta2 2.375384 1_564
B0 Ta3 2.375385 1_554
B0 Ta7 2.375388 1_565
B0 Ta6 2.375388 1_555
B0 Ta5 2.397548 1_555
B0 Ta0 2.397554 1_554
B0 V0 2.414659 1_555
B0 V1 2.414659 1_565
B1 Ta6 2.375384 1_546
B1 Ta7 2.375385 1_556
B1 Ta3 2.375388 1_545
B1 Ta2 2.375388 1_555
B1 Ta1 2.397548 1_555
B1 Ta4 2.397554 1_556
B1 V0 2.414659 1_556
B1 V1 2.414659 1_656
B2 B3 2.048278 1_454
B2 Ta0 2.375384 1_554
B2 Ta4 2.375384 1_455
B2 Ta5 2.375389 1_555
B2 Ta1 2.375389 1_454
B2 Ta2 2.397551 1_554
B2 Ta7 2.397551 1_555
B2 V1 2.414659 1_555
B2 V0 2.414660 1_555
B3 Ta4 2.375384 1_556
B3 Ta0 2.375384 1_655
B3 Ta1 2.375389 1_555
B3 Ta5 2.375389 1_656
B3 Ta6 2.397551 1_556
B3 Ta3 2.397551 1_555
B3 V1 2.414659 1_666
B3 V0 2.414660 1_556
P0 Ta3 2.582596 1_555
P0 Ta6 2.582596 1_445
P0 Ta5 2.582599 1_545
P0 Ta1 2.582599 1_555
P0 Ta4 2.582601 1_455
P0 Ta0 2.582601 1_555
P0 Ta2 2.582604 1_555
P0 Ta7 2.582604 1_555
P0 V0 2.846202 1_556
P0 V1 2.846202 1_555
P1 Ta7 2.582596 1_555
P1 Ta2 2.582596 1_665
P1 Ta1 2.582599 1_565
P1 Ta5 2.582599 1_555
P1 Ta0 2.582601 1_655
P1 Ta4 2.582601 1_555
P1 Ta6 2.582604 1_555
P1 Ta3 2.582604 1_555
P1 V1 2.846202 1_666
P1 V0 2.846202 1_555
