# generated using pymatgen
data_CaHf4(PO4)6
_symmetry_space_group_name_H-M   'P 1'
_cell_length_a   8.76788001
_cell_length_b   8.76791172
_cell_length_c   9.05697622
_cell_angle_alpha   61.04997367
_cell_angle_beta   118.95032131
_cell_angle_gamma   120.00010713
_symmetry_Int_Tables_number   1
_chemical_formula_structural   CaHf4(PO4)6
_chemical_formula_sum   'Ca1 Hf4 P6 O24'
_cell_volume   500.00093432
_cell_formula_units_Z   1
loop_
 _symmetry_equiv_pos_site_id
 _symmetry_equiv_pos_as_xyz
  1  'x, y, z'
loop_
 _atom_site_type_symbol
 _atom_site_label
 _atom_site_symmetry_multiplicity
 _atom_site_fract_x
 _atom_site_fract_y
 _atom_site_fract_z
 _atom_site_occupancy
  Ca  Ca0  1  0.00000000  0.00000000  0.00000000  1
  Hf  Hf0  1  0.36014846  0.63985163  0.08043639  1
  Hf  Hf1  1  0.14793727  0.85205857  0.44382378  1
  Hf  Hf2  1  0.85206273  0.14794143  0.55617622  1
  Hf  Hf3  1  0.63985154  0.36014837  0.91956361  1
  P  P0  1  0.03005293  0.24346356  0.24237685  1
  P  P1  1  0.45578162  0.96996636  0.24236267  1
  P  P2  1  0.75654357  0.54421804  0.24236450  1
  P  P3  1  0.24345643  0.45578096  0.75763550  1
  P  P4  1  0.54421838  0.03003364  0.75763733  1
  P  P5  1  0.96994707  0.75653644  0.75762215  1
  O  O0  1  0.48464312  0.14157415  0.08127115  1
  O  O1  1  0.73817350  0.51535820  0.08126292  1
  O  O2  1  0.85845415  0.26184699  0.08128298  1
  O  O3  1  0.45082926  0.80328069  0.22611348  1
  O  O4  1  0.57856838  0.54916140  0.22614585  1
  O  O5  1  0.19676197  0.42142732  0.22615393  1
  O  O6  1  0.26689977  0.92766001  0.25265429  1
  O  O7  1  0.91341221  0.73310117  0.25264723  1
  O  O8  1  0.07232691  0.08658680  0.25264659  1
  O  O9  1  0.80852392  0.38973042  0.41291559  1
  O  O10  1  0.99416142  0.19149156  0.41293746  1
  O  O11  1  0.61027407  0.00586474  0.41291790  1
  O  O12  1  0.38972593  0.99413526  0.58708110  1
  O  O13  1  0.00583858  0.80850844  0.58706154  1
  O  O14  1  0.19147708  0.61026958  0.58708541  1
  O  O15  1  0.92767309  0.91341420  0.74735341  1
  O  O16  1  0.08658779  0.26689883  0.74735177  1
  O  O17  1  0.73310023  0.07233899  0.74734571  1
  O  O18  1  0.80323703  0.57857268  0.77384607  1
  O  O19  1  0.42143162  0.45083960  0.77385415  1
  O  O20  1  0.54917074  0.19672031  0.77388652  1
  O  O21  1  0.14154585  0.73815301  0.91871702  1
  O  O22  1  0.26182550  0.48464180  0.91873608  1
  O  O23  1  0.51535688  0.85842585  0.91872885  1
loop_
_geom_bond_atom_site_label_1
_geom_bond_atom_site_label_2
_geom_bond_distance
_geom_bond_site_symmetry_2
Ca0 O7 2.451499 1_445
Ca0 O16 2.451505 1_554
Ca0 O17 2.451512 1_454
Ca0 O6 2.451515 1_545
Ca0 O15 2.451515 1_444
Ca0 O8 2.451521 1_555
Hf0 O5 2.025243 1_555
Hf0 O4 2.025246 1_555
Hf0 O3 2.025257 1_555
Hf0 O21 2.067344 1_554
Hf0 O22 2.067347 1_554
Hf0 O23 2.067348 1_554
Hf1 O14 1.997611 1_555
Hf1 O12 1.997621 1_555
Hf1 O13 1.997630 1_555
Hf1 O7 2.114463 1_455
Hf1 O6 2.114477 1_555
Hf1 O8 2.114492 1_565
Hf2 O9 1.997607 1_555
Hf2 O11 1.997625 1_555
Hf2 O10 1.997638 1_555
Hf2 O16 2.114458 1_655
Hf2 O17 2.114474 1_555
Hf2 O15 2.114486 1_545
Hf3 O18 2.025239 1_555
Hf3 O20 2.025249 1_555
Hf3 O19 2.025251 1_555
Hf3 O1 2.067342 1_556
Hf3 O2 2.067344 1_556
Hf3 O0 2.067348 1_556
O0 P1 1.519247 1_545
O1 P2 1.519238 1_555
O2 P0 1.519244 1_655
O3 P1 1.515935 1_555
O4 P2 1.515939 1_555
O5 P0 1.515934 1_555
O6 P1 1.546153 1_555
O7 P2 1.546154 1_555
O8 P0 1.546151 1_555
O9 P2 1.529295 1_555
O10 P0 1.529289 1_655
O11 P1 1.529290 1_545
O12 P4 1.529296 1_565
O13 P5 1.529289 1_455
O14 P3 1.529294 1_555
O15 P5 1.546164 1_555
O16 P3 1.546150 1_555
O17 P4 1.546156 1_555
O18 P5 1.515939 1_555
O19 P3 1.515930 1_555
O20 P4 1.515944 1_555
O21 P5 1.519248 1_455
O22 P3 1.519238 1_555
O23 P4 1.519247 1_565
