# generated using pymatgen
data_Au2(IBr)3
_symmetry_space_group_name_H-M   'P 1'
_cell_length_a   21.35125283
_cell_length_b   7.05823256
_cell_length_c   8.78398848
_cell_angle_alpha   60.57979419
_cell_angle_beta   90.00000000
_cell_angle_gamma   90.00000000
_symmetry_Int_Tables_number   1
_chemical_formula_structural   Au2(IBr)3
_chemical_formula_sum   'Au8 I12 Br12'
_cell_volume   1153.05361298
_cell_formula_units_Z   4
loop_
 _symmetry_equiv_pos_site_id
 _symmetry_equiv_pos_as_xyz
  1  'x, y, z'
loop_
 _atom_site_type_symbol
 _atom_site_label
 _atom_site_symmetry_multiplicity
 _atom_site_fract_x
 _atom_site_fract_y
 _atom_site_fract_z
 _atom_site_occupancy
  Au  Au0  1  0.71014038  0.62229226  0.21513970  1
  Au  Au1  1  0.21014038  0.37770774  0.28486030  1
  Au  Au2  1  0.28985962  0.37770774  0.78486030  1
  Au  Au3  1  0.78985962  0.62229226  0.71513970  1
  Au  Au4  1  0.53730113  0.73231262  0.24123897  1
  Au  Au5  1  0.03730113  0.26768738  0.25876103  1
  Au  Au6  1  0.46269887  0.26768738  0.75876103  1
  Au  Au7  1  0.96269887  0.73231262  0.74123897  1
  I  I0  1  0.76732111  0.29700073  0.20884524  1
  I  I1  1  0.26732111  0.70299927  0.29115476  1
  I  I2  1  0.23267889  0.70299927  0.79115476  1
  I  I3  1  0.73267889  0.29700073  0.70884524  1
  I  I4  1  0.81597410  0.81845088  0.20773438  1
  I  I5  1  0.31597410  0.18154912  0.29226562  1
  I  I6  1  0.18402590  0.18154912  0.79226562  1
  I  I7  1  0.68402590  0.81845088  0.70773438  1
  I  I8  1  0.89733211  0.41595951  0.74351458  1
  I  I9  1  0.39733211  0.58404049  0.75648542  1
  I  I10  1  0.10266789  0.58404049  0.25648542  1
  I  I11  1  0.60266789  0.41595951  0.24351458  1
  Br  Br0  1  0.05885912  0.52961502  0.77712460  1
  Br  Br1  1  0.55885912  0.47038498  0.72287540  1
  Br  Br2  1  0.94114088  0.47038498  0.22287540  1
  Br  Br3  1  0.44114088  0.52961502  0.27712460  1
  Br  Br4  1  0.01990202  0.03521911  0.73837742  1
  Br  Br5  1  0.51990202  0.96478089  0.76162258  1
  Br  Br6  1  0.98009798  0.96478089  0.26162258  1
  Br  Br7  1  0.48009798  0.03521911  0.23837742  1
  Br  Br8  1  0.86009706  0.92445910  0.70140813  1
  Br  Br9  1  0.36009706  0.07554090  0.79859187  1
  Br  Br10  1  0.13990294  0.07554090  0.29859187  1
  Br  Br11  1  0.63990294  0.92445910  0.20140813  1
loop_
_geom_bond_atom_site_label_1
_geom_bond_atom_site_label_2
_geom_bond_distance
_geom_bond_site_symmetry_2
Au0 Br11 2.561147 1_555
Au0 I0 2.624854 1_555
Au0 I4 2.634170 1_555
Au0 I11 2.663077 1_555
Au1 Br10 2.561147 1_555
Au1 I1 2.624854 1_555
Au1 I5 2.634170 1_555
Au1 I10 2.663077 1_555
Au2 Br9 2.561147 1_555
Au2 I2 2.624854 1_555
Au2 I6 2.634170 1_555
Au2 I9 2.663077 1_555
Au3 Br8 2.561147 1_555
Au3 I3 2.624854 1_555
Au3 I7 2.634170 1_555
Au3 I8 2.663077 1_555
Au4 Br3 2.432811 1_555
Au4 Br7 2.451639 1_565
Au4 Br11 2.508911 1_555
Au4 I11 2.624926 1_555
Au5 Br2 2.432811 1_455
Au5 Br6 2.451639 1_445
Au5 Br10 2.508911 1_555
Au5 I10 2.624926 1_555
Au6 Br1 2.432811 1_555
Au6 Br5 2.451639 1_545
Au6 Br9 2.508911 1_555
Au6 I9 2.624926 1_555
Au7 Br0 2.432811 1_655
Au7 Br4 2.451639 1_665
Au7 Br8 2.508911 1_555
Au7 I8 2.624926 1_555
