# generated using pymatgen
data_Sc3SiSb3Au4
_symmetry_space_group_name_H-M   'P 1'
_cell_length_a   7.80407093
_cell_length_b   7.80407024
_cell_length_c   7.79638774
_cell_angle_alpha   132.03792235
_cell_angle_beta   132.03792051
_cell_angle_gamma   70.24941888
_symmetry_Int_Tables_number   1
_chemical_formula_structural   Sc3SiSb3Au4
_chemical_formula_sum   'Sc3 Si1 Sb3 Au4'
_cell_volume   256.61161526
_cell_formula_units_Z   1
loop_
 _symmetry_equiv_pos_site_id
 _symmetry_equiv_pos_as_xyz
  1  'x, y, z'
loop_
 _atom_site_type_symbol
 _atom_site_label
 _atom_site_symmetry_multiplicity
 _atom_site_fract_x
 _atom_site_fract_y
 _atom_site_fract_z
 _atom_site_occupancy
  Sc  Sc0  1  0.99378907  0.99378907  1.00000000  1
  Sc  Sc1  1  0.75072235  0.25072135  0.50000100  1
  Sc  Sc2  1  0.25072135  0.75072235  0.50000100  1
  Si  Si0  1  0.25202344  0.25202344  1.00000000  1
  Sb  Sb0  1  0.74867509  0.74867509  1.00000000  1
  Sb  Sb1  1  0.49899078  0.99898978  0.50000100  1
  Sb  Sb2  1  0.99898978  0.49899078  0.50000100  1
  Au  Au0  1  0.59226967  0.15103911  0.00000000  1
  Au  Au1  1  0.15103911  0.59226967  0.00000000  1
  Au  Au2  1  0.90161495  0.90161495  0.54044953  1
  Au  Au3  1  0.36116642  0.36116642  0.45955147  1
loop_
_geom_bond_atom_site_label_1
_geom_bond_atom_site_label_2
_geom_bond_distance
_geom_bond_site_symmetry_2
Sc0 Si0 3.296601 1_665
Sb0 Sc0 3.129107 1_555
Sb0 Sc1 3.170390 1_566
Sb0 Sc1 3.170390 1_555
Sb0 Sc2 3.170390 1_656
Sb0 Sc2 3.170390 1_555
Sb1 Sc2 3.169376 1_555
Sb1 Sc0 3.170972 1_555
Sb1 Sc0 3.170984 1_454
Sb1 Sc1 3.213586 1_565
Sb2 Sc1 3.169376 1_555
Sb2 Sc0 3.170971 1_555
Sb2 Sc0 3.170984 1_544
Sb2 Sc2 3.213586 1_655
Au0 Si0 2.501486 1_554
Au0 Sc2 2.731916 1_544
Au0 Sc1 2.731924 1_555
Au0 Sb1 2.778922 1_544
Au0 Sb2 2.778928 1_555
Au0 Sc0 2.953949 1_544
Au0 Sb0 2.959655 1_544
Au1 Si0 2.501486 1_554
Au1 Sc1 2.731916 1_454
Au1 Sc2 2.731924 1_555
Au1 Sb2 2.778922 1_454
Au1 Sb1 2.778928 1_555
Au1 Sc0 2.953949 1_454
Au1 Sb0 2.959655 1_454
Au2 Si0 2.569839 1_665
Au2 Sc0 2.705208 1_555
Au2 Sc1 2.719147 1_565
Au2 Sc2 2.719147 1_655
Au2 Sb2 2.816011 1_555
Au2 Sb1 2.816011 1_555
Au2 Sb0 2.845273 1_554
Au3 Si0 2.569839 1_554
Au3 Sc0 2.705216 1_444
Au3 Sc2 2.719151 1_555
Au3 Sc1 2.719151 1_555
Au3 Sb1 2.816022 1_545
Au3 Sb2 2.816023 1_455
Au3 Sb0 2.845267 1_555
