# generated using pymatgen
data_SrCdSiSe4
_symmetry_space_group_name_H-M   'P 1'
_cell_length_a   6.31017844
_cell_length_b   6.31017814
_cell_length_c   10.86864901
_cell_angle_alpha   90.00000000
_cell_angle_beta   90.00000000
_cell_angle_gamma   116.10841549
_symmetry_Int_Tables_number   1
_chemical_formula_structural   SrCdSiSe4
_chemical_formula_sum   'Sr2 Cd2 Si2 Se8'
_cell_volume   388.61292565
_cell_formula_units_Z   2
loop_
 _symmetry_equiv_pos_site_id
 _symmetry_equiv_pos_as_xyz
  1  'x, y, z'
loop_
 _atom_site_type_symbol
 _atom_site_label
 _atom_site_symmetry_multiplicity
 _atom_site_fract_x
 _atom_site_fract_y
 _atom_site_fract_z
 _atom_site_occupancy
  Sr  Sr0  1  0.94453764  0.94453764  0.50000000  1
  Sr  Sr1  1  0.94453764  0.94453764  0.00000000  1
  Cd  Cd0  1  0.67396464  0.34527990  0.75000000  1
  Cd  Cd1  1  0.34527990  0.67396464  0.25000000  1
  Si  Si0  1  0.23633545  0.67498699  0.75000000  1
  Si  Si1  1  0.67498699  0.23633545  0.25000000  1
  Se  Se0  1  0.02540790  0.47943788  0.58059120  1
  Se  Se1  1  0.47943788  0.02540790  0.41940880  1
  Se  Se2  1  0.62270920  0.75611819  0.75000000  1
  Se  Se3  1  0.75611819  0.62270920  0.25000000  1
  Se  Se4  1  0.02540790  0.47943788  0.91940880  1
  Se  Se5  1  0.47943788  0.02540790  0.08059120  1
  Se  Se6  1  0.23394436  0.03869444  0.75000000  1
  Se  Se7  1  0.03869444  0.23394436  0.25000000  1
loop_
_geom_bond_atom_site_label_1
_geom_bond_atom_site_label_2
_geom_bond_distance
_geom_bond_site_symmetry_2
Cd0 Se6 2.593153 1_555
Cd0 Se0 2.715241 1_655
Cd0 Se4 2.715241 1_655
Cd0 Se2 2.750174 1_555
Cd1 Se7 2.593153 1_555
Cd1 Se1 2.715241 1_565
Cd1 Se5 2.715241 1_565
Cd1 Se3 2.750174 1_555
Se0 Si0 2.288848 1_555
Se0 Sr0 3.302182 1_445
Se0 Sr0 3.310473 1_455
Se1 Si1 2.288848 1_555
Se1 Sr0 3.302182 1_445
Se1 Sr0 3.310473 1_545
Se2 Si0 2.260041 1_555
Se2 Sr0 3.285665 1_555
Se2 Sr1 3.285665 1_556
Se3 Si1 2.260041 1_555
Se3 Sr0 3.285665 1_555
Se3 Sr1 3.285665 1_555
Se4 Si0 2.288848 1_555
Se4 Sr1 3.302182 1_446
Se4 Sr1 3.310473 1_456
Se5 Si1 2.288848 1_555
Se5 Sr1 3.302182 1_445
Se5 Sr1 3.310473 1_545
Se6 Si0 2.301739 1_545
Se6 Sr1 3.180571 1_446
Se6 Sr0 3.180571 1_445
Se7 Si1 2.301739 1_455
Se7 Sr1 3.180571 1_445
Se7 Sr0 3.180571 1_445
