# generated using pymatgen
data_Li3MgAs6Ir7
_symmetry_space_group_name_H-M   'P 1'
_cell_length_a   6.94059388
_cell_length_b   6.96341908
_cell_length_c   6.96341801
_cell_angle_alpha   109.53751449
_cell_angle_beta   109.40483841
_cell_angle_gamma   109.40483872
_symmetry_Int_Tables_number   1
_chemical_formula_structural   Li3MgAs6Ir7
_chemical_formula_sum   'Li3 Mg1 As6 Ir7'
_cell_volume   259.28352017
_cell_formula_units_Z   1
loop_
 _symmetry_equiv_pos_site_id
 _symmetry_equiv_pos_as_xyz
  1  'x, y, z'
loop_
 _atom_site_type_symbol
 _atom_site_label
 _atom_site_symmetry_multiplicity
 _atom_site_fract_x
 _atom_site_fract_y
 _atom_site_fract_z
 _atom_site_occupancy
  Li  Li0  1  0.00000000  0.00000000  0.50000000  1
  Li  Li1  1  0.00000000  0.50000000  0.00000000  1
  Li  Li2  1  0.50000000  0.50000000  0.50000000  1
  Mg  Mg0  1  0.50000000  0.00000000  0.00000000  1
  As  As0  1  0.69188145  0.68382523  0.00000000  1
  As  As1  1  0.30811855  0.31617477  1.00000000  1
  As  As2  1  0.99194478  0.68382523  0.68382523  1
  As  As3  1  0.00805522  0.31617477  0.31617477  1
  As  As4  1  0.69188145  1.00000000  0.68382523  1
  As  As5  1  0.30811855  0.00000000  0.31617477  1
  Ir  Ir0  1  0.00000000  0.00000000  0.00000000  1
  Ir  Ir1  1  0.25143293  0.50286586  0.75143293  1
  Ir  Ir2  1  0.74856707  0.24856707  0.49713414  1
  Ir  Ir3  1  0.50000000  0.24856707  0.75143293  1
  Ir  Ir4  1  0.50000000  0.75143293  0.24856707  1
  Ir  Ir5  1  0.74856707  0.49713414  0.24856707  1
  Ir  Ir6  1  0.25143293  0.75143293  0.50286586  1
loop_
_geom_bond_atom_site_label_1
_geom_bond_atom_site_label_2
_geom_bond_distance
_geom_bond_site_symmetry_2
As0 Ir5 2.496620 1_555
As0 Ir3 2.496621 1_554
As0 Ir0 2.508388 1_665
As0 Ir1 2.528733 1_554
As0 Ir4 2.528733 1_555
As0 Li1 2.833865 1_655
As0 Li2 2.887851 1_554
As0 Li0 2.887851 1_665
As0 Mg0 2.927326 1_565
As1 Ir1 2.496620 1_555
As1 Ir4 2.496621 1_556
As1 Ir0 2.508388 1_556
As1 Ir5 2.528733 1_556
As1 Ir3 2.528733 1_555
As1 Li1 2.833865 1_556
As1 Li2 2.887851 1_556
As1 Li0 2.887851 1_555
As1 Mg0 2.927326 1_556
As2 Ir5 2.496621 1_555
As2 Ir2 2.496621 1_555
As2 Ir0 2.508392 1_666
As2 Ir6 2.528727 1_655
As2 Ir1 2.528728 1_655
As2 Li2 2.833872 1_555
As2 Li1 2.887852 1_656
As2 Li0 2.887852 1_665
As2 Mg0 2.927321 1_666
As3 Ir1 2.496621 1_555
As3 Ir6 2.496621 1_555
As3 Ir0 2.508392 1_555
As3 Ir2 2.528727 1_455
As3 Ir5 2.528728 1_455
As3 Li2 2.833872 1_555
As3 Li1 2.887852 1_555
As3 Li0 2.887852 1_555
As3 Mg0 2.927321 1_455
As4 Ir2 2.496620 1_565
As4 Ir4 2.496620 1_555
As4 Ir0 2.508387 1_666
As4 Ir6 2.528733 1_555
As4 Ir3 2.528733 1_565
As4 Li0 2.833865 1_665
As4 Li1 2.887852 1_666
As4 Li2 2.887852 1_555
As4 Mg0 2.927326 1_566
As5 Ir6 2.496620 1_545
As5 Ir3 2.496620 1_555
As5 Ir0 2.508387 1_555
As5 Ir2 2.528733 1_555
As5 Ir4 2.528733 1_545
As5 Li0 2.833865 1_555
As5 Li1 2.887852 1_545
As5 Li2 2.887852 1_555
As5 Mg0 2.927326 1_555
Ir1 Mg0 2.827666 1_566
Ir1 Li1 2.837030 1_556
Ir1 Li2 2.837030 1_555
Ir1 Li0 2.860268 1_555
Ir2 Mg0 2.827665 1_555
Ir2 Li0 2.837030 1_655
Ir2 Li2 2.837030 1_555
Ir2 Li1 2.860267 1_656
Ir3 Mg0 2.827665 1_556
Ir3 Li0 2.837030 1_555
Ir3 Li1 2.837030 1_656
Ir3 Li2 2.860267 1_555
Ir4 Mg0 2.827665 1_565
Ir4 Li0 2.837030 1_665
Ir4 Li1 2.837030 1_555
Ir4 Li2 2.860267 1_555
Ir5 Mg0 2.827666 1_555
Ir5 Li1 2.837030 1_655
Ir5 Li2 2.837030 1_555
Ir5 Li0 2.860268 1_665
Ir6 Mg0 2.827665 1_566
Ir6 Li0 2.837030 1_565
Ir6 Li2 2.837030 1_555
Ir6 Li1 2.860267 1_555
