# generated using pymatgen
data_RbLuCr2O8
_symmetry_space_group_name_H-M   'P 1'
_cell_length_a   5.65631288
_cell_length_b   5.65616562
_cell_length_c   7.72506985
_cell_angle_alpha   89.99993741
_cell_angle_beta   90.00216744
_cell_angle_gamma   119.99879786
_symmetry_Int_Tables_number   1
_chemical_formula_structural   RbLuCr2O8
_chemical_formula_sum   'Rb1 Lu1 Cr2 O8'
_cell_volume   214.03946104
_cell_formula_units_Z   1
loop_
 _symmetry_equiv_pos_site_id
 _symmetry_equiv_pos_as_xyz
  1  'x, y, z'
loop_
 _atom_site_type_symbol
 _atom_site_label
 _atom_site_symmetry_multiplicity
 _atom_site_fract_x
 _atom_site_fract_y
 _atom_site_fract_z
 _atom_site_occupancy
  Rb  Rb0  1  0.99997683  0.99999204  0.49996668  1
  Lu  Lu0  1  0.99994602  0.99999514  0.99998444  1
  Cr  Cr0  1  0.66676680  0.33336300  0.24371951  1
  Cr  Cr1  1  0.33333377  0.66665157  0.75639867  1
  O  O0  1  0.34705570  0.17353218  0.17338275  1
  O  O1  1  0.82648114  0.17351442  0.17338335  1
  O  O2  1  0.82648081  0.65296542  0.17338480  1
  O  O3  1  0.66668644  0.33335097  0.45156963  1
  O  O4  1  0.33331141  0.66665808  0.54843554  1
  O  O5  1  0.17347762  0.34697971  0.82659076  1
  O  O6  1  0.17349159  0.82649434  0.82658887  1
  O  O7  1  0.65299287  0.82650414  0.82659500  1
loop_
_geom_bond_atom_site_label_1
_geom_bond_atom_site_label_2
_geom_bond_distance
_geom_bond_site_symmetry_2
Lu0 O7 2.163902 1_555
Lu0 O5 2.164075 1_665
Lu0 O1 2.164094 1_566
Lu0 O2 2.164281 1_556
Lu0 O6 2.164317 1_655
Lu0 O0 2.164546 1_666
Cr0 O3 1.605657 1_555
Cr0 O1 1.656985 1_555
Cr0 O2 1.657170 1_555
Cr0 O0 1.657684 1_555
Cr1 O4 1.606530 1_555
Cr1 O7 1.657088 1_555
Cr1 O5 1.657131 1_555
Cr1 O6 1.657180 1_555
O0 Rb0 3.042361 1_445
O1 Rb0 3.042068 1_545
O2 Rb0 3.042090 1_555
O3 Rb0 3.286828 1_555
O3 Rb0 3.286851 1_545
O3 Rb0 3.287270 1_445
O4 Rb0 3.287007 1_455
O4 Rb0 3.287013 1_445
O4 Rb0 3.287118 1_555
O5 Rb0 3.042254 1_445
O6 Rb0 3.042302 1_455
O7 Rb0 3.042385 1_555
