# generated using pymatgen
data_Rb12AlGaAs6
_symmetry_space_group_name_H-M   'P 1'
_cell_length_a   5.99073785
_cell_length_b   10.11547678
_cell_length_c   11.74479396
_cell_angle_alpha   79.14885351
_cell_angle_beta   90.00000000
_cell_angle_gamma   90.00000000
_symmetry_Int_Tables_number   1
_chemical_formula_structural   Rb12AlGaAs6
_chemical_formula_sum   'Rb12 Al1 Ga1 As6'
_cell_volume   698.99882995
_cell_formula_units_Z   1
loop_
 _symmetry_equiv_pos_site_id
 _symmetry_equiv_pos_as_xyz
  1  'x, y, z'
loop_
 _atom_site_type_symbol
 _atom_site_label
 _atom_site_symmetry_multiplicity
 _atom_site_fract_x
 _atom_site_fract_y
 _atom_site_fract_z
 _atom_site_occupancy
  Rb  Rb0  1  0.75000000  0.11724047  0.32361971  1
  Rb  Rb1  1  0.25000000  0.87929498  0.67638514  1
  Rb  Rb2  1  0.75000000  0.13659552  0.97813334  1
  Rb  Rb3  1  0.25000000  0.86580769  0.02258397  1
  Rb  Rb4  1  0.75000000  0.44027185  0.46121540  1
  Rb  Rb5  1  0.25000000  0.55869696  0.54022882  1
  Rb  Rb6  1  0.75000000  0.46226326  0.07362874  1
  Rb  Rb7  1  0.25000000  0.54032745  0.92484988  1
  Rb  Rb8  1  0.75000000  0.73884301  0.22557001  1
  Rb  Rb9  1  0.25000000  0.25899979  0.77476732  1
  Rb  Rb10  1  0.75000000  0.08783014  0.63076041  1
  Rb  Rb11  1  0.25000000  0.91018022  0.36787942  1
  Al  Al0  1  0.25000000  0.32430558  0.27955168  1
  Ga  Ga0  1  0.75000000  0.67668277  0.72081834  1
  As  As0  1  0.75000000  0.43401073  0.77174026  1
  As  As1  1  0.25000000  0.56648791  0.22872437  1
  As  As2  1  0.75000000  0.78558351  0.51705301  1
  As  As3  1  0.25000000  0.21363570  0.48178345  1
  As  As4  1  0.75000000  0.81675386  0.87428744  1
  As  As5  1  0.25000000  0.18618858  0.12641830  1
loop_
_geom_bond_atom_site_label_1
_geom_bond_atom_site_label_2
_geom_bond_distance
_geom_bond_site_symmetry_2
Al0 As1 2.409814 1_555
Al0 As3 2.427659 1_555
Al0 As5 2.476430 1_555
Al0 Rb0 3.635812 1_455
Al0 Rb0 3.635812 1_555
Ga0 Rb1 3.611425 1_655
Ga0 Rb1 3.611425 1_555
As0 Ga0 2.414681 1_555
As0 Rb9 3.476181 1_555
As0 Rb9 3.476181 1_655
As0 Rb2 3.490159 1_555
As0 Rb6 3.610347 1_556
As0 Rb4 3.635659 1_555
As0 Rb7 3.753749 1_655
As0 Rb7 3.753749 1_555
As1 Rb8 3.462502 1_455
As1 Rb8 3.462502 1_555
As1 Rb3 3.502703 1_555
As1 Rb7 3.628082 1_554
As1 Rb5 3.644541 1_555
As1 Rb6 3.758314 1_555
As1 Rb6 3.758314 1_455
As2 Ga0 2.438893 1_555
As2 Rb8 3.542978 1_555
As2 Rb10 3.559257 1_565
As2 Rb11 3.577551 1_555
As2 Rb11 3.577551 1_655
As2 Rb4 3.673358 1_555
As2 Rb0 3.680581 1_565
As2 Rb1 3.747075 1_655
As2 Rb1 3.747075 1_555
As2 Rb5 3.752125 1_555
As2 Rb5 3.752125 1_655
As3 Rb9 3.556096 1_555
As3 Rb11 3.571865 1_545
As3 Rb10 3.579776 1_555
As3 Rb10 3.579776 1_455
As3 Rb5 3.681929 1_555
As3 Rb1 3.708289 1_545
As3 Rb0 3.749092 1_455
As3 Rb0 3.749092 1_555
As3 Rb4 3.752037 1_455
As3 Rb4 3.752037 1_555
As4 Ga0 2.493595 1_555
As4 Rb3 3.546465 1_556
As4 Rb3 3.546465 1_656
As4 Rb10 3.570236 1_565
As4 Rb2 3.666165 1_565
As4 Rb1 3.771112 1_655
As4 Rb1 3.771112 1_555
As4 Rb6 3.895976 1_556
As5 Rb2 3.547666 1_454
As5 Rb2 3.547666 1_554
As5 Rb11 3.585562 1_545
As5 Rb3 3.671253 1_545
As5 Rb0 3.770243 1_455
As5 Rb0 3.770243 1_555
As5 Rb7 3.904376 1_554
