# generated using pymatgen
data_Sc4Sb4Ir3Au
_symmetry_space_group_name_H-M   'P 1'
_cell_length_a   4.49279714
_cell_length_b   4.49279745
_cell_length_c   14.94518060
_cell_angle_alpha   90.03510712
_cell_angle_beta   81.32174386
_cell_angle_gamma   120.00798846
_symmetry_Int_Tables_number   1
_chemical_formula_structural   Sc4Sb4Ir3Au
_chemical_formula_sum   'Sc4 Sb4 Ir3 Au1'
_cell_volume   257.25463118
_cell_formula_units_Z   1
loop_
 _symmetry_equiv_pos_site_id
 _symmetry_equiv_pos_as_xyz
  1  'x, y, z'
loop_
 _atom_site_type_symbol
 _atom_site_label
 _atom_site_symmetry_multiplicity
 _atom_site_fract_x
 _atom_site_fract_y
 _atom_site_fract_z
 _atom_site_occupancy
  Sc  Sc0  1  0.25575718  0.62779177  0.11645105  1
  Sc  Sc1  1  0.74424321  0.87217816  0.38357863  1
  Sc  Sc2  1  0.24853108  0.12430454  0.62716438  1
  Sc  Sc3  1  0.75188078  0.37586694  0.87225227  1
  Sb  Sb0  1  0.99727420  0.49890447  0.50382134  1
  Sb  Sb1  1  0.49994935  0.74992935  0.75012131  1
  Sb  Sb2  1  0.00729536  0.00350010  0.98920454  1
  Sb  Sb3  1  0.49499953  0.24739822  0.25760225  1
  Ir  Ir0  1  0.37362938  0.18689828  0.43947134  1
  Ir  Ir1  1  0.87503633  0.43756512  0.68739855  1
  Ir  Ir2  1  0.37431053  0.68716708  0.93852239  1
  Au  Au0  1  0.87709307  0.93849398  0.18441296  1
loop_
_geom_bond_atom_site_label_1
_geom_bond_atom_site_label_2
_geom_bond_distance
_geom_bond_site_symmetry_2
Sb0 Sc1 3.139862 1_655
Sb0 Sc1 3.139862 1_545
Sb0 Sc1 3.140279 1_555
Sb0 Sc2 3.164858 1_555
Sb0 Sc2 3.164858 1_665
Sb0 Sc2 3.168110 1_655
Sb1 Sc3 3.155091 1_455
Sb1 Sc3 3.155091 1_565
Sb1 Sc3 3.157058 1_555
Sb1 Sc2 3.161909 1_665
Sb1 Sc2 3.161910 1_555
Sb1 Sc2 3.164241 1_565
Sb2 Sc3 3.112223 1_555
Sb2 Sc3 3.112223 1_445
Sb2 Sc3 3.114449 1_455
Sb2 Sc0 3.198747 1_446
Sb2 Sc0 3.198747 1_556
Sb2 Sc0 3.200190 1_546
Sb3 Sc1 3.188050 1_445
Sb3 Sc1 3.188050 1_555
Sb3 Sc1 3.188865 1_545
Sb3 Sc0 3.322494 1_655
Sb3 Sc0 3.322495 1_545
Sb3 Sc0 3.324507 1_555
Ir0 Sb3 2.676657 1_555
Ir0 Sc1 2.720921 1_545
Ir0 Sc1 2.721230 1_445
Ir0 Sc1 2.721234 1_555
Ir0 Sb0 2.761066 1_445
Ir0 Sb0 2.761069 1_555
Ir0 Sb0 2.761783 1_455
Ir0 Sc2 2.762372 1_555
Ir1 Sb0 2.701798 1_555
Ir1 Sc3 2.720585 1_555
Ir1 Sc2 2.740778 1_655
Ir1 Sc2 2.741292 1_555
Ir1 Sc2 2.741292 1_665
Ir1 Sb1 2.752329 1_555
Ir1 Sb1 2.753611 1_655
Ir1 Sb1 2.753611 1_545
Ir2 Sc0 2.618665 1_556
Ir2 Sb2 2.697847 1_565
Ir2 Sb2 2.699481 1_665
Ir2 Sb2 2.699481 1_555
Ir2 Sc3 2.771105 1_555
Ir2 Sc3 2.771136 1_455
Ir2 Sc3 2.771136 1_565
Ir2 Sb1 2.772792 1_555
Au0 Sc0 2.779703 1_655
Au0 Sc0 2.780128 1_555
Au0 Sc0 2.780128 1_665
Au0 Sb3 2.807856 1_565
Au0 Sb3 2.808949 1_665
Au0 Sb3 2.808949 1_555
Au0 Sb2 2.872979 1_664
Au0 Sc1 2.931220 1_555
