# generated using pymatgen
data_CsGaCoF6
_symmetry_space_group_name_H-M   'P 1'
_cell_length_a   7.29191756
_cell_length_b   7.29191721
_cell_length_c   7.29191747
_cell_angle_alpha   119.42651443
_cell_angle_beta   119.92908064
_cell_angle_gamma   90.55953393
_symmetry_Int_Tables_number   1
_chemical_formula_structural   CsGaCoF6
_chemical_formula_sum   'Cs2 Ga2 Co2 F12'
_cell_volume   275.47829294
_cell_formula_units_Z   2
loop_
 _symmetry_equiv_pos_site_id
 _symmetry_equiv_pos_as_xyz
  1  'x, y, z'
loop_
 _atom_site_type_symbol
 _atom_site_label
 _atom_site_symmetry_multiplicity
 _atom_site_fract_x
 _atom_site_fract_y
 _atom_site_fract_z
 _atom_site_occupancy
  Cs  Cs0  1  0.62477207  0.87477207  0.75000000  1
  Cs  Cs1  1  0.37522793  0.12522793  0.25000000  1
  Ga  Ga0  1  0.00000000  0.50000000  0.00000000  1
  Ga  Ga1  1  0.00000000  0.00000000  0.50000000  1
  Co  Co0  1  0.50000000  0.50000000  0.00000000  1
  Co  Co1  1  0.00000000  0.50000000  0.50000000  1
  F  F0  1  0.05654988  0.80654988  0.25000000  1
  F  F1  1  0.67327477  0.42327477  0.25000000  1
  F  F2  1  0.06054983  0.83252267  0.64096689  1
  F  F3  1  0.69155478  0.41958194  0.85903311  1
  F  F4  1  0.69155478  0.83252267  0.27197284  1
  F  F5  1  0.06054983  0.41958194  0.22802716  1
  F  F6  1  0.94345012  0.19345012  0.75000000  1
  F  F7  1  0.32672523  0.57672523  0.75000000  1
  F  F8  1  0.93945017  0.16747733  0.35903311  1
  F  F9  1  0.30844522  0.58041806  0.14096689  1
  F  F10  1  0.30844522  0.16747733  0.72802716  1
  F  F11  1  0.93945017  0.58041806  0.77197284  1
loop_
_geom_bond_atom_site_label_1
_geom_bond_atom_site_label_2
_geom_bond_distance
_geom_bond_site_symmetry_2
Cs0 F7 3.058513 1_555
Cs0 F11 3.156771 1_555
Cs0 F10 3.156771 1_565
Cs0 F9 3.156776 1_555
Cs0 F8 3.156776 1_566
Cs0 F6 3.270227 1_565
Cs1 F1 3.058513 1_555
Cs1 F5 3.156771 1_555
Cs1 F4 3.156771 1_545
Cs1 F3 3.156776 1_555
Cs1 F2 3.156776 1_544
Cs1 F0 3.270227 1_545
Co0 F1 1.987534 1_555
Co0 F7 1.987534 1_554
Co0 F3 2.051332 1_554
Co0 F9 2.051332 1_555
Co0 F4 2.051337 1_555
Co0 F10 2.051337 1_554
Co1 F7 1.987534 1_555
Co1 F1 1.987534 1_455
Co1 F11 2.051337 1_455
Co1 F5 2.051337 1_555
Co1 F2 2.051338 1_555
Co1 F8 2.051338 1_455
F0 Ga0 1.928157 1_555
F0 Ga1 1.928157 1_565
F2 Ga1 1.879926 1_565
F3 Ga0 1.879932 1_656
F4 Ga1 1.879931 1_665
F5 Ga0 1.879931 1_555
F6 Ga0 1.928157 1_656
F6 Ga1 1.928157 1_655
F8 Ga1 1.879926 1_655
F9 Ga0 1.879932 1_555
F10 Ga1 1.879931 1_555
F11 Ga0 1.879931 1_656
