# generated using pymatgen
data_K4CuAs2Au
_symmetry_space_group_name_H-M   'P 1'
_cell_length_a   6.27310677
_cell_length_b   6.27310586
_cell_length_c   5.99269506
_cell_angle_alpha   89.18069003
_cell_angle_beta   89.18069632
_cell_angle_gamma   105.25761498
_symmetry_Int_Tables_number   1
_chemical_formula_structural   K4CuAs2Au
_chemical_formula_sum   'K4 Cu1 As2 Au1'
_cell_volume   227.44834328
_cell_formula_units_Z   1
loop_
 _symmetry_equiv_pos_site_id
 _symmetry_equiv_pos_as_xyz
  1  'x, y, z'
loop_
 _atom_site_type_symbol
 _atom_site_label
 _atom_site_symmetry_multiplicity
 _atom_site_fract_x
 _atom_site_fract_y
 _atom_site_fract_z
 _atom_site_occupancy
  K  K0  1  0.97794746  0.31938058  0.74757838  1
  K  K1  1  0.02205254  0.68061942  0.25242162  1
  K  K2  1  0.68061942  0.02205254  0.25242162  1
  K  K3  1  0.31938058  0.97794746  0.74757838  1
  Cu  Cu0  1  0.50000000  0.50000000  0.00000000  1
  As  As0  1  0.74917388  0.74917388  0.76599896  1
  As  As1  1  0.25082612  0.25082612  0.23400104  1
  Au  Au0  1  0.50000000  0.50000000  0.50000000  1
loop_
_geom_bond_atom_site_label_1
_geom_bond_atom_site_label_2
_geom_bond_distance
_geom_bond_site_symmetry_2
K0 K3 3.404336 1_645
K0 K1 3.670280 1_655
K0 K2 3.735887 1_556
K0 K2 3.774692 1_555
K0 K1 3.775526 1_656
K0 K3 4.122823 1_655
K0 K3 4.122823 1_545
K1 K2 3.404336 1_465
K1 K3 3.735887 1_554
K1 K3 3.774692 1_555
K1 K2 4.122823 1_455
K1 K2 4.122823 1_565
K2 K3 3.670280 1_545
K2 K3 3.775526 1_544
Cu0 K3 3.540431 1_544
Cu0 K2 3.540431 1_565
Cu0 K1 3.540431 1_655
Cu0 K0 3.540431 1_454
Cu0 K2 3.777377 1_555
Cu0 K3 3.777377 1_554
Cu0 K1 3.777378 1_555
Cu0 K0 3.777378 1_554
As0 Cu0 2.332736 1_556
As0 Au0 2.506811 1_555
As0 K0 3.373630 1_555
As0 K3 3.373631 1_555
As0 K1 3.479457 1_656
As0 K2 3.479457 1_566
As0 K0 3.485518 1_565
As0 K3 3.485518 1_655
As0 K2 3.586383 1_565
As0 K1 3.586383 1_655
As1 Cu0 2.332736 1_555
As1 Au0 2.506811 1_555
As1 K1 3.373630 1_555
As1 K2 3.373631 1_555
As1 K0 3.479457 1_454
As1 K3 3.479457 1_544
As1 K1 3.485518 1_545
As1 K2 3.485518 1_455
As1 K3 3.586383 1_545
As1 K0 3.586383 1_455
Au0 Cu0 2.996348 1_556
Au0 Cu0 2.996348 1_555
Au0 K3 3.474186 1_545
Au0 K2 3.474186 1_565
Au0 K0 3.474186 1_455
Au0 K1 3.474186 1_655
Au0 K2 3.787009 1_555
Au0 K3 3.787009 1_555
Au0 K1 3.787010 1_555
Au0 K0 3.787010 1_555
