# generated using pymatgen
data_Ba3CaTc2O9
_symmetry_space_group_name_H-M   'P 1'
_cell_length_a   5.95624145
_cell_length_b   5.95624064
_cell_length_c   14.36904499
_cell_angle_alpha   89.75418086
_cell_angle_beta   89.75418128
_cell_angle_gamma   120.19440463
_symmetry_Int_Tables_number   1
_chemical_formula_structural   Ba3CaTc2O9
_chemical_formula_sum   'Ba6 Ca2 Tc4 O18'
_cell_volume   440.58822320
_cell_formula_units_Z   2
loop_
 _symmetry_equiv_pos_site_id
 _symmetry_equiv_pos_as_xyz
  1  'x, y, z'
loop_
 _atom_site_type_symbol
 _atom_site_label
 _atom_site_symmetry_multiplicity
 _atom_site_fract_x
 _atom_site_fract_y
 _atom_site_fract_z
 _atom_site_occupancy
  Ba  Ba0  1  0.00060417  0.99939583  0.25000000  1
  Ba  Ba1  1  0.33348359  0.66648471  0.90523087  1
  Ba  Ba2  1  0.33351529  0.66651641  0.59476913  1
  Ba  Ba3  1  0.66648471  0.33348359  0.40523087  1
  Ba  Ba4  1  0.66651641  0.33351529  0.09476913  1
  Ba  Ba5  1  0.99939583  0.00060417  0.75000000  1
  Ca  Ca0  1  0.00000000  0.00000000  0.00000000  1
  Ca  Ca1  1  0.00000000  0.00000000  0.50000000  1
  Tc  Tc0  1  0.33044160  0.66374174  0.16347396  1
  Tc  Tc1  1  0.66374174  0.33044160  0.66347396  1
  Tc  Tc2  1  0.33625826  0.66955840  0.33652604  1
  Tc  Tc3  1  0.66955840  0.33625826  0.83652604  1
  O  O0  1  0.98089727  0.48960179  0.75054422  1
  O  O1  1  0.17923791  0.82187936  0.09217593  1
  O  O2  1  0.82187936  0.17923791  0.59217593  1
  O  O3  1  0.82282181  0.64576949  0.90759908  1
  O  O4  1  0.01910273  0.51039821  0.24945578  1
  O  O5  1  0.17717819  0.35423051  0.09240092  1
  O  O6  1  0.48960179  0.98089727  0.25054422  1
  O  O7  1  0.18142085  0.36458973  0.40886973  1
  O  O8  1  0.50900716  0.49099284  0.75000000  1
  O  O9  1  0.63541027  0.81857915  0.09113027  1
  O  O10  1  0.64576949  0.82282181  0.40759908  1
  O  O11  1  0.82076209  0.17812064  0.90782407  1
  O  O12  1  0.51039821  0.01910273  0.74945578  1
  O  O13  1  0.36458973  0.18142085  0.90886973  1
  O  O14  1  0.81857915  0.63541027  0.59113027  1
  O  O15  1  0.35423051  0.17717819  0.59240092  1
  O  O16  1  0.17812064  0.82076209  0.40782407  1
  O  O17  1  0.49099284  0.50900716  0.25000000  1
loop_
_geom_bond_atom_site_label_1
_geom_bond_atom_site_label_2
_geom_bond_distance
_geom_bond_site_symmetry_2
Ba0 O5 2.898922 1_565
Ba0 O10 2.898922 1_455
Ba0 O16 2.919641 1_555
Ba0 O1 2.919641 1_555
Ba0 O7 2.968136 1_565
Ba0 O9 2.968136 1_455
Ba0 O4 2.969571 1_555
Ba0 O6 2.969572 1_555
Ba0 O17 2.971024 1_565
Ba0 O17 2.971024 1_455
Ba0 O4 2.989731 1_565
Ba0 O6 2.989731 1_455
Ba1 O12 2.871407 1_565
Ba1 O8 2.874022 1_555
Ba1 O0 2.880164 1_455
Ba1 O11 2.969361 1_565
Ba1 O11 2.975161 1_455
Ba1 O3 2.978912 1_555
Ba1 O13 2.978914 1_565
Ba1 O3 2.981517 1_455
Ba1 O13 2.986890 1_555
Ba1 O9 3.100532 1_556
Ba1 O5 3.122965 1_556
Ba1 O1 3.126022 1_556
Ba2 O0 2.871407 1_455
Ba2 O8 2.874022 1_555
Ba2 O12 2.880164 1_565
Ba2 O2 2.969361 1_455
Ba2 O2 2.975161 1_565
Ba2 O15 2.978912 1_555
Ba2 O14 2.978915 1_455
Ba2 O15 2.981517 1_565
Ba2 O14 2.986890 1_555
Ba2 O7 3.100532 1_555
Ba2 O10 3.122965 1_555
Ba2 O16 3.126022 1_555
Ba3 O4 2.871407 1_655
Ba3 O17 2.874022 1_555
Ba3 O6 2.880164 1_545
Ba3 O16 2.969361 1_655
Ba3 O16 2.975161 1_545
Ba3 O10 2.978912 1_555
Ba3 O7 2.978915 1_655
Ba3 O10 2.981517 1_545
Ba3 O7 2.986890 1_555
Ba3 O14 3.100532 1_555
Ba3 O15 3.122965 1_555
Ba3 O2 3.126022 1_555
Ba4 O6 2.871407 1_545
Ba4 O17 2.874022 1_555
Ba4 O4 2.880164 1_655
Ba4 O1 2.969361 1_545
Ba4 O1 2.975161 1_655
Ba4 O5 2.978912 1_555
Ba4 O9 2.978914 1_545
Ba4 O5 2.981517 1_655
Ba4 O9 2.986890 1_555
Ba4 O13 3.100532 1_554
Ba4 O3 3.122965 1_554
Ba4 O11 3.126022 1_554
Ba5 O3 2.898922 1_545
Ba5 O15 2.898922 1_655
Ba5 O2 2.919641 1_555
Ba5 O11 2.919641 1_555
Ba5 O14 2.968136 1_545
Ba5 O13 2.968136 1_655
Ba5 O0 2.969571 1_555
Ba5 O12 2.969572 1_555
Ba5 O8 2.971024 1_545
Ba5 O8 2.971024 1_655
Ba5 O0 2.989731 1_545
Ba5 O12 2.989731 1_655
Ca0 O5 2.263738 1_555
Ca0 O3 2.263738 1_444
Ca0 O1 2.271324 1_545
Ca0 O11 2.271324 1_454
Ca0 O13 2.280617 1_554
Ca0 O9 2.280617 1_445
Ca1 O15 2.263739 1_555
Ca1 O10 2.263739 1_445
Ca1 O2 2.271324 1_455
Ca1 O16 2.271324 1_545
Ca1 O14 2.280617 1_445
Ca1 O7 2.280617 1_555
O0 Tc3 2.016540 1_555
O0 Tc1 2.064375 1_555
O1 Tc0 1.897564 1_555
O2 Tc1 1.897564 1_555
O3 Tc3 1.899011 1_555
O4 Tc0 2.016540 1_555
O4 Tc2 2.064375 1_555
O5 Tc0 1.899011 1_555
O6 Tc2 2.016540 1_555
O6 Tc0 2.064375 1_555
O7 Tc2 1.876480 1_555
O8 Tc3 2.048552 1_555
O8 Tc1 2.048552 1_555
O9 Tc0 1.876480 1_555
O10 Tc2 1.899011 1_555
O11 Tc3 1.897564 1_555
O12 Tc1 2.016540 1_555
O12 Tc3 2.064375 1_555
O13 Tc3 1.876480 1_555
O14 Tc1 1.876480 1_555
O15 Tc1 1.899011 1_555
O16 Tc2 1.897564 1_555
O17 Tc0 2.048552 1_555
O17 Tc2 2.048552 1_555
