# generated using pymatgen
data_Ba2Ga6ReRu
_symmetry_space_group_name_H-M   'P 1'
_cell_length_a   6.89266876
_cell_length_b   6.89266989
_cell_length_c   6.89266876
_cell_angle_alpha   120.00000857
_cell_angle_beta   89.99998384
_cell_angle_gamma   120.00000857
_symmetry_Int_Tables_number   1
_chemical_formula_structural   Ba2Ga6ReRu
_chemical_formula_sum   'Ba2 Ga6 Re1 Ru1'
_cell_volume   231.55131184
_cell_formula_units_Z   1
loop_
 _symmetry_equiv_pos_site_id
 _symmetry_equiv_pos_as_xyz
  1  'x, y, z'
loop_
 _atom_site_type_symbol
 _atom_site_label
 _atom_site_symmetry_multiplicity
 _atom_site_fract_x
 _atom_site_fract_y
 _atom_site_fract_z
 _atom_site_occupancy
  Ba  Ba0  1  0.74999700  0.49999800  0.24999900  1
  Ba  Ba1  1  0.24999900  0.49999800  0.75000000  1
  Ga  Ga0  1  0.25176319  1.00000000  0.25176319  1
  Ga  Ga1  1  0.25176319  0.50352739  0.25176319  1
  Ga  Ga2  1  0.74823681  0.00000000  0.25176319  1
  Ga  Ga3  1  0.74823681  0.49647261  0.74823681  1
  Ga  Ga4  1  0.25176319  0.00000000  0.74823681  1
  Ga  Ga5  1  0.74823681  0.00000000  0.74823681  1
  Re  Re0  1  0.00000000  0.00000000  0.00000000  1
  Ru  Ru0  1  0.50000000  0.00000000  0.50000000  1
loop_
_geom_bond_atom_site_label_1
_geom_bond_atom_site_label_2
_geom_bond_distance
_geom_bond_site_symmetry_2
Ba0 Ga0 3.446363 1_545
Ba0 Ga4 3.446364 1_554
Ba0 Ga1 3.446367 1_555
Ba0 Ga3 3.446374 1_554
Ba0 Ga5 3.446377 1_554
Ba0 Ga5 3.446377 1_565
Ba0 Ga2 3.446378 1_565
Ba0 Ga2 3.446378 1_555
Ba0 Ga3 3.446381 1_555
Ba0 Ga1 3.446388 1_655
Ba0 Ga0 3.446391 1_655
Ba0 Ga4 3.446391 1_665
Ba1 Ga5 3.446367 1_455
Ba1 Ga1 3.446367 1_556
Ba1 Ga4 3.446367 1_555
Ba1 Ga0 3.446374 1_545
Ba1 Ga3 3.446374 1_455
Ba1 Ga2 3.446374 1_455
Ba1 Ga0 3.446380 1_556
Ba1 Ga3 3.446381 1_555
Ba1 Ga2 3.446381 1_566
Ba1 Ga5 3.446387 1_565
Ba1 Ga1 3.446388 1_555
Ba1 Ga4 3.446388 1_565
Ga0 Ru0 2.419740 1_565
Ga0 Re0 2.454114 1_565
Ga1 Ru0 2.419735 1_565
Ga1 Re0 2.454118 1_555
Ga2 Ru0 2.419739 1_555
Ga2 Re0 2.454113 1_655
Ga3 Ru0 2.419735 1_555
Ga3 Re0 2.454118 1_666
Ga4 Ru0 2.419739 1_555
Ga4 Re0 2.454113 1_556
Ga5 Ru0 2.419740 1_555
Ga5 Re0 2.454114 1_656
