# generated using pymatgen
data_Na2Ca(MnN2)2
_symmetry_space_group_name_H-M   'P 1'
_cell_length_a   5.52542314
_cell_length_b   9.56538244
_cell_length_c   9.08676222
_cell_angle_alpha   90.00000000
_cell_angle_beta   90.00000000
_cell_angle_gamma   90.00000000
_symmetry_Int_Tables_number   1
_chemical_formula_structural   Na2Ca(MnN2)2
_chemical_formula_sum   'Na8 Ca4 Mn8 N16'
_cell_volume   480.26069381
_cell_formula_units_Z   4
loop_
 _symmetry_equiv_pos_site_id
 _symmetry_equiv_pos_as_xyz
  1  'x, y, z'
loop_
 _atom_site_type_symbol
 _atom_site_label
 _atom_site_symmetry_multiplicity
 _atom_site_fract_x
 _atom_site_fract_y
 _atom_site_fract_z
 _atom_site_occupancy
  Na  Na0  1  0.37507345  0.85056902  0.59992940  1
  Na  Na1  1  0.12492655  0.14943098  0.59992940  1
  Na  Na2  1  0.37507345  0.64943098  0.90007060  1
  Na  Na3  1  0.12492655  0.35056902  0.90007060  1
  Na  Na4  1  0.75000000  0.50000000  0.40528901  1
  Na  Na5  1  0.75000000  0.00000000  0.09471099  1
  Na  Na6  1  0.25000000  0.50000000  0.59279409  1
  Na  Na7  1  0.25000000  0.00000000  0.90720591  1
  Ca  Ca0  1  0.62923391  0.16415606  0.42708624  1
  Ca  Ca1  1  0.87076609  0.83584394  0.42708624  1
  Ca  Ca2  1  0.62923391  0.33584394  0.07291376  1
  Ca  Ca3  1  0.87076609  0.66415606  0.07291376  1
  Mn  Mn0  1  0.75000000  0.50000000  0.72411545  1
  Mn  Mn1  1  0.75000000  0.00000000  0.77588455  1
  Mn  Mn2  1  0.25000000  0.50000000  0.26256908  1
  Mn  Mn3  1  0.25000000  0.00000000  0.23743092  1
  Mn  Mn4  1  0.67167243  0.25000000  0.75000000  1
  Mn  Mn5  1  0.82832757  0.75000000  0.75000000  1
  Mn  Mn6  1  0.33640026  0.75000000  0.25000000  1
  Mn  Mn7  1  0.16359974  0.25000000  0.25000000  1
  N  N0  1  0.85574070  0.34726230  0.61978083  1
  N  N1  1  0.64425930  0.65273770  0.61978083  1
  N  N2  1  0.85574070  0.15273770  0.88021917  1
  N  N3  1  0.64425930  0.84726230  0.88021917  1
  N  N4  1  0.12346374  0.64567259  0.36042027  1
  N  N5  1  0.37653626  0.35432741  0.36042027  1
  N  N6  1  0.12346374  0.85432741  0.13957973  1
  N  N7  1  0.37653626  0.14567259  0.13957973  1
  N  N8  1  0.52652005  0.40529202  0.83195612  1
  N  N9  1  0.97347995  0.59470798  0.83195612  1
  N  N10  1  0.52652005  0.09470798  0.66804388  1
  N  N11  1  0.97347995  0.90529202  0.66804388  1
  N  N12  1  0.48041718  0.59695022  0.16106191  1
  N  N13  1  0.01958282  0.40304978  0.16106191  1
  N  N14  1  0.48041718  0.90304978  0.33893809  1
  N  N15  1  0.01958282  0.09695022  0.33893809  1
loop_
_geom_bond_atom_site_label_1
_geom_bond_atom_site_label_2
_geom_bond_distance
_geom_bond_site_symmetry_2
Ca0 N10 2.357416 1_555
Ca0 N5 2.371813 1_555
Ca0 N15 2.388891 1_655
Ca0 N14 2.748749 1_545
Ca0 N0 2.774878 1_555
Ca0 N7 2.967487 1_555
Ca1 N11 2.357416 1_555
Ca1 N4 2.371813 1_655
Ca1 N14 2.388891 1_555
Ca1 N15 2.748749 1_665
Ca1 N1 2.774878 1_555
Ca1 N6 2.967487 1_655
Ca2 N8 2.357416 1_554
Ca2 N7 2.371813 1_555
Ca2 N13 2.388891 1_655
Ca2 N12 2.748749 1_555
Ca2 N2 2.774878 1_554
Ca2 N5 2.967487 1_555
Ca3 N9 2.357416 1_554
Ca3 N6 2.371813 1_655
Ca3 N12 2.388891 1_555
Ca3 N13 2.748749 1_655
Ca3 N3 2.774878 1_554
Ca3 N4 2.967487 1_655
Mn0 N9 1.818164 1_555
Mn0 N8 1.818164 1_555
Mn0 N1 1.837034 1_555
Mn0 N0 1.837034 1_555
Mn1 N10 1.818164 1_555
Mn1 N11 1.818164 1_545
Mn1 N2 1.837034 1_555
Mn1 N3 1.837034 1_545
Mn2 N4 1.794721 1_555
Mn2 N5 1.794721 1_555
Mn2 N12 1.825293 1_555
Mn2 N13 1.825293 1_555
Mn3 N7 1.794721 1_555
Mn3 N6 1.794721 1_545
Mn3 N15 1.825293 1_555
Mn3 N14 1.825293 1_545
Mn4 N2 1.816613 1_555
Mn4 N0 1.816613 1_555
Mn4 N8 1.845087 1_555
Mn4 N10 1.845087 1_555
Mn5 N3 1.816613 1_555
Mn5 N1 1.816613 1_555
Mn5 N11 1.845087 1_555
Mn5 N9 1.845087 1_555
Mn6 N4 1.840355 1_555
Mn6 N6 1.840355 1_555
Mn6 N14 1.851913 1_555
Mn6 N12 1.851913 1_555
Mn7 N5 1.840355 1_555
Mn7 N7 1.840355 1_555
Mn7 N13 1.851913 1_555
Mn7 N15 1.851913 1_555
N0 Na1 2.413652 1_655
N0 Na4 2.504917 1_555
N0 Na6 2.634441 1_655
N0 Na3 2.949592 1_655
N1 Na0 2.413652 1_555
N1 Na4 2.504917 1_555
N1 Na6 2.634441 1_555
N1 Na2 2.949592 1_555
N2 Na3 2.413652 1_655
N2 Na5 2.504917 1_556
N2 Na7 2.634441 1_655
N2 Na1 2.949592 1_655
N3 Na2 2.413652 1_555
N3 Na5 2.504917 1_566
N3 Na7 2.634441 1_565
N3 Na0 2.949592 1_555
N4 Na4 2.523103 1_455
N4 Na6 2.624686 1_555
N5 Na4 2.523103 1_555
N5 Na6 2.624686 1_555
N6 Na5 2.523103 1_465
N6 Na7 2.624686 1_564
N7 Na5 2.523103 1_555
N7 Na7 2.624686 1_554
N8 Na3 2.362399 1_555
N8 Na2 2.556732 1_555
N8 Na6 2.806772 1_555
N9 Na2 2.362399 1_655
N9 Na3 2.556732 1_655
N9 Na6 2.806772 1_655
N10 Na1 2.362399 1_555
N10 Na0 2.556732 1_545
N10 Na7 2.806772 1_555
N11 Na0 2.362399 1_655
N11 Na1 2.556732 1_665
N11 Na7 2.806772 1_665
N12 Na2 2.493017 1_554
N12 Na4 2.829097 1_555
N13 Na3 2.493017 1_554
N13 Na4 2.829097 1_455
N14 Na0 2.493017 1_555
N14 Na5 2.829097 1_565
N15 Na1 2.493017 1_555
N15 Na5 2.829097 1_455
