# generated using pymatgen
data_CuAuSe4
_symmetry_space_group_name_H-M   'P 1'
_cell_length_a   4.46649712
_cell_length_b   7.45210934
_cell_length_c   8.12729426
_cell_angle_alpha   90.00000000
_cell_angle_beta   93.64163956
_cell_angle_gamma   90.00000000
_symmetry_Int_Tables_number   1
_chemical_formula_structural   CuAuSe4
_chemical_formula_sum   'Cu2 Au2 Se8'
_cell_volume   269.96934982
_cell_formula_units_Z   2
loop_
 _symmetry_equiv_pos_site_id
 _symmetry_equiv_pos_as_xyz
  1  'x, y, z'
loop_
 _atom_site_type_symbol
 _atom_site_label
 _atom_site_symmetry_multiplicity
 _atom_site_fract_x
 _atom_site_fract_y
 _atom_site_fract_z
 _atom_site_occupancy
  Cu  Cu0  1  0.03669655  0.75000000  0.66124777  1
  Cu  Cu1  1  0.96330345  0.25000000  0.33875223  1
  Au  Au0  1  0.50000000  0.50000000  0.00000000  1
  Au  Au1  1  0.50000000  0.00000000  0.00000000  1
  Se  Se0  1  0.39913061  0.99905966  0.69452993  1
  Se  Se1  1  0.60086939  0.49905966  0.30547007  1
  Se  Se2  1  0.60086939  0.00094034  0.30547007  1
  Se  Se3  1  0.39913061  0.50094034  0.69452993  1
  Se  Se4  1  0.06952081  0.25000000  0.63194440  1
  Se  Se5  1  0.93047919  0.75000000  0.36805560  1
  Se  Se6  1  0.15141574  0.25000000  0.06646579  1
  Se  Se7  1  0.84858426  0.75000000  0.93353421  1
loop_
_geom_bond_atom_site_label_1
_geom_bond_atom_site_label_2
_geom_bond_distance
_geom_bond_site_symmetry_2
Cu0 Se5 2.399893 1_455
Cu0 Se7 2.416463 1_455
Cu0 Se3 2.466354 1_555
Cu0 Se0 2.466354 1_555
Cu1 Se4 2.399893 1_655
Cu1 Se6 2.416463 1_655
Cu1 Se2 2.466354 1_555
Cu1 Se1 2.466354 1_555
Au0 Se1 2.494889 1_555
Au0 Se3 2.494889 1_554
Au0 Se6 2.508706 1_555
Au0 Se7 2.508706 1_554
Au1 Se2 2.494889 1_555
Au1 Se0 2.494889 1_544
Au1 Se7 2.508706 1_544
Au1 Se6 2.508706 1_555
Se0 Se4 2.414126 1_565
Se1 Se5 2.414126 1_555
Se2 Se5 2.414126 1_545
Se3 Se4 2.414126 1_555
