# generated using pymatgen
data_CsRb11(P4W)2
_symmetry_space_group_name_H-M   'P 1'
_cell_length_a   10.54205003
_cell_length_b   10.42282150
_cell_length_c   8.33442077
_cell_angle_alpha   90.26641713
_cell_angle_beta   90.00000000
_cell_angle_gamma   120.37912887
_symmetry_Int_Tables_number   1
_chemical_formula_structural   CsRb11(P4W)2
_chemical_formula_sum   'Cs1 Rb11 P8 W2'
_cell_volume   790.02029913
_cell_formula_units_Z   1
loop_
 _symmetry_equiv_pos_site_id
 _symmetry_equiv_pos_as_xyz
  1  'x, y, z'
loop_
 _atom_site_type_symbol
 _atom_site_label
 _atom_site_symmetry_multiplicity
 _atom_site_fract_x
 _atom_site_fract_y
 _atom_site_fract_z
 _atom_site_occupancy
  Cs  Cs0  1  0.13924453  0.27849106  0.29128039  1
  Rb  Rb0  1  0.85098702  0.14795759  0.78860180  1
  Rb  Rb1  1  0.53190362  0.46692125  0.10505420  1
  Rb  Rb2  1  0.06656096  0.53436959  0.60185504  1
  Rb  Rb3  1  0.46626671  0.93253442  0.60283728  1
  Rb  Rb4  1  0.53432372  0.06864744  0.10353069  1
  Rb  Rb5  1  0.93501764  0.46692125  0.10505420  1
  Rb  Rb6  1  0.46780863  0.53436959  0.60185504  1
  Rb  Rb7  1  0.14892547  0.85242353  0.28906810  1
  Rb  Rb8  1  0.70349706  0.85242353  0.28906810  1
  Rb  Rb9  1  0.85406605  0.70812909  0.79122160  1
  Rb  Rb10  1  0.29697256  0.14795759  0.78860180  1
  P  P0  1  0.79044728  0.58089456  0.40884208  1
  P  P1  1  0.42522258  0.21055044  0.41078051  1
  P  P2  1  0.33245029  0.66490158  0.27151107  1
  P  P3  1  0.66772712  0.33545424  0.77656701  1
  P  P4  1  0.78532786  0.21055044  0.41078051  1
  P  P5  1  0.21289211  0.79047737  0.90801377  1
  P  P6  1  0.21127398  0.42254897  0.90395586  1
  P  P7  1  0.57758426  0.79047737  0.90801377  1
  W  W0  1  0.66757866  0.33515632  0.49906423  1
  W  W1  1  0.33392089  0.66784378  0.99424197  1
loop_
_geom_bond_atom_site_label_1
_geom_bond_atom_site_label_2
_geom_bond_distance
_geom_bond_site_symmetry_2
Cs0 P2 3.479297 1_555
Cs0 P6 3.484789 1_554
Cs0 P4 3.570448 1_455
Cs0 P1 3.570468 1_555
P0 W0 2.337892 1_555
P0 Rb9 3.380233 1_555
P0 Rb5 3.456538 1_555
P0 Rb1 3.456539 1_555
P0 Rb7 3.535001 1_655
P0 Rb8 3.535008 1_555
P0 Rb2 3.567997 1_655
P0 Rb6 3.567997 1_555
P1 W0 2.321799 1_555
P1 Rb10 3.360989 1_555
P1 Rb4 3.428287 1_555
P1 Rb1 3.452727 1_555
P1 Rb7 3.523367 1_545
P1 Rb3 3.529507 1_545
P1 Rb6 3.542090 1_555
P2 W1 2.311171 1_554
P2 Rb7 3.377384 1_555
P2 Rb8 3.377384 1_555
P2 Rb3 3.653073 1_555
P2 Rb2 3.669582 1_555
P2 Rb6 3.669588 1_555
P3 W0 2.312812 1_555
P3 Rb9 3.352565 1_555
P3 Rb10 3.373702 1_555
P3 Rb0 3.373720 1_555
P3 Rb4 3.640312 1_556
P3 Rb1 3.656866 1_556
P3 Rb5 3.656866 1_556
P4 W0 2.321790 1_555
P4 Rb0 3.360995 1_555
P4 Rb4 3.428287 1_555
P4 Rb5 3.452727 1_555
P4 Rb8 3.523363 1_545
P4 Rb3 3.529513 1_545
P4 Rb2 3.542090 1_655
P5 W1 2.331559 1_555
P5 Rb7 3.373283 1_556
P5 Rb2 3.433348 1_555
P5 Rb3 3.439637 1_555
P5 Rb10 3.514679 1_565
P5 Rb4 3.544410 1_566
P5 Rb9 3.563960 1_455
P5 Rb5 3.565183 1_456
P6 W1 2.326615 1_555
P6 Rb2 3.442511 1_555
P6 Rb6 3.442518 1_555
P6 Rb0 3.538523 1_455
P6 Rb10 3.538544 1_555
P6 Rb5 3.586033 1_456
P6 Rb1 3.586042 1_556
P7 W1 2.331567 1_555
P7 Rb8 3.373283 1_556
P7 Rb6 3.433348 1_555
P7 Rb3 3.439637 1_555
P7 Rb0 3.514688 1_565
P7 Rb4 3.544404 1_566
P7 Rb9 3.564000 1_555
P7 Rb1 3.565186 1_556
