# generated using pymatgen
data_AgTe4Au
_symmetry_space_group_name_H-M   'P 1'
_cell_length_a   4.61388172
_cell_length_b   8.98620824
_cell_length_c   9.11442261
_cell_angle_alpha   111.05109632
_cell_angle_beta   90.00000000
_cell_angle_gamma   90.00000000
_symmetry_Int_Tables_number   1
_chemical_formula_structural   AgTe4Au
_chemical_formula_sum   'Ag2 Te8 Au2'
_cell_volume   352.67523505
_cell_formula_units_Z   2
loop_
 _symmetry_equiv_pos_site_id
 _symmetry_equiv_pos_as_xyz
  1  'x, y, z'
loop_
 _atom_site_type_symbol
 _atom_site_label
 _atom_site_symmetry_multiplicity
 _atom_site_fract_x
 _atom_site_fract_y
 _atom_site_fract_z
 _atom_site_occupancy
  Ag  Ag0  1  0.51911498  0.25000000  0.75000000  1
  Ag  Ag1  1  0.48088502  0.75000000  0.25000000  1
  Te  Te0  1  0.60949196  0.73776027  0.54346113  1
  Te  Te1  1  0.60949196  0.76223973  0.95653887  1
  Te  Te2  1  0.03839927  -0.00100728  0.29354833  1
  Te  Te3  1  0.03839927  0.50100728  0.20645167  1
  Te  Te4  1  0.96160073  0.00100728  0.70645167  1
  Te  Te5  1  0.96160073  0.49899272  0.79354833  1
  Te  Te6  1  0.39050804  0.23776027  0.04346113  1
  Te  Te7  1  0.39050804  0.26223973  0.45653887  1
  Au  Au0  1  -0.00000000  0.50000000  0.50000000  1
  Au  Au1  1  -0.00000000  0.00000000  0.00000000  1
loop_
_geom_bond_atom_site_label_1
_geom_bond_atom_site_label_2
_geom_bond_distance
_geom_bond_site_symmetry_2
Ag0 Te7 2.780236 1_555
Ag0 Te6 2.780236 1_556
Ag0 Te4 2.948555 1_555
Ag0 Te5 2.948555 1_555
Ag0 Te5 3.338067 1_455
Ag0 Te4 3.338067 1_455
Ag1 Te0 2.780236 1_555
Ag1 Te1 2.780236 1_554
Ag1 Te2 2.948555 1_565
Ag1 Te3 2.948555 1_555
Ag1 Te2 3.338067 1_665
Ag1 Te3 3.338067 1_655
Te0 Te4 2.813820 1_565
Te1 Te5 2.813820 1_555
Te2 Te7 2.813820 1_555
Te3 Te6 2.813820 1_555
Au0 Te5 2.684641 1_455
Au0 Te3 2.684641 1_555
Au0 Te7 2.712957 1_555
Au0 Te0 2.712957 1_455
Au0 Te7 3.467253 1_455
Au0 Te0 3.467253 1_555
Au1 Te4 2.684641 1_454
Au1 Te2 2.684641 1_555
Au1 Te1 2.712957 1_444
Au1 Te6 2.712957 1_555
Au1 Te6 3.467253 1_455
Au1 Te1 3.467253 1_544
