# generated using pymatgen
data_Lu2PIr6
_symmetry_space_group_name_H-M   'P 1'
_cell_length_a   5.89097072
_cell_length_b   5.89097087
_cell_length_c   5.89097066
_cell_angle_alpha   60.00000121
_cell_angle_beta   60.00000031
_cell_angle_gamma   60.00001061
_symmetry_Int_Tables_number   1
_chemical_formula_structural   Lu2PIr6
_chemical_formula_sum   'Lu2 P1 Ir6'
_cell_volume   144.55916835
_cell_formula_units_Z   1
loop_
 _symmetry_equiv_pos_site_id
 _symmetry_equiv_pos_as_xyz
  1  'x, y, z'
loop_
 _atom_site_type_symbol
 _atom_site_label
 _atom_site_symmetry_multiplicity
 _atom_site_fract_x
 _atom_site_fract_y
 _atom_site_fract_z
 _atom_site_occupancy
  Lu  Lu0  1  0.75000000  0.75000000  0.75000000  1
  Lu  Lu1  1  0.25000000  0.25000000  0.25000000  1
  P  P0  1  0.00000000  0.00000000  0.00000000  1
  Ir  Ir0  1  0.73280881  0.73280881  0.26719119  1
  Ir  Ir1  1  0.26719119  0.73280881  0.26719119  1
  Ir  Ir2  1  0.73280881  0.26719119  0.26719119  1
  Ir  Ir3  1  0.26719119  0.26719119  0.73280881  1
  Ir  Ir4  1  0.73280881  0.26719119  0.73280881  1
  Ir  Ir5  1  0.26719119  0.73280881  0.73280881  1
loop_
_geom_bond_atom_site_label_1
_geom_bond_atom_site_label_2
_geom_bond_distance
_geom_bond_site_symmetry_2
Ir0 P0 2.225994 1_665
Ir0 Lu0 2.948965 1_554
Ir0 Lu0 2.948965 1_555
Ir0 Lu1 2.948966 1_655
Ir0 Lu1 2.948966 1_565
Ir1 P0 2.225994 1_565
Ir1 Lu0 2.948965 1_554
Ir1 Lu0 2.948965 1_455
Ir1 Lu1 2.948965 1_555
Ir1 Lu1 2.948965 1_565
Ir2 P0 2.225994 1_655
Ir2 Lu1 2.948965 1_555
Ir2 Lu1 2.948965 1_655
Ir2 Lu0 2.948965 1_554
Ir2 Lu0 2.948965 1_545
Ir3 P0 2.225994 1_556
Ir3 Lu1 2.948965 1_556
Ir3 Lu1 2.948965 1_555
Ir3 Lu0 2.948966 1_455
Ir3 Lu0 2.948966 1_545
Ir4 P0 2.225994 1_656
Ir4 Lu1 2.948965 1_556
Ir4 Lu1 2.948965 1_655
Ir4 Lu0 2.948965 1_555
Ir4 Lu0 2.948965 1_545
Ir5 P0 2.225994 1_566
Ir5 Lu0 2.948965 1_555
Ir5 Lu0 2.948965 1_455
Ir5 Lu1 2.948965 1_556
Ir5 Lu1 2.948965 1_565
