# generated using pymatgen
data_Sc7Ti6Al9Ir8
_symmetry_space_group_name_H-M   'P 1'
_cell_length_a   8.88612988
_cell_length_b   8.88612919
_cell_length_c   8.88612980
_cell_angle_alpha   59.84901977
_cell_angle_beta   59.84902679
_cell_angle_gamma   59.84902676
_symmetry_Int_Tables_number   1
_chemical_formula_structural   Sc7Ti6Al9Ir8
_chemical_formula_sum   'Sc7 Ti6 Al9 Ir8'
_cell_volume   494.46139130
_cell_formula_units_Z   1
loop_
 _symmetry_equiv_pos_site_id
 _symmetry_equiv_pos_as_xyz
  1  'x, y, z'
loop_
 _atom_site_type_symbol
 _atom_site_label
 _atom_site_symmetry_multiplicity
 _atom_site_fract_x
 _atom_site_fract_y
 _atom_site_fract_z
 _atom_site_occupancy
  Sc  Sc0  1  0.21030379  0.21030379  0.79436125  1
  Sc  Sc1  1  0.79436125  0.21030379  0.21030379  1
  Sc  Sc2  1  0.21030379  0.79436125  0.21030379  1
  Sc  Sc3  1  0.79395774  0.79395774  0.19556565  1
  Sc  Sc4  1  0.19556565  0.79395774  0.79395774  1
  Sc  Sc5  1  0.79395774  0.19556565  0.79395774  1
  Sc  Sc6  1  0.38043927  0.38043927  0.38043927  1
  Ti  Ti0  1  0.38139042  0.86215017  0.38139042  1
  Ti  Ti1  1  0.86215017  0.38139042  0.38139042  1
  Ti  Ti2  1  0.38139042  0.38139042  0.86215017  1
  Ti  Ti3  1  0.83684220  0.48740463  0.83684220  1
  Ti  Ti4  1  0.48740463  0.83684220  0.83684220  1
  Ti  Ti5  1  0.83684220  0.83684220  0.48740463  1
  Al  Al0  1  0.16819257  0.16819257  0.16819257  1
  Al  Al1  1  0.16321352  0.51079637  0.16321352  1
  Al  Al2  1  0.51079637  0.16321352  0.16321352  1
  Al  Al3  1  0.16321352  0.16321352  0.51079637  1
  Al  Al4  1  0.61921100  0.61921100  0.61921100  1
  Al  Al5  1  0.61985923  0.14303824  0.61985923  1
  Al  Al6  1  0.14303824  0.61985923  0.61985923  1
  Al  Al7  1  0.61985923  0.61985923  0.14303824  1
  Al  Al8  1  0.82430100  0.82430100  0.82430100  1
  Ir  Ir0  1  0.00118646  0.00118646  0.49724403  1
  Ir  Ir1  1  0.49724403  0.00118646  0.00118646  1
  Ir  Ir2  1  0.00118646  0.49724403  0.00118646  1
  Ir  Ir3  1  0.50237442  0.50237442  0.99204396  1
  Ir  Ir4  1  0.99204396  0.50237442  0.50237442  1
  Ir  Ir5  1  0.50237442  0.99204396  0.50237442  1
  Ir  Ir6  1  0.50390972  0.50390972  0.50390972  1
  Ir  Ir7  1  0.00308456  0.00308456  0.00308456  1
loop_
_geom_bond_atom_site_label_1
_geom_bond_atom_site_label_2
_geom_bond_distance
_geom_bond_site_symmetry_2
Sc0 Ti4 2.947094 1_545
Sc0 Ti3 2.947094 1_455
Sc0 Ti2 3.024446 1_555
Sc0 Sc6 3.037103 1_555
Sc1 Ti5 2.947094 1_545
Sc1 Ti3 2.947094 1_554
Sc1 Ti1 3.024446 1_555
Sc1 Sc6 3.037103 1_555
Sc2 Ti4 2.947094 1_554
Sc2 Ti5 2.947095 1_455
Sc2 Ti0 3.024446 1_555
Sc2 Sc6 3.037103 1_555
Sc3 Ti5 3.024425 1_555
Sc3 Ti1 3.037514 1_555
Sc3 Ti0 3.037515 1_555
Sc4 Ti4 3.024425 1_555
Sc4 Ti2 3.037514 1_555
Sc4 Ti0 3.037515 1_555
Sc5 Ti3 3.024425 1_555
Sc5 Ti1 3.037514 1_555
Sc5 Ti2 3.037515 1_555
Ti3 Ti5 3.098059 1_555
Ti3 Ti4 3.098059 1_555
Ti4 Ti5 3.098059 1_555
Al0 Ir2 2.539424 1_555
Al0 Ir0 2.539424 1_555
Al0 Ir1 2.539424 1_555
Al0 Ti2 2.797916 1_554
Al0 Ti0 2.797916 1_545
Al0 Ti1 2.797917 1_455
Al0 Sc2 2.993049 1_545
Al0 Sc0 2.993049 1_554
Al0 Sc1 2.993049 1_455
Al0 Al1 3.000626 1_555
Al0 Al3 3.000627 1_555
Al0 Al2 3.000627 1_555
Al1 Ir2 2.567360 1_555
Al1 Ir4 2.585543 1_455
Al1 Ir3 2.585544 1_554
Al1 Ti1 2.806899 1_455
Al1 Ti2 2.806899 1_554
Al1 Sc6 2.836292 1_555
Al1 Sc4 2.943751 1_554
Al1 Sc3 2.943751 1_455
Al1 Sc2 2.998983 1_555
Al1 Al3 3.081615 1_555
Al1 Al2 3.081615 1_555
Al2 Ir1 2.567360 1_555
Al2 Ir3 2.585543 1_554
Al2 Ir5 2.585543 1_545
Al2 Ti0 2.806899 1_545
Al2 Ti2 2.806899 1_554
Al2 Sc6 2.836293 1_555
Al2 Sc3 2.943751 1_545
Al2 Sc5 2.943751 1_554
Al2 Sc1 2.998983 1_555
Al2 Al3 3.081615 1_555
Al3 Ir0 2.567360 1_555
Al3 Ir4 2.585543 1_455
Al3 Ir5 2.585544 1_545
Al3 Ti1 2.806899 1_455
Al3 Ti0 2.806899 1_545
Al3 Sc6 2.836292 1_555
Al3 Sc4 2.943751 1_545
Al3 Sc5 2.943751 1_455
Al3 Sc0 2.998983 1_555
Al4 Ir6 2.512563 1_555
Al4 Ir5 2.702620 1_555
Al4 Ir3 2.702620 1_555
Al4 Ir4 2.702621 1_555
Al4 Ti5 2.838655 1_555
Al4 Ti3 2.838655 1_555
Al4 Ti4 2.838655 1_555
Al4 Ti2 2.985454 1_555
Al4 Ti0 2.985454 1_555
Al4 Ti1 2.985454 1_555
Al4 Sc5 3.109985 1_555
Al4 Sc3 3.109985 1_555
Al4 Sc4 3.109986 1_555
Al5 Ir6 2.614320 1_555
Al5 Al8 2.756886 1_545
Al5 Ir1 2.763729 1_556
Al5 Ir0 2.763729 1_655
Al5 Ir5 2.808792 1_545
Al5 Ti4 2.858933 1_545
Al5 Ti5 2.858933 1_545
Al5 Sc5 2.976542 1_555
Al5 Sc6 3.005442 1_555
Al5 Sc1 3.013878 1_555
Al5 Sc0 3.013879 1_555
Al5 Ti1 3.016797 1_555
Al5 Ti2 3.016797 1_555
Al6 Ir6 2.614320 1_555
Al6 Al8 2.756886 1_455
Al6 Ir0 2.763729 1_565
Al6 Ir2 2.763729 1_556
Al6 Ir4 2.808792 1_455
Al6 Ti3 2.858933 1_455
Al6 Ti5 2.858933 1_455
Al6 Sc4 2.976542 1_555
Al6 Sc6 3.005442 1_555
Al6 Sc0 3.013878 1_555
Al6 Sc2 3.013878 1_555
Al6 Ti0 3.016797 1_555
Al6 Ti2 3.016797 1_555
Al7 Ir6 2.614320 1_555
Al7 Al8 2.756886 1_554
Al7 Ir1 2.763729 1_565
Al7 Ir2 2.763729 1_655
Al7 Ir3 2.808792 1_554
Al7 Ti4 2.858933 1_554
Al7 Ti3 2.858933 1_554
Al7 Sc3 2.976542 1_555
Al7 Sc6 3.005442 1_555
Al7 Sc1 3.013878 1_555
Al7 Sc2 3.013879 1_555
Al7 Ti1 3.016797 1_555
Al7 Ti0 3.016797 1_555
Al8 Ir2 2.586817 1_656
Al8 Ir0 2.586817 1_665
Al8 Ir1 2.586817 1_566
Al8 Ti3 2.886050 1_555
Al8 Ti5 2.886051 1_555
Al8 Ti4 2.886051 1_555
Al8 Sc5 3.052101 1_565
Al8 Sc3 3.052101 1_556
Al8 Sc4 3.052101 1_655
Ir0 Ti5 2.583037 1_445
Ir0 Ti1 2.755236 1_455
Ir0 Ti0 2.755236 1_545
Ir0 Sc4 3.135071 1_545
Ir0 Sc5 3.135071 1_455
Ir0 Sc1 3.138361 1_455
Ir0 Sc2 3.138361 1_545
Ir1 Ti4 2.583037 1_544
Ir1 Ti2 2.755236 1_554
Ir1 Ti0 2.755236 1_545
Ir1 Sc5 3.135071 1_554
Ir1 Sc3 3.135071 1_545
Ir1 Sc2 3.138361 1_545
Ir1 Sc0 3.138361 1_554
Ir2 Ti3 2.583037 1_454
Ir2 Ti1 2.755236 1_455
Ir2 Ti2 2.755236 1_554
Ir2 Sc4 3.135071 1_554
Ir2 Sc3 3.135071 1_455
Ir2 Sc1 3.138361 1_455
Ir2 Sc0 3.138361 1_554
Ir3 Ti4 2.534305 1_555
Ir3 Ti3 2.534306 1_555
Ir3 Ti2 2.701501 1_555
Ir3 Sc6 2.815280 1_556
Ir4 Ti5 2.534305 1_555
Ir4 Ti3 2.534306 1_555
Ir4 Ti1 2.701501 1_555
Ir4 Sc6 2.815280 1_655
Ir5 Ti4 2.534305 1_555
Ir5 Ti5 2.534306 1_555
Ir5 Ti0 2.701501 1_555
Ir5 Sc6 2.815280 1_565
Ir6 Ti0 2.594606 1_555
Ir6 Ti2 2.594606 1_555
Ir6 Ti1 2.594606 1_555
Ir6 Sc6 2.690580 1_555
Ir7 Sc0 2.601121 1_554
Ir7 Sc2 2.601121 1_545
Ir7 Sc1 2.601121 1_455
Ir7 Sc3 2.629715 1_445
Ir7 Sc5 2.629715 1_454
Ir7 Sc4 2.629716 1_544
