# generated using pymatgen
data_NaAsSe2
_symmetry_space_group_name_H-M   'P 1'
_cell_length_a   7.08581883
_cell_length_b   7.08581883
_cell_length_c   7.08581883
_cell_angle_alpha   133.51030452
_cell_angle_beta   133.51030452
_cell_angle_gamma   67.85387403
_symmetry_Int_Tables_number   1
_chemical_formula_structural   NaAsSe2
_chemical_formula_sum   'Na2 As2 Se4'
_cell_volume   183.91887840
_cell_formula_units_Z   2
loop_
 _symmetry_equiv_pos_site_id
 _symmetry_equiv_pos_as_xyz
  1  'x, y, z'
loop_
 _atom_site_type_symbol
 _atom_site_label
 _atom_site_symmetry_multiplicity
 _atom_site_fract_x
 _atom_site_fract_y
 _atom_site_fract_z
 _atom_site_occupancy
  Na  Na0  1  0.00000000  0.00000000  0.00000000  1
  Na  Na1  1  0.75000000  0.25000000  0.50000000  1
  As  As0  1  0.25000000  0.75000000  0.50000000  1
  As  As1  1  0.50000000  0.50000000  0.00000000  1
  Se  Se0  1  0.48064200  0.98064200  0.50000000  1
  Se  Se1  1  0.01935800  0.51935800  0.50000000  1
  Se  Se2  1  0.73064200  0.73064200  0.00000000  1
  Se  Se3  1  0.26935800  0.26935800  0.00000000  1
loop_
_geom_bond_atom_site_label_1
_geom_bond_atom_site_label_2
_geom_bond_distance
_geom_bond_site_symmetry_2
Na0 Se0 2.805747 1_444
Na0 Se1 2.805747 1_544
Na0 Se0 2.805747 1_545
Na0 Se1 2.805747 1_555
Na0 Se2 3.167358 1_445
Na0 Se3 3.167358 1_555
Na1 Se2 2.805747 1_545
Na1 Se3 2.805747 1_656
Na1 Se3 2.805747 1_555
Na1 Se2 2.805747 1_556
Na1 Se1 3.167358 1_655
Na1 Se0 3.167358 1_545
As0 Se0 2.712100 1_555
As0 Se1 2.712100 1_555
As0 Se2 2.805747 1_455
As0 Se3 2.805747 1_555
As0 Se3 2.805747 1_566
As0 Se2 2.805747 1_556
As1 Se2 2.712100 1_555
As1 Se3 2.712100 1_555
As1 Se1 2.805747 1_655
As1 Se0 2.805747 1_544
As1 Se1 2.805747 1_554
As1 Se0 2.805747 1_555
