# generated using pymatgen
data_TaTiMnV3
_symmetry_space_group_name_H-M   'P 1'
_cell_length_a   4.86633052
_cell_length_b   4.86633003
_cell_length_c   4.86633014
_cell_angle_alpha   62.28457334
_cell_angle_beta   62.28458346
_cell_angle_gamma   62.28457500
_symmetry_Int_Tables_number   1
_chemical_formula_structural   TaTiMnV3
_chemical_formula_sum   'Ta1 Ti1 Mn1 V3'
_cell_volume   85.64263350
_cell_formula_units_Z   1
loop_
 _symmetry_equiv_pos_site_id
 _symmetry_equiv_pos_as_xyz
  1  'x, y, z'
loop_
 _atom_site_type_symbol
 _atom_site_label
 _atom_site_symmetry_multiplicity
 _atom_site_fract_x
 _atom_site_fract_y
 _atom_site_fract_z
 _atom_site_occupancy
  Ta  Ta0  1  0.37438529  0.37438529  0.37438529  1
  Ti  Ti0  1  0.62517861  0.62517861  0.62517861  1
  Mn  Mn0  1  0.99993182  0.99993182  0.99993182  1
  V  V0  1  0.99982860  0.50084708  0.99982860  1
  V  V1  1  0.50084708  0.99982860  0.99982860  1
  V  V2  1  0.99982860  0.99982860  0.50084708  1
loop_
_geom_bond_atom_site_label_1
_geom_bond_atom_site_label_2
_geom_bond_distance
_geom_bond_site_symmetry_2
Ta0 V0 2.833169 1_454
Ta0 V1 2.833169 1_544
Ta0 V2 2.833169 1_445
Ta0 V1 2.916037 1_545
Ta0 V1 2.916037 1_554
Ta0 V2 2.916037 1_455
Ta0 V2 2.916037 1_545
Ta0 V0 2.916038 1_455
Ta0 V0 2.916038 1_554
Ta0 Ti0 2.936804 1_555
Ta0 Ti0 3.062553 1_545
Ta0 Ti0 3.062553 1_554
Ta0 Ti0 3.062553 1_455
Ti0 V0 2.837901 1_555
Ti0 V1 2.837901 1_555
Ti0 V2 2.837901 1_555
Ti0 V1 2.911480 1_554
Ti0 V1 2.911480 1_545
Ti0 V2 2.911480 1_545
Ti0 V2 2.911480 1_455
Ti0 V0 2.911480 1_554
Ti0 V0 2.911480 1_455
Mn0 V0 2.429178 1_555
Mn0 V2 2.429178 1_555
Mn0 V1 2.429179 1_555
Mn0 V0 2.437152 1_565
Mn0 V2 2.437152 1_556
Mn0 V1 2.437152 1_655
Mn0 Ta0 2.945653 1_656
Mn0 Ta0 2.945654 1_665
Mn0 Ta0 2.945654 1_566
Mn0 Ti0 2.946229 1_565
Mn0 Ti0 2.946230 1_556
Mn0 Ti0 2.946230 1_655
V0 V2 2.511570 1_555
V0 V1 2.511570 1_555
V0 V2 2.521823 1_546
V0 V1 2.521823 1_645
V1 V2 2.511570 1_555
V1 V2 2.521823 1_456
