# generated using pymatgen
data_NbAl(SeO3)4
_symmetry_space_group_name_H-M   'P 1'
_cell_length_a   8.03529377
_cell_length_b   8.15455186
_cell_length_c   8.12166727
_cell_angle_alpha   89.34418892
_cell_angle_beta   90.00000000
_cell_angle_gamma   90.00000000
_symmetry_Int_Tables_number   1
_chemical_formula_structural   NbAl(SeO3)4
_chemical_formula_sum   'Nb2 Al2 Se8 O24'
_cell_volume   532.13105112
_cell_formula_units_Z   2
loop_
 _symmetry_equiv_pos_site_id
 _symmetry_equiv_pos_as_xyz
  1  'x, y, z'
loop_
 _atom_site_type_symbol
 _atom_site_label
 _atom_site_symmetry_multiplicity
 _atom_site_fract_x
 _atom_site_fract_y
 _atom_site_fract_z
 _atom_site_occupancy
  Nb  Nb0  1  0.00000000  0.00000000  0.50000000  1
  Nb  Nb1  1  0.50000000  0.00000000  0.00000000  1
  Al  Al0  1  0.00000000  0.50000000  0.00000000  1
  Al  Al1  1  0.50000000  0.50000000  0.50000000  1
  Se  Se0  1  0.31117910  0.65207013  0.19092989  1
  Se  Se1  1  0.81117910  0.34792987  0.30907011  1
  Se  Se2  1  0.66534656  0.80083374  0.66220153  1
  Se  Se3  1  0.16534656  0.19916626  0.83779847  1
  Se  Se4  1  0.68882090  0.34792987  0.80907011  1
  Se  Se5  1  0.18882090  0.65207013  0.69092989  1
  Se  Se6  1  0.33465344  0.19916626  0.33779847  1
  Se  Se7  1  0.83465344  0.80083374  0.16220153  1
  O  O0  1  0.23082608  0.53146595  0.04396199  1
  O  O1  1  0.73082608  0.46853405  0.45603801  1
  O  O2  1  0.75989074  0.95398098  0.54556957  1
  O  O3  1  0.25989074  0.04601902  0.95443043  1
  O  O4  1  0.52977923  0.92638695  0.76614078  1
  O  O5  1  0.45610657  0.52467203  0.27211903  1
  O  O6  1  0.95610657  0.47532797  0.22788097  1
  O  O7  1  0.02977923  0.07361305  0.73385922  1
  O  O8  1  0.94384330  0.22678231  0.43284122  1
  O  O9  1  0.53598510  0.72834339  0.51920453  1
  O  O10  1  0.44384330  0.77321769  0.06715878  1
  O  O11  1  0.03598510  0.27165661  0.98079547  1
  O  O12  1  0.76917392  0.46853405  0.95603801  1
  O  O13  1  0.26917392  0.53146595  0.54396199  1
  O  O14  1  0.24010926  0.04601902  0.45443043  1
  O  O15  1  0.74010926  0.95398098  0.04556957  1
  O  O16  1  0.47022077  0.07361305  0.23385922  1
  O  O17  1  0.54389343  0.47532797  0.72788097  1
  O  O18  1  0.04389343  0.52467203  0.77211903  1
  O  O19  1  0.97022077  0.92638695  0.26614078  1
  O  O20  1  0.05615670  0.77321769  0.56715878  1
  O  O21  1  0.46401490  0.27165661  0.48079547  1
  O  O22  1  0.55615670  0.22678231  0.93284122  1
  O  O23  1  0.96401490  0.72834339  0.01920453  1
loop_
_geom_bond_atom_site_label_1
_geom_bond_atom_site_label_2
_geom_bond_distance
_geom_bond_site_symmetry_2
Nb0 O8 1.974328 1_455
Nb0 O20 1.974328 1_545
Nb0 O14 1.999251 1_555
Nb0 O2 1.999251 1_445
Nb0 O7 2.012744 1_555
Nb0 O19 2.012744 1_445
Nb1 O22 1.974328 1_554
Nb1 O10 1.974328 1_545
Nb1 O15 1.999251 1_545
Nb1 O3 1.999251 1_554
Nb1 O16 2.012744 1_555
Nb1 O4 2.012744 1_544
Al0 O6 1.892541 1_455
Al0 O18 1.892541 1_554
Al0 O23 1.892556 1_455
Al0 O11 1.892556 1_554
Al0 O0 1.906708 1_555
Al0 O12 1.906708 1_454
Al1 O17 1.892541 1_555
Al1 O5 1.892541 1_555
Al1 O9 1.892556 1_555
Al1 O21 1.892556 1_555
Al1 O1 1.906708 1_555
Al1 O13 1.906708 1_555
O0 Se0 1.683956 1_555
O1 Se1 1.683956 1_555
O2 Se2 1.734054 1_555
O3 Se3 1.734054 1_555
O4 Se2 1.722569 1_555
O5 Se0 1.689532 1_555
O6 Se1 1.689532 1_555
O7 Se3 1.722569 1_555
O8 Se1 1.760696 1_555
O9 Se2 1.671648 1_555
O10 Se0 1.760696 1_555
O11 Se3 1.671648 1_555
O12 Se4 1.683956 1_555
O13 Se5 1.683956 1_555
O14 Se6 1.734054 1_555
O15 Se7 1.734054 1_555
O16 Se6 1.722569 1_555
O17 Se4 1.689532 1_555
O18 Se5 1.689532 1_555
O19 Se7 1.722569 1_555
O20 Se5 1.760696 1_555
O21 Se6 1.671648 1_555
O22 Se4 1.760696 1_555
O23 Se7 1.671648 1_555
