# generated using pymatgen
data_NaBeB14
_symmetry_space_group_name_H-M   'P 1'
_cell_length_a   7.18815726
_cell_length_b   7.18815696
_cell_length_c   7.18815682
_cell_angle_alpha   133.71777408
_cell_angle_beta   110.03369819
_cell_angle_gamma   88.06994515
_symmetry_Int_Tables_number   1
_chemical_formula_structural   NaBeB14
_chemical_formula_sum   'Na2 Be2 B28'
_cell_volume   240.65158528
_cell_formula_units_Z   2
loop_
 _symmetry_equiv_pos_site_id
 _symmetry_equiv_pos_as_xyz
  1  'x, y, z'
loop_
 _atom_site_type_symbol
 _atom_site_label
 _atom_site_symmetry_multiplicity
 _atom_site_fract_x
 _atom_site_fract_y
 _atom_site_fract_z
 _atom_site_occupancy
  Na  Na0  1  0.09795308  0.75000000  0.34795308  1
  Na  Na1  1  0.90204692  0.25000000  0.65204692  1
  Be  Be0  1  0.50000000  0.50000000  0.50000000  1
  Be  Be1  1  0.50000000  0.00000000  0.00000000  1
  B  B0  1  0.89570023  0.22089301  0.99968098  1
  B  B1  1  0.46254964  0.16560927  0.78851116  1
  B  B2  1  0.87709811  0.17403948  0.21148884  1
  B  B3  1  0.72121303  0.39601925  0.00031902  1
  B  B4  1  0.57446841  0.40838527  0.16608214  1
  B  B5  1  0.70391235  0.33844327  0.36546808  1
  B  B6  1  0.29813616  0.33315500  0.96498016  1
  B  B7  1  0.72121303  0.72089301  0.32519278  1
  B  B8  1  0.87709811  0.66560927  0.70305863  1
  B  B9  1  0.46254964  0.67403948  0.29694137  1
  B  B10  1  0.10429977  0.10398075  0.32519278  1
  B  B11  1  0.89570023  0.89601925  0.67480722  1
  B  B12  1  0.53745036  0.32596052  0.70305863  1
  B  B13  1  0.12290189  0.33439073  0.29694137  1
  B  B14  1  0.27878697  0.27910699  0.67480722  1
  B  B15  1  0.74230213  0.90838527  0.83391786  1
  B  B16  1  0.47297518  0.83844327  0.63453192  1
  B  B17  1  0.86817484  0.83315500  0.03501984  1
  B  B18  1  0.70186384  0.66684500  0.03501984  1
  B  B19  1  0.29608765  0.66155673  0.63453192  1
  B  B20  1  0.42553159  0.59161473  0.83391786  1
  B  B21  1  0.27878697  0.60398075  0.99968098  1
  B  B22  1  0.12290189  0.82596052  0.78851116  1
  B  B23  1  0.53745036  0.83439073  0.21148884  1
  B  B24  1  0.10429977  0.77910699  0.00031902  1
  B  B25  1  0.13182516  0.16684500  0.96498016  1
  B  B26  1  0.52702482  0.16155673  0.36546808  1
  B  B27  1  0.25769787  0.09161473  0.16608214  1
loop_
_geom_bond_atom_site_label_1
_geom_bond_atom_site_label_2
_geom_bond_distance
_geom_bond_site_symmetry_2
B0 B3 1.745685 1_556
B0 B13 1.785443 1_656
B0 B25 1.790446 1_655
B0 B15 1.802423 1_545
B0 B2 1.816757 1_556
B0 B11 1.835488 1_545
B0 Na1 2.662987 1_555
B0 Na0 2.750316 1_656
B1 B4 1.763706 1_556
B1 B14 1.785443 1_555
B1 B16 1.791201 1_545
B1 B12 1.800754 1_555
B1 B6 1.809939 1_555
B1 B3 1.816769 1_556
B1 Be1 2.449501 1_556
B1 Na0 2.754336 1_545
B2 B5 1.791193 1_555
B2 Be1 2.449502 1_555
B2 Na1 2.754340 1_555
B3 B4 1.802420 1_555
B3 B7 1.835488 1_555
B3 Na0 2.662982 1_655
B3 Na1 2.750311 1_554
B4 B9 1.763715 1_555
B4 B5 1.795385 1_555
B4 B7 1.802420 1_555
B4 B6 1.830876 1_554
B4 Be1 2.270055 1_555
B4 Be0 2.270059 1_555
B5 B8 1.791198 1_555
B5 Be1 1.932986 1_555
B5 Be0 1.932990 1_555
B5 Na1 2.532811 1_555
B6 B9 1.809948 1_556
B6 Na1 2.718757 1_455
B7 B9 1.816772 1_555
B7 Na0 2.662980 1_655
B7 Na1 2.750315 1_565
B8 Be0 2.449502 1_555
B8 Na1 2.754340 1_555
B9 Be0 2.449501 1_555
B9 Na0 2.754333 1_555
B10 B14 1.745689 1_555
B10 B2 1.785443 1_455
B10 B17 1.790446 1_445
B10 B27 1.802426 1_555
B10 B13 1.816758 1_555
B10 B24 1.835488 1_545
B10 Na0 2.662987 1_545
B10 Na1 2.750316 1_455
B11 B7 1.745689 1_555
B11 B22 1.785443 1_655
B11 B25 1.790446 1_665
B11 B15 1.802426 1_555
B11 B8 1.816758 1_555
B11 Na1 2.662987 1_565
B11 Na0 2.750316 1_655
B12 B20 1.763715 1_555
B12 B3 1.785443 1_556
B12 B26 1.791197 1_555
B12 B18 1.809948 1_556
B12 B14 1.816772 1_555
B12 Be0 2.449501 1_555
B12 Na1 2.754333 1_555
B13 B27 1.763711 1_555
B13 B19 1.791198 1_555
B13 B2 1.800748 1_455
B13 B25 1.809951 1_554
B13 Be0 2.449502 1_555
B13 Na0 2.754340 1_555
B14 B6 1.790441 1_555
B14 B20 1.802420 1_555
B14 B21 1.835488 1_555
B14 Na1 2.662980 1_455
B14 Na0 2.750315 1_545
B15 B2 1.763707 1_566
B15 B8 1.763711 1_555
B15 B16 1.795379 1_555
B15 B17 1.830877 1_556
B15 Be1 2.270048 1_566
B15 Be0 2.270052 1_555
B16 B9 1.791197 1_555
B16 B19 1.828191 1_555
B16 Be1 1.932983 1_566
B16 Be0 1.932983 1_555
B16 Na0 2.532813 1_555
B17 B18 1.718878 1_555
B17 B24 1.790446 1_655
B17 B8 1.809951 1_554
B17 B2 1.809951 1_565
B17 Na0 2.718752 1_655
B18 B7 1.790441 1_555
B18 B3 1.790447 1_555
B18 B23 1.809939 1_555
B18 B20 1.830876 1_554
B18 Na0 2.718757 1_655
B19 B22 1.791193 1_555
B19 B20 1.795385 1_555
B19 Be1 1.932986 1_566
B19 Be0 1.932990 1_555
B19 Na0 2.532811 1_555
B20 B23 1.763706 1_556
B20 B21 1.802420 1_555
B20 Be1 2.270055 1_566
B20 Be0 2.270059 1_555
B21 B24 1.745685 1_556
B21 B9 1.785443 1_556
B21 B6 1.790447 1_555
B21 B23 1.816769 1_556
B21 Na1 2.662982 1_455
B21 Na0 2.750311 1_556
B22 B27 1.763707 1_566
B22 B8 1.800748 1_455
B22 B25 1.809951 1_565
B22 B24 1.816757 1_556
B22 Be1 2.449502 1_566
B22 Na0 2.754340 1_555
B23 B7 1.785443 1_555
B23 B26 1.791201 1_565
B23 B9 1.800754 1_555
B23 Be1 2.449501 1_565
B23 Na1 2.754336 1_565
B24 B8 1.785443 1_454
B24 B27 1.802423 1_565
B24 Na0 2.662987 1_555
B24 Na1 2.750316 1_454
B25 B6 1.718878 1_555
B25 B27 1.830877 1_556
B25 Na1 2.718752 1_455
B26 B27 1.795379 1_555
B26 B5 1.828191 1_555
B26 Be1 1.932983 1_555
B26 Be0 1.932983 1_555
B26 Na1 2.532813 1_555
B27 Be1 2.270048 1_555
B27 Be0 2.270052 1_555
