# generated using pymatgen
data_CsLuSiS4
_symmetry_space_group_name_H-M   'P 1'
_cell_length_a   6.27672941
_cell_length_b   6.65753230
_cell_length_c   17.73142235
_cell_angle_alpha   90.00000000
_cell_angle_beta   90.00000000
_cell_angle_gamma   90.00000000
_symmetry_Int_Tables_number   1
_chemical_formula_structural   CsLuSiS4
_chemical_formula_sum   'Cs4 Lu4 Si4 S16'
_cell_volume   740.95232150
_cell_formula_units_Z   4
loop_
 _symmetry_equiv_pos_site_id
 _symmetry_equiv_pos_as_xyz
  1  'x, y, z'
loop_
 _atom_site_type_symbol
 _atom_site_label
 _atom_site_symmetry_multiplicity
 _atom_site_fract_x
 _atom_site_fract_y
 _atom_site_fract_z
 _atom_site_occupancy
  Cs  Cs0  1  0.99403057  0.00618129  0.03113471  1
  Cs  Cs1  1  0.00596943  0.50618229  0.46886529  1
  Cs  Cs2  1  0.50596843  0.99381771  0.53113471  1
  Cs  Cs3  1  0.49403157  0.49381771  0.96886529  1
  Lu  Lu0  1  0.29084914  0.47741500  0.22845796  1
  Lu  Lu1  1  0.70915086  0.97741600  0.27154204  1
  Lu  Lu2  1  0.20915186  0.52258400  0.72845796  1
  Lu  Lu3  1  0.79084914  0.02258400  0.77154204  1
  Si  Si0  1  0.79062381  0.51814938  0.17014283  1
  Si  Si1  1  0.20937619  0.01814838  0.32985817  1
  Si  Si2  1  0.70937519  0.48185162  0.67014283  1
  Si  Si3  1  0.29062481  0.98185062  0.82985717  1
  S  S0  1  0.05766379  0.51145468  0.09895013  1
  S  S1  1  0.56456873  0.74942976  0.14977793  1
  S  S2  1  0.60050485  0.25397866  0.16015621  1
  S  S3  1  0.09912966  0.07896025  0.21958624  1
  S  S4  1  0.90087034  0.57895925  0.28041376  1
  S  S5  1  0.39949515  0.75397766  0.33984379  1
  S  S6  1  0.43543127  0.24943076  0.35022207  1
  S  S7  1  0.94233621  0.01145568  0.40104987  1
  S  S8  1  0.44233721  0.48854532  0.59895013  1
  S  S9  1  0.93543027  0.25056924  0.64977793  1
  S  S10  1  0.89949615  0.74602234  0.66015621  1
  S  S11  1  0.40086934  0.92104075  0.71958624  1
  S  S12  1  0.59913066  0.42103975  0.78041476  1
  S  S13  1  0.10050385  0.24602134  0.83984379  1
  S  S14  1  0.06456973  0.75057024  0.85022207  1
  S  S15  1  0.55766279  0.98854432  0.90104987  1
loop_
_geom_bond_atom_site_label_1
_geom_bond_atom_site_label_2
_geom_bond_distance
_geom_bond_site_symmetry_2
Cs0 S3 3.440299 1_655
Cs0 S0 3.528970 1_645
Cs0 S15 3.582744 1_544
Cs0 S0 3.594592 1_655
Cs0 S14 3.658165 1_644
Cs0 S2 3.749196 1_555
Cs0 S13 3.808009 1_654
Cs0 S1 3.822796 1_545
Cs1 S4 3.440297 1_455
Cs1 S7 3.528970 1_455
Cs1 S8 3.582744 1_555
Cs1 S7 3.594592 1_465
Cs1 S9 3.658172 1_455
Cs1 S5 3.749190 1_555
Cs1 S10 3.808009 1_455
Cs1 S6 3.822796 1_555
Cs2 S11 3.440297 1_555
Cs2 S8 3.528975 1_565
Cs2 S7 3.582744 1_565
Cs2 S8 3.594585 1_555
Cs2 S6 3.658170 1_565
Cs2 S10 3.749199 1_555
Cs2 S5 3.808009 1_555
Cs2 S9 3.822796 1_565
Cs3 S12 3.440281 1_555
Cs3 S15 3.528969 1_555
Cs3 S0 3.582744 1_556
Cs3 S15 3.594591 1_545
Cs3 S1 3.658167 1_556
Cs3 S13 3.749202 1_555
Cs3 S2 3.808006 1_556
Cs3 S14 3.822799 1_555
Lu0 S4 2.701371 1_455
Lu0 S2 2.730782 1_555
Lu0 S0 2.732556 1_555
Lu0 S5 2.784941 1_555
Lu0 S6 2.790845 1_555
Lu0 S1 2.859650 1_555
Lu0 S3 2.917156 1_555
Lu1 S3 2.701371 1_665
Lu1 S5 2.730789 1_555
Lu1 S7 2.732556 1_565
Lu1 S2 2.784941 1_565
Lu1 S1 2.790852 1_555
Lu1 S6 2.859650 1_565
Lu1 S4 2.917168 1_555
Lu2 S12 2.701377 1_555
Lu2 S10 2.730789 1_455
Lu2 S8 2.732556 1_555
Lu2 S13 2.784944 1_555
Lu2 S14 2.790852 1_555
Lu2 S9 2.859658 1_455
Lu2 S11 2.917163 1_555
Lu3 S11 2.701375 1_545
Lu3 S13 2.730781 1_655
Lu3 S15 2.732559 1_545
Lu3 S10 2.784938 1_545
Lu3 S9 2.790847 1_555
Lu3 S14 2.859650 1_645
Lu3 S12 2.917161 1_555
S0 Si0 2.098796 1_455
S1 Si0 2.124731 1_555
S2 Si0 2.132720 1_555
S3 Si1 2.113260 1_555
S4 Si0 2.113241 1_555
S5 Si1 2.132719 1_565
S6 Si1 2.124738 1_555
S7 Si1 2.098785 1_655
S8 Si2 2.098786 1_555
S9 Si2 2.124741 1_555
S10 Si2 2.132727 1_555
S11 Si3 2.113237 1_555
S12 Si2 2.113256 1_555
S13 Si3 2.132727 1_545
S14 Si3 2.124731 1_555
S15 Si3 2.098786 1_555
