# generated using pymatgen
data_Lu5GaCoSb
_symmetry_space_group_name_H-M   'P 1'
_cell_length_a   8.28181580
_cell_length_b   8.28181619
_cell_length_c   8.46173598
_cell_angle_alpha   125.56793752
_cell_angle_beta   125.56794970
_cell_angle_gamma   79.12838256
_symmetry_Int_Tables_number   1
_chemical_formula_structural   Lu5GaCoSb
_chemical_formula_sum   'Lu10 Ga2 Co2 Sb2'
_cell_volume   374.05253914
_cell_formula_units_Z   2
loop_
 _symmetry_equiv_pos_site_id
 _symmetry_equiv_pos_as_xyz
  1  'x, y, z'
loop_
 _atom_site_type_symbol
 _atom_site_label
 _atom_site_symmetry_multiplicity
 _atom_site_fract_x
 _atom_site_fract_y
 _atom_site_fract_z
 _atom_site_occupancy
  Lu  Lu0  1  0.00000000  0.00000000  0.00000000  1
  Lu  Lu1  1  0.50000000  0.50000000  0.00000000  1
  Lu  Lu2  1  0.78135667  0.28135667  0.79046420  1
  Lu  Lu3  1  0.21864333  0.71864333  0.20953580  1
  Lu  Lu4  1  0.49089248  0.99089248  0.20953580  1
  Lu  Lu5  1  0.31338964  0.45418118  0.50000000  1
  Lu  Lu6  1  0.04581882  0.18661036  0.50000000  1
  Lu  Lu7  1  0.50910752  0.00910752  0.79046420  1
  Lu  Lu8  1  0.68661036  0.54581882  0.50000000  1
  Lu  Lu9  1  0.95418118  0.81338964  0.50000000  1
  Ga  Ga0  1  0.13458673  0.63458673  0.76917246  1
  Ga  Ga1  1  0.86541327  0.36541327  0.23082754  1
  Co  Co0  1  0.63059960  0.86940040  0.50000000  1
  Co  Co1  1  0.36940040  0.13059960  0.50000000  1
  Sb  Sb0  1  0.25000000  0.25000000  0.00000000  1
  Sb  Sb1  1  0.75000000  0.75000000  0.00000000  1
loop_
_geom_bond_atom_site_label_1
_geom_bond_atom_site_label_2
_geom_bond_distance
_geom_bond_site_symmetry_2
Lu0 Sb1 3.192273 1_445
Lu0 Sb0 3.192273 1_555
Lu1 Sb0 3.192273 1_555
Lu1 Sb1 3.192273 1_555
Lu2 Sb0 3.228753 1_656
Lu2 Sb1 3.228754 1_556
Lu3 Sb1 3.228753 1_455
Lu3 Sb0 3.228754 1_555
Lu4 Sb0 3.228753 1_565
Lu4 Sb1 3.228754 1_555
Lu5 Sb1 3.234707 1_556
Lu5 Sb0 3.234707 1_555
Lu6 Sb0 3.234707 1_556
Lu6 Sb1 3.234707 1_445
Lu7 Sb1 3.228753 1_546
Lu7 Sb0 3.228754 1_556
Lu8 Sb0 3.234707 1_555
Lu8 Sb1 3.234707 1_556
Lu9 Sb1 3.234707 1_555
Lu9 Sb0 3.234707 1_666
Ga0 Lu1 2.932512 1_556
Ga0 Lu0 2.932512 1_566
Ga0 Lu9 2.956875 1_455
Ga0 Lu5 2.956876 1_555
Ga0 Lu8 2.956883 1_455
Ga0 Lu6 2.956883 1_555
Ga0 Lu4 3.000246 1_556
Ga0 Lu3 3.000254 1_556
Ga1 Lu1 2.932512 1_555
Ga1 Lu0 2.932512 1_655
Ga1 Lu6 2.956875 1_655
Ga1 Lu8 2.956876 1_555
Ga1 Lu5 2.956883 1_655
Ga1 Lu9 2.956883 1_555
Ga1 Lu7 3.000246 1_554
Ga1 Lu2 3.000254 1_554
Co0 Lu9 2.632074 1_555
Co0 Lu8 2.632074 1_555
Co0 Lu3 2.742546 1_555
Co0 Lu4 2.742546 1_555
Co0 Lu2 2.742546 1_565
Co0 Lu7 2.742546 1_565
Co0 Co1 2.755672 1_565
Co0 Lu0 3.049005 1_666
Co0 Lu1 3.049006 1_555
Co1 Lu6 2.632074 1_555
Co1 Lu5 2.632074 1_555
Co1 Lu2 2.742546 1_555
Co1 Lu7 2.742546 1_555
Co1 Lu3 2.742546 1_545
Co1 Lu4 2.742546 1_545
Co1 Lu0 3.049005 1_555
Co1 Lu1 3.049006 1_556
