# generated using pymatgen
data_YHgBPd6
_symmetry_space_group_name_H-M   'P 1'
_cell_length_a   5.84855620
_cell_length_b   5.84855618
_cell_length_c   5.84855705
_cell_angle_alpha   60.00000611
_cell_angle_beta   60.00000620
_cell_angle_gamma   60.00000087
_symmetry_Int_Tables_number   1
_chemical_formula_structural   YHgBPd6
_chemical_formula_sum   'Y1 Hg1 B1 Pd6'
_cell_volume   141.45917130
_cell_formula_units_Z   1
loop_
 _symmetry_equiv_pos_site_id
 _symmetry_equiv_pos_as_xyz
  1  'x, y, z'
loop_
 _atom_site_type_symbol
 _atom_site_label
 _atom_site_symmetry_multiplicity
 _atom_site_fract_x
 _atom_site_fract_y
 _atom_site_fract_z
 _atom_site_occupancy
  Y  Y0  1  0.75000000  0.75000000  0.75000000  1
  Hg  Hg0  1  0.25000000  0.25000000  0.25000000  1
  B  B0  1  0.00000000  0.00000000  0.00000000  1
  Pd  Pd0  1  0.74505233  0.25494867  0.25494867  1
  Pd  Pd1  1  0.25494867  0.74505233  0.25494867  1
  Pd  Pd2  1  0.74505133  0.74505133  0.25494967  1
  Pd  Pd3  1  0.25494867  0.25494867  0.74505233  1
  Pd  Pd4  1  0.74505133  0.25494967  0.74505133  1
  Pd  Pd5  1  0.25494967  0.74505133  0.74505133  1
loop_
_geom_bond_atom_site_label_1
_geom_bond_atom_site_label_2
_geom_bond_distance
_geom_bond_site_symmetry_2
Hg0 Pd1 2.924559 1_545
Hg0 Pd0 2.924559 1_455
Hg0 Pd3 2.924559 1_554
Hg0 Pd2 2.924565 1_545
Hg0 Pd2 2.924565 1_455
Hg0 Pd5 2.924565 1_545
Hg0 Pd4 2.924565 1_455
Hg0 Pd5 2.924565 1_554
Hg0 Pd4 2.924565 1_554
Hg0 Pd1 2.924570 1_555
Hg0 Pd0 2.924570 1_555
Hg0 Pd3 2.924571 1_555
B0 Pd0 2.108708 1_455
B0 Pd1 2.108708 1_545
B0 Pd4 2.108708 1_454
B0 Pd5 2.108708 1_544
B0 Pd3 2.108708 1_554
B0 Pd2 2.108708 1_445
Pd0 Y0 2.924565 1_545
Pd0 Y0 2.924565 1_554
Pd1 Y0 2.924565 1_455
Pd1 Y0 2.924565 1_554
Pd2 Y0 2.924559 1_555
Pd2 Y0 2.924571 1_554
Pd3 Y0 2.924565 1_545
Pd3 Y0 2.924565 1_455
Pd4 Y0 2.924559 1_555
Pd4 Y0 2.924570 1_545
Pd5 Y0 2.924559 1_555
Pd5 Y0 2.924570 1_455
