# generated using pymatgen
data_Na4Ca(SiSe3)2
_symmetry_space_group_name_H-M   'P 1'
_cell_length_a   7.24335942
_cell_length_b   7.24335944
_cell_length_c   7.04377036
_cell_angle_alpha   80.89079448
_cell_angle_beta   80.89079484
_cell_angle_gamma   114.58607922
_symmetry_Int_Tables_number   1
_chemical_formula_structural   Na4Ca(SiSe3)2
_chemical_formula_sum   'Na4 Ca1 Si2 Se6'
_cell_volume   321.30696707
_cell_formula_units_Z   1
loop_
 _symmetry_equiv_pos_site_id
 _symmetry_equiv_pos_as_xyz
  1  'x, y, z'
loop_
 _atom_site_type_symbol
 _atom_site_label
 _atom_site_symmetry_multiplicity
 _atom_site_fract_x
 _atom_site_fract_y
 _atom_site_fract_z
 _atom_site_occupancy
  Na  Na0  1  0.51457306  0.48542694  0.50000000  1
  Na  Na1  1  0.35393713  0.64606287  1.00000000  1
  Na  Na2  1  0.68902749  0.31097251  0.00000000  1
  Na  Na3  1  0.04772983  0.95227017  0.00000000  1
  Ca  Ca0  1  0.87174414  0.12825586  0.50000000  1
  Si  Si0  1  0.35216548  0.95954554  0.44333789  1
  Si  Si1  1  0.04045446  0.64783452  0.55666211  1
  Se  Se0  1  0.28086784  0.20035733  0.25751302  1
  Se  Se1  1  0.79964267  0.71913216  0.74248698  1
  Se  Se2  1  0.45273436  0.05584085  0.71767923  1
  Se  Se3  1  0.94415915  0.54726564  0.28232077  1
  Se  Se4  1  0.60145550  0.90533311  0.25156416  1
  Se  Se5  1  0.09466689  0.39854450  0.74843584  1
loop_
_geom_bond_atom_site_label_1
_geom_bond_atom_site_label_2
_geom_bond_distance
_geom_bond_site_symmetry_2
Na0 Se4 3.013714 1_555
Na0 Se5 3.013714 1_555
Na0 Se1 3.028235 1_555
Na0 Se0 3.028235 1_555
Na0 Se2 3.057126 1_555
Na0 Se3 3.057126 1_555
Na1 Se5 3.023060 1_555
Na1 Se4 3.023060 1_556
Na1 Se2 3.031445 1_565
Na1 Se3 3.031445 1_456
Na1 Se0 3.226894 1_556
Na1 Se1 3.226894 1_555
Na2 Se1 2.922907 1_554
Na2 Se0 2.922907 1_555
Na2 Se4 2.935970 1_545
Na2 Se5 2.935970 1_654
Na2 Se3 3.147768 1_555
Na2 Se2 3.147768 1_554
Na3 Se1 2.974520 1_454
Na3 Se0 2.974520 1_565
Na3 Se3 2.995408 1_455
Na3 Se2 2.995408 1_564
Na3 Se5 3.284167 1_564
Na3 Se4 3.284167 1_455
Ca0 Se3 2.963901 1_555
Ca0 Se2 2.963901 1_555
Ca0 Se1 2.966318 1_545
Ca0 Se0 2.966318 1_655
Ca0 Se4 2.975132 1_545
Ca0 Se5 2.975132 1_655
Se0 Si0 2.294163 1_545
Se1 Si1 2.294163 1_655
Se2 Si0 2.280572 1_545
Se3 Si1 2.280572 1_655
Se4 Si0 2.285845 1_555
Se5 Si1 2.285845 1_555
