# generated using pymatgen
data_BaNaAsO3
_symmetry_space_group_name_H-M   'P 1'
_cell_length_a   5.83392540
_cell_length_b   5.83392527
_cell_length_c   6.67834038
_cell_angle_alpha   90.08025528
_cell_angle_beta   90.08025826
_cell_angle_gamma   59.99273582
_symmetry_Int_Tables_number   1
_chemical_formula_structural   BaNaAsO3
_chemical_formula_sum   'Ba2 Na2 As2 O6'
_cell_volume   196.82875809
_cell_formula_units_Z   2
loop_
 _symmetry_equiv_pos_site_id
 _symmetry_equiv_pos_as_xyz
  1  'x, y, z'
loop_
 _atom_site_type_symbol
 _atom_site_label
 _atom_site_symmetry_multiplicity
 _atom_site_fract_x
 _atom_site_fract_y
 _atom_site_fract_z
 _atom_site_occupancy
  Ba  Ba0  1  0.33298532  0.33298532  0.34836748  1
  Ba  Ba1  1  0.66701368  0.66701368  0.65163252  1
  Na  Na0  1  0.00000000  0.00000000  0.00000000  1
  Na  Na1  1  0.00000000  0.00000000  0.50000000  1
  As  As0  1  0.66623837  0.66623837  0.15714676  1
  As  As1  1  0.33376063  0.33376063  0.84285324  1
  O  O0  1  0.82085129  0.82085129  0.28026974  1
  O  O1  1  0.82085855  0.35944428  0.28326167  1
  O  O2  1  0.35944428  0.82085855  0.28326167  1
  O  O3  1  0.64055572  0.17914145  0.71673833  1
  O  O4  1  0.17914145  0.64055572  0.71673833  1
  O  O5  1  0.17914871  0.17914871  0.71973026  1
loop_
_geom_bond_atom_site_label_1
_geom_bond_atom_site_label_2
_geom_bond_distance
_geom_bond_site_symmetry_2
Ba0 O3 2.908666 1_555
Ba0 O4 2.908666 1_555
Ba0 O5 2.929137 1_555
Ba0 O2 2.945259 1_545
Ba0 O1 2.945259 1_455
Ba0 O0 2.954400 1_455
Ba0 O0 2.954400 1_545
Ba0 O2 2.959208 1_555
Ba0 O1 2.959208 1_555
Ba1 O2 2.908663 1_555
Ba1 O1 2.908663 1_555
Ba1 O0 2.929142 1_555
Ba1 O3 2.945267 1_565
Ba1 O4 2.945267 1_655
Ba1 O5 2.954401 1_655
Ba1 O5 2.954401 1_565
Ba1 O3 2.959199 1_555
Ba1 O4 2.959200 1_555
Na0 O5 2.606061 1_554
Na0 O0 2.606061 1_445
Na0 O2 2.621167 1_545
Na0 O3 2.621167 1_454
Na0 O1 2.621167 1_455
Na0 O4 2.621167 1_544
Na1 O1 2.323118 1_455
Na1 O4 2.323118 1_545
Na1 O2 2.323119 1_545
Na1 O3 2.323119 1_455
Na1 O5 2.328511 1_555
Na1 O0 2.328511 1_445
As0 O0 1.764353 1_555
As0 O1 1.764577 1_555
As0 O2 1.764577 1_555
As0 Ba1 3.376018 1_554
As1 O5 1.764345 1_555
As1 O4 1.764581 1_555
As1 O3 1.764581 1_555
As1 Ba0 3.376018 1_556
