# generated using pymatgen
data_KMn4Ga5Se12
_symmetry_space_group_name_H-M   'P 1'
_cell_length_a   8.82972467
_cell_length_b   8.85610594
_cell_length_c   8.88512339
_cell_angle_alpha   107.12043747
_cell_angle_beta   107.80496150
_cell_angle_gamma   107.38085491
_symmetry_Int_Tables_number   1
_chemical_formula_structural   KMn4Ga5Se12
_chemical_formula_sum   'K1 Mn4 Ga5 Se12'
_cell_volume   571.59956115
_cell_formula_units_Z   1
loop_
 _symmetry_equiv_pos_site_id
 _symmetry_equiv_pos_as_xyz
  1  'x, y, z'
loop_
 _atom_site_type_symbol
 _atom_site_label
 _atom_site_symmetry_multiplicity
 _atom_site_fract_x
 _atom_site_fract_y
 _atom_site_fract_z
 _atom_site_occupancy
  K  K0  1  0.00776663  0.00537669  0.99875577  1
  Mn  Mn0  1  0.63204008  0.70859976  0.39309568  1
  Mn  Mn1  1  0.39835962  0.63804613  0.71852460  1
  Mn  Mn2  1  0.70998009  0.39096277  0.63251942  1
  Mn  Mn3  1  0.18105546  0.56093048  0.02252266  1
  Ga  Ga0  1  0.48642708  0.33845137  0.94182810  1
  Ga  Ga1  1  0.93963501  0.49124643  0.34352611  1
  Ga  Ga2  1  0.33497071  0.93485093  0.48447045  1
  Ga  Ga3  1  0.02010717  0.18391109  0.55624697  1
  Ga  Ga4  1  0.55792652  0.02399020  0.18249300  1
  Se  Se0  1  0.78405796  0.93155480  0.29264285  1
  Se  Se1  1  0.30129323  0.79767314  0.93140543  1
  Se  Se2  1  0.92627501  0.28429922  0.77377154  1
  Se  Se3  1  0.06942218  0.69848217  0.23869244  1
  Se  Se4  1  0.23173462  0.07700588  0.69217101  1
  Se  Se5  1  0.70053566  0.23360645  0.07867452  1
  Se  Se6  1  0.37688734  0.43071092  0.14851746  1
  Se  Se7  1  0.14967320  0.37645286  0.44135707  1
  Se  Se8  1  0.43394646  0.14397123  0.37016084  1
  Se  Se9  1  0.86339123  0.63198946  0.56051774  1
  Se  Se10  1  0.55502090  0.85993978  0.62966456  1
  Se  Se11  1  0.63413483  0.55259025  0.86307878  1
loop_
_geom_bond_atom_site_label_1
_geom_bond_atom_site_label_2
_geom_bond_distance
_geom_bond_site_symmetry_2
K0 Se1 3.688839 1_545
K0 Se6 3.693777 1_556
K0 Se2 3.702030 1_455
K0 Se8 3.717317 1_556
K0 Se0 3.812556 1_446
K0 Se9 3.819224 1_445
K0 Se7 3.840878 1_556
K0 Se10 3.848898 1_445
K0 Se11 3.903170 1_445
K0 Se4 3.911008 1_555
K0 Se5 3.944306 1_456
K0 Se3 3.976654 1_546
Mn0 Se6 2.529690 1_555
Mn0 Se9 2.531788 1_555
Mn0 Se10 2.537140 1_555
Mn0 Se0 2.585314 1_555
Mn1 Se10 2.521079 1_555
Mn1 Se11 2.536688 1_555
Mn1 Se1 2.540016 1_555
Mn1 Se7 2.558938 1_555
Mn2 Se11 2.525708 1_555
Mn2 Se9 2.531203 1_555
Mn2 Se2 2.534731 1_555
Mn2 Se8 2.548963 1_555
Mn3 Se6 2.518092 1_555
Mn3 Se1 2.524584 1_554
Mn3 Se2 2.535012 1_454
Mn3 Se3 2.577253 1_555
Ga0 Se11 2.376692 1_555
Ga0 Se6 2.377105 1_556
Ga0 Se4 2.480608 1_555
Ga0 Se5 2.494452 1_556
Ga1 Se9 2.367322 1_555
Ga1 Se7 2.426810 1_655
Ga1 Se3 2.439665 1_655
Ga1 Se5 2.474559 1_555
Ga2 Se10 2.370798 1_555
Ga2 Se3 2.427619 1_555
Ga2 Se8 2.430738 1_565
Ga2 Se4 2.483549 1_565
Ga3 Se2 2.370649 1_455
Ga3 Se7 2.414959 1_555
Ga3 Se0 2.444248 1_445
Ga3 Se4 2.489309 1_555
Ga4 Se1 2.385663 1_544
Ga4 Se0 2.422369 1_545
Ga4 Se8 2.424034 1_555
Ga4 Se5 2.490908 1_555
