# generated using pymatgen
data_YHfZr2F15
_symmetry_space_group_name_H-M   'P 1'
_cell_length_a   8.06531464
_cell_length_b   8.06531503
_cell_length_c   8.06693055
_cell_angle_alpha   79.87799184
_cell_angle_beta   79.87799091
_cell_angle_gamma   99.89066017
_symmetry_Int_Tables_number   1
_chemical_formula_structural   YHfZr2F15
_chemical_formula_sum   'Y2 Hf2 Zr4 F30'
_cell_volume   497.29756438
_cell_formula_units_Z   2
loop_
 _symmetry_equiv_pos_site_id
 _symmetry_equiv_pos_as_xyz
  1  'x, y, z'
loop_
 _atom_site_type_symbol
 _atom_site_label
 _atom_site_symmetry_multiplicity
 _atom_site_fract_x
 _atom_site_fract_y
 _atom_site_fract_z
 _atom_site_occupancy
  Y  Y0  1  0.17833337  0.82166663  0.25000000  1
  Y  Y1  1  0.82166663  0.17833337  0.75000000  1
  Hf  Hf0  1  0.75276135  0.24723865  0.25000000  1
  Hf  Hf1  1  0.24723865  0.75276135  0.75000000  1
  Zr  Zr0  1  0.74650991  0.67846072  0.67449832  1
  Zr  Zr1  1  0.32153928  0.25349009  0.82550168  1
  Zr  Zr2  1  0.25349009  0.32153928  0.32550168  1
  Zr  Zr3  1  0.67846072  0.74650991  0.17449832  1
  F  F0  1  0.31770880  0.35243934  0.05326494  1
  F  F1  1  0.93767386  0.81137189  0.14658699  1
  F  F2  1  0.84580690  0.46267856  0.68240234  1
  F  F3  1  0.46267856  0.84580690  0.18240234  1
  F  F4  1  0.81137189  0.93767386  0.64658699  1
  F  F5  1  0.35243934  0.31770880  0.55326394  1
  F  F6  1  0.68229120  0.64756066  0.94673506  1
  F  F7  1  0.06232614  0.18862811  0.85341301  1
  F  F8  1  0.15419310  0.53732144  0.31759766  1
  F  F9  1  0.53732144  0.15419310  0.81759766  1
  F  F10  1  0.18862811  0.06232614  0.35341301  1
  F  F11  1  0.64756066  0.68229120  0.44673506  1
  F  F12  1  0.77215965  0.28152648  0.99869843  1
  F  F13  1  0.00734187  0.27259771  0.22078374  1
  F  F14  1  0.77714172  0.50347936  0.22413435  1
  F  F15  1  0.50347936  0.77714172  0.72413435  1
  F  F16  1  0.27259771  0.00734187  0.72078374  1
  F  F17  1  0.28152648  0.77215965  0.49869843  1
  F  F18  1  0.22784035  0.71847352  0.00130157  1
  F  F19  1  0.99265813  0.72740229  0.77921626  1
  F  F20  1  0.22285828  0.49652064  0.77586565  1
  F  F21  1  0.49652064  0.22285828  0.27586565  1
  F  F22  1  0.72740229  0.99265813  0.27921626  1
  F  F23  1  0.71847352  0.22784035  0.50130157  1
  F  F24  1  0.46752115  0.53247885  0.25000000  1
  F  F25  1  0.74759062  0.95276912  0.96998334  1
  F  F26  1  0.04723088  0.25240938  0.53001666  1
  F  F27  1  0.25240938  0.04723088  0.03001666  1
  F  F28  1  0.95276912  0.74759062  0.46998334  1
  F  F29  1  0.53247885  0.46752115  0.75000000  1
loop_
_geom_bond_atom_site_label_1
_geom_bond_atom_site_label_2
_geom_bond_distance
_geom_bond_site_symmetry_2
F0 Zr2 2.125269 1_555
F0 Zr1 2.125469 1_554
F1 Zr3 2.027941 1_555
F1 Y0 2.237948 1_655
F2 Zr0 2.032739 1_555
F2 Y1 2.228087 1_555
F3 Zr3 2.032739 1_555
F3 Y0 2.228087 1_555
F4 Zr0 2.027941 1_555
F4 Y1 2.237948 1_565
F5 Zr1 2.125277 1_555
F5 Zr2 2.125461 1_555
F6 Zr0 2.125269 1_555
F6 Zr3 2.125469 1_556
F7 Zr1 2.027941 1_555
F7 Y1 2.237948 1_455
F8 Zr2 2.032739 1_555
F8 Y0 2.228087 1_555
F9 Zr1 2.032739 1_555
F9 Y1 2.228087 1_555
F10 Zr2 2.027941 1_555
F10 Y0 2.237948 1_545
F11 Zr3 2.125270 1_555
F11 Zr0 2.125469 1_555
F12 Hf0 1.971606 1_556
F12 Y1 2.301435 1_555
F13 Hf0 1.995494 1_455
F13 Zr2 2.290884 1_555
F14 Hf0 2.011889 1_555
F14 Zr3 2.237838 1_555
F15 Hf1 2.011889 1_555
F15 Zr0 2.237837 1_555
F16 Hf1 1.995494 1_545
F16 Zr1 2.290884 1_555
F17 Hf1 1.971606 1_555
F17 Y0 2.301435 1_555
F18 Hf1 1.971606 1_554
F18 Y0 2.301435 1_555
F19 Hf1 1.995494 1_655
F19 Zr0 2.290884 1_555
F20 Hf1 2.011889 1_555
F20 Zr1 2.237838 1_555
F21 Hf0 2.011889 1_555
F21 Zr2 2.237837 1_555
F22 Hf0 1.995494 1_565
F22 Zr3 2.290884 1_555
F23 Hf0 1.971606 1_555
F23 Y1 2.301435 1_555
F24 Zr2 2.121922 1_555
F24 Zr3 2.121922 1_555
F25 Zr3 2.047800 1_556
F25 Y1 2.221479 1_565
F26 Zr2 2.047800 1_555
F26 Y1 2.221479 1_455
F27 Zr1 2.047800 1_554
F27 Y0 2.221479 1_545
F28 Zr0 2.047800 1_555
F28 Y0 2.221479 1_655
F29 Zr0 2.121922 1_555
F29 Zr1 2.121922 1_555
