# generated using pymatgen
data_Y4Be2(SiIr3)3
_symmetry_space_group_name_H-M   'P 1'
_cell_length_a   11.43817488
_cell_length_b   11.43817555
_cell_length_c   11.43817438
_cell_angle_alpha   27.82288091
_cell_angle_beta   27.82288509
_cell_angle_gamma   27.82288879
_symmetry_Int_Tables_number   1
_chemical_formula_structural   Y4Be2(SiIr3)3
_chemical_formula_sum   'Y4 Be2 Si3 Ir9'
_cell_volume   287.86786858
_cell_formula_units_Z   1
loop_
 _symmetry_equiv_pos_site_id
 _symmetry_equiv_pos_as_xyz
  1  'x, y, z'
loop_
 _atom_site_type_symbol
 _atom_site_label
 _atom_site_symmetry_multiplicity
 _atom_site_fract_x
 _atom_site_fract_y
 _atom_site_fract_z
 _atom_site_occupancy
  Y  Y0  1  0.94942261  0.94942261  0.94942261  1
  Y  Y1  1  0.85075933  0.85075933  0.85075933  1
  Y  Y2  1  0.14783590  0.14783590  0.14783590  1
  Y  Y3  1  0.04973976  0.04973976  0.04973976  1
  Be  Be0  1  0.27953414  0.27953414  0.27953414  1
  Be  Be1  1  0.38792310  0.38792310  0.38792310  1
  Si  Si0  1  0.50126161  0.50126161  0.50126161  1
  Si  Si1  1  0.72023410  0.72023410  0.72023410  1
  Si  Si2  1  0.61294562  0.61294562  0.61294562  1
  Ir  Ir0  1  0.60557854  0.60557854  0.11150871  1
  Ir  Ir1  1  0.89980348  0.38880369  0.38880369  1
  Ir  Ir2  1  0.49635695  0.00755428  0.49635695  1
  Ir  Ir3  1  0.38880369  0.89980348  0.38880369  1
  Ir  Ir4  1  0.49635695  0.49635695  0.00755428  1
  Ir  Ir5  1  0.11150871  0.60557854  0.60557854  1
  Ir  Ir6  1  0.00755428  0.49635695  0.49635695  1
  Ir  Ir7  1  0.38880369  0.38880369  0.89980348  1
  Ir  Ir8  1  0.60557854  0.11150871  0.60557854  1
loop_
_geom_bond_atom_site_label_1
_geom_bond_atom_site_label_2
_geom_bond_distance
_geom_bond_site_symmetry_2
Y0 Y1 3.252504 1_555
Y0 Y3 3.307025 1_666
Y2 Y3 3.233808 1_555
Be0 Ir7 2.355524 1_554
Be0 Ir1 2.355524 1_455
Be0 Ir3 2.355525 1_545
Be0 Ir2 2.359032 1_555
Be0 Ir4 2.359032 1_555
Be0 Ir6 2.359032 1_555
Be0 Y0 3.177187 1_445
Be0 Y0 3.177188 1_454
Be0 Y0 3.177188 1_544
Be1 Ir8 2.347348 1_555
Be1 Ir0 2.347348 1_555
Be1 Ir5 2.347348 1_555
Be1 Ir4 2.374257 1_555
Be1 Ir6 2.374257 1_555
Be1 Ir2 2.374257 1_555
Be1 Y3 3.179434 1_556
Be1 Y3 3.179435 1_565
Be1 Y3 3.179435 1_655
Si1 Y3 3.177918 1_665
Si1 Y3 3.177918 1_656
Si1 Y3 3.177919 1_566
Si2 Y0 3.177102 1_554
Si2 Y0 3.177103 1_545
Si2 Y0 3.177103 1_455
Ir0 Si1 2.397594 1_554
Ir0 Si0 2.534249 1_555
Ir0 Y1 2.991160 1_554
Ir0 Y2 3.053859 1_655
Ir0 Y2 3.053859 1_565
Ir0 Y3 3.345946 1_565
Ir0 Y3 3.345946 1_655
Ir1 Si2 2.404050 1_555
Ir1 Si0 2.504602 1_555
Ir1 Y2 3.002891 1_655
Ir1 Y1 3.074794 1_554
Ir1 Y1 3.074795 1_545
Ir1 Y0 3.329948 1_545
Ir1 Y0 3.329949 1_554
Ir2 Si1 2.396443 1_545
Ir2 Si2 2.404516 1_545
Ir2 Y3 3.200418 1_556
Ir2 Y3 3.200418 1_655
Ir2 Y0 3.217683 1_544
Ir2 Y0 3.217683 1_445
Ir3 Si2 2.404049 1_555
Ir3 Si0 2.504602 1_555
Ir3 Y2 3.002891 1_565
Ir3 Y1 3.074795 1_554
Ir3 Y1 3.074795 1_455
Ir3 Y0 3.329949 1_455
Ir3 Y0 3.329949 1_554
Ir4 Si1 2.396443 1_554
Ir4 Si2 2.404516 1_554
Ir4 Y3 3.200418 1_655
Ir4 Y3 3.200419 1_565
Ir4 Y0 3.217683 1_454
Ir4 Y0 3.217684 1_544
Ir5 Si1 2.397595 1_455
Ir5 Si0 2.534250 1_555
Ir5 Y1 2.991160 1_455
Ir5 Y2 3.053858 1_556
Ir5 Y2 3.053858 1_565
Ir5 Y3 3.345945 1_565
Ir5 Y3 3.345945 1_556
Ir6 Si1 2.396444 1_455
Ir6 Si2 2.404516 1_455
Ir6 Y3 3.200418 1_556
Ir6 Y3 3.200418 1_565
Ir6 Y0 3.217683 1_454
Ir6 Y0 3.217683 1_445
Ir7 Si2 2.404050 1_555
Ir7 Si0 2.504602 1_555
Ir7 Y2 3.002891 1_556
Ir7 Y1 3.074795 1_455
Ir7 Y1 3.074795 1_545
Ir7 Y0 3.329949 1_545
Ir7 Y0 3.329949 1_455
Ir8 Si1 2.397595 1_545
Ir8 Si0 2.534250 1_555
Ir8 Y1 2.991160 1_545
Ir8 Y2 3.053858 1_556
Ir8 Y2 3.053858 1_655
Ir8 Y3 3.345945 1_655
Ir8 Y3 3.345946 1_556
