# generated using pymatgen
data_Y6Ta4Al12Os7
_symmetry_space_group_name_H-M   'P 1'
_cell_length_a   9.00578459
_cell_length_b   9.00578506
_cell_length_c   9.00578456
_cell_angle_alpha   60.00000544
_cell_angle_beta   60.00000374
_cell_angle_gamma   60.00000419
_symmetry_Int_Tables_number   1
_chemical_formula_structural   Y6Ta4Al12Os7
_chemical_formula_sum   'Y6 Ta4 Al12 Os7'
_cell_volume   516.47550839
_cell_formula_units_Z   1
loop_
 _symmetry_equiv_pos_site_id
 _symmetry_equiv_pos_as_xyz
  1  'x, y, z'
loop_
 _atom_site_type_symbol
 _atom_site_label
 _atom_site_symmetry_multiplicity
 _atom_site_fract_x
 _atom_site_fract_y
 _atom_site_fract_z
 _atom_site_occupancy
  Y  Y0  1  0.70676912  0.70676912  0.29323088  1
  Y  Y1  1  0.29323088  0.70676912  0.29323088  1
  Y  Y2  1  0.70676912  0.29323088  0.29323088  1
  Y  Y3  1  0.29323088  0.29323088  0.70676912  1
  Y  Y4  1  0.70676912  0.29323088  0.70676912  1
  Y  Y5  1  0.29323088  0.70676912  0.70676912  1
  Ta  Ta0  1  0.87935432  0.87935432  0.36193605  1
  Ta  Ta1  1  0.87935432  0.36193605  0.87935432  1
  Ta  Ta2  1  0.36193605  0.87935432  0.87935432  1
  Ta  Ta3  1  0.87935432  0.87935432  0.87935432  1
  Al  Al0  1  0.12083999  0.12083999  0.63747904  1
  Al  Al1  1  0.12083999  0.63747904  0.12083999  1
  Al  Al2  1  0.63747904  0.12083999  0.12083999  1
  Al  Al3  1  0.12083999  0.12083999  0.12083999  1
  Al  Al4  1  0.66743726  0.66743726  0.99769123  1
  Al  Al5  1  0.66743726  0.99769123  0.66743726  1
  Al  Al6  1  0.99769123  0.66743726  0.66743726  1
  Al  Al7  1  0.66743726  0.66743726  0.66743726  1
  Al  Al8  1  0.32980827  0.32980827  0.01057420  1
  Al  Al9  1  0.32980827  0.01057420  0.32980827  1
  Al  Al10  1  0.01057420  0.32980827  0.32980827  1
  Al  Al11  1  0.32980827  0.32980827  0.32980827  1
  Os  Os0  1  0.00000000  0.00000000  0.00000000  1
  Os  Os1  1  0.99490809  0.99490809  0.50509191  1
  Os  Os2  1  0.50509191  0.99490809  0.50509191  1
  Os  Os3  1  0.99490809  0.50509191  0.50509191  1
  Os  Os4  1  0.50509191  0.50509191  0.99490809  1
  Os  Os5  1  0.99490809  0.50509191  0.99490809  1
  Os  Os6  1  0.50509191  0.99490809  0.99490809  1
loop_
_geom_bond_atom_site_label_1
_geom_bond_atom_site_label_2
_geom_bond_distance
_geom_bond_site_symmetry_2
Ta0 Y0 3.090865 1_555
Ta0 Y1 3.090873 1_655
Ta0 Y2 3.090873 1_565
Ta1 Y4 3.090865 1_555
Ta1 Y3 3.090873 1_655
Ta1 Y2 3.090873 1_556
Ta2 Y5 3.090865 1_555
Ta2 Y1 3.090873 1_556
Ta2 Y3 3.090873 1_565
Ta3 Y5 3.090872 1_655
Ta3 Y0 3.090872 1_556
Ta3 Y4 3.090872 1_565
Al0 Os0 2.665686 1_556
Al0 Al9 2.805958 1_555
Al0 Al10 2.805958 1_555
Al0 Al11 2.805959 1_555
Al0 Os1 2.825670 1_445
Al0 Os2 2.825678 1_545
Al0 Os3 2.825678 1_455
Al0 Ta1 3.075588 1_455
Al0 Ta2 3.075588 1_545
Al0 Ta3 3.075589 1_445
Al0 Y4 3.091574 1_455
Al0 Y5 3.091574 1_545
Al0 Y3 3.091581 1_555
Al1 Os0 2.665687 1_565
Al1 Al8 2.805959 1_555
Al1 Al11 2.805959 1_555
Al1 Al10 2.805959 1_555
Al1 Os5 2.825670 1_454
Al1 Os4 2.825678 1_554
Al1 Os3 2.825678 1_455
Al1 Ta0 3.075588 1_455
Al1 Ta3 3.075588 1_454
Al1 Ta2 3.075589 1_554
Al1 Y0 3.091574 1_455
Al1 Y5 3.091574 1_554
Al1 Y1 3.091581 1_555
Al2 Os0 2.665686 1_655
Al2 Al8 2.805958 1_555
Al2 Al9 2.805958 1_555
Al2 Os6 2.825670 1_544
Al2 Os2 2.825678 1_545
Al2 Os4 2.825678 1_554
Al2 Ta0 3.075588 1_545
Al2 Ta3 3.075588 1_544
Al2 Ta1 3.075589 1_554
Al2 Y4 3.091574 1_554
Al2 Y0 3.091574 1_545
Al2 Y2 3.091581 1_555
Al3 Os0 2.665679 1_555
Al3 Al9 2.805958 1_555
Al3 Al8 2.805958 1_555
Al3 Os6 2.825678 1_544
Al3 Os1 2.825678 1_445
Al3 Os5 2.825678 1_454
Al3 Ta1 3.075588 1_454
Al3 Ta2 3.075588 1_544
Al3 Ta0 3.075589 1_445
Al3 Y2 3.091575 1_455
Al3 Y3 3.091575 1_554
Al3 Y1 3.091576 1_545
Al4 Os5 2.546870 1_555
Al4 Os6 2.546870 1_555
Al4 Os4 2.546893 1_555
Al4 Ta3 2.827514 1_555
Al4 Ta2 2.827544 1_555
Al4 Ta1 2.827544 1_555
Al4 Y0 3.057101 1_556
Al4 Y1 3.057118 1_556
Al4 Y2 3.057118 1_556
Al5 Os6 2.546870 1_555
Al5 Os1 2.546870 1_555
Al5 Os2 2.546893 1_555
Al5 Ta3 2.827514 1_555
Al5 Ta0 2.827544 1_555
Al5 Ta2 2.827544 1_555
Al5 Y4 3.057101 1_565
Al5 Y3 3.057118 1_565
Al5 Y2 3.057118 1_565
Al6 Os5 2.546870 1_555
Al6 Os1 2.546870 1_555
Al6 Os3 2.546893 1_555
Al6 Ta3 2.827514 1_555
Al6 Ta0 2.827544 1_555
Al6 Ta1 2.827544 1_555
Al6 Y5 3.057101 1_655
Al6 Y1 3.057118 1_655
Al6 Y3 3.057118 1_655
Al7 Os3 2.546878 1_555
Al7 Os4 2.546878 1_555
Al7 Os2 2.546878 1_555
Al7 Ta2 2.827525 1_555
Al7 Ta0 2.827525 1_555
Al7 Ta1 2.827525 1_555
Al7 Y0 3.057128 1_555
Al7 Y5 3.057128 1_555
Al7 Y4 3.057128 1_555
Al8 Os5 2.655194 1_454
Al8 Os6 2.655194 1_544
Al8 Os4 2.655202 1_554
Al8 Y3 3.100607 1_554
Al8 Y4 3.100613 1_554
Al8 Y5 3.100613 1_554
Al9 Os6 2.655194 1_544
Al9 Os1 2.655194 1_445
Al9 Os2 2.655202 1_545
Al9 Y1 3.100607 1_545
Al9 Y0 3.100613 1_545
Al9 Y5 3.100613 1_545
Al10 Os5 2.655194 1_454
Al10 Os1 2.655195 1_445
Al10 Os3 2.655202 1_455
Al10 Al3 2.805958 1_555
Al10 Y2 3.100607 1_455
Al10 Y4 3.100613 1_455
Al10 Y0 3.100613 1_455
Al11 Os3 2.655197 1_455
Al11 Os4 2.655197 1_554
Al11 Os2 2.655197 1_545
Al11 Al2 2.805959 1_555
Al11 Y3 3.100616 1_555
Al11 Y2 3.100616 1_555
Al11 Y1 3.100616 1_555
Os0 Ta2 2.661386 1_544
Os0 Ta0 2.661386 1_445
Os0 Ta1 2.661386 1_454
Os0 Ta3 2.661393 1_444
Os1 Ta3 2.755763 1_555
Os1 Ta0 2.755770 1_555
Os1 Y5 3.231931 1_655
Os1 Y1 3.231931 1_655
Os1 Y4 3.231931 1_565
Os1 Y2 3.231931 1_565
Os2 Ta0 2.755763 1_555
Os2 Ta2 2.755763 1_555
Os2 Y0 3.231931 1_555
Os2 Y3 3.231931 1_565
Os2 Y5 3.231931 1_555
Os2 Y2 3.231931 1_565
Os3 Ta1 2.755763 1_555
Os3 Ta0 2.755764 1_555
Os3 Y0 3.231931 1_555
Os3 Y3 3.231931 1_655
Os3 Y4 3.231931 1_555
Os3 Y1 3.231931 1_655
Os4 Ta1 2.755763 1_555
Os4 Ta2 2.755764 1_555
Os4 Y5 3.231931 1_555
Os4 Y4 3.231931 1_555
Os4 Y1 3.231931 1_556
Os4 Y2 3.231931 1_556
Os5 Ta3 2.755763 1_555
Os5 Ta1 2.755770 1_555
Os5 Y0 3.231931 1_556
Os5 Y3 3.231931 1_655
Os5 Y5 3.231931 1_655
Os5 Y2 3.231931 1_556
Os6 Ta3 2.755763 1_555
Os6 Ta2 2.755770 1_555
Os6 Y0 3.231931 1_556
Os6 Y3 3.231931 1_565
Os6 Y1 3.231931 1_556
Os6 Y4 3.231931 1_565
