# generated using pymatgen
data_NiAsF7
_symmetry_space_group_name_H-M   'P 1'
_cell_length_a   7.12841287
_cell_length_b   7.12841238
_cell_length_c   7.12841263
_cell_angle_alpha   126.41407231
_cell_angle_beta   120.77556247
_cell_angle_gamma   83.95595511
_symmetry_Int_Tables_number   1
_chemical_formula_structural   NiAsF7
_chemical_formula_sum   'Ni2 As2 F14'
_cell_volume   239.91313373
_cell_formula_units_Z   2
loop_
 _symmetry_equiv_pos_site_id
 _symmetry_equiv_pos_as_xyz
  1  'x, y, z'
loop_
 _atom_site_type_symbol
 _atom_site_label
 _atom_site_symmetry_multiplicity
 _atom_site_fract_x
 _atom_site_fract_y
 _atom_site_fract_z
 _atom_site_occupancy
  Ni  Ni0  1  0.50000000  0.00000000  0.00000000  1
  Ni  Ni1  1  0.00000000  0.00000000  0.50000000  1
  As  As0  1  0.50000000  0.00000000  0.50000000  1
  As  As1  1  0.00000000  0.50000000  0.50000000  1
  F  F0  1  0.25000000  0.10934650  0.85934650  1
  F  F1  1  0.75000000  0.89065350  0.14065350  1
  F  F2  1  0.52601788  0.28804977  0.76203189  1
  F  F3  1  0.97398212  0.73601301  0.76203189  1
  F  F4  1  0.06170888  0.35415664  0.64882596  1
  F  F5  1  0.43829112  0.08711808  0.29244676  1
  F  F6  1  0.29467032  0.64584336  0.70755324  1
  F  F7  1  0.20532968  0.91288192  0.35117404  1
  F  F8  1  0.93829112  0.64584336  0.35117404  1
  F  F9  1  0.56170888  0.91288192  0.70755324  1
  F  F10  1  0.70532968  0.35415664  0.29244676  1
  F  F11  1  0.79467032  0.08711808  0.64882596  1
  F  F12  1  0.02601788  0.26398699  0.23796811  1
  F  F13  1  0.47398212  0.71195023  0.23796811  1
loop_
_geom_bond_atom_site_label_1
_geom_bond_atom_site_label_2
_geom_bond_distance
_geom_bond_site_symmetry_2
As0 F2 1.706381 1_555
As0 F13 1.706381 1_545
As0 F11 1.770712 1_555
As0 F7 1.770712 1_545
As0 F5 1.770717 1_555
As0 F9 1.770717 1_545
As1 F12 1.706379 1_555
As1 F3 1.706379 1_455
As1 F8 1.770705 1_455
As1 F4 1.770705 1_555
As1 F6 1.770710 1_555
As1 F10 1.770710 1_455
F0 Ni1 1.896190 1_555
F0 Ni0 1.896190 1_556
F1 Ni1 1.896190 1_665
F1 Ni0 1.896190 1_565
F4 Ni1 2.066154 1_555
F5 Ni0 2.066145 1_555
F6 Ni0 2.066152 1_566
F7 Ni1 2.066147 1_565
F8 Ni1 2.066154 1_665
F9 Ni0 2.066145 1_566
F10 Ni0 2.066152 1_555
F11 Ni1 2.066147 1_655
