# generated using pymatgen
data_Na12Li3MgIn8
_symmetry_space_group_name_H-M   'P 1'
_cell_length_a   9.77986934
_cell_length_b   9.77987059
_cell_length_c   9.77987015
_cell_angle_alpha   60.27746389
_cell_angle_beta   60.27745938
_cell_angle_gamma   60.27746122
_symmetry_Int_Tables_number   1
_chemical_formula_structural   Na12Li3MgIn8
_chemical_formula_sum   'Na12 Li3 Mg1 In8'
_cell_volume   665.58410327
_cell_formula_units_Z   1
loop_
 _symmetry_equiv_pos_site_id
 _symmetry_equiv_pos_as_xyz
  1  'x, y, z'
loop_
 _atom_site_type_symbol
 _atom_site_label
 _atom_site_symmetry_multiplicity
 _atom_site_fract_x
 _atom_site_fract_y
 _atom_site_fract_z
 _atom_site_occupancy
  Na  Na0  1  0.45268638  0.04707411  0.04707411  1
  Na  Na1  1  0.79707457  0.20226669  0.79707457  1
  Na  Na2  1  0.45292543  0.45292543  0.04773331  1
  Na  Na3  1  0.79707457  0.79707457  0.20226669  1
  Na  Na4  1  0.20226669  0.79707457  0.79707457  1
  Na  Na5  1  0.04773331  0.45292543  0.45292543  1
  Na  Na6  1  0.04707411  0.04707411  0.45268638  1
  Na  Na7  1  0.20292589  0.20292589  0.79731362  1
  Na  Na8  1  0.45292543  0.04773331  0.45292543  1
  Na  Na9  1  0.79731362  0.20292589  0.20292589  1
  Na  Na10  1  0.04707411  0.45268638  0.04707411  1
  Na  Na11  1  0.20292589  0.79731362  0.20292589  1
  Li  Li0  1  0.62500000  0.62500000  0.12500000  1
  Li  Li1  1  0.62500000  0.12500000  0.62500000  1
  Li  Li2  1  0.12500000  0.62500000  0.62500000  1
  Mg  Mg0  1  0.62500000  0.62500000  0.62500000  1
  In  In0  1  0.42096279  0.42096279  0.42096279  1
  In  In1  1  0.74245504  0.41730919  0.41730919  1
  In  In2  1  0.82903721  0.82903721  0.82903721  1
  In  In3  1  0.41730919  0.41730919  0.74245504  1
  In  In4  1  0.83269081  0.83269081  0.50754496  1
  In  In5  1  0.41730919  0.74245504  0.41730919  1
  In  In6  1  0.83269081  0.50754496  0.83269081  1
  In  In7  1  0.50754496  0.83269081  0.83269081  1
loop_
_geom_bond_atom_site_label_1
_geom_bond_atom_site_label_2
_geom_bond_distance
_geom_bond_site_symmetry_2
Na0 Na1 3.584551 1_554
Na0 Na3 3.584551 1_545
Na0 Na8 3.973534 1_555
Na0 Na2 3.973534 1_555
Na1 Na6 3.584551 1_655
Na1 Na2 3.597629 1_556
Na1 Na5 3.597629 1_655
Na1 Na7 3.973534 1_655
Na1 Na9 3.973534 1_556
Na1 Na4 3.979334 1_645
Na1 Na3 3.979334 1_546
Na2 Na9 3.584551 1_555
Na2 Na4 3.597629 1_554
Na2 Na5 3.979333 1_555
Na2 Na8 3.979334 1_555
Na3 Na8 3.597629 1_565
Na3 Na5 3.597629 1_655
Na3 Na9 3.973534 1_565
Na3 Na4 3.979333 1_654
Na4 Na6 3.584551 1_565
Na4 Na8 3.597629 1_565
Na4 Na7 3.973534 1_565
Na5 Na7 3.584551 1_555
Na5 Na6 3.973534 1_555
Na5 Na8 3.979334 1_555
Na6 Na8 3.973534 1_555
Na7 Na8 3.584551 1_555
Na8 Na9 3.584551 1_555
Na10 Na3 3.584551 1_455
Na10 Na4 3.584551 1_554
Na10 Na2 3.973534 1_555
Na10 Na5 3.973534 1_555
Na11 Na2 3.584551 1_555
Na11 Na5 3.584551 1_555
Na11 Na3 3.973534 1_455
Na11 Na4 3.973534 1_554
Li0 Na3 3.400785 1_555
Li0 Na2 3.400785 1_555
Li1 Na1 3.400785 1_555
Li1 Na8 3.400785 1_555
Li2 Na4 3.400785 1_555
Li2 Na5 3.400785 1_555
Mg0 Na5 3.430245 1_655
Mg0 Na4 3.430245 1_555
Mg0 Na3 3.430245 1_555
Mg0 Na2 3.430245 1_556
Mg0 Na8 3.430245 1_565
Mg0 Na1 3.430245 1_555
In0 Li2 2.972460 1_555
In0 Li0 2.972460 1_555
In0 Li1 2.972460 1_555
In0 In1 3.109133 1_555
In0 In3 3.109133 1_555
In0 In5 3.109133 1_555
In0 Na5 3.369418 1_555
In0 Na2 3.369419 1_555
In0 Na8 3.369419 1_555
In0 Na9 3.403657 1_555
In0 Na7 3.403657 1_555
In0 Na11 3.403657 1_555
In1 Li0 2.966884 1_555
In1 Li1 2.966884 1_555
In1 Mg0 3.005794 1_555
In1 Na10 3.344989 1_655
In1 Na6 3.344989 1_655
In1 Na9 3.347803 1_555
In1 Na5 3.367355 1_655
In1 Na1 3.407412 1_555
In1 Na3 3.407412 1_555
In2 Li2 2.972460 1_655
In2 Li0 2.972460 1_556
In2 Li1 2.972460 1_565
In2 In7 3.109133 1_555
In2 In4 3.109133 1_555
In2 In6 3.109133 1_555
In2 Na4 3.369418 1_655
In2 Na3 3.369419 1_556
In2 Na1 3.369419 1_565
In2 Na0 3.403657 1_566
In2 Na6 3.403657 1_665
In2 Na10 3.403657 1_656
In3 Li2 2.966884 1_555
In3 Li1 2.966884 1_555
In3 Mg0 3.005794 1_555
In3 Na10 3.344989 1_556
In3 Na0 3.344990 1_556
In3 Na7 3.347803 1_555
In3 Na2 3.367356 1_556
In3 Na1 3.407412 1_555
In3 Na4 3.407412 1_555
In4 Li2 2.966884 1_655
In4 Li1 2.966884 1_565
In4 Mg0 3.005794 1_555
In4 Na11 3.344989 1_655
In4 Na9 3.344990 1_565
In4 Na6 3.347803 1_665
In4 Na3 3.367356 1_555
In4 Na8 3.407412 1_565
In4 Na5 3.407412 1_655
In5 Li2 2.966884 1_555
In5 Li0 2.966884 1_555
In5 Mg0 3.005794 1_555
In5 Na6 3.344989 1_565
In5 Na0 3.344989 1_565
In5 Na11 3.347803 1_555
In5 Na8 3.367356 1_565
In5 Na3 3.407412 1_555
In5 Na4 3.407412 1_555
In6 Li2 2.966884 1_655
In6 Li0 2.966884 1_556
In6 Mg0 3.005794 1_555
In6 Na7 3.344989 1_655
In6 Na9 3.344989 1_556
In6 Na10 3.347803 1_656
In6 Na1 3.367356 1_555
In6 Na2 3.407412 1_556
In6 Na5 3.407412 1_655
In7 Li0 2.966884 1_556
In7 Li1 2.966884 1_565
In7 Mg0 3.005794 1_555
In7 Na11 3.344989 1_556
In7 Na7 3.344989 1_565
In7 Na0 3.347803 1_566
In7 Na4 3.367355 1_555
In7 Na8 3.407412 1_565
In7 Na2 3.407412 1_556
