# generated using pymatgen
data_RbH6IrPb
_symmetry_space_group_name_H-M   'P 1'
_cell_length_a   6.56254154
_cell_length_b   6.56523912
_cell_length_c   6.56872604
_cell_angle_alpha   46.54024267
_cell_angle_beta   46.54623277
_cell_angle_gamma   46.55911687
_symmetry_Int_Tables_number   1
_chemical_formula_structural   RbH6IrPb
_chemical_formula_sum   'Rb1 H6 Ir1 Pb1'
_cell_volume   136.20588218
_cell_formula_units_Z   1
loop_
 _symmetry_equiv_pos_site_id
 _symmetry_equiv_pos_as_xyz
  1  'x, y, z'
loop_
 _atom_site_type_symbol
 _atom_site_label
 _atom_site_symmetry_multiplicity
 _atom_site_fract_x
 _atom_site_fract_y
 _atom_site_fract_z
 _atom_site_occupancy
  Rb  Rb0  1  0.77866216  0.77851485  0.77840681  1
  H  H0  1  0.78285595  0.78264811  0.24349098  1
  H  H1  1  0.19646418  0.75012688  0.19748806  1
  H  H2  1  0.74929770  0.19668001  0.19723470  1
  H  H3  1  0.19673816  0.19722364  0.75109980  1
  H  H4  1  0.78288107  0.24508927  0.78251482  1
  H  H5  1  0.24650058  0.78275953  0.78260026  1
  Ir  Ir0  1  0.98905465  0.98907448  0.98883290  1
  Pb  Pb0  1  0.27754555  0.27788023  0.27833068  1
loop_
_geom_bond_atom_site_label_1
_geom_bond_atom_site_label_2
_geom_bond_distance
_geom_bond_site_symmetry_2
H0 Ir0 1.660004 1_554
H0 Rb0 3.092784 1_554
H1 Ir0 1.692334 1_454
H1 Pb0 2.456149 1_555
H1 Rb0 2.827974 1_455
H1 Rb0 2.831334 1_554
H2 Ir0 1.691796 1_544
H2 Pb0 2.450512 1_555
H2 Rb0 2.830948 1_545
H2 Rb0 2.832544 1_554
H3 Ir0 1.691633 1_445
H3 Pb0 2.462583 1_555
H3 Rb0 2.826568 1_455
H3 Rb0 2.828408 1_545
H4 Ir0 1.659402 1_545
H4 Rb0 3.100950 1_545
H5 Ir0 1.659286 1_455
H5 Rb0 3.108499 1_455
