# generated using pymatgen
data_Ta4NbSiB2
_symmetry_space_group_name_H-M   'P 1'
_cell_length_a   7.28278542
_cell_length_b   7.28278571
_cell_length_c   7.28038320
_cell_angle_alpha   129.36724207
_cell_angle_beta   129.36724417
_cell_angle_gamma   74.44527021
_symmetry_Int_Tables_number   1
_chemical_formula_structural   Ta4NbSiB2
_chemical_formula_sum   'Ta8 Nb2 Si2 B4'
_cell_volume   224.89999476
_cell_formula_units_Z   2
loop_
 _symmetry_equiv_pos_site_id
 _symmetry_equiv_pos_as_xyz
  1  'x, y, z'
loop_
 _atom_site_type_symbol
 _atom_site_label
 _atom_site_symmetry_multiplicity
 _atom_site_fract_x
 _atom_site_fract_y
 _atom_site_fract_z
 _atom_site_occupancy
  Ta  Ta0  1  0.99973433  0.99915109  0.99888442  1
  Ta  Ta1  1  0.50084891  0.50026567  0.00111558  1
  Ta  Ta2  1  0.80634862  0.30649366  0.83557536  1
  Ta  Ta3  1  0.19350634  0.69365138  0.16442464  1
  Ta  Ta4  1  0.47077326  0.97091830  0.16442464  1
  Ta  Ta5  1  0.30655157  0.47084074  0.50000000  1
  Ta  Ta6  1  0.02915926  0.19344843  0.50000000  1
  Ta  Ta7  1  0.52908170  0.02922674  0.83557536  1
  Nb  Nb0  1  0.69308865  0.52856600  0.50000000  1
  Nb  Nb1  1  0.97143400  0.80691135  0.50000000  1
  Si  Si0  1  0.24982627  0.25017373  1.00000000  1
  Si  Si1  1  0.74982627  0.75017373  1.00000000  1
  B  B0  1  0.11913585  0.61619438  0.73532923  1
  B  B1  1  0.88380562  0.38086415  0.26467077  1
  B  B2  1  0.61398432  0.88601568  0.50000000  1
  B  B3  1  0.38289404  0.11710596  0.50000000  1
loop_
_geom_bond_atom_site_label_1
_geom_bond_atom_site_label_2
_geom_bond_distance
_geom_bond_site_symmetry_2
Nb0 Si0 2.650119 1_554
Nb0 Si1 2.650119 1_555
Nb1 Si0 2.650119 1_665
Nb1 Si1 2.650119 1_554
Si0 Ta6 2.651687 1_555
Si0 Ta5 2.651688 1_556
Si0 Ta2 2.653352 1_455
Si0 Ta3 2.653352 1_556
Si0 Ta7 2.654832 1_555
Si0 Ta4 2.654832 1_546
Si0 Ta1 2.899610 1_556
Si0 Ta0 2.899610 1_445
Si1 Ta5 2.651687 1_555
Si1 Ta6 2.651687 1_666
Si1 Ta4 2.653352 1_556
Si1 Ta7 2.653352 1_565
Si1 Ta3 2.654832 1_656
Si1 Ta2 2.654832 1_555
Si1 Ta0 2.899621 1_555
Si1 Ta1 2.899621 1_556
B0 B1 2.071596 1_455
B0 Ta5 2.410352 1_555
B0 Ta6 2.410360 1_555
B0 Nb1 2.429239 1_455
B0 Nb0 2.429247 1_455
B0 Ta4 2.480450 1_556
B0 Ta3 2.480458 1_556
B0 Ta1 2.484937 1_556
B0 Ta0 2.498713 1_455
B1 Ta6 2.410352 1_655
B1 Ta5 2.410360 1_655
B1 Nb0 2.429239 1_555
B1 Nb1 2.429247 1_555
B1 Ta7 2.480450 1_554
B1 Ta2 2.480458 1_554
B1 Ta0 2.484937 1_544
B1 Ta1 2.498713 1_555
B2 B3 2.036117 1_565
B2 Ta3 2.403533 1_555
B2 Ta2 2.403533 1_565
B2 Ta4 2.403533 1_555
B2 Ta7 2.403533 1_565
B2 Ta0 2.502810 1_555
B2 Ta1 2.502810 1_555
B2 Nb1 2.510850 1_555
B2 Nb0 2.510850 1_555
B3 Ta2 2.414616 1_555
B3 Ta3 2.414617 1_545
B3 Ta7 2.414617 1_555
B3 Ta4 2.414617 1_545
B3 Ta6 2.485482 1_555
B3 Ta5 2.485482 1_555
B3 Ta0 2.495985 1_444
B3 Ta1 2.495985 1_556
