# generated using pymatgen
data_RbVPSe5
_symmetry_space_group_name_H-M   'P 1'
_cell_length_a   10.04864739
_cell_length_b   10.04864720
_cell_length_c   7.01208369
_cell_angle_alpha   81.15580494
_cell_angle_beta   81.15580670
_cell_angle_gamma   42.65925753
_symmetry_Int_Tables_number   1
_chemical_formula_structural   RbVPSe5
_chemical_formula_sum   'Rb2 V2 P2 Se10'
_cell_volume   473.21836850
_cell_formula_units_Z   2
loop_
 _symmetry_equiv_pos_site_id
 _symmetry_equiv_pos_as_xyz
  1  'x, y, z'
loop_
 _atom_site_type_symbol
 _atom_site_label
 _atom_site_symmetry_multiplicity
 _atom_site_fract_x
 _atom_site_fract_y
 _atom_site_fract_z
 _atom_site_occupancy
  Rb  Rb0  1  0.73877177  0.73877177  0.76661660  1
  Rb  Rb1  1  0.26122823  0.26122823  0.23338340  1
  V  V0  1  0.71460505  0.28539495  0.00000000  1
  V  V1  1  0.28539495  0.71460505  1.00000000  1
  P  P0  1  0.86810213  0.86810213  0.20893963  1
  P  P1  1  0.13189787  0.13189787  0.79106037  1
  Se  Se0  1  0.07947521  0.07947521  0.10120930  1
  Se  Se1  1  0.56315670  0.56315670  0.16674405  1
  Se  Se2  1  0.33134023  0.83655877  0.67988742  1
  Se  Se3  1  0.92052479  0.92052479  0.89879070  1
  Se  Se4  1  0.66865977  0.16344123  0.32011258  1
  Se  Se5  1  0.83655877  0.33134023  0.67988742  1
  Se  Se6  1  0.43684330  0.43684330  0.83325595  1
  Se  Se7  1  0.75149028  0.75149028  0.25873023  1
  Se  Se8  1  0.16344123  0.66865977  0.32011258  1
  Se  Se9  1  0.24850972  0.24850972  0.74126977  1
loop_
_geom_bond_atom_site_label_1
_geom_bond_atom_site_label_2
_geom_bond_distance
_geom_bond_site_symmetry_2
Rb0 Se7 3.497933 1_556
Rb0 Se7 3.529863 1_555
Rb0 Se5 3.572423 1_555
Rb0 Se2 3.572423 1_555
Rb0 Se9 3.662421 1_565
Rb0 Se9 3.662421 1_655
Rb0 Se3 3.671143 1_555
Rb0 Se1 3.954197 1_556
Rb1 Se9 3.497933 1_554
Rb1 Se9 3.529863 1_555
Rb1 Se8 3.572423 1_555
Rb1 Se4 3.572423 1_555
Rb1 Se7 3.662421 1_545
Rb1 Se7 3.662421 1_455
Rb1 Se0 3.671143 1_555
Rb1 Se6 3.954197 1_554
P0 Se7 2.153143 1_555
P0 Se8 2.216953 1_655
P0 Se4 2.216953 1_565
P0 Se3 2.233447 1_554
P1 Se9 2.153143 1_555
P1 Se5 2.216953 1_455
P1 Se2 2.216953 1_545
P1 Se0 2.233447 1_556
Se0 V1 2.723656 1_544
Se0 V0 2.723656 1_455
Se1 V1 2.383779 1_554
Se1 V0 2.383779 1_555
Se2 V1 2.533979 1_555
Se3 V0 2.723656 1_566
Se3 V1 2.723656 1_655
Se4 V0 2.533979 1_555
Se5 V0 2.533979 1_556
Se6 V0 2.383779 1_556
Se6 V1 2.383779 1_555
Se8 V1 2.533979 1_554
