# generated using pymatgen
data_CsMg2Zn2Sb3
_symmetry_space_group_name_H-M   'P 1'
_cell_length_a   4.65686154
_cell_length_b   4.48775817
_cell_length_c   11.47422657
_cell_angle_alpha   90.00000000
_cell_angle_beta   90.00000000
_cell_angle_gamma   90.00000000
_symmetry_Int_Tables_number   1
_chemical_formula_structural   CsMg2Zn2Sb3
_chemical_formula_sum   'Cs1 Mg2 Zn2 Sb3'
_cell_volume   239.79835179
_cell_formula_units_Z   1
loop_
 _symmetry_equiv_pos_site_id
 _symmetry_equiv_pos_as_xyz
  1  'x, y, z'
loop_
 _atom_site_type_symbol
 _atom_site_label
 _atom_site_symmetry_multiplicity
 _atom_site_fract_x
 _atom_site_fract_y
 _atom_site_fract_z
 _atom_site_occupancy
  Cs  Cs0  1  0.00000000  0.00000000  0.50000000  1
  Mg  Mg0  1  0.00000000  0.50000000  0.15414706  1
  Mg  Mg1  1  0.00000000  0.50000000  0.84585294  1
  Zn  Zn0  1  0.50000000  0.00000000  0.83917643  1
  Zn  Zn1  1  0.50000000  0.00000000  0.16082357  1
  Sb  Sb0  1  0.00000000  0.00000000  0.00000000  1
  Sb  Sb1  1  0.50000000  0.50000000  0.29077818  1
  Sb  Sb2  1  0.50000000  0.50000000  0.70922182  1
loop_
_geom_bond_atom_site_label_1
_geom_bond_atom_site_label_2
_geom_bond_distance
_geom_bond_site_symmetry_2
Cs0 Sb2 4.027374 1_545
Cs0 Sb2 4.027374 1_555
Cs0 Sb2 4.027374 1_455
Cs0 Sb2 4.027374 1_445
Cs0 Sb1 4.027374 1_555
Cs0 Sb1 4.027374 1_455
Cs0 Sb1 4.027374 1_445
Cs0 Sb1 4.027374 1_545
Mg0 Sb1 2.807025 1_455
Mg0 Sb1 2.807025 1_555
Mg0 Sb0 2.857159 1_565
Mg0 Sb0 2.857159 1_555
Mg0 Zn1 3.234571 1_465
Mg0 Zn1 3.234571 1_565
Mg0 Zn1 3.234571 1_455
Mg0 Zn1 3.234571 1_555
Mg1 Sb2 2.807025 1_455
Mg1 Sb2 2.807025 1_555
Mg1 Sb0 2.857159 1_556
Mg1 Sb0 2.857159 1_566
Mg1 Zn0 3.234571 1_565
Mg1 Zn0 3.234571 1_555
Mg1 Zn0 3.234571 1_455
Mg1 Zn0 3.234571 1_465
Sb0 Zn1 2.970996 1_555
Sb0 Zn1 2.970996 1_455
Sb0 Zn0 2.970996 1_454
Sb0 Zn0 2.970996 1_554
Sb1 Zn1 2.694153 1_555
Sb1 Zn1 2.694153 1_565
Sb2 Zn0 2.694153 1_565
Sb2 Zn0 2.694153 1_555
