# generated using pymatgen
data_Cs5Li(ReH9)3
_symmetry_space_group_name_H-M   'P 1'
_cell_length_a   10.01685813
_cell_length_b   9.86514592
_cell_length_c   6.33251724
_cell_angle_alpha   90.00000000
_cell_angle_beta   90.00000000
_cell_angle_gamma   119.50024942
_symmetry_Int_Tables_number   1
_chemical_formula_structural   Cs5Li(ReH9)3
_chemical_formula_sum   'Cs5 Li1 Re3 H27'
_cell_volume   544.63697727
_cell_formula_units_Z   1
loop_
 _symmetry_equiv_pos_site_id
 _symmetry_equiv_pos_as_xyz
  1  'x, y, z'
loop_
 _atom_site_type_symbol
 _atom_site_label
 _atom_site_symmetry_multiplicity
 _atom_site_fract_x
 _atom_site_fract_y
 _atom_site_fract_z
 _atom_site_occupancy
  Cs  Cs0  1  0.74638663  0.75866321  0.50000000  1
  Cs  Cs1  1  0.25361337  0.01227658  0.50000000  1
  Cs  Cs2  1  0.00000000  0.59413997  0.00000000  1
  Cs  Cs3  1  0.39157190  0.40673604  0.00000000  1
  Cs  Cs4  1  0.60842810  0.01516414  0.00000000  1
  Li  Li0  1  0.00000000  0.39858902  0.50000000  1
  Re  Re0  1  0.69701299  0.33478098  0.50000000  1
  Re  Re1  1  0.30298701  0.63776899  0.50000000  1
  Re  Re2  1  1.00000000  0.00448701  0.00000000  1
  H  H0  1  0.81304419  0.31383731  0.68210234  1
  H  H1  1  0.70920826  0.44731238  0.70772330  1
  H  H2  1  0.56240102  0.22552430  0.68199210  1
  H  H3  1  0.18695581  0.50079412  0.31789766  1
  H  H4  1  0.56240102  0.22552430  0.31800790  1
  H  H5  1  0.81304419  0.31383731  0.31789766  1
  H  H6  1  0.70920826  0.44731238  0.29227670  1
  H  H7  1  0.29079174  0.73810412  0.70772330  1
  H  H8  1  0.43759898  0.66312428  0.68199210  1
  H  H9  1  0.17190346  0.01154509  0.00000000  1
  H  H10  1  0.82809654  0.83964163  0.00000000  1
  H  H11  1  1.00000000  0.17353385  0.00000000  1
  H  H12  1  0.88653748  0.01370681  0.19063598  1
  H  H13  1  0.11346252  0.12716934  0.80936402  1
  H  H14  1  1.00000000  0.88001673  0.81233525  1
  H  H15  1  1.00000000  0.88001673  0.18766475  1
  H  H16  1  0.11346252  0.12716934  0.19063598  1
  H  H17  1  0.88653748  0.01370681  0.80936402  1
  H  H18  1  0.13577500  0.64094359  0.50000000  1
  H  H19  1  0.44274387  0.82504068  0.50000000  1
  H  H20  1  0.33613898  0.48809100  0.50000000  1
  H  H21  1  0.55725613  0.38229681  0.50000000  1
  H  H22  1  0.86422500  0.50516859  0.50000000  1
  H  H23  1  0.66386102  0.15195303  0.50000000  1
  H  H24  1  0.18695581  0.50079412  0.68210234  1
  H  H25  1  0.29079174  0.73810412  0.29227670  1
  H  H26  1  0.43759898  0.66312428  0.31800790  1
loop_
_geom_bond_atom_site_label_1
_geom_bond_atom_site_label_2
_geom_bond_distance
_geom_bond_site_symmetry_2
Cs0 H17 2.942874 1_565
Cs0 H12 2.942874 1_565
Cs0 H15 2.967089 1_555
Cs0 H14 2.967089 1_555
Cs0 H8 2.985391 1_555
Cs0 H26 2.985391 1_555
Cs0 H1 3.190094 1_555
Cs0 H6 3.190094 1_555
Cs0 H21 3.232221 1_555
Cs0 H22 3.248723 1_555
Cs0 H10 3.269454 1_556
Cs0 H10 3.269454 1_555
Cs0 H19 3.411936 1_555
Cs1 H13 2.942875 1_555
Cs1 H16 2.942875 1_555
Cs1 H15 2.967089 1_445
Cs1 H14 2.967089 1_445
Cs1 H2 2.985389 1_555
Cs1 H4 2.985389 1_555
Cs1 H7 3.190094 1_545
Cs1 H25 3.190094 1_545
Cs1 H19 3.232222 1_545
Cs1 H18 3.248722 1_545
Cs1 H9 3.269454 1_555
Cs1 H9 3.269454 1_556
Cs1 H21 3.411936 1_555
Cs2 H14 3.060374 1_454
Cs2 H15 3.060374 1_455
Cs2 H6 3.138947 1_455
Cs2 H1 3.138947 1_454
Cs2 H25 3.138947 1_555
Cs2 H7 3.138947 1_554
Cs2 H3 3.178992 1_555
Cs2 H24 3.178992 1_554
Cs2 H5 3.178997 1_455
Cs2 H0 3.178997 1_454
Cs3 H16 3.042626 1_555
Cs3 H13 3.042626 1_554
Cs3 H26 3.084938 1_555
Cs3 H8 3.084938 1_554
Cs4 H12 3.042627 1_555
Cs4 H17 3.042627 1_554
Cs4 H4 3.084931 1_555
Cs4 H2 3.084931 1_554
H0 Re0 1.720421 1_555
H0 Li0 1.998460 1_655
H1 Re0 1.686440 1_555
H2 Re0 1.696093 1_555
H3 Re1 1.720421 1_555
H3 Li0 1.998460 1_555
H4 Re0 1.696093 1_555
H5 Re0 1.720421 1_555
H5 Li0 1.998460 1_655
H6 Re0 1.686440 1_555
H7 Re1 1.686434 1_555
H8 Re1 1.696094 1_555
H9 Re2 1.688733 1_455
H10 Re2 1.688733 1_565
H11 Re2 1.667672 1_555
H12 Re2 1.690901 1_555
H13 Re2 1.690900 1_456
H14 Re2 1.708816 1_566
H15 Re2 1.708816 1_565
H16 Re2 1.690900 1_455
H17 Re2 1.690901 1_556
H18 Re1 1.690581 1_555
H18 Li0 2.088902 1_555
H19 Re1 1.681002 1_555
H20 Re1 1.665391 1_555
H21 Re0 1.681010 1_555
H22 Re0 1.690585 1_555
H22 Li0 2.088903 1_655
H23 Re0 1.665372 1_555
H24 Re1 1.720421 1_555
H24 Li0 1.998460 1_555
H25 Re1 1.686434 1_555
H26 Re1 1.696094 1_555
