# generated using pymatgen
data_Hf10CoSiSn6
_symmetry_space_group_name_H-M   'P 1'
_cell_length_a   5.76975025
_cell_length_b   8.55164312
_cell_length_c   8.55164327
_cell_angle_alpha   120.00000059
_cell_angle_beta   90.00000000
_cell_angle_gamma   90.00000000
_symmetry_Int_Tables_number   1
_chemical_formula_structural   Hf10CoSiSn6
_chemical_formula_sum   'Hf10 Co1 Si1 Sn6'
_cell_volume   365.41535132
_cell_formula_units_Z   1
loop_
 _symmetry_equiv_pos_site_id
 _symmetry_equiv_pos_as_xyz
  1  'x, y, z'
loop_
 _atom_site_type_symbol
 _atom_site_label
 _atom_site_symmetry_multiplicity
 _atom_site_fract_x
 _atom_site_fract_y
 _atom_site_fract_z
 _atom_site_occupancy
  Hf  Hf0  1  0.74479581  0.74499175  0.74499175  1
  Hf  Hf1  1  0.25520419  0.25500825  0.25500825  1
  Hf  Hf2  1  0.74479581  0.00000000  0.25500825  1
  Hf  Hf3  1  0.25520419  0.00000000  0.74499175  1
  Hf  Hf4  1  0.74479581  0.25500825  1.00000000  1
  Hf  Hf5  1  0.25520419  0.74499175  0.00000000  1
  Hf  Hf6  1  0.00000000  0.66666700  0.33333300  1
  Hf  Hf7  1  0.00000000  0.33333300  0.66666700  1
  Hf  Hf8  1  0.50000000  0.33333300  0.66666700  1
  Hf  Hf9  1  0.50000000  0.66666700  0.33333300  1
  Co  Co0  1  0.50000000  0.00000000  0.00000000  1
  Si  Si0  1  0.00000000  0.00000000  0.00000000  1
  Sn  Sn0  1  0.75190400  0.39339312  0.39339312  1
  Sn  Sn1  1  0.24809600  0.60660688  0.60660688  1
  Sn  Sn2  1  0.75190400  0.00000000  0.60660688  1
  Sn  Sn3  1  0.24809600  0.00000000  0.39339312  1
  Sn  Sn4  1  0.75190400  0.60660688  1.00000000  1
  Sn  Sn5  1  0.24809600  0.39339312  0.00000000  1
loop_
_geom_bond_atom_site_label_1
_geom_bond_atom_site_label_2
_geom_bond_distance
_geom_bond_site_symmetry_2
Hf0 Si0 2.631307 1_666
Hf0 Sn2 2.956097 1_565
Hf0 Sn4 2.956097 1_555
Hf0 Sn0 3.007026 1_555
Hf0 Sn1 3.100562 1_555
Hf0 Sn1 3.135795 1_655
Hf1 Si0 2.631307 1_555
Hf1 Sn3 2.956097 1_555
Hf1 Sn5 2.956097 1_555
Hf1 Sn1 3.007026 1_555
Hf1 Sn0 3.100562 1_555
Hf1 Sn0 3.135795 1_455
Hf2 Si0 2.631307 1_655
Hf2 Sn0 2.956097 1_555
Hf2 Sn4 2.956097 1_544
Hf2 Sn2 3.007026 1_555
Hf2 Sn3 3.100562 1_555
Hf2 Sn3 3.135795 1_655
Hf3 Si0 2.631307 1_556
Hf3 Sn5 2.956097 1_556
Hf3 Sn1 2.956097 1_545
Hf3 Sn3 3.007026 1_555
Hf3 Sn2 3.100562 1_555
Hf3 Sn2 3.135795 1_455
Hf4 Si0 2.631307 1_656
Hf4 Sn2 2.956097 1_555
Hf4 Sn0 2.956097 1_556
Hf4 Sn4 3.007026 1_555
Hf4 Sn5 3.100562 1_556
Hf4 Sn5 3.135795 1_656
Hf5 Si0 2.631307 1_565
Hf5 Sn3 2.956097 1_565
Hf5 Sn1 2.956097 1_554
Hf5 Sn5 3.007026 1_555
Hf5 Sn4 3.100562 1_554
Hf5 Sn4 3.135795 1_454
Hf6 Sn3 2.995727 1_565
Hf6 Sn4 2.995727 1_454
Hf6 Sn2 2.995730 1_465
Hf6 Sn5 2.995730 1_555
Hf6 Sn0 2.995735 1_455
Hf6 Sn1 2.995735 1_555
Hf7 Sn2 2.995727 1_455
Hf7 Sn5 2.995727 1_556
Hf7 Sn3 2.995730 1_555
Hf7 Sn4 2.995730 1_455
Hf7 Sn1 2.995735 1_555
Hf7 Sn0 2.995735 1_455
Hf8 Sn2 3.006288 1_555
Hf8 Sn5 3.006288 1_556
Hf8 Sn3 3.006290 1_555
Hf8 Sn4 3.006290 1_555
Hf8 Sn1 3.006295 1_555
Hf8 Sn0 3.006295 1_555
Hf9 Sn3 3.006288 1_565
Hf9 Sn4 3.006288 1_554
Hf9 Sn2 3.006290 1_565
Hf9 Sn5 3.006290 1_555
Hf9 Sn0 3.006295 1_555
Hf9 Sn1 3.006295 1_555
Co0 Hf0 2.598178 1_544
Co0 Hf1 2.598178 1_555
Co0 Hf4 2.598178 1_554
Co0 Hf5 2.598178 1_545
Co0 Hf2 2.598178 1_555
Co0 Hf3 2.598178 1_554
