# generated using pymatgen
data_Sc10As4IrRu
_symmetry_space_group_name_H-M   'P 1'
_cell_length_a   5.81531528
_cell_length_b   7.82644036
_cell_length_c   7.96149800
_cell_angle_alpha   119.44040976
_cell_angle_beta   90.00000000
_cell_angle_gamma   90.00000000
_symmetry_Int_Tables_number   1
_chemical_formula_structural   Sc10As4IrRu
_chemical_formula_sum   'Sc10 As4 Ir1 Ru1'
_cell_volume   315.56174785
_cell_formula_units_Z   1
loop_
 _symmetry_equiv_pos_site_id
 _symmetry_equiv_pos_as_xyz
  1  'x, y, z'
loop_
 _atom_site_type_symbol
 _atom_site_label
 _atom_site_symmetry_multiplicity
 _atom_site_fract_x
 _atom_site_fract_y
 _atom_site_fract_z
 _atom_site_occupancy
  Sc  Sc0  1  0.00004165  0.66178436  0.32408451  1
  Sc  Sc1  1  0.00004165  0.33769884  0.67591549  1
  Sc  Sc2  1  0.49995835  0.33769884  0.67591549  1
  Sc  Sc3  1  0.49995835  0.66178436  0.32408451  1
  Sc  Sc4  1  0.75000000  0.74678487  0.76711898  1
  Sc  Sc5  1  0.25000000  0.25471132  0.23141677  1
  Sc  Sc6  1  0.75000000  0.97966689  0.23288102  1
  Sc  Sc7  1  0.25000000  0.02329255  0.76858323  1
  Sc  Sc8  1  0.75000000  0.24710534  0.00000000  1
  Sc  Sc9  1  0.25000000  0.74934758  1.00000000  1
  As  As0  1  0.75000000  0.37892189  0.38828298  1
  As  As1  1  0.25000000  0.62153042  0.61267351  1
  As  As2  1  0.75000000  0.99063891  0.61171702  1
  As  As3  1  0.25000000  0.00885691  0.38732649  1
  Ir  Ir0  1  0.75000000  0.59168915  0.00000000  1
  Ru  Ru0  1  0.25000000  0.40848576  0.00000000  1
loop_
_geom_bond_atom_site_label_1
_geom_bond_atom_site_label_2
_geom_bond_distance
_geom_bond_site_symmetry_2
As0 Sc8 2.735958 1_555
As0 Sc6 2.737576 1_545
As0 Sc1 2.861596 1_655
As0 Sc2 2.861596 1_555
As0 Sc0 2.896345 1_655
As0 Sc3 2.896345 1_555
As0 Sc4 2.974831 1_555
As0 Sc5 3.125019 1_555
As0 Sc5 3.125019 1_655
As1 Sc9 2.734492 1_555
As1 Sc7 2.755176 1_565
As1 Sc3 2.864037 1_555
As1 Sc0 2.864037 1_555
As1 Sc2 2.898362 1_555
As1 Sc1 2.898362 1_555
As1 Sc5 2.981460 1_555
As1 Sc4 3.121293 1_555
As1 Sc4 3.121293 1_455
As2 Sc8 2.735958 1_566
As2 Sc4 2.737584 1_555
As2 Sc0 2.861592 1_655
As2 Sc3 2.861592 1_555
As2 Sc1 2.896339 1_665
As2 Sc2 2.896339 1_565
As2 Sc6 2.974835 1_555
As2 Sc7 3.125021 1_665
As2 Sc7 3.125021 1_565
As3 Sc9 2.734492 1_544
As3 Sc5 2.755191 1_555
As3 Sc2 2.864033 1_555
As3 Sc1 2.864033 1_555
As3 Sc3 2.898356 1_545
As3 Sc0 2.898356 1_545
As3 Sc7 2.981467 1_555
As3 Sc6 3.121294 1_445
As3 Sc6 3.121294 1_545
Ir0 Sc4 2.668977 1_554
Ir0 Sc6 2.668983 1_555
Ir0 Sc8 2.696865 1_555
Ir0 Sc0 2.771503 1_655
Ir0 Sc3 2.771503 1_555
Ir0 Sc1 2.771505 1_654
Ir0 Sc2 2.771505 1_554
Ir0 Sc9 3.158638 1_554
Ir0 Sc9 3.158638 1_654
Ru0 Sc5 2.650039 1_555
Ru0 Sc7 2.650052 1_554
Ru0 Sc9 2.667735 1_554
Ru0 Sc2 2.769848 1_554
Ru0 Sc1 2.769848 1_554
Ru0 Sc3 2.769850 1_555
Ru0 Sc0 2.769850 1_555
Ru0 Sc8 3.170131 1_455
Ru0 Sc8 3.170131 1_555
