# generated using pymatgen
data_CoSi12(P4Rh)3
_symmetry_space_group_name_H-M   'P 1'
_cell_length_a   5.82489153
_cell_length_b   6.02244643
_cell_length_c   12.97490033
_cell_angle_alpha   90.08124944
_cell_angle_beta   89.90439844
_cell_angle_gamma   89.94880976
_symmetry_Int_Tables_number   1
_chemical_formula_structural   CoSi12(P4Rh)3
_chemical_formula_sum   'Co1 Si12 P12 Rh3'
_cell_volume   455.15949145
_cell_formula_units_Z   1
loop_
 _symmetry_equiv_pos_site_id
 _symmetry_equiv_pos_as_xyz
  1  'x, y, z'
loop_
 _atom_site_type_symbol
 _atom_site_label
 _atom_site_symmetry_multiplicity
 _atom_site_fract_x
 _atom_site_fract_y
 _atom_site_fract_z
 _atom_site_occupancy
  Co  Co0  1  0.03455339  0.51882147  0.38234714  1
  Si  Si0  1  0.96839588  0.17200858  0.32103821  1
  Si  Si1  1  0.46805921  0.83919793  0.68111741  1
  Si  Si2  1  0.93204044  0.62539088  0.22205801  1
  Si  Si3  1  0.43175224  0.37371344  0.78348801  1
  Si  Si4  1  0.34106615  0.91495530  0.95190640  1
  Si  Si5  1  0.84190506  0.08453370  0.04977397  1
  Si  Si6  1  0.91593132  0.53110181  0.67030086  1
  Si  Si7  1  0.40295062  0.47090460  0.32966046  1
  Si  Si8  1  0.99764592  0.05978998  0.56738013  1
  Si  Si9  1  0.49897174  0.93250848  0.42848478  1
  Si  Si10  1  0.91107754  0.62787431  0.92886002  1
  Si  Si11  1  0.41111821  0.37257240  0.07276441  1
  P  P0  1  0.57800781  0.03026651  0.82478484  1
  P  P1  1  0.07726935  0.97153733  0.17791015  1
  P  P2  1  0.51861955  0.56099377  0.92978281  1
  P  P3  1  0.01824666  0.44039691  0.07292746  1
  P  P4  1  0.60938798  0.11129468  0.57168306  1
  P  P5  1  0.10925127  0.87498145  0.42449294  1
  P  P6  1  0.54305901  0.64089707  0.18360115  1
  P  P7  1  0.04456386  0.35927608  0.81768760  1
  P  P8  1  0.57770689  0.13496656  0.28940281  1
  P  P9  1  0.07929541  0.87060785  0.71028116  1
  P  P10  1  0.15047373  0.40509397  0.54532360  1
  P  P11  1  0.66348739  0.59212826  0.44444843  1
  Rh  Rh0  1  0.96594463  0.98902932  0.87944132  1
  Rh  Rh1  1  0.46619550  0.01117308  0.12173515  1
  Rh  Rh2  1  0.53682423  0.48398228  0.61731672  1
loop_
_geom_bond_atom_site_label_1
_geom_bond_atom_site_label_2
_geom_bond_distance
_geom_bond_site_symmetry_2
Co0 P5 2.255729 1_555
Co0 Si2 2.258545 1_455
Co0 Si0 2.267498 1_455
Co0 Si7 2.269098 1_555
Co0 P10 2.324787 1_555
Co0 P11 2.346777 1_455
P0 Si4 2.259416 1_545
P0 Si1 2.282159 1_545
P0 Si3 2.300573 1_555
P0 Rh0 2.382358 1_545
P1 Si5 2.261835 1_465
P1 Si0 2.301495 1_465
P1 Si2 2.322588 1_455
P1 Rh1 2.390910 1_565
P2 Si11 2.263804 1_556
P2 Si3 2.264800 1_555
P2 Si10 2.321607 1_555
P2 Si4 2.385282 1_555
P3 Si10 2.273158 1_454
P3 Si2 2.286284 1_455
P3 Si11 2.324240 1_555
P3 Si5 2.396170 1_455
P4 Si9 2.241575 1_545
P4 Si8 2.283038 1_555
P4 Si1 2.320393 1_545
P4 Rh2 2.358107 1_555
P5 Si8 2.255512 1_465
P5 Si9 2.297329 1_555
P5 Si0 2.383852 1_465
P6 Si11 2.295529 1_555
P6 Si7 2.303781 1_555
P6 Si2 2.322705 1_555
P6 Rh1 2.412890 1_565
P7 Si3 2.299586 1_555
P7 Si10 2.299852 1_455
P7 Si6 2.301792 1_455
P7 Rh0 2.414405 1_445
P8 Si9 2.226652 1_545
P8 Si7 2.322454 1_555
P8 Si0 2.323988 1_555
P8 Rh1 2.389851 1_555
P9 Si8 2.229359 1_465
P9 Si1 2.302853 1_555
P9 Si6 2.314591 1_455
P9 Rh0 2.398283 1_455
P10 Si6 2.249244 1_455
P10 Si8 2.281040 1_455
P10 Rh2 2.484041 1_555
P11 Si7 2.249608 1_555
P11 Si9 2.271948 1_555
P11 Rh2 2.449253 1_555
Rh0 Si10 2.290978 1_555
Rh0 Si5 2.393218 1_566
Rh0 Si4 2.421518 1_655
Rh1 Si11 2.290674 1_555
Rh1 Si4 2.392693 1_544
Rh1 Si5 2.419182 1_555
Rh2 Si1 2.326910 1_555
Rh2 Si6 2.331345 1_555
Rh2 Si3 2.337639 1_555
