# generated using pymatgen
data_Ca7Cd(SnN)2
_symmetry_space_group_name_H-M   'P 1'
_cell_length_a   12.43606676
_cell_length_b   12.43606688
_cell_length_c   4.88070781
_cell_angle_alpha   90.00000000
_cell_angle_beta   90.00000000
_cell_angle_gamma   157.34743802
_symmetry_Int_Tables_number   1
_chemical_formula_structural   Ca7Cd(SnN)2
_chemical_formula_sum   'Ca7 Cd1 Sn2 N2'
_cell_volume   290.71664039
_cell_formula_units_Z   1
loop_
 _symmetry_equiv_pos_site_id
 _symmetry_equiv_pos_as_xyz
  1  'x, y, z'
loop_
 _atom_site_type_symbol
 _atom_site_label
 _atom_site_symmetry_multiplicity
 _atom_site_fract_x
 _atom_site_fract_y
 _atom_site_fract_z
 _atom_site_occupancy
  Ca  Ca0  1  0.90230166  0.09769734  0.00000000  1
  Ca  Ca1  1  0.69607129  0.30392771  0.00000000  1
  Ca  Ca2  1  0.50091372  0.49908628  0.00000000  1
  Ca  Ca3  1  0.30228723  0.69771177  0.00000000  1
  Ca  Ca4  1  0.09992531  0.90007369  0.00000000  1
  Ca  Ca5  1  0.59889000  0.40111000  0.50000100  1
  Ca  Ca6  1  0.40324779  0.59675221  0.50000100  1
  Cd  Cd0  1  0.78986756  0.21013144  0.50000100  1
  Sn  Sn0  1  0.00042562  0.99957438  0.50000100  1
  Sn  Sn1  1  0.20717810  0.79282090  0.50000100  1
  N  N0  1  0.60175472  0.39824428  0.00000000  1
  N  N1  1  0.39713201  0.60286699  0.00000000  1
loop_
_geom_bond_atom_site_label_1
_geom_bond_atom_site_label_2
_geom_bond_distance
_geom_bond_site_symmetry_2
Ca0 N1 2.445645 1_545
Ca0 N1 2.445645 1_655
Ca0 Sn0 3.417865 1_644
Ca0 Sn0 3.417872 1_645
Ca0 Cd0 3.670687 1_554
Ca0 Cd0 3.670693 1_555
Ca1 N0 2.300168 1_555
Ca1 Cd0 3.344827 1_554
Ca1 Cd0 3.344834 1_555
Ca1 Sn1 3.463229 1_654
Ca1 Sn1 3.463229 1_544
Ca1 Sn1 3.463236 1_655
Ca1 Sn1 3.463236 1_545
Ca2 N0 2.459296 1_555
Ca2 N1 2.530989 1_555
Ca2 Sn0 3.452641 1_544
Ca2 Sn0 3.452641 1_654
Ca2 Sn0 3.452648 1_545
Ca2 Sn0 3.452648 1_655
Ca3 N1 2.313050 1_555
Ca3 Sn1 3.366804 1_554
Ca3 Sn1 3.366811 1_555
Ca3 Cd0 3.465880 1_454
Ca3 Cd0 3.465880 1_564
Ca3 Cd0 3.465887 1_455
Ca3 Cd0 3.465887 1_565
Ca4 N0 2.442800 1_565
Ca4 N0 2.442800 1_455
Ca4 Sn0 3.441456 1_554
Ca4 Sn0 3.441463 1_555
Ca4 Sn1 3.577282 1_554
Ca4 Sn1 3.577289 1_555
Ca5 N0 2.441349 1_556
Ca5 N0 2.441359 1_555
Ca5 Sn0 3.425148 1_545
Ca5 Sn0 3.425148 1_655
Ca5 Sn1 3.597179 1_655
Ca5 Sn1 3.597183 1_545
Ca6 N1 2.444902 1_556
Ca6 N1 2.444912 1_555
Ca6 Sn0 3.403224 1_655
Ca6 Sn0 3.403224 1_545
Ca6 Cd0 3.689297 1_565
Ca6 Cd0 3.689300 1_455
Cd0 Sn1 3.167332 1_545
Cd0 Sn1 3.167333 1_655
