# generated using pymatgen
data_Ti10BeSiSb4
_symmetry_space_group_name_H-M   'P 1'
_cell_length_a   5.08234861
_cell_length_b   7.77652246
_cell_length_c   7.77652309
_cell_angle_alpha   83.87016073
_cell_angle_beta   70.92684956
_cell_angle_gamma   70.92685187
_symmetry_Int_Tables_number   1
_chemical_formula_structural   Ti10BeSiSb4
_chemical_formula_sum   'Ti10 Be1 Si1 Sb4'
_cell_volume   274.53192361
_cell_formula_units_Z   1
loop_
 _symmetry_equiv_pos_site_id
 _symmetry_equiv_pos_as_xyz
  1  'x, y, z'
loop_
 _atom_site_type_symbol
 _atom_site_label
 _atom_site_symmetry_multiplicity
 _atom_site_fract_x
 _atom_site_fract_y
 _atom_site_fract_z
 _atom_site_occupancy
  Ti  Ti0  1  0.25000000  0.50000000  0.50000000  1
  Ti  Ti1  1  0.75000000  0.50000000  0.50000000  1
  Ti  Ti2  1  0.07500105  0.13461958  0.72041462  1
  Ti  Ti3  1  0.93003425  0.86538042  0.27958538  1
  Ti  Ti4  1  0.79541567  0.27958538  0.13461958  1
  Ti  Ti5  1  0.42499895  0.27958538  0.86538042  1
  Ti  Ti6  1  0.20961963  0.72041462  0.86538042  1
  Ti  Ti7  1  0.56996575  0.72041462  0.13461958  1
  Ti  Ti8  1  0.70458433  0.86538042  0.72041462  1
  Ti  Ti9  1  0.29038037  0.13461958  0.27958538  1
  Be  Be0  1  0.25000000  0.00000000  0.00000000  1
  Si  Si0  1  0.75000000  0.00000000  0.00000000  1
  Sb  Sb0  1  0.16393803  0.50000000  0.17212294  1
  Sb  Sb1  1  0.83606197  0.50000000  0.82787706  1
  Sb  Sb2  1  0.33606197  0.82787706  0.50000000  1
  Sb  Sb3  1  0.66393803  0.17212294  0.50000000  1
loop_
_geom_bond_atom_site_label_1
_geom_bond_atom_site_label_2
_geom_bond_distance
_geom_bond_site_symmetry_2
Ti0 Ti1 2.541174 1_555
Ti0 Ti1 2.541174 1_455
Be0 Si0 2.541174 1_555
Be0 Si0 2.541174 1_455
Be0 Ti5 2.604482 1_554
Be0 Ti2 2.604482 1_554
Be0 Ti4 2.604482 1_455
Be0 Ti8 2.604482 1_544
Be0 Ti6 2.604485 1_544
Be0 Ti9 2.604485 1_555
Be0 Ti3 2.604485 1_445
Be0 Ti7 2.604485 1_545
Si0 Ti7 2.616937 1_545
Si0 Ti3 2.616937 1_545
Si0 Ti6 2.616937 1_644
Si0 Ti9 2.616937 1_555
Si0 Ti4 2.616939 1_555
Si0 Ti8 2.616939 1_544
Si0 Ti2 2.616940 1_654
Si0 Ti5 2.616940 1_554
Sb0 Ti1 2.724219 1_455
Sb0 Ti0 2.724221 1_555
Sb0 Ti5 2.776135 1_554
Sb0 Ti6 2.776135 1_554
Sb0 Ti3 2.799169 1_455
Sb0 Ti9 2.799169 1_555
Sb0 Ti4 3.015447 1_455
Sb0 Ti7 3.015456 1_555
Sb0 Ti7 3.036937 1_455
Sb0 Ti4 3.036946 1_555
Sb1 Ti0 2.724219 1_655
Sb1 Ti1 2.724221 1_555
Sb1 Ti7 2.776135 1_556
Sb1 Ti4 2.776135 1_556
Sb1 Ti2 2.799169 1_655
Sb1 Ti8 2.799169 1_555
Sb1 Ti5 3.015447 1_655
Sb1 Ti6 3.015456 1_555
Sb1 Ti6 3.036937 1_655
Sb1 Ti5 3.036945 1_555
Sb2 Ti1 2.724219 1_555
Sb2 Ti0 2.724221 1_555
Sb2 Ti2 2.776135 1_565
Sb2 Ti9 2.776135 1_565
Sb2 Ti7 2.799169 1_555
Sb2 Ti6 2.799169 1_555
Sb2 Ti8 3.015447 1_555
Sb2 Ti3 3.015456 1_455
Sb2 Ti3 3.036937 1_555
Sb2 Ti8 3.036946 1_455
Sb3 Ti0 2.724219 1_555
Sb3 Ti1 2.724221 1_555
Sb3 Ti3 2.776135 1_545
Sb3 Ti8 2.776135 1_545
Sb3 Ti5 2.799169 1_555
Sb3 Ti4 2.799169 1_555
Sb3 Ti2 3.015447 1_555
Sb3 Ti9 3.015456 1_655
Sb3 Ti9 3.036937 1_555
Sb3 Ti2 3.036945 1_655
