# generated using pymatgen
data_Hf2Mn3V
_symmetry_space_group_name_H-M   'P 1'
_cell_length_a   5.02592243
_cell_length_b   5.02592281
_cell_length_c   5.02592296
_cell_angle_alpha   62.79712472
_cell_angle_beta   62.79712661
_cell_angle_gamma   62.79712619
_symmetry_Int_Tables_number   1
_chemical_formula_structural   Hf2Mn3V
_chemical_formula_sum   'Hf2 Mn3 V1'
_cell_volume   95.35347809
_cell_formula_units_Z   1
loop_
 _symmetry_equiv_pos_site_id
 _symmetry_equiv_pos_as_xyz
  1  'x, y, z'
loop_
 _atom_site_type_symbol
 _atom_site_label
 _atom_site_symmetry_multiplicity
 _atom_site_fract_x
 _atom_site_fract_y
 _atom_site_fract_z
 _atom_site_occupancy
  Hf  Hf0  1  0.62433133  0.62433133  0.62433133  1
  Hf  Hf1  1  0.37566867  0.37566867  0.37566867  1
  Mn  Mn0  1  0.00000000  0.50000000  0.00000000  1
  Mn  Mn1  1  0.50000000  0.00000000  0.00000000  1
  Mn  Mn2  1  0.00000000  0.00000000  0.50000000  1
  V  V0  1  0.00000000  0.00000000  0.00000000  1
loop_
_geom_bond_atom_site_label_1
_geom_bond_atom_site_label_2
_geom_bond_distance
_geom_bond_site_symmetry_2
Hf0 Mn2 2.936338 1_665
Hf0 Mn0 2.936338 1_656
Hf0 Mn1 2.936338 1_566
Hf0 Hf1 2.994955 1_555
Hf0 Mn2 3.016405 1_565
Hf0 Mn0 3.016405 1_556
Hf0 Mn1 3.016405 1_556
Hf0 Mn1 3.016405 1_565
Hf0 Mn2 3.016405 1_655
Hf0 Mn0 3.016406 1_655
Hf0 V0 3.066216 1_656
Hf0 V0 3.066216 1_665
Hf0 V0 3.066216 1_566
Hf0 Hf1 3.190872 1_655
Hf0 Hf1 3.190872 1_565
Hf0 Hf1 3.190872 1_556
Hf1 Mn2 2.936338 1_555
Hf1 Mn0 2.936338 1_555
Hf1 Mn1 2.936338 1_555
Hf1 Mn2 3.016405 1_655
Hf1 Mn0 3.016405 1_655
Hf1 Mn1 3.016405 1_565
Hf1 Mn1 3.016405 1_556
Hf1 Mn2 3.016405 1_565
Hf1 Mn0 3.016406 1_556
Hf1 V0 3.066216 1_565
Hf1 V0 3.066216 1_556
Hf1 V0 3.066216 1_655
Mn0 V0 2.512961 1_555
Mn0 V0 2.512961 1_565
Mn0 Mn1 2.618447 1_555
Mn0 Mn1 2.618447 1_465
Mn0 Mn2 2.618447 1_564
Mn0 Mn2 2.618447 1_555
Mn1 V0 2.512961 1_655
Mn1 V0 2.512961 1_555
Mn1 Mn2 2.618447 1_555
Mn1 Mn2 2.618447 1_654
Mn2 V0 2.512961 1_555
Mn2 V0 2.512961 1_556
