# generated using pymatgen
data_Sr4CoAgH12
_symmetry_space_group_name_H-M   'P 1'
_cell_length_a   7.50689525
_cell_length_b   7.50689424
_cell_length_c   5.50835227
_cell_angle_alpha   90.00142521
_cell_angle_beta   90.00141891
_cell_angle_gamma   136.99318486
_symmetry_Int_Tables_number   1
_chemical_formula_structural   Sr4CoAgH12
_chemical_formula_sum   'Sr4 Co1 Ag1 H12'
_cell_volume   211.72935685
_cell_formula_units_Z   1
loop_
 _symmetry_equiv_pos_site_id
 _symmetry_equiv_pos_as_xyz
  1  'x, y, z'
loop_
 _atom_site_type_symbol
 _atom_site_label
 _atom_site_symmetry_multiplicity
 _atom_site_fract_x
 _atom_site_fract_y
 _atom_site_fract_z
 _atom_site_occupancy
  Sr  Sr0  1  0.14622284  0.85377716  0.50000000  1
  Sr  Sr1  1  0.64694888  0.35305112  1.00000000  1
  Sr  Sr2  1  0.85377716  0.14622284  0.50000000  1
  Sr  Sr3  1  0.35305112  0.64694888  0.00000000  1
  Co  Co0  1  0.50000000  0.50000000  0.50000000  1
  Ag  Ag0  1  0.00000000  0.00000000  0.00000000  1
  H  H0  1  0.99996604  0.50000687  0.74937373  1
  H  H1  1  0.49999313  0.00003396  0.25062627  1
  H  H2  1  0.00003396  0.49999313  0.25062627  1
  H  H3  1  0.50000687  0.99996604  0.74937373  1
  H  H4  1  0.38934163  0.61065837  0.50000000  1
  H  H5  1  0.87722608  0.12277392  0.00000000  1
  H  H6  1  0.61065837  0.38934163  0.50000000  1
  H  H7  1  0.12277392  0.87722608  1.00000000  1
  H  H8  1  0.29866087  0.29866087  0.70145732  1
  H  H9  1  0.70133913  0.70133913  0.29854268  1
  H  H10  1  0.29853420  0.29853420  0.29863617  1
  H  H11  1  0.70146580  0.70146580  0.70136383  1
loop_
_geom_bond_atom_site_label_1
_geom_bond_atom_site_label_2
_geom_bond_distance
_geom_bond_site_symmetry_2
Co0 H6 1.545761 1_555
Co0 H4 1.545761 1_555
Co0 H8 1.568238 1_555
Co0 H9 1.568238 1_555
Co0 H10 1.568261 1_555
Co0 H11 1.568261 1_555
Ag0 H7 1.715000 1_544
Ag0 H5 1.715000 1_455
Ag0 H11 2.324852 1_444
Ag0 H10 2.324852 1_555
Ag0 H8 2.325137 1_554
Ag0 H9 2.325137 1_445
H0 Sr1 2.422856 1_555
H0 Sr3 2.423174 1_656
H0 Sr0 2.425064 1_655
H0 Sr2 2.425214 1_555
H1 Sr1 2.422856 1_554
H1 Sr3 2.423173 1_545
H1 Sr0 2.425064 1_545
H1 Sr2 2.425215 1_555
H2 Sr3 2.422856 1_555
H2 Sr1 2.423174 1_454
H2 Sr2 2.425064 1_455
H2 Sr0 2.425214 1_555
H3 Sr3 2.422856 1_556
H3 Sr1 2.423173 1_565
H3 Sr2 2.425064 1_565
H3 Sr0 2.425215 1_555
H4 Sr2 2.796187 1_565
H4 Sr2 2.796187 1_455
H4 Sr3 2.800441 1_556
H4 Sr3 2.800441 1_555
H5 Sr3 2.772345 1_655
H5 Sr3 2.772345 1_545
H5 Sr2 2.773586 1_555
H5 Sr2 2.773586 1_554
H6 Sr0 2.796187 1_545
H6 Sr0 2.796187 1_655
H6 Sr1 2.800441 1_554
H6 Sr1 2.800441 1_555
H7 Sr1 2.772345 1_455
H7 Sr1 2.772345 1_565
H7 Sr0 2.773586 1_555
H7 Sr0 2.773586 1_556
H8 Sr0 2.846892 1_545
H8 Sr2 2.846892 1_455
H8 Sr3 2.854013 1_556
H8 Sr1 2.854014 1_555
H9 Sr2 2.846892 1_565
H9 Sr0 2.846892 1_655
H9 Sr1 2.854013 1_554
H9 Sr3 2.854014 1_555
H10 Sr0 2.846375 1_545
H10 Sr2 2.846376 1_455
H10 Sr3 2.854667 1_555
H10 Sr1 2.854667 1_554
H11 Sr2 2.846375 1_565
H11 Sr0 2.846376 1_655
H11 Sr1 2.854667 1_555
H11 Sr3 2.854667 1_556
