# generated using pymatgen
data_ZnPd(AuO2)2
_symmetry_space_group_name_H-M   'P 1'
_cell_length_a   6.35612740
_cell_length_b   6.35612643
_cell_length_c   5.41801827
_cell_angle_alpha   81.78438447
_cell_angle_beta   81.78438557
_cell_angle_gamma   28.14268334
_symmetry_Int_Tables_number   1
_chemical_formula_structural   ZnPd(AuO2)2
_chemical_formula_sum   'Zn1 Pd1 Au2 O4'
_cell_volume   102.11703730
_cell_formula_units_Z   1
loop_
 _symmetry_equiv_pos_site_id
 _symmetry_equiv_pos_as_xyz
  1  'x, y, z'
loop_
 _atom_site_type_symbol
 _atom_site_label
 _atom_site_symmetry_multiplicity
 _atom_site_fract_x
 _atom_site_fract_y
 _atom_site_fract_z
 _atom_site_occupancy
  Zn  Zn0  1  0.00000000  0.00000000  0.50000000  1
  Pd  Pd0  1  0.50000000  0.50000000  0.00000000  1
  Au  Au0  1  0.25202261  0.25202261  0.75890391  1
  Au  Au1  1  0.74797739  0.74797739  0.24109609  1
  O  O0  1  0.58182797  0.58182797  0.29780558  1
  O  O1  1  0.91495038  0.91495038  0.18315051  1
  O  O2  1  0.08504962  0.08504962  0.81684949  1
  O  O3  1  0.41817203  0.41817203  0.70219442  1
loop_
_geom_bond_atom_site_label_1
_geom_bond_atom_site_label_2
_geom_bond_distance
_geom_bond_site_symmetry_2
Au0 O3 2.026410 1_555
Au0 O2 2.036475 1_555
Au1 O0 2.026410 1_555
Au1 O1 2.036475 1_555
O0 Pd0 2.025144 1_555
O0 Zn0 2.068977 1_655
O0 Zn0 2.068977 1_565
O1 Pd0 2.041090 1_565
O1 Pd0 2.041091 1_655
O1 Zn0 2.139471 1_665
O2 Pd0 2.041090 1_546
O2 Pd0 2.041091 1_456
O2 Zn0 2.139471 1_555
O3 Pd0 2.025144 1_556
O3 Zn0 2.068977 1_565
O3 Zn0 2.068977 1_655
