# generated using pymatgen
data_Zr10Sn3GePb3
_symmetry_space_group_name_H-M   'P 1'
_cell_length_a   5.92582332
_cell_length_b   8.64772829
_cell_length_c   8.64773007
_cell_angle_alpha   120.00000535
_cell_angle_beta   90.00078857
_cell_angle_gamma   89.99842691
_symmetry_Int_Tables_number   1
_chemical_formula_structural   Zr10Sn3GePb3
_chemical_formula_sum   'Zr10 Sn3 Ge1 Pb3'
_cell_volume   383.78099742
_cell_formula_units_Z   1
loop_
 _symmetry_equiv_pos_site_id
 _symmetry_equiv_pos_as_xyz
  1  'x, y, z'
loop_
 _atom_site_type_symbol
 _atom_site_label
 _atom_site_symmetry_multiplicity
 _atom_site_fract_x
 _atom_site_fract_y
 _atom_site_fract_z
 _atom_site_occupancy
  Zr  Zr0  1  0.49723300  0.33333209  0.66667222  1
  Zr  Zr1  1  0.49723300  0.66666188  0.33332778  1
  Zr  Zr2  1  0.00291308  0.66665149  0.33329437  1
  Zr  Zr3  1  0.00291308  0.33335712  0.66670563  1
  Zr  Zr4  1  0.75939647  0.25357934  1.00000000  1
  Zr  Zr5  1  0.75926255  0.74642890  0.74644830  1
  Zr  Zr6  1  0.75926255  0.99997960  0.25355170  1
  Zr  Zr7  1  0.24098208  0.74498446  0.00000000  1
  Zr  Zr8  1  0.24096649  0.25507506  0.25509910  1
  Zr  Zr9  1  0.24096649  0.99997596  0.74490090  1
  Sn  Sn0  1  0.25279724  0.39042246  0.00000000  1
  Sn  Sn1  1  0.25270573  0.60955471  0.60955977  1
  Sn  Sn2  1  0.25270573  0.99999494  0.39044023  1
  Ge  Ge0  1  0.49868411  0.00001655  1.00000000  1
  Pb  Pb0  1  0.74729223  0.60780363  0.00000000  1
  Pb  Pb1  1  0.74734308  0.39220051  0.39222121  1
  Pb  Pb2  1  0.74734308  0.99997930  0.60777879  1
loop_
_geom_bond_atom_site_label_1
_geom_bond_atom_site_label_2
_geom_bond_distance
_geom_bond_site_symmetry_2
Sn0 Zr9 2.970432 1_544
Sn0 Zr8 2.970433 1_555
Sn0 Zr0 3.037726 1_554
Sn0 Zr1 3.037731 1_555
Sn0 Zr2 3.053046 1_555
Sn0 Zr3 3.053046 1_554
Sn0 Zr7 3.066953 1_555
Sn0 Zr4 3.154239 1_454
Sn0 Zr4 3.226811 1_554
Sn1 Zr9 2.970221 1_555
Sn1 Zr7 2.970242 1_556
Sn1 Zr0 3.037933 1_555
Sn1 Zr1 3.038035 1_555
Sn1 Zr3 3.052981 1_555
Sn1 Zr2 3.053195 1_555
Sn1 Zr8 3.066152 1_555
Sn1 Zr5 3.154551 1_455
Sn1 Zr5 3.226744 1_555
Sn2 Zr8 2.970221 1_565
Sn2 Zr7 2.970242 1_555
Sn2 Zr1 3.037918 1_555
Sn2 Zr0 3.038025 1_565
Sn2 Zr2 3.052981 1_555
Sn2 Zr3 3.053195 1_565
Sn2 Zr9 3.066152 1_555
Sn2 Zr6 3.154549 1_455
Sn2 Zr6 3.226742 1_555
Ge0 Zr5 2.681914 1_545
Ge0 Zr6 2.681917 1_546
Ge0 Zr4 2.682374 1_555
Ge0 Zr7 2.682575 1_546
Ge0 Zr8 2.682909 1_556
Ge0 Zr9 2.682909 1_545
Pb0 Zr6 2.979653 1_555
Pb0 Zr5 2.979661 1_554
Pb0 Zr1 3.049048 1_555
Pb0 Zr0 3.049052 1_554
Pb0 Zr4 3.064073 1_554
Pb0 Zr3 3.064954 1_654
Pb0 Zr2 3.064954 1_655
Pb0 Zr7 3.156923 1_655
Pb0 Zr7 3.226290 1_555
Pb1 Zr6 2.979942 1_545
Pb1 Zr4 2.980036 1_554
Pb1 Zr0 3.049115 1_555
Pb1 Zr1 3.049254 1_555
Pb1 Zr5 3.064080 1_555
Pb1 Zr3 3.065055 1_655
Pb1 Zr2 3.065264 1_655
Pb1 Zr8 3.156328 1_655
Pb1 Zr8 3.226520 1_555
Pb2 Zr5 2.979934 1_555
Pb2 Zr4 2.980035 1_565
Pb2 Zr1 3.049105 1_555
Pb2 Zr0 3.049239 1_565
Pb2 Zr6 3.064077 1_555
Pb2 Zr2 3.065054 1_655
Pb2 Zr3 3.065264 1_665
Pb2 Zr9 3.156328 1_655
Pb2 Zr9 3.226520 1_555
