# generated using pymatgen
data_B6Sb2MoRh20
_symmetry_space_group_name_H-M   'P 1'
_cell_length_a   8.04807752
_cell_length_b   8.04807821
_cell_length_c   8.04807749
_cell_angle_alpha   60.00000294
_cell_angle_beta   60.00000012
_cell_angle_gamma   59.99999829
_symmetry_Int_Tables_number   1
_chemical_formula_structural   B6Sb2MoRh20
_chemical_formula_sum   'B6 Sb2 Mo1 Rh20'
_cell_volume   368.60523135
_cell_formula_units_Z   1
loop_
 _symmetry_equiv_pos_site_id
 _symmetry_equiv_pos_as_xyz
  1  'x, y, z'
loop_
 _atom_site_type_symbol
 _atom_site_label
 _atom_site_symmetry_multiplicity
 _atom_site_fract_x
 _atom_site_fract_y
 _atom_site_fract_z
 _atom_site_occupancy
  B  B0  1  0.72052641  0.72052641  0.27947359  1
  B  B1  1  0.72052641  0.27947359  0.72052641  1
  B  B2  1  0.27947359  0.72052641  0.27947359  1
  B  B3  1  0.72052641  0.27947359  0.27947359  1
  B  B4  1  0.27947359  0.72052641  0.72052641  1
  B  B5  1  0.27947359  0.27947359  0.72052641  1
  Sb  Sb0  1  0.25000000  0.25000000  0.25000000  1
  Sb  Sb1  1  0.75000000  0.75000000  0.75000000  1
  Mo  Mo0  1  0.00000000  0.00000000  0.00000000  1
  Rh  Rh0  1  0.00000000  0.00000000  0.67015246  1
  Rh  Rh1  1  0.61918594  0.61918594  0.14244318  1
  Rh  Rh2  1  0.38081406  0.85755682  0.38081406  1
  Rh  Rh3  1  0.67015246  0.32984754  1.00000000  1
  Rh  Rh4  1  0.00000000  0.32984754  0.67015246  1
  Rh  Rh5  1  0.67015246  1.00000000  0.00000000  1
  Rh  Rh6  1  0.00000000  0.00000000  0.32984754  1
  Rh  Rh7  1  0.00000000  0.32984754  1.00000000  1
  Rh  Rh8  1  0.32984754  0.00000000  0.67015246  1
  Rh  Rh9  1  0.67015246  1.00000000  0.32984754  1
  Rh  Rh10  1  0.32984754  0.00000000  1.00000000  1
  Rh  Rh11  1  1.00000000  0.67015246  0.00000000  1
  Rh  Rh12  1  0.38081406  0.38081406  0.85755682  1
  Rh  Rh13  1  1.00000000  0.67015246  0.32984754  1
  Rh  Rh14  1  0.32984754  0.67015246  0.00000000  1
  Rh  Rh15  1  0.61918594  0.14244318  0.61918594  1
  Rh  Rh16  1  0.14244318  0.61918594  0.61918594  1
  Rh  Rh17  1  0.38081406  0.38081406  0.38081406  1
  Rh  Rh18  1  0.85755682  0.38081406  0.38081406  1
  Rh  Rh19  1  0.61918594  0.61918594  0.61918594  1
loop_
_geom_bond_atom_site_label_1
_geom_bond_atom_site_label_2
_geom_bond_distance
_geom_bond_site_symmetry_2
B0 Rh1 2.238472 1_555
B0 Rh2 2.238478 1_555
B0 Rh18 2.238479 1_555
B0 Rh19 2.238479 1_555
B0 Rh13 2.285470 1_555
B0 Rh11 2.285470 1_555
B0 Rh9 2.285470 1_555
B0 Rh5 2.285470 1_555
B1 Rh15 2.238472 1_555
B1 Rh12 2.238478 1_555
B1 Rh18 2.238478 1_555
B1 Rh19 2.238479 1_555
B1 Rh3 2.285470 1_555
B1 Rh4 2.285470 1_655
B1 Rh0 2.285470 1_655
B1 Rh5 2.285470 1_546
B2 Rh2 2.238472 1_555
B2 Rh1 2.238478 1_555
B2 Rh16 2.238478 1_555
B2 Rh17 2.238479 1_555
B2 Rh14 2.285470 1_555
B2 Rh13 2.285470 1_455
B2 Rh6 2.285470 1_565
B2 Rh10 2.285470 1_564
B3 Rh18 2.238472 1_555
B3 Rh15 2.238478 1_555
B3 Rh1 2.238479 1_555
B3 Rh17 2.238479 1_555
B3 Rh3 2.285470 1_554
B3 Rh7 2.285470 1_654
B3 Rh6 2.285470 1_655
B3 Rh9 2.285470 1_545
B4 Rh16 2.238472 1_555
B4 Rh2 2.238478 1_555
B4 Rh12 2.238479 1_555
B4 Rh19 2.238479 1_555
B4 Rh14 2.285470 1_556
B4 Rh11 2.285470 1_456
B4 Rh0 2.285470 1_565
B4 Rh8 2.285470 1_565
B5 Rh12 2.238472 1_555
B5 Rh15 2.238478 1_555
B5 Rh16 2.238479 1_555
B5 Rh17 2.238479 1_555
B5 Rh4 2.285470 1_555
B5 Rh7 2.285470 1_555
B5 Rh8 2.285470 1_555
B5 Rh10 2.285470 1_555
Mo0 Rh6 2.654639 1_555
Mo0 Rh0 2.654639 1_554
Mo0 Rh10 2.654639 1_554
Mo0 Rh9 2.654639 1_445
Mo0 Rh8 2.654639 1_554
Mo0 Rh5 2.654639 1_445
Mo0 Rh14 2.654639 1_545
Mo0 Rh3 2.654639 1_454
Mo0 Rh7 2.654639 1_554
Mo0 Rh11 2.654639 1_445
Mo0 Rh4 2.654639 1_554
Mo0 Rh13 2.654639 1_445
Rh1 Sb1 2.578834 1_554
Rh2 Sb0 2.578834 1_565
Rh12 Sb0 2.578834 1_556
Rh15 Sb1 2.578834 1_545
Rh16 Sb1 2.578834 1_455
Rh17 Sb0 2.578827 1_555
Rh18 Sb0 2.578834 1_655
Rh19 Sb1 2.578827 1_555
