# generated using pymatgen
data_Be7V2SiMo2
_symmetry_space_group_name_H-M   'P 1'
_cell_length_a   4.41696131
_cell_length_b   4.41696227
_cell_length_c   7.30067379
_cell_angle_alpha   90.00000000
_cell_angle_beta   90.00000000
_cell_angle_gamma   120.00000018
_symmetry_Int_Tables_number   1
_chemical_formula_structural   Be7V2SiMo2
_chemical_formula_sum   'Be7 V2 Si1 Mo2'
_cell_volume   123.35048446
_cell_formula_units_Z   1
loop_
 _symmetry_equiv_pos_site_id
 _symmetry_equiv_pos_as_xyz
  1  'x, y, z'
loop_
 _atom_site_type_symbol
 _atom_site_label
 _atom_site_symmetry_multiplicity
 _atom_site_fract_x
 _atom_site_fract_y
 _atom_site_fract_z
 _atom_site_occupancy
  Be  Be0  1  0.00000000  0.00000000  0.00000000  1
  Be  Be1  1  0.82787693  0.17212307  0.24748399  1
  Be  Be2  1  0.82787693  0.65575386  0.24748399  1
  Be  Be3  1  0.34424614  0.17212307  0.24748399  1
  Be  Be4  1  0.17212307  0.82787693  0.75251601  1
  Be  Be5  1  0.17212307  0.34424614  0.75251601  1
  Be  Be6  1  0.65575386  0.82787693  0.75251601  1
  V  V0  1  0.33333300  0.66666700  0.43700452  1
  V  V1  1  0.66666700  0.33333300  0.56299548  1
  Si  Si0  1  0.00000000  0.00000000  0.50000000  1
  Mo  Mo0  1  0.66666700  0.33333300  0.93643008  1
  Mo  Mo1  1  0.33333300  0.66666700  0.06356992  1
loop_
_geom_bond_atom_site_label_1
_geom_bond_atom_site_label_2
_geom_bond_distance
_geom_bond_site_symmetry_2
Be0 Be3 2.235736 1_555
Be0 Be6 2.235736 1_444
Be0 Be1 2.235736 1_455
Be0 Be4 2.235736 1_544
Be0 Be2 2.235736 1_445
Be0 Be5 2.235736 1_554
Be0 Mo1 2.592019 1_545
Be0 Mo0 2.592019 1_454
Be0 Mo0 2.592023 1_554
Be0 Mo1 2.592023 1_445
Be0 Mo1 2.592023 1_555
Be0 Mo0 2.592023 1_444
Be1 Be3 2.136178 1_555
Be1 Be2 2.136179 1_555
Be1 Si0 2.265528 1_655
Be1 Be3 2.280783 1_655
Be1 Be2 2.280783 1_545
Be1 Mo0 2.584198 1_554
Be1 Mo1 2.584950 1_655
Be1 Mo1 2.584950 1_545
Be1 V0 2.606445 1_655
Be1 V0 2.606445 1_545
Be1 V1 2.612842 1_555
Be2 Be3 2.136179 1_555
Be2 Si0 2.265529 1_665
Be2 Be3 2.280783 1_665
Be2 Mo0 2.584200 1_554
Be2 Mo1 2.584948 1_655
Be2 Mo1 2.584951 1_555
Be2 V0 2.606443 1_655
Be2 V0 2.606447 1_555
Be2 V1 2.612844 1_555
Be3 Si0 2.265528 1_555
Be3 Mo0 2.584200 1_554
Be3 Mo1 2.584948 1_545
Be3 Mo1 2.584952 1_555
Be3 V0 2.606443 1_545
Be3 V0 2.606447 1_555
Be3 V1 2.612844 1_555
Be4 Be6 2.136178 1_555
Be4 Be5 2.136179 1_555
Be4 Si0 2.265528 1_565
Be4 Be6 2.280783 1_455
Be4 Be5 2.280783 1_565
Be4 Mo1 2.584198 1_556
Be4 Mo0 2.584950 1_455
Be4 Mo0 2.584950 1_565
Be4 V1 2.606445 1_455
Be4 V1 2.606445 1_565
Be4 V0 2.612842 1_555
Be5 Be6 2.136179 1_555
Be5 Si0 2.265529 1_555
Be5 Be6 2.280783 1_445
Be5 Mo1 2.584200 1_556
Be5 Mo0 2.584948 1_455
Be5 Mo0 2.584951 1_555
Be5 V1 2.606443 1_455
Be5 V1 2.606447 1_555
Be5 V0 2.612844 1_555
Be6 Si0 2.265528 1_665
Be6 Mo1 2.584200 1_556
Be6 Mo0 2.584948 1_565
Be6 Mo0 2.584952 1_555
Be6 V1 2.606443 1_565
Be6 V1 2.606447 1_555
Be6 V0 2.612844 1_555
V0 V1 2.710947 1_455
V0 V1 2.710948 1_565
V0 V1 2.710955 1_555
Si0 V0 2.591271 1_545
Si0 V1 2.591271 1_455
Si0 V1 2.591275 1_555
Si0 V0 2.591275 1_445
Si0 V0 2.591275 1_555
Si0 V1 2.591275 1_445
Mo0 Mo1 2.713805 1_656
Mo0 Mo1 2.713805 1_546
Mo0 Mo1 2.713812 1_556
Mo0 V1 2.726324 1_555
Mo1 V0 2.726324 1_555
