# generated using pymatgen
data_Rb2Cd5Sb4
_symmetry_space_group_name_H-M   'P 1'
_cell_length_a   7.76400972
_cell_length_b   7.76400903
_cell_length_c   13.23333079
_cell_angle_alpha   90.00000000
_cell_angle_beta   90.00000000
_cell_angle_gamma   117.05823668
_symmetry_Int_Tables_number   1
_chemical_formula_structural   Rb2Cd5Sb4
_chemical_formula_sum   'Rb4 Cd10 Sb8'
_cell_volume   710.39018840
_cell_formula_units_Z   2
loop_
 _symmetry_equiv_pos_site_id
 _symmetry_equiv_pos_as_xyz
  1  'x, y, z'
loop_
 _atom_site_type_symbol
 _atom_site_label
 _atom_site_symmetry_multiplicity
 _atom_site_fract_x
 _atom_site_fract_y
 _atom_site_fract_z
 _atom_site_occupancy
  Rb  Rb0  1  0.21143908  0.78856092  0.50000000  1
  Rb  Rb1  1  0.21143908  0.78856092  0.00000000  1
  Rb  Rb2  1  0.78856092  0.21143908  0.50000000  1
  Rb  Rb3  1  0.78856092  0.21143908  0.00000000  1
  Cd  Cd0  1  0.53341276  0.24563397  0.25000000  1
  Cd  Cd1  1  0.75436603  0.46658724  0.75000000  1
  Cd  Cd2  1  0.46658724  0.75436603  0.75000000  1
  Cd  Cd3  1  0.24563397  0.53341276  0.25000000  1
  Cd  Cd4  1  0.65228267  0.65228267  0.39186565  1
  Cd  Cd5  1  0.34771733  0.34771733  0.60813435  1
  Cd  Cd6  1  0.65228267  0.65228267  0.10813435  1
  Cd  Cd7  1  0.34771733  0.34771733  0.89186565  1
  Cd  Cd8  1  0.00636923  0.00636923  0.25000000  1
  Cd  Cd9  1  0.99363077  0.99363077  0.75000000  1
  Sb  Sb0  1  0.59916586  0.91635791  0.25000000  1
  Sb  Sb1  1  0.08364209  0.40083414  0.75000000  1
  Sb  Sb2  1  0.40083414  0.08364209  0.75000000  1
  Sb  Sb3  1  0.91635791  0.59916586  0.25000000  1
  Sb  Sb4  1  0.27380867  0.27380867  0.40114951  1
  Sb  Sb5  1  0.72619133  0.72619133  0.59885049  1
  Sb  Sb6  1  0.27380867  0.27380867  0.09885049  1
  Sb  Sb7  1  0.72619133  0.72619133  0.90114951  1
loop_
_geom_bond_atom_site_label_1
_geom_bond_atom_site_label_2
_geom_bond_distance
_geom_bond_site_symmetry_2
Rb0 Sb4 3.805220 1_565
Rb0 Sb5 3.805221 1_455
Rb0 Sb2 3.910386 1_565
Rb0 Sb3 3.910386 1_455
Rb1 Sb6 3.805220 1_565
Rb1 Sb7 3.805221 1_454
Rb1 Sb2 3.910386 1_564
Rb1 Sb3 3.910386 1_455
Rb2 Sb5 3.805220 1_545
Rb2 Sb4 3.805221 1_655
Rb2 Sb0 3.910386 1_545
Rb2 Sb1 3.910386 1_655
Rb3 Sb7 3.805220 1_544
Rb3 Sb6 3.805221 1_655
Rb3 Sb0 3.910386 1_545
Rb3 Sb1 3.910386 1_654
Cd0 Sb0 2.825545 1_545
Cd0 Sb4 2.917592 1_555
Cd0 Sb6 2.917592 1_555
Cd0 Sb3 2.991524 1_555
Cd0 Rb3 3.926613 1_555
Cd0 Rb2 3.926613 1_555
Cd1 Sb1 2.825545 1_655
Cd1 Sb7 2.917592 1_555
Cd1 Sb5 2.917592 1_555
Cd1 Sb2 2.991524 1_555
Cd1 Rb3 3.926613 1_556
Cd1 Rb2 3.926613 1_555
Cd2 Sb2 2.825545 1_565
Cd2 Sb7 2.917592 1_555
Cd2 Sb5 2.917592 1_555
Cd2 Sb1 2.991524 1_555
Cd2 Rb0 3.926613 1_555
Cd2 Rb1 3.926613 1_556
Cd3 Sb3 2.825545 1_455
Cd3 Sb4 2.917592 1_555
Cd3 Sb6 2.917592 1_555
Cd3 Sb0 2.991524 1_555
Cd3 Rb1 3.926613 1_555
Cd3 Rb0 3.926613 1_555
Cd4 Sb5 2.803862 1_555
Cd4 Sb0 2.944054 1_555
Cd4 Sb3 2.944054 1_555
Cd4 Sb4 3.070610 1_555
Cd5 Sb4 2.803862 1_555
Cd5 Sb2 2.944054 1_555
Cd5 Sb1 2.944054 1_555
Cd5 Sb5 3.070610 1_555
Cd6 Sb7 2.803862 1_554
Cd6 Sb0 2.944054 1_555
Cd6 Sb3 2.944054 1_555
Cd6 Sb6 3.070610 1_555
Cd7 Sb6 2.803862 1_556
Cd7 Sb2 2.944054 1_555
Cd7 Sb1 2.944054 1_555
Cd7 Sb7 3.070610 1_555
Cd8 Sb3 2.910935 1_445
Cd8 Sb0 2.910935 1_445
Cd8 Sb4 2.949783 1_555
Cd8 Sb6 2.949783 1_555
Cd9 Sb1 2.910935 1_665
Cd9 Sb2 2.910935 1_665
Cd9 Sb7 2.949783 1_555
Cd9 Sb5 2.949783 1_555
