# generated using pymatgen
data_K8HfP4
_symmetry_space_group_name_H-M   'P 1'
_cell_length_a   10.67905026
_cell_length_b   10.67905018
_cell_length_c   10.67904916
_cell_angle_alpha   60.00000315
_cell_angle_beta   60.00000341
_cell_angle_gamma   60.00000026
_symmetry_Int_Tables_number   1
_chemical_formula_structural   K8HfP4
_chemical_formula_sum   'K16 Hf2 P8'
_cell_volume   861.15805486
_cell_formula_units_Z   2
loop_
 _symmetry_equiv_pos_site_id
 _symmetry_equiv_pos_as_xyz
  1  'x, y, z'
loop_
 _atom_site_type_symbol
 _atom_site_label
 _atom_site_symmetry_multiplicity
 _atom_site_fract_x
 _atom_site_fract_y
 _atom_site_fract_z
 _atom_site_occupancy
  K  K0  1  0.62500000  0.62500000  0.12500000  1
  K  K1  1  0.62500000  0.12500000  0.62500000  1
  K  K2  1  0.12500000  0.62500000  0.62500000  1
  K  K3  1  0.62500000  0.62500000  0.62500000  1
  K  K4  1  0.02822755  0.47177245  0.47177245  1
  K  K5  1  0.77822755  0.22177245  0.22177245  1
  K  K6  1  0.47177245  0.02822755  0.47177245  1
  K  K7  1  0.47177245  0.47177245  0.02822755  1
  K  K8  1  0.02822755  0.02822755  0.47177245  1
  K  K9  1  0.02822755  0.47177245  0.02822755  1
  K  K10  1  0.47177245  0.02822755  0.02822755  1
  K  K11  1  0.77822755  0.22177245  0.77822755  1
  K  K12  1  0.22177245  0.77822755  0.22177245  1
  K  K13  1  0.22177245  0.22177245  0.77822755  1
  K  K14  1  0.77822755  0.77822755  0.22177245  1
  K  K15  1  0.22177245  0.77822755  0.77822755  1
  Hf  Hf0  1  0.75000000  0.75000000  0.75000000  1
  Hf  Hf1  1  0.50000000  0.50000000  0.50000000  1
  P  P0  1  0.84787463  0.84787463  0.45637612  1
  P  P1  1  0.84787463  0.45637612  0.84787463  1
  P  P2  1  0.40212537  0.40212537  0.79362388  1
  P  P3  1  0.40212537  0.79362388  0.40212537  1
  P  P4  1  0.79362388  0.40212537  0.40212537  1
  P  P5  1  0.84787463  0.84787463  0.84787463  1
  P  P6  1  0.45637612  0.84787463  0.84787463  1
  P  P7  1  0.40212537  0.40212537  0.40212537  1
loop_
_geom_bond_atom_site_label_1
_geom_bond_atom_site_label_2
_geom_bond_distance
_geom_bond_site_symmetry_2
K0 P4 3.415449 1_555
K0 P6 3.415449 1_554
K0 P3 3.415449 1_555
K0 P1 3.415449 1_554
K0 P5 3.415449 1_554
K0 P7 3.415449 1_555
K1 P2 3.415449 1_555
K1 P5 3.415449 1_545
K1 P0 3.415449 1_545
K1 P7 3.415449 1_555
K1 P4 3.415449 1_555
K1 P6 3.415449 1_545
K2 P2 3.415449 1_555
K2 P5 3.415449 1_455
K2 P0 3.415449 1_455
K2 P7 3.415449 1_555
K2 P3 3.415449 1_555
K2 P1 3.415449 1_455
K3 P6 3.415449 1_555
K3 P4 3.415449 1_555
K3 P1 3.415449 1_555
K3 P3 3.415449 1_555
K3 P0 3.415449 1_555
K3 P2 3.415449 1_555
K4 P4 3.415125 1_455
K4 P7 3.415125 1_555
K4 P1 3.433478 1_455
K4 P0 3.433479 1_455
K5 P1 3.415125 1_554
K5 P0 3.415125 1_545
K5 P4 3.433478 1_555
K5 P7 3.433479 1_555
K6 P3 3.415125 1_545
K6 P7 3.415125 1_555
K6 P6 3.433478 1_545
K6 P0 3.433479 1_545
K7 P7 3.415125 1_555
K7 P2 3.415125 1_554
K7 P6 3.433479 1_554
K7 P1 3.433479 1_554
K8 P4 3.415125 1_455
K8 P3 3.415125 1_545
K8 P0 3.433479 1_445
K8 P5 3.433479 1_445
K9 P4 3.415125 1_455
K9 P2 3.415125 1_554
K9 P1 3.433478 1_454
K9 P5 3.433479 1_454
K10 P3 3.415125 1_545
K10 P2 3.415125 1_554
K10 P6 3.433478 1_544
K10 P5 3.433479 1_544
K11 P1 3.415125 1_555
K11 P5 3.415125 1_545
K11 P4 3.433478 1_555
K11 P2 3.433479 1_555
K12 P6 3.415125 1_554
K12 P0 3.415125 1_455
K12 P3 3.433478 1_555
K12 P7 3.433479 1_555
K13 P6 3.415125 1_545
K13 P1 3.415125 1_455
K13 P2 3.433479 1_555
K13 P7 3.433479 1_555
K14 P5 3.415125 1_554
K14 P0 3.415125 1_555
K14 P4 3.433479 1_555
K14 P3 3.433479 1_555
K15 P6 3.415125 1_555
K15 P5 3.415125 1_455
K15 P3 3.433478 1_555
K15 P2 3.433479 1_555
Hf0 P5 2.560226 1_555
Hf0 P0 2.560226 1_555
Hf0 P1 2.560226 1_555
Hf0 P6 2.560227 1_555
Hf0 K3 3.269778 1_555
Hf0 K0 3.269778 1_556
Hf0 K1 3.269778 1_565
Hf0 K2 3.269778 1_655
Hf1 P2 2.560226 1_555
Hf1 P7 2.560226 1_555
Hf1 P3 2.560226 1_555
Hf1 P4 2.560227 1_555
Hf1 K0 3.269778 1_555
Hf1 K3 3.269778 1_555
Hf1 K1 3.269778 1_555
Hf1 K2 3.269778 1_555
