# generated using pymatgen
data_BaAlIO6
_symmetry_space_group_name_H-M   'P 1'
_cell_length_a   5.06270578
_cell_length_b   5.06270598
_cell_length_c   11.69308934
_cell_angle_alpha   90.00000000
_cell_angle_beta   90.00000000
_cell_angle_gamma   119.99999870
_symmetry_Int_Tables_number   1
_chemical_formula_structural   BaAlIO6
_chemical_formula_sum   'Ba2 Al2 I2 O12'
_cell_volume   259.55255051
_cell_formula_units_Z   2
loop_
 _symmetry_equiv_pos_site_id
 _symmetry_equiv_pos_as_xyz
  1  'x, y, z'
loop_
 _atom_site_type_symbol
 _atom_site_label
 _atom_site_symmetry_multiplicity
 _atom_site_fract_x
 _atom_site_fract_y
 _atom_site_fract_z
 _atom_site_occupancy
  Ba  Ba0  1  0.66666700  0.33333300  0.25000000  1
  Ba  Ba1  1  0.66666700  0.33333300  0.75000000  1
  Al  Al0  1  0.33333300  0.66666700  0.50000000  1
  Al  Al1  1  0.33333300  0.66666700  0.00000000  1
  I  I0  1  0.00000000  0.00000000  0.00000000  1
  I  I1  1  0.00000000  0.00000000  0.50000000  1
  O  O0  1  0.05122087  0.32868560  0.40886971  1
  O  O1  1  0.05122087  0.32868560  0.90886971  1
  O  O2  1  0.27746473  0.94877913  0.40886971  1
  O  O3  1  0.27746473  0.94877913  0.90886971  1
  O  O4  1  0.27746473  0.32868560  0.09113029  1
  O  O5  1  0.27746473  0.32868560  0.59113029  1
  O  O6  1  0.67131440  0.72253527  0.40886971  1
  O  O7  1  0.67131440  0.72253527  0.90886971  1
  O  O8  1  0.67131440  0.94877913  0.09113029  1
  O  O9  1  0.67131440  0.94877913  0.59113029  1
  O  O10  1  0.05122087  0.72253527  0.09113029  1
  O  O11  1  0.05122087  0.72253527  0.59113029  1
loop_
_geom_bond_atom_site_label_1
_geom_bond_atom_site_label_2
_geom_bond_distance
_geom_bond_site_symmetry_2
Ba0 O0 2.699570 1_655
Ba0 O8 2.699571 1_545
Ba0 O2 2.699572 1_545
Ba0 O10 2.699572 1_655
Ba0 O4 2.699574 1_555
Ba0 O6 2.699574 1_555
Ba1 O1 2.699570 1_655
Ba1 O9 2.699571 1_545
Ba1 O3 2.699572 1_545
Ba1 O11 2.699572 1_655
Ba1 O5 2.699574 1_555
Ba1 O7 2.699574 1_555
Al0 O11 1.912947 1_555
Al0 O2 1.912947 1_555
Al0 O9 1.912950 1_555
Al0 O0 1.912950 1_555
Al0 O6 1.912951 1_555
Al0 O5 1.912951 1_555
Al1 O10 1.912947 1_555
Al1 O3 1.912947 1_554
Al1 O8 1.912950 1_555
Al1 O1 1.912950 1_554
Al1 O7 1.912951 1_554
Al1 O4 1.912951 1_555
I0 O8 1.881555 1_445
I0 O3 1.881555 1_544
I0 O7 1.881555 1_444
I0 O10 1.881555 1_545
I0 O1 1.881555 1_554
I0 O4 1.881555 1_555
I1 O9 1.881555 1_445
I1 O2 1.881555 1_545
I1 O6 1.881555 1_445
I1 O11 1.881555 1_545
I1 O0 1.881555 1_555
I1 O5 1.881555 1_555
