# generated using pymatgen
data_Ta(NiPt3)2
_symmetry_space_group_name_H-M   'P 1'
_cell_length_a   6.09855809
_cell_length_b   6.09855693
_cell_length_c   6.14269926
_cell_angle_alpha   95.79852288
_cell_angle_beta   95.79850447
_cell_angle_gamma   142.79492052
_symmetry_Int_Tables_number   1
_chemical_formula_structural   Ta(NiPt3)2
_chemical_formula_sum   'Ta1 Ni2 Pt6'
_cell_volume   131.03265101
_cell_formula_units_Z   1
loop_
 _symmetry_equiv_pos_site_id
 _symmetry_equiv_pos_as_xyz
  1  'x, y, z'
loop_
 _atom_site_type_symbol
 _atom_site_label
 _atom_site_symmetry_multiplicity
 _atom_site_fract_x
 _atom_site_fract_y
 _atom_site_fract_z
 _atom_site_occupancy
  Ta  Ta0  1  0.00000000  0.00000000  0.00000000  1
  Ni  Ni0  1  0.33359696  0.33359696  0.66719491  1
  Ni  Ni1  1  0.66640304  0.66640304  0.33280509  1
  Pt  Pt0  1  0.65764795  0.34235205  0.00000000  1
  Pt  Pt1  1  0.34235205  0.65764795  1.00000000  1
  Pt  Pt2  1  0.01059146  0.32509142  0.33568288  1
  Pt  Pt3  1  0.98940854  0.67490858  0.66431712  1
  Pt  Pt4  1  0.67490858  0.98940854  0.66431712  1
  Pt  Pt5  1  0.32509142  0.01059146  0.33568288  1
loop_
_geom_bond_atom_site_label_1
_geom_bond_atom_site_label_2
_geom_bond_distance
_geom_bond_site_symmetry_2
Ni0 Pt5 2.652404 1_555
Ni0 Pt2 2.652405 1_555
Ni0 Pt1 2.661044 1_555
Ni0 Pt0 2.661045 1_556
Ni0 Pt3 2.662592 1_445
Ni0 Pt4 2.662593 1_445
Ni0 Pt4 2.662595 1_555
Ni0 Pt3 2.662596 1_555
Ni0 Ta0 2.746782 1_556
Ni0 Ta0 2.746786 1_666
Ni0 Ni1 2.753308 1_445
Ni0 Ni1 2.753312 1_555
Ni1 Pt4 2.652404 1_555
Ni1 Pt3 2.652405 1_555
Ni1 Pt0 2.661044 1_555
Ni1 Pt1 2.661045 1_554
Ni1 Pt2 2.662592 1_665
Ni1 Pt5 2.662593 1_665
Ni1 Pt5 2.662595 1_555
Ni1 Pt2 2.662596 1_555
Ni1 Ta0 2.746782 1_665
Ni1 Ta0 2.746786 1_555
Pt0 Ta0 2.665684 1_665
Pt0 Ta0 2.665684 1_555
Pt0 Pt3 2.758650 1_554
Pt0 Pt5 2.758650 1_555
Pt0 Pt5 2.758650 1_665
Pt0 Pt3 2.758650 1_444
Pt0 Pt1 2.888538 1_544
Pt0 Pt1 2.888539 1_654
Pt0 Pt4 2.898950 1_544
Pt0 Pt2 2.898951 1_655
Pt1 Ta0 2.665684 1_556
Pt1 Ta0 2.665684 1_666
Pt1 Pt2 2.758650 1_556
Pt1 Pt4 2.758650 1_555
Pt1 Pt4 2.758650 1_445
Pt1 Pt2 2.758650 1_666
Pt1 Pt5 2.898950 1_566
Pt1 Pt3 2.898951 1_455
Pt2 Ta0 2.670153 1_555
Pt2 Pt4 2.729682 1_445
Pt2 Pt4 2.729683 1_555
Pt2 Pt3 2.874832 1_455
Pt2 Pt5 2.895346 1_565
Pt2 Pt5 2.895347 1_455
Pt3 Ta0 2.670153 1_666
Pt3 Pt5 2.729682 1_665
Pt3 Pt5 2.729683 1_555
Pt3 Pt4 2.895346 1_545
Pt3 Pt4 2.895347 1_655
Pt4 Ta0 2.670154 1_666
Pt4 Pt5 2.874833 1_565
Pt5 Ta0 2.670154 1_555
