# generated using pymatgen
data_Er2FeSi2
_symmetry_space_group_name_H-M   'P 1'
_cell_length_a   4.10396590
_cell_length_b   5.55639813
_cell_length_c   8.82577630
_cell_angle_alpha   82.88511286
_cell_angle_beta   76.55575543
_cell_angle_gamma   68.32750717
_symmetry_Int_Tables_number   1
_chemical_formula_structural   Er2FeSi2
_chemical_formula_sum   'Er4 Fe2 Si4'
_cell_volume   181.74365783
_cell_formula_units_Z   2
loop_
 _symmetry_equiv_pos_site_id
 _symmetry_equiv_pos_as_xyz
  1  'x, y, z'
loop_
 _atom_site_type_symbol
 _atom_site_label
 _atom_site_symmetry_multiplicity
 _atom_site_fract_x
 _atom_site_fract_y
 _atom_site_fract_z
 _atom_site_occupancy
  Er  Er0  1  0.18803554  0.73245635  0.89147456  1
  Er  Er1  1  0.81196446  0.26754365  0.10852544  1
  Er  Er2  1  0.00074529  0.32767487  0.67083456  1
  Er  Er3  1  -0.00074529  0.67232513  0.32916544  1
  Fe  Fe0  1  0.72959410  0.91775929  0.62305250  1
  Fe  Fe1  1  0.27040590  0.08224071  0.37694750  1
  Si  Si0  1  0.49952784  0.12776669  0.87317662  1
  Si  Si1  1  0.50047216  0.87223331  0.12682338  1
  Si  Si2  1  0.34540386  0.74500814  0.56418314  1
  Si  Si3  1  0.65459614  0.25499186  0.43581686  1
loop_
_geom_bond_atom_site_label_1
_geom_bond_atom_site_label_2
_geom_bond_distance
_geom_bond_site_symmetry_2
Er0 Si2 2.807466 1_555
Er0 Si0 2.893949 1_565
Er0 Si0 2.893959 1_465
Er0 Si1 2.989218 1_556
Er0 Si1 2.989220 1_456
Er0 Si0 3.132921 1_555
Er0 Fe0 3.201518 1_555
Er0 Fe0 3.201524 1_455
Er1 Si3 2.807466 1_555
Er1 Si1 2.893949 1_545
Er1 Si1 2.893959 1_645
Er1 Si0 2.989218 1_554
Er1 Si0 2.989220 1_654
Er1 Si1 3.132921 1_555
Er1 Fe1 3.201518 1_555
Er1 Fe1 3.201524 1_655
Er2 Si0 2.853454 1_555
Er2 Si0 2.853456 1_455
Er2 Fe1 2.870359 1_555
Er2 Si3 2.912891 1_455
Er2 Si3 2.912894 1_555
Er2 Fe0 2.988653 1_445
Er2 Fe0 2.988654 1_545
Er2 Fe0 3.057315 1_455
Er2 Si2 3.086530 1_555
Er2 Si2 3.086534 1_455
Er2 Si2 3.181475 1_545
Er3 Si1 2.853454 1_455
Er3 Si1 2.853456 1_555
Er3 Fe0 2.870359 1_455
Er3 Si2 2.912891 1_555
Er3 Si2 2.912894 1_455
Er3 Fe1 2.988653 1_565
Er3 Fe1 2.988654 1_465
Er3 Fe1 3.057315 1_555
Er3 Si3 3.086530 1_455
Er3 Si3 3.086534 1_555
Er3 Si3 3.181475 1_465
Fe0 Si2 2.302083 1_655
Fe0 Si2 2.302086 1_555
Fe0 Si3 2.319503 1_565
Fe0 Si0 2.445707 1_565
Fe1 Si3 2.302083 1_455
Fe1 Si3 2.302086 1_555
Fe1 Si2 2.319503 1_545
Fe1 Si1 2.445707 1_545
Si0 Si1 2.498006 1_546
Si2 Si3 2.801922 1_555
