# generated using pymatgen
data_K(Sb3Rh)4
_symmetry_space_group_name_H-M   'P 1'
_cell_length_a   8.12417375
_cell_length_b   8.12417456
_cell_length_c   8.12417485
_cell_angle_alpha   109.47122378
_cell_angle_beta   109.47122581
_cell_angle_gamma   109.47122034
_symmetry_Int_Tables_number   1
_chemical_formula_structural   K(Sb3Rh)4
_chemical_formula_sum   'K1 Sb12 Rh4'
_cell_volume   412.77727270
_cell_formula_units_Z   1
loop_
 _symmetry_equiv_pos_site_id
 _symmetry_equiv_pos_as_xyz
  1  'x, y, z'
loop_
 _atom_site_type_symbol
 _atom_site_label
 _atom_site_symmetry_multiplicity
 _atom_site_fract_x
 _atom_site_fract_y
 _atom_site_fract_z
 _atom_site_occupancy
  K  K0  1  0.00000000  0.00000000  0.00000000  1
  Sb  Sb0  1  0.84356564  0.65752518  0.50109082  1
  Sb  Sb1  1  0.15643436  0.34247482  0.49890918  1
  Sb  Sb2  1  0.15643436  0.65752518  0.81396054  1
  Sb  Sb3  1  0.84356564  0.34247482  0.18603946  1
  Sb  Sb4  1  0.65752518  0.50109082  0.84356564  1
  Sb  Sb5  1  0.34247482  0.49890918  0.15643436  1
  Sb  Sb6  1  0.65752518  0.81396054  0.15643436  1
  Sb  Sb7  1  0.34247482  0.18603946  0.84356564  1
  Sb  Sb8  1  0.50109082  0.84356564  0.65752518  1
  Sb  Sb9  1  0.49890918  0.15643436  0.34247482  1
  Sb  Sb10  1  0.18603946  0.84356564  0.34247482  1
  Sb  Sb11  1  0.81396054  0.15643436  0.65752518  1
  Rh  Rh0  1  0.50000000  0.50000000  0.50000000  1
  Rh  Rh1  1  0.50000000  0.00000000  0.00000000  1
  Rh  Rh2  1  0.00000000  0.50000000  0.00000000  1
  Rh  Rh3  1  0.00000000  0.00000000  0.50000000  1
loop_
_geom_bond_atom_site_label_1
_geom_bond_atom_site_label_2
_geom_bond_distance
_geom_bond_site_symmetry_2
K0 Sb3 3.532045 1_455
K0 Sb2 3.532045 1_544
K0 Sb7 3.532045 1_554
K0 Sb6 3.532045 1_445
K0 Sb10 3.532045 1_545
K0 Sb11 3.532045 1_454
K0 Sb9 3.532047 1_555
K0 Sb8 3.532047 1_444
K0 Sb5 3.532047 1_555
K0 Sb4 3.532047 1_444
K0 Sb1 3.532048 1_555
K0 Sb0 3.532048 1_444
Sb0 Sb2 2.935022 1_655
Sb0 Sb3 2.955489 1_555
Sb1 Sb3 2.935022 1_455
Sb1 Sb2 2.955489 1_555
Sb4 Sb6 2.935023 1_556
Sb4 Sb7 2.955488 1_555
Sb5 Sb7 2.935023 1_554
Sb5 Sb6 2.955488 1_555
Sb10 Sb9 2.935023 1_565
Sb10 Sb8 2.955488 1_555
Sb11 Sb8 2.935023 1_545
Sb11 Sb9 2.955488 1_555
Rh0 Sb0 2.650127 1_555
Rh0 Sb1 2.650127 1_555
Rh0 Sb8 2.650127 1_555
Rh0 Sb9 2.650127 1_555
Rh0 Sb4 2.650127 1_555
Rh0 Sb5 2.650127 1_555
Rh1 Sb6 2.650120 1_545
Rh1 Sb7 2.650120 1_554
Rh1 Sb9 2.650127 1_555
Rh1 Sb8 2.650127 1_544
Rh1 Sb3 2.650128 1_555
Rh1 Sb2 2.650128 1_544
Rh2 Sb2 2.650120 1_554
Rh2 Sb3 2.650120 1_455
Rh2 Sb5 2.650127 1_555
Rh2 Sb4 2.650127 1_454
Rh2 Sb10 2.650128 1_555
Rh2 Sb11 2.650128 1_454
Rh3 Sb11 2.650120 1_455
Rh3 Sb10 2.650120 1_545
Rh3 Sb1 2.650127 1_555
Rh3 Sb0 2.650127 1_445
Rh3 Sb7 2.650128 1_555
Rh3 Sb6 2.650128 1_445
