# generated using pymatgen
data_Ca2GaSnAu2
_symmetry_space_group_name_H-M   'P 1'
_cell_length_a   5.88874927
_cell_length_b   5.95590846
_cell_length_c   5.95590863
_cell_angle_alpha   134.40240089
_cell_angle_beta   103.34111340
_cell_angle_gamma   94.18537166
_symmetry_Int_Tables_number   1
_chemical_formula_structural   Ca2GaSnAu2
_chemical_formula_sum   'Ca2 Ga1 Sn1 Au2'
_cell_volume   136.70635848
_cell_formula_units_Z   1
loop_
 _symmetry_equiv_pos_site_id
 _symmetry_equiv_pos_as_xyz
  1  'x, y, z'
loop_
 _atom_site_type_symbol
 _atom_site_label
 _atom_site_symmetry_multiplicity
 _atom_site_fract_x
 _atom_site_fract_y
 _atom_site_fract_z
 _atom_site_occupancy
  Ca  Ca0  1  0.68710217  0.69151007  0.99559210  1
  Ca  Ca1  1  0.11802442  0.61679845  0.50122597  1
  Ga  Ga0  1  0.28767170  0.98502405  0.30264765  1
  Sn  Sn0  1  0.68557100  0.98981982  0.69575117  1
  Au  Au0  1  0.52572583  0.30137182  0.22435401  1
  Au  Au1  1  0.11132388  0.33089479  0.78042910  1
loop_
_geom_bond_atom_site_label_1
_geom_bond_atom_site_label_2
_geom_bond_distance
_geom_bond_site_symmetry_2
Ca0 Ga0 3.169325 1_556
Ca0 Ga0 3.169325 1_545
Ca0 Sn0 3.193428 1_545
Ca0 Sn0 3.193428 1_556
Ca0 Ga0 3.247608 1_656
Ca0 Sn0 3.283434 1_555
Ca1 Sn0 3.312894 1_555
Ca1 Ga0 3.325935 1_555
Ca1 Sn0 3.368805 1_455
Ca1 Sn0 3.368805 1_444
Ca1 Ga0 3.379602 1_545
Ca1 Ga0 3.379602 1_556
Ga0 Sn0 2.887492 1_555
Au0 Ga0 2.622634 1_545
Au0 Sn0 2.772815 1_544
Au0 Sn0 2.772815 1_555
Au0 Ca0 3.182581 1_544
Au0 Ca0 3.182582 1_555
Au0 Ca1 3.187936 1_555
Au0 Ca1 3.187937 1_544
Au0 Ca1 3.235431 1_655
Au0 Ca0 3.586675 1_554
Au1 Ga0 2.625341 1_545
Au1 Ga0 2.625342 1_556
Au1 Sn0 2.811789 1_445
Au1 Ca1 3.106351 1_555
Au1 Ca0 3.291148 1_555
Au1 Ca0 3.302250 1_455
Au1 Ca0 3.302251 1_444
Au1 Ca1 3.318618 1_545
Au1 Ca1 3.318618 1_556
