# generated using pymatgen
data_Rb4HfGeAs4
_symmetry_space_group_name_H-M   'P 1'
_cell_length_a   8.60563322
_cell_length_b   8.60563268
_cell_length_c   8.60563270
_cell_angle_alpha   136.14525570
_cell_angle_beta   127.42846097
_cell_angle_gamma   70.79985821
_symmetry_Int_Tables_number   1
_chemical_formula_structural   Rb4HfGeAs4
_chemical_formula_sum   'Rb4 Hf1 Ge1 As4'
_cell_volume   343.63712832
_cell_formula_units_Z   1
loop_
 _symmetry_equiv_pos_site_id
 _symmetry_equiv_pos_as_xyz
  1  'x, y, z'
loop_
 _atom_site_type_symbol
 _atom_site_label
 _atom_site_symmetry_multiplicity
 _atom_site_fract_x
 _atom_site_fract_y
 _atom_site_fract_z
 _atom_site_occupancy
  Rb  Rb0  1  0.99551406  0.14594957  0.84528057  1
  Rb  Rb1  1  0.00448594  0.84976751  0.15043651  1
  Rb  Rb2  1  0.69933200  0.35405043  0.34956349  1
  Rb  Rb3  1  0.30066800  0.65023249  0.65471943  1
  Hf  Hf0  1  0.50000000  0.25000000  0.75000000  1
  Ge  Ge0  1  0.50000000  0.75000000  0.25000000  1
  As  As0  1  0.21972206  0.41192360  0.83185463  1
  As  As1  1  0.78027794  0.61213258  0.19220154  1
  As  As2  1  0.41993103  0.08807640  0.30779846  1
  As  As3  1  0.58006897  0.88786742  0.66814537  1
loop_
_geom_bond_atom_site_label_1
_geom_bond_atom_site_label_2
_geom_bond_distance
_geom_bond_site_symmetry_2
As0 Ge0 2.489501 1_556
As0 Hf0 2.587370 1_555
As0 Rb1 3.439265 1_556
As0 Rb0 3.540085 1_455
As0 Rb1 3.605436 1_545
As0 Rb2 3.663602 1_455
As0 Rb3 3.708581 1_555
As1 Ge0 2.489501 1_555
As1 Hf0 2.587370 1_554
As1 Rb0 3.439260 1_565
As1 Rb1 3.540085 1_655
As1 Rb0 3.605442 1_554
As1 Rb3 3.663602 1_655
As1 Rb2 3.708582 1_555
As2 Ge0 2.489501 1_545
As2 Hf0 2.587370 1_555
As2 Rb3 3.439257 1_544
As2 Rb2 3.540099 1_555
As2 Rb3 3.605439 1_555
As2 Rb0 3.663604 1_454
As2 Rb1 3.708595 1_545
As3 Ge0 2.489501 1_555
As3 Hf0 2.587370 1_565
As3 Rb2 3.439263 1_555
As3 Rb3 3.540099 1_555
As3 Rb2 3.605433 1_566
As3 Rb1 3.663604 1_656
As3 Rb0 3.708595 1_565
