# generated using pymatgen
data_AgHg2IO6
_symmetry_space_group_name_H-M   'P 1'
_cell_length_a   5.63858839
_cell_length_b   5.70298116
_cell_length_c   8.43033573
_cell_angle_alpha   90.00000000
_cell_angle_beta   87.85246300
_cell_angle_gamma   90.00000000
_symmetry_Int_Tables_number   1
_chemical_formula_structural   AgHg2IO6
_chemical_formula_sum   'Ag2 Hg4 I2 O12'
_cell_volume   270.90190889
_cell_formula_units_Z   2
loop_
 _symmetry_equiv_pos_site_id
 _symmetry_equiv_pos_as_xyz
  1  'x, y, z'
loop_
 _atom_site_type_symbol
 _atom_site_label
 _atom_site_symmetry_multiplicity
 _atom_site_fract_x
 _atom_site_fract_y
 _atom_site_fract_z
 _atom_site_occupancy
  Ag  Ag0  1  0.50000000  0.50000000  0.00000000  1
  Ag  Ag1  1  0.00000000  0.00000000  0.50000000  1
  Hg  Hg0  1  0.49586065  0.96929309  0.75626140  1
  Hg  Hg1  1  0.00413935  0.46929309  0.74373860  1
  Hg  Hg2  1  0.50413935  0.03070691  0.24373860  1
  Hg  Hg3  1  0.99586065  0.53070691  0.25626140  1
  I  I0  1  0.50000000  0.50000000  0.50000000  1
  I  I1  1  0.00000000  0.00000000  0.00000000  1
  O  O0  1  0.34004631  0.23796510  0.59364051  1
  O  O1  1  0.15995369  0.73796510  0.90635949  1
  O  O2  1  0.65995369  0.76203490  0.40635949  1
  O  O3  1  0.84004631  0.26203490  0.09364051  1
  O  O4  1  0.61054737  0.59366679  0.70334602  1
  O  O5  1  0.88945263  0.09366679  0.79665398  1
  O  O6  1  0.38945263  0.40633321  0.29665398  1
  O  O7  1  0.11054737  0.90633321  0.20334602  1
  O  O8  1  0.22075534  0.67579676  0.53874636  1
  O  O9  1  0.27924466  0.17579676  0.96125364  1
  O  O10  1  0.77924466  0.32420324  0.46125364  1
  O  O11  1  0.72075534  0.82420324  0.03874636  1
loop_
_geom_bond_atom_site_label_1
_geom_bond_atom_site_label_2
_geom_bond_distance
_geom_bond_site_symmetry_2
Ag0 O11 2.259445 1_555
Ag0 O9 2.259445 1_554
Ag0 O3 2.500945 1_555
Ag0 O1 2.500945 1_554
Ag0 O6 2.609889 1_555
Ag0 O4 2.609889 1_554
Ag1 O10 2.259445 1_455
Ag1 O8 2.259445 1_545
Ag1 O0 2.500945 1_555
Ag1 O2 2.500945 1_445
Ag1 O5 2.609889 1_455
Ag1 O7 2.609889 1_545
Hg0 O0 2.255969 1_565
Hg0 O4 2.276959 1_555
Hg0 O5 2.366645 1_565
Hg0 O9 2.388955 1_565
Hg0 O1 2.597960 1_555
Hg1 O1 2.255969 1_555
Hg1 O5 2.276959 1_455
Hg1 O4 2.366645 1_455
Hg1 O8 2.388955 1_555
Hg1 O0 2.597960 1_555
Hg2 O2 2.255969 1_545
Hg2 O6 2.276959 1_555
Hg2 O7 2.366645 1_545
Hg2 O11 2.388955 1_545
Hg2 O3 2.597960 1_555
Hg3 O3 2.255969 1_555
Hg3 O7 2.276959 1_655
Hg3 O6 2.366645 1_655
Hg3 O10 2.388955 1_555
Hg3 O2 2.597960 1_555
I0 O10 1.884803 1_555
I0 O8 1.884803 1_555
I0 O2 1.901695 1_555
I0 O0 1.901695 1_555
I0 O4 1.921643 1_555
I0 O6 1.921643 1_555
I1 O9 1.884803 1_554
I1 O11 1.884803 1_445
I1 O3 1.901695 1_455
I1 O1 1.901695 1_544
I1 O7 1.921643 1_545
I1 O5 1.921643 1_454
