# generated using pymatgen
data_CuPtRhSe4
_symmetry_space_group_name_H-M   'P 1'
_cell_length_a   7.35454481
_cell_length_b   7.39459732
_cell_length_c   7.35454416
_cell_angle_alpha   59.81968351
_cell_angle_beta   59.69528033
_cell_angle_gamma   59.81968224
_symmetry_Int_Tables_number   1
_chemical_formula_structural   CuPtRhSe4
_chemical_formula_sum   'Cu2 Pt2 Rh2 Se8'
_cell_volume   281.39563324
_cell_formula_units_Z   2
loop_
 _symmetry_equiv_pos_site_id
 _symmetry_equiv_pos_as_xyz
  1  'x, y, z'
loop_
 _atom_site_type_symbol
 _atom_site_label
 _atom_site_symmetry_multiplicity
 _atom_site_fract_x
 _atom_site_fract_y
 _atom_site_fract_z
 _atom_site_occupancy
  Cu  Cu0  1  0.49522016  0.50477984  0.49522016  1
  Cu  Cu1  1  0.75477984  0.74522016  0.75477984  1
  Pt  Pt0  1  0.12500000  0.12500000  0.12500000  1
  Pt  Pt1  1  0.12500000  0.62500000  0.12500000  1
  Rh  Rh0  1  0.12500000  0.12500000  0.62500000  1
  Rh  Rh1  1  0.62500000  0.12500000  0.12500000  1
  Se  Se0  1  0.34598529  0.88636859  0.88127853  1
  Se  Se1  1  0.36690153  0.36114972  0.36690153  1
  Se  Se2  1  0.90401471  0.36363141  0.36872147  1
  Se  Se3  1  0.88127853  0.88636859  0.34598529  1
  Se  Se4  1  0.88309847  0.88885028  0.88309847  1
  Se  Se5  1  0.36690153  0.90504623  0.36690153  1
  Se  Se6  1  0.36872147  0.36363141  0.90401471  1
  Se  Se7  1  0.88309847  0.34495377  0.88309847  1
loop_
_geom_bond_atom_site_label_1
_geom_bond_atom_site_label_2
_geom_bond_distance
_geom_bond_site_symmetry_2
Cu0 Se5 2.413213 1_555
Cu0 Se1 2.413219 1_555
Cu0 Se6 2.447936 1_555
Cu0 Se2 2.447937 1_555
Cu1 Se7 2.413213 1_555
Cu1 Se4 2.413219 1_555
Cu1 Se3 2.447936 1_555
Cu1 Se0 2.447937 1_555
Pt0 Se2 2.514911 1_455
Pt0 Se0 2.514911 1_544
Pt0 Se6 2.514912 1_554
Pt0 Se3 2.514912 1_445
Pt0 Se5 2.520139 1_545
Pt0 Se7 2.520139 1_454
Pt1 Se3 2.514917 1_455
Pt1 Se6 2.514917 1_554
Pt1 Se0 2.514917 1_554
Pt1 Se2 2.514917 1_455
Pt1 Se1 2.520140 1_555
Pt1 Se4 2.520140 1_454
Rh0 Se0 2.484277 1_545
Rh0 Se2 2.484277 1_455
Rh0 Se1 2.490049 1_555
Rh0 Se4 2.490049 1_445
Rh0 Se7 2.490054 1_455
Rh0 Se5 2.490054 1_545
Rh1 Se3 2.484277 1_545
Rh1 Se6 2.484277 1_554
Rh1 Se1 2.490049 1_555
Rh1 Se4 2.490049 1_544
Rh1 Se7 2.490054 1_554
Rh1 Se5 2.490054 1_545
