# generated using pymatgen
data_EuTl2Pd
_symmetry_space_group_name_H-M   'P 1'
_cell_length_a   4.43233672
_cell_length_b   5.95239813
_cell_length_c   8.21586071
_cell_angle_alpha   90.00000000
_cell_angle_beta   90.00000000
_cell_angle_gamma   111.85847886
_symmetry_Int_Tables_number   1
_chemical_formula_structural   EuTl2Pd
_chemical_formula_sum   'Eu2 Tl4 Pd2'
_cell_volume   201.17569438
_cell_formula_units_Z   2
loop_
 _symmetry_equiv_pos_site_id
 _symmetry_equiv_pos_as_xyz
  1  'x, y, z'
loop_
 _atom_site_type_symbol
 _atom_site_label
 _atom_site_symmetry_multiplicity
 _atom_site_fract_x
 _atom_site_fract_y
 _atom_site_fract_z
 _atom_site_occupancy
  Eu  Eu0  1  0.43415958  0.86832016  0.25000000  1
  Eu  Eu1  1  0.56583217  0.13166334  0.75000000  1
  Tl  Tl0  1  0.85585771  0.71171542  0.55036357  1
  Tl  Tl1  1  0.14414852  0.28829703  0.05030236  1
  Tl  Tl2  1  0.14414852  0.28829703  0.44969764  1
  Tl  Tl3  1  0.85585771  0.71171542  0.94963643  1
  Pd  Pd0  1  0.71939961  0.43879921  0.25000000  1
  Pd  Pd1  1  0.28059619  0.56119239  0.75000000  1
loop_
_geom_bond_atom_site_label_1
_geom_bond_atom_site_label_2
_geom_bond_distance
_geom_bond_site_symmetry_2
Eu0 Pd0 3.151588 1_565
Eu0 Pd0 3.246830 1_455
Eu0 Pd0 3.246834 1_555
Eu0 Tl0 3.427777 1_455
Eu0 Tl3 3.427777 1_454
Eu0 Tl0 3.427780 1_555
Eu0 Tl3 3.427780 1_554
Eu0 Tl2 3.599928 1_555
Eu0 Tl1 3.599928 1_555
Eu0 Tl1 3.603654 1_565
Eu0 Tl2 3.603654 1_565
Eu0 Tl1 3.603656 1_665
Eu0 Tl2 3.603656 1_665
Eu1 Pd1 3.151543 1_545
Eu1 Pd1 3.246863 1_655
Eu1 Pd1 3.246866 1_555
Eu1 Tl2 3.427455 1_655
Eu1 Tl1 3.427455 1_656
Eu1 Tl2 3.427458 1_555
Eu1 Tl1 3.427458 1_556
Eu1 Tl3 3.599841 1_555
Eu1 Tl0 3.599841 1_555
Eu1 Tl0 3.603322 1_545
Eu1 Tl3 3.603322 1_545
Eu1 Tl3 3.603324 1_445
Eu1 Tl0 3.603324 1_445
Tl0 Tl3 3.280370 1_555
Tl0 Tl2 3.290922 1_665
Tl0 Tl2 3.326722 1_555
Tl0 Tl2 3.326723 1_655
Tl1 Tl2 3.281376 1_555
Tl1 Tl3 3.290922 1_444
Tl1 Tl3 3.326722 1_554
Tl1 Tl3 3.326723 1_454
Pd0 Tl1 2.880027 1_555
Pd0 Tl2 2.880027 1_555
Pd0 Tl1 2.880027 1_655
Pd0 Tl2 2.880027 1_655
Pd0 Tl3 2.891880 1_554
Pd0 Tl0 2.891880 1_555
Pd1 Tl3 2.879774 1_555
Pd1 Tl0 2.879774 1_555
Pd1 Tl0 2.879774 1_455
Pd1 Tl3 2.879774 1_455
Pd1 Tl2 2.891391 1_555
Pd1 Tl1 2.891391 1_556
