# generated using pymatgen
data_Nb3Si(BW)2
_symmetry_space_group_name_H-M   'P 1'
_cell_length_a   7.18811669
_cell_length_b   7.18811674
_cell_length_c   7.23024185
_cell_angle_alpha   129.38841918
_cell_angle_beta   129.38841771
_cell_angle_gamma   74.40491835
_symmetry_Int_Tables_number   1
_chemical_formula_structural   Nb3Si(BW)2
_chemical_formula_sum   'Nb6 Si2 B4 W4'
_cell_volume   217.47033634
_cell_formula_units_Z   2
loop_
 _symmetry_equiv_pos_site_id
 _symmetry_equiv_pos_as_xyz
  1  'x, y, z'
loop_
 _atom_site_type_symbol
 _atom_site_label
 _atom_site_symmetry_multiplicity
 _atom_site_fract_x
 _atom_site_fract_y
 _atom_site_fract_z
 _atom_site_occupancy
  Nb  Nb0  1  0.47674912  0.97674912  0.17222282  1
  Nb  Nb1  1  0.30567965  0.47254612  0.50061659  1
  Nb  Nb2  1  0.02745388  0.19432035  0.49938341  1
  Nb  Nb3  1  0.52325088  0.02325088  0.82777718  1
  Nb  Nb4  1  0.69432035  0.52745388  0.49938341  1
  Nb  Nb5  1  0.97254612  0.80567965  0.50061659  1
  Si  Si0  1  0.24530437  0.25469563  0.00000000  1
  Si  Si1  1  0.75469563  0.74530437  0.00000000  1
  B  B0  1  0.12659374  0.62659374  0.75519021  1
  B  B1  1  0.87340626  0.37340626  0.24480979  1
  B  B2  1  0.61691932  0.88308068  0.50000000  1
  B  B3  1  0.38308068  0.11691932  0.50000000  1
  W  W0  1  0.00000000  0.00000000  0.00000000  1
  W  W1  1  0.50000000  0.50000000  0.00000000  1
  W  W2  1  0.80655102  0.30655102  0.83786683  1
  W  W3  1  0.19344898  0.69344898  0.16213317  1
loop_
_geom_bond_atom_site_label_1
_geom_bond_atom_site_label_2
_geom_bond_distance
_geom_bond_site_symmetry_2
Nb0 Si1 2.655383 1_555
Nb0 Si0 2.655383 1_565
Nb0 W1 2.804054 1_555
Nb0 W0 2.804054 1_565
Nb0 W2 2.909295 1_565
Nb1 Si0 2.630599 1_555
Nb1 Si1 2.631703 1_556
Nb1 W0 2.789693 1_555
Nb1 W1 2.805350 1_556
Nb2 Si0 2.630599 1_556
Nb2 Si1 2.631703 1_445
Nb2 W1 2.789693 1_556
Nb2 W0 2.805350 1_555
Nb3 Si0 2.655383 1_556
Nb3 Si1 2.655383 1_546
Nb3 W1 2.804054 1_556
Nb3 W0 2.804054 1_656
Nb3 W3 2.909295 1_545
Nb4 Si1 2.630599 1_556
Nb4 Si0 2.631703 1_555
Nb4 W0 2.789693 1_666
Nb4 W1 2.805350 1_555
Nb5 Si1 2.630599 1_555
Nb5 Si0 2.631703 1_666
Nb5 W1 2.789693 1_555
Nb5 W0 2.805350 1_666
Si0 W3 2.586500 1_555
Si0 W2 2.586500 1_454
Si0 W1 2.862973 1_555
Si0 W0 2.862973 1_555
Si1 W2 2.586500 1_554
Si1 W3 2.586500 1_655
Si1 W1 2.862973 1_555
Si1 W0 2.862973 1_665
B0 B1 2.230624 1_455
B0 W3 2.377837 1_556
B0 Nb2 2.409892 1_555
B0 Nb4 2.409892 1_455
B0 W0 2.422130 1_566
B0 W1 2.422130 1_556
B0 Nb0 2.429877 1_556
B0 Nb1 2.434171 1_555
B0 Nb5 2.434171 1_455
B1 W2 2.377837 1_554
B1 Nb5 2.409892 1_555
B1 Nb1 2.409892 1_655
B1 W0 2.422130 1_655
B1 W1 2.422130 1_555
B1 Nb3 2.429877 1_554
B1 Nb4 2.434171 1_555
B1 Nb2 2.434171 1_655
B2 B3 2.032607 1_565
B2 W2 2.378815 1_565
B2 W3 2.378815 1_555
B2 Nb3 2.390574 1_565
B2 Nb0 2.390574 1_555
B2 Nb5 2.463362 1_555
B2 Nb4 2.463362 1_555
B2 W1 2.472287 1_555
B2 W0 2.472287 1_666
B3 W3 2.378815 1_545
B3 W2 2.378815 1_555
B3 Nb0 2.390574 1_545
B3 Nb3 2.390574 1_555
B3 Nb2 2.463362 1_555
B3 Nb1 2.463362 1_555
B3 W1 2.472287 1_556
B3 W0 2.472287 1_555
