# generated using pymatgen
data_Lu12Mn2In2Tc
_symmetry_space_group_name_H-M   'P 1'
_cell_length_a   8.23795032
_cell_length_b   8.23795113
_cell_length_c   8.23795133
_cell_angle_alpha   108.81851335
_cell_angle_beta   108.81851682
_cell_angle_gamma   110.78466716
_symmetry_Int_Tables_number   1
_chemical_formula_structural   Lu12Mn2In2Tc
_chemical_formula_sum   'Lu12 Mn2 In2 Tc1'
_cell_volume   430.19372914
_cell_formula_units_Z   1
loop_
 _symmetry_equiv_pos_site_id
 _symmetry_equiv_pos_as_xyz
  1  'x, y, z'
loop_
 _atom_site_type_symbol
 _atom_site_label
 _atom_site_symmetry_multiplicity
 _atom_site_fract_x
 _atom_site_fract_y
 _atom_site_fract_z
 _atom_site_occupancy
  Lu  Lu0  1  0.30728305  0.30728305  0.61456609  1
  Lu  Lu1  1  0.69271695  0.69271695  0.38543391  1
  Lu  Lu2  1  0.69271695  0.30728305  0.00000000  1
  Lu  Lu3  1  0.30728305  0.69271695  1.00000000  1
  Lu  Lu4  1  0.18658451  0.42875309  0.24216858  1
  Lu  Lu5  1  0.81341549  0.57124691  0.75783142  1
  Lu  Lu6  1  0.18658451  0.94441292  0.75783142  1
  Lu  Lu7  1  0.94441292  0.18658451  0.75783142  1
  Lu  Lu8  1  0.81341549  0.05558708  0.24216858  1
  Lu  Lu9  1  0.05558708  0.81341549  0.24216858  1
  Lu  Lu10  1  0.42875309  0.18658451  0.24216858  1
  Lu  Lu11  1  0.57124691  0.81341549  0.75783142  1
  Mn  Mn0  1  0.36628485  0.36628485  1.00000000  1
  Mn  Mn1  1  0.63371515  0.63371515  0.00000000  1
  In  In0  1  0.00000000  0.50000000  0.50000000  1
  In  In1  1  0.50000000  0.00000000  0.50000000  1
  Tc  Tc0  1  0.00000000  0.00000000  0.00000000  1
loop_
_geom_bond_atom_site_label_1
_geom_bond_atom_site_label_2
_geom_bond_distance
_geom_bond_site_symmetry_2
Lu0 Mn1 2.897468 1_556
Lu0 Mn0 2.897468 1_555
Lu1 Mn0 2.897468 1_554
Lu1 Mn1 2.897468 1_555
Lu2 Mn0 2.897467 1_554
Lu2 Mn1 2.897468 1_555
Lu3 Mn1 2.897467 1_556
Lu3 Mn0 2.897468 1_555
Lu4 Mn0 2.867027 1_554
Lu4 Tc0 2.905279 1_555
Lu5 Mn1 2.867027 1_556
Lu5 Tc0 2.905279 1_666
Lu6 Mn0 2.867047 1_565
Lu6 Tc0 2.905282 1_566
Lu7 Mn0 2.867047 1_655
Lu7 Tc0 2.905282 1_656
Lu8 Mn1 2.867047 1_545
Lu8 Tc0 2.905282 1_655
Lu9 Mn1 2.867047 1_455
Lu9 Tc0 2.905282 1_565
Lu10 Mn0 2.867027 1_554
Lu10 Tc0 2.905278 1_555
Lu11 Mn1 2.867027 1_556
Lu11 Tc0 2.905278 1_666
Mn0 Mn1 2.502493 1_556
In0 Lu6 3.026647 1_555
In0 Lu8 3.026647 1_455
In0 Lu5 3.026666 1_455
In0 Lu4 3.026666 1_555
In0 Lu1 3.478021 1_455
In0 Lu0 3.478021 1_555
In0 Lu3 3.478022 1_555
In0 Lu2 3.478022 1_455
In0 Lu11 3.835832 1_555
In0 Lu10 3.835832 1_455
In0 Lu9 3.835834 1_555
In0 Lu7 3.835834 1_455
In1 Lu9 3.026646 1_545
In1 Lu7 3.026646 1_555
In1 Lu11 3.026666 1_545
In1 Lu10 3.026666 1_555
In1 Lu0 3.478022 1_555
In1 Lu1 3.478022 1_545
In1 Lu2 3.478022 1_556
In1 Lu3 3.478022 1_544
In1 Lu5 3.835833 1_555
In1 Lu4 3.835833 1_545
In1 Lu8 3.835834 1_555
In1 Lu6 3.835834 1_545
