# generated using pymatgen
data_CaSc3(ZnSn)4
_symmetry_space_group_name_H-M   'P 1'
_cell_length_a   4.37971234
_cell_length_b   4.37971289
_cell_length_c   15.80945175
_cell_angle_alpha   90.00000000
_cell_angle_beta   90.00000000
_cell_angle_gamma   120.00001728
_symmetry_Int_Tables_number   1
_chemical_formula_structural   CaSc3(ZnSn)4
_chemical_formula_sum   'Ca1 Sc3 Zn4 Sn4'
_cell_volume   262.62652904
_cell_formula_units_Z   1
loop_
 _symmetry_equiv_pos_site_id
 _symmetry_equiv_pos_as_xyz
  1  'x, y, z'
loop_
 _atom_site_type_symbol
 _atom_site_label
 _atom_site_symmetry_multiplicity
 _atom_site_fract_x
 _atom_site_fract_y
 _atom_site_fract_z
 _atom_site_occupancy
  Ca  Ca0  1  0.00000000  0.00000000  0.00000000  1
  Sc  Sc0  1  0.00000000  0.00000000  0.26059481  1
  Sc  Sc1  1  0.00000000  0.00000000  0.73940519  1
  Sc  Sc2  1  0.00000000  0.00000000  0.50000000  1
  Zn  Zn0  1  0.33333300  0.66666700  0.17913029  1
  Zn  Zn1  1  0.66666700  0.33333300  0.82086971  1
  Zn  Zn2  1  0.66666700  0.33333300  0.65549738  1
  Zn  Zn3  1  0.33333300  0.66666700  0.34450262  1
  Sn  Sn0  1  0.33333300  0.66666700  0.60397824  1
  Sn  Sn1  1  0.66666700  0.33333300  0.39602176  1
  Sn  Sn2  1  0.66666700  0.33333300  0.13044328  1
  Sn  Sn3  1  0.33333300  0.66666700  0.86955672  1
loop_
_geom_bond_atom_site_label_1
_geom_bond_atom_site_label_2
_geom_bond_distance
_geom_bond_site_symmetry_2
Ca0 Sn2 3.262939 1_455
Ca0 Sn3 3.262939 1_544
Ca0 Sn2 3.262941 1_555
Ca0 Sn3 3.262941 1_444
Ca0 Sn2 3.262941 1_445
Ca0 Sn3 3.262941 1_554
Sc0 Zn0 2.837721 1_545
Sc0 Zn0 2.837724 1_445
Sc0 Zn0 2.837724 1_555
Sc0 Zn3 2.855459 1_545
Sc0 Zn3 2.855462 1_445
Sc0 Zn3 2.855462 1_555
Sc0 Sn2 3.260026 1_455
Sc0 Sn2 3.260028 1_555
Sc0 Sn2 3.260028 1_445
Sc1 Zn1 2.837721 1_455
Sc1 Zn1 2.837724 1_555
Sc1 Zn1 2.837724 1_445
Sc1 Zn2 2.855459 1_455
Sc1 Zn2 2.855462 1_555
Sc1 Zn2 2.855462 1_445
Sc1 Sn3 3.260026 1_545
Sc1 Sn3 3.260028 1_445
Sc1 Sn3 3.260028 1_555
Sc2 Sn0 3.015983 1_545
Sc2 Sn1 3.015983 1_455
Sc2 Sn0 3.015986 1_445
Sc2 Sn1 3.015986 1_555
Sc2 Sn0 3.015986 1_555
Sc2 Sn1 3.015986 1_445
Zn0 Zn3 2.614446 1_555
Zn1 Zn2 2.614446 1_555
Sn0 Zn2 2.656565 1_455
Sn0 Zn2 2.656565 1_565
Sn0 Zn2 2.656573 1_555
Sn1 Zn3 2.656565 1_655
Sn1 Zn3 2.656565 1_545
Sn1 Zn3 2.656573 1_555
Sn2 Zn0 2.643181 1_655
Sn2 Zn0 2.643181 1_545
Sn2 Zn0 2.643189 1_555
Sn3 Zn1 2.643181 1_455
Sn3 Zn1 2.643181 1_565
Sn3 Zn1 2.643189 1_555
