# generated using pymatgen
data_Y4Tc3PtF28
_symmetry_space_group_name_H-M   'P 1'
_cell_length_a   5.48503998
_cell_length_b   8.80472388
_cell_length_c   11.87220319
_cell_angle_alpha   62.35495155
_cell_angle_beta   90.04562353
_cell_angle_gamma   90.03351528
_symmetry_Int_Tables_number   1
_chemical_formula_structural   Y4Tc3PtF28
_chemical_formula_sum   'Y4 Tc3 Pt1 F28'
_cell_volume   507.90387467
_cell_formula_units_Z   1
loop_
 _symmetry_equiv_pos_site_id
 _symmetry_equiv_pos_as_xyz
  1  'x, y, z'
loop_
 _atom_site_type_symbol
 _atom_site_label
 _atom_site_symmetry_multiplicity
 _atom_site_fract_x
 _atom_site_fract_y
 _atom_site_fract_z
 _atom_site_occupancy
  Y  Y0  1  0.25920414  0.81356323  0.26560009  1
  Y  Y1  1  0.74090154  0.18674936  0.73464356  1
  Y  Y2  1  0.75947230  0.18660234  0.23531039  1
  Y  Y3  1  0.23956389  0.81385310  0.76306336  1
  Tc  Tc0  1  0.75630290  0.72717745  0.04295628  1
  Tc  Tc1  1  0.24385612  0.27312756  0.95639793  1
  Tc  Tc2  1  0.25671563  0.27334417  0.45657084  1
  Pt  Pt0  1  0.74199935  0.72809978  0.54304976  1
  F  F0  1  0.93246257  0.70501075  0.41355478  1
  F  F1  1  0.05567355  0.29050576  0.58371759  1
  F  F2  1  0.44562980  0.29129989  0.08328291  1
  F  F3  1  0.55134004  0.70882620  0.91729374  1
  F  F4  1  0.47185370  0.72855995  0.13888860  1
  F  F5  1  0.53037517  0.27113092  0.86224594  1
  F  F6  1  0.96957557  0.27259994  0.36190410  1
  F  F7  1  0.03913155  0.72586426  0.63310575  1
  F  F8  1  0.95448474  0.74476152  0.17217015  1
  F  F9  1  0.04905521  0.25444075  0.82680616  1
  F  F10  1  0.45158803  0.25667842  0.32612027  1
  F  F11  1  0.55825456  0.74395998  0.67744512  1
  F  F12  1  0.77011238  0.47971959  0.14060957  1
  F  F13  1  0.22961916  0.52061336  0.85797105  1
  F  F14  1  0.26967192  0.52111903  0.36008820  1
  F  F15  1  0.72984488  0.47965820  0.64167135  1
  F  F16  1  0.94728370  0.27926369  0.04421868  1
  F  F17  1  0.05126384  0.72051978  0.95426207  1
  F  F18  1  0.43772896  0.72140907  0.46015985  1
  F  F19  1  0.55419948  0.27974665  0.54347677  1
  F  F20  1  0.74301506  0.97703583  0.45003362  1
  F  F21  1  0.25952131  0.02630062  0.55168956  1
  F  F22  1  0.24274627  0.02618669  0.05326814  1
  F  F23  1  0.75841180  0.97416629  0.94686066  1
  F  F24  1  0.59264337  0.96492059  0.23325366  1
  F  F25  1  0.40711394  0.03367545  0.76825656  1
  F  F26  1  0.09232204  0.03325714  0.27022201  1
  F  F27  1  0.90706254  0.96625570  0.72983294  1
loop_
_geom_bond_atom_site_label_1
_geom_bond_atom_site_label_2
_geom_bond_distance
_geom_bond_site_symmetry_2
F0 Pt0 1.946569 1_555
F0 Y0 2.378227 1_655
F1 Tc2 1.931831 1_555
F1 Y1 2.347377 1_455
F2 Tc1 1.934045 1_554
F2 Y2 2.350256 1_555
F3 Tc0 1.933016 1_556
F3 Y3 2.357523 1_555
F4 Tc0 1.935793 1_555
F4 Y0 2.287422 1_555
F5 Tc1 1.934079 1_555
F5 Y1 2.286627 1_555
F6 Tc2 1.935910 1_655
F6 Y2 2.283098 1_555
F7 Pt0 1.943559 1_455
F7 Y3 2.301050 1_555
F8 Tc0 1.943318 1_555
F8 Y0 2.238375 1_655
F9 Tc1 1.941117 1_555
F9 Y1 2.238387 1_455
F10 Tc2 1.943280 1_555
F10 Y2 2.239717 1_555
F11 Pt0 1.946944 1_555
F11 Y3 2.247691 1_555
F12 Tc0 1.937257 1_555
F12 Y2 2.288087 1_555
F13 Tc1 1.938284 1_555
F13 Y3 2.288887 1_555
F14 Tc2 1.938413 1_555
F14 Y0 2.282842 1_555
F15 Pt0 1.945128 1_555
F15 Y1 2.287269 1_555
F16 Tc1 1.947115 1_654
F16 Y2 2.271312 1_555
F17 Tc0 1.946754 1_456
F17 Y3 2.272976 1_555
F18 Pt0 1.951488 1_555
F18 Y0 2.282705 1_555
F19 Tc2 1.944578 1_555
F19 Y1 2.267791 1_555
F20 Pt0 1.943563 1_555
F20 Y2 2.355113 1_565
F21 Tc2 1.930631 1_555
F21 Y3 2.335065 1_545
F22 Tc1 1.931212 1_554
F22 Y0 2.342644 1_545
F23 Tc0 1.930945 1_556
F23 Y1 2.341804 1_565
F24 Y2 2.165582 1_565
F24 Y0 2.189014 1_555
F25 Y3 2.168646 1_545
F25 Y1 2.197016 1_555
F26 Y0 2.164075 1_545
F26 Y2 2.193229 1_455
F27 Y1 2.169778 1_565
F27 Y3 2.189264 1_655
