# generated using pymatgen
data_YLu(FeOs)2
_symmetry_space_group_name_H-M   'P 1'
_cell_length_a   5.22599715
_cell_length_b   5.25848471
_cell_length_c   5.25848484
_cell_angle_alpha   59.39000135
_cell_angle_beta   60.20417007
_cell_angle_gamma   60.20416528
_symmetry_Int_Tables_number   1
_chemical_formula_structural   YLu(FeOs)2
_chemical_formula_sum   'Y1 Lu1 Fe2 Os2'
_cell_volume   102.01275250
_cell_formula_units_Z   1
loop_
 _symmetry_equiv_pos_site_id
 _symmetry_equiv_pos_as_xyz
  1  'x, y, z'
loop_
 _atom_site_type_symbol
 _atom_site_label
 _atom_site_symmetry_multiplicity
 _atom_site_fract_x
 _atom_site_fract_y
 _atom_site_fract_z
 _atom_site_occupancy
  Y  Y0  1  0.99781807  0.00218193  0.00218193  1
  Lu  Lu0  1  0.25305686  0.24694314  0.24694314  1
  Fe  Fe0  1  0.12574073  0.62509227  0.62509227  1
  Fe  Fe1  1  0.62407473  0.62509227  0.62509227  1
  Os  Os0  1  0.62465431  0.62523616  0.12545423  1
  Os  Os1  1  0.62465431  0.12545423  0.62523616  1
loop_
_geom_bond_atom_site_label_1
_geom_bond_atom_site_label_2
_geom_bond_distance
_geom_bond_site_symmetry_2
Lu0 Os1 3.073843 1_555
Lu0 Os0 3.073843 1_555
Lu0 Os0 3.073848 1_455
Lu0 Os1 3.073848 1_455
Lu0 Os0 3.074366 1_545
Lu0 Os1 3.074366 1_554
Lu0 Y0 3.192450 1_455
Lu0 Y0 3.192450 1_555
Lu0 Y0 3.231714 1_465
Lu0 Y0 3.231714 1_456
Fe0 Fe1 2.604292 1_555
Fe0 Fe1 2.621705 1_455
Fe0 Os1 2.625448 1_555
Fe0 Os0 2.625448 1_555
Fe0 Os1 2.633040 1_465
Fe0 Os0 2.633041 1_456
Fe0 Lu0 3.052072 1_556
Fe0 Lu0 3.052072 1_565
Fe0 Y0 3.058179 1_465
Fe0 Y0 3.058179 1_456
Fe0 Y0 3.111310 1_466
Fe0 Lu0 3.122167 1_555
Fe1 Os1 2.625450 1_555
Fe1 Os0 2.625450 1_555
Fe1 Os1 2.633038 1_565
Fe1 Os0 2.633038 1_556
Fe1 Lu0 3.052072 1_565
Fe1 Lu0 3.052073 1_556
Fe1 Y0 3.058179 1_556
Fe1 Y0 3.058179 1_565
Fe1 Y0 3.111310 1_466
Fe1 Lu0 3.122167 1_655
Os0 Os1 2.603827 1_555
Os0 Os1 2.606099 1_564
Os0 Y0 3.070674 1_465
Os0 Y0 3.070678 1_565
Os0 Y0 3.084514 1_555
Os1 Y0 3.070674 1_456
Os1 Y0 3.070678 1_556
Os1 Y0 3.084515 1_555
