# generated using pymatgen
data_Sc12ZnCo4Pb
_symmetry_space_group_name_H-M   'P 1'
_cell_length_a   7.76806512
_cell_length_b   7.76806541
_cell_length_c   7.76806581
_cell_angle_alpha   110.80750585
_cell_angle_beta   110.69601050
_cell_angle_gamma   106.93945008
_symmetry_Int_Tables_number   1
_chemical_formula_structural   Sc12ZnCo4Pb
_chemical_formula_sum   'Sc12 Zn1 Co4 Pb1'
_cell_volume   360.31585226
_cell_formula_units_Z   1
loop_
 _symmetry_equiv_pos_site_id
 _symmetry_equiv_pos_as_xyz
  1  'x, y, z'
loop_
 _atom_site_type_symbol
 _atom_site_label
 _atom_site_symmetry_multiplicity
 _atom_site_fract_x
 _atom_site_fract_y
 _atom_site_fract_z
 _atom_site_occupancy
  Sc  Sc0  1  0.43477842  0.22542684  0.20935059  1
  Sc  Sc1  1  0.56522158  0.77457316  0.79064941  1
  Sc  Sc2  1  0.01607525  0.22542684  0.79064941  1
  Sc  Sc3  1  0.98392475  0.77457316  0.20935059  1
  Sc  Sc4  1  0.31198079  0.61351727  0.30153649  1
  Sc  Sc5  1  0.68801921  0.38648273  0.69846351  1
  Sc  Sc6  1  0.31198079  0.01044230  0.69846351  1
  Sc  Sc7  1  0.68801921  0.98955770  0.30153649  1
  Sc  Sc8  1  0.18553671  0.28177134  0.46730805  1
  Sc  Sc9  1  0.81446329  0.71822766  0.53269195  1
  Sc  Sc10  1  0.18553671  0.71822766  0.90376538  1
  Sc  Sc11  1  0.81446329  0.28177134  0.09623462  1
  Zn  Zn0  1  0.00000000  0.00000000  0.00000000  1
  Co  Co0  1  0.37276634  1.00000000  0.37276634  1
  Co  Co1  1  0.62723366  0.00000000  0.62723366  1
  Co  Co2  1  0.11673570  0.61673570  0.50000000  1
  Co  Co3  1  0.88326430  0.38326430  0.50000000  1
  Pb  Pb0  1  0.50000000  0.50000000  0.00000000  1
loop_
_geom_bond_atom_site_label_1
_geom_bond_atom_site_label_2
_geom_bond_distance
_geom_bond_site_symmetry_2
Sc0 Zn0 2.786775 1_555
Sc1 Zn0 2.786775 1_666
Sc2 Zn0 2.786768 1_556
Sc3 Zn0 2.786768 1_665
Sc8 Zn0 2.977303 1_555
Sc9 Zn0 2.977304 1_666
Sc10 Zn0 2.977309 1_566
Sc11 Zn0 2.977303 1_655
Co0 Co1 2.247887 1_565
Co0 Sc3 2.535719 1_455
Co0 Sc0 2.535727 1_565
Co0 Sc7 2.711365 1_555
Co0 Sc5 2.711368 1_565
Co0 Sc4 2.711369 1_555
Co0 Sc6 2.711373 1_565
Co0 Sc8 2.985562 1_565
Co0 Sc10 2.985563 1_554
Co1 Sc2 2.535719 1_655
Co1 Sc1 2.535727 1_545
Co1 Sc6 2.711365 1_555
Co1 Sc4 2.711368 1_545
Co1 Sc5 2.711369 1_555
Co1 Sc7 2.711373 1_545
Co1 Sc11 2.985562 1_556
Co1 Sc9 2.985568 1_545
Co2 Co3 2.159107 1_455
Co2 Sc6 2.514966 1_565
Co2 Sc4 2.514979 1_555
Co2 Sc9 2.749086 1_455
Co2 Sc11 2.749090 1_455
Co2 Sc8 2.749090 1_555
Co2 Sc10 2.749092 1_555
Co2 Sc1 2.953415 1_555
Co2 Sc3 2.953420 1_455
Co3 Sc7 2.514966 1_545
Co3 Sc5 2.514979 1_555
Co3 Sc9 2.749083 1_555
Co3 Sc10 2.749088 1_655
Co3 Sc8 2.749090 1_655
Co3 Sc11 2.749090 1_555
Co3 Sc0 2.953415 1_555
Co3 Sc2 2.953420 1_655
Pb0 Sc1 3.141279 1_554
Pb0 Sc0 3.141279 1_555
Pb0 Sc3 3.141286 1_555
Pb0 Sc2 3.141286 1_554
Pb0 Sc4 3.177823 1_555
Pb0 Sc5 3.177823 1_554
Pb0 Sc7 3.177836 1_555
Pb0 Sc6 3.177836 1_554
Pb0 Sc10 3.379698 1_554
Pb0 Sc11 3.379704 1_555
Pb0 Sc8 3.379704 1_554
Pb0 Sc9 3.379706 1_555
