# generated using pymatgen
data_K2Ba(RuO4)2
_symmetry_space_group_name_H-M   'P 1'
_cell_length_a   7.98875966
_cell_length_b   7.98875199
_cell_length_c   7.98875801
_cell_angle_alpha   43.44043228
_cell_angle_beta   43.44037280
_cell_angle_gamma   43.44038267
_symmetry_Int_Tables_number   1
_chemical_formula_structural   K2Ba(RuO4)2
_chemical_formula_sum   'K2 Ba1 Ru2 O8'
_cell_volume   218.68627650
_cell_formula_units_Z   1
loop_
 _symmetry_equiv_pos_site_id
 _symmetry_equiv_pos_as_xyz
  1  'x, y, z'
loop_
 _atom_site_type_symbol
 _atom_site_label
 _atom_site_symmetry_multiplicity
 _atom_site_fract_x
 _atom_site_fract_y
 _atom_site_fract_z
 _atom_site_occupancy
  K  K0  1  0.19931805  0.19931705  0.19931905  1
  K  K1  1  0.80068195  0.80068295  0.80068095  1
  Ba  Ba0  1  0.00000000  0.00000000  0.00000000  1
  Ru  Ru0  1  0.40625732  0.40625632  0.40626232  1
  Ru  Ru1  1  0.59374268  0.59374368  0.59373768  1
  O  O0  1  0.73216486  0.73216086  0.23931034  1
  O  O1  1  0.76068566  0.26784114  0.26783814  1
  O  O2  1  0.26784014  0.76068566  0.26783614  1
  O  O3  1  0.32418507  0.32418407  0.32418407  1
  O  O4  1  0.67581493  0.67581593  0.67581593  1
  O  O5  1  0.73216086  0.23931534  0.73216186  1
  O  O6  1  0.23931534  0.73215986  0.73215986  1
  O  O7  1  0.26783514  0.26783914  0.76068966  1
loop_
_geom_bond_atom_site_label_1
_geom_bond_atom_site_label_2
_geom_bond_distance
_geom_bond_site_symmetry_2
K0 O3 2.705586 1_555
K0 O7 2.782495 1_554
K0 O1 2.782501 1_455
K0 O2 2.782508 1_545
K0 O0 3.053466 1_455
K0 O6 3.053472 1_545
K0 O5 3.053479 1_455
K0 O5 3.053480 1_554
K0 O6 3.053482 1_554
K0 O0 3.053485 1_545
K1 O4 2.705586 1_555
K1 O0 2.782495 1_556
K1 O6 2.782504 1_655
K1 O5 2.782511 1_565
K1 O7 3.053466 1_655
K1 O2 3.053472 1_556
K1 O1 3.053473 1_556
K1 O1 3.053481 1_565
K1 O7 3.053485 1_565
K1 O2 3.053488 1_655
Ba0 O7 2.753041 1_554
Ba0 O0 2.753041 1_445
Ba0 O2 2.753043 1_545
Ba0 O5 2.753046 1_454
Ba0 O1 2.753058 1_455
Ba0 O6 2.753061 1_544
O0 Ru1 1.773351 1_555
O1 Ru0 1.773355 1_555
O2 Ru0 1.773358 1_555
O3 Ru0 1.778373 1_555
O4 Ru1 1.778373 1_555
O5 Ru1 1.773353 1_555
O6 Ru1 1.773350 1_555
O7 Ru0 1.773351 1_555
