# generated using pymatgen
data_Ti10AlSnSb4
_symmetry_space_group_name_H-M   'P 1'
_cell_length_a   7.87744072
_cell_length_b   7.87727140
_cell_length_c   7.87744116
_cell_angle_alpha   96.50629977
_cell_angle_beta   96.50929239
_cell_angle_gamma   140.65497176
_symmetry_Int_Tables_number   1
_chemical_formula_structural   Ti10AlSnSb4
_chemical_formula_sum   'Ti10 Al1 Sn1 Sb4'
_cell_volume   291.81280668
_cell_formula_units_Z   1
loop_
 _symmetry_equiv_pos_site_id
 _symmetry_equiv_pos_as_xyz
  1  'x, y, z'
loop_
 _atom_site_type_symbol
 _atom_site_label
 _atom_site_symmetry_multiplicity
 _atom_site_fract_x
 _atom_site_fract_y
 _atom_site_fract_z
 _atom_site_occupancy
  Ti  Ti0  1  0.56516484  0.71249926  0.30008279  1
  Ti  Ti1  1  0.41237295  0.26504320  0.69995359  1
  Ti  Ti2  1  0.75007408  0.25000000  0.50007408  1
  Ti  Ti3  1  0.24996604  0.75000000  0.49996604  1
  Ti  Ti4  1  0.71248784  0.41246024  0.14731949  1
  Ti  Ti5  1  0.26499854  0.56510858  0.85266898  1
  Ti  Ti6  1  0.93491039  0.23495680  0.14732874  1
  Ti  Ti7  1  0.23485925  0.08753976  0.30002961  1
  Ti  Ti8  1  0.08758253  0.78750074  0.85266458  1
  Ti  Ti9  1  0.78755939  0.93489142  0.69989096  1
  Al  Al0  1  0.25000975  0.25000000  0.00000975  1
  Sn  Sn0  1  0.75001411  0.75000000  0.00001411  1
  Sb  Sb0  1  0.33658361  0.83658358  0.17305011  1
  Sb  Sb1  1  0.16353927  0.33656661  0.49997549  1
  Sb  Sb2  1  0.66340788  0.16343339  0.82697166  1
  Sb  Sb3  1  0.83646653  0.66341642  0.50000004  1
loop_
_geom_bond_atom_site_label_1
_geom_bond_atom_site_label_2
_geom_bond_distance
_geom_bond_site_symmetry_2
Ti2 Ti3 2.651862 1_655
Ti2 Ti3 2.651862 1_545
Al0 Sn0 2.651861 1_445
Al0 Sn0 2.651861 1_555
Al0 Ti4 2.784002 1_555
Al0 Ti7 2.784017 1_555
Al0 Ti6 2.784121 1_455
Al0 Ti1 2.784125 1_554
Al0 Ti8 2.784333 1_544
Al0 Ti0 2.784337 1_555
Al0 Ti9 2.784432 1_444
Al0 Ti5 2.784432 1_554
Sn0 Ti4 2.839876 1_555
Sn0 Ti7 2.839886 1_665
Sn0 Ti6 2.840388 1_565
Sn0 Ti1 2.840390 1_554
Sn0 Ti8 2.840484 1_654
Sn0 Ti0 2.840487 1_555
Sn0 Ti9 2.840911 1_554
Sn0 Ti5 2.840917 1_554
Sb0 Ti3 2.763943 1_555
Sb0 Ti2 2.764270 1_565
Sb0 Ti7 2.781066 1_565
Sb0 Ti0 2.781079 1_555
Sb0 Ti5 2.801721 1_554
Sb0 Ti8 2.801795 1_554
Sb0 Ti4 2.992662 1_565
Sb0 Ti6 2.992735 1_455
Sb0 Ti6 3.096412 1_565
Sb0 Ti4 3.096624 1_455
Sb1 Ti2 2.763847 1_455
Sb1 Ti3 2.764140 1_555
Sb1 Ti6 2.780909 1_455
Sb1 Ti5 2.781446 1_555
Sb1 Ti7 2.801705 1_555
Sb1 Ti1 2.801871 1_555
Sb1 Ti0 2.992303 1_555
Sb1 Ti9 2.992648 1_445
Sb1 Ti9 3.096192 1_555
Sb1 Ti0 3.096380 1_445
Sb2 Ti2 2.763841 1_555
Sb2 Ti3 2.764134 1_545
Sb2 Ti1 2.780893 1_555
Sb2 Ti9 2.781440 1_545
Sb2 Ti4 2.801716 1_556
Sb2 Ti6 2.801875 1_556
Sb2 Ti8 2.992303 1_545
Sb2 Ti5 2.992644 1_655
Sb2 Ti5 3.096198 1_545
Sb2 Ti8 3.096380 1_655
Sb3 Ti3 2.763943 1_655
Sb3 Ti2 2.764270 1_555
Sb3 Ti4 2.781061 1_555
Sb3 Ti8 2.781070 1_655
Sb3 Ti9 2.801731 1_555
Sb3 Ti0 2.801785 1_555
Sb3 Ti7 2.992660 1_555
Sb3 Ti1 2.992737 1_665
Sb3 Ti1 3.096409 1_555
Sb3 Ti7 3.096613 1_665
