# generated using pymatgen
data_Hf5Sc(TiOs2)2
_symmetry_space_group_name_H-M   'P 1'
_cell_length_a   8.54004716
_cell_length_b   8.54004733
_cell_length_c   8.53328080
_cell_angle_alpha   60.02621041
_cell_angle_beta   60.02620975
_cell_angle_gamma   59.94759196
_symmetry_Int_Tables_number   1
_chemical_formula_structural   Hf5Sc(TiOs2)2
_chemical_formula_sum   'Hf10 Sc2 Ti4 Os8'
_cell_volume   440.06930774
_cell_formula_units_Z   2
loop_
 _symmetry_equiv_pos_site_id
 _symmetry_equiv_pos_as_xyz
  1  'x, y, z'
loop_
 _atom_site_type_symbol
 _atom_site_label
 _atom_site_symmetry_multiplicity
 _atom_site_fract_x
 _atom_site_fract_y
 _atom_site_fract_z
 _atom_site_occupancy
  Hf  Hf0  1  0.80670020  0.19329980  0.80670020  1
  Hf  Hf1  1  0.19329980  0.80670020  0.19329980  1
  Hf  Hf2  1  0.19329980  0.80670020  0.80670020  1
  Hf  Hf3  1  0.80670020  0.19329980  0.19329980  1
  Hf  Hf4  1  0.44164902  0.44164902  0.05835098  1
  Hf  Hf5  1  0.05835098  0.05835098  0.44164902  1
  Hf  Hf6  1  0.44295987  0.05704013  0.44295987  1
  Hf  Hf7  1  0.05704013  0.44295987  0.05704013  1
  Hf  Hf8  1  0.05704013  0.44295987  0.44295987  1
  Hf  Hf9  1  0.44295987  0.05704013  0.05704013  1
  Sc  Sc0  1  0.80933404  0.80933404  0.19066596  1
  Sc  Sc1  1  0.19066596  0.19066596  0.80933404  1
  Ti  Ti0  1  0.12528958  0.62309699  0.62580671  1
  Ti  Ti1  1  0.62309699  0.12528958  0.62580671  1
  Ti  Ti2  1  0.62580671  0.62580671  0.12528958  1
  Ti  Ti3  1  0.62580671  0.62580671  0.62309699  1
  Os  Os0  1  0.75771475  0.41074277  0.41577074  1
  Os  Os1  1  0.41074277  0.75771475  0.41577074  1
  Os  Os2  1  0.41577074  0.41577074  0.75771475  1
  Os  Os3  1  0.41577074  0.41577074  0.41074277  1
  Os  Os4  1  0.49402759  0.83309774  0.83643784  1
  Os  Os5  1  0.83309774  0.49402759  0.83643784  1
  Os  Os6  1  0.83643784  0.83643784  0.49402759  1
  Os  Os7  1  0.83643784  0.83643784  0.83309774  1
loop_
_geom_bond_atom_site_label_1
_geom_bond_atom_site_label_2
_geom_bond_distance
_geom_bond_site_symmetry_2
Hf0 Os7 2.828289 1_545
Hf0 Os5 2.828297 1_555
Hf0 Os2 3.029559 1_555
Hf0 Os0 3.029559 1_555
Hf0 Ti1 3.066768 1_555
Hf0 Ti3 3.066769 1_555
Hf0 Hf5 3.172971 1_655
Hf0 Hf4 3.172971 1_556
Hf0 Hf9 3.173803 1_556
Hf0 Hf8 3.173803 1_655
Hf0 Sc1 3.279127 1_655
Hf0 Sc0 3.279127 1_546
Hf0 Hf3 3.298963 1_556
Hf0 Hf2 3.298963 1_645
Hf1 Os4 2.828292 1_554
Hf1 Os6 2.828292 1_455
Hf1 Os1 3.029552 1_555
Hf1 Os3 3.029556 1_555
Hf1 Ti2 3.066769 1_555
Hf1 Ti0 3.066769 1_555
Hf1 Hf5 3.172971 1_565
Hf1 Hf4 3.172971 1_555
Hf1 Hf9 3.173802 1_565
Hf1 Hf8 3.173803 1_555
Hf1 Sc0 3.279127 1_455
Hf1 Sc1 3.279127 1_564
Hf1 Hf2 3.298963 1_554
Hf1 Hf3 3.298963 1_465
Hf2 Os7 2.828289 1_455
Hf2 Os4 2.828297 1_555
Hf2 Os1 3.029559 1_555
Hf2 Os2 3.029559 1_555
Hf2 Ti0 3.066768 1_555
Hf2 Ti3 3.066769 1_555
Hf2 Hf5 3.172971 1_565
Hf2 Hf4 3.172971 1_556
Hf2 Hf7 3.173803 1_556
Hf2 Hf6 3.173803 1_565
Hf2 Sc1 3.279127 1_565
Hf2 Sc0 3.279127 1_456
Hf3 Os5 2.828292 1_554
Hf3 Os6 2.828292 1_545
Hf3 Os0 3.029552 1_555
Hf3 Os3 3.029556 1_555
Hf3 Ti1 3.066769 1_555
Hf3 Ti2 3.066769 1_555
Hf3 Hf5 3.172971 1_655
Hf3 Hf4 3.172971 1_555
Hf3 Hf7 3.173802 1_655
Hf3 Hf6 3.173803 1_555
Hf3 Sc0 3.279127 1_545
Hf3 Sc1 3.279127 1_654
Hf4 Os3 2.803734 1_555
Hf4 Os2 2.803742 1_554
Hf4 Os5 3.047540 1_554
Hf4 Os4 3.047540 1_554
Hf4 Ti2 3.089621 1_555
Hf4 Ti3 3.089622 1_554
Hf4 Hf7 3.284579 1_555
Hf4 Hf9 3.284580 1_555
Hf4 Hf8 3.284580 1_555
Hf4 Hf6 3.284580 1_555
Hf5 Os1 2.803738 1_545
Hf5 Os0 2.803738 1_455
Hf5 Os6 3.047533 1_445
Hf5 Os7 3.047537 1_445
Hf5 Ti1 3.089621 1_455
Hf5 Ti0 3.089622 1_545
Hf5 Hf6 3.284579 1_555
Hf5 Hf8 3.284580 1_555
Hf5 Hf9 3.284580 1_555
Hf5 Hf7 3.284580 1_555
Hf6 Os3 2.832797 1_555
Hf6 Os1 2.832805 1_545
Hf6 Os4 3.055008 1_545
Hf6 Os6 3.055008 1_545
Hf6 Ti1 3.057121 1_555
Hf6 Ti3 3.057121 1_545
Hf6 Sc1 3.176519 1_555
Hf6 Sc0 3.176520 1_545
Hf6 Hf9 3.293162 1_555
Hf6 Hf8 3.293162 1_555
Hf7 Os2 2.832800 1_554
Hf7 Os0 2.832800 1_455
Hf7 Os5 3.055000 1_454
Hf7 Os7 3.055005 1_454
Hf7 Ti2 3.057121 1_455
Hf7 Ti0 3.057121 1_554
Hf7 Sc1 3.176519 1_554
Hf7 Sc0 3.176520 1_455
Hf7 Hf8 3.293162 1_555
Hf7 Hf9 3.293162 1_555
Hf8 Os3 2.832797 1_555
Hf8 Os0 2.832805 1_455
Hf8 Os5 3.055008 1_455
Hf8 Os6 3.055008 1_455
Hf8 Ti0 3.057121 1_555
Hf8 Ti3 3.057121 1_455
Hf8 Sc1 3.176519 1_555
Hf8 Sc0 3.176520 1_455
Hf9 Os2 2.832800 1_554
Hf9 Os1 2.832800 1_545
Hf9 Os4 3.055000 1_544
Hf9 Os7 3.055005 1_544
Hf9 Ti1 3.057121 1_554
Hf9 Ti2 3.057121 1_545
Hf9 Sc1 3.176519 1_554
Hf9 Sc0 3.176519 1_545
Sc0 Ti2 3.071167 1_555
Sc0 Ti3 3.071168 1_555
Sc1 Ti1 3.071168 1_555
Sc1 Ti0 3.071168 1_555
Os0 Ti1 2.619003 1_555
Os0 Ti2 2.637303 1_555
Os0 Ti3 2.637310 1_555
Os0 Os3 2.920466 1_555
Os0 Os2 2.920466 1_555
Os0 Os1 2.960810 1_555
Os0 Sc0 3.097519 1_555
Os1 Ti0 2.619003 1_555
Os1 Ti2 2.637303 1_555
Os1 Ti3 2.637310 1_555
Os1 Os3 2.920466 1_555
Os1 Os2 2.920466 1_555
Os1 Sc0 3.097519 1_555
Os2 Ti3 2.619010 1_555
Os2 Ti0 2.637303 1_555
Os2 Ti1 2.637303 1_555
Os2 Os3 2.960809 1_555
Os2 Sc1 3.097512 1_555
Os3 Ti2 2.619008 1_555
Os3 Ti0 2.637308 1_555
Os3 Ti1 2.637308 1_555
Os3 Sc1 3.097516 1_555
Os4 Ti2 2.625303 1_556
Os4 Ti3 2.625309 1_555
Os4 Ti1 2.639314 1_565
Os4 Sc1 2.838915 1_565
Os4 Os5 2.893381 1_555
Os4 Os7 2.924384 1_555
Os4 Os6 2.924384 1_555
Os5 Ti2 2.625303 1_556
Os5 Ti3 2.625309 1_555
Os5 Ti0 2.639314 1_655
Os5 Sc1 2.838915 1_655
Os5 Os7 2.924384 1_555
Os5 Os6 2.924384 1_555
Os6 Ti0 2.625303 1_655
Os6 Ti1 2.625303 1_565
Os6 Ti3 2.639320 1_555
Os6 Sc0 2.838920 1_555
Os6 Os7 2.893381 1_555
Os7 Ti0 2.625307 1_655
Os7 Ti1 2.625307 1_565
Os7 Ti2 2.639318 1_556
Os7 Sc0 2.838911 1_556
