# generated using pymatgen
data_Rb4SbAsCl12
_symmetry_space_group_name_H-M   'P 1'
_cell_length_a   7.18446782
_cell_length_b   7.18446782
_cell_length_c   10.12388883
_cell_angle_alpha   90.00000000
_cell_angle_beta   90.00000000
_cell_angle_gamma   90.00000000
_symmetry_Int_Tables_number   1
_chemical_formula_structural   Rb4SbAsCl12
_chemical_formula_sum   'Rb4 Sb1 As1 Cl12'
_cell_volume   522.56049590
_cell_formula_units_Z   1
loop_
 _symmetry_equiv_pos_site_id
 _symmetry_equiv_pos_as_xyz
  1  'x, y, z'
loop_
 _atom_site_type_symbol
 _atom_site_label
 _atom_site_symmetry_multiplicity
 _atom_site_fract_x
 _atom_site_fract_y
 _atom_site_fract_z
 _atom_site_occupancy
  Rb  Rb0  1  0.50000000  0.00000000  0.77886154  1
  Rb  Rb1  1  0.00000000  0.50000000  0.22113846  1
  Rb  Rb2  1  0.50000000  0.00000000  0.22113846  1
  Rb  Rb3  1  0.00000000  0.50000000  0.77886154  1
  Sb  Sb0  1  0.50000000  0.50000000  0.50000000  1
  As  As0  1  0.00000000  0.00000000  0.00000000  1
  Cl  Cl0  1  0.00000000  0.00000000  0.75289789  1
  Cl  Cl1  1  0.50000000  0.50000000  0.26295387  1
  Cl  Cl2  1  0.73614878  0.73614878  0.50000000  1
  Cl  Cl3  1  0.24539453  0.24539453  0.00000000  1
  Cl  Cl4  1  0.73614878  0.26385122  0.50000000  1
  Cl  Cl5  1  0.24539453  0.75460547  0.00000000  1
  Cl  Cl6  1  0.00000000  0.00000000  0.24710211  1
  Cl  Cl7  1  0.50000000  0.50000000  0.73704613  1
  Cl  Cl8  1  0.26385122  0.26385122  0.50000000  1
  Cl  Cl9  1  0.75460547  0.75460547  0.00000000  1
  Cl  Cl10  1  0.26385122  0.73614878  0.50000000  1
  Cl  Cl11  1  0.75460547  0.24539453  0.00000000  1
loop_
_geom_bond_atom_site_label_1
_geom_bond_atom_site_label_2
_geom_bond_distance
_geom_bond_site_symmetry_2
As0 Cl3 2.493300 1_555
As0 Cl5 2.493300 1_545
As0 Cl11 2.493300 1_455
As0 Cl9 2.493300 1_445
As0 Cl6 2.501634 1_555
As0 Cl0 2.501634 1_554
Cl0 Rb3 3.601838 1_545
Cl0 Rb3 3.601838 1_555
Cl0 Rb0 3.601838 1_455
Cl0 Rb0 3.601838 1_555
Cl1 Sb0 2.399829 1_555
Cl1 Rb1 3.617092 1_555
Cl1 Rb2 3.617092 1_555
Cl1 Rb1 3.617092 1_655
Cl1 Rb2 3.617092 1_565
Cl2 Sb0 2.399359 1_555
Cl2 Rb0 3.800280 1_565
Cl2 Rb3 3.800280 1_655
Cl2 Rb2 3.800280 1_565
Cl2 Rb1 3.800280 1_655
Cl3 Rb1 3.386208 1_555
Cl3 Rb2 3.386208 1_555
Cl3 Rb0 3.386208 1_554
Cl3 Rb3 3.386208 1_554
Cl4 Sb0 2.399359 1_555
Cl4 Rb0 3.800280 1_555
Cl4 Rb2 3.800280 1_555
Cl4 Rb3 3.800280 1_655
Cl4 Rb1 3.800280 1_655
Cl5 Rb1 3.386208 1_555
Cl5 Rb3 3.386208 1_554
Cl5 Rb2 3.386208 1_565
Cl5 Rb0 3.386208 1_564
Cl6 Rb2 3.601838 1_455
Cl6 Rb1 3.601838 1_545
Cl6 Rb2 3.601838 1_555
Cl6 Rb1 3.601838 1_555
Cl7 Sb0 2.399829 1_555
Cl7 Rb3 3.617092 1_555
Cl7 Rb0 3.617092 1_565
Cl7 Rb3 3.617092 1_655
Cl7 Rb0 3.617092 1_555
Cl8 Sb0 2.399359 1_555
Cl8 Rb3 3.800280 1_555
Cl8 Rb0 3.800280 1_555
Cl8 Rb1 3.800280 1_555
Cl8 Rb2 3.800280 1_555
Cl9 Rb2 3.386208 1_565
Cl9 Rb1 3.386208 1_655
Cl9 Rb3 3.386208 1_654
Cl9 Rb0 3.386208 1_564
Cl10 Sb0 2.399359 1_555
Cl10 Rb3 3.800280 1_555
Cl10 Rb1 3.800280 1_555
Cl10 Rb0 3.800280 1_565
Cl10 Rb2 3.800280 1_565
Cl11 Rb2 3.386208 1_555
Cl11 Rb0 3.386208 1_554
Cl11 Rb1 3.386208 1_655
Cl11 Rb3 3.386208 1_654
