# generated using pymatgen
data_Lu5NiBiAs
_symmetry_space_group_name_H-M   'P 1'
_cell_length_a   8.24558415
_cell_length_b   8.24558448
_cell_length_c   8.65562693
_cell_angle_alpha   125.33007298
_cell_angle_beta   125.33007320
_cell_angle_gamma   77.63805157
_symmetry_Int_Tables_number   1
_chemical_formula_structural   Lu5NiBiAs
_chemical_formula_sum   'Lu10 Ni2 Bi2 As2'
_cell_volume   385.23837388
_cell_formula_units_Z   2
loop_
 _symmetry_equiv_pos_site_id
 _symmetry_equiv_pos_as_xyz
  1  'x, y, z'
loop_
 _atom_site_type_symbol
 _atom_site_label
 _atom_site_symmetry_multiplicity
 _atom_site_fract_x
 _atom_site_fract_y
 _atom_site_fract_z
 _atom_site_occupancy
  Lu  Lu0  1  0.00000000  0.00000000  0.00000000  1
  Lu  Lu1  1  0.50000000  0.50000000  0.00000000  1
  Lu  Lu2  1  0.77009409  0.27009409  0.77209990  1
  Lu  Lu3  1  0.22990591  0.72990591  0.22790010  1
  Lu  Lu4  1  0.49799419  0.99799419  0.22790010  1
  Lu  Lu5  1  0.30064113  0.46299607  0.50000000  1
  Lu  Lu6  1  0.03700393  0.19935887  0.50000000  1
  Lu  Lu7  1  0.50200581  0.00200581  0.77209990  1
  Lu  Lu8  1  0.69935887  0.53700393  0.50000000  1
  Lu  Lu9  1  0.96299607  0.80064113  0.50000000  1
  Ni  Ni0  1  0.63560614  0.86439386  0.50000000  1
  Ni  Ni1  1  0.36439386  0.13560614  0.50000000  1
  Bi  Bi0  1  0.25000000  0.25000000  0.00000000  1
  Bi  Bi1  1  0.75000000  0.75000000  0.00000000  1
  As  As0  1  0.15337061  0.65337061  0.80674322  1
  As  As1  1  0.84662939  0.34662939  0.19325678  1
loop_
_geom_bond_atom_site_label_1
_geom_bond_atom_site_label_2
_geom_bond_distance
_geom_bond_site_symmetry_2
Lu0 Ni1 3.132135 1_555
Lu0 Ni0 3.132135 1_444
Lu1 Ni0 3.132135 1_555
Lu1 Ni1 3.132135 1_554
Lu2 Ni1 2.724464 1_555
Lu2 Ni0 2.724464 1_545
Lu3 Ni0 2.724464 1_555
Lu3 Ni1 2.724464 1_565
Lu4 Ni1 2.724464 1_565
Lu4 Ni0 2.724464 1_555
Lu5 Ni1 2.637450 1_555
Lu6 Ni1 2.637450 1_555
Lu7 Ni0 2.724464 1_545
Lu7 Ni1 2.724464 1_555
Lu8 Ni0 2.637450 1_555
Lu9 Ni0 2.637450 1_555
Ni0 Ni1 2.803710 1_565
Bi0 Lu0 3.212190 1_555
Bi0 Lu1 3.212190 1_555
Bi0 Lu2 3.262913 1_454
Bi0 Lu7 3.262913 1_554
Bi0 Lu3 3.262913 1_555
Bi0 Lu4 3.262913 1_545
Bi0 Lu8 3.379620 1_555
Bi0 Lu9 3.379620 1_444
Bi0 Lu6 3.379620 1_554
Bi0 Lu5 3.379620 1_555
Bi1 Lu0 3.212190 1_665
Bi1 Lu1 3.212190 1_555
Bi1 Lu3 3.262913 1_655
Bi1 Lu4 3.262913 1_555
Bi1 Lu2 3.262913 1_554
Bi1 Lu7 3.262913 1_564
Bi1 Lu5 3.379620 1_554
Bi1 Lu6 3.379620 1_665
Bi1 Lu9 3.379620 1_555
Bi1 Lu8 3.379620 1_554
As0 Lu1 2.817075 1_556
As0 Lu0 2.817075 1_566
As0 Lu3 2.989045 1_556
As0 Lu4 2.989059 1_556
As0 Lu8 3.013363 1_455
As0 Lu6 3.013363 1_555
As0 Lu5 3.013378 1_555
As0 Lu9 3.013378 1_455
As1 Lu1 2.817075 1_555
As1 Lu0 2.817075 1_655
As1 Lu2 2.989045 1_554
As1 Lu7 2.989059 1_554
As1 Lu5 3.013363 1_655
As1 Lu9 3.013363 1_555
As1 Lu8 3.013378 1_555
As1 Lu6 3.013378 1_655
