# generated using pymatgen
data_Rb2FeSi3O8
_symmetry_space_group_name_H-M   'P 1'
_cell_length_a   5.18881565
_cell_length_b   6.92061021
_cell_length_c   6.80111873
_cell_angle_alpha   78.35285766
_cell_angle_beta   72.32700995
_cell_angle_gamma   68.65497654
_symmetry_Int_Tables_number   1
_chemical_formula_structural   Rb2FeSi3O8
_chemical_formula_sum   'Rb2 Fe1 Si3 O8'
_cell_volume   215.58612612
_cell_formula_units_Z   1
loop_
 _symmetry_equiv_pos_site_id
 _symmetry_equiv_pos_as_xyz
  1  'x, y, z'
loop_
 _atom_site_type_symbol
 _atom_site_label
 _atom_site_symmetry_multiplicity
 _atom_site_fract_x
 _atom_site_fract_y
 _atom_site_fract_z
 _atom_site_occupancy
  Rb  Rb0  1  0.95782617  0.29562046  0.82765984  1
  Rb  Rb1  1  0.05799726  0.69065458  0.18793742  1
  Fe  Fe0  1  0.64803253  0.87836632  0.78361919  1
  Si  Si0  1  0.33970455  0.09128083  0.25591613  1
  Si  Si1  1  0.68194819  0.28466399  0.41115853  1
  Si  Si2  1  0.32985528  0.70465549  0.59465131  1
  O  O0  1  0.01573708  0.26104366  0.28519095  1
  O  O1  1  0.44803264  0.67503794  0.79425499  1
  O  O2  1  0.54881486  0.22470121  0.24888683  1
  O  O3  1  0.01404729  0.69311669  0.63954688  1
  O  O4  1  0.34713792  0.92916628  0.46276135  1
  O  O5  1  0.64578485  0.15488074  0.63159617  1
  O  O6  1  0.42516591  0.98331908  0.05119731  1
  O  O7  1  0.53991447  0.53549272  0.42362210  1
loop_
_geom_bond_atom_site_label_1
_geom_bond_atom_site_label_2
_geom_bond_distance
_geom_bond_site_symmetry_2
Fe0 O3 1.953327 1_655
Fe0 O6 1.954769 1_556
Fe0 O5 1.980753 1_565
Fe0 O1 2.009637 1_555
O0 Si0 1.642944 1_555
O0 Si1 1.646186 1_455
O0 Rb1 2.986273 1_555
O0 Rb0 3.169402 1_454
O1 Si2 1.600779 1_555
O1 Rb1 2.818504 1_556
O1 Rb0 3.001890 1_555
O2 Si0 1.646867 1_555
O2 Si1 1.650430 1_555
O2 Rb0 3.074270 1_554
O3 Si2 1.602019 1_555
O3 Rb0 2.868099 1_455
O3 Rb1 3.013157 1_555
O4 Si0 1.613511 1_565
O4 Si2 1.648226 1_555
O5 Si1 1.580438 1_555
O5 Rb0 2.886464 1_555
O5 Rb0 3.251568 1_455
O6 Si0 1.580318 1_565
O6 Rb1 3.093478 1_555
O6 Rb0 3.155839 1_464
O7 Si1 1.629054 1_555
O7 Si2 1.662145 1_555
O7 Rb1 3.120762 1_655
O7 Rb1 3.123989 1_555
