# generated using pymatgen
data_Zr10Sn5BiB2
_symmetry_space_group_name_H-M   'P 1'
_cell_length_a   8.56533322
_cell_length_b   8.56533319
_cell_length_c   5.83320037
_cell_angle_alpha   90.00000000
_cell_angle_beta   90.00000000
_cell_angle_gamma   119.83053237
_symmetry_Int_Tables_number   1
_chemical_formula_structural   Zr10Sn5BiB2
_chemical_formula_sum   'Zr10 Sn5 Bi1 B2'
_cell_volume   371.24887956
_cell_formula_units_Z   1
loop_
 _symmetry_equiv_pos_site_id
 _symmetry_equiv_pos_as_xyz
  1  'x, y, z'
loop_
 _atom_site_type_symbol
 _atom_site_label
 _atom_site_symmetry_multiplicity
 _atom_site_fract_x
 _atom_site_fract_y
 _atom_site_fract_z
 _atom_site_occupancy
  Zr  Zr0  1  0.66860701  0.33235247  0.00163848  1
  Zr  Zr1  1  0.33235247  0.66860701  0.00163848  1
  Zr  Zr2  1  0.33235247  0.66860701  0.49836152  1
  Zr  Zr3  1  0.66860701  0.33235247  0.49836152  1
  Zr  Zr4  1  0.77369972  0.77369972  0.75000000  1
  Zr  Zr5  1  0.22741720  0.99549587  0.75000000  1
  Zr  Zr6  1  0.99549587  0.22741720  0.75000000  1
  Zr  Zr7  1  0.22880121  0.22880121  0.25000000  1
  Zr  Zr8  1  0.77039244  0.00074911  0.25000000  1
  Zr  Zr9  1  0.00074911  0.77039244  0.25000000  1
  Sn  Sn0  1  0.59851708  0.99899079  0.75000000  1
  Sn  Sn1  1  0.99899079  0.59851708  0.75000000  1
  Sn  Sn2  1  0.60255553  0.60255553  0.25000000  1
  Sn  Sn3  1  0.40026348  0.00081990  0.25000000  1
  Sn  Sn4  1  0.00081990  0.40026348  0.25000000  1
  Bi  Bi0  1  0.39961365  0.39961365  0.75000000  1
  B  B0  1  0.00038303  0.00038303  0.00044148  1
  B  B1  1  0.00038303  0.00038303  0.49955852  1
loop_
_geom_bond_atom_site_label_1
_geom_bond_atom_site_label_2
_geom_bond_distance
_geom_bond_site_symmetry_2
Sn0 Zr6 2.961616 1_565
Sn0 Zr4 2.975880 1_555
Sn0 Zr1 2.990268 1_556
Sn0 Zr2 2.990268 1_555
Sn0 Zr0 2.993770 1_566
Sn0 Zr3 2.993770 1_565
Sn0 Zr5 3.163810 1_555
Sn0 Zr8 3.263742 1_566
Sn0 Zr8 3.263742 1_565
Sn1 Zr5 2.961616 1_655
Sn1 Zr4 2.975880 1_555
Sn1 Zr0 2.990268 1_556
Sn1 Zr3 2.990268 1_555
Sn1 Zr1 2.993770 1_656
Sn1 Zr2 2.993770 1_655
Sn1 Zr6 3.163810 1_555
Sn1 Zr9 3.263742 1_655
Sn1 Zr9 3.263742 1_656
Sn2 Zr8 2.970065 1_565
Sn2 Zr9 2.970065 1_655
Sn2 Zr3 3.012961 1_555
Sn2 Zr0 3.012961 1_555
Sn2 Zr2 3.012961 1_555
Sn2 Zr1 3.012961 1_555
Sn2 Zr7 3.209527 1_555
Sn2 Zr4 3.265954 1_555
Sn2 Zr4 3.265954 1_554
Sn3 Zr7 2.970387 1_555
Sn3 Zr9 2.980951 1_545
Sn3 Zr2 2.981185 1_545
Sn3 Zr1 2.981185 1_545
Sn3 Zr3 2.992013 1_555
Sn3 Zr0 2.992013 1_555
Sn3 Zr8 3.170580 1_555
Sn3 Zr5 3.260875 1_544
Sn3 Zr5 3.260875 1_545
Sn4 Zr7 2.970387 1_555
Sn4 Zr8 2.980951 1_455
Sn4 Zr3 2.981185 1_455
Sn4 Zr0 2.981185 1_455
Sn4 Zr2 2.992013 1_555
Sn4 Zr1 2.992013 1_555
Sn4 Zr9 3.170580 1_555
Sn4 Zr6 3.260875 1_455
Sn4 Zr6 3.260875 1_454
Bi0 Zr5 3.012903 1_545
Bi0 Zr6 3.012903 1_455
Bi0 Zr1 3.019203 1_556
Bi0 Zr2 3.019203 1_555
Bi0 Zr0 3.019203 1_556
Bi0 Zr3 3.019203 1_555
Bi0 Zr4 3.212376 1_555
Bi0 Zr7 3.264673 1_555
Bi0 Zr7 3.264673 1_556
B0 Zr4 2.433797 1_444
B0 Zr7 2.442656 1_555
B0 Zr6 2.449174 1_454
B0 Zr5 2.449174 1_544
B0 Zr9 2.450710 1_545
B0 Zr8 2.450710 1_455
B1 Zr4 2.433797 1_445
B1 Zr7 2.442656 1_555
B1 Zr6 2.449174 1_455
B1 Zr5 2.449174 1_545
B1 Zr9 2.450710 1_545
B1 Zr8 2.450710 1_455
