# generated using pymatgen
data_Ca3Cd(Ru2O7)2
_symmetry_space_group_name_H-M   'P 1'
_cell_length_a   7.17227249
_cell_length_b   7.17227274
_cell_length_c   7.17227269
_cell_angle_alpha   60.75208278
_cell_angle_beta   60.75207790
_cell_angle_gamma   60.75208007
_symmetry_Int_Tables_number   1
_chemical_formula_structural   Ca3Cd(Ru2O7)2
_chemical_formula_sum   'Ca3 Cd1 Ru4 O14'
_cell_volume   265.31570945
_cell_formula_units_Z   1
loop_
 _symmetry_equiv_pos_site_id
 _symmetry_equiv_pos_as_xyz
  1  'x, y, z'
loop_
 _atom_site_type_symbol
 _atom_site_label
 _atom_site_symmetry_multiplicity
 _atom_site_fract_x
 _atom_site_fract_y
 _atom_site_fract_z
 _atom_site_occupancy
  Ca  Ca0  1  0.12500000  0.62500000  0.12500000  1
  Ca  Ca1  1  0.12500000  0.12500000  0.62500000  1
  Ca  Ca2  1  0.62500000  0.12500000  0.12500000  1
  Cd  Cd0  1  0.12500000  0.12500000  0.12500000  1
  Ru  Ru0  1  0.62500000  0.12500000  0.62500000  1
  Ru  Ru1  1  0.62500000  0.62500000  0.12500000  1
  Ru  Ru2  1  0.12500000  0.62500000  0.62500000  1
  Ru  Ru3  1  0.62500000  0.62500000  0.62500000  1
  O  O0  1  0.69449351  0.69449351  0.30611151  1
  O  O1  1  0.94388849  0.55550649  0.55550649  1
  O  O2  1  0.56219919  0.94459957  0.94459957  1
  O  O3  1  0.94459957  0.94459957  0.56219919  1
  O  O4  1  0.94459957  0.56219919  0.94459957  1
  O  O5  1  0.55550649  0.94388849  0.55550649  1
  O  O6  1  0.30540043  0.68780081  0.30540043  1
  O  O7  1  0.30611151  0.69449351  0.69449351  1
  O  O8  1  0.68780081  0.30540043  0.30540043  1
  O  O9  1  0.69449351  0.30611151  0.69449351  1
  O  O10  1  0.55550649  0.55550649  0.94388849  1
  O  O11  1  0.30540043  0.30540043  0.68780081  1
  O  O12  1  0.24483911  0.24483911  0.24483911  1
  O  O13  1  0.00516089  0.00516089  0.00516089  1
loop_
_geom_bond_atom_site_label_1
_geom_bond_atom_site_label_2
_geom_bond_distance
_geom_bond_site_symmetry_2
Ca0 O13 2.248046 1_565
Ca0 O12 2.248046 1_555
Ca0 O6 2.515165 1_555
Ca0 O4 2.515165 1_454
Ca0 O10 2.584412 1_554
Ca0 O0 2.584412 1_455
Ca0 O7 2.584412 1_554
Ca0 O1 2.584412 1_455
Ca1 O13 2.248046 1_556
Ca1 O12 2.248046 1_555
Ca1 O11 2.515165 1_555
Ca1 O3 2.515165 1_445
Ca1 O5 2.584412 1_545
Ca1 O9 2.584412 1_455
Ca1 O1 2.584412 1_455
Ca1 O7 2.584412 1_545
Ca2 O13 2.248045 1_655
Ca2 O12 2.248045 1_555
Ca2 O8 2.515165 1_555
Ca2 O2 2.515165 1_544
Ca2 O5 2.584412 1_545
Ca2 O9 2.584412 1_554
Ca2 O10 2.584412 1_554
Ca2 O0 2.584412 1_545
Cd0 O12 2.093336 1_555
Cd0 O13 2.093336 1_555
Cd0 O2 2.624418 1_544
Cd0 O8 2.624418 1_455
Cd0 O3 2.624418 1_445
Cd0 O11 2.624418 1_554
Cd0 O4 2.624418 1_454
Cd0 O6 2.624418 1_545
O0 Ru1 1.921539 1_555
O0 Ru3 1.934624 1_555
O1 Ru2 1.921539 1_655
O1 Ru3 1.934624 1_555
O2 Ru0 1.947766 1_565
O2 Ru1 1.947766 1_556
O3 Ru0 1.947766 1_565
O3 Ru2 1.947766 1_655
O4 Ru1 1.947766 1_556
O4 Ru2 1.947766 1_655
O5 Ru0 1.921539 1_565
O5 Ru3 1.934624 1_555
O6 Ru1 1.947766 1_555
O6 Ru2 1.947766 1_555
O7 Ru2 1.921539 1_555
O7 Ru3 1.934624 1_555
O8 Ru0 1.947766 1_555
O8 Ru1 1.947766 1_555
O9 Ru0 1.921539 1_555
O9 Ru3 1.934624 1_555
O10 Ru1 1.921539 1_556
O10 Ru3 1.934624 1_555
O11 Ru0 1.947766 1_555
O11 Ru2 1.947766 1_555
