# generated using pymatgen
data_SrLi3As2Pd
_symmetry_space_group_name_H-M   'P 1'
_cell_length_a   8.48615655
_cell_length_b   8.48615660
_cell_length_c   8.48615658
_cell_angle_alpha   29.38591628
_cell_angle_beta   29.38591628
_cell_angle_gamma   29.38592011
_symmetry_Int_Tables_number   1
_chemical_formula_structural   SrLi3As2Pd
_chemical_formula_sum   'Sr1 Li3 As2 Pd1'
_cell_volume   130.22132828
_cell_formula_units_Z   1
loop_
 _symmetry_equiv_pos_site_id
 _symmetry_equiv_pos_as_xyz
  1  'x, y, z'
loop_
 _atom_site_type_symbol
 _atom_site_label
 _atom_site_symmetry_multiplicity
 _atom_site_fract_x
 _atom_site_fract_y
 _atom_site_fract_z
 _atom_site_occupancy
  Sr  Sr0  1  0.99817693  0.99817693  0.99817693  1
  Li  Li0  1  0.14336071  0.14336071  0.14336071  1
  Li  Li1  1  0.56028341  0.56028341  0.56028341  1
  Li  Li2  1  0.86357199  0.86357199  0.86357199  1
  As  As0  1  0.75484411  0.75484411  0.75484411  1
  As  As1  1  0.24756287  0.24756287  0.24756287  1
  Pd  Pd0  1  0.43220098  0.43220098  0.43220098  1
loop_
_geom_bond_atom_site_label_1
_geom_bond_atom_site_label_2
_geom_bond_distance
_geom_bond_site_symmetry_2
Li0 Pd0 2.711131 1_554
Li0 Pd0 2.711131 1_455
Li0 Pd0 2.711131 1_545
Li1 Pd0 3.117798 1_555
As0 Pd0 2.498987 1_556
As0 Pd0 2.498987 1_655
As0 Pd0 2.498987 1_565
As0 Li2 2.646667 1_555
As0 Li0 2.825175 1_665
As0 Li0 2.825175 1_656
As0 Li0 2.825175 1_566
As0 Sr0 3.313131 1_554
As0 Sr0 3.313131 1_455
As0 Sr0 3.313131 1_545
As1 Li1 2.535544 1_554
As1 Li1 2.535544 1_455
As1 Li1 2.535544 1_545
As1 Li0 2.536501 1_555
As1 Li2 2.774488 1_445
As1 Li2 2.774489 1_454
As1 Li2 2.774489 1_544
As1 Sr0 3.217598 1_445
As1 Sr0 3.217598 1_544
As1 Sr0 3.217598 1_454
Pd0 Sr0 3.490665 1_445
Pd0 Sr0 3.490666 1_454
Pd0 Sr0 3.490666 1_544
