# generated using pymatgen
data_ZrNi4Pt
_symmetry_space_group_name_H-M   'P 1'
_cell_length_a   4.76148817
_cell_length_b   4.76148830
_cell_length_c   4.76148743
_cell_angle_alpha   59.99999929
_cell_angle_beta   59.99999840
_cell_angle_gamma   60.00000759
_symmetry_Int_Tables_number   1
_chemical_formula_structural   ZrNi4Pt
_chemical_formula_sum   'Zr1 Ni4 Pt1'
_cell_volume   76.33313377
_cell_formula_units_Z   1
loop_
 _symmetry_equiv_pos_site_id
 _symmetry_equiv_pos_as_xyz
  1  'x, y, z'
loop_
 _atom_site_type_symbol
 _atom_site_label
 _atom_site_symmetry_multiplicity
 _atom_site_fract_x
 _atom_site_fract_y
 _atom_site_fract_z
 _atom_site_occupancy
  Zr  Zr0  1  0.00000000  0.00000000  0.00000000  1
  Ni  Ni0  1  0.62403721  0.62403721  0.62403721  1
  Ni  Ni1  1  0.12788836  0.62403721  0.62403721  1
  Ni  Ni2  1  0.62403721  0.12788836  0.62403721  1
  Ni  Ni3  1  0.62403721  0.62403721  0.12788836  1
  Pt  Pt0  1  0.25000000  0.25000000  0.25000000  1
loop_
_geom_bond_atom_site_label_1
_geom_bond_atom_site_label_2
_geom_bond_distance
_geom_bond_site_symmetry_2
Ni0 Ni3 2.362407 1_555
Ni0 Ni1 2.362407 1_555
Ni0 Ni2 2.362407 1_555
Ni0 Ni3 2.399081 1_556
Ni0 Ni1 2.399081 1_655
Ni0 Ni2 2.399081 1_565
Ni0 Pt0 2.789737 1_556
Ni0 Pt0 2.789737 1_655
Ni0 Pt0 2.789737 1_565
Ni0 Zr0 2.793646 1_665
Ni0 Zr0 2.793647 1_566
Ni0 Zr0 2.793647 1_656
Ni1 Ni3 2.362407 1_555
Ni1 Ni2 2.362407 1_555
Ni1 Ni3 2.399081 1_456
Ni1 Ni2 2.399082 1_465
Ni1 Pt0 2.789737 1_556
Ni1 Pt0 2.789737 1_555
Ni1 Pt0 2.789737 1_565
Ni1 Zr0 2.793646 1_565
Ni1 Zr0 2.793646 1_566
Ni1 Zr0 2.793646 1_556
Ni2 Ni3 2.362407 1_555
Ni2 Ni3 2.399081 1_546
Ni2 Pt0 2.789737 1_556
Ni2 Pt0 2.789737 1_555
Ni2 Pt0 2.789737 1_655
Ni2 Zr0 2.793646 1_655
Ni2 Zr0 2.793646 1_656
Ni2 Zr0 2.793646 1_556
Ni3 Pt0 2.789737 1_555
Ni3 Pt0 2.789737 1_655
Ni3 Pt0 2.789737 1_565
Ni3 Zr0 2.793646 1_665
Ni3 Zr0 2.793647 1_565
Ni3 Zr0 2.793647 1_655
Pt0 Zr0 2.915804 1_556
Pt0 Zr0 2.915804 1_555
Pt0 Zr0 2.915804 1_655
Pt0 Zr0 2.915804 1_565
