# generated using pymatgen
data_BaCd2(H6Ir)2
_symmetry_space_group_name_H-M   'P 1'
_cell_length_a   4.96429671
_cell_length_b   4.96429730
_cell_length_c   8.22086942
_cell_angle_alpha   90.00000000
_cell_angle_beta   90.00000000
_cell_angle_gamma   119.99999603
_symmetry_Int_Tables_number   1
_chemical_formula_structural   BaCd2(H6Ir)2
_chemical_formula_sum   'Ba1 Cd2 H12 Ir2'
_cell_volume   175.45425786
_cell_formula_units_Z   1
loop_
 _symmetry_equiv_pos_site_id
 _symmetry_equiv_pos_as_xyz
  1  'x, y, z'
loop_
 _atom_site_type_symbol
 _atom_site_label
 _atom_site_symmetry_multiplicity
 _atom_site_fract_x
 _atom_site_fract_y
 _atom_site_fract_z
 _atom_site_occupancy
  Ba  Ba0  1  0.00000000  0.00000000  0.00000000  1
  Cd  Cd0  1  0.66666700  0.33333300  0.36974904  1
  Cd  Cd1  1  0.33333300  0.66666700  0.63025096  1
  H  H0  1  0.16788575  0.83211425  0.37610317  1
  H  H1  1  0.66422950  0.83211425  0.37610317  1
  H  H2  1  0.16788575  0.33577050  0.37610317  1
  H  H3  1  0.83211425  0.16788575  0.62389683  1
  H  H4  1  0.33577050  0.16788575  0.62389683  1
  H  H5  1  0.83211425  0.66422950  0.62389683  1
  H  H6  1  0.51280559  0.02561218  0.84940605  1
  H  H7  1  0.51280559  0.48719441  0.84940605  1
  H  H8  1  0.97438782  0.48719441  0.84940605  1
  H  H9  1  0.48719441  0.97438782  0.15059395  1
  H  H10  1  0.48719441  0.51280559  0.15059395  1
  H  H11  1  0.02561218  0.51280559  0.15059395  1
  Ir  Ir0  1  0.66666700  0.33333300  0.72498598  1
  Ir  Ir1  1  0.33333300  0.66666700  0.27501402  1
loop_
_geom_bond_atom_site_label_1
_geom_bond_atom_site_label_2
_geom_bond_distance
_geom_bond_site_symmetry_2
Ba0 H9 2.775941 1_445
Ba0 H6 2.775941 1_554
Ba0 H11 2.775941 1_555
Ba0 H8 2.775941 1_444
Ba0 H7 2.775943 1_554
Ba0 H10 2.775943 1_445
Ba0 H10 2.775944 1_555
Ba0 H7 2.775944 1_444
Ba0 H9 2.775946 1_545
Ba0 H6 2.775946 1_454
Ba0 H11 2.775946 1_545
Ba0 H8 2.775946 1_454
Cd0 H10 2.372199 1_555
Cd0 H11 2.372199 1_655
Cd0 H9 2.372199 1_545
Cd1 H7 2.372199 1_555
Cd1 H8 2.372199 1_455
Cd1 H6 2.372199 1_565
H0 Ir1 1.647536 1_555
H1 Ir1 1.647543 1_555
H2 Ir1 1.647543 1_555
H3 Ir0 1.647536 1_555
H4 Ir0 1.647543 1_555
H5 Ir0 1.647543 1_555
H6 Ir0 1.672249 1_555
H7 Ir0 1.672255 1_555
H8 Ir0 1.672249 1_555
H9 Ir1 1.672249 1_555
H10 Ir1 1.672255 1_555
H11 Ir1 1.672249 1_555
