# generated using pymatgen
data_Ba2Zn4AsP3
_symmetry_space_group_name_H-M   'P 1'
_cell_length_a   4.15642258
_cell_length_b   9.80708909
_cell_length_c   10.69396075
_cell_angle_alpha   89.60671085
_cell_angle_beta   90.00000000
_cell_angle_gamma   90.00000000
_symmetry_Int_Tables_number   1
_chemical_formula_structural   Ba2Zn4AsP3
_chemical_formula_sum   'Ba4 Zn8 As2 P6'
_cell_volume   435.90130646
_cell_formula_units_Z   2
loop_
 _symmetry_equiv_pos_site_id
 _symmetry_equiv_pos_as_xyz
  1  'x, y, z'
loop_
 _atom_site_type_symbol
 _atom_site_label
 _atom_site_symmetry_multiplicity
 _atom_site_fract_x
 _atom_site_fract_y
 _atom_site_fract_z
 _atom_site_occupancy
  Ba  Ba0  1  0.25000000  0.74367452  0.32600137  1
  Ba  Ba1  1  0.75000000  0.25632548  0.67399863  1
  Ba  Ba2  1  0.25000000  0.24847424  0.17275123  1
  Ba  Ba3  1  0.75000000  0.75152576  0.82724877  1
  Zn  Zn0  1  0.75000000  0.40161483  0.94883389  1
  Zn  Zn1  1  0.25000000  0.59838517  0.05116611  1
  Zn  Zn2  1  0.25000000  0.10534444  0.45008519  1
  Zn  Zn3  1  0.75000000  0.89465556  0.54991481  1
  Zn  Zn4  1  0.75000000  0.95040540  0.10989288  1
  Zn  Zn5  1  0.25000000  0.04959460  0.89010712  1
  Zn  Zn6  1  0.75000000  0.45288944  0.38269019  1
  Zn  Zn7  1  0.25000000  0.54711056  0.61730981  1
  As  As0  1  0.75000000  0.02093210  0.33855364  1
  As  As1  1  0.25000000  0.97906790  0.66144636  1
  P  P0  1  0.75000000  0.64614917  0.54152456  1
  P  P1  1  0.25000000  0.35385083  0.45847544  1
  P  P2  1  0.25000000  0.84857126  0.04026733  1
  P  P3  1  0.75000000  0.15142874  0.95973267  1
  P  P4  1  0.75000000  0.52005877  0.15749347  1
  P  P5  1  0.25000000  0.47994123  0.84250653  1
loop_
_geom_bond_atom_site_label_1
_geom_bond_atom_site_label_2
_geom_bond_distance
_geom_bond_site_symmetry_2
Ba0 P2 3.217453 1_555
Ba0 P0 3.242771 1_555
Ba0 P0 3.242771 1_455
Ba0 Zn1 3.275043 1_555
Ba0 Zn3 3.506251 1_455
Ba0 Zn3 3.506251 1_555
Ba0 P4 3.525594 1_455
Ba0 P4 3.525594 1_555
Ba0 Zn6 3.577045 1_555
Ba0 Zn6 3.577045 1_455
Ba0 Zn7 3.652176 1_555
Ba0 Zn4 3.702173 1_455
Ba0 Zn4 3.702173 1_555
Ba0 Zn2 3.795538 1_565
Ba1 P3 3.217453 1_555
Ba1 P1 3.242771 1_655
Ba1 P1 3.242771 1_555
Ba1 Zn0 3.275043 1_555
Ba1 Zn2 3.506251 1_555
Ba1 Zn2 3.506251 1_655
Ba1 P5 3.525594 1_655
Ba1 P5 3.525594 1_555
Ba1 Zn7 3.577045 1_555
Ba1 Zn7 3.577045 1_655
Ba1 Zn6 3.652176 1_555
Ba1 Zn5 3.702173 1_555
Ba1 Zn5 3.702173 1_655
Ba1 Zn3 3.795538 1_545
Ba2 P3 3.231697 1_454
Ba2 P3 3.231697 1_554
Ba2 P1 3.232270 1_555
Ba2 Zn2 3.272483 1_555
Ba2 P4 3.381361 1_455
Ba2 P4 3.381361 1_555
Ba2 Zn0 3.501302 1_454
Ba2 Zn0 3.501302 1_554
Ba2 Zn5 3.608480 1_554
Ba2 Zn4 3.652783 1_445
Ba2 Zn4 3.652783 1_545
Ba2 Zn1 3.661320 1_555
Ba2 Zn6 3.666064 1_455
Ba2 Zn6 3.666064 1_555
Ba3 P2 3.231697 1_656
Ba3 P2 3.231697 1_556
Ba3 P0 3.232270 1_555
Ba3 Zn3 3.272483 1_555
Ba3 P5 3.381361 1_555
Ba3 P5 3.381361 1_655
Ba3 Zn1 3.501302 1_656
Ba3 Zn1 3.501302 1_556
Ba3 Zn4 3.608480 1_556
Ba3 Zn5 3.652783 1_665
Ba3 Zn5 3.652783 1_565
Ba3 Zn0 3.661320 1_555
Ba3 Zn7 3.666064 1_555
Ba3 Zn7 3.666064 1_655
As0 Zn2 2.537795 1_555
As0 Zn2 2.537795 1_655
As0 Zn4 2.545791 1_545
As0 Zn3 2.569849 1_545
As0 Ba0 3.425703 1_545
As0 Ba0 3.425703 1_645
As0 Ba2 3.519685 1_655
As0 Ba2 3.519685 1_555
As1 Zn3 2.537795 1_555
As1 Zn3 2.537795 1_455
As1 Zn5 2.545791 1_565
As1 Zn2 2.569849 1_565
As1 Ba1 3.425703 1_565
As1 Ba1 3.425703 1_465
As1 Ba3 3.519685 1_455
As1 Ba3 3.519685 1_555
P0 Zn7 2.430712 1_555
P0 Zn7 2.430712 1_655
P0 Zn3 2.439391 1_555
P0 Zn6 2.553733 1_555
P1 Zn6 2.430712 1_555
P1 Zn6 2.430712 1_455
P1 Zn2 2.439391 1_555
P1 Zn7 2.553733 1_555
P2 Zn4 2.425068 1_455
P2 Zn4 2.425068 1_555
P2 Zn1 2.455565 1_555
P2 Zn5 2.534124 1_564
P3 Zn5 2.425068 1_555
P3 Zn5 2.425068 1_655
P3 Zn0 2.455565 1_555
P3 Zn4 2.534124 1_546
P4 Zn1 2.487959 1_555
P4 Zn1 2.487959 1_655
P4 Zn6 2.492348 1_555
P4 Zn0 2.522699 1_554
P5 Zn0 2.487959 1_455
P5 Zn0 2.487959 1_555
P5 Zn7 2.492348 1_555
P5 Zn1 2.522699 1_556
