# generated using pymatgen
data_BaSr11(ScAs3)4
_symmetry_space_group_name_H-M   'P 1'
_cell_length_a   4.52847772
_cell_length_b   12.93767863
_cell_length_c   14.50703309
_cell_angle_alpha   90.18257487
_cell_angle_beta   90.00000000
_cell_angle_gamma   90.00000000
_symmetry_Int_Tables_number   1
_chemical_formula_structural   BaSr11(ScAs3)4
_chemical_formula_sum   'Ba1 Sr11 Sc4 As12'
_cell_volume   849.93358689
_cell_formula_units_Z   1
loop_
 _symmetry_equiv_pos_site_id
 _symmetry_equiv_pos_as_xyz
  1  'x, y, z'
loop_
 _atom_site_type_symbol
 _atom_site_label
 _atom_site_symmetry_multiplicity
 _atom_site_fract_x
 _atom_site_fract_y
 _atom_site_fract_z
 _atom_site_occupancy
  Ba  Ba0  1  0.25000000  0.84497493  0.49552894  1
  Sr  Sr0  1  0.25000000  0.35026793  0.99960649  1
  Sr  Sr1  1  0.75000000  0.14890358  0.49915493  1
  Sr  Sr2  1  0.75000000  0.23113253  0.20918403  1
  Sr  Sr3  1  0.75000000  0.42796454  0.40160798  1
  Sr  Sr4  1  0.25000000  0.57087260  0.60273500  1
  Sr  Sr5  1  0.75000000  0.92941959  0.09959317  1
  Sr  Sr6  1  0.25000000  0.07411979  0.90012195  1
  Sr  Sr7  1  0.25000000  0.27040675  0.70978503  1
  Sr  Sr8  1  0.75000000  0.72851944  0.28542592  1
  Sr  Sr9  1  0.25000000  0.77029297  0.79599004  1
  Sr  Sr10  1  0.75000000  0.64751723  0.00010070  1
  Sc  Sc0  1  0.75000000  0.94973399  0.70679518  1
  Sc  Sc1  1  0.25000000  0.05333022  0.29252152  1
  Sc  Sc2  1  0.25000000  0.54828869  0.20329628  1
  Sc  Sc3  1  0.75000000  0.45042857  0.79693960  1
  As  As0  1  0.75000000  0.45934094  0.14508652  1
  As  As1  1  0.25000000  0.54005377  0.85556121  1
  As  As2  1  0.75000000  0.96214999  0.34537029  1
  As  As3  1  0.25000000  0.04095262  0.64840734  1
  As  As4  1  0.75000000  0.40128288  0.61838566  1
  As  As5  1  0.25000000  0.59762458  0.38139713  1
  As  As6  1  0.75000000  0.90369656  0.88477786  1
  As  As7  1  0.25000000  0.10185094  0.11545370  1
  As  As8  1  0.75000000  0.26234523  0.86925238  1
  As  As9  1  0.25000000  0.73692013  0.12903735  1
  As  As10  1  0.75000000  0.75785172  0.63901913  1
  As  As11  1  0.25000000  0.23975628  0.36986267  1
loop_
_geom_bond_atom_site_label_1
_geom_bond_atom_site_label_2
_geom_bond_distance
_geom_bond_site_symmetry_2
As0 Sc2 2.675438 1_555
As0 Sc2 2.675438 1_655
As0 Sr2 3.098278 1_555
As0 Sr10 3.222370 1_555
As0 Sr0 3.399013 1_654
As0 Sr0 3.399013 1_554
As0 Sr3 3.744726 1_555
As1 Sc3 2.681092 1_555
As1 Sc3 2.681092 1_455
As1 Sr9 3.104233 1_555
As1 Sr0 3.229296 1_555
As1 Sr10 3.382003 1_556
As1 Sr10 3.382003 1_456
As1 Sr4 3.690630 1_555
As2 Sc1 2.666822 1_565
As2 Sc1 2.666822 1_665
As2 Sr8 3.142581 1_555
As2 Sr1 3.283389 1_565
As2 Ba0 3.491595 1_555
As2 Ba0 3.491595 1_655
As2 Sr5 3.589214 1_555
As3 Sc0 2.691354 1_545
As3 Sc0 2.691354 1_445
As3 Sr7 3.096545 1_555
As3 Ba0 3.363271 1_545
As3 Sr1 3.432895 1_455
As3 Sr1 3.432895 1_555
As3 Sr6 3.675400 1_555
As4 Sc3 2.665216 1_555
As4 Sr7 3.125096 1_555
As4 Sr7 3.125096 1_655
As4 Sr4 3.161576 1_655
As4 Sr4 3.161576 1_555
As4 Sr3 3.164783 1_555
As4 Sr1 3.690171 1_555
As5 Sc2 2.659415 1_555
As5 Sr8 3.154052 1_455
As5 Sr8 3.154052 1_555
As5 Sr3 3.167791 1_555
As5 Sr3 3.167791 1_455
As5 Sr4 3.230652 1_555
As5 Ba0 3.598404 1_555
As6 Sc0 2.651658 1_555
As6 Sr9 3.122582 1_555
As6 Sr9 3.122582 1_655
As6 Sr5 3.132998 1_556
As6 Sr6 3.167759 1_565
As6 Sr6 3.167759 1_665
As6 Sr10 3.717427 1_556
As7 Sc1 2.646263 1_555
As7 Sr2 3.123908 1_555
As7 Sr2 3.123908 1_455
As7 Sr6 3.143224 1_554
As7 Sr5 3.186407 1_545
As7 Sr5 3.186407 1_445
As7 Sr0 3.631562 1_554
As8 Sc3 2.652925 1_555
As8 Sr0 3.159602 1_555
As8 Sr0 3.159602 1_655
As8 Sr7 3.238982 1_555
As8 Sr7 3.238982 1_655
As8 Sr6 3.356259 1_655
As8 Sr6 3.356259 1_555
As9 Sc2 2.670785 1_555
As9 Sr10 3.154297 1_555
As9 Sr10 3.154297 1_455
As9 Sr8 3.207385 1_455
As9 Sr8 3.207385 1_555
As9 Sr5 3.393904 1_455
As9 Sr5 3.393904 1_555
As10 Sc0 2.667217 1_555
As10 Sr9 3.214951 1_655
As10 Sr9 3.214951 1_555
As10 Ba0 3.278014 1_555
As10 Ba0 3.278014 1_655
As10 Sr4 3.353753 1_555
As10 Sr4 3.353753 1_655
As11 Sc1 2.656874 1_555
As11 Sr1 3.168675 1_455
As11 Sr1 3.168675 1_555
As11 Sr2 3.251306 1_555
As11 Sr2 3.251306 1_455
As11 Sr3 3.355717 1_555
As11 Sr3 3.355717 1_455
