# generated using pymatgen
data_Y6Hf8Al8Ir7
_symmetry_space_group_name_H-M   'P 1'
_cell_length_a   9.23332521
_cell_length_b   9.23332535
_cell_length_c   9.23332576
_cell_angle_alpha   59.99999853
_cell_angle_beta   59.99999803
_cell_angle_gamma   60.00000123
_symmetry_Int_Tables_number   1
_chemical_formula_structural   Y6Hf8Al8Ir7
_chemical_formula_sum   'Y6 Hf8 Al8 Ir7'
_cell_volume   556.62079106
_cell_formula_units_Z   1
loop_
 _symmetry_equiv_pos_site_id
 _symmetry_equiv_pos_as_xyz
  1  'x, y, z'
loop_
 _atom_site_type_symbol
 _atom_site_label
 _atom_site_symmetry_multiplicity
 _atom_site_fract_x
 _atom_site_fract_y
 _atom_site_fract_z
 _atom_site_occupancy
  Y  Y0  1  0.69121215  0.69121215  0.30878785  1
  Y  Y1  1  0.30878785  0.69121215  0.30878785  1
  Y  Y2  1  0.69121215  0.30878785  0.30878785  1
  Y  Y3  1  0.30878785  0.30878785  0.69121215  1
  Y  Y4  1  0.69121215  0.30878785  0.69121215  1
  Y  Y5  1  0.30878785  0.69121215  0.69121215  1
  Hf  Hf0  1  0.87774586  0.87774586  0.36676442  1
  Hf  Hf1  1  0.87774586  0.36676442  0.87774586  1
  Hf  Hf2  1  0.36676442  0.87774586  0.87774586  1
  Hf  Hf3  1  0.87774586  0.87774586  0.87774586  1
  Hf  Hf4  1  0.12225414  0.12225414  0.63323558  1
  Hf  Hf5  1  0.12225414  0.63323558  0.12225414  1
  Hf  Hf6  1  0.63323558  0.12225414  0.12225414  1
  Hf  Hf7  1  0.12225414  0.12225414  0.12225414  1
  Al  Al0  1  0.66649533  0.66649533  0.00051400  1
  Al  Al1  1  0.66649533  0.00051400  0.66649533  1
  Al  Al2  1  0.00051400  0.66649533  0.66649533  1
  Al  Al3  1  0.66649533  0.66649533  0.66649533  1
  Al  Al4  1  0.33350467  0.33350467  0.99948600  1
  Al  Al5  1  0.33350467  0.99948600  0.33350467  1
  Al  Al6  1  0.99948600  0.33350467  0.33350467  1
  Al  Al7  1  0.33350467  0.33350467  0.33350467  1
  Ir  Ir0  1  0.00000000  0.00000000  0.00000000  1
  Ir  Ir1  1  0.00000000  0.00000000  0.50000000  1
  Ir  Ir2  1  0.50000000  0.00000000  0.50000000  1
  Ir  Ir3  1  0.00000000  0.50000000  0.50000000  1
  Ir  Ir4  1  0.50000000  0.50000000  0.00000000  1
  Ir  Ir5  1  0.00000000  0.50000000  0.00000000  1
  Ir  Ir6  1  0.50000000  0.00000000  0.00000000  1
loop_
_geom_bond_atom_site_label_1
_geom_bond_atom_site_label_2
_geom_bond_distance
_geom_bond_site_symmetry_2
Y0 Y5 3.531048 1_555
Y0 Y1 3.531048 1_555
Y0 Y2 3.531048 1_555
Y0 Y4 3.531048 1_555
Y1 Y3 3.531048 1_555
Y1 Y2 3.531048 1_555
Y1 Y5 3.531048 1_555
Y2 Y3 3.531048 1_555
Y2 Y4 3.531048 1_555
Y3 Y4 3.531048 1_555
Y3 Y5 3.531048 1_555
Y4 Y5 3.531048 1_555
Hf0 Ir0 2.765029 1_665
Hf0 Ir1 2.848405 1_665
Hf0 Ir2 2.848419 1_565
Hf0 Ir3 2.848419 1_655
Hf0 Hf7 3.192763 1_665
Hf0 Hf6 3.192789 1_565
Hf0 Hf5 3.192789 1_655
Hf0 Y1 3.321094 1_655
Hf0 Y2 3.321094 1_565
Hf0 Y0 3.321110 1_555
Hf1 Ir0 2.765029 1_656
Hf1 Ir5 2.848405 1_656
Hf1 Ir4 2.848419 1_556
Hf1 Ir3 2.848420 1_655
Hf1 Hf7 3.192763 1_656
Hf1 Hf6 3.192789 1_556
Hf1 Hf4 3.192789 1_655
Hf1 Y3 3.321094 1_655
Hf1 Y2 3.321094 1_556
Hf1 Y4 3.321110 1_555
Hf2 Ir0 2.765029 1_566
Hf2 Ir6 2.848405 1_566
Hf2 Ir4 2.848419 1_556
Hf2 Ir2 2.848420 1_565
Hf2 Hf7 3.192763 1_566
Hf2 Hf5 3.192789 1_556
Hf2 Hf4 3.192789 1_565
Hf2 Y3 3.321094 1_565
Hf2 Y1 3.321094 1_556
Hf2 Y5 3.321110 1_555
Hf3 Ir0 2.765014 1_666
Hf3 Ir6 2.848420 1_566
Hf3 Ir5 2.848420 1_656
Hf3 Ir1 2.848420 1_665
Hf3 Hf4 3.192763 1_665
Hf3 Hf6 3.192763 1_566
Hf3 Hf5 3.192763 1_656
Hf3 Y5 3.321097 1_655
Hf3 Y0 3.321097 1_556
Hf3 Y4 3.321097 1_565
Hf4 Ir0 2.765029 1_556
Hf4 Ir1 2.848405 1_555
Hf4 Ir2 2.848419 1_555
Hf4 Ir3 2.848419 1_555
Hf4 Y4 3.321094 1_455
Hf4 Y5 3.321094 1_545
Hf4 Y3 3.321110 1_555
Hf5 Ir0 2.765029 1_565
Hf5 Ir5 2.848405 1_555
Hf5 Ir4 2.848419 1_555
Hf5 Ir3 2.848420 1_555
Hf5 Y0 3.321094 1_455
Hf5 Y5 3.321094 1_554
Hf5 Y1 3.321110 1_555
Hf6 Ir0 2.765029 1_655
Hf6 Ir6 2.848405 1_555
Hf6 Ir4 2.848419 1_555
Hf6 Ir2 2.848420 1_555
Hf6 Y0 3.321094 1_545
Hf6 Y4 3.321094 1_554
Hf6 Y2 3.321110 1_555
Hf7 Ir0 2.765014 1_555
Hf7 Ir6 2.848420 1_555
Hf7 Ir5 2.848420 1_555
Hf7 Ir1 2.848420 1_555
Hf7 Y2 3.321097 1_455
Hf7 Y3 3.321097 1_554
Hf7 Y1 3.321097 1_545
Al0 Ir4 2.665434 1_555
Al0 Ir5 2.665434 1_655
Al0 Ir6 2.665434 1_565
Al0 Hf2 2.876913 1_554
Al0 Hf1 2.876913 1_554
Al0 Hf3 2.876928 1_554
Al0 Al2 3.084103 1_654
Al0 Al1 3.084103 1_564
Al0 Al3 3.084103 1_554
Al0 Y1 3.091505 1_555
Al0 Y2 3.091505 1_555
Al0 Y0 3.091505 1_555
Al1 Ir1 2.665434 1_655
Al1 Ir2 2.665434 1_555
Al1 Ir6 2.665434 1_556
Al1 Hf2 2.876913 1_545
Al1 Hf0 2.876913 1_545
Al1 Hf3 2.876929 1_545
Al1 Al3 3.084103 1_545
Al1 Al2 3.084103 1_645
Al1 Y2 3.091505 1_555
Al1 Y4 3.091505 1_555
Al1 Y3 3.091505 1_555
Al2 Ir1 2.665434 1_565
Al2 Ir3 2.665434 1_555
Al2 Ir5 2.665434 1_556
Al2 Hf1 2.876913 1_455
Al2 Hf0 2.876913 1_455
Al2 Hf3 2.876929 1_455
Al2 Al3 3.084103 1_455
Al2 Y5 3.091505 1_555
Al2 Y1 3.091505 1_555
Al2 Y3 3.091505 1_555
Al3 Ir4 2.665434 1_556
Al3 Ir3 2.665434 1_655
Al3 Ir2 2.665434 1_565
Al3 Hf0 2.876923 1_555
Al3 Hf2 2.876923 1_555
Al3 Hf1 2.876923 1_555
Al3 Y5 3.091505 1_555
Al3 Y4 3.091505 1_555
Al3 Y0 3.091505 1_555
Al4 Ir4 2.665434 1_556
Al4 Ir5 2.665434 1_556
Al4 Ir6 2.665434 1_556
Al4 Hf6 2.876913 1_556
Al4 Hf5 2.876913 1_556
Al4 Hf7 2.876928 1_556
Al4 Al6 3.084103 1_456
Al4 Al5 3.084103 1_546
Al4 Al7 3.084103 1_556
Al4 Y4 3.091505 1_555
Al4 Y5 3.091505 1_555
Al4 Y3 3.091505 1_555
Al5 Ir1 2.665434 1_565
Al5 Ir6 2.665434 1_565
Al5 Ir2 2.665434 1_565
Al5 Hf6 2.876913 1_565
Al5 Hf4 2.876913 1_565
Al5 Hf7 2.876929 1_565
Al5 Al7 3.084103 1_565
Al5 Al6 3.084103 1_465
Al5 Y5 3.091505 1_555
Al5 Y1 3.091505 1_555
Al5 Y0 3.091505 1_555
Al6 Ir1 2.665434 1_655
Al6 Ir3 2.665434 1_655
Al6 Ir5 2.665434 1_655
Al6 Hf5 2.876913 1_655
Al6 Hf4 2.876913 1_655
Al6 Hf7 2.876929 1_655
Al6 Al7 3.084103 1_655
Al6 Y2 3.091505 1_555
Al6 Y4 3.091505 1_555
Al6 Y0 3.091505 1_555
Al7 Ir4 2.665434 1_555
Al7 Ir3 2.665434 1_555
Al7 Ir2 2.665434 1_555
Al7 Hf4 2.876923 1_555
Al7 Hf6 2.876923 1_555
Al7 Hf5 2.876923 1_555
Al7 Y2 3.091505 1_555
Al7 Y1 3.091505 1_555
Al7 Y3 3.091505 1_555
Ir1 Y5 3.353516 1_545
Ir1 Y2 3.353516 1_455
Ir1 Y1 3.353516 1_545
Ir1 Y4 3.353516 1_455
Ir2 Y2 3.353515 1_555
Ir2 Y5 3.353515 1_545
Ir2 Y3 3.353516 1_555
Ir2 Y0 3.353516 1_545
Ir3 Y1 3.353515 1_555
Ir3 Y4 3.353515 1_455
Ir3 Y3 3.353516 1_555
Ir3 Y0 3.353516 1_455
Ir4 Y1 3.353516 1_555
Ir4 Y4 3.353516 1_554
Ir4 Y2 3.353516 1_555
Ir4 Y5 3.353516 1_554
Ir5 Y5 3.353515 1_554
Ir5 Y2 3.353515 1_455
Ir5 Y0 3.353516 1_455
Ir5 Y3 3.353516 1_554
Ir6 Y4 3.353515 1_554
Ir6 Y1 3.353515 1_545
Ir6 Y0 3.353516 1_545
Ir6 Y3 3.353516 1_554
