# generated using pymatgen
data_TiPd2Pt3
_symmetry_space_group_name_H-M   'P 1'
_cell_length_a   6.16605807
_cell_length_b   6.16605730
_cell_length_c   3.95112725
_cell_angle_alpha   90.00000000
_cell_angle_beta   90.00000000
_cell_angle_gamma   143.05669001
_symmetry_Int_Tables_number   1
_chemical_formula_structural   TiPd2Pt3
_chemical_formula_sum   'Ti1 Pd2 Pt3'
_cell_volume   90.28765766
_cell_formula_units_Z   1
loop_
 _symmetry_equiv_pos_site_id
 _symmetry_equiv_pos_as_xyz
  1  'x, y, z'
loop_
 _atom_site_type_symbol
 _atom_site_label
 _atom_site_symmetry_multiplicity
 _atom_site_fract_x
 _atom_site_fract_y
 _atom_site_fract_z
 _atom_site_occupancy
  Ti  Ti0  1  0.00000000  0.00000000  0.00000000  1
  Pd  Pd0  1  0.66150456  0.33849344  0.00000000  1
  Pd  Pd1  1  0.33849344  0.66150456  0.00000000  1
  Pt  Pt0  1  0.83600220  0.16399580  0.49999900  1
  Pt  Pt1  1  0.49999900  0.49999900  0.49999900  1
  Pt  Pt2  1  0.16399580  0.83600220  0.49999900  1
loop_
_geom_bond_atom_site_label_1
_geom_bond_atom_site_label_2
_geom_bond_distance
_geom_bond_site_symmetry_2
Pd0 Ti0 2.717593 1_555
Pd0 Ti0 2.717599 1_665
Pd0 Pt1 2.733406 1_555
Pd0 Pt1 2.733412 1_554
Pd0 Pt2 2.778550 1_545
Pd0 Pt2 2.778550 1_655
Pd0 Pt2 2.778555 1_544
Pd0 Pt2 2.778555 1_654
Pd0 Pt0 2.840556 1_555
Pd0 Pt0 2.840561 1_554
Pd0 Pd1 2.846467 1_545
Pd0 Pd1 2.846467 1_655
Pd1 Ti0 2.717593 1_555
Pd1 Ti0 2.717599 1_665
Pd1 Pt1 2.733406 1_555
Pd1 Pt1 2.733412 1_554
Pd1 Pt0 2.778550 1_565
Pd1 Pt0 2.778550 1_455
Pd1 Pt0 2.778555 1_564
Pd1 Pt0 2.778555 1_454
Pd1 Pt2 2.840556 1_555
Pd1 Pt2 2.840561 1_554
Pt0 Pt1 2.737932 1_545
Pt0 Pt1 2.737932 1_655
Pt0 Ti0 2.753626 1_655
Pt0 Ti0 2.753631 1_656
Pt0 Pt2 2.804367 1_655
Pt0 Pt2 2.804367 1_545
Pt1 Pt2 2.737932 1_545
Pt1 Pt2 2.737932 1_655
Pt1 Ti0 2.778394 1_555
Pt1 Ti0 2.778400 1_665
Pt1 Ti0 2.778400 1_556
Pt1 Ti0 2.778405 1_666
Pt2 Ti0 2.753626 1_565
Pt2 Ti0 2.753631 1_566
