# generated using pymatgen
data_CsCuWSe4
_symmetry_space_group_name_H-M   'P 1'
_cell_length_a   6.76814884
_cell_length_b   6.76814996
_cell_length_c   6.76814958
_cell_angle_alpha   99.74576566
_cell_angle_beta   99.74577671
_cell_angle_gamma   131.41029034
_symmetry_Int_Tables_number   1
_chemical_formula_structural   CsCuWSe4
_chemical_formula_sum   'Cs1 Cu1 W1 Se4'
_cell_volume   211.93114498
_cell_formula_units_Z   1
loop_
 _symmetry_equiv_pos_site_id
 _symmetry_equiv_pos_as_xyz
  1  'x, y, z'
loop_
 _atom_site_type_symbol
 _atom_site_label
 _atom_site_symmetry_multiplicity
 _atom_site_fract_x
 _atom_site_fract_y
 _atom_site_fract_z
 _atom_site_occupancy
  Cs  Cs0  1  0.75000000  0.25000000  0.50000000  1
  Cu  Cu0  1  0.50000000  0.50000000  0.00000000  1
  W  W0  1  0.00000000  0.00000000  0.00000000  1
  Se  Se0  1  0.34531214  0.43218660  0.30043665  1
  Se  Se1  1  0.13174995  0.04487449  0.69956335  1
  Se  Se2  1  0.95512551  0.65468786  0.08687646  1
  Se  Se3  1  0.56781340  0.86825005  0.91312354  1
loop_
_geom_bond_atom_site_label_1
_geom_bond_atom_site_label_2
_geom_bond_distance
_geom_bond_site_symmetry_2
Cs0 Se0 3.824406 1_555
Cs0 Se1 3.824412 1_655
Cs0 Se2 3.824416 1_556
Cs0 Se3 3.824418 1_544
Cs0 Se3 3.925899 1_545
Cs0 Se2 3.925902 1_445
Cs0 Se1 3.925905 1_665
Cs0 Se0 3.925911 1_655
Cs0 Se2 4.015488 1_555
Cs0 Se3 4.015495 1_655
Cs0 Se1 4.015498 1_555
Cs0 Se0 4.015500 1_545
Cu0 Se0 2.417126 1_555
Cu0 Se1 2.417129 1_554
Cu0 Se2 2.417131 1_555
Cu0 Se3 2.417132 1_554
Cu0 W0 2.784637 1_665
Cu0 W0 2.784637 1_555
Se0 W0 2.342385 1_555
Se1 W0 2.342385 1_556
Se2 W0 2.342394 1_665
Se3 W0 2.342384 1_666
