# generated using pymatgen
data_Cs3AsO4
_symmetry_space_group_name_H-M   'P 1'
_cell_length_a   6.63498078
_cell_length_b   9.06966849
_cell_length_c   12.54934105
_cell_angle_alpha   90.00000000
_cell_angle_beta   90.00000000
_cell_angle_gamma   90.00000000
_symmetry_Int_Tables_number   1
_chemical_formula_structural   Cs3AsO4
_chemical_formula_sum   'Cs12 As4 O16'
_cell_volume   755.18265152
_cell_formula_units_Z   4
loop_
 _symmetry_equiv_pos_site_id
 _symmetry_equiv_pos_as_xyz
  1  'x, y, z'
loop_
 _atom_site_type_symbol
 _atom_site_label
 _atom_site_symmetry_multiplicity
 _atom_site_fract_x
 _atom_site_fract_y
 _atom_site_fract_z
 _atom_site_occupancy
  Cs  Cs0  1  0.18949026  0.99291721  0.35511776  1
  Cs  Cs1  1  0.85676866  0.75000000  0.92483159  1
  Cs  Cs2  1  0.64323134  0.75000000  0.42483159  1
  Cs  Cs3  1  0.14323134  0.25000000  0.07516841  1
  Cs  Cs4  1  0.35676866  0.25000000  0.57516841  1
  Cs  Cs5  1  0.68949026  0.00708279  0.14488224  1
  Cs  Cs6  1  0.81050974  0.49291721  0.64488224  1
  Cs  Cs7  1  0.31050974  0.50708279  0.85511776  1
  Cs  Cs8  1  0.81050974  0.00708279  0.64488224  1
  Cs  Cs9  1  0.31050974  0.99291721  0.85511776  1
  Cs  Cs10  1  0.18949026  0.50708279  0.35511776  1
  Cs  Cs11  1  0.68949026  0.49291721  0.14488224  1
  As  As0  1  0.27391754  0.75000000  0.11343726  1
  As  As1  1  0.72608246  0.25000000  0.88656274  1
  As  As2  1  0.77391754  0.25000000  0.38656274  1
  As  As3  1  0.22608246  0.75000000  0.61343726  1
  O  O0  1  0.62859966  0.40543081  0.39201623  1
  O  O1  1  0.12859966  0.59456919  0.10798377  1
  O  O2  1  0.37140034  0.90543081  0.60798377  1
  O  O3  1  0.87140034  0.09456919  0.89201623  1
  O  O4  1  0.37140034  0.59456919  0.60798377  1
  O  O5  1  0.87140034  0.40543081  0.89201623  1
  O  O6  1  0.62859966  0.09456919  0.39201623  1
  O  O7  1  0.12859966  0.90543081  0.10798377  1
  O  O8  1  0.05970052  0.75000000  0.50887814  1
  O  O9  1  0.41081520  0.75000000  0.22919092  1
  O  O10  1  0.94029948  0.25000000  0.49112186  1
  O  O11  1  0.44029948  0.75000000  0.00887814  1
  O  O12  1  0.08918480  0.75000000  0.72919092  1
  O  O13  1  0.58918480  0.25000000  0.77080908  1
  O  O14  1  0.91081520  0.25000000  0.27080908  1
  O  O15  1  0.55970052  0.25000000  0.99112186  1
loop_
_geom_bond_atom_site_label_1
_geom_bond_atom_site_label_2
_geom_bond_distance
_geom_bond_site_symmetry_2
Cs0 O8 3.052688 1_555
Cs0 O9 3.083471 1_555
Cs0 O6 3.090758 1_565
Cs0 O14 3.158296 1_465
Cs0 O7 3.226656 1_555
Cs0 O10 3.329160 1_465
Cs0 O2 3.486577 1_555
Cs1 O12 2.899279 1_655
Cs1 O11 2.957716 1_556
Cs1 O5 3.153639 1_555
Cs1 O3 3.153639 1_565
Cs1 O7 3.243924 1_656
Cs1 O1 3.243924 1_656
Cs2 O9 2.899279 1_555
Cs2 O8 2.957716 1_655
Cs2 O0 3.153639 1_555
Cs2 O6 3.153639 1_565
Cs2 O4 3.243924 1_555
Cs2 O2 3.243924 1_555
Cs3 O14 2.899279 1_455
Cs3 O15 2.957716 1_554
Cs3 O1 3.153639 1_555
Cs3 O7 3.153639 1_545
Cs3 O5 3.243924 1_454
Cs3 O3 3.243924 1_454
Cs4 O13 2.899279 1_555
Cs4 O10 2.957716 1_455
Cs4 O4 3.153639 1_555
Cs4 O2 3.153639 1_545
Cs4 O6 3.243924 1_555
Cs4 O0 3.243924 1_555
Cs5 O15 3.052688 1_554
Cs5 O14 3.083471 1_555
Cs5 O7 3.090758 1_645
Cs5 O9 3.158296 1_545
Cs5 O6 3.226656 1_555
Cs5 O11 3.329160 1_545
Cs5 O3 3.486577 1_554
Cs6 O10 3.052688 1_555
Cs6 O13 3.083471 1_555
Cs6 O4 3.090758 1_555
Cs6 O12 3.158296 1_655
Cs6 O5 3.226656 1_555
Cs6 O8 3.329160 1_655
Cs6 O0 3.486577 1_555
Cs7 O11 3.052688 1_556
Cs7 O12 3.083471 1_555
Cs7 O5 3.090758 1_455
Cs7 O13 3.158296 1_555
Cs7 O4 3.226656 1_555
Cs7 O15 3.329160 1_555
Cs7 O1 3.486577 1_556
Cs8 O10 3.052688 1_555
Cs8 O13 3.083471 1_555
Cs8 O2 3.090758 1_545
Cs8 O12 3.158296 1_645
Cs8 O3 3.226656 1_555
Cs8 O8 3.329160 1_645
Cs8 O6 3.486577 1_555
Cs9 O11 3.052688 1_556
Cs9 O12 3.083471 1_555
Cs9 O3 3.090758 1_465
Cs9 O13 3.158296 1_565
Cs9 O2 3.226656 1_555
Cs9 O15 3.329160 1_565
Cs9 O7 3.486577 1_556
Cs10 O8 3.052688 1_555
Cs10 O9 3.083471 1_555
Cs10 O0 3.090758 1_555
Cs10 O14 3.158296 1_455
Cs10 O1 3.226656 1_555
Cs10 O10 3.329160 1_455
Cs10 O4 3.486577 1_555
Cs11 O15 3.052688 1_554
Cs11 O14 3.083471 1_555
Cs11 O1 3.090758 1_655
Cs11 O9 3.158296 1_555
Cs11 O0 3.226656 1_555
Cs11 O11 3.329160 1_555
Cs11 O5 3.486577 1_554
As0 O7 1.709269 1_555
As0 O1 1.709269 1_555
As0 O9 1.713235 1_555
As0 O11 1.714765 1_555
As1 O3 1.709269 1_555
As1 O5 1.709269 1_555
As1 O13 1.713235 1_555
As1 O15 1.714765 1_555
As2 O6 1.709269 1_555
As2 O0 1.709269 1_555
As2 O14 1.713235 1_555
As2 O10 1.714765 1_555
As3 O2 1.709269 1_555
As3 O4 1.709269 1_555
As3 O12 1.713235 1_555
As3 O8 1.714765 1_555
