# generated using pymatgen
data_MgMn2SbRh4
_symmetry_space_group_name_H-M   'P 1'
_cell_length_a   7.57554210
_cell_length_b   7.57554207
_cell_length_c   7.57554281
_cell_angle_alpha   33.60222495
_cell_angle_beta   33.60223044
_cell_angle_gamma   33.60222308
_symmetry_Int_Tables_number   1
_chemical_formula_structural   MgMn2SbRh4
_chemical_formula_sum   'Mg1 Mn2 Sb1 Rh4'
_cell_volume   118.61293581
_cell_formula_units_Z   1
loop_
 _symmetry_equiv_pos_site_id
 _symmetry_equiv_pos_as_xyz
  1  'x, y, z'
loop_
 _atom_site_type_symbol
 _atom_site_label
 _atom_site_symmetry_multiplicity
 _atom_site_fract_x
 _atom_site_fract_y
 _atom_site_fract_z
 _atom_site_occupancy
  Mg  Mg0  1  0.00000000  0.00000000  0.00000000  1
  Mn  Mn0  1  0.25448399  0.25448399  0.25448399  1
  Mn  Mn1  1  0.74551601  0.74551601  0.74551601  1
  Sb  Sb0  1  0.50000000  0.50000000  0.50000000  1
  Rh  Rh0  1  0.62354027  0.62354027  0.62354027  1
  Rh  Rh1  1  0.12650893  0.12650893  0.12650893  1
  Rh  Rh2  1  0.87349107  0.87349107  0.87349107  1
  Rh  Rh3  1  0.37645973  0.37645973  0.37645973  1
loop_
_geom_bond_atom_site_label_1
_geom_bond_atom_site_label_2
_geom_bond_distance
_geom_bond_site_symmetry_2
Mg0 Rh3 2.691977 1_545
Mg0 Rh0 2.691977 1_454
Mg0 Rh3 2.691978 1_455
Mg0 Rh0 2.691978 1_544
Mg0 Rh3 2.691978 1_554
Mg0 Rh0 2.691978 1_445
Mg0 Rh1 2.710250 1_555
Mg0 Rh2 2.710250 1_444
Mn0 Rh3 2.613133 1_555
Mn0 Rh0 2.641746 1_545
Mn0 Rh0 2.641746 1_455
Mn0 Rh0 2.641746 1_554
Mn0 Rh2 2.726835 1_454
Mn0 Rh2 2.726835 1_445
Mn0 Rh2 2.726835 1_544
Mn0 Rh1 2.741659 1_555
Mn1 Rh0 2.613133 1_555
Mn1 Rh3 2.641746 1_565
Mn1 Rh3 2.641746 1_655
Mn1 Rh3 2.641746 1_556
Mn1 Rh1 2.726835 1_656
Mn1 Rh1 2.726835 1_665
Mn1 Rh1 2.726835 1_566
Mn1 Rh2 2.741659 1_555
Rh0 Sb0 2.646651 1_555
Rh1 Sb0 2.670818 1_545
Rh1 Sb0 2.670818 1_455
Rh1 Sb0 2.670818 1_554
Rh2 Sb0 2.670818 1_565
Rh2 Sb0 2.670818 1_655
Rh2 Sb0 2.670818 1_556
Rh3 Sb0 2.646651 1_555
