# generated using pymatgen
data_Sr6Ti2VO12
_symmetry_space_group_name_H-M   'P 1'
_cell_length_a   8.71429725
_cell_length_b   8.71429707
_cell_length_c   6.83415402
_cell_angle_alpha   67.49809036
_cell_angle_beta   67.49809272
_cell_angle_gamma   36.85785120
_symmetry_Int_Tables_number   1
_chemical_formula_structural   Sr6Ti2VO12
_chemical_formula_sum   'Sr6 Ti2 V1 O12'
_cell_volume   284.84650741
_cell_formula_units_Z   1
loop_
 _symmetry_equiv_pos_site_id
 _symmetry_equiv_pos_as_xyz
  1  'x, y, z'
loop_
 _atom_site_type_symbol
 _atom_site_label
 _atom_site_symmetry_multiplicity
 _atom_site_fract_x
 _atom_site_fract_y
 _atom_site_fract_z
 _atom_site_occupancy
  Sr  Sr0  1  0.88055479  0.88055479  0.71209761  1
  Sr  Sr1  1  0.21551334  0.21551334  0.71216202  1
  Sr  Sr2  1  0.54759821  0.54759821  0.71343323  1
  Sr  Sr3  1  0.45240179  0.45240179  0.28656677  1
  Sr  Sr4  1  0.78448666  0.78448666  0.28783798  1
  Sr  Sr5  1  0.11944521  0.11944521  0.28790239  1
  Ti  Ti0  1  0.66572200  0.66572200  0.99959065  1
  Ti  Ti1  1  0.33427800  0.33427800  0.00040935  1
  V  V0  1  0.00000000  0.00000000  0.00000000  1
  O  O0  1  0.94957962  0.94957962  0.30567012  1
  O  O1  1  0.27996431  0.27996431  0.31778066  1
  O  O2  1  0.61325509  0.61325509  0.31891303  1
  O  O3  1  0.38674491  0.38674491  0.68108697  1
  O  O4  1  0.72003569  0.72003569  0.68221934  1
  O  O5  1  0.05042038  0.05042038  0.69432988  1
  O  O6  1  0.50000000  0.00000000  0.00000000  1
  O  O7  1  0.83424247  0.33285729  0.99995702  1
  O  O8  1  0.16575753  0.66714271  0.00004298  1
  O  O9  1  0.00000000  0.50000000  0.00000000  1
  O  O10  1  0.33285729  0.83424247  0.99995702  1
  O  O11  1  0.66714271  0.16575753  0.00004298  1
loop_
_geom_bond_atom_site_label_1
_geom_bond_atom_site_label_2
_geom_bond_distance
_geom_bond_site_symmetry_2
O0 V0 1.911501 1_665
O0 Sr0 2.541642 1_555
O0 Sr3 2.757429 1_565
O0 Sr3 2.757429 1_655
O0 Sr5 2.761945 1_665
O0 Sr4 2.781176 1_555
O1 Ti1 1.984786 1_555
O1 Sr1 2.466322 1_555
O1 Sr5 2.742893 1_555
O1 Sr4 2.761201 1_455
O1 Sr4 2.761201 1_545
O1 Sr3 2.772045 1_555
O2 Ti0 1.996894 1_554
O2 Sr2 2.467096 1_555
O2 Sr4 2.752476 1_555
O2 Sr3 2.756284 1_555
O2 Sr5 2.761702 1_565
O2 Sr5 2.761702 1_655
O3 Ti1 1.996894 1_556
O3 Sr3 2.467096 1_555
O3 Sr1 2.752476 1_555
O3 Sr2 2.756284 1_555
O3 Sr0 2.761702 1_545
O3 Sr0 2.761702 1_455
O4 Ti0 1.984786 1_555
O4 Sr4 2.466322 1_555
O4 Sr0 2.742893 1_555
O4 Sr1 2.761201 1_655
O4 Sr1 2.761201 1_565
O4 Sr2 2.772045 1_555
O5 V0 1.911501 1_556
O5 Sr5 2.541642 1_555
O5 Sr2 2.757429 1_545
O5 Sr2 2.757429 1_455
O5 Sr0 2.761945 1_445
O5 Sr1 2.781176 1_555
O6 Ti1 1.960185 1_555
O6 Ti0 1.960185 1_544
O6 Sr4 2.645192 1_545
O6 Sr1 2.645192 1_554
O6 Sr0 2.646086 1_544
O6 Sr5 2.646086 1_555
O7 Ti0 1.936783 1_555
O7 V0 1.948060 1_656
O7 Sr3 2.649518 1_556
O7 Sr2 2.652294 1_555
O7 Sr1 2.655900 1_655
O7 Sr5 2.655910 1_656
O8 Ti1 1.936783 1_555
O8 V0 1.948060 1_565
O8 Sr2 2.649518 1_554
O8 Sr3 2.652294 1_555
O8 Sr4 2.655900 1_455
O8 Sr0 2.655910 1_454
O9 Ti1 1.960185 1_555
O9 Ti0 1.960185 1_454
O9 Sr4 2.645192 1_455
O9 Sr1 2.645192 1_554
O9 Sr0 2.646086 1_454
O9 Sr5 2.646086 1_555
O10 Ti0 1.936783 1_555
O10 V0 1.948060 1_566
O10 Sr3 2.649518 1_556
O10 Sr2 2.652294 1_555
O10 Sr1 2.655900 1_565
O10 Sr5 2.655910 1_566
O11 Ti1 1.936783 1_555
O11 V0 1.948060 1_655
O11 Sr2 2.649518 1_554
O11 Sr3 2.652294 1_555
O11 Sr4 2.655900 1_545
O11 Sr0 2.655910 1_544
