# generated using pymatgen
data_Hf2Ta2WN6
_symmetry_space_group_name_H-M   'P 1'
_cell_length_a   5.21310974
_cell_length_b   5.20295594
_cell_length_c   10.60054704
_cell_angle_alpha   90.00000000
_cell_angle_beta   90.00000000
_cell_angle_gamma   119.93556989
_symmetry_Int_Tables_number   1
_chemical_formula_structural   Hf2Ta2WN6
_chemical_formula_sum   'Hf4 Ta4 W2 N12'
_cell_volume   249.16527725
_cell_formula_units_Z   2
loop_
 _symmetry_equiv_pos_site_id
 _symmetry_equiv_pos_as_xyz
  1  'x, y, z'
loop_
 _atom_site_type_symbol
 _atom_site_label
 _atom_site_symmetry_multiplicity
 _atom_site_fract_x
 _atom_site_fract_y
 _atom_site_fract_z
 _atom_site_occupancy
  Hf  Hf0  1  0.66734266  0.33369117  0.00477572  1
  Hf  Hf1  1  0.33265734  0.66634952  0.00477572  1
  Hf  Hf2  1  0.33265734  0.66634952  0.49522428  1
  Hf  Hf3  1  0.66734266  0.33369117  0.49522428  1
  Ta  Ta0  1  0.00000000  0.32513564  0.75000000  1
  Ta  Ta1  1  0.32392355  0.32398675  0.25000000  1
  Ta  Ta2  1  0.67607645  0.00006320  0.25000000  1
  Ta  Ta3  1  1.00000000  0.67606475  0.25000000  1
  W  W0  1  0.67462986  0.67408041  0.75000000  1
  W  W1  1  0.32537014  0.99945055  0.75000000  1
  N  N0  1  0.65778226  0.65806754  0.37649805  1
  N  N1  1  0.34221774  0.00028528  0.37649805  1
  N  N2  1  1.00000000  0.34135281  0.37614295  1
  N  N3  1  0.34625058  0.34447881  0.62840748  1
  N  N4  1  0.65374942  0.99822823  0.62840748  1
  N  N5  1  0.00000000  0.65815648  0.62826263  1
  N  N6  1  0.34625058  0.34447881  0.87159252  1
  N  N7  1  0.65374942  0.99822823  0.87159252  1
  N  N8  1  0.00000000  0.65815648  0.87173737  1
  N  N9  1  0.65778226  0.65806754  0.12350195  1
  N  N10  1  0.34221774  0.00028528  0.12350195  1
  N  N11  1  1.00000000  0.34135281  0.12385705  1
loop_
_geom_bond_atom_site_label_1
_geom_bond_atom_site_label_2
_geom_bond_distance
_geom_bond_site_symmetry_2
Hf0 N9 2.125747 1_555
Hf0 N10 2.128720 1_555
Hf0 N11 2.129188 1_555
Hf0 N6 2.211796 1_554
Hf0 N7 2.218382 1_544
Hf0 N8 2.219079 1_654
Hf1 N10 2.125743 1_565
Hf1 N9 2.128722 1_555
Hf1 N11 2.129190 1_455
Hf1 N7 2.211794 1_554
Hf1 N6 2.218386 1_554
Hf1 N8 2.219077 1_554
Hf2 N1 2.125743 1_565
Hf2 N0 2.128722 1_555
Hf2 N2 2.129190 1_455
Hf2 N4 2.211794 1_555
Hf2 N3 2.218386 1_555
Hf2 N5 2.219077 1_555
Hf3 N0 2.125747 1_555
Hf3 N1 2.128720 1_555
Hf3 N2 2.129188 1_555
Hf3 N3 2.211796 1_555
Hf3 N4 2.218382 1_545
Hf3 N5 2.219079 1_655
N0 Ta2 2.191824 1_565
N0 Ta3 2.196112 1_555
N0 Ta1 2.197565 1_555
N1 Ta1 2.191824 1_555
N1 Ta3 2.196112 1_445
N1 Ta2 2.197565 1_555
N2 Ta1 2.190900 1_655
N2 Ta2 2.190900 1_555
N2 Ta3 2.195644 1_555
N3 W0 2.145418 1_555
N3 W1 2.168140 1_545
N3 Ta0 2.179078 1_555
N4 W1 2.145417 1_555
N4 W0 2.168140 1_555
N4 Ta0 2.179079 1_665
N5 Ta0 2.160456 1_555
N5 W0 2.165532 1_455
N5 W1 2.165533 1_555
N6 W0 2.145418 1_555
N6 W1 2.168140 1_545
N6 Ta0 2.179078 1_555
N7 W1 2.145417 1_555
N7 W0 2.168140 1_555
N7 Ta0 2.179079 1_665
N8 Ta0 2.160456 1_555
N8 W0 2.165532 1_455
N8 W1 2.165533 1_555
N9 Ta2 2.191824 1_565
N9 Ta3 2.196112 1_555
N9 Ta1 2.197565 1_555
N10 Ta1 2.191824 1_555
N10 Ta3 2.196112 1_445
N10 Ta2 2.197565 1_555
N11 Ta1 2.190900 1_655
N11 Ta2 2.190900 1_555
N11 Ta3 2.195644 1_555
