# generated using pymatgen
data_HfZr5CoCl15
_symmetry_space_group_name_H-M   'P 1'
_cell_length_a   8.87283705
_cell_length_b   8.87283705
_cell_length_c   8.87283693
_cell_angle_alpha   109.41727263
_cell_angle_beta   109.41726931
_cell_angle_gamma   109.57917091
_symmetry_Int_Tables_number   1
_chemical_formula_structural   HfZr5CoCl15
_chemical_formula_sum   'Hf1 Zr5 Co1 Cl15'
_cell_volume   537.73026456
_cell_formula_units_Z   1
loop_
 _symmetry_equiv_pos_site_id
 _symmetry_equiv_pos_as_xyz
  1  'x, y, z'
loop_
 _atom_site_type_symbol
 _atom_site_label
 _atom_site_symmetry_multiplicity
 _atom_site_fract_x
 _atom_site_fract_y
 _atom_site_fract_z
 _atom_site_occupancy
  Hf  Hf0  1  0.23850136  0.23850136  0.00000000  1
  Zr  Zr0  1  0.75981670  0.75981670  1.00000000  1
  Zr  Zr1  1  0.76144085  0.99997691  0.76146395  1
  Zr  Zr2  1  0.99997691  0.76144085  0.76146395  1
  Zr  Zr3  1  0.99997691  0.23851296  0.23853605  1
  Zr  Zr4  1  0.23851296  0.99997691  0.23853605  1
  Co  Co0  1  0.99774847  0.99774847  0.00000000  1
  Cl  Cl0  1  0.75161722  0.50366497  0.75204775  1
  Cl  Cl1  1  0.49313131  0.49313131  0.00000000  1
  Cl  Cl2  1  0.00095266  0.50095266  0.50000000  1
  Cl  Cl3  1  0.50095266  0.00095266  0.50000000  1
  Cl  Cl4  1  0.24966783  0.00559226  0.75592443  1
  Cl  Cl5  1  0.00559226  0.24966783  0.75592443  1
  Cl  Cl6  1  0.75161722  0.99956948  0.24795225  1
  Cl  Cl7  1  0.50366497  0.75161722  0.75204775  1
  Cl  Cl8  1  0.99956948  0.75161722  0.24795225  1
  Cl  Cl9  1  0.24865162  0.24865162  0.49537922  1
  Cl  Cl10  1  0.75327140  0.24865162  1.00000000  1
  Cl  Cl11  1  0.49374339  0.24966783  0.24407557  1
  Cl  Cl12  1  0.24966783  0.49374339  0.24407557  1
  Cl  Cl13  1  0.75327140  0.75327140  0.50462078  1
  Cl  Cl14  1  0.24865162  0.75327140  0.00000000  1
loop_
_geom_bond_atom_site_label_1
_geom_bond_atom_site_label_2
_geom_bond_distance
_geom_bond_site_symmetry_2
Co0 Zr0 2.434474 1_554
Co0 Zr2 2.445647 1_554
Co0 Zr3 2.445647 1_565
Co0 Zr1 2.445647 1_554
Co0 Zr4 2.445647 1_655
Co0 Hf0 2.463339 1_665
Cl0 Zr2 2.543004 1_555
Cl0 Zr0 2.543462 1_555
Cl1 Hf0 2.605327 1_555
Cl1 Zr0 2.728676 1_554
Cl2 Zr2 2.680623 1_455
Cl2 Zr3 2.680623 1_455
Cl3 Zr1 2.680623 1_545
Cl3 Zr4 2.680623 1_545
Cl4 Hf0 2.504940 1_556
Cl4 Zr2 2.555423 1_445
Cl5 Hf0 2.504941 1_556
Cl5 Zr1 2.555423 1_445
Cl6 Zr3 2.543004 1_565
Cl6 Zr0 2.543462 1_554
Cl7 Zr1 2.543004 1_555
Cl7 Zr0 2.543463 1_555
Cl8 Zr4 2.543004 1_655
Cl8 Zr0 2.543462 1_554
Cl9 Zr4 2.541139 1_545
Cl9 Zr3 2.541139 1_455
Cl10 Zr1 2.541144 1_545
Cl10 Zr3 2.541145 1_556
Cl11 Hf0 2.504941 1_555
Cl11 Zr4 2.555423 1_545
Cl12 Hf0 2.504940 1_555
Cl12 Zr3 2.555423 1_455
Cl13 Zr1 2.541139 1_555
Cl13 Zr2 2.541139 1_555
Cl14 Zr4 2.541144 1_555
Cl14 Zr2 2.541145 1_454
