# generated using pymatgen
data_BaLiAgAs2
_symmetry_space_group_name_H-M   'P 1'
_cell_length_a   6.33221109
_cell_length_b   6.33221016
_cell_length_c   6.33221079
_cell_angle_alpha   137.54900259
_cell_angle_beta   137.54899237
_cell_angle_gamma   61.59443762
_symmetry_Int_Tables_number   1
_chemical_formula_structural   BaLiAgAs2
_chemical_formula_sum   'Ba1 Li1 Ag1 As2'
_cell_volume   114.34664103
_cell_formula_units_Z   1
loop_
 _symmetry_equiv_pos_site_id
 _symmetry_equiv_pos_as_xyz
  1  'x, y, z'
loop_
 _atom_site_type_symbol
 _atom_site_label
 _atom_site_symmetry_multiplicity
 _atom_site_fract_x
 _atom_site_fract_y
 _atom_site_fract_z
 _atom_site_occupancy
  Ba  Ba0  1  0.00000000  0.00000000  0.00000000  1
  Li  Li0  1  0.25000000  0.75000000  0.50000000  1
  Ag  Ag0  1  0.75000000  0.25000000  0.50000000  1
  As  As0  1  0.61813304  0.61813304  0.00000000  1
  As  As1  1  0.38186696  0.38186696  1.00000000  1
loop_
_geom_bond_atom_site_label_1
_geom_bond_atom_site_label_2
_geom_bond_distance
_geom_bond_site_symmetry_2
Ba0 Li0 3.556968 1_555
Ba0 Li0 3.556969 1_544
Ba0 Li0 3.556969 1_545
Ba0 Li0 3.556969 1_444
Ag0 As0 2.704339 1_545
Ag0 As0 2.704340 1_556
Ag0 As1 2.704340 1_554
Ag0 As1 2.704340 1_655
Ag0 Li0 3.242099 1_656
Ag0 Li0 3.242099 1_544
Ag0 Li0 3.242099 1_555
Ag0 Li0 3.242099 1_645
Ag0 Ba0 3.556968 1_666
Ag0 Ba0 3.556969 1_655
Ag0 Ba0 3.556969 1_656
Ag0 Ba0 3.556969 1_555
As0 As1 2.570231 1_554
As0 Li0 2.704340 1_554
As0 Li0 2.704340 1_655
As0 Ba0 3.487510 1_655
As0 Ba0 3.487510 1_554
As0 Ba0 3.487511 1_666
As0 Ba0 3.487511 1_565
As1 Li0 2.704339 1_545
As1 Li0 2.704340 1_556
As1 Ba0 3.487510 1_566
As1 Ba0 3.487510 1_667
As1 Ba0 3.487511 1_555
As1 Ba0 3.487511 1_656
