# generated using pymatgen
data_Rb5SrTaP4
_symmetry_space_group_name_H-M   'P 1'
_cell_length_a   10.51438809
_cell_length_b   10.51438726
_cell_length_c   7.92024776
_cell_angle_alpha   87.95144812
_cell_angle_beta   87.95145290
_cell_angle_gamma   120.71302047
_symmetry_Int_Tables_number   1
_chemical_formula_structural   Rb5SrTaP4
_chemical_formula_sum   'Rb10 Sr2 Ta2 P8'
_cell_volume   750.81813260
_cell_formula_units_Z   2
loop_
 _symmetry_equiv_pos_site_id
 _symmetry_equiv_pos_as_xyz
  1  'x, y, z'
loop_
 _atom_site_type_symbol
 _atom_site_label
 _atom_site_symmetry_multiplicity
 _atom_site_fract_x
 _atom_site_fract_y
 _atom_site_fract_z
 _atom_site_occupancy
  Rb  Rb0  1  0.46498640  0.52446074  0.49445065  1
  Rb  Rb1  1  0.06060703  0.52803107  0.49812428  1
  Rb  Rb2  1  0.52446074  0.46498640  0.99445065  1
  Rb  Rb3  1  0.52803107  0.06060703  0.99812428  1
  Rb  Rb4  1  0.86511255  0.14126905  0.68305356  1
  Rb  Rb5  1  0.29644411  0.15460170  0.73016861  1
  Rb  Rb6  1  0.85603392  0.71850272  0.65232353  1
  Rb  Rb7  1  0.14126905  0.86511255  0.18305356  1
  Rb  Rb8  1  0.71850272  0.85603392  0.15232353  1
  Rb  Rb9  1  0.15460170  0.29644411  0.23016861  1
  Sr  Sr0  1  0.46279764  0.93349503  0.49210866  1
  Sr  Sr1  1  0.93349503  0.46279764  0.99210866  1
  Ta  Ta0  1  0.67099833  0.32819130  0.39251487  1
  Ta  Ta1  1  0.32819130  0.67099833  0.89251487  1
  P  P0  1  0.69126783  0.34229168  0.69405143  1
  P  P1  1  0.34229168  0.69126783  0.19405143  1
  P  P2  1  0.78877777  0.19857013  0.28678964  1
  P  P3  1  0.41290944  0.18881335  0.33030538  1
  P  P4  1  0.79680590  0.57502930  0.26039939  1
  P  P5  1  0.19857013  0.78877777  0.78678964  1
  P  P6  1  0.57502930  0.79680590  0.76039939  1
  P  P7  1  0.18881335  0.41290944  0.83030538  1
loop_
_geom_bond_atom_site_label_1
_geom_bond_atom_site_label_2
_geom_bond_distance
_geom_bond_site_symmetry_2
P0 Ta0 2.408431 1_555
P0 Sr1 3.318459 1_555
P0 Rb3 3.394084 1_555
P0 Rb6 3.409270 1_555
P0 Rb4 3.429916 1_555
P0 Rb2 3.554349 1_555
P0 Rb5 3.565982 1_555
P0 Rb1 3.592808 1_655
P1 Ta1 2.408431 1_554
P1 Sr0 3.318459 1_555
P1 Rb1 3.394084 1_555
P1 Rb8 3.409271 1_555
P1 Rb7 3.429916 1_555
P1 Rb0 3.554349 1_555
P1 Rb9 3.565982 1_555
P1 Rb3 3.592808 1_564
P2 Ta0 2.413235 1_555
P2 Sr1 3.231930 1_554
P2 Rb4 3.375835 1_555
P2 Rb3 3.386828 1_554
P2 Sr0 3.417545 1_545
P2 Rb9 3.443170 1_655
P2 Rb8 3.501938 1_545
P2 Rb1 3.689653 1_655
P3 Ta0 2.416461 1_555
P3 Sr0 3.219404 1_545
P3 Rb5 3.293975 1_555
P3 Rb7 3.419629 1_545
P3 Rb3 3.449176 1_554
P3 Rb9 3.537722 1_555
P3 Rb2 3.553772 1_554
P3 Rb0 3.584655 1_555
P4 Ta0 2.404287 1_555
P4 Sr1 3.109133 1_554
P4 Rb2 3.346122 1_554
P4 Rb7 3.349548 1_655
P4 Rb6 3.436935 1_555
P4 Rb8 3.534759 1_555
P4 Rb1 3.631758 1_655
P4 Rb0 3.669283 1_555
P5 Ta1 2.413235 1_555
P5 Sr0 3.231930 1_555
P5 Rb7 3.375836 1_556
P5 Rb1 3.386828 1_555
P5 Sr1 3.417545 1_455
P5 Rb5 3.443170 1_565
P5 Rb6 3.501938 1_455
P5 Rb3 3.689653 1_565
P6 Ta1 2.404287 1_555
P6 Sr0 3.109133 1_555
P6 Rb0 3.346121 1_555
P6 Rb4 3.349548 1_565
P6 Rb8 3.436935 1_556
P6 Rb6 3.534760 1_555
P6 Rb3 3.631758 1_565
P6 Rb2 3.669282 1_555
P7 Ta1 2.416461 1_555
P7 Sr1 3.219404 1_455
P7 Rb9 3.293975 1_556
P7 Rb4 3.419629 1_455
P7 Rb1 3.449176 1_555
P7 Rb5 3.537722 1_555
P7 Rb0 3.553772 1_555
P7 Rb2 3.584655 1_555
