# generated using pymatgen
data_Cs3Hf2Te10Au
_symmetry_space_group_name_H-M   'P 1'
_cell_length_a   10.14580079
_cell_length_b   11.25110702
_cell_length_c   11.42650409
_cell_angle_alpha   88.79072857
_cell_angle_beta   89.53567216
_cell_angle_gamma   77.93372842
_symmetry_Int_Tables_number   1
_chemical_formula_structural   Cs3Hf2Te10Au
_chemical_formula_sum   'Cs6 Hf4 Te20 Au2'
_cell_volume   1275.24153658
_cell_formula_units_Z   2
loop_
 _symmetry_equiv_pos_site_id
 _symmetry_equiv_pos_as_xyz
  1  'x, y, z'
loop_
 _atom_site_type_symbol
 _atom_site_label
 _atom_site_symmetry_multiplicity
 _atom_site_fract_x
 _atom_site_fract_y
 _atom_site_fract_z
 _atom_site_occupancy
  Cs  Cs0  1  0.87423326  0.88978051  0.25498245  1
  Cs  Cs1  1  0.12576674  0.11021949  0.74501755  1
  Cs  Cs2  1  0.43273302  0.76837363  0.38518416  1
  Cs  Cs3  1  0.56726698  0.23162637  0.61481584  1
  Cs  Cs4  1  0.30250330  0.62959052  0.88998444  1
  Cs  Cs5  1  0.69749670  0.37040948  0.11001556  1
  Hf  Hf0  1  0.10173754  0.37957423  0.36556650  1
  Hf  Hf1  1  0.89826246  0.62042577  0.63443350  1
  Hf  Hf2  1  0.30767837  0.15768386  0.14642948  1
  Hf  Hf3  1  0.69232163  0.84231614  0.85357052  1
  Te  Te0  1  0.83755269  0.56415600  0.39616276  1
  Te  Te1  1  0.16244731  0.43584400  0.60383724  1
  Te  Te2  1  0.92319182  0.20243268  0.39374057  1
  Te  Te3  1  0.07680818  0.79756732  0.60625943  1
  Te  Te4  1  0.19817013  0.58379430  0.22472625  1
  Te  Te5  1  0.80182987  0.41620570  0.77527375  1
  Te  Te6  1  0.20816856  0.11790928  0.39159781  1
  Te  Te7  1  0.79183144  0.88209072  0.60840219  1
  Te  Te8  1  0.07767463  0.36055290  0.11049522  1
  Te  Te9  1  0.92232537  0.63944710  0.88950478  1
  Te  Te10  1  0.38754426  0.35465293  0.29230407  1
  Te  Te11  1  0.61245574  0.64534707  0.70769593  1
  Te  Te12  1  0.04343512  0.12284206  0.06975143  1
  Te  Te13  1  0.95656488  0.87715794  0.93024857  1
  Te  Te14  1  0.52212759  0.08856368  0.31067062  1
  Te  Te15  1  0.47787241  0.91143632  0.68932938  1
  Te  Te16  1  0.33299014  0.91462821  0.06679196  1
  Te  Te17  1  0.66700986  0.08537179  0.93320804  1
  Te  Te18  1  0.41034764  0.24547891  0.93474004  1
  Te  Te19  1  0.58965236  0.75452109  0.06525996  1
  Au  Au0  1  0.91130171  0.36070494  0.56587724  1
  Au  Au1  1  0.08869829  0.63929506  0.43412276  1
loop_
_geom_bond_atom_site_label_1
_geom_bond_atom_site_label_2
_geom_bond_distance
_geom_bond_site_symmetry_2
Cs0 Te13 3.795878 1_554
Cs0 Te14 3.853802 1_565
Cs0 Te12 3.986424 1_665
Cs0 Te2 4.014151 1_565
Cs0 Te0 4.058815 1_555
Cs0 Te7 4.120133 1_555
Cs0 Te19 4.174904 1_555
Cs0 Te4 4.251426 1_655
Cs1 Te12 3.795878 1_556
Cs1 Te15 3.853802 1_545
Cs1 Te13 3.986424 1_445
Cs1 Te3 4.014151 1_545
Cs1 Te1 4.058815 1_555
Cs1 Te6 4.120133 1_555
Cs1 Te18 4.174904 1_555
Cs1 Te5 4.251426 1_455
Cs2 Te15 3.930462 1_555
Cs2 Te4 3.954200 1_555
Cs2 Te19 3.968436 1_555
Cs2 Te14 3.968572 1_565
Cs2 Te16 4.009796 1_555
Cs2 Te6 4.114075 1_565
Cs2 Te11 4.202358 1_555
Cs2 Te0 4.267902 1_555
Cs2 Te3 4.349802 1_555
Cs3 Te14 3.930462 1_555
Cs3 Te5 3.954200 1_555
Cs3 Te18 3.968436 1_555
Cs3 Te15 3.968572 1_545
Cs3 Te17 4.009796 1_555
Cs3 Te7 4.114075 1_545
Cs3 Te10 4.202358 1_555
Cs3 Te1 4.267902 1_555
Cs3 Te2 4.349802 1_555
Cs4 Te11 3.790851 1_555
Cs4 Te9 3.835606 1_455
Cs4 Te16 3.893631 1_556
Cs4 Te4 4.011896 1_556
Cs4 Te13 4.028599 1_455
Cs4 Te19 4.049692 1_556
Cs4 Te3 4.168705 1_555
Cs4 Te18 4.251407 1_555
Cs4 Te1 4.374112 1_555
Cs5 Te10 3.790851 1_555
Cs5 Te8 3.835606 1_655
Cs5 Te17 3.893631 1_554
Cs5 Te5 4.011896 1_554
Cs5 Te12 4.028599 1_655
Cs5 Te18 4.049692 1_554
Cs5 Te2 4.168705 1_555
Cs5 Te19 4.251407 1_555
Cs5 Te0 4.374112 1_555
Hf0 Te1 2.907874 1_555
Hf0 Te6 2.925900 1_555
Hf0 Te8 2.942761 1_555
Hf0 Te10 2.969600 1_555
Hf0 Te2 2.971573 1_455
Hf0 Te0 3.050850 1_455
Hf0 Te4 3.095939 1_555
Hf1 Te0 2.907874 1_555
Hf1 Te7 2.925900 1_555
Hf1 Te9 2.942761 1_555
Hf1 Te11 2.969600 1_555
Hf1 Te3 2.971573 1_655
Hf1 Te1 3.050850 1_655
Hf1 Te5 3.095939 1_555
Hf2 Te14 2.856201 1_555
Hf2 Te16 2.860058 1_545
Hf2 Te18 2.863603 1_554
Hf2 Te8 2.927978 1_555
Hf2 Te12 2.932718 1_555
Hf2 Te6 3.026160 1_555
Hf2 Te10 3.045439 1_555
Hf3 Te15 2.856201 1_555
Hf3 Te17 2.860058 1_565
Hf3 Te19 2.863603 1_556
Hf3 Te9 2.927978 1_555
Hf3 Te13 2.932718 1_555
Hf3 Te7 3.026160 1_555
Hf3 Te11 3.045439 1_555
Te2 Te6 2.848675 1_655
Te3 Te7 2.848675 1_455
Te4 Te8 3.309834 1_555
Te5 Te9 3.309834 1_555
Te10 Te4 2.967067 1_555
Te10 Te14 3.023305 1_555
Te11 Te5 2.967067 1_555
Te11 Te15 3.023305 1_555
Te12 Te8 2.816743 1_555
Te13 Te9 2.816743 1_555
Te16 Te19 2.840023 1_555
Te17 Te18 2.840023 1_555
Au0 Te5 2.660533 1_555
Au0 Te2 2.666184 1_555
Au0 Te1 2.886090 1_655
Au0 Te0 2.946244 1_555
Au0 Hf0 3.016011 1_655
Au0 Hf1 3.017186 1_555
Au0 Cs1 3.759252 1_655
Au0 Cs3 4.081531 1_555
Au1 Te4 2.660533 1_555
Au1 Te3 2.666184 1_555
Au1 Te0 2.886090 1_455
Au1 Te1 2.946244 1_555
Au1 Hf1 3.016011 1_455
Au1 Hf0 3.017186 1_555
Au1 Cs0 3.759252 1_455
Au1 Cs2 4.081531 1_555
