# generated using pymatgen
data_Hf3Zn3B
_symmetry_space_group_name_H-M   'P 1'
_cell_length_a   8.60465392
_cell_length_b   8.60465396
_cell_length_c   8.60465443
_cell_angle_alpha   59.99999820
_cell_angle_beta   59.99999803
_cell_angle_gamma   60.00000101
_symmetry_Int_Tables_number   1
_chemical_formula_structural   Hf3Zn3B
_chemical_formula_sum   'Hf12 Zn12 B4'
_cell_volume   450.49009274
_cell_formula_units_Z   4
loop_
 _symmetry_equiv_pos_site_id
 _symmetry_equiv_pos_as_xyz
  1  'x, y, z'
loop_
 _atom_site_type_symbol
 _atom_site_label
 _atom_site_symmetry_multiplicity
 _atom_site_fract_x
 _atom_site_fract_y
 _atom_site_fract_z
 _atom_site_occupancy
  Hf  Hf0  1  0.44940740  0.44940740  0.05059260  1
  Hf  Hf1  1  0.05059260  0.44940740  0.05059260  1
  Hf  Hf2  1  0.44940740  0.05059260  0.05059260  1
  Hf  Hf3  1  0.05059260  0.05059260  0.44940740  1
  Hf  Hf4  1  0.44940740  0.05059260  0.44940740  1
  Hf  Hf5  1  0.05059260  0.44940740  0.44940740  1
  Hf  Hf6  1  0.80059260  0.80059260  0.19940740  1
  Hf  Hf7  1  0.19940740  0.80059260  0.19940740  1
  Hf  Hf8  1  0.80059260  0.19940740  0.19940740  1
  Hf  Hf9  1  0.19940740  0.19940740  0.80059260  1
  Hf  Hf10  1  0.80059260  0.19940740  0.80059260  1
  Hf  Hf11  1  0.19940740  0.80059260  0.80059260  1
  Zn  Zn0  1  0.83111608  0.83111608  0.50665076  1
  Zn  Zn1  1  0.83111608  0.50665076  0.83111608  1
  Zn  Zn2  1  0.50665076  0.83111608  0.83111608  1
  Zn  Zn3  1  0.83111608  0.83111608  0.83111608  1
  Zn  Zn4  1  0.41888392  0.41888392  0.74334924  1
  Zn  Zn5  1  0.41888392  0.74334924  0.41888392  1
  Zn  Zn6  1  0.74334924  0.41888392  0.41888392  1
  Zn  Zn7  1  0.41888392  0.41888392  0.41888392  1
  Zn  Zn8  1  0.62500000  0.62500000  0.12500000  1
  Zn  Zn9  1  0.62500000  0.12500000  0.62500000  1
  Zn  Zn10  1  0.12500000  0.62500000  0.62500000  1
  Zn  Zn11  1  0.62500000  0.62500000  0.62500000  1
  B  B0  1  0.12500000  0.12500000  0.62500000  1
  B  B1  1  0.12500000  0.62500000  0.12500000  1
  B  B2  1  0.62500000  0.12500000  0.12500000  1
  B  B3  1  0.12500000  0.12500000  0.12500000  1
loop_
_geom_bond_atom_site_label_1
_geom_bond_atom_site_label_2
_geom_bond_distance
_geom_bond_site_symmetry_2
Hf0 Zn4 2.930006 1_554
Hf0 Zn7 2.930014 1_555
Hf0 Zn1 3.013581 1_554
Hf0 Zn2 3.013581 1_554
Hf0 Zn11 3.032033 1_554
Hf0 Zn8 3.032033 1_555
Hf1 Zn4 2.930010 1_554
Hf1 Zn6 2.930010 1_455
Hf1 Zn3 3.013585 1_454
Hf1 Zn1 3.013589 1_454
Hf1 Zn8 3.032033 1_455
Hf1 Zn10 3.032033 1_554
Hf2 Zn4 2.930010 1_554
Hf2 Zn5 2.930010 1_545
Hf2 Zn3 3.013585 1_544
Hf2 Zn2 3.013589 1_544
Hf2 Zn8 3.032033 1_545
Hf2 Zn9 3.032033 1_554
Hf3 Zn5 2.930010 1_545
Hf3 Zn6 2.930010 1_455
Hf3 Zn3 3.013585 1_445
Hf3 Zn0 3.013589 1_445
Hf3 Zn9 3.032033 1_455
Hf3 Zn10 3.032033 1_545
Hf4 Zn5 2.930005 1_545
Hf4 Zn7 2.930014 1_555
Hf4 Zn0 3.013581 1_545
Hf4 Zn2 3.013581 1_545
Hf4 Zn11 3.032033 1_545
Hf4 Zn9 3.032033 1_555
Hf5 Zn6 2.930005 1_455
Hf5 Zn7 2.930014 1_555
Hf5 Zn0 3.013581 1_455
Hf5 Zn1 3.013581 1_455
Hf5 Zn11 3.032033 1_455
Hf5 Zn10 3.032033 1_555
Hf6 Zn0 2.930006 1_555
Hf6 Zn3 2.930014 1_554
Hf6 Zn5 3.013581 1_555
Hf6 Zn6 3.013581 1_555
Hf6 Zn8 3.032033 1_555
Hf6 Zn11 3.032033 1_555
Hf7 Zn0 2.930010 1_455
Hf7 Zn2 2.930010 1_554
Hf7 Zn7 3.013585 1_555
Hf7 Zn5 3.013589 1_555
Hf7 Zn8 3.032033 1_555
Hf7 Zn10 3.032033 1_555
Hf8 Zn0 2.930010 1_545
Hf8 Zn1 2.930010 1_554
Hf8 Zn7 3.013585 1_555
Hf8 Zn6 3.013589 1_555
Hf8 Zn8 3.032033 1_555
Hf8 Zn9 3.032033 1_555
Hf9 Zn1 2.930010 1_455
Hf9 Zn2 2.930010 1_545
Hf9 Zn7 3.013585 1_555
Hf9 Zn4 3.013589 1_555
Hf9 Zn9 3.032033 1_555
Hf9 Zn10 3.032033 1_555
Hf10 Zn1 2.930005 1_555
Hf10 Zn3 2.930014 1_545
Hf10 Zn4 3.013581 1_555
Hf10 Zn6 3.013581 1_555
Hf10 Zn11 3.032033 1_555
Hf10 Zn9 3.032033 1_555
Hf11 Zn2 2.930005 1_555
Hf11 Zn3 2.930014 1_455
Hf11 Zn4 3.013581 1_555
Hf11 Zn5 3.013581 1_555
Hf11 Zn11 3.032033 1_555
Hf11 Zn10 3.032033 1_555
Zn0 Zn11 2.619417 1_555
Zn0 Zn10 2.619424 1_655
Zn0 Zn9 2.619424 1_565
Zn0 Zn2 2.791912 1_555
Zn0 Zn1 2.791912 1_555
Zn0 Zn3 2.791912 1_555
Zn1 Zn11 2.619417 1_555
Zn1 Zn10 2.619424 1_655
Zn1 Zn8 2.619424 1_556
Zn1 Zn3 2.791912 1_555
Zn1 Zn2 2.791912 1_555
Zn2 Zn9 2.619424 1_565
Zn2 Zn8 2.619424 1_556
Zn2 Zn3 2.791912 1_555
Zn3 Zn8 2.619419 1_556
Zn3 Zn9 2.619419 1_565
Zn4 Zn9 2.619424 1_555
Zn4 Zn6 2.791912 1_555
Zn4 Zn5 2.791912 1_555
Zn4 Zn7 2.791912 1_555
Zn5 Zn8 2.619424 1_555
Zn5 Zn7 2.791912 1_555
Zn5 Zn6 2.791912 1_555
Zn6 Zn9 2.619424 1_555
Zn6 Zn8 2.619424 1_555
Zn6 Zn7 2.791912 1_555
Zn7 Zn8 2.619419 1_555
Zn7 Zn9 2.619419 1_555
Zn10 Zn3 2.619419 1_455
Zn10 Zn7 2.619419 1_555
Zn10 Zn5 2.619424 1_555
Zn10 Zn4 2.619424 1_555
Zn11 Zn4 2.619417 1_555
Zn11 Zn5 2.619417 1_555
Zn11 Zn2 2.619417 1_555
Zn11 Zn6 2.619417 1_555
B0 Hf4 2.333955 1_555
B0 Hf10 2.333955 1_455
B0 Hf5 2.333955 1_555
B0 Hf11 2.333955 1_545
B0 Hf9 2.333955 1_555
B0 Hf3 2.333955 1_555
B1 Hf0 2.333955 1_555
B1 Hf6 2.333955 1_455
B1 Hf5 2.333955 1_555
B1 Hf11 2.333955 1_554
B1 Hf7 2.333955 1_555
B1 Hf1 2.333955 1_555
B2 Hf0 2.333955 1_555
B2 Hf6 2.333955 1_545
B2 Hf8 2.333955 1_555
B2 Hf2 2.333955 1_555
B2 Hf4 2.333955 1_555
B2 Hf10 2.333955 1_554
B3 Hf2 2.333955 1_555
B3 Hf8 2.333955 1_455
B3 Hf1 2.333955 1_555
B3 Hf7 2.333955 1_545
B3 Hf3 2.333955 1_555
B3 Hf9 2.333955 1_554
