# generated using pymatgen
data_Cs2Pd2PtS4
_symmetry_space_group_name_H-M   'P 1'
_cell_length_a   8.95867773
_cell_length_b   7.85505104
_cell_length_c   6.31834261
_cell_angle_alpha   77.57024390
_cell_angle_beta   58.89891083
_cell_angle_gamma   42.50722104
_symmetry_Int_Tables_number   1
_chemical_formula_structural   Cs2Pd2PtS4
_chemical_formula_sum   'Cs2 Pd2 Pt1 S4'
_cell_volume   246.48636521
_cell_formula_units_Z   1
loop_
 _symmetry_equiv_pos_site_id
 _symmetry_equiv_pos_as_xyz
  1  'x, y, z'
loop_
 _atom_site_type_symbol
 _atom_site_label
 _atom_site_symmetry_multiplicity
 _atom_site_fract_x
 _atom_site_fract_y
 _atom_site_fract_z
 _atom_site_occupancy
  Cs  Cs0  1  0.65843345  0.65843345  0.34156655  1
  Cs  Cs1  1  0.34156655  0.34156655  0.65843345  1
  Pd  Pd0  1  0.50000000  0.50000000  0.00000000  1
  Pd  Pd1  1  0.00000000  0.00000000  0.00000000  1
  Pt  Pt0  1  0.00000000  0.00000000  0.50000000  1
  S  S0  1  0.05956277  0.73066318  0.27924215  1
  S  S1  1  0.73066318  0.05956277  0.93053190  1
  S  S2  1  0.94043723  0.26933682  0.72075785  1
  S  S3  1  0.26933682  0.94043723  0.06946810  1
loop_
_geom_bond_atom_site_label_1
_geom_bond_atom_site_label_2
_geom_bond_distance
_geom_bond_site_symmetry_2
Cs0 S3 3.630499 1_555
Cs0 S2 3.630500 1_555
Cs0 S2 3.696090 1_465
Cs0 S3 3.696090 1_645
Cs0 S3 3.827342 1_556
Cs0 S2 3.827342 1_554
Cs0 Pt0 3.836290 1_565
Cs0 Pt0 3.836290 1_655
Cs0 S0 3.852120 1_655
Cs0 S1 3.852120 1_564
Cs0 Pd0 3.891784 1_555
Cs0 Pd0 3.891784 1_556
Cs0 Pd1 3.926759 1_566
Cs0 Pd1 3.926760 1_655
Cs1 S1 3.630499 1_555
Cs1 S0 3.630500 1_555
Cs1 S0 3.696090 1_645
Cs1 S1 3.696090 1_465
Cs1 S1 3.827342 1_554
Cs1 S0 3.827342 1_556
Cs1 Pt0 3.836290 1_655
Cs1 Pt0 3.836290 1_565
Cs1 S2 3.852120 1_455
Cs1 S3 3.852120 1_546
Cs1 Pd0 3.891784 1_556
Cs1 Pd0 3.891784 1_555
Cs1 Pd1 3.926759 1_655
Cs1 Pd1 3.926760 1_566
Pd0 S2 2.368143 1_554
Pd0 S0 2.368143 1_555
Pd0 S1 2.368143 1_554
Pd0 S3 2.368143 1_555
Pd1 S1 2.361126 1_454
Pd1 S3 2.361126 1_545
Pd1 S0 2.361126 1_545
Pd1 S2 2.361126 1_454
Pt0 S1 2.354405 1_455
Pt0 S3 2.354405 1_545
Pt0 S2 2.354405 1_455
Pt0 S0 2.354405 1_545
