# generated using pymatgen
data_CsCd4Ga5Se12
_symmetry_space_group_name_H-M   'P 1'
_cell_length_a   8.96359152
_cell_length_b   9.01933689
_cell_length_c   9.21224298
_cell_angle_alpha   108.40544282
_cell_angle_beta   106.61386415
_cell_angle_gamma   107.96449341
_symmetry_Int_Tables_number   1
_chemical_formula_structural   CsCd4Ga5Se12
_chemical_formula_sum   'Cs1 Cd4 Ga5 Se12'
_cell_volume   608.59289341
_cell_formula_units_Z   1
loop_
 _symmetry_equiv_pos_site_id
 _symmetry_equiv_pos_as_xyz
  1  'x, y, z'
loop_
 _atom_site_type_symbol
 _atom_site_label
 _atom_site_symmetry_multiplicity
 _atom_site_fract_x
 _atom_site_fract_y
 _atom_site_fract_z
 _atom_site_occupancy
  Cs  Cs0  1  0.99689951  0.99967811  0.99359373  1
  Cd  Cd0  1  0.48752696  0.33592809  0.93280111  1
  Cd  Cd1  1  0.62785410  0.70947845  0.40373554  1
  Cd  Cd2  1  0.40623587  0.64264903  0.71806683  1
  Cd  Cd3  1  0.71480336  0.40241396  0.63527737  1
  Ga  Ga0  1  0.18874361  0.55449781  0.02757435  1
  Ga  Ga1  1  0.02294212  0.18596901  0.55484202  1
  Ga  Ga2  1  0.56206782  0.02337703  0.19326195  1
  Ga  Ga3  1  0.93655703  0.47159514  0.33301325  1
  Ga  Ga4  1  0.32031769  0.93011816  0.46937778  1
  Se  Se0  1  0.87692312  0.63385553  0.54775137  1
  Se  Se1  1  0.54628464  0.88750616  0.63335162  1
  Se  Se2  1  0.65660407  0.58343439  0.87536408  1
  Se  Se3  1  0.35733827  0.43312881  0.15054578  1
  Se  Se4  1  0.14745472  0.37105369  0.43966987  1
  Se  Se5  1  0.43174044  0.14046385  0.36769244  1
  Se  Se6  1  0.06663819  0.67584234  0.22292996  1
  Se  Se7  1  0.21032091  0.06272141  0.66297072  1
  Se  Se8  1  0.69848139  0.21653247  0.08478987  1
  Se  Se9  1  0.78225829  0.93772213  0.30276137  1
  Se  Se10  1  0.30081328  0.78468283  0.94999262  1
  Se  Se11  1  0.94239558  0.29855161  0.78183936  1
loop_
_geom_bond_atom_site_label_1
_geom_bond_atom_site_label_2
_geom_bond_distance
_geom_bond_site_symmetry_2
Cs0 Se2 3.610953 1_555
Cs0 Se3 3.712199 1_666
Cs0 Se10 3.838609 1_655
Cs0 Se11 3.859860 1_565
Cs0 Se8 3.893719 1_566
Cs0 Se5 3.896645 1_666
Cs0 Se4 3.908452 1_666
Cs0 Se9 3.949814 1_556
Cs0 Se0 3.954752 1_555
Cs0 Se1 4.005665 1_555
Cs0 Se7 4.124839 1_665
Cs0 Se6 4.201545 1_656
Cd0 Se2 2.584123 1_555
Cd0 Se3 2.648251 1_556
Cd0 Se7 2.692242 1_555
Cd0 Se8 2.718428 1_556
Cd1 Se3 2.626591 1_555
Cd1 Se0 2.650783 1_555
Cd1 Se1 2.655378 1_555
Cd1 Se9 2.684500 1_555
Cd2 Se2 2.605740 1_555
Cd2 Se1 2.645869 1_555
Cd2 Se4 2.661674 1_555
Cd2 Se10 2.696629 1_555
Cd3 Se2 2.595084 1_555
Cd3 Se0 2.642160 1_555
Cd3 Se5 2.672841 1_555
Cd3 Se11 2.695314 1_555
Ga0 Se3 2.364310 1_555
Ga0 Se10 2.427186 1_554
Ga0 Se11 2.454944 1_454
Ga0 Se6 2.501209 1_555
Ga1 Se4 2.409225 1_555
Ga1 Se11 2.428986 1_455
Ga1 Se9 2.435639 1_445
Ga1 Se7 2.437854 1_555
Ga2 Se9 2.409158 1_545
Ga2 Se5 2.413482 1_555
Ga2 Se10 2.446109 1_544
Ga2 Se8 2.452082 1_555
Ga3 Se0 2.366412 1_555
Ga3 Se4 2.432956 1_655
Ga3 Se8 2.436092 1_555
Ga3 Se6 2.512465 1_655
Ga4 Se1 2.372607 1_555
Ga4 Se5 2.441868 1_565
Ga4 Se7 2.443182 1_565
Ga4 Se6 2.475420 1_555
