# generated using pymatgen
data_Rb4As2PbS8
_symmetry_space_group_name_H-M   'P 1'
_cell_length_a   9.20029014
_cell_length_b   9.57419759
_cell_length_c   11.51026257
_cell_angle_alpha   106.55169995
_cell_angle_beta   100.81924857
_cell_angle_gamma   93.94178177
_symmetry_Int_Tables_number   1
_chemical_formula_structural   Rb4As2PbS8
_chemical_formula_sum   'Rb8 As4 Pb2 S16'
_cell_volume   946.52110548
_cell_formula_units_Z   2
loop_
 _symmetry_equiv_pos_site_id
 _symmetry_equiv_pos_as_xyz
  1  'x, y, z'
loop_
 _atom_site_type_symbol
 _atom_site_label
 _atom_site_symmetry_multiplicity
 _atom_site_fract_x
 _atom_site_fract_y
 _atom_site_fract_z
 _atom_site_occupancy
  Rb  Rb0  1  0.43812713  0.51083436  0.77299680  1
  Rb  Rb1  1  0.56187287  0.48916564  0.22700320  1
  Rb  Rb2  1  0.26709623  0.02251206  0.97799392  1
  Rb  Rb3  1  0.73290377  0.97748794  0.02200608  1
  Rb  Rb4  1  0.13260643  0.74144787  0.54121772  1
  Rb  Rb5  1  0.86739357  0.25855213  0.45878228  1
  Rb  Rb6  1  0.90412759  0.30175727  0.86788161  1
  Rb  Rb7  1  0.09587241  0.69824273  0.13211839  1
  As  As0  1  0.46460839  0.11755421  0.75097257  1
  As  As1  1  0.53539161  0.88244579  0.24902743  1
  As  As2  1  0.87026000  0.65218014  0.74936112  1
  As  As3  1  0.12974000  0.34781986  0.25063888  1
  Pb  Pb0  1  0.66708251  0.85596621  0.56872592  1
  Pb  Pb1  1  0.33291749  0.14403379  0.43127408  1
  S  S0  1  0.55740323  0.24775503  0.93818231  1
  S  S1  1  0.44259677  0.75224497  0.06181769  1
  S  S2  1  0.47388402  0.88477691  0.73672651  1
  S  S3  1  0.52611598  0.11522309  0.26327349  1
  S  S4  1  0.23801019  0.15144917  0.68634758  1
  S  S5  1  0.76198981  0.84855083  0.31365242  1
  S  S6  1  0.93555946  0.88430349  0.76733889  1
  S  S7  1  0.06444054  0.11569651  0.23266111  1
  S  S8  1  0.05491567  0.52892361  0.72409196  1
  S  S9  1  0.94508433  0.47107639  0.27590804  1
  S  S10  1  0.60281817  0.18109013  0.63307061  1
  S  S11  1  0.39718183  0.81890987  0.36692939  1
  S  S12  1  0.79208866  0.63504673  0.90954661  1
  S  S13  1  0.20791134  0.36495327  0.09045339  1
  S  S14  1  0.68757135  0.56616726  0.58336182  1
  S  S15  1  0.31242865  0.43383274  0.41663818  1
loop_
_geom_bond_atom_site_label_1
_geom_bond_atom_site_label_2
_geom_bond_distance
_geom_bond_site_symmetry_2
Rb0 S12 3.312208 1_555
Rb0 S1 3.457346 1_556
Rb0 S8 3.488773 1_555
Rb0 S14 3.561486 1_555
Rb0 S4 3.564850 1_555
Rb0 S0 3.672710 1_555
Rb0 S10 3.678791 1_555
Rb0 S2 3.720427 1_555
Rb0 S15 3.883882 1_555
Rb1 S13 3.312208 1_555
Rb1 S0 3.457346 1_554
Rb1 S9 3.488773 1_555
Rb1 S15 3.561486 1_555
Rb1 S5 3.564850 1_555
Rb1 S1 3.672710 1_555
Rb1 S11 3.678791 1_555
Rb1 S3 3.720427 1_555
Rb1 S14 3.883882 1_555
Rb2 S13 3.288361 1_556
Rb2 S1 3.412575 1_546
Rb2 S6 3.431397 1_445
Rb2 S0 3.496420 1_555
Rb2 S3 3.515673 1_556
Rb2 S2 3.648620 1_545
Rb2 S7 3.695295 1_556
Rb3 S12 3.288361 1_554
Rb3 S0 3.412575 1_564
Rb3 S7 3.431397 1_665
Rb3 S1 3.496420 1_555
Rb3 S2 3.515673 1_554
Rb3 S3 3.648620 1_565
Rb3 S6 3.695295 1_554
Rb4 S2 3.435313 1_555
Rb4 S8 3.447756 1_555
Rb4 S9 3.450653 1_455
Rb4 S6 3.466329 1_455
Rb4 S15 3.552692 1_555
Rb4 S11 3.596168 1_555
Rb4 S4 3.777868 1_565
Rb5 S3 3.435313 1_555
Rb5 S9 3.447756 1_555
Rb5 S8 3.450653 1_655
Rb5 S7 3.466329 1_655
Rb5 S14 3.552692 1_555
Rb5 S10 3.596168 1_555
Rb5 S5 3.777868 1_545
Rb6 S13 3.307104 1_656
Rb6 S12 3.352725 1_555
Rb6 S10 3.360364 1_555
Rb6 S8 3.448512 1_655
Rb6 S0 3.475434 1_555
Rb6 S6 3.878967 1_545
Rb7 S12 3.307104 1_454
Rb7 S13 3.352725 1_555
Rb7 S11 3.360364 1_555
Rb7 S9 3.448512 1_455
Rb7 S1 3.475434 1_555
Rb7 S7 3.878967 1_565
As0 S0 2.135106 1_555
As0 S4 2.157139 1_555
As0 S2 2.196420 1_545
As0 S10 2.200100 1_555
As1 S1 2.135106 1_555
As1 S5 2.157139 1_555
As1 S3 2.196420 1_565
As1 S11 2.200100 1_555
As2 S12 2.144202 1_555
As2 S8 2.151508 1_655
As2 S6 2.202392 1_555
As2 S14 2.204883 1_555
As3 S13 2.144202 1_555
As3 S9 2.151508 1_455
As3 S7 2.202392 1_555
As3 S15 2.204883 1_555
Pb0 S2 2.833503 1_555
Pb0 S14 2.844043 1_555
Pb0 S6 2.972470 1_555
Pb0 S11 2.988491 1_555
Pb0 S10 3.113121 1_565
Pb0 S5 3.199930 1_555
Pb1 S3 2.833503 1_555
Pb1 S15 2.844043 1_555
Pb1 S7 2.972470 1_555
Pb1 S10 2.988491 1_555
Pb1 S11 3.113121 1_545
Pb1 S4 3.199930 1_555
