# generated using pymatgen
data_RbP2IrRh
_symmetry_space_group_name_H-M   'P 1'
_cell_length_a   7.43953326
_cell_length_b   7.43953302
_cell_length_c   7.43953351
_cell_angle_alpha   149.43163176
_cell_angle_beta   149.43162910
_cell_angle_gamma   43.77635309
_symmetry_Int_Tables_number   1
_chemical_formula_structural   RbP2IrRh
_chemical_formula_sum   'Rb1 P2 Ir1 Rh1'
_cell_volume   106.19831330
_cell_formula_units_Z   1
loop_
 _symmetry_equiv_pos_site_id
 _symmetry_equiv_pos_as_xyz
  1  'x, y, z'
loop_
 _atom_site_type_symbol
 _atom_site_label
 _atom_site_symmetry_multiplicity
 _atom_site_fract_x
 _atom_site_fract_y
 _atom_site_fract_z
 _atom_site_occupancy
  Rb  Rb0  1  0.00000000  0.00000000  0.00000000  1
  P  P0  1  0.34190808  0.34190808  1.00000000  1
  P  P1  1  0.65809192  0.65809192  0.00000000  1
  Ir  Ir0  1  0.25000000  0.75000000  0.50000000  1
  Rh  Rh0  1  0.75000000  0.25000000  0.50000000  1
loop_
_geom_bond_atom_site_label_1
_geom_bond_atom_site_label_2
_geom_bond_distance
_geom_bond_site_symmetry_2
P0 Rh0 2.335837 1_455
P0 Rh0 2.335837 1_556
P0 Rb0 3.529315 1_667
P0 Rb0 3.529315 1_566
P0 Rb0 3.529315 1_656
P0 Rb0 3.529316 1_555
P1 Rh0 2.335837 1_565
P1 Rh0 2.335837 1_554
P1 Rb0 3.529315 1_554
P1 Rb0 3.529315 1_655
P1 Rb0 3.529315 1_565
P1 Rb0 3.529316 1_666
Ir0 P0 2.335837 1_565
Ir0 P1 2.335837 1_455
Ir0 P0 2.335837 1_554
Ir0 P1 2.335837 1_556
Ir0 Rh0 2.773430 1_555
Ir0 Rh0 2.773430 1_465
Ir0 Rh0 2.773431 1_454
Ir0 Rh0 2.773431 1_566
