# generated using pymatgen
data_Ga10IrPd
_symmetry_space_group_name_H-M   'P 1'
_cell_length_a   6.68148315
_cell_length_b   6.68148297
_cell_length_c   6.68148345
_cell_angle_alpha   122.22059741
_cell_angle_beta   122.22059332
_cell_angle_gamma   86.19500950
_symmetry_Int_Tables_number   1
_chemical_formula_structural   Ga10IrPd
_chemical_formula_sum   'Ga10 Ir1 Pd1'
_cell_volume   203.34560814
_cell_formula_units_Z   1
loop_
 _symmetry_equiv_pos_site_id
 _symmetry_equiv_pos_as_xyz
  1  'x, y, z'
loop_
 _atom_site_type_symbol
 _atom_site_label
 _atom_site_symmetry_multiplicity
 _atom_site_fract_x
 _atom_site_fract_y
 _atom_site_fract_z
 _atom_site_occupancy
  Ga  Ga0  1  0.99796928  0.99796928  0.00000000  1
  Ga  Ga1  1  0.50203072  0.50203072  1.00000000  1
  Ga  Ga2  1  0.79017492  0.28296690  0.79191999  1
  Ga  Ga3  1  0.28296690  0.49104691  0.49279198  1
  Ga  Ga4  1  0.99825493  0.79017492  0.50720802  1
  Ga  Ga5  1  0.70982508  0.50174507  0.49279198  1
  Ga  Ga6  1  0.00895309  0.21703310  0.50720802  1
  Ga  Ga7  1  0.50174507  0.00895309  0.79191999  1
  Ga  Ga8  1  0.21703310  0.70982508  0.20808001  1
  Ga  Ga9  1  0.49104691  0.99825493  0.20808001  1
  Ir  Ir0  1  0.25000000  0.25000000  0.00000000  1
  Pd  Pd0  1  0.75000000  0.75000000  0.00000000  1
loop_
_geom_bond_atom_site_label_1
_geom_bond_atom_site_label_2
_geom_bond_distance
_geom_bond_site_symmetry_2
Ga0 Pd0 2.419568 1_555
Ga0 Ir0 2.459198 1_665
Ga0 Ga3 2.810753 1_665
Ga0 Ga9 2.810754 1_655
Ga0 Ga2 2.810754 1_564
Ga0 Ga4 2.810754 1_554
Ga0 Ga5 2.844647 1_554
Ga0 Ga7 2.844647 1_564
Ga0 Ga8 2.844647 1_655
Ga0 Ga6 2.844647 1_665
Ga1 Pd0 2.419568 1_556
Ga1 Ir0 2.459198 1_556
Ga1 Ga7 2.810753 1_555
Ga1 Ga8 2.810753 1_556
Ga1 Ga6 2.810754 1_555
Ga1 Ga5 2.810754 1_556
Ga1 Ga9 2.844647 1_556
Ga1 Ga2 2.844647 1_555
Ga1 Ga4 2.844647 1_556
Ga1 Ga3 2.844647 1_555
Ga2 Ir0 2.665036 1_656
Ga2 Ga9 2.666083 1_545
Ga2 Pd0 2.720817 1_556
Ga2 Ga7 2.744820 1_555
Ga2 Ga6 2.817036 1_655
Ga2 Ga8 2.857679 1_656
Ga2 Ga5 2.878627 1_555
Ga3 Ir0 2.665036 1_555
Ga3 Ga4 2.666083 1_455
Ga3 Pd0 2.720817 1_556
Ga3 Ga6 2.744820 1_555
Ga3 Ga8 2.817036 1_555
Ga3 Ga5 2.857679 1_555
Ga3 Ga7 2.878627 1_565
Ga4 Ir0 2.665036 1_666
Ga4 Pd0 2.720817 1_555
Ga4 Ga5 2.744820 1_555
Ga4 Ga7 2.817036 1_665
Ga4 Ga6 2.857679 1_665
Ga4 Ga8 2.878627 1_655
Ga5 Ir0 2.665036 1_555
Ga5 Ga6 2.666083 1_655
Ga5 Pd0 2.720817 1_556
Ga5 Ga9 2.817035 1_545
Ga6 Ir0 2.665036 1_556
Ga6 Pd0 2.720817 1_445
Ga6 Ga9 2.878627 1_445
Ga7 Ir0 2.665036 1_556
Ga7 Ga8 2.666083 1_545
Ga7 Pd0 2.720817 1_546
Ga7 Ga9 2.857679 1_546
Ga8 Ir0 2.665036 1_555
Ga8 Pd0 2.720817 1_455
Ga8 Ga9 2.744820 1_555
Ga9 Ir0 2.665036 1_565
Ga9 Pd0 2.720817 1_555
