# generated using pymatgen
data_LiIn(PS3)2
_symmetry_space_group_name_H-M   'P 1'
_cell_length_a   6.11631115
_cell_length_b   6.11631113
_cell_length_c   13.49681837
_cell_angle_alpha   90.00000000
_cell_angle_beta   90.00000000
_cell_angle_gamma   119.99998950
_symmetry_Int_Tables_number   1
_chemical_formula_structural   LiIn(PS3)2
_chemical_formula_sum   'Li2 In2 P4 S12'
_cell_volume   437.26148117
_cell_formula_units_Z   2
loop_
 _symmetry_equiv_pos_site_id
 _symmetry_equiv_pos_as_xyz
  1  'x, y, z'
loop_
 _atom_site_type_symbol
 _atom_site_label
 _atom_site_symmetry_multiplicity
 _atom_site_fract_x
 _atom_site_fract_y
 _atom_site_fract_z
 _atom_site_occupancy
  Li  Li0  1  0.66666700  0.33333300  0.25000000  1
  Li  Li1  1  0.33333300  0.66666700  0.75000000  1
  In  In0  1  0.00000000  0.00000000  0.25000000  1
  In  In1  1  0.00000000  0.00000000  0.75000000  1
  P  P0  1  0.66666700  0.33333300  0.66817064  1
  P  P1  1  0.66666700  0.33333300  0.83182936  1
  P  P2  1  0.33333300  0.66666700  0.33182936  1
  P  P3  1  0.33333300  0.66666700  0.16817064  1
  S  S0  1  0.98591481  0.33388629  0.87209300  1
  S  S1  1  0.34797048  0.33388629  0.62790700  1
  S  S2  1  0.98591481  0.65202952  0.62790700  1
  S  S3  1  0.66611371  0.01408519  0.62790700  1
  S  S4  1  0.33388629  0.34797048  0.12790700  1
  S  S5  1  0.65202952  0.98591481  0.12790700  1
  S  S6  1  0.01408519  0.66611371  0.12790700  1
  S  S7  1  0.65202952  0.66611371  0.37209300  1
  S  S8  1  0.01408519  0.34797048  0.37209300  1
  S  S9  1  0.33388629  0.98591481  0.37209300  1
  S  S10  1  0.66611371  0.65202952  0.87209300  1
  S  S11  1  0.34797048  0.01408519  0.87209300  1
loop_
_geom_bond_atom_site_label_1
_geom_bond_atom_site_label_2
_geom_bond_distance
_geom_bond_site_symmetry_2
Li0 S7 2.654904 1_555
Li0 S4 2.654905 1_555
Li0 S5 2.654905 1_545
Li0 S8 2.654905 1_655
Li0 S9 2.654905 1_545
Li0 S6 2.654905 1_655
Li1 S1 2.654904 1_555
Li1 S10 2.654905 1_555
Li1 S11 2.654905 1_565
Li1 S2 2.654905 1_455
Li1 S3 2.654905 1_565
Li1 S0 2.654905 1_455
In0 S8 2.658793 1_555
In0 S5 2.658793 1_445
In0 S4 2.658795 1_555
In0 S7 2.658795 1_445
In0 S6 2.658797 1_545
In0 S9 2.658797 1_545
In1 S2 2.658793 1_445
In1 S11 2.658793 1_555
In1 S10 2.658795 1_445
In1 S1 2.658795 1_555
In1 S0 2.658797 1_455
In1 S3 2.658797 1_455
P0 S3 2.025202 1_555
P0 S2 2.025208 1_555
P0 S1 2.025213 1_555
P0 P1 2.208872 1_555
P1 S0 2.025202 1_555
P1 S11 2.025208 1_555
P1 S10 2.025213 1_555
P2 S9 2.025202 1_555
P2 S8 2.025208 1_555
P2 S7 2.025213 1_555
P2 P3 2.208872 1_555
P3 S6 2.025202 1_555
P3 S5 2.025208 1_555
P3 S4 2.025213 1_555
