# generated using pymatgen
data_Sr7Ca3(InSb3)4
_symmetry_space_group_name_H-M   'P 1'
_cell_length_a   4.69833544
_cell_length_b   12.58717791
_cell_length_c   14.58424390
_cell_angle_alpha   89.90061222
_cell_angle_beta   90.00000000
_cell_angle_gamma   90.00000000
_symmetry_Int_Tables_number   1
_chemical_formula_structural   Sr7Ca3(InSb3)4
_chemical_formula_sum   'Sr7 Ca3 In4 Sb12'
_cell_volume   862.49315224
_cell_formula_units_Z   1
loop_
 _symmetry_equiv_pos_site_id
 _symmetry_equiv_pos_as_xyz
  1  'x, y, z'
loop_
 _atom_site_type_symbol
 _atom_site_label
 _atom_site_symmetry_multiplicity
 _atom_site_fract_x
 _atom_site_fract_y
 _atom_site_fract_z
 _atom_site_occupancy
  Sr  Sr0  1  0.50000000  0.17437365  0.01580555  1
  Sr  Sr1  1  0.50000000  0.41332771  0.24930597  1
  Sr  Sr2  1  0.50000000  0.82656398  0.97997603  1
  Sr  Sr3  1  0.50000000  0.32326830  0.52078409  1
  Sr  Sr4  1  0.50000000  0.58714598  0.75148224  1
  Sr  Sr5  1  0.50000000  0.91392921  0.24978261  1
  Sr  Sr6  1  0.50000000  0.67555542  0.48255573  1
  Ca  Ca0  1  0.50000000  0.08707153  0.74908274  1
  Ca  Ca1  1  0.50000000  0.00000661  0.50150678  1
  Ca  Ca2  1  0.50000000  0.49900816  0.99979671  1
  In  In0  1  0.00000000  0.32581151  0.71522451  1
  In  In1  1  0.00000000  0.17319992  0.21424051  1
  In  In2  1  0.00000000  0.67345045  0.28537888  1
  In  In3  1  0.00000000  0.82719127  0.78546568  1
  Sb  Sb0  1  0.00000000  0.64746953  0.90872143  1
  Sb  Sb1  1  0.50000000  0.66375181  0.17182110  1
  Sb  Sb2  1  0.00000000  0.02692804  0.89788750  1
  Sb  Sb3  1  0.00000000  0.47611996  0.40501133  1
  Sb  Sb4  1  0.50000000  0.33307319  0.82640386  1
  Sb  Sb5  1  0.50000000  0.16327583  0.32798501  1
  Sb  Sb6  1  0.00000000  0.35243779  0.09167570  1
  Sb  Sb7  1  0.00000000  0.14202232  0.60004063  1
  Sb  Sb8  1  0.00000000  0.97872120  0.09154494  1
  Sb  Sb9  1  0.50000000  0.84038862  0.67417143  1
  Sb  Sb10  1  0.00000000  0.52303816  0.59648841  1
  Sb  Sb11  1  0.00000000  0.85286788  0.40786163  1
loop_
_geom_bond_atom_site_label_1
_geom_bond_atom_site_label_2
_geom_bond_distance
_geom_bond_site_symmetry_2
Ca0 Sb7 3.273624 1_655
Ca0 Sb7 3.273624 1_555
Ca0 Sb2 3.285694 1_555
Ca0 Sb2 3.285694 1_655
Ca0 Sb9 3.293427 1_545
Ca0 Sb4 3.297250 1_555
Ca1 Sb9 3.218748 1_545
Ca1 Sb5 3.257261 1_555
Ca1 Sb7 3.284512 1_555
Ca1 Sb7 3.284512 1_655
Ca1 Sb11 3.289795 1_545
Ca1 Sb11 3.289795 1_645
Ca2 Sb1 3.257670 1_556
Ca2 Sb6 3.272500 1_556
Ca2 Sb6 3.272500 1_656
Ca2 Sb0 3.281210 1_555
Ca2 Sb0 3.281210 1_655
Ca2 Sb4 3.282628 1_555
In0 Sb4 2.855978 1_455
In0 Sb4 2.855978 1_555
In0 Sb7 2.861329 1_555
In0 Sb10 3.024356 1_555
In0 Sr3 3.682594 1_555
In0 Sr3 3.682594 1_455
In1 Sb6 2.875970 1_555
In1 Sb5 2.878428 1_455
In1 Sb5 2.878428 1_555
In1 Sb8 3.034737 1_545
In1 Sr0 3.727470 1_455
In1 Sr0 3.727470 1_555
In2 Sb1 2.876985 1_455
In2 Sb1 2.876985 1_555
In2 Sb11 2.881860 1_555
In2 Sb3 3.032910 1_555
In2 Sr6 3.713363 1_555
In2 Sr6 3.713363 1_455
In3 Sb9 2.860042 1_455
In3 Sb9 2.860042 1_555
In3 Sb0 2.886993 1_555
In3 Sb2 3.003890 1_565
In3 Sr2 3.683196 1_455
In3 Sr2 3.683196 1_555
In3 Sr4 3.859902 1_455
In3 Sr4 3.859902 1_555
Sb0 Sr4 3.370461 1_555
Sb0 Sr4 3.370461 1_455
Sb0 Sr2 3.418842 1_455
Sb0 Sr2 3.418842 1_555
Sb1 Sr1 3.346732 1_555
Sb1 Sr5 3.349864 1_555
Sb1 Sr2 3.465293 1_554
Sb2 Sb8 2.887765 1_546
Sb2 Sr0 3.454221 1_456
Sb2 Sr0 3.454221 1_556
Sb2 Sr2 3.647187 1_445
Sb2 Sr2 3.647187 1_545
Sb3 Sr1 3.362477 1_455
Sb3 Sr1 3.362477 1_555
Sb3 Sr3 3.472733 1_455
Sb3 Sr3 3.472733 1_555
Sb3 Sr6 3.620661 1_455
Sb3 Sr6 3.620661 1_555
Sb4 Sr4 3.377780 1_555
Sb4 Sr0 3.406079 1_556
Sb5 Sr5 3.341233 1_545
Sb5 Sr1 3.348222 1_555
Sb5 Sr3 3.461450 1_555
Sb6 Sr1 3.375966 1_455
Sb6 Sr1 3.375966 1_555
Sb6 Sr0 3.431485 1_455
Sb6 Sr0 3.431485 1_555
Sb7 Sr3 3.471341 1_455
Sb7 Sr3 3.471341 1_555
Sb8 Sr5 3.391609 1_455
Sb8 Sr5 3.391609 1_555
Sb8 Sr2 3.441674 1_454
Sb8 Sr2 3.441674 1_554
Sb8 Sr0 3.576905 1_565
Sb8 Sr0 3.576905 1_465
Sb9 Sr4 3.379303 1_555
Sb9 Sr6 3.483457 1_555
Sb10 Sb3 2.855314 1_555
Sb10 Sr4 3.359431 1_455
Sb10 Sr4 3.359431 1_555
Sb10 Sr6 3.457455 1_455
Sb10 Sr6 3.457455 1_555
Sb10 Sr3 3.615265 1_455
Sb10 Sr3 3.615265 1_555
Sb11 Sr5 3.379102 1_555
Sb11 Sr5 3.379102 1_455
Sb11 Sr6 3.417319 1_455
Sb11 Sr6 3.417319 1_555
