# generated using pymatgen
data_BaAgBF10
_symmetry_space_group_name_H-M   'P 1'
_cell_length_a   10.54576587
_cell_length_b   10.54576614
_cell_length_c   6.49300398
_cell_angle_alpha   90.00000000
_cell_angle_beta   90.00000000
_cell_angle_gamma   120.00000508
_symmetry_Int_Tables_number   1
_chemical_formula_structural   BaAgBF10
_chemical_formula_sum   'Ba3 Ag3 B3 F30'
_cell_volume   625.36351500
_cell_formula_units_Z   3
loop_
 _symmetry_equiv_pos_site_id
 _symmetry_equiv_pos_as_xyz
  1  'x, y, z'
loop_
 _atom_site_type_symbol
 _atom_site_label
 _atom_site_symmetry_multiplicity
 _atom_site_fract_x
 _atom_site_fract_y
 _atom_site_fract_z
 _atom_site_occupancy
  Ba  Ba0  1  0.00000000  0.00000000  0.50000000  1
  Ba  Ba1  1  0.66666700  0.33333300  0.00000000  1
  Ba  Ba2  1  0.33333300  0.66666700  0.00000000  1
  Ag  Ag0  1  0.43410899  1.00000000  0.50000000  1
  Ag  Ag1  1  1.00000000  0.43410899  0.50000000  1
  Ag  Ag2  1  0.56589101  0.56589101  0.50000000  1
  B  B0  1  0.75388164  1.00000000  0.00000000  1
  B  B1  1  1.00000000  0.75388164  0.00000000  1
  B  B2  1  0.24611836  0.24611836  0.00000000  1
  F  F0  1  0.61245259  1.00000000  0.50000000  1
  F  F1  1  1.00000000  0.61245259  0.50000000  1
  F  F2  1  0.38754741  0.38754741  0.50000000  1
  F  F3  1  0.25357968  0.00000000  0.50000000  1
  F  F4  1  0.00000000  0.25357968  0.50000000  1
  F  F5  1  0.74642032  0.74642032  0.50000000  1
  F  F6  1  0.50550939  0.14639038  0.70529143  1
  F  F7  1  0.85360962  0.35911901  0.70529143  1
  F  F8  1  0.64088099  0.49449061  0.70529143  1
  F  F9  1  0.50550939  0.14639038  0.29470857  1
  F  F10  1  0.85360962  0.35911901  0.29470857  1
  F  F11  1  0.64088099  0.49449061  0.29470857  1
  F  F12  1  0.35911901  0.85360962  0.70529143  1
  F  F13  1  0.49449061  0.64088099  0.70529143  1
  F  F14  1  0.14639038  0.50550939  0.70529143  1
  F  F15  1  0.35911901  0.85360962  0.29470857  1
  F  F16  1  0.49449061  0.64088099  0.29470857  1
  F  F17  1  0.14639038  0.50550939  0.29470857  1
  F  F18  1  0.82938334  1.00000000  0.82255727  1
  F  F19  1  1.00000000  0.82938334  0.82255727  1
  F  F20  1  0.17061666  0.17061666  0.82255727  1
  F  F21  1  0.82938334  1.00000000  0.17744273  1
  F  F22  1  1.00000000  0.82938334  0.17744273  1
  F  F23  1  0.17061666  0.17061666  0.17744273  1
  F  F24  1  0.38765438  0.26258401  0.00000000  1
  F  F25  1  0.73741599  0.12507037  0.00000000  1
  F  F26  1  0.87492963  0.61234562  0.00000000  1
  F  F27  1  0.12507037  0.73741599  0.00000000  1
  F  F28  1  0.61234562  0.87492963  0.00000000  1
  F  F29  1  0.26258401  0.38765438  0.00000000  1
loop_
_geom_bond_atom_site_label_1
_geom_bond_atom_site_label_2
_geom_bond_distance
_geom_bond_site_symmetry_2
Ba0 F5 2.674192 1_445
Ba0 F3 2.674192 1_555
Ba0 F4 2.674192 1_555
Ba0 F23 2.761121 1_555
Ba0 F20 2.761121 1_555
Ba0 F21 2.761121 1_445
Ba0 F18 2.761121 1_445
Ba0 F22 2.761121 1_445
Ba0 F19 2.761121 1_445
Ba1 F25 2.649342 1_555
Ba1 F26 2.649349 1_555
Ba1 F24 2.649352 1_555
Ba1 F10 2.661977 1_555
Ba1 F7 2.661977 1_554
Ba1 F9 2.661980 1_555
Ba1 F6 2.661980 1_554
Ba1 F11 2.661984 1_555
Ba1 F8 2.661984 1_554
Ba2 F27 2.649341 1_555
Ba2 F28 2.649349 1_555
Ba2 F29 2.649352 1_555
Ba2 F15 2.661977 1_555
Ba2 F12 2.661977 1_554
Ba2 F17 2.661980 1_555
Ba2 F14 2.661980 1_554
Ba2 F16 2.661984 1_555
Ba2 F13 2.661984 1_554
Ag0 F0 1.880770 1_555
Ag0 F12 1.888020 1_555
Ag0 F15 1.888020 1_555
Ag0 F6 1.888020 1_565
Ag0 F9 1.888020 1_565
Ag0 F3 1.903820 1_565
Ag1 F1 1.880770 1_555
Ag1 F7 1.888020 1_555
Ag1 F10 1.888020 1_555
Ag1 F14 1.888020 1_655
Ag1 F17 1.888020 1_655
Ag1 F4 1.903820 1_655
Ag2 F2 1.880770 1_555
Ag2 F8 1.888021 1_555
Ag2 F11 1.888021 1_555
Ag2 F13 1.888021 1_555
Ag2 F16 1.888021 1_555
Ag2 F5 1.903820 1_555
B0 F18 1.400496 1_554
B0 F21 1.400496 1_555
B0 F28 1.413804 1_555
B0 F25 1.413805 1_565
B1 F19 1.400496 1_554
B1 F22 1.400496 1_555
B1 F26 1.413804 1_555
B1 F27 1.413805 1_655
B2 F20 1.400496 1_554
B2 F23 1.400496 1_555
B2 F24 1.413805 1_555
B2 F29 1.413805 1_555
