# generated using pymatgen
data_Ce(Al10Cr)2
_symmetry_space_group_name_H-M   'P 1'
_cell_length_a   10.15571702
_cell_length_b   10.15572155
_cell_length_c   10.15571994
_cell_angle_alpha   59.99989972
_cell_angle_beta   59.99992003
_cell_angle_gamma   59.99995776
_symmetry_Int_Tables_number   1
_chemical_formula_structural   Ce(Al10Cr)2
_chemical_formula_sum   'Ce2 Al40 Cr4'
_cell_volume   740.65569046
_cell_formula_units_Z   2
loop_
 _symmetry_equiv_pos_site_id
 _symmetry_equiv_pos_as_xyz
  1  'x, y, z'
loop_
 _atom_site_type_symbol
 _atom_site_label
 _atom_site_symmetry_multiplicity
 _atom_site_fract_x
 _atom_site_fract_y
 _atom_site_fract_z
 _atom_site_occupancy
  Ce  Ce0  1  0.49999057  0.49999048  0.50001134  1
  Ce  Ce1  1  0.75000051  0.75000777  0.75000282  1
  Al  Al0  1  0.56809831  0.29879280  0.29879530  1
  Al  Al1  1  0.29879650  0.56809478  0.83431176  1
  Al  Al2  1  0.29879689  0.83430936  0.56809460  1
  Al  Al3  1  0.83431368  0.29879337  0.29879378  1
  Al  Al4  1  0.29879498  0.29879484  0.56809636  1
  Al  Al5  1  0.56809813  0.83431273  0.29879493  1
  Al  Al6  1  0.83431330  0.56809396  0.29879616  1
  Al  Al7  1  0.29879342  0.29879465  0.83431222  1
  Al  Al8  1  0.29879521  0.56809795  0.29879229  1
  Al  Al9  1  0.83431414  0.29879482  0.56809543  1
  Al  Al10  1  0.56809788  0.29879330  0.83431337  1
  Al  Al11  1  0.29879227  0.83431273  0.29879395  1
  Al  Al12  1  0.68193294  0.95117251  0.95117389  1
  Al  Al13  1  0.95117385  0.68193308  0.41572098  1
  Al  Al14  1  0.95117445  0.41572321  0.68193150  1
  Al  Al15  1  0.41571958  0.95117304  0.95117216  1
  Al  Al16  1  0.95117214  0.95117308  0.68193049  1
  Al  Al17  1  0.68193412  0.41572178  0.95117461  1
  Al  Al18  1  0.41572230  0.68193311  0.95117171  1
  Al  Al19  1  0.95117365  0.95117286  0.41571794  1
  Al  Al20  1  0.95117288  0.68193114  0.95117162  1
  Al  Al21  1  0.41572386  0.95117427  0.68193171  1
  Al  Al22  1  0.68193455  0.95117362  0.41571932  1
  Al  Al23  1  0.95117192  0.41571987  0.95117377  1
  Al  Al24  1  0.86425903  0.86425964  0.13574213  1
  Al  Al25  1  0.13574140  0.13574224  0.86425883  1
  Al  Al26  1  0.86425976  0.13574177  0.86426001  1
  Al  Al27  1  0.13574010  0.86425962  0.13574148  1
  Al  Al28  1  0.13574187  0.86425967  0.86425856  1
  Al  Al29  1  0.86425883  0.13574085  0.13574267  1
  Al  Al30  1  0.38580085  0.38579862  0.11420180  1
  Al  Al31  1  0.11419864  0.11420234  0.38579692  1
  Al  Al32  1  0.38580184  0.11420264  0.38579775  1
  Al  Al33  1  0.11419892  0.38579882  0.11419984  1
  Al  Al34  1  0.11420103  0.38580061  0.38579836  1
  Al  Al35  1  0.38579890  0.11420206  0.11419959  1
  Al  Al36  1  0.12499249  0.62499973  0.62500345  1
  Al  Al37  1  0.62500136  0.12499303  0.62499942  1
  Al  Al38  1  0.62500303  0.62499862  0.12499401  1
  Al  Al39  1  0.62500259  0.62500184  0.62500193  1
  Cr  Cr0  1  0.62499555  0.12500481  0.12500798  1
  Cr  Cr1  1  0.12500029  0.62499304  0.12500710  1
  Cr  Cr2  1  0.12500438  0.12500756  0.62499106  1
  Cr  Cr3  1  0.12499513  0.12500539  0.12500311  1
loop_
_geom_bond_atom_site_label_1
_geom_bond_atom_site_label_2
_geom_bond_distance
_geom_bond_site_symmetry_2
Al0 Al3 2.703603 1_555
Al0 Al29 2.703974 1_555
Al0 Al4 2.734954 1_555
Al0 Al8 2.734975 1_555
Al0 Cr0 2.763919 1_555
Al0 Al32 2.810860 1_555
Al0 Al30 2.810886 1_555
Al0 Al22 2.882550 1_545
Al0 Al17 2.882561 1_554
Al0 Al37 3.077558 1_555
Al0 Al38 3.077580 1_555
Al0 Ce0 3.190317 1_555
Al1 Al2 2.703610 1_555
Al1 Al28 2.704024 1_555
Al1 Al10 2.734948 1_555
Al1 Al7 2.734950 1_555
Al1 Cr1 2.764070 1_556
Al1 Al33 2.810905 1_556
Al1 Al30 2.810919 1_556
Al1 Al20 2.882586 1_455
Al1 Al18 2.882594 1_555
Al1 Al39 3.077590 1_555
Al1 Al36 3.077596 1_555
Al1 Ce0 3.190250 1_555
Al2 Al28 2.704028 1_555
Al2 Al5 2.734936 1_555
Al2 Cr2 2.764088 1_565
Al2 Al31 2.810936 1_565
Al2 Al32 2.810949 1_565
Al2 Al21 2.882635 1_555
Al2 Al39 3.077588 1_555
Al2 Al36 3.077593 1_555
Al2 Ce0 3.190320 1_555
Al3 Al6 2.734952 1_555
Al3 Al9 2.734962 1_555
Al3 Cr3 2.763944 1_655
Al3 Al31 2.810870 1_655
Al3 Al33 2.810882 1_655
Al3 Al38 3.077577 1_555
Al3 Al37 3.077586 1_555
Al3 Ce0 3.190391 1_555
Al4 Al7 2.703605 1_555
Al4 Al8 2.734968 1_555
Al4 Cr2 2.763950 1_555
Al4 Ce0 3.190218 1_555
Al5 Al6 2.703623 1_555
Al5 Cr0 2.764037 1_565
Al5 Ce0 3.190452 1_555
Al6 Al9 2.734923 1_555
Al6 Cr1 2.763999 1_655
Al6 Ce0 3.190438 1_555
Al7 Cr3 2.764021 1_556
Al7 Ce0 3.190198 1_555
Al8 Cr1 2.763968 1_555
Al8 Ce0 3.190322 1_555
Al9 Cr2 2.764014 1_655
Al9 Ce0 3.190363 1_555
Al10 Al9 2.703623 1_555
Al10 Al26 2.703996 1_555
Al10 Al7 2.734979 1_555
Al10 Cr0 2.764060 1_556
Al10 Al35 2.810882 1_556
Al10 Al30 2.810911 1_556
Al10 Al12 2.882564 1_545
Al10 Al17 2.882610 1_555
Al10 Al39 3.077603 1_555
Al10 Al37 3.077623 1_555
Al10 Ce0 3.190276 1_555
Al11 Al8 2.703597 1_555
Al11 Al27 2.703963 1_555
Al11 Al2 2.734948 1_555
Al11 Al5 2.734999 1_555
Al11 Cr3 2.764033 1_565
Al11 Al31 2.810910 1_565
Al11 Al35 2.810923 1_565
Al11 Al19 2.882545 1_455
Al11 Al15 2.882571 1_554
Al11 Al36 3.077605 1_555
Al11 Al38 3.077619 1_555
Al11 Ce0 3.190391 1_555
Al12 Al15 2.703594 1_555
Al12 Al35 2.703658 1_566
Al12 Al20 2.734331 1_555
Al12 Al16 2.734336 1_555
Al12 Cr0 2.764533 1_566
Al12 Al24 2.811243 1_556
Al12 Al26 2.811253 1_565
Al12 Al5 2.882564 1_556
Al12 Al38 3.077394 1_556
Al12 Al37 3.077407 1_565
Al12 Ce1 3.189815 1_555
Al13 Al14 2.703552 1_555
Al13 Al34 2.703651 1_655
Al13 Al19 2.734308 1_555
Al13 Al22 2.734323 1_555
Al13 Cr1 2.764410 1_655
Al13 Al27 2.811224 1_655
Al13 Al24 2.811228 1_555
Al13 Al8 2.882568 1_655
Al13 Al6 2.882598 1_555
Al13 Al36 3.077358 1_655
Al13 Al39 3.077375 1_555
Al13 Ce1 3.189961 1_555
Al14 Al34 2.703656 1_655
Al14 Al23 2.734319 1_555
Al14 Al17 2.734340 1_555
Al14 Cr2 2.764429 1_655
Al14 Al25 2.811238 1_655
Al14 Al26 2.811249 1_555
Al14 Al4 2.882561 1_655
Al14 Al9 2.882600 1_555
Al14 Al36 3.077323 1_655
Al14 Al39 3.077374 1_555
Al14 Ce1 3.189971 1_555
Al15 Al35 2.703675 1_566
Al15 Al21 2.734303 1_555
Al15 Al18 2.734314 1_555
Al15 Cr3 2.764496 1_566
Al15 Al25 2.811216 1_565
Al15 Al27 2.811226 1_556
Al15 Al7 2.882571 1_565
Al15 Al37 3.077378 1_565
Al15 Al38 3.077402 1_556
Al15 Ce1 3.189861 1_555
Al16 Al19 2.703574 1_555
Al16 Al31 2.703655 1_665
Al16 Al20 2.734338 1_555
Al16 Cr2 2.764525 1_665
Al16 Al28 2.811270 1_655
Al16 Al26 2.811279 1_565
Al16 Al9 2.882572 1_565
Al16 Al2 2.882596 1_655
Al16 Al37 3.077372 1_565
Al16 Al36 3.077379 1_655
Al16 Ce1 3.189802 1_555
Al17 Al18 2.703568 1_555
Al17 Al30 2.703658 1_556
Al17 Al23 2.734289 1_555
Al17 Cr0 2.764430 1_556
Al17 Al29 2.811231 1_556
Al17 Al26 2.811239 1_555
Al17 Al38 3.077326 1_556
Al17 Al39 3.077388 1_555
Al17 Ce1 3.189959 1_555
Al18 Al30 2.703663 1_556
Al18 Al21 2.734328 1_555
Al18 Cr1 2.764479 1_556
Al18 Al28 2.811234 1_555
Al18 Al27 2.811253 1_556
Al18 Al8 2.882560 1_556
Al18 Al39 3.077364 1_555
Al18 Al38 3.077368 1_556
Al18 Ce1 3.189927 1_555
Al19 Al31 2.703654 1_665
Al19 Al22 2.734305 1_555
Al19 Cr3 2.764412 1_665
Al19 Al29 2.811198 1_565
Al19 Al27 2.811201 1_655
Al19 Al3 2.882561 1_565
Al19 Al37 3.077378 1_565
Al19 Al36 3.077394 1_655
Al19 Ce1 3.189891 1_555
Al20 Al23 2.703561 1_555
Al20 Al33 2.703645 1_656
Al20 Cr1 2.764498 1_656
Al20 Al28 2.811268 1_655
Al20 Al24 2.811280 1_556
Al20 Al6 2.882593 1_556
Al20 Al36 3.077351 1_655
Al20 Al38 3.077368 1_556
Al20 Ce1 3.189821 1_555
Al21 Al22 2.703566 1_555
Al21 Al32 2.703660 1_565
Al21 Cr2 2.764461 1_565
Al21 Al25 2.811248 1_565
Al21 Al28 2.811253 1_555
Al21 Al4 2.882562 1_565
Al21 Al37 3.077319 1_565
Al21 Al39 3.077381 1_555
Al21 Ce1 3.189900 1_555
Al22 Al32 2.703648 1_565
Al22 Cr0 2.764383 1_565
Al22 Al29 2.811207 1_565
Al22 Al24 2.811211 1_555
Al22 Al5 2.882575 1_555
Al22 Al37 3.077346 1_565
Al22 Al39 3.077383 1_555
Al22 Ce1 3.189936 1_555
Al23 Al33 2.703642 1_656
Al23 Cr3 2.764406 1_656
Al23 Al25 2.811221 1_655
Al23 Al29 2.811221 1_556
Al23 Al3 2.882556 1_556
Al23 Al7 2.882569 1_655
Al23 Al38 3.077351 1_556
Al23 Al36 3.077360 1_655
Al23 Ce1 3.189924 1_555
Al24 Cr1 2.543647 1_655
Al24 Cr0 2.543654 1_565
Al24 Al5 2.703987 1_555
Al24 Al6 2.704025 1_555
Al24 Al27 2.757082 1_655
Al24 Al29 2.757089 1_565
Al24 Al26 2.757092 1_564
Al24 Al28 2.757104 1_654
Al25 Cr3 2.543640 1_556
Al25 Cr2 2.543645 1_555
Al25 Al7 2.703962 1_555
Al25 Al4 2.703988 1_555
Al25 Al26 2.757087 1_455
Al25 Al27 2.757098 1_546
Al25 Al28 2.757100 1_545
Al25 Al29 2.757104 1_456
Al26 Cr0 2.543671 1_556
Al26 Cr2 2.543675 1_655
Al26 Al9 2.704015 1_555
Al26 Al29 2.757092 1_556
Al26 Al28 2.757094 1_645
Al27 Cr1 2.543647 1_555
Al27 Cr3 2.543655 1_565
Al27 Al8 2.703984 1_555
Al27 Al29 2.757086 1_465
Al27 Al28 2.757095 1_554
Al28 Cr1 2.543685 1_556
Al28 Cr2 2.543686 1_565
Al29 Cr0 2.543593 1_555
Al29 Cr3 2.543596 1_655
Al29 Al3 2.703964 1_555
Al30 Cr0 2.543603 1_555
Al30 Cr1 2.543639 1_555
Al30 Al32 2.758249 1_555
Al30 Al34 2.758271 1_555
Al30 Al35 2.758280 1_555
Al30 Al33 2.758321 1_555
Al30 Al8 2.810878 1_555
Al31 Cr3 2.543603 1_555
Al31 Cr2 2.543665 1_555
Al31 Al33 2.758257 1_555
Al31 Al35 2.758278 1_555
Al31 Al34 2.758296 1_555
Al31 Al32 2.758331 1_555
Al31 Al9 2.810882 1_455
Al32 Cr0 2.543575 1_555
Al32 Cr2 2.543615 1_555
Al32 Al34 2.758285 1_555
Al32 Al35 2.758293 1_555
Al32 Al4 2.810882 1_555
Al32 Al5 2.810912 1_545
Al33 Cr3 2.543600 1_555
Al33 Cr1 2.543653 1_555
Al33 Al35 2.758275 1_555
Al33 Al34 2.758298 1_555
Al33 Al6 2.810889 1_455
Al33 Al7 2.810898 1_554
Al34 Cr1 2.543577 1_555
Al34 Cr2 2.543588 1_555
Al34 Al6 2.810889 1_455
Al34 Al8 2.810889 1_555
Al34 Al4 2.810895 1_555
Al34 Al9 2.810898 1_455
Al35 Cr3 2.543669 1_555
Al35 Cr0 2.543691 1_555
Al35 Al7 2.810901 1_554
Al35 Al5 2.810916 1_545
Al36 Al7 3.077572 1_555
Al36 Al4 3.077584 1_555
Al36 Al8 3.077615 1_555
Al36 Ce1 3.109472 1_455
Al36 Ce0 3.109523 1_555
Al37 Al4 3.077578 1_555
Al37 Al7 3.077606 1_555
Al37 Al9 3.077621 1_555
Al37 Ce1 3.109417 1_545
Al37 Ce0 3.109518 1_555
Al38 Al8 3.077581 1_555
Al38 Al6 3.077599 1_555
Al38 Al5 3.077624 1_555
Al38 Ce1 3.109465 1_554
Al38 Ce0 3.109681 1_555
Al39 Al5 3.077589 1_555
Al39 Al6 3.077593 1_555
Al39 Al9 3.077600 1_555
Al39 Ce1 3.109582 1_555
Al39 Ce0 3.109659 1_555
