# generated using pymatgen
data_Li7SbO6
_symmetry_space_group_name_H-M   'P 1'
_cell_length_a   5.32116187
_cell_length_b   5.38213096
_cell_length_c   5.79727200
_cell_angle_alpha   63.58127446
_cell_angle_beta   64.33504402
_cell_angle_gamma   60.85030168
_symmetry_Int_Tables_number   1
_chemical_formula_structural   Li7SbO6
_chemical_formula_sum   'Li7 Sb1 O6'
_cell_volume   124.78994598
_cell_formula_units_Z   1
loop_
 _symmetry_equiv_pos_site_id
 _symmetry_equiv_pos_as_xyz
  1  'x, y, z'
loop_
 _atom_site_type_symbol
 _atom_site_label
 _atom_site_symmetry_multiplicity
 _atom_site_fract_x
 _atom_site_fract_y
 _atom_site_fract_z
 _atom_site_occupancy
  Li  Li0  1  0.10504561  0.73864595  0.62017603  1
  Li  Li1  1  0.47653621  0.14727425  0.61727212  1
  Li  Li2  1  0.34756553  0.34785332  0.99185644  1
  Li  Li3  1  0.62010495  0.63895085  0.05378419  1
  Li  Li4  1  0.49760237  0.89882228  0.37096909  1
  Li  Li5  1  0.91275580  0.24064629  0.35430561  1
  Li  Li6  1  0.79375044  0.50029024  0.62388216  1
  Sb  Sb0  1  0.00502212  0.98646704  0.00566049  1
  O  O0  1  0.08754628  0.36387695  0.79211791  1
  O  O1  1  0.23509568  0.91461640  0.23728143  1
  O  O2  1  0.63123641  0.21854642  0.23251874  1
  O  O3  1  0.38318362  0.76491062  0.76607826  1
  O  O4  1  0.78362141  0.09653901  0.74497452  1
  O  O5  1  0.89183458  0.63155938  0.23182200  1
loop_
_geom_bond_atom_site_label_1
_geom_bond_atom_site_label_2
_geom_bond_distance
_geom_bond_site_symmetry_2
Li0 O0 1.839625 1_555
Li0 O1 1.933981 1_555
Li0 O4 2.029247 1_465
Li0 O3 2.078570 1_555
Li1 O0 1.885277 1_555
Li1 O4 1.930306 1_555
Li1 O2 1.937977 1_555
Li1 O3 2.066626 1_545
Li2 O3 2.091115 1_555
Li2 O0 2.108389 1_555
Li2 O2 2.155496 1_556
Li2 O4 2.247322 1_555
Li2 O1 2.342907 1_546
Li2 O5 2.346973 1_456
Li3 O2 2.008273 1_555
Li3 O1 2.021286 1_555
Li3 O5 2.087512 1_555
Li3 O3 2.193968 1_554
Li3 O0 2.412981 1_654
Li4 O1 1.822774 1_555
Li4 O2 1.891992 1_565
Li4 O5 1.935868 1_555
Li4 O3 1.971603 1_555
Li5 O5 1.858515 1_555
Li5 O1 1.897534 1_645
Li5 O4 1.952213 1_555
Li5 O2 1.980182 1_555
Li6 O0 1.870742 1_655
Li6 O5 1.959658 1_555
Li6 O3 1.983533 1_555
Li6 O4 1.985369 1_555
O0 Sb0 2.002957 1_546
O1 Sb0 1.987982 1_555
O2 Sb0 2.005380 1_645
O3 Sb0 2.028665 1_556
O4 Sb0 2.021994 1_646
O5 Sb0 1.984601 1_655
