# generated using pymatgen
data_Ti8CrBi4As
_symmetry_space_group_name_H-M   'P 1'
_cell_length_a   7.85469458
_cell_length_b   7.85469479
_cell_length_c   7.85469480
_cell_angle_alpha   95.78188113
_cell_angle_beta   95.78188887
_cell_angle_gamma   142.98866638
_symmetry_Int_Tables_number   1
_chemical_formula_structural   Ti8CrBi4As
_chemical_formula_sum   'Ti8 Cr1 Bi4 As1'
_cell_volume   276.63502182
_cell_formula_units_Z   1
loop_
 _symmetry_equiv_pos_site_id
 _symmetry_equiv_pos_as_xyz
  1  'x, y, z'
loop_
 _atom_site_type_symbol
 _atom_site_label
 _atom_site_symmetry_multiplicity
 _atom_site_fract_x
 _atom_site_fract_y
 _atom_site_fract_z
 _atom_site_occupancy
  Ti  Ti0  1  0.07660241  0.19268325  0.28051079  1
  Ti  Ti1  1  0.91217147  0.79609063  0.71948921  1
  Ti  Ti2  1  0.79609063  0.07660241  0.88391816  1
  Ti  Ti3  1  0.42339759  0.70390937  0.11608184  1
  Ti  Ti4  1  0.19268325  0.91217147  0.11608184  1
  Ti  Ti5  1  0.58782853  0.30731675  0.88391816  1
  Ti  Ti6  1  0.70390937  0.58782853  0.28051079  1
  Ti  Ti7  1  0.30731675  0.42339759  0.71948921  1
  Cr  Cr0  1  0.75000000  0.75000000  0.00000000  1
  Bi  Bi0  1  0.14044977  0.64044977  0.78089954  1
  Bi  Bi1  1  0.85955023  0.35955023  0.21910046  1
  Bi  Bi2  1  0.35955023  0.14044977  0.50000000  1
  Bi  Bi3  1  0.64044977  0.85955023  0.50000000  1
  As  As0  1  0.25000000  0.25000000  0.00000000  1
loop_
_geom_bond_atom_site_label_1
_geom_bond_atom_site_label_2
_geom_bond_distance
_geom_bond_site_symmetry_2
Cr0 Ti6 2.568662 1_555
Cr0 Ti1 2.568662 1_554
Cr0 Ti7 2.568664 1_554
Cr0 Ti0 2.568664 1_665
Cr0 Ti4 2.568670 1_655
Cr0 Ti5 2.568670 1_554
Cr0 Ti2 2.568673 1_564
Cr0 Ti3 2.568673 1_555
Bi0 Ti1 2.896127 1_455
Bi0 Ti7 2.896127 1_555
Bi0 Ti3 2.984408 1_556
Bi0 Ti4 2.984408 1_556
Bi0 Ti5 3.055849 1_455
Bi0 Ti2 3.055853 1_565
Bi0 Ti2 3.101179 1_455
Bi0 Ti5 3.101183 1_565
Bi1 Ti0 2.896127 1_655
Bi1 Ti6 2.896127 1_555
Bi1 Ti5 2.984408 1_554
Bi1 Ti2 2.984408 1_554
Bi1 Ti4 3.055849 1_655
Bi1 Ti3 3.055853 1_545
Bi1 Ti3 3.101179 1_655
Bi1 Ti4 3.101183 1_545
Bi2 Ti5 2.896121 1_555
Bi2 Ti4 2.896121 1_545
Bi2 Ti0 2.984406 1_555
Bi2 Ti7 2.984406 1_555
Bi2 Ti6 3.055855 1_445
Bi2 Ti1 3.055855 1_555
Bi2 Ti6 3.101189 1_555
Bi2 Ti1 3.101189 1_445
Bi3 Ti3 2.896121 1_555
Bi3 Ti2 2.896121 1_565
Bi3 Ti1 2.984406 1_555
Bi3 Ti6 2.984406 1_555
Bi3 Ti7 3.055859 1_555
Bi3 Ti0 3.055859 1_665
Bi3 Ti7 3.101185 1_665
Bi3 Ti0 3.101185 1_555
As0 Cr0 2.493068 1_445
As0 Cr0 2.493068 1_555
As0 Ti7 2.595683 1_554
As0 Ti0 2.595683 1_555
As0 Ti6 2.595686 1_555
As0 Ti1 2.595686 1_444
As0 Ti2 2.595692 1_454
As0 Ti3 2.595692 1_555
As0 Ti4 2.595694 1_545
As0 Ti5 2.595694 1_554
