# generated using pymatgen
data_HfGeBr6
_symmetry_space_group_name_H-M   'P 1'
_cell_length_a   6.87795841
_cell_length_b   6.87795859
_cell_length_c   6.53795733
_cell_angle_alpha   90.00000000
_cell_angle_beta   90.00000000
_cell_angle_gamma   119.99999909
_symmetry_Int_Tables_number   1
_chemical_formula_structural   HfGeBr6
_chemical_formula_sum   'Hf1 Ge1 Br6'
_cell_volume   267.85010423
_cell_formula_units_Z   1
loop_
 _symmetry_equiv_pos_site_id
 _symmetry_equiv_pos_as_xyz
  1  'x, y, z'
loop_
 _atom_site_type_symbol
 _atom_site_label
 _atom_site_symmetry_multiplicity
 _atom_site_fract_x
 _atom_site_fract_y
 _atom_site_fract_z
 _atom_site_occupancy
  Hf  Hf0  1  0.33333300  0.66666700  0.00000000  1
  Ge  Ge0  1  0.66666700  0.33333300  0.00000000  1
  Br  Br0  1  0.63812636  0.65775630  0.23183110  1
  Br  Br1  1  0.34224370  0.36187364  0.76816890  1
  Br  Br2  1  0.01962993  0.36187364  0.23183110  1
  Br  Br3  1  0.34224370  0.98037007  0.23183110  1
  Br  Br4  1  0.63812636  0.98037007  0.76816890  1
  Br  Br5  1  0.01962993  0.65775630  0.76816890  1
loop_
_geom_bond_atom_site_label_1
_geom_bond_atom_site_label_2
_geom_bond_distance
_geom_bond_site_symmetry_2
Br0 Hf0 2.612336 1_555
Br0 Ge0 2.784406 1_555
Br1 Hf0 2.612336 1_556
Br1 Ge0 2.784406 1_556
Br2 Hf0 2.612333 1_555
Br2 Ge0 2.784401 1_455
Br3 Hf0 2.612330 1_555
Br3 Ge0 2.784403 1_565
Br4 Hf0 2.612333 1_556
Br4 Ge0 2.784401 1_566
Br5 Hf0 2.612330 1_556
Br5 Ge0 2.784403 1_456
