# generated using pymatgen
data_Ga2Te3
_symmetry_space_group_name_H-M   'P 1'
_cell_length_a   7.40907616
_cell_length_b   7.40907616
_cell_length_c   14.86070449
_cell_angle_alpha   82.46726127
_cell_angle_beta   82.46726127
_cell_angle_gamma   32.73438191
_symmetry_Int_Tables_number   1
_chemical_formula_structural   Ga2Te3
_chemical_formula_sum   'Ga4 Te6'
_cell_volume   436.98672881
_cell_formula_units_Z   2
loop_
 _symmetry_equiv_pos_site_id
 _symmetry_equiv_pos_as_xyz
  1  'x, y, z'
loop_
 _atom_site_type_symbol
 _atom_site_label
 _atom_site_symmetry_multiplicity
 _atom_site_fract_x
 _atom_site_fract_y
 _atom_site_fract_z
 _atom_site_occupancy
  Ga  Ga0  1  0.05414400  0.05414400  0.65110100  1
  Ga  Ga1  1  0.07297000  0.07297000  0.16516200  1
  Ga  Ga2  1  0.30478700  0.30478700  0.27618100  1
  Ga  Ga3  1  0.81934200  0.81934200  0.53213600  1
  Te  Te0  1  0.50735800  0.50735800  0.75437400  1
  Te  Te1  1  0.00273000  0.00273000  0.48444000  1
  Te  Te2  1  0.73536900  0.73536900  0.37736800  1
  Te  Te3  1  0.49912300  0.49912300  0.26341100  1
  Te  Te4  1  0.25400500  0.25400500  0.11349200  1
  Te  Te5  1  0.25017200  0.25017200  0.63233400  1
loop_
_geom_bond_atom_site_label_1
_geom_bond_atom_site_label_2
_geom_bond_distance
_geom_bond_site_symmetry_2
Ga0 Te0 2.622562 1_455
Ga0 Te0 2.622562 1_545
Ga0 Te1 2.676397 1_555
Ga0 Te5 2.762802 1_555
Ga1 Te4 2.583498 1_555
Ga1 Te3 2.678469 1_545
Ga1 Te3 2.678469 1_455
Ga2 Te4 2.615993 1_555
Ga2 Te2 2.681171 1_455
Ga2 Te2 2.681171 1_545
Ga2 Te3 2.743522 1_555
Ga3 Te1 2.606846 1_665
Ga3 Te5 2.672666 1_565
Ga3 Te5 2.672666 1_655
Ga3 Te2 2.732319 1_555
