# generated using pymatgen
data_Hg(Mo3S4)2
_symmetry_space_group_name_H-M   'P 1'
_cell_length_a   6.58901298
_cell_length_b   6.58901298
_cell_length_c   6.58901335
_cell_angle_alpha   92.93030618
_cell_angle_beta   92.93030618
_cell_angle_gamma   92.93031235
_symmetry_Int_Tables_number   1
_chemical_formula_structural   Hg(Mo3S4)2
_chemical_formula_sum   'Hg1 Mo6 S8'
_cell_volume   284.90065779
_cell_formula_units_Z   1
loop_
 _symmetry_equiv_pos_site_id
 _symmetry_equiv_pos_as_xyz
  1  'x, y, z'
loop_
 _atom_site_type_symbol
 _atom_site_label
 _atom_site_symmetry_multiplicity
 _atom_site_fract_x
 _atom_site_fract_y
 _atom_site_fract_z
 _atom_site_occupancy
  Hg  Hg0  1  0.00000000  0.00000000  0.00000000  1
  Mo  Mo0  1  0.40761900  0.21946400  0.55366600  1
  Mo  Mo1  1  0.21946400  0.55366600  0.40761900  1
  Mo  Mo2  1  0.55366600  0.40761900  0.21946400  1
  Mo  Mo3  1  0.59238100  0.78053600  0.44633400  1
  Mo  Mo4  1  0.78053600  0.44633400  0.59238100  1
  Mo  Mo5  1  0.44633400  0.59238100  0.78053600  1
  S  S0  1  0.22692800  0.22692800  0.22692800  1
  S  S1  1  0.77307200  0.77307200  0.77307200  1
  S  S2  1  0.38162200  0.72196800  0.13221400  1
  S  S3  1  0.72196800  0.13221400  0.38162200  1
  S  S4  1  0.13221400  0.38162200  0.72196800  1
  S  S5  1  0.61837800  0.27803200  0.86778600  1
  S  S6  1  0.27803200  0.86778600  0.61837800  1
  S  S7  1  0.86778600  0.61837800  0.27803200  1
loop_
_geom_bond_atom_site_label_1
_geom_bond_atom_site_label_2
_geom_bond_distance
_geom_bond_site_symmetry_2
Hg0 S0 2.453853 1_555
Hg0 S1 2.453853 1_444
Mo0 S0 2.410297 1_555
Mo0 S5 2.435343 1_555
Mo0 S4 2.438678 1_555
Mo0 S3 2.490141 1_555
Mo0 S6 2.493248 1_545
Mo1 S0 2.410297 1_555
Mo1 S6 2.435343 1_555
Mo1 S2 2.438678 1_555
Mo1 S4 2.490141 1_555
Mo1 S7 2.493248 1_455
Mo2 S0 2.410297 1_555
Mo2 S7 2.435343 1_555
Mo2 S3 2.438678 1_555
Mo2 S2 2.490141 1_555
Mo2 S5 2.493248 1_554
Mo3 S1 2.410297 1_555
Mo3 S2 2.435343 1_555
Mo3 S7 2.438678 1_555
Mo3 S6 2.490141 1_555
Mo3 S3 2.493248 1_565
Mo4 S1 2.410297 1_555
Mo4 S3 2.435343 1_555
Mo4 S5 2.438678 1_555
Mo4 S7 2.490141 1_555
Mo4 S4 2.493248 1_655
Mo5 S1 2.410297 1_555
Mo5 S4 2.435343 1_555
Mo5 S6 2.438678 1_555
Mo5 S5 2.490141 1_555
Mo5 S2 2.493248 1_556
