# generated using pymatgen
data_Cs3Y(AsSe2)6
_symmetry_space_group_name_H-M   'P 1'
_cell_length_a   9.96753724
_cell_length_b   9.96753716
_cell_length_c   8.67691911
_cell_angle_alpha   90.00000000
_cell_angle_beta   90.00000000
_cell_angle_gamma   119.99999381
_symmetry_Int_Tables_number   1
_chemical_formula_structural   Cs3Y(AsSe2)6
_chemical_formula_sum   'Cs3 Y1 As6 Se12'
_cell_volume   746.57241242
_cell_formula_units_Z   1
loop_
 _symmetry_equiv_pos_site_id
 _symmetry_equiv_pos_as_xyz
  1  'x, y, z'
loop_
 _atom_site_type_symbol
 _atom_site_label
 _atom_site_symmetry_multiplicity
 _atom_site_fract_x
 _atom_site_fract_y
 _atom_site_fract_z
 _atom_site_occupancy
  Cs  Cs0  1  0.00000000  0.00000000  0.00000000  1
  Cs  Cs1  1  0.33333300  0.66666700  0.86057025  1
  Cs  Cs2  1  0.66666700  0.33333300  0.13942975  1
  Y  Y0  1  0.00000000  0.00000000  0.50000000  1
  As  As0  1  0.29089078  0.83864216  0.39785694  1
  As  As1  1  0.16135784  0.45224962  0.39785694  1
  As  As2  1  0.54775038  0.70910922  0.39785694  1
  As  As3  1  0.70910922  0.16135784  0.60214306  1
  As  As4  1  0.83864216  0.54775038  0.60214306  1
  As  As5  1  0.45224962  0.29089078  0.60214306  1
  Se  Se0  1  0.25786912  0.04364348  0.31054246  1
  Se  Se1  1  0.95635652  0.21422564  0.31054246  1
  Se  Se2  1  0.78577436  0.74213088  0.31054246  1
  Se  Se3  1  0.74213088  0.95635652  0.68945754  1
  Se  Se4  1  0.04364348  0.78577436  0.68945754  1
  Se  Se5  1  0.21422564  0.25786912  0.68945754  1
  Se  Se6  1  0.52558332  0.90416152  0.24742817  1
  Se  Se7  1  0.09583848  0.62142081  0.24742817  1
  Se  Se8  1  0.37857919  0.47441668  0.24742817  1
  Se  Se9  1  0.47441668  0.09583848  0.75257183  1
  Se  Se10  1  0.90416152  0.37857919  0.75257183  1
  Se  Se11  1  0.62142081  0.52558332  0.75257183  1
loop_
_geom_bond_atom_site_label_1
_geom_bond_atom_site_label_2
_geom_bond_distance
_geom_bond_site_symmetry_2
Cs0 Se1 3.596979 1_455
Cs0 Se4 3.596979 1_544
Cs0 Se0 3.596979 1_555
Cs0 Se3 3.596979 1_444
Cs0 Se5 3.596979 1_554
Cs0 Se2 3.596979 1_445
Cs1 Se11 3.890947 1_555
Cs1 Se9 3.890947 1_565
Cs1 Se10 3.890947 1_455
Cs1 Se4 3.921676 1_555
Cs1 Se3 3.921683 1_555
Cs1 Se5 3.921685 1_555
Cs1 Se7 4.000908 1_556
Cs1 Se6 4.000911 1_556
Cs1 Se8 4.000918 1_556
Cs2 Se8 3.890947 1_555
Cs2 Se6 3.890947 1_545
Cs2 Se7 3.890947 1_655
Cs2 Se1 3.921676 1_555
Cs2 Se0 3.921683 1_555
Cs2 Se2 3.921685 1_555
Cs2 Se10 4.000908 1_554
Cs2 Se9 4.000911 1_554
Cs2 Se11 4.000918 1_554
As0 Se0 2.351637 1_565
As0 Se7 2.441724 1_555
As0 Se6 2.464717 1_555
As1 Se1 2.351643 1_455
As1 Se8 2.441731 1_555
As1 Se7 2.464700 1_555
As2 Se2 2.351647 1_555
As2 Se6 2.441714 1_555
As2 Se8 2.464713 1_555
As3 Se3 2.351637 1_545
As3 Se10 2.441724 1_555
As3 Se9 2.464717 1_555
As4 Se4 2.351643 1_655
As4 Se11 2.441731 1_555
As4 Se10 2.464700 1_555
As5 Se5 2.351647 1_555
As5 Se9 2.441714 1_555
As5 Se11 2.464713 1_555
Se0 Y0 2.894837 1_555
Se1 Y0 2.894837 1_655
Se2 Y0 2.894837 1_665
Se3 Y0 2.894837 1_665
Se4 Y0 2.894837 1_565
Se5 Y0 2.894837 1_555
