# generated using pymatgen
data_Nd(SiRh)2
_symmetry_space_group_name_H-M   'P 1'
_cell_length_a   4.09349513
_cell_length_b   4.09349600
_cell_length_c   5.83181156
_cell_angle_alpha   110.54621060
_cell_angle_beta   110.54621282
_cell_angle_gamma   90.00001409
_symmetry_Int_Tables_number   1
_chemical_formula_structural   Nd(SiRh)2
_chemical_formula_sum   'Nd1 Si2 Rh2'
_cell_volume   84.83538917
_cell_formula_units_Z   1
loop_
 _symmetry_equiv_pos_site_id
 _symmetry_equiv_pos_as_xyz
  1  'x, y, z'
loop_
 _atom_site_type_symbol
 _atom_site_label
 _atom_site_symmetry_multiplicity
 _atom_site_fract_x
 _atom_site_fract_y
 _atom_site_fract_z
 _atom_site_occupancy
  Nd  Nd0  1  -0.00000000  -0.00000000  -0.00000000  1
  Si  Si0  1  0.62556993  0.62556993  0.25113786  1
  Si  Si1  1  0.37443007  0.37443007  0.74886214  1
  Rh  Rh0  1  0.25000000  0.75000000  0.50000000  1
  Rh  Rh1  1  0.75000000  0.25000000  0.50000000  1
loop_
_geom_bond_atom_site_label_1
_geom_bond_atom_site_label_2
_geom_bond_distance
_geom_bond_site_symmetry_2
Nd0 Si0 3.161474 1_445
Nd0 Si1 3.161474 1_554
Nd0 Si1 3.161479 1_454
Nd0 Si0 3.161479 1_545
Nd0 Si1 3.161479 1_544
Nd0 Si0 3.161479 1_455
Nd0 Si1 3.161483 1_444
Nd0 Si0 3.161483 1_555
Nd0 Rh0 3.255317 1_444
Nd0 Rh1 3.255317 1_555
Nd0 Rh0 3.255317 1_555
Nd0 Rh1 3.255317 1_444
Nd0 Rh0 3.255318 1_544
Nd0 Rh1 3.255318 1_455
Nd0 Rh0 3.255318 1_545
Nd0 Rh1 3.255318 1_454
Si0 Si1 2.542908 1_554
Rh0 Si0 2.403453 1_455
Rh0 Si1 2.403454 1_565
Rh0 Si0 2.403461 1_555
Rh0 Si1 2.403461 1_555
Rh1 Si1 2.403453 1_655
Rh1 Si0 2.403454 1_545
Rh1 Si1 2.403461 1_555
Rh1 Si0 2.403461 1_555
