# generated using pymatgen
data_CaLu2(AlNi2)3
_symmetry_space_group_name_H-M   'P 1'
_cell_length_a   5.15571892
_cell_length_b   5.15571804
_cell_length_c   15.49911112
_cell_angle_alpha   90.00000000
_cell_angle_beta   90.00000000
_cell_angle_gamma   119.99998698
_symmetry_Int_Tables_number   1
_chemical_formula_structural   CaLu2(AlNi2)3
_chemical_formula_sum   'Ca2 Lu4 Al6 Ni12'
_cell_volume   356.79262704
_cell_formula_units_Z   2
loop_
 _symmetry_equiv_pos_site_id
 _symmetry_equiv_pos_as_xyz
  1  'x, y, z'
loop_
 _atom_site_type_symbol
 _atom_site_label
 _atom_site_symmetry_multiplicity
 _atom_site_fract_x
 _atom_site_fract_y
 _atom_site_fract_z
 _atom_site_occupancy
  Ca  Ca0  1  0.33333300  0.66666700  0.75000000  1
  Ca  Ca1  1  0.66666700  0.33333300  0.25000000  1
  Lu  Lu0  1  0.33333300  0.66666700  0.54368890  1
  Lu  Lu1  1  0.66666700  0.33333300  0.45631110  1
  Lu  Lu2  1  0.66666700  0.33333300  0.04368890  1
  Lu  Lu3  1  0.33333300  0.66666700  0.95631110  1
  Al  Al0  1  0.00000000  0.00000000  0.25000000  1
  Al  Al1  1  0.00000000  0.00000000  0.75000000  1
  Al  Al2  1  0.33333300  0.66666700  0.25000000  1
  Al  Al3  1  0.66666700  0.33333300  0.75000000  1
  Al  Al4  1  0.00000000  0.00000000  0.00000000  1
  Al  Al5  1  0.00000000  0.00000000  0.50000000  1
  Ni  Ni0  1  0.16939441  0.33878782  0.12359589  1
  Ni  Ni1  1  0.83060559  0.66121218  0.87640411  1
  Ni  Ni2  1  0.66121218  0.83060559  0.12359589  1
  Ni  Ni3  1  0.83060559  0.66121218  0.62359589  1
  Ni  Ni4  1  0.33878782  0.16939441  0.87640411  1
  Ni  Ni5  1  0.16939441  0.33878782  0.37640411  1
  Ni  Ni6  1  0.16939441  0.83060559  0.12359589  1
  Ni  Ni7  1  0.33878782  0.16939441  0.62359589  1
  Ni  Ni8  1  0.83060559  0.16939441  0.87640411  1
  Ni  Ni9  1  0.66121218  0.83060559  0.37640411  1
  Ni  Ni10  1  0.83060559  0.16939441  0.62359589  1
  Ni  Ni11  1  0.16939441  0.83060559  0.37640411  1
loop_
_geom_bond_atom_site_label_1
_geom_bond_atom_site_label_2
_geom_bond_distance
_geom_bond_site_symmetry_2
Ca0 Lu3 3.197639 1_555
Ca0 Lu0 3.197639 1_555
Ca0 Ni4 3.237935 1_555
Ca0 Ni7 3.237935 1_555
Ca0 Ni4 3.237935 1_565
Ca0 Ni7 3.237935 1_565
Ca0 Ni1 3.237936 1_555
Ca0 Ni3 3.237936 1_555
Ca0 Ni1 3.237936 1_455
Ca0 Ni3 3.237936 1_455
Ca0 Ni8 3.237936 1_565
Ca0 Ni10 3.237936 1_565
Ca0 Ni8 3.237936 1_455
Ca0 Ni10 3.237936 1_455
Ca1 Lu1 3.197639 1_555
Ca1 Lu2 3.197639 1_555
Ca1 Ni9 3.237935 1_555
Ca1 Ni2 3.237935 1_555
Ca1 Ni9 3.237935 1_545
Ca1 Ni2 3.237935 1_545
Ca1 Ni5 3.237936 1_555
Ca1 Ni0 3.237936 1_555
Ca1 Ni5 3.237936 1_655
Ca1 Ni0 3.237936 1_655
Ca1 Ni11 3.237936 1_545
Ca1 Ni6 3.237936 1_545
Ca1 Ni11 3.237936 1_655
Ca1 Ni6 3.237936 1_655
Lu0 Ni7 2.860035 1_555
Lu0 Ni7 2.860035 1_565
Lu0 Ni3 2.860036 1_555
Lu0 Ni3 2.860036 1_455
Lu0 Ni10 2.860036 1_565
Lu0 Ni10 2.860036 1_455
Lu0 Ni11 2.977521 1_555
Lu0 Ni5 2.977525 1_555
Lu0 Ni9 2.977525 1_555
Lu0 Lu1 3.270249 1_565
Lu0 Lu1 3.270250 1_455
Lu0 Lu1 3.270257 1_555
Lu1 Ni9 2.860035 1_555
Lu1 Ni9 2.860035 1_545
Lu1 Ni5 2.860036 1_555
Lu1 Ni5 2.860036 1_655
Lu1 Ni11 2.860036 1_545
Lu1 Ni11 2.860036 1_655
Lu1 Ni10 2.977521 1_555
Lu1 Ni3 2.977525 1_555
Lu1 Ni7 2.977525 1_555
Lu2 Ni2 2.860035 1_555
Lu2 Ni2 2.860035 1_545
Lu2 Ni0 2.860036 1_555
Lu2 Ni0 2.860036 1_655
Lu2 Ni6 2.860036 1_545
Lu2 Ni6 2.860036 1_655
Lu2 Ni8 2.977521 1_554
Lu2 Ni1 2.977525 1_554
Lu2 Ni4 2.977525 1_554
Lu2 Lu3 3.270249 1_544
Lu2 Lu3 3.270250 1_654
Lu2 Lu3 3.270257 1_554
Lu3 Ni4 2.860035 1_555
Lu3 Ni4 2.860035 1_565
Lu3 Ni1 2.860036 1_555
Lu3 Ni1 2.860036 1_455
Lu3 Ni8 2.860036 1_565
Lu3 Ni8 2.860036 1_455
Lu3 Ni6 2.977521 1_556
Lu3 Ni0 2.977525 1_556
Lu3 Ni2 2.977525 1_556
Al0 Ni5 2.475173 1_555
Al0 Ni0 2.475173 1_555
Al0 Ni9 2.475173 1_445
Al0 Ni2 2.475173 1_445
Al0 Ni11 2.475176 1_545
Al0 Ni6 2.475176 1_545
Al0 Ca1 2.976652 1_455
Al0 Al2 2.976652 1_545
Al0 Al2 2.976657 1_555
Al0 Ca1 2.976657 1_445
Al0 Ca1 2.976658 1_555
Al0 Al2 2.976658 1_445
Al1 Ni1 2.475173 1_445
Al1 Ni3 2.475173 1_445
Al1 Ni4 2.475173 1_555
Al1 Ni7 2.475173 1_555
Al1 Ni8 2.475176 1_455
Al1 Ni10 2.475176 1_455
Al1 Al3 2.976652 1_455
Al1 Ca0 2.976652 1_545
Al1 Ca0 2.976657 1_555
Al1 Al3 2.976657 1_445
Al1 Al3 2.976658 1_555
Al1 Ca0 2.976658 1_445
Al2 Ni11 2.445705 1_555
Al2 Ni6 2.445705 1_555
Al2 Ni5 2.445710 1_555
Al2 Ni0 2.445710 1_555
Al2 Ni9 2.445710 1_555
Al2 Ni2 2.445710 1_555
Al2 Ca1 2.976653 1_565
Al2 Ca1 2.976653 1_455
Al2 Ca1 2.976661 1_555
Al3 Ni8 2.445705 1_555
Al3 Ni10 2.445705 1_555
Al3 Ni1 2.445710 1_555
Al3 Ni3 2.445710 1_555
Al3 Ni4 2.445710 1_555
Al3 Ni7 2.445710 1_555
Al3 Ca0 2.976653 1_545
Al3 Ca0 2.976653 1_655
Al3 Ca0 2.976661 1_555
Al4 Ni0 2.440867 1_555
Al4 Ni1 2.440867 1_444
Al4 Ni2 2.440867 1_445
Al4 Ni4 2.440867 1_554
Al4 Ni6 2.440870 1_545
Al4 Ni8 2.440870 1_454
Al4 Lu2 3.052700 1_455
Al4 Lu3 3.052700 1_544
Al4 Lu3 3.052704 1_554
Al4 Lu2 3.052704 1_445
Al4 Lu2 3.052705 1_555
Al4 Lu3 3.052705 1_444
Al5 Ni3 2.440867 1_445
Al5 Ni5 2.440867 1_555
Al5 Ni7 2.440867 1_555
Al5 Ni9 2.440867 1_445
Al5 Ni10 2.440870 1_455
Al5 Ni11 2.440870 1_545
Al5 Lu0 3.052700 1_545
Al5 Lu1 3.052700 1_455
Al5 Lu0 3.052704 1_555
Al5 Lu1 3.052704 1_445
Al5 Lu1 3.052705 1_555
Al5 Lu0 3.052705 1_445
Ni0 Ni6 2.535674 1_555
Ni0 Ni2 2.535674 1_555
Ni0 Ni6 2.620044 1_545
Ni0 Ni2 2.620045 1_445
Ni1 Ni8 2.535674 1_555
Ni1 Ni4 2.535674 1_555
Ni1 Ni8 2.620044 1_565
Ni1 Ni4 2.620045 1_665
Ni2 Ni6 2.535674 1_555
Ni2 Ni6 2.620045 1_655
Ni3 Ni7 2.535674 1_555
Ni3 Ni7 2.620045 1_665
Ni4 Ni8 2.535674 1_555
Ni4 Ni8 2.620045 1_455
Ni5 Ni9 2.535674 1_555
Ni5 Ni9 2.620045 1_445
Ni10 Ni3 2.535674 1_555
Ni10 Ni7 2.535674 1_555
Ni10 Ni3 2.620044 1_545
Ni10 Ni7 2.620045 1_655
Ni11 Ni5 2.535674 1_555
Ni11 Ni9 2.535674 1_555
Ni11 Ni5 2.620044 1_565
Ni11 Ni9 2.620045 1_455
