# generated using pymatgen
data_Ti3Al2PtN
_symmetry_space_group_name_H-M   'P 1'
_cell_length_a   8.14960534
_cell_length_b   8.14960521
_cell_length_c   8.14960494
_cell_angle_alpha   60.00000110
_cell_angle_beta   60.00000162
_cell_angle_gamma   60.00000057
_symmetry_Int_Tables_number   1
_chemical_formula_structural   Ti3Al2PtN
_chemical_formula_sum   'Ti12 Al8 Pt4 N4'
_cell_volume   382.73194958
_cell_formula_units_Z   4
loop_
 _symmetry_equiv_pos_site_id
 _symmetry_equiv_pos_as_xyz
  1  'x, y, z'
loop_
 _atom_site_type_symbol
 _atom_site_label
 _atom_site_symmetry_multiplicity
 _atom_site_fract_x
 _atom_site_fract_y
 _atom_site_fract_z
 _atom_site_occupancy
  Ti  Ti0  1  0.81703453  0.81703453  0.18296547  1
  Ti  Ti1  1  0.06703453  0.43296547  0.43296547  1
  Ti  Ti2  1  0.43296547  0.06703453  0.06703453  1
  Ti  Ti3  1  0.06703453  0.06703453  0.43296547  1
  Ti  Ti4  1  0.06703453  0.43296547  0.06703453  1
  Ti  Ti5  1  0.43296547  0.06703453  0.43296547  1
  Ti  Ti6  1  0.18296547  0.81703453  0.18296547  1
  Ti  Ti7  1  0.18296547  0.81703453  0.81703453  1
  Ti  Ti8  1  0.81703453  0.18296547  0.18296547  1
  Ti  Ti9  1  0.81703453  0.18296547  0.81703453  1
  Ti  Ti10  1  0.43296547  0.43296547  0.06703453  1
  Ti  Ti11  1  0.18296547  0.18296547  0.81703453  1
  Al  Al0  1  0.41549375  0.75351674  0.41549375  1
  Al  Al1  1  0.83450625  0.83450625  0.49648326  1
  Al  Al2  1  0.49648326  0.83450625  0.83450625  1
  Al  Al3  1  0.83450625  0.83450625  0.83450625  1
  Al  Al4  1  0.75351674  0.41549375  0.41549375  1
  Al  Al5  1  0.41549375  0.41549375  0.41549375  1
  Al  Al6  1  0.41549375  0.41549375  0.75351674  1
  Al  Al7  1  0.83450625  0.49648326  0.83450625  1
  Pt  Pt0  1  0.62500000  0.12500000  0.62500000  1
  Pt  Pt1  1  0.62500000  0.62500000  0.12500000  1
  Pt  Pt2  1  0.12500000  0.62500000  0.62500000  1
  Pt  Pt3  1  0.62500000  0.62500000  0.62500000  1
  N  N0  1  0.12500000  0.62500000  0.12500000  1
  N  N1  1  0.12500000  0.12500000  0.62500000  1
  N  N2  1  0.62500000  0.12500000  0.12500000  1
  N  N3  1  0.12500000  0.12500000  0.12500000  1
loop_
_geom_bond_atom_site_label_1
_geom_bond_atom_site_label_2
_geom_bond_distance
_geom_bond_site_symmetry_2
Al0 Pt1 2.503190 1_555
Al0 Pt2 2.503190 1_555
Al0 Pt3 2.503203 1_555
Al1 Pt0 2.503190 1_565
Al1 Pt2 2.503190 1_655
Al1 Pt3 2.503203 1_555
Al2 Pt1 2.503190 1_556
Al2 Pt0 2.503190 1_565
Al2 Pt3 2.503203 1_555
Al3 Pt0 2.503199 1_565
Al3 Pt2 2.503199 1_655
Al3 Pt1 2.503199 1_556
Al4 Pt1 2.503190 1_555
Al4 Pt0 2.503190 1_555
Al4 Pt3 2.503203 1_555
Al5 Pt0 2.503199 1_555
Al5 Pt2 2.503199 1_555
Al5 Pt1 2.503199 1_555
Al6 Pt0 2.503190 1_555
Al6 Pt2 2.503190 1_555
Al6 Pt3 2.503203 1_555
Al7 Pt1 2.503190 1_556
Al7 Pt2 2.503190 1_655
Al7 Pt3 2.503203 1_555
Pt0 Ti2 3.008237 1_556
Pt0 Ti9 3.008237 1_555
Pt0 Ti5 3.008237 1_555
Pt0 Ti8 3.008237 1_555
Pt0 Ti3 3.008237 1_655
Pt0 Ti11 3.008237 1_555
Pt1 Ti0 3.008237 1_555
Pt1 Ti10 3.008237 1_555
Pt1 Ti2 3.008237 1_565
Pt1 Ti8 3.008237 1_555
Pt1 Ti4 3.008237 1_655
Pt1 Ti6 3.008237 1_555
Pt2 Ti4 3.008237 1_556
Pt2 Ti7 3.008237 1_555
Pt2 Ti6 3.008237 1_555
Pt2 Ti1 3.008237 1_555
Pt2 Ti3 3.008237 1_565
Pt2 Ti11 3.008237 1_555
Pt3 Ti0 3.008237 1_555
Pt3 Ti10 3.008237 1_556
Pt3 Ti9 3.008237 1_555
Pt3 Ti5 3.008237 1_565
Pt3 Ti7 3.008237 1_555
Pt3 Ti1 3.008237 1_655
N0 Ti6 2.144136 1_555
N0 Ti1 2.144136 1_555
N0 Ti7 2.144136 1_554
N0 Ti4 2.144136 1_555
N0 Ti0 2.144136 1_455
N0 Ti10 2.144136 1_555
N1 Ti3 2.144136 1_555
N1 Ti11 2.144136 1_555
N1 Ti7 2.144136 1_545
N1 Ti1 2.144136 1_555
N1 Ti9 2.144136 1_455
N1 Ti5 2.144136 1_555
N2 Ti8 2.144136 1_555
N2 Ti5 2.144136 1_555
N2 Ti2 2.144136 1_555
N2 Ti9 2.144136 1_554
N2 Ti0 2.144136 1_545
N2 Ti10 2.144136 1_555
N3 Ti11 2.144136 1_554
N3 Ti3 2.144136 1_555
N3 Ti4 2.144136 1_555
N3 Ti6 2.144136 1_545
N3 Ti2 2.144136 1_555
N3 Ti8 2.144136 1_455
