# generated using pymatgen
data_Zn22Co3Pd
_symmetry_space_group_name_H-M   'P 1'
_cell_length_a   7.64999274
_cell_length_b   7.72126713
_cell_length_c   7.72126792
_cell_angle_alpha   109.65745848
_cell_angle_beta   109.28433900
_cell_angle_gamma   109.28433389
_symmetry_Int_Tables_number   1
_chemical_formula_structural   Zn22Co3Pd
_chemical_formula_sum   'Zn22 Co3 Pd1'
_cell_volume   351.89474845
_cell_formula_units_Z   1
loop_
 _symmetry_equiv_pos_site_id
 _symmetry_equiv_pos_as_xyz
  1  'x, y, z'
loop_
 _atom_site_type_symbol
 _atom_site_label
 _atom_site_symmetry_multiplicity
 _atom_site_fract_x
 _atom_site_fract_y
 _atom_site_fract_z
 _atom_site_occupancy
  Zn  Zn0  1  0.35301293  0.35533259  1.00000000  1
  Zn  Zn1  1  0.99768034  0.64466741  0.64466741  1
  Zn  Zn2  1  0.35301293  0.00000000  0.35533259  1
  Zn  Zn3  1  0.99246944  0.35378804  0.35378804  1
  Zn  Zn4  1  0.63868141  0.00000000  0.64621196  1
  Zn  Zn5  1  0.63868141  0.64621196  1.00000000  1
  Zn  Zn6  1  0.19901915  0.20724980  0.20724980  1
  Zn  Zn7  1  0.99176935  0.00000000  0.79275020  1
  Zn  Zn8  1  0.99176935  0.79275020  0.00000000  1
  Zn  Zn9  1  0.77881380  0.00000000  1.00000000  1
  Zn  Zn10  1  0.37679811  0.71869544  0.71869544  1
  Zn  Zn11  1  0.65810268  0.00000000  0.28130456  1
  Zn  Zn12  1  0.65810268  0.28130456  0.00000000  1
  Zn  Zn13  1  0.00875850  0.65044401  0.25882590  1
  Zn  Zn14  1  0.74993260  0.39161911  0.74117410  1
  Zn  Zn15  1  0.25358441  0.64136138  1.00000000  1
  Zn  Zn16  1  0.00875850  0.25882590  0.65044401  1
  Zn  Zn17  1  0.25358441  0.00000000  0.64136138  1
  Zn  Zn18  1  0.74993260  0.74117410  0.39161911  1
  Zn  Zn19  1  0.61222303  0.35863862  0.35863862  1
  Zn  Zn20  1  0.35831350  0.60838089  0.34955599  1
  Zn  Zn21  1  0.35831350  0.34955599  0.60838089  1
  Co  Co0  1  0.00170731  0.34311606  1.00000000  1
  Co  Co1  1  0.00170731  0.00000000  0.34311606  1
  Co  Co2  1  0.65859225  0.65688394  0.65688394  1
  Pd  Pd0  1  0.35667851  0.00000000  0.00000000  1
loop_
_geom_bond_atom_site_label_1
_geom_bond_atom_site_label_2
_geom_bond_distance
_geom_bond_site_symmetry_2
Zn0 Zn15 2.562344 1_555
Zn0 Zn5 2.564797 1_555
Zn0 Zn12 2.579753 1_556
Zn0 Zn7 2.615789 1_455
Zn0 Zn6 2.615789 1_556
Zn0 Zn16 2.726039 1_555
Zn0 Zn20 2.726040 1_556
Zn0 Zn17 2.809448 1_555
Zn0 Zn19 2.809448 1_556
Zn0 Zn18 3.022979 1_556
Zn0 Zn21 3.022982 1_555
Zn1 Zn19 2.562344 1_555
Zn1 Zn3 2.564797 1_555
Zn1 Zn10 2.579753 1_655
Zn1 Zn7 2.615789 1_565
Zn1 Zn8 2.615789 1_556
Zn1 Zn18 2.726034 1_555
Zn1 Zn14 2.726035 1_555
Zn1 Zn17 2.809448 1_665
Zn1 Zn15 2.809448 1_655
Zn1 Zn16 3.022976 1_655
Zn1 Zn13 3.022977 1_655
Zn2 Zn4 2.564797 1_555
Zn2 Zn8 2.615789 1_445
Zn2 Zn6 2.615789 1_555
Zn2 Zn21 2.726040 1_555
Zn2 Zn20 3.022982 1_545
Zn3 Zn6 2.560779 1_655
Zn3 Zn9 2.584009 1_554
Zn4 Zn7 2.560779 1_555
Zn4 Zn9 2.584009 1_555
Zn5 Zn8 2.560779 1_556
Zn5 Zn9 2.584009 1_565
Zn6 Zn8 2.616166 1_445
Zn6 Zn7 2.616166 1_454
Zn6 Zn9 2.633753 1_454
Zn7 Zn8 2.616166 1_546
Zn7 Zn9 2.633754 1_555
Zn8 Zn9 2.633753 1_564
Zn10 Zn21 2.624910 1_555
Zn10 Zn20 2.624911 1_555
Zn10 Zn9 2.625882 1_565
Zn10 Zn5 2.780074 1_555
Zn10 Zn4 2.780074 1_565
Zn10 Zn17 2.795679 1_565
Zn10 Zn15 2.795679 1_555
Zn10 Zn3 2.870043 1_455
Zn11 Zn2 2.579753 1_555
Zn11 Zn16 2.624914 1_655
Zn11 Zn18 2.624918 1_545
Zn11 Zn9 2.625883 1_554
Zn11 Zn3 2.780074 1_555
Zn11 Zn5 2.780074 1_544
Zn11 Zn19 2.795679 1_555
Zn11 Zn15 2.795679 1_544
Zn11 Zn4 2.870043 1_555
Zn12 Zn13 2.624914 1_655
Zn12 Zn14 2.624918 1_554
Zn12 Zn9 2.625882 1_554
Zn12 Zn3 2.780074 1_555
Zn12 Zn4 2.780074 1_554
Zn12 Zn17 2.795679 1_554
Zn12 Zn19 2.795679 1_555
Zn12 Zn5 2.870043 1_554
Zn13 Zn8 2.572589 1_455
Zn13 Zn3 2.607986 1_455
Zn13 Zn17 2.675870 1_565
Zn13 Zn20 2.690054 1_555
Zn13 Zn18 2.690062 1_455
Zn13 Zn2 2.726039 1_565
Zn13 Zn5 2.857949 1_454
Zn14 Zn8 2.572584 1_556
Zn14 Zn4 2.607994 1_555
Zn14 Zn19 2.675867 1_555
Zn14 Zn21 2.690062 1_555
Zn14 Zn16 2.690062 1_655
Zn14 Zn5 2.857945 1_555
Zn14 Zn2 3.022979 1_555
Zn15 Zn8 2.631405 1_456
Zn15 Zn16 2.675870 1_555
Zn15 Zn20 2.675874 1_556
Zn15 Zn2 2.809448 1_566
Zn15 Zn5 2.933833 1_555
Zn16 Zn7 2.572589 1_455
Zn16 Zn3 2.607987 1_455
Zn16 Zn21 2.690054 1_555
Zn16 Zn4 2.857949 1_455
Zn17 Zn2 2.562345 1_555
Zn17 Zn7 2.631405 1_455
Zn17 Zn21 2.675874 1_555
Zn17 Zn4 2.933833 1_555
Zn18 Zn7 2.572584 1_565
Zn18 Zn5 2.607994 1_554
Zn18 Zn19 2.675867 1_555
Zn18 Zn20 2.690062 1_555
Zn18 Zn4 2.857945 1_565
Zn19 Zn6 2.631405 1_555
Zn19 Zn2 2.809448 1_555
Zn19 Zn3 2.933833 1_555
Zn20 Zn6 2.572583 1_555
Zn20 Zn4 2.607992 1_565
Zn20 Zn3 2.857941 1_455
Zn21 Zn6 2.572583 1_555
Zn21 Zn5 2.607992 1_555
Zn21 Zn3 2.857941 1_455
Co0 Zn15 2.466773 1_555
Co0 Zn13 2.506271 1_556
Co0 Zn14 2.506276 1_455
Co0 Zn12 2.511682 1_456
Co0 Zn7 2.553347 1_455
Co0 Zn6 2.553347 1_556
Co0 Zn20 2.578503 1_556
Co0 Zn16 2.578507 1_555
Co0 Zn9 2.634848 1_455
Co0 Zn0 2.657825 1_555
Co0 Zn4 2.730172 1_455
Co0 Zn3 2.730172 1_456
Co1 Zn17 2.466773 1_555
Co1 Zn16 2.506271 1_555
Co1 Zn18 2.506276 1_445
Co1 Zn11 2.511682 1_455
Co1 Zn6 2.553347 1_555
Co1 Zn8 2.553347 1_445
Co1 Zn21 2.578503 1_555
Co1 Zn13 2.578507 1_545
Co1 Zn9 2.634848 1_454
Co1 Zn2 2.657825 1_555
Co1 Zn5 2.730172 1_444
Co1 Zn3 2.730172 1_455
Co2 Zn19 2.466770 1_555
Co2 Zn21 2.506276 1_555
Co2 Zn20 2.506276 1_555
Co2 Zn10 2.511690 1_555
Co2 Zn7 2.553343 1_565
Co2 Zn8 2.553343 1_556
Co2 Zn14 2.578496 1_555
Co2 Zn18 2.578496 1_555
Co2 Zn9 2.634851 1_565
Co2 Zn1 2.657817 1_555
Co2 Zn4 2.730175 1_565
Co2 Zn5 2.730175 1_555
Pd0 Zn11 2.593587 1_555
Pd0 Zn10 2.593587 1_544
Pd0 Zn12 2.593587 1_555
Pd0 Zn19 2.616800 1_555
Pd0 Zn15 2.616800 1_544
Pd0 Zn17 2.616800 1_554
Pd0 Zn7 2.720829 1_454
Pd0 Zn8 2.720829 1_445
Pd0 Zn6 2.720829 1_555
Pd0 Zn1 2.753006 1_444
Pd0 Zn0 2.753006 1_554
Pd0 Zn2 2.753006 1_555
