# generated using pymatgen
data_Pt2Rh6W
_symmetry_space_group_name_H-M   'P 1'
_cell_length_a   6.09575312
_cell_length_b   6.09574977
_cell_length_c   6.09575147
_cell_angle_alpha   95.87355728
_cell_angle_beta   95.50159759
_cell_angle_gamma   143.30167860
_symmetry_Int_Tables_number   1
_chemical_formula_structural   Pt2Rh6W
_chemical_formula_sum   'Pt2 Rh6 W1'
_cell_volume   128.47783038
_cell_formula_units_Z   1
loop_
 _symmetry_equiv_pos_site_id
 _symmetry_equiv_pos_as_xyz
  1  'x, y, z'
loop_
 _atom_site_type_symbol
 _atom_site_label
 _atom_site_symmetry_multiplicity
 _atom_site_fract_x
 _atom_site_fract_y
 _atom_site_fract_z
 _atom_site_occupancy
  Pt  Pt0  1  0.66969005  0.00000000  0.66969005  1
  Pt  Pt1  1  0.33030995  1.00000000  0.33030995  1
  Rh  Rh0  1  0.33920515  0.33829791  0.67750606  1
  Rh  Rh1  1  0.66079485  0.66170209  0.32249394  1
  Rh  Rh2  1  0.66079185  0.33829791  0.99909375  1
  Rh  Rh3  1  0.33920815  0.66170209  0.00090625  1
  Rh  Rh4  1  0.00000200  0.32677983  0.32677783  1
  Rh  Rh5  1  0.99999800  0.67322017  0.67322217  1
  W  W0  1  0.00000000  0.00000000  0.00000000  1
loop_
_geom_bond_atom_site_label_1
_geom_bond_atom_site_label_2
_geom_bond_distance
_geom_bond_site_symmetry_2
Pt0 W0 2.707563 1_656
Pt0 Rh3 2.712483 1_546
Pt0 Rh0 2.712489 1_655
Pt0 Rh3 2.712493 1_656
Pt0 Rh0 2.712495 1_545
Pt0 Rh5 2.760246 1_555
Pt0 Rh4 2.760247 1_545
Pt0 Rh4 2.760258 1_655
Pt0 Rh5 2.760259 1_445
Pt0 Rh1 2.764090 1_545
Pt0 Rh2 2.764094 1_555
Pt0 Pt1 2.781911 1_545
Pt1 W0 2.707563 1_565
Pt1 Rh2 2.712483 1_564
Pt1 Rh1 2.712489 1_455
Pt1 Rh2 2.712493 1_454
Pt1 Rh1 2.712495 1_565
Pt1 Rh4 2.760246 1_555
Pt1 Rh5 2.760247 1_565
Pt1 Rh5 2.760258 1_455
Pt1 Rh4 2.760259 1_665
Pt1 Rh0 2.764090 1_565
Pt1 Rh3 2.764094 1_555
Rh0 Rh2 2.636062 1_555
Rh0 Rh3 2.641439 1_556
Rh0 W0 2.676563 1_556
Rh0 W0 2.676571 1_666
Rh0 Rh5 2.690282 1_555
Rh0 Rh5 2.690283 1_445
Rh0 Rh4 2.782082 1_555
Rh0 Rh1 2.811011 1_445
Rh0 Rh1 2.811027 1_555
Rh1 Rh3 2.636062 1_555
Rh1 Rh2 2.641439 1_554
Rh1 W0 2.676563 1_665
Rh1 W0 2.676571 1_555
Rh1 Rh4 2.690282 1_555
Rh1 Rh4 2.690283 1_665
Rh1 Rh5 2.782082 1_555
Rh2 W0 2.676563 1_556
Rh2 W0 2.676571 1_666
Rh2 Rh5 2.690286 1_445
Rh2 Rh5 2.690287 1_555
Rh2 Rh4 2.782078 1_656
Rh2 Rh3 2.811007 1_546
Rh2 Rh3 2.811031 1_656
Rh3 W0 2.676563 1_665
Rh3 W0 2.676571 1_555
Rh3 Rh4 2.690286 1_665
Rh3 Rh4 2.690287 1_555
Rh3 Rh5 2.782078 1_454
Rh4 W0 2.669023 1_555
Rh4 Rh5 2.829653 1_455
Rh5 W0 2.669023 1_666
