# generated using pymatgen
data_Y4Si4IrRu
_symmetry_space_group_name_H-M   'P 1'
_cell_length_a   5.72596767
_cell_length_b   5.72596719
_cell_length_c   10.06544206
_cell_angle_alpha   63.01052808
_cell_angle_beta   63.01052927
_cell_angle_gamma   43.09892354
_symmetry_Int_Tables_number   1
_chemical_formula_structural   Y4Si4IrRu
_chemical_formula_sum   'Y4 Si4 Ir1 Ru1'
_cell_volume   196.82114426
_cell_formula_units_Z   1
loop_
 _symmetry_equiv_pos_site_id
 _symmetry_equiv_pos_as_xyz
  1  'x, y, z'
loop_
 _atom_site_type_symbol
 _atom_site_label
 _atom_site_symmetry_multiplicity
 _atom_site_fract_x
 _atom_site_fract_y
 _atom_site_fract_z
 _atom_site_occupancy
  Y  Y0  1  0.00555675  0.00555675  0.32145566  1
  Y  Y1  1  0.99396405  0.99396405  0.67736358  1
  Y  Y2  1  0.81387515  0.81387515  0.10380044  1
  Y  Y3  1  0.18657049  0.18657049  0.89417583  1
  Si  Si0  1  0.64863712  0.64863712  0.43544367  1
  Si  Si1  1  0.35470114  0.35470114  0.56264503  1
  Si  Si2  1  0.50182454  0.50182454  0.12497815  1
  Si  Si3  1  0.49478309  0.49478309  0.87529227  1
  Ir  Ir0  1  0.72871563  0.72871563  0.62525368  1
  Ru  Ru0  1  0.27137104  0.27137104  0.37959168  1
loop_
_geom_bond_atom_site_label_1
_geom_bond_atom_site_label_2
_geom_bond_distance
_geom_bond_site_symmetry_2
Si0 Si1 2.744023 1_555
Si0 Y2 2.916750 1_555
Si0 Y1 3.025238 1_545
Si0 Y1 3.025238 1_455
Si0 Y0 3.125492 1_655
Si0 Y0 3.125493 1_565
Si0 Y0 3.393055 1_665
Si1 Y3 2.917343 1_555
Si1 Y0 3.015317 1_565
Si1 Y0 3.015317 1_655
Si1 Y1 3.102976 1_455
Si1 Y1 3.102977 1_545
Si2 Si3 2.550635 1_554
Si2 Y0 2.900460 1_565
Si2 Y0 2.900460 1_655
Si2 Y2 2.982105 1_545
Si2 Y2 2.982106 1_455
Si2 Y3 3.038320 1_564
Si2 Y3 3.038321 1_654
Si2 Y2 3.225155 1_555
Si3 Y1 2.899895 1_545
Si3 Y1 2.899895 1_455
Si3 Y3 3.001910 1_565
Si3 Y3 3.001910 1_655
Si3 Y2 3.016872 1_546
Si3 Y2 3.016872 1_456
Si3 Y3 3.194482 1_555
Ir0 Si1 2.407485 1_565
Ir0 Si1 2.407486 1_655
Ir0 Si0 2.442924 1_555
Ir0 Si3 2.534366 1_555
Ir0 Y0 3.040793 1_665
Ir0 Y1 3.109794 1_545
Ir0 Y1 3.109794 1_455
Ir0 Y1 3.115036 1_555
Ir0 Y3 3.281150 1_565
Ir0 Y3 3.281150 1_655
Ru0 Si0 2.393993 1_545
Ru0 Si0 2.393993 1_455
Ru0 Si1 2.403869 1_555
Ru0 Si2 2.540537 1_555
Ru0 Y1 3.011917 1_445
Ru0 Y0 3.092484 1_565
Ru0 Y0 3.092484 1_655
Ru0 Y0 3.158405 1_555
