# generated using pymatgen
data_Rb3Li2HfAs3
_symmetry_space_group_name_H-M   'P 1'
_cell_length_a   10.48748948
_cell_length_b   10.48748719
_cell_length_c   15.63754755
_cell_angle_alpha   90.00000000
_cell_angle_beta   90.00000000
_cell_angle_gamma   143.11267284
_symmetry_Int_Tables_number   1
_chemical_formula_structural   Rb3Li2HfAs3
_chemical_formula_sum   'Rb12 Li8 Hf4 As12'
_cell_volume   1032.37854521
_cell_formula_units_Z   4
loop_
 _symmetry_equiv_pos_site_id
 _symmetry_equiv_pos_as_xyz
  1  'x, y, z'
loop_
 _atom_site_type_symbol
 _atom_site_label
 _atom_site_symmetry_multiplicity
 _atom_site_fract_x
 _atom_site_fract_y
 _atom_site_fract_z
 _atom_site_occupancy
  Rb  Rb0  1  0.60431816  0.94881107  0.82590186  1
  Rb  Rb1  1  0.29244766  0.29244766  0.31750556  1
  Rb  Rb2  1  0.20755234  0.20755234  0.81750556  1
  Rb  Rb3  1  0.70755234  0.70755234  0.68249444  1
  Rb  Rb4  1  0.44881107  0.10431816  0.67409814  1
  Rb  Rb5  1  0.89568184  0.55118893  0.32590186  1
  Rb  Rb6  1  0.05118893  0.39568184  0.17409814  1
  Rb  Rb7  1  0.39568184  0.05118893  0.17409814  1
  Rb  Rb8  1  0.55118893  0.89568184  0.32590186  1
  Rb  Rb9  1  0.10431816  0.44881107  0.67409814  1
  Rb  Rb10  1  0.94881107  0.60431816  0.82590186  1
  Rb  Rb11  1  0.79244766  0.79244766  0.18249444  1
  Li  Li0  1  0.08371871  0.91628129  0.00000000  1
  Li  Li1  1  0.58371871  0.41628129  0.50000000  1
  Li  Li2  1  0.91628129  0.08371871  0.00000000  1
  Li  Li3  1  0.75065999  0.24934001  0.00000000  1
  Li  Li4  1  0.74934001  0.25065999  0.50000000  1
  Li  Li5  1  0.24934001  0.75065999  0.00000000  1
  Li  Li6  1  0.25065999  0.74934001  0.50000000  1
  Li  Li7  1  0.41628129  0.58371871  0.50000000  1
  Hf  Hf0  1  0.08690480  0.91309520  0.50000000  1
  Hf  Hf1  1  0.41309520  0.58690480  0.00000000  1
  Hf  Hf2  1  0.91309520  0.08690480  0.50000000  1
  Hf  Hf3  1  0.58690480  0.41309520  0.00000000  1
  As  As0  1  0.07193726  0.39511166  0.41153973  1
  As  As1  1  0.89511166  0.57193726  0.08846027  1
  As  As2  1  0.42806274  0.10488834  0.91153973  1
  As  As3  1  0.60488834  0.92806274  0.58846027  1
  As  As4  1  0.92806274  0.60488834  0.58846027  1
  As  As5  1  0.10488834  0.42806274  0.91153973  1
  As  As6  1  0.57193726  0.89511166  0.08846027  1
  As  As7  1  0.39511166  0.07193726  0.41153973  1
  As  As8  1  0.22424237  0.22424237  0.58543104  1
  As  As9  1  0.72424237  0.72424237  0.91456896  1
  As  As10  1  0.27575763  0.27575763  0.08543104  1
  As  As11  1  0.77575763  0.77575763  0.41456896  1
loop_
_geom_bond_atom_site_label_1
_geom_bond_atom_site_label_2
_geom_bond_distance
_geom_bond_site_symmetry_2
As0 Hf2 2.554039 1_455
As0 Li7 2.727829 1_555
As0 Li4 2.730585 1_455
As0 Li6 2.844149 1_555
As0 Rb8 3.522405 1_555
As0 Rb1 3.557056 1_555
As0 Rb5 3.567849 1_455
As0 Rb8 3.646353 1_445
As0 Rb6 3.719659 1_555
As1 Hf3 2.554040 1_555
As1 Li0 2.727829 1_655
As1 Li3 2.730584 1_555
As1 Li5 2.844150 1_655
As1 Rb7 3.522405 1_665
As1 Rb11 3.557056 1_555
As1 Rb6 3.567849 1_655
As1 Rb7 3.646352 1_555
As1 Rb5 3.719659 1_555
As2 Hf3 2.554039 1_556
As2 Li0 2.727829 1_546
As2 Li3 2.730585 1_556
As2 Li5 2.844149 1_546
As2 Rb10 3.522405 1_445
As2 Rb2 3.557056 1_555
As2 Rb0 3.567849 1_545
As2 Rb10 3.646353 1_555
As2 Rb4 3.719659 1_555
As3 Hf2 2.554040 1_565
As3 Li7 2.727829 1_555
As3 Li4 2.730584 1_565
As3 Li6 2.844150 1_555
As3 Rb9 3.522405 1_555
As3 Rb3 3.557056 1_555
As3 Rb4 3.567849 1_565
As3 Rb9 3.646352 1_665
As3 Rb0 3.719659 1_555
As4 Hf0 2.554039 1_655
As4 Li1 2.727829 1_555
As4 Li6 2.730585 1_655
As4 Li4 2.844149 1_555
As4 Rb4 3.522405 1_555
As4 Rb3 3.557056 1_555
As4 Rb9 3.567849 1_655
As4 Rb4 3.646353 1_665
As4 Rb10 3.719659 1_555
As5 Hf1 2.554040 1_556
As5 Li2 2.727829 1_456
As5 Li5 2.730584 1_556
As5 Li3 2.844150 1_456
As5 Rb0 3.522405 1_445
As5 Rb2 3.557056 1_555
As5 Rb10 3.567849 1_455
As5 Rb0 3.646352 1_555
As5 Rb9 3.719659 1_555
As6 Hf1 2.554039 1_555
As6 Li2 2.727829 1_565
As6 Li5 2.730585 1_555
As6 Li3 2.844149 1_565
As6 Rb6 3.522405 1_665
As6 Rb11 3.557056 1_555
As6 Rb7 3.567849 1_565
As6 Rb6 3.646353 1_555
As6 Rb8 3.719659 1_555
As7 Hf0 2.554040 1_545
As7 Li1 2.727829 1_555
As7 Li6 2.730584 1_545
As7 Li4 2.844150 1_555
As7 Rb5 3.522405 1_555
As7 Rb1 3.557056 1_555
As7 Rb8 3.567849 1_545
As7 Rb5 3.646352 1_445
As7 Rb7 3.719659 1_555
As8 Hf0 2.643695 1_545
As8 Hf2 2.643696 1_455
As8 Li7 2.812141 1_555
As8 Li1 2.812142 1_555
As8 Rb3 3.548227 1_555
As8 Rb2 3.630766 1_555
As8 Rb9 3.713403 1_555
As8 Rb4 3.713403 1_555
As8 Rb3 3.749642 1_445
As9 Hf3 2.643695 1_556
As9 Hf1 2.643696 1_556
As9 Li2 2.812141 1_566
As9 Li0 2.812142 1_656
As9 Rb2 3.548227 1_665
As9 Rb3 3.630766 1_555
As9 Rb0 3.713403 1_555
As9 Rb10 3.713403 1_555
As9 Rb2 3.749642 1_555
As10 Hf1 2.643695 1_555
As10 Hf3 2.643696 1_555
As10 Li0 2.812141 1_545
As10 Li2 2.812142 1_455
As10 Rb11 3.548227 1_445
As10 Rb1 3.630766 1_555
As10 Rb7 3.713403 1_555
As10 Rb6 3.713403 1_555
As10 Rb11 3.749642 1_555
As11 Hf2 2.643695 1_565
As11 Hf0 2.643696 1_655
As11 Li1 2.812141 1_555
As11 Li7 2.812142 1_555
As11 Rb1 3.548227 1_555
As11 Rb11 3.630766 1_555
As11 Rb5 3.713403 1_555
As11 Rb8 3.713403 1_555
As11 Rb1 3.749642 1_665
