# generated using pymatgen
data_CsMgMoF6
_symmetry_space_group_name_H-M   'P 1'
_cell_length_a   7.45596642
_cell_length_b   7.45596706
_cell_length_c   7.45596681
_cell_angle_alpha   120.36463400
_cell_angle_beta   119.61300669
_cell_angle_gamma   90.02059308
_symmetry_Int_Tables_number   1
_chemical_formula_structural   CsMgMoF6
_chemical_formula_sum   'Cs2 Mg2 Mo2 F12'
_cell_volume   293.12098473
_cell_formula_units_Z   2
loop_
 _symmetry_equiv_pos_site_id
 _symmetry_equiv_pos_as_xyz
  1  'x, y, z'
loop_
 _atom_site_type_symbol
 _atom_site_label
 _atom_site_symmetry_multiplicity
 _atom_site_fract_x
 _atom_site_fract_y
 _atom_site_fract_z
 _atom_site_occupancy
  Cs  Cs0  1  0.84919402  0.59919402  0.25000000  1
  Cs  Cs1  1  0.15080598  0.40080598  0.75000000  1
  Mg  Mg0  1  0.50000000  0.00000000  0.00000000  1
  Mg  Mg1  1  0.50000000  0.50000000  0.50000000  1
  Mo  Mo0  1  0.50000000  0.00000000  0.50000000  1
  Mo  Mo1  1  0.00000000  0.00000000  0.00000000  1
  F  F0  1  0.56020133  0.32714477  0.64579851  1
  F  F1  1  0.81865375  0.67285523  0.73305656  1
  F  F2  1  0.43979867  0.08559719  0.76694344  1
  F  F3  1  0.18134625  0.91440281  0.85420149  1
  F  F4  1  0.43979867  0.67285523  0.35420149  1
  F  F5  1  0.18134625  0.32714477  0.26694344  1
  F  F6  1  0.56020133  0.91440281  0.23305656  1
  F  F7  1  0.81865375  0.08559719  0.14579851  1
  F  F8  1  0.83531005  0.08531005  0.75000000  1
  F  F9  1  0.16468995  0.91468995  0.25000000  1
  F  F10  1  0.55156836  0.30156836  0.25000000  1
  F  F11  1  0.44843164  0.69843164  0.75000000  1
loop_
_geom_bond_atom_site_label_1
_geom_bond_atom_site_label_2
_geom_bond_distance
_geom_bond_site_symmetry_2
Cs0 F10 3.137699 1_555
Cs0 F5 3.196395 1_655
Cs0 F6 3.196395 1_555
Cs0 F0 3.196396 1_554
Cs0 F3 3.196396 1_655
Cs0 F9 3.326095 1_655
Cs1 F11 3.137699 1_555
Cs1 F1 3.196395 1_455
Cs1 F2 3.196395 1_555
Cs1 F4 3.196396 1_556
Cs1 F7 3.196396 1_455
Cs1 F8 3.326095 1_455
F0 Mg1 1.994701 1_555
F0 Mo0 2.041827 1_555
F1 Mg1 1.994701 1_555
F1 Mo1 2.041827 1_666
F2 Mg0 1.994701 1_556
F2 Mo0 2.041826 1_555
F3 Mg0 1.994701 1_566
F3 Mo1 2.041826 1_566
F4 Mg1 1.994701 1_555
F4 Mo0 2.041827 1_565
F5 Mg1 1.994701 1_555
F5 Mo1 2.041827 1_555
F6 Mg0 1.994701 1_565
F6 Mo0 2.041826 1_565
F7 Mg0 1.994701 1_555
F7 Mo1 2.041826 1_655
F8 Mo0 2.079439 1_555
F8 Mo1 2.079439 1_656
F9 Mo0 2.079439 1_565
F9 Mo1 2.079439 1_565
F10 Mg1 1.931786 1_555
F10 Mg0 1.931787 1_555
F11 Mg1 1.931786 1_555
F11 Mg0 1.931787 1_566
