# generated using pymatgen
data_Rb6Ge2Se6O
_symmetry_space_group_name_H-M   'P 1'
_cell_length_a   12.74692493
_cell_length_b   9.10552337
_cell_length_c   9.34890754
_cell_angle_alpha   68.62249413
_cell_angle_beta   90.00000000
_cell_angle_gamma   90.00000000
_symmetry_Int_Tables_number   1
_chemical_formula_structural   Rb6Ge2Se6O
_chemical_formula_sum   'Rb12 Ge4 Se12 O2'
_cell_volume   1010.44738431
_cell_formula_units_Z   2
loop_
 _symmetry_equiv_pos_site_id
 _symmetry_equiv_pos_as_xyz
  1  'x, y, z'
loop_
 _atom_site_type_symbol
 _atom_site_label
 _atom_site_symmetry_multiplicity
 _atom_site_fract_x
 _atom_site_fract_y
 _atom_site_fract_z
 _atom_site_occupancy
  Rb  Rb0  1  0.33236478  0.99174704  0.00475422  1
  Rb  Rb1  1  0.22339465  0.70034609  0.45199197  1
  Rb  Rb2  1  0.55978522  0.28754590  0.23362270  1
  Rb  Rb3  1  0.83236478  0.50825296  0.99524578  1
  Rb  Rb4  1  0.44021478  0.71245410  0.76637730  1
  Rb  Rb5  1  0.77660535  0.29965391  0.54800803  1
  Rb  Rb6  1  0.05978522  0.21245410  0.76637730  1
  Rb  Rb7  1  0.94021478  0.78754590  0.23362270  1
  Rb  Rb8  1  0.27660535  0.20034609  0.45199197  1
  Rb  Rb9  1  0.72339465  0.79965391  0.54800803  1
  Rb  Rb10  1  0.66763522  0.00825296  0.99524578  1
  Rb  Rb11  1  0.16763522  0.49174704  0.00475422  1
  Ge  Ge0  1  0.48917607  0.34825798  0.68388557  1
  Ge  Ge1  1  0.98917607  0.15174202  0.31611443  1
  Ge  Ge2  1  0.51082393  0.65174202  0.31611443  1
  Ge  Ge3  1  0.01082393  0.84825798  0.68388557  1
  Se  Se0  1  0.97906307  0.60718870  0.65349025  1
  Se  Se1  1  0.88023967  0.90872281  0.83157989  1
  Se  Se2  1  0.81580605  0.12878043  0.24221948  1
  Se  Se3  1  0.61976033  0.40872281  0.83157989  1
  Se  Se4  1  0.31580605  0.37121957  0.75778052  1
  Se  Se5  1  0.11976033  0.09127719  0.16842011  1
  Se  Se6  1  0.47906307  0.89281130  0.34650975  1
  Se  Se7  1  0.38023967  0.59127719  0.16842011  1
  Se  Se8  1  0.02093693  0.39281130  0.34650975  1
  Se  Se9  1  0.68419395  0.62878043  0.24221948  1
  Se  Se10  1  0.52093693  0.10718870  0.65349025  1
  Se  Se11  1  0.18419395  0.87121957  0.75778052  1
  O  O0  1  0.50000000  0.50000000  0.50000000  1
  O  O1  1  0.00000000  0.00000000  0.50000000  1
loop_
_geom_bond_atom_site_label_1
_geom_bond_atom_site_label_2
_geom_bond_distance
_geom_bond_site_symmetry_2
Rb0 Se4 3.390962 1_564
Rb0 Se5 3.393795 1_565
Rb0 Se7 3.455853 1_555
Rb0 Se11 3.456907 1_554
Rb0 Se6 3.523950 1_555
Rb0 Se10 3.892360 1_564
Rb1 Se4 3.506516 1_555
Rb1 Se0 3.578160 1_455
Rb1 Se6 3.661258 1_555
Rb1 Se7 3.732447 1_555
Rb1 Se11 3.753110 1_555
Rb1 Se5 3.816363 1_565
Rb2 Se7 3.468315 1_555
Rb2 Se6 3.510829 1_545
Rb2 Se9 3.515331 1_555
Rb2 Se2 3.558361 1_555
Rb2 Se3 3.592494 1_554
Rb2 Se10 3.694684 1_555
Rb3 Se2 3.390962 1_556
Rb3 Se3 3.393795 1_555
Rb3 Se1 3.455853 1_555
Rb3 Se9 3.456907 1_556
Rb3 Se0 3.523950 1_555
Rb3 Se8 3.892360 1_656
Rb4 Se3 3.468315 1_555
Rb4 Se10 3.510829 1_565
Rb4 Se4 3.515331 1_555
Rb4 Se11 3.558361 1_555
Rb4 Se7 3.592494 1_556
Rb4 Se6 3.694684 1_555
Rb5 Se9 3.506516 1_555
Rb5 Se8 3.578160 1_655
Rb5 Se10 3.661258 1_555
Rb5 Se3 3.732447 1_555
Rb5 Se2 3.753110 1_555
Rb5 Se1 3.816363 1_545
Rb6 Se1 3.468315 1_445
Rb6 Se0 3.510829 1_455
Rb6 Se11 3.515331 1_545
Rb6 Se4 3.558361 1_555
Rb6 Se5 3.592494 1_556
Rb6 Se8 3.694684 1_555
Rb7 Se5 3.468315 1_665
Rb7 Se8 3.510829 1_655
Rb7 Se2 3.515331 1_565
Rb7 Se9 3.558361 1_555
Rb7 Se1 3.592494 1_554
Rb7 Se0 3.694684 1_555
Rb8 Se11 3.506516 1_545
Rb8 Se10 3.578160 1_555
Rb8 Se8 3.661258 1_555
Rb8 Se5 3.732447 1_555
Rb8 Se4 3.753110 1_555
Rb8 Se7 3.816363 1_555
Rb9 Se2 3.506516 1_565
Rb9 Se6 3.578160 1_555
Rb9 Se0 3.661258 1_555
Rb9 Se1 3.732447 1_555
Rb9 Se9 3.753110 1_555
Rb9 Se3 3.816363 1_555
Rb10 Se9 3.390962 1_546
Rb10 Se1 3.393795 1_545
Rb10 Se3 3.455853 1_555
Rb10 Se2 3.456907 1_556
Rb10 Se10 3.523950 1_555
Rb10 Se6 3.892360 1_546
Rb11 Se11 3.390962 1_554
Rb11 Se7 3.393795 1_555
Rb11 Se5 3.455853 1_555
Rb11 Se4 3.456907 1_554
Rb11 Se8 3.523950 1_555
Rb11 Se0 3.892360 1_454
Ge0 O0 1.775348 1_555
Ge0 Se4 2.347356 1_555
Ge0 Se10 2.348975 1_555
Ge0 Se3 2.352574 1_555
Ge1 O1 1.775348 1_655
Ge1 Se2 2.347356 1_555
Ge1 Se8 2.348975 1_655
Ge1 Se5 2.352574 1_655
Ge2 O0 1.775348 1_555
Ge2 Se9 2.347356 1_555
Ge2 Se6 2.348975 1_555
Ge2 Se7 2.352574 1_555
Ge3 O1 1.775348 1_565
Ge3 Se11 2.347356 1_555
Ge3 Se0 2.348975 1_455
Ge3 Se1 2.352574 1_455
