# generated using pymatgen
data_NaTa6(CS2)3
_symmetry_space_group_name_H-M   'P 1'
_cell_length_a   5.73173200
_cell_length_b   5.73173105
_cell_length_c   9.96934392
_cell_angle_alpha   84.48438740
_cell_angle_beta   84.48439244
_cell_angle_gamma   120.01065633
_symmetry_Int_Tables_number   1
_chemical_formula_structural   NaTa6(CS2)3
_chemical_formula_sum   'Na1 Ta6 C3 S6'
_cell_volume   278.31916109
_cell_formula_units_Z   1
loop_
 _symmetry_equiv_pos_site_id
 _symmetry_equiv_pos_as_xyz
  1  'x, y, z'
loop_
 _atom_site_type_symbol
 _atom_site_label
 _atom_site_symmetry_multiplicity
 _atom_site_fract_x
 _atom_site_fract_y
 _atom_site_fract_z
 _atom_site_occupancy
  Na  Na0  1  0.00000000  0.00000000  0.00000000  1
  Ta  Ta0  1  0.12759548  0.12759548  0.61793402  1
  Ta  Ta1  1  0.46014205  0.79337405  0.61860199  1
  Ta  Ta2  1  0.79337405  0.46014205  0.61860199  1
  Ta  Ta3  1  0.20662595  0.53985795  0.38139801  1
  Ta  Ta4  1  0.53985795  0.20662595  0.38139801  1
  Ta  Ta5  1  0.87240452  0.87240452  0.38206598  1
  C  C0  1  0.16692104  0.83307896  0.50000000  1
  C  C1  1  0.50000000  0.50000000  0.50000000  1
  C  C2  1  0.83307896  0.16692104  0.50000000  1
  S  S0  1  0.26259159  0.26259159  0.21704796  1
  S  S1  1  0.59326967  0.92796755  0.21703641  1
  S  S2  1  0.92796755  0.59326967  0.21703641  1
  S  S3  1  0.07203245  0.40673033  0.78296359  1
  S  S4  1  0.40673033  0.07203245  0.78296359  1
  S  S5  1  0.73740841  0.73740841  0.78295204  1
loop_
_geom_bond_atom_site_label_1
_geom_bond_atom_site_label_2
_geom_bond_distance
_geom_bond_site_symmetry_2
Na0 S2 2.860543 1_445
Na0 S3 2.860543 1_554
Na0 S1 2.860543 1_445
Na0 S4 2.860543 1_554
Na0 S0 2.863369 1_555
Na0 S5 2.863369 1_444
C0 Ta3 2.233235 1_555
C0 Ta1 2.233235 1_555
C0 Ta0 2.234725 1_565
C0 Ta5 2.234725 1_455
C0 Ta4 2.236237 1_565
C0 Ta2 2.236237 1_455
C1 Ta5 2.229839 1_555
C1 Ta0 2.229839 1_555
C1 Ta1 2.234360 1_555
C1 Ta4 2.234360 1_555
C1 Ta2 2.234360 1_555
C1 Ta3 2.234360 1_555
C2 Ta2 2.233235 1_555
C2 Ta4 2.233235 1_555
C2 Ta5 2.234725 1_545
C2 Ta0 2.234725 1_655
C2 Ta1 2.236237 1_545
C2 Ta3 2.236237 1_655
S0 Ta3 2.494501 1_555
S0 Ta4 2.494501 1_555
S0 Ta5 2.508379 1_445
S1 Ta3 2.492897 1_555
S1 Ta4 2.495092 1_565
S1 Ta5 2.506586 1_555
S2 Ta4 2.492897 1_555
S2 Ta3 2.495092 1_655
S2 Ta5 2.506586 1_555
S3 Ta1 2.492897 1_555
S3 Ta2 2.495092 1_455
S3 Ta0 2.506586 1_555
S4 Ta2 2.492897 1_555
S4 Ta1 2.495092 1_545
S4 Ta0 2.506586 1_555
S5 Ta2 2.494501 1_555
S5 Ta1 2.494501 1_555
S5 Ta0 2.508379 1_665
