# generated using pymatgen
data_Sc(TiN)9
_symmetry_space_group_name_H-M   'P 1'
_cell_length_a   5.21219180
_cell_length_b   6.03011537
_cell_length_c   6.74967263
_cell_angle_alpha   77.10150888
_cell_angle_beta   75.05552867
_cell_angle_gamma   73.17923556
_symmetry_Int_Tables_number   1
_chemical_formula_structural   Sc(TiN)9
_chemical_formula_sum   'Sc1 Ti9 N9'
_cell_volume   193.64878820
_cell_formula_units_Z   1
loop_
 _symmetry_equiv_pos_site_id
 _symmetry_equiv_pos_as_xyz
  1  'x, y, z'
loop_
 _atom_site_type_symbol
 _atom_site_label
 _atom_site_symmetry_multiplicity
 _atom_site_fract_x
 _atom_site_fract_y
 _atom_site_fract_z
 _atom_site_occupancy
  Sc  Sc0  1  0.50000000  -0.00000000  0.00000000  1
  Ti  Ti0  1  0.89256852  0.60327634  0.19068071  1
  Ti  Ti1  1  0.10320448  0.89877061  0.79356666  1
  Ti  Ti2  1  0.89679552  0.10122939  0.20643334  1
  Ti  Ti3  1  0.10743148  0.39672366  0.80931929  1
  Ti  Ti4  1  0.31323631  0.70284075  0.39869240  1
  Ti  Ti5  1  0.30826251  0.19309797  0.39420797  1
  Ti  Ti6  1  0.68676369  0.29715925  0.60130760  1
  Ti  Ti7  1  0.50000000  0.50000000  0.00000000  1
  Ti  Ti8  1  0.69173749  0.80690203  0.60579203  1
  N  N0  1  0.80678282  0.69329985  0.89809677  1
  N  N1  1  0.80671247  0.20527006  0.89590358  1
  N  N2  1  0.19328753  0.79472994  0.10409642  1
  N  N3  1  -0.00000000  -0.00000000  0.50000000  1
  N  N4  1  0.39823592  0.10254708  0.69309856  1
  N  N5  1  0.19321718  0.30670015  0.10190323  1
  N  N6  1  0.59795241  0.40056392  0.30064773  1
  N  N7  1  0.40204759  0.59943608  0.69935227  1
  N  N8  1  0.60176408  0.89745292  0.30690144  1
loop_
_geom_bond_atom_site_label_1
_geom_bond_atom_site_label_2
_geom_bond_distance
_geom_bond_site_symmetry_2
N0 Ti0 2.056931 1_556
N0 Ti3 2.094083 1_655
N0 Ti8 2.119071 1_555
N0 Ti7 2.131226 1_556
N0 Ti1 2.139018 1_655
N0 Sc0 2.177031 1_566
N1 Ti3 2.098753 1_655
N1 Ti7 2.131144 1_556
N1 Ti6 2.144884 1_555
N1 Ti1 2.155829 1_645
N1 Ti2 2.181099 1_556
N1 Sc0 2.181544 1_556
N2 Ti0 2.098753 1_455
N2 Ti7 2.131144 1_555
N2 Ti4 2.144884 1_555
N2 Ti2 2.155829 1_465
N2 Ti1 2.181099 1_554
N2 Sc0 2.181544 1_565
N3 Ti2 2.099509 1_455
N3 Ti1 2.099509 1_545
N3 Ti8 2.137082 1_445
N3 Ti5 2.137082 1_555
N3 Ti6 2.149903 1_455
N3 Ti4 2.149903 1_545
N4 Ti6 2.058857 1_555
N4 Ti8 2.071579 1_545
N4 Ti5 2.106180 1_555
N4 Ti3 2.124015 1_555
N4 Ti1 2.125621 1_545
N4 Sc0 2.181687 1_556
N5 Ti3 2.056931 1_554
N5 Ti0 2.094083 1_455
N5 Ti5 2.119071 1_555
N5 Ti7 2.131226 1_555
N5 Ti2 2.139018 1_455
N5 Sc0 2.177031 1_555
N6 Ti4 2.104552 1_555
N6 Ti2 2.112597 1_555
N6 Ti6 2.115157 1_555
N6 Ti5 2.119556 1_555
N6 Ti0 2.120528 1_555
N6 Ti7 2.133564 1_555
N7 Ti6 2.104552 1_555
N7 Ti1 2.112597 1_555
N7 Ti4 2.115157 1_555
N7 Ti8 2.119556 1_555
N7 Ti3 2.120528 1_555
N7 Ti7 2.133564 1_556
N8 Ti4 2.058857 1_555
N8 Ti5 2.071579 1_565
N8 Ti8 2.106180 1_555
N8 Ti0 2.124015 1_555
N8 Ti2 2.125621 1_565
N8 Sc0 2.181687 1_565
