# generated using pymatgen
data_Zr4Hg(PO4)6
_symmetry_space_group_name_H-M   'P 1'
_cell_length_a   8.87860605
_cell_length_b   8.87860648
_cell_length_c   9.09103549
_cell_angle_alpha   119.22999866
_cell_angle_beta   119.22999963
_cell_angle_gamma   59.99999627
_symmetry_Int_Tables_number   1
_chemical_formula_structural   Zr4Hg(PO4)6
_chemical_formula_sum   'Zr4 Hg1 P6 O24'
_cell_volume   512.56110274
_cell_formula_units_Z   1
loop_
 _symmetry_equiv_pos_site_id
 _symmetry_equiv_pos_as_xyz
  1  'x, y, z'
loop_
 _atom_site_type_symbol
 _atom_site_label
 _atom_site_symmetry_multiplicity
 _atom_site_fract_x
 _atom_site_fract_y
 _atom_site_fract_z
 _atom_site_occupancy
  Zr  Zr0  1  0.35156027  0.35156027  0.05468082  1
  Zr  Zr1  1  0.13803804  0.13803804  0.41411312  1
  Zr  Zr2  1  0.86196196  0.86196196  0.58588788  1
  Zr  Zr3  1  0.64843973  0.64843973  0.94531918  1
  Hg  Hg0  1  0.50000000  0.50000000  0.49999900  1
  P  P0  1  0.74317378  0.04532571  0.25989912  1
  P  P1  1  0.04532671  0.47139863  0.25989912  1
  P  P2  1  0.47139863  0.74317378  0.25989912  1
  P  P3  1  0.52860137  0.25682622  0.74010088  1
  P  P4  1  0.95467329  0.52860137  0.74010088  1
  P  P5  1  0.25682622  0.95467329  0.74010088  1
  O  O0  1  0.89179337  0.50776529  0.08921447  1
  O  O1  1  0.50776629  0.68965581  0.08921447  1
  O  O2  1  0.68965581  0.89179337  0.08921447  1
  O  O3  1  0.58339704  0.23025162  0.24987685  1
  O  O4  1  0.23025062  0.43622919  0.24987685  1
  O  O5  1  0.43622819  0.58339804  0.24987685  1
  O  O6  1  0.91368622  0.05476646  0.26916287  1
  O  O7  1  0.05476646  0.30071019  0.26916287  1
  O  O8  1  0.30071019  0.91368622  0.26916287  1
  O  O9  1  0.77110515  0.01259002  0.42142038  1
  O  O10  1  0.01258902  0.63772621  0.42142038  1
  O  O11  1  0.63772621  0.77110415  0.42142038  1
  O  O12  1  0.36227279  0.22889485  0.57857962  1
  O  O13  1  0.98741098  0.36227379  0.57857962  1
  O  O14  1  0.22889585  0.98741098  0.57857962  1
  O  O15  1  0.69928981  0.08631378  0.73083713  1
  O  O16  1  0.94523354  0.69928981  0.73083713  1
  O  O17  1  0.08631378  0.94523354  0.73083713  1
  O  O18  1  0.56377181  0.41660196  0.75012315  1
  O  O19  1  0.76974938  0.56377081  0.75012315  1
  O  O20  1  0.41660296  0.76974838  0.75012315  1
  O  O21  1  0.31034419  0.10820663  0.91078553  1
  O  O22  1  0.49223371  0.31034519  0.91078553  1
  O  O23  1  0.10820563  0.49223471  0.91078553  1
loop_
_geom_bond_atom_site_label_1
_geom_bond_atom_site_label_2
_geom_bond_distance
_geom_bond_site_symmetry_2
Hg0 O3 2.450930 1_555
Hg0 O5 2.450932 1_555
Hg0 O4 2.450935 1_555
Hg0 O20 2.450940 1_555
Hg0 O19 2.450941 1_555
Hg0 O18 2.450950 1_555
O0 P1 1.534150 1_655
O0 Zr3 2.018983 1_554
O1 P2 1.534155 1_555
O1 Zr3 2.018975 1_554
O2 P0 1.534145 1_565
O2 Zr3 2.018983 1_554
O3 P0 1.551515 1_555
O3 Zr0 2.151339 1_555
O4 P1 1.551503 1_555
O4 Zr0 2.151343 1_555
O5 P2 1.551500 1_555
O5 Zr0 2.151345 1_555
O6 P0 1.517081 1_555
O6 Zr1 2.051475 1_655
O7 P1 1.517077 1_555
O7 Zr1 2.051468 1_555
O8 P2 1.517076 1_555
O8 Zr1 2.051471 1_565
O9 P0 1.513689 1_555
O9 Zr2 2.090681 1_545
O10 P1 1.513699 1_555
O10 Zr2 2.090669 1_455
O11 P2 1.513698 1_555
O11 Zr2 2.090665 1_555
O12 P3 1.513705 1_555
O12 Zr1 2.090652 1_555
O13 P4 1.513699 1_555
O13 Zr1 2.090664 1_655
O14 P5 1.513703 1_555
O14 Zr1 2.090664 1_565
O15 P3 1.517076 1_555
O15 Zr2 2.051466 1_545
O16 P4 1.517077 1_555
O16 Zr2 2.051461 1_555
O17 P5 1.517077 1_555
O17 Zr2 2.051476 1_455
O18 P3 1.551500 1_555
O18 Zr3 2.151345 1_555
O19 P4 1.551503 1_555
O19 Zr3 2.151343 1_555
O20 P5 1.551509 1_555
O20 Zr3 2.151339 1_555
O21 P5 1.534150 1_545
O21 Zr0 2.018983 1_556
O22 P3 1.534152 1_555
O22 Zr0 2.018979 1_556
O23 P4 1.534147 1_455
O23 Zr0 2.018986 1_556
