# generated using pymatgen
data_Y9ScCd3Cu
_symmetry_space_group_name_H-M   'P 1'
_cell_length_a   9.62361250
_cell_length_b   9.62361193
_cell_length_c   9.74813141
_cell_angle_alpha   90.00000000
_cell_angle_beta   90.00000000
_cell_angle_gamma   119.99999850
_symmetry_Int_Tables_number   1
_chemical_formula_structural   Y9ScCd3Cu
_chemical_formula_sum   'Y18 Sc2 Cd6 Cu2'
_cell_volume   781.85864519
_cell_formula_units_Z   2
loop_
 _symmetry_equiv_pos_site_id
 _symmetry_equiv_pos_as_xyz
  1  'x, y, z'
loop_
 _atom_site_type_symbol
 _atom_site_label
 _atom_site_symmetry_multiplicity
 _atom_site_fract_x
 _atom_site_fract_y
 _atom_site_fract_z
 _atom_site_occupancy
  Y  Y0  1  0.20814774  0.79185226  0.44055177  1
  Y  Y1  1  0.20814774  0.41629548  0.44055177  1
  Y  Y2  1  0.58370452  0.79185226  0.44055177  1
  Y  Y3  1  0.79185226  0.20814774  0.55944823  1
  Y  Y4  1  0.79185226  0.58370452  0.55944823  1
  Y  Y5  1  0.41629548  0.20814774  0.55944823  1
  Y  Y6  1  0.79185226  0.20814774  0.94055177  1
  Y  Y7  1  0.79185226  0.58370452  0.94055177  1
  Y  Y8  1  0.41629548  0.20814774  0.94055177  1
  Y  Y9  1  0.20814774  0.79185226  0.05944823  1
  Y  Y10  1  0.20814774  0.41629548  0.05944823  1
  Y  Y11  1  0.58370452  0.79185226  0.05944823  1
  Y  Y12  1  0.54411894  0.45588106  0.25000000  1
  Y  Y13  1  0.54411894  0.08823888  0.25000000  1
  Y  Y14  1  0.91176112  0.45588106  0.25000000  1
  Y  Y15  1  0.45588106  0.54411894  0.75000000  1
  Y  Y16  1  0.45588106  0.91176112  0.75000000  1
  Y  Y17  1  0.08823888  0.54411894  0.75000000  1
  Sc  Sc0  1  0.00000000  0.00000000  0.50000000  1
  Sc  Sc1  1  0.00000000  0.00000000  0.00000000  1
  Cd  Cd0  1  0.88969167  0.11030833  0.25000000  1
  Cd  Cd1  1  0.88969167  0.77938533  0.25000000  1
  Cd  Cd2  1  0.22061467  0.11030833  0.25000000  1
  Cd  Cd3  1  0.11030833  0.88969167  0.75000000  1
  Cd  Cd4  1  0.11030833  0.22061467  0.75000000  1
  Cd  Cd5  1  0.77938533  0.88969167  0.75000000  1
  Cu  Cu0  1  0.33333300  0.66666700  0.25000000  1
  Cu  Cu1  1  0.66666700  0.33333300  0.75000000  1
loop_
_geom_bond_atom_site_label_1
_geom_bond_atom_site_label_2
_geom_bond_distance
_geom_bond_site_symmetry_2
Y0 Y14 3.580191 1_455
Y0 Y13 3.580191 1_565
Y0 Y17 3.655665 1_555
Y0 Y16 3.655665 1_555
Y1 Y12 3.580187 1_555
Y1 Y14 3.580195 1_455
Y1 Y17 3.655660 1_555
Y1 Y15 3.655665 1_555
Y10 Y12 3.580187 1_555
Y10 Y14 3.580195 1_455
Y10 Y17 3.655660 1_554
Y10 Y15 3.655665 1_554
Y11 Y12 3.580187 1_555
Y11 Y13 3.580195 1_565
Y11 Y16 3.655660 1_554
Y11 Y15 3.655665 1_554
Y12 Y13 3.538046 1_555
Y12 Y14 3.538046 1_555
Y12 Y2 3.580187 1_555
Y12 Y5 3.655665 1_555
Y12 Y8 3.655665 1_554
Y12 Y4 3.655665 1_555
Y12 Y7 3.655665 1_554
Y13 Y14 3.538046 1_555
Y13 Y9 3.580191 1_545
Y13 Y2 3.580195 1_545
Y13 Y5 3.655660 1_555
Y13 Y8 3.655660 1_554
Y13 Y3 3.655665 1_555
Y13 Y6 3.655665 1_554
Y14 Y9 3.580191 1_655
Y14 Y4 3.655660 1_555
Y14 Y7 3.655660 1_554
Y14 Y3 3.655665 1_555
Y14 Y6 3.655665 1_554
Y15 Y16 3.538046 1_555
Y15 Y17 3.538046 1_555
Y15 Y8 3.580187 1_555
Y15 Y5 3.580187 1_555
Y15 Y7 3.580187 1_555
Y15 Y4 3.580187 1_555
Y15 Y2 3.655665 1_555
Y16 Y17 3.538046 1_555
Y16 Y6 3.580191 1_565
Y16 Y3 3.580191 1_565
Y16 Y8 3.580195 1_565
Y16 Y5 3.580195 1_565
Y16 Y2 3.655660 1_555
Y16 Y9 3.655665 1_556
Y17 Y6 3.580191 1_455
Y17 Y3 3.580191 1_455
Y17 Y7 3.580195 1_455
Y17 Y4 3.580195 1_455
Y17 Y9 3.655665 1_556
Sc0 Y1 3.517593 1_555
Sc0 Y4 3.517593 1_445
Sc0 Y3 3.517593 1_455
Sc0 Y0 3.517593 1_545
Sc0 Y5 3.517593 1_555
Sc0 Y2 3.517593 1_445
Sc1 Y10 3.517593 1_555
Sc1 Y7 3.517593 1_444
Sc1 Y9 3.517593 1_545
Sc1 Y6 3.517593 1_454
Sc1 Y8 3.517593 1_554
Sc1 Y11 3.517593 1_445
Cd0 Sc0 3.052849 1_655
Cd0 Sc1 3.052849 1_655
Cd0 Cd1 3.184675 1_545
Cd0 Cd2 3.184675 1_655
Cd0 Y14 3.224714 1_555
Cd0 Y13 3.224714 1_555
Cd0 Y3 3.429166 1_555
Cd0 Y6 3.429166 1_554
Cd0 Y2 3.534037 1_545
Cd0 Y11 3.534037 1_545
Cd0 Y1 3.534037 1_655
Cd0 Y10 3.534037 1_655
Cd1 Sc0 3.052839 1_665
Cd1 Sc1 3.052839 1_665
Cd1 Cd2 3.184675 1_665
Cd1 Y12 3.224718 1_555
Cd1 Y14 3.224723 1_555
Cd1 Y4 3.429174 1_555
Cd1 Y7 3.429174 1_554
Cd1 Y2 3.534028 1_555
Cd1 Y11 3.534028 1_555
Cd1 Y0 3.534044 1_655
Cd1 Y9 3.534044 1_655
Cd2 Sc0 3.052839 1_555
Cd2 Sc1 3.052839 1_555
Cd2 Y12 3.224718 1_555
Cd2 Y13 3.224724 1_555
Cd2 Y5 3.429174 1_555
Cd2 Y8 3.429174 1_554
Cd2 Y1 3.534028 1_555
Cd2 Y10 3.534028 1_555
Cd2 Y0 3.534044 1_545
Cd2 Y9 3.534044 1_545
Cd3 Sc0 3.052849 1_565
Cd3 Sc1 3.052849 1_566
Cd3 Cd4 3.184675 1_565
Cd3 Cd5 3.184675 1_455
Cd3 Y17 3.224714 1_555
Cd3 Y16 3.224714 1_555
Cd3 Y9 3.429166 1_556
Cd3 Y0 3.429166 1_555
Cd3 Y8 3.534037 1_565
Cd3 Y5 3.534037 1_565
Cd3 Y7 3.534037 1_455
Cd3 Y4 3.534037 1_455
Cd4 Sc1 3.052839 1_556
Cd4 Sc0 3.052839 1_555
Cd4 Cd5 3.184675 1_445
Cd4 Y15 3.224718 1_555
Cd4 Y17 3.224723 1_555
Cd4 Y10 3.429174 1_556
Cd4 Y1 3.429174 1_555
Cd4 Y8 3.534028 1_555
Cd4 Y5 3.534028 1_555
Cd4 Y6 3.534044 1_455
Cd4 Y3 3.534044 1_455
Cd5 Sc1 3.052839 1_666
Cd5 Sc0 3.052839 1_665
Cd5 Y15 3.224718 1_555
Cd5 Y16 3.224724 1_555
Cd5 Y11 3.429174 1_556
Cd5 Y2 3.429174 1_555
Cd5 Y7 3.534028 1_555
Cd5 Y4 3.534028 1_555
Cd5 Y6 3.534044 1_565
Cd5 Y3 3.534044 1_565
Cu0 Y0 2.793662 1_555
Cu0 Y9 2.793662 1_555
Cu0 Y1 2.793669 1_555
Cu0 Y10 2.793669 1_555
Cu0 Y2 2.793669 1_555
Cu0 Y11 2.793669 1_555
Cu0 Y13 3.513503 1_565
Cu0 Y12 3.513503 1_555
Cu0 Y14 3.513504 1_455
Cu1 Y6 2.793662 1_555
Cu1 Y3 2.793662 1_555
Cu1 Y7 2.793669 1_555
Cu1 Y4 2.793669 1_555
Cu1 Y8 2.793669 1_555
Cu1 Y5 2.793669 1_555
Cu1 Y16 3.513503 1_545
Cu1 Y15 3.513503 1_555
Cu1 Y17 3.513504 1_655
