# generated using pymatgen
data_Cs2Be3Se4
_symmetry_space_group_name_H-M   'P 1'
_cell_length_a   9.51428450
_cell_length_b   9.51428395
_cell_length_c   9.51428450
_cell_angle_alpha   145.71698383
_cell_angle_beta   108.70529349
_cell_angle_gamma   81.54887002
_symmetry_Int_Tables_number   1
_chemical_formula_structural   Cs2Be3Se4
_chemical_formula_sum   'Cs4 Be6 Se8'
_cell_volume   448.11815127
_cell_formula_units_Z   2
loop_
 _symmetry_equiv_pos_site_id
 _symmetry_equiv_pos_as_xyz
  1  'x, y, z'
loop_
 _atom_site_type_symbol
 _atom_site_label
 _atom_site_symmetry_multiplicity
 _atom_site_fract_x
 _atom_site_fract_y
 _atom_site_fract_z
 _atom_site_occupancy
  Cs  Cs0  1  0.12210803  0.23468217  0.35678920  1
  Cs  Cs1  1  0.37789197  0.73468217  0.11257414  1
  Cs  Cs2  1  0.62210803  0.26531783  0.88742586  1
  Cs  Cs3  1  0.87789197  0.76531783  0.64321080  1
  Be  Be0  1  0.51417712  0.75000000  0.76417712  1
  Be  Be1  1  0.98582288  0.75000000  0.23582288  1
  Be  Be2  1  0.48582288  0.25000000  0.23582288  1
  Be  Be3  1  0.75000000  0.25000000  0.50000000  1
  Be  Be4  1  0.25000000  0.75000000  0.50000000  1
  Be  Be5  1  0.01417712  0.25000000  0.76417712  1
  Se  Se0  1  0.20224209  0.05936409  0.59277295  1
  Se  Se1  1  0.29775791  0.89053186  0.85712200  1
  Se  Se2  1  0.03340986  0.44063591  0.14287800  1
  Se  Se3  1  0.46659014  0.60946814  0.40722705  1
  Se  Se4  1  0.79775791  0.94063591  0.40722705  1
  Se  Se5  1  0.70224209  0.10946814  0.14287800  1
  Se  Se6  1  0.96659014  0.55936409  0.85712200  1
  Se  Se7  1  0.53340986  0.39053186  0.59277295  1
loop_
_geom_bond_atom_site_label_1
_geom_bond_atom_site_label_2
_geom_bond_distance
_geom_bond_site_symmetry_2
Cs0 Se0 3.622389 1_555
Cs0 Se7 3.622389 1_555
Cs0 Se1 3.642250 1_555
Cs0 Se6 3.642259 1_455
Cs0 Se2 3.700883 1_555
Cs0 Se5 3.700892 1_455
Cs0 Se1 3.725359 1_544
Cs0 Se6 3.725368 1_444
Cs1 Se1 3.622389 1_554
Cs1 Se6 3.622389 1_454
Cs1 Se0 3.642246 1_565
Cs1 Se7 3.642255 1_565
Cs1 Se4 3.700891 1_555
Cs1 Se3 3.700900 1_555
Cs1 Se0 3.725363 1_554
Cs1 Se7 3.725373 1_554
Cs2 Se5 3.622389 1_556
Cs2 Se2 3.622389 1_656
Cs2 Se4 3.642246 1_545
Cs2 Se3 3.642255 1_545
Cs2 Se0 3.700891 1_555
Cs2 Se7 3.700900 1_555
Cs2 Se4 3.725363 1_556
Cs2 Se3 3.725373 1_556
Cs3 Se4 3.622389 1_555
Cs3 Se3 3.622389 1_555
Cs3 Se5 3.642250 1_555
Cs3 Se2 3.642259 1_655
Cs3 Se6 3.700883 1_555
Cs3 Se1 3.700892 1_655
Cs3 Se5 3.725359 1_566
Cs3 Se2 3.725368 1_666
Be0 Se7 2.276070 1_555
Be0 Se5 2.276075 1_566
Be0 Se3 2.283471 1_555
Be0 Se1 2.283480 1_555
Be1 Se6 2.276075 1_554
Be1 Se4 2.276078 1_555
Be1 Se0 2.283478 1_665
Be1 Se2 2.283479 1_655
Be2 Se3 2.276070 1_555
Be2 Se1 2.276075 1_544
Be2 Se7 2.283471 1_555
Be2 Se5 2.283480 1_555
Be3 Se7 2.284693 1_555
Be3 Se6 2.284695 1_555
Be3 Se5 2.284695 1_555
Be3 Se4 2.284701 1_545
Be4 Se3 2.284693 1_555
Be4 Se2 2.284695 1_555
Be4 Se1 2.284695 1_555
Be4 Se0 2.284701 1_565
Be5 Se2 2.276075 1_556
Be5 Se0 2.276078 1_555
Be5 Se4 2.283478 1_445
Be5 Se6 2.283479 1_455
