# generated using pymatgen
data_Ba2GaSnI
_symmetry_space_group_name_H-M   'P 1'
_cell_length_a   4.68260328
_cell_length_b   4.68260260
_cell_length_c   19.80249880
_cell_angle_alpha   90.00000000
_cell_angle_beta   90.00000000
_cell_angle_gamma   119.99999128
_symmetry_Int_Tables_number   1
_chemical_formula_structural   Ba2GaSnI
_chemical_formula_sum   'Ba4 Ga2 Sn2 I2'
_cell_volume   376.03245664
_cell_formula_units_Z   2
loop_
 _symmetry_equiv_pos_site_id
 _symmetry_equiv_pos_as_xyz
  1  'x, y, z'
loop_
 _atom_site_type_symbol
 _atom_site_label
 _atom_site_symmetry_multiplicity
 _atom_site_fract_x
 _atom_site_fract_y
 _atom_site_fract_z
 _atom_site_occupancy
  Ba  Ba0  1  0.00000000  0.00000000  0.12259399  1
  Ba  Ba1  1  0.00000000  0.00000000  0.37740601  1
  Ba  Ba2  1  0.00000000  0.00000000  0.62252926  1
  Ba  Ba3  1  0.00000000  0.00000000  0.87747074  1
  Ga  Ga0  1  0.66666800  0.33333500  0.52930683  1
  Ga  Ga1  1  0.66666800  0.33333500  0.97069317  1
  Sn  Sn0  1  0.33333300  0.66666700  0.01672448  1
  Sn  Sn1  1  0.33333300  0.66666700  0.48327552  1
  I  I0  1  0.66666800  0.33333500  0.25000000  1
  I  I1  1  0.33333300  0.66666700  0.75000000  1
loop_
_geom_bond_atom_site_label_1
_geom_bond_atom_site_label_2
_geom_bond_distance
_geom_bond_site_symmetry_2
Ba0 Sn0 3.421131 1_545
Ba0 Sn0 3.421135 1_555
Ba0 Sn0 3.421135 1_445
Ba0 I0 3.697864 1_445
Ba0 I0 3.697870 1_455
Ba0 I0 3.697873 1_555
Ba1 Sn1 3.421131 1_545
Ba1 Sn1 3.421135 1_555
Ba1 Sn1 3.421135 1_445
Ba1 I0 3.697864 1_445
Ba1 I0 3.697870 1_455
Ba1 I0 3.697873 1_555
Ba2 Ga0 3.273643 1_445
Ba2 Ga0 3.273650 1_455
Ba2 Ga0 3.273654 1_555
Ba2 I1 3.698742 1_545
Ba2 I1 3.698745 1_555
Ba2 I1 3.698745 1_445
Ba3 Ga1 3.273643 1_445
Ba3 Ga1 3.273650 1_455
Ba3 Ga1 3.273654 1_555
Ba3 I1 3.698742 1_545
Ba3 I1 3.698745 1_555
Ba3 I1 3.698745 1_445
Ga0 Sn1 2.853031 1_655
Ga0 Sn1 2.853038 1_555
Ga0 Sn1 2.853042 1_545
Ga1 Sn0 2.853031 1_656
Ga1 Sn0 2.853038 1_556
Ga1 Sn0 2.853042 1_546
