# generated using pymatgen
data_Ca10Cd2Cu3Pt
_symmetry_space_group_name_H-M   'P 1'
_cell_length_a   9.22046900
_cell_length_b   9.22046818
_cell_length_c   9.22067337
_cell_angle_alpha   129.41435032
_cell_angle_beta   129.41434971
_cell_angle_gamma   74.34310193
_symmetry_Int_Tables_number   1
_chemical_formula_structural   Ca10Cd2Cu3Pt
_chemical_formula_sum   'Ca10 Cd2 Cu3 Pt1'
_cell_volume   456.08685588
_cell_formula_units_Z   1
loop_
 _symmetry_equiv_pos_site_id
 _symmetry_equiv_pos_as_xyz
  1  'x, y, z'
loop_
 _atom_site_type_symbol
 _atom_site_label
 _atom_site_symmetry_multiplicity
 _atom_site_fract_x
 _atom_site_fract_y
 _atom_site_fract_z
 _atom_site_occupancy
  Ca  Ca0  1  0.53179770  0.02686432  0.83462500  1
  Ca  Ca1  1  0.19717269  0.69223832  0.16537500  1
  Ca  Ca2  1  0.03059776  0.19199139  0.50000000  1
  Ca  Ca3  1  0.68814397  0.53827807  0.50000000  1
  Ca  Ca4  1  0.47313568  0.96820230  0.16537500  1
  Ca  Ca5  1  0.80776168  0.30282731  0.83462500  1
  Ca  Ca6  1  0.96172193  0.81185603  0.50000000  1
  Ca  Ca7  1  0.30800861  0.46940224  0.50000000  1
  Ca  Ca8  1  0.50206411  0.50509034  0.00715445  1
  Ca  Ca9  1  0.99490966  0.99793589  0.99284555  1
  Cd  Cd0  1  0.25192276  0.24807724  0.00000000  1
  Cd  Cd1  1  0.75192276  0.74807724  0.00000000  1
  Cu  Cu0  1  0.38406810  0.11593190  0.50000000  1
  Cu  Cu1  1  0.11113889  0.61093512  0.72207401  1
  Cu  Cu2  1  0.88906488  0.38886111  0.27792599  1
  Pt  Pt0  1  0.61656981  0.88343019  0.50000000  1
loop_
_geom_bond_atom_site_label_1
_geom_bond_atom_site_label_2
_geom_bond_distance
_geom_bond_site_symmetry_2
Ca0 Pt0 3.033635 1_545
Ca0 Cu0 3.054001 1_555
Ca0 Cu2 3.195546 1_556
Ca0 Cd1 3.359127 1_546
Ca0 Cd0 3.369163 1_556
Ca1 Pt0 3.033637 1_555
Ca1 Cu0 3.054008 1_565
Ca1 Cu1 3.195551 1_554
Ca1 Cd0 3.359119 1_555
Ca1 Cd1 3.369164 1_455
Ca2 Cu1 3.039599 1_555
Ca2 Cu2 3.039599 1_455
Ca2 Cu0 3.143290 1_555
Ca2 Cd1 3.358869 1_445
Ca2 Cd0 3.358869 1_556
Ca3 Cu1 3.062726 1_655
Ca3 Cu2 3.062726 1_555
Ca3 Pt0 3.070829 1_555
Ca3 Cd0 3.345032 1_555
Ca3 Cd1 3.345032 1_556
Ca4 Pt0 3.033635 1_555
Ca4 Cu0 3.054001 1_565
Ca4 Cu1 3.195546 1_554
Ca4 Cd1 3.359127 1_555
Ca4 Cd0 3.369163 1_565
Ca5 Pt0 3.033637 1_545
Ca5 Cu0 3.054009 1_555
Ca5 Cu2 3.195551 1_556
Ca5 Cd0 3.359119 1_656
Ca5 Cd1 3.369164 1_556
Ca6 Cu2 3.062726 1_555
Ca6 Cu1 3.062726 1_655
Ca6 Pt0 3.070829 1_555
Ca6 Cd0 3.345032 1_666
Ca6 Cd1 3.345032 1_555
Ca7 Cu2 3.039599 1_455
Ca7 Cu1 3.039599 1_555
Ca7 Cu0 3.143290 1_555
Ca7 Cd1 3.358869 1_556
Ca7 Cd0 3.358869 1_555
Ca8 Pt0 3.114479 1_555
Ca8 Cu2 3.183627 1_555
Ca8 Cu1 3.190904 1_554
Ca8 Cu0 3.204030 1_554
Ca8 Cd0 3.673989 1_555
Ca8 Cd1 3.673989 1_555
Ca9 Pt0 3.114479 1_555
Ca9 Cu1 3.183626 1_655
Ca9 Cu2 3.190903 1_566
Ca9 Cu0 3.204031 1_666
Ca9 Cd0 3.673989 1_666
Ca9 Cd1 3.673989 1_556
Cu0 Pt0 2.590553 1_545
Cu1 Cu2 2.474517 1_455
