# generated using pymatgen
data_Lu12In2Re2Tc
_symmetry_space_group_name_H-M   'P 1'
_cell_length_a   8.26709474
_cell_length_b   8.26709557
_cell_length_c   8.26709524
_cell_angle_alpha   108.86573118
_cell_angle_beta   108.86572812
_cell_angle_gamma   110.68910341
_symmetry_Int_Tables_number   1
_chemical_formula_structural   Lu12In2Re2Tc
_chemical_formula_sum   'Lu12 In2 Re2 Tc1'
_cell_volume   434.79987349
_cell_formula_units_Z   1
loop_
 _symmetry_equiv_pos_site_id
 _symmetry_equiv_pos_as_xyz
  1  'x, y, z'
loop_
 _atom_site_type_symbol
 _atom_site_label
 _atom_site_symmetry_multiplicity
 _atom_site_fract_x
 _atom_site_fract_y
 _atom_site_fract_z
 _atom_site_occupancy
  Lu  Lu0  1  0.30554072  0.30554072  0.61108145  1
  Lu  Lu1  1  0.69445928  0.69445928  0.38891855  1
  Lu  Lu2  1  0.69445928  0.30554072  1.00000000  1
  Lu  Lu3  1  0.30554072  0.69445928  0.00000000  1
  Lu  Lu4  1  0.18793139  0.42799254  0.24006215  1
  Lu  Lu5  1  0.81206861  0.57200746  0.75993785  1
  Lu  Lu6  1  0.18793139  0.94786824  0.75993785  1
  Lu  Lu7  1  0.94786824  0.18793139  0.75993785  1
  Lu  Lu8  1  0.81206861  0.05213176  0.24006215  1
  Lu  Lu9  1  0.05213176  0.81206861  0.24006215  1
  Lu  Lu10  1  0.42799254  0.18793139  0.24006215  1
  Lu  Lu11  1  0.57200746  0.81206861  0.75993785  1
  In  In0  1  0.00000000  0.50000000  0.50000000  1
  In  In1  1  0.50000000  0.00000000  0.50000000  1
  Re  Re0  1  0.37190078  0.37190078  1.00000000  1
  Re  Re1  1  0.62809922  0.62809922  0.00000000  1
  Tc  Tc0  1  0.00000000  0.00000000  0.00000000  1
loop_
_geom_bond_atom_site_label_1
_geom_bond_atom_site_label_2
_geom_bond_distance
_geom_bond_site_symmetry_2
Lu0 Re0 2.906120 1_555
Lu0 Re1 2.906120 1_556
Lu1 Re1 2.906120 1_555
Lu1 Re0 2.906120 1_554
Lu2 Re0 2.906119 1_555
Lu2 Re1 2.906120 1_556
Lu3 Re1 2.906119 1_555
Lu3 Re0 2.906120 1_554
Lu4 Re0 2.884792 1_554
Lu4 Tc0 2.907275 1_555
Lu5 Re1 2.884792 1_556
Lu5 Tc0 2.907275 1_666
Lu6 Re0 2.884800 1_565
Lu6 Tc0 2.907282 1_566
Lu7 Re0 2.884800 1_655
Lu7 Tc0 2.907282 1_656
Lu8 Re1 2.884800 1_545
Lu8 Tc0 2.907282 1_655
Lu9 Re1 2.884800 1_455
Lu9 Tc0 2.907282 1_565
Lu10 Re0 2.884792 1_554
Lu10 Tc0 2.907274 1_555
Lu11 Re1 2.884792 1_556
Lu11 Tc0 2.907274 1_666
In0 Lu6 3.061275 1_555
In0 Lu8 3.061275 1_455
In0 Lu5 3.061282 1_455
In0 Lu4 3.061282 1_555
In0 Lu0 3.483100 1_555
In0 Lu1 3.483100 1_455
In0 Lu2 3.483101 1_454
In0 Lu3 3.483101 1_556
In0 Lu7 3.854629 1_455
In0 Lu9 3.854629 1_555
In0 Lu11 3.854635 1_555
In0 Lu10 3.854635 1_455
In1 Lu7 3.061275 1_555
In1 Lu9 3.061275 1_545
In1 Lu11 3.061282 1_545
In1 Lu10 3.061282 1_555
In1 Lu0 3.483100 1_555
In1 Lu1 3.483100 1_545
In1 Lu3 3.483101 1_545
In1 Lu2 3.483101 1_555
In1 Lu8 3.854629 1_555
In1 Lu6 3.854629 1_545
In1 Lu4 3.854636 1_545
In1 Lu5 3.854636 1_555
Re0 Re1 2.408779 1_556
