# generated using pymatgen
data_K3Rb(In2Se3)2
_symmetry_space_group_name_H-M   'P 1'
_cell_length_a   7.44633000
_cell_length_b   7.44632829
_cell_length_c   9.74053746
_cell_angle_alpha   82.70006936
_cell_angle_beta   82.70006266
_cell_angle_gamma   119.93500416
_symmetry_Int_Tables_number   1
_chemical_formula_structural   K3Rb(In2Se3)2
_chemical_formula_sum   'K3 Rb1 In4 Se6'
_cell_volume   452.70437513
_cell_formula_units_Z   1
loop_
 _symmetry_equiv_pos_site_id
 _symmetry_equiv_pos_as_xyz
  1  'x, y, z'
loop_
 _atom_site_type_symbol
 _atom_site_label
 _atom_site_symmetry_multiplicity
 _atom_site_fract_x
 _atom_site_fract_y
 _atom_site_fract_z
 _atom_site_occupancy
  K  K0  1  0.65757960  0.34242040  0.00000000  1
  K  K1  1  0.34242040  0.65757960  1.00000000  1
  K  K2  1  0.00000000  0.00000000  0.00000000  1
  Rb  Rb0  1  0.50000000  0.50000000  0.50000000  1
  In  In0  1  0.88119386  0.21687167  0.35191371  1
  In  In1  1  0.78312833  0.11880614  0.64808629  1
  In  In2  1  0.21687167  0.88119386  0.35191371  1
  In  In3  1  0.11880614  0.78312833  0.64808629  1
  Se  Se0  1  0.41009346  0.05948482  0.76669169  1
  Se  Se1  1  0.05948482  0.41009346  0.76669169  1
  Se  Se2  1  0.94051518  0.58990654  0.23330831  1
  Se  Se3  1  0.76210214  0.76210214  0.76194034  1
  Se  Se4  1  0.58990654  0.94051518  0.23330831  1
  Se  Se5  1  0.23789786  0.23789786  0.23805966  1
loop_
_geom_bond_atom_site_label_1
_geom_bond_atom_site_label_2
_geom_bond_distance
_geom_bond_site_symmetry_2
K0 Se4 3.293979 1_545
K0 Se1 3.293979 1_654
K0 Se3 3.319823 1_554
K0 Se5 3.319823 1_555
K0 Se0 3.377188 1_554
K0 Se2 3.377188 1_555
K1 Se0 3.293979 1_565
K1 Se2 3.293979 1_456
K1 Se5 3.319823 1_556
K1 Se3 3.319823 1_555
K1 Se4 3.377188 1_556
K1 Se1 3.377188 1_555
K2 Se5 3.257145 1_555
K2 Se3 3.257145 1_444
K2 Se2 3.363984 1_445
K2 Se1 3.363984 1_554
K2 Se0 3.363984 1_554
K2 Se4 3.363984 1_445
Rb0 Se3 3.585719 1_555
Rb0 Se5 3.585719 1_555
Rb0 Se4 3.627271 1_555
Rb0 Se0 3.627271 1_555
Rb0 Se1 3.627272 1_555
Rb0 Se2 3.627272 1_555
In0 Se4 2.657116 1_545
In0 Se2 2.660047 1_555
In0 Se5 2.664903 1_655
In1 Se1 2.657116 1_655
In1 Se0 2.660048 1_555
In1 Se3 2.664902 1_545
In2 Se2 2.657116 1_455
In2 Se4 2.660048 1_555
In2 Se5 2.664902 1_565
In3 Se0 2.657116 1_565
In3 Se1 2.660047 1_555
In3 Se3 2.664903 1_455
