# generated using pymatgen
data_Lu4Zn3SiRh9
_symmetry_space_group_name_H-M   'P 1'
_cell_length_a   7.01168365
_cell_length_b   7.01168378
_cell_length_c   7.11286274
_cell_angle_alpha   109.76379166
_cell_angle_beta   109.76379204
_cell_angle_gamma   109.17707490
_symmetry_Int_Tables_number   1
_chemical_formula_structural   Lu4Zn3SiRh9
_chemical_formula_sum   'Lu4 Zn3 Si1 Rh9'
_cell_volume   268.21698922
_cell_formula_units_Z   1
loop_
 _symmetry_equiv_pos_site_id
 _symmetry_equiv_pos_as_xyz
  1  'x, y, z'
loop_
 _atom_site_type_symbol
 _atom_site_label
 _atom_site_symmetry_multiplicity
 _atom_site_fract_x
 _atom_site_fract_y
 _atom_site_fract_z
 _atom_site_occupancy
  Lu  Lu0  1  0.00000000  0.00000000  0.50000000  1
  Lu  Lu1  1  0.03607430  0.51803765  0.01803765  1
  Lu  Lu2  1  0.48196235  0.96392570  0.98196235  1
  Lu  Lu3  1  0.48196235  0.51803765  0.50000000  1
  Zn  Zn0  1  0.74783049  0.25216951  0.50000000  1
  Zn  Zn1  1  0.74783049  0.49565998  0.24783049  1
  Zn  Zn2  1  0.50434002  0.25216951  0.75216951  1
  Si  Si0  1  0.00000000  0.00000000  0.00000000  1
  Rh  Rh0  1  0.24283585  0.48567070  0.74283585  1
  Rh  Rh1  1  0.24283585  0.75716415  0.50000000  1
  Rh  Rh2  1  0.51432930  0.75716415  0.25716415  1
  Rh  Rh3  1  0.73142312  0.70597520  0.00081285  1
  Rh  Rh4  1  0.29402480  0.02544792  0.29483765  1
  Rh  Rh5  1  0.97455208  0.26857688  0.26938973  1
  Rh  Rh6  1  0.29402480  0.26857688  0.99918715  1
  Rh  Rh7  1  0.73142312  0.02544792  0.73061027  1
  Rh  Rh8  1  0.97455208  0.70597520  0.70516235  1
loop_
_geom_bond_atom_site_label_1
_geom_bond_atom_site_label_2
_geom_bond_distance
_geom_bond_site_symmetry_2
Lu0 Rh2 2.775416 1_445
Lu0 Rh0 2.775416 1_555
Lu0 Rh1 2.775422 1_545
Lu0 Zn0 2.882099 1_455
Lu0 Zn2 2.882104 1_555
Lu0 Zn1 2.882104 1_445
Lu0 Rh4 2.894930 1_555
Lu0 Rh8 2.894930 1_445
Lu0 Rh7 2.894930 1_455
Lu0 Rh5 2.894931 1_455
Lu0 Rh6 2.894931 1_555
Lu0 Rh3 2.894931 1_445
Lu1 Rh2 2.733038 1_555
Lu1 Rh1 2.796399 1_555
Lu1 Rh0 2.796405 1_554
Lu1 Rh3 2.845349 1_455
Lu1 Rh7 2.845354 1_454
Lu1 Rh4 2.903882 1_565
Lu1 Rh6 2.903888 1_554
Lu1 Rh5 2.929614 1_455
Lu1 Rh8 2.929615 1_454
Lu1 Zn1 2.996675 1_455
Lu1 Zn0 2.996680 1_454
Lu1 Zn2 3.038651 1_454
Lu2 Rh0 2.733039 1_555
Lu2 Rh1 2.796399 1_555
Lu2 Rh2 2.796405 1_556
Lu2 Rh6 2.845349 1_565
Lu2 Rh5 2.845354 1_566
Lu2 Rh8 2.903882 1_455
Lu2 Rh3 2.903888 1_556
Lu2 Rh7 2.929614 1_565
Lu2 Rh4 2.929615 1_566
Lu2 Zn2 2.996675 1_565
Lu2 Zn0 2.996680 1_566
Lu2 Zn1 3.038652 1_566
Lu3 Rh1 2.733027 1_555
Lu3 Rh0 2.796400 1_555
Lu3 Rh2 2.796400 1_555
Lu3 Rh8 2.845355 1_555
Lu3 Rh4 2.845355 1_555
Lu3 Rh5 2.903882 1_455
Lu3 Rh7 2.903882 1_565
Lu3 Rh3 2.929616 1_556
Lu3 Rh6 2.929616 1_554
Lu3 Zn1 2.996681 1_555
Lu3 Zn2 2.996681 1_555
Lu3 Zn0 3.038663 1_555
Zn0 Zn2 2.864076 1_555
Zn0 Zn1 2.864076 1_555
Zn1 Zn2 2.864082 1_554
Rh0 Zn0 2.830269 1_455
Rh0 Zn2 2.830269 1_555
Rh1 Zn1 2.830269 1_455
Rh1 Zn2 2.830269 1_565
Rh2 Zn0 2.830269 1_565
Rh2 Zn1 2.830269 1_555
Rh3 Si0 2.293776 1_665
Rh3 Zn2 2.597902 1_554
Rh3 Zn1 2.646117 1_555
Rh4 Si0 2.293777 1_555
Rh4 Zn0 2.597901 1_555
Rh4 Zn2 2.646111 1_555
Rh5 Si0 2.293777 1_655
Rh5 Zn1 2.597896 1_555
Rh5 Zn0 2.646111 1_555
Rh6 Si0 2.293776 1_556
Rh6 Zn1 2.597902 1_556
Rh6 Zn2 2.646117 1_555
Rh7 Si0 2.293777 1_656
Rh7 Zn2 2.597896 1_555
Rh7 Zn0 2.646111 1_555
Rh8 Si0 2.293777 1_666
Rh8 Zn0 2.597901 1_555
Rh8 Zn1 2.646111 1_555
