# generated using pymatgen
data_RbBe2Cl5
_symmetry_space_group_name_H-M   'P 1'
_cell_length_a   10.52060602
_cell_length_b   10.52060655
_cell_length_c   10.52060648
_cell_angle_alpha   60.00000021
_cell_angle_beta   59.99999855
_cell_angle_gamma   59.99999896
_symmetry_Int_Tables_number   1
_chemical_formula_structural   RbBe2Cl5
_chemical_formula_sum   'Rb4 Be8 Cl20'
_cell_volume   823.39325925
_cell_formula_units_Z   4
loop_
 _symmetry_equiv_pos_site_id
 _symmetry_equiv_pos_as_xyz
  1  'x, y, z'
loop_
 _atom_site_type_symbol
 _atom_site_label
 _atom_site_symmetry_multiplicity
 _atom_site_fract_x
 _atom_site_fract_y
 _atom_site_fract_z
 _atom_site_occupancy
  Rb  Rb0  1  0.12500000  0.62500000  0.62500000  1
  Rb  Rb1  1  0.62500000  0.12500000  0.62500000  1
  Rb  Rb2  1  0.62500000  0.62500000  0.12500000  1
  Rb  Rb3  1  0.62500000  0.62500000  0.62500000  1
  Be  Be0  1  0.01051330  0.32982823  0.32982823  1
  Be  Be1  1  0.32982823  0.01051330  0.32982823  1
  Be  Be2  1  0.32982823  0.32982823  0.01051330  1
  Be  Be3  1  0.32982823  0.32982823  0.32982823  1
  Be  Be4  1  0.23948670  0.92017177  0.92017177  1
  Be  Be5  1  0.92017177  0.23948670  0.92017177  1
  Be  Be6  1  0.92017177  0.92017177  0.23948670  1
  Be  Be7  1  0.92017177  0.92017177  0.92017177  1
  Cl  Cl0  1  0.09084489  0.09084489  0.40915511  1
  Cl  Cl1  1  0.40915511  0.40915511  0.09084489  1
  Cl  Cl2  1  0.09084489  0.40915511  0.09084489  1
  Cl  Cl3  1  0.40915511  0.09084489  0.40915511  1
  Cl  Cl4  1  0.40915511  0.09084489  0.09084489  1
  Cl  Cl5  1  0.09084489  0.40915511  0.40915511  1
  Cl  Cl6  1  0.15915511  0.15915511  0.84084489  1
  Cl  Cl7  1  0.84084489  0.84084489  0.15915511  1
  Cl  Cl8  1  0.15915511  0.84084489  0.15915511  1
  Cl  Cl9  1  0.84084489  0.15915511  0.84084489  1
  Cl  Cl10  1  0.84084489  0.15915511  0.15915511  1
  Cl  Cl11  1  0.15915511  0.84084489  0.84084489  1
  Cl  Cl12  1  0.78084911  0.40638296  0.40638296  1
  Cl  Cl13  1  0.40638296  0.78084911  0.40638296  1
  Cl  Cl14  1  0.40638296  0.40638296  0.78084911  1
  Cl  Cl15  1  0.40638296  0.40638296  0.40638296  1
  Cl  Cl16  1  0.46915089  0.84361704  0.84361704  1
  Cl  Cl17  1  0.84361704  0.46915089  0.84361704  1
  Cl  Cl18  1  0.84361704  0.84361704  0.46915089  1
  Cl  Cl19  1  0.84361704  0.84361704  0.84361704  1
loop_
_geom_bond_atom_site_label_1
_geom_bond_atom_site_label_2
_geom_bond_distance
_geom_bond_site_symmetry_2
Be0 Cl12 1.972824 1_455
Be0 Cl2 2.052885 1_555
Be0 Cl0 2.052885 1_555
Be0 Cl5 2.052903 1_555
Be1 Cl13 1.972824 1_545
Be1 Cl0 2.052885 1_555
Be1 Cl4 2.052885 1_555
Be1 Cl3 2.052903 1_555
Be2 Cl14 1.972824 1_554
Be2 Cl2 2.052885 1_555
Be2 Cl4 2.052885 1_555
Be2 Cl1 2.052903 1_555
Be3 Cl15 1.972824 1_555
Be3 Cl5 2.052885 1_555
Be3 Cl1 2.052885 1_555
Be3 Cl3 2.052885 1_555
Be4 Cl16 1.972824 1_555
Be4 Cl8 2.052885 1_556
Be4 Cl6 2.052885 1_565
Be4 Cl11 2.052903 1_555
Be5 Cl17 1.972824 1_555
Be5 Cl6 2.052885 1_655
Be5 Cl10 2.052885 1_556
Be5 Cl9 2.052903 1_555
Be6 Cl18 1.972824 1_555
Be6 Cl8 2.052885 1_655
Be6 Cl10 2.052885 1_565
Be6 Cl7 2.052903 1_555
Be7 Cl19 1.972824 1_555
Be7 Cl11 2.052885 1_655
Be7 Cl7 2.052885 1_556
Be7 Cl9 2.052885 1_565
Cl12 Rb1 3.319008 1_555
Cl12 Rb2 3.319008 1_555
Cl12 Rb3 3.319024 1_555
Cl13 Rb0 3.319007 1_555
Cl13 Rb2 3.319008 1_555
Cl13 Rb3 3.319024 1_555
Cl14 Rb0 3.319007 1_555
Cl14 Rb1 3.319008 1_555
Cl14 Rb3 3.319024 1_555
Cl15 Rb0 3.319020 1_555
Cl15 Rb2 3.319020 1_555
Cl15 Rb1 3.319020 1_555
Cl16 Rb1 3.319008 1_565
Cl16 Rb2 3.319008 1_556
Cl16 Rb3 3.319024 1_555
Cl17 Rb0 3.319007 1_655
Cl17 Rb2 3.319008 1_556
Cl17 Rb3 3.319024 1_555
Cl18 Rb0 3.319007 1_655
Cl18 Rb1 3.319008 1_565
Cl18 Rb3 3.319024 1_555
Cl19 Rb0 3.319020 1_655
Cl19 Rb2 3.319020 1_556
Cl19 Rb1 3.319020 1_565
