# generated using pymatgen
data_ZrCdTeO6
_symmetry_space_group_name_H-M   'P 1'
_cell_length_a   4.99288782
_cell_length_b   4.99288782
_cell_length_c   9.31924967
_cell_angle_alpha   90.00000000
_cell_angle_beta   90.00000000
_cell_angle_gamma   90.00000000
_symmetry_Int_Tables_number   1
_chemical_formula_structural   ZrCdTeO6
_chemical_formula_sum   'Zr2 Cd2 Te2 O12'
_cell_volume   232.31891125
_cell_formula_units_Z   2
loop_
 _symmetry_equiv_pos_site_id
 _symmetry_equiv_pos_as_xyz
  1  'x, y, z'
loop_
 _atom_site_type_symbol
 _atom_site_label
 _atom_site_symmetry_multiplicity
 _atom_site_fract_x
 _atom_site_fract_y
 _atom_site_fract_z
 _atom_site_occupancy
  Zr  Zr0  1  0.50000000  0.00000000  0.11285860  1
  Zr  Zr1  1  0.00000000  0.50000000  0.88714140  1
  Cd  Cd0  1  0.00000000  0.00000000  0.50000000  1
  Cd  Cd1  1  0.50000000  0.50000000  0.50000000  1
  Te  Te0  1  0.50000000  0.00000000  0.76538643  1
  Te  Te1  1  0.00000000  0.50000000  0.23461357  1
  O  O0  1  0.81480331  0.31480331  0.07867900  1
  O  O1  1  0.18519669  0.68519669  0.07867900  1
  O  O2  1  0.19627914  0.69627914  0.37175758  1
  O  O3  1  0.80372086  0.30372086  0.37175758  1
  O  O4  1  0.77090521  0.27090521  0.76347857  1
  O  O5  1  0.22909479  0.72909479  0.76347857  1
  O  O6  1  0.69627914  0.80372086  0.62824242  1
  O  O7  1  0.27090521  0.22909479  0.23652143  1
  O  O8  1  0.30372086  0.19627914  0.62824242  1
  O  O9  1  0.68519669  0.81480331  0.92132100  1
  O  O10  1  0.31480331  0.18519669  0.92132100  1
  O  O11  1  0.72909479  0.77090521  0.23652143  1
loop_
_geom_bond_atom_site_label_1
_geom_bond_atom_site_label_2
_geom_bond_distance
_geom_bond_site_symmetry_2
Cd0 O8 2.165253 1_555
Cd0 O6 2.165253 1_445
Cd0 O3 2.165253 1_455
Cd0 O2 2.165253 1_545
Cd1 O6 2.165253 1_555
Cd1 O8 2.165253 1_555
Cd1 O3 2.165253 1_555
Cd1 O2 2.165253 1_555
O0 Te1 1.954939 1_655
O0 Zr1 2.212734 1_654
O0 Zr0 2.245536 1_555
O1 Te1 1.954939 1_555
O1 Zr1 2.212734 1_554
O1 Zr0 2.245536 1_565
O2 Te1 1.885281 1_555
O3 Te1 1.885281 1_655
O4 Te0 1.912947 1_555
O4 Zr1 1.986175 1_655
O5 Te0 1.912947 1_565
O5 Zr1 1.986175 1_555
O6 Te0 1.885281 1_565
O7 Te1 1.912947 1_555
O7 Zr0 1.986175 1_555
O8 Te0 1.885281 1_555
O9 Te0 1.954939 1_565
O9 Zr0 2.212734 1_566
O9 Zr1 2.245536 1_655
O10 Te0 1.954939 1_555
O10 Zr0 2.212734 1_556
O10 Zr1 2.245536 1_555
O11 Te1 1.912947 1_655
O11 Zr0 1.986175 1_565
