# generated using pymatgen
data_CdSnAs2
_symmetry_space_group_name_H-M   'P 1'
_cell_length_a   6.14608989
_cell_length_b   6.14609040
_cell_length_c   7.42574027
_cell_angle_alpha   114.44607837
_cell_angle_beta   114.44607942
_cell_angle_gamma   89.99999970
_symmetry_Int_Tables_number   1
_chemical_formula_structural   CdSnAs2
_chemical_formula_sum   'Cd2 Sn2 As4'
_cell_volume   227.44602229
_cell_formula_units_Z   2
loop_
 _symmetry_equiv_pos_site_id
 _symmetry_equiv_pos_as_xyz
  1  'x, y, z'
loop_
 _atom_site_type_symbol
 _atom_site_label
 _atom_site_symmetry_multiplicity
 _atom_site_fract_x
 _atom_site_fract_y
 _atom_site_fract_z
 _atom_site_occupancy
  Cd  Cd0  1  0.25000000  0.75000000  0.50000000  1
  Cd  Cd1  1  -0.00000000  0.00000000  0.00000000  1
  Sn  Sn0  1  0.50000000  0.50000000  0.00000000  1
  Sn  Sn1  1  0.75000000  0.25000000  0.50000000  1
  As  As0  1  0.87035859  0.87500000  0.25000000  1
  As  As1  1  0.62500000  0.12964141  0.75000000  1
  As  As2  1  0.37964141  0.37500000  0.25000000  1
  As  As3  1  0.12500000  0.62035859  0.75000000  1
loop_
_geom_bond_atom_site_label_1
_geom_bond_atom_site_label_2
_geom_bond_distance
_geom_bond_site_symmetry_2
As0 Sn1 2.626948 1_565
As0 Sn0 2.626948 1_555
As0 Cd1 2.660109 1_665
As0 Cd0 2.660109 1_655
As1 Sn1 2.626947 1_555
As1 Sn0 2.626948 1_556
As1 Cd1 2.660109 1_656
As1 Cd0 2.660110 1_545
As2 Sn0 2.626947 1_555
As2 Sn1 2.626948 1_555
As2 Cd0 2.660109 1_555
As2 Cd1 2.660110 1_555
As3 Sn0 2.626948 1_556
As3 Sn1 2.626948 1_455
As3 Cd0 2.660109 1_555
As3 Cd1 2.660109 1_566
