# generated using pymatgen
data_Hf4Si3Ge3Ir7
_symmetry_space_group_name_H-M   'P 1'
_cell_length_a   7.00750769
_cell_length_b   7.00750779
_cell_length_c   7.00750674
_cell_angle_alpha   109.41906543
_cell_angle_beta   109.41906442
_cell_angle_gamma   109.41907784
_symmetry_Int_Tables_number   1
_chemical_formula_structural   Hf4Si3Ge3Ir7
_chemical_formula_sum   'Hf4 Si3 Ge3 Ir7'
_cell_volume   265.40221347
_cell_formula_units_Z   1
loop_
 _symmetry_equiv_pos_site_id
 _symmetry_equiv_pos_as_xyz
  1  'x, y, z'
loop_
 _atom_site_type_symbol
 _atom_site_label
 _atom_site_symmetry_multiplicity
 _atom_site_fract_x
 _atom_site_fract_y
 _atom_site_fract_z
 _atom_site_occupancy
  Hf  Hf0  1  0.53861620  0.53861620  0.53861620  1
  Hf  Hf1  1  0.99775310  0.99775310  0.51459370  1
  Hf  Hf2  1  0.99775310  0.51459370  0.99775310  1
  Hf  Hf3  1  0.51459370  0.99775310  0.99775310  1
  Si  Si0  1  0.00583197  0.67527409  0.67527409  1
  Si  Si1  1  0.67527409  0.00583197  0.67527409  1
  Si  Si2  1  0.67527409  0.67527409  0.00583197  1
  Ge  Ge0  1  0.00691257  0.30895651  0.30895651  1
  Ge  Ge1  1  0.30895651  0.00691257  0.30895651  1
  Ge  Ge2  1  0.30895651  0.30895651  0.00691257  1
  Ir  Ir0  1  0.50195371  0.75162207  0.25157094  1
  Ir  Ir1  1  0.25157094  0.50195371  0.75162207  1
  Ir  Ir2  1  0.75162207  0.25157094  0.50195371  1
  Ir  Ir3  1  0.75162207  0.50195371  0.25157094  1
  Ir  Ir4  1  0.50195371  0.25157094  0.75162207  1
  Ir  Ir5  1  0.25157094  0.75162207  0.50195371  1
  Ir  Ir6  1  0.95978571  0.95978571  0.95978571  1
loop_
_geom_bond_atom_site_label_1
_geom_bond_atom_site_label_2
_geom_bond_distance
_geom_bond_site_symmetry_2
Hf0 Si2 2.788166 1_556
Hf0 Si0 2.788167 1_655
Hf0 Si1 2.788167 1_565
Hf0 Ir3 2.871900 1_555
Hf0 Ir1 2.871900 1_555
Hf0 Ir0 2.871900 1_555
Hf0 Ir4 2.871900 1_555
Hf0 Ir5 2.871901 1_555
Hf0 Ir2 2.871901 1_555
Hf0 Ir6 2.958938 1_555
Hf1 Ir0 2.843634 1_555
Hf1 Ir3 2.843634 1_555
Hf1 Si1 2.848191 1_565
Hf1 Si0 2.848191 1_655
Hf1 Ir5 2.861685 1_655
Hf1 Ir2 2.861685 1_565
Hf1 Ir4 2.891430 1_665
Hf1 Ir1 2.891430 1_665
Hf1 Si2 2.968768 1_555
Hf2 Ir2 2.843634 1_555
Hf2 Ir4 2.843634 1_555
Hf2 Si0 2.848191 1_655
Hf2 Si2 2.848192 1_556
Hf2 Ir3 2.861684 1_556
Hf2 Ir1 2.861684 1_655
Hf2 Ir5 2.891429 1_656
Hf2 Ir0 2.891430 1_656
Hf2 Si1 2.968769 1_555
Hf3 Ir5 2.843634 1_555
Hf3 Ir1 2.843634 1_555
Hf3 Si1 2.848191 1_565
Hf3 Si2 2.848192 1_556
Hf3 Ir0 2.861684 1_556
Hf3 Ir4 2.861685 1_565
Hf3 Ir2 2.891429 1_566
Hf3 Ir3 2.891430 1_566
Hf3 Si0 2.968769 1_555
Ge0 Ir1 2.554007 1_555
Ge0 Ir5 2.554008 1_555
Ge0 Ir2 2.585187 1_455
Ge0 Ir3 2.585187 1_455
Ge0 Ir6 2.650901 1_444
Ge0 Hf3 2.871526 1_444
Ge0 Hf2 2.982340 1_454
Ge0 Hf1 2.982340 1_445
Ge0 Hf0 3.060354 1_555
Ge1 Ir4 2.554007 1_555
Ge1 Ir2 2.554008 1_555
Ge1 Ir5 2.585187 1_545
Ge1 Ir0 2.585187 1_545
Ge1 Ir6 2.650901 1_444
Ge1 Hf2 2.871526 1_444
Ge1 Hf3 2.982340 1_544
Ge1 Hf1 2.982340 1_445
Ge1 Hf0 3.060354 1_555
Ge2 Ir3 2.554008 1_555
Ge2 Ir0 2.554008 1_555
Ge2 Ir4 2.585187 1_554
Ge2 Ir1 2.585187 1_554
Ge2 Ir6 2.650900 1_444
Ge2 Hf1 2.871526 1_444
Ge2 Hf2 2.982340 1_454
Ge2 Hf3 2.982340 1_544
Ge2 Hf0 3.060354 1_555
Ir0 Si2 2.436571 1_555
Ir0 Si1 2.471937 1_565
Ir1 Si0 2.436572 1_555
Ir1 Si2 2.471937 1_556
Ir2 Si1 2.436571 1_555
Ir2 Si0 2.471937 1_655
Ir3 Si2 2.436571 1_555
Ir3 Si0 2.471937 1_655
Ir4 Si1 2.436572 1_555
Ir4 Si2 2.471937 1_556
Ir5 Si0 2.436571 1_555
Ir5 Si1 2.471937 1_565
Ir6 Si2 2.503269 1_556
Ir6 Si0 2.503270 1_655
Ir6 Si1 2.503270 1_565
