# generated using pymatgen
data_Sc6GaAs5Ru6
_symmetry_space_group_name_H-M   'P 1'
_cell_length_a   7.69258255
_cell_length_b   7.69592557
_cell_length_c   7.69258309
_cell_angle_alpha   127.98836744
_cell_angle_beta   122.46770853
_cell_angle_gamma   81.22660296
_symmetry_Int_Tables_number   1
_chemical_formula_structural   Sc6GaAs5Ru6
_chemical_formula_sum   'Sc6 Ga1 As5 Ru6'
_cell_volume   291.78705325
_cell_formula_units_Z   1
loop_
 _symmetry_equiv_pos_site_id
 _symmetry_equiv_pos_as_xyz
  1  'x, y, z'
loop_
 _atom_site_type_symbol
 _atom_site_label
 _atom_site_symmetry_multiplicity
 _atom_site_fract_x
 _atom_site_fract_y
 _atom_site_fract_z
 _atom_site_occupancy
  Sc  Sc0  1  0.45358790  0.66176167  0.70817377  1
  Sc  Sc1  1  0.54162017  0.25296047  0.21133930  1
  Sc  Sc2  1  0.74937547  0.84472752  0.59535205  1
  Sc  Sc3  1  0.25023150  0.84556887  0.09533637  1
  Sc  Sc4  1  0.05048256  0.25378477  0.70330321  1
  Sc  Sc5  1  0.95422049  0.66129539  0.20707590  1
  Ga  Ga0  1  0.25449306  0.25473072  0.50023867  1
  As  As0  1  0.74585603  0.25170918  0.00585315  1
  As  As1  1  0.33285266  0.58650766  0.25285930  1
  As  As2  1  0.66679209  0.92013398  0.25355057  1
  As  As3  1  0.16658341  0.92013398  0.75333989  1
  As  As4  1  0.83364936  0.58650766  0.75365500  1
  Ru  Ru0  1  0.50519162  0.49957919  0.00480383  1
  Ru  Ru1  1  0.99477536  0.49957919  0.49438757  1
  Ru  Ru2  1  0.11021014  0.25325769  0.11688148  1
  Ru  Ru3  1  0.87443556  0.00705069  0.12778327  1
  Ru  Ru4  1  0.37926742  0.00705069  0.63261513  1
  Ru  Ru5  1  0.63637620  0.25325769  0.64304955  1
loop_
_geom_bond_atom_site_label_1
_geom_bond_atom_site_label_2
_geom_bond_distance
_geom_bond_site_symmetry_2
Ga0 Ru4 2.524576 1_555
Ga0 Ru3 2.524582 1_455
Ga0 Ru5 2.525296 1_555
Ga0 Ru2 2.525305 1_555
Ga0 Ru0 2.530562 1_556
Ga0 Ru1 2.530567 1_455
Ga0 Sc0 2.716967 1_555
Ga0 Sc3 2.732469 1_545
Ga0 Sc4 2.748204 1_555
As0 Ru0 2.447851 1_555
As0 Ru1 2.447852 1_555
As0 Ru5 2.452111 1_554
As0 Ru2 2.452126 1_655
As0 Ru3 2.452171 1_555
As0 Ru4 2.452171 1_554
As0 Sc1 2.758649 1_555
As0 Sc2 2.770045 1_544
As0 Sc5 2.787880 1_555
As1 Ru2 2.592121 1_555
As1 Ru0 2.592362 1_555
As1 Ru4 2.594243 1_565
As1 Sc1 2.748502 1_555
As1 Sc5 2.752393 1_455
As1 Sc2 2.755131 1_555
As1 Sc3 2.758218 1_555
As1 Sc0 2.764094 1_555
As1 Sc4 2.767456 1_554
As2 Ru3 2.591642 1_565
As2 Ru5 2.592024 1_565
As2 Ru0 2.594574 1_555
As2 Sc1 2.743940 1_565
As2 Sc0 2.753699 1_554
As2 Sc3 2.755515 1_555
As2 Sc5 2.759191 1_555
As2 Sc2 2.761568 1_555
As2 Sc4 2.772587 1_665
As3 Ru4 2.591629 1_565
As3 Ru2 2.592023 1_566
As3 Ru1 2.594578 1_455
As3 Sc1 2.743937 1_566
As3 Sc0 2.753697 1_555
As3 Sc3 2.755525 1_556
As3 Sc5 2.759174 1_455
As3 Sc2 2.761573 1_455
As3 Sc4 2.772573 1_565
As4 Ru5 2.592134 1_555
As4 Ru1 2.592355 1_555
As4 Ru3 2.594245 1_566
As4 Sc1 2.748509 1_555
As4 Sc5 2.752400 1_556
As4 Sc2 2.755130 1_555
As4 Sc3 2.758207 1_656
As4 Sc0 2.764101 1_555
As4 Sc4 2.767457 1_655
Ru0 Sc2 2.954212 1_555
Ru0 Sc3 3.002064 1_555
Ru0 Sc5 3.009731 1_555
Ru0 Sc4 3.016648 1_554
Ru0 Sc1 3.045786 1_555
Ru0 Sc0 3.050346 1_554
Ru1 Sc2 2.954211 1_555
Ru1 Sc3 3.002059 1_656
Ru1 Sc5 3.009726 1_555
Ru1 Sc4 3.016653 1_655
Ru1 Sc1 3.045791 1_555
Ru1 Sc0 3.050346 1_655
Ru2 Sc4 2.962915 1_554
Ru2 Sc5 2.973996 1_455
Ru2 Sc2 2.977210 1_444
Ru2 Sc1 2.992021 1_555
Ru2 Sc3 3.090702 1_545
Ru2 Sc0 3.095270 1_555
Ru3 Sc0 2.967685 1_544
Ru3 Sc5 2.987814 1_545
Ru3 Sc4 3.006446 1_655
Ru3 Sc2 3.016468 1_544
Ru3 Sc3 3.043125 1_645
Ru3 Sc1 3.056258 1_555
Ru4 Sc0 2.967685 1_545
Ru4 Sc5 2.987810 1_445
Ru4 Sc4 3.006440 1_555
Ru4 Sc2 3.016468 1_545
Ru4 Sc3 3.043130 1_545
Ru4 Sc1 3.056254 1_556
Ru5 Sc4 2.962926 1_655
Ru5 Sc5 2.973995 1_556
Ru5 Sc2 2.977203 1_545
Ru5 Sc1 2.992041 1_555
Ru5 Sc3 3.090711 1_545
Ru5 Sc0 3.095273 1_555
