# generated using pymatgen
data_Y7FeBr12
_symmetry_space_group_name_H-M   'P 1'
_cell_length_a   9.12870255
_cell_length_b   9.12870252
_cell_length_c   9.12870287
_cell_angle_alpha   106.91413575
_cell_angle_beta   106.91414602
_cell_angle_gamma   106.91413728
_symmetry_Int_Tables_number   1
_chemical_formula_structural   Y7FeBr12
_chemical_formula_sum   'Y7 Fe1 Br12'
_cell_volume   635.01633504
_cell_formula_units_Z   1
loop_
 _symmetry_equiv_pos_site_id
 _symmetry_equiv_pos_as_xyz
  1  'x, y, z'
loop_
 _atom_site_type_symbol
 _atom_site_label
 _atom_site_symmetry_multiplicity
 _atom_site_fract_x
 _atom_site_fract_y
 _atom_site_fract_z
 _atom_site_occupancy
  Y  Y0  1  0.00000000  0.00000000  0.00000000  1
  Y  Y1  1  0.59715906  0.51949949  0.80300770  1
  Y  Y2  1  0.51949949  0.80300770  0.59715906  1
  Y  Y3  1  0.80300770  0.59715906  0.51949949  1
  Y  Y4  1  0.40284094  0.48050051  0.19699230  1
  Y  Y5  1  0.48050051  0.19699230  0.40284094  1
  Y  Y6  1  0.19699230  0.40284094  0.48050051  1
  Fe  Fe0  1  0.50000000  0.50000000  0.50000000  1
  Br  Br0  1  0.57054309  0.17535154  0.72376979  1
  Br  Br1  1  0.17535154  0.72376979  0.57054309  1
  Br  Br2  1  0.72376979  0.57054309  0.17535154  1
  Br  Br3  1  0.42945691  0.82464846  0.27623021  1
  Br  Br4  1  0.82464846  0.27623021  0.42945691  1
  Br  Br5  1  0.27623021  0.42945691  0.82464846  1
  Br  Br6  1  0.66525124  0.88508005  0.96312458  1
  Br  Br7  1  0.88508005  0.96312458  0.66525124  1
  Br  Br8  1  0.96312458  0.66525124  0.88508005  1
  Br  Br9  1  0.33474876  0.11491995  0.03687542  1
  Br  Br10  1  0.11491995  0.03687542  0.33474876  1
  Br  Br11  1  0.03687542  0.33474876  0.11491995  1
loop_
_geom_bond_atom_site_label_1
_geom_bond_atom_site_label_2
_geom_bond_distance
_geom_bond_site_symmetry_2
Fe0 Y1 2.581389 1_555
Fe0 Y4 2.581389 1_555
Fe0 Y3 2.581389 1_555
Fe0 Y6 2.581389 1_555
Fe0 Y2 2.581389 1_555
Fe0 Y5 2.581389 1_555
Br0 Y5 2.885764 1_555
Br0 Y1 2.929735 1_555
Br0 Y2 3.096029 1_545
Br1 Y6 2.885764 1_555
Br1 Y2 2.929735 1_555
Br1 Y3 3.096029 1_455
Br2 Y4 2.885764 1_555
Br2 Y3 2.929735 1_555
Br2 Y1 3.096029 1_554
Br3 Y2 2.885764 1_555
Br3 Y4 2.929735 1_555
Br3 Y5 3.096029 1_565
Br4 Y3 2.885764 1_555
Br4 Y5 2.929735 1_555
Br4 Y6 3.096029 1_655
Br5 Y1 2.885764 1_555
Br5 Y6 2.929735 1_555
Br5 Y4 3.096029 1_556
Br6 Y0 2.807580 1_666
Br6 Y2 2.978186 1_555
Br6 Y1 3.014322 1_555
Br7 Y0 2.807580 1_666
Br7 Y3 2.978186 1_555
Br7 Y2 3.014322 1_555
Br8 Y0 2.807580 1_666
Br8 Y1 2.978186 1_555
Br8 Y3 3.014322 1_555
Br9 Y0 2.807580 1_555
Br9 Y5 2.978186 1_555
Br9 Y4 3.014322 1_555
Br10 Y0 2.807580 1_555
Br10 Y6 2.978186 1_555
Br10 Y5 3.014322 1_555
Br11 Y0 2.807580 1_555
Br11 Y4 2.978186 1_555
Br11 Y6 3.014322 1_555
