# generated using pymatgen
data_NpIO5
_symmetry_space_group_name_H-M   'P 1'
_cell_length_a   5.53386708
_cell_length_b   6.01685892
_cell_length_c   13.84653567
_cell_angle_alpha   90.00000000
_cell_angle_beta   90.00000000
_cell_angle_gamma   90.00000000
_symmetry_Int_Tables_number   1
_chemical_formula_structural   NpIO5
_chemical_formula_sum   'Np4 I4 O20'
_cell_volume   461.04114035
_cell_formula_units_Z   4
loop_
 _symmetry_equiv_pos_site_id
 _symmetry_equiv_pos_as_xyz
  1  'x, y, z'
loop_
 _atom_site_type_symbol
 _atom_site_label
 _atom_site_symmetry_multiplicity
 _atom_site_fract_x
 _atom_site_fract_y
 _atom_site_fract_z
 _atom_site_occupancy
  Np  Np0  1  0.40474510  0.75110185  0.97025936  1
  Np  Np1  1  0.90474510  0.24889815  0.02974064  1
  Np  Np2  1  0.40474510  0.74889815  0.47025936  1
  Np  Np3  1  0.90474510  0.25110185  0.52974064  1
  I  I0  1  0.40172838  0.51098944  0.21760087  1
  I  I1  1  0.90172838  0.48901056  0.78239913  1
  I  I2  1  0.40172838  0.98901056  0.71760087  1
  I  I3  1  0.90172838  0.01098944  0.28239913  1
  O  O0  1  0.60167536  0.99634431  0.98836612  1
  O  O1  1  0.10167536  0.00365569  0.01163388  1
  O  O2  1  0.60167536  0.50365569  0.48836612  1
  O  O3  1  0.10167536  0.49634431  0.51163388  1
  O  O4  1  0.18852877  0.50832321  0.95310609  1
  O  O5  1  0.68852877  0.49167679  0.04689391  1
  O  O6  1  0.18852877  0.99167679  0.45310609  1
  O  O7  1  0.68852877  0.00832321  0.54689391  1
  O  O8  1  0.82208659  0.24154292  0.35922426  1
  O  O9  1  0.32208659  0.75845708  0.64077574  1
  O  O10  1  0.82208659  0.25845708  0.85922426  1
  O  O11  1  0.32208659  0.74154292  0.14077574  1
  O  O12  1  0.73858459  0.10096234  0.17616888  1
  O  O13  1  0.23858459  0.89903766  0.82383112  1
  O  O14  1  0.73858459  0.39903766  0.67616888  1
  O  O15  1  0.23858459  0.60096234  0.32383112  1
  O  O16  1  0.67976220  0.81358926  0.32654383  1
  O  O17  1  0.17976220  0.18641074  0.67345617  1
  O  O18  1  0.67976220  0.68641074  0.82654383  1
  O  O19  1  0.17976220  0.31358926  0.17345617  1
loop_
_geom_bond_atom_site_label_1
_geom_bond_atom_site_label_2
_geom_bond_distance
_geom_bond_site_symmetry_2
Np0 O0 1.851447 1_555
Np0 O4 1.903126 1_555
Np0 O1 2.334557 1_566
Np0 O13 2.397633 1_555
Np0 O11 2.405650 1_556
Np0 O5 2.455339 1_556
Np0 O18 2.535283 1_555
Np1 O1 1.851447 1_655
Np1 O5 1.903126 1_555
Np1 O0 2.334557 1_544
Np1 O12 2.397633 1_555
Np1 O10 2.405650 1_554
Np1 O4 2.455339 1_654
Np1 O19 2.535283 1_655
Np2 O2 1.851447 1_555
Np2 O6 1.903126 1_555
Np2 O3 2.334557 1_555
Np2 O15 2.397633 1_555
Np2 O9 2.405650 1_555
Np2 O7 2.455339 1_565
Np2 O16 2.535283 1_555
Np3 O3 1.851447 1_655
Np3 O7 1.903126 1_555
Np3 O2 2.334557 1_555
Np3 O14 2.397633 1_555
Np3 O8 2.405650 1_555
Np3 O6 2.455339 1_645
Np3 O17 2.535283 1_655
I0 O11 1.802824 1_555
I0 O15 1.808798 1_555
I0 O19 1.814697 1_555
I1 O10 1.802824 1_555
I1 O14 1.808798 1_555
I1 O18 1.814697 1_555
I2 O9 1.802824 1_555
I2 O13 1.808798 1_555
I2 O17 1.814697 1_565
I3 O8 1.802824 1_555
I3 O12 1.808798 1_555
I3 O16 1.814697 1_545
