# generated using pymatgen
data_Hf3ZnP2Ir3
_symmetry_space_group_name_H-M   'P 1'
_cell_length_a   6.30456555
_cell_length_b   6.30456625
_cell_length_c   4.03009838
_cell_angle_alpha   90.00000000
_cell_angle_beta   90.00000000
_cell_angle_gamma   120.00000148
_symmetry_Int_Tables_number   1
_chemical_formula_structural   Hf3ZnP2Ir3
_chemical_formula_sum   'Hf3 Zn1 P2 Ir3'
_cell_volume   138.72561261
_cell_formula_units_Z   1
loop_
 _symmetry_equiv_pos_site_id
 _symmetry_equiv_pos_as_xyz
  1  'x, y, z'
loop_
 _atom_site_type_symbol
 _atom_site_label
 _atom_site_symmetry_multiplicity
 _atom_site_fract_x
 _atom_site_fract_y
 _atom_site_fract_z
 _atom_site_occupancy
  Hf  Hf0  1  1.00000000  0.42672484  0.50000000  1
  Hf  Hf1  1  0.57327516  0.57327516  0.50000000  1
  Hf  Hf2  1  0.42672484  0.00000000  0.50000000  1
  Zn  Zn0  1  0.00000000  0.00000000  0.50000000  1
  P  P0  1  0.66666700  0.33333300  0.00000000  1
  P  P1  1  0.33333300  0.66666700  0.00000000  1
  Ir  Ir0  1  0.00000000  0.74522366  0.00000000  1
  Ir  Ir1  1  0.25477634  0.25477634  0.00000000  1
  Ir  Ir2  1  0.74522366  1.00000000  0.00000000  1
loop_
_geom_bond_atom_site_label_1
_geom_bond_atom_site_label_2
_geom_bond_distance
_geom_bond_site_symmetry_2
Hf0 Zn0 2.690315 1_655
Hf0 P0 2.754292 1_556
Hf0 P0 2.754292 1_555
Hf0 P1 2.754293 1_656
Hf0 P1 2.754293 1_655
Hf0 Ir0 2.844728 1_655
Hf0 Ir0 2.844728 1_656
Hf0 Ir1 3.091430 1_655
Hf0 Ir1 3.091430 1_656
Hf0 Ir2 3.091430 1_546
Hf0 Ir2 3.091430 1_545
Hf1 Zn0 2.690315 1_665
Hf1 P1 2.754296 1_556
Hf1 P1 2.754296 1_555
Hf1 P0 2.754296 1_556
Hf1 P0 2.754296 1_555
Hf1 Ir1 2.844727 1_556
Hf1 Ir1 2.844727 1_555
Hf1 Ir0 3.091430 1_656
Hf1 Ir0 3.091430 1_655
Hf1 Ir2 3.091430 1_556
Hf1 Ir2 3.091430 1_555
Hf2 Zn0 2.690315 1_555
Hf2 P1 2.754292 1_545
Hf2 P1 2.754292 1_546
Hf2 P0 2.754293 1_556
Hf2 P0 2.754293 1_555
Hf2 Ir2 2.844727 1_545
Hf2 Ir2 2.844727 1_546
Hf2 Ir0 3.091430 1_546
Hf2 Ir0 3.091430 1_545
Hf2 Ir1 3.091430 1_556
Hf2 Ir1 3.091430 1_555
Ir0 P1 2.387987 1_555
Ir0 P0 2.387992 1_455
Ir0 Zn0 2.576912 1_564
Ir0 Zn0 2.576912 1_565
Ir0 Ir2 2.782114 1_455
Ir0 Ir1 2.782114 1_565
Ir1 P0 2.387994 1_555
Ir1 P1 2.387994 1_555
Ir1 Zn0 2.576912 1_555
Ir1 Zn0 2.576912 1_554
Ir1 Ir2 2.782114 1_445
Ir2 P0 2.387988 1_565
Ir2 P1 2.387991 1_555
Ir2 Zn0 2.576912 1_664
Ir2 Zn0 2.576912 1_665
