# generated using pymatgen
data_Ca8NbInN8
_symmetry_space_group_name_H-M   'P 1'
_cell_length_a   6.07856856
_cell_length_b   6.08943054
_cell_length_c   9.28853704
_cell_angle_alpha   70.21091887
_cell_angle_beta   81.30657278
_cell_angle_gamma   68.87426897
_symmetry_Int_Tables_number   1
_chemical_formula_structural   Ca8NbInN8
_chemical_formula_sum   'Ca8 Nb1 In1 N8'
_cell_volume   301.60265278
_cell_formula_units_Z   1
loop_
 _symmetry_equiv_pos_site_id
 _symmetry_equiv_pos_as_xyz
  1  'x, y, z'
loop_
 _atom_site_type_symbol
 _atom_site_label
 _atom_site_symmetry_multiplicity
 _atom_site_fract_x
 _atom_site_fract_y
 _atom_site_fract_z
 _atom_site_occupancy
  Ca  Ca0  1  0.24857987  0.94163581  0.60277374  1
  Ca  Ca1  1  0.73200973  0.62049304  0.19193021  1
  Ca  Ca2  1  0.75496725  0.24743285  0.99211835  1
  Ca  Ca3  1  0.25801483  0.52862997  0.42446321  1
  Ca  Ca4  1  0.75083267  0.05254474  0.41459415  1
  Ca  Ca5  1  0.26485194  0.38040892  0.80152233  1
  Ca  Ca6  1  0.73111262  0.47833601  0.58251734  1
  Ca  Ca7  1  0.25386106  0.75475534  0.00283568  1
  Nb  Nb0  1  0.28249940  0.15836437  0.23939573  1
  In  In0  1  0.72195616  0.84380450  0.76712425  1
  N  N0  1  0.99346605  0.69027122  0.60359752  1
  N  N1  1  0.49730581  0.19610003  0.61040912  1
  N  N2  1  0.02098492  0.29549039  0.37593747  1
  N  N3  1  0.50139872  0.60555000  0.80135604  1
  N  N4  1  0.16537465  0.14272150  0.05939956  1
  N  N5  1  0.48309488  0.83114945  0.37171806  1
  N  N6  1  0.48199092  0.37430927  0.19706473  1
  N  N7  1  0.85769551  0.85800259  0.96124149  1
loop_
_geom_bond_atom_site_label_1
_geom_bond_atom_site_label_2
_geom_bond_distance
_geom_bond_site_symmetry_2
Ca0 N3 2.446661 1_555
Ca0 N0 2.539141 1_455
Ca0 N5 2.540144 1_555
Ca0 N1 2.547057 1_565
Ca0 N2 2.579637 1_565
Ca1 N7 2.338817 1_554
Ca1 N5 2.451785 1_555
Ca1 N2 2.456576 1_655
Ca1 N6 2.476134 1_555
Ca2 N7 2.331251 1_545
Ca2 N3 2.461145 1_555
Ca2 N4 2.464843 1_656
Ca2 N6 2.467999 1_556
Ca3 N1 2.338229 1_555
Ca3 N0 2.341470 1_455
Ca3 N2 2.529553 1_555
Ca3 N5 2.551182 1_555
Ca3 N6 2.598173 1_555
Ca4 N1 2.388609 1_555
Ca4 N0 2.436981 1_545
Ca4 N2 2.495480 1_655
Ca4 N6 2.569354 1_555
Ca4 N5 2.601129 1_545
Ca5 N3 2.316443 1_555
Ca5 N1 2.419720 1_555
Ca5 N0 2.446565 1_455
Ca5 N4 2.458362 1_556
Ca6 N0 2.448697 1_555
Ca6 N3 2.471877 1_555
Ca6 N1 2.527573 1_555
Ca6 N5 2.536064 1_555
Ca6 N2 2.652676 1_655
Ca7 N7 2.317111 1_454
Ca7 N3 2.430335 1_554
Ca7 N4 2.446587 1_565
Ca7 N6 2.480992 1_555
In0 N7 2.132139 1_555
In0 N1 2.227245 1_565
In0 N3 2.228068 1_555
In0 N0 2.235294 1_555
N2 Nb0 1.995879 1_555
N4 Nb0 1.956463 1_555
N5 Nb0 2.002780 1_565
N6 Nb0 2.002354 1_555
