# generated using pymatgen
data_Cs2NbCoS4
_symmetry_space_group_name_H-M   'P 1'
_cell_length_a   14.40837742
_cell_length_b   12.87132808
_cell_length_c   7.60821239
_cell_angle_alpha   85.32743260
_cell_angle_beta   62.91772211
_cell_angle_gamma   31.75485510
_symmetry_Int_Tables_number   1
_chemical_formula_structural   Cs2NbCoS4
_chemical_formula_sum   'Cs4 Nb2 Co2 S8'
_cell_volume   501.12883204
_cell_formula_units_Z   2
loop_
 _symmetry_equiv_pos_site_id
 _symmetry_equiv_pos_as_xyz
  1  'x, y, z'
loop_
 _atom_site_type_symbol
 _atom_site_label
 _atom_site_symmetry_multiplicity
 _atom_site_fract_x
 _atom_site_fract_y
 _atom_site_fract_z
 _atom_site_occupancy
  Cs  Cs0  1  0.57388431  0.57388431  0.92611569  1
  Cs  Cs1  1  0.92611569  0.92611569  0.57388431  1
  Cs  Cs2  1  0.67611569  0.67611569  0.32388431  1
  Cs  Cs3  1  0.32388431  0.32388431  0.67611569  1
  Nb  Nb0  1  0.50000000  0.50000000  0.50000000  1
  Nb  Nb1  1  0.75000000  0.75000000  0.75000000  1
  Co  Co0  1  0.25000000  0.25000000  0.25000000  1
  Co  Co1  1  0.00000000  0.00000000  0.00000000  1
  S  S0  1  0.20380408  0.89733431  0.61499908  1
  S  S1  1  0.28386253  0.61499908  0.89733431  1
  S  S2  1  0.61499908  0.28386253  0.20380408  1
  S  S3  1  0.89733431  0.20380408  0.28386253  1
  S  S4  1  0.63500092  0.96613747  0.04619592  1
  S  S5  1  0.35266569  0.04619592  0.96613747  1
  S  S6  1  0.96613747  0.63500092  0.35266569  1
  S  S7  1  0.04619592  0.35266569  0.63500092  1
loop_
_geom_bond_atom_site_label_1
_geom_bond_atom_site_label_2
_geom_bond_distance
_geom_bond_site_symmetry_2
Cs0 S0 3.632773 1_645
Cs0 S3 3.632773 1_466
Cs0 S3 3.686541 1_555
Cs0 S0 3.686541 1_556
Cs0 S5 3.697937 1_565
Cs0 S7 3.697938 1_655
Cs0 S2 3.852721 1_556
Cs0 S1 3.852721 1_555
Cs1 S2 3.632773 1_566
Cs1 S1 3.632773 1_654
Cs1 S1 3.686542 1_565
Cs1 S2 3.686542 1_655
Cs1 S6 3.697937 1_555
Cs1 S4 3.697938 1_556
Cs1 S3 3.852721 1_565
Cs1 S0 3.852721 1_655
Cs2 S7 3.632773 1_565
Cs2 S5 3.632773 1_654
Cs2 S5 3.686541 1_565
Cs2 S7 3.686541 1_654
Cs2 S3 3.697937 1_555
Cs2 S0 3.697938 1_555
Cs2 S4 3.852721 1_555
Cs2 S6 3.852721 1_555
Cs3 S4 3.632773 1_545
Cs3 S6 3.632773 1_456
Cs3 S6 3.686542 1_545
Cs3 S4 3.686542 1_456
Cs3 S1 3.697937 1_555
Cs3 S2 3.697938 1_555
Cs3 S5 3.852721 1_555
Cs3 S7 3.852721 1_555
Nb0 S2 2.312047 1_555
Nb0 S0 2.312047 1_555
Nb0 S1 2.312047 1_555
Nb0 S3 2.312047 1_555
Nb1 S4 2.312047 1_556
Nb1 S7 2.312047 1_655
Nb1 S6 2.312047 1_555
Nb1 S5 2.312047 1_565
Co0 S5 2.269093 1_554
Co0 S6 2.269093 1_455
Co0 S7 2.269094 1_555
Co0 S4 2.269094 1_545
Co1 S3 2.269093 1_455
Co1 S1 2.269093 1_544
Co1 S0 2.269094 1_544
Co1 S2 2.269094 1_455
