# generated using pymatgen
data_LiHf6TiH16
_symmetry_space_group_name_H-M   'P 1'
_cell_length_a   6.55162279
_cell_length_b   6.55162239
_cell_length_c   6.55162318
_cell_angle_alpha   60.00000096
_cell_angle_beta   60.00000302
_cell_angle_gamma   59.99999995
_symmetry_Int_Tables_number   1
_chemical_formula_structural   LiHf6TiH16
_chemical_formula_sum   'Li1 Hf6 Ti1 H16'
_cell_volume   198.85278099
_cell_formula_units_Z   1
loop_
 _symmetry_equiv_pos_site_id
 _symmetry_equiv_pos_as_xyz
  1  'x, y, z'
loop_
 _atom_site_type_symbol
 _atom_site_label
 _atom_site_symmetry_multiplicity
 _atom_site_fract_x
 _atom_site_fract_y
 _atom_site_fract_z
 _atom_site_occupancy
  Li  Li0  1  0.00000000  0.00000000  0.00000000  1
  Hf  Hf0  1  0.00000000  0.00000000  0.50000000  1
  Hf  Hf1  1  0.50000000  0.00000000  0.50000000  1
  Hf  Hf2  1  0.00000000  0.50000000  0.50000000  1
  Hf  Hf3  1  0.50000000  0.50000000  0.00000000  1
  Hf  Hf4  1  0.00000000  0.50000000  0.00000000  1
  Hf  Hf5  1  0.50000000  0.00000000  0.00000000  1
  Ti  Ti0  1  0.50000000  0.50000000  0.50000000  1
  H  H0  1  0.87660479  0.87660479  0.37018662  1
  H  H1  1  0.87660479  0.37018662  0.87660479  1
  H  H2  1  0.37018662  0.87660479  0.87660479  1
  H  H3  1  0.87660479  0.87660479  0.87660479  1
  H  H4  1  0.12339521  0.12339521  0.62981338  1
  H  H5  1  0.12339521  0.62981338  0.12339521  1
  H  H6  1  0.62981338  0.12339521  0.12339521  1
  H  H7  1  0.12339521  0.12339521  0.12339521  1
  H  H8  1  0.62171490  0.62171490  0.13485629  1
  H  H9  1  0.62171490  0.13485629  0.62171490  1
  H  H10  1  0.13485629  0.62171490  0.62171490  1
  H  H11  1  0.62171490  0.62171490  0.62171490  1
  H  H12  1  0.37828510  0.37828510  0.86514371  1
  H  H13  1  0.37828510  0.86514371  0.37828510  1
  H  H14  1  0.86514371  0.37828510  0.37828510  1
  H  H15  1  0.37828510  0.37828510  0.37828510  1
loop_
_geom_bond_atom_site_label_1
_geom_bond_atom_site_label_2
_geom_bond_distance
_geom_bond_site_symmetry_2
H0 Li0 1.980268 1_665
H0 Hf0 2.014742 1_665
H0 Hf2 2.014747 1_655
H0 Hf1 2.014748 1_565
H1 Li0 1.980268 1_656
H1 Hf4 2.014742 1_656
H1 Hf3 2.014748 1_556
H1 Hf2 2.014748 1_655
H2 Li0 1.980268 1_566
H2 Hf5 2.014742 1_566
H2 Hf3 2.014747 1_556
H2 Hf1 2.014748 1_565
H3 Li0 1.980263 1_666
H3 Hf4 2.014747 1_656
H3 Hf5 2.014748 1_566
H3 Hf0 2.014748 1_665
H4 Li0 1.980268 1_556
H4 Hf0 2.014742 1_555
H4 Hf2 2.014747 1_555
H4 Hf1 2.014748 1_555
H5 Li0 1.980268 1_565
H5 Hf4 2.014742 1_555
H5 Hf3 2.014748 1_555
H5 Hf2 2.014748 1_555
H6 Li0 1.980268 1_655
H6 Hf5 2.014742 1_555
H6 Hf3 2.014747 1_555
H6 Hf1 2.014748 1_555
H7 Li0 1.980263 1_555
H7 Hf4 2.014747 1_555
H7 Hf5 2.014748 1_555
H7 Hf0 2.014748 1_555
H8 Ti0 1.953292 1_555
H8 Hf5 2.024200 1_565
H8 Hf4 2.024200 1_655
H8 Hf3 2.024206 1_555
H9 Ti0 1.953291 1_555
H9 Hf0 2.024200 1_655
H9 Hf5 2.024200 1_556
H9 Hf1 2.024206 1_555
H10 Ti0 1.953292 1_555
H10 Hf0 2.024200 1_565
H10 Hf4 2.024200 1_556
H10 Hf2 2.024206 1_555
H11 Ti0 1.953297 1_555
H11 Hf1 2.024200 1_565
H11 Hf2 2.024200 1_655
H11 Hf3 2.024200 1_556
H12 Ti0 1.953292 1_555
H12 Hf5 2.024200 1_556
H12 Hf4 2.024200 1_556
H12 Hf3 2.024206 1_556
H13 Ti0 1.953291 1_555
H13 Hf0 2.024200 1_565
H13 Hf5 2.024200 1_565
H13 Hf1 2.024206 1_565
H14 Ti0 1.953292 1_555
H14 Hf0 2.024200 1_655
H14 Hf4 2.024200 1_655
H14 Hf2 2.024206 1_655
H15 Ti0 1.953297 1_555
H15 Hf1 2.024200 1_555
H15 Hf2 2.024200 1_555
H15 Hf3 2.024200 1_555
