# generated using pymatgen
data_GeIrRhSe5
_symmetry_space_group_name_H-M   'P 1'
_cell_length_a   3.69845962
_cell_length_b   7.70311020
_cell_length_c   12.90685316
_cell_angle_alpha   77.36749430
_cell_angle_beta   90.00000000
_cell_angle_gamma   90.00000000
_symmetry_Int_Tables_number   1
_chemical_formula_structural   GeIrRhSe5
_chemical_formula_sum   'Ge2 Ir2 Rh2 Se10'
_cell_volume   358.81037409
_cell_formula_units_Z   2
loop_
 _symmetry_equiv_pos_site_id
 _symmetry_equiv_pos_as_xyz
  1  'x, y, z'
loop_
 _atom_site_type_symbol
 _atom_site_label
 _atom_site_symmetry_multiplicity
 _atom_site_fract_x
 _atom_site_fract_y
 _atom_site_fract_z
 _atom_site_occupancy
  Ge  Ge0  1  0.50000000  0.16286127  0.68006151  1
  Ge  Ge1  1  0.50000000  0.83713873  0.31993849  1
  Ir  Ir0  1  0.50000000  0.74540707  0.14895712  1
  Ir  Ir1  1  0.50000000  0.25459293  0.85104288  1
  Rh  Rh0  1  0.00000000  0.24999505  0.15006376  1
  Rh  Rh1  1  0.00000000  0.75000495  0.84993624  1
  Se  Se0  1  0.00000000  0.95484625  0.10166156  1
  Se  Se1  1  0.00000000  0.04515375  0.89833844  1
  Se  Se2  1  0.00000000  0.46997298  0.77831851  1
  Se  Se3  1  0.00000000  0.53002702  0.22168149  1
  Se  Se4  1  0.50000000  0.66213559  0.97474342  1
  Se  Se5  1  0.50000000  0.33786441  0.02525658  1
  Se  Se6  1  0.50000000  0.16450986  0.28332353  1
  Se  Se7  1  0.50000000  0.83549014  0.71667647  1
  Se  Se8  1  0.00000000  0.23469835  0.56062939  1
  Se  Se9  1  0.00000000  0.76530165  0.43937061  1
loop_
_geom_bond_atom_site_label_1
_geom_bond_atom_site_label_2
_geom_bond_distance
_geom_bond_site_symmetry_2
Ge0 Se8 2.393526 1_555
Ge0 Se8 2.393526 1_655
Ge0 Ir1 2.459976 1_555
Ge0 Se7 2.461996 1_545
Ge1 Se9 2.393526 1_555
Ge1 Se9 2.393526 1_655
Ge1 Ir0 2.459976 1_555
Ge1 Se6 2.461996 1_565
Ir0 Se0 2.442205 1_655
Ir0 Se0 2.442205 1_555
Ir0 Se4 2.469474 1_554
Ir0 Se3 2.524312 1_655
Ir0 Se3 2.524312 1_555
Ir1 Se1 2.442205 1_555
Ir1 Se1 2.442205 1_655
Ir1 Se5 2.469474 1_556
Ir1 Se2 2.524312 1_555
Ir1 Se2 2.524312 1_655
Rh0 Se5 2.448629 1_555
Rh0 Se5 2.448629 1_455
Rh0 Se0 2.486084 1_545
Rh0 Se6 2.513197 1_555
Rh0 Se6 2.513197 1_455
Rh0 Se3 2.525814 1_555
Rh1 Se4 2.448629 1_555
Rh1 Se4 2.448629 1_455
Rh1 Se1 2.486084 1_565
Rh1 Se7 2.513197 1_555
Rh1 Se7 2.513197 1_455
Rh1 Se2 2.525814 1_555
Se0 Se1 2.563627 1_564
Se4 Se5 2.439720 1_556
