# generated using pymatgen
data_Cs2Cd2(SiO3)3
_symmetry_space_group_name_H-M   'P 1'
_cell_length_a   7.40358576
_cell_length_b   6.61763280
_cell_length_c   12.21499627
_cell_angle_alpha   59.74392517
_cell_angle_beta   90.00000000
_cell_angle_gamma   90.00000000
_symmetry_Int_Tables_number   1
_chemical_formula_structural   Cs2Cd2(SiO3)3
_chemical_formula_sum   'Cs4 Cd4 Si6 O18'
_cell_volume   516.94258368
_cell_formula_units_Z   2
loop_
 _symmetry_equiv_pos_site_id
 _symmetry_equiv_pos_as_xyz
  1  'x, y, z'
loop_
 _atom_site_type_symbol
 _atom_site_label
 _atom_site_symmetry_multiplicity
 _atom_site_fract_x
 _atom_site_fract_y
 _atom_site_fract_z
 _atom_site_occupancy
  Cs  Cs0  1  0.37007762  0.43485405  0.76632249  1
  Cs  Cs1  1  0.62992238  0.43485405  0.26632249  1
  Cs  Cs2  1  0.65956668  0.82073238  0.89801163  1
  Cs  Cs3  1  0.34043332  0.82073238  0.39801163  1
  Cd  Cd0  1  0.83954174  0.87844646  0.58591782  1
  Cd  Cd1  1  0.16045826  0.87844646  0.08591782  1
  Cd  Cd2  1  0.92558822  0.34995136  0.85908146  1
  Cd  Cd3  1  0.07441178  0.34995136  0.35908146  1
  Si  Si0  1  0.57039849  0.11667679  0.08816940  1
  Si  Si1  1  0.42960151  0.11667679  0.58816940  1
  Si  Si2  1  0.23087992  0.41898772  0.05742140  1
  Si  Si3  1  0.76912008  0.41898772  0.55742140  1
  Si  Si4  1  0.14054595  0.87468614  0.81586397  1
  Si  Si5  1  0.85945405  0.87468614  0.31586397  1
  O  O0  1  0.84924214  0.48735213  0.65692441  1
  O  O1  1  0.15075786  0.48735213  0.15692441  1
  O  O2  1  0.43200502  0.29787538  0.10556581  1
  O  O3  1  0.56799498  0.29787538  0.60556581  1
  O  O4  1  0.45707629  0.89161990  0.11125711  1
  O  O5  1  0.54292371  0.89161990  0.61125711  1
  O  O6  1  0.05358715  0.01019030  0.88262994  1
  O  O7  1  0.94641285  0.01019030  0.38262994  1
  O  O8  1  0.89122315  0.25626183  0.52409223  1
  O  O9  1  0.10877685  0.25626183  0.02409223  1
  O  O10  1  0.66521777  0.25674396  0.95215684  1
  O  O11  1  0.33478223  0.25674396  0.45215684  1
  O  O12  1  0.99799401  0.74822997  0.76927244  1
  O  O13  1  0.00200599  0.74822997  0.26927244  1
  O  O14  1  0.27231871  0.66696941  0.92425625  1
  O  O15  1  0.72768129  0.66696941  0.42425625  1
  O  O16  1  0.71660213  0.04432223  0.20449579  1
  O  O17  1  0.28339787  0.04432223  0.70449579  1
loop_
_geom_bond_atom_site_label_1
_geom_bond_atom_site_label_2
_geom_bond_distance
_geom_bond_site_symmetry_2
Cs0 O5 2.931281 1_555
Cs0 O3 2.935718 1_555
Cs0 O10 2.936056 1_555
Cs0 O14 3.096960 1_555
Cs0 O17 3.102925 1_555
Cs1 O4 2.931281 1_555
Cs1 O2 2.935718 1_555
Cs1 O11 2.936056 1_555
Cs1 O15 3.096960 1_555
Cs1 O16 3.102925 1_555
Cs2 O14 3.004875 1_555
Cs2 O12 3.121114 1_555
Cs2 O6 3.143196 1_665
Cs2 O4 3.237877 1_556
Cs2 O10 3.269188 1_565
Cs2 O5 3.402781 1_555
Cs2 O3 3.438587 1_565
Cs2 O10 3.446949 1_555
Cs2 O17 3.465324 1_565
Cs2 O2 3.521099 1_556
Cs3 O15 3.004875 1_555
Cs3 O13 3.121114 1_555
Cs3 O7 3.143196 1_465
Cs3 O5 3.237877 1_555
Cs3 O11 3.269188 1_565
Cs3 O4 3.402781 1_555
Cs3 O2 3.438587 1_565
Cs3 O11 3.446949 1_555
Cs3 O16 3.465324 1_565
Cs3 O3 3.521099 1_555
Cd0 O5 2.225572 1_555
Cd0 O8 2.250593 1_565
Cd0 O12 2.278160 1_555
Cd0 O0 2.278960 1_555
Cd0 O7 2.317452 1_565
Cd1 O4 2.225572 1_555
Cd1 O9 2.250593 1_565
Cd1 O13 2.278160 1_555
Cd1 O1 2.278960 1_555
Cd1 O6 2.317452 1_564
Cd2 O10 2.163858 1_555
Cd2 O0 2.231878 1_555
Cd2 O9 2.242131 1_656
Cd2 O6 2.320432 1_655
Cd2 O12 2.350277 1_555
Cd3 O11 2.163858 1_555
Cd3 O1 2.231878 1_555
Cd3 O8 2.242131 1_455
Cd3 O7 2.320432 1_455
Cd3 O13 2.350277 1_555
O0 Si3 1.608708 1_555
O1 Si2 1.608708 1_555
O2 Si2 1.652419 1_555
O2 Si0 1.670212 1_555
O3 Si3 1.652419 1_555
O3 Si1 1.670212 1_555
O4 Si0 1.605714 1_565
O5 Si1 1.605714 1_565
O6 Si4 1.618849 1_545
O7 Si5 1.618849 1_545
O8 Si3 1.607602 1_555
O9 Si2 1.607602 1_555
O10 Si0 1.600103 1_556
O11 Si1 1.600103 1_555
O12 Si4 1.618022 1_655
O13 Si5 1.618022 1_455
O14 Si2 1.656215 1_556
O14 Si4 1.661398 1_555
O15 Si3 1.656215 1_555
O15 Si5 1.661398 1_555
O16 Si5 1.640247 1_545
O16 Si0 1.653582 1_555
O17 Si4 1.640247 1_545
O17 Si1 1.653582 1_555
