# generated using pymatgen
data_HfTi2PbC2
_symmetry_space_group_name_H-M   'P 1'
_cell_length_a   3.23701938
_cell_length_b   3.23701906
_cell_length_c   19.22414161
_cell_angle_alpha   90.00000000
_cell_angle_beta   90.00000000
_cell_angle_gamma   119.99998301
_symmetry_Int_Tables_number   1
_chemical_formula_structural   HfTi2PbC2
_chemical_formula_sum   'Hf2 Ti4 Pb2 C4'
_cell_volume   174.44889336
_cell_formula_units_Z   2
loop_
 _symmetry_equiv_pos_site_id
 _symmetry_equiv_pos_as_xyz
  1  'x, y, z'
loop_
 _atom_site_type_symbol
 _atom_site_label
 _atom_site_symmetry_multiplicity
 _atom_site_fract_x
 _atom_site_fract_y
 _atom_site_fract_z
 _atom_site_occupancy
  Hf  Hf0  1  0.00000000  0.00000000  0.00000000  1
  Hf  Hf1  1  0.00000000  0.00000000  0.50000000  1
  Ti  Ti0  1  0.33333300  0.66666700  0.12545009  1
  Ti  Ti1  1  0.33333300  0.66666700  0.37454991  1
  Ti  Ti2  1  0.66666700  0.33333300  0.62545009  1
  Ti  Ti3  1  0.66666700  0.33333300  0.87454991  1
  Pb  Pb0  1  0.00000000  0.00000000  0.25000000  1
  Pb  Pb1  1  0.00000000  0.00000000  0.75000000  1
  C  C0  1  0.33333300  0.66666700  0.92738898  1
  C  C1  1  0.66666700  0.33333300  0.07261102  1
  C  C2  1  0.66666700  0.33333300  0.42738898  1
  C  C3  1  0.33333300  0.66666700  0.57261102  1
loop_
_geom_bond_atom_site_label_1
_geom_bond_atom_site_label_2
_geom_bond_distance
_geom_bond_site_symmetry_2
Pb0 Ti1 3.037390 1_545
Pb0 Ti0 3.037390 1_545
Pb0 Ti1 3.037392 1_555
Pb0 Ti0 3.037392 1_555
Pb0 Ti1 3.037393 1_445
Pb0 Ti0 3.037393 1_445
Pb1 Ti3 3.037390 1_455
Pb1 Ti2 3.037390 1_455
Pb1 Ti3 3.037392 1_445
Pb1 Ti2 3.037392 1_445
Pb1 Ti3 3.037393 1_555
Pb1 Ti2 3.037393 1_555
C0 Ti3 2.127106 1_565
C0 Ti3 2.127106 1_455
C0 Ti3 2.127110 1_555
C0 Hf0 2.332649 1_566
C0 Hf0 2.332651 1_556
C0 Hf0 2.332652 1_666
C1 Ti0 2.127106 1_545
C1 Ti0 2.127106 1_655
C1 Ti0 2.127110 1_555
C1 Hf0 2.332649 1_655
C1 Hf0 2.332651 1_665
C1 Hf0 2.332652 1_555
C2 Ti1 2.127106 1_545
C2 Ti1 2.127106 1_655
C2 Ti1 2.127110 1_555
C2 Hf1 2.332649 1_655
C2 Hf1 2.332651 1_665
C2 Hf1 2.332652 1_555
C3 Ti2 2.127106 1_565
C3 Ti2 2.127106 1_455
C3 Ti2 2.127110 1_555
C3 Hf1 2.332649 1_565
C3 Hf1 2.332651 1_555
C3 Hf1 2.332652 1_665
