# generated using pymatgen
data_AlCd2Ir3S8
_symmetry_space_group_name_H-M   'P 1'
_cell_length_a   7.17746481
_cell_length_b   7.17746484
_cell_length_c   7.17746438
_cell_angle_alpha   61.18567763
_cell_angle_beta   61.18567653
_cell_angle_gamma   61.18567825
_symmetry_Int_Tables_number   1
_chemical_formula_structural   AlCd2Ir3S8
_chemical_formula_sum   'Al1 Cd2 Ir3 S8'
_cell_volume   268.42968110
_cell_formula_units_Z   1
loop_
 _symmetry_equiv_pos_site_id
 _symmetry_equiv_pos_as_xyz
  1  'x, y, z'
loop_
 _atom_site_type_symbol
 _atom_site_label
 _atom_site_symmetry_multiplicity
 _atom_site_fract_x
 _atom_site_fract_y
 _atom_site_fract_z
 _atom_site_occupancy
  Al  Al0  1  0.12500000  0.12500000  0.12500000  1
  Cd  Cd0  1  0.50321618  0.50321618  0.50321618  1
  Cd  Cd1  1  0.74678382  0.74678382  0.74678382  1
  Ir  Ir0  1  0.12500000  0.12500000  0.62500000  1
  Ir  Ir1  1  0.12500000  0.62500000  0.12500000  1
  Ir  Ir2  1  0.62500000  0.12500000  0.12500000  1
  S  S0  1  0.32378249  0.89034893  0.89034893  1
  S  S1  1  0.35682725  0.35682725  0.35682725  1
  S  S2  1  0.89317275  0.89317275  0.89317275  1
  S  S3  1  0.92621751  0.35965107  0.35965107  1
  S  S4  1  0.35965107  0.92621751  0.35965107  1
  S  S5  1  0.35965107  0.35965107  0.92621751  1
  S  S6  1  0.89034893  0.32378249  0.89034893  1
  S  S7  1  0.89034893  0.89034893  0.32378249  1
loop_
_geom_bond_atom_site_label_1
_geom_bond_atom_site_label_2
_geom_bond_distance
_geom_bond_site_symmetry_2
Al0 S3 2.410465 1_455
Al0 S0 2.410465 1_544
Al0 S4 2.410465 1_545
Al0 S6 2.410465 1_454
Al0 S5 2.410465 1_554
Al0 S7 2.410465 1_445
Cd0 S5 2.516645 1_555
Cd0 S3 2.516645 1_555
Cd0 S4 2.516645 1_555
Cd0 S1 2.550378 1_555
Cd1 S7 2.516645 1_555
Cd1 S0 2.516645 1_555
Cd1 S6 2.516645 1_555
Cd1 S2 2.550378 1_555
Ir0 S6 2.389658 1_455
Ir0 S4 2.389658 1_545
Ir0 S0 2.389658 1_545
Ir0 S3 2.389658 1_455
Ir0 S1 2.395102 1_555
Ir0 S2 2.395102 1_445
Ir1 S7 2.389658 1_455
Ir1 S5 2.389658 1_554
Ir1 S0 2.389658 1_554
Ir1 S3 2.389658 1_455
Ir1 S1 2.395102 1_555
Ir1 S2 2.395102 1_454
Ir2 S6 2.389658 1_554
Ir2 S4 2.389658 1_545
Ir2 S7 2.389658 1_545
Ir2 S5 2.389658 1_554
Ir2 S1 2.395102 1_555
Ir2 S2 2.395102 1_544
