# generated using pymatgen
data_Sc6TiNbH16
_symmetry_space_group_name_H-M   'P 1'
_cell_length_a   6.64176430
_cell_length_b   6.64176406
_cell_length_c   6.64176427
_cell_angle_alpha   59.99999897
_cell_angle_beta   60.00000014
_cell_angle_gamma   60.00000755
_symmetry_Int_Tables_number   1
_chemical_formula_structural   Sc6TiNbH16
_chemical_formula_sum   'Sc6 Ti1 Nb1 H16'
_cell_volume   207.17406370
_cell_formula_units_Z   1
loop_
 _symmetry_equiv_pos_site_id
 _symmetry_equiv_pos_as_xyz
  1  'x, y, z'
loop_
 _atom_site_type_symbol
 _atom_site_label
 _atom_site_symmetry_multiplicity
 _atom_site_fract_x
 _atom_site_fract_y
 _atom_site_fract_z
 _atom_site_occupancy
  Sc  Sc0  1  0.00000000  0.00000000  0.50000000  1
  Sc  Sc1  1  0.50000000  0.00000000  0.50000000  1
  Sc  Sc2  1  0.00000000  0.50000000  0.50000000  1
  Sc  Sc3  1  0.50000000  0.50000000  0.00000000  1
  Sc  Sc4  1  0.00000000  0.50000000  0.00000000  1
  Sc  Sc5  1  0.50000000  0.00000000  0.00000000  1
  Ti  Ti0  1  0.50000000  0.50000000  0.50000000  1
  Nb  Nb0  1  0.00000000  0.00000000  0.00000000  1
  H  H0  1  0.87945511  0.87945511  0.36163566  1
  H  H1  1  0.87945511  0.36163566  0.87945511  1
  H  H2  1  0.36163566  0.87945511  0.87945511  1
  H  H3  1  0.87945511  0.87945511  0.87945511  1
  H  H4  1  0.12054489  0.12054489  0.63836434  1
  H  H5  1  0.12054489  0.63836434  0.12054489  1
  H  H6  1  0.63836434  0.12054489  0.12054489  1
  H  H7  1  0.12054489  0.12054489  0.12054489  1
  H  H8  1  0.62033047  0.62033047  0.13900658  1
  H  H9  1  0.62033047  0.13900658  0.62033047  1
  H  H10  1  0.13900658  0.62033047  0.62033047  1
  H  H11  1  0.62033047  0.62033047  0.62033047  1
  H  H12  1  0.37966953  0.37966953  0.86099342  1
  H  H13  1  0.37966953  0.86099342  0.37966953  1
  H  H14  1  0.86099342  0.37966953  0.37966953  1
  H  H15  1  0.37966953  0.37966953  0.37966953  1
loop_
_geom_bond_atom_site_label_1
_geom_bond_atom_site_label_2
_geom_bond_distance
_geom_bond_site_symmetry_2
H0 Nb0 1.961142 1_665
H0 Sc0 2.058905 1_665
H0 Sc2 2.058911 1_655
H0 Sc1 2.058911 1_565
H1 Nb0 1.961142 1_656
H1 Sc4 2.058905 1_656
H1 Sc2 2.058911 1_655
H1 Sc3 2.058911 1_556
H2 Nb0 1.961142 1_566
H2 Sc5 2.058905 1_566
H2 Sc1 2.058911 1_565
H2 Sc3 2.058911 1_556
H3 Nb0 1.961137 1_666
H3 Sc0 2.058911 1_665
H3 Sc4 2.058911 1_656
H3 Sc5 2.058911 1_566
H4 Nb0 1.961142 1_556
H4 Sc0 2.058905 1_555
H4 Sc2 2.058911 1_555
H4 Sc1 2.058911 1_555
H5 Nb0 1.961142 1_565
H5 Sc4 2.058905 1_555
H5 Sc2 2.058911 1_555
H5 Sc3 2.058911 1_555
H6 Nb0 1.961142 1_655
H6 Sc5 2.058905 1_555
H6 Sc1 2.058911 1_555
H6 Sc3 2.058911 1_555
H7 Nb0 1.961137 1_555
H7 Sc0 2.058911 1_555
H7 Sc4 2.058911 1_555
H7 Sc5 2.058911 1_555
H8 Ti0 1.957659 1_555
H8 Sc3 2.060174 1_555
H8 Sc5 2.060184 1_565
H8 Sc4 2.060185 1_655
H9 Ti0 1.957659 1_555
H9 Sc1 2.060174 1_555
H9 Sc5 2.060184 1_556
H9 Sc0 2.060185 1_655
H10 Ti0 1.957659 1_555
H10 Sc2 2.060174 1_555
H10 Sc4 2.060184 1_556
H10 Sc0 2.060184 1_565
H11 Ti0 1.957648 1_555
H11 Sc3 2.060185 1_556
H11 Sc1 2.060185 1_565
H11 Sc2 2.060185 1_655
H12 Ti0 1.957659 1_555
H12 Sc3 2.060174 1_556
H12 Sc5 2.060184 1_556
H12 Sc4 2.060185 1_556
H13 Ti0 1.957659 1_555
H13 Sc1 2.060174 1_565
H13 Sc5 2.060184 1_565
H13 Sc0 2.060185 1_565
H14 Ti0 1.957659 1_555
H14 Sc2 2.060174 1_655
H14 Sc4 2.060184 1_655
H14 Sc0 2.060184 1_655
H15 Ti0 1.957648 1_555
H15 Sc3 2.060185 1_555
H15 Sc1 2.060185 1_555
H15 Sc2 2.060185 1_555
