# generated using pymatgen
data_Sr2Li3VN4
_symmetry_space_group_name_H-M   'P 1'
_cell_length_a   5.94386556
_cell_length_b   5.94386573
_cell_length_c   10.41641532
_cell_angle_alpha   63.58011065
_cell_angle_beta   63.58010975
_cell_angle_gamma   52.98323480
_symmetry_Int_Tables_number   1
_chemical_formula_structural   Sr2Li3VN4
_chemical_formula_sum   'Sr4 Li6 V2 N8'
_cell_volume   254.95405353
_cell_formula_units_Z   2
loop_
 _symmetry_equiv_pos_site_id
 _symmetry_equiv_pos_as_xyz
  1  'x, y, z'
loop_
 _atom_site_type_symbol
 _atom_site_label
 _atom_site_symmetry_multiplicity
 _atom_site_fract_x
 _atom_site_fract_y
 _atom_site_fract_z
 _atom_site_occupancy
  Sr  Sr0  1  0.03278121  0.64835667  0.11601597  1
  Sr  Sr1  1  0.96721879  0.35164333  0.88398403  1
  Sr  Sr2  1  0.35164333  0.96721879  0.38398403  1
  Sr  Sr3  1  0.64835667  0.03278121  0.61601597  1
  Li  Li0  1  0.36077615  0.63922385  0.25000000  1
  Li  Li1  1  0.63922385  0.36077615  0.75000000  1
  Li  Li2  1  0.51358857  0.16726553  0.02410807  1
  Li  Li3  1  0.83273447  0.48641143  0.47589193  1
  Li  Li4  1  0.16726553  0.51358857  0.52410807  1
  Li  Li5  1  0.48641143  0.83273447  0.97589193  1
  V  V0  1  0.84393820  0.15606180  0.25000000  1
  V  V1  1  0.15606180  0.84393820  0.75000000  1
  N  N0  1  0.08894771  0.19029429  0.61463141  1
  N  N1  1  0.71394383  0.42835250  0.34064464  1
  N  N2  1  0.28605617  0.57164750  0.65935536  1
  N  N3  1  0.57164750  0.28605617  0.15935536  1
  N  N4  1  0.19029429  0.08894771  0.11463141  1
  N  N5  1  0.42835250  0.71394383  0.84064464  1
  N  N6  1  0.91105229  0.80970571  0.38536859  1
  N  N7  1  0.80970571  0.91105229  0.88536859  1
loop_
_geom_bond_atom_site_label_1
_geom_bond_atom_site_label_2
_geom_bond_distance
_geom_bond_site_symmetry_2
Li0 N1 2.100384 1_555
Li0 N3 2.100384 1_555
Li0 N6 2.194607 1_455
Li0 N4 2.194607 1_565
Li1 N2 2.100384 1_555
Li1 N5 2.100384 1_555
Li1 N0 2.194607 1_655
Li1 N7 2.194607 1_545
Li2 N4 1.967863 1_555
Li2 N7 1.993262 1_544
Li2 N3 2.052692 1_555
Li3 N6 1.967863 1_555
Li3 N0 1.993262 1_655
Li3 N1 2.052692 1_555
Li4 N0 1.967863 1_555
Li4 N6 1.993262 1_455
Li4 N2 2.052692 1_555
Li5 N7 1.967863 1_555
Li5 N4 1.993262 1_566
Li5 N5 2.052692 1_555
N0 V1 1.820458 1_545
N0 Sr2 2.640428 1_545
N0 Sr3 2.866178 1_555
N1 V0 1.820116 1_555
N1 Sr0 2.662979 1_655
N1 Sr2 2.686358 1_555
N1 Sr3 2.831045 1_555
N2 V1 1.820116 1_555
N2 Sr1 2.662979 1_455
N2 Sr3 2.686358 1_555
N2 Sr2 2.831045 1_555
N3 V0 1.820116 1_555
N3 Sr2 2.662979 1_545
N3 Sr0 2.686358 1_555
N3 Sr1 2.831045 1_554
N4 V0 1.820458 1_455
N4 Sr1 2.640428 1_454
N4 Sr0 2.866178 1_555
N5 V1 1.820116 1_555
N5 Sr3 2.662979 1_565
N5 Sr1 2.686358 1_555
N5 Sr0 2.831045 1_556
N6 V0 1.820458 1_565
N6 Sr3 2.640428 1_565
N6 Sr2 2.866178 1_555
N7 V1 1.820458 1_655
N7 Sr0 2.640428 1_656
N7 Sr1 2.866178 1_555
