# generated using pymatgen
data_Li2Sn2GePt2
_symmetry_space_group_name_H-M   'P 1'
_cell_length_a   4.22569599
_cell_length_b   4.22569613
_cell_length_c   16.30407735
_cell_angle_alpha   90.00000000
_cell_angle_beta   90.00000000
_cell_angle_gamma   119.99998409
_symmetry_Int_Tables_number   1
_chemical_formula_structural   Li2Sn2GePt2
_chemical_formula_sum   'Li4 Sn4 Ge2 Pt4'
_cell_volume   252.12937124
_cell_formula_units_Z   2
loop_
 _symmetry_equiv_pos_site_id
 _symmetry_equiv_pos_as_xyz
  1  'x, y, z'
loop_
 _atom_site_type_symbol
 _atom_site_label
 _atom_site_symmetry_multiplicity
 _atom_site_fract_x
 _atom_site_fract_y
 _atom_site_fract_z
 _atom_site_occupancy
  Li  Li0  1  0.00000000  0.00000000  0.16840044  1
  Li  Li1  1  0.00000000  0.00000000  0.83159956  1
  Li  Li2  1  0.00000000  0.00000000  0.66840044  1
  Li  Li3  1  0.00000000  0.00000000  0.33159956  1
  Sn  Sn0  1  0.33333300  0.66666700  0.07515514  1
  Sn  Sn1  1  0.66666700  0.33333300  0.92484486  1
  Sn  Sn2  1  0.66666700  0.33333300  0.57515514  1
  Sn  Sn3  1  0.33333300  0.66666700  0.42484486  1
  Ge  Ge0  1  0.33333300  0.66666700  0.75000000  1
  Ge  Ge1  1  0.66666700  0.33333300  0.25000000  1
  Pt  Pt0  1  0.00000000  0.00000000  0.00000000  1
  Pt  Pt1  1  0.00000000  0.00000000  0.50000000  1
  Pt  Pt2  1  0.33333300  0.66666700  0.25000000  1
  Pt  Pt3  1  0.66666700  0.33333300  0.75000000  1
loop_
_geom_bond_atom_site_label_1
_geom_bond_atom_site_label_2
_geom_bond_distance
_geom_bond_site_symmetry_2
Li0 Pt0 2.745614 1_555
Li0 Pt2 2.778873 1_545
Li0 Pt2 2.778877 1_445
Li0 Pt2 2.778877 1_555
Li0 Sn0 2.874614 1_545
Li0 Sn0 2.874617 1_445
Li0 Sn0 2.874617 1_555
Li1 Pt0 2.745614 1_556
Li1 Pt3 2.778873 1_455
Li1 Pt3 2.778877 1_555
Li1 Pt3 2.778877 1_445
Li1 Sn1 2.874614 1_455
Li1 Sn1 2.874617 1_555
Li1 Sn1 2.874617 1_445
Li2 Pt1 2.745614 1_555
Li2 Pt3 2.778873 1_455
Li2 Pt3 2.778877 1_555
Li2 Pt3 2.778877 1_445
Li2 Sn2 2.874614 1_455
Li2 Sn2 2.874617 1_555
Li2 Sn2 2.874617 1_445
Li3 Pt1 2.745614 1_555
Li3 Pt2 2.778873 1_545
Li3 Pt2 2.778877 1_445
Li3 Pt2 2.778877 1_555
Li3 Sn3 2.874614 1_545
Li3 Sn3 2.874617 1_445
Li3 Sn3 2.874617 1_555
Ge0 Pt3 2.439705 1_455
Ge0 Pt3 2.439705 1_565
Ge0 Pt3 2.439711 1_555
Ge0 Li1 2.778873 1_565
Ge0 Li2 2.778873 1_565
Ge0 Li1 2.778877 1_665
Ge0 Li2 2.778877 1_665
Ge0 Li1 2.778877 1_555
Ge0 Li2 2.778877 1_555
Ge1 Pt2 2.439705 1_655
Ge1 Pt2 2.439705 1_545
Ge1 Pt2 2.439711 1_555
Ge1 Li3 2.778873 1_655
Ge1 Li0 2.778873 1_655
Ge1 Li3 2.778877 1_555
Ge1 Li0 2.778877 1_555
Ge1 Li3 2.778877 1_665
Ge1 Li0 2.778877 1_665
Pt0 Sn0 2.730129 1_545
Pt0 Sn1 2.730129 1_454
Pt0 Sn0 2.730132 1_445
Pt0 Sn1 2.730132 1_554
Pt0 Sn0 2.730133 1_555
Pt0 Sn1 2.730133 1_444
Pt1 Sn2 2.730129 1_455
Pt1 Sn3 2.730129 1_545
Pt1 Sn2 2.730132 1_555
Pt1 Sn3 2.730132 1_445
Pt1 Sn2 2.730133 1_445
Pt1 Sn3 2.730133 1_555
Pt2 Sn3 2.850684 1_555
Pt2 Sn0 2.850684 1_555
Pt3 Sn1 2.850684 1_555
Pt3 Sn2 2.850684 1_555
