# generated using pymatgen
data_Rb2Zn3(CdSb2)2
_symmetry_space_group_name_H-M   'P 1'
_cell_length_a   7.43414376
_cell_length_b   7.43550106
_cell_length_c   12.92133210
_cell_angle_alpha   89.92539159
_cell_angle_beta   89.74355604
_cell_angle_gamma   117.50826875
_symmetry_Int_Tables_number   1
_chemical_formula_structural   Rb2Zn3(CdSb2)2
_chemical_formula_sum   'Rb4 Zn6 Cd4 Sb8'
_cell_volume   633.48639273
_cell_formula_units_Z   2
loop_
 _symmetry_equiv_pos_site_id
 _symmetry_equiv_pos_as_xyz
  1  'x, y, z'
loop_
 _atom_site_type_symbol
 _atom_site_label
 _atom_site_symmetry_multiplicity
 _atom_site_fract_x
 _atom_site_fract_y
 _atom_site_fract_z
 _atom_site_occupancy
  Rb  Rb0  1  0.22239072  0.78326534  0.50045128  1
  Rb  Rb1  1  0.21766406  0.77629471  0.99862184  1
  Rb  Rb2  1  0.77709150  0.21626817  0.50558880  1
  Rb  Rb3  1  0.77118920  0.21233862  0.99592719  1
  Zn  Zn0  1  0.74288814  0.46020388  0.75254235  1
  Zn  Zn1  1  0.45762682  0.74369506  0.75188231  1
  Zn  Zn2  1  0.26364213  0.54154273  0.24387951  1
  Zn  Zn3  1  0.32925183  0.33416404  0.89031291  1
  Zn  Zn4  1  0.00509658  0.00312829  0.24161440  1
  Zn  Zn5  1  0.00279212  0.00326223  0.76014580  1
  Cd  Cd0  1  0.54327332  0.25936803  0.24653058  1
  Cd  Cd1  1  0.66798331  0.65708550  0.40067791  1
  Cd  Cd2  1  0.33266764  0.33572063  0.60394693  1
  Cd  Cd3  1  0.66687237  0.65638101  0.10454440  1
  Sb  Sb0  1  0.60721464  0.91831860  0.25269447  1
  Sb  Sb1  1  0.07593077  0.40107872  0.75509639  1
  Sb  Sb2  1  0.39969952  0.07837649  0.75477744  1
  Sb  Sb3  1  0.94782667  0.61733192  0.25126988  1
  Sb  Sb4  1  0.25355349  0.27318101  0.39065727  1
  Sb  Sb5  1  0.73378784  0.73235041  0.61352676  1
  Sb  Sb6  1  0.26161750  0.27559187  0.09310424  1
  Sb  Sb7  1  0.71993883  0.72105274  0.89220732  1
loop_
_geom_bond_atom_site_label_1
_geom_bond_atom_site_label_2
_geom_bond_distance
_geom_bond_site_symmetry_2
Rb0 Sb3 3.714593 1_455
Rb0 Sb5 3.762020 1_455
Rb0 Zn1 3.771382 1_555
Rb0 Sb4 3.813152 1_565
Rb0 Sb2 3.838941 1_565
Rb0 Zn2 3.851089 1_555
Rb0 Rb2 3.887659 1_565
Rb0 Rb2 3.980223 1_455
Rb0 Sb0 4.086230 1_555
Rb0 Sb1 4.144014 1_555
Rb0 Sb4 4.156187 1_555
Rb0 Sb5 4.255537 1_555
Rb1 Zn2 3.708495 1_556
Rb1 Zn1 3.708949 1_555
Rb1 Sb3 3.717456 1_456
Rb1 Sb2 3.733563 1_565
Rb1 Sb6 3.778205 1_566
Rb1 Sb7 3.793894 1_455
Rb1 Sb1 4.016522 1_555
Rb2 Sb4 3.673898 1_655
Rb2 Sb5 3.729417 1_545
Rb2 Zn0 3.737725 1_555
Rb2 Sb1 3.804397 1_655
Rb2 Sb0 3.827830 1_545
Rb2 Sb2 4.067344 1_555
Rb2 Sb3 4.212289 1_555
Rb2 Sb5 4.233792 1_555
Rb3 Sb6 3.680908 1_656
Rb3 Zn0 3.698657 1_555
Rb3 Sb1 3.711355 1_655
Rb3 Sb7 3.743934 1_545
Rb3 Sb0 3.841373 1_546
Rb3 Sb2 3.984030 1_555
Cd0 Sb0 2.788598 1_545
Cd0 Sb4 2.878648 1_555
Cd0 Sb6 2.932389 1_555
Cd0 Sb3 2.956468 1_555
Cd0 Rb3 3.738954 1_554
Cd0 Rb2 3.859142 1_555
Cd1 Sb5 2.807091 1_555
Cd1 Sb0 2.905504 1_555
Cd1 Sb3 2.945510 1_555
Cd1 Sb4 3.088317 1_555
Cd1 Rb2 3.961443 1_555
Cd1 Rb0 4.001011 1_655
Cd1 Rb0 4.043695 1_555
Cd1 Rb2 4.085589 1_565
Cd2 Sb4 2.814750 1_555
Cd2 Sb1 2.918787 1_555
Cd2 Sb2 2.930510 1_555
Cd2 Sb5 3.079852 1_555
Cd2 Rb2 3.999505 1_555
Cd2 Rb0 4.006559 1_555
Cd2 Rb2 4.015488 1_455
Cd2 Rb0 4.030833 1_545
Cd3 Sb7 2.779617 1_554
Cd3 Sb0 2.907671 1_555
Cd3 Sb3 2.938603 1_555
Cd3 Sb6 3.039788 1_555
Sb0 Zn4 2.727696 1_665
Sb0 Zn2 2.789036 1_555
Sb1 Zn0 2.707497 1_455
Sb1 Zn5 2.750080 1_555
Sb1 Zn3 2.781987 1_555
Sb1 Zn1 2.804374 1_555
Sb2 Zn1 2.714710 1_545
Sb2 Zn5 2.738415 1_555
Sb2 Zn0 2.806854 1_555
Sb2 Zn3 2.806985 1_555
Sb3 Zn2 2.656926 1_655
Sb3 Zn4 2.701118 1_665
Sb4 Zn2 2.726691 1_555
Sb4 Zn4 2.787165 1_555
Sb5 Zn0 2.728364 1_555
Sb5 Zn1 2.746913 1_555
Sb5 Zn5 2.822898 1_665
Sb6 Zn3 2.663003 1_554
Sb6 Zn2 2.772904 1_555
Sb6 Zn4 2.794927 1_555
Sb7 Zn0 2.712886 1_555
Sb7 Zn1 2.729995 1_555
Sb7 Zn5 2.760296 1_665
Sb7 Zn3 2.999072 1_555
