# generated using pymatgen
data_Ti6SiAsN2
_symmetry_space_group_name_H-M   'P 1'
_cell_length_a   5.39967876
_cell_length_b   5.39967753
_cell_length_c   7.98187004
_cell_angle_alpha   90.00000000
_cell_angle_beta   90.00000000
_cell_angle_gamma   145.53456980
_symmetry_Int_Tables_number   1
_chemical_formula_structural   Ti6SiAsN2
_chemical_formula_sum   'Ti6 Si1 As1 N2'
_cell_volume   131.70034660
_cell_formula_units_Z   1
loop_
 _symmetry_equiv_pos_site_id
 _symmetry_equiv_pos_as_xyz
  1  'x, y, z'
loop_
 _atom_site_type_symbol
 _atom_site_label
 _atom_site_symmetry_multiplicity
 _atom_site_fract_x
 _atom_site_fract_y
 _atom_site_fract_z
 _atom_site_occupancy
  Ti  Ti0  1  0.62954225  0.37045775  0.55265176  1
  Ti  Ti1  1  0.37004664  0.62995336  0.04878628  1
  Ti  Ti2  1  0.37004664  0.62995336  0.45121372  1
  Ti  Ti3  1  0.62954225  0.37045775  0.94734824  1
  Ti  Ti4  1  0.94758986  0.05241014  0.75000000  1
  Ti  Ti5  1  0.05337822  0.94662178  0.25000000  1
  Si  Si0  1  0.25454894  0.74545106  0.75000000  1
  As  As0  1  0.74561215  0.25438785  0.25000000  1
  N  N0  1  0.99984653  0.00015347  0.49867874  1
  N  N1  1  0.99984653  0.00015347  0.00132126  1
loop_
_geom_bond_atom_site_label_1
_geom_bond_atom_site_label_2
_geom_bond_distance
_geom_bond_site_symmetry_2
Si0 Ti4 2.554127 1_455
Si0 Ti4 2.554128 1_565
Si0 Ti3 2.588969 1_565
Si0 Ti0 2.588969 1_565
Si0 Ti3 2.588969 1_455
Si0 Ti0 2.588969 1_455
Si0 Ti2 2.665865 1_555
Si0 Ti1 2.665865 1_556
As0 Ti5 2.547643 1_655
As0 Ti5 2.547644 1_545
As0 Ti1 2.604943 1_545
As0 Ti2 2.604943 1_545
As0 Ti1 2.604944 1_655
As0 Ti2 2.604944 1_655
As0 Ti0 2.696118 1_555
As0 Ti3 2.696118 1_554
N0 Ti5 2.060289 1_645
N0 Ti4 2.077166 1_555
N0 Ti2 2.120130 1_655
N0 Ti2 2.120131 1_545
N0 Ti0 2.129351 1_545
N0 Ti0 2.129352 1_655
N1 Ti5 2.060289 1_645
N1 Ti4 2.077166 1_554
N1 Ti1 2.120130 1_655
N1 Ti1 2.120131 1_545
N1 Ti3 2.129351 1_544
N1 Ti3 2.129352 1_654
