# generated using pymatgen
data_NaV2(Sb6Pt)2
_symmetry_space_group_name_H-M   'P 1'
_cell_length_a   8.20259688
_cell_length_b   8.31849004
_cell_length_c   8.31849075
_cell_angle_alpha   110.05039826
_cell_angle_beta   109.49846850
_cell_angle_gamma   109.43008848
_symmetry_Int_Tables_number   1
_chemical_formula_structural   NaV2(Sb6Pt)2
_chemical_formula_sum   'Na1 V2 Sb12 Pt2'
_cell_volume   433.85018951
_cell_formula_units_Z   1
loop_
 _symmetry_equiv_pos_site_id
 _symmetry_equiv_pos_as_xyz
  1  'x, y, z'
loop_
 _atom_site_type_symbol
 _atom_site_label
 _atom_site_symmetry_multiplicity
 _atom_site_fract_x
 _atom_site_fract_y
 _atom_site_fract_z
 _atom_site_occupancy
  Na  Na0  1  0.00000000  0.00000000  0.00000000  1
  V  V0  1  0.50000000  0.00000000  0.00000000  1
  V  V1  1  0.50000000  0.50000000  0.50000000  1
  Sb  Sb0  1  0.34310824  0.19251468  0.84697340  1
  Sb  Sb1  1  0.65689176  0.80748532  0.15302660  1
  Sb  Sb2  1  0.65689176  0.50386616  0.84940544  1
  Sb  Sb3  1  0.34310824  0.49613384  0.15059456  1
  Sb  Sb4  1  0.19553407  0.85029271  0.34524136  1
  Sb  Sb5  1  0.80446593  0.14970729  0.65475864  1
  Sb  Sb6  1  0.50564595  0.84600357  0.65964138  1
  Sb  Sb7  1  0.49435405  0.15399643  0.34035862  1
  Sb  Sb8  1  0.85124405  0.34709077  0.19145830  1
  Sb  Sb9  1  0.14875595  0.65290923  0.80854170  1
  Sb  Sb10  1  0.85124405  0.65978575  0.50415428  1
  Sb  Sb11  1  0.14875595  0.34021425  0.49584572  1
  Pt  Pt0  1  0.00000000  0.00000000  0.50000000  1
  Pt  Pt1  1  0.00000000  0.50000000  0.00000000  1
loop_
_geom_bond_atom_site_label_1
_geom_bond_atom_site_label_2
_geom_bond_distance
_geom_bond_site_symmetry_2
Na0 Sb7 3.534538 1_555
Na0 Sb6 3.534538 1_444
Na0 Sb11 3.584656 1_555
Na0 Sb10 3.584656 1_444
Na0 Sb8 3.584662 1_455
Na0 Sb9 3.584662 1_544
Na0 Sb3 3.591165 1_555
Na0 Sb2 3.591165 1_444
Na0 Sb1 3.591174 1_445
Na0 Sb0 3.591174 1_554
Na0 Sb4 3.616267 1_545
Na0 Sb5 3.616267 1_454
Sb0 V0 2.741628 1_556
Sb0 Sb3 2.895500 1_556
Sb0 Sb2 2.971068 1_555
Sb1 V0 2.741628 1_565
Sb1 Sb2 2.895500 1_554
Sb1 Sb3 2.971068 1_555
Sb2 V1 2.741616 1_555
Sb3 V1 2.741616 1_555
Sb4 Sb7 2.899825 1_565
Sb4 Sb6 2.999174 1_555
Sb5 Sb6 2.899825 1_545
Sb5 Sb7 2.999174 1_555
Sb6 V1 2.701713 1_555
Sb6 V0 2.701721 1_566
Sb7 V1 2.701713 1_555
Sb7 V0 2.701721 1_555
Sb8 V0 2.724511 1_555
Sb9 V0 2.724511 1_566
Sb10 V1 2.724507 1_555
Sb10 Sb9 2.904678 1_655
Sb10 Sb8 2.982047 1_555
Sb11 V1 2.724507 1_555
Sb11 Sb8 2.904678 1_455
Sb11 Sb9 2.982047 1_555
Pt0 Sb0 2.687993 1_555
Pt0 Sb1 2.687993 1_445
Pt0 Sb11 2.701311 1_555
Pt0 Sb10 2.701311 1_445
Pt0 Sb5 2.718192 1_455
Pt0 Sb4 2.718192 1_545
Pt1 Sb3 2.687998 1_555
Pt1 Sb2 2.687998 1_454
Pt1 Sb9 2.701307 1_554
Pt1 Sb8 2.701307 1_455
Pt1 Sb4 2.718192 1_555
Pt1 Sb5 2.718192 1_454
