# generated using pymatgen
data_HfTa(CoH3)2
_symmetry_space_group_name_H-M   'P 1'
_cell_length_a   5.28116690
_cell_length_b   5.28116669
_cell_length_c   4.23730449
_cell_angle_alpha   90.00000000
_cell_angle_beta   90.00000000
_cell_angle_gamma   141.84298896
_symmetry_Int_Tables_number   1
_chemical_formula_structural   HfTa(CoH3)2
_chemical_formula_sum   'Hf1 Ta1 Co2 H6'
_cell_volume   73.01471850
_cell_formula_units_Z   1
loop_
 _symmetry_equiv_pos_site_id
 _symmetry_equiv_pos_as_xyz
  1  'x, y, z'
loop_
 _atom_site_type_symbol
 _atom_site_label
 _atom_site_symmetry_multiplicity
 _atom_site_fract_x
 _atom_site_fract_y
 _atom_site_fract_z
 _atom_site_occupancy
  Hf  Hf0  1  0.36908552  0.63091448  0.75000000  1
  Ta  Ta0  1  0.63190790  0.36809210  0.25000000  1
  Co  Co0  1  0.07712882  0.92287118  0.75000000  1
  Co  Co1  1  0.92621577  0.07378423  0.25000000  1
  H  H0  1  0.58276529  0.41723471  0.75000000  1
  H  H1  1  0.18786866  0.81213134  0.47838205  1
  H  H2  1  0.18786866  0.81213134  0.02161795  1
  H  H3  1  0.80488556  0.19511444  0.99739043  1
  H  H4  1  0.80488556  0.19511444  0.50260957  1
  H  H5  1  0.42738825  0.57261175  0.25000000  1
loop_
_geom_bond_atom_site_label_1
_geom_bond_atom_site_label_2
_geom_bond_distance
_geom_bond_site_symmetry_2
Co0 H2 1.595806 1_556
Co0 H1 1.595806 1_555
Co0 H0 1.727137 1_455
Co0 H0 1.727137 1_565
Co1 H4 1.616346 1_555
Co1 H3 1.616346 1_554
Co1 H5 1.726260 1_545
Co1 H5 1.726260 1_655
H0 Hf0 2.132986 1_555
H0 Ta0 2.174701 1_555
H0 Ta0 2.174701 1_556
H1 Ta0 2.056300 1_565
H1 Ta0 2.056300 1_455
H1 Hf0 2.144035 1_555
H2 Ta0 2.056300 1_565
H2 Ta0 2.056300 1_455
H2 Hf0 2.144035 1_554
H3 Ta0 2.031547 1_556
H3 Hf0 2.118820 1_545
H3 Hf0 2.118820 1_655
H4 Ta0 2.031547 1_555
H4 Hf0 2.118820 1_545
H4 Hf0 2.118820 1_655
H5 Ta0 2.041548 1_555
H5 Hf0 2.197134 1_555
H5 Hf0 2.197134 1_554
