# generated using pymatgen
data_Tm2MnS4
_symmetry_space_group_name_H-M   'P 1'
_cell_length_a   7.10519725
_cell_length_b   7.10519725
_cell_length_c   7.10519725
_cell_angle_alpha   110.61970007
_cell_angle_beta   110.61970007
_cell_angle_gamma   107.19790090
_symmetry_Int_Tables_number   1
_chemical_formula_structural   Tm2MnS4
_chemical_formula_sum   'Tm4 Mn2 S8'
_cell_volume   275.80110246
_cell_formula_units_Z   2
loop_
 _symmetry_equiv_pos_site_id
 _symmetry_equiv_pos_as_xyz
  1  'x, y, z'
loop_
 _atom_site_type_symbol
 _atom_site_label
 _atom_site_symmetry_multiplicity
 _atom_site_fract_x
 _atom_site_fract_y
 _atom_site_fract_z
 _atom_site_occupancy
  Tm  Tm0  1  0.87500000  0.48813400  0.11313400  1
  Tm  Tm1  1  0.23813400  0.12500000  0.61313400  1
  Tm  Tm2  1  0.37500000  0.76186600  0.88686600  1
  Tm  Tm3  1  0.51186600  0.62500000  0.38686600  1
  Mn  Mn0  1  0.75000000  0.25000000  0.50000000  1
  Mn  Mn1  1  0.00000000  0.00000000  0.00000000  1
  S  S0  1  0.63421500  0.00069700  0.76590200  1
  S  S1  1  0.61831300  0.48479500  0.73409800  1
  S  S2  1  0.51520500  0.24930300  0.13351800  1
  S  S3  1  0.13168700  0.36578500  0.36648200  1
  S  S4  1  0.75069700  0.88421500  0.26590200  1
  S  S5  1  0.11578500  0.38168700  0.86648200  1
  S  S6  1  0.99930300  0.76520500  0.63351800  1
  S  S7  1  0.23479500  0.86831300  0.23409800  1
loop_
_geom_bond_atom_site_label_1
_geom_bond_atom_site_label_2
_geom_bond_distance
_geom_bond_site_symmetry_2
Mn0 S1 2.547543 1_555
Mn0 S2 2.547543 1_555
Mn0 S5 2.547543 1_655
Mn0 S4 2.547543 1_545
Mn0 S6 3.158153 1_555
Mn0 S3 3.158153 1_655
Mn0 S7 3.158153 1_545
Mn0 S0 3.158153 1_555
Mn1 S3 2.547543 1_555
Mn1 S7 2.547543 1_545
Mn1 S0 2.547543 1_454
Mn1 S6 2.547543 1_444
Mn1 S4 3.158153 1_445
Mn1 S1 3.158153 1_444
Mn1 S2 3.158153 1_555
Mn1 S5 3.158153 1_554
S0 Tm3 2.655129 1_545
S0 Tm2 2.702668 1_545
S0 Tm0 2.917806 1_556
S0 Tm1 3.141919 1_555
S1 Tm0 2.655129 1_556
S1 Tm1 2.702668 1_555
S1 Tm3 2.917806 1_555
S1 Tm2 3.141919 1_555
S2 Tm3 2.655129 1_555
S2 Tm0 2.702668 1_555
S2 Tm2 2.917806 1_544
S2 Tm1 3.141919 1_554
S3 Tm0 2.655129 1_455
S3 Tm3 2.702668 1_555
S3 Tm1 2.917806 1_555
S3 Tm2 3.141919 1_555
S4 Tm2 2.655129 1_554
S4 Tm3 2.702668 1_555
S4 Tm1 2.917806 1_665
S4 Tm0 3.141919 1_555
S5 Tm1 2.655129 1_555
S5 Tm2 2.702668 1_555
S5 Tm0 2.917806 1_456
S5 Tm3 3.141919 1_556
S6 Tm2 2.655129 1_655
S6 Tm1 2.702668 1_665
S6 Tm3 2.917806 1_555
S6 Tm0 3.141919 1_555
S7 Tm1 2.655129 1_565
S7 Tm0 2.702668 1_455
S7 Tm2 2.917806 1_554
S7 Tm3 3.141919 1_555
