# generated using pymatgen
data_ZrZnCu3Ir
_symmetry_space_group_name_H-M   'P 1'
_cell_length_a   4.84693561
_cell_length_b   4.84693567
_cell_length_c   4.86517826
_cell_angle_alpha   60.12395132
_cell_angle_beta   60.12395703
_cell_angle_gamma   59.99999880
_symmetry_Int_Tables_number   1
_chemical_formula_structural   ZrZnCu3Ir
_chemical_formula_sum   'Zr1 Zn1 Cu3 Ir1'
_cell_volume   80.97098173
_cell_formula_units_Z   1
loop_
 _symmetry_equiv_pos_site_id
 _symmetry_equiv_pos_as_xyz
  1  'x, y, z'
loop_
 _atom_site_type_symbol
 _atom_site_label
 _atom_site_symmetry_multiplicity
 _atom_site_fract_x
 _atom_site_fract_y
 _atom_site_fract_z
 _atom_site_occupancy
  Zr  Zr0  1  0.24926180  0.24926180  0.25221459  1
  Zn  Zn0  1  0.62749103  0.62749103  0.11752792  1
  Cu  Cu0  1  0.62594934  0.12400750  0.62409281  1
  Cu  Cu1  1  0.12400750  0.62594934  0.62409281  1
  Cu  Cu2  1  0.62594934  0.62594934  0.62409281  1
  Ir  Ir0  1  0.99734098  0.99734098  0.00797906  1
loop_
_geom_bond_atom_site_label_1
_geom_bond_atom_site_label_2
_geom_bond_distance
_geom_bond_site_symmetry_2
Zn0 Zr0 2.849254 1_655
Zn0 Zr0 2.849254 1_565
Zn0 Zr0 2.849258 1_555
Cu0 Zn0 2.408112 1_546
Cu0 Cu1 2.414056 1_645
Cu0 Cu2 2.414056 1_545
Cu0 Cu1 2.432880 1_555
Cu0 Cu2 2.432880 1_555
Cu0 Zn0 2.457111 1_555
Cu0 Ir0 2.820457 1_545
Cu0 Zr0 2.839656 1_555
Cu0 Zr0 2.839660 1_655
Cu0 Ir0 2.864850 1_446
Cu0 Ir0 2.864863 1_546
Cu0 Zr0 2.867413 1_556
Cu1 Zn0 2.408113 1_456
Cu1 Cu2 2.414056 1_455
Cu1 Cu2 2.432880 1_555
Cu1 Zn0 2.457112 1_555
Cu1 Ir0 2.820457 1_455
Cu1 Zr0 2.839656 1_555
Cu1 Zr0 2.839660 1_565
Cu1 Ir0 2.864850 1_446
Cu1 Ir0 2.864863 1_456
Cu1 Zr0 2.867412 1_556
Cu2 Zn0 2.408117 1_556
Cu2 Zn0 2.457107 1_555
Cu2 Ir0 2.820463 1_555
Cu2 Zr0 2.839658 1_565
Cu2 Zr0 2.839658 1_655
Cu2 Ir0 2.864856 1_546
Cu2 Ir0 2.864856 1_456
Cu2 Zr0 2.867410 1_556
Ir0 Zn0 2.832138 1_655
Ir0 Zn0 2.832138 1_565
Ir0 Zn0 2.832142 1_555
Ir0 Zr0 2.962383 1_665
Ir0 Zr0 2.962390 1_655
Ir0 Zr0 2.962391 1_565
Ir0 Zr0 3.007812 1_664
