# generated using pymatgen
data_CsTcP2Pd
_symmetry_space_group_name_H-M   'P 1'
_cell_length_a   7.82088818
_cell_length_b   7.82088872
_cell_length_c   7.82088748
_cell_angle_alpha   150.32754530
_cell_angle_beta   150.32755254
_cell_angle_gamma   42.46080859
_symmetry_Int_Tables_number   1
_chemical_formula_structural   CsTcP2Pd
_chemical_formula_sum   'Cs1 Tc1 P2 Pd1'
_cell_volume   116.94422510
_cell_formula_units_Z   1
loop_
 _symmetry_equiv_pos_site_id
 _symmetry_equiv_pos_as_xyz
  1  'x, y, z'
loop_
 _atom_site_type_symbol
 _atom_site_label
 _atom_site_symmetry_multiplicity
 _atom_site_fract_x
 _atom_site_fract_y
 _atom_site_fract_z
 _atom_site_occupancy
  Cs  Cs0  1  0.00000000  0.00000000  0.00000000  1
  Tc  Tc0  1  0.75000000  0.25000000  0.50000000  1
  P  P0  1  0.33532716  0.33532716  0.00000000  1
  P  P1  1  0.66467284  0.66467284  1.00000000  1
  Pd  Pd0  1  0.25000000  0.75000000  0.50000000  1
loop_
_geom_bond_atom_site_label_1
_geom_bond_atom_site_label_2
_geom_bond_distance
_geom_bond_site_symmetry_2
Cs0 P1 3.712866 1_443
Cs0 P0 3.712866 1_556
Cs0 P1 3.712867 1_544
Cs0 P0 3.712867 1_455
Cs0 P1 3.712867 1_454
Cs0 P0 3.712867 1_545
Cs0 P1 3.712867 1_555
Cs0 P0 3.712867 1_444
P0 Tc0 2.357568 1_555
P0 Pd0 2.357569 1_555
P0 Tc0 2.357569 1_454
P0 Pd0 2.357569 1_544
P1 Pd0 2.357568 1_555
P1 Tc0 2.357569 1_555
P1 Pd0 2.357569 1_656
P1 Tc0 2.357569 1_566
Pd0 Tc0 2.832094 1_566
Pd0 Tc0 2.832094 1_454
Pd0 Tc0 2.832094 1_555
Pd0 Tc0 2.832094 1_465
