# generated using pymatgen
data_Rb3Fe(IO3)6
_symmetry_space_group_name_H-M   'P 1'
_cell_length_a   7.01439677
_cell_length_b   7.01314181
_cell_length_c   10.61475853
_cell_angle_alpha   87.79399006
_cell_angle_beta   108.53446397
_cell_angle_gamma   107.26099267
_symmetry_Int_Tables_number   1
_chemical_formula_structural   Rb3Fe(IO3)6
_chemical_formula_sum   'Rb3 Fe1 I6 O18'
_cell_volume   471.89085799
_cell_formula_units_Z   1
loop_
 _symmetry_equiv_pos_site_id
 _symmetry_equiv_pos_as_xyz
  1  'x, y, z'
loop_
 _atom_site_type_symbol
 _atom_site_label
 _atom_site_symmetry_multiplicity
 _atom_site_fract_x
 _atom_site_fract_y
 _atom_site_fract_z
 _atom_site_occupancy
  Rb  Rb0  1  0.00000000  0.00000000  0.00000000  1
  Rb  Rb1  1  0.83447269  0.02200562  0.60173537  1
  Rb  Rb2  1  0.16552731  0.97799438  0.39826463  1
  Fe  Fe0  1  0.50000000  0.50000000  0.00000000  1
  I  I0  1  0.02655894  0.47088126  0.18774636  1
  I  I1  1  0.97344106  0.52911874  0.81225364  1
  I  I2  1  0.55405698  0.95460536  0.18706922  1
  I  I3  1  0.44594302  0.04539464  0.81293078  1
  I  I4  1  0.40517817  0.54805214  0.64030909  1
  I  I5  1  0.59482183  0.45194786  0.35969091  1
  O  O0  1  0.81586320  0.53511388  0.05100304  1
  O  O1  1  0.18413680  0.46488612  0.94899696  1
  O  O2  1  0.96262025  0.54828939  0.32534557  1
  O  O3  1  0.03737975  0.45171061  0.67465443  1
  O  O4  1  0.91785046  0.20173725  0.18621761  1
  O  O5  1  0.08214954  0.79826275  0.81378239  1
  O  O6  1  0.56623248  0.80147870  0.05263875  1
  O  O7  1  0.43376752  0.19852130  0.94736125  1
  O  O8  1  0.28572323  0.83979874  0.18581127  1
  O  O9  1  0.71427677  0.16020126  0.81418873  1
  O  O10  1  0.69373579  0.84038146  0.32736411  1
  O  O11  1  0.30626421  0.15961854  0.67263589  1
  O  O12  1  0.51454067  0.58636824  0.82316780  1
  O  O13  1  0.48545933  0.41363176  0.17683220  1
  O  O14  1  0.66041233  0.56719613  0.62119703  1
  O  O15  1  0.33958767  0.43280387  0.37880297  1
  O  O16  1  0.40941151  0.80459620  0.61137986  1
  O  O17  1  0.59058849  0.19540380  0.38862014  1
loop_
_geom_bond_atom_site_label_1
_geom_bond_atom_site_label_2
_geom_bond_distance
_geom_bond_site_symmetry_2
Fe0 O13 1.974350 1_555
Fe0 O12 1.974350 1_554
Fe0 O0 2.046089 1_555
Fe0 O1 2.046089 1_554
Fe0 O6 2.083589 1_555
Fe0 O7 2.083589 1_554
I0 O2 1.803093 1_455
I0 O4 1.812422 1_455
I0 O0 1.864116 1_455
I0 O8 2.688407 1_555
I1 O3 1.803093 1_655
I1 O5 1.812422 1_655
I1 O1 1.864116 1_655
I1 O9 2.688407 1_555
I2 O10 1.807122 1_555
I2 O8 1.810145 1_555
I2 O6 1.856504 1_555
I2 O4 2.627626 1_565
I2 O17 2.677210 1_565
I3 O11 1.807122 1_555
I3 O9 1.810145 1_555
I3 O7 1.856504 1_555
I3 O5 2.627626 1_545
I3 O16 2.677210 1_545
I4 O16 1.806595 1_555
I4 O14 1.830456 1_555
I4 O12 1.843737 1_555
I4 O3 2.605716 1_555
I4 O11 2.641554 1_555
I5 O17 1.806595 1_555
I5 O15 1.830456 1_555
I5 O13 1.843737 1_555
I5 O2 2.605716 1_555
I5 O10 2.641554 1_555
O0 Rb0 3.224998 1_665
O1 Rb0 3.224998 1_556
O2 Rb2 2.939438 1_655
O3 Rb1 2.939438 1_455
O4 Rb0 2.768417 1_655
O4 Rb2 3.067005 1_645
O5 Rb0 2.768417 1_566
O5 Rb1 3.067005 1_465
O6 Rb0 3.164665 1_665
O7 Rb0 3.164665 1_556
O8 Rb0 2.796740 1_565
O8 Rb2 2.932191 1_555
O9 Rb0 2.796740 1_656
O9 Rb1 2.932191 1_555
O10 Rb1 2.964881 1_565
O10 Rb2 3.004438 1_655
O11 Rb2 2.964881 1_545
O11 Rb1 3.004438 1_455
O14 Rb1 3.083132 1_565
O15 Rb2 3.083132 1_545
O16 Rb2 2.843451 1_555
O16 Rb1 2.951115 1_565
O17 Rb1 2.843451 1_555
O17 Rb2 2.951115 1_545
