# generated using pymatgen
data_Ga2GeBr8
_symmetry_space_group_name_H-M   'P 1'
_cell_length_a   7.15498702
_cell_length_b   7.59559824
_cell_length_c   13.93214552
_cell_angle_alpha   87.39973128
_cell_angle_beta   90.00000000
_cell_angle_gamma   90.00000000
_symmetry_Int_Tables_number   1
_chemical_formula_structural   Ga2GeBr8
_chemical_formula_sum   'Ga4 Ge2 Br16'
_cell_volume   756.38244176
_cell_formula_units_Z   2
loop_
 _symmetry_equiv_pos_site_id
 _symmetry_equiv_pos_as_xyz
  1  'x, y, z'
loop_
 _atom_site_type_symbol
 _atom_site_label
 _atom_site_symmetry_multiplicity
 _atom_site_fract_x
 _atom_site_fract_y
 _atom_site_fract_z
 _atom_site_occupancy
  Ga  Ga0  1  0.93507225  0.21792053  0.57880324  1
  Ga  Ga1  1  0.06492775  0.21792053  0.07880324  1
  Ga  Ga2  1  0.57083070  0.64183933  0.77684109  1
  Ga  Ga3  1  0.42916930  0.64183933  0.27684109  1
  Ge  Ge0  1  0.76092974  0.06935382  0.80895303  1
  Ge  Ge1  1  0.23907026  0.06935382  0.30895303  1
  Br  Br0  1  0.42460155  0.61516327  0.63325069  1
  Br  Br1  1  0.57539845  0.61516327  0.13325069  1
  Br  Br2  1  0.88726779  0.74452158  0.75946763  1
  Br  Br3  1  0.11273221  0.74452158  0.25946763  1
  Br  Br4  1  0.93075284  0.48012988  0.49375007  1
  Br  Br5  1  0.06924716  0.48012988  0.99375007  1
  Br  Br6  1  0.92909813  0.98330390  0.99979040  1
  Br  Br7  1  0.07090187  0.98330390  0.49979040  1
  Br  Br8  1  0.62597044  0.12538248  0.62669255  1
  Br  Br9  1  0.37402956  0.12538248  0.12669255  1
  Br  Br10  1  0.56955804  0.38561789  0.87781628  1
  Br  Br11  1  0.43044196  0.38561789  0.37781628  1
  Br  Br12  1  0.43939119  0.87306284  0.86519222  1
  Br  Br13  1  0.56060881  0.87306284  0.36519222  1
  Br  Br14  1  0.91705891  0.23110448  0.23164380  1
  Br  Br15  1  0.08294109  0.23110448  0.73164380  1
loop_
_geom_bond_atom_site_label_1
_geom_bond_atom_site_label_2
_geom_bond_distance
_geom_bond_site_symmetry_2
Br0 Ga2 2.274775 1_555
Br1 Ga3 2.274775 1_555
Br2 Ga2 2.403314 1_555
Br2 Ge0 2.744874 1_565
Br3 Ga3 2.403314 1_555
Br3 Ge1 2.744874 1_565
Br4 Ga0 2.271034 1_555
Br5 Ga1 2.271034 1_556
Br6 Ga1 2.347344 1_666
Br6 Ge0 2.964184 1_565
Br7 Ga0 2.347344 1_465
Br7 Ge1 2.964184 1_565
Br8 Ga0 2.405807 1_555
Br8 Ge0 2.731931 1_555
Br9 Ga1 2.405807 1_555
Br9 Ge1 2.731931 1_555
Br10 Ga2 2.349100 1_555
Br10 Ge0 2.962281 1_555
Br11 Ga3 2.349100 1_555
Br11 Ge1 2.962281 1_555
Br12 Ga2 2.383335 1_555
Br12 Ge0 2.832601 1_565
Br13 Ga3 2.383335 1_555
Br13 Ge1 2.832601 1_565
Br14 Ga1 2.383919 1_655
Br14 Ge1 2.803183 1_655
Br15 Ga0 2.383919 1_455
Br15 Ge0 2.803183 1_455
