# generated using pymatgen
data_Rb8Y6RhBr20
_symmetry_space_group_name_H-M   'P 1'
_cell_length_a   12.15306755
_cell_length_b   12.15306812
_cell_length_c   12.15306804
_cell_angle_alpha   60.00000021
_cell_angle_beta   59.99999865
_cell_angle_gamma   59.99999918
_symmetry_Int_Tables_number   1
_chemical_formula_structural   Rb8Y6RhBr20
_chemical_formula_sum   'Rb8 Y6 Rh1 Br20'
_cell_volume   1269.23713157
_cell_formula_units_Z   1
loop_
 _symmetry_equiv_pos_site_id
 _symmetry_equiv_pos_as_xyz
  1  'x, y, z'
loop_
 _atom_site_type_symbol
 _atom_site_label
 _atom_site_symmetry_multiplicity
 _atom_site_fract_x
 _atom_site_fract_y
 _atom_site_fract_z
 _atom_site_occupancy
  Rb  Rb0  1  0.35894145  0.35894145  0.35894145  1
  Rb  Rb1  1  0.64105855  0.64105855  0.64105855  1
  Rb  Rb2  1  0.35894145  0.35894145  0.92317565  1
  Rb  Rb3  1  0.35894145  0.92317565  0.35894145  1
  Rb  Rb4  1  0.64105855  0.64105855  0.07682435  1
  Rb  Rb5  1  0.64105855  0.07682435  0.64105855  1
  Rb  Rb6  1  0.92317565  0.35894145  0.35894145  1
  Rb  Rb7  1  0.07682435  0.64105855  0.64105855  1
  Y  Y0  1  0.84123240  0.15876760  0.15876760  1
  Y  Y1  1  0.15876760  0.84123240  0.84123240  1
  Y  Y2  1  0.15876760  0.84123240  0.15876760  1
  Y  Y3  1  0.84123240  0.15876760  0.84123240  1
  Y  Y4  1  0.15876760  0.15876760  0.84123240  1
  Y  Y5  1  0.84123240  0.84123240  0.15876760  1
  Rh  Rh0  1  0.00000000  0.00000000  0.00000000  1
  Br  Br0  1  0.33626635  0.00000000  0.00000000  1
  Br  Br1  1  0.66373365  1.00000000  1.00000000  1
  Br  Br2  1  1.00000000  0.33626635  0.66373365  1
  Br  Br3  1  0.00000000  0.66373365  0.33626635  1
  Br  Br4  1  1.00000000  0.33626635  1.00000000  1
  Br  Br5  1  0.66373365  1.00000000  0.33626635  1
  Br  Br6  1  0.00000000  0.66373365  0.00000000  1
  Br  Br7  1  0.33626635  0.00000000  0.66373365  1
  Br  Br8  1  0.00000000  0.00000000  0.33626635  1
  Br  Br9  1  0.00000000  0.00000000  0.66373365  1
  Br  Br10  1  0.66373365  0.33626635  1.00000000  1
  Br  Br11  1  0.33626635  0.66373365  0.00000000  1
  Br  Br12  1  0.67521387  0.32478613  0.32478613  1
  Br  Br13  1  0.32478613  0.67521387  0.67521387  1
  Br  Br14  1  0.32478613  0.67521387  0.32478613  1
  Br  Br15  1  0.67521387  0.32478613  0.67521387  1
  Br  Br16  1  0.32478613  0.32478613  0.67521387  1
  Br  Br17  1  0.67521387  0.67521387  0.32478613  1
  Br  Br18  1  0.25000000  0.25000000  0.25000000  1
  Br  Br19  1  0.75000000  0.75000000  0.75000000  1
loop_
_geom_bond_atom_site_label_1
_geom_bond_atom_site_label_2
_geom_bond_distance
_geom_bond_site_symmetry_2
Rh0 Y4 2.728744 1_554
Rh0 Y5 2.728744 1_445
Rh0 Y2 2.728744 1_545
Rh0 Y0 2.728744 1_455
Rh0 Y1 2.728744 1_544
Rh0 Y3 2.728744 1_454
Br0 Y2 2.894190 1_545
Br0 Y4 2.894190 1_554
Br1 Y3 2.894190 1_565
Br1 Y5 2.894190 1_556
Br2 Y3 2.894190 1_555
Br2 Y4 2.894190 1_655
Br3 Y2 2.894190 1_555
Br3 Y5 2.894190 1_455
Br4 Y0 2.894190 1_556
Br4 Y4 2.894190 1_655
Br5 Y0 2.894190 1_565
Br5 Y5 2.894190 1_555
Br6 Y1 2.894190 1_554
Br6 Y5 2.894190 1_455
Br7 Y1 2.894190 1_545
Br7 Y4 2.894190 1_555
Br8 Y2 2.894190 1_545
Br8 Y0 2.894190 1_455
Br9 Y3 2.894190 1_455
Br9 Y1 2.894190 1_545
Br10 Y3 2.894190 1_555
Br10 Y0 2.894190 1_556
Br11 Y2 2.894190 1_555
Br11 Y1 2.894190 1_554
Br12 Y0 2.853366 1_555
Br12 Rb0 3.478479 1_555
Br12 Rb6 3.478480 1_555
Br12 Rb5 3.478480 1_555
Br12 Rb4 3.478480 1_555
Br13 Y1 2.853366 1_555
Br13 Rb1 3.478479 1_555
Br13 Rb7 3.478480 1_555
Br13 Rb3 3.478480 1_555
Br13 Rb2 3.478480 1_555
Br14 Y2 2.853366 1_555
Br14 Rb4 3.478479 1_555
Br14 Rb7 3.478480 1_555
Br14 Rb3 3.478480 1_555
Br14 Rb0 3.478480 1_555
Br15 Y3 2.853366 1_555
Br15 Rb2 3.478479 1_555
Br15 Rb6 3.478480 1_555
Br15 Rb5 3.478480 1_555
Br15 Rb1 3.478480 1_555
Br16 Y4 2.853366 1_555
Br16 Rb5 3.478479 1_555
Br16 Rb7 3.478480 1_555
Br16 Rb2 3.478480 1_555
Br16 Rb0 3.478480 1_555
Br17 Y5 2.853366 1_555
Br17 Rb3 3.478479 1_555
Br17 Rb6 3.478480 1_555
Br17 Rb4 3.478480 1_555
Br17 Rb1 3.478480 1_555
Br18 Rb6 3.243058 1_455
Br18 Rb0 3.243058 1_555
Br18 Rb2 3.243058 1_554
Br18 Rb3 3.243058 1_545
Br19 Rb7 3.243058 1_655
Br19 Rb4 3.243058 1_556
Br19 Rb1 3.243058 1_555
Br19 Rb5 3.243058 1_565
