# generated using pymatgen
data_Y5VMoO12
_symmetry_space_group_name_H-M   'P 1'
_cell_length_a   6.70334819
_cell_length_b   6.70334914
_cell_length_c   7.43231989
_cell_angle_alpha   73.82425406
_cell_angle_beta   73.82425105
_cell_angle_gamma   50.56536009
_symmetry_Int_Tables_number   1
_chemical_formula_structural   Y5VMoO12
_chemical_formula_sum   'Y5 V1 Mo1 O12'
_cell_volume   245.39438361
_cell_formula_units_Z   1
loop_
 _symmetry_equiv_pos_site_id
 _symmetry_equiv_pos_as_xyz
  1  'x, y, z'
loop_
 _atom_site_type_symbol
 _atom_site_label
 _atom_site_symmetry_multiplicity
 _atom_site_fract_x
 _atom_site_fract_y
 _atom_site_fract_z
 _atom_site_occupancy
  Y  Y0  1  0.31644412  0.29971233  0.35967152  1
  Y  Y1  1  0.70028767  0.68355588  0.64032848  1
  Y  Y2  1  0.31779692  0.31130273  0.82459715  1
  Y  Y3  1  0.68869727  0.68220308  0.17540285  1
  Y  Y4  1  0.00418144  0.99581856  0.50000000  1
  V  V0  1  0.77091791  0.22908209  0.00000000  1
  Mo  Mo0  1  0.21092146  0.78907854  1.00000000  1
  O  O0  1  0.90350192  0.41502942  0.92114902  1
  O  O1  1  0.42010857  0.90191079  0.92049465  1
  O  O2  1  0.09808921  0.57989143  0.07950535  1
  O  O3  1  0.58497058  0.09649808  0.07885098  1
  O  O4  1  0.10253473  0.58962144  0.57588365  1
  O  O5  1  0.59760604  0.09087381  0.57783673  1
  O  O6  1  0.90912619  0.40239396  0.42216327  1
  O  O7  1  0.41037856  0.89746527  0.42411635  1
  O  O8  1  0.98960227  0.01214982  0.80211716  1
  O  O9  1  0.98785018  0.01039773  0.19788284  1
  O  O10  1  0.49394276  0.50695383  0.81967621  1
  O  O11  1  0.49304617  0.50605724  0.18032379  1
loop_
_geom_bond_atom_site_label_1
_geom_bond_atom_site_label_2
_geom_bond_distance
_geom_bond_site_symmetry_2
Mo0 O1 1.877299 1_555
Mo0 O2 1.877299 1_556
Mo0 O9 1.942199 1_466
Mo0 O8 1.942199 1_465
Mo0 O10 2.099886 1_555
Mo0 O11 2.099886 1_556
O0 V0 1.843142 1_556
O0 Y2 2.329278 1_655
O0 Y1 2.414073 1_555
O0 Y3 2.438302 1_556
O1 Y2 2.302398 1_565
O1 Y3 2.444843 1_556
O1 Y1 2.456128 1_555
O2 Y3 2.302398 1_455
O2 Y2 2.444844 1_554
O2 Y0 2.456128 1_555
O3 V0 1.843142 1_555
O3 Y3 2.329279 1_545
O3 Y0 2.414073 1_555
O3 Y2 2.438302 1_554
O4 Y2 2.263741 1_555
O4 Y1 2.277717 1_455
O4 Y4 2.288621 1_555
O4 Y0 2.308920 1_555
O5 Y2 2.266574 1_555
O5 Y0 2.286317 1_555
O5 Y1 2.286605 1_545
O5 Y4 2.299850 1_645
O6 Y3 2.266574 1_555
O6 Y1 2.286317 1_555
O6 Y0 2.286605 1_655
O6 Y4 2.299850 1_645
O7 Y3 2.263741 1_555
O7 Y0 2.277717 1_565
O7 Y4 2.288621 1_555
O7 Y1 2.308920 1_555
O8 V0 1.925838 1_556
O8 Y4 2.250467 1_645
O9 V0 1.925838 1_555
O9 Y4 2.250467 1_645
O10 V0 2.077252 1_556
O10 Y2 2.243250 1_555
O10 Y1 2.294608 1_555
O11 V0 2.077252 1_555
O11 Y3 2.243250 1_555
O11 Y0 2.294608 1_555
