# generated using pymatgen
data_Sn6Ir3RhSe6
_symmetry_space_group_name_H-M   'P 1'
_cell_length_a   9.02230333
_cell_length_b   9.02164836
_cell_length_c   9.02148660
_cell_angle_alpha   89.93812709
_cell_angle_beta   89.94156423
_cell_angle_gamma   89.88731834
_symmetry_Int_Tables_number   1
_chemical_formula_structural   Sn6Ir3RhSe6
_chemical_formula_sum   'Sn12 Ir6 Rh2 Se12'
_cell_volume   734.31112850
_cell_formula_units_Z   2
loop_
 _symmetry_equiv_pos_site_id
 _symmetry_equiv_pos_as_xyz
  1  'x, y, z'
loop_
 _atom_site_type_symbol
 _atom_site_label
 _atom_site_symmetry_multiplicity
 _atom_site_fract_x
 _atom_site_fract_y
 _atom_site_fract_z
 _atom_site_occupancy
  Sn  Sn0  1  0.50063238  0.34986640  0.16702856  1
  Sn  Sn1  1  0.16812911  0.50099375  0.35055914  1
  Sn  Sn2  1  0.35066585  0.16743541  0.50080611  1
  Sn  Sn3  1  0.49735767  0.65087898  0.83394939  1
  Sn  Sn4  1  0.83359066  0.49798181  0.65123943  1
  Sn  Sn5  1  0.64983796  0.83232721  0.49907745  1
  Sn  Sn6  1  0.99849145  0.84941135  0.33342449  1
  Sn  Sn7  1  0.33373874  0.99682114  0.84922959  1
  Sn  Sn8  1  0.84911190  0.33368999  0.99627968  1
  Sn  Sn9  1  0.00008396  0.15148751  0.66718007  1
  Sn  Sn10  1  0.66762350  0.00117332  0.15001102  1
  Sn  Sn11  1  0.15228824  0.66753555  0.00088897  1
  Ir  Ir0  1  0.24602842  0.24619886  0.24609514  1
  Ir  Ir1  1  0.75284590  0.75338531  0.75414697  1
  Ir  Ir2  1  0.74604466  0.74469635  0.24494050  1
  Ir  Ir3  1  0.75552075  0.25437106  0.25336403  1
  Ir  Ir4  1  0.25539130  0.75573501  0.25489129  1
  Ir  Ir5  1  0.25414174  0.25404544  0.75561397  1
  Rh  Rh0  1  0.24409818  0.74546577  0.74467743  1
  Rh  Rh1  1  0.74400962  0.24488502  0.74477881  1
  Se  Se0  1  0.65305917  0.99774063  0.85142993  1
  Se  Se1  1  0.85206655  0.65338641  0.99832002  1
  Se  Se2  1  0.99662577  0.85221876  0.65414417  1
  Se  Se3  1  0.34712336  0.00171536  0.14871923  1
  Se  Se4  1  0.14862878  0.34689742  0.00160799  1
  Se  Se5  1  0.00168430  0.14879296  0.34678093  1
  Se  Se6  1  0.15340060  0.49863137  0.64996261  1
  Se  Se7  1  0.65000625  0.15329019  0.49806365  1
  Se  Se8  1  0.49993054  0.64937445  0.15369299  1
  Se  Se9  1  0.84728770  0.49971738  0.35091222  1
  Se  Se10  1  0.35136261  0.84834291  0.50045865  1
  Se  Se11  1  0.49919140  0.35150790  0.84772557  1
loop_
_geom_bond_atom_site_label_1
_geom_bond_atom_site_label_2
_geom_bond_distance
_geom_bond_site_symmetry_2
Ir0 Se4 2.541431 1_555
Ir0 Se5 2.541483 1_555
Ir0 Se3 2.542276 1_555
Ir0 Sn1 2.581276 1_555
Ir0 Sn0 2.581451 1_555
Ir0 Sn2 2.583537 1_555
Ir1 Se0 2.536794 1_555
Ir1 Se2 2.539385 1_555
Ir1 Se1 2.542472 1_555
Ir1 Sn5 2.581520 1_555
Ir1 Sn3 2.586606 1_555
Ir1 Sn4 2.588127 1_555
Ir2 Se8 2.522029 1_555
Ir2 Se1 2.557386 1_554
Ir2 Sn10 2.564846 1_565
Ir2 Se9 2.573372 1_555
Ir2 Sn5 2.575275 1_555
Ir2 Sn6 2.594450 1_555
Ir3 Se9 2.524305 1_555
Ir3 Se5 2.558108 1_655
Ir3 Sn8 2.568844 1_554
Ir3 Se7 2.570202 1_555
Ir3 Sn0 2.575230 1_555
Ir3 Sn10 2.594100 1_555
Ir4 Se10 2.523182 1_555
Ir4 Se3 2.555005 1_565
Ir4 Sn6 2.564905 1_455
Ir4 Se8 2.571279 1_555
Ir4 Sn1 2.578341 1_555
Ir4 Sn11 2.600104 1_555
Ir5 Se11 2.522847 1_555
Ir5 Se4 2.555290 1_556
Ir5 Se6 2.567659 1_555
Ir5 Sn7 2.569938 1_545
Ir5 Sn2 2.578817 1_555
Ir5 Sn9 2.600067 1_555
Rh0 Se6 2.524146 1_555
Rh0 Sn11 2.553022 1_556
Rh0 Se2 2.563872 1_455
Rh0 Sn3 2.567593 1_555
Rh0 Se10 2.578163 1_555
Rh0 Sn7 2.588307 1_555
Rh1 Se7 2.523220 1_555
Rh1 Sn9 2.555040 1_655
Rh1 Se0 2.563471 1_545
Rh1 Sn4 2.565294 1_555
Rh1 Se11 2.579945 1_555
Rh1 Sn8 2.588501 1_555
Se0 Sn10 2.697197 1_566
Se0 Sn7 2.881123 1_555
Se1 Sn11 2.712072 1_656
Se1 Sn8 2.884443 1_555
Se2 Sn9 2.702827 1_665
Se2 Sn6 2.893538 1_555
Se3 Sn7 2.705074 1_544
Se3 Sn10 2.891679 1_555
Se4 Sn8 2.705670 1_454
Se4 Sn11 2.892938 1_555
Se5 Sn6 2.703943 1_445
Se5 Sn9 2.890626 1_555
Se6 Sn1 2.704259 1_555
Se6 Sn4 2.885451 1_455
Se7 Sn2 2.703592 1_555
Se7 Sn5 2.895623 1_545
Se8 Sn0 2.704599 1_555
Se8 Sn3 2.884697 1_554
Se9 Sn4 2.712119 1_555
Se9 Sn1 2.894773 1_655
Se10 Sn5 2.696542 1_555
Se10 Sn2 2.878740 1_565
Se11 Sn3 2.703563 1_555
Se11 Sn0 2.880652 1_556
