# generated using pymatgen
data_Ti4MnSe8
_symmetry_space_group_name_H-M   'P 1'
_cell_length_a   7.20554453
_cell_length_b   7.20554469
_cell_length_c   8.77943325
_cell_angle_alpha   52.36761539
_cell_angle_beta   52.36761424
_cell_angle_gamma   60.04647411
_symmetry_Int_Tables_number   1
_chemical_formula_structural   Ti4MnSe8
_chemical_formula_sum   'Ti4 Mn1 Se8'
_cell_volume   280.01087230
_cell_formula_units_Z   1
loop_
 _symmetry_equiv_pos_site_id
 _symmetry_equiv_pos_as_xyz
  1  'x, y, z'
loop_
 _atom_site_type_symbol
 _atom_site_label
 _atom_site_symmetry_multiplicity
 _atom_site_fract_x
 _atom_site_fract_y
 _atom_site_fract_z
 _atom_site_occupancy
  Ti  Ti0  1  0.26211959  0.73788041  0.50000000  1
  Ti  Ti1  1  0.73788041  0.26211959  0.50000000  1
  Ti  Ti2  1  0.25497400  0.25497400  0.99156624  1
  Ti  Ti3  1  0.74502600  0.74502600  0.00843376  1
  Mn  Mn0  1  0.00000000  0.00000000  0.00000000  1
  Se  Se0  1  0.96497988  0.96497988  0.33378024  1
  Se  Se1  1  0.03502012  0.03502012  0.66621976  1
  Se  Se2  1  0.46018490  0.46018490  0.33225038  1
  Se  Se3  1  0.53981510  0.53981510  0.66774962  1
  Se  Se4  1  0.04007789  0.53622671  0.16995635  1
  Se  Se5  1  0.53622671  0.04007789  0.16995635  1
  Se  Se6  1  0.95992211  0.46377329  0.83004365  1
  Se  Se7  1  0.46377329  0.95992211  0.83004365  1
loop_
_geom_bond_atom_site_label_1
_geom_bond_atom_site_label_2
_geom_bond_distance
_geom_bond_site_symmetry_2
Mn0 Se7 2.636360 1_544
Mn0 Se5 2.636360 1_455
Mn0 Se6 2.636360 1_454
Mn0 Se4 2.636360 1_545
Mn0 Se0 2.640486 1_445
Mn0 Se1 2.640486 1_554
Se0 Ti2 2.605040 1_664
Se0 Ti0 2.606180 1_655
Se0 Ti1 2.606180 1_565
Se1 Ti3 2.605040 1_446
Se1 Ti1 2.606180 1_455
Se1 Ti0 2.606180 1_545
Se2 Ti1 2.527815 1_555
Se2 Ti0 2.527815 1_555
Se2 Ti3 2.542191 1_555
Se3 Ti0 2.527815 1_555
Se3 Ti1 2.527815 1_555
Se3 Ti2 2.542191 1_555
Se4 Ti1 2.576685 1_455
Se4 Ti3 2.583906 1_455
Se4 Ti2 2.595844 1_554
Se5 Ti0 2.576685 1_545
Se5 Ti3 2.583906 1_545
Se5 Ti2 2.595844 1_554
Se6 Ti0 2.576685 1_655
Se6 Ti2 2.583906 1_655
Se6 Ti3 2.595844 1_556
Se7 Ti1 2.576685 1_565
Se7 Ti2 2.583906 1_565
Se7 Ti3 2.595844 1_556
