# generated using pymatgen
data_KFeIO6
_symmetry_space_group_name_H-M   'P 1'
_cell_length_a   5.00951870
_cell_length_b   5.00951892
_cell_length_c   11.97548524
_cell_angle_alpha   90.00000000
_cell_angle_beta   90.00000000
_cell_angle_gamma   120.00001016
_symmetry_Int_Tables_number   1
_chemical_formula_structural   KFeIO6
_chemical_formula_sum   'K2 Fe2 I2 O12'
_cell_volume   260.26497699
_cell_formula_units_Z   2
loop_
 _symmetry_equiv_pos_site_id
 _symmetry_equiv_pos_as_xyz
  1  'x, y, z'
loop_
 _atom_site_type_symbol
 _atom_site_label
 _atom_site_symmetry_multiplicity
 _atom_site_fract_x
 _atom_site_fract_y
 _atom_site_fract_z
 _atom_site_occupancy
  K  K0  1  0.00000000  0.00000000  0.00000000  1
  K  K1  1  0.00000000  0.00000000  0.50000000  1
  Fe  Fe0  1  0.66666700  0.33333300  0.25000000  1
  Fe  Fe1  1  0.33333300  0.66666700  0.75000000  1
  I  I0  1  0.33333300  0.66666700  0.25000000  1
  I  I1  1  0.66666700  0.33333300  0.75000000  1
  O  O0  1  0.99822652  0.38489034  0.33901959  1
  O  O1  1  0.38666383  0.38489034  0.16098041  1
  O  O2  1  0.61333617  0.99822652  0.83901959  1
  O  O3  1  0.00177348  0.61510966  0.83901959  1
  O  O4  1  0.61510966  0.00177348  0.16098041  1
  O  O5  1  0.38489034  0.38666383  0.83901959  1
  O  O6  1  0.38489034  0.99822652  0.66098041  1
  O  O7  1  0.99822652  0.61333617  0.16098041  1
  O  O8  1  0.61510966  0.61333617  0.33901959  1
  O  O9  1  0.00177348  0.38666383  0.66098041  1
  O  O10  1  0.61333617  0.61510966  0.66098041  1
  O  O11  1  0.38666383  0.00177348  0.33901959  1
loop_
_geom_bond_atom_site_label_1
_geom_bond_atom_site_label_2
_geom_bond_distance
_geom_bond_site_symmetry_2
K0 O1 2.729711 1_555
K0 O5 2.729711 1_554
K0 O2 2.729711 1_444
K0 O4 2.729711 1_455
K0 O7 2.729711 1_445
K0 O3 2.729711 1_544
K1 O10 2.729711 1_445
K1 O8 2.729711 1_445
K1 O11 2.729711 1_555
K1 O6 2.729711 1_545
K1 O9 2.729711 1_555
K1 O0 2.729711 1_455
Fe0 O0 1.879616 1_555
Fe0 O4 1.879616 1_555
Fe0 O7 1.879617 1_555
Fe0 O11 1.879617 1_555
Fe0 O1 1.879620 1_555
Fe0 O8 1.879620 1_555
Fe1 O3 1.879616 1_555
Fe1 O6 1.879616 1_555
Fe1 O9 1.879617 1_555
Fe1 O2 1.879617 1_555
Fe1 O10 1.879620 1_555
Fe1 O5 1.879620 1_555
I0 O7 1.891418 1_455
I0 O11 1.891418 1_565
I0 O0 1.891419 1_455
I0 O4 1.891419 1_565
I0 O8 1.891422 1_555
I0 O1 1.891422 1_555
I1 O9 1.891418 1_655
I1 O2 1.891418 1_545
I1 O3 1.891419 1_655
I1 O6 1.891419 1_545
I1 O5 1.891422 1_555
I1 O10 1.891422 1_555
