# generated using pymatgen
data_Rb6InTe4I
_symmetry_space_group_name_H-M   'P 1'
_cell_length_a   11.79976709
_cell_length_b   11.79976675
_cell_length_c   8.71314203
_cell_angle_alpha   90.00000000
_cell_angle_beta   90.00000000
_cell_angle_gamma   120.00000095
_symmetry_Int_Tables_number   1
_chemical_formula_structural   Rb6InTe4I
_chemical_formula_sum   'Rb12 In2 Te8 I2'
_cell_volume   1050.63600211
_cell_formula_units_Z   2
loop_
 _symmetry_equiv_pos_site_id
 _symmetry_equiv_pos_as_xyz
  1  'x, y, z'
loop_
 _atom_site_type_symbol
 _atom_site_label
 _atom_site_symmetry_multiplicity
 _atom_site_fract_x
 _atom_site_fract_y
 _atom_site_fract_z
 _atom_site_occupancy
  Rb  Rb0  1  0.13884964  0.86115036  0.51447674  1
  Rb  Rb1  1  0.72229973  0.86115036  0.51447674  1
  Rb  Rb2  1  0.95173587  0.47586843  0.32145390  1
  Rb  Rb3  1  0.52413157  0.47586843  0.32145390  1
  Rb  Rb4  1  0.86115036  0.72229973  0.01447674  1
  Rb  Rb5  1  0.27770027  0.13884964  0.01447674  1
  Rb  Rb6  1  0.52413157  0.04826413  0.32145390  1
  Rb  Rb7  1  0.13884964  0.27770027  0.51447674  1
  Rb  Rb8  1  0.86115036  0.13884964  0.01447674  1
  Rb  Rb9  1  0.04826413  0.52413157  0.82145390  1
  Rb  Rb10  1  0.47586843  0.95173587  0.82145390  1
  Rb  Rb11  1  0.47586843  0.52413157  0.82145390  1
  In  In0  1  0.66666700  0.33333300  0.70666428  1
  In  In1  1  0.33333300  0.66666700  0.20666428  1
  Te  Te0  1  0.40553725  0.20276963  0.60651051  1
  Te  Te1  1  0.59446275  0.79723037  0.10651051  1
  Te  Te2  1  0.66666700  0.33333300  0.03610959  1
  Te  Te3  1  0.79723037  0.59446275  0.60651051  1
  Te  Te4  1  0.20276963  0.40553725  0.10651051  1
  Te  Te5  1  0.33333300  0.66666700  0.53610959  1
  Te  Te6  1  0.20276963  0.79723037  0.10651051  1
  Te  Te7  1  0.79723037  0.20276963  0.60651051  1
  I  I0  1  0.00000000  0.00000000  0.27050369  1
  I  I1  1  0.00000000  0.00000000  0.77050369  1
loop_
_geom_bond_atom_site_label_1
_geom_bond_atom_site_label_2
_geom_bond_distance
_geom_bond_site_symmetry_2
Rb0 Te0 3.756310 1_565
Rb0 Te3 3.756310 1_455
Rb0 Te6 3.787123 1_555
Rb0 Te5 3.979278 1_555
Rb1 Te3 3.756302 1_555
Rb1 Te7 3.756313 1_565
Rb1 Te1 3.787112 1_555
Rb1 Te5 3.979278 1_555
Rb2 Te7 3.741957 1_555
Rb2 Te3 3.741964 1_555
Rb2 Te2 3.829818 1_555
Rb2 Te6 3.927924 1_655
Rb2 Te4 3.927945 1_655
Rb3 Te0 3.741956 1_555
Rb3 Te3 3.741956 1_555
Rb3 Te2 3.829834 1_555
Rb3 Te1 3.927914 1_555
Rb3 Te4 3.927914 1_555
Rb4 Te1 3.756302 1_555
Rb4 Te6 3.756313 1_655
Rb4 Te3 3.787112 1_554
Rb4 Te2 3.979278 1_555
Rb5 Te4 3.756302 1_555
Rb5 Te6 3.756313 1_545
Rb5 Te0 3.787112 1_554
Rb5 Te2 3.979278 1_555
Rb6 Te7 3.741957 1_555
Rb6 Te0 3.741964 1_555
Rb6 Te2 3.829818 1_555
Rb6 Te6 3.927924 1_545
Rb6 Te1 3.927944 1_545
Rb7 Te0 3.756302 1_555
Rb7 Te7 3.756313 1_455
Rb7 Te4 3.787112 1_555
Rb7 Te5 3.979278 1_555
Rb8 Te1 3.756310 1_545
Rb8 Te4 3.756310 1_655
Rb8 Te7 3.787123 1_554
Rb8 Te2 3.979278 1_555
Rb9 Te6 3.741957 1_556
Rb9 Te4 3.741964 1_556
Rb9 Te5 3.829818 1_555
Rb9 Te7 3.927924 1_455
Rb9 Te3 3.927945 1_455
Rb10 Te6 3.741957 1_556
Rb10 Te1 3.741964 1_556
Rb10 Te5 3.829818 1_555
Rb10 Te7 3.927924 1_565
Rb10 Te0 3.927944 1_565
Rb11 Te1 3.741956 1_556
Rb11 Te4 3.741956 1_556
Rb11 Te5 3.829834 1_555
Rb11 Te0 3.927914 1_555
Rb11 Te3 3.927914 1_555
In0 Te7 2.807495 1_555
In0 Te3 2.807525 1_555
In0 Te0 2.807525 1_555
In0 Te2 2.870504 1_556
In1 Te6 2.807495 1_555
In1 Te4 2.807525 1_555
In1 Te1 2.807525 1_555
In1 Te5 2.870504 1_555
I0 Rb0 3.545688 1_545
I0 Rb7 3.545696 1_555
I0 Rb1 3.545696 1_445
I0 Rb8 3.609635 1_455
I0 Rb4 3.609643 1_445
I0 Rb5 3.609643 1_555
I1 Rb8 3.545688 1_456
I1 Rb4 3.545696 1_446
I1 Rb5 3.545696 1_556
I1 Rb0 3.609635 1_545
I1 Rb7 3.609643 1_555
I1 Rb1 3.609643 1_445
