# generated using pymatgen
data_Ti(PdPt)4
_symmetry_space_group_name_H-M   'P 1'
_cell_length_a   6.17840133
_cell_length_b   6.17840150
_cell_length_c   6.21907003
_cell_angle_alpha   95.50818057
_cell_angle_beta   95.85940831
_cell_angle_gamma   143.18939297
_symmetry_Int_Tables_number   1
_chemical_formula_structural   Ti(PdPt)4
_chemical_formula_sum   'Ti1 Pd4 Pt4'
_cell_volume   135.06284809
_cell_formula_units_Z   1
loop_
 _symmetry_equiv_pos_site_id
 _symmetry_equiv_pos_as_xyz
  1  'x, y, z'
loop_
 _atom_site_type_symbol
 _atom_site_label
 _atom_site_symmetry_multiplicity
 _atom_site_fract_x
 _atom_site_fract_y
 _atom_site_fract_z
 _atom_site_occupancy
  Ti  Ti0  1  0.00481824  0.00202409  0.00684233  1
  Pd  Pd0  1  0.33453586  0.66257725  0.99711311  1
  Pd  Pd1  1  0.66308094  0.33479643  0.99787737  1
  Pd  Pd2  1  0.33655317  0.33823573  0.67478890  1
  Pd  Pd3  1  0.67019927  0.99954107  0.66974134  1
  Pt  Pt0  1  0.99912572  0.67222889  0.67135462  1
  Pt  Pt1  1  0.00010752  0.32858635  0.32869387  1
  Pt  Pt2  1  0.33045538  0.00027673  0.33073111  1
  Pt  Pt3  1  0.66112390  0.66173445  0.32285835  1
loop_
_geom_bond_atom_site_label_1
_geom_bond_atom_site_label_2
_geom_bond_distance
_geom_bond_site_symmetry_2
Pd0 Pd2 2.703332 1_555
Pd0 Pt3 2.712886 1_556
Pd0 Pd3 2.746383 1_555
Pd0 Pd3 2.746386 1_445
Pd0 Ti0 2.751279 1_666
Pd0 Ti0 2.751279 1_556
Pd0 Pt1 2.763951 1_556
Pd0 Pt1 2.763952 1_666
Pd0 Pt0 2.786787 1_455
Pd0 Pd1 2.804404 1_455
Pd0 Pd1 2.804404 1_565
Pd0 Pt2 2.814694 1_566
Pd1 Pd2 2.712370 1_555
Pd1 Pt3 2.724974 1_556
Pd1 Ti0 2.729452 1_556
Pd1 Ti0 2.729452 1_666
Pd1 Pt0 2.742858 1_555
Pd1 Pt0 2.742858 1_445
Pd1 Pt2 2.769269 1_556
Pd1 Pt2 2.769272 1_666
Pd1 Pd3 2.794560 1_545
Pd1 Pt1 2.799741 1_656
Pd2 Pd3 2.737809 1_555
Pd2 Pd3 2.737812 1_445
Pd2 Pt0 2.741630 1_555
Pd2 Pt0 2.741630 1_445
Pd2 Ti0 2.765984 1_556
Pd2 Ti0 2.765984 1_666
Pd2 Pt1 2.796556 1_555
Pd2 Pt2 2.817733 1_555
Pd2 Pt3 2.850360 1_555
Pd2 Pt3 2.850360 1_445
Pd3 Ti0 2.779863 1_666
Pd3 Pt1 2.803840 1_555
Pd3 Pt1 2.803843 1_665
Pd3 Pt0 2.804795 1_455
Pd3 Pt0 2.804798 1_565
Pd3 Pt3 2.817196 1_555
Pd3 Pt2 2.822182 1_565
Pt0 Ti0 2.749610 1_666
Pt0 Pt2 2.802139 1_555
Pt0 Pt2 2.802141 1_665
Pt0 Pt3 2.809739 1_555
Pt0 Pt1 2.864229 1_655
Pt1 Ti0 2.721908 1_555
Pt1 Pt3 2.738878 1_555
Pt1 Pt3 2.738878 1_445
Pt1 Pt2 2.794639 1_455
Pt1 Pt2 2.794642 1_565
Pt2 Ti0 2.704958 1_555
Pt2 Pt3 2.750905 1_555
Pt2 Pt3 2.750908 1_445
Pt3 Ti0 2.699730 1_665
Pt3 Ti0 2.699731 1_555
