# generated using pymatgen
data_LiOsBr6
_symmetry_space_group_name_H-M   'P 1'
_cell_length_a   9.79755190
_cell_length_b   9.79675686
_cell_length_c   9.79809069
_cell_angle_alpha   84.43635031
_cell_angle_beta   84.43713190
_cell_angle_gamma   84.44188083
_symmetry_Int_Tables_number   1
_chemical_formula_structural   LiOsBr6
_chemical_formula_sum   'Li4 Os4 Br24'
_cell_volume   927.98560096
_cell_formula_units_Z   4
loop_
 _symmetry_equiv_pos_site_id
 _symmetry_equiv_pos_as_xyz
  1  'x, y, z'
loop_
 _atom_site_type_symbol
 _atom_site_label
 _atom_site_symmetry_multiplicity
 _atom_site_fract_x
 _atom_site_fract_y
 _atom_site_fract_z
 _atom_site_occupancy
  Li  Li0  1  0.33329615  0.33317924  0.33317077  1
  Li  Li1  1  0.16861339  0.66887305  0.16886870  1
  Li  Li2  1  0.16887551  0.16860126  0.66885966  1
  Li  Li3  1  0.66887094  0.16886274  0.16861181  1
  Os  Os0  1  0.50351743  0.99218800  0.50365733  1
  Os  Os1  1  0.99861929  0.99866983  0.99864157  1
  Os  Os2  1  0.50367554  0.50351204  0.99219094  1
  Os  Os3  1  0.99218608  0.50366243  0.50351783  1
  Br  Br0  1  0.92730496  0.26695413  0.57200862  1
  Br  Br1  1  0.42271419  0.76951285  0.57233084  1
  Br  Br2  1  0.07712221  0.22899399  0.92349235  1
  Br  Br3  1  0.57228661  0.42265487  0.76953304  1
  Br  Br4  1  0.92352026  0.07720324  0.22897042  1
  Br  Br5  1  0.42438428  0.07848270  0.73043327  1
  Br  Br6  1  0.57204284  0.92733969  0.26695523  1
  Br  Br7  1  0.07724842  0.42505294  0.26675527  1
  Br  Br8  1  0.23283966  0.42409184  0.57623157  1
  Br  Br9  1  0.22892679  0.92361963  0.07716522  1
  Br  Br10  1  0.57621661  0.23290319  0.42409842  1
  Br  Br11  1  0.92712431  0.76495164  0.07072577  1
  Br  Br12  1  0.76952548  0.57235743  0.42272893  1
  Br  Br13  1  0.73021141  0.92696999  0.57630628  1
  Br  Br14  1  0.42502844  0.26669183  0.07739825  1
  Br  Br15  1  0.26672945  0.07723256  0.42506583  1
  Br  Br16  1  0.42413698  0.57624279  0.23282316  1
  Br  Br17  1  0.76495192  0.07069774  0.92709501  1
  Br  Br18  1  0.07854669  0.73042746  0.42434771  1
  Br  Br19  1  0.57637225  0.73020887  0.92691166  1
  Br  Br20  1  0.92695768  0.57639422  0.73020777  1
  Br  Br21  1  0.73044161  0.42435843  0.07849819  1
  Br  Br22  1  0.26694268  0.57199043  0.92736945  1
  Br  Br23  1  0.07073294  0.92708194  0.76498913  1
loop_
_geom_bond_atom_site_label_1
_geom_bond_atom_site_label_2
_geom_bond_distance
_geom_bond_site_symmetry_2
Br0 Os3 2.476522 1_555
Br0 Li2 2.692035 1_655
Br1 Os0 2.405216 1_555
Br2 Os1 2.475770 1_445
Br2 Li2 2.670420 1_555
Br3 Os2 2.405506 1_555
Br4 Os1 2.476180 1_544
Br4 Li3 2.670193 1_555
Br5 Os0 2.481181 1_545
Br5 Li2 2.677993 1_555
Br6 Os0 2.476768 1_555
Br6 Li3 2.691210 1_565
Br7 Os3 2.552738 1_455
Br7 Li1 2.688927 1_555
Br7 Li0 2.700445 1_555
Br8 Os3 2.556660 1_455
Br8 Li0 2.687135 1_555
Br8 Li2 2.689693 1_555
Br9 Os1 2.475807 1_454
Br9 Li1 2.670753 1_555
Br10 Os0 2.556856 1_545
Br10 Li0 2.685480 1_555
Br10 Li3 2.690305 1_555
Br11 Os1 2.476558 1_554
Br11 Li1 2.691251 1_655
Br12 Os3 2.405343 1_555
Br13 Os0 2.406532 1_555
Br14 Os2 2.553326 1_554
Br14 Li3 2.688719 1_555
Br14 Li0 2.697947 1_555
Br15 Os0 2.552801 1_545
Br15 Li2 2.688998 1_555
Br15 Li0 2.699725 1_555
Br16 Os2 2.556534 1_554
Br16 Li0 2.686266 1_555
Br16 Li1 2.690264 1_555
Br17 Os1 2.476461 1_545
Br17 Li3 2.691638 1_556
Br18 Os3 2.481071 1_455
Br18 Li1 2.677638 1_555
Br19 Os2 2.406538 1_555
Br20 Os3 2.406866 1_555
Br21 Os2 2.481127 1_554
Br21 Li3 2.677562 1_555
Br22 Os2 2.476821 1_555
Br22 Li1 2.691546 1_556
Br23 Os1 2.476674 1_455
Br23 Li2 2.691319 1_565
