# generated using pymatgen
data_BaPt
_symmetry_space_group_name_H-M   'P 1'
_cell_length_a   5.14513178
_cell_length_b   5.14513301
_cell_length_c   5.42432999
_cell_angle_alpha   90.00000000
_cell_angle_beta   90.00000000
_cell_angle_gamma   120.00000558
_symmetry_Int_Tables_number   1
_chemical_formula_structural   BaPt
_chemical_formula_sum   'Ba2 Pt2'
_cell_volume   124.35688022
_cell_formula_units_Z   2
loop_
 _symmetry_equiv_pos_site_id
 _symmetry_equiv_pos_as_xyz
  1  'x, y, z'
loop_
 _atom_site_type_symbol
 _atom_site_label
 _atom_site_symmetry_multiplicity
 _atom_site_fract_x
 _atom_site_fract_y
 _atom_site_fract_z
 _atom_site_occupancy
  Ba  Ba0  1  0.66666700  0.33333300  0.75000000  1
  Ba  Ba1  1  0.33333300  0.66666700  0.25000000  1
  Pt  Pt0  1  -0.00000000  0.00000000  0.50000000  1
  Pt  Pt1  1  -0.00000000  0.00000000  0.00000000  1
loop_
_geom_bond_atom_site_label_1
_geom_bond_atom_site_label_2
_geom_bond_distance
_geom_bond_site_symmetry_2
Ba0 Pt0 3.265436 1_655
Ba0 Pt1 3.265436 1_656
Ba0 Pt1 3.265439 1_556
Ba0 Pt0 3.265439 1_555
Ba0 Pt0 3.265440 1_665
Ba0 Pt1 3.265440 1_666
Ba1 Pt1 3.265436 1_565
Ba1 Pt0 3.265436 1_565
Ba1 Pt0 3.265439 1_665
Ba1 Pt1 3.265439 1_665
Ba1 Pt0 3.265440 1_555
Ba1 Pt1 3.265440 1_555
Pt0 Pt1 2.712165 1_555
Pt0 Pt1 2.712165 1_556
