# generated using pymatgen
data_Hf4Rh2O
_symmetry_space_group_name_H-M   'P 1'
_cell_length_a   8.66608657
_cell_length_b   8.66608639
_cell_length_c   8.66608684
_cell_angle_alpha   60.00000204
_cell_angle_beta   60.00000272
_cell_angle_gamma   59.99999897
_symmetry_Int_Tables_number   1
_chemical_formula_structural   Hf4Rh2O
_chemical_formula_sum   'Hf16 Rh8 O4'
_cell_volume   460.20792023
_cell_formula_units_Z   4
loop_
 _symmetry_equiv_pos_site_id
 _symmetry_equiv_pos_as_xyz
  1  'x, y, z'
loop_
 _atom_site_type_symbol
 _atom_site_label
 _atom_site_symmetry_multiplicity
 _atom_site_fract_x
 _atom_site_fract_y
 _atom_site_fract_z
 _atom_site_occupancy
  Hf  Hf0  1  0.12500000  0.62500000  0.62500000  1
  Hf  Hf1  1  0.62500000  0.12500000  0.62500000  1
  Hf  Hf2  1  0.62500000  0.62500000  0.12500000  1
  Hf  Hf3  1  0.62500000  0.62500000  0.62500000  1
  Hf  Hf4  1  0.81518725  0.81518725  0.18481275  1
  Hf  Hf5  1  0.18481275  0.18481275  0.81518725  1
  Hf  Hf6  1  0.81518725  0.18481275  0.81518725  1
  Hf  Hf7  1  0.18481275  0.81518725  0.18481275  1
  Hf  Hf8  1  0.18481275  0.81518725  0.81518725  1
  Hf  Hf9  1  0.81518725  0.18481275  0.18481275  1
  Hf  Hf10  1  0.43481275  0.43481275  0.06518725  1
  Hf  Hf11  1  0.06518725  0.06518725  0.43481275  1
  Hf  Hf12  1  0.43481275  0.06518725  0.43481275  1
  Hf  Hf13  1  0.06518725  0.43481275  0.06518725  1
  Hf  Hf14  1  0.06518725  0.43481275  0.43481275  1
  Hf  Hf15  1  0.43481275  0.06518725  0.06518725  1
  Rh  Rh0  1  0.78334490  0.40555137  0.40555137  1
  Rh  Rh1  1  0.40555137  0.78334490  0.40555137  1
  Rh  Rh2  1  0.40555137  0.40555137  0.78334490  1
  Rh  Rh3  1  0.40555137  0.40555137  0.40555137  1
  Rh  Rh4  1  0.46665510  0.84444863  0.84444863  1
  Rh  Rh5  1  0.84444863  0.46665510  0.84444863  1
  Rh  Rh6  1  0.84444863  0.84444863  0.46665510  1
  Rh  Rh7  1  0.84444863  0.84444863  0.84444863  1
  O  O0  1  0.62500000  0.12500000  0.12500000  1
  O  O1  1  0.12500000  0.62500000  0.12500000  1
  O  O2  1  0.12500000  0.12500000  0.62500000  1
  O  O3  1  0.12500000  0.12500000  0.12500000  1
loop_
_geom_bond_atom_site_label_1
_geom_bond_atom_site_label_2
_geom_bond_distance
_geom_bond_site_symmetry_2
Hf0 Rh2 2.741123 1_555
Hf0 Rh6 2.741123 1_455
Hf0 Rh1 2.741123 1_555
Hf0 Rh5 2.741123 1_455
Hf0 Rh3 2.741128 1_555
Hf0 Rh7 2.741128 1_455
Hf1 Rh2 2.741123 1_555
Hf1 Rh6 2.741123 1_545
Hf1 Rh0 2.741123 1_555
Hf1 Rh4 2.741123 1_545
Hf1 Rh3 2.741128 1_555
Hf1 Rh7 2.741128 1_545
Hf2 Rh0 2.741123 1_555
Hf2 Rh4 2.741123 1_554
Hf2 Rh1 2.741123 1_555
Hf2 Rh5 2.741123 1_554
Hf2 Rh7 2.741128 1_554
Hf2 Rh3 2.741128 1_555
Hf3 Rh4 2.741130 1_555
Hf3 Rh0 2.741130 1_555
Hf3 Rh5 2.741130 1_555
Hf3 Rh1 2.741130 1_555
Hf3 Rh6 2.741130 1_555
Hf3 Rh2 2.741130 1_555
Hf4 O0 2.287176 1_565
Hf4 O1 2.287176 1_655
Hf4 Rh7 2.719790 1_554
Hf4 Rh6 2.719798 1_555
Hf4 Rh0 3.162035 1_555
Hf4 Rh1 3.162035 1_555
Hf5 O2 2.287176 1_555
Hf5 O3 2.287176 1_556
Hf5 Rh4 2.719793 1_545
Hf5 Rh5 2.719793 1_455
Hf5 Rh2 3.162028 1_555
Hf5 Rh3 3.162032 1_555
Hf6 O2 2.287176 1_655
Hf6 O0 2.287176 1_556
Hf6 Rh7 2.719790 1_545
Hf6 Rh5 2.719798 1_555
Hf6 Rh2 3.162035 1_555
Hf6 Rh0 3.162035 1_555
Hf7 O3 2.287176 1_565
Hf7 O1 2.287176 1_555
Hf7 Rh6 2.719793 1_455
Hf7 Rh4 2.719793 1_554
Hf7 Rh1 3.162028 1_555
Hf7 Rh3 3.162032 1_555
Hf8 O2 2.287176 1_565
Hf8 O1 2.287176 1_556
Hf8 Rh7 2.719790 1_455
Hf8 Rh4 2.719798 1_555
Hf8 Rh2 3.162035 1_555
Hf8 Rh1 3.162035 1_555
Hf9 O0 2.287176 1_555
Hf9 O3 2.287176 1_655
Hf9 Rh6 2.719793 1_545
Hf9 Rh5 2.719793 1_554
Hf9 Rh0 3.162028 1_555
Hf9 Rh3 3.162032 1_555
Hf10 O0 2.287176 1_555
Hf10 O1 2.287176 1_555
Hf10 Rh3 2.719790 1_555
Hf10 Rh2 2.719798 1_554
Hf10 Rh4 3.162035 1_554
Hf10 Rh5 3.162035 1_554
Hf11 O2 2.287176 1_555
Hf11 O3 2.287176 1_555
Hf11 Rh0 2.719793 1_455
Hf11 Rh1 2.719793 1_545
Hf11 Rh6 3.162028 1_445
Hf11 Rh7 3.162032 1_445
Hf12 O2 2.287176 1_555
Hf12 O0 2.287176 1_555
Hf12 Rh3 2.719790 1_555
Hf12 Rh1 2.719798 1_545
Hf12 Rh6 3.162035 1_545
Hf12 Rh4 3.162035 1_545
Hf13 O3 2.287176 1_555
Hf13 O1 2.287176 1_555
Hf13 Rh2 2.719793 1_554
Hf13 Rh0 2.719793 1_455
Hf13 Rh5 3.162028 1_454
Hf13 Rh7 3.162032 1_454
Hf14 O2 2.287176 1_555
Hf14 O1 2.287176 1_555
Hf14 Rh3 2.719790 1_555
Hf14 Rh0 2.719798 1_455
Hf14 Rh6 3.162035 1_455
Hf14 Rh5 3.162035 1_455
Hf15 O0 2.287176 1_555
Hf15 O3 2.287176 1_555
Hf15 Rh2 2.719793 1_554
Hf15 Rh1 2.719793 1_545
Hf15 Rh4 3.162028 1_544
Hf15 Rh7 3.162032 1_544
