# generated using pymatgen
data_GaBF4
_symmetry_space_group_name_H-M   'P 1'
_cell_length_a   5.43448839
_cell_length_b   7.01727138
_cell_length_c   8.54526975
_cell_angle_alpha   90.00000000
_cell_angle_beta   90.00000000
_cell_angle_gamma   90.00000000
_symmetry_Int_Tables_number   1
_chemical_formula_structural   GaBF4
_chemical_formula_sum   'Ga4 B4 F16'
_cell_volume   325.87625358
_cell_formula_units_Z   4
loop_
 _symmetry_equiv_pos_site_id
 _symmetry_equiv_pos_as_xyz
  1  'x, y, z'
loop_
 _atom_site_type_symbol
 _atom_site_label
 _atom_site_symmetry_multiplicity
 _atom_site_fract_x
 _atom_site_fract_y
 _atom_site_fract_z
 _atom_site_occupancy
  Ga  Ga0  1  0.25000000  0.17411745  0.19105873  1
  Ga  Ga1  1  0.75000000  0.82588255  0.80894127  1
  Ga  Ga2  1  0.75000000  0.67411745  0.30894127  1
  Ga  Ga3  1  0.25000000  0.32588255  0.69105873  1
  B  B0  1  0.75000000  0.18246425  0.43247846  1
  B  B1  1  0.25000000  0.81753575  0.56752154  1
  B  B2  1  0.25000000  0.68246425  0.06752154  1
  B  B3  1  0.75000000  0.31753575  0.93247846  1
  F  F0  1  0.75000000  0.40660515  0.07866173  1
  F  F1  1  0.25000000  0.59339485  0.92133827  1
  F  F2  1  0.25000000  0.90660515  0.42133827  1
  F  F3  1  0.75000000  0.09339485  0.57866173  1
  F  F4  1  0.75000000  0.45273884  0.81053043  1
  F  F5  1  0.25000000  0.54726116  0.18946957  1
  F  F6  1  0.25000000  0.95273884  0.68946957  1
  F  F7  1  0.75000000  0.04726116  0.31053043  1
  F  F8  1  0.53818677  0.20163557  0.91769764  1
  F  F9  1  0.03818677  0.79836443  0.08230236  1
  F  F10  1  0.46181323  0.70163557  0.58230236  1
  F  F11  1  0.96181323  0.29836443  0.41769764  1
  F  F12  1  0.46181323  0.79836443  0.08230236  1
  F  F13  1  0.96181323  0.20163557  0.91769764  1
  F  F14  1  0.53818677  0.29836443  0.41769764  1
  F  F15  1  0.03818677  0.70163557  0.58230236  1
loop_
_geom_bond_atom_site_label_1
_geom_bond_atom_site_label_2
_geom_bond_distance
_geom_bond_site_symmetry_2
B0 F3 1.396816 1_555
B0 F7 1.409279 1_555
B0 F11 1.415075 1_555
B0 F14 1.415075 1_555
B1 F2 1.396816 1_555
B1 F6 1.409279 1_555
B1 F10 1.415075 1_555
B1 F15 1.415075 1_555
B2 F1 1.396816 1_554
B2 F5 1.409279 1_555
B2 F12 1.415075 1_555
B2 F9 1.415075 1_555
B3 F0 1.396816 1_556
B3 F4 1.409279 1_555
B3 F13 1.415075 1_555
B3 F8 1.415075 1_555
