# generated using pymatgen
data_Cs2Fe3CoS6
_symmetry_space_group_name_H-M   'P 1'
_cell_length_a   7.62162680
_cell_length_b   7.62162729
_cell_length_c   5.52026314
_cell_angle_alpha   90.19795721
_cell_angle_beta   89.80204035
_cell_angle_gamma   103.03105191
_symmetry_Int_Tables_number   1
_chemical_formula_structural   Cs2Fe3CoS6
_chemical_formula_sum   'Cs2 Fe3 Co1 S6'
_cell_volume   312.40678867
_cell_formula_units_Z   1
loop_
 _symmetry_equiv_pos_site_id
 _symmetry_equiv_pos_as_xyz
  1  'x, y, z'
loop_
 _atom_site_type_symbol
 _atom_site_label
 _atom_site_symmetry_multiplicity
 _atom_site_fract_x
 _atom_site_fract_y
 _atom_site_fract_z
 _atom_site_occupancy
  Cs  Cs0  1  0.32609897  0.67063691  0.75016137  1
  Cs  Cs1  1  0.67063691  0.32609897  0.24983863  1
  Fe  Fe0  1  0.85963132  0.85963132  0.50000000  1
  Fe  Fe1  1  0.86022881  0.86022881  0.00000000  1
  Fe  Fe2  1  0.14240674  0.14240674  0.50000000  1
  Co  Co0  1  0.13965873  0.13965873  1.00000000  1
  S  S0  1  0.89274870  0.10854282  0.75182449  1
  S  S1  1  0.10854282  0.89274870  0.24817551  1
  S  S2  1  0.36971383  0.16326758  0.75364449  1
  S  S3  1  0.63000875  0.83705884  0.24988757  1
  S  S4  1  0.16326758  0.36971383  0.24635551  1
  S  S5  1  0.83705884  0.63000875  0.75011243  1
loop_
_geom_bond_atom_site_label_1
_geom_bond_atom_site_label_2
_geom_bond_distance
_geom_bond_site_symmetry_2
Cs0 S4 3.611032 1_556
Cs0 S4 3.637494 1_555
Cs0 S3 3.640852 1_555
Cs0 S3 3.644048 1_556
Cs0 S5 3.669883 1_455
Cs0 S2 3.693907 1_565
Cs0 S1 3.791471 1_556
Cs0 S1 3.824148 1_555
Cs0 S2 3.955331 1_555
Cs0 S5 3.975627 1_555
Cs1 S2 3.611032 1_554
Cs1 S2 3.637494 1_555
Cs1 S5 3.640852 1_555
Cs1 S5 3.644048 1_554
Cs1 S3 3.669883 1_545
Cs1 S4 3.693907 1_655
Cs1 S0 3.791471 1_554
Cs1 S0 3.824148 1_555
Cs1 S4 3.955331 1_555
Cs1 S3 3.975627 1_555
Fe0 S3 2.208622 1_555
Fe0 S5 2.208622 1_555
Fe0 S1 2.315919 1_655
Fe0 S0 2.315919 1_565
Fe1 S3 2.204105 1_555
Fe1 S5 2.204105 1_554
Fe1 S1 2.307406 1_655
Fe1 S0 2.307406 1_564
Fe2 S2 2.208662 1_555
Fe2 S4 2.208662 1_555
Fe2 S0 2.320017 1_455
Fe2 S1 2.320017 1_545
Co0 S2 2.190699 1_555
Co0 S4 2.190699 1_556
Co0 S0 2.299744 1_455
Co0 S1 2.299744 1_546
