# generated using pymatgen
data_Cs2V3(TcTe2)3
_symmetry_space_group_name_H-M   'P 1'
_cell_length_a   4.43349959
_cell_length_b   10.33670448
_cell_length_c   10.26525041
_cell_angle_alpha   120.20019787
_cell_angle_beta   90.00000000
_cell_angle_gamma   90.00000000
_symmetry_Int_Tables_number   1
_chemical_formula_structural   Cs2V3(TcTe2)3
_chemical_formula_sum   'Cs2 V3 Tc3 Te6'
_cell_volume   406.58307753
_cell_formula_units_Z   1
loop_
 _symmetry_equiv_pos_site_id
 _symmetry_equiv_pos_as_xyz
  1  'x, y, z'
loop_
 _atom_site_type_symbol
 _atom_site_label
 _atom_site_symmetry_multiplicity
 _atom_site_fract_x
 _atom_site_fract_y
 _atom_site_fract_z
 _atom_site_occupancy
  Cs  Cs0  1  0.75000000  0.66475580  0.33086463  1
  Cs  Cs1  1  0.25000000  0.33430983  0.66908488  1
  V  V0  1  0.25000000  0.02115355  0.15165376  1
  V  V1  1  0.25000000  0.84907674  0.86856366  1
  V  V2  1  0.25000000  0.12980292  0.97941928  1
  Tc  Tc0  1  0.75000000  0.97784689  0.84348638  1
  Tc  Tc1  1  0.75000000  0.15551145  0.13460312  1
  Tc  Tc2  1  0.75000000  0.86673804  0.02156392  1
  Te  Te0  1  0.75000000  0.67328805  0.71709608  1
  Te  Te1  1  0.75000000  0.28011112  0.95407292  1
  Te  Te2  1  0.75000000  0.04660167  0.32839484  1
  Te  Te3  1  0.25000000  0.33545584  0.29235928  1
  Te  Te4  1  0.25000000  0.71186091  0.04639742  1
  Te  Te5  1  0.25000000  0.95348520  0.66244084  1
loop_
_geom_bond_atom_site_label_1
_geom_bond_atom_site_label_2
_geom_bond_distance
_geom_bond_site_symmetry_2
Cs0 Te4 3.886984 1_555
Cs0 Te4 3.886984 1_655
Cs0 Te5 3.897013 1_555
Cs0 Te5 3.897013 1_655
Cs0 Te1 3.911159 1_554
Cs0 Te3 3.911907 1_555
Cs0 Te3 3.911907 1_655
Cs0 Te0 3.921139 1_555
Cs0 Te2 3.959842 1_565
Cs1 Te3 3.873155 1_555
Cs1 Te4 3.876234 1_556
Cs1 Te5 3.902609 1_545
Cs1 Te1 3.928754 1_455
Cs1 Te1 3.928754 1_555
Cs1 Te2 3.940263 1_455
Cs1 Te2 3.940263 1_555
Cs1 Te0 3.961942 1_555
Cs1 Te0 3.961942 1_455
V0 V2 2.526830 1_554
V0 V1 2.531487 1_544
V1 V2 2.528482 1_565
Tc0 Tc2 2.602467 1_556
Tc0 Tc1 2.604191 1_566
Tc0 V1 2.663960 1_655
Tc0 V1 2.663960 1_555
Tc0 V2 2.668940 1_665
Tc0 V2 2.668940 1_565
Tc0 Te1 2.735393 1_565
Tc0 Te0 2.735854 1_555
Tc0 Te5 2.821436 1_555
Tc0 Te5 2.821436 1_655
Tc1 Tc2 2.602281 1_545
Tc1 V2 2.663900 1_554
Tc1 V2 2.663900 1_654
Tc1 V0 2.667955 1_655
Tc1 V0 2.667955 1_555
Tc1 Te2 2.734557 1_555
Tc1 Te1 2.737584 1_554
Tc1 Te3 2.822378 1_655
Tc1 Te3 2.822378 1_555
Tc2 V0 2.664692 1_665
Tc2 V0 2.664692 1_565
Tc2 V1 2.669380 1_554
Tc2 V1 2.669380 1_654
Tc2 Te0 2.734847 1_554
Tc2 Te2 2.736036 1_565
Tc2 Te4 2.820015 1_555
Tc2 Te4 2.820015 1_655
Te0 V1 2.791226 1_655
Te0 V1 2.791226 1_555
Te1 V2 2.793265 1_555
Te1 V2 2.793265 1_655
Te2 V0 2.791898 1_555
Te2 V0 2.791898 1_655
Te3 V0 2.814306 1_555
Te3 V2 2.822824 1_554
Te4 V0 2.813080 1_565
Te4 V1 2.819415 1_554
Te5 V1 2.817654 1_555
Te5 V2 2.818356 1_565
