# generated using pymatgen
data_MgGaAg2F7
_symmetry_space_group_name_H-M   'P 1'
_cell_length_a   7.34025832
_cell_length_b   7.34025722
_cell_length_c   7.34025821
_cell_angle_alpha   120.71794384
_cell_angle_beta   116.98872707
_cell_angle_gamma   92.02712077
_symmetry_Int_Tables_number   1
_chemical_formula_structural   MgGaAg2F7
_chemical_formula_sum   'Mg2 Ga2 Ag4 F14'
_cell_volume   283.94641771
_cell_formula_units_Z   2
loop_
 _symmetry_equiv_pos_site_id
 _symmetry_equiv_pos_as_xyz
  1  'x, y, z'
loop_
 _atom_site_type_symbol
 _atom_site_label
 _atom_site_symmetry_multiplicity
 _atom_site_fract_x
 _atom_site_fract_y
 _atom_site_fract_z
 _atom_site_occupancy
  Mg  Mg0  1  0.50000000  0.50000000  0.50000000  1
  Mg  Mg1  1  0.50000000  0.00000000  0.00000000  1
  Ga  Ga0  1  0.00000000  0.50000000  0.50000000  1
  Ga  Ga1  1  0.50000000  0.00000000  0.50000000  1
  Ag  Ag0  1  0.50000000  0.50000000  0.00000000  1
  Ag  Ag1  1  0.00000000  0.00000000  0.00000000  1
  Ag  Ag2  1  0.00000000  0.50000000  0.00000000  1
  Ag  Ag3  1  0.00000000  0.00000000  0.50000000  1
  F  F0  1  0.87468983  0.59220269  0.28248714  1
  F  F1  1  0.19028445  0.90779731  0.28248714  1
  F  F2  1  0.18850379  0.80348321  0.76323123  1
  F  F3  1  0.45974702  0.69651679  0.38502058  1
  F  F4  1  0.45974702  0.07472744  0.76323123  1
  F  F5  1  0.18850379  0.42527256  0.38502058  1
  F  F6  1  0.81149621  0.57472744  0.61497942  1
  F  F7  1  0.54025298  0.92527256  0.23676877  1
  F  F8  1  0.54025298  0.30348321  0.61497942  1
  F  F9  1  0.81149621  0.19651679  0.23676877  1
  F  F10  1  0.40597791  0.25000000  0.15597791  1
  F  F11  1  0.12531017  0.40779731  0.71751286  1
  F  F12  1  0.80971555  0.09220269  0.71751286  1
  F  F13  1  0.59402209  0.75000000  0.84402209  1
loop_
_geom_bond_atom_site_label_1
_geom_bond_atom_site_label_2
_geom_bond_distance
_geom_bond_site_symmetry_2
Ag0 F0 2.362278 1_555
Ag0 F11 2.362278 1_554
Ag0 F7 2.603531 1_555
Ag0 F4 2.603531 1_554
Ag0 F3 2.603538 1_555
Ag0 F8 2.603538 1_554
Ag1 F1 2.362277 1_545
Ag1 F12 2.362277 1_454
Ag1 F5 2.603533 1_555
Ag1 F6 2.603533 1_444
Ag1 F2 2.603533 1_544
Ag1 F9 2.603533 1_455
Ag2 F1 2.438245 1_555
Ag2 F12 2.438245 1_454
Ag2 F11 2.438246 1_554
Ag2 F0 2.438246 1_455
Ag3 F11 2.438245 1_555
Ag3 F0 2.438245 1_445
Ag3 F12 2.438246 1_455
Ag3 F1 2.438246 1_545
F0 Ga0 1.915277 1_655
F1 Ga1 1.915277 1_565
F2 Ga0 1.889012 1_555
F2 Mg1 1.981901 1_566
F3 Ga1 1.889011 1_565
F3 Mg0 1.981901 1_555
F4 Ga1 1.889017 1_555
F4 Mg1 1.981899 1_556
F5 Ga0 1.889012 1_555
F5 Mg0 1.981901 1_555
F6 Ga0 1.889012 1_655
F6 Mg0 1.981901 1_555
F7 Ga1 1.889017 1_565
F7 Mg1 1.981899 1_565
F8 Ga1 1.889011 1_555
F8 Mg0 1.981901 1_555
F9 Ga0 1.889012 1_655
F9 Mg1 1.981901 1_555
F10 Mg1 1.953187 1_555
F10 Mg0 1.953187 1_555
F11 Ga0 1.915277 1_555
F12 Ga1 1.915277 1_555
F13 Mg1 1.953187 1_566
F13 Mg0 1.953187 1_555
