# generated using pymatgen
data_KReP2Pd
_symmetry_space_group_name_H-M   'P 1'
_cell_length_a   7.20911159
_cell_length_b   7.20911197
_cell_length_c   7.20911121
_cell_angle_alpha   147.89418693
_cell_angle_beta   147.89419749
_cell_angle_gamma   46.04159215
_symmetry_Int_Tables_number   1
_chemical_formula_structural   KReP2Pd
_chemical_formula_sum   'K1 Re1 P2 Pd1'
_cell_volume   105.47088721
_cell_formula_units_Z   1
loop_
 _symmetry_equiv_pos_site_id
 _symmetry_equiv_pos_as_xyz
  1  'x, y, z'
loop_
 _atom_site_type_symbol
 _atom_site_label
 _atom_site_symmetry_multiplicity
 _atom_site_fract_x
 _atom_site_fract_y
 _atom_site_fract_z
 _atom_site_occupancy
  K  K0  1  0.00000000  0.00000000  0.00000000  1
  Re  Re0  1  0.25000000  0.75000000  0.50000000  1
  P  P0  1  0.34601465  0.34601465  0.00000000  1
  P  P1  1  0.65398535  0.65398535  1.00000000  1
  Pd  Pd0  1  0.75000000  0.25000000  0.50000000  1
loop_
_geom_bond_atom_site_label_1
_geom_bond_atom_site_label_2
_geom_bond_distance
_geom_bond_site_symmetry_2
K0 P1 3.481880 1_443
K0 P0 3.481880 1_556
K0 P1 3.481881 1_555
K0 P0 3.481881 1_444
K0 P1 3.481881 1_544
K0 P0 3.481881 1_455
K0 P1 3.481881 1_454
K0 P0 3.481881 1_545
P0 Pd0 2.365883 1_454
P0 Pd0 2.365883 1_555
P0 Re0 2.365883 1_555
P0 Re0 2.365883 1_544
P1 Re0 2.365883 1_656
P1 Re0 2.365883 1_555
P1 Pd0 2.365883 1_555
P1 Pd0 2.365883 1_566
Pd0 Re0 2.819232 1_544
Pd0 Re0 2.819232 1_656
Pd0 Re0 2.819233 1_555
Pd0 Re0 2.819233 1_645
