# generated using pymatgen
data_Nb4V4GeAs3
_symmetry_space_group_name_H-M   'P 1'
_cell_length_a   3.50779920
_cell_length_b   6.58544370
_cell_length_c   7.96143415
_cell_angle_alpha   89.80939166
_cell_angle_beta   90.00000000
_cell_angle_gamma   90.00000000
_symmetry_Int_Tables_number   1
_chemical_formula_structural   Nb4V4GeAs3
_chemical_formula_sum   'Nb4 V4 Ge1 As3'
_cell_volume   183.91140875
_cell_formula_units_Z   1
loop_
 _symmetry_equiv_pos_site_id
 _symmetry_equiv_pos_as_xyz
  1  'x, y, z'
loop_
 _atom_site_type_symbol
 _atom_site_label
 _atom_site_symmetry_multiplicity
 _atom_site_fract_x
 _atom_site_fract_y
 _atom_site_fract_z
 _atom_site_occupancy
  Nb  Nb0  1  0.25000000  0.04578124  0.83264311  1
  Nb  Nb1  1  0.25000000  0.54737906  0.66661222  1
  Nb  Nb2  1  0.75000000  0.95326647  0.16722106  1
  Nb  Nb3  1  0.75000000  0.45396888  0.33191283  1
  V  V0  1  0.25000000  0.13187398  0.44332126  1
  V  V1  1  0.25000000  0.63037852  0.05677226  1
  V  V2  1  0.75000000  0.87049794  0.55850871  1
  V  V3  1  0.75000000  0.36759099  0.94235449  1
  Ge  Ge0  1  0.25000000  0.75358658  0.36029301  1
  As  As0  1  0.25000000  0.25346239  0.13998848  1
  As  As1  1  0.75000000  0.24730795  0.63952286  1
  As  As2  1  0.75000000  0.74490700  0.86085371  1
loop_
_geom_bond_atom_site_label_1
_geom_bond_atom_site_label_2
_geom_bond_distance
_geom_bond_site_symmetry_2
Ge0 V2 2.483416 1_455
Ge0 V2 2.483416 1_555
Ge0 V1 2.551600 1_555
Ge0 V0 2.579523 1_565
Ge0 Nb3 2.650164 1_455
Ge0 Nb3 2.650164 1_555
Ge0 Nb2 2.674819 1_555
Ge0 Nb2 2.674819 1_455
Ge0 Nb1 2.787382 1_555
As0 V3 2.471624 1_554
As0 V3 2.471624 1_454
As0 V0 2.541717 1_555
As0 V1 2.566926 1_555
As0 Nb2 2.651140 1_445
As0 Nb2 2.651140 1_545
As0 Nb3 2.677288 1_555
As0 Nb3 2.677288 1_455
As0 Nb0 2.807163 1_554
As1 V0 2.470209 1_655
As1 V0 2.470209 1_555
As1 V3 2.540266 1_555
As1 V2 2.565991 1_545
As1 Nb1 2.651507 1_555
As1 Nb1 2.651507 1_655
As1 Nb0 2.681016 1_555
As1 Nb0 2.681016 1_655
As1 Nb3 2.797803 1_555
As2 V1 2.463765 1_556
As2 V1 2.463765 1_656
As2 V2 2.542623 1_555
As2 V3 2.566027 1_555
As2 Nb0 2.655100 1_565
As2 Nb0 2.655100 1_665
As2 Nb1 2.678270 1_655
As2 Nb1 2.678270 1_555
As2 Nb2 2.802563 1_556
