# generated using pymatgen
data_Lu2S3
_symmetry_space_group_name_H-M   'P 1'
_cell_length_a   13.52555028
_cell_length_b   13.52555028
_cell_length_c   13.52555028
_cell_angle_alpha   144.80401890
_cell_angle_beta   144.80401890
_cell_angle_gamma   50.62667703
_symmetry_Int_Tables_number   1
_chemical_formula_structural   Lu2S3
_chemical_formula_sum   'Lu16 S24'
_cell_volume   817.83586237
_cell_formula_units_Z   8
loop_
 _symmetry_equiv_pos_site_id
 _symmetry_equiv_pos_as_xyz
  1  'x, y, z'
loop_
 _atom_site_type_symbol
 _atom_site_label
 _atom_site_symmetry_multiplicity
 _atom_site_fract_x
 _atom_site_fract_y
 _atom_site_fract_z
 _atom_site_occupancy
  Lu  Lu0  1  0.72308000  0.60206200  0.40173000  1
  Lu  Lu1  1  0.41446300  0.91446300  0.50000000  1
  Lu  Lu2  1  0.99159200  0.62500000  0.86659200  1
  Lu  Lu3  1  0.33553700  0.33553700  0.00000000  1
  Lu  Lu4  1  0.02692000  0.92865000  0.37898300  1
  Lu  Lu5  1  0.54966800  0.64793800  0.62101700  1
  Lu  Lu6  1  0.75840800  0.12500000  0.13340800  1
  Lu  Lu7  1  0.35206200  0.97308000  0.90173000  1
  Lu  Lu8  1  0.66446300  0.66446300  0.00000000  1
  Lu  Lu9  1  0.37500000  0.24159200  0.36659200  1
  Lu  Lu10  1  0.87500000  0.00840800  0.63340800  1
  Lu  Lu11  1  0.07135000  0.45033200  0.09827000  1
  Lu  Lu12  1  0.08553700  0.58553700  0.50000000  1
  Lu  Lu13  1  0.67865000  0.27692000  0.87898300  1
  Lu  Lu14  1  0.20033200  0.32135000  0.59827000  1
  Lu  Lu15  1  0.39793800  0.79966800  0.12101700  1
  S  S0  1  0.49697400  0.25188700  0.87871400  1
  S  S1  1  0.70758400  0.82481300  0.74618500  1
  S  S2  1  0.37317300  0.61826000  0.12128600  1
  S  S3  1  0.25302600  0.63174000  0.25491300  1
  S  S4  1  0.37682700  0.99811300  0.74508700  1
  S  S5  1  0.07862700  0.96139900  0.25381500  1
  S  S6  1  0.84632600  0.59120200  0.90138900  1
  S  S7  1  0.04241600  0.28860100  0.61722800  1
  S  S8  1  0.05506300  0.15367400  0.74487700  1
  S  S9  1  0.68981400  0.94493700  0.09861100  1
  S  S10  1  0.67137300  0.42518700  0.38277200  1
  S  S11  1  0.57481300  0.95758400  0.24618500  1
  S  S12  1  0.71139900  0.32862700  0.75381500  1
  S  S13  1  0.40879800  0.31018600  0.25512300  1
  S  S14  1  0.17518700  0.92137300  0.88277200  1
  S  S15  1  0.36826000  0.62317300  0.62128600  1
  S  S16  1  0.38174000  0.50302600  0.75491300  1
  S  S17  1  0.03860100  0.29241600  0.11722800  1
  S  S18  1  0.00188700  0.74697400  0.37871400  1
  S  S19  1  0.90367400  0.30506300  0.24487700  1
  S  S20  1  0.06018600  0.65879800  0.75512300  1
  S  S21  1  0.74811300  0.62682700  0.24508700  1
  S  S22  1  0.69493700  0.93981400  0.59861100  1
  S  S23  1  0.34120200  0.09632600  0.40138900  1
loop_
_geom_bond_atom_site_label_1
_geom_bond_atom_site_label_2
_geom_bond_distance
_geom_bond_site_symmetry_2
Lu0 S20 2.655238 1_655
Lu0 S10 2.665556 1_555
Lu0 S21 2.681761 1_555
Lu0 S2 2.745381 1_555
Lu0 S22 2.770125 1_555
Lu0 S1 2.946281 1_555
Lu0 S19 2.948875 1_555
Lu0 S0 3.176079 1_554
Lu1 S1 2.683233 1_555
Lu1 S5 2.683241 1_555
Lu1 S0 2.687742 1_565
Lu1 S2 2.687742 1_555
Lu1 S3 2.902660 1_555
Lu1 S4 2.902660 1_555
Lu1 S23 2.986804 1_565
Lu1 S22 2.986811 1_555
Lu2 S7 2.700064 1_655
Lu2 S5 2.700064 1_656
Lu2 S6 2.700645 1_555
Lu2 S20 2.700646 1_655
Lu2 S10 2.917118 1_555
Lu2 S1 2.917125 1_555
Lu2 S3 3.061156 1_656
Lu2 S2 3.061156 1_656
Lu3 S7 2.683241 1_554
Lu3 S10 2.683241 1_555
Lu3 S3 2.687742 1_555
Lu3 S4 2.687742 1_544
Lu3 S0 2.902660 1_554
Lu3 S2 2.902660 1_555
Lu3 S13 2.986802 1_555
Lu3 S8 2.986811 1_554
Lu4 S9 2.655240 1_455
Lu4 S5 2.665556 1_555
Lu4 S18 2.681749 1_555
Lu4 S4 2.745379 1_555
Lu4 S8 2.770114 1_565
Lu4 S7 2.946290 1_565
Lu4 S6 2.948882 1_454
Lu4 S3 3.176083 1_555
Lu5 S6 2.655252 1_555
Lu5 S1 2.665545 1_555
Lu5 S15 2.681772 1_555
Lu5 S3 2.745374 1_555
Lu5 S13 2.770123 1_555
Lu5 S10 2.946273 1_555
Lu5 S9 2.948883 1_556
Lu5 S4 3.176078 1_555
Lu6 S10 2.700061 1_555
Lu6 S1 2.700063 1_544
Lu6 S19 2.700635 1_555
Lu6 S9 2.700635 1_545
Lu6 S5 2.917117 1_645
Lu6 S7 2.917117 1_655
Lu6 S0 3.061156 1_554
Lu6 S4 3.061156 1_544
Lu7 S13 2.655238 1_566
Lu7 S14 2.665556 1_555
Lu7 S4 2.681761 1_555
Lu7 S15 2.745381 1_555
Lu7 S9 2.770125 1_556
Lu7 S11 2.946281 1_556
Lu7 S8 2.948875 1_565
Lu7 S18 3.176079 1_555
Lu8 S11 2.683233 1_555
Lu8 S12 2.683241 1_554
Lu8 S15 2.687742 1_554
Lu8 S18 2.687742 1_655
Lu8 S16 2.902660 1_554
Lu8 S21 2.902660 1_555
Lu8 S6 2.986804 1_554
Lu8 S9 2.986811 1_555
Lu9 S12 2.700064 1_555
Lu9 S17 2.700064 1_555
Lu9 S23 2.700645 1_555
Lu9 S13 2.700646 1_555
Lu9 S14 2.917118 1_544
Lu9 S11 2.917125 1_545
Lu9 S15 3.061156 1_555
Lu9 S16 3.061156 1_555
Lu10 S14 2.700061 1_645
Lu10 S11 2.700063 1_545
Lu10 S8 2.700635 1_655
Lu10 S22 2.700635 1_545
Lu10 S17 2.917117 1_656
Lu10 S12 2.917117 1_555
Lu10 S21 3.061156 1_545
Lu10 S18 3.061156 1_645
Lu11 S8 2.655239 1_554
Lu11 S17 2.665543 1_555
Lu11 S3 2.681761 1_555
Lu11 S18 2.745381 1_555
Lu11 S6 2.770114 1_454
Lu11 S12 2.946285 1_454
Lu11 S13 2.948883 1_555
Lu11 S15 3.176079 1_555
Lu12 S17 2.683241 1_555
Lu12 S14 2.683241 1_555
Lu12 S16 2.687742 1_555
Lu12 S21 2.687742 1_455
Lu12 S18 2.902660 1_555
Lu12 S15 2.902660 1_555
Lu12 S20 2.986802 1_555
Lu12 S19 2.986811 1_455
Lu13 S22 2.655240 1_545
Lu13 S12 2.665556 1_555
Lu13 S0 2.681749 1_555
Lu13 S21 2.745379 1_556
Lu13 S19 2.770114 1_556
Lu13 S17 2.946290 1_656
Lu13 S23 2.948882 1_555
Lu13 S16 3.176083 1_555
Lu14 S19 2.655239 1_455
Lu14 S7 2.665543 1_555
Lu14 S16 2.681761 1_555
Lu14 S0 2.745381 1_555
Lu14 S23 2.770114 1_555
Lu14 S5 2.946285 1_545
Lu14 S20 2.948883 1_555
Lu14 S2 3.176079 1_556
Lu15 S23 2.655252 1_565
Lu15 S11 2.665545 1_555
Lu15 S2 2.681772 1_555
Lu15 S16 2.745374 1_554
Lu15 S20 2.770123 1_554
Lu15 S14 2.946273 1_554
Lu15 S22 2.948883 1_555
Lu15 S21 3.176078 1_555
