# generated using pymatgen
data_Zr6Al15ZnPt7
_symmetry_space_group_name_H-M   'P 1'
_cell_length_a   8.73362165
_cell_length_b   8.73361410
_cell_length_c   8.73043140
_cell_angle_alpha   59.98789361
_cell_angle_beta   59.98789039
_cell_angle_gamma   59.99992193
_symmetry_Int_Tables_number   1
_chemical_formula_structural   Zr6Al15ZnPt7
_chemical_formula_sum   'Zr6 Al15 Zn1 Pt7'
_cell_volume   470.79226323
_cell_formula_units_Z   1
loop_
 _symmetry_equiv_pos_site_id
 _symmetry_equiv_pos_as_xyz
  1  'x, y, z'
loop_
 _atom_site_type_symbol
 _atom_site_label
 _atom_site_symmetry_multiplicity
 _atom_site_fract_x
 _atom_site_fract_y
 _atom_site_fract_z
 _atom_site_occupancy
  Zr  Zr0  1  0.68603170  0.68603170  0.31462939  1
  Zr  Zr1  1  0.31330520  0.68603370  0.31462739  1
  Zr  Zr2  1  0.68603370  0.31330520  0.31462739  1
  Zr  Zr3  1  0.31468084  0.31468084  0.68566025  1
  Zr  Zr4  1  0.68498006  0.31467884  0.68566225  1
  Zr  Zr5  1  0.31467984  0.68497906  0.68566125  1
  Al  Al0  1  0.87956359  0.36073908  0.88013474  1
  Al  Al1  1  0.36073808  0.87956359  0.88013474  1
  Al  Al2  1  0.87956359  0.87956359  0.88013474  1
  Al  Al3  1  0.12034151  0.12034151  0.63897546  1
  Al  Al4  1  0.11789744  0.64138394  0.12282018  1
  Al  Al5  1  0.64138294  0.11789744  0.12282018  1
  Al  Al6  1  0.11789744  0.11789844  0.12282018  1
  Al  Al7  1  0.66587685  0.66587585  0.00237044  1
  Al  Al8  1  0.66848832  0.99978582  0.66323854  1
  Al  Al9  1  0.99978682  0.66848732  0.66323854  1
  Al  Al10  1  0.66848732  0.66848732  0.66323954  1
  Al  Al11  1  0.33363988  0.33364088  0.99907836  1
  Al  Al12  1  0.33477445  0.99750703  0.33294307  1
  Al  Al13  1  0.99750703  0.33477445  0.33294307  1
  Al  Al14  1  0.33477545  0.33477545  0.33294307  1
  Zn  Zn0  1  0.88022981  0.88022981  0.35930858  1
  Pt  Pt0  1  0.00259266  0.00259466  0.99221903  1
  Pt  Pt1  1  0.00169372  0.00169372  0.50458222  1
  Pt  Pt2  1  0.49203033  0.00169372  0.50458222  1
  Pt  Pt3  1  0.00169372  0.49203033  0.50458222  1
  Pt  Pt4  1  0.50038461  0.50038461  0.99867331  1
  Pt  Pt5  1  0.00055647  0.50038561  0.99867331  1
  Pt  Pt6  1  0.50038561  0.00055647  0.99867331  1
loop_
_geom_bond_atom_site_label_1
_geom_bond_atom_site_label_2
_geom_bond_distance
_geom_bond_site_symmetry_2
Zr0 Zr5 3.240683 1_555
Zr0 Zr4 3.240690 1_555
Zr0 Zr2 3.255249 1_555
Zr0 Zr1 3.255252 1_555
Zr1 Zr3 3.240691 1_555
Zr1 Zr5 3.240702 1_555
Zr1 Zr2 3.255264 1_555
Zr2 Zr3 3.240692 1_555
Zr2 Zr4 3.240710 1_555
Zr3 Zr5 3.234042 1_555
Zr3 Zr4 3.234053 1_555
Zr4 Zr5 3.234057 1_555
Al0 Pt0 2.554373 1_655
Al0 Pt3 2.676985 1_655
Al0 Pt5 2.705642 1_655
Al0 Pt4 2.705647 1_555
Al0 Al7 2.757331 1_556
Al0 Al10 2.766575 1_555
Al0 Al9 2.766576 1_555
Al0 Al6 2.970161 1_656
Al0 Al5 2.970180 1_556
Al0 Al3 2.973358 1_655
Al0 Zr2 3.183074 1_556
Al0 Zr4 3.191507 1_555
Al0 Zr3 3.191517 1_655
Al1 Pt0 2.554383 1_565
Al1 Pt2 2.676985 1_565
Al1 Pt4 2.705645 1_555
Al1 Pt6 2.705649 1_565
Al1 Al7 2.757347 1_556
Al1 Al10 2.766577 1_555
Al1 Al8 2.766588 1_555
Al1 Al6 2.970165 1_566
Al1 Al4 2.970168 1_556
Al1 Al3 2.973353 1_565
Al1 Zr1 3.183076 1_556
Al1 Zr5 3.191510 1_555
Al1 Zr3 3.191516 1_565
Al2 Pt0 2.554377 1_665
Al2 Pt1 2.676985 1_665
Al2 Pt5 2.705638 1_655
Al2 Pt6 2.705640 1_565
Al2 Al7 2.757349 1_556
Al2 Al8 2.766580 1_555
Al2 Al9 2.766583 1_555
Al2 Al5 2.970159 1_566
Al2 Al4 2.970161 1_656
Al2 Al3 2.973354 1_665
Al2 Zr0 3.183094 1_556
Al2 Zr4 3.191496 1_565
Al2 Zr5 3.191507 1_655
Al3 Pt0 2.517590 1_555
Al3 Pt3 2.651498 1_555
Al3 Pt2 2.651500 1_555
Al3 Pt1 2.651502 1_555
Al3 Zr4 3.192552 1_455
Al3 Zr5 3.192558 1_545
Al3 Zr3 3.192573 1_555
Al4 Pt0 2.576750 1_564
Al4 Pt3 2.725972 1_555
Al4 Pt5 2.729414 1_554
Al4 Pt4 2.729419 1_554
Al4 Zn0 2.934960 1_455
Al4 Zr1 3.169602 1_555
Al4 Zr0 3.169612 1_455
Al4 Zr5 3.209980 1_554
Al5 Pt0 2.576745 1_654
Al5 Pt2 2.725972 1_555
Al5 Pt6 2.729407 1_554
Al5 Pt4 2.729417 1_554
Al5 Zn0 2.934968 1_545
Al5 Zr2 3.169607 1_555
Al5 Zr0 3.169608 1_545
Al5 Zr4 3.209969 1_554
Al6 Pt0 2.576747 1_554
Al6 Pt1 2.725972 1_555
Al6 Pt5 2.729417 1_554
Al6 Pt6 2.729427 1_554
Al6 Zn0 2.934975 1_445
Al6 Zr2 3.169591 1_455
Al6 Zr1 3.169597 1_545
Al6 Zr3 3.209989 1_554
Al7 Pt5 2.522177 1_654
Al7 Pt6 2.522182 1_564
Al7 Pt4 2.522186 1_554
Al7 Zr2 2.912897 1_555
Al7 Zr0 2.912902 1_555
Al7 Zr1 2.912903 1_555
Al7 Al8 2.938131 1_554
Al7 Al9 2.938132 1_554
Al8 Pt1 2.525977 1_665
Al8 Pt2 2.525985 1_565
Al8 Pt6 2.537787 1_565
Al8 Zn0 2.735465 1_555
Al8 Al9 2.893431 1_555
Al8 Zr2 2.898339 1_565
Al8 Zr4 2.930073 1_565
Al8 Zr3 2.930074 1_565
Al9 Pt1 2.525980 1_665
Al9 Pt3 2.525981 1_655
Al9 Pt5 2.537785 1_655
Al9 Zn0 2.735470 1_555
Al9 Zr1 2.898336 1_655
Al9 Zr3 2.930065 1_655
Al9 Zr5 2.930071 1_655
Al10 Pt2 2.525981 1_565
Al10 Pt3 2.525982 1_655
Al10 Pt4 2.537782 1_555
Al10 Zn0 2.735464 1_555
Al10 Al8 2.893433 1_555
Al10 Al9 2.893440 1_555
Al10 Zr0 2.898344 1_555
Al10 Zr4 2.930073 1_555
Al10 Zr5 2.930074 1_555
Al10 Al7 2.938124 1_556
Al11 Pt5 2.520310 1_555
Al11 Pt4 2.520312 1_555
Al11 Pt6 2.520315 1_555
Al11 Al4 2.783029 1_556
Al11 Al5 2.783031 1_556
Al11 Al6 2.783033 1_556
Al11 Zr5 2.911349 1_555
Al11 Zr3 2.911351 1_555
Al11 Zr4 2.911357 1_555
Al11 Al13 2.924724 1_456
Al11 Al12 2.924727 1_546
Al11 Al14 2.924733 1_556
Al12 Pt1 2.509350 1_565
Al12 Pt2 2.509358 1_565
Al12 Pt6 2.519432 1_564
Al12 Al5 2.759223 1_565
Al12 Al6 2.759227 1_565
Al12 Al3 2.765750 1_565
Al12 Zr1 2.904462 1_555
Al12 Zr0 2.904462 1_555
Al12 Zr5 2.914397 1_555
Al12 Al13 2.945561 1_465
Al12 Al14 2.945577 1_565
Al13 Pt1 2.509348 1_655
Al13 Pt3 2.509357 1_655
Al13 Pt5 2.519432 1_654
Al13 Al6 2.759221 1_655
Al13 Al4 2.759229 1_655
Al13 Al3 2.765750 1_655
Al13 Zr0 2.904462 1_555
Al13 Zr2 2.904464 1_555
Al13 Zr4 2.914399 1_555
Al13 Al14 2.945579 1_655
Al14 Pt2 2.509352 1_555
Al14 Pt3 2.509353 1_555
Al14 Pt4 2.519427 1_554
Al14 Al5 2.759226 1_555
Al14 Al4 2.759229 1_555
Al14 Al3 2.765756 1_555
Al14 Zr1 2.904457 1_555
Al14 Zr2 2.904460 1_555
Al14 Zr3 2.914394 1_555
Zn0 Zr2 3.178918 1_565
Zn0 Zr1 3.178921 1_655
Zn0 Zr0 3.178927 1_555
Pt0 Zn0 2.616271 1_446
Pt1 Zn0 2.770644 1_445
Pt1 Zr4 3.163827 1_455
Pt1 Zr5 3.163831 1_545
Pt1 Zr1 3.211371 1_545
Pt1 Zr2 3.211372 1_455
Pt2 Zn0 2.770628 1_545
Pt2 Zr5 3.163833 1_545
Pt2 Zr3 3.163834 1_555
Pt2 Zr2 3.211374 1_555
Pt2 Zr0 3.211377 1_545
Pt3 Zn0 2.770626 1_455
Pt3 Zr4 3.163831 1_455
Pt3 Zr3 3.163837 1_555
Pt3 Zr1 3.211375 1_555
Pt3 Zr0 3.211380 1_455
Pt4 Zr4 3.179487 1_555
Pt4 Zr5 3.179491 1_555
Pt4 Zr1 3.197450 1_556
Pt4 Zr2 3.197451 1_556
Pt5 Zr5 3.179493 1_555
Pt5 Zr3 3.179498 1_555
Pt5 Zr0 3.197449 1_456
Pt5 Zr2 3.197450 1_456
Pt6 Zr4 3.179489 1_555
Pt6 Zr3 3.179499 1_555
Pt6 Zr1 3.197449 1_546
Pt6 Zr0 3.197450 1_546
