# generated using pymatgen
data_CsRb(CrN2)2
_symmetry_space_group_name_H-M   'P 1'
_cell_length_a   5.74195427
_cell_length_b   5.74195442
_cell_length_c   5.74195548
_cell_angle_alpha   60.00001069
_cell_angle_beta   60.00000980
_cell_angle_gamma   60.00000096
_symmetry_Int_Tables_number   1
_chemical_formula_structural   CsRb(CrN2)2
_chemical_formula_sum   'Cs1 Rb1 Cr2 N4'
_cell_volume   133.86417431
_cell_formula_units_Z   1
loop_
 _symmetry_equiv_pos_site_id
 _symmetry_equiv_pos_as_xyz
  1  'x, y, z'
loop_
 _atom_site_type_symbol
 _atom_site_label
 _atom_site_symmetry_multiplicity
 _atom_site_fract_x
 _atom_site_fract_y
 _atom_site_fract_z
 _atom_site_occupancy
  Cs  Cs0  1  0.00000000  0.00000000  0.00000000  1
  Rb  Rb0  1  0.25000000  0.25000000  0.25000000  1
  Cr  Cr0  1  0.75000000  0.75000000  0.75000000  1
  Cr  Cr1  1  0.50000000  0.50000000  0.50000000  1
  N  N0  1  0.62482332  0.62482332  0.62482332  1
  N  N1  1  0.12553104  0.62482332  0.62482332  1
  N  N2  1  0.62482332  0.12553104  0.62482332  1
  N  N3  1  0.62482332  0.62482332  0.12553104  1
loop_
_geom_bond_atom_site_label_1
_geom_bond_atom_site_label_2
_geom_bond_distance
_geom_bond_site_symmetry_2
Cs0 N3 3.366950 1_445
Cs0 N2 3.366950 1_454
Cs0 N1 3.366950 1_544
Cs0 N0 3.366953 1_544
Cs0 N0 3.366953 1_454
Cs0 N0 3.366954 1_445
Cs0 N3 3.366955 1_545
Cs0 N3 3.366955 1_455
Cs0 N2 3.366955 1_554
Cs0 N1 3.366956 1_554
Cs0 N2 3.366956 1_455
Cs0 N1 3.366956 1_545
Cr0 N0 1.760592 1_555
Cr0 N1 1.760597 1_655
Cr0 N2 1.760597 1_565
Cr0 N3 1.760598 1_556
Cr1 N1 1.755618 1_555
Cr1 N2 1.755618 1_555
Cr1 N3 1.755618 1_555
Cr1 N0 1.755622 1_555
N0 Rb0 3.366088 1_655
N0 Rb0 3.366088 1_565
N0 Rb0 3.366088 1_556
N1 Rb0 3.366085 1_565
N1 Rb0 3.366086 1_556
N1 Rb0 3.366090 1_555
N2 Rb0 3.366085 1_655
N2 Rb0 3.366086 1_556
N2 Rb0 3.366090 1_555
N3 Rb0 3.366085 1_655
N3 Rb0 3.366085 1_565
N3 Rb0 3.366090 1_555
