# generated using pymatgen
data_ScAg4
_symmetry_space_group_name_H-M   'P 1'
_cell_length_a   4.08325398
_cell_length_b   5.09473263
_cell_length_c   5.09473272
_cell_angle_alpha   80.75904534
_cell_angle_beta   66.37599764
_cell_angle_gamma   66.37598649
_symmetry_Int_Tables_number   1
_chemical_formula_structural   ScAg4
_chemical_formula_sum   'Sc1 Ag4'
_cell_volume   88.96617770
_cell_formula_units_Z   1
loop_
 _symmetry_equiv_pos_site_id
 _symmetry_equiv_pos_as_xyz
  1  'x, y, z'
loop_
 _atom_site_type_symbol
 _atom_site_label
 _atom_site_symmetry_multiplicity
 _atom_site_fract_x
 _atom_site_fract_y
 _atom_site_fract_z
 _atom_site_occupancy
  Sc  Sc0  1  0.00000000  -0.00000000  0.00000000  1
  Ag  Ag0  1  0.19961062  0.20075913  0.40002063  1
  Ag  Ag1  1  0.59963025  0.59997937  0.20075913  1
  Ag  Ag2  1  0.40036975  0.40002063  0.79924087  1
  Ag  Ag3  1  0.80038938  0.79924087  0.59997937  1
loop_
_geom_bond_atom_site_label_1
_geom_bond_atom_site_label_2
_geom_bond_distance
_geom_bond_site_symmetry_2
Ag0 Ag1 2.916476 1_555
Ag0 Ag2 2.916479 1_455
Ag0 Ag2 2.916479 1_555
Ag0 Ag1 2.916482 1_455
Ag0 Sc0 2.921101 1_655
Ag0 Sc0 2.921104 1_555
Ag0 Ag3 2.924378 1_545
Ag0 Ag3 2.924385 1_445
Ag0 Ag3 2.945372 1_455
Ag0 Sc0 2.953187 1_556
Ag0 Ag1 2.954522 1_545
Ag0 Ag2 2.954522 1_554
Ag1 Ag3 2.916479 1_455
Ag1 Ag3 2.916479 1_555
Ag1 Sc0 2.921101 1_565
Ag1 Sc0 2.921104 1_665
Ag1 Ag2 2.924379 1_554
Ag1 Ag2 2.924384 1_654
Ag1 Ag2 2.945373 1_555
Ag1 Sc0 2.953187 1_655
Ag1 Ag3 2.954522 1_554
Ag2 Ag3 2.916476 1_555
Ag2 Ag3 2.916482 1_455
Ag2 Sc0 2.921101 1_656
Ag2 Sc0 2.921104 1_556
Ag2 Sc0 2.953187 1_566
Ag2 Ag3 2.954522 1_545
Ag3 Sc0 2.921101 1_566
Ag3 Sc0 2.921104 1_666
Ag3 Sc0 2.953187 1_665
