# generated using pymatgen
data_Hf4GaGeH2
_symmetry_space_group_name_H-M   'P 1'
_cell_length_a   5.39928412
_cell_length_b   5.39928264
_cell_length_c   5.39928279
_cell_angle_alpha   104.72592249
_cell_angle_beta   104.72592915
_cell_angle_gamma   119.44638492
_symmetry_Int_Tables_number   1
_chemical_formula_structural   Hf4GaGeH2
_chemical_formula_sum   'Hf4 Ga1 Ge1 H2'
_cell_volume   118.37152081
_cell_formula_units_Z   1
loop_
 _symmetry_equiv_pos_site_id
 _symmetry_equiv_pos_as_xyz
  1  'x, y, z'
loop_
 _atom_site_type_symbol
 _atom_site_label
 _atom_site_symmetry_multiplicity
 _atom_site_fract_x
 _atom_site_fract_y
 _atom_site_fract_z
 _atom_site_occupancy
  Hf  Hf0  1  0.16158687  0.66158687  0.82317475  1
  Hf  Hf1  1  0.83841313  0.33841313  0.17682525  1
  Hf  Hf2  1  0.33841313  0.16158687  0.50000000  1
  Hf  Hf3  1  0.66158687  0.83841313  0.50000000  1
  Ga  Ga0  1  0.25000000  0.25000000  0.00000000  1
  Ge  Ge0  1  0.75000000  0.75000000  0.00000000  1
  H  H0  1  0.75000000  0.25000000  0.50000000  1
  H  H1  1  0.25000000  0.75000000  0.50000000  1
loop_
_geom_bond_atom_site_label_1
_geom_bond_atom_site_label_2
_geom_bond_distance
_geom_bond_site_symmetry_2
Ga0 Ge0 2.722200 1_555
Ga0 Ge0 2.722200 1_445
Ga0 Hf0 2.822740 1_554
Ga0 Hf1 2.822741 1_455
Ga0 Hf3 2.822743 1_555
Ga0 Hf0 2.822743 1_544
Ga0 Hf2 2.822743 1_555
Ga0 Hf3 2.822743 1_444
Ga0 Hf2 2.822743 1_554
Ga0 Hf1 2.822744 1_555
Ge0 Hf1 2.822740 1_555
Ge0 Hf0 2.822741 1_654
Ge0 Hf2 2.822743 1_554
Ge0 Hf1 2.822743 1_565
Ge0 Hf3 2.822743 1_554
Ge0 Hf2 2.822743 1_665
Ge0 Hf3 2.822743 1_555
Ge0 Hf0 2.822744 1_554
H0 Hf3 2.030602 1_545
H0 Hf2 2.030602 1_555
H0 Hf0 2.030603 1_655
H0 Hf1 2.030607 1_555
H1 Hf2 2.030602 1_565
H1 Hf3 2.030602 1_555
H1 Hf1 2.030603 1_455
H1 Hf0 2.030607 1_555
