# generated using pymatgen
data_K3Ag(BPt3)2
_symmetry_space_group_name_H-M   'P 1'
_cell_length_a   8.42219118
_cell_length_b   8.42219087
_cell_length_c   8.42218974
_cell_angle_alpha   39.06529953
_cell_angle_beta   39.06530057
_cell_angle_gamma   39.06530200
_symmetry_Int_Tables_number   1
_chemical_formula_structural   K3Ag(BPt3)2
_chemical_formula_sum   'K3 Ag1 B2 Pt6'
_cell_volume   213.40539295
_cell_formula_units_Z   1
loop_
 _symmetry_equiv_pos_site_id
 _symmetry_equiv_pos_as_xyz
  1  'x, y, z'
loop_
 _atom_site_type_symbol
 _atom_site_label
 _atom_site_symmetry_multiplicity
 _atom_site_fract_x
 _atom_site_fract_y
 _atom_site_fract_z
 _atom_site_occupancy
  K  K0  1  0.85924107  0.85924107  0.85924107  1
  K  K1  1  0.14075893  0.14075893  0.14075893  1
  K  K2  1  0.00000000  0.00000000  0.00000000  1
  Ag  Ag0  1  0.50000000  0.50000000  0.50000000  1
  B  B0  1  0.66763306  0.66763306  0.66763306  1
  B  B1  1  0.33236694  0.33236694  0.33236694  1
  Pt  Pt0  1  0.43871023  0.93485263  0.43871023  1
  Pt  Pt1  1  0.43871023  0.43871023  0.93485263  1
  Pt  Pt2  1  0.93485263  0.43871023  0.43871023  1
  Pt  Pt3  1  0.56128977  0.06514737  0.56128977  1
  Pt  Pt4  1  0.56128977  0.56128977  0.06514737  1
  Pt  Pt5  1  0.06514737  0.56128977  0.56128977  1
loop_
_geom_bond_atom_site_label_1
_geom_bond_atom_site_label_2
_geom_bond_distance
_geom_bond_site_symmetry_2
K0 K2 3.280763 1_666
K0 Pt2 3.354127 1_556
K0 Pt0 3.354127 1_556
K0 Pt1 3.354127 1_565
K0 Pt2 3.354127 1_565
K0 Pt1 3.354127 1_655
K0 Pt0 3.354128 1_655
K0 Pt5 3.444527 1_655
K0 Pt3 3.444527 1_565
K0 Pt4 3.444527 1_556
K1 K2 3.280763 1_555
K1 Pt5 3.354127 1_554
K1 Pt3 3.354127 1_554
K1 Pt4 3.354127 1_545
K1 Pt5 3.354127 1_545
K1 Pt4 3.354127 1_455
K1 Pt3 3.354128 1_455
K1 Pt2 3.444527 1_455
K1 Pt0 3.444527 1_545
K1 Pt1 3.444527 1_554
K2 Pt5 3.171229 1_545
K2 Pt2 3.171229 1_454
K2 Pt3 3.171230 1_455
K2 Pt0 3.171230 1_544
K2 Pt5 3.171230 1_554
K2 Pt2 3.171230 1_445
K2 Pt4 3.171230 1_455
K2 Pt1 3.171230 1_544
K2 Pt3 3.171230 1_554
K2 Pt0 3.171230 1_445
K2 Pt4 3.171230 1_545
K2 Pt1 3.171230 1_454
Ag0 Pt1 2.913510 1_555
Ag0 Pt4 2.913510 1_555
Ag0 Pt0 2.913511 1_555
Ag0 Pt3 2.913511 1_555
Ag0 Pt2 2.913511 1_555
Ag0 Pt5 2.913511 1_555
Ag0 K0 3.307127 1_554
Ag0 K1 3.307127 1_556
Ag0 K0 3.307127 1_545
Ag0 K1 3.307127 1_565
Ag0 K0 3.307127 1_455
Ag0 K1 3.307127 1_655
B0 Pt4 2.178545 1_556
B0 Pt3 2.178545 1_565
B0 Pt5 2.178546 1_655
B0 Pt2 2.189954 1_555
B0 Pt0 2.189954 1_555
B0 Pt1 2.189954 1_555
B0 K2 3.251609 1_665
B0 K2 3.251609 1_656
B0 K2 3.251609 1_566
B1 Pt1 2.178545 1_554
B1 Pt0 2.178545 1_545
B1 Pt2 2.178546 1_455
B1 Pt5 2.189954 1_555
B1 Pt3 2.189954 1_555
B1 Pt4 2.189954 1_555
B1 K2 3.251609 1_556
B1 K2 3.251609 1_565
B1 K2 3.251609 1_655
