# generated using pymatgen
data_Zr6V4Ga12Os7
_symmetry_space_group_name_H-M   'P 1'
_cell_length_a   8.68087945
_cell_length_b   8.68087922
_cell_length_c   8.68087892
_cell_angle_alpha   59.99999738
_cell_angle_beta   59.99999827
_cell_angle_gamma   59.99999150
_symmetry_Int_Tables_number   1
_chemical_formula_structural   Zr6V4Ga12Os7
_chemical_formula_sum   'Zr6 V4 Ga12 Os7'
_cell_volume   462.56854574
_cell_formula_units_Z   1
loop_
 _symmetry_equiv_pos_site_id
 _symmetry_equiv_pos_as_xyz
  1  'x, y, z'
loop_
 _atom_site_type_symbol
 _atom_site_label
 _atom_site_symmetry_multiplicity
 _atom_site_fract_x
 _atom_site_fract_y
 _atom_site_fract_z
 _atom_site_occupancy
  Zr  Zr0  1  0.70806025  0.70806025  0.29193975  1
  Zr  Zr1  1  0.29193975  0.70806025  0.29193975  1
  Zr  Zr2  1  0.70806025  0.29193975  0.29193975  1
  Zr  Zr3  1  0.29193975  0.29193975  0.70806025  1
  Zr  Zr4  1  0.70806025  0.29193975  0.70806025  1
  Zr  Zr5  1  0.29193975  0.70806025  0.70806025  1
  V  V0  1  0.87833342  0.87833342  0.36500075  1
  V  V1  1  0.87833342  0.36500075  0.87833342  1
  V  V2  1  0.36500075  0.87833342  0.87833342  1
  V  V3  1  0.87833342  0.87833342  0.87833342  1
  Ga  Ga0  1  0.11980721  0.11980721  0.64057836  1
  Ga  Ga1  1  0.11980721  0.64057836  0.11980721  1
  Ga  Ga2  1  0.64057836  0.11980721  0.11980721  1
  Ga  Ga3  1  0.11980721  0.11980721  0.11980721  1
  Ga  Ga4  1  0.66019512  0.66019512  0.01941265  1
  Ga  Ga5  1  0.66019512  0.01941265  0.66019512  1
  Ga  Ga6  1  0.01941265  0.66019512  0.66019512  1
  Ga  Ga7  1  0.66019512  0.66019512  0.66019512  1
  Ga  Ga8  1  0.33894114  0.33894114  0.98317659  1
  Ga  Ga9  1  0.33894114  0.98317659  0.33894114  1
  Ga  Ga10  1  0.98317659  0.33894114  0.33894114  1
  Ga  Ga11  1  0.33894114  0.33894114  0.33894114  1
  Os  Os0  1  0.00000000  0.00000000  0.00000000  1
  Os  Os1  1  0.99682630  0.99682630  0.50317370  1
  Os  Os2  1  0.50317370  0.99682630  0.50317370  1
  Os  Os3  1  0.99682630  0.50317370  0.50317370  1
  Os  Os4  1  0.50317370  0.50317370  0.99682630  1
  Os  Os5  1  0.99682630  0.50317370  0.99682630  1
  Os  Os6  1  0.50317370  0.99682630  0.99682630  1
loop_
_geom_bond_atom_site_label_1
_geom_bond_atom_site_label_2
_geom_bond_distance
_geom_bond_site_symmetry_2
V0 Zr2 2.971814 1_565
V0 Zr1 2.971814 1_655
V0 Zr0 2.971822 1_555
V1 Zr2 2.971814 1_556
V1 Zr3 2.971814 1_655
V1 Zr4 2.971822 1_555
V2 Zr3 2.971814 1_565
V2 Zr1 2.971814 1_556
V2 Zr5 2.971822 1_555
V3 Zr4 2.971815 1_565
V3 Zr5 2.971815 1_655
V3 Zr0 2.971815 1_556
Ga0 Os0 2.547547 1_556
Ga0 Os3 2.718228 1_455
Ga0 Os2 2.718228 1_545
Ga0 Os1 2.718228 1_445
Ga0 Ga10 2.783926 1_455
Ga0 Ga9 2.783926 1_545
Ga0 Ga11 2.783926 1_555
Ga0 V3 2.964657 1_445
Ga0 V1 2.964663 1_455
Ga0 V2 2.964663 1_545
Ga0 Zr5 2.965181 1_545
Ga0 Zr4 2.965182 1_455
Ga0 Zr3 2.965182 1_555
Ga1 Os0 2.547547 1_565
Ga1 Os4 2.718228 1_554
Ga1 Os3 2.718228 1_455
Ga1 Os5 2.718228 1_454
Ga1 Ga11 2.783926 1_555
Ga1 Ga8 2.783926 1_554
Ga1 Ga10 2.783926 1_455
Ga1 V3 2.964657 1_454
Ga1 V0 2.964663 1_455
Ga1 V2 2.964663 1_554
Ga1 Zr5 2.965182 1_554
Ga1 Zr0 2.965182 1_455
Ga1 Zr1 2.965182 1_555
Ga2 Os0 2.547547 1_655
Ga2 Os4 2.718228 1_554
Ga2 Os2 2.718228 1_545
Ga2 Os6 2.718228 1_544
Ga2 Ga8 2.783926 1_554
Ga2 Ga9 2.783926 1_545
Ga2 V3 2.964657 1_544
Ga2 V0 2.964663 1_545
Ga2 V1 2.964663 1_554
Ga2 Zr4 2.965182 1_554
Ga2 Zr0 2.965182 1_545
Ga2 Zr2 2.965182 1_555
Ga3 Os0 2.547548 1_555
Ga3 Os5 2.718228 1_454
Ga3 Os1 2.718228 1_445
Ga3 Os6 2.718228 1_544
Ga3 Ga9 2.783926 1_545
Ga3 Ga8 2.783926 1_554
Ga3 V1 2.964657 1_454
Ga3 V2 2.964657 1_544
Ga3 V0 2.964657 1_445
Ga3 Zr1 2.965181 1_545
Ga3 Zr2 2.965181 1_455
Ga3 Zr3 2.965182 1_554
Ga4 Os4 2.479305 1_554
Ga4 Os6 2.479320 1_554
Ga4 Os5 2.479320 1_554
Ga4 V1 2.760263 1_554
Ga4 V2 2.760263 1_554
Ga4 V3 2.760284 1_554
Ga4 Zr2 2.842673 1_555
Ga4 Zr1 2.842673 1_555
Ga4 Zr0 2.842684 1_555
Ga5 Os2 2.479305 1_545
Ga5 Os6 2.479320 1_545
Ga5 Os1 2.479320 1_545
Ga5 V0 2.760263 1_545
Ga5 V2 2.760263 1_545
Ga5 V3 2.760284 1_545
Ga5 Zr3 2.842673 1_555
Ga5 Zr2 2.842673 1_555
Ga5 Zr4 2.842684 1_555
Ga6 Os3 2.479305 1_455
Ga6 Os5 2.479320 1_455
Ga6 Os1 2.479320 1_455
Ga6 V0 2.760263 1_455
Ga6 V1 2.760263 1_455
Ga6 V3 2.760284 1_455
Ga6 Zr3 2.842673 1_555
Ga6 Zr1 2.842673 1_555
Ga6 Zr5 2.842684 1_555
Ga7 Os2 2.479316 1_555
Ga7 Os3 2.479316 1_555
Ga7 Os4 2.479316 1_555
Ga7 V1 2.760277 1_555
Ga7 V2 2.760277 1_555
Ga7 V0 2.760278 1_555
Ga7 Zr0 2.842667 1_555
Ga7 Zr4 2.842667 1_555
Ga7 Zr5 2.842667 1_555
Ga8 Os6 2.539610 1_545
Ga8 Os5 2.539610 1_455
Ga8 Os4 2.539610 1_555
Ga8 Zr5 2.855179 1_555
Ga8 Zr4 2.855179 1_555
Ga8 Zr3 2.855179 1_555
Ga9 Os6 2.539610 1_554
Ga9 Os1 2.539610 1_455
Ga9 Os2 2.539610 1_555
Ga9 Zr0 2.855179 1_555
Ga9 Zr5 2.855179 1_555
Ga9 Zr1 2.855179 1_555
Ga10 Os5 2.539610 1_554
Ga10 Os1 2.539610 1_545
Ga10 Os3 2.539610 1_555
Ga10 Ga3 2.783926 1_655
Ga10 Zr0 2.855179 1_555
Ga10 Zr4 2.855179 1_555
Ga10 Zr2 2.855179 1_555
Ga11 Os2 2.539610 1_545
Ga11 Os3 2.539610 1_455
Ga11 Os4 2.539610 1_554
Ga11 Ga2 2.783926 1_555
Ga11 Zr3 2.855179 1_555
Ga11 Zr1 2.855179 1_555
Ga11 Zr2 2.855179 1_555
Os0 V3 2.587085 1_444
Os0 V1 2.587092 1_454
Os0 V0 2.587092 1_445
Os0 V2 2.587092 1_544
Os1 V0 2.660919 1_555
Os1 V3 2.660926 1_555
Os2 V2 2.660926 1_555
Os2 V0 2.660926 1_555
Os3 V0 2.660926 1_555
Os3 V1 2.660926 1_555
Os4 V2 2.660926 1_555
Os4 V1 2.660926 1_555
Os5 V1 2.660919 1_555
Os5 V3 2.660926 1_555
Os6 V2 2.660919 1_555
Os6 V3 2.660926 1_555
