# generated using pymatgen
data_YbCl3
_symmetry_space_group_name_H-M   'P 1'
_cell_length_a   9.29705617
_cell_length_b   9.29705617
_cell_length_c   3.50066528
_cell_angle_alpha   90.00000000
_cell_angle_beta   90.00000000
_cell_angle_gamma   119.99999035
_symmetry_Int_Tables_number   1
_chemical_formula_structural   YbCl3
_chemical_formula_sum   'Yb2 Cl6'
_cell_volume   262.04276311
_cell_formula_units_Z   2
loop_
 _symmetry_equiv_pos_site_id
 _symmetry_equiv_pos_as_xyz
  1  'x, y, z'
loop_
 _atom_site_type_symbol
 _atom_site_label
 _atom_site_symmetry_multiplicity
 _atom_site_fract_x
 _atom_site_fract_y
 _atom_site_fract_z
 _atom_site_occupancy
  Yb  Yb0  1  0.33333300  0.66666700  0.75000000  1
  Yb  Yb1  1  0.66666700  0.33333300  0.25000000  1
  Cl  Cl0  1  0.21348700  0.42697301  0.25000000  1
  Cl  Cl1  1  0.57302699  0.78651300  0.25000000  1
  Cl  Cl2  1  0.21348700  0.78651300  0.25000000  1
  Cl  Cl3  1  0.78651300  0.57302699  0.75000000  1
  Cl  Cl4  1  0.42697301  0.21348700  0.75000000  1
  Cl  Cl5  1  0.78651300  0.21348700  0.75000000  1
loop_
_geom_bond_atom_site_label_1
_geom_bond_atom_site_label_2
_geom_bond_distance
_geom_bond_site_symmetry_2
Cl0 Yb0 2.605408 1_554
Cl0 Yb0 2.605408 1_555
Cl1 Yb0 2.605408 1_554
Cl1 Yb0 2.605408 1_555
Cl2 Yb0 2.605396 1_554
Cl2 Yb0 2.605396 1_555
Cl3 Yb1 2.605408 1_556
Cl3 Yb1 2.605408 1_555
Cl4 Yb1 2.605408 1_556
Cl4 Yb1 2.605408 1_555
Cl5 Yb1 2.605396 1_556
Cl5 Yb1 2.605396 1_555
