# generated using pymatgen
data_Zr6AlAsN2
_symmetry_space_group_name_H-M   'P 1'
_cell_length_a   5.94998327
_cell_length_b   5.94998458
_cell_length_c   8.71542228
_cell_angle_alpha   90.00000000
_cell_angle_beta   90.00000000
_cell_angle_gamma   146.36781703
_symmetry_Int_Tables_number   1
_chemical_formula_structural   Zr6AlAsN2
_chemical_formula_sum   'Zr6 Al1 As1 N2'
_cell_volume   170.89111432
_cell_formula_units_Z   1
loop_
 _symmetry_equiv_pos_site_id
 _symmetry_equiv_pos_as_xyz
  1  'x, y, z'
loop_
 _atom_site_type_symbol
 _atom_site_label
 _atom_site_symmetry_multiplicity
 _atom_site_fract_x
 _atom_site_fract_y
 _atom_site_fract_z
 _atom_site_occupancy
  Zr  Zr0  1  0.94991853  0.05008147  0.75000000  1
  Zr  Zr1  1  0.05993028  0.94006972  0.25000000  1
  Zr  Zr2  1  0.62673489  0.37326511  0.54673949  1
  Zr  Zr3  1  0.37024334  0.62975666  0.44519120  1
  Zr  Zr4  1  0.37024334  0.62975666  0.05480880  1
  Zr  Zr5  1  0.62673489  0.37326511  0.95326051  1
  Al  Al0  1  0.25318766  0.74681234  0.75000000  1
  As  As0  1  0.74557807  0.25442193  0.25000000  1
  N  N0  1  0.99871401  0.00128599  0.49576627  1
  N  N1  1  0.99871401  0.00128599  0.00423373  1
loop_
_geom_bond_atom_site_label_1
_geom_bond_atom_site_label_2
_geom_bond_distance
_geom_bond_site_symmetry_2
Al0 Zr0 2.825772 1_565
Al0 Zr0 2.825773 1_455
Al0 Zr2 2.859382 1_455
Al0 Zr5 2.859382 1_455
Al0 Zr2 2.859382 1_565
Al0 Zr5 2.859382 1_565
Al0 Zr4 2.972394 1_556
Al0 Zr3 2.972394 1_555
As0 Zr1 2.726735 1_545
As0 Zr1 2.726736 1_655
As0 Zr3 2.805993 1_655
As0 Zr4 2.805993 1_655
As0 Zr3 2.805993 1_545
As0 Zr4 2.805993 1_545
As0 Zr5 2.919098 1_554
As0 Zr2 2.919098 1_555
N0 Zr1 2.252606 1_645
N0 Zr0 2.284408 1_555
N0 Zr2 2.299345 1_655
N0 Zr2 2.299346 1_545
N0 Zr3 2.301931 1_545
N0 Zr3 2.301932 1_655
N1 Zr1 2.252606 1_645
N1 Zr0 2.284408 1_554
N1 Zr5 2.299345 1_654
N1 Zr5 2.299346 1_544
N1 Zr4 2.301931 1_545
N1 Zr4 2.301932 1_655
