# generated using pymatgen
data_Na4AgAs2Au
_symmetry_space_group_name_H-M   'P 1'
_cell_length_a   5.67972359
_cell_length_b   5.67972257
_cell_length_c   5.66836558
_cell_angle_alpha   89.32650369
_cell_angle_beta   89.32650262
_cell_angle_gamma   100.91267280
_symmetry_Int_Tables_number   1
_chemical_formula_structural   Na4AgAs2Au
_chemical_formula_sum   'Na4 Ag1 As2 Au1'
_cell_volume   179.52001028
_cell_formula_units_Z   1
loop_
 _symmetry_equiv_pos_site_id
 _symmetry_equiv_pos_as_xyz
  1  'x, y, z'
loop_
 _atom_site_type_symbol
 _atom_site_label
 _atom_site_symmetry_multiplicity
 _atom_site_fract_x
 _atom_site_fract_y
 _atom_site_fract_z
 _atom_site_occupancy
  Na  Na0  1  0.02698759  0.67196738  0.24576191  1
  Na  Na1  1  0.97301241  0.32803262  0.75423809  1
  Na  Na2  1  0.67196738  0.02698759  0.24576191  1
  Na  Na3  1  0.32803262  0.97301241  0.75423809  1
  Ag  Ag0  1  0.50000000  0.50000000  0.50000000  1
  As  As0  1  0.78919738  0.78919738  0.74869203  1
  As  As1  1  0.21080262  0.21080262  0.25130797  1
  Au  Au0  1  0.50000000  0.50000000  0.00000000  1
loop_
_geom_bond_atom_site_label_1
_geom_bond_atom_site_label_2
_geom_bond_distance
_geom_bond_site_symmetry_2
Ag0 As0 2.543725 1_555
Ag0 As1 2.543725 1_555
Ag0 Au0 2.834183 1_555
Ag0 Au0 2.834183 1_556
Ag0 Na3 3.278462 1_545
Ag0 Na2 3.278462 1_565
Ag0 Na1 3.278462 1_455
Ag0 Na0 3.278462 1_655
Ag0 Na2 3.361544 1_555
Ag0 Na3 3.361544 1_555
Ag0 Na0 3.361544 1_555
Ag0 Na1 3.361544 1_555
As0 Au0 2.508721 1_556
As0 Na1 2.997641 1_555
As0 Na3 2.997641 1_555
As0 Na1 3.041462 1_565
As0 Na3 3.041463 1_655
As0 Na2 3.254531 1_566
As0 Na0 3.254531 1_656
As0 Na2 3.269406 1_565
As0 Na0 3.269406 1_655
As1 Au0 2.508721 1_555
As1 Na0 2.997641 1_555
As1 Na2 2.997641 1_555
As1 Na0 3.041462 1_545
As1 Na2 3.041463 1_455
As1 Na3 3.254531 1_544
As1 Na1 3.254531 1_454
As1 Na3 3.269406 1_545
As1 Na1 3.269406 1_455
Au0 Na2 3.297976 1_565
Au0 Na3 3.297976 1_544
Au0 Na0 3.297977 1_655
Au0 Na1 3.297977 1_454
Au0 Na2 3.324136 1_555
Au0 Na3 3.324136 1_554
Au0 Na0 3.324136 1_555
Au0 Na1 3.324136 1_554
