# generated using pymatgen
data_Sr3Sc2WO9
_symmetry_space_group_name_H-M   'P 1'
_cell_length_a   9.86197240
_cell_length_b   9.86197225
_cell_length_c   5.66959889
_cell_angle_alpha   73.25204343
_cell_angle_beta   73.25204126
_cell_angle_gamma   48.92588694
_symmetry_Int_Tables_number   1
_chemical_formula_structural   Sr3Sc2WO9
_chemical_formula_sum   'Sr6 Sc4 W2 O18'
_cell_volume   394.31015022
_cell_formula_units_Z   2
loop_
 _symmetry_equiv_pos_site_id
 _symmetry_equiv_pos_as_xyz
  1  'x, y, z'
loop_
 _atom_site_type_symbol
 _atom_site_label
 _atom_site_symmetry_multiplicity
 _atom_site_fract_x
 _atom_site_fract_y
 _atom_site_fract_z
 _atom_site_occupancy
  Sr  Sr0  1  0.91782607  0.40219881  0.84548709  1
  Sr  Sr1  1  0.23612659  0.76387341  0.50000000  1
  Sr  Sr2  1  0.59780119  0.08217393  0.15451291  1
  Sr  Sr3  1  0.76387341  0.23612659  0.50000000  1
  Sr  Sr4  1  0.08217393  0.59780119  0.15451291  1
  Sr  Sr5  1  0.40219881  0.91782607  0.84548709  1
  Sc  Sc0  1  0.50000000  0.50000000  0.00000000  1
  Sc  Sc1  1  0.83329721  0.83329721  0.66345304  1
  Sc  Sc2  1  0.16670279  0.16670279  0.33654696  1
  Sc  Sc3  1  0.00000000  0.00000000  0.00000000  1
  W  W0  1  0.33322039  0.33322039  0.66327961  1
  W  W1  1  0.66677961  0.66677961  0.33672039  1
  O  O0  1  0.43309680  0.90687861  0.33002393  1
  O  O1  1  0.74576639  0.25423361  0.00000000  1
  O  O2  1  0.09312139  0.56690320  0.66997607  1
  O  O3  1  0.90687861  0.43309680  0.33002393  1
  O  O4  1  0.25423361  0.74576639  1.00000000  1
  O  O5  1  0.56690320  0.09312139  0.66997607  1
  O  O6  1  0.07229264  0.07229264  0.22488630  1
  O  O7  1  0.39730463  0.39730463  0.88128391  1
  O  O8  1  0.72590021  0.72590021  0.56510420  1
  O  O9  1  0.60269537  0.60269537  0.11871609  1
  O  O10  1  0.92770736  0.92770736  0.77511370  1
  O  O11  1  0.27409979  0.27409979  0.43489580  1
  O  O12  1  0.57187844  0.57187844  0.61619594  1
  O  O13  1  0.89727298  0.89727298  0.30775992  1
  O  O14  1  0.24017059  0.24017059  0.94842649  1
  O  O15  1  0.10272702  0.10272702  0.69224008  1
  O  O16  1  0.42812156  0.42812156  0.38380406  1
  O  O17  1  0.75982941  0.75982941  0.05157351  1
loop_
_geom_bond_atom_site_label_1
_geom_bond_atom_site_label_2
_geom_bond_distance
_geom_bond_site_symmetry_2
O0 W1 1.935744 1_555
O0 Sc2 2.149822 1_565
O0 Sr5 2.814161 1_554
O0 Sr5 2.875886 1_555
O0 Sr2 2.895545 1_565
O0 Sr1 2.903249 1_555
O1 Sc0 2.007365 1_555
O1 Sc3 2.076523 1_655
O1 Sr2 2.726975 1_555
O1 Sr0 2.726975 1_554
O1 Sr3 2.838655 1_554
O1 Sr3 2.838655 1_555
O2 W0 1.935744 1_555
O2 Sc1 2.149822 1_455
O2 Sr4 2.814161 1_556
O2 Sr4 2.875886 1_555
O2 Sr0 2.895545 1_455
O2 Sr1 2.903249 1_555
O3 W1 1.935744 1_555
O3 Sc2 2.149822 1_655
O3 Sr0 2.814161 1_554
O3 Sr0 2.875886 1_555
O3 Sr4 2.895545 1_655
O3 Sr3 2.903249 1_555
O4 Sc0 2.007365 1_556
O4 Sc3 2.076523 1_566
O4 Sr5 2.726975 1_555
O4 Sr4 2.726975 1_556
O4 Sr1 2.838655 1_556
O4 Sr1 2.838655 1_555
O5 W0 1.935744 1_555
O5 Sc1 2.149822 1_545
O5 Sr2 2.814161 1_556
O5 Sr2 2.875886 1_555
O5 Sr5 2.895545 1_545
O5 Sr3 2.903249 1_555
O6 Sc2 1.988248 1_555
O6 Sc3 2.087575 1_555
O6 Sr3 2.560325 1_455
O6 Sr1 2.560325 1_545
O6 Sr5 2.979134 1_544
O6 Sr0 2.979134 1_454
O7 W0 1.936952 1_555
O7 Sc0 2.153617 1_556
O7 Sr4 2.623651 1_556
O7 Sr2 2.623652 1_556
O7 Sr3 3.192799 1_555
O7 Sr1 3.192799 1_555
O8 W1 1.916615 1_555
O8 Sc1 2.170101 1_555
O8 Sr5 2.677668 1_555
O8 Sr0 2.677669 1_555
O8 Sr4 3.241661 1_655
O8 Sr2 3.241661 1_565
O9 W1 1.936952 1_555
O9 Sc0 2.153617 1_555
O9 Sr0 2.623651 1_554
O9 Sr5 2.623652 1_554
O9 Sr1 3.192799 1_555
O9 Sr3 3.192799 1_555
O10 Sc1 1.988248 1_555
O10 Sc3 2.087575 1_666
O10 Sr1 2.560325 1_655
O10 Sr3 2.560325 1_565
O10 Sr2 2.979134 1_566
O10 Sr4 2.979134 1_656
O11 W0 1.916615 1_555
O11 Sc2 2.170101 1_555
O11 Sr2 2.677668 1_555
O11 Sr4 2.677669 1_555
O11 Sr0 3.241661 1_455
O11 Sr5 3.241661 1_545
O12 W1 1.924642 1_555
O12 Sc0 2.149968 1_556
O12 Sr3 2.698646 1_555
O12 Sr1 2.698646 1_555
O12 Sr5 3.151234 1_555
O12 Sr0 3.151234 1_555
O13 Sc1 1.979768 1_555
O13 Sc3 2.099628 1_665
O13 Sr4 2.508265 1_655
O13 Sr2 2.508265 1_565
O13 Sr3 3.095432 1_565
O13 Sr1 3.095432 1_655
O14 W0 1.922071 1_555
O14 Sc2 2.178112 1_556
O14 Sr5 2.618474 1_545
O14 Sr0 2.618474 1_455
O14 Sr4 3.215067 1_556
O14 Sr2 3.215067 1_556
O15 Sc2 1.979768 1_555
O15 Sc3 2.099628 1_556
O15 Sr0 2.508265 1_455
O15 Sr5 2.508265 1_545
O15 Sr1 3.095432 1_545
O15 Sr3 3.095432 1_455
O16 W0 1.924642 1_555
O16 Sc0 2.149968 1_555
O16 Sr1 2.698646 1_555
O16 Sr3 2.698646 1_555
O16 Sr2 3.151234 1_555
O16 Sr4 3.151234 1_555
O17 W1 1.922071 1_555
O17 Sc1 2.178112 1_554
O17 Sr2 2.618474 1_565
O17 Sr4 2.618474 1_655
O17 Sr0 3.215067 1_554
O17 Sr5 3.215067 1_554
