# generated using pymatgen
data_Rb2ZnSi3O8
_symmetry_space_group_name_H-M   'P 1'
_cell_length_a   5.22863443
_cell_length_b   6.84745221
_cell_length_c   6.93762525
_cell_angle_alpha   79.98396671
_cell_angle_beta   68.84680379
_cell_angle_gamma   67.14936139
_symmetry_Int_Tables_number   1
_chemical_formula_structural   Rb2ZnSi3O8
_chemical_formula_sum   'Rb2 Zn1 Si3 O8'
_cell_volume   213.30513781
_cell_formula_units_Z   1
loop_
 _symmetry_equiv_pos_site_id
 _symmetry_equiv_pos_as_xyz
  1  'x, y, z'
loop_
 _atom_site_type_symbol
 _atom_site_label
 _atom_site_symmetry_multiplicity
 _atom_site_fract_x
 _atom_site_fract_y
 _atom_site_fract_z
 _atom_site_occupancy
  Rb  Rb0  1  0.96813003  0.28813775  0.82073843  1
  Rb  Rb1  1  0.03605942  0.69583796  0.20441875  1
  Zn  Zn0  1  0.69366512  0.88376234  0.77475231  1
  Si  Si0  1  0.30995173  0.08537658  0.25219527  1
  Si  Si1  1  0.64096453  0.28168447  0.40896523  1
  Si  Si2  1  0.36185642  0.71341958  0.59738874  1
  O  O0  1  0.98134572  0.26908876  0.27914575  1
  O  O1  1  0.65565948  0.67222460  0.64499616  1
  O  O2  1  0.53395290  0.20340182  0.24748017  1
  O  O3  1  0.08144679  0.72279374  0.79612814  1
  O  O4  1  0.27261791  0.93768062  0.46186705  1
  O  O5  1  0.60706394  0.15746597  0.62558437  1
  O  O6  1  0.41875983  0.95877933  0.05084638  1
  O  O7  1  0.43852418  0.53234948  0.43349323  1
loop_
_geom_bond_atom_site_label_1
_geom_bond_atom_site_label_2
_geom_bond_distance
_geom_bond_site_symmetry_2
O0 Si1 1.654382 1_555
O0 Si0 1.655537 1_655
O0 Rb1 2.984090 1_655
O0 Rb0 3.184829 1_554
O1 Si2 1.595544 1_555
O1 Zn0 1.937580 1_555
O1 Rb0 2.838629 1_555
O1 Rb1 3.002484 1_655
O2 Si0 1.650536 1_555
O2 Si1 1.658244 1_555
O2 Rb0 3.135292 1_554
O3 Si2 1.597965 1_555
O3 Zn0 1.942259 1_455
O3 Rb1 2.735111 1_556
O3 Rb0 3.218429 1_455
O4 Si0 1.616637 1_565
O4 Si2 1.648550 1_555
O4 Rb0 3.277552 1_465
O5 Si1 1.579107 1_555
O5 Zn0 1.947550 1_545
O5 Rb0 2.937632 1_455
O5 Rb0 3.126637 1_555
O6 Si0 1.578300 1_565
O6 Zn0 1.944368 1_554
O6 Rb1 2.995505 1_555
O6 Rb0 3.243705 1_464
O7 Si1 1.629723 1_555
O7 Si2 1.663204 1_555
O7 Rb1 2.858726 1_555
