# generated using pymatgen
data_BaCrCuAs2
_symmetry_space_group_name_H-M   'P 1'
_cell_length_a   7.10199526
_cell_length_b   7.10199531
_cell_length_c   7.10199466
_cell_angle_alpha   146.10094877
_cell_angle_beta   146.10096192
_cell_angle_gamma   48.69683712
_symmetry_Int_Tables_number   1
_chemical_formula_structural   BaCrCuAs2
_chemical_formula_sum   'Ba1 Cr1 Cu1 As2'
_cell_volume   110.94546660
_cell_formula_units_Z   1
loop_
 _symmetry_equiv_pos_site_id
 _symmetry_equiv_pos_as_xyz
  1  'x, y, z'
loop_
 _atom_site_type_symbol
 _atom_site_label
 _atom_site_symmetry_multiplicity
 _atom_site_fract_x
 _atom_site_fract_y
 _atom_site_fract_z
 _atom_site_occupancy
  Ba  Ba0  1  0.00000000  0.00000000  0.00000000  1
  Cr  Cr0  1  0.25000000  0.75000000  0.50000000  1
  Cu  Cu0  1  0.75000000  0.25000000  0.50000000  1
  As  As0  1  0.35491199  0.35491199  0.00000000  1
  As  As1  1  0.64508801  0.64508801  1.00000000  1
loop_
_geom_bond_atom_site_label_1
_geom_bond_atom_site_label_2
_geom_bond_distance
_geom_bond_site_symmetry_2
As0 Cu0 2.475855 1_555
As0 Cu0 2.475856 1_454
As0 Cr0 2.475856 1_555
As0 Cr0 2.475856 1_544
As0 Ba0 3.478295 1_554
As0 Ba0 3.478296 1_666
As0 Ba0 3.478296 1_655
As0 Ba0 3.478296 1_565
As1 Cr0 2.475855 1_555
As1 Cr0 2.475856 1_656
As1 Cu0 2.475856 1_555
As1 Cu0 2.475856 1_566
As1 Ba0 3.478295 1_667
As1 Ba0 3.478296 1_555
As1 Ba0 3.478296 1_566
As1 Ba0 3.478296 1_656
