# generated using pymatgen
data_K10ZrTiP6
_symmetry_space_group_name_H-M   'P 1'
_cell_length_a   8.20007948
_cell_length_b   8.79017606
_cell_length_c   17.25398360
_cell_angle_alpha   60.20994004
_cell_angle_beta   90.00000000
_cell_angle_gamma   90.00000000
_symmetry_Int_Tables_number   1
_chemical_formula_structural   K10ZrTiP6
_chemical_formula_sum   'K20 Zr2 Ti2 P12'
_cell_volume   1079.32072014
_cell_formula_units_Z   2
loop_
 _symmetry_equiv_pos_site_id
 _symmetry_equiv_pos_as_xyz
  1  'x, y, z'
loop_
 _atom_site_type_symbol
 _atom_site_label
 _atom_site_symmetry_multiplicity
 _atom_site_fract_x
 _atom_site_fract_y
 _atom_site_fract_z
 _atom_site_occupancy
  K  K0  1  0.17218111  0.84534760  0.74150291  1
  K  K1  1  0.67218111  0.15465240  0.75849709  1
  K  K2  1  0.82507703  0.15746680  0.25743678  1
  K  K3  1  0.32507703  0.84253320  0.24256322  1
  K  K4  1  0.16751226  0.16165823  0.42090337  1
  K  K5  1  0.66751226  0.83834177  0.07909663  1
  K  K6  1  0.83554797  0.83299465  0.58368616  1
  K  K7  1  0.33554797  0.16700535  0.91631384  1
  K  K8  1  0.00724498  0.08333203  0.08989608  1
  K  K9  1  0.50724498  0.91666797  0.41010392  1
  K  K10  1  0.99198186  0.91836425  0.90695766  1
  K  K11  1  0.49198186  0.08163575  0.59304234  1
  K  K12  1  0.51824667  0.24963256  0.08022861  1
  K  K13  1  0.01824667  0.75036744  0.41977139  1
  K  K14  1  0.48753970  0.72479927  0.92363777  1
  K  K15  1  0.98753970  0.27520073  0.57636223  1
  K  K16  1  0.98377125  0.54178265  0.25881873  1
  K  K17  1  0.48377125  0.45821735  0.24118127  1
  K  K18  1  0.02119218  0.45800458  0.74688001  1
  K  K19  1  0.52119218  0.54199542  0.75311999  1
  Zr  Zr0  1  0.62934387  0.50392651  0.42038825  1
  Zr  Zr1  1  0.12934387  0.49607349  0.07961175  1
  Ti  Ti0  1  0.36751960  0.49496527  0.58130887  1
  Ti  Ti1  1  0.86751960  0.50503473  0.91869113  1
  P  P0  1  0.31814878  0.48654396  0.44157143  1
  P  P1  1  0.81814878  0.51345604  0.05842857  1
  P  P2  1  0.66848395  0.51284173  0.56581905  1
  P  P3  1  0.16848395  0.48715827  0.93418095  1
  P  P4  1  0.21180955  0.21612877  0.21937493  1
  P  P5  1  0.71180955  0.78387123  0.28062507  1
  P  P6  1  0.79030905  0.77135355  0.78739277  1
  P  P7  1  0.29030905  0.22864645  0.71260723  1
  P  P8  1  0.25310689  0.76459368  0.07603044  1
  P  P9  1  0.75310689  0.23540632  0.42396956  1
  P  P10  1  0.75098329  0.25202402  0.92084414  1
  P  P11  1  0.25098329  0.74797598  0.57915586  1
loop_
_geom_bond_atom_site_label_1
_geom_bond_atom_site_label_2
_geom_bond_distance
_geom_bond_site_symmetry_2
K0 P6 3.216177 1_455
K0 P3 3.250476 1_555
K0 P7 3.296920 1_565
K0 P11 3.373246 1_555
K1 P7 3.216177 1_555
K1 P2 3.250476 1_555
K1 P6 3.296920 1_545
K1 P10 3.373246 1_555
K2 P4 3.227605 1_655
K2 P5 3.240628 1_545
K2 P1 3.302864 1_555
K2 P9 3.321122 1_555
K3 P5 3.227605 1_555
K3 P4 3.240628 1_565
K3 P0 3.302864 1_555
K3 P8 3.321122 1_555
K4 P4 3.285968 1_555
K4 P0 3.289453 1_555
K4 P11 3.358738 1_545
K4 P9 3.464764 1_455
K5 P5 3.285968 1_555
K5 P1 3.289453 1_555
K5 P10 3.358738 1_564
K5 P8 3.464764 1_555
K6 P2 3.279259 1_555
K6 P9 3.298111 1_565
K6 P6 3.300356 1_555
K6 P11 3.496798 1_655
K7 P3 3.279259 1_555
K7 P8 3.298111 1_546
K7 P7 3.300356 1_555
K7 P10 3.496798 1_555
K8 P10 3.290090 1_454
K8 P4 3.429071 1_555
K8 P3 3.477140 1_554
K8 P8 3.554963 1_545
K9 P11 3.290090 1_555
K9 P5 3.429071 1_555
K9 P2 3.477140 1_555
K9 P9 3.554963 1_565
K10 P8 3.317208 1_656
K10 P6 3.362964 1_555
K10 P1 3.505329 1_556
K10 P10 3.641858 1_565
K11 P9 3.317208 1_555
K11 P7 3.362964 1_555
K11 P0 3.505329 1_555
K11 P11 3.641858 1_545
K12 P1 3.271165 1_555
K12 P10 3.338833 1_554
K12 P4 3.385610 1_555
K12 P3 3.702330 1_554
K13 P0 3.271165 1_555
K13 P11 3.338833 1_555
K13 P5 3.385610 1_455
K13 P2 3.702330 1_455
K14 P3 3.296054 1_555
K14 P6 3.301767 1_555
K14 P8 3.412538 1_556
K14 P1 3.452037 1_556
K15 P2 3.296054 1_555
K15 P7 3.301767 1_655
K15 P9 3.412538 1_555
K15 P0 3.452037 1_655
K16 P5 3.230928 1_555
K16 P9 3.365246 1_555
K16 P8 3.538736 1_655
K17 P4 3.230928 1_555
K17 P8 3.365246 1_555
K17 P9 3.538736 1_555
K18 P7 3.235559 1_555
K18 P11 3.330584 1_555
K18 P10 3.434688 1_455
K18 P3 3.576476 1_555
K19 P6 3.235559 1_555
K19 P10 3.330584 1_555
K19 P11 3.434688 1_555
K19 P2 3.576476 1_555
P0 Ti0 2.481889 1_555
P0 Zr0 2.571624 1_555
P1 Ti1 2.481889 1_554
P1 Zr1 2.571624 1_655
P2 Ti0 2.478927 1_555
P2 Zr0 2.569228 1_555
P3 Ti1 2.478927 1_455
P3 Zr1 2.569228 1_556
P4 Zr1 2.536035 1_555
P5 Zr0 2.536035 1_555
P6 Ti1 2.396578 1_555
P7 Ti0 2.396578 1_555
P8 Zr1 2.541663 1_555
P9 Zr0 2.541663 1_555
P10 Ti1 2.403890 1_555
P11 Ti0 2.403890 1_555
