# generated using pymatgen
data_K10NbInP6
_symmetry_space_group_name_H-M   'P 1'
_cell_length_a   8.15963304
_cell_length_b   8.88705655
_cell_length_c   17.19081801
_cell_angle_alpha   60.14126496
_cell_angle_beta   90.00000000
_cell_angle_gamma   90.00000000
_symmetry_Int_Tables_number   1
_chemical_formula_structural   K10NbInP6
_chemical_formula_sum   'K20 Nb2 In2 P12'
_cell_volume   1081.11575595
_cell_formula_units_Z   2
loop_
 _symmetry_equiv_pos_site_id
 _symmetry_equiv_pos_as_xyz
  1  'x, y, z'
loop_
 _atom_site_type_symbol
 _atom_site_label
 _atom_site_symmetry_multiplicity
 _atom_site_fract_x
 _atom_site_fract_y
 _atom_site_fract_z
 _atom_site_occupancy
  K  K0  1  0.74338531  0.91184737  0.41209206  1
  K  K1  1  0.25661469  0.91184737  0.91209206  1
  K  K2  1  0.76692252  0.08571658  0.59091244  1
  K  K3  1  0.23307748  0.08571658  0.09091244  1
  K  K4  1  0.57039574  0.16060820  0.75343389  1
  K  K5  1  0.42960426  0.16060820  0.25343389  1
  K  K6  1  0.91691121  0.84092062  0.24120274  1
  K  K7  1  0.08308879  0.84092062  0.74120274  1
  K  K8  1  0.73618937  0.54149728  0.75462835  1
  K  K9  1  0.26381063  0.54149728  0.25462835  1
  K  K10  1  0.77630568  0.45596975  0.24169169  1
  K  K11  1  0.22369432  0.45596975  0.74169169  1
  K  K12  1  0.08847293  0.16092379  0.41804716  1
  K  K13  1  0.91152707  0.16092379  0.91804716  1
  K  K14  1  0.41528214  0.83972285  0.58321625  1
  K  K15  1  0.58471786  0.83972285  0.08321625  1
  K  K16  1  0.24247067  0.27953460  0.57020918  1
  K  K17  1  0.75752933  0.27953460  0.07020918  1
  K  K18  1  0.21899302  0.74266901  0.42021162  1
  K  K19  1  0.78100698  0.74266901  0.92021162  1
  Nb  Nb0  1  0.61978019  0.50266072  0.42484689  1
  Nb  Nb1  1  0.38021981  0.50266072  0.92484689  1
  In  In0  1  0.88020853  0.49217063  0.58312130  1
  In  In1  1  0.11979147  0.49217063  0.08312130  1
  P  P0  1  0.91963511  0.48311550  0.42953494  1
  P  P1  1  0.08036489  0.48311550  0.92953494  1
  P  P2  1  0.54955098  0.51686476  0.55952462  1
  P  P3  1  0.45044902  0.51686476  0.05952462  1
  P  P4  1  0.96031982  0.19963450  0.72401033  1
  P  P5  1  0.03968018  0.19963450  0.22401033  1
  P  P6  1  0.53561127  0.76357550  0.29191553  1
  P  P7  1  0.46438873  0.76357550  0.79191553  1
  P  P8  1  0.99966531  0.76923930  0.57731771  1
  P  P9  1  0.00033469  0.76923930  0.07731771  1
  P  P10  1  0.50003112  0.25333003  0.42408329  1
  P  P11  1  0.49996888  0.25333003  0.92408329  1
loop_
_geom_bond_atom_site_label_1
_geom_bond_atom_site_label_2
_geom_bond_distance
_geom_bond_site_symmetry_2
K0 P8 3.234563 1_555
K0 P6 3.404307 1_555
K0 P2 3.519695 1_555
K0 P10 3.717284 1_565
K1 P9 3.234563 1_556
K1 P7 3.404307 1_555
K1 P3 3.519695 1_556
K1 P11 3.717284 1_565
K2 P10 3.306456 1_555
K2 P4 3.325197 1_555
K2 P0 3.459203 1_555
K2 P8 3.496588 1_545
K3 P11 3.306456 1_554
K3 P5 3.325197 1_555
K3 P1 3.459203 1_554
K3 P9 3.496588 1_545
K4 P4 3.213141 1_555
K4 P2 3.264356 1_555
K4 P7 3.363269 1_545
K4 P11 3.467319 1_555
K5 P5 3.213141 1_555
K5 P3 3.264356 1_555
K5 P6 3.363269 1_545
K5 P10 3.467319 1_555
K6 P5 3.211769 1_665
K6 P6 3.211823 1_555
K6 P0 3.216023 1_555
K6 P9 3.254768 1_655
K7 P4 3.211769 1_465
K7 P7 3.211823 1_555
K7 P1 3.216023 1_555
K7 P8 3.254768 1_455
K8 P7 3.237954 1_555
K8 P11 3.366194 1_555
K8 P8 3.444771 1_555
K9 P6 3.237954 1_555
K9 P10 3.366194 1_555
K9 P9 3.444771 1_555
K10 P5 3.254200 1_655
K10 P9 3.353186 1_655
K10 P10 3.540294 1_555
K10 P0 3.553767 1_555
K11 P4 3.254200 1_455
K11 P8 3.353186 1_455
K11 P11 3.540294 1_555
K11 P1 3.553767 1_555
K12 P5 3.203247 1_555
K12 P8 3.263205 1_445
K12 P0 3.270883 1_455
K12 P10 3.470920 1_555
K13 P4 3.203247 1_555
K13 P9 3.263205 1_646
K13 P1 3.270883 1_655
K13 P11 3.470920 1_555
K14 P2 3.280612 1_555
K14 P7 3.327561 1_555
K14 P10 3.385334 1_565
K14 P8 3.459289 1_455
K15 P3 3.280612 1_555
K15 P6 3.327561 1_555
K15 P11 3.385334 1_564
K15 P9 3.459289 1_655
K16 P2 3.221012 1_555
K16 P4 3.305408 1_455
K16 P10 3.371011 1_555
K16 P0 3.421120 1_455
K17 P3 3.221012 1_555
K17 P5 3.305408 1_655
K17 P11 3.371011 1_554
K17 P1 3.421120 1_654
K18 P0 3.308296 1_455
K18 P6 3.341437 1_555
K18 P8 3.344815 1_455
K18 P2 3.500316 1_555
K19 P1 3.308296 1_655
K19 P7 3.341437 1_555
K19 P9 3.344815 1_656
K19 P3 3.500316 1_556
Nb0 P6 2.407132 1_555
Nb0 P10 2.427698 1_555
Nb0 P2 2.448584 1_555
Nb0 P0 2.451346 1_555
Nb1 P7 2.407132 1_555
Nb1 P11 2.427698 1_555
Nb1 P3 2.448584 1_556
Nb1 P1 2.451346 1_555
In0 P8 2.603550 1_555
In0 P4 2.604321 1_555
In0 P0 2.700479 1_555
In0 P2 2.720940 1_555
In0 K8 3.398943 1_555
In1 P9 2.603550 1_555
In1 P5 2.604321 1_555
In1 P1 2.700479 1_554
In1 P3 2.720940 1_555
In1 K9 3.398943 1_555
