# generated using pymatgen
data_Ti9O8
_symmetry_space_group_name_H-M   'P 1'
_cell_length_a   6.05961800
_cell_length_b   6.69628159
_cell_length_c   9.06180726
_cell_angle_alpha   102.86932583
_cell_angle_beta   89.10522124
_cell_angle_gamma   102.93622340
_symmetry_Int_Tables_number   1
_chemical_formula_structural   Ti9O8
_chemical_formula_sum   'Ti18 O16'
_cell_volume   349.13885241
_cell_formula_units_Z   2
loop_
 _symmetry_equiv_pos_site_id
 _symmetry_equiv_pos_as_xyz
  1  'x, y, z'
loop_
 _atom_site_type_symbol
 _atom_site_label
 _atom_site_symmetry_multiplicity
 _atom_site_fract_x
 _atom_site_fract_y
 _atom_site_fract_z
 _atom_site_occupancy
  Ti  Ti0  1  0.24100000  0.51208700  0.16253200  1
  Ti  Ti1  1  0.60305700  0.83658400  0.07057500  1
  Ti  Ti2  1  0.94600300  0.16676000  0.92884200  1
  Ti  Ti3  1  0.05399700  0.83324000  0.07115800  1
  Ti  Ti4  1  0.39694300  0.16341600  0.92942500  1
  Ti  Ti5  1  0.54934500  0.82538300  0.71729700  1
  Ti  Ti6  1  0.75900000  0.48791300  0.83746800  1
  Ti  Ti7  1  0.93963300  0.17060200  0.62447800  1
  Ti  Ti8  1  0.09571100  0.85397700  0.72576000  1
  Ti  Ti9  1  0.24846600  0.48907500  0.82514500  1
  Ti  Ti10  1  0.39686100  0.16562000  0.62386700  1
  Ti  Ti11  1  0.73788200  0.49390300  0.47636100  1
  Ti  Ti12  1  0.90428900  0.14602300  0.27424000  1
  Ti  Ti13  1  0.06036700  0.82939800  0.37552200  1
  Ti  Ti14  1  0.26211800  0.50609700  0.52363900  1
  Ti  Ti15  1  0.45065500  0.17461700  0.28270300  1
  Ti  Ti16  1  0.60313900  0.83438000  0.37613300  1
  Ti  Ti17  1  0.75153400  0.51092500  0.17485500  1
  O  O0  1  0.17687800  0.17146300  0.11785100  1
  O  O1  1  0.50000000  0.50000000  0.00000000  1
  O  O2  1  0.66803800  0.16793500  0.09698800  1
  O  O3  1  0.82312200  0.82853700  0.88214900  1
  O  O4  1  0.00000000  0.50000000  0.00000000  1
  O  O5  1  0.33196200  0.83206500  0.90301200  1
  O  O6  1  0.52951000  0.49986300  0.67030000  1
  O  O7  1  0.66781800  0.15596400  0.77702100  1
  O  O8  1  0.82867700  0.82996100  0.56025500  1
  O  O9  1  0.98245300  0.50688800  0.65918100  1
  O  O10  1  0.17132300  0.17003900  0.43974500  1
  O  O11  1  0.32729500  0.83441500  0.53938800  1
  O  O12  1  0.47049000  0.50013700  0.32970000  1
  O  O13  1  0.67270500  0.16558500  0.46061200  1
  O  O14  1  0.01754700  0.49311200  0.34081900  1
  O  O15  1  0.33218200  0.84403600  0.22297900  1
loop_
_geom_bond_atom_site_label_1
_geom_bond_atom_site_label_2
_geom_bond_distance
_geom_bond_site_symmetry_2
O0 Ti4 2.148654 1_554
O0 Ti12 2.161995 1_455
O0 Ti3 2.165838 1_545
O0 Ti0 2.171221 1_555
O0 Ti2 2.218755 1_454
O0 Ti15 2.243199 1_555
O1 Ti0 2.137876 1_555
O1 Ti6 2.137876 1_554
O1 Ti4 2.149203 1_554
O1 Ti1 2.149203 1_555
O1 Ti17 2.193867 1_555
O1 Ti9 2.193867 1_554
O2 Ti15 2.119664 1_555
O2 Ti1 2.123839 1_545
O2 Ti17 2.190416 1_555
O2 Ti12 2.218510 1_555
O2 Ti4 2.245056 1_554
O2 Ti2 2.253720 1_554
O3 Ti1 2.148654 1_556
O3 Ti8 2.161995 1_655
O3 Ti2 2.165838 1_565
O3 Ti6 2.171221 1_555
O3 Ti3 2.218755 1_656
O3 Ti5 2.243199 1_555
O4 Ti0 2.066305 1_555
O4 Ti6 2.066305 1_454
O4 Ti2 2.130968 1_454
O4 Ti3 2.130968 1_555
O4 Ti17 2.169338 1_455
O4 Ti9 2.169338 1_554
O5 Ti5 2.119664 1_555
O5 Ti4 2.123839 1_565
O5 Ti9 2.190416 1_555
O5 Ti8 2.218510 1_555
O5 Ti1 2.245056 1_556
O5 Ti3 2.253720 1_556
O6 Ti6 2.098714 1_555
O6 Ti5 2.101904 1_555
O6 Ti14 2.125000 1_555
O6 Ti11 2.146274 1_555
O6 Ti10 2.148993 1_555
O6 Ti9 2.188568 1_555
O7 Ti6 2.112690 1_555
O7 Ti5 2.115541 1_545
O7 Ti4 2.130533 1_555
O7 Ti7 2.133140 1_555
O7 Ti2 2.170970 1_555
O7 Ti10 2.187422 1_555
O8 Ti11 2.154374 1_555
O8 Ti13 2.167851 1_655
O8 Ti7 2.174408 1_565
O8 Ti8 2.178384 1_655
O8 Ti16 2.182616 1_555
O8 Ti5 2.193656 1_555
O9 Ti14 2.077651 1_655
O9 Ti6 2.099007 1_555
O9 Ti7 2.159307 1_555
O9 Ti11 2.214342 1_555
O9 Ti8 2.216089 1_655
O9 Ti9 2.261880 1_655
O10 Ti14 2.154374 1_555
O10 Ti7 2.167851 1_455
O10 Ti13 2.174408 1_545
O10 Ti12 2.178384 1_455
O10 Ti10 2.182616 1_555
O10 Ti15 2.193656 1_555
O11 Ti14 2.117316 1_555
O11 Ti10 2.125497 1_565
O11 Ti5 2.135619 1_555
O11 Ti8 2.179093 1_555
O11 Ti13 2.202461 1_555
O11 Ti16 2.214794 1_555
O12 Ti0 2.098714 1_555
O12 Ti15 2.101904 1_555
O12 Ti11 2.125000 1_555
O12 Ti14 2.146274 1_555
O12 Ti16 2.148993 1_555
O12 Ti17 2.188568 1_555
O13 Ti11 2.117316 1_555
O13 Ti16 2.125497 1_545
O13 Ti15 2.135619 1_555
O13 Ti12 2.179093 1_555
O13 Ti7 2.202461 1_555
O13 Ti10 2.214794 1_555
O14 Ti11 2.077651 1_455
O14 Ti0 2.099007 1_555
O14 Ti13 2.159307 1_555
O14 Ti14 2.214342 1_555
O14 Ti12 2.216089 1_455
O14 Ti17 2.261880 1_455
O15 Ti0 2.112690 1_555
O15 Ti15 2.115541 1_565
O15 Ti1 2.130533 1_555
O15 Ti13 2.133140 1_555
O15 Ti3 2.170970 1_555
O15 Ti16 2.187422 1_555
