# generated using pymatgen
data_CsNaS2O7
_symmetry_space_group_name_H-M   'P 1'
_cell_length_a   5.86251865
_cell_length_b   7.73100046
_cell_length_c   8.02400023
_cell_angle_alpha   102.44816976
_cell_angle_beta   90.80227913
_cell_angle_gamma   91.86706227
_symmetry_Int_Tables_number   1
_chemical_formula_structural   CsNaS2O7
_chemical_formula_sum   'Cs2 Na2 S4 O14'
_cell_volume   354.85250219
_cell_formula_units_Z   2
loop_
 _symmetry_equiv_pos_site_id
 _symmetry_equiv_pos_as_xyz
  1  'x, y, z'
loop_
 _atom_site_type_symbol
 _atom_site_label
 _atom_site_symmetry_multiplicity
 _atom_site_fract_x
 _atom_site_fract_y
 _atom_site_fract_z
 _atom_site_occupancy
  Cs  Cs0  1  0.21951297  0.77742585  0.43136303  1
  Cs  Cs1  1  0.78048703  0.22257415  0.56863697  1
  Na  Na0  1  0.21379485  0.61692185  0.90355834  1
  Na  Na1  1  0.78620515  0.38307815  0.09644166  1
  S  S0  1  0.71960455  0.72445361  0.71818790  1
  S  S1  1  0.72253716  0.81003710  0.08833534  1
  S  S2  1  0.27746284  0.18996290  0.91166466  1
  S  S3  1  0.28039545  0.27554639  0.28181210  1
  O  O0  1  0.73526755  0.86740057  0.90240846  1
  O  O1  1  0.50466063  0.26518129  0.90339127  1
  O  O2  1  0.89716979  0.67923996  0.08461597  1
  O  O3  1  0.48794864  0.38166691  0.28124447  1
  O  O4  1  0.26473245  0.13259943  0.09759154  1
  O  O5  1  0.49533937  0.73481871  0.09660873  1
  O  O6  1  0.10283021  0.32076004  0.91538403  1
  O  O7  1  0.51205136  0.61833309  0.71875553  1
  O  O8  1  0.07560564  0.37670193  0.28984751  1
  O  O9  1  0.28430522  0.15951094  0.39983796  1
  O  O10  1  0.22815690  0.02380068  0.79640960  1
  O  O11  1  0.71569478  0.84048906  0.60016204  1
  O  O12  1  0.92439436  0.62329807  0.71015249  1
  O  O13  1  0.77184310  0.97619932  0.20359040  1
loop_
_geom_bond_atom_site_label_1
_geom_bond_atom_site_label_2
_geom_bond_distance
_geom_bond_site_symmetry_2
Cs0 O9 3.030760 1_565
Cs0 O5 3.116597 1_555
Cs0 O10 3.129642 1_565
Cs0 O8 3.144047 1_555
Cs0 O11 3.169596 1_555
Cs0 O12 3.246628 1_455
Cs0 O11 3.273745 1_455
Cs0 O2 3.276782 1_455
Cs0 O7 3.319835 1_555
Cs0 O3 3.473718 1_555
Cs0 O13 3.732150 1_455
Cs1 O11 3.030760 1_545
Cs1 O1 3.116597 1_555
Cs1 O13 3.129642 1_545
Cs1 O12 3.144047 1_555
Cs1 O9 3.169596 1_555
Cs1 O8 3.246628 1_655
Cs1 O9 3.273745 1_655
Cs1 O6 3.276782 1_655
Cs1 O3 3.319835 1_555
Cs1 O7 3.473718 1_555
Cs1 O10 3.732150 1_655
Na0 O5 2.275151 1_556
Na0 O12 2.292158 1_455
Na0 O7 2.309697 1_555
Na0 O2 2.370729 1_456
Na0 O6 2.381790 1_555
Na1 O1 2.275151 1_554
Na1 O8 2.292158 1_655
Na1 O3 2.309697 1_555
Na1 O6 2.370729 1_654
Na1 O2 2.381790 1_555
O0 S0 1.643196 1_555
O0 S1 1.647462 1_556
O1 S2 1.444059 1_555
O2 S1 1.458371 1_555
O3 S3 1.445817 1_555
O4 S3 1.643196 1_555
O4 S2 1.647462 1_554
O5 S1 1.444059 1_555
O6 S2 1.458371 1_555
O7 S0 1.445817 1_555
O8 S3 1.448705 1_555
O9 S3 1.438448 1_555
O10 S2 1.430095 1_555
O11 S0 1.438448 1_555
O12 S0 1.448705 1_555
O13 S1 1.430095 1_555
