# generated using pymatgen
data_HfZr3(SeO3)8
_symmetry_space_group_name_H-M   'P 1'
_cell_length_a   8.65365210
_cell_length_b   8.65365199
_cell_length_c   8.65365206
_cell_angle_alpha   89.93986897
_cell_angle_beta   90.06013349
_cell_angle_gamma   90.06012863
_symmetry_Int_Tables_number   1
_chemical_formula_structural   HfZr3(SeO3)8
_chemical_formula_sum   'Hf1 Zr3 Se8 O24'
_cell_volume   648.03366766
_cell_formula_units_Z   1
loop_
 _symmetry_equiv_pos_site_id
 _symmetry_equiv_pos_as_xyz
  1  'x, y, z'
loop_
 _atom_site_type_symbol
 _atom_site_label
 _atom_site_symmetry_multiplicity
 _atom_site_fract_x
 _atom_site_fract_y
 _atom_site_fract_z
 _atom_site_occupancy
  Hf  Hf0  1  0.50000000  0.50000000  0.00000000  1
  Zr  Zr0  1  0.50000000  0.00000000  0.50000000  1
  Zr  Zr1  1  0.00000000  0.00000000  0.00000000  1
  Zr  Zr2  1  0.00000000  0.50000000  0.50000000  1
  Se  Se0  1  0.79883322  0.20116678  0.70116678  1
  Se  Se1  1  0.20116678  0.79883322  0.29883322  1
  Se  Se2  1  0.70146255  0.69927484  0.70512486  1
  Se  Se3  1  0.20512486  0.70146255  0.80072516  1
  Se  Se4  1  0.30072516  0.20512486  0.79853745  1
  Se  Se5  1  0.79487514  0.29853745  0.19927484  1
  Se  Se6  1  0.69927484  0.79487514  0.20146255  1
  Se  Se7  1  0.29853745  0.30072516  0.29487514  1
  O  O0  1  0.21223174  0.40893386  0.43380505  1
  O  O1  1  0.93380505  0.21223174  0.09106614  1
  O  O2  1  0.05919158  0.71253171  0.40366073  1
  O  O3  1  0.43880852  0.28820945  0.91130818  1
  O  O4  1  0.28746829  0.90366073  0.44080842  1
  O  O5  1  0.58869182  0.56119148  0.78820945  1
  O  O6  1  0.90366073  0.05919158  0.78746829  1
  O  O7  1  0.56119148  0.71179055  0.08869182  1
  O  O8  1  0.59106614  0.93380505  0.28776826  1
  O  O9  1  0.40893386  0.06619495  0.71223174  1
  O  O10  1  0.78976438  0.90425068  0.06587583  1
  O  O11  1  0.28820945  0.58869182  0.93880852  1
  O  O12  1  0.09574932  0.56587583  0.71023562  1
  O  O13  1  0.09633927  0.94080842  0.21253171  1
  O  O14  1  0.21023562  0.09574932  0.93412417  1
  O  O15  1  0.41130818  0.43880852  0.21179055  1
  O  O16  1  0.78776826  0.59106614  0.56619495  1
  O  O17  1  0.90425068  0.43412417  0.28976438  1
  O  O18  1  0.06619495  0.78776826  0.90893386  1
  O  O19  1  0.43412417  0.21023562  0.40425068  1
  O  O20  1  0.56587583  0.78976438  0.59574932  1
  O  O21  1  0.94080842  0.28746829  0.59633927  1
  O  O22  1  0.71253171  0.09633927  0.55919158  1
  O  O23  1  0.71179055  0.41130818  0.06119148  1
loop_
_geom_bond_atom_site_label_1
_geom_bond_atom_site_label_2
_geom_bond_distance
_geom_bond_site_symmetry_2
Hf0 O23 2.056343 1_555
Hf0 O11 2.056343 1_554
Hf0 O7 2.056343 1_555
Hf0 O3 2.056343 1_554
Hf0 O15 2.056343 1_555
Hf0 O5 2.056343 1_554
O0 Se7 1.698755 1_555
O0 Zr2 2.080476 1_555
O1 Se5 1.698755 1_555
O1 Zr1 2.080476 1_655
O2 Se1 1.699738 1_555
O2 Zr2 2.082228 1_555
O3 Se4 1.701278 1_555
O4 Se1 1.699738 1_555
O4 Zr0 2.082228 1_565
O5 Se2 1.701278 1_555
O6 Se0 1.699738 1_555
O6 Zr1 2.082228 1_656
O7 Se6 1.701278 1_555
O8 Se6 1.698755 1_555
O8 Zr0 2.080476 1_565
O9 Se4 1.698755 1_555
O9 Zr0 2.080476 1_555
O10 Se6 1.698167 1_555
O10 Zr1 2.078321 1_665
O11 Se3 1.701278 1_555
O12 Se3 1.698167 1_555
O12 Zr2 2.078321 1_555
O13 Se1 1.699738 1_555
O13 Zr1 2.082228 1_565
O14 Se4 1.698167 1_555
O14 Zr1 2.078321 1_556
O15 Se7 1.701278 1_555
O16 Se2 1.698755 1_555
O16 Zr2 2.080476 1_655
O17 Se5 1.698167 1_555
O17 Zr2 2.078321 1_655
O18 Se3 1.698755 1_555
O18 Zr1 2.080476 1_566
O19 Se7 1.698167 1_555
O19 Zr0 2.078321 1_555
O20 Se2 1.698167 1_555
O20 Zr0 2.078321 1_565
O21 Se0 1.699738 1_555
O21 Zr2 2.082228 1_655
O22 Se0 1.699738 1_555
O22 Zr0 2.082228 1_555
O23 Se5 1.701278 1_555
