# generated using pymatgen
data_RbBa4As3O
_symmetry_space_group_name_H-M   'P 1'
_cell_length_a   10.04761311
_cell_length_b   10.04761332
_cell_length_c   10.04761438
_cell_angle_alpha   129.52318313
_cell_angle_beta   129.52318632
_cell_angle_gamma   74.17019179
_symmetry_Int_Tables_number   1
_chemical_formula_structural   RbBa4As3O
_chemical_formula_sum   'Rb2 Ba8 As6 O2'
_cell_volume   588.45860235
_cell_formula_units_Z   2
loop_
 _symmetry_equiv_pos_site_id
 _symmetry_equiv_pos_as_xyz
  1  'x, y, z'
loop_
 _atom_site_type_symbol
 _atom_site_label
 _atom_site_symmetry_multiplicity
 _atom_site_fract_x
 _atom_site_fract_y
 _atom_site_fract_z
 _atom_site_occupancy
  Rb  Rb0  1  0.50000000  0.50000000  0.00000000  1
  Rb  Rb1  1  0.00000000  0.00000000  0.00000000  1
  Ba  Ba0  1  0.81446016  0.98637368  0.50000000  1
  Ba  Ba1  1  0.48637368  0.31446016  0.50000000  1
  Ba  Ba2  1  0.98637368  0.48637368  0.17191453  1
  Ba  Ba3  1  0.18553984  0.01362632  0.50000000  1
  Ba  Ba4  1  0.68553984  0.18553984  0.17191453  1
  Ba  Ba5  1  0.01362632  0.51362632  0.82808547  1
  Ba  Ba6  1  0.31446016  0.81446016  0.82808547  1
  Ba  Ba7  1  0.51362632  0.68553984  0.50000000  1
  As  As0  1  0.89571902  0.60428098  0.50000000  1
  As  As1  1  0.25000000  0.25000000  0.00000000  1
  As  As2  1  0.39571902  0.89571902  0.29143904  1
  As  As3  1  0.60428098  0.10428098  0.70856096  1
  As  As4  1  0.10428098  0.39571902  0.50000000  1
  As  As5  1  0.75000000  0.75000000  0.00000000  1
  O  O0  1  0.25000000  0.75000000  0.50000000  1
  O  O1  1  0.75000000  0.25000000  0.50000000  1
loop_
_geom_bond_atom_site_label_1
_geom_bond_atom_site_label_2
_geom_bond_distance
_geom_bond_site_symmetry_2
Ba0 O1 2.549462 1_565
Ba1 O1 2.549462 1_555
Ba2 O0 2.549462 1_655
Ba3 O0 2.549462 1_545
Ba4 O1 2.549453 1_555
Ba5 O1 2.549462 1_455
Ba6 O0 2.549453 1_555
Ba7 O0 2.549462 1_555
As0 As4 2.527235 1_655
As0 Ba5 3.370804 1_655
As0 Ba2 3.370804 1_555
As0 Ba6 3.370815 1_655
As0 Ba4 3.370815 1_555
As0 Rb0 3.506401 1_555
As0 Rb1 3.506401 1_666
As0 Ba7 3.700729 1_555
As0 Ba0 3.700729 1_555
As1 Ba4 3.579155 1_555
As1 Ba6 3.579155 1_544
As1 Ba0 3.579157 1_444
As1 Ba7 3.579157 1_555
As1 Ba1 3.579157 1_555
As1 Ba3 3.579157 1_554
As1 Ba5 3.579162 1_554
As1 Ba2 3.579162 1_455
As1 Rb0 4.007696 1_555
As1 Rb1 4.007696 1_555
As2 As3 2.527223 1_565
As2 Ba7 3.370805 1_555
As2 Ba3 3.370805 1_565
As2 Ba0 3.370816 1_555
As2 Ba1 3.370817 1_565
As2 Rb1 3.506404 1_565
As2 Rb0 3.506404 1_555
As2 Ba5 3.700727 1_554
As2 Ba6 3.700749 1_554
As3 Ba1 3.370805 1_555
As3 Ba0 3.370805 1_545
As3 Ba3 3.370816 1_555
As3 Ba7 3.370817 1_545
As3 Rb1 3.506404 1_656
As3 Rb0 3.506404 1_556
As3 Ba2 3.700727 1_556
As3 Ba4 3.700749 1_556
As4 Ba2 3.370804 1_455
As4 Ba5 3.370804 1_555
As4 Ba4 3.370815 1_455
As4 Ba6 3.370815 1_555
As4 Rb0 3.506401 1_556
As4 Rb1 3.506401 1_555
As4 Ba1 3.700729 1_555
As4 Ba3 3.700729 1_555
As5 Ba6 3.579155 1_554
As5 Ba4 3.579155 1_565
As5 Ba3 3.579157 1_665
As5 Ba1 3.579157 1_554
As5 Ba7 3.579157 1_554
As5 Ba0 3.579157 1_555
As5 Ba2 3.579162 1_555
As5 Ba5 3.579162 1_654
As5 Rb1 4.007696 1_665
As5 Rb0 4.007696 1_555
