# generated using pymatgen
data_V(NiPt)4
_symmetry_space_group_name_H-M   'P 1'
_cell_length_a   5.87887588
_cell_length_b   5.87887619
_cell_length_c   5.87887617
_cell_angle_alpha   95.87248436
_cell_angle_beta   95.87248436
_cell_angle_gamma   142.69026498
_symmetry_Int_Tables_number   1
_chemical_formula_structural   V(NiPt)4
_chemical_formula_sum   'V1 Ni4 Pt4'
_cell_volume   116.68259522
_cell_formula_units_Z   1
loop_
 _symmetry_equiv_pos_site_id
 _symmetry_equiv_pos_as_xyz
  1  'x, y, z'
loop_
 _atom_site_type_symbol
 _atom_site_label
 _atom_site_symmetry_multiplicity
 _atom_site_fract_x
 _atom_site_fract_y
 _atom_site_fract_z
 _atom_site_occupancy
  V  V0  1  0.00000000  0.00000000  0.00000000  1
  Ni  Ni0  1  0.34125583  0.34125583  0.68251166  1
  Ni  Ni1  1  0.65874417  0.65874417  0.31748834  1
  Ni  Ni2  1  0.65874417  0.34125583  1.00000000  1
  Ni  Ni3  1  0.34125583  0.65874417  0.00000000  1
  Pt  Pt0  1  1.00000000  0.31848788  0.31848788  1
  Pt  Pt1  1  0.00000000  0.68151212  0.68151212  1
  Pt  Pt2  1  0.68151212  0.00000000  0.68151212  1
  Pt  Pt3  1  0.31848788  1.00000000  0.31848788  1
loop_
_geom_bond_atom_site_label_1
_geom_bond_atom_site_label_2
_geom_bond_distance
_geom_bond_site_symmetry_2
Ni0 Ni2 2.500916 1_555
Ni0 Ni3 2.500916 1_556
Ni0 V0 2.581358 1_666
Ni0 V0 2.581358 1_556
Ni0 Pt2 2.585181 1_455
Ni0 Pt1 2.585181 1_655
Ni0 Pt1 2.585181 1_545
Ni0 Pt2 2.585181 1_565
Ni0 Pt0 2.694113 1_455
Ni0 Pt3 2.694113 1_545
Ni0 Ni1 2.769469 1_445
Ni0 Ni1 2.769470 1_555
Ni1 Ni3 2.500916 1_555
Ni1 Ni2 2.500916 1_554
Ni1 V0 2.581358 1_555
Ni1 V0 2.581358 1_665
Ni1 Pt3 2.585181 1_655
Ni1 Pt0 2.585181 1_455
Ni1 Pt0 2.585181 1_565
Ni1 Pt3 2.585181 1_545
Ni1 Pt1 2.694113 1_655
Ni1 Pt2 2.694113 1_565
Ni2 V0 2.581358 1_556
Ni2 V0 2.581358 1_666
Ni2 Pt3 2.585181 1_656
Ni2 Pt1 2.585181 1_545
Ni2 Pt1 2.585182 1_655
Ni2 Pt3 2.585182 1_546
Ni2 Pt0 2.694113 1_556
Ni2 Pt2 2.694113 1_555
Ni2 Ni3 2.769469 1_656
Ni2 Ni3 2.769470 1_546
Ni3 V0 2.581358 1_665
Ni3 V0 2.581358 1_555
Ni3 Pt2 2.585181 1_454
Ni3 Pt0 2.585181 1_565
Ni3 Pt0 2.585182 1_455
Ni3 Pt2 2.585182 1_564
Ni3 Pt1 2.694113 1_554
Ni3 Pt3 2.694113 1_555
Pt0 V0 2.508790 1_655
Pt0 Pt2 2.761305 1_665
Pt0 Pt3 2.761305 1_545
Pt0 Pt3 2.761305 1_655
Pt0 Pt2 2.761305 1_555
Pt0 Pt1 2.859611 1_655
Pt1 V0 2.508790 1_566
Pt1 Pt3 2.761305 1_445
Pt1 Pt2 2.761305 1_565
Pt1 Pt2 2.761305 1_455
Pt1 Pt3 2.761305 1_555
Pt2 V0 2.508790 1_656
Pt2 Pt3 2.859611 1_545
Pt3 V0 2.508790 1_565
