# generated using pymatgen
data_Ba3LuScSe6
_symmetry_space_group_name_H-M   'P 1'
_cell_length_a   8.70007040
_cell_length_b   8.70006970
_cell_length_c   8.70007091
_cell_angle_alpha   93.25215019
_cell_angle_beta   93.25214832
_cell_angle_gamma   93.25214871
_symmetry_Int_Tables_number   1
_chemical_formula_structural   Ba3LuScSe6
_chemical_formula_sum   'Ba6 Lu2 Sc2 Se12'
_cell_volume   655.21144830
_cell_formula_units_Z   2
loop_
 _symmetry_equiv_pos_site_id
 _symmetry_equiv_pos_as_xyz
  1  'x, y, z'
loop_
 _atom_site_type_symbol
 _atom_site_label
 _atom_site_symmetry_multiplicity
 _atom_site_fract_x
 _atom_site_fract_y
 _atom_site_fract_z
 _atom_site_occupancy
  Ba  Ba0  1  0.36830874  0.75000000  0.13169126  1
  Ba  Ba1  1  0.13169126  0.36830874  0.75000000  1
  Ba  Ba2  1  0.75000000  0.13169126  0.36830874  1
  Ba  Ba3  1  0.63169126  0.25000000  0.86830874  1
  Ba  Ba4  1  0.86830874  0.63169126  0.25000000  1
  Ba  Ba5  1  0.25000000  0.86830874  0.63169126  1
  Lu  Lu0  1  0.25000000  0.25000000  0.25000000  1
  Lu  Lu1  1  0.75000000  0.75000000  0.75000000  1
  Sc  Sc0  1  0.50000000  0.50000000  0.50000000  1
  Sc  Sc1  1  0.00000000  0.00000000  0.00000000  1
  Se  Se0  1  0.53518869  0.40815261  0.20130872  1
  Se  Se1  1  0.20130872  0.53518869  0.40815261  1
  Se  Se2  1  0.40815261  0.20130872  0.53518869  1
  Se  Se3  1  0.96481131  0.29869128  0.09184739  1
  Se  Se4  1  0.09184739  0.96481131  0.29869128  1
  Se  Se5  1  0.29869128  0.09184739  0.96481131  1
  Se  Se6  1  0.46481131  0.59184739  0.79869128  1
  Se  Se7  1  0.79869128  0.46481131  0.59184739  1
  Se  Se8  1  0.59184739  0.79869128  0.46481131  1
  Se  Se9  1  0.03518869  0.70130872  0.90815261  1
  Se  Se10  1  0.70130872  0.90815261  0.03518869  1
  Se  Se11  1  0.90815261  0.03518869  0.70130872  1
loop_
_geom_bond_atom_site_label_1
_geom_bond_atom_site_label_2
_geom_bond_distance
_geom_bond_site_symmetry_2
Ba0 Se10 3.308502 1_555
Ba0 Se6 3.308503 1_554
Ba0 Se9 3.389514 1_554
Ba0 Se8 3.389515 1_555
Ba0 Se0 3.451745 1_555
Ba0 Se5 3.451745 1_564
Ba0 Se4 3.462256 1_555
Ba0 Se1 3.462256 1_555
Ba1 Se9 3.308502 1_555
Ba1 Se7 3.308503 1_455
Ba1 Se11 3.389514 1_455
Ba1 Se6 3.389514 1_555
Ba1 Se1 3.451745 1_555
Ba1 Se3 3.451745 1_456
Ba1 Se5 3.462256 1_555
Ba1 Se2 3.462256 1_555
Ba2 Se8 3.308502 1_545
Ba2 Se11 3.308503 1_555
Ba2 Se7 3.389514 1_555
Ba2 Se10 3.389514 1_545
Ba2 Se4 3.451745 1_645
Ba2 Se2 3.451745 1_555
Ba2 Se0 3.462256 1_555
Ba2 Se3 3.462256 1_555
Ba3 Se5 3.308502 1_555
Ba3 Se0 3.308503 1_556
Ba3 Se3 3.389514 1_556
Ba3 Se2 3.389515 1_555
Ba3 Se6 3.451745 1_555
Ba3 Se10 3.451745 1_546
Ba3 Se11 3.462256 1_555
Ba3 Se7 3.462256 1_555
Ba4 Se3 3.308502 1_555
Ba4 Se1 3.308503 1_655
Ba4 Se4 3.389514 1_655
Ba4 Se0 3.389514 1_555
Ba4 Se7 3.451745 1_555
Ba4 Se9 3.451745 1_654
Ba4 Se10 3.462256 1_555
Ba4 Se8 3.462256 1_555
Ba5 Se2 3.308502 1_565
Ba5 Se4 3.308503 1_555
Ba5 Se1 3.389514 1_555
Ba5 Se5 3.389514 1_565
Ba5 Se11 3.451745 1_465
Ba5 Se8 3.451745 1_555
Ba5 Se6 3.462256 1_555
Ba5 Se9 3.462256 1_555
Lu0 Se1 2.833172 1_555
Lu0 Se4 2.833172 1_545
Lu0 Se0 2.833172 1_555
Lu0 Se5 2.833172 1_554
Lu0 Se3 2.833172 1_455
Lu0 Se2 2.833172 1_555
Lu1 Se7 2.833172 1_555
Lu1 Se11 2.833172 1_565
Lu1 Se6 2.833172 1_555
Lu1 Se10 2.833172 1_556
Lu1 Se9 2.833172 1_655
Lu1 Se8 2.833172 1_555
Sc0 Se8 2.714327 1_555
Sc0 Se2 2.714327 1_555
Sc0 Se7 2.714328 1_555
Sc0 Se1 2.714328 1_555
Sc0 Se6 2.714328 1_555
Sc0 Se0 2.714328 1_555
Sc1 Se3 2.714327 1_455
Sc1 Se9 2.714327 1_544
Sc1 Se5 2.714328 1_554
Sc1 Se10 2.714328 1_445
Sc1 Se4 2.714328 1_545
Sc1 Se11 2.714328 1_454
