# generated using pymatgen
data_Ba3Na2(LiSb2)2
_symmetry_space_group_name_H-M   'P 1'
_cell_length_a   9.82513171
_cell_length_b   9.54320593
_cell_length_c   9.54320655
_cell_angle_alpha   148.89499999
_cell_angle_beta   131.38499891
_cell_angle_gamma   58.56956640
_symmetry_Int_Tables_number   1
_chemical_formula_structural   Ba3Na2(LiSb2)2
_chemical_formula_sum   'Ba3 Na2 Li2 Sb4'
_cell_volume   344.52429631
_cell_formula_units_Z   1
loop_
 _symmetry_equiv_pos_site_id
 _symmetry_equiv_pos_as_xyz
  1  'x, y, z'
loop_
 _atom_site_type_symbol
 _atom_site_label
 _atom_site_symmetry_multiplicity
 _atom_site_fract_x
 _atom_site_fract_y
 _atom_site_fract_z
 _atom_site_occupancy
  Ba  Ba0  1  0.60929974  0.13058932  0.47871042  1
  Ba  Ba1  1  0.39070026  0.86941068  0.52128958  1
  Ba  Ba2  1  0.00000000  0.00000000  0.00000000  1
  Na  Na0  1  0.98165058  0.67533144  0.30631914  1
  Na  Na1  1  0.01834942  0.32466856  0.69368086  1
  Li  Li0  1  0.62443617  0.32350327  0.30093289  1
  Li  Li1  1  0.37556383  0.67649673  0.69906711  1
  Sb  Sb0  1  0.76183137  0.78781115  0.97402021  1
  Sb  Sb1  1  0.23816863  0.21218885  0.02597979  1
  Sb  Sb2  1  0.67599612  0.49572242  0.18027370  1
  Sb  Sb3  1  0.32400388  0.50427758  0.81972630  1
loop_
_geom_bond_atom_site_label_1
_geom_bond_atom_site_label_2
_geom_bond_distance
_geom_bond_site_symmetry_2
Ba0 Li1 3.461825 1_544
Ba0 Li1 3.461826 1_555
Ba0 Li0 3.501089 1_555
Ba0 Sb3 3.595565 1_544
Ba0 Sb3 3.595567 1_555
Ba0 Sb0 3.687146 1_555
Ba0 Sb0 3.687147 1_544
Ba0 Sb2 3.745188 1_545
Ba0 Sb2 3.745188 1_556
Ba0 Na0 3.756021 1_556
Ba0 Na0 3.756022 1_545
Ba0 Na1 3.761111 1_655
Ba0 Sb1 3.812956 1_555
Ba1 Li0 3.461825 1_566
Ba1 Li0 3.461826 1_555
Ba1 Li1 3.501089 1_555
Ba1 Sb2 3.595565 1_566
Ba1 Sb2 3.595567 1_555
Ba1 Sb1 3.687146 1_555
Ba1 Sb1 3.687147 1_566
Ba1 Sb3 3.745188 1_565
Ba1 Sb3 3.745188 1_554
Ba1 Na1 3.756021 1_554
Ba1 Na1 3.756022 1_565
Ba1 Na0 3.761111 1_455
Ba1 Sb0 3.812956 1_555
Ba2 Sb1 3.598995 1_555
Ba2 Sb0 3.598995 1_444
Ba2 Sb3 3.615493 1_555
Ba2 Sb2 3.615493 1_444
Ba2 Sb3 3.615494 1_544
Ba2 Sb2 3.615494 1_455
Na0 Sb1 3.177013 1_666
Na0 Sb1 3.177014 1_655
Na0 Sb0 3.198225 1_554
Na0 Sb2 3.234932 1_555
Na1 Sb0 3.177013 1_444
Na1 Sb0 3.177014 1_455
Na1 Sb1 3.198225 1_556
Na1 Sb3 3.234932 1_555
Li0 Sb1 2.946330 1_555
Li0 Sb0 2.957959 1_555
Li0 Sb0 2.957959 1_544
Li0 Sb2 3.027218 1_555
Li1 Sb0 2.946330 1_555
Li1 Sb1 2.957959 1_555
Li1 Sb1 2.957959 1_566
Li1 Sb3 3.027218 1_555
Sb2 Sb3 2.873788 1_554
