# generated using pymatgen
data_Zr10AlCuSb6
_symmetry_space_group_name_H-M   'P 1'
_cell_length_a   8.63905653
_cell_length_b   8.63905763
_cell_length_c   5.84613350
_cell_angle_alpha   90.00000000
_cell_angle_beta   90.00000000
_cell_angle_gamma   119.99999581
_symmetry_Int_Tables_number   1
_chemical_formula_structural   Zr10AlCuSb6
_chemical_formula_sum   'Zr10 Al1 Cu1 Sb6'
_cell_volume   377.86099633
_cell_formula_units_Z   1
loop_
 _symmetry_equiv_pos_site_id
 _symmetry_equiv_pos_as_xyz
  1  'x, y, z'
loop_
 _atom_site_type_symbol
 _atom_site_label
 _atom_site_symmetry_multiplicity
 _atom_site_fract_x
 _atom_site_fract_y
 _atom_site_fract_z
 _atom_site_occupancy
  Zr  Zr0  1  0.66666700  0.33333300  0.00000000  1
  Zr  Zr1  1  0.33333300  0.66666700  0.00000000  1
  Zr  Zr2  1  0.33333300  0.66666700  0.50000000  1
  Zr  Zr3  1  0.66666700  0.33333300  0.50000000  1
  Zr  Zr4  1  0.73247502  0.73247502  0.75330210  1
  Zr  Zr5  1  0.26752498  0.00000000  0.75330210  1
  Zr  Zr6  1  0.00000000  0.26752498  0.75330210  1
  Zr  Zr7  1  0.26752498  0.26752498  0.24669790  1
  Zr  Zr8  1  0.73247502  0.00000000  0.24669790  1
  Zr  Zr9  1  1.00000000  0.73247502  0.24669790  1
  Al  Al0  1  0.00000000  0.00000000  0.50000000  1
  Cu  Cu0  1  0.00000000  0.00000000  0.00000000  1
  Sb  Sb0  1  0.38569165  0.38569165  0.74941738  1
  Sb  Sb1  1  0.61430835  0.00000000  0.74941738  1
  Sb  Sb2  1  1.00000000  0.61430835  0.74941738  1
  Sb  Sb3  1  0.61430835  0.61430835  0.25058262  1
  Sb  Sb4  1  0.38569165  0.00000000  0.25058262  1
  Sb  Sb5  1  0.00000000  0.38569165  0.25058262  1
loop_
_geom_bond_atom_site_label_1
_geom_bond_atom_site_label_2
_geom_bond_distance
_geom_bond_site_symmetry_2
Al0 Zr5 2.744878 1_555
Al0 Zr8 2.744878 1_455
Al0 Zr6 2.744879 1_555
Al0 Zr9 2.744879 1_445
Al0 Zr7 2.744879 1_555
Al0 Zr4 2.744879 1_445
Al0 Cu0 2.923067 1_555
Al0 Cu0 2.923067 1_556
Cu0 Zr5 2.724243 1_554
Cu0 Zr8 2.724243 1_455
Cu0 Zr6 2.724243 1_554
Cu0 Zr9 2.724243 1_445
Cu0 Zr7 2.724243 1_555
Cu0 Zr4 2.724243 1_444
Sb0 Zr6 2.956936 1_555
Sb0 Zr5 2.956937 1_555
Sb0 Zr4 2.995968 1_555
Sb0 Zr3 3.052997 1_555
Sb0 Zr2 3.052997 1_555
Sb0 Zr0 3.056256 1_556
Sb0 Zr1 3.056257 1_556
Sb0 Zr7 3.081194 1_556
Sb0 Zr7 3.111213 1_555
Sb1 Zr4 2.956936 1_545
Sb1 Zr6 2.956936 1_655
Sb1 Zr5 2.995967 1_555
Sb1 Zr3 3.052990 1_555
Sb1 Zr2 3.052993 1_545
Sb1 Zr0 3.056249 1_556
Sb1 Zr1 3.056252 1_546
Sb1 Zr8 3.081194 1_556
Sb1 Zr8 3.111213 1_555
Sb2 Zr4 2.956936 1_555
Sb2 Zr5 2.956937 1_665
Sb2 Zr6 2.995968 1_655
Sb2 Zr2 3.052989 1_655
Sb2 Zr3 3.052992 1_555
Sb2 Zr1 3.056249 1_656
Sb2 Zr0 3.056252 1_556
Sb2 Zr9 3.081194 1_556
Sb2 Zr9 3.111213 1_555
Sb3 Zr9 2.956936 1_555
Sb3 Zr8 2.956937 1_565
Sb3 Zr7 2.995968 1_555
Sb3 Zr2 3.052997 1_555
Sb3 Zr3 3.052997 1_555
Sb3 Zr1 3.056256 1_555
Sb3 Zr0 3.056257 1_555
Sb3 Zr4 3.081194 1_554
Sb3 Zr4 3.111213 1_555
Sb4 Zr7 2.956936 1_555
Sb4 Zr9 2.956936 1_445
Sb4 Zr8 2.995967 1_555
Sb4 Zr2 3.052990 1_545
Sb4 Zr3 3.052993 1_555
Sb4 Zr1 3.056249 1_545
Sb4 Zr0 3.056252 1_555
Sb4 Zr5 3.081194 1_554
Sb4 Zr5 3.111213 1_555
Sb5 Zr7 2.956936 1_555
Sb5 Zr8 2.956937 1_455
Sb5 Zr9 2.995968 1_455
Sb5 Zr3 3.052989 1_455
Sb5 Zr2 3.052992 1_555
Sb5 Zr0 3.056249 1_455
Sb5 Zr1 3.056252 1_555
Sb5 Zr6 3.081194 1_554
Sb5 Zr6 3.111213 1_555
