# generated using pymatgen
data_NaSb12RuRh3
_symmetry_space_group_name_H-M   'P 1'
_cell_length_a   8.09197624
_cell_length_b   8.09197569
_cell_length_c   8.09197675
_cell_angle_alpha   109.52659808
_cell_angle_beta   109.52660054
_cell_angle_gamma   109.52659239
_symmetry_Int_Tables_number   1
_chemical_formula_structural   NaSb12RuRh3
_chemical_formula_sum   'Na1 Sb12 Ru1 Rh3'
_cell_volume   407.05049191
_cell_formula_units_Z   1
loop_
 _symmetry_equiv_pos_site_id
 _symmetry_equiv_pos_as_xyz
  1  'x, y, z'
loop_
 _atom_site_type_symbol
 _atom_site_label
 _atom_site_symmetry_multiplicity
 _atom_site_fract_x
 _atom_site_fract_y
 _atom_site_fract_z
 _atom_site_occupancy
  Na  Na0  1  0.00000000  0.00000000  0.00000000  1
  Sb  Sb0  1  0.65800066  0.81343090  0.15491773  1
  Sb  Sb1  1  0.84508227  0.34199934  0.18656910  1
  Sb  Sb2  1  0.50439217  0.84256971  0.65932889  1
  Sb  Sb3  1  0.84256971  0.65932889  0.50439217  1
  Sb  Sb4  1  0.49560783  0.15743029  0.34067111  1
  Sb  Sb5  1  0.15491773  0.65800066  0.81343090  1
  Sb  Sb6  1  0.81343090  0.15491773  0.65800066  1
  Sb  Sb7  1  0.18656910  0.84508227  0.34199934  1
  Sb  Sb8  1  0.15743029  0.34067111  0.49560783  1
  Sb  Sb9  1  0.65932889  0.50439217  0.84256971  1
  Sb  Sb10  1  0.34067111  0.49560783  0.15743029  1
  Sb  Sb11  1  0.34199934  0.18656910  0.84508227  1
  Ru  Ru0  1  0.50000000  0.50000000  0.50000000  1
  Rh  Rh0  1  0.00000000  0.00000000  0.50000000  1
  Rh  Rh1  1  0.00000000  0.50000000  0.00000000  1
  Rh  Rh2  1  0.50000000  0.00000000  0.00000000  1
loop_
_geom_bond_atom_site_label_1
_geom_bond_atom_site_label_2
_geom_bond_distance
_geom_bond_site_symmetry_2
Na0 Sb10 3.486043 1_555
Na0 Sb9 3.486043 1_444
Na0 Sb4 3.486043 1_555
Na0 Sb2 3.486043 1_444
Na0 Sb8 3.486043 1_555
Na0 Sb3 3.486043 1_444
Na0 Sb1 3.507254 1_455
Na0 Sb5 3.507254 1_544
Na0 Sb6 3.507254 1_454
Na0 Sb7 3.507254 1_545
Na0 Sb11 3.507254 1_554
Na0 Sb0 3.507254 1_445
Sb0 Sb9 2.907397 1_554
Sb0 Sb10 2.977171 1_555
Sb1 Sb8 2.907397 1_655
Sb1 Sb3 2.977171 1_555
Sb2 Sb6 2.907397 1_565
Sb2 Sb7 2.977171 1_555
Sb3 Sb5 2.907397 1_655
Sb4 Sb7 2.907397 1_545
Sb4 Sb6 2.977171 1_555
Sb5 Sb8 2.977171 1_555
Sb10 Sb11 2.907397 1_554
Sb11 Sb9 2.977171 1_555
Ru0 Sb4 2.619581 1_555
Ru0 Sb2 2.619581 1_555
Ru0 Sb9 2.619582 1_555
Ru0 Sb10 2.619582 1_555
Ru0 Sb3 2.619582 1_555
Ru0 Sb8 2.619582 1_555
Rh0 Sb11 2.637877 1_555
Rh0 Sb0 2.637877 1_445
Rh0 Sb7 2.639970 1_545
Rh0 Sb6 2.639970 1_455
Rh0 Sb8 2.640397 1_555
Rh0 Sb3 2.640397 1_445
Rh1 Sb6 2.637877 1_454
Rh1 Sb7 2.637877 1_555
Rh1 Sb1 2.639970 1_455
Rh1 Sb5 2.639970 1_554
Rh1 Sb10 2.640397 1_555
Rh1 Sb9 2.640397 1_454
Rh2 Sb1 2.637877 1_555
Rh2 Sb5 2.637877 1_544
Rh2 Sb0 2.639970 1_545
Rh2 Sb11 2.639970 1_554
Rh2 Sb4 2.640397 1_555
Rh2 Sb2 2.640397 1_544
