# generated using pymatgen
data_K3Sr3InAs4
_symmetry_space_group_name_H-M   'P 1'
_cell_length_a   10.37866455
_cell_length_b   10.37866414
_cell_length_c   7.66723130
_cell_angle_alpha   90.00000000
_cell_angle_beta   90.00000000
_cell_angle_gamma   119.99999821
_symmetry_Int_Tables_number   1
_chemical_formula_structural   K3Sr3InAs4
_chemical_formula_sum   'K6 Sr6 In2 As8'
_cell_volume   715.24056625
_cell_formula_units_Z   2
loop_
 _symmetry_equiv_pos_site_id
 _symmetry_equiv_pos_as_xyz
  1  'x, y, z'
loop_
 _atom_site_type_symbol
 _atom_site_label
 _atom_site_symmetry_multiplicity
 _atom_site_fract_x
 _atom_site_fract_y
 _atom_site_fract_z
 _atom_site_occupancy
  K  K0  1  0.13755884  0.86244116  0.17460809  1
  K  K1  1  0.27511669  0.13755884  0.67460809  1
  K  K2  1  0.86244116  0.72488331  0.67460809  1
  K  K3  1  0.72488331  0.86244116  0.17460809  1
  K  K4  1  0.86244116  0.13755884  0.67460809  1
  K  K5  1  0.13755884  0.27511669  0.17460809  1
  Sr  Sr0  1  0.94362959  0.47181379  0.00096317  1
  Sr  Sr1  1  0.52818621  0.05637041  0.00096317  1
  Sr  Sr2  1  0.47181379  0.94362959  0.50096317  1
  Sr  Sr3  1  0.05637041  0.52818621  0.50096317  1
  Sr  Sr4  1  0.52818621  0.47181379  0.00096317  1
  Sr  Sr5  1  0.47181379  0.52818621  0.50096317  1
  In  In0  1  0.66666700  0.33333300  0.38162535  1
  In  In1  1  0.33333300  0.66666700  0.88162535  1
  As  As0  1  0.80527031  0.19472969  0.26258047  1
  As  As1  1  0.19472969  0.38946039  0.76258047  1
  As  As2  1  0.80527031  0.61053961  0.26258047  1
  As  As3  1  0.66666700  0.33333300  0.73501746  1
  As  As4  1  0.61053961  0.80527031  0.76258047  1
  As  As5  1  0.33333300  0.66666700  0.23501746  1
  As  As6  1  0.19472969  0.80527031  0.76258047  1
  As  As7  1  0.38946039  0.19472969  0.26258047  1
loop_
_geom_bond_atom_site_label_1
_geom_bond_atom_site_label_2
_geom_bond_distance
_geom_bond_site_symmetry_2
As0 In0 2.653507 1_555
As0 K3 3.188627 1_545
As0 K5 3.188628 1_655
As0 Sr0 3.197822 1_555
As0 Sr1 3.197823 1_555
As0 K4 3.322078 1_555
As0 Sr3 3.618071 1_655
As0 Sr2 3.618071 1_545
As1 In1 2.653507 1_555
As1 K1 3.188627 1_555
As1 K4 3.188628 1_455
As1 Sr5 3.197823 1_555
As1 Sr3 3.197829 1_555
As1 K5 3.322083 1_556
As1 Sr0 3.618052 1_456
As1 Sr4 3.618078 1_556
As2 In0 2.653507 1_555
As2 K3 3.188627 1_555
As2 K0 3.188628 1_655
As2 Sr4 3.197823 1_555
As2 Sr0 3.197829 1_555
As2 K2 3.322083 1_555
As2 Sr3 3.618052 1_655
As2 Sr5 3.618078 1_555
As3 In0 2.709539 1_555
As3 Sr4 3.217891 1_556
As3 Sr1 3.217898 1_556
As3 Sr0 3.217898 1_556
As3 K4 3.549657 1_555
As3 K2 3.549675 1_555
As3 K1 3.549675 1_555
As4 In1 2.653507 1_555
As4 K2 3.188627 1_555
As4 K4 3.188627 1_565
As4 Sr5 3.197822 1_555
As4 Sr2 3.197829 1_555
As4 K3 3.322083 1_556
As4 Sr1 3.618052 1_566
As4 Sr4 3.618078 1_556
As5 In1 2.709539 1_554
As5 Sr5 3.217891 1_555
As5 Sr2 3.217898 1_555
As5 Sr3 3.217898 1_555
As5 K0 3.549657 1_555
As5 K5 3.549675 1_555
As5 K3 3.549675 1_555
As6 In1 2.653507 1_555
As6 K1 3.188627 1_565
As6 K2 3.188628 1_455
As6 Sr3 3.197822 1_555
As6 Sr2 3.197823 1_555
As6 K0 3.322078 1_556
As6 Sr0 3.618071 1_456
As6 Sr1 3.618071 1_566
As7 In0 2.653507 1_555
As7 K5 3.188627 1_555
As7 K0 3.188627 1_545
As7 Sr4 3.197822 1_555
As7 Sr1 3.197829 1_555
As7 K1 3.322083 1_555
As7 Sr2 3.618052 1_545
As7 Sr5 3.618078 1_555
