# generated using pymatgen
data_TiBe9NbMo
_symmetry_space_group_name_H-M   'P 1'
_cell_length_a   7.40781140
_cell_length_b   7.40781068
_cell_length_c   7.40781214
_cell_angle_alpha   35.23281350
_cell_angle_beta   35.23281831
_cell_angle_gamma   35.23279837
_symmetry_Int_Tables_number   1
_chemical_formula_structural   TiBe9NbMo
_chemical_formula_sum   'Ti1 Be9 Nb1 Mo1'
_cell_volume   120.84752501
_cell_formula_units_Z   1
loop_
 _symmetry_equiv_pos_site_id
 _symmetry_equiv_pos_as_xyz
  1  'x, y, z'
loop_
 _atom_site_type_symbol
 _atom_site_label
 _atom_site_symmetry_multiplicity
 _atom_site_fract_x
 _atom_site_fract_y
 _atom_site_fract_z
 _atom_site_occupancy
  Ti  Ti0  1  0.14114874  0.14114874  0.14114874  1
  Be  Be0  1  0.41513839  0.92139644  0.41513839  1
  Be  Be1  1  0.41513839  0.41513839  0.92139644  1
  Be  Be2  1  0.92139644  0.41513839  0.41513839  1
  Be  Be3  1  0.58622094  0.07624817  0.58622094  1
  Be  Be4  1  0.58622094  0.58622094  0.07624817  1
  Be  Be5  1  0.07624817  0.58622094  0.58622094  1
  Be  Be6  1  0.66708200  0.66708200  0.66708200  1
  Be  Be7  1  0.33590667  0.33590667  0.33590667  1
  Be  Be8  1  0.49968407  0.49968407  0.49968407  1
  Nb  Nb0  1  0.99694287  0.99694287  0.99694287  1
  Mo  Mo0  1  0.85887138  0.85887138  0.85887138  1
loop_
_geom_bond_atom_site_label_1
_geom_bond_atom_site_label_2
_geom_bond_distance
_geom_bond_site_symmetry_2
Be0 Be6 2.172142 1_555
Be0 Be8 2.189051 1_555
Be0 Be7 2.189067 1_565
Be0 Be2 2.213860 1_465
Be0 Be1 2.213861 1_564
Be0 Be2 2.269980 1_555
Be0 Be1 2.269981 1_555
Be0 Mo0 2.550059 1_455
Be0 Mo0 2.550059 1_554
Be0 Ti0 2.612214 1_565
Be0 Nb0 2.789588 1_554
Be0 Nb0 2.789589 1_455
Be1 Be6 2.172142 1_555
Be1 Be8 2.189052 1_555
Be1 Be7 2.189068 1_556
Be1 Be2 2.213861 1_456
Be1 Be2 2.269981 1_555
Be1 Mo0 2.550058 1_545
Be1 Mo0 2.550058 1_455
Be1 Ti0 2.612214 1_556
Be1 Nb0 2.789587 1_455
Be1 Nb0 2.789588 1_545
Be2 Be6 2.172142 1_555
Be2 Be8 2.189051 1_555
Be2 Be7 2.189067 1_655
Be2 Mo0 2.550058 1_545
Be2 Mo0 2.550059 1_554
Be2 Ti0 2.612214 1_655
Be2 Nb0 2.789588 1_554
Be2 Nb0 2.789588 1_545
Be3 Be7 2.130776 1_555
Be3 Be6 2.135149 1_545
Be3 Be8 2.182317 1_555
Be3 Be5 2.197204 1_645
Be3 Be4 2.197205 1_546
Be3 Be5 2.286636 1_555
Be3 Be4 2.286637 1_555
Be3 Ti0 2.549137 1_655
Be3 Ti0 2.549137 1_556
Be3 Mo0 2.605685 1_545
Be3 Nb0 2.868814 1_445
Be3 Nb0 2.868814 1_544
Be4 Be7 2.130776 1_555
Be4 Be6 2.135150 1_554
Be4 Be8 2.182318 1_555
Be4 Be5 2.197205 1_654
Be4 Be5 2.286638 1_555
Be4 Ti0 2.549136 1_565
Be4 Ti0 2.549136 1_655
Be4 Mo0 2.605685 1_554
Be4 Nb0 2.868812 1_544
Be4 Nb0 2.868813 1_454
Be5 Be7 2.130776 1_555
Be5 Be6 2.135150 1_455
Be5 Be8 2.182318 1_555
Be5 Ti0 2.549137 1_565
Be5 Ti0 2.549137 1_556
Be5 Mo0 2.605685 1_455
Be5 Nb0 2.868813 1_445
Be5 Nb0 2.868814 1_454
Be6 Nb0 2.589756 1_545
Be6 Nb0 2.589756 1_455
Be6 Nb0 2.589758 1_554
Be7 Nb0 2.591400 1_454
Be7 Nb0 2.591400 1_544
Be7 Nb0 2.591401 1_445
Be8 Ti0 2.641398 1_565
Be8 Ti0 2.641398 1_655
Be8 Ti0 2.641400 1_556
Be8 Mo0 2.644129 1_545
Be8 Mo0 2.644129 1_455
Be8 Mo0 2.644130 1_554
Nb0 Ti0 3.002692 1_666
Mo0 Ti0 2.798534 1_656
Mo0 Ti0 2.798534 1_566
Mo0 Ti0 2.798535 1_665
Mo0 Nb0 2.874961 1_555
