# generated using pymatgen
data_Cu2Hg2OF6
_symmetry_space_group_name_H-M   'P 1'
_cell_length_a   7.34718095
_cell_length_b   7.34718082
_cell_length_c   7.34718221
_cell_angle_alpha   59.99999375
_cell_angle_beta   59.99999435
_cell_angle_gamma   59.99999811
_symmetry_Int_Tables_number   1
_chemical_formula_structural   Cu2Hg2OF6
_chemical_formula_sum   'Cu4 Hg4 O2 F12'
_cell_volume   280.44469676
_cell_formula_units_Z   2
loop_
 _symmetry_equiv_pos_site_id
 _symmetry_equiv_pos_as_xyz
  1  'x, y, z'
loop_
 _atom_site_type_symbol
 _atom_site_label
 _atom_site_symmetry_multiplicity
 _atom_site_fract_x
 _atom_site_fract_y
 _atom_site_fract_z
 _atom_site_occupancy
  Cu  Cu0  1  0.12500000  0.12500000  0.62500000  1
  Cu  Cu1  1  0.12500000  0.62500000  0.12500000  1
  Cu  Cu2  1  0.62500000  0.12500000  0.12500000  1
  Cu  Cu3  1  0.12500000  0.12500000  0.12500000  1
  Hg  Hg0  1  0.62500000  0.62500000  0.12500000  1
  Hg  Hg1  1  0.62500000  0.12500000  0.62500000  1
  Hg  Hg2  1  0.12500000  0.62500000  0.62500000  1
  Hg  Hg3  1  0.62500000  0.62500000  0.62500000  1
  O  O0  1  0.75000000  0.75000000  0.75000000  1
  O  O1  1  0.50000000  0.50000000  0.50000000  1
  F  F0  1  0.05447526  0.44552474  0.05447526  1
  F  F1  1  0.80447526  0.19552474  0.80447526  1
  F  F2  1  0.05447526  0.05447526  0.44552474  1
  F  F3  1  0.44552474  0.05447526  0.05447526  1
  F  F4  1  0.05447526  0.44552474  0.44552474  1
  F  F5  1  0.44552474  0.44552474  0.05447526  1
  F  F6  1  0.44552474  0.05447526  0.44552474  1
  F  F7  1  0.19552474  0.80447526  0.80447526  1
  F  F8  1  0.80447526  0.19552474  0.19552474  1
  F  F9  1  0.19552474  0.80447526  0.19552474  1
  F  F10  1  0.80447526  0.80447526  0.19552474  1
  F  F11  1  0.19552474  0.19552474  0.80447526  1
loop_
_geom_bond_atom_site_label_1
_geom_bond_atom_site_label_2
_geom_bond_distance
_geom_bond_site_symmetry_2
Cu0 F4 1.977572 1_555
Cu0 F7 1.977572 1_545
Cu0 F6 1.977572 1_555
Cu0 F1 1.977572 1_455
Cu0 F11 1.977573 1_555
Cu0 F2 1.977573 1_555
Cu1 F5 1.977572 1_555
Cu1 F10 1.977572 1_455
Cu1 F9 1.977572 1_555
Cu1 F4 1.977572 1_555
Cu1 F7 1.977572 1_554
Cu1 F0 1.977572 1_555
Cu2 F5 1.977572 1_555
Cu2 F10 1.977572 1_545
Cu2 F8 1.977572 1_555
Cu2 F6 1.977572 1_555
Cu2 F1 1.977572 1_554
Cu2 F3 1.977572 1_555
Cu3 F0 1.977572 1_555
Cu3 F9 1.977572 1_545
Cu3 F3 1.977572 1_555
Cu3 F8 1.977572 1_455
Cu3 F2 1.977573 1_555
Cu3 F11 1.977573 1_554
Hg0 O1 2.249606 1_555
Hg0 O0 2.249606 1_554
Hg1 O0 2.249605 1_545
Hg1 O1 2.249605 1_555
Hg2 O1 2.249605 1_555
Hg2 O0 2.249605 1_455
Hg3 O1 2.249606 1_555
Hg3 O0 2.249606 1_555
