# generated using pymatgen
data_CaCo2(Sb6Ru)2
_symmetry_space_group_name_H-M   'P 1'
_cell_length_a   8.01968196
_cell_length_b   7.95855235
_cell_length_c   7.95855270
_cell_angle_alpha   109.09196349
_cell_angle_beta   109.44562378
_cell_angle_gamma   109.56482249
_symmetry_Int_Tables_number   1
_chemical_formula_structural   CaCo2(Sb6Ru)2
_chemical_formula_sum   'Ca1 Co2 Sb12 Ru2'
_cell_volume   392.51343057
_cell_formula_units_Z   1
loop_
 _symmetry_equiv_pos_site_id
 _symmetry_equiv_pos_as_xyz
  1  'x, y, z'
loop_
 _atom_site_type_symbol
 _atom_site_label
 _atom_site_symmetry_multiplicity
 _atom_site_fract_x
 _atom_site_fract_y
 _atom_site_fract_z
 _atom_site_occupancy
  Ca  Ca0  1  0.00000000  0.00000000  0.00000000  1
  Co  Co0  1  0.50000000  0.50000000  0.50000000  1
  Co  Co1  1  0.50000000  0.00000000  0.00000000  1
  Sb  Sb0  1  0.16371805  0.49704170  0.34327244  1
  Sb  Sb1  1  0.50440134  0.66417448  0.84022585  1
  Sb  Sb2  1  0.34198399  0.84538036  0.17930543  1
  Sb  Sb3  1  0.81682128  0.65951629  0.15730499  1
  Sb  Sb4  1  0.65801601  0.83732045  0.50339637  1
  Sb  Sb5  1  0.18317872  0.34048371  0.84269501  1
  Sb  Sb6  1  0.65801601  0.15461964  0.82069457  1
  Sb  Sb7  1  0.34198399  0.16267955  0.49660363  1
  Sb  Sb8  1  0.49559866  0.33582552  0.15977415  1
  Sb  Sb9  1  0.83628195  0.50295830  0.65672756  1
  Sb  Sb10  1  0.83628195  0.17955739  0.33332365  1
  Sb  Sb11  1  0.16371805  0.82044261  0.66667635  1
  Ru  Ru0  1  0.00000000  0.50000000  0.00000000  1
  Ru  Ru1  1  0.00000000  0.00000000  0.50000000  1
loop_
_geom_bond_atom_site_label_1
_geom_bond_atom_site_label_2
_geom_bond_distance
_geom_bond_site_symmetry_2
Ca0 Sb5 3.441774 1_554
Ca0 Sb3 3.441774 1_445
Ca0 Sb8 3.443021 1_555
Ca0 Sb1 3.443021 1_444
Ca0 Sb7 3.446110 1_555
Ca0 Sb4 3.446110 1_444
Ca0 Sb2 3.446112 1_545
Ca0 Sb6 3.446112 1_454
Ca0 Sb0 3.449485 1_555
Ca0 Sb9 3.449485 1_444
Ca0 Sb10 3.449492 1_455
Ca0 Sb11 3.449492 1_544
Co0 Sb4 2.542607 1_555
Co0 Sb7 2.542607 1_555
Co0 Sb9 2.554998 1_555
Co0 Sb0 2.554998 1_555
Co0 Sb1 2.575112 1_555
Co0 Sb8 2.575112 1_555
Co1 Sb6 2.542614 1_554
Co1 Sb2 2.542614 1_545
Co1 Sb10 2.554995 1_555
Co1 Sb11 2.554995 1_544
Co1 Sb8 2.575121 1_555
Co1 Sb1 2.575121 1_544
Sb0 Sb10 2.927972 1_455
Sb0 Sb11 2.985880 1_555
Sb1 Sb3 2.925851 1_556
Sb1 Sb5 2.982483 1_555
Sb2 Sb7 2.929526 1_565
Sb2 Sb4 2.990813 1_555
Sb3 Sb8 2.982483 1_555
Sb4 Sb6 2.929526 1_565
Sb5 Sb8 2.925851 1_556
Sb6 Sb7 2.990813 1_555
Sb10 Sb9 2.985880 1_555
Sb11 Sb9 2.927972 1_455
Ru0 Sb3 2.602101 1_455
Ru0 Sb5 2.602101 1_554
Ru0 Sb0 2.619636 1_555
Ru0 Sb9 2.619636 1_454
Ru0 Sb2 2.625438 1_555
Ru0 Sb6 2.625438 1_454
Ru1 Sb5 2.602102 1_555
Ru1 Sb3 2.602102 1_445
Ru1 Sb11 2.619656 1_545
Ru1 Sb10 2.619656 1_455
Ru1 Sb7 2.625439 1_555
Ru1 Sb4 2.625439 1_445
