# generated using pymatgen
data_CsAs2RuRh
_symmetry_space_group_name_H-M   'P 1'
_cell_length_a   7.93283364
_cell_length_b   7.93283376
_cell_length_c   7.93283390
_cell_angle_alpha   150.33865378
_cell_angle_beta   150.33865251
_cell_angle_gamma   42.44452464
_symmetry_Int_Tables_number   1
_chemical_formula_structural   CsAs2RuRh
_chemical_formula_sum   'Cs1 As2 Ru1 Rh1'
_cell_volume   121.95560863
_cell_formula_units_Z   1
loop_
 _symmetry_equiv_pos_site_id
 _symmetry_equiv_pos_as_xyz
  1  'x, y, z'
loop_
 _atom_site_type_symbol
 _atom_site_label
 _atom_site_symmetry_multiplicity
 _atom_site_fract_x
 _atom_site_fract_y
 _atom_site_fract_z
 _atom_site_occupancy
  Cs  Cs0  1  0.00000000  0.00000000  0.00000000  1
  As  As0  1  0.33884376  0.33884376  1.00000000  1
  As  As1  1  0.66115624  0.66115624  0.00000000  1
  Ru  Ru0  1  0.25000000  0.75000000  0.50000000  1
  Rh  Rh0  1  0.75000000  0.25000000  0.50000000  1
loop_
_geom_bond_atom_site_label_1
_geom_bond_atom_site_label_2
_geom_bond_distance
_geom_bond_site_symmetry_2
As0 Ru0 2.418577 1_545
As0 Rh0 2.418577 1_455
As0 Ru0 2.418577 1_556
As0 Rh0 2.418577 1_556
As0 Cs0 3.731867 1_667
As0 Cs0 3.731867 1_656
As0 Cs0 3.731867 1_566
As0 Cs0 3.731867 1_555
As1 Rh0 2.418577 1_565
As1 Ru0 2.418577 1_655
As1 Rh0 2.418577 1_554
As1 Ru0 2.418577 1_554
As1 Cs0 3.731867 1_554
As1 Cs0 3.731867 1_565
As1 Cs0 3.731867 1_655
As1 Cs0 3.731867 1_666
Rh0 Ru0 2.871581 1_656
Rh0 Ru0 2.871581 1_544
Rh0 Ru0 2.871581 1_645
Rh0 Ru0 2.871581 1_555
