# generated using pymatgen
data_RbIn3Sn
_symmetry_space_group_name_H-M   'P 1'
_cell_length_a   7.07050951
_cell_length_b   7.07050956
_cell_length_c   7.07050908
_cell_angle_alpha   137.67391274
_cell_angle_beta   137.67391842
_cell_angle_gamma   61.40277813
_symmetry_Int_Tables_number   1
_chemical_formula_structural   RbIn3Sn
_chemical_formula_sum   'Rb1 In3 Sn1'
_cell_volume   158.45272227
_cell_formula_units_Z   1
loop_
 _symmetry_equiv_pos_site_id
 _symmetry_equiv_pos_as_xyz
  1  'x, y, z'
loop_
 _atom_site_type_symbol
 _atom_site_label
 _atom_site_symmetry_multiplicity
 _atom_site_fract_x
 _atom_site_fract_y
 _atom_site_fract_z
 _atom_site_occupancy
  Rb  Rb0  1  0.99948828  0.99948828  0.00000000  1
  In  In0  1  0.37967016  0.37967016  1.00000000  1
  In  In1  1  0.75196467  0.25196467  0.50000000  1
  In  In2  1  0.25196467  0.75196467  0.50000000  1
  Sn  Sn0  1  0.61691123  0.61691123  0.00000000  1
loop_
_geom_bond_atom_site_label_1
_geom_bond_atom_site_label_2
_geom_bond_distance
_geom_bond_site_symmetry_2
Rb0 Sn0 3.882032 1_554
Rb0 Sn0 3.882032 1_655
Rb0 Sn0 3.882032 1_565
Rb0 Sn0 3.882032 1_666
In0 Sn0 2.884617 1_556
In0 In1 2.987801 1_556
In0 In2 2.987802 1_556
In0 In1 2.987802 1_455
In0 In2 2.987802 1_545
In0 Rb0 3.892837 1_445
In0 Rb0 3.892837 1_546
In0 Rb0 3.892837 1_456
In0 Rb0 3.892837 1_557
In1 Sn0 3.035194 1_556
In1 Sn0 3.035194 1_545
In1 Rb0 3.946366 1_545
In1 Rb0 3.946366 1_556
In1 Rb0 3.992482 1_546
In1 Rb0 3.992483 1_445
In2 Sn0 3.035194 1_556
In2 Sn0 3.035194 1_455
In2 Rb0 3.946366 1_455
In2 Rb0 3.946366 1_556
In2 Rb0 3.992482 1_456
In2 Rb0 3.992483 1_445
