# generated using pymatgen
data_Sr6ReBiO12
_symmetry_space_group_name_H-M   'P 1'
_cell_length_a   6.94776599
_cell_length_b   6.94776724
_cell_length_c   6.94776679
_cell_angle_alpha   91.83846508
_cell_angle_beta   91.83846271
_cell_angle_gamma   91.83846166
_symmetry_Int_Tables_number   1
_chemical_formula_structural   Sr6ReBiO12
_chemical_formula_sum   'Sr6 Re1 Bi1 O12'
_cell_volume   334.84958529
_cell_formula_units_Z   1
loop_
 _symmetry_equiv_pos_site_id
 _symmetry_equiv_pos_as_xyz
  1  'x, y, z'
loop_
 _atom_site_type_symbol
 _atom_site_label
 _atom_site_symmetry_multiplicity
 _atom_site_fract_x
 _atom_site_fract_y
 _atom_site_fract_z
 _atom_site_occupancy
  Sr  Sr0  1  0.06311417  0.25377237  0.56513361  1
  Sr  Sr1  1  0.43486639  0.93688583  0.74622763  1
  Sr  Sr2  1  0.74622763  0.43486639  0.93688583  1
  Sr  Sr3  1  0.25377237  0.56513361  0.06311417  1
  Sr  Sr4  1  0.56513361  0.06311417  0.25377237  1
  Sr  Sr5  1  0.93688583  0.74622763  0.43486639  1
  Re  Re0  1  0.50000000  0.50000000  0.50000000  1
  Bi  Bi0  1  0.00000000  0.00000000  0.00000000  1
  O  O0  1  0.06998536  0.29090707  0.92893376  1
  O  O1  1  0.07106624  0.93001464  0.70909293  1
  O  O2  1  0.45454259  0.57022934  0.76049745  1
  O  O3  1  0.70909293  0.07106624  0.93001464  1
  O  O4  1  0.23950255  0.54545741  0.42977066  1
  O  O5  1  0.42977066  0.23950255  0.54545741  1
  O  O6  1  0.57022934  0.76049745  0.45454259  1
  O  O7  1  0.76049745  0.45454259  0.57022934  1
  O  O8  1  0.29090707  0.92893376  0.06998536  1
  O  O9  1  0.54545741  0.42977066  0.23950255  1
  O  O10  1  0.92893376  0.06998536  0.29090707  1
  O  O11  1  0.93001464  0.70909293  0.07106624  1
loop_
_geom_bond_atom_site_label_1
_geom_bond_atom_site_label_2
_geom_bond_distance
_geom_bond_site_symmetry_2
Bi0 O3 2.140482 1_454
Bi0 O8 2.140482 1_545
Bi0 O10 2.140483 1_455
Bi0 O1 2.140483 1_544
Bi0 O0 2.140483 1_554
Bi0 O11 2.140483 1_445
O0 Sr3 2.404823 1_556
O0 Sr2 2.492388 1_455
O0 Sr0 2.531249 1_555
O1 Sr5 2.404823 1_455
O1 Sr0 2.492388 1_565
O1 Sr1 2.531249 1_555
O2 Re0 1.898257 1_555
O2 Sr2 2.555422 1_555
O2 Sr1 2.560404 1_555
O2 Sr3 2.560732 1_556
O3 Sr1 2.404822 1_545
O3 Sr4 2.492388 1_556
O3 Sr2 2.531250 1_555
O4 Re0 1.898257 1_555
O4 Sr0 2.555422 1_555
O4 Sr3 2.560404 1_555
O4 Sr5 2.560732 1_455
O5 Re0 1.898257 1_555
O5 Sr4 2.555422 1_555
O5 Sr0 2.560404 1_555
O5 Sr1 2.560732 1_545
O6 Re0 1.898257 1_555
O6 Sr1 2.555422 1_555
O6 Sr5 2.560404 1_555
O6 Sr4 2.560732 1_565
O7 Re0 1.898257 1_555
O7 Sr5 2.555422 1_555
O7 Sr2 2.560404 1_555
O7 Sr0 2.560732 1_655
O8 Sr4 2.404822 1_565
O8 Sr1 2.492388 1_554
O8 Sr3 2.531250 1_555
O9 Re0 1.898257 1_555
O9 Sr3 2.555422 1_555
O9 Sr4 2.560404 1_555
O9 Sr2 2.560732 1_554
O10 Sr0 2.404823 1_655
O10 Sr5 2.492388 1_545
O10 Sr4 2.531249 1_555
O11 Sr2 2.404823 1_554
O11 Sr3 2.492388 1_655
O11 Sr5 2.531249 1_555
