# generated using pymatgen
data_CsZnCd12
_symmetry_space_group_name_H-M   'P 1'
_cell_length_a   9.77382113
_cell_length_b   9.77382078
_cell_length_c   9.77382043
_cell_angle_alpha   120.00000522
_cell_angle_beta   120.00000404
_cell_angle_gamma   89.99999372
_symmetry_Int_Tables_number   1
_chemical_formula_structural   CsZnCd12
_chemical_formula_sum   'Cs2 Zn2 Cd24'
_cell_volume   660.20389039
_cell_formula_units_Z   2
loop_
 _symmetry_equiv_pos_site_id
 _symmetry_equiv_pos_as_xyz
  1  'x, y, z'
loop_
 _atom_site_type_symbol
 _atom_site_label
 _atom_site_symmetry_multiplicity
 _atom_site_fract_x
 _atom_site_fract_y
 _atom_site_fract_z
 _atom_site_occupancy
  Cs  Cs0  1  0.75000000  0.24999900  0.00000000  1
  Cs  Cs1  1  0.25000000  0.75000000  0.00000000  1
  Zn  Zn0  1  0.00000000  0.00000000  0.50000000  1
  Zn  Zn1  1  0.50000000  0.50000000  0.50000000  1
  Cd  Cd0  1  0.44201802  0.20301149  0.14503051  1
  Cd  Cd1  1  0.20301249  0.44201802  0.14503051  1
  Cd  Cd2  1  0.70301249  0.70301249  0.14503051  1
  Cd  Cd3  1  0.94201802  0.94201802  0.14503051  1
  Cd  Cd4  1  0.55798098  0.55798098  0.26099347  1
  Cd  Cd5  1  0.70301249  0.05798198  0.26099447  1
  Cd  Cd6  1  0.20301249  0.20301249  0.26099447  1
  Cd  Cd7  1  0.05798198  0.70301249  0.26099447  1
  Cd  Cd8  1  0.29698851  0.05798098  0.50000000  1
  Cd  Cd9  1  0.55798298  0.20301149  0.50000000  1
  Cd  Cd10  1  0.05798198  0.29698751  0.50000000  1
  Cd  Cd11  1  0.20301249  0.55798198  0.50000000  1
  Cd  Cd12  1  0.79698751  0.44201702  0.50000000  1
  Cd  Cd13  1  0.94201802  0.70301149  0.50000000  1
  Cd  Cd14  1  0.44201802  0.79698751  0.50000000  1
  Cd  Cd15  1  0.70301249  0.94201702  0.50000000  1
  Cd  Cd16  1  0.94201702  0.29698751  0.73900453  1
  Cd  Cd17  1  0.79698751  0.79698751  0.73900453  1
  Cd  Cd18  1  0.29698751  0.94201702  0.73900453  1
  Cd  Cd19  1  0.44201802  0.44201802  0.73900653  1
  Cd  Cd20  1  0.05798198  0.05798198  0.85496949  1
  Cd  Cd21  1  0.29698851  0.29698851  0.85496949  1
  Cd  Cd22  1  0.79698751  0.55798098  0.85496949  1
  Cd  Cd23  1  0.55798198  0.79698751  0.85496949  1
loop_
_geom_bond_atom_site_label_1
_geom_bond_atom_site_label_2
_geom_bond_distance
_geom_bond_site_symmetry_2
Cd0 Cd5 2.918292 1_555
Cd0 Cd18 2.918305 1_544
Cd0 Zn1 2.957509 1_555
Cd0 Cd9 3.064170 1_555
Cd0 Cd6 3.064170 1_555
Cd0 Cd12 3.064172 1_555
Cd0 Cd4 3.064174 1_555
Cd0 Cd20 3.078231 1_554
Cd0 Cd21 3.078246 1_554
Cd0 Cd1 3.303606 1_555
Cd0 Cs1 4.024812 1_545
Cd0 Cs0 4.024821 1_555
Cd1 Cd7 2.918299 1_555
Cd1 Cd16 2.918307 1_454
Cd1 Zn1 2.957505 1_555
Cd1 Cd4 3.064165 1_555
Cd1 Cd11 3.064172 1_555
Cd1 Cd14 3.064172 1_555
Cd1 Cd6 3.064172 1_555
Cd1 Cd20 3.078231 1_554
Cd1 Cd21 3.078239 1_554
Cd1 Cs1 4.024821 1_555
Cd1 Cs0 4.024824 1_455
Cd2 Cd4 2.918304 1_555
Cd2 Zn0 2.957505 1_665
Cd2 Cd5 3.064172 1_565
Cd2 Cd7 3.064172 1_655
Cd2 Cd22 3.078231 1_554
Cd2 Cd23 3.078231 1_554
Cd2 Cd3 3.303599 1_555
Cd2 Cs1 4.024821 1_555
Cd2 Cs0 4.024830 1_555
Cd3 Cd6 2.918299 1_665
Cd3 Zn0 2.957505 1_665
Cd3 Cd7 3.064172 1_655
Cd3 Cd5 3.064172 1_565
Cd3 Cd8 3.064179 1_665
Cd3 Cs0 4.024812 1_565
Cd3 Cs1 4.024821 1_655
Cd4 Zn1 2.957504 1_555
Cd4 Cs1 4.024819 1_555
Cd4 Cs0 4.024823 1_555
Cd5 Zn0 2.957505 1_655
Cd5 Cd9 3.078222 1_555
Cd5 Cs0 4.024813 1_555
Cd5 Cs1 4.024821 1_545
Cd6 Zn1 2.957505 1_555
Cd6 Cd9 3.064183 1_555
Cd6 Cd8 3.078239 1_555
Cd6 Cs0 4.024816 1_455
Cd6 Cs1 4.024820 1_545
Cd7 Zn0 2.957505 1_565
Cd7 Cd8 3.064168 1_565
Cd7 Cs1 4.024821 1_555
Cd7 Cs0 4.024828 1_455
Cd8 Cd9 2.918299 1_555
Cd8 Zn0 2.957513 1_555
Cd8 Cs1 4.024814 1_545
Cd8 Cs0 4.024816 1_556
Cd9 Zn1 2.957517 1_555
Cd9 Cs1 4.024817 1_545
Cd9 Cs0 4.024822 1_556
Cd10 Cd12 2.918294 1_455
Cd10 Cd11 2.918299 1_555
Cd10 Zn0 2.957505 1_555
Cd10 Cd21 3.064168 1_555
Cd10 Cd16 3.064170 1_455
Cd10 Cd3 3.064171 1_445
Cd10 Cd5 3.064172 1_455
Cd10 Cd19 3.078231 1_555
Cd10 Cd6 3.078231 1_555
Cd10 Cd8 3.303613 1_555
Cd10 Cs0 4.024816 1_455
Cd10 Cs1 4.024820 1_556
Cd11 Cd13 2.918294 1_455
Cd11 Zn1 2.957505 1_555
Cd11 Cd6 3.064172 1_555
Cd11 Cd23 3.064172 1_555
Cd11 Cd19 3.064177 1_555
Cd11 Cd18 3.078223 1_555
Cd11 Cd7 3.078231 1_555
Cd11 Cd14 3.303599 1_555
Cd11 Cs1 4.024820 1_556
Cd11 Cs0 4.024822 1_455
Cd12 Cd13 2.918299 1_555
Cd12 Zn1 2.957507 1_555
Cd12 Cd22 3.064172 1_555
Cd12 Cd17 3.064177 1_555
Cd12 Cd4 3.064181 1_555
Cd12 Cd16 3.078215 1_555
Cd12 Cd5 3.078223 1_555
Cd12 Cd9 3.303592 1_555
Cd12 Cs0 4.024820 1_555
Cd12 Cs1 4.024822 1_656
Cd13 Zn0 2.957515 1_665
Cd13 Cd18 3.064174 1_655
Cd13 Cd7 3.064175 1_655
Cd13 Cd20 3.064177 1_665
Cd13 Cd2 3.064177 1_555
Cd13 Cd17 3.078222 1_555
Cd13 Cd4 3.078239 1_555
Cd13 Cd15 3.303599 1_555
Cd13 Cs1 4.024816 1_656
Cd13 Cs0 4.024820 1_555
Cd14 Cd8 2.918286 1_565
Cd14 Cd15 2.918295 1_555
Cd14 Zn1 2.957505 1_555
Cd14 Cd17 3.064170 1_555
Cd14 Cd23 3.064172 1_555
Cd14 Cd4 3.064173 1_555
Cd14 Cd18 3.078223 1_555
Cd14 Cd7 3.078231 1_555
Cd14 Cs0 4.024816 1_566
Cd14 Cs1 4.024820 1_555
Cd15 Cd9 2.918294 1_565
Cd15 Zn0 2.957507 1_665
Cd15 Cd2 3.064170 1_555
Cd15 Cd20 3.064170 1_665
Cd15 Cd16 3.064177 1_565
Cd15 Cd5 3.064179 1_565
Cd15 Cd17 3.078215 1_555
Cd15 Cd4 3.078231 1_555
Cd15 Cs0 4.024820 1_566
Cd15 Cs1 4.024822 1_555
Cd16 Cd22 2.918288 1_555
Cd16 Zn0 2.957507 1_655
Cd16 Cd20 3.064179 1_655
Cd16 Cd21 3.064187 1_655
Cd16 Cd9 3.078214 1_555
Cd16 Cd5 3.303592 1_555
Cd16 Cs1 4.024822 1_656
Cd16 Cs0 4.024826 1_556
Cd17 Cd20 2.918295 1_665
Cd17 Cd3 2.918307 1_556
Cd17 Zn1 2.957507 1_555
Cd17 Cd23 3.064179 1_555
Cd17 Cd22 3.064188 1_555
Cd17 Cd4 3.303599 1_555
Cd17 Cs0 4.024814 1_566
Cd17 Cs1 4.024822 1_656
Cd18 Cd23 2.918294 1_555
Cd18 Zn0 2.957507 1_565
Cd18 Cd8 3.064166 1_565
Cd18 Cd20 3.064179 1_565
Cd18 Cd21 3.064186 1_565
Cd18 Cd7 3.303592 1_555
Cd18 Cs0 4.024818 1_566
Cd18 Cs1 4.024822 1_556
Cd19 Cd21 2.918278 1_555
Cd19 Cd2 2.918294 1_556
Cd19 Zn1 2.957515 1_555
Cd19 Cd22 3.064174 1_555
Cd19 Cd23 3.064176 1_555
Cd19 Cd9 3.064188 1_555
Cd19 Cd8 3.078238 1_555
Cd19 Cd6 3.303606 1_555
Cd19 Cs1 4.024816 1_556
Cd19 Cs0 4.024823 1_556
Cd20 Cd6 2.918299 1_556
Cd20 Zn0 2.957505 1_555
Cd20 Cd21 3.303613 1_555
Cd20 Cs0 4.024818 1_456
Cd20 Cs1 4.024821 1_546
Cd21 Cd4 2.918287 1_556
Cd21 Zn0 2.957513 1_555
Cd21 Cd8 3.064175 1_555
Cd21 Cs1 4.024814 1_556
Cd21 Cs0 4.024817 1_556
Cd22 Cd7 2.918297 1_656
Cd22 Zn1 2.957509 1_555
Cd22 Cd9 3.064170 1_555
Cd22 Cd3 3.078239 1_556
Cd22 Cd23 3.303606 1_555
Cd22 Cs0 4.024821 1_556
Cd22 Cs1 4.024824 1_656
Cd23 Cd5 2.918299 1_566
Cd23 Zn1 2.957505 1_555
Cd23 Cd3 3.078231 1_556
Cd23 Cs0 4.024812 1_566
Cd23 Cs1 4.024821 1_556
