# generated using pymatgen
data_LiMn4O8
_symmetry_space_group_name_H-M   'P 1'
_cell_length_a   8.05224982
_cell_length_b   8.05224982
_cell_length_c   8.05224982
_cell_angle_alpha   90.00000000
_cell_angle_beta   90.00000000
_cell_angle_gamma   90.00000000
_symmetry_Int_Tables_number   1
_chemical_formula_structural   LiMn4O8
_chemical_formula_sum   'Li4 Mn16 O32'
_cell_volume   522.09762913
_cell_formula_units_Z   4
loop_
 _symmetry_equiv_pos_site_id
 _symmetry_equiv_pos_as_xyz
  1  'x, y, z'
loop_
 _atom_site_type_symbol
 _atom_site_label
 _atom_site_symmetry_multiplicity
 _atom_site_fract_x
 _atom_site_fract_y
 _atom_site_fract_z
 _atom_site_occupancy
  Li  Li0  1  0.49963934  0.99963934  0.50036066  1
  Li  Li1  1  0.99963934  0.50036066  0.49963934  1
  Li  Li2  1  0.50036066  0.49963934  0.99963934  1
  Li  Li3  1  0.00036066  0.00036066  0.00036066  1
  Mn  Mn0  1  0.87646580  0.37646580  0.12353420  1
  Mn  Mn1  1  0.37646580  0.12353420  0.87646580  1
  Mn  Mn2  1  0.12353420  0.87646580  0.37646580  1
  Mn  Mn3  1  0.62353420  0.62353420  0.62353420  1
  Mn  Mn4  1  0.62369793  0.87567751  0.87639095  1
  Mn  Mn5  1  0.12360905  0.12369793  0.62432249  1
  Mn  Mn6  1  0.37567751  0.62360905  0.37630207  1
  Mn  Mn7  1  0.12369793  0.62432249  0.12360905  1
  Mn  Mn8  1  0.62360905  0.37630207  0.37567751  1
  Mn  Mn9  1  0.87567751  0.87639095  0.62369793  1
  Mn  Mn10  1  0.37630207  0.37567751  0.62360905  1
  Mn  Mn11  1  0.87639095  0.62369793  0.87567751  1
  Mn  Mn12  1  0.62432249  0.12360905  0.12369793  1
  Mn  Mn13  1  0.87630207  0.12432249  0.37639095  1
  Mn  Mn14  1  0.37639095  0.87630207  0.12432249  1
  Mn  Mn15  1  0.12432249  0.37639095  0.87630207  1
  O  O0  1  0.11118495  0.61118495  0.88881505  1
  O  O1  1  0.61118495  0.88881505  0.11118495  1
  O  O2  1  0.88881505  0.11118495  0.61118495  1
  O  O3  1  0.38881505  0.38881505  0.38881505  1
  O  O4  1  0.36174609  0.86191581  0.36250577  1
  O  O5  1  0.63749423  0.86174609  0.63808419  1
  O  O6  1  0.36191581  0.13749423  0.63825391  1
  O  O7  1  0.86174609  0.63808419  0.63749423  1
  O  O8  1  0.13749423  0.63825391  0.36191581  1
  O  O9  1  0.86191581  0.36250577  0.36174609  1
  O  O10  1  0.63825391  0.36191581  0.13749423  1
  O  O11  1  0.36250577  0.36174609  0.86191581  1
  O  O12  1  0.63808419  0.63749423  0.86174609  1
  O  O13  1  0.13825391  0.13808419  0.86250577  1
  O  O14  1  0.86250577  0.13825391  0.13808419  1
  O  O15  1  0.13808419  0.86250577  0.13825391  1
  O  O16  1  0.63809965  0.13809965  0.36190035  1
  O  O17  1  0.13809965  0.36190035  0.63809965  1
  O  O18  1  0.36190035  0.63809965  0.13809965  1
  O  O19  1  0.86190035  0.86190035  0.86190035  1
  O  O20  1  0.11045413  0.88896324  0.61122255  1
  O  O21  1  0.38877745  0.61045413  0.61103676  1
  O  O22  1  0.38896324  0.88877745  0.88954587  1
  O  O23  1  0.61045413  0.61103676  0.38877745  1
  O  O24  1  0.88877745  0.88954587  0.38896324  1
  O  O25  1  0.88896324  0.61122255  0.11045413  1
  O  O26  1  0.88954587  0.38896324  0.88877745  1
  O  O27  1  0.61122255  0.11045413  0.88896324  1
  O  O28  1  0.61103676  0.38877745  0.61045413  1
  O  O29  1  0.38954587  0.11103676  0.11122255  1
  O  O30  1  0.11122255  0.38954587  0.11103676  1
  O  O31  1  0.11103676  0.11122255  0.38954587  1
loop_
_geom_bond_atom_site_label_1
_geom_bond_atom_site_label_2
_geom_bond_distance
_geom_bond_site_symmetry_2
Li0 O6 1.922217 1_565
Li0 O4 1.922217 1_555
Li0 O5 1.922217 1_555
Li0 O16 1.931093 1_565
Li1 O8 1.922217 1_655
Li1 O9 1.922217 1_555
Li1 O7 1.922217 1_555
Li1 O17 1.931093 1_655
Li2 O10 1.922217 1_556
Li2 O11 1.922217 1_555
Li2 O12 1.922217 1_555
Li2 O18 1.931093 1_556
Li3 O15 1.922217 1_545
Li3 O13 1.922217 1_554
Li3 O14 1.922217 1_455
Li3 O19 1.931093 1_444
Mn0 O30 1.895925 1_655
Mn0 O26 1.895925 1_554
Mn0 O25 1.895925 1_555
Mn0 O10 1.925001 1_555
Mn0 O14 1.925001 1_555
Mn0 O9 1.925001 1_555
Mn1 O29 1.895925 1_556
Mn1 O22 1.895925 1_545
Mn1 O27 1.895925 1_555
Mn1 O6 1.925001 1_555
Mn1 O13 1.925001 1_555
Mn1 O11 1.925001 1_555
Mn2 O31 1.895925 1_565
Mn2 O24 1.895925 1_455
Mn2 O20 1.895925 1_555
Mn2 O8 1.925001 1_555
Mn2 O15 1.925001 1_555
Mn2 O4 1.925001 1_555
Mn3 O23 1.895925 1_555
Mn3 O28 1.895925 1_555
Mn3 O21 1.895925 1_555
Mn3 O12 1.925001 1_555
Mn3 O5 1.925001 1_555
Mn3 O7 1.925001 1_555
Mn4 O27 1.895852 1_565
Mn4 O22 1.896045 1_555
Mn4 O1 1.896256 1_556
Mn4 O19 1.924811 1_555
Mn4 O12 1.925022 1_555
Mn4 O5 1.925389 1_555
Mn5 O31 1.895852 1_555
Mn5 O20 1.896045 1_545
Mn5 O2 1.896256 1_455
Mn5 O17 1.924811 1_555
Mn5 O13 1.925022 1_555
Mn5 O6 1.925389 1_555
Mn6 O23 1.895852 1_555
Mn6 O21 1.896045 1_555
Mn6 O3 1.896256 1_555
Mn6 O18 1.924811 1_555
Mn6 O8 1.925022 1_555
Mn6 O4 1.925389 1_555
Mn7 O30 1.895852 1_555
Mn7 O25 1.896045 1_455
Mn7 O0 1.896256 1_554
Mn7 O18 1.924811 1_555
Mn7 O15 1.925022 1_555
Mn7 O8 1.925389 1_555
Mn8 O28 1.895852 1_555
Mn8 O23 1.896045 1_555
Mn8 O3 1.896256 1_555
Mn8 O16 1.924811 1_555
Mn8 O10 1.925022 1_555
Mn8 O9 1.925389 1_555
Mn9 O20 1.895852 1_655
Mn9 O24 1.896045 1_555
Mn9 O2 1.896256 1_565
Mn9 O19 1.924811 1_555
Mn9 O5 1.925022 1_555
Mn9 O7 1.925389 1_555
Mn10 O21 1.895852 1_555
Mn10 O28 1.896045 1_555
Mn10 O3 1.896256 1_555
Mn10 O17 1.924811 1_555
Mn10 O6 1.925022 1_555
Mn10 O11 1.925389 1_555
Mn11 O25 1.895852 1_556
Mn11 O26 1.896045 1_555
Mn11 O0 1.896256 1_655
Mn11 O19 1.924811 1_555
Mn11 O7 1.925022 1_555
Mn11 O12 1.925389 1_555
Mn12 O29 1.895852 1_555
Mn12 O27 1.896045 1_554
Mn12 O1 1.896256 1_545
Mn12 O16 1.924811 1_555
Mn12 O14 1.925022 1_555
Mn12 O10 1.925389 1_555
Mn13 O24 1.895852 1_545
Mn13 O31 1.896045 1_655
Mn13 O2 1.896256 1_555
Mn13 O16 1.924811 1_555
Mn13 O9 1.925022 1_555
Mn13 O14 1.925389 1_555
Mn14 O22 1.895852 1_554
Mn14 O29 1.896045 1_565
Mn14 O1 1.896256 1_555
Mn14 O18 1.924811 1_555
Mn14 O4 1.925022 1_555
Mn14 O15 1.925389 1_555
Mn15 O26 1.895852 1_455
Mn15 O30 1.896045 1_556
Mn15 O0 1.896256 1_555
Mn15 O17 1.924811 1_555
Mn15 O11 1.925022 1_555
Mn15 O13 1.925389 1_555
