# generated using pymatgen
data_Ti8Al14GeIr7
_symmetry_space_group_name_H-M   'P 1'
_cell_length_a   8.60429339
_cell_length_b   8.60429255
_cell_length_c   8.60429319
_cell_angle_alpha   120.05453934
_cell_angle_beta   119.90613965
_cell_angle_gamma   90.03410688
_symmetry_Int_Tables_number   1
_chemical_formula_structural   Ti8Al14GeIr7
_chemical_formula_sum   'Ti8 Al14 Ge1 Ir7'
_cell_volume   450.56620952
_cell_formula_units_Z   1
loop_
 _symmetry_equiv_pos_site_id
 _symmetry_equiv_pos_as_xyz
  1  'x, y, z'
loop_
 _atom_site_type_symbol
 _atom_site_label
 _atom_site_symmetry_multiplicity
 _atom_site_fract_x
 _atom_site_fract_y
 _atom_site_fract_z
 _atom_site_occupancy
  Ti  Ti0  1  0.79658733  0.29476562  0.08349776  1
  Ti  Ti1  1  0.21126887  0.29476562  0.49817829  1
  Ti  Ti2  1  0.20352981  0.70352981  0.50000000  1
  Ti  Ti3  1  0.21126887  0.71309057  0.91650224  1
  Ti  Ti4  1  0.79658733  0.71309057  0.50182171  1
  Ti  Ti5  1  0.78781045  0.28781045  0.50000000  1
  Ti  Ti6  1  0.37972194  0.12281933  0.74309739  1
  Ti  Ti7  1  0.37972194  0.63662455  0.25690261  1
  Al  Al0  1  0.15800699  0.33898450  0.18097652  1
  Al  Al1  1  0.15800699  0.97703047  0.81902348  1
  Al  Al2  1  0.15305298  0.34252463  0.81052834  1
  Al  Al3  1  0.53199629  0.34252463  0.18947166  1
  Al  Al4  1  0.84111164  0.65684389  0.81573425  1
  Al  Al5  1  0.84111164  0.02537739  0.18426575  1
  Al  Al6  1  0.83920550  0.65866834  0.18053817  1
  Al  Al7  1  0.47812917  0.65866834  0.81946183  1
  Al  Al8  1  0.38016973  0.12056787  0.25960186  1
  Al  Al9  1  0.86096701  0.12056787  0.74039814  1
  Al  Al10  1  0.62108114  0.87942666  0.25834551  1
  Al  Al11  1  0.62108114  0.36273563  0.74165449  1
  Al  Al12  1  0.62195934  0.87895672  0.74300262  1
  Al  Al13  1  0.13595210  0.87895672  0.25699738  1
  Ge  Ge0  1  0.99606402  0.49606402  0.50000000  1
  Ir  Ir0  1  0.00190124  0.99971271  0.50164888  1
  Ir  Ir1  1  0.49806383  0.99971271  0.99781147  1
  Ir  Ir2  1  0.49734584  0.49734584  1.00000000  1
  Ir  Ir3  1  0.49806383  0.50025236  0.49835112  1
  Ir  Ir4  1  0.00190124  0.50025236  0.00218853  1
  Ir  Ir5  1  0.99968183  0.99968183  0.00000000  1
  Ir  Ir6  1  0.49864399  0.99864399  0.50000000  1
loop_
_geom_bond_atom_site_label_1
_geom_bond_atom_site_label_2
_geom_bond_distance
_geom_bond_site_symmetry_2
Al0 Ir5 2.475927 1_445
Al0 Ir4 2.485153 1_555
Al0 Ir3 2.485161 1_555
Al1 Ir5 2.475920 1_456
Al1 Ir0 2.485161 1_555
Al1 Ir1 2.485161 1_555
Al2 Ir0 2.480283 1_545
Al2 Ir4 2.480283 1_556
Al2 Ir2 2.492456 1_555
Al3 Ir1 2.480283 1_544
Al3 Ir3 2.480283 1_555
Al3 Ir2 2.492456 1_554
Al4 Ir5 2.496105 1_556
Al4 Ir4 2.501466 1_656
Al4 Ir3 2.501481 1_555
Al5 Ir5 2.496090 1_545
Al5 Ir0 2.501481 1_645
Al5 Ir1 2.501481 1_544
Al6 Ir0 2.494335 1_655
Al6 Ir4 2.494342 1_655
Al6 Ir2 2.504204 1_554
Al7 Ir1 2.494332 1_555
Al7 Ir3 2.494340 1_555
Al7 Ir2 2.504209 1_555
Al8 Ir6 2.547634 1_545
Al8 Ir3 2.667903 1_555
Al8 Ir1 2.667903 1_544
Al8 Ir5 2.676944 1_445
Al9 Ir6 2.547641 1_545
Al9 Ir0 2.667896 1_645
Al9 Ir4 2.667902 1_656
Al9 Ir5 2.676943 1_546
Al10 Ir6 2.556279 1_555
Al10 Ir1 2.678806 1_554
Al10 Ir0 2.678806 1_655
Al10 Ir2 2.683036 1_554
Al11 Ir6 2.556279 1_545
Al11 Ir3 2.678806 1_555
Al11 Ir4 2.678806 1_656
Al11 Ir2 2.683036 1_555
Al12 Ir6 2.550283 1_555
Al12 Ir5 2.657138 1_556
Al12 Ir3 2.659507 1_555
Al12 Ir1 2.659508 1_555
Al13 Ir6 2.550297 1_555
Al13 Ir5 2.657137 1_455
Al13 Ir0 2.659493 1_555
Al13 Ir4 2.659507 1_555
Ge0 Ti2 2.523756 1_655
Ge0 Ti5 2.533339 1_555
Ge0 Ti0 2.536622 1_555
Ge0 Ti3 2.536622 1_655
Ge0 Ti4 2.536628 1_555
Ge0 Ti1 2.536628 1_655
Ir0 Ti6 2.657704 1_565
Ir1 Ti6 2.657704 1_565
Ir2 Ti6 2.631626 1_555
Ir2 Ti7 2.631626 1_556
Ir3 Ti7 2.657704 1_555
Ir4 Ti7 2.657704 1_555
Ir6 Ti7 2.541793 1_555
Ir6 Ti6 2.541793 1_565
