# generated using pymatgen
data_CaLu(ZnGa)2
_symmetry_space_group_name_H-M   'P 1'
_cell_length_a   4.39089624
_cell_length_b   4.39089530
_cell_length_c   7.24153572
_cell_angle_alpha   90.00000000
_cell_angle_beta   90.00000000
_cell_angle_gamma   120.00000704
_symmetry_Int_Tables_number   1
_chemical_formula_structural   CaLu(ZnGa)2
_chemical_formula_sum   'Ca1 Lu1 Zn2 Ga2'
_cell_volume   120.91147916
_cell_formula_units_Z   1
loop_
 _symmetry_equiv_pos_site_id
 _symmetry_equiv_pos_as_xyz
  1  'x, y, z'
loop_
 _atom_site_type_symbol
 _atom_site_label
 _atom_site_symmetry_multiplicity
 _atom_site_fract_x
 _atom_site_fract_y
 _atom_site_fract_z
 _atom_site_occupancy
  Ca  Ca0  1  0.00000000  0.00000000  0.50000000  1
  Lu  Lu0  1  0.00000000  0.00000000  0.00000000  1
  Zn  Zn0  1  0.33333300  0.66666700  0.78666324  1
  Zn  Zn1  1  0.66666700  0.33333300  0.21333676  1
  Ga  Ga0  1  0.33333300  0.66666700  0.21599715  1
  Ga  Ga1  1  0.66666700  0.33333300  0.78400285  1
loop_
_geom_bond_atom_site_label_1
_geom_bond_atom_site_label_2
_geom_bond_distance
_geom_bond_site_symmetry_2
Ca0 Ga1 3.264401 1_455
Ca0 Ga0 3.264401 1_545
Ca0 Ga0 3.264404 1_555
Ca0 Ga1 3.264404 1_445
Ca0 Ga1 3.264404 1_555
Ca0 Ga0 3.264404 1_445
Ca0 Zn0 3.276573 1_545
Ca0 Zn1 3.276573 1_455
Ca0 Zn0 3.276575 1_555
Ca0 Zn1 3.276575 1_445
Ca0 Zn0 3.276576 1_445
Ca0 Zn1 3.276576 1_555
Lu0 Zn1 2.968723 1_455
Lu0 Zn0 2.968723 1_544
Lu0 Zn0 2.968726 1_554
Lu0 Zn1 2.968726 1_445
Lu0 Zn1 2.968726 1_555
Lu0 Zn0 2.968726 1_444
Ga0 Zn1 2.535155 1_565
Ga0 Zn1 2.535156 1_455
Ga0 Zn1 2.535163 1_555
Ga0 Lu0 2.978794 1_565
Ga0 Lu0 2.978796 1_555
Ga0 Lu0 2.978797 1_665
Ga0 Zn0 3.109037 1_554
Ga1 Zn0 2.535155 1_545
Ga1 Zn0 2.535156 1_655
Ga1 Zn0 2.535163 1_555
Ga1 Lu0 2.978794 1_656
Ga1 Lu0 2.978796 1_666
Ga1 Lu0 2.978797 1_556
Ga1 Zn1 3.109037 1_556
