# generated using pymatgen
data_NbReS4
_symmetry_space_group_name_H-M   'P 1'
_cell_length_a   3.21896073
_cell_length_b   5.58397418
_cell_length_c   6.79522316
_cell_angle_alpha   73.04291440
_cell_angle_beta   90.00000000
_cell_angle_gamma   90.00000000
_symmetry_Int_Tables_number   1
_chemical_formula_structural   NbReS4
_chemical_formula_sum   'Nb1 Re1 S4'
_cell_volume   116.83109178
_cell_formula_units_Z   1
loop_
 _symmetry_equiv_pos_site_id
 _symmetry_equiv_pos_as_xyz
  1  'x, y, z'
loop_
 _atom_site_type_symbol
 _atom_site_label
 _atom_site_symmetry_multiplicity
 _atom_site_fract_x
 _atom_site_fract_y
 _atom_site_fract_z
 _atom_site_occupancy
  Nb  Nb0  1  0.50000000  0.49959822  0.00073525  1
  Re  Re0  1  0.00000000  0.00247941  0.00061616  1
  S  S0  1  0.00000000  0.41031120  0.75567220  1
  S  S1  1  0.50000000  0.92559556  0.76390980  1
  S  S2  1  0.50000000  0.75758849  0.23763503  1
  S  S3  1  0.00000000  0.23642612  0.24543256  1
loop_
_geom_bond_atom_site_label_1
_geom_bond_atom_site_label_2
_geom_bond_distance
_geom_bond_site_symmetry_2
Nb0 S1 2.452613 1_554
Nb0 S2 2.453470 1_555
Nb0 S3 2.467686 1_555
Nb0 S3 2.467686 1_655
Nb0 S0 2.469087 1_554
Nb0 S0 2.469087 1_654
Re0 S3 2.396190 1_555
Re0 S0 2.396989 1_554
Re0 S1 2.400985 1_544
Re0 S1 2.400985 1_444
Re0 S2 2.402021 1_545
Re0 S2 2.402021 1_445
