# generated using pymatgen
data_CsTcP2Pt
_symmetry_space_group_name_H-M   'P 1'
_cell_length_a   7.78570715
_cell_length_b   7.78570727
_cell_length_c   7.78570678
_cell_angle_alpha   150.09362147
_cell_angle_beta   150.09362235
_cell_angle_gamma   42.80399265
_symmetry_Int_Tables_number   1
_chemical_formula_structural   CsTcP2Pt
_chemical_formula_sum   'Cs1 Tc1 P2 Pt1'
_cell_volume   117.02096171
_cell_formula_units_Z   1
loop_
 _symmetry_equiv_pos_site_id
 _symmetry_equiv_pos_as_xyz
  1  'x, y, z'
loop_
 _atom_site_type_symbol
 _atom_site_label
 _atom_site_symmetry_multiplicity
 _atom_site_fract_x
 _atom_site_fract_y
 _atom_site_fract_z
 _atom_site_occupancy
  Cs  Cs0  1  0.00000000  0.00000000  0.00000000  1
  Tc  Tc0  1  0.75000000  0.25000000  0.50000000  1
  P  P0  1  0.33544569  0.33544569  0.00000000  1
  P  P1  1  0.66455431  0.66455431  1.00000000  1
  Pt  Pt0  1  0.25000000  0.75000000  0.50000000  1
loop_
_geom_bond_atom_site_label_1
_geom_bond_atom_site_label_2
_geom_bond_distance
_geom_bond_site_symmetry_2
Cs0 P1 3.709858 1_443
Cs0 P0 3.709858 1_556
Cs0 P1 3.709859 1_544
Cs0 P0 3.709859 1_455
Cs0 P1 3.709859 1_454
Cs0 P0 3.709859 1_545
Cs0 P1 3.709859 1_555
Cs0 P0 3.709859 1_444
P0 Tc0 2.360167 1_555
P0 Pt0 2.360167 1_555
P0 Tc0 2.360167 1_454
P0 Pt0 2.360167 1_544
P1 Pt0 2.360167 1_555
P1 Tc0 2.360167 1_555
P1 Pt0 2.360167 1_656
P1 Tc0 2.360167 1_566
Pt0 Tc0 2.841076 1_454
Pt0 Tc0 2.841076 1_566
Pt0 Tc0 2.841076 1_465
Pt0 Tc0 2.841076 1_555
