# generated using pymatgen
data_RbGaSi3O8
_symmetry_space_group_name_H-M   'P 1'
_cell_length_a   7.33212100
_cell_length_b   7.76001566
_cell_length_c   8.07745839
_cell_angle_alpha   111.30468456
_cell_angle_beta   104.86711200
_cell_angle_gamma   104.20337052
_symmetry_Int_Tables_number   1
_chemical_formula_structural   RbGaSi3O8
_chemical_formula_sum   'Rb2 Ga2 Si6 O16'
_cell_volume   383.47517526
_cell_formula_units_Z   2
loop_
 _symmetry_equiv_pos_site_id
 _symmetry_equiv_pos_as_xyz
  1  'x, y, z'
loop_
 _atom_site_type_symbol
 _atom_site_label
 _atom_site_symmetry_multiplicity
 _atom_site_fract_x
 _atom_site_fract_y
 _atom_site_fract_z
 _atom_site_occupancy
  Rb  Rb0  1  0.14157248  0.29580243  0.28617778  1
  Rb  Rb1  1  0.85842752  0.70419757  0.71382222  1
  Ga  Ga0  1  0.21070477  0.81690782  0.20349718  1
  Ga  Ga1  1  0.78929523  0.18309218  0.79650282  1
  Si  Si0  1  0.23957295  0.19684533  0.82376024  1
  Si  Si1  1  0.76042705  0.80315467  0.17623976  1
  Si  Si2  1  0.33240303  0.59891924  0.84403727  1
  Si  Si3  1  0.35229601  0.83253189  0.60414672  1
  Si  Si4  1  0.66759697  0.40108076  0.15596273  1
  Si  Si5  1  0.64770399  0.16746811  0.39585328  1
  O  O0  1  0.27841243  0.65909840  0.66990356  1
  O  O1  1  0.72158757  0.34090160  0.33009644  1
  O  O2  1  0.40408848  0.06709406  0.30333812  1
  O  O3  1  0.42300919  0.29347354  0.03400489  1
  O  O4  1  0.59591152  0.93290594  0.69666188  1
  O  O5  1  0.57699081  0.70652646  0.96599511  1
  O  O6  1  0.25552949  0.71443959  0.37291179  1
  O  O7  1  0.27114288  0.35727044  0.73728022  1
  O  O8  1  0.74447051  0.28556041  0.62708821  1
  O  O9  1  0.72885712  0.64272956  0.26271978  1
  O  O10  1  0.20147558  0.65278249  0.97083762  1
  O  O11  1  0.24885929  0.99437645  0.67761873  1
  O  O12  1  0.79852442  0.34721751  0.02916238  1
  O  O13  1  0.75114071  0.00562355  0.32238127  1
  O  O14  1  0.97081745  0.85667569  0.14682437  1
  O  O15  1  0.02918255  0.14332431  0.85317563  1
loop_
_geom_bond_atom_site_label_1
_geom_bond_atom_site_label_2
_geom_bond_distance
_geom_bond_site_symmetry_2
Ga0 O6 1.816881 1_555
Ga0 O10 1.819789 1_554
Ga0 O14 1.831474 1_455
Ga0 O2 1.831580 1_565
Ga1 O8 1.816881 1_555
Ga1 O12 1.819789 1_556
Ga1 O15 1.831474 1_655
Ga1 O4 1.831580 1_545
O0 Si2 1.623419 1_555
O0 Si3 1.642012 1_555
O0 Rb0 3.037768 1_555
O0 Rb1 3.275687 1_455
O1 Si4 1.623419 1_555
O1 Si5 1.642012 1_555
O1 Rb1 3.037768 1_555
O1 Rb0 3.275687 1_655
O2 Si5 1.601570 1_555
O2 Rb0 2.931235 1_555
O3 Si4 1.626234 1_555
O3 Si0 1.631844 1_554
O3 Rb0 3.248995 1_555
O4 Si3 1.601570 1_555
O4 Rb1 2.931235 1_555
O5 Si2 1.626234 1_555
O5 Si1 1.631844 1_556
O5 Rb1 3.248995 1_555
O6 Si3 1.609021 1_555
O6 Rb0 2.907975 1_555
O7 Si0 1.632418 1_555
O7 Si2 1.635424 1_555
O7 Rb0 3.338466 1_555
O8 Si5 1.609021 1_555
O8 Rb1 2.907975 1_555
O9 Si1 1.632418 1_555
O9 Si4 1.635424 1_555
O9 Rb1 3.338466 1_555
O10 Si2 1.592378 1_555
O10 Rb1 3.034871 1_455
O11 Si0 1.616379 1_565
O11 Si3 1.631408 1_555
O11 Rb1 3.331044 1_455
O12 Si4 1.592378 1_555
O12 Rb0 3.034871 1_655
O13 Si1 1.616379 1_545
O13 Si5 1.631408 1_555
O13 Rb0 3.331044 1_655
O14 Si1 1.598117 1_555
O14 Rb0 2.973624 1_665
O14 Rb1 3.057337 1_554
O15 Si0 1.598117 1_555
O15 Rb1 2.973624 1_445
O15 Rb0 3.057337 1_556
