# generated using pymatgen
data_Zr2Ta7NbN12
_symmetry_space_group_name_H-M   'P 1'
_cell_length_a   5.24967978
_cell_length_b   5.26006833
_cell_length_c   10.48312630
_cell_angle_alpha   89.99466391
_cell_angle_beta   89.99976471
_cell_angle_gamma   119.93456664
_symmetry_Int_Tables_number   1
_chemical_formula_structural   Zr2Ta7NbN12
_chemical_formula_sum   'Zr2 Ta7 Nb1 N12'
_cell_volume   250.86011728
_cell_formula_units_Z   1
loop_
 _symmetry_equiv_pos_site_id
 _symmetry_equiv_pos_as_xyz
  1  'x, y, z'
loop_
 _atom_site_type_symbol
 _atom_site_label
 _atom_site_symmetry_multiplicity
 _atom_site_fract_x
 _atom_site_fract_y
 _atom_site_fract_z
 _atom_site_occupancy
  Zr  Zr0  1  0.33315263  0.66807341  0.50048014  1
  Zr  Zr1  1  0.66507865  0.33192748  0.99951959  1
  Ta  Ta0  1  0.66535652  0.33209499  0.50003378  1
  Ta  Ta1  1  0.33326397  0.66790420  0.99996615  1
  Ta  Ta2  1  0.67661952  0.99999676  0.75000053  1
  Ta  Ta3  1  0.67728965  0.67703989  0.25001166  1
  Ta  Ta4  1  0.00023868  0.32294995  0.24998444  1
  Ta  Ta5  1  0.99966712  0.67649591  0.75006094  1
  Ta  Ta6  1  0.32317672  0.32350699  0.74994033  1
  Nb  Nb0  1  0.32454583  0.00000190  0.25000578  1
  N  N0  1  0.34916382  0.34411967  0.37691689  1
  N  N1  1  0.66705823  0.00903464  0.37773327  1
  N  N2  1  0.98627657  0.64612592  0.37690136  1
  N  N3  1  0.00919396  0.34848269  0.87642652  1
  N  N4  1  0.65800714  0.99096718  0.12228417  1
  N  N5  1  0.65147784  0.66093151  0.87630415  1
  N  N6  1  0.33740566  0.99085119  0.87642101  1
  N  N7  1  0.66072981  0.65153556  0.62355638  1
  N  N8  1  0.99054916  0.33905265  0.62367671  1
  N  N9  1  0.00504383  0.65586297  0.12310070  1
  N  N10  1  0.34653473  0.00914646  0.62356083  1
  N  N11  1  0.34017098  0.35389809  0.12311466  1
loop_
_geom_bond_atom_site_label_1
_geom_bond_atom_site_label_2
_geom_bond_distance
_geom_bond_site_symmetry_2
N0 Ta0 2.128348 1_555
N0 Zr0 2.175311 1_555
N0 Ta3 2.189227 1_555
N0 Nb0 2.197753 1_555
N0 Ta4 2.221440 1_555
N1 Ta0 2.132389 1_555
N1 Ta4 2.167133 1_655
N1 Zr0 2.192484 1_545
N1 Ta3 2.222444 1_545
N1 Nb0 2.223285 1_555
N2 Ta0 2.110745 1_555
N2 Ta3 2.165698 1_555
N2 Ta4 2.188628 1_655
N2 Zr0 2.190403 1_655
N2 Nb0 2.255768 1_665
N3 Ta1 2.131241 1_555
N3 Ta6 2.169910 1_555
N3 Zr1 2.186115 1_455
N3 Ta5 2.195439 1_455
N3 Ta2 2.229637 1_445
N4 Ta1 2.132472 1_554
N4 Ta3 2.167085 1_555
N4 Zr1 2.192557 1_564
N4 Ta4 2.222305 1_665
N4 Nb0 2.223166 1_565
N5 Ta1 2.129245 1_555
N5 Ta2 2.171651 1_555
N5 Zr1 2.188919 1_555
N5 Ta6 2.196111 1_555
N5 Ta5 2.224840 1_555
N6 Ta1 2.127498 1_555
N6 Ta5 2.169548 1_455
N6 Zr1 2.182532 1_565
N6 Ta2 2.200972 1_555
N6 Ta6 2.226076 1_565
N7 Ta0 2.131159 1_555
N7 Ta5 2.169977 1_555
N7 Zr0 2.186052 1_555
N7 Ta6 2.195612 1_555
N7 Ta2 2.229682 1_555
N8 Ta0 2.129188 1_555
N8 Ta2 2.171768 1_545
N8 Zr0 2.188831 1_655
N8 Ta5 2.196323 1_555
N8 Ta6 2.224945 1_655
N9 Ta1 2.128431 1_554
N9 Zr1 2.175395 1_454
N9 Ta4 2.189039 1_555
N9 Nb0 2.197774 1_565
N9 Ta3 2.221307 1_455
N10 Ta0 2.127418 1_555
N10 Ta6 2.169629 1_555
N10 Zr0 2.182443 1_545
N10 Ta2 2.201180 1_545
N10 Ta5 2.226146 1_445
N11 Ta1 2.110785 1_554
N11 Ta4 2.165631 1_555
N11 Ta3 2.188398 1_555
N11 Zr1 2.190460 1_554
N11 Nb0 2.255792 1_555
