# generated using pymatgen
data_LiCaN
_symmetry_space_group_name_H-M   'P 1'
_cell_length_a   3.64796900
_cell_length_b   5.52501055
_cell_length_c   8.47816147
_cell_angle_alpha   90.00000000
_cell_angle_beta   90.00000000
_cell_angle_gamma   90.00000000
_symmetry_Int_Tables_number   1
_chemical_formula_structural   LiCaN
_chemical_formula_sum   'Li4 Ca4 N4'
_cell_volume   170.87791425
_cell_formula_units_Z   4
loop_
 _symmetry_equiv_pos_site_id
 _symmetry_equiv_pos_as_xyz
  1  'x, y, z'
loop_
 _atom_site_type_symbol
 _atom_site_label
 _atom_site_symmetry_multiplicity
 _atom_site_fract_x
 _atom_site_fract_y
 _atom_site_fract_z
 _atom_site_occupancy
  Li  Li0  1  0.25000000  0.57470608  0.04709782  1
  Li  Li1  1  0.75000000  0.42529392  0.95290218  1
  Li  Li2  1  0.75000000  0.07470608  0.45290218  1
  Li  Li3  1  0.25000000  0.92529392  0.54709782  1
  Ca  Ca0  1  0.25000000  0.47404325  0.65602265  1
  Ca  Ca1  1  0.75000000  0.97404325  0.84397735  1
  Ca  Ca2  1  0.25000000  0.02595675  0.15602265  1
  Ca  Ca3  1  0.75000000  0.52595675  0.34397735  1
  N  N0  1  0.75000000  0.73867475  0.09223915  1
  N  N1  1  0.75000000  0.76132525  0.59223915  1
  N  N2  1  0.25000000  0.26132525  0.90776085  1
  N  N3  1  0.25000000  0.23867475  0.40776085  1
loop_
_geom_bond_atom_site_label_1
_geom_bond_atom_site_label_2
_geom_bond_distance
_geom_bond_site_symmetry_2
Li0 N0 2.072220 1_555
Li0 N0 2.072220 1_455
Li0 N2 2.096039 1_554
Li1 N2 2.072220 1_555
Li1 N2 2.072220 1_655
Li1 N0 2.096039 1_556
Li2 N3 2.072220 1_655
Li2 N3 2.072220 1_555
Li2 N1 2.096039 1_545
Li3 N1 2.072220 1_555
Li3 N1 2.072220 1_455
Li3 N3 2.096039 1_565
Ca0 N2 2.436472 1_555
Ca0 N3 2.474121 1_555
Ca0 N1 2.477633 1_455
Ca0 N1 2.477633 1_555
Ca1 N1 2.436472 1_555
Ca1 N0 2.474121 1_556
Ca1 N2 2.477633 1_565
Ca1 N2 2.477633 1_665
Ca2 N3 2.436472 1_555
Ca2 N2 2.474121 1_554
Ca2 N0 2.477633 1_545
Ca2 N0 2.477633 1_445
Ca3 N0 2.436472 1_555
Ca3 N1 2.474121 1_555
Ca3 N3 2.477633 1_655
Ca3 N3 2.477633 1_555
