# generated using pymatgen
data_Ga3Ag4RhO8
_symmetry_space_group_name_H-M   'P 1'
_cell_length_a   5.21937363
_cell_length_b   6.02437847
_cell_length_c   7.12325610
_cell_angle_alpha   64.90613771
_cell_angle_beta   104.19450981
_cell_angle_gamma   90.00434546
_symmetry_Int_Tables_number   1
_chemical_formula_structural   Ga3Ag4RhO8
_chemical_formula_sum   'Ga3 Ag4 Rh1 O8'
_cell_volume   195.26414036
_cell_formula_units_Z   1
loop_
 _symmetry_equiv_pos_site_id
 _symmetry_equiv_pos_as_xyz
  1  'x, y, z'
loop_
 _atom_site_type_symbol
 _atom_site_label
 _atom_site_symmetry_multiplicity
 _atom_site_fract_x
 _atom_site_fract_y
 _atom_site_fract_z
 _atom_site_occupancy
  Ga  Ga0  1  0.00011961  0.00212972  0.50015194  1
  Ga  Ga1  1  0.50000284  0.24999989  0.50000041  1
  Ga  Ga2  1  0.99988815  0.49788654  0.49984637  1
  Ag  Ag0  1  0.99977208  0.99974336  0.00047908  1
  Ag  Ag1  1  0.49997656  0.24997556  0.00000341  1
  Ag  Ag2  1  0.00021514  0.50026645  0.99951681  1
  Ag  Ag3  1  0.50000667  0.74998243  0.00000114  1
  Rh  Rh0  1  0.50000324  0.74999912  0.50000265  1
  O  O0  1  0.89476938  0.66881577  0.66186564  1
  O  O1  1  0.38399997  0.92416268  0.66184494  1
  O  O2  1  0.88740828  0.16850721  0.66243573  1
  O  O3  1  0.38395338  0.41346956  0.66184944  1
  O  O4  1  0.10523673  0.83119882  0.33813355  1
  O  O5  1  0.61604641  0.08651841  0.33815620  1
  O  O6  1  0.11259709  0.33151163  0.33755720  1
  O  O7  1  0.61600849  0.57583384  0.33815648  1
loop_
_geom_bond_atom_site_label_1
_geom_bond_atom_site_label_2
_geom_bond_distance
_geom_bond_site_symmetry_2
Ga0 O1 1.992783 1_545
Ga0 O5 1.994149 1_455
Ga0 O2 2.000857 1_455
Ga0 O6 2.001876 1_555
Ga0 O0 2.002471 1_445
Ga0 O4 2.002999 1_545
Ga1 O3 1.992854 1_555
Ga1 O5 1.992863 1_555
Ga1 O7 1.992865 1_555
Ga1 O1 1.992874 1_545
Ga1 O2 2.009797 1_555
Ga1 O6 2.009811 1_555
Ga2 O7 1.992776 1_555
Ga2 O3 1.994126 1_655
Ga2 O6 2.000873 1_655
Ga2 O2 2.001861 1_555
Ga2 O4 2.002459 1_655
Ga2 O0 2.003000 1_555
Ag0 O4 2.097208 1_655
Ag0 O2 2.099259 1_564
Ag1 O5 2.100307 1_555
Ag1 O3 2.100309 1_554
Ag2 O0 2.097189 1_455
Ag2 O6 2.099240 1_556
Ag3 O7 2.100180 1_555
Ag3 O1 2.100188 1_554
O0 Rh0 2.042234 1_555
O1 Rh0 2.040813 1_555
O3 Rh0 2.041087 1_555
O4 Rh0 2.042246 1_555
O5 Rh0 2.041025 1_545
O7 Rh0 2.040849 1_555
