# generated using pymatgen
data_RbRe(OF2)2
_symmetry_space_group_name_H-M   'P 1'
_cell_length_a   5.81985960
_cell_length_b   5.81985960
_cell_length_c   9.48140555
_cell_angle_alpha   90.00000000
_cell_angle_beta   90.00000000
_cell_angle_gamma   90.00000000
_symmetry_Int_Tables_number   1
_chemical_formula_structural   RbRe(OF2)2
_chemical_formula_sum   'Rb2 Re2 O4 F8'
_cell_volume   321.14246623
_cell_formula_units_Z   2
loop_
 _symmetry_equiv_pos_site_id
 _symmetry_equiv_pos_as_xyz
  1  'x, y, z'
loop_
 _atom_site_type_symbol
 _atom_site_label
 _atom_site_symmetry_multiplicity
 _atom_site_fract_x
 _atom_site_fract_y
 _atom_site_fract_z
 _atom_site_occupancy
  Rb  Rb0  1  0.00000000  0.50000000  0.37896739  1
  Rb  Rb1  1  0.50000000  0.00000000  0.62103261  1
  Re  Re0  1  0.50000000  0.00000000  0.18982405  1
  Re  Re1  1  0.00000000  0.50000000  0.81017695  1
  O  O0  1  0.66181128  0.16181428  0.07801632  1
  O  O1  1  0.33818772  0.83818772  0.07801632  1
  O  O2  1  0.16181428  0.33818772  0.92198368  1
  O  O3  1  0.83818772  0.66181128  0.92198368  1
  F  F0  1  0.27367323  0.22632877  0.22251138  1
  F  F1  1  0.72632677  0.77367023  0.22251138  1
  F  F2  1  0.65345540  0.15345540  0.35606672  1
  F  F3  1  0.34654460  0.84654460  0.35606672  1
  F  F4  1  0.15345540  0.34654460  0.64393428  1
  F  F5  1  0.84654460  0.65345540  0.64393428  1
  F  F6  1  0.77367023  0.27367323  0.77748762  1
  F  F7  1  0.22632877  0.72632677  0.77748762  1
loop_
_geom_bond_atom_site_label_1
_geom_bond_atom_site_label_2
_geom_bond_distance
_geom_bond_site_symmetry_2
O0 Re0 1.702205 1_555
O1 Re0 1.702202 1_565
O2 Re1 1.702202 1_555
O3 Re1 1.702193 1_655
F0 Re0 1.888402 1_555
F0 Rb0 2.697063 1_555
F1 Re0 1.888406 1_565
F1 Rb0 2.697059 1_655
F2 Re0 2.019818 1_555
F2 Rb1 2.811870 1_555
F2 Rb0 2.860497 1_655
F3 Re0 2.019818 1_565
F3 Rb1 2.811870 1_565
F3 Rb0 2.860497 1_555
F4 Re1 2.019818 1_555
F4 Rb0 2.811878 1_555
F4 Rb1 2.860497 1_555
F5 Re1 2.019818 1_655
F5 Rb0 2.811878 1_655
F5 Rb1 2.860497 1_565
F6 Re1 1.888409 1_655
F6 Rb1 2.697054 1_555
F7 Re1 1.888405 1_555
F7 Rb1 2.697057 1_565
