# generated using pymatgen
data_K8Hf6BBr20
_symmetry_space_group_name_H-M   'P 1'
_cell_length_a   11.47925313
_cell_length_b   11.47925264
_cell_length_c   11.47925334
_cell_angle_alpha   60.00000069
_cell_angle_beta   60.00000210
_cell_angle_gamma   60.00000313
_symmetry_Int_Tables_number   1
_chemical_formula_structural   K8Hf6BBr20
_chemical_formula_sum   'K8 Hf6 B1 Br20'
_cell_volume   1069.61111840
_cell_formula_units_Z   1
loop_
 _symmetry_equiv_pos_site_id
 _symmetry_equiv_pos_as_xyz
  1  'x, y, z'
loop_
 _atom_site_type_symbol
 _atom_site_label
 _atom_site_symmetry_multiplicity
 _atom_site_fract_x
 _atom_site_fract_y
 _atom_site_fract_z
 _atom_site_occupancy
  K  K0  1  0.36029895  0.36029895  0.36029895  1
  K  K1  1  0.63970105  0.63970105  0.63970105  1
  K  K2  1  0.36029895  0.36029895  0.91910515  1
  K  K3  1  0.36029895  0.91910515  0.36029895  1
  K  K4  1  0.63970105  0.63970105  0.08089485  1
  K  K5  1  0.63970105  0.08089485  0.63970105  1
  K  K6  1  0.91910515  0.36029895  0.36029895  1
  K  K7  1  0.08089485  0.63970105  0.63970105  1
  Hf  Hf0  1  0.86028660  0.13971340  0.13971340  1
  Hf  Hf1  1  0.13971340  0.86028660  0.86028660  1
  Hf  Hf2  1  0.13971340  0.86028660  0.13971340  1
  Hf  Hf3  1  0.86028660  0.13971340  0.86028660  1
  Hf  Hf4  1  0.13971340  0.13971340  0.86028660  1
  Hf  Hf5  1  0.86028660  0.86028660  0.13971340  1
  B  B0  1  0.00000000  0.00000000  0.00000000  1
  Br  Br0  1  0.32949097  1.00000000  0.00000000  1
  Br  Br1  1  0.67050903  0.00000000  1.00000000  1
  Br  Br2  1  1.00000000  0.32949097  0.67050903  1
  Br  Br3  1  0.00000000  0.67050903  0.32949097  1
  Br  Br4  1  1.00000000  0.32949097  0.00000000  1
  Br  Br5  1  0.67050903  0.00000000  0.32949097  1
  Br  Br6  1  0.00000000  0.67050903  1.00000000  1
  Br  Br7  1  0.32949097  1.00000000  0.67050903  1
  Br  Br8  1  1.00000000  1.00000000  0.32949097  1
  Br  Br9  1  0.00000000  0.00000000  0.67050903  1
  Br  Br10  1  0.67050903  0.32949097  0.00000000  1
  Br  Br11  1  0.32949097  0.67050903  1.00000000  1
  Br  Br12  1  0.68289016  0.31710984  0.31710984  1
  Br  Br13  1  0.31710984  0.68289016  0.68289016  1
  Br  Br14  1  0.31710984  0.68289016  0.31710984  1
  Br  Br15  1  0.68289016  0.31710984  0.68289016  1
  Br  Br16  1  0.31710984  0.31710984  0.68289016  1
  Br  Br17  1  0.68289016  0.68289016  0.31710984  1
  Br  Br18  1  0.25000000  0.25000000  0.25000000  1
  Br  Br19  1  0.75000000  0.75000000  0.75000000  1
loop_
_geom_bond_atom_site_label_1
_geom_bond_atom_site_label_2
_geom_bond_distance
_geom_bond_site_symmetry_2
B0 Hf4 2.268123 1_554
B0 Hf5 2.268123 1_445
B0 Hf0 2.268124 1_455
B0 Hf2 2.268124 1_545
B0 Hf1 2.268124 1_544
B0 Hf3 2.268124 1_454
Br0 Hf2 2.705194 1_555
Br0 Hf4 2.705194 1_564
Br1 Hf3 2.705194 1_555
Br1 Hf5 2.705194 1_546
Br2 Hf3 2.705194 1_555
Br2 Hf4 2.705194 1_655
Br3 Hf2 2.705194 1_555
Br3 Hf5 2.705194 1_455
Br4 Hf0 2.705194 1_555
Br4 Hf4 2.705194 1_654
Br5 Hf0 2.705194 1_555
Br5 Hf5 2.705194 1_545
Br6 Hf1 2.705194 1_555
Br6 Hf5 2.705194 1_456
Br7 Hf1 2.705194 1_555
Br7 Hf4 2.705194 1_565
Br8 Hf2 2.705194 1_655
Br8 Hf0 2.705194 1_565
Br9 Hf3 2.705194 1_455
Br9 Hf1 2.705194 1_545
Br10 Hf0 2.705194 1_555
Br10 Hf3 2.705194 1_554
Br11 Hf1 2.705194 1_555
Br11 Hf2 2.705194 1_556
Br12 Hf0 2.879874 1_555
Br12 K0 3.283069 1_555
Br12 K4 3.283077 1_555
Br12 K5 3.283077 1_555
Br12 K6 3.283091 1_555
Br13 Hf1 2.879874 1_555
Br13 K1 3.283069 1_555
Br13 K2 3.283077 1_555
Br13 K3 3.283077 1_555
Br13 K7 3.283091 1_555
Br14 Hf2 2.879874 1_555
Br14 K0 3.283069 1_555
Br14 K7 3.283077 1_555
Br14 K4 3.283077 1_555
Br14 K3 3.283091 1_555
Br15 Hf3 2.879874 1_555
Br15 K1 3.283069 1_555
Br15 K6 3.283077 1_555
Br15 K2 3.283077 1_555
Br15 K5 3.283091 1_555
Br16 Hf4 2.879874 1_555
Br16 K0 3.283069 1_555
Br16 K7 3.283077 1_555
Br16 K5 3.283077 1_555
Br16 K2 3.283092 1_555
Br17 Hf5 2.879874 1_555
Br17 K1 3.283069 1_555
Br17 K6 3.283077 1_555
Br17 K3 3.283077 1_555
Br17 K4 3.283092 1_555
Br18 K3 3.101402 1_545
Br18 K2 3.101402 1_554
Br18 K6 3.101402 1_455
Br18 K0 3.101420 1_555
Br19 K5 3.101402 1_565
Br19 K4 3.101402 1_556
Br19 K7 3.101402 1_655
Br19 K1 3.101420 1_555
