# generated using pymatgen
data_SrCoP2Os
_symmetry_space_group_name_H-M   'P 1'
_cell_length_a   6.54844942
_cell_length_b   6.54844884
_cell_length_c   6.54844911
_cell_angle_alpha   145.74041894
_cell_angle_beta   145.74041295
_cell_angle_gamma   49.23248441
_symmetry_Int_Tables_number   1
_chemical_formula_structural   SrCoP2Os
_chemical_formula_sum   'Sr1 Co1 P2 Os1'
_cell_volume   88.58825784
_cell_formula_units_Z   1
loop_
 _symmetry_equiv_pos_site_id
 _symmetry_equiv_pos_as_xyz
  1  'x, y, z'
loop_
 _atom_site_type_symbol
 _atom_site_label
 _atom_site_symmetry_multiplicity
 _atom_site_fract_x
 _atom_site_fract_y
 _atom_site_fract_z
 _atom_site_occupancy
  Sr  Sr0  1  0.00000000  0.00000000  0.00000000  1
  Co  Co0  1  0.25000000  0.75000000  0.50000000  1
  P  P0  1  0.64902033  0.64902033  0.00000000  1
  P  P1  1  0.35097967  0.35097967  1.00000000  1
  Os  Os0  1  0.75000000  0.25000000  0.50000000  1
loop_
_geom_bond_atom_site_label_1
_geom_bond_atom_site_label_2
_geom_bond_distance
_geom_bond_site_symmetry_2
Co0 P1 2.272821 1_554
Co0 P1 2.272821 1_565
Co0 P0 2.272821 1_556
Co0 P0 2.272821 1_455
Co0 Os0 2.727681 1_555
Co0 Os0 2.727681 1_465
Co0 Os0 2.727682 1_454
Co0 Os0 2.727682 1_566
P0 Sr0 3.253996 1_655
P0 Sr0 3.253996 1_565
P0 Sr0 3.253997 1_666
P0 Sr0 3.253997 1_554
P1 Sr0 3.253996 1_566
P1 Sr0 3.253996 1_656
P1 Sr0 3.253997 1_555
P1 Sr0 3.253997 1_667
Os0 P0 2.272821 1_556
Os0 P0 2.272821 1_545
Os0 P1 2.272821 1_554
Os0 P1 2.272821 1_655
Os0 Sr0 3.546915 1_656
Os0 Sr0 3.546915 1_655
Os0 Sr0 3.546915 1_666
Os0 Sr0 3.546916 1_555
