# generated using pymatgen
data_LiAg5TeO6
_symmetry_space_group_name_H-M   'P 1'
_cell_length_a   5.70668084
_cell_length_b   5.70668091
_cell_length_c   12.30908121
_cell_angle_alpha   90.00000000
_cell_angle_beta   90.00000000
_cell_angle_gamma   119.99999404
_symmetry_Int_Tables_number   1
_chemical_formula_structural   LiAg5TeO6
_chemical_formula_sum   'Li2 Ag10 Te2 O12'
_cell_volume   347.15503518
_cell_formula_units_Z   2
loop_
 _symmetry_equiv_pos_site_id
 _symmetry_equiv_pos_as_xyz
  1  'x, y, z'
loop_
 _atom_site_type_symbol
 _atom_site_label
 _atom_site_symmetry_multiplicity
 _atom_site_fract_x
 _atom_site_fract_y
 _atom_site_fract_z
 _atom_site_occupancy
  Li  Li0  1  0.66666700  0.33333300  0.75000000  1
  Li  Li1  1  0.33333300  0.66666700  0.25000000  1
  Ag  Ag0  1  0.00000000  0.00000000  0.88245341  1
  Ag  Ag1  1  0.00000000  0.00000000  0.38245341  1
  Ag  Ag2  1  0.00000000  0.00000000  0.11754659  1
  Ag  Ag3  1  0.00000000  0.00000000  0.61754659  1
  Ag  Ag4  1  0.50000000  0.50000000  0.00000000  1
  Ag  Ag5  1  0.00000000  0.50000000  0.00000000  1
  Ag  Ag6  1  0.50000000  0.00000000  0.00000000  1
  Ag  Ag7  1  0.00000000  0.50000000  0.50000000  1
  Ag  Ag8  1  0.50000000  0.00000000  0.50000000  1
  Ag  Ag9  1  0.50000000  0.50000000  0.50000000  1
  Te  Te0  1  0.33333300  0.66666700  0.75000000  1
  Te  Te1  1  0.66666700  0.33333300  0.25000000  1
  O  O0  1  0.59929831  0.63374298  0.83786105  1
  O  O1  1  0.03444568  0.40070169  0.83786105  1
  O  O2  1  0.36625702  0.96555432  0.83786105  1
  O  O3  1  0.96555432  0.36625702  0.33786105  1
  O  O4  1  0.40070169  0.03444568  0.33786105  1
  O  O5  1  0.63374298  0.59929831  0.33786105  1
  O  O6  1  0.40070169  0.36625702  0.16213895  1
  O  O7  1  0.96555432  0.59929831  0.16213895  1
  O  O8  1  0.63374298  0.03444568  0.16213895  1
  O  O9  1  0.03444568  0.63374298  0.66213895  1
  O  O10  1  0.59929831  0.96555432  0.66213895  1
  O  O11  1  0.36625702  0.40070169  0.66213895  1
loop_
_geom_bond_atom_site_label_1
_geom_bond_atom_site_label_2
_geom_bond_distance
_geom_bond_site_symmetry_2
Li0 O11 2.217088 1_555
Li0 O0 2.217088 1_555
Li0 O1 2.217088 1_655
Li0 O10 2.217088 1_545
Li0 O9 2.217088 1_655
Li0 O2 2.217088 1_545
Li1 O5 2.217088 1_555
Li1 O6 2.217088 1_555
Li1 O7 2.217088 1_455
Li1 O4 2.217088 1_565
Li1 O3 2.217088 1_455
Li1 O8 2.217088 1_565
Ag0 O1 2.262591 1_555
Ag0 O0 2.262594 1_445
Ag0 O2 2.262597 1_545
Ag1 O4 2.262591 1_555
Ag1 O5 2.262594 1_445
Ag1 O3 2.262597 1_455
Ag2 O7 2.262591 1_445
Ag2 O6 2.262594 1_555
Ag2 O8 2.262597 1_455
Ag3 O10 2.262591 1_445
Ag3 O11 2.262594 1_555
Ag3 O9 2.262597 1_545
Ag4 O0 2.110515 1_554
Ag4 O6 2.110515 1_555
Ag5 O1 2.110517 1_554
Ag5 O7 2.110517 1_455
Ag6 O8 2.110515 1_555
Ag6 O2 2.110515 1_544
Ag7 O9 2.110515 1_555
Ag7 O3 2.110515 1_455
Ag8 O4 2.110517 1_555
Ag8 O10 2.110517 1_545
Ag9 O5 2.110515 1_555
Ag9 O11 2.110515 1_555
O0 Te0 1.947753 1_555
O1 Te0 1.947748 1_555
O2 Te0 1.947744 1_555
O3 Te1 1.947744 1_555
O4 Te1 1.947748 1_555
O5 Te1 1.947753 1_555
O6 Te1 1.947753 1_555
O7 Te1 1.947748 1_555
O8 Te1 1.947744 1_555
O9 Te0 1.947744 1_555
O10 Te0 1.947748 1_555
O11 Te0 1.947753 1_555
