# generated using pymatgen
data_CuBi3(Ru2O7)2
_symmetry_space_group_name_H-M   'P 1'
_cell_length_a   7.27730740
_cell_length_b   7.27730777
_cell_length_c   7.13413474
_cell_angle_alpha   59.33388679
_cell_angle_beta   59.33388624
_cell_angle_gamma   60.00000771
_symmetry_Int_Tables_number   1
_chemical_formula_structural   CuBi3(Ru2O7)2
_chemical_formula_sum   'Cu1 Bi3 Ru4 O14'
_cell_volume   264.43626407
_cell_formula_units_Z   1
loop_
 _symmetry_equiv_pos_site_id
 _symmetry_equiv_pos_as_xyz
  1  'x, y, z'
loop_
 _atom_site_type_symbol
 _atom_site_label
 _atom_site_symmetry_multiplicity
 _atom_site_fract_x
 _atom_site_fract_y
 _atom_site_fract_z
 _atom_site_occupancy
  Cu  Cu0  1  0.12500000  0.12500000  0.62500000  1
  Bi  Bi0  1  0.12500000  0.62500000  0.12500000  1
  Bi  Bi1  1  0.62500000  0.12500000  0.12500000  1
  Bi  Bi2  1  0.12500000  0.12500000  0.12500000  1
  Ru  Ru0  1  0.62500000  0.62500000  0.12500000  1
  Ru  Ru1  1  0.62500000  0.12500000  0.62500000  1
  Ru  Ru2  1  0.12500000  0.62500000  0.62500000  1
  Ru  Ru3  1  0.62500000  0.62500000  0.62500000  1
  O  O0  1  0.23372348  0.23372348  0.29882957  1
  O  O1  1  0.01627652  0.01627652  0.95117043  1
  O  O2  1  0.55878313  0.94808993  0.54503702  1
  O  O3  1  0.29640082  0.70617231  0.29125456  1
  O  O4  1  0.54382769  0.54382769  0.95874544  1
  O  O5  1  0.94808993  0.55878313  0.54503702  1
  O  O6  1  0.54382769  0.95359918  0.95874544  1
  O  O7  1  0.94808993  0.94808993  0.54503702  1
  O  O8  1  0.95359918  0.54382769  0.95874544  1
  O  O9  1  0.70617231  0.29640082  0.29125456  1
  O  O10  1  0.30191007  0.69121687  0.70496298  1
  O  O11  1  0.69121687  0.30191007  0.70496298  1
  O  O12  1  0.30191007  0.30191007  0.70496298  1
  O  O13  1  0.70617231  0.70617231  0.29125456  1
loop_
_geom_bond_atom_site_label_1
_geom_bond_atom_site_label_2
_geom_bond_distance
_geom_bond_site_symmetry_2
Cu0 O0 1.880587 1_555
Cu0 O1 1.880587 1_555
Cu0 O12 2.606952 1_555
Cu0 O7 2.606952 1_445
Cu0 O2 2.606953 1_545
Cu0 O11 2.606953 1_455
Cu0 O5 2.606953 1_455
Cu0 O10 2.606953 1_545
Bi0 O1 2.327608 1_564
Bi0 O0 2.327608 1_555
Bi0 O5 2.466043 1_455
Bi0 O10 2.466043 1_554
Bi0 O3 2.504444 1_555
Bi0 O8 2.504444 1_454
Bi0 O4 2.504444 1_554
Bi0 O13 2.504444 1_455
Bi1 O1 2.327607 1_654
Bi1 O0 2.327607 1_555
Bi1 O2 2.466043 1_545
Bi1 O11 2.466043 1_554
Bi1 O9 2.504444 1_555
Bi1 O6 2.504444 1_544
Bi1 O4 2.504444 1_554
Bi1 O13 2.504444 1_545
Bi2 O0 2.327607 1_555
Bi2 O1 2.327607 1_554
Bi2 O7 2.466043 1_445
Bi2 O12 2.466043 1_554
Bi2 O9 2.504444 1_455
Bi2 O6 2.504444 1_544
Bi2 O8 2.504444 1_454
Bi2 O3 2.504444 1_545
O2 Ru1 1.965983 1_565
O2 Ru3 1.965983 1_555
O3 Ru2 1.961250 1_555
O3 Ru0 1.970539 1_555
O4 Ru3 1.961250 1_555
O4 Ru0 1.970539 1_556
O5 Ru2 1.965983 1_655
O5 Ru3 1.965983 1_555
O6 Ru1 1.961250 1_565
O6 Ru0 1.970539 1_556
O7 Ru1 1.965983 1_565
O7 Ru2 1.965983 1_655
O8 Ru2 1.961250 1_655
O8 Ru0 1.970539 1_556
O9 Ru1 1.961250 1_555
O9 Ru0 1.970539 1_555
O10 Ru2 1.965983 1_555
O10 Ru3 1.965983 1_555
O11 Ru1 1.965983 1_555
O11 Ru3 1.965983 1_555
O12 Ru1 1.965983 1_555
O12 Ru2 1.965983 1_555
O13 Ru3 1.961250 1_555
O13 Ru0 1.970539 1_555
