# generated using pymatgen
data_Cs2CdPbF6
_symmetry_space_group_name_H-M   'P 1'
_cell_length_a   6.58207518
_cell_length_b   6.58207490
_cell_length_c   6.58207513
_cell_angle_alpha   120.00000115
_cell_angle_beta   119.99999973
_cell_angle_gamma   89.99999790
_symmetry_Int_Tables_number   1
_chemical_formula_structural   Cs2CdPbF6
_chemical_formula_sum   'Cs2 Cd1 Pb1 F6'
_cell_volume   201.63851838
_cell_formula_units_Z   1
loop_
 _symmetry_equiv_pos_site_id
 _symmetry_equiv_pos_as_xyz
  1  'x, y, z'
loop_
 _atom_site_type_symbol
 _atom_site_label
 _atom_site_symmetry_multiplicity
 _atom_site_fract_x
 _atom_site_fract_y
 _atom_site_fract_z
 _atom_site_occupancy
  Cs  Cs0  1  0.74999800  0.24999800  0.49999800  1
  Cs  Cs1  1  0.24999800  0.74999800  0.49999800  1
  Cd  Cd0  1  0.50000000  0.50000000  0.00000000  1
  Pb  Pb0  1  0.00000000  0.00000000  0.00000000  1
  F  F0  1  0.25979586  0.25979586  0.00000000  1
  F  F1  1  0.74020414  0.25979586  0.00000000  1
  F  F2  1  0.74020214  0.74020214  0.00000000  1
  F  F3  1  0.25979586  0.74020414  0.00000000  1
  F  F4  1  0.25979786  0.25979786  0.51959372  1
  F  F5  1  0.74020214  0.74020214  0.48040428  1
loop_
_geom_bond_atom_site_label_1
_geom_bond_atom_site_label_2
_geom_bond_distance
_geom_bond_site_symmetry_2
Cs0 F3 3.292287 1_545
Cs0 F4 3.292288 1_555
Cs0 F2 3.292294 1_545
Cs0 F5 3.292294 1_545
Cs0 F0 3.292294 1_555
Cs0 F1 3.292301 1_555
Cs0 F1 3.292301 1_556
Cs0 F5 3.292307 1_555
Cs0 F2 3.292307 1_556
Cs0 F0 3.292307 1_656
Cs0 F3 3.292314 1_656
Cs0 F4 3.292314 1_655
Cs1 F1 3.292287 1_455
Cs1 F4 3.292288 1_555
Cs1 F0 3.292294 1_555
Cs1 F2 3.292294 1_455
Cs1 F5 3.292294 1_455
Cs1 F3 3.292301 1_555
Cs1 F3 3.292301 1_556
Cs1 F0 3.292307 1_566
Cs1 F5 3.292307 1_555
Cs1 F2 3.292307 1_556
Cs1 F1 3.292314 1_566
Cs1 F4 3.292314 1_565
Cd0 F2 2.235912 1_555
Cd0 F5 2.235912 1_555
Cd0 F4 2.235921 1_554
Cd0 F3 2.235931 1_555
Cd0 F1 2.235931 1_555
Cd0 F0 2.235931 1_555
F0 Pb0 2.418299 1_555
F1 Pb0 2.418299 1_655
F2 Pb0 2.418318 1_665
F3 Pb0 2.418299 1_565
F4 Pb0 2.418309 1_555
F5 Pb0 2.418318 1_666
