# generated using pymatgen
data_HfMg4Nb7N12
_symmetry_space_group_name_H-M   'P 1'
_cell_length_a   5.27547526
_cell_length_b   5.27547638
_cell_length_c   10.52221025
_cell_angle_alpha   90.00000000
_cell_angle_beta   90.00000000
_cell_angle_gamma   119.99999918
_symmetry_Int_Tables_number   1
_chemical_formula_structural   HfMg4Nb7N12
_chemical_formula_sum   'Hf1 Mg4 Nb7 N12'
_cell_volume   253.60679421
_cell_formula_units_Z   1
loop_
 _symmetry_equiv_pos_site_id
 _symmetry_equiv_pos_as_xyz
  1  'x, y, z'
loop_
 _atom_site_type_symbol
 _atom_site_label
 _atom_site_symmetry_multiplicity
 _atom_site_fract_x
 _atom_site_fract_y
 _atom_site_fract_z
 _atom_site_occupancy
  Hf  Hf0  1  0.00000000  0.00000000  0.00000000  1
  Mg  Mg0  1  0.33333300  0.66666700  0.00000000  1
  Mg  Mg1  1  0.33333300  0.66666700  0.50000000  1
  Mg  Mg2  1  0.66666700  0.33333300  0.50000000  1
  Mg  Mg3  1  0.66666700  0.33333300  0.00000000  1
  Nb  Nb0  1  1.00000000  0.33927605  0.25169516  1
  Nb  Nb1  1  0.66072395  1.00000000  0.74830484  1
  Nb  Nb2  1  0.33927605  0.33927605  0.74830484  1
  Nb  Nb3  1  0.00000000  0.00000000  0.50000000  1
  Nb  Nb4  1  0.66072395  0.66072395  0.25169516  1
  Nb  Nb5  1  0.33927605  0.00000000  0.25169516  1
  Nb  Nb6  1  0.00000000  0.66072395  0.74830484  1
  N  N0  1  0.66948811  0.66948811  0.61936515  1
  N  N1  1  0.66868694  0.66868694  0.87695784  1
  N  N2  1  0.33131306  0.33131306  0.12304216  1
  N  N3  1  0.33051189  0.33051189  0.38063485  1
  N  N4  1  0.33131306  1.00000000  0.87695784  1
  N  N5  1  0.33051189  1.00000000  0.61936515  1
  N  N6  1  1.00000000  0.66948811  0.38063485  1
  N  N7  1  1.00000000  0.66868694  0.12304216  1
  N  N8  1  0.66868694  0.00000000  0.12304216  1
  N  N9  1  0.66948811  0.00000000  0.38063485  1
  N  N10  1  0.00000000  0.33131306  0.87695784  1
  N  N11  1  0.00000000  0.33051189  0.61936515  1
loop_
_geom_bond_atom_site_label_1
_geom_bond_atom_site_label_2
_geom_bond_distance
_geom_bond_site_symmetry_2
Hf0 N4 2.175111 1_544
Hf0 N8 2.175111 1_455
Hf0 N2 2.175111 1_555
Hf0 N1 2.175111 1_444
Hf0 N10 2.175111 1_554
Hf0 N7 2.175111 1_445
Mg0 N7 2.187995 1_455
Mg0 N4 2.187996 1_554
Mg0 N8 2.187998 1_565
Mg0 N10 2.187998 1_554
Mg0 N1 2.188000 1_554
Mg0 N2 2.188000 1_555
Mg1 N6 2.167067 1_455
Mg1 N5 2.167067 1_555
Mg1 N9 2.167069 1_565
Mg1 N11 2.167069 1_555
Mg1 N0 2.167071 1_555
Mg1 N3 2.167071 1_555
Mg2 N11 2.167067 1_655
Mg2 N9 2.167067 1_555
Mg2 N5 2.167069 1_545
Mg2 N6 2.167069 1_555
Mg2 N3 2.167071 1_555
Mg2 N0 2.167071 1_555
Mg3 N10 2.187995 1_654
Mg3 N8 2.187996 1_555
Mg3 N4 2.187998 1_544
Mg3 N7 2.187998 1_555
Mg3 N2 2.188000 1_555
Mg3 N1 2.188000 1_554
N0 Nb3 2.148875 1_665
N0 Nb2 2.208024 1_555
N0 Nb6 2.227922 1_655
N0 Nb1 2.227923 1_555
N1 Nb2 2.202836 1_555
N1 Nb6 2.227701 1_655
N1 Nb1 2.227702 1_555
N2 Nb4 2.202836 1_555
N2 Nb0 2.227701 1_455
N2 Nb5 2.227702 1_555
N3 Nb3 2.148875 1_555
N3 Nb4 2.208024 1_555
N3 Nb0 2.227922 1_455
N3 Nb5 2.227923 1_555
N4 Nb1 2.202836 1_555
N4 Nb6 2.227702 1_555
N4 Nb2 2.227702 1_565
N5 Nb3 2.148875 1_565
N5 Nb1 2.208024 1_555
N5 Nb6 2.227922 1_555
N5 Nb2 2.227923 1_565
N6 Nb3 2.148876 1_665
N6 Nb0 2.208024 1_555
N6 Nb4 2.227922 1_555
N6 Nb5 2.227922 1_665
N7 Nb0 2.202836 1_555
N7 Nb4 2.227701 1_555
N7 Nb5 2.227702 1_665
N8 Nb5 2.202836 1_555
N8 Nb0 2.227702 1_555
N8 Nb4 2.227702 1_545
N9 Nb3 2.148875 1_655
N9 Nb5 2.208024 1_555
N9 Nb0 2.227922 1_555
N9 Nb4 2.227923 1_545
N10 Nb6 2.202836 1_555
N10 Nb2 2.227701 1_555
N10 Nb1 2.227702 1_445
N11 Nb3 2.148876 1_555
N11 Nb6 2.208024 1_555
N11 Nb2 2.227922 1_555
N11 Nb1 2.227922 1_445
