# generated using pymatgen
data_KRb7(SnI6)2
_symmetry_space_group_name_H-M   'P 1'
_cell_length_a   10.09363981
_cell_length_b   10.09345322
_cell_length_c   10.09345331
_cell_angle_alpha   90.36570315
_cell_angle_beta   90.36391748
_cell_angle_gamma   90.36391732
_symmetry_Int_Tables_number   1
_chemical_formula_structural   KRb7(SnI6)2
_chemical_formula_sum   'K1 Rb7 Sn2 I12'
_cell_volume   1028.25510875
_cell_formula_units_Z   1
loop_
 _symmetry_equiv_pos_site_id
 _symmetry_equiv_pos_as_xyz
  1  'x, y, z'
loop_
 _atom_site_type_symbol
 _atom_site_label
 _atom_site_symmetry_multiplicity
 _atom_site_fract_x
 _atom_site_fract_y
 _atom_site_fract_z
 _atom_site_occupancy
  K  K0  1  0.25000000  0.24999520  0.25000480  1
  Rb  Rb0  1  0.75000000  0.75000278  0.74999722  1
  Rb  Rb1  1  0.75000000  0.13287776  0.36712224  1
  Rb  Rb2  1  0.36711604  0.74999882  0.13287969  1
  Rb  Rb3  1  0.13288396  0.36712031  0.75000118  1
  Rb  Rb4  1  0.25000000  0.86693200  0.63306800  1
  Rb  Rb5  1  0.63306364  0.24999679  0.86694101  1
  Rb  Rb6  1  0.86693636  0.63305899  0.25000321  1
  Sn  Sn0  1  0.00185497  0.00185170  0.00185570  1
  Sn  Sn1  1  0.49814503  0.49814430  0.49814830  1
  I  I0  1  0.44137938  0.57182555  0.80108618  1
  I  I1  1  0.80110267  0.44136482  0.57177061  1
  I  I2  1  0.57175447  0.80104250  0.44129125  1
  I  I3  1  0.05862062  0.69891382  0.92817445  1
  I  I4  1  0.92824553  0.05870875  0.69895750  1
  I  I5  1  0.69889733  0.92822939  0.05863518  1
  I  I6  1  0.55282418  0.42288077  0.19629493  1
  I  I7  1  0.19628111  0.55260714  0.42290506  1
  I  I8  1  0.42284457  0.19628981  0.55264120  1
  I  I9  1  0.94717582  0.30370507  0.07711923  1
  I  I10  1  0.30371889  0.07709494  0.94739286  1
  I  I11  1  0.07715543  0.94735880  0.30371019  1
loop_
_geom_bond_atom_site_label_1
_geom_bond_atom_site_label_2
_geom_bond_distance
_geom_bond_site_symmetry_2
I0 Sn1 3.198357 1_555
I0 Rb0 3.628388 1_555
I0 Rb3 3.757029 1_555
I0 Rb5 3.850737 1_555
I0 Rb2 3.870867 1_556
I0 Rb4 3.946621 1_555
I1 Sn1 3.198517 1_555
I1 Rb0 3.628699 1_555
I1 Rb1 3.756579 1_555
I1 Rb6 3.850243 1_555
I1 Rb3 3.871098 1_655
I1 Rb5 3.947148 1_555
I2 Sn1 3.198022 1_555
I2 Rb0 3.629362 1_555
I2 Rb2 3.755880 1_555
I2 Rb4 3.850641 1_555
I2 Rb1 3.871455 1_565
I2 Rb6 3.946555 1_555
I3 Sn0 3.198357 1_566
I3 Rb0 3.628388 1_455
I3 Rb2 3.757029 1_556
I3 Rb6 3.850737 1_456
I3 Rb3 3.870867 1_555
I3 Rb4 3.946621 1_555
I4 Sn0 3.198022 1_656
I4 Rb0 3.629362 1_545
I4 Rb3 3.755879 1_655
I4 Rb4 3.850641 1_645
I4 Rb1 3.871455 1_555
I4 Rb5 3.946555 1_555
I5 Sn0 3.198517 1_665
I5 Rb0 3.628699 1_554
I5 Rb1 3.756579 1_565
I5 Rb5 3.850243 1_564
I5 Rb2 3.871098 1_555
I5 Rb6 3.947148 1_555
I6 Sn1 3.187709 1_555
I6 K0 3.556279 1_555
I6 Rb6 3.837272 1_555
I6 Rb5 3.837989 1_554
I6 Rb2 3.862028 1_555
I6 Rb1 3.949293 1_555
I7 Sn1 3.187447 1_555
I7 K0 3.554428 1_555
I7 Rb6 3.838570 1_455
I7 Rb4 3.838874 1_555
I7 Rb3 3.860731 1_555
I7 Rb2 3.950600 1_555
I8 Sn1 3.187508 1_555
I8 K0 3.554420 1_555
I8 Rb4 3.838339 1_545
I8 Rb5 3.839020 1_555
I8 Rb1 3.861420 1_555
I8 Rb3 3.949883 1_555
I9 Sn0 3.187709 1_655
I9 K0 3.556279 1_655
I9 Rb5 3.837272 1_554
I9 Rb6 3.837989 1_555
I9 Rb3 3.862028 1_654
I9 Rb1 3.949293 1_555
I10 Sn0 3.187447 1_556
I10 K0 3.554428 1_556
I10 Rb5 3.838570 1_555
I10 Rb4 3.838874 1_545
I10 Rb2 3.860731 1_546
I10 Rb3 3.950600 1_555
I11 Sn0 3.187508 1_565
I11 K0 3.554420 1_565
I11 Rb4 3.838340 1_555
I11 Rb6 3.839020 1_455
I11 Rb1 3.861420 1_465
I11 Rb2 3.949883 1_555
