# generated using pymatgen
data_Ca6Sb7Pd16Se
_symmetry_space_group_name_H-M   'P 1'
_cell_length_a   9.31648511
_cell_length_b   9.31648468
_cell_length_c   9.31648388
_cell_angle_alpha   59.99999937
_cell_angle_beta   60.00000092
_cell_angle_gamma   60.00000107
_symmetry_Int_Tables_number   1
_chemical_formula_structural   Ca6Sb7Pd16Se
_chemical_formula_sum   'Ca6 Sb7 Pd16 Se1'
_cell_volume   571.79613059
_cell_formula_units_Z   1
loop_
 _symmetry_equiv_pos_site_id
 _symmetry_equiv_pos_as_xyz
  1  'x, y, z'
loop_
 _atom_site_type_symbol
 _atom_site_label
 _atom_site_symmetry_multiplicity
 _atom_site_fract_x
 _atom_site_fract_y
 _atom_site_fract_z
 _atom_site_occupancy
  Ca  Ca0  1  0.71541354  0.28458646  0.28458646  1
  Ca  Ca1  1  0.28458646  0.71541354  0.71541354  1
  Ca  Ca2  1  0.28458646  0.71541354  0.28458646  1
  Ca  Ca3  1  0.71541354  0.28458646  0.71541354  1
  Ca  Ca4  1  0.28458646  0.28458646  0.71541354  1
  Ca  Ca5  1  0.71541354  0.71541354  0.28458646  1
  Sb  Sb0  1  0.00000000  0.00000000  0.00000000  1
  Sb  Sb1  1  0.50000000  0.00000000  0.00000000  1
  Sb  Sb2  1  0.00000000  0.50000000  0.50000000  1
  Sb  Sb3  1  0.00000000  0.50000000  0.00000000  1
  Sb  Sb4  1  0.50000000  0.00000000  0.50000000  1
  Sb  Sb5  1  0.00000000  0.00000000  0.50000000  1
  Sb  Sb6  1  0.50000000  0.50000000  0.00000000  1
  Pd  Pd0  1  0.11903874  0.11903874  0.11903874  1
  Pd  Pd1  1  0.88096126  0.88096126  0.88096126  1
  Pd  Pd2  1  0.11903874  0.11903874  0.64288378  1
  Pd  Pd3  1  0.11903874  0.64288378  0.11903874  1
  Pd  Pd4  1  0.88096126  0.88096126  0.35711622  1
  Pd  Pd5  1  0.88096126  0.35711622  0.88096126  1
  Pd  Pd6  1  0.64288378  0.11903874  0.11903874  1
  Pd  Pd7  1  0.35711622  0.88096126  0.88096126  1
  Pd  Pd8  1  0.32990265  0.32990265  0.32990265  1
  Pd  Pd9  1  0.67009735  0.67009735  0.67009735  1
  Pd  Pd10  1  0.32990265  0.32990265  0.01029104  1
  Pd  Pd11  1  0.32990265  0.01029104  0.32990265  1
  Pd  Pd12  1  0.67009735  0.67009735  0.98970896  1
  Pd  Pd13  1  0.67009735  0.98970896  0.67009735  1
  Pd  Pd14  1  0.01029104  0.32990265  0.32990265  1
  Pd  Pd15  1  0.98970896  0.67009735  0.67009735  1
  Se  Se0  1  0.50000000  0.50000000  0.50000000  1
loop_
_geom_bond_atom_site_label_1
_geom_bond_atom_site_label_2
_geom_bond_distance
_geom_bond_site_symmetry_2
Ca0 Se0 2.838181 1_555
Ca0 Pd5 3.110827 1_554
Ca0 Pd6 3.110827 1_555
Ca0 Pd4 3.110827 1_545
Ca0 Pd0 3.110827 1_655
Ca0 Pd14 3.225158 1_655
Ca0 Pd13 3.225163 1_545
Ca0 Pd12 3.225163 1_554
Ca0 Pd8 3.225167 1_555
Ca0 Sb6 3.325247 1_555
Ca0 Sb5 3.325247 1_655
Ca0 Sb3 3.325247 1_655
Ca0 Sb4 3.325247 1_555
Ca1 Se0 2.838181 1_555
Ca1 Pd3 3.110827 1_556
Ca1 Pd7 3.110827 1_555
Ca1 Pd2 3.110827 1_565
Ca1 Pd1 3.110827 1_455
Ca1 Pd15 3.225158 1_455
Ca1 Pd11 3.225163 1_565
Ca1 Pd10 3.225163 1_556
Ca1 Pd9 3.225167 1_555
Ca1 Sb6 3.325247 1_556
Ca1 Sb5 3.325247 1_565
Ca1 Sb3 3.325247 1_556
Ca1 Sb4 3.325247 1_565
Ca2 Se0 2.838181 1_555
Ca2 Pd7 3.110827 1_554
Ca2 Pd3 3.110827 1_555
Ca2 Pd0 3.110827 1_565
Ca2 Pd4 3.110827 1_455
Ca2 Pd11 3.225157 1_565
Ca2 Pd15 3.225163 1_455
Ca2 Pd12 3.225163 1_554
Ca2 Pd8 3.225167 1_555
Ca2 Sb6 3.325247 1_555
Ca2 Sb5 3.325247 1_565
Ca2 Sb1 3.325247 1_565
Ca2 Sb2 3.325247 1_555
Ca3 Se0 2.838181 1_555
Ca3 Pd6 3.110827 1_556
Ca3 Pd5 3.110827 1_555
Ca3 Pd1 3.110827 1_545
Ca3 Pd2 3.110827 1_655
Ca3 Pd13 3.225157 1_545
Ca3 Pd14 3.225163 1_655
Ca3 Pd10 3.225163 1_556
Ca3 Pd9 3.225167 1_555
Ca3 Sb6 3.325247 1_556
Ca3 Sb5 3.325247 1_655
Ca3 Sb1 3.325247 1_556
Ca3 Sb2 3.325247 1_655
Ca4 Se0 2.838181 1_555
Ca4 Pd0 3.110827 1_556
Ca4 Pd7 3.110827 1_545
Ca4 Pd2 3.110827 1_555
Ca4 Pd5 3.110827 1_455
Ca4 Pd10 3.225157 1_556
Ca4 Pd15 3.225163 1_455
Ca4 Pd13 3.225163 1_545
Ca4 Pd8 3.225166 1_555
Ca4 Sb1 3.325247 1_556
Ca4 Sb3 3.325247 1_556
Ca4 Sb4 3.325247 1_555
Ca4 Sb2 3.325247 1_555
Ca5 Se0 2.838181 1_555
Ca5 Pd1 3.110827 1_554
Ca5 Pd6 3.110827 1_565
Ca5 Pd4 3.110827 1_555
Ca5 Pd3 3.110827 1_655
Ca5 Pd12 3.225157 1_554
Ca5 Pd14 3.225163 1_655
Ca5 Pd11 3.225163 1_565
Ca5 Pd9 3.225166 1_555
Ca5 Sb1 3.325247 1_565
Ca5 Sb3 3.325247 1_655
Ca5 Sb4 3.325247 1_565
Ca5 Sb2 3.325247 1_655
Pd0 Sb0 2.716539 1_555
Pd0 Sb5 2.900762 1_555
Pd0 Sb3 2.900763 1_555
Pd0 Sb1 2.900763 1_555
Pd0 Pd14 2.936613 1_555
Pd0 Pd11 2.936613 1_555
Pd0 Pd10 2.936613 1_555
Pd0 Pd7 3.136789 1_544
Pd0 Pd5 3.136789 1_454
Pd0 Pd4 3.136790 1_445
Pd1 Sb0 2.716539 1_666
Pd1 Sb5 2.900762 1_665
Pd1 Sb3 2.900763 1_656
Pd1 Sb1 2.900763 1_566
Pd1 Pd15 2.936613 1_555
Pd1 Pd13 2.936613 1_555
Pd1 Pd12 2.936613 1_555
Pd1 Pd6 3.136789 1_566
Pd1 Pd3 3.136789 1_656
Pd1 Pd2 3.136790 1_665
Pd2 Sb0 2.716539 1_556
Pd2 Sb5 2.900763 1_555
Pd2 Sb2 2.900763 1_555
Pd2 Sb4 2.900763 1_555
Pd2 Pd8 2.936616 1_555
Pd2 Pd5 3.136789 1_455
Pd2 Pd7 3.136789 1_545
Pd3 Sb0 2.716539 1_565
Pd3 Sb2 2.900762 1_555
Pd3 Sb3 2.900763 1_555
Pd3 Sb6 2.900763 1_555
Pd3 Pd8 2.936616 1_555
Pd3 Pd4 3.136789 1_455
Pd3 Pd7 3.136790 1_554
Pd4 Sb0 2.716539 1_665
Pd4 Sb5 2.900763 1_665
Pd4 Sb2 2.900763 1_655
Pd4 Sb4 2.900763 1_565
Pd4 Pd9 2.936616 1_555
Pd4 Pd6 3.136789 1_565
Pd5 Sb0 2.716539 1_656
Pd5 Sb2 2.900762 1_655
Pd5 Sb3 2.900763 1_656
Pd5 Sb6 2.900763 1_556
Pd5 Pd9 2.936616 1_555
Pd5 Pd6 3.136790 1_556
Pd6 Sb0 2.716540 1_655
Pd6 Sb4 2.900762 1_555
Pd6 Sb1 2.900763 1_555
Pd6 Sb6 2.900763 1_555
Pd6 Pd8 2.936616 1_555
Pd7 Sb0 2.716540 1_566
Pd7 Sb4 2.900762 1_565
Pd7 Sb1 2.900763 1_566
Pd7 Sb6 2.900763 1_556
Pd7 Pd9 2.936616 1_555
Pd8 Sb6 2.690577 1_555
Pd8 Sb4 2.690577 1_555
Pd8 Sb2 2.690577 1_555
Pd9 Sb6 2.690577 1_556
Pd9 Sb4 2.690577 1_565
Pd9 Sb2 2.690577 1_655
Pd10 Sb1 2.690574 1_555
Pd10 Sb3 2.690574 1_555
Pd10 Sb6 2.690582 1_555
Pd10 Pd3 2.936621 1_555
Pd10 Pd6 2.936621 1_555
Pd11 Sb1 2.690574 1_555
Pd11 Sb5 2.690574 1_555
Pd11 Sb4 2.690582 1_555
Pd11 Pd2 2.936621 1_555
Pd11 Pd6 2.936621 1_555
Pd12 Sb1 2.690574 1_566
Pd12 Sb3 2.690574 1_656
Pd12 Sb6 2.690582 1_556
Pd12 Pd5 2.936621 1_555
Pd12 Pd7 2.936621 1_555
Pd13 Sb1 2.690574 1_566
Pd13 Sb5 2.690574 1_665
Pd13 Sb4 2.690582 1_565
Pd13 Pd4 2.936621 1_555
Pd13 Pd7 2.936621 1_555
Pd14 Sb3 2.690574 1_555
Pd14 Sb5 2.690574 1_555
Pd14 Sb2 2.690582 1_555
Pd14 Pd2 2.936621 1_555
Pd14 Pd3 2.936621 1_555
Pd15 Sb3 2.690574 1_656
Pd15 Sb5 2.690574 1_665
Pd15 Sb2 2.690582 1_655
Pd15 Pd4 2.936621 1_555
Pd15 Pd5 2.936621 1_555
