# generated using pymatgen
data_Lu2In4(TeO6)3
_symmetry_space_group_name_H-M   'P 1'
_cell_length_a   8.91420854
_cell_length_b   8.91420922
_cell_length_c   4.91691756
_cell_angle_alpha   89.88623004
_cell_angle_beta   90.11377176
_cell_angle_gamma   119.89759865
_symmetry_Int_Tables_number   1
_chemical_formula_structural   Lu2In4(TeO6)3
_chemical_formula_sum   'Lu2 In4 Te3 O18'
_cell_volume   338.71562990
_cell_formula_units_Z   1
loop_
 _symmetry_equiv_pos_site_id
 _symmetry_equiv_pos_as_xyz
  1  'x, y, z'
loop_
 _atom_site_type_symbol
 _atom_site_label
 _atom_site_symmetry_multiplicity
 _atom_site_fract_x
 _atom_site_fract_y
 _atom_site_fract_z
 _atom_site_occupancy
  Lu  Lu0  1  0.62565448  0.00036954  0.00022665  1
  Lu  Lu1  1  0.00036954  0.62565448  0.99977335  1
  In  In0  1  0.37096417  0.37096417  1.00000000  1
  In  In1  1  0.29132897  0.99889704  0.50139342  1
  In  In2  1  0.99889704  0.29132897  0.49860658  1
  In  In3  1  0.70961564  0.70961564  0.50000000  1
  Te  Te0  1  0.00139938  0.00139938  1.00000000  1
  Te  Te1  1  0.33376730  0.66490301  0.50535996  1
  Te  Te2  1  0.66490301  0.33376730  0.49464004  1
  O  O0  1  0.08774044  0.88182128  0.78522220  1
  O  O1  1  0.11945018  0.20682069  0.78259508  1
  O  O2  1  0.79570135  0.91462437  0.78383278  1
  O  O3  1  0.20682069  0.11945018  0.21740492  1
  O  O4  1  0.91462437  0.79570135  0.21616722  1
  O  O5  1  0.88182128  0.08774044  0.21477780  1
  O  O6  1  0.46018879  0.58772119  0.72940684  1
  O  O7  1  0.41063246  0.86747602  0.72731368  1
  O  O8  1  0.12940374  0.54060605  0.72239662  1
  O  O9  1  0.86747602  0.41063246  0.27268632  1
  O  O10  1  0.54060605  0.12940374  0.27760338  1
  O  O11  1  0.58772119  0.46018879  0.27059316  1
  O  O12  1  0.22299021  0.76056765  0.28388897  1
  O  O13  1  0.23825686  0.45995134  0.28076850  1
  O  O14  1  0.54008314  0.77906670  0.28829095  1
  O  O15  1  0.45995134  0.23825686  0.71923150  1
  O  O16  1  0.77906670  0.54008314  0.71170905  1
  O  O17  1  0.76056765  0.22299021  0.71611103  1
loop_
_geom_bond_atom_site_label_1
_geom_bond_atom_site_label_2
_geom_bond_distance
_geom_bond_site_symmetry_2
Lu0 O7 2.147195 1_544
Lu0 O10 2.153498 1_555
Lu0 O17 2.225421 1_554
Lu0 O14 2.229971 1_545
Lu0 O5 2.270387 1_555
Lu0 O2 2.275683 1_544
Lu1 O9 2.147196 1_456
Lu1 O8 2.153498 1_555
Lu1 O12 2.225421 1_556
Lu1 O16 2.229971 1_455
Lu1 O0 2.270387 1_555
Lu1 O4 2.275683 1_456
In0 O11 2.144339 1_556
In0 O6 2.144340 1_555
In0 O13 2.209262 1_556
In0 O15 2.209262 1_555
In0 O1 2.244261 1_555
In0 O3 2.244262 1_556
In1 O0 2.108673 1_555
In1 O3 2.114009 1_565
In1 O12 2.178217 1_555
In1 O15 2.182823 1_565
In1 O10 2.220243 1_565
In1 O7 2.229260 1_555
In2 O5 2.108673 1_555
In2 O1 2.114009 1_655
In2 O17 2.178217 1_555
In2 O13 2.182823 1_655
In2 O8 2.220243 1_655
In2 O9 2.229260 1_555
In3 O4 2.117565 1_555
In3 O2 2.117565 1_555
In3 O14 2.162096 1_555
In3 O16 2.162096 1_555
In3 O6 2.234571 1_555
In3 O11 2.234571 1_555
O0 Te0 1.915574 1_565
O1 Te0 1.918052 1_555
O2 Te0 1.916199 1_665
O3 Te0 1.918052 1_554
O4 Te0 1.916199 1_664
O5 Te0 1.915574 1_654
O6 Te1 1.929237 1_555
O7 Te1 1.921641 1_555
O8 Te1 1.917291 1_555
O9 Te2 1.921641 1_555
O10 Te2 1.917291 1_555
O11 Te2 1.929237 1_555
O12 Te1 1.928658 1_555
O13 Te1 1.932828 1_555
O14 Te1 1.922209 1_555
O15 Te2 1.932827 1_555
O16 Te2 1.922209 1_555
O17 Te2 1.928658 1_555
