# generated using pymatgen
data_TiAl2FeRu4
_symmetry_space_group_name_H-M   'P 1'
_cell_length_a   4.23767470
_cell_length_b   4.23767470
_cell_length_c   5.99052045
_cell_angle_alpha   90.00000000
_cell_angle_beta   90.00000000
_cell_angle_gamma   90.00000000
_symmetry_Int_Tables_number   1
_chemical_formula_structural   TiAl2FeRu4
_chemical_formula_sum   'Ti1 Al2 Fe1 Ru4'
_cell_volume   107.57708872
_cell_formula_units_Z   1
loop_
 _symmetry_equiv_pos_site_id
 _symmetry_equiv_pos_as_xyz
  1  'x, y, z'
loop_
 _atom_site_type_symbol
 _atom_site_label
 _atom_site_symmetry_multiplicity
 _atom_site_fract_x
 _atom_site_fract_y
 _atom_site_fract_z
 _atom_site_occupancy
  Ti  Ti0  1  0.00000000  0.00000000  0.50000100  1
  Al  Al0  1  0.00000000  0.00000000  0.00000000  1
  Al  Al1  1  0.50000000  0.50000000  0.50000100  1
  Fe  Fe0  1  0.50000000  0.50000000  0.00000000  1
  Ru  Ru0  1  0.50000000  0.00000000  0.24264629  1
  Ru  Ru1  1  0.00000000  0.50000000  0.24264629  1
  Ru  Ru2  1  0.50000000  0.00000000  0.75735371  1
  Ru  Ru3  1  0.00000000  0.50000000  0.75735371  1
loop_
_geom_bond_atom_site_label_1
_geom_bond_atom_site_label_2
_geom_bond_distance
_geom_bond_site_symmetry_2
Al0 Ru0 2.569506 1_555
Al0 Ru0 2.569506 1_455
Al0 Ru1 2.569506 1_545
Al0 Ru1 2.569506 1_555
Al0 Ru3 2.569506 1_554
Al0 Ru2 2.569506 1_454
Al0 Ru2 2.569506 1_554
Al0 Ru3 2.569506 1_544
Al1 Ru3 2.620351 1_655
Al1 Ru2 2.620351 1_555
Al1 Ru2 2.620351 1_565
Al1 Ru3 2.620351 1_555
Al1 Ru1 2.620358 1_555
Al1 Ru0 2.620358 1_555
Al1 Ru0 2.620358 1_565
Al1 Ru1 2.620358 1_655
Fe0 Ru0 2.569506 1_555
Fe0 Ru0 2.569506 1_565
Fe0 Ru1 2.569506 1_655
Fe0 Ru1 2.569506 1_555
Fe0 Ru3 2.569506 1_654
Fe0 Ru3 2.569506 1_554
Fe0 Ru2 2.569506 1_564
Fe0 Ru2 2.569506 1_554
Ru0 Ti0 2.620358 1_555
Ru0 Ti0 2.620358 1_655
Ru1 Ti0 2.620358 1_555
Ru1 Ti0 2.620358 1_565
Ru2 Ti0 2.620351 1_655
Ru2 Ti0 2.620351 1_555
Ru3 Ti0 2.620351 1_565
Ru3 Ti0 2.620351 1_555
