# generated using pymatgen
data_MgSc2(Ni10B3)2
_symmetry_space_group_name_H-M   'P 1'
_cell_length_a   7.43558768
_cell_length_b   7.43558728
_cell_length_c   7.43558662
_cell_angle_alpha   59.99999430
_cell_angle_beta   59.99999608
_cell_angle_gamma   59.99999811
_symmetry_Int_Tables_number   1
_chemical_formula_structural   MgSc2(Ni10B3)2
_chemical_formula_sum   'Mg1 Sc2 Ni20 B6'
_cell_volume   290.69045838
_cell_formula_units_Z   1
loop_
 _symmetry_equiv_pos_site_id
 _symmetry_equiv_pos_as_xyz
  1  'x, y, z'
loop_
 _atom_site_type_symbol
 _atom_site_label
 _atom_site_symmetry_multiplicity
 _atom_site_fract_x
 _atom_site_fract_y
 _atom_site_fract_z
 _atom_site_occupancy
  Mg  Mg0  1  0.00000000  0.00000000  0.00000000  1
  Sc  Sc0  1  0.75000000  0.75000000  0.75000000  1
  Sc  Sc1  1  0.25000000  0.25000000  0.25000000  1
  Ni  Ni0  1  0.61422905  0.61422905  0.15731186  1
  Ni  Ni1  1  0.61422905  0.15731186  0.61422905  1
  Ni  Ni2  1  0.15731186  0.61422905  0.61422905  1
  Ni  Ni3  1  0.61422905  0.61422905  0.61422905  1
  Ni  Ni4  1  0.38577095  0.38577095  0.84268814  1
  Ni  Ni5  1  0.38577095  0.84268814  0.38577095  1
  Ni  Ni6  1  0.84268814  0.38577095  0.38577095  1
  Ni  Ni7  1  0.38577095  0.38577095  0.38577095  1
  Ni  Ni8  1  1.00000000  1.00000000  0.34189092  1
  Ni  Ni9  1  0.65810908  1.00000000  0.34189092  1
  Ni  Ni10  1  1.00000000  0.65810908  0.34189092  1
  Ni  Ni11  1  0.65810908  0.34189092  1.00000000  1
  Ni  Ni12  1  1.00000000  0.34189092  1.00000000  1
  Ni  Ni13  1  0.00000000  0.34189092  0.65810908  1
  Ni  Ni14  1  0.34189092  0.65810908  0.00000000  1
  Ni  Ni15  1  0.34189092  0.00000000  0.65810908  1
  Ni  Ni16  1  0.34189092  1.00000000  0.00000000  1
  Ni  Ni17  1  0.00000000  0.00000000  0.65810908  1
  Ni  Ni18  1  0.00000000  0.65810908  0.00000000  1
  Ni  Ni19  1  0.65810908  0.00000000  1.00000000  1
  B  B0  1  0.73131813  0.73131813  0.26868187  1
  B  B1  1  0.26868187  0.73131813  0.26868187  1
  B  B2  1  0.73131813  0.26868187  0.26868187  1
  B  B3  1  0.26868187  0.26868187  0.73131813  1
  B  B4  1  0.73131813  0.26868187  0.73131813  1
  B  B5  1  0.26868187  0.73131813  0.73131813  1
loop_
_geom_bond_atom_site_label_1
_geom_bond_atom_site_label_2
_geom_bond_distance
_geom_bond_site_symmetry_2
Mg0 Ni13 2.542159 1_554
Mg0 Ni10 2.542159 1_445
Mg0 Ni8 2.542160 1_445
Mg0 Ni17 2.542160 1_554
Mg0 Ni15 2.542160 1_554
Mg0 Ni9 2.542160 1_445
Mg0 Ni11 2.542160 1_454
Mg0 Ni14 2.542160 1_545
Mg0 Ni12 2.542160 1_454
Mg0 Ni18 2.542160 1_545
Mg0 Ni16 2.542160 1_545
Mg0 Ni19 2.542160 1_454
Ni0 Sc0 2.472844 1_554
Ni0 Ni11 2.627084 1_554
Ni0 Ni14 2.627084 1_555
Ni0 Ni16 2.627087 1_555
Ni0 Ni12 2.627087 1_554
Ni0 Ni19 2.627090 1_564
Ni0 Ni18 2.627091 1_655
Ni1 Sc0 2.472844 1_545
Ni1 Ni9 2.627083 1_545
Ni1 Ni15 2.627084 1_555
Ni1 Ni16 2.627087 1_546
Ni1 Ni8 2.627087 1_545
Ni1 Ni19 2.627090 1_555
Ni1 Ni17 2.627091 1_655
Ni2 Sc0 2.472844 1_455
Ni2 Ni8 2.627087 1_455
Ni3 Sc0 2.472850 1_555
Ni3 Ni9 2.627089 1_555
Ni4 Sc1 2.472844 1_556
Ni5 Sc1 2.472844 1_565
Ni5 Ni9 2.627084 1_555
Ni5 Ni8 2.627091 1_455
Ni6 Sc1 2.472844 1_655
Ni6 Ni8 2.627090 1_545
Ni7 Sc1 2.472850 1_555
Ni7 Ni9 2.627089 1_545
Ni8 Ni9 2.542160 1_555
Ni8 Sc0 2.879776 1_555
Ni8 Sc1 2.879776 1_665
Ni9 Sc0 2.879776 1_555
Ni9 Sc1 2.879776 1_565
Ni10 Ni13 2.351267 1_655
Ni10 Ni18 2.542160 1_655
Ni10 Ni14 2.542160 1_655
Ni10 Ni9 2.542160 1_555
Ni10 Ni8 2.542160 1_555
Ni10 Ni2 2.627083 1_655
Ni10 Ni6 2.627084 1_555
Ni10 Ni3 2.627089 1_555
Ni10 Ni7 2.627089 1_655
Ni10 Sc0 2.879776 1_555
Ni10 Sc1 2.879776 1_655
Ni11 Ni14 2.351268 1_556
Ni11 Ni9 2.542159 1_546
Ni11 Ni13 2.542160 1_655
Ni11 Ni19 2.542160 1_555
Ni11 Ni12 2.542160 1_555
Ni11 Ni4 2.627084 1_555
Ni11 Ni3 2.627089 1_555
Ni11 Ni7 2.627089 1_556
Ni11 Sc0 2.879776 1_555
Ni11 Sc1 2.879776 1_556
Ni12 Ni18 2.351268 1_656
Ni12 Ni8 2.542159 1_546
Ni12 Ni13 2.542160 1_655
Ni12 Ni16 2.542160 1_646
Ni12 Ni2 2.627087 1_655
Ni12 Ni6 2.627090 1_556
Ni12 Ni4 2.627091 1_655
Ni12 Sc0 2.879776 1_555
Ni12 Sc1 2.879776 1_656
Ni13 Ni15 2.542160 1_555
Ni13 Ni17 2.542160 1_555
Ni13 Ni6 2.627083 1_455
Ni13 Ni2 2.627084 1_555
Ni13 Ni7 2.627089 1_555
Ni13 Ni3 2.627089 1_455
Ni13 Sc1 2.879776 1_555
Ni13 Sc0 2.879776 1_455
Ni14 Ni15 2.542159 1_564
Ni14 Ni16 2.542160 1_555
Ni14 Ni18 2.542160 1_555
Ni14 Ni4 2.627084 1_554
Ni14 Ni7 2.627089 1_555
Ni14 Ni3 2.627089 1_554
Ni14 Sc1 2.879776 1_555
Ni14 Sc0 2.879776 1_554
Ni15 Ni9 2.351268 1_545
Ni15 Ni16 2.542160 1_546
Ni15 Ni17 2.542160 1_555
Ni15 Ni5 2.627083 1_545
Ni15 Ni7 2.627089 1_555
Ni15 Ni3 2.627089 1_545
Ni15 Sc1 2.879776 1_555
Ni15 Sc0 2.879776 1_545
Ni16 Ni19 2.351268 1_564
Ni16 Ni8 2.542160 1_455
Ni16 Ni5 2.627090 1_555
Ni16 Ni4 2.627090 1_564
Ni16 Sc1 2.879776 1_565
Ni16 Sc0 2.879776 1_554
Ni17 Ni8 2.351268 1_445
Ni17 Ni18 2.542159 1_546
Ni17 Ni19 2.542160 1_455
Ni17 Ni6 2.627087 1_455
Ni17 Ni5 2.627087 1_545
Ni17 Ni2 2.627090 1_545
Ni17 Sc1 2.879776 1_555
Ni17 Sc0 2.879776 1_445
Ni18 Ni19 2.542160 1_464
Ni18 Ni6 2.627087 1_455
Ni18 Ni4 2.627087 1_554
Ni18 Ni2 2.627090 1_554
Ni18 Sc1 2.879776 1_555
Ni18 Sc0 2.879776 1_454
Ni19 Ni9 2.542160 1_546
Ni19 Ni5 2.627087 1_546
Ni19 Ni4 2.627087 1_555
Ni19 Sc0 2.879776 1_545
Ni19 Sc1 2.879776 1_556
B0 Ni19 2.070641 1_564
B0 Ni18 2.070641 1_655
B0 Ni9 2.070641 1_555
B0 Ni10 2.070641 1_555
B0 Ni3 2.098006 1_555
B0 Ni6 2.098006 1_555
B0 Ni5 2.098006 1_555
B0 Ni0 2.098012 1_555
B1 Ni16 2.070641 1_555
B1 Ni14 2.070641 1_555
B1 Ni8 2.070641 1_455
B1 Ni10 2.070641 1_455
B1 Ni2 2.098006 1_555
B1 Ni7 2.098006 1_555
B1 Ni0 2.098006 1_555
B1 Ni5 2.098012 1_555
B2 Ni11 2.070641 1_554
B2 Ni12 2.070641 1_554
B2 Ni8 2.070641 1_545
B2 Ni9 2.070641 1_545
B2 Ni1 2.098006 1_555
B2 Ni0 2.098006 1_555
B2 Ni7 2.098006 1_555
B2 Ni6 2.098012 1_555
B3 Ni16 2.070641 1_546
B3 Ni12 2.070641 1_455
B3 Ni15 2.070641 1_555
B3 Ni13 2.070641 1_555
B3 Ni7 2.098006 1_555
B3 Ni2 2.098006 1_555
B3 Ni1 2.098006 1_555
B3 Ni4 2.098012 1_555
B4 Ni19 2.070641 1_555
B4 Ni11 2.070641 1_555
B4 Ni17 2.070641 1_655
B4 Ni13 2.070641 1_655
B4 Ni6 2.098006 1_555
B4 Ni3 2.098006 1_555
B4 Ni4 2.098006 1_555
B4 Ni1 2.098012 1_555
B5 Ni14 2.070641 1_556
B5 Ni18 2.070641 1_556
B5 Ni17 2.070641 1_565
B5 Ni15 2.070641 1_565
B5 Ni5 2.098006 1_555
B5 Ni4 2.098006 1_555
B5 Ni3 2.098006 1_555
B5 Ni2 2.098012 1_555
