# generated using pymatgen
data_Lu6Ti4Al12Ru7
_symmetry_space_group_name_H-M   'P 1'
_cell_length_a   8.88076168
_cell_length_b   8.88076240
_cell_length_c   8.88076144
_cell_angle_alpha   60.00000723
_cell_angle_beta   60.00000455
_cell_angle_gamma   60.00000149
_symmetry_Int_Tables_number   1
_chemical_formula_structural   Lu6Ti4Al12Ru7
_chemical_formula_sum   'Lu6 Ti4 Al12 Ru7'
_cell_volume   495.26280941
_cell_formula_units_Z   1
loop_
 _symmetry_equiv_pos_site_id
 _symmetry_equiv_pos_as_xyz
  1  'x, y, z'
loop_
 _atom_site_type_symbol
 _atom_site_label
 _atom_site_symmetry_multiplicity
 _atom_site_fract_x
 _atom_site_fract_y
 _atom_site_fract_z
 _atom_site_occupancy
  Lu  Lu0  1  0.70678614  0.70678614  0.29321386  1
  Lu  Lu1  1  0.29321386  0.70678614  0.29321386  1
  Lu  Lu2  1  0.70678614  0.29321386  0.29321386  1
  Lu  Lu3  1  0.29321386  0.29321386  0.70678614  1
  Lu  Lu4  1  0.70678614  0.29321386  0.70678614  1
  Lu  Lu5  1  0.29321386  0.70678614  0.70678614  1
  Ti  Ti0  1  0.88062353  0.88062353  0.35813040  1
  Ti  Ti1  1  0.88062353  0.35813040  0.88062353  1
  Ti  Ti2  1  0.35813040  0.88062353  0.88062353  1
  Ti  Ti3  1  0.88062353  0.88062353  0.88062353  1
  Al  Al0  1  0.11961572  0.11961572  0.64115084  1
  Al  Al1  1  0.11961572  0.64115084  0.11961572  1
  Al  Al2  1  0.64115084  0.11961572  0.11961572  1
  Al  Al3  1  0.11961572  0.11961572  0.11961572  1
  Al  Al4  1  0.66990595  0.66990595  0.99028116  1
  Al  Al5  1  0.66990595  0.99028116  0.66990595  1
  Al  Al6  1  0.99028116  0.66990595  0.66990595  1
  Al  Al7  1  0.66990595  0.66990595  0.66990595  1
  Al  Al8  1  0.33047219  0.33047219  0.00858344  1
  Al  Al9  1  0.33047219  0.00858344  0.33047219  1
  Al  Al10  1  0.00858344  0.33047219  0.33047219  1
  Al  Al11  1  0.33047219  0.33047219  0.33047219  1
  Ru  Ru0  1  0.00000000  0.00000000  0.00000000  1
  Ru  Ru1  1  0.99828369  0.99828369  0.50171631  1
  Ru  Ru2  1  0.50171631  0.99828369  0.50171631  1
  Ru  Ru3  1  0.99828369  0.50171631  0.50171631  1
  Ru  Ru4  1  0.50171631  0.50171631  0.99828369  1
  Ru  Ru5  1  0.99828369  0.50171631  0.99828369  1
  Ru  Ru6  1  0.50171631  0.99828369  0.99828369  1
loop_
_geom_bond_atom_site_label_1
_geom_bond_atom_site_label_2
_geom_bond_distance
_geom_bond_site_symmetry_2
Lu0 Ti3 3.043419 1_554
Lu0 Ti0 3.043424 1_555
Lu0 Ru3 3.186458 1_555
Lu0 Ru5 3.186459 1_554
Lu0 Ru2 3.186459 1_555
Lu0 Ru6 3.186459 1_554
Lu1 Ti0 3.043417 1_455
Lu1 Ti2 3.043417 1_554
Lu1 Ru4 3.186458 1_554
Lu1 Ru1 3.186459 1_455
Lu1 Ru3 3.186459 1_455
Lu1 Ru6 3.186459 1_554
Lu2 Ti1 3.043417 1_554
Lu2 Ti0 3.043417 1_545
Lu2 Ru4 3.186458 1_554
Lu2 Ru1 3.186459 1_545
Lu2 Ru5 3.186459 1_554
Lu2 Ru2 3.186459 1_545
Lu3 Ti1 3.043417 1_455
Lu3 Ti2 3.043417 1_545
Lu3 Ru3 3.186458 1_455
Lu3 Ru5 3.186459 1_455
Lu3 Ru2 3.186459 1_545
Lu3 Ru6 3.186459 1_545
Lu4 Ti3 3.043419 1_545
Lu4 Ti1 3.043424 1_555
Lu4 Ru4 3.186458 1_555
Lu4 Ru1 3.186459 1_545
Lu4 Ru3 3.186459 1_555
Lu4 Ru6 3.186459 1_545
Lu5 Ti3 3.043418 1_455
Lu5 Ti2 3.043424 1_555
Lu5 Ru4 3.186458 1_555
Lu5 Ru1 3.186459 1_455
Lu5 Ru5 3.186459 1_455
Lu5 Ru2 3.186459 1_555
Al0 Ru0 2.602055 1_556
Al0 Ru1 2.772194 1_445
Al0 Ru2 2.772208 1_545
Al0 Ru3 2.772208 1_455
Al0 Al9 2.792639 1_555
Al0 Al10 2.792639 1_555
Al0 Al11 2.792649 1_555
Al0 Ti3 3.001576 1_445
Al0 Ti1 3.001595 1_455
Al0 Ti2 3.001595 1_545
Al0 Lu4 3.044225 1_455
Al0 Lu5 3.044225 1_545
Al0 Lu3 3.044240 1_555
Al1 Ru0 2.602056 1_565
Al1 Ru5 2.772194 1_454
Al1 Ru4 2.772208 1_554
Al1 Ru3 2.772208 1_455
Al1 Al8 2.792639 1_555
Al1 Al10 2.792640 1_555
Al1 Al11 2.792648 1_555
Al1 Ti3 3.001576 1_454
Al1 Ti0 3.001595 1_455
Al1 Ti2 3.001595 1_554
Al1 Lu0 3.044225 1_455
Al1 Lu5 3.044225 1_554
Al1 Lu1 3.044240 1_555
Al2 Ru0 2.602055 1_655
Al2 Ru6 2.772194 1_544
Al2 Ru2 2.772208 1_545
Al2 Ru4 2.772208 1_554
Al2 Al8 2.792639 1_555
Al2 Al9 2.792639 1_555
Al2 Ti3 3.001576 1_544
Al2 Ti0 3.001595 1_545
Al2 Ti1 3.001595 1_554
Al2 Lu4 3.044225 1_554
Al2 Lu0 3.044225 1_545
Al2 Lu2 3.044240 1_555
Al3 Ru0 2.602041 1_555
Al3 Ru6 2.772209 1_544
Al3 Ru1 2.772209 1_445
Al3 Ru5 2.772209 1_454
Al3 Al9 2.792654 1_555
Al3 Al8 2.792654 1_555
Al3 Ti1 3.001576 1_454
Al3 Ti2 3.001576 1_544
Al3 Ti0 3.001576 1_445
Al3 Lu2 3.044228 1_455
Al3 Lu3 3.044228 1_554
Al3 Lu1 3.044228 1_545
Al4 Ru4 2.546711 1_555
Al4 Ru5 2.546719 1_555
Al4 Ru6 2.546719 1_555
Al4 Ti2 2.794490 1_555
Al4 Ti1 2.794491 1_555
Al4 Ti3 2.794505 1_555
Al4 Lu1 3.053132 1_556
Al4 Lu2 3.053132 1_556
Al4 Lu0 3.053137 1_556
Al5 Ru2 2.546711 1_555
Al5 Ru6 2.546719 1_555
Al5 Ru1 2.546719 1_555
Al5 Ti0 2.794490 1_555
Al5 Ti2 2.794491 1_555
Al5 Ti3 2.794505 1_555
Al5 Lu3 3.053132 1_565
Al5 Lu2 3.053132 1_565
Al5 Lu4 3.053137 1_565
Al6 Ru3 2.546711 1_555
Al6 Ru5 2.546719 1_555
Al6 Ru1 2.546719 1_555
Al6 Ti0 2.794491 1_555
Al6 Ti1 2.794491 1_555
Al6 Ti3 2.794505 1_555
Al6 Lu1 3.053132 1_655
Al6 Lu3 3.053132 1_655
Al6 Lu5 3.053137 1_655
Al7 Ru3 2.546716 1_555
Al7 Ru4 2.546716 1_555
Al7 Ru2 2.546716 1_555
Al7 Ti2 2.794500 1_555
Al7 Ti1 2.794500 1_555
Al7 Ti0 2.794500 1_555
Al7 Lu0 3.053128 1_555
Al7 Lu5 3.053128 1_555
Al7 Lu4 3.053128 1_555
Al8 Ru5 2.582335 1_454
Al8 Ru4 2.582335 1_554
Al8 Ru6 2.582336 1_544
Al8 Lu3 3.047215 1_554
Al8 Lu4 3.047216 1_554
Al8 Lu5 3.047216 1_554
Al9 Ru2 2.582335 1_545
Al9 Ru6 2.582335 1_544
Al9 Ru1 2.582335 1_445
Al9 Lu0 3.047216 1_545
Al9 Lu1 3.047216 1_545
Al9 Lu5 3.047216 1_545
Al10 Ru3 2.582335 1_455
Al10 Ru5 2.582335 1_454
Al10 Ru1 2.582336 1_445
Al10 Al3 2.792654 1_555
Al10 Lu2 3.047215 1_455
Al10 Lu4 3.047216 1_455
Al10 Lu0 3.047216 1_455
Al11 Ru3 2.582335 1_455
Al11 Ru4 2.582336 1_554
Al11 Ru2 2.582336 1_545
Al11 Al2 2.792648 1_555
Al11 Lu3 3.047215 1_555
Al11 Lu2 3.047216 1_555
Al11 Lu1 3.047216 1_555
Ru0 Ti3 2.596836 1_444
Ru0 Ti2 2.596844 1_544
Ru0 Ti0 2.596844 1_445
Ru0 Ti1 2.596844 1_454
Ru1 Ti0 2.750705 1_555
Ru1 Ti3 2.750713 1_555
Ru2 Ti0 2.750712 1_555
Ru2 Ti2 2.750712 1_555
Ru3 Ti1 2.750712 1_555
Ru3 Ti0 2.750713 1_555
Ru4 Ti1 2.750712 1_555
Ru4 Ti2 2.750713 1_555
Ru5 Ti1 2.750705 1_555
Ru5 Ti3 2.750713 1_555
Ru6 Ti2 2.750705 1_555
Ru6 Ti3 2.750713 1_555
