# generated using pymatgen
data_Sr(PRu)2
_symmetry_space_group_name_H-M   'P 1'
_cell_length_a   4.03057771
_cell_length_b   4.03057792
_cell_length_c   6.36590083
_cell_angle_alpha   108.45594819
_cell_angle_beta   108.45594889
_cell_angle_gamma   90.00000138
_symmetry_Int_Tables_number   1
_chemical_formula_structural   Sr(PRu)2
_chemical_formula_sum   'Sr1 P2 Ru2'
_cell_volume   92.47407767
_cell_formula_units_Z   1
loop_
 _symmetry_equiv_pos_site_id
 _symmetry_equiv_pos_as_xyz
  1  'x, y, z'
loop_
 _atom_site_type_symbol
 _atom_site_label
 _atom_site_symmetry_multiplicity
 _atom_site_fract_x
 _atom_site_fract_y
 _atom_site_fract_z
 _atom_site_occupancy
  Sr  Sr0  1  0.00000000  -0.00000000  -0.00000000  1
  P  P0  1  0.65075640  0.65075640  0.30151280  1
  P  P1  1  0.34924360  0.34924360  0.69848720  1
  Ru  Ru0  1  0.75000000  0.25000000  0.50000000  1
  Ru  Ru1  1  0.25000000  0.75000000  0.50000000  1
loop_
_geom_bond_atom_site_label_1
_geom_bond_atom_site_label_2
_geom_bond_distance
_geom_bond_site_symmetry_2
P0 Ru1 2.310397 1_555
P0 Ru0 2.310397 1_555
P0 Ru1 2.310397 1_655
P0 Ru0 2.310397 1_565
P0 Sr0 3.326926 1_665
P0 Sr0 3.326926 1_565
P0 Sr0 3.326926 1_655
P0 Sr0 3.326926 1_555
P1 Ru0 2.310397 1_555
P1 Ru1 2.310397 1_555
P1 Ru0 2.310397 1_455
P1 Ru1 2.310397 1_545
P1 Sr0 3.326926 1_556
P1 Sr0 3.326926 1_656
P1 Sr0 3.326926 1_566
P1 Sr0 3.326926 1_666
Ru0 Sr0 3.487387 1_655
Ru0 Sr0 3.487387 1_656
Ru0 Sr0 3.487387 1_555
Ru0 Sr0 3.487388 1_666
Ru1 Sr0 3.487387 1_566
Ru1 Sr0 3.487387 1_565
Ru1 Sr0 3.487387 1_666
Ru1 Sr0 3.487388 1_555
