# generated using pymatgen
data_Hf4Zr2CoBr15
_symmetry_space_group_name_H-M   'P 1'
_cell_length_a   9.27013114
_cell_length_b   9.27374787
_cell_length_c   9.27374759
_cell_angle_alpha   109.72553774
_cell_angle_beta   109.35205451
_cell_angle_gamma   109.35205721
_symmetry_Int_Tables_number   1
_chemical_formula_structural   Hf4Zr2CoBr15
_chemical_formula_sum   'Hf4 Zr2 Co1 Br15'
_cell_volume   613.59838101
_cell_formula_units_Z   1
loop_
 _symmetry_equiv_pos_site_id
 _symmetry_equiv_pos_as_xyz
  1  'x, y, z'
loop_
 _atom_site_type_symbol
 _atom_site_label
 _atom_site_symmetry_multiplicity
 _atom_site_fract_x
 _atom_site_fract_y
 _atom_site_fract_z
 _atom_site_occupancy
  Hf  Hf0  1  0.77198822  0.00015843  0.77182979  1
  Hf  Hf1  1  1.00000000  0.77042697  0.76989937  1
  Hf  Hf2  1  0.00000000  0.23010063  0.22957303  1
  Hf  Hf3  1  0.22801178  0.22817021  0.99984157  1
  Zr  Zr0  1  0.77015616  0.77051820  0.99963796  1
  Zr  Zr1  1  0.22984384  0.00036204  0.22948180  1
  Co  Co0  1  0.00000000  0.99829683  0.00170317  1
  Br  Br0  1  0.50840194  0.00079819  0.50760275  1
  Br  Br1  1  0.00000000  0.50104035  0.49895965  1
  Br  Br2  1  0.49159806  0.49239725  0.99920181  1
  Br  Br3  1  0.50333328  0.75353352  0.74979976  1
  Br  Br4  1  0.75277022  0.00530830  0.25073278  1
  Br  Br5  1  0.49666672  0.25020024  0.24646648  1
  Br  Br6  1  0.24722978  0.25253808  0.49796256  1
  Br  Br7  1  0.24722978  0.74926722  0.99469170  1
  Br  Br8  1  1.00000000  0.24731095  0.75268905  1
  Br  Br9  1  0.00000000  0.75097045  0.24902955  1
  Br  Br10  1  0.24660906  0.99873481  0.75045245  1
  Br  Br11  1  0.24660906  0.49615660  0.24787525  1
  Br  Br12  1  0.75339094  0.24954755  0.00126519  1
  Br  Br13  1  0.75277022  0.50203744  0.74746192  1
  Br  Br14  1  0.75339094  0.75212475  0.50384340  1
loop_
_geom_bond_atom_site_label_1
_geom_bond_atom_site_label_2
_geom_bond_distance
_geom_bond_site_symmetry_2
Co0 Zr0 2.442342 1_454
Co0 Zr1 2.442342 1_565
Co0 Hf1 2.453636 1_454
Co0 Hf2 2.453636 1_565
Co0 Hf3 2.464807 1_564
Co0 Hf0 2.464807 1_464
Br0 Hf0 2.833063 1_555
Br0 Zr1 2.982034 1_555
Br1 Hf1 2.883953 1_455
Br1 Hf2 2.883953 1_555
Br2 Hf3 2.833063 1_555
Br2 Zr0 2.982034 1_555
Br3 Hf0 2.654717 1_565
Br3 Zr0 2.684856 1_555
Br4 Hf2 2.654186 1_655
Br4 Zr0 2.692221 1_544
Br5 Hf3 2.654717 1_554
Br5 Zr1 2.684856 1_555
Br6 Hf2 2.654186 1_555
Br6 Zr1 2.692221 1_555
Br7 Hf1 2.654186 1_455
Br7 Zr1 2.692221 1_566
Br8 Hf0 2.658037 1_555
Br8 Hf3 2.658037 1_655
Br9 Zr1 2.682313 1_565
Br9 Zr0 2.682313 1_454
Br10 Hf1 2.657955 1_455
Br10 Hf3 2.662973 1_565
Br11 Hf2 2.657950 1_555
Br11 Hf3 2.662978 1_554
Br12 Hf2 2.657955 1_655
Br12 Hf0 2.662973 1_554
Br13 Hf1 2.654186 1_555
Br13 Zr0 2.692221 1_555
Br14 Hf1 2.657950 1_555
Br14 Hf0 2.662978 1_565
