# generated using pymatgen
data_Ba2ZrCu2S5
_symmetry_space_group_name_H-M   'P 1'
_cell_length_a   3.96416734
_cell_length_b   7.14182613
_cell_length_c   8.96577980
_cell_angle_alpha   104.10842591
_cell_angle_beta   102.77200946
_cell_angle_gamma   106.11294655
_symmetry_Int_Tables_number   1
_chemical_formula_structural   Ba2ZrCu2S5
_chemical_formula_sum   'Ba2 Zr1 Cu2 S5'
_cell_volume   224.86490588
_cell_formula_units_Z   1
loop_
 _symmetry_equiv_pos_site_id
 _symmetry_equiv_pos_as_xyz
  1  'x, y, z'
loop_
 _atom_site_type_symbol
 _atom_site_label
 _atom_site_symmetry_multiplicity
 _atom_site_fract_x
 _atom_site_fract_y
 _atom_site_fract_z
 _atom_site_occupancy
  Ba  Ba0  1  0.47670466  0.65531001  0.29809830  1
  Ba  Ba1  1  0.52329534  0.34468999  0.70190170  1
  Zr  Zr0  1  0.00000000  0.00000000  0.00000000  1
  Cu  Cu0  1  0.74036332  0.19062626  0.29010138  1
  Cu  Cu1  1  0.25963668  0.80937374  0.70989862  1
  S  S0  1  0.66389771  0.27279697  0.05499946  1
  S  S1  1  0.15718332  0.01591790  0.29844874  1
  S  S2  1  0.00000100  0.50000100  0.50000000  1
  S  S3  1  0.84281668  0.98408210  0.70155226  1
  S  S4  1  0.33610329  0.72720503  0.94500054  1
loop_
_geom_bond_atom_site_label_1
_geom_bond_atom_site_label_2
_geom_bond_distance
_geom_bond_site_symmetry_2
Ba0 S2 3.066943 1_655
Ba0 S2 3.066943 1_555
Ba0 S1 3.169467 1_665
Ba0 S1 3.169470 1_565
Ba0 S4 3.281420 1_554
Ba0 S0 3.420776 1_555
Ba0 S0 3.420780 1_455
Ba0 S3 3.514384 1_555
Ba1 S2 3.066948 1_555
Ba1 S2 3.066953 1_655
Ba1 S3 3.169471 1_545
Ba1 S3 3.169471 1_445
Ba1 S0 3.281414 1_556
Ba1 S4 3.420783 1_555
Ba1 S4 3.420788 1_655
Ba1 S1 3.514377 1_555
Cu0 S0 2.301888 1_555
Cu0 S2 2.310194 1_655
Cu0 S1 2.329784 1_555
Cu0 S1 2.329787 1_655
Cu1 S4 2.301881 1_555
Cu1 S2 2.310185 1_555
Cu1 S3 2.329780 1_555
Cu1 S3 2.329787 1_455
S0 Zr0 2.660274 1_555
S0 Zr0 2.660277 1_655
S1 Zr0 2.576123 1_555
S3 Zr0 2.576115 1_666
S4 Zr0 2.660265 1_666
S4 Zr0 2.660268 1_566
