# generated using pymatgen
data_YBeB14
_symmetry_space_group_name_H-M   'P 1'
_cell_length_a   7.20527762
_cell_length_b   7.20321767
_cell_length_c   7.20487935
_cell_angle_alpha   132.76796635
_cell_angle_beta   110.36908405
_cell_angle_gamma   88.46305581
_symmetry_Int_Tables_number   1
_chemical_formula_structural   YBeB14
_chemical_formula_sum   'Y2 Be2 B28'
_cell_volume   245.13182773
_cell_formula_units_Z   2
loop_
 _symmetry_equiv_pos_site_id
 _symmetry_equiv_pos_as_xyz
  1  'x, y, z'
loop_
 _atom_site_type_symbol
 _atom_site_label
 _atom_site_symmetry_multiplicity
 _atom_site_fract_x
 _atom_site_fract_y
 _atom_site_fract_z
 _atom_site_occupancy
  Y  Y0  1  0.60833241  0.24956376  0.35781093  1
  Y  Y1  1  0.39166759  0.75043624  0.64218907  1
  Be  Be0  1  0.00000000  0.00000000  0.50000000  1
  Be  Be1  1  0.00000000  0.50000000  0.00000000  1
  B  B0  1  0.63100544  0.66651563  0.96497192  1
  B  B1  1  0.36899456  0.33348437  0.03502808  1
  B  B2  1  0.20155088  0.16636811  0.03535016  1
  B  B3  1  0.79844912  0.83363189  0.96464984  1
  B  B4  1  0.79105636  0.15570490  0.63553227  1
  B  B5  1  0.20894364  0.84429510  0.36446773  1
  B  B6  1  0.02016315  0.65559987  0.36455352  1
  B  B7  1  0.97983685  0.34440013  0.63544648  1
  B  B8  1  0.92528023  0.09224658  0.83312063  1
  B  B9  1  0.07471977  0.90775342  0.16687937  1
  B  B10  1  0.75910230  0.59231576  0.16703647  1
  B  B11  1  0.24089770  0.40768424  0.83296353  1
  B  B12  1  0.39800205  0.39576040  0.67641732  1
  B  B13  1  0.60190872  0.27824762  0.99758560  1
  B  B14  1  0.21922647  0.89576014  0.99768186  1
  B  B15  1  0.78051598  0.77816733  0.67617969  1
  B  B16  1  0.60199795  0.60423960  0.32358268  1
  B  B17  1  0.39809128  0.72175238  0.00241440  1
  B  B18  1  0.78077353  0.10423986  0.00231814  1
  B  B19  1  0.21948402  0.22183267  0.32382031  1
  B  B20  1  0.03286480  0.82812522  0.69878236  1
  B  B21  1  0.96697150  0.66591254  0.79543171  1
  B  B22  1  0.62941312  0.32836448  0.79543877  1
  B  B23  1  0.37054862  0.16582034  0.69875740  1
  B  B24  1  0.96713520  0.17187478  0.30121764  1
  B  B25  1  0.03302850  0.33408746  0.20456829  1
  B  B26  1  0.37058688  0.67163552  0.20456123  1
  B  B27  1  0.62945138  0.83417966  0.30124260  1
loop_
_geom_bond_atom_site_label_1
_geom_bond_atom_site_label_2
_geom_bond_distance
_geom_bond_site_symmetry_2
B0 B3 1.728675 1_555
B0 B17 1.783549 1_556
B0 B12 1.784343 1_555
B0 B10 1.830825 1_556
B0 B27 1.836579 1_556
B0 B22 1.837479 1_555
B0 Y1 2.794496 1_555
B1 B2 1.728675 1_555
B1 B13 1.783549 1_554
B1 B16 1.784343 1_555
B1 B11 1.830825 1_554
B1 B23 1.836579 1_554
B1 B26 1.837479 1_555
B1 Y0 2.794496 1_555
B2 B8 1.830851 1_454
B2 B25 1.836281 1_555
B2 B20 1.837720 1_544
B2 Y0 2.794728 1_555
B3 B9 1.830851 1_656
B3 Y1 2.794728 1_555
B4 B8 1.752854 1_555
B4 B7 1.948987 1_555
B4 Be1 1.979045 1_656
B4 Be0 1.980768 1_655
B4 Y0 2.479884 1_555
B5 B9 1.752854 1_555
B5 B6 1.948987 1_555
B5 Be1 1.979045 1_555
B5 Be0 1.980768 1_565
B5 Y1 2.479884 1_555
B6 Be0 1.979729 1_565
B6 Be1 1.980221 1_555
B6 Y1 2.479538 1_555
B7 Be0 1.979729 1_655
B7 Be1 1.980221 1_656
B7 Y0 2.479538 1_555
B8 Be1 2.280467 1_656
B8 Be0 2.281735 1_655
B9 Be1 2.280467 1_555
B9 Be0 2.281735 1_565
B10 B6 1.752928 1_655
B10 B27 1.759720 1_555
B10 B22 1.759777 1_554
B10 B16 1.820143 1_555
B10 B13 1.820790 1_554
B10 Be0 2.280134 1_665
B10 Be1 2.282267 1_655
B11 B7 1.752928 1_455
B11 B23 1.759720 1_555
B11 B26 1.759777 1_556
B11 B12 1.820143 1_555
B11 B17 1.820790 1_556
B11 Be0 2.280134 1_555
B11 Be1 2.282267 1_556
B12 B19 1.779660 1_555
B12 B23 1.791699 1_555
B12 B22 1.810468 1_555
B12 B17 1.881369 1_556
B12 Y1 2.726075 1_555
B12 Y0 2.779978 1_555
B13 B18 1.781556 1_556
B13 B22 1.791544 1_555
B13 B23 1.810049 1_555
B13 B16 1.881369 1_556
B13 Y0 2.724876 1_556
B13 Y1 2.773776 1_545
B14 B17 1.781556 1_556
B14 B2 1.783746 1_566
B14 B21 1.791467 1_455
B14 B20 1.809794 1_555
B14 B9 1.820276 1_556
B14 B19 1.881524 1_566
B14 Y0 2.725170 1_566
B14 Y1 2.775632 1_555
B15 B16 1.779660 1_555
B15 B3 1.784422 1_555
B15 B20 1.792042 1_655
B15 B21 1.810697 1_555
B15 B8 1.821078 1_565
B15 B18 1.881524 1_566
B15 Y1 2.726844 1_555
B15 Y0 2.776677 1_555
B16 B27 1.791699 1_555
B16 B26 1.810468 1_555
B16 Y0 2.726075 1_555
B16 Y1 2.779978 1_555
B17 B26 1.791544 1_555
B17 B27 1.810049 1_555
B17 Y1 2.724876 1_554
B17 Y0 2.773776 1_565
B18 B3 1.783746 1_544
B18 B25 1.791467 1_655
B18 B24 1.809794 1_555
B18 B8 1.820276 1_554
B18 Y1 2.725170 1_544
B18 Y0 2.775632 1_555
B19 B2 1.784422 1_555
B19 B24 1.792042 1_455
B19 B25 1.810697 1_555
B19 B9 1.821078 1_545
B19 Y0 2.726844 1_555
B19 Y1 2.776677 1_555
B20 B8 1.760600 1_465
B20 B6 1.772047 1_555
B20 B21 1.854856 1_455
B20 Be0 2.407544 1_565
B20 Y1 2.740327 1_555
B21 B9 1.759097 1_656
B21 B7 1.771515 1_555
B21 B3 1.836281 1_555
B21 Be1 2.406240 1_656
B21 Y0 2.741404 1_555
B22 B4 1.772314 1_555
B22 B23 1.854754 1_555
B22 Be1 2.406969 1_656
B22 Y0 2.743662 1_555
B23 B5 1.771328 1_545
B23 Be0 2.406731 1_555
B23 Y1 2.739444 1_545
B24 B9 1.760600 1_645
B24 B7 1.772047 1_555
B24 B3 1.837720 1_544
B24 B25 1.854856 1_655
B24 Be0 2.407544 1_655
B24 Y0 2.740327 1_555
B25 B8 1.759097 1_454
B25 B6 1.771515 1_555
B25 Be1 2.406240 1_555
B25 Y1 2.741404 1_555
B26 B5 1.772314 1_555
B26 B27 1.854754 1_555
B26 Be1 2.406969 1_555
B26 Y1 2.743662 1_555
B27 B4 1.771328 1_565
B27 Be0 2.406731 1_665
B27 Y0 2.739444 1_565
