# generated using pymatgen
data_CuSiRhS4
_symmetry_space_group_name_H-M   'P 1'
_cell_length_a   6.86848628
_cell_length_b   6.86848670
_cell_length_c   6.99420669
_cell_angle_alpha   59.39263767
_cell_angle_beta   59.39263563
_cell_angle_gamma   59.65502975
_symmetry_Int_Tables_number   1
_chemical_formula_structural   CuSiRhS4
_chemical_formula_sum   'Cu2 Si2 Rh2 S8'
_cell_volume   230.55423337
_cell_formula_units_Z   2
loop_
 _symmetry_equiv_pos_site_id
 _symmetry_equiv_pos_as_xyz
  1  'x, y, z'
loop_
 _atom_site_type_symbol
 _atom_site_label
 _atom_site_symmetry_multiplicity
 _atom_site_fract_x
 _atom_site_fract_y
 _atom_site_fract_z
 _atom_site_occupancy
  Cu  Cu0  1  0.74527203  0.74527203  0.75472797  1
  Cu  Cu1  1  0.50472797  0.50472797  0.49527203  1
  Si  Si0  1  0.12500000  0.62500000  0.12500000  1
  Si  Si1  1  0.62500000  0.12500000  0.12500000  1
  Rh  Rh0  1  0.12500000  0.12500000  0.62500000  1
  Rh  Rh1  1  0.12500000  0.12500000  0.12500000  1
  S  S0  1  0.87978606  0.34134495  0.88943400  1
  S  S1  1  0.36931116  0.36931116  0.90068417  1
  S  S2  1  0.36931116  0.36931116  0.36069551  1
  S  S3  1  0.90865505  0.37021394  0.36056600  1
  S  S4  1  0.88068884  0.88068884  0.88930449  1
  S  S5  1  0.34134495  0.87978606  0.88943400  1
  S  S6  1  0.37021394  0.90865505  0.36056600  1
  S  S7  1  0.88068884  0.88068884  0.34931583  1
loop_
_geom_bond_atom_site_label_1
_geom_bond_atom_site_label_2
_geom_bond_distance
_geom_bond_site_symmetry_2
Cu0 S5 2.252355 1_555
Cu0 S0 2.252355 1_555
Cu0 S4 2.296359 1_555
Cu0 S7 2.296370 1_555
Cu1 S3 2.252355 1_555
Cu1 S6 2.252355 1_555
Cu1 S2 2.296359 1_555
Cu1 S1 2.296370 1_555
Rh0 S0 2.358648 1_455
Rh0 S6 2.358648 1_545
Rh0 S5 2.358648 1_545
Rh0 S3 2.358648 1_455
Rh0 S2 2.361468 1_555
Rh0 S4 2.361468 1_445
Rh1 S6 2.358653 1_545
Rh1 S0 2.358653 1_454
Rh1 S3 2.358654 1_455
Rh1 S5 2.358654 1_544
Rh1 S7 2.361469 1_445
Rh1 S1 2.361469 1_554
S0 Si1 2.276729 1_556
S1 Si1 2.347071 1_556
S1 Si0 2.347071 1_556
S2 Si1 2.347080 1_555
S2 Si0 2.347080 1_555
S3 Si0 2.276729 1_655
S4 Si1 2.347080 1_566
S4 Si0 2.347080 1_656
S5 Si0 2.276729 1_556
S6 Si1 2.276729 1_565
S7 Si1 2.347071 1_565
S7 Si0 2.347071 1_655
