# generated using pymatgen
data_MgTcCl6
_symmetry_space_group_name_H-M   'P 1'
_cell_length_a   6.21458805
_cell_length_b   6.21458669
_cell_length_c   6.33700022
_cell_angle_alpha   80.72824308
_cell_angle_beta   80.72824694
_cell_angle_gamma   119.97633872
_symmetry_Int_Tables_number   1
_chemical_formula_structural   MgTcCl6
_chemical_formula_sum   'Mg1 Tc1 Cl6'
_cell_volume   200.70324112
_cell_formula_units_Z   1
loop_
 _symmetry_equiv_pos_site_id
 _symmetry_equiv_pos_as_xyz
  1  'x, y, z'
loop_
 _atom_site_type_symbol
 _atom_site_label
 _atom_site_symmetry_multiplicity
 _atom_site_fract_x
 _atom_site_fract_y
 _atom_site_fract_z
 _atom_site_occupancy
  Mg  Mg0  1  0.16647836  0.83352164  0.00000000  1
  Tc  Tc0  1  0.83346561  0.16653439  1.00000000  1
  Cl  Cl0  1  0.44136094  0.07793560  0.22902130  1
  Cl  Cl1  1  0.92206440  0.55863906  0.77097870  1
  Cl  Cl2  1  0.21107691  0.22750597  0.77043822  1
  Cl  Cl3  1  0.77249403  0.78892309  0.22956178  1
  Cl  Cl4  1  0.06230023  0.40924048  0.22724137  1
  Cl  Cl5  1  0.59075952  0.93769977  0.77275863  1
loop_
_geom_bond_atom_site_label_1
_geom_bond_atom_site_label_2
_geom_bond_distance
_geom_bond_site_symmetry_2
Cl0 Tc0 2.368435 1_554
Cl0 Mg0 2.499603 1_545
Cl1 Tc0 2.368435 1_555
Cl1 Mg0 2.499602 1_656
Cl2 Tc0 2.366556 1_455
Cl2 Mg0 2.496431 1_546
Cl3 Tc0 2.366555 1_564
Cl3 Mg0 2.496432 1_655
Cl4 Tc0 2.363778 1_454
Cl4 Mg0 2.493070 1_555
Cl5 Tc0 2.363778 1_565
Cl5 Mg0 2.493070 1_556
