# generated using pymatgen
data_Ta6Be15(Co3Cu)2
_symmetry_space_group_name_H-M   'P 1'
_cell_length_a   7.53136853
_cell_length_b   7.53554885
_cell_length_c   7.53554706
_cell_angle_alpha   60.00000350
_cell_angle_beta   59.98164078
_cell_angle_gamma   59.98164774
_symmetry_Int_Tables_number   1
_chemical_formula_structural   Ta6Be15(Co3Cu)2
_chemical_formula_sum   'Ta6 Be15 Co6 Cu2'
_cell_volume   302.32080798
_cell_formula_units_Z   1
loop_
 _symmetry_equiv_pos_site_id
 _symmetry_equiv_pos_as_xyz
  1  'x, y, z'
loop_
 _atom_site_type_symbol
 _atom_site_label
 _atom_site_symmetry_multiplicity
 _atom_site_fract_x
 _atom_site_fract_y
 _atom_site_fract_z
 _atom_site_occupancy
  Ta  Ta0  1  0.71732878  0.29294450  0.29294450  1
  Ta  Ta1  1  0.28267122  0.70705550  0.70705550  1
  Ta  Ta2  1  0.28267122  0.70705550  0.30321877  1
  Ta  Ta3  1  0.71732878  0.29294450  0.69678123  1
  Ta  Ta4  1  0.28267122  0.30321877  0.70705550  1
  Ta  Ta5  1  0.71732878  0.69678123  0.29294450  1
  Be  Be0  1  0.32282348  0.32925266  0.32925266  1
  Be  Be1  1  0.67717652  0.67074734  0.67074734  1
  Be  Be2  1  0.32282348  0.32925266  0.01866919  1
  Be  Be3  1  0.32282348  0.01866919  0.32925266  1
  Be  Be4  1  0.67717652  0.67074734  0.98133081  1
  Be  Be5  1  0.67717652  0.98133081  0.67074734  1
  Be  Be6  1  0.02818912  0.32393596  0.32393596  1
  Be  Be7  1  0.97181088  0.67606404  0.67606404  1
  Be  Be8  1  0.50000000  0.00000000  0.00000000  1
  Be  Be9  1  0.00000000  0.50000000  0.50000000  1
  Be  Be10  1  0.00000000  0.50000000  0.00000000  1
  Be  Be11  1  0.50000000  0.00000000  0.50000000  1
  Be  Be12  1  0.00000000  0.00000000  0.50000000  1
  Be  Be13  1  0.50000000  0.50000000  0.00000000  1
  Be  Be14  1  0.00000000  0.00000000  0.00000000  1
  Co  Co0  1  0.12520336  0.12082248  0.12082248  1
  Co  Co1  1  0.87479664  0.87917852  0.87917752  1
  Co  Co2  1  0.12520336  0.12082248  0.63315267  1
  Co  Co3  1  0.12520336  0.63315267  0.12082148  1
  Co  Co4  1  0.87479664  0.87917852  0.36684733  1
  Co  Co5  1  0.87479664  0.36684733  0.87917752  1
  Cu  Cu0  1  0.63211397  0.12262868  0.12262868  1
  Cu  Cu1  1  0.36788603  0.87737132  0.87737132  1
loop_
_geom_bond_atom_site_label_1
_geom_bond_atom_site_label_2
_geom_bond_distance
_geom_bond_site_symmetry_2
Ta0 Ta3 3.043131 1_555
Ta0 Ta5 3.043131 1_555
Ta0 Ta4 3.197982 1_555
Ta0 Ta2 3.197983 1_555
Ta1 Ta2 3.043131 1_555
Ta1 Ta4 3.043131 1_555
Ta1 Ta5 3.197982 1_555
Ta1 Ta3 3.197983 1_555
Ta2 Ta4 3.043131 1_555
Ta2 Ta5 3.197975 1_555
Ta3 Ta5 3.043131 1_555
Ta3 Ta4 3.197975 1_555
Be0 Be9 2.148899 1_555
Be0 Be13 2.192006 1_555
Be0 Be11 2.192006 1_555
Be0 Be6 2.259796 1_555
Be0 Co2 2.293087 1_555
Be0 Co3 2.293091 1_555
Be0 Cu0 2.332630 1_555
Be0 Be2 2.340416 1_555
Be0 Be3 2.340417 1_555
Be0 Ta4 2.621928 1_555
Be0 Ta2 2.621929 1_555
Be0 Ta0 2.725006 1_555
Be1 Be9 2.148899 1_655
Be1 Be13 2.192006 1_556
Be1 Be11 2.192006 1_565
Be1 Be7 2.259796 1_555
Be1 Co5 2.293087 1_555
Be1 Co4 2.293091 1_555
Be1 Cu1 2.332630 1_555
Be1 Be4 2.340416 1_555
Be1 Be5 2.340417 1_555
Be1 Ta5 2.621928 1_555
Be1 Ta3 2.621929 1_555
Be1 Ta1 2.725006 1_555
Be2 Be8 2.192001 1_555
Be2 Be6 2.259792 1_555
Be2 Co0 2.293079 1_555
Be2 Co3 2.293095 1_555
Be2 Cu0 2.332637 1_555
Be2 Be3 2.340417 1_555
Be2 Ta4 2.621906 1_554
Be2 Ta1 2.621920 1_554
Be2 Ta3 2.725003 1_554
Be3 Be8 2.192001 1_555
Be3 Be6 2.259793 1_555
Be3 Co0 2.293079 1_555
Be3 Co2 2.293098 1_555
Be3 Cu0 2.332637 1_555
Be3 Ta2 2.621906 1_545
Be3 Ta1 2.621919 1_545
Be3 Ta5 2.725004 1_545
Be4 Be8 2.192001 1_566
Be4 Be7 2.259792 1_555
Be4 Co1 2.293086 1_555
Be4 Co5 2.293099 1_555
Be4 Cu1 2.332637 1_555
Be4 Be5 2.340417 1_555
Be4 Ta5 2.621906 1_556
Be4 Ta0 2.621920 1_556
Be4 Ta2 2.725003 1_556
Be5 Be8 2.192001 1_566
Be5 Be7 2.259793 1_555
Be5 Co1 2.293082 1_555
Be5 Co4 2.293094 1_555
Be5 Cu1 2.332637 1_555
Be5 Ta3 2.621906 1_565
Be5 Ta0 2.621919 1_565
Be5 Ta4 2.725004 1_565
Be6 Be9 2.182230 1_555
Be6 Co0 2.307364 1_555
Be6 Co2 2.307389 1_555
Be6 Co3 2.307390 1_555
Be6 Ta0 2.595955 1_455
Be6 Ta3 2.595963 1_455
Be6 Ta5 2.595964 1_455
Be7 Be9 2.182230 1_655
Be7 Co1 2.307371 1_555
Be7 Co4 2.307389 1_555
Be7 Co5 2.307390 1_555
Be7 Ta1 2.595955 1_655
Be7 Ta2 2.595963 1_655
Be7 Ta4 2.595964 1_655
Be8 Co0 2.304735 1_555
Be8 Co1 2.304735 1_544
Be8 Cu0 2.322001 1_555
Be8 Cu1 2.322001 1_544
Be8 Ta5 2.757211 1_545
Be8 Ta4 2.757211 1_554
Be8 Ta3 2.757211 1_554
Be8 Ta2 2.757211 1_545
Be9 Co5 2.333248 1_455
Be9 Co2 2.333249 1_555
Be9 Co3 2.333254 1_555
Be9 Co4 2.333255 1_455
Be9 Ta4 2.648923 1_555
Be9 Ta5 2.648923 1_455
Be9 Ta2 2.648923 1_555
Be9 Ta3 2.648923 1_455
Be10 Be2 2.148894 1_555
Be10 Be4 2.148894 1_454
Be10 Be6 2.182211 1_555
Be10 Be7 2.182211 1_454
Be10 Co3 2.333248 1_555
Be10 Co0 2.333248 1_555
Be10 Co5 2.333254 1_454
Be10 Co1 2.333255 1_454
Be10 Ta5 2.648918 1_455
Be10 Ta4 2.648918 1_554
Be10 Ta1 2.648922 1_554
Be10 Ta0 2.648922 1_455
Be11 Be5 2.192014 1_545
Be11 Be3 2.192014 1_555
Be11 Co4 2.304735 1_545
Be11 Co2 2.304735 1_555
Be11 Cu1 2.322001 1_545
Be11 Cu0 2.322001 1_555
Be11 Ta0 2.757210 1_555
Be11 Ta1 2.757210 1_545
Be11 Ta4 2.757216 1_555
Be11 Ta5 2.757216 1_545
Be12 Be3 2.148893 1_555
Be12 Be5 2.148893 1_445
Be12 Be6 2.182211 1_555
Be12 Be7 2.182211 1_445
Be12 Co0 2.333248 1_555
Be12 Co1 2.333248 1_445
Be12 Co4 2.333248 1_445
Be12 Co2 2.333254 1_555
Be12 Ta3 2.648918 1_455
Be12 Ta2 2.648918 1_545
Be12 Ta1 2.648922 1_545
Be12 Ta0 2.648922 1_455
Be13 Be4 2.192014 1_554
Be13 Be2 2.192014 1_555
Be13 Co5 2.304735 1_554
Be13 Co3 2.304735 1_555
Be13 Cu1 2.322002 1_554
Be13 Cu0 2.322002 1_555
Be13 Ta0 2.757210 1_555
Be13 Ta1 2.757210 1_554
Be13 Ta2 2.757216 1_555
Be13 Ta3 2.757216 1_554
Be14 Co4 2.256981 1_445
Be14 Co2 2.256981 1_554
Be14 Co1 2.256981 1_444
Be14 Co5 2.256982 1_454
Be14 Co3 2.256982 1_545
Be14 Co0 2.256987 1_555
Be14 Cu1 2.261627 1_544
Be14 Cu0 2.261627 1_455
Co0 Ta0 2.551501 1_455
Co0 Ta4 2.581265 1_554
Co0 Ta2 2.581265 1_545
Co0 Cu1 2.593720 1_544
Co0 Co4 2.621316 1_445
Co0 Co5 2.621321 1_454
Co1 Ta1 2.551502 1_655
Co1 Ta3 2.581260 1_565
Co1 Ta5 2.581266 1_556
Co1 Cu0 2.593715 1_566
Co1 Co3 2.621316 1_656
Co1 Co2 2.621316 1_665
Co2 Ta3 2.551504 1_455
Co2 Ta4 2.581265 1_555
Co2 Ta1 2.581265 1_545
Co2 Cu1 2.593715 1_545
Co2 Co5 2.621311 1_455
Co3 Ta5 2.551503 1_455
Co3 Ta1 2.581258 1_554
Co3 Ta2 2.581271 1_555
Co3 Cu1 2.593715 1_554
Co3 Co4 2.621321 1_455
Co4 Ta2 2.551504 1_655
Co4 Ta0 2.581259 1_565
Co4 Ta5 2.581272 1_555
Co4 Cu0 2.593715 1_565
Co5 Ta4 2.551503 1_655
Co5 Ta0 2.581265 1_556
Co5 Ta3 2.581265 1_555
Co5 Cu0 2.593715 1_556
Cu0 Ta0 2.646070 1_555
Cu0 Ta3 2.646076 1_554
Cu0 Ta5 2.646077 1_545
Cu1 Ta1 2.646070 1_555
Cu1 Ta2 2.646076 1_556
Cu1 Ta4 2.646077 1_565
