# generated using pymatgen
data_Hf2Au
_symmetry_space_group_name_H-M   'P 1'
_cell_length_a   6.44832024
_cell_length_b   6.44831963
_cell_length_c   12.50167834
_cell_angle_alpha   104.94537935
_cell_angle_beta   104.94537846
_cell_angle_gamma   90.00001646
_symmetry_Int_Tables_number   1
_chemical_formula_structural   Hf2Au
_chemical_formula_sum   'Hf16 Au8'
_cell_volume   484.02220966
_cell_formula_units_Z   8
loop_
 _symmetry_equiv_pos_site_id
 _symmetry_equiv_pos_as_xyz
  1  'x, y, z'
loop_
 _atom_site_type_symbol
 _atom_site_label
 _atom_site_symmetry_multiplicity
 _atom_site_fract_x
 _atom_site_fract_y
 _atom_site_fract_z
 _atom_site_occupancy
  Hf  Hf0_0  1  0.33095171  0.33095171  0.16190392  1
  Hf  Hf0_1  1  0.33095171  0.33095171  0.66190392  1
  Hf  Hf0_2  1  0.33095171  0.83095171  0.16190392  1
  Hf  Hf0_3  1  0.33095171  0.83095171  0.66190392  1
  Hf  Hf0_4  1  0.83095171  0.33095171  0.16190392  1
  Hf  Hf0_5  1  0.83095171  0.33095171  0.66190392  1
  Hf  Hf0_6  1  0.83095171  0.83095171  0.16190392  1
  Hf  Hf0_7  1  0.83095171  0.83095171  0.66190392  1
  Hf  Hf1_0  1  0.16904829  0.16904829  0.33809608  1
  Hf  Hf1_1  1  0.16904829  0.16904829  0.83809608  1
  Hf  Hf1_2  1  0.16904829  0.66904829  0.33809608  1
  Hf  Hf1_3  1  0.16904829  0.66904829  0.83809608  1
  Hf  Hf1_4  1  0.66904829  0.16904829  0.33809608  1
  Hf  Hf1_5  1  0.66904829  0.16904829  0.83809608  1
  Hf  Hf1_6  1  0.66904829  0.66904829  0.33809608  1
  Hf  Hf1_7  1  0.66904829  0.66904829  0.83809608  1
  Au  Au0_0  1  0.00000000  0.00000000  0.00000000  1
  Au  Au0_1  1  0.00000000  0.00000000  0.50000000  1
  Au  Au0_2  1  0.00000000  0.50000000  0.00000000  1
  Au  Au0_3  1  0.00000000  0.50000000  0.50000000  1
  Au  Au0_4  1  0.50000000  0.00000000  0.00000000  1
  Au  Au0_5  1  0.50000000  0.00000000  0.50000000  1
  Au  Au0_6  1  0.50000000  0.50000000  0.00000000  1
  Au  Au0_7  1  0.50000000  0.50000000  0.50000000  1
loop_
_geom_bond_atom_site_label_1
_geom_bond_atom_site_label_2
_geom_bond_distance
_geom_bond_site_symmetry_2
Hf0_0 Hf1_0 3.066602 1_555
Hf0_0 Hf1_2 3.066606 1_555
Hf0_0 Hf1_4 3.066606 1_555
Hf0_0 Hf1_6 3.066609 1_555
Hf0_0 Hf0_2 3.224160 1_555
Hf0_0 Hf0_2 3.224160 1_545
Hf0_0 Hf0_4 3.224160 1_455
Hf0_0 Hf0_4 3.224160 1_555
Hf0_1 Hf1_1 3.066602 1_555
Hf0_1 Hf1_3 3.066606 1_555
Hf0_1 Hf1_5 3.066606 1_555
Hf0_1 Hf1_7 3.066609 1_555
Hf0_1 Hf0_3 3.224160 1_555
Hf0_1 Hf0_3 3.224160 1_545
Hf0_1 Hf0_5 3.224160 1_455
Hf0_1 Hf0_5 3.224160 1_555
Hf0_2 Hf1_2 3.066602 1_555
Hf0_2 Hf1_0 3.066606 1_565
Hf0_2 Hf1_6 3.066606 1_555
Hf0_2 Hf1_4 3.066609 1_565
Hf0_2 Hf0_6 3.224160 1_455
Hf0_2 Hf0_6 3.224160 1_555
Hf0_3 Hf1_3 3.066602 1_555
Hf0_3 Hf1_1 3.066606 1_565
Hf0_3 Hf1_7 3.066606 1_555
Hf0_3 Hf1_5 3.066609 1_565
Hf0_3 Hf0_7 3.224160 1_455
Hf0_3 Hf0_7 3.224160 1_555
Hf0_4 Hf1_4 3.066602 1_555
Hf0_4 Hf1_6 3.066606 1_555
Hf0_4 Hf1_0 3.066606 1_655
Hf0_4 Hf1_2 3.066609 1_655
Hf0_4 Hf0_6 3.224160 1_545
Hf0_4 Hf0_6 3.224160 1_555
Hf0_5 Hf1_5 3.066602 1_555
Hf0_5 Hf1_7 3.066606 1_555
Hf0_5 Hf1_1 3.066606 1_655
Hf0_5 Hf1_3 3.066609 1_655
Hf0_5 Hf0_7 3.224160 1_545
Hf0_5 Hf0_7 3.224160 1_555
Hf0_6 Hf1_6 3.066602 1_555
Hf0_6 Hf1_4 3.066606 1_565
Hf0_6 Hf1_2 3.066606 1_655
Hf0_6 Hf1_0 3.066609 1_665
Hf0_7 Hf1_7 3.066602 1_555
Hf0_7 Hf1_5 3.066606 1_565
Hf0_7 Hf1_3 3.066606 1_655
Hf0_7 Hf1_1 3.066609 1_665
Hf1_0 Hf1_2 3.224160 1_555
Hf1_0 Hf1_2 3.224160 1_545
Hf1_0 Hf1_4 3.224160 1_455
Hf1_0 Hf1_4 3.224160 1_555
Hf1_1 Hf1_3 3.224160 1_545
Hf1_1 Hf1_3 3.224160 1_555
Hf1_1 Hf1_5 3.224160 1_455
Hf1_1 Hf1_5 3.224160 1_555
Hf1_2 Hf1_6 3.224160 1_455
Hf1_2 Hf1_6 3.224160 1_555
Hf1_3 Hf1_7 3.224160 1_555
Hf1_3 Hf1_7 3.224160 1_455
Hf1_4 Hf1_6 3.224160 1_555
Hf1_4 Hf1_6 3.224160 1_545
Hf1_5 Hf1_7 3.224160 1_545
Hf1_5 Hf1_7 3.224160 1_555
Au0_0 Hf0_0 2.957952 1_555
Au0_0 Hf1_7 2.957952 1_444
Au0_0 Hf0_4 2.957954 1_455
Au0_0 Hf1_3 2.957954 1_544
Au0_0 Hf0_2 2.957954 1_545
Au0_0 Hf1_5 2.957954 1_454
Au0_0 Hf0_6 2.957955 1_445
Au0_0 Hf1_1 2.957955 1_554
Au0_0 Au0_2 3.224160 1_555
Au0_0 Au0_2 3.224160 1_545
Au0_0 Au0_4 3.224160 1_455
Au0_0 Au0_4 3.224160 1_555
Au0_1 Hf1_6 2.957952 1_445
Au0_1 Hf0_1 2.957952 1_555
Au0_1 Hf0_5 2.957954 1_455
Au0_1 Hf1_2 2.957954 1_545
Au0_1 Hf0_3 2.957954 1_545
Au0_1 Hf1_4 2.957954 1_455
Au0_1 Hf0_7 2.957955 1_445
Au0_1 Hf1_0 2.957955 1_555
Au0_1 Au0_3 3.224160 1_555
Au0_1 Au0_3 3.224160 1_545
Au0_1 Au0_5 3.224160 1_455
Au0_1 Au0_5 3.224160 1_555
Au0_2 Hf0_2 2.957952 1_555
Au0_2 Hf1_5 2.957952 1_454
Au0_2 Hf0_6 2.957954 1_455
Au0_2 Hf1_1 2.957954 1_554
Au0_2 Hf0_0 2.957954 1_555
Au0_2 Hf1_7 2.957954 1_454
Au0_2 Hf0_4 2.957955 1_455
Au0_2 Hf1_3 2.957955 1_554
Au0_2 Au0_6 3.224160 1_455
Au0_2 Au0_6 3.224160 1_555
Au0_3 Hf0_3 2.957952 1_555
Au0_3 Hf1_4 2.957952 1_455
Au0_3 Hf0_7 2.957954 1_455
Au0_3 Hf1_0 2.957954 1_555
Au0_3 Hf1_6 2.957954 1_455
Au0_3 Hf0_1 2.957954 1_555
Au0_3 Hf1_2 2.957955 1_555
Au0_3 Hf0_5 2.957955 1_455
Au0_3 Au0_7 3.224160 1_455
Au0_3 Au0_7 3.224160 1_555
Au0_4 Hf0_4 2.957952 1_555
Au0_4 Hf1_3 2.957952 1_544
Au0_4 Hf0_0 2.957954 1_555
Au0_4 Hf1_7 2.957954 1_544
Au0_4 Hf0_6 2.957954 1_545
Au0_4 Hf1_1 2.957954 1_554
Au0_4 Hf0_2 2.957955 1_545
Au0_4 Hf1_5 2.957955 1_554
Au0_4 Au0_6 3.224160 1_555
Au0_4 Au0_6 3.224160 1_545
Au0_5 Hf0_5 2.957952 1_555
Au0_5 Hf1_2 2.957952 1_545
Au0_5 Hf1_6 2.957954 1_545
Au0_5 Hf0_1 2.957954 1_555
Au0_5 Hf0_7 2.957954 1_545
Au0_5 Hf1_0 2.957954 1_555
Au0_5 Hf0_3 2.957955 1_545
Au0_5 Hf1_4 2.957955 1_555
Au0_5 Au0_7 3.224160 1_555
Au0_5 Au0_7 3.224160 1_545
Au0_6 Hf0_6 2.957952 1_555
Au0_6 Hf1_1 2.957952 1_554
Au0_6 Hf0_2 2.957954 1_555
Au0_6 Hf1_5 2.957954 1_554
Au0_6 Hf0_4 2.957954 1_555
Au0_6 Hf1_3 2.957954 1_554
Au0_6 Hf0_0 2.957955 1_555
Au0_6 Hf1_7 2.957955 1_554
Au0_7 Hf1_0 2.957952 1_555
Au0_7 Hf0_7 2.957952 1_555
Au0_7 Hf1_4 2.957954 1_555
Au0_7 Hf0_3 2.957954 1_555
Au0_7 Hf1_2 2.957954 1_555
Au0_7 Hf0_5 2.957954 1_555
Au0_7 Hf1_6 2.957955 1_555
Au0_7 Hf0_1 2.957955 1_555
