# generated using pymatgen
data_Na4Si2PbS6
_symmetry_space_group_name_H-M   'P 1'
_cell_length_a   6.74396133
_cell_length_b   6.74396124
_cell_length_c   7.62733687
_cell_angle_alpha   81.42159501
_cell_angle_beta   81.42159752
_cell_angle_gamma   119.83225204
_symmetry_Int_Tables_number   1
_chemical_formula_structural   Na4Si2PbS6
_chemical_formula_sum   'Na4 Si2 Pb1 S6'
_cell_volume   287.29765976
_cell_formula_units_Z   1
loop_
 _symmetry_equiv_pos_site_id
 _symmetry_equiv_pos_as_xyz
  1  'x, y, z'
loop_
 _atom_site_type_symbol
 _atom_site_label
 _atom_site_symmetry_multiplicity
 _atom_site_fract_x
 _atom_site_fract_y
 _atom_site_fract_z
 _atom_site_occupancy
  Na  Na0  1  0.49825652  0.50174348  0.00000000  1
  Na  Na1  1  0.82260177  0.17739823  0.00000000  1
  Na  Na2  1  0.17793145  0.82206855  1.00000000  1
  Na  Na3  1  0.66546091  0.33453909  0.50000000  1
  Si  Si0  1  0.05181467  0.05118886  0.34059228  1
  Si  Si1  1  0.94881114  0.94818533  0.65940772  1
  Pb  Pb0  1  0.33507927  0.66492073  0.50000000  1
  S  S0  1  0.78383813  0.77976243  0.25027414  1
  S  S1  1  0.22023757  0.21616187  0.74972586  1
  S  S2  1  0.07813418  0.38215530  0.25093550  1
  S  S3  1  0.38663596  0.08664526  0.24949143  1
  S  S4  1  0.91335474  0.61336404  0.75050857  1
  S  S5  1  0.61784470  0.92186582  0.74906450  1
loop_
_geom_bond_atom_site_label_1
_geom_bond_atom_site_label_2
_geom_bond_distance
_geom_bond_site_symmetry_2
Na0 S3 2.812722 1_555
Na0 S4 2.812722 1_554
Na0 S5 2.826576 1_554
Na0 S2 2.826576 1_555
Na0 S0 3.072543 1_555
Na0 S1 3.072543 1_554
Na1 S2 2.818637 1_655
Na1 S5 2.818637 1_544
Na1 S0 2.920623 1_545
Na1 S1 2.920623 1_654
Na1 S4 2.972092 1_554
Na1 S3 2.972092 1_555
Na2 S4 2.845932 1_455
Na2 S3 2.845932 1_566
Na2 S1 2.891121 1_565
Na2 S0 2.891121 1_456
Na2 S2 2.975408 1_556
Na2 S5 2.975408 1_555
Na3 S0 2.955693 1_555
Na3 S1 2.955693 1_555
Na3 S5 2.967991 1_545
Na3 S2 2.967991 1_655
Na3 S3 2.979712 1_555
Na3 S4 2.979712 1_555
Pb0 S1 2.982487 1_555
Pb0 S0 2.982487 1_555
Pb0 S5 3.003856 1_555
Pb0 S2 3.003856 1_555
Pb0 S3 3.009545 1_565
Pb0 S4 3.009545 1_455
S0 Si0 2.132509 1_665
S1 Si1 2.132509 1_445
S2 Si0 2.143677 1_555
S3 Si0 2.140989 1_555
S4 Si1 2.140989 1_555
S5 Si1 2.143677 1_555
