# generated using pymatgen
data_Cs4MoIrBr12
_symmetry_space_group_name_H-M   'P 1'
_cell_length_a   7.54985379
_cell_length_b   7.54985379
_cell_length_c   11.02761208
_cell_angle_alpha   90.00000000
_cell_angle_beta   90.00000000
_cell_angle_gamma   90.00000000
_symmetry_Int_Tables_number   1
_chemical_formula_structural   Cs4MoIrBr12
_chemical_formula_sum   'Cs4 Mo1 Ir1 Br12'
_cell_volume   628.57711094
_cell_formula_units_Z   1
loop_
 _symmetry_equiv_pos_site_id
 _symmetry_equiv_pos_as_xyz
  1  'x, y, z'
loop_
 _atom_site_type_symbol
 _atom_site_label
 _atom_site_symmetry_multiplicity
 _atom_site_fract_x
 _atom_site_fract_y
 _atom_site_fract_z
 _atom_site_occupancy
  Cs  Cs0  1  0.50000000  0.00000000  0.75711351  1
  Cs  Cs1  1  0.00000000  0.50000000  0.24288649  1
  Cs  Cs2  1  0.50000000  0.00000000  0.24288649  1
  Cs  Cs3  1  0.00000000  0.50000000  0.75711351  1
  Mo  Mo0  1  0.50000000  0.50000000  0.50000000  1
  Ir  Ir0  1  0.00000000  0.00000000  0.00000000  1
  Br  Br0  1  0.00000000  0.00000000  0.77202761  1
  Br  Br1  1  0.50000000  0.50000000  0.26642600  1
  Br  Br2  1  0.73690967  0.73690967  0.50000000  1
  Br  Br3  1  0.23321942  0.23321942  0.00000000  1
  Br  Br4  1  0.73690967  0.26309033  0.50000000  1
  Br  Br5  1  0.23321942  0.76678058  0.00000000  1
  Br  Br6  1  0.00000000  0.00000000  0.22797239  1
  Br  Br7  1  0.50000000  0.50000000  0.73357400  1
  Br  Br8  1  0.26309033  0.26309033  0.50000000  1
  Br  Br9  1  0.76678058  0.76678058  0.00000000  1
  Br  Br10  1  0.26309033  0.73690967  0.50000000  1
  Br  Br11  1  0.76678058  0.23321942  0.00000000  1
loop_
_geom_bond_atom_site_label_1
_geom_bond_atom_site_label_2
_geom_bond_distance
_geom_bond_site_symmetry_2
Br0 Ir0 2.513991 1_556
Br0 Cs0 3.778508 1_555
Br0 Cs0 3.778508 1_455
Br0 Cs3 3.778508 1_545
Br0 Cs3 3.778508 1_555
Br1 Mo0 2.575763 1_555
Br1 Cs1 3.783842 1_555
Br1 Cs2 3.783842 1_565
Br1 Cs2 3.783842 1_555
Br1 Cs1 3.783842 1_655
Br2 Mo0 2.529510 1_555
Br2 Cs2 3.896636 1_565
Br2 Cs1 3.896636 1_655
Br2 Cs3 3.896636 1_655
Br2 Cs0 3.896636 1_565
Br3 Ir0 2.490108 1_555
Br3 Cs0 3.785667 1_554
Br3 Cs3 3.785667 1_554
Br3 Cs2 3.785667 1_555
Br3 Cs1 3.785667 1_555
Br4 Mo0 2.529510 1_555
Br4 Cs2 3.896636 1_555
Br4 Cs1 3.896636 1_655
Br4 Cs0 3.896636 1_555
Br4 Cs3 3.896636 1_655
Br5 Ir0 2.490108 1_565
Br5 Cs0 3.785667 1_564
Br5 Cs3 3.785667 1_554
Br5 Cs2 3.785667 1_565
Br5 Cs1 3.785667 1_555
Br6 Ir0 2.513991 1_555
Br6 Cs2 3.778508 1_555
Br6 Cs1 3.778508 1_555
Br6 Cs1 3.778508 1_545
Br6 Cs2 3.778508 1_455
Br7 Mo0 2.575763 1_555
Br7 Cs3 3.783842 1_555
Br7 Cs0 3.783842 1_565
Br7 Cs3 3.783842 1_655
Br7 Cs0 3.783842 1_555
Br8 Mo0 2.529510 1_555
Br8 Cs2 3.896636 1_555
Br8 Cs1 3.896636 1_555
Br8 Cs0 3.896636 1_555
Br8 Cs3 3.896636 1_555
Br9 Ir0 2.490108 1_665
Br9 Cs0 3.785667 1_564
Br9 Cs3 3.785667 1_654
Br9 Cs2 3.785667 1_565
Br9 Cs1 3.785667 1_655
Br10 Mo0 2.529510 1_555
Br10 Cs1 3.896636 1_555
Br10 Cs2 3.896636 1_565
Br10 Cs3 3.896636 1_555
Br10 Cs0 3.896636 1_565
Br11 Ir0 2.490108 1_655
Br11 Cs3 3.785667 1_654
Br11 Cs0 3.785667 1_554
Br11 Cs1 3.785667 1_655
Br11 Cs2 3.785667 1_555
