# generated using pymatgen
data_Ta7(TiSi2)3
_symmetry_space_group_name_H-M   'P 1'
_cell_length_a   7.49928000
_cell_length_b   7.48476103
_cell_length_c   7.49547332
_cell_angle_alpha   128.76265835
_cell_angle_beta   128.81580904
_cell_angle_gamma   75.31575136
_symmetry_Int_Tables_number   1
_chemical_formula_structural   Ta7(TiSi2)3
_chemical_formula_sum   'Ta7 Ti3 Si6'
_cell_volume   248.83542641
_cell_formula_units_Z   1
loop_
 _symmetry_equiv_pos_site_id
 _symmetry_equiv_pos_as_xyz
  1  'x, y, z'
loop_
 _atom_site_type_symbol
 _atom_site_label
 _atom_site_symmetry_multiplicity
 _atom_site_fract_x
 _atom_site_fract_y
 _atom_site_fract_z
 _atom_site_occupancy
  Ta  Ta0  1  0.68541383  0.51587453  0.50000000  1
  Ta  Ta1  1  0.51644694  0.01613611  0.83058646  1
  Ta  Ta2  1  0.18586048  0.68554964  0.16941354  1
  Ta  Ta3  1  0.98463909  0.81441382  0.50000000  1
  Ta  Ta4  1  0.31512868  0.48304573  0.50000000  1
  Ta  Ta5  1  0.48253817  0.98423838  0.16845275  1
  Ta  Ta6  1  0.81408442  0.31578563  0.83154725  1
  Ti  Ti0  1  0.01579256  0.18543718  0.50000000  1
  Ti  Ti1  1  0.00066983  0.99945626  0.99910424  1
  Ti  Ti2  1  0.50156460  0.50035203  0.00089576  1
  Si  Si0  1  0.75168278  0.75374134  0.00365264  1
  Si  Si1  1  0.24803115  0.25008871  0.99634736  1
  Si  Si2  1  0.36540547  0.13115042  0.50000000  1
  Si  Si3  1  0.63154423  0.86986115  0.50000000  1
  Si  Si4  1  0.87042746  0.36726262  0.23965716  1
  Si  Si5  1  0.13077030  0.62760646  0.76034284  1
loop_
_geom_bond_atom_site_label_1
_geom_bond_atom_site_label_2
_geom_bond_distance
_geom_bond_site_symmetry_2
Si0 Ti0 2.675548 1_665
Si0 Ta1 2.686408 1_564
Si0 Ta3 2.690348 1_555
Si0 Ta5 2.695887 1_555
Si0 Ta2 2.699233 1_655
Si0 Ta6 2.704141 1_554
Si0 Ta0 2.710845 1_554
Si0 Ta4 2.714022 1_554
Si0 Ti1 2.961311 1_654
Si0 Ti2 2.970102 1_555
Si1 Ti0 2.675547 1_555
Si1 Ta2 2.686409 1_556
Si1 Ta3 2.690350 1_445
Si1 Ta6 2.695900 1_455
Si1 Ta1 2.699227 1_555
Si1 Ta5 2.704141 1_546
Si1 Ta0 2.710841 1_556
Si1 Ta4 2.714026 1_556
Si1 Ti2 2.961299 1_556
Si1 Ti1 2.970102 1_545
Si2 Si3 2.414382 1_545
Si2 Ti1 2.531379 1_544
Si2 Ti2 2.531381 1_556
Si2 Ti0 2.549328 1_555
Si2 Ta4 2.564346 1_555
Si2 Ta1 2.611930 1_555
Si2 Ta2 2.611930 1_545
Si2 Ta6 2.642270 1_555
Si2 Ta5 2.642276 1_545
Si3 Ti2 2.536513 1_555
Si3 Ti1 2.536515 1_655
Si3 Ta3 2.574252 1_555
Si3 Ta0 2.576903 1_555
Si3 Ta6 2.618204 1_565
Si3 Ta5 2.618206 1_555
Si3 Ta2 2.624651 1_555
Si3 Ta1 2.624651 1_565
Si4 Si5 2.386230 1_655
Si4 Ti1 2.532338 1_644
Si4 Ti2 2.544830 1_555
Si4 Ta1 2.568630 1_554
Si4 Ta6 2.582765 1_554
Si4 Ti0 2.599013 1_655
Si4 Ta0 2.619937 1_555
Si4 Ta4 2.621073 1_655
Si4 Ta3 2.631108 1_555
Si5 Ti2 2.532338 1_556
Si5 Ti1 2.544822 1_555
Si5 Ta2 2.568634 1_556
Si5 Ta5 2.582765 1_556
Si5 Ti0 2.599020 1_555
Si5 Ta0 2.619938 1_455
Si5 Ta4 2.621072 1_555
Si5 Ta3 2.631101 1_455
