# generated using pymatgen
data_K3NaSnO4
_symmetry_space_group_name_H-M   'P 1'
_cell_length_a   6.42023074
_cell_length_b   10.51987616
_cell_length_c   10.66271036
_cell_angle_alpha   68.32026021
_cell_angle_beta   90.00000000
_cell_angle_gamma   90.00000000
_symmetry_Int_Tables_number   1
_chemical_formula_structural   K3NaSnO4
_chemical_formula_sum   'K12 Na4 Sn4 O16'
_cell_volume   669.21804395
_cell_formula_units_Z   4
loop_
 _symmetry_equiv_pos_site_id
 _symmetry_equiv_pos_as_xyz
  1  'x, y, z'
loop_
 _atom_site_type_symbol
 _atom_site_label
 _atom_site_symmetry_multiplicity
 _atom_site_fract_x
 _atom_site_fract_y
 _atom_site_fract_z
 _atom_site_occupancy
  K  K0  1  0.61599429  0.67840001  0.89719178  1
  K  K1  1  0.30832752  0.96504875  0.67625001  1
  K  K2  1  0.38400571  0.32159999  0.10280822  1
  K  K3  1  0.11599429  0.32159999  0.60280822  1
  K  K4  1  0.59792475  0.45138767  0.69013046  1
  K  K5  1  0.40207525  0.54861233  0.30986954  1
  K  K6  1  0.09792475  0.54861233  0.80986954  1
  K  K7  1  0.90207525  0.45138767  0.19013046  1
  K  K8  1  0.80832752  0.03495125  0.82374999  1
  K  K9  1  0.88400571  0.67840001  0.39719178  1
  K  K10  1  0.19167248  0.96504875  0.17625001  1
  K  K11  1  0.69167248  0.03495125  0.32374999  1
  Na  Na0  1  0.63030515  0.87407761  0.11195294  1
  Na  Na1  1  0.86969485  0.87407761  0.61195294  1
  Na  Na2  1  0.13030515  0.12592239  0.38804706  1
  Na  Na3  1  0.36969485  0.12592239  0.88804706  1
  Sn  Sn0  1  0.64272987  0.24330209  0.50560390  1
  Sn  Sn1  1  0.35727013  0.75669791  0.49439610  1
  Sn  Sn2  1  0.14272987  0.75669791  0.99439610  1
  Sn  Sn3  1  0.85727013  0.24330209  0.00560390  1
  O  O0  1  0.25877223  0.57004100  0.05503880  1
  O  O1  1  0.24122777  0.57004100  0.55503880  1
  O  O2  1  0.12525028  0.88931206  0.45639228  1
  O  O3  1  0.99530338  0.79679838  0.82183042  1
  O  O4  1  0.55584350  0.76929599  0.63007163  1
  O  O5  1  0.94415650  0.76929599  0.13007163  1
  O  O6  1  0.75877223  0.42995900  0.44496120  1
  O  O7  1  0.74122777  0.42995900  0.94496120  1
  O  O8  1  0.87474972  0.11068794  0.54360772  1
  O  O9  1  0.44415650  0.23070401  0.36992837  1
  O  O10  1  0.49530338  0.20320162  0.67816958  1
  O  O11  1  0.05584350  0.23070401  0.86992837  1
  O  O12  1  0.62525028  0.11068794  0.04360772  1
  O  O13  1  0.00469662  0.20320162  0.17816958  1
  O  O14  1  0.37474972  0.88931206  0.95639228  1
  O  O15  1  0.50469662  0.79679838  0.32183042  1
loop_
_geom_bond_atom_site_label_1
_geom_bond_atom_site_label_2
_geom_bond_distance
_geom_bond_site_symmetry_2
K0 O7 2.598670 1_555
K0 O4 2.676497 1_555
K0 O3 2.718096 1_555
K0 O0 2.823927 1_556
K0 O14 2.958904 1_555
K1 O3 2.747958 1_455
K1 O10 2.784970 1_565
K1 O4 2.785241 1_555
K1 O14 2.825049 1_555
K1 O2 2.981943 1_555
K1 O8 3.239676 1_465
K2 O0 2.598670 1_555
K2 O9 2.676497 1_555
K2 O13 2.718096 1_555
K2 O7 2.823927 1_554
K2 O12 2.958904 1_555
K3 O1 2.598670 1_555
K3 O11 2.676497 1_555
K3 O10 2.718096 1_555
K3 O6 2.823927 1_455
K3 O8 2.958904 1_455
K4 O10 2.741003 1_555
K4 O1 2.747537 1_555
K4 O7 2.797826 1_555
K4 O6 2.895949 1_555
K4 O4 3.175760 1_555
K5 O15 2.741003 1_555
K5 O6 2.747537 1_555
K5 O0 2.797826 1_555
K5 O1 2.895949 1_555
K5 O9 3.175760 1_555
K6 O3 2.741003 1_455
K6 O7 2.747537 1_455
K6 O1 2.797826 1_555
K6 O0 2.895949 1_556
K6 O11 3.175760 1_555
K7 O13 2.741003 1_655
K7 O0 2.747537 1_655
K7 O6 2.797826 1_555
K7 O7 2.895949 1_554
K7 O5 3.175760 1_555
K8 O10 2.747958 1_555
K8 O3 2.784970 1_545
K8 O11 2.785241 1_655
K8 O8 2.825049 1_555
K8 O12 2.981943 1_556
K8 O14 3.239676 1_545
K9 O6 2.598670 1_555
K9 O5 2.676497 1_555
K9 O15 2.718096 1_555
K9 O1 2.823927 1_655
K9 O2 2.958904 1_655
K10 O15 2.747958 1_555
K10 O13 2.784970 1_565
K10 O5 2.785241 1_455
K10 O2 2.825049 1_555
K10 O14 2.981943 1_554
K10 O12 3.239676 1_565
K11 O13 2.747958 1_655
K11 O15 2.784970 1_545
K11 O9 2.785241 1_555
K11 O12 2.825049 1_555
K11 O8 2.981943 1_555
K11 O2 3.239676 1_645
Na0 O15 2.230496 1_555
Na0 O5 2.270516 1_555
Na0 O14 2.296201 1_554
Na0 O12 2.321121 1_565
Na1 O3 2.230496 1_555
Na1 O4 2.270516 1_555
Na1 O2 2.296201 1_655
Na1 O8 2.321121 1_565
Na2 O13 2.230496 1_555
Na2 O9 2.270516 1_555
Na2 O8 2.296201 1_455
Na2 O2 2.321121 1_545
Na3 O10 2.230496 1_555
Na3 O11 2.270516 1_555
Na3 O12 2.296201 1_556
Na3 O14 2.321121 1_545
O0 Sn2 1.972516 1_554
O1 Sn1 1.972516 1_555
O2 Sn1 1.977816 1_555
O3 Sn2 1.971298 1_655
O4 Sn1 1.969113 1_555
O5 Sn2 1.969113 1_654
O6 Sn0 1.972516 1_555
O7 Sn3 1.972516 1_556
O8 Sn0 1.977816 1_555
O9 Sn0 1.969113 1_555
O10 Sn0 1.971298 1_555
O11 Sn3 1.969113 1_456
O12 Sn3 1.977816 1_555
O13 Sn3 1.971298 1_455
O14 Sn2 1.977816 1_555
O15 Sn1 1.971298 1_555
