# generated using pymatgen
data_Sb6TeMo3
_symmetry_space_group_name_H-M   'P 1'
_cell_length_a   8.33201492
_cell_length_b   8.33426171
_cell_length_c   8.33201527
_cell_angle_alpha   109.70964907
_cell_angle_beta   108.98437601
_cell_angle_gamma   109.70965698
_symmetry_Int_Tables_number   1
_chemical_formula_structural   Sb6TeMo3
_chemical_formula_sum   'Sb12 Te2 Mo6'
_cell_volume   445.43204122
_cell_formula_units_Z   2
loop_
 _symmetry_equiv_pos_site_id
 _symmetry_equiv_pos_as_xyz
  1  'x, y, z'
loop_
 _atom_site_type_symbol
 _atom_site_label
 _atom_site_symmetry_multiplicity
 _atom_site_fract_x
 _atom_site_fract_y
 _atom_site_fract_z
 _atom_site_occupancy
  Sb  Sb0  1  0.49876743  0.74774070  0.24897327  1
  Sb  Sb1  1  0.25151105  0.50302110  0.75151105  1
  Sb  Sb2  1  0.75151105  0.50302110  0.25151105  1
  Sb  Sb3  1  0.24897327  0.74774070  0.49876743  1
  Sb  Sb4  1  0.32201038  0.32442401  0.32201038  1
  Sb  Sb5  1  0.99931964  0.99836138  0.32206577  1
  Sb  Sb6  1  0.32206577  0.99836138  0.99931964  1
  Sb  Sb7  1  0.00241363  0.32442401  0.00241363  1
  Sb  Sb8  1  0.67629661  0.99836138  0.99904274  1
  Sb  Sb9  1  0.00281869  0.67846180  0.00281869  1
  Sb  Sb10  1  0.99904274  0.99836138  0.67629661  1
  Sb  Sb11  1  0.67564211  0.67846180  0.67564211  1
  Te  Te0  1  0.75080727  0.24977417  0.49896689  1
  Te  Te1  1  0.49896689  0.24977417  0.75080727  1
  Mo  Mo0  1  0.34226596  0.34128819  0.99902223  1
  Mo  Mo1  1  0.99902223  0.34128819  0.34226596  1
  Mo  Mo2  1  0.99909830  0.65695491  0.65785662  1
  Mo  Mo3  1  0.65737132  0.00161137  0.65737132  1
  Mo  Mo4  1  0.34424005  0.00161137  0.34424005  1
  Mo  Mo5  1  0.65785662  0.65695491  0.99909830  1
loop_
_geom_bond_atom_site_label_1
_geom_bond_atom_site_label_2
_geom_bond_distance
_geom_bond_site_symmetry_2
Sb4 Sb7 3.093282 1_555
Sb4 Sb5 3.112409 1_445
Sb4 Sb6 3.112409 1_544
Sb5 Sb9 3.082844 1_655
Sb5 Sb8 3.126443 1_554
Sb6 Sb8 2.952208 1_555
Sb6 Sb9 3.082844 1_556
Sb7 Sb9 2.948369 1_555
Sb7 Sb8 3.112409 1_444
Sb10 Sb5 2.952208 1_555
Sb10 Sb11 3.082844 1_555
Sb10 Sb7 3.112409 1_666
Sb10 Sb6 3.126443 1_655
Sb11 Sb4 2.948363 1_555
Sb11 Sb8 3.082844 1_555
Sb11 Sb9 3.166644 1_656
Mo0 Sb7 2.797340 1_556
Mo0 Sb4 2.797340 1_556
Mo0 Sb10 2.806652 1_445
Mo0 Sb6 2.806657 1_545
Mo0 Te1 2.815691 1_555
Mo0 Sb0 2.829808 1_556
Mo0 Sb1 2.861735 1_555
Mo0 Sb2 2.861743 1_556
Mo1 Sb4 2.797340 1_655
Mo1 Sb7 2.797340 1_655
Mo1 Sb8 2.806652 1_544
Mo1 Sb5 2.806657 1_545
Mo1 Te0 2.815691 1_555
Mo1 Sb3 2.829808 1_655
Mo1 Sb2 2.861735 1_555
Mo1 Sb1 2.861743 1_655
Mo2 Sb10 2.797463 1_555
Mo2 Sb6 2.797469 1_655
Mo2 Sb9 2.808036 1_656
Mo2 Sb11 2.808042 1_555
Mo2 Te0 2.828611 1_555
Mo2 Sb3 2.841404 1_655
Mo2 Sb2 2.846970 1_555
Mo2 Sb1 2.846978 1_655
Mo3 Sb11 2.799599 1_545
Mo3 Sb10 2.809406 1_545
Mo3 Sb8 2.809406 1_545
Mo3 Sb7 2.820780 1_656
Mo3 Te0 2.837142 1_555
Mo3 Te1 2.837142 1_555
Mo3 Sb3 2.852032 1_545
Mo3 Sb0 2.852033 1_545
Mo4 Sb9 2.799606 1_545
Mo4 Sb5 2.809400 1_445
Mo4 Sb6 2.809400 1_544
Mo4 Sb4 2.820780 1_555
Mo4 Te0 2.837142 1_555
Mo4 Te1 2.837143 1_555
Mo4 Sb3 2.852032 1_545
Mo4 Sb0 2.852032 1_545
Mo5 Sb8 2.797463 1_555
Mo5 Sb5 2.797469 1_556
Mo5 Sb9 2.808036 1_656
Mo5 Sb11 2.808042 1_555
Mo5 Te1 2.828611 1_555
Mo5 Sb0 2.841404 1_556
Mo5 Sb1 2.846970 1_555
Mo5 Sb2 2.846978 1_556
