# generated using pymatgen
data_K2Hf(TeO4)3
_symmetry_space_group_name_H-M   'P 1'
_cell_length_a   7.19296568
_cell_length_b   7.19389636
_cell_length_c   7.28382712
_cell_angle_alpha   90.00000279
_cell_angle_beta   60.42243935
_cell_angle_gamma   120.00428349
_symmetry_Int_Tables_number   1
_chemical_formula_structural   K2Hf(TeO4)3
_chemical_formula_sum   'K2 Hf1 Te3 O12'
_cell_volume   268.18394220
_cell_formula_units_Z   1
loop_
 _symmetry_equiv_pos_site_id
 _symmetry_equiv_pos_as_xyz
  1  'x, y, z'
loop_
 _atom_site_type_symbol
 _atom_site_label
 _atom_site_symmetry_multiplicity
 _atom_site_fract_x
 _atom_site_fract_y
 _atom_site_fract_z
 _atom_site_occupancy
  K  K0  1  0.25566295  0.13179244  0.11650228  1
  K  K1  1  0.74433705  0.87612949  0.88349772  1
  Hf  Hf0  1  1.00000000  0.50376792  1.00000000  1
  Te  Te0  1  0.49996032  0.00384886  0.49996445  1
  Te  Te1  1  0.50003968  0.50388855  0.50003555  1
  Te  Te2  1  0.00000000  0.50380239  0.50000000  1
  O  O0  1  0.64041468  0.82399609  0.43467113  1
  O  O1  1  0.86055714  0.43395663  0.80489601  1
  O  O2  1  0.26490193  0.83819210  0.80476247  1
  O  O3  1  0.24514279  0.42866922  0.43466582  1
  O  O4  1  0.26478372  0.43397341  0.80498011  1
  O  O5  1  0.24503426  0.82401599  0.43464488  1
  O  O6  1  0.35958532  0.18358141  0.56532887  1
  O  O7  1  0.13944286  0.57339949  0.19510399  1
  O  O8  1  0.73521628  0.16918869  0.19501989  1
  O  O9  1  0.75496574  0.57898072  0.56535512  1
  O  O10  1  0.73509807  0.57329117  0.19523753  1
  O  O11  1  0.75485721  0.18352543  0.56533418  1
loop_
_geom_bond_atom_site_label_1
_geom_bond_atom_site_label_2
_geom_bond_distance
_geom_bond_site_symmetry_2
K0 O4 3.096622 1_554
K0 O1 3.098315 1_554
K0 O2 3.100454 1_544
K0 O3 3.150559 1_555
K0 O0 3.151714 1_445
K0 O5 3.151794 1_545
K1 O8 3.096617 1_566
K1 O7 3.098315 1_556
K1 O10 3.100449 1_556
K1 O11 3.150554 1_565
K1 O6 3.151714 1_665
K1 O9 3.151799 1_555
Hf0 O1 2.044780 1_555
Hf0 O7 2.044780 1_656
Hf0 O2 2.044800 1_655
Hf0 O10 2.044806 1_556
Hf0 O4 2.045215 1_655
Hf0 O8 2.045220 1_556
O0 Te1 1.936263 1_555
O0 Te0 1.937491 1_565
O1 Te2 1.867476 1_655
O2 Te0 1.867326 1_565
O3 Te1 1.936667 1_555
O3 Te2 1.937175 1_555
O4 Te1 1.867698 1_555
O5 Te2 1.936663 1_555
O5 Te0 1.936777 1_565
O6 Te0 1.936263 1_555
O6 Te1 1.937491 1_555
O7 Te2 1.867476 1_555
O8 Te0 1.867697 1_555
O9 Te2 1.936658 1_655
O9 Te1 1.936779 1_555
O10 Te1 1.867324 1_555
O11 Te0 1.936665 1_555
O11 Te2 1.937180 1_655
