# generated using pymatgen
data_MgZnInCu3
_symmetry_space_group_name_H-M   'P 1'
_cell_length_a   4.94567857
_cell_length_b   4.94567800
_cell_length_c   4.94567889
_cell_angle_alpha   60.99833736
_cell_angle_beta   60.99833977
_cell_angle_gamma   60.99833859
_symmetry_Int_Tables_number   1
_chemical_formula_structural   MgZnInCu3
_chemical_formula_sum   'Mg1 Zn1 In1 Cu3'
_cell_volume   87.46226820
_cell_formula_units_Z   1
loop_
 _symmetry_equiv_pos_site_id
 _symmetry_equiv_pos_as_xyz
  1  'x, y, z'
loop_
 _atom_site_type_symbol
 _atom_site_label
 _atom_site_symmetry_multiplicity
 _atom_site_fract_x
 _atom_site_fract_y
 _atom_site_fract_z
 _atom_site_occupancy
  Mg  Mg0  1  0.99903301  0.99903301  0.99903301  1
  Zn  Zn0  1  0.37438325  0.37438325  0.37438325  1
  In  In0  1  0.75100439  0.75100439  0.75100439  1
  Cu  Cu0  1  0.87561607  0.37498214  0.37498214  1
  Cu  Cu1  1  0.37498214  0.87561607  0.37498214  1
  Cu  Cu2  1  0.37498214  0.37498214  0.87561607  1
loop_
_geom_bond_atom_site_label_1
_geom_bond_atom_site_label_2
_geom_bond_distance
_geom_bond_site_symmetry_2
Mg0 Zn0 2.942056 1_656
Mg0 Zn0 2.942056 1_665
Mg0 Zn0 2.942056 1_566
In0 Zn0 2.944718 1_565
In0 Zn0 2.944718 1_556
In0 Zn0 2.944718 1_655
In0 Mg0 2.981845 1_555
In0 Mg0 3.074456 1_545
In0 Mg0 3.074457 1_455
In0 Mg0 3.074457 1_554
Cu0 Zn0 2.463874 1_655
Cu0 Zn0 2.481812 1_555
Cu0 Cu1 2.506877 1_645
Cu0 Cu2 2.506878 1_654
Cu0 Cu1 2.513242 1_555
Cu0 Cu2 2.513242 1_555
Cu0 In0 2.903019 1_555
Cu0 Mg0 2.904826 1_544
Cu0 Mg0 2.918388 1_554
Cu0 Mg0 2.918389 1_545
Cu0 In0 2.920534 1_545
Cu0 In0 2.920535 1_554
Cu1 Zn0 2.463873 1_565
Cu1 Zn0 2.481812 1_555
Cu1 Cu2 2.506877 1_564
Cu1 Cu2 2.513242 1_555
Cu1 In0 2.903019 1_555
Cu1 Mg0 2.904826 1_454
Cu1 Mg0 2.918389 1_554
Cu1 Mg0 2.918389 1_455
Cu1 In0 2.920535 1_455
Cu1 In0 2.920535 1_554
Cu2 Zn0 2.463874 1_556
Cu2 Zn0 2.481812 1_555
Cu2 In0 2.903019 1_555
Cu2 Mg0 2.904826 1_445
Cu2 Mg0 2.918389 1_455
Cu2 Mg0 2.918389 1_545
Cu2 In0 2.920534 1_545
Cu2 In0 2.920535 1_455
