# generated using pymatgen
data_RuPt3(Pb2O7)2
_symmetry_space_group_name_H-M   'P 1'
_cell_length_a   7.27978853
_cell_length_b   7.27978730
_cell_length_c   7.35354498
_cell_angle_alpha   60.33123893
_cell_angle_beta   60.33124604
_cell_angle_gamma   59.99999864
_symmetry_Int_Tables_number   1
_chemical_formula_structural   RuPt3(Pb2O7)2
_chemical_formula_sum   'Ru1 Pt3 Pb4 O14'
_cell_volume   276.93353619
_cell_formula_units_Z   1
loop_
 _symmetry_equiv_pos_site_id
 _symmetry_equiv_pos_as_xyz
  1  'x, y, z'
loop_
 _atom_site_type_symbol
 _atom_site_label
 _atom_site_symmetry_multiplicity
 _atom_site_fract_x
 _atom_site_fract_y
 _atom_site_fract_z
 _atom_site_occupancy
  Ru  Ru0  1  0.62500000  0.62500000  0.12500000  1
  Pt  Pt0  1  0.62500000  0.62500000  0.62500000  1
  Pt  Pt1  1  0.62500000  0.12500000  0.62500000  1
  Pt  Pt2  1  0.12500000  0.62500000  0.62500000  1
  Pb  Pb0  1  0.12500000  0.12500000  0.12500000  1
  Pb  Pb1  1  0.62500000  0.12500000  0.12500000  1
  Pb  Pb2  1  0.12500000  0.62500000  0.12500000  1
  Pb  Pb3  1  0.12500000  0.12500000  0.62500000  1
  O  O0  1  0.70238051  0.30003242  0.29520857  1
  O  O1  1  0.71249943  0.29309342  0.70131372  1
  O  O2  1  0.00991945  0.00991945  0.97023965  1
  O  O3  1  0.30003242  0.70238051  0.29520857  1
  O  O4  1  0.70238051  0.70238051  0.29520857  1
  O  O5  1  0.95690658  0.53750057  0.54868628  1
  O  O6  1  0.29309342  0.71249943  0.70131372  1
  O  O7  1  0.24008055  0.24008055  0.27976035  1
  O  O8  1  0.94996758  0.54761949  0.95479143  1
  O  O9  1  0.53750057  0.95690658  0.54868628  1
  O  O10  1  0.54761949  0.54761949  0.95479143  1
  O  O11  1  0.95690658  0.95690658  0.54868628  1
  O  O12  1  0.54761949  0.94996758  0.95479143  1
  O  O13  1  0.29309342  0.29309342  0.70131372  1
loop_
_geom_bond_atom_site_label_1
_geom_bond_atom_site_label_2
_geom_bond_distance
_geom_bond_site_symmetry_2
O0 Ru0 1.978510 1_555
O0 Pt1 2.031857 1_555
O0 Pb0 2.549912 1_655
O0 Pb1 2.549922 1_555
O1 Pt0 2.007787 1_555
O1 Pt1 2.007787 1_555
O1 Pb3 2.483296 1_655
O1 Pb1 2.578879 1_556
O2 Pb3 2.083186 1_555
O2 Pb2 2.299629 1_546
O2 Pb1 2.299629 1_456
O2 Pb0 2.299641 1_556
O3 Ru0 1.978510 1_555
O3 Pt2 2.031857 1_555
O3 Pb0 2.549911 1_565
O3 Pb2 2.549922 1_555
O4 Ru0 1.978521 1_555
O4 Pt0 2.031854 1_555
O4 Pb1 2.549909 1_565
O4 Pb2 2.549910 1_655
O5 Pt2 2.007787 1_655
O5 Pt0 2.007787 1_555
O5 Pb3 2.483296 1_655
O5 Pb2 2.578879 1_655
O6 Pt2 2.007787 1_555
O6 Pt0 2.007787 1_555
O6 Pb3 2.483296 1_565
O6 Pb2 2.578879 1_556
O7 Pb3 2.083186 1_555
O7 Pb2 2.299629 1_555
O7 Pb1 2.299629 1_555
O7 Pb0 2.299641 1_555
O8 Ru0 1.978510 1_556
O8 Pt2 2.031857 1_655
O8 Pb0 2.549911 1_656
O8 Pb2 2.549922 1_656
O9 Pt0 2.007787 1_555
O9 Pt1 2.007787 1_565
O9 Pb3 2.483296 1_565
O9 Pb1 2.578879 1_565
O10 Ru0 1.978521 1_556
O10 Pt0 2.031854 1_555
O10 Pb1 2.549909 1_556
O10 Pb2 2.549910 1_556
O11 Pt2 2.007787 1_655
O11 Pt1 2.007787 1_565
O11 Pb3 2.483296 1_665
O11 Pb0 2.578879 1_665
O12 Ru0 1.978510 1_556
O12 Pt1 2.031857 1_565
O12 Pb0 2.549912 1_566
O12 Pb1 2.549922 1_566
O13 Pt2 2.007787 1_555
O13 Pt1 2.007787 1_555
O13 Pb3 2.483296 1_555
O13 Pb0 2.578879 1_556
