# generated using pymatgen
data_LiPtRhO4
_symmetry_space_group_name_H-M   'P 1'
_cell_length_a   6.08028429
_cell_length_b   6.08028400
_cell_length_c   6.08028427
_cell_angle_alpha   119.60146546
_cell_angle_beta   120.38378504
_cell_angle_gamma   90.01410466
_symmetry_Int_Tables_number   1
_chemical_formula_structural   LiPtRhO4
_chemical_formula_sum   'Li2 Pt2 Rh2 O8'
_cell_volume   158.95703405
_cell_formula_units_Z   2
loop_
 _symmetry_equiv_pos_site_id
 _symmetry_equiv_pos_as_xyz
  1  'x, y, z'
loop_
 _atom_site_type_symbol
 _atom_site_label
 _atom_site_symmetry_multiplicity
 _atom_site_fract_x
 _atom_site_fract_y
 _atom_site_fract_z
 _atom_site_occupancy
  Li  Li0  1  0.86798169  0.61798169  0.25000000  1
  Li  Li1  1  0.13201831  0.38201831  0.75000000  1
  Pt  Pt0  1  0.50000000  0.00000000  0.00000000  1
  Pt  Pt1  1  0.50000000  0.50000000  0.50000000  1
  Rh  Rh0  1  0.00000000  0.00000000  0.00000000  1
  Rh  Rh1  1  0.50000000  0.00000000  0.50000000  1
  O  O0  1  0.71076149  0.23823612  0.47252437  1
  O  O1  1  0.26571175  0.23823612  0.02747563  1
  O  O2  1  0.26400828  0.23960544  0.47559817  1
  O  O3  1  0.26400828  0.78841011  0.02440183  1
  O  O4  1  0.28923851  0.76176388  0.52747563  1
  O  O5  1  0.73428825  0.76176388  0.97252437  1
  O  O6  1  0.73599172  0.76039456  0.52440183  1
  O  O7  1  0.73599172  0.21158989  0.97559817  1
loop_
_geom_bond_atom_site_label_1
_geom_bond_atom_site_label_2
_geom_bond_distance
_geom_bond_site_symmetry_2
Li0 O7 2.026108 1_554
Li0 O6 2.026108 1_555
Li0 O4 2.083659 1_655
Li0 O5 2.083663 1_554
Li1 O3 2.026108 1_556
Li1 O2 2.026108 1_555
Li1 O0 2.083659 1_455
Li1 O1 2.083663 1_556
O0 Pt0 2.039162 1_555
O0 Pt1 2.039166 1_555
O0 Rh1 2.055024 1_555
O1 Pt0 2.039162 1_555
O1 Pt1 2.039162 1_555
O1 Rh0 2.055020 1_555
O2 Pt1 2.034488 1_555
O2 Rh1 2.050030 1_555
O2 Rh0 2.050035 1_555
O3 Pt0 2.034483 1_565
O3 Rh0 2.050035 1_565
O3 Rh1 2.050035 1_565
O4 Pt0 2.039162 1_566
O4 Pt1 2.039166 1_555
O4 Rh1 2.055024 1_565
O5 Pt0 2.039162 1_566
O5 Pt1 2.039162 1_555
O5 Rh0 2.055020 1_666
O6 Pt1 2.034488 1_555
O6 Rh1 2.050030 1_565
O6 Rh0 2.050035 1_666
O7 Pt0 2.034483 1_556
O7 Rh0 2.050035 1_656
O7 Rh1 2.050035 1_555
