# generated using pymatgen
data_TaTc5Te8
_symmetry_space_group_name_H-M   'P 1'
_cell_length_a   7.15571006
_cell_length_b   7.11101138
_cell_length_c   7.15047971
_cell_angle_alpha   94.65090025
_cell_angle_beta   93.78237312
_cell_angle_gamma   93.56215087
_symmetry_Int_Tables_number   1
_chemical_formula_structural   TaTc5Te8
_chemical_formula_sum   'Ta1 Tc5 Te8'
_cell_volume   361.02551466
_cell_formula_units_Z   1
loop_
 _symmetry_equiv_pos_site_id
 _symmetry_equiv_pos_as_xyz
  1  'x, y, z'
loop_
 _atom_site_type_symbol
 _atom_site_label
 _atom_site_symmetry_multiplicity
 _atom_site_fract_x
 _atom_site_fract_y
 _atom_site_fract_z
 _atom_site_occupancy
  Ta  Ta0  1  0.95629995  0.25060945  0.08834939  1
  Tc  Tc0  1  0.90933960  0.04361681  0.74979270  1
  Tc  Tc1  1  0.74745875  0.91334291  0.04924124  1
  Tc  Tc2  1  0.04412088  0.74974501  0.91379911  1
  Tc  Tc3  1  0.08961543  0.95749765  0.25103556  1
  Tc  Tc4  1  0.24732916  0.08564414  0.95003608  1
  Te  Te0  1  0.71230465  0.71111090  0.71575982  1
  Te  Te1  1  0.30079972  0.28621794  0.28997726  1
  Te  Te2  1  0.77784628  0.11861104  0.38835240  1
  Te  Te3  1  0.37966876  0.77794701  0.11638942  1
  Te  Te4  1  0.12209824  0.37877590  0.76175934  1
  Te  Te5  1  0.21898214  0.87656287  0.61849017  1
  Te  Te6  1  0.61164117  0.22026071  0.88209168  1
  Te  Te7  1  0.88249626  0.63005566  0.22492583  1
loop_
_geom_bond_atom_site_label_1
_geom_bond_atom_site_label_2
_geom_bond_distance
_geom_bond_site_symmetry_2
Ta0 Tc4 2.660503 1_654
Ta0 Tc3 2.664873 1_645
Ta0 Tc0 2.719066 1_554
Ta0 Tc1 2.730214 1_545
Ta0 Te1 2.759342 1_655
Ta0 Te2 2.766300 1_555
Ta0 Te6 2.776079 1_554
Ta0 Te4 2.875418 1_654
Ta0 Te7 2.886340 1_555
Tc0 Te0 2.661750 1_545
Tc0 Tc2 2.677883 1_645
Tc0 Tc1 2.701908 1_546
Tc0 Tc4 2.715287 1_655
Tc0 Te6 2.723300 1_555
Tc0 Te4 2.739383 1_655
Tc0 Te5 2.760922 1_645
Tc0 Te2 2.795399 1_555
Tc1 Te7 2.657441 1_555
Tc1 Te0 2.671560 1_554
Tc1 Tc2 2.682001 1_654
Tc1 Te2 2.715623 1_565
Tc1 Tc3 2.745917 1_655
Tc1 Te6 2.769416 1_564
Tc1 Te3 2.830318 1_555
Tc2 Te0 2.670334 1_455
Tc2 Tc4 2.702813 1_565
Tc2 Te3 2.708887 1_556
Tc2 Te5 2.711998 1_555
Tc2 Tc3 2.713356 1_556
Tc2 Te7 2.745085 1_456
Tc2 Te4 2.872277 1_555
Tc3 Te7 2.667818 1_455
Tc3 Te1 2.687978 1_565
Tc3 Tc4 2.692044 1_564
Tc3 Te3 2.694176 1_555
Tc3 Te2 2.770902 1_465
Tc3 Te5 2.842946 1_555
Tc4 Te5 2.683172 1_545
Tc4 Te1 2.708587 1_556
Tc4 Te4 2.736509 1_555
Tc4 Te3 2.762272 1_546
Tc4 Te6 2.807275 1_555
