# generated using pymatgen
data_Sr5ReSiN7
_symmetry_space_group_name_H-M   'P 1'
_cell_length_a   6.34771616
_cell_length_b   8.92647255
_cell_length_c   9.21066087
_cell_angle_alpha   113.70848017
_cell_angle_beta   98.26965331
_cell_angle_gamma   89.86174482
_symmetry_Int_Tables_number   1
_chemical_formula_structural   Sr5ReSiN7
_chemical_formula_sum   'Sr10 Re2 Si2 N14'
_cell_volume   472.00016846
_cell_formula_units_Z   2
loop_
 _symmetry_equiv_pos_site_id
 _symmetry_equiv_pos_as_xyz
  1  'x, y, z'
loop_
 _atom_site_type_symbol
 _atom_site_label
 _atom_site_symmetry_multiplicity
 _atom_site_fract_x
 _atom_site_fract_y
 _atom_site_fract_z
 _atom_site_occupancy
  Sr  Sr0  1  0.85794146  0.58274895  0.35038465  1
  Sr  Sr1  1  0.27455904  0.97896905  0.56328955  1
  Sr  Sr2  1  0.69256453  0.40168557  0.83045552  1
  Sr  Sr3  1  0.30743547  0.59831443  0.16954448  1
  Sr  Sr4  1  0.39440773  0.77956487  0.89153032  1
  Sr  Sr5  1  0.60559227  0.22043513  0.10846968  1
  Sr  Sr6  1  0.14205854  0.41725105  0.64961535  1
  Sr  Sr7  1  0.87941988  0.82948828  0.74349477  1
  Sr  Sr8  1  0.12058012  0.17051172  0.25650523  1
  Sr  Sr9  1  0.72544096  0.02103095  0.43671045  1
  Re  Re0  1  0.12096094  0.21906785  0.91692062  1
  Re  Re1  1  0.87903906  0.78093215  0.08307938  1
  Si  Si0  1  0.57276071  0.36445366  0.47717505  1
  Si  Si1  1  0.42723929  0.63554634  0.52282495  1
  N  N0  1  0.56842968  0.55419058  0.65488444  1
  N  N1  1  0.43157032  0.44580942  0.34511556  1
  N  N2  1  0.18111606  0.69546622  0.58419789  1
  N  N3  1  0.81888394  0.30453378  0.41580211  1
  N  N4  1  0.42532551  0.21182651  0.49811501  1
  N  N5  1  0.57467449  0.78817349  0.50188499  1
  N  N6  1  0.95173643  0.14031779  0.71979876  1
  N  N7  1  0.04826357  0.85968221  0.28020124  1
  N  N8  1  0.23179978  0.05431992  0.96740425  1
  N  N9  1  0.76820022  0.94568008  0.03259575  1
  N  N10  1  0.35000183  0.33857798  0.91316445  1
  N  N11  1  0.96798175  0.34622034  0.07166909  1
  N  N12  1  0.03201825  0.65377966  0.92833091  1
  N  N13  1  0.64999817  0.66142202  0.08683555  1
loop_
_geom_bond_atom_site_label_1
_geom_bond_atom_site_label_2
_geom_bond_distance
_geom_bond_site_symmetry_2
N0 Si1 1.789909 1_555
N0 Si0 1.825339 1_555
N0 Sr2 2.547119 1_555
N0 Sr4 2.678450 1_555
N0 Sr7 2.923893 1_555
N0 Sr6 2.958396 1_555
N1 Si0 1.789909 1_555
N1 Si1 1.825339 1_555
N1 Sr3 2.547119 1_555
N1 Sr5 2.678450 1_555
N1 Sr8 2.923893 1_555
N1 Sr0 2.958396 1_555
N2 Si1 1.747386 1_555
N2 Sr7 2.576280 1_455
N2 Sr0 2.618236 1_455
N2 Sr1 2.687987 1_555
N2 Sr4 2.757394 1_555
N2 Sr6 2.800265 1_555
N3 Si0 1.747386 1_555
N3 Sr8 2.576280 1_655
N3 Sr6 2.618236 1_655
N3 Sr9 2.687987 1_555
N3 Sr5 2.757394 1_555
N3 Sr0 2.800265 1_555
N4 Si0 1.743172 1_555
N4 Sr9 2.523769 1_555
N4 Sr1 2.602903 1_545
N4 Sr8 2.633533 1_555
N4 Sr6 2.681609 1_555
N4 Sr2 3.077063 1_555
N5 Si1 1.743172 1_555
N5 Sr1 2.523769 1_555
N5 Sr9 2.602903 1_565
N5 Sr7 2.633533 1_555
N5 Sr0 2.681609 1_555
N5 Sr3 3.077063 1_555
N6 Re0 1.833238 1_655
N6 Sr9 2.587116 1_555
N6 Sr1 2.741809 1_645
N6 Sr2 2.782124 1_555
N6 Sr7 2.911834 1_545
N6 Sr6 3.084237 1_655
N7 Re1 1.833238 1_455
N7 Sr1 2.587116 1_555
N7 Sr9 2.741809 1_465
N7 Sr3 2.782124 1_555
N7 Sr8 2.911834 1_565
N7 Sr0 3.084237 1_455
N8 Re0 1.823389 1_555
N8 Sr4 2.527048 1_545
N8 Sr8 2.642162 1_556
N8 Sr5 2.664132 1_556
N8 Sr7 2.941196 1_445
N9 Re1 1.823389 1_555
N9 Sr5 2.527048 1_565
N9 Sr7 2.642162 1_554
N9 Sr4 2.664132 1_554
N9 Sr8 2.941196 1_665
N10 Re0 1.817880 1_555
N10 Sr2 2.540401 1_555
N10 Sr3 2.608182 1_556
N10 Sr5 2.767343 1_556
N10 Sr6 2.927928 1_555
N11 Re0 1.831583 1_654
N11 Sr5 2.685148 1_555
N11 Sr0 2.772368 1_555
N11 Sr8 2.821760 1_655
N11 Sr2 2.828561 1_554
N11 Sr3 2.890123 1_655
N12 Re1 1.831583 1_456
N12 Sr4 2.685148 1_555
N12 Sr6 2.772368 1_555
N12 Sr7 2.821760 1_455
N12 Sr3 2.828561 1_556
N12 Sr2 2.890123 1_455
N13 Re1 1.817880 1_555
N13 Sr3 2.540401 1_555
N13 Sr2 2.608182 1_554
N13 Sr4 2.767343 1_554
N13 Sr0 2.927928 1_555
