# generated using pymatgen
data_Cs
_symmetry_space_group_name_H-M   'P 1'
_cell_length_a   10.21538544
_cell_length_b   10.21538498
_cell_length_c   20.50646332
_cell_angle_alpha   104.42291297
_cell_angle_beta   104.42291566
_cell_angle_gamma   89.99998722
_symmetry_Int_Tables_number   1
_chemical_formula_structural   Cs
_chemical_formula_sum   Cs16
_cell_volume   2002.77772978
_cell_formula_units_Z   16
loop_
 _symmetry_equiv_pos_site_id
 _symmetry_equiv_pos_as_xyz
  1  'x, y, z'
loop_
 _atom_site_type_symbol
 _atom_site_label
 _atom_site_symmetry_multiplicity
 _atom_site_fract_x
 _atom_site_fract_y
 _atom_site_fract_z
 _atom_site_occupancy
  Cs  Cs0_0  1  0.06250000  0.18750000  0.37500000  1
  Cs  Cs0_1  1  0.06250000  0.18750000  0.87500000  1
  Cs  Cs0_2  1  0.06250000  0.68750000  0.37500000  1
  Cs  Cs0_3  1  0.06250000  0.68750000  0.87500000  1
  Cs  Cs0_4  1  0.56250000  0.18750000  0.37500000  1
  Cs  Cs0_5  1  0.56250000  0.18750000  0.87500000  1
  Cs  Cs0_6  1  0.56250000  0.68750000  0.37500000  1
  Cs  Cs0_7  1  0.56250000  0.68750000  0.87500000  1
  Cs  Cs1_0  1  0.43750000  0.31250000  0.12500000  1
  Cs  Cs1_1  1  0.43750000  0.31250000  0.62500000  1
  Cs  Cs1_2  1  0.43750000  0.81250000  0.12500000  1
  Cs  Cs1_3  1  0.43750000  0.81250000  0.62500000  1
  Cs  Cs1_4  1  0.93750000  0.31250000  0.12500000  1
  Cs  Cs1_5  1  0.93750000  0.31250000  0.62500000  1
  Cs  Cs1_6  1  0.93750000  0.81250000  0.12500000  1
  Cs  Cs1_7  1  0.93750000  0.81250000  0.62500000  1
loop_
_geom_bond_atom_site_label_1
_geom_bond_atom_site_label_2
_geom_bond_distance
_geom_bond_site_symmetry_2
Cs0_0 Cs0_2 5.107692 1_545
Cs0_0 Cs0_2 5.107692 1_555
Cs0_0 Cs0_4 5.107693 1_455
Cs0_0 Cs0_4 5.107693 1_555
Cs0_0 Cs1_4 5.435371 1_455
Cs0_0 Cs1_5 5.435371 1_455
Cs0_0 Cs1_1 5.435371 1_555
Cs0_0 Cs1_6 5.435371 1_445
Cs0_1 Cs0_3 5.107692 1_545
Cs0_1 Cs0_3 5.107692 1_555
Cs0_1 Cs0_5 5.107693 1_555
Cs0_1 Cs0_5 5.107693 1_455
Cs0_1 Cs1_5 5.435371 1_455
Cs0_1 Cs1_4 5.435371 1_456
Cs0_1 Cs1_0 5.435371 1_556
Cs0_1 Cs1_7 5.435371 1_445
Cs0_2 Cs0_6 5.107693 1_455
Cs0_2 Cs0_6 5.107693 1_555
Cs0_2 Cs1_6 5.435371 1_455
Cs0_2 Cs1_7 5.435371 1_455
Cs0_2 Cs1_3 5.435371 1_555
Cs0_2 Cs1_4 5.435371 1_455
Cs0_3 Cs0_7 5.107693 1_455
Cs0_3 Cs0_7 5.107693 1_555
Cs0_3 Cs1_7 5.435371 1_455
Cs0_3 Cs1_6 5.435371 1_456
Cs0_3 Cs1_2 5.435371 1_556
Cs0_3 Cs1_5 5.435371 1_455
Cs0_4 Cs0_6 5.107692 1_555
Cs0_4 Cs0_6 5.107692 1_545
Cs0_4 Cs1_0 5.435371 1_555
Cs0_4 Cs1_1 5.435371 1_555
Cs0_4 Cs1_5 5.435371 1_555
Cs0_4 Cs1_2 5.435371 1_545
Cs0_5 Cs0_7 5.107692 1_545
Cs0_5 Cs0_7 5.107692 1_555
Cs0_5 Cs1_1 5.435371 1_555
Cs0_5 Cs1_0 5.435371 1_556
Cs0_5 Cs1_4 5.435371 1_556
Cs0_5 Cs1_3 5.435371 1_545
Cs0_6 Cs1_2 5.435371 1_555
Cs0_6 Cs1_3 5.435371 1_555
Cs0_6 Cs1_7 5.435371 1_555
Cs0_6 Cs1_0 5.435371 1_555
Cs0_7 Cs1_3 5.435371 1_555
Cs0_7 Cs1_2 5.435371 1_556
Cs0_7 Cs1_6 5.435371 1_556
Cs0_7 Cs1_1 5.435371 1_555
Cs1_0 Cs1_2 5.107692 1_555
Cs1_0 Cs1_2 5.107692 1_545
Cs1_0 Cs1_4 5.107693 1_455
Cs1_0 Cs1_4 5.107693 1_555
Cs1_1 Cs1_3 5.107692 1_545
Cs1_1 Cs1_3 5.107692 1_555
Cs1_1 Cs1_5 5.107693 1_455
Cs1_1 Cs1_5 5.107693 1_555
Cs1_2 Cs1_6 5.107693 1_455
Cs1_2 Cs1_6 5.107693 1_555
Cs1_3 Cs1_7 5.107693 1_455
Cs1_3 Cs1_7 5.107693 1_555
Cs1_4 Cs1_6 5.107692 1_555
Cs1_4 Cs1_6 5.107692 1_545
Cs1_5 Cs1_7 5.107692 1_555
Cs1_5 Cs1_7 5.107692 1_545
