# generated using pymatgen
data_BaNa4(GeS3)2
_symmetry_space_group_name_H-M   'P 1'
_cell_length_a   6.96056270
_cell_length_b   6.96056286
_cell_length_c   7.79964417
_cell_angle_alpha   81.29796867
_cell_angle_beta   81.29796552
_cell_angle_gamma   119.80349052
_symmetry_Int_Tables_number   1
_chemical_formula_structural   BaNa4(GeS3)2
_chemical_formula_sum   'Ba1 Na4 Ge2 S6'
_cell_volume   312.62790144
_cell_formula_units_Z   1
loop_
 _symmetry_equiv_pos_site_id
 _symmetry_equiv_pos_as_xyz
  1  'x, y, z'
loop_
 _atom_site_type_symbol
 _atom_site_label
 _atom_site_symmetry_multiplicity
 _atom_site_fract_x
 _atom_site_fract_y
 _atom_site_fract_z
 _atom_site_occupancy
  Ba  Ba0  1  0.33351781  0.66648219  0.50000000  1
  Na  Na0  1  0.82735229  0.17264771  1.00000000  1
  Na  Na1  1  0.17312435  0.82687565  0.00000000  1
  Na  Na2  1  0.49805115  0.50194885  0.00000000  1
  Na  Na3  1  0.66589613  0.33410387  0.50000000  1
  Ge  Ge0  1  0.05348113  0.05300677  0.33616285  1
  Ge  Ge1  1  0.94699323  0.94651887  0.66383715  1
  S  S0  1  0.06932265  0.38131561  0.24103616  1
  S  S1  1  0.39750991  0.10201665  0.24127202  1
  S  S2  1  0.89798335  0.60249009  0.75872798  1
  S  S3  1  0.61868439  0.93067735  0.75896384  1
  S  S4  1  0.79125387  0.77317126  0.24370025  1
  S  S5  1  0.22682874  0.20874613  0.75629975  1
loop_
_geom_bond_atom_site_label_1
_geom_bond_atom_site_label_2
_geom_bond_distance
_geom_bond_site_symmetry_2
Ba0 S4 3.157604 1_555
Ba0 S5 3.157604 1_555
Ba0 S2 3.161585 1_455
Ba0 S1 3.161586 1_565
Ba0 S0 3.179615 1_555
Ba0 S3 3.179615 1_555
Na0 S3 2.798808 1_545
Na0 S0 2.798808 1_656
Na0 S5 2.994897 1_655
Na0 S4 2.994897 1_546
Na0 S1 3.047771 1_556
Na0 S2 3.047771 1_555
Na1 S4 2.843648 1_455
Na1 S5 2.843648 1_564
Na1 S1 2.941930 1_565
Na1 S2 2.941930 1_454
Na1 S3 3.045002 1_554
Na1 S0 3.045002 1_555
Na2 S2 2.803595 1_554
Na2 S1 2.803595 1_555
Na2 S0 2.911821 1_555
Na2 S3 2.911821 1_554
Na2 S5 3.125980 1_554
Na2 S4 3.125980 1_555
Na3 S5 3.011703 1_555
Na3 S4 3.011703 1_555
Na3 S0 3.039503 1_655
Na3 S3 3.039503 1_545
Na3 S2 3.049440 1_555
Na3 S1 3.049440 1_555
Ge0 S4 2.221455 1_445
Ge0 S1 2.230178 1_555
Ge0 S0 2.235301 1_555
Ge1 S5 2.221455 1_665
Ge1 S2 2.230178 1_555
Ge1 S3 2.235301 1_555
