# generated using pymatgen
data_BaGaIO6
_symmetry_space_group_name_H-M   'P 1'
_cell_length_a   5.17030450
_cell_length_b   5.17030375
_cell_length_c   5.82912780
_cell_angle_alpha   90.00000000
_cell_angle_beta   90.00000000
_cell_angle_gamma   119.99999866
_symmetry_Int_Tables_number   1
_chemical_formula_structural   BaGaIO6
_chemical_formula_sum   'Ba1 Ga1 I1 O6'
_cell_volume   134.94798182
_cell_formula_units_Z   1
loop_
 _symmetry_equiv_pos_site_id
 _symmetry_equiv_pos_as_xyz
  1  'x, y, z'
loop_
 _atom_site_type_symbol
 _atom_site_label
 _atom_site_symmetry_multiplicity
 _atom_site_fract_x
 _atom_site_fract_y
 _atom_site_fract_z
 _atom_site_occupancy
  Ba  Ba0  1  0.00000000  0.00000000  0.00000000  1
  Ga  Ga0  1  0.33333300  0.66666700  0.50000000  1
  I  I0  1  0.66666700  0.33333300  0.50000000  1
  O  O0  1  0.39250087  0.01548884  0.68605755  1
  O  O1  1  0.98451116  0.37701203  0.68605755  1
  O  O2  1  0.62298797  0.60749913  0.68605755  1
  O  O3  1  0.98451116  0.60749913  0.31394245  1
  O  O4  1  0.62298797  0.01548884  0.31394245  1
  O  O5  1  0.39250087  0.37701203  0.31394245  1
loop_
_geom_bond_atom_site_label_1
_geom_bond_atom_site_label_2
_geom_bond_distance
_geom_bond_site_symmetry_2
Ba0 O3 2.703903 1_445
Ba0 O1 2.703903 1_454
Ba0 O2 2.703904 1_444
Ba0 O5 2.703904 1_555
Ba0 O4 2.703904 1_455
Ba0 O0 2.703904 1_554
Ga0 O0 1.992682 1_565
Ga0 O3 1.992682 1_455
Ga0 O4 1.992684 1_565
Ga0 O1 1.992684 1_455
Ga0 O5 1.992686 1_555
Ga0 O2 1.992687 1_555
I0 O4 1.885931 1_555
I0 O1 1.885931 1_555
I0 O0 1.885932 1_555
I0 O3 1.885932 1_555
I0 O2 1.885935 1_555
I0 O5 1.885935 1_555
