# generated using pymatgen
data_NaFe2(P6Rh)2
_symmetry_space_group_name_H-M   'P 1'
_cell_length_a   6.81242040
_cell_length_b   6.81240053
_cell_length_c   6.85640257
_cell_angle_alpha   109.50952704
_cell_angle_beta   109.40801177
_cell_angle_gamma   109.23356232
_symmetry_Int_Tables_number   1
_chemical_formula_structural   NaFe2(P6Rh)2
_chemical_formula_sum   'Na1 Fe2 P12 Rh2'
_cell_volume   245.73862682
_cell_formula_units_Z   1
loop_
 _symmetry_equiv_pos_site_id
 _symmetry_equiv_pos_as_xyz
  1  'x, y, z'
loop_
 _atom_site_type_symbol
 _atom_site_label
 _atom_site_symmetry_multiplicity
 _atom_site_fract_x
 _atom_site_fract_y
 _atom_site_fract_z
 _atom_site_occupancy
  Na  Na0  1  0.00000000  0.00000000  0.00000000  1
  Fe  Fe0  1  0.00000000  0.00000000  0.50000000  1
  Fe  Fe1  1  0.50000000  0.50000000  0.50000000  1
  P  P0  1  0.50123347  0.84614189  0.63455464  1
  P  P1  1  0.21158122  0.86665600  0.36545063  1
  P  P2  1  0.78841878  0.13334400  0.63454937  1
  P  P3  1  0.14718316  0.34898259  0.49615228  1
  P  P4  1  0.36552135  0.49880030  0.15397049  1
  P  P5  1  0.49876653  0.15385811  0.36544536  1
  P  P6  1  0.13919303  0.63847435  0.77765414  1
  P  P7  1  0.34482990  0.21155171  0.84602496  1
  P  P8  1  0.85281684  0.65101741  0.50384772  1
  P  P9  1  0.65517010  0.78844829  0.15397504  1
  P  P10  1  0.86080697  0.36152565  0.22234586  1
  P  P11  1  0.63447865  0.50119970  0.84602951  1
  Rh  Rh0  1  0.50000000  0.00000000  0.00000000  1
  Rh  Rh1  1  0.00000000  0.50000000  0.00000000  1
loop_
_geom_bond_atom_site_label_1
_geom_bond_atom_site_label_2
_geom_bond_distance
_geom_bond_site_symmetry_2
Na0 P3 2.998428 1_555
Na0 P8 2.998428 1_444
Na0 P7 3.023875 1_554
Na0 P9 3.023875 1_445
Na0 P4 3.023880 1_555
Na0 P11 3.023880 1_444
Na0 P5 3.027097 1_555
Na0 P0 3.027097 1_444
Na0 P1 3.027188 1_545
Na0 P2 3.027188 1_454
Na0 P10 3.046385 1_455
Na0 P6 3.046385 1_544
Fe0 P2 2.222706 1_455
Fe0 P1 2.222706 1_545
Fe0 P7 2.237386 1_555
Fe0 P9 2.237386 1_445
Fe0 P3 2.268717 1_555
Fe0 P8 2.268717 1_445
Fe1 P0 2.222695 1_555
Fe1 P5 2.222695 1_555
Fe1 P11 2.237368 1_555
Fe1 P4 2.237368 1_555
Fe1 P8 2.268632 1_555
Fe1 P3 2.268632 1_555
P0 P2 2.265792 1_565
P0 P1 2.291683 1_555
P0 Rh0 2.375405 1_566
P1 P5 2.265792 1_565
P1 Rh1 2.375379 1_555
P2 P5 2.291683 1_555
P2 Rh1 2.375379 1_656
P3 P6 2.283785 1_555
P4 P7 2.273312 1_554
P4 P9 2.285119 1_555
P4 Rh1 2.363727 1_555
P5 Rh0 2.375405 1_555
P6 P8 2.262886 1_455
P6 Rh0 2.333425 1_566
P6 Rh1 2.333467 1_556
P7 Rh0 2.363729 1_556
P9 Rh0 2.363729 1_565
P10 P3 2.262886 1_655
P10 P8 2.283785 1_555
P10 Rh0 2.333425 1_555
P10 Rh1 2.333467 1_655
P11 P9 2.273312 1_556
P11 P7 2.285119 1_555
P11 Rh1 2.363727 1_656
