# generated using pymatgen
data_Rb(SiP)3
_symmetry_space_group_name_H-M   'P 1'
_cell_length_a   3.54364884
_cell_length_b   9.85786852
_cell_length_c   19.77439235
_cell_angle_alpha   90.00000000
_cell_angle_beta   90.00000000
_cell_angle_gamma   90.00000000
_symmetry_Int_Tables_number   1
_chemical_formula_structural   Rb(SiP)3
_chemical_formula_sum   'Rb4 Si12 P12'
_cell_volume   690.77537548
_cell_formula_units_Z   4
loop_
 _symmetry_equiv_pos_site_id
 _symmetry_equiv_pos_as_xyz
  1  'x, y, z'
loop_
 _atom_site_type_symbol
 _atom_site_label
 _atom_site_symmetry_multiplicity
 _atom_site_fract_x
 _atom_site_fract_y
 _atom_site_fract_z
 _atom_site_occupancy
  Rb  Rb0  1  0.00000000  0.30236225  0.30842811  1
  Rb  Rb1  1  0.00000000  0.69763775  0.69157189  1
  Rb  Rb2  1  0.00000000  0.19763775  0.80842811  1
  Rb  Rb3  1  0.00000000  0.80236225  0.19157189  1
  Si  Si0  1  0.50000000  0.40518083  0.03525541  1
  Si  Si1  1  0.50000000  0.59481917  0.96474459  1
  Si  Si2  1  0.50000000  0.09481917  0.53525541  1
  Si  Si3  1  0.50000000  0.90518083  0.46474459  1
  Si  Si4  1  0.00000000  0.11406486  0.01538204  1
  Si  Si5  1  0.00000000  0.88593514  0.98461796  1
  Si  Si6  1  0.00000000  0.38593514  0.51538204  1
  Si  Si7  1  0.00000000  0.61406486  0.48461796  1
  Si  Si8  1  0.00000000  0.17996601  0.12929540  1
  Si  Si9  1  0.00000000  0.82003399  0.87070460  1
  Si  Si10  1  0.00000000  0.32003399  0.62929540  1
  Si  Si11  1  0.00000000  0.67996601  0.37070460  1
  P  P0  1  0.50000000  0.11393747  0.18846694  1
  P  P1  1  0.50000000  0.88606253  0.81153306  1
  P  P2  1  0.50000000  0.38606253  0.68846694  1
  P  P3  1  0.50000000  0.61393747  0.31153306  1
  P  P4  1  0.50000000  0.28150696  0.46564079  1
  P  P5  1  0.50000000  0.71849304  0.53435921  1
  P  P6  1  0.50000000  0.21849304  0.96564079  1
  P  P7  1  0.50000000  0.78150696  0.03435921  1
  P  P8  1  0.00000000  0.41047576  0.10661101  1
  P  P9  1  0.00000000  0.58952424  0.89338899  1
  P  P10  1  0.00000000  0.08952424  0.60661101  1
  P  P11  1  0.00000000  0.91047576  0.39338899  1
loop_
_geom_bond_atom_site_label_1
_geom_bond_atom_site_label_2
_geom_bond_distance
_geom_bond_site_symmetry_2
Si0 Si1 2.332137 1_554
Si2 Si3 2.332137 1_545
Si4 Si5 2.329701 1_544
Si4 Si8 2.344376 1_555
Si5 Si9 2.344376 1_555
Si6 Si7 2.329701 1_555
Si10 Si6 2.344376 1_555
Si11 Si7 2.344376 1_555
P0 Si8 2.220838 1_555
P0 Si8 2.220838 1_655
P0 Rb0 3.495237 1_655
P0 Rb0 3.495237 1_555
P0 Rb3 3.546413 1_645
P0 Rb3 3.546413 1_545
P1 Si9 2.220838 1_555
P1 Si9 2.220838 1_655
P1 Rb1 3.495237 1_655
P1 Rb1 3.495237 1_555
P1 Rb2 3.546413 1_565
P1 Rb2 3.546413 1_665
P2 Si10 2.220838 1_655
P2 Si10 2.220838 1_555
P2 Rb2 3.495237 1_555
P2 Rb2 3.495237 1_655
P2 Rb1 3.546413 1_655
P2 Rb1 3.546413 1_555
P3 Si11 2.220838 1_555
P3 Si11 2.220838 1_655
P3 Rb3 3.495237 1_555
P3 Rb3 3.495237 1_655
P3 Rb0 3.546413 1_555
P3 Rb0 3.546413 1_655
P4 Si6 2.273012 1_655
P4 Si6 2.273012 1_555
P4 Si2 2.298229 1_555
P4 Rb0 3.584156 1_655
P4 Rb0 3.584156 1_555
P5 Si7 2.273012 1_655
P5 Si7 2.273012 1_555
P5 Si3 2.298229 1_555
P5 Rb1 3.584156 1_655
P5 Rb1 3.584156 1_555
P6 Si4 2.273012 1_556
P6 Si4 2.273012 1_656
P6 Si0 2.298229 1_556
P6 Rb2 3.584156 1_555
P6 Rb2 3.584156 1_655
P7 Si5 2.273012 1_554
P7 Si5 2.273012 1_654
P7 Si1 2.298229 1_554
P7 Rb3 3.584156 1_555
P7 Rb3 3.584156 1_655
P8 Si0 2.265623 1_555
P8 Si0 2.265623 1_455
P8 Si8 2.316187 1_555
P9 Si1 2.265623 1_455
P9 Si1 2.265623 1_555
P9 Si9 2.316187 1_555
P10 Si2 2.265623 1_555
P10 Si2 2.265623 1_455
P10 Si10 2.316187 1_555
P11 Si3 2.265623 1_555
P11 Si3 2.265623 1_455
P11 Si11 2.316187 1_555
