# generated using pymatgen
data_Y(TcO4)3
_symmetry_space_group_name_H-M   'P 1'
_cell_length_a   9.68067282
_cell_length_b   9.68067293
_cell_length_c   6.13354795
_cell_angle_alpha   90.00000000
_cell_angle_beta   90.00000000
_cell_angle_gamma   120.00000190
_symmetry_Int_Tables_number   1
_chemical_formula_structural   Y(TcO4)3
_chemical_formula_sum   'Y2 Tc6 O24'
_cell_volume   497.79837862
_cell_formula_units_Z   2
loop_
 _symmetry_equiv_pos_site_id
 _symmetry_equiv_pos_as_xyz
  1  'x, y, z'
loop_
 _atom_site_type_symbol
 _atom_site_label
 _atom_site_symmetry_multiplicity
 _atom_site_fract_x
 _atom_site_fract_y
 _atom_site_fract_z
 _atom_site_occupancy
  Y  Y0  1  0.66666700  0.33333300  0.75000000  1
  Y  Y1  1  0.33333300  0.66666700  0.25000000  1
  Tc  Tc0  1  0.60689904  0.70541623  0.75000000  1
  Tc  Tc1  1  0.09851719  0.39310096  0.75000000  1
  Tc  Tc2  1  0.29458377  0.90148281  0.75000000  1
  Tc  Tc3  1  0.39310096  0.29458377  0.25000000  1
  Tc  Tc4  1  0.90148281  0.60689904  0.25000000  1
  Tc  Tc5  1  0.70541623  0.09851719  0.25000000  1
  O  O0  1  0.54786459  0.50652804  0.75000000  1
  O  O1  1  0.95866245  0.45213541  0.75000000  1
  O  O2  1  0.49347196  0.04133755  0.75000000  1
  O  O3  1  0.45213541  0.49347196  0.25000000  1
  O  O4  1  0.04133755  0.54786459  0.25000000  1
  O  O5  1  0.50652804  0.95866245  0.25000000  1
  O  O6  1  0.46777825  0.25002698  0.02150179  1
  O  O7  1  0.78224672  0.53222175  0.02150179  1
  O  O8  1  0.74997302  0.21775328  0.02150179  1
  O  O9  1  0.53222175  0.74997302  0.52150179  1
  O  O10  1  0.21775328  0.46777825  0.52150179  1
  O  O11  1  0.25002698  0.78224672  0.52150179  1
  O  O12  1  0.53222175  0.74997302  0.97849821  1
  O  O13  1  0.21775328  0.46777825  0.97849821  1
  O  O14  1  0.25002698  0.78224672  0.97849821  1
  O  O15  1  0.46777825  0.25002698  0.47849821  1
  O  O16  1  0.78224672  0.53222175  0.47849821  1
  O  O17  1  0.74997302  0.21775328  0.47849821  1
  O  O18  1  0.80537070  0.81496509  0.75000000  1
  O  O19  1  0.00959439  0.19462930  0.75000000  1
  O  O20  1  0.18503491  0.99040561  0.75000000  1
  O  O21  1  0.19462930  0.18503491  0.25000000  1
  O  O22  1  0.99040561  0.80537070  0.25000000  1
  O  O23  1  0.81496509  0.00959439  0.25000000  1
loop_
_geom_bond_atom_site_label_1
_geom_bond_atom_site_label_2
_geom_bond_distance
_geom_bond_site_symmetry_2
O0 Tc0 1.712695 1_555
O0 Y0 2.462138 1_555
O1 Tc1 1.712704 1_655
O1 Y0 2.462121 1_555
O2 Tc2 1.712697 1_545
O2 Y0 2.462123 1_555
O3 Tc3 1.712695 1_555
O3 Y1 2.462138 1_555
O4 Tc4 1.712704 1_455
O4 Y1 2.462121 1_555
O5 Tc5 1.712697 1_565
O5 Y1 2.462123 1_555
O6 Tc3 1.727634 1_555
O6 Y0 2.361744 1_554
O7 Tc4 1.727643 1_555
O7 Y0 2.361742 1_554
O8 Tc5 1.727644 1_555
O8 Y0 2.361726 1_554
O9 Tc0 1.727634 1_555
O9 Y1 2.361744 1_555
O10 Tc1 1.727643 1_555
O10 Y1 2.361742 1_555
O11 Tc2 1.727644 1_555
O11 Y1 2.361726 1_555
O12 Tc0 1.727634 1_555
O12 Y1 2.361744 1_556
O13 Tc1 1.727643 1_555
O13 Y1 2.361742 1_556
O14 Tc2 1.727644 1_555
O14 Y1 2.361726 1_556
O15 Tc3 1.727634 1_555
O15 Y0 2.361744 1_555
O16 Tc4 1.727643 1_555
O16 Y0 2.361742 1_555
O17 Tc5 1.727644 1_555
O17 Y0 2.361726 1_555
O18 Tc0 1.666921 1_555
O19 Tc1 1.666921 1_555
O20 Tc2 1.666921 1_555
O21 Tc3 1.666921 1_555
O22 Tc4 1.666921 1_555
O23 Tc5 1.666921 1_555
