# generated using pymatgen
data_Ag8Ge(SeS2)2
_symmetry_space_group_name_H-M   'P 1'
_cell_length_a   7.58898581
_cell_length_b   7.76490945
_cell_length_c   10.63022776
_cell_angle_alpha   90.00000000
_cell_angle_beta   90.00000000
_cell_angle_gamma   90.00000000
_symmetry_Int_Tables_number   1
_chemical_formula_structural   Ag8Ge(SeS2)2
_chemical_formula_sum   'Ag16 Ge2 Se4 S8'
_cell_volume   626.41580411
_cell_formula_units_Z   2
loop_
 _symmetry_equiv_pos_site_id
 _symmetry_equiv_pos_as_xyz
  1  'x, y, z'
loop_
 _atom_site_type_symbol
 _atom_site_label
 _atom_site_symmetry_multiplicity
 _atom_site_fract_x
 _atom_site_fract_y
 _atom_site_fract_z
 _atom_site_occupancy
  Ag  Ag0  1  0.29684841  0.00000000  0.47635854  1
  Ag  Ag1  1  0.70315159  0.50000000  0.97635854  1
  Ag  Ag2  1  0.85594412  0.22092361  0.15084507  1
  Ag  Ag3  1  0.14405588  0.27907639  0.65084507  1
  Ag  Ag4  1  0.14405588  0.72092361  0.65084507  1
  Ag  Ag5  1  0.85594412  0.77907639  0.15084507  1
  Ag  Ag6  1  0.47008335  0.20205457  0.26490424  1
  Ag  Ag7  1  0.52991665  0.29794543  0.76490424  1
  Ag  Ag8  1  0.52991665  0.70205457  0.76490424  1
  Ag  Ag9  1  0.47008335  0.79794543  0.26490424  1
  Ag  Ag10  1  0.89965551  0.20508023  0.87184813  1
  Ag  Ag11  1  0.10034449  0.29491977  0.37184813  1
  Ag  Ag12  1  0.10034449  0.70508023  0.37184813  1
  Ag  Ag13  1  0.89965551  0.79491977  0.87184813  1
  Ag  Ag14  1  0.64276229  0.50000000  0.52969369  1
  Ag  Ag15  1  0.35723771  0.00000000  0.02969369  1
  Ge  Ge0  1  0.74967793  0.00000000  0.52136333  1
  Ge  Ge1  1  0.25032207  0.50000000  0.02136333  1
  Se  Se0  1  0.81871753  0.50000000  0.74616687  1
  Se  Se1  1  0.18128247  0.00000000  0.24616687  1
  Se  Se2  1  0.29550543  0.50000000  0.51018593  1
  Se  Se3  1  0.70449457  0.00000000  0.01018593  1
  S  S0  1  0.75086678  0.76419583  0.40136754  1
  S  S1  1  0.24913322  0.73580417  0.90136754  1
  S  S2  1  0.48543721  0.50000000  0.14719856  1
  S  S3  1  0.51456279  0.00000000  0.64719856  1
  S  S4  1  0.02078205  0.50000000  0.15490109  1
  S  S5  1  0.97921795  0.00000000  0.65490109  1
  S  S6  1  0.75086678  0.23580417  0.40136754  1
  S  S7  1  0.24913322  0.26419583  0.90136754  1
loop_
_geom_bond_atom_site_label_1
_geom_bond_atom_site_label_2
_geom_bond_distance
_geom_bond_site_symmetry_2
Ag0 S3 2.455193 1_555
Ag0 Se1 2.599411 1_555
Ag0 S5 3.068010 1_455
Ag1 S2 2.455193 1_556
Ag1 Se0 2.599411 1_555
Ag1 S4 3.068010 1_656
Ag2 S4 2.502527 1_655
Ag2 Se3 2.549415 1_555
Ag2 S6 2.782338 1_555
Ag2 Se1 3.172608 1_655
Ag3 S5 2.502527 1_455
Ag3 Se2 2.549415 1_555
Ag3 S7 2.782338 1_555
Ag3 Se0 3.172608 1_455
Ag4 S5 2.502527 1_465
Ag4 Se2 2.549415 1_555
Ag4 S1 2.782338 1_555
Ag4 Se0 3.172608 1_455
Ag5 S4 2.502527 1_655
Ag5 Se3 2.549415 1_565
Ag5 S0 2.782338 1_555
Ag5 Se1 3.172608 1_665
Ag6 S6 2.591060 1_555
Ag6 S2 2.632783 1_555
Ag6 Se1 2.702740 1_555
Ag7 S7 2.591060 1_555
Ag7 S3 2.632783 1_555
Ag7 Se0 2.702740 1_555
Ag8 S1 2.591060 1_555
Ag8 S3 2.632783 1_565
Ag8 Se0 2.702740 1_555
Ag9 S0 2.591060 1_555
Ag9 S2 2.632783 1_555
Ag9 Se1 2.702740 1_565
Ag10 Se3 2.625255 1_556
Ag10 S7 2.709842 1_655
Ag10 Se0 2.721480 1_555
Ag10 S5 2.866870 1_555
Ag11 Se2 2.625255 1_555
Ag11 S6 2.709842 1_455
Ag11 Se1 2.721480 1_555
Ag11 S4 2.866870 1_555
Ag12 Se2 2.625255 1_555
Ag12 S0 2.709842 1_455
Ag12 Se1 2.721480 1_565
Ag12 S4 2.866870 1_555
Ag13 Se3 2.625255 1_566
Ag13 S1 2.709842 1_655
Ag13 Se0 2.721480 1_555
Ag13 S5 2.866870 1_565
Ag14 S0 2.596614 1_555
Ag14 S6 2.596614 1_555
Ag14 Se2 2.643474 1_555
Ag14 Se0 2.660530 1_555
Ag15 S7 2.596614 1_554
Ag15 S1 2.596614 1_544
Ag15 Se3 2.643474 1_555
Ag15 Se1 2.660530 1_555
Ge0 S3 2.230023 1_555
Ge0 S6 2.231534 1_555
Ge0 S0 2.231534 1_545
Ge0 S5 2.247124 1_555
Ge1 S2 2.230023 1_555
Ge1 S1 2.231534 1_554
Ge1 S7 2.231534 1_554
Ge1 S4 2.247124 1_555
