# generated using pymatgen
data_Sr(Li2Au)2
_symmetry_space_group_name_H-M   'P 1'
_cell_length_a   8.63536343
_cell_length_b   8.63536318
_cell_length_c   8.63536301
_cell_angle_alpha   30.06527955
_cell_angle_beta   30.06528340
_cell_angle_gamma   30.06528863
_symmetry_Int_Tables_number   1
_chemical_formula_structural   Sr(Li2Au)2
_chemical_formula_sum   'Sr1 Li4 Au2'
_cell_volume   143.17351148
_cell_formula_units_Z   1
loop_
 _symmetry_equiv_pos_site_id
 _symmetry_equiv_pos_as_xyz
  1  'x, y, z'
loop_
 _atom_site_type_symbol
 _atom_site_label
 _atom_site_symmetry_multiplicity
 _atom_site_fract_x
 _atom_site_fract_y
 _atom_site_fract_z
 _atom_site_occupancy
  Sr  Sr0  1  0.00000000  0.00000000  0.00000000  1
  Li  Li0  1  0.43559723  0.43559723  0.43559723  1
  Li  Li1  1  0.14038713  0.14038713  0.14038713  1
  Li  Li2  1  0.56440277  0.56440277  0.56440277  1
  Li  Li3  1  0.85961287  0.85961287  0.85961287  1
  Au  Au0  1  0.75348885  0.75348885  0.75348885  1
  Au  Au1  1  0.24651115  0.24651115  0.24651115  1
loop_
_geom_bond_atom_site_label_1
_geom_bond_atom_site_label_2
_geom_bond_distance
_geom_bond_site_symmetry_2
Li0 Li1 2.752551 1_556
Li0 Li1 2.752551 1_565
Li0 Li1 2.752552 1_655
Li0 Sr0 3.616304 1_556
Li0 Sr0 3.616304 1_565
Li0 Sr0 3.616304 1_655
Li1 Li3 2.894182 1_445
Li1 Li3 2.894182 1_454
Li1 Li3 2.894183 1_544
Li1 Sr0 3.469942 1_555
Li2 Li3 2.752551 1_554
Li2 Li3 2.752551 1_545
Li2 Li3 2.752552 1_455
Li2 Sr0 3.616304 1_665
Li2 Sr0 3.616304 1_656
Li2 Sr0 3.616304 1_566
Li3 Sr0 3.469942 1_666
Au0 Li0 2.614249 1_556
Au0 Li0 2.614250 1_565
Au0 Li0 2.614250 1_655
Au0 Li3 2.623063 1_555
Au0 Li1 2.905426 1_665
Au0 Li1 2.905427 1_656
Au0 Li1 2.905427 1_566
Au0 Sr0 3.360633 1_665
Au0 Sr0 3.360634 1_656
Au0 Sr0 3.360634 1_566
Au1 Li2 2.614249 1_554
Au1 Li2 2.614250 1_545
Au1 Li2 2.614250 1_455
Au1 Li1 2.623063 1_555
Au1 Li3 2.905426 1_445
Au1 Li3 2.905427 1_454
Au1 Li3 2.905427 1_544
Au1 Sr0 3.360633 1_556
Au1 Sr0 3.360634 1_565
Au1 Sr0 3.360634 1_655
