# generated using pymatgen
data_Cs4MgZn5Te8
_symmetry_space_group_name_H-M   'P 1'
_cell_length_a   10.56042703
_cell_length_b   10.56120399
_cell_length_c   10.56042636
_cell_angle_alpha   144.19215930
_cell_angle_beta   105.62593881
_cell_angle_gamma   85.38882730
_symmetry_Int_Tables_number   1
_chemical_formula_structural   Cs4MgZn5Te8
_chemical_formula_sum   'Cs4 Mg1 Zn5 Te8'
_cell_volume   643.40557104
_cell_formula_units_Z   1
loop_
 _symmetry_equiv_pos_site_id
 _symmetry_equiv_pos_as_xyz
  1  'x, y, z'
loop_
 _atom_site_type_symbol
 _atom_site_label
 _atom_site_symmetry_multiplicity
 _atom_site_fract_x
 _atom_site_fract_y
 _atom_site_fract_z
 _atom_site_occupancy
  Cs  Cs0  1  0.12429732  0.23540552  0.35622755  1
  Cs  Cs1  1  0.37961746  0.73139726  0.10589843  1
  Cs  Cs2  1  0.62082003  0.26459448  0.88889180  1
  Cs  Cs3  1  0.87450118  0.76860274  0.64822021  1
  Mg  Mg0  1  0.01794375  0.25000000  0.76794375  1
  Zn  Zn0  1  0.52149538  0.75000000  0.77149538  1
  Zn  Zn1  1  0.98057442  0.75000000  0.23057442  1
  Zn  Zn2  1  0.48165809  0.25000000  0.23165809  1
  Zn  Zn3  1  0.75111977  0.25000000  0.50111977  1
  Zn  Zn4  1  0.25191183  0.75000000  0.50191183  1
  Te  Te0  1  0.22157933  0.06279786  0.58141647  1
  Te  Te1  1  0.28526361  0.87871343  0.85761335  1
  Te  Te2  1  0.01861861  0.43720214  0.15878247  1
  Te  Te3  1  0.47889892  0.62128657  0.40654919  1
  Te  Te4  1  0.77678173  0.91618298  0.39196568  1
  Te  Te5  1  0.71699148  0.12324377  0.14538614  1
  Te  Te6  1  0.97578270  0.58381702  0.86059775  1
  Te  Te7  1  0.52214138  0.37675623  0.59374771  1
loop_
_geom_bond_atom_site_label_1
_geom_bond_atom_site_label_2
_geom_bond_distance
_geom_bond_site_symmetry_2
Cs0 Te7 3.928079 1_555
Cs0 Te0 3.930402 1_555
Cs0 Te2 3.963196 1_555
Cs0 Te1 3.967975 1_555
Cs0 Te6 4.012891 1_444
Cs0 Te6 4.019074 1_455
Cs0 Te5 4.030399 1_455
Cs0 Te1 4.052893 1_544
Cs1 Te1 3.904905 1_554
Cs1 Te0 3.914184 1_565
Cs1 Te4 3.931179 1_555
Cs1 Te7 3.972439 1_565
Cs1 Te6 3.986950 1_454
Cs1 Te7 4.020960 1_554
Cs1 Te3 4.065900 1_555
Cs1 Te0 4.099183 1_554
Cs2 Te5 3.928089 1_556
Cs2 Te2 3.930422 1_656
Cs2 Te0 3.963187 1_555
Cs2 Te3 3.967971 1_545
Cs2 Te4 4.012897 1_556
Cs2 Te4 4.019096 1_545
Cs2 Te7 4.030399 1_555
Cs2 Te3 4.052879 1_556
Cs3 Te3 3.904916 1_555
Cs3 Te2 3.914177 1_655
Cs3 Te6 3.931169 1_555
Cs3 Te5 3.972441 1_555
Cs3 Te4 3.986949 1_555
Cs3 Te5 4.020967 1_566
Cs3 Te1 4.065911 1_655
Cs3 Te2 4.099181 1_666
Mg0 Te0 2.774028 1_555
Mg0 Te2 2.774038 1_556
Mg0 Te4 2.823472 1_445
Mg0 Te6 2.823479 1_455
Te0 Zn4 2.682680 1_545
Te0 Zn1 2.745501 1_445
Te1 Zn2 2.655558 1_566
Te1 Zn4 2.676604 1_555
Te1 Zn0 2.751420 1_555
Te2 Zn4 2.682679 1_555
Te2 Zn1 2.745508 1_455
Te3 Zn2 2.655564 1_555
Te3 Zn4 2.676596 1_555
Te3 Zn0 2.751428 1_555
Te4 Zn1 2.670911 1_555
Te4 Zn3 2.693429 1_565
Te5 Zn0 2.657678 1_544
Te5 Zn3 2.688116 1_555
Te5 Zn2 2.739540 1_555
Te6 Zn1 2.670920 1_556
Te6 Zn3 2.693427 1_555
Te7 Zn0 2.657678 1_555
Te7 Zn3 2.688126 1_555
Te7 Zn2 2.739542 1_555
