# generated using pymatgen
data_Er3Al2
_symmetry_space_group_name_H-M   'P 1'
_cell_length_a   7.54089724
_cell_length_b   8.11308160
_cell_length_c   8.11308160
_cell_angle_alpha   90.00000000
_cell_angle_beta   90.00000000
_cell_angle_gamma   90.00000000
_symmetry_Int_Tables_number   1
_chemical_formula_structural   Er3Al2
_chemical_formula_sum   'Er12 Al8'
_cell_volume   496.35763980
_cell_formula_units_Z   4
loop_
 _symmetry_equiv_pos_site_id
 _symmetry_equiv_pos_as_xyz
  1  'x, y, z'
loop_
 _atom_site_type_symbol
 _atom_site_label
 _atom_site_symmetry_multiplicity
 _atom_site_fract_x
 _atom_site_fract_y
 _atom_site_fract_z
 _atom_site_occupancy
  Er  Er0  1  0.25000100  0.00000000  0.50000000  1
  Er  Er1  1  0.74999900  0.00000000  0.50000000  1
  Er  Er2  1  0.25000100  0.50000000  -0.00000000  1
  Er  Er3  1  0.74999900  0.50000000  -0.00000000  1
  Er  Er4  1  -0.00000000  0.15151927  0.15151927  1
  Er  Er5  1  0.50000000  0.34848073  0.65151927  1
  Er  Er6  1  0.50000000  0.65151927  0.34848073  1
  Er  Er7  1  -0.00000000  0.84848073  0.84848073  1
  Er  Er8  1  -0.00000000  0.70142097  0.29857903  1
  Er  Er9  1  0.50000000  0.20141997  0.20141997  1
  Er  Er10  1  0.50000000  0.79858003  0.79858003  1
  Er  Er11  1  -0.00000000  0.29857903  0.70142097  1
  Al  Al0  1  0.19741462  0.38134604  0.38134604  1
  Al  Al1  1  0.69741362  0.11865396  0.88134604  1
  Al  Al2  1  0.69741362  0.88134604  0.11865396  1
  Al  Al3  1  0.19741462  0.61865396  0.61865396  1
  Al  Al4  1  0.30258638  0.88134604  0.11865396  1
  Al  Al5  1  0.30258638  0.11865396  0.88134604  1
  Al  Al6  1  0.80258538  0.38134604  0.38134604  1
  Al  Al7  1  0.80258538  0.61865396  0.61865396  1
loop_
_geom_bond_atom_site_label_1
_geom_bond_atom_site_label_2
_geom_bond_distance
_geom_bond_site_symmetry_2
Er0 Er10 3.477425 1_545
Er0 Er9 3.477425 1_555
Er0 Er8 3.477432 1_545
Er0 Er11 3.477432 1_555
Er0 Er6 3.613661 1_545
Er0 Er5 3.613661 1_555
Er0 Er7 3.613669 1_545
Er0 Er4 3.613669 1_555
Er0 Er1 3.770434 1_555
Er0 Er1 3.770464 1_455
Er1 Er10 3.477425 1_545
Er1 Er9 3.477425 1_555
Er1 Er8 3.477432 1_645
Er1 Er11 3.477432 1_655
Er1 Er5 3.613661 1_555
Er1 Er6 3.613661 1_545
Er1 Er4 3.613669 1_655
Er1 Er7 3.613669 1_645
Er2 Er9 3.477425 1_555
Er2 Er8 3.477432 1_555
Er2 Er6 3.613661 1_555
Er2 Er5 3.613661 1_554
Er2 Er4 3.613669 1_555
Er2 Er7 3.613669 1_554
Er2 Er3 3.770434 1_555
Er2 Er3 3.770464 1_455
Er3 Er9 3.477425 1_555
Er3 Er8 3.477432 1_655
Er3 Er5 3.613661 1_554
Er3 Er6 3.613661 1_555
Er3 Er7 3.613669 1_654
Er3 Er4 3.613669 1_655
Er10 Er3 3.477425 1_556
Er10 Er2 3.477425 1_556
Er11 Er2 3.477432 1_556
Er11 Er3 3.477432 1_456
Al0 Al3 2.722783 1_555
Al0 Al6 2.977367 1_455
Al0 Er4 3.028146 1_555
Al0 Er11 3.067641 1_555
Al0 Er8 3.067641 1_555
Al0 Er9 3.077048 1_555
Al0 Er6 3.175238 1_555
Al0 Er5 3.175238 1_555
Al0 Er0 3.264370 1_555
Al0 Er2 3.264370 1_555
Al1 Al2 2.722783 1_546
Al1 Al5 2.977352 1_555
Al1 Er5 3.028142 1_555
Al1 Er9 3.067629 1_556
Al1 Er10 3.067629 1_545
Al1 Er11 3.077045 1_655
Al1 Er7 3.175244 1_645
Al1 Er4 3.175244 1_656
Al1 Er3 3.264369 1_556
Al1 Er1 3.264369 1_555
Al2 Al4 2.977352 1_555
Al2 Er6 3.028142 1_555
Al2 Er9 3.067629 1_565
Al2 Er10 3.067629 1_554
Al2 Er8 3.077045 1_655
Al2 Er4 3.175244 1_665
Al2 Er7 3.175244 1_654
Al2 Er1 3.264369 1_565
Al2 Er3 3.264369 1_555
Al3 Al7 2.977367 1_455
Al3 Er7 3.028146 1_555
Al3 Er11 3.067641 1_555
Al3 Er8 3.067641 1_555
Al3 Er10 3.077048 1_555
Al3 Er6 3.175238 1_555
Al3 Er5 3.175238 1_555
Al3 Er0 3.264370 1_565
Al3 Er2 3.264370 1_556
Al4 Al5 2.722783 1_564
Al4 Er6 3.028142 1_555
Al4 Er9 3.067629 1_565
Al4 Er10 3.067629 1_554
Al4 Er8 3.077045 1_555
Al4 Er7 3.175244 1_554
Al4 Er4 3.175244 1_565
Al4 Er0 3.264369 1_565
Al4 Er2 3.264369 1_555
Al5 Er5 3.028142 1_555
Al5 Er9 3.067629 1_556
Al5 Er10 3.067629 1_545
Al5 Er11 3.077045 1_555
Al5 Er7 3.175244 1_545
Al5 Er4 3.175244 1_556
Al5 Er2 3.264369 1_556
Al5 Er0 3.264369 1_555
Al6 Al7 2.722783 1_555
Al6 Er4 3.028146 1_655
Al6 Er8 3.067641 1_655
Al6 Er11 3.067641 1_655
Al6 Er9 3.077048 1_555
Al6 Er6 3.175238 1_555
Al6 Er5 3.175238 1_555
Al6 Er3 3.264370 1_555
Al6 Er1 3.264370 1_555
Al7 Er7 3.028146 1_655
Al7 Er11 3.067641 1_655
Al7 Er8 3.067641 1_655
Al7 Er10 3.077048 1_555
Al7 Er6 3.175238 1_555
Al7 Er5 3.175238 1_555
Al7 Er3 3.264370 1_556
Al7 Er1 3.264370 1_565
