# generated using pymatgen
data_Rb2VAuSe4
_symmetry_space_group_name_H-M   'P 1'
_cell_length_a   13.98089046
_cell_length_b   12.46791092
_cell_length_c   7.56704985
_cell_angle_alpha   84.75663745
_cell_angle_beta   62.62930823
_cell_angle_gamma   32.61405958
_symmetry_Int_Tables_number   1
_chemical_formula_structural   Rb2VAuSe4
_chemical_formula_sum   'Rb4 V2 Au2 Se8'
_cell_volume   496.27577956
_cell_formula_units_Z   2
loop_
 _symmetry_equiv_pos_site_id
 _symmetry_equiv_pos_as_xyz
  1  'x, y, z'
loop_
 _atom_site_type_symbol
 _atom_site_label
 _atom_site_symmetry_multiplicity
 _atom_site_fract_x
 _atom_site_fract_y
 _atom_site_fract_z
 _atom_site_occupancy
  Rb  Rb0  1  0.18124048  0.18124048  0.81875952  1
  Rb  Rb1  1  0.43124048  0.43124048  0.06875952  1
  Rb  Rb2  1  0.81875952  0.81875952  0.18124048  1
  Rb  Rb3  1  0.06875952  0.06875952  0.43124048  1
  V  V0  1  0.00000000  0.00000000  0.00000000  1
  V  V1  1  0.25000000  0.25000000  0.25000000  1
  Au  Au0  1  0.50000000  0.50000000  0.50000000  1
  Au  Au1  1  0.75000000  0.75000000  0.75000000  1
  Se  Se0  1  0.74480216  0.36862542  0.05664462  1
  Se  Se1  1  0.36862542  0.74480216  0.82992680  1
  Se  Se2  1  0.05664462  0.82992680  0.74480216  1
  Se  Se3  1  0.82992680  0.05664462  0.36862542  1
  Se  Se4  1  0.19335538  0.42007320  0.50519784  1
  Se  Se5  1  0.42007320  0.19335538  0.88137458  1
  Se  Se6  1  0.88137458  0.50519784  0.42007320  1
  Se  Se7  1  0.50519784  0.88137458  0.19335538  1
loop_
_geom_bond_atom_site_label_1
_geom_bond_atom_site_label_2
_geom_bond_distance
_geom_bond_site_symmetry_2
Rb0 Se7 3.447664 1_545
Rb0 Se6 3.447671 1_456
Rb0 Se1 3.547408 1_545
Rb0 Se0 3.547409 1_456
Rb0 Se4 3.703284 1_555
Rb0 Se5 3.703288 1_555
Rb0 Se7 3.803109 1_456
Rb0 Se6 3.803110 1_545
Rb1 Se2 3.447665 1_644
Rb1 Se3 3.447667 1_465
Rb1 Se5 3.547396 1_554
Rb1 Se4 3.547400 1_555
Rb1 Se0 3.703274 1_555
Rb1 Se1 3.703278 1_554
Rb1 Se2 3.803106 1_555
Rb1 Se3 3.803112 1_554
Rb2 Se4 3.447665 1_565
Rb2 Se5 3.447667 1_654
Rb2 Se3 3.547396 1_565
Rb2 Se2 3.547400 1_654
Rb2 Se7 3.703274 1_555
Rb2 Se6 3.703278 1_555
Rb2 Se4 3.803106 1_654
Rb2 Se5 3.803112 1_565
Rb3 Se0 3.447664 1_456
Rb3 Se1 3.447671 1_544
Rb3 Se6 3.547408 1_455
Rb3 Se7 3.547409 1_545
Rb3 Se2 3.703284 1_545
Rb3 Se3 3.703288 1_455
Rb3 Se0 3.803109 1_545
Rb3 Se1 3.803110 1_455
Au0 Se1 2.579620 1_555
Au0 Se0 2.579625 1_555
Au0 Se3 2.579628 1_555
Au0 Se2 2.579630 1_555
Au0 V0 2.936302 1_655
Au0 V0 2.936302 1_566
Au1 Se6 2.579620 1_555
Au1 Se7 2.579625 1_556
Au1 Se5 2.579628 1_565
Au1 Se4 2.579630 1_655
Au1 V1 2.936302 1_655
Au1 V1 2.936302 1_566
Se0 V0 2.316429 1_655
Se1 V0 2.316426 1_566
Se2 V0 2.316438 1_566
Se3 V0 2.316432 1_655
Se4 V1 2.316438 1_555
Se5 V1 2.316432 1_556
Se6 V1 2.316426 1_655
Se7 V1 2.316429 1_565
