# generated using pymatgen
data_Zr12AlZn11N4
_symmetry_space_group_name_H-M   'P 1'
_cell_length_a   8.55160258
_cell_length_b   8.55160264
_cell_length_c   8.55160300
_cell_angle_alpha   60.04897762
_cell_angle_beta   60.04898052
_cell_angle_gamma   60.04897610
_symmetry_Int_Tables_number   1
_chemical_formula_structural   Zr12AlZn11N4
_chemical_formula_sum   'Zr12 Al1 Zn11 N4'
_cell_volume   442.69987896
_cell_formula_units_Z   1
loop_
 _symmetry_equiv_pos_site_id
 _symmetry_equiv_pos_as_xyz
  1  'x, y, z'
loop_
 _atom_site_type_symbol
 _atom_site_label
 _atom_site_symmetry_multiplicity
 _atom_site_fract_x
 _atom_site_fract_y
 _atom_site_fract_z
 _atom_site_occupancy
  Zr  Zr0  1  0.81305430  0.18712133  0.18712133  1
  Zr  Zr1  1  0.18712133  0.81305430  0.18712133  1
  Zr  Zr2  1  0.81361854  0.81361854  0.18565268  1
  Zr  Zr3  1  0.18565268  0.81361854  0.81361854  1
  Zr  Zr4  1  0.81361854  0.18565268  0.81361854  1
  Zr  Zr5  1  0.18712133  0.18712133  0.81305430  1
  Zr  Zr6  1  0.43694570  0.06287867  0.06287867  1
  Zr  Zr7  1  0.06287867  0.43694570  0.06287867  1
  Zr  Zr8  1  0.43638146  0.43638146  0.06434732  1
  Zr  Zr9  1  0.06434732  0.43638146  0.43638146  1
  Zr  Zr10  1  0.43638146  0.06434732  0.43638146  1
  Zr  Zr11  1  0.06287867  0.06287867  0.43694570  1
  Al  Al0  1  0.62500000  0.62500000  0.62500000  1
  Zn  Zn0  1  0.41779275  0.41779275  0.74209203  1
  Zn  Zn1  1  0.41953337  0.41953337  0.41953337  1
  Zn  Zn2  1  0.74209203  0.41779275  0.41779275  1
  Zn  Zn3  1  0.41779275  0.74209203  0.41779275  1
  Zn  Zn4  1  0.83220725  0.83220725  0.50790797  1
  Zn  Zn5  1  0.83046663  0.83046663  0.83046663  1
  Zn  Zn6  1  0.50790797  0.83220725  0.83220725  1
  Zn  Zn7  1  0.83220725  0.50790797  0.83220725  1
  Zn  Zn8  1  0.62500000  0.62500000  0.12500000  1
  Zn  Zn9  1  0.12500000  0.62500000  0.62500000  1
  Zn  Zn10  1  0.62500000  0.12500000  0.62500000  1
  N  N0  1  0.12500000  0.12500000  0.62500000  1
  N  N1  1  0.12500000  0.12500000  0.12500000  1
  N  N2  1  0.62500000  0.12500000  0.12500000  1
  N  N3  1  0.12500000  0.62500000  0.12500000  1
loop_
_geom_bond_atom_site_label_1
_geom_bond_atom_site_label_2
_geom_bond_distance
_geom_bond_site_symmetry_2
Al0 Zn7 2.621854 1_555
Al0 Zn3 2.621854 1_555
Al0 Zn4 2.621854 1_555
Al0 Zn0 2.621854 1_555
Al0 Zn6 2.621854 1_555
Al0 Zn2 2.621854 1_555
Al0 Zr4 3.132871 1_555
Al0 Zr10 3.132871 1_565
Al0 Zr9 3.132871 1_655
Al0 Zr3 3.132871 1_555
Al0 Zr8 3.132871 1_556
Al0 Zr2 3.132871 1_555
Zn0 Zn9 2.591017 1_555
Zn0 Zn10 2.591017 1_555
Zn0 Zn1 2.743611 1_555
Zn0 Zn3 2.775331 1_555
Zn0 Zn2 2.775332 1_555
Zn0 Zr6 2.898718 1_556
Zn0 Zr7 2.898718 1_556
Zn0 Zr8 2.923191 1_556
Zn0 Zr5 3.105719 1_555
Zn0 Zr4 3.149297 1_555
Zn0 Zr3 3.149298 1_555
Zn1 Zn10 2.600625 1_555
Zn1 Zn9 2.600625 1_555
Zn1 Zn8 2.600625 1_555
Zn1 Zn2 2.743611 1_555
Zn1 Zn3 2.743611 1_555
Zn1 Zr9 2.900716 1_555
Zn1 Zr10 2.900716 1_555
Zn1 Zr8 2.900716 1_555
Zn1 Zr1 3.132475 1_555
Zn1 Zr0 3.132475 1_555
Zn1 Zr5 3.132476 1_555
Zn2 Zn8 2.591017 1_555
Zn2 Zn3 2.775331 1_555
Zn2 Zr11 2.898718 1_655
Zn2 Zr7 2.898718 1_655
Zn2 Zr9 2.923191 1_655
Zn2 Zr0 3.105719 1_555
Zn2 Zr2 3.149298 1_555
Zn2 Zr4 3.149298 1_555
Zn3 Zn9 2.591017 1_555
Zn3 Zn8 2.591017 1_555
Zn3 Zr11 2.898718 1_565
Zn3 Zr6 2.898718 1_565
Zn3 Zr10 2.923191 1_565
Zn3 Zr1 3.105719 1_555
Zn3 Zr2 3.149298 1_555
Zn3 Zr3 3.149298 1_555
Zn4 Zn9 2.591017 1_655
Zn4 Zn5 2.743611 1_555
Zn4 Zn7 2.775331 1_555
Zn4 Zn6 2.775332 1_555
Zn4 Zr0 2.898718 1_565
Zn4 Zr1 2.898718 1_655
Zn4 Zr2 2.923191 1_555
Zn4 Zr11 3.105719 1_665
Zn4 Zr10 3.149297 1_565
Zn4 Zr9 3.149298 1_655
Zn5 Zn9 2.600625 1_655
Zn5 Zn8 2.600625 1_556
Zn5 Zn6 2.743611 1_555
Zn5 Zn7 2.743611 1_555
Zn5 Zr3 2.900716 1_655
Zn5 Zr4 2.900716 1_565
Zn5 Zr2 2.900716 1_556
Zn5 Zr7 3.132475 1_656
Zn5 Zr6 3.132475 1_566
Zn5 Zr11 3.132476 1_665
Zn6 Zn8 2.591017 1_556
Zn6 Zn7 2.775331 1_555
Zn6 Zr5 2.898718 1_565
Zn6 Zr1 2.898718 1_556
Zn6 Zr3 2.923191 1_555
Zn6 Zr6 3.105719 1_566
Zn6 Zr8 3.149298 1_556
Zn6 Zr10 3.149298 1_565
Zn7 Zn9 2.591017 1_655
Zn7 Zn8 2.591017 1_556
Zn7 Zr5 2.898718 1_655
Zn7 Zr0 2.898718 1_556
Zn7 Zr4 2.923191 1_555
Zn7 Zr7 3.105719 1_656
Zn7 Zr8 3.149298 1_556
Zn7 Zr9 3.149298 1_655
Zn8 Zr2 3.121083 1_555
Zn8 Zr8 3.121083 1_555
Zn8 Zr6 3.121531 1_565
Zn8 Zr0 3.121531 1_555
Zn8 Zr7 3.121531 1_655
Zn8 Zr1 3.121531 1_555
Zn9 Zr3 3.121083 1_555
Zn9 Zr9 3.121083 1_555
Zn9 Zr11 3.121531 1_565
Zn9 Zr5 3.121531 1_555
Zn9 Zr7 3.121531 1_556
Zn9 Zr1 3.121531 1_555
Zn10 Zn4 2.591017 1_545
Zn10 Zn2 2.591017 1_555
Zn10 Zn6 2.591017 1_545
Zn10 Zn5 2.600625 1_545
Zn10 Zr4 3.121083 1_555
Zn10 Zr10 3.121083 1_555
Zn10 Zr11 3.121531 1_655
Zn10 Zr5 3.121531 1_555
Zn10 Zr6 3.121531 1_556
Zn10 Zr0 3.121531 1_555
N0 Zr9 2.264704 1_555
N0 Zr3 2.264704 1_545
N0 Zr10 2.264704 1_555
N0 Zr4 2.264704 1_455
N0 Zr11 2.266831 1_555
N0 Zr5 2.266831 1_555
N1 Zr7 2.265481 1_555
N1 Zr1 2.265481 1_545
N1 Zr6 2.265481 1_555
N1 Zr0 2.265481 1_455
N1 Zr5 2.265481 1_554
N1 Zr11 2.265481 1_555
N2 Zr8 2.264704 1_555
N2 Zr2 2.264704 1_545
N2 Zr4 2.264705 1_554
N2 Zr10 2.264705 1_555
N2 Zr0 2.266831 1_555
N2 Zr6 2.266831 1_555
N3 Zr2 2.264704 1_455
N3 Zr8 2.264704 1_555
N3 Zr3 2.264705 1_554
N3 Zr9 2.264705 1_555
N3 Zr1 2.266831 1_555
N3 Zr7 2.266831 1_555
