# generated using pymatgen
data_YZr(Al3Ni)6
_symmetry_space_group_name_H-M   'P 1'
_cell_length_a   9.93099783
_cell_length_b   9.93099897
_cell_length_c   9.93099868
_cell_angle_alpha   42.53440407
_cell_angle_beta   42.53440164
_cell_angle_gamma   42.53440711
_symmetry_Int_Tables_number   1
_chemical_formula_structural   YZr(Al3Ni)6
_chemical_formula_sum   'Y1 Zr1 Al18 Ni6'
_cell_volume   405.34412002
_cell_formula_units_Z   1
loop_
 _symmetry_equiv_pos_site_id
 _symmetry_equiv_pos_as_xyz
  1  'x, y, z'
loop_
 _atom_site_type_symbol
 _atom_site_label
 _atom_site_symmetry_multiplicity
 _atom_site_fract_x
 _atom_site_fract_y
 _atom_site_fract_z
 _atom_site_occupancy
  Y  Y0  1  0.83295796  0.83295796  0.83295796  1
  Zr  Zr0  1  0.16706618  0.16706618  0.16706618  1
  Al  Al0  1  0.10313449  0.43165788  0.76579793  1
  Al  Al1  1  0.43165788  0.76579793  0.10313449  1
  Al  Al2  1  0.56472656  0.89817260  0.23643854  1
  Al  Al3  1  0.94758068  0.94758068  0.94758068  1
  Al  Al4  1  0.05265296  0.05265296  0.05265296  1
  Al  Al5  1  0.29250391  0.71482711  0.49265561  1
  Al  Al6  1  0.89817260  0.23643854  0.56472656  1
  Al  Al7  1  0.38805788  0.38805788  0.38805788  1
  Al  Al8  1  0.49265561  0.29250391  0.71482711  1
  Al  Al9  1  0.23643854  0.56472656  0.89817260  1
  Al  Al10  1  0.71839549  0.71839549  0.71839549  1
  Al  Al11  1  0.61241773  0.61241773  0.61241773  1
  Al  Al12  1  0.33322273  0.00125233  0.66554188  1
  Al  Al13  1  0.71482711  0.49265561  0.29250391  1
  Al  Al14  1  0.66554188  0.33322273  0.00125233  1
  Al  Al15  1  0.28099748  0.28099748  0.28099748  1
  Al  Al16  1  0.00125233  0.66554188  0.33322273  1
  Al  Al17  1  0.76579793  0.10313449  0.43165788  1
  Ni  Ni0  1  0.41808471  0.07900790  0.75864898  1
  Ni  Ni1  1  0.58119103  0.24119676  0.92181168  1
  Ni  Ni2  1  0.07900790  0.75864898  0.41808471  1
  Ni  Ni3  1  0.75864898  0.41808471  0.07900790  1
  Ni  Ni4  1  0.92181168  0.58119103  0.24119676  1
  Ni  Ni5  1  0.24119676  0.92181168  0.58119103  1
loop_
_geom_bond_atom_site_label_1
_geom_bond_atom_site_label_2
_geom_bond_distance
_geom_bond_site_symmetry_2
Al0 Ni3 2.403408 1_456
Al0 Ni0 2.439055 1_555
Al0 Ni2 2.464474 1_555
Al0 Al7 2.685399 1_555
Al0 Al8 2.719709 1_555
Al0 Al4 2.721710 1_556
Al0 Al10 2.751330 1_455
Al0 Al5 2.799472 1_555
Al0 Zr0 3.004339 1_556
Al0 Y0 3.007958 1_455
Al1 Ni0 2.403408 1_564
Al1 Ni2 2.439055 1_555
Al1 Ni3 2.464474 1_555
Al1 Al7 2.685399 1_555
Al1 Al5 2.719709 1_555
Al1 Al4 2.721710 1_565
Al1 Al10 2.751330 1_554
Al1 Al13 2.799472 1_555
Al1 Zr0 3.004339 1_565
Al1 Y0 3.007958 1_554
Al2 Ni1 2.403273 1_564
Al2 Ni5 2.441613 1_555
Al2 Ni4 2.462384 1_555
Al2 Al5 2.717937 1_555
Al2 Al3 2.743540 1_554
Al2 Zr0 2.993004 1_565
Al2 Y0 3.020376 1_554
Al3 Ni5 2.538480 1_655
Al3 Ni1 2.538480 1_565
Al3 Ni4 2.538480 1_556
Al3 Al6 2.743541 1_565
Al3 Al9 2.743541 1_655
Al3 Al4 2.842621 1_666
Al3 Y0 3.100998 1_555
Al4 Ni0 2.534078 1_554
Al4 Ni2 2.534079 1_545
Al4 Ni3 2.534079 1_455
Al4 Zr0 3.095331 1_555
Al5 Ni2 2.390063 1_555
Al5 Ni5 2.391191 1_555
Al5 Al8 2.636114 1_555
Al5 Al9 2.796757 1_555
Al5 Zr0 2.909804 1_565
Al5 Y0 2.974541 1_455
Al6 Ni5 2.403273 1_645
Al6 Ni4 2.441613 1_555
Al6 Ni1 2.462384 1_555
Al6 Al8 2.796757 1_555
Al6 Zr0 2.993005 1_655
Al6 Y0 3.020376 1_545
Al7 Ni3 2.583683 1_555
Al7 Ni0 2.583683 1_555
Al7 Ni2 2.583684 1_555
Al8 Ni0 2.390063 1_555
Al8 Ni1 2.391191 1_555
Al8 Al9 2.717938 1_555
Al8 Zr0 2.909803 1_556
Al8 Y0 2.974541 1_545
Al9 Ni4 2.403273 1_456
Al9 Ni1 2.441613 1_555
Al9 Ni5 2.462384 1_555
Al9 Zr0 2.993005 1_556
Al9 Y0 3.020376 1_455
Al10 Ni2 2.547941 1_655
Al10 Ni3 2.547942 1_556
Al10 Ni0 2.547942 1_565
Al10 Al17 2.751330 1_565
Al10 Al12 2.783635 1_565
Al10 Al16 2.783635 1_655
Al10 Al14 2.783635 1_556
Al10 Al11 2.867118 1_555
Al10 Y0 3.099368 1_555
Al11 Ni4 2.591314 1_555
Al11 Ni5 2.591314 1_555
Al11 Ni1 2.591314 1_555
Al11 Al9 2.688646 1_555
Al11 Al2 2.688646 1_555
Al11 Al6 2.688646 1_555
Al11 Al16 2.818683 1_655
Al11 Al14 2.818684 1_556
Al11 Al12 2.818684 1_565
Al12 Ni0 2.306785 1_555
Al12 Ni5 2.307411 1_545
Al12 Al15 2.780470 1_555
Al12 Al3 2.792147 1_445
Al12 Al4 2.795208 1_556
Al12 Al7 2.813771 1_555
Al13 Ni3 2.390064 1_555
Al13 Ni4 2.391191 1_555
Al13 Al8 2.636113 1_555
Al13 Al5 2.636113 1_555
Al13 Al6 2.717937 1_555
Al13 Al17 2.719709 1_555
Al13 Al2 2.796758 1_555
Al13 Zr0 2.909804 1_655
Al13 Y0 2.974541 1_554
Al14 Ni3 2.306785 1_555
Al14 Ni1 2.307411 1_554
Al14 Al15 2.780470 1_555
Al14 Al3 2.792148 1_544
Al14 Al4 2.795208 1_655
Al14 Al7 2.813771 1_555
Al15 Ni1 2.537136 1_554
Al15 Ni4 2.537136 1_455
Al15 Ni5 2.537136 1_545
Al15 Al6 2.728300 1_455
Al15 Al9 2.728301 1_554
Al15 Al2 2.728301 1_545
Al15 Al16 2.780470 1_555
Al15 Al7 2.896408 1_555
Al15 Zr0 3.082293 1_555
Al16 Ni2 2.306785 1_555
Al16 Ni4 2.307411 1_455
Al16 Al3 2.792147 1_454
Al16 Al4 2.795208 1_565
Al16 Al7 2.813771 1_555
Al17 Ni2 2.403408 1_645
Al17 Ni3 2.439055 1_555
Al17 Ni0 2.464474 1_555
Al17 Al7 2.685399 1_555
Al17 Al4 2.721710 1_655
Al17 Al8 2.799472 1_555
Al17 Zr0 3.004338 1_655
Al17 Y0 3.007958 1_545
Ni0 Y0 3.236827 1_545
Ni0 Zr0 3.247104 1_556
Ni1 Zr0 3.231946 1_556
Ni1 Y0 3.247866 1_545
Ni2 Y0 3.236827 1_455
Ni2 Zr0 3.247104 1_565
Ni3 Y0 3.236827 1_554
Ni3 Zr0 3.247103 1_655
Ni4 Zr0 3.231946 1_655
Ni4 Y0 3.247866 1_554
Ni5 Zr0 3.231946 1_565
Ni5 Y0 3.247865 1_455
