# generated using pymatgen
data_Hf6Ti15AlIr7
_symmetry_space_group_name_H-M   'P 1'
_cell_length_a   8.89215900
_cell_length_b   8.89591653
_cell_length_c   8.89591726
_cell_angle_alpha   60.00000466
_cell_angle_beta   59.98602526
_cell_angle_gamma   59.98603319
_symmetry_Int_Tables_number   1
_chemical_formula_structural   Hf6Ti15AlIr7
_chemical_formula_sum   'Hf6 Ti15 Al1 Ir7'
_cell_volume   497.48722120
_cell_formula_units_Z   1
loop_
 _symmetry_equiv_pos_site_id
 _symmetry_equiv_pos_as_xyz
  1  'x, y, z'
loop_
 _atom_site_type_symbol
 _atom_site_label
 _atom_site_symmetry_multiplicity
 _atom_site_fract_x
 _atom_site_fract_y
 _atom_site_fract_z
 _atom_site_occupancy
  Hf  Hf0  1  0.68256292  0.31890128  0.31890128  1
  Hf  Hf1  1  0.31461541  0.68358559  0.68358559  1
  Hf  Hf2  1  0.31461541  0.68358559  0.31821341  1
  Hf  Hf3  1  0.68256292  0.31890128  0.67963551  1
  Hf  Hf4  1  0.31461541  0.31821341  0.68358559  1
  Hf  Hf5  1  0.68256292  0.67963551  0.31890128  1
  Ti  Ti0  1  0.33167296  0.33092761  0.33092761  1
  Ti  Ti1  1  0.66658275  0.66743792  0.66743792  1
  Ti  Ti2  1  0.33167296  0.33092761  0.00647083  1
  Ti  Ti3  1  0.33167296  0.00647083  0.33092761  1
  Ti  Ti4  1  0.66658275  0.66743792  0.99854141  1
  Ti  Ti5  1  0.66658275  0.99854141  0.66743792  1
  Ti  Ti6  1  0.00803794  0.33065402  0.33065402  1
  Ti  Ti7  1  0.98890117  0.67036594  0.67036594  1
  Ti  Ti8  1  0.12419302  0.11457992  0.11457992  1
  Ti  Ti9  1  0.88014829  0.88320639  0.88320639  1
  Ti  Ti10  1  0.12419302  0.11457992  0.64664814  1
  Ti  Ti11  1  0.12419302  0.64664814  0.11457992  1
  Ti  Ti12  1  0.88014829  0.88320639  0.35343992  1
  Ti  Ti13  1  0.88014829  0.35343992  0.88320639  1
  Ti  Ti14  1  0.64776784  0.11741105  0.11741105  1
  Al  Al0  1  0.35929743  0.88023419  0.88023419  1
  Ir  Ir0  1  0.49832268  0.99964083  0.99964083  1
  Ir  Ir1  1  0.99985880  0.50017544  0.50017544  1
  Ir  Ir2  1  0.99985880  0.50017544  0.99979031  1
  Ir  Ir3  1  0.49832268  0.99964083  0.50239566  1
  Ir  Ir4  1  0.99985880  0.99979031  0.50017544  1
  Ir  Ir5  1  0.49832268  0.50239566  0.99964083  1
  Ir  Ir6  1  0.00212908  0.99929064  0.99929064  1
loop_
_geom_bond_atom_site_label_1
_geom_bond_atom_site_label_2
_geom_bond_distance
_geom_bond_site_symmetry_2
Hf0 Ti5 2.980543 1_545
Hf0 Ti4 2.980543 1_554
Hf0 Ti6 3.002413 1_655
Hf0 Ti0 3.016934 1_555
Hf0 Hf5 3.209062 1_555
Hf0 Hf3 3.209062 1_555
Hf0 Ir2 3.252819 1_554
Hf0 Ir4 3.252820 1_545
Hf0 Hf4 3.257457 1_555
Hf0 Hf2 3.257458 1_555
Hf0 Ti12 3.277262 1_545
Hf0 Ti13 3.277262 1_554
Hf0 Ir3 3.279980 1_545
Hf0 Ir5 3.279980 1_554
Hf0 Ti14 3.293008 1_555
Hf0 Ti8 3.324327 1_655
Hf1 Ti1 2.992940 1_555
Hf1 Ti3 3.010678 1_565
Hf1 Ti2 3.010678 1_556
Hf1 Ti7 3.018537 1_455
Hf1 Ti10 3.236861 1_565
Hf1 Ti11 3.236861 1_556
Hf1 Ir2 3.242066 1_455
Hf1 Ir4 3.242066 1_455
Hf1 Hf4 3.250320 1_555
Hf1 Hf2 3.250321 1_555
Hf1 Ir3 3.255836 1_555
Hf1 Ir5 3.255836 1_555
Hf1 Hf5 3.257457 1_555
Hf1 Hf3 3.257458 1_555
Hf1 Ti9 3.264818 1_455
Hf2 Ti4 2.992940 1_554
Hf2 Ti3 3.010673 1_565
Hf2 Ti0 3.010682 1_555
Hf2 Ti7 3.018532 1_455
Hf2 Ti11 3.236853 1_555
Hf2 Ti8 3.236859 1_565
Hf2 Ir1 3.242066 1_455
Hf2 Ir4 3.242066 1_455
Hf2 Hf4 3.250321 1_555
Hf2 Ir0 3.255836 1_554
Hf2 Ir5 3.255836 1_554
Hf2 Hf5 3.257461 1_555
Hf2 Ti12 3.264815 1_455
Hf3 Ti1 2.980539 1_555
Hf3 Ti5 2.980548 1_545
Hf3 Ti6 3.002418 1_655
Hf3 Ti2 3.016926 1_556
Hf3 Hf5 3.209062 1_555
Hf3 Ir1 3.252817 1_555
Hf3 Ir4 3.252824 1_545
Hf3 Hf4 3.257461 1_555
Hf3 Ti13 3.277262 1_555
Hf3 Ti9 3.277262 1_545
Hf3 Ir5 3.279973 1_555
Hf3 Ir0 3.279978 1_545
Hf3 Ti14 3.293008 1_556
Hf3 Ti10 3.324327 1_655
Hf4 Ti5 2.992941 1_545
Hf4 Ti2 3.010673 1_556
Hf4 Ti0 3.010682 1_555
Hf4 Ti7 3.018532 1_455
Hf4 Ti10 3.236852 1_555
Hf4 Ti8 3.236859 1_556
Hf4 Ir1 3.242066 1_455
Hf4 Ir2 3.242066 1_455
Hf4 Ir3 3.255836 1_545
Hf4 Ir0 3.255836 1_545
Hf4 Ti13 3.264815 1_455
Hf5 Ti1 2.980539 1_555
Hf5 Ti4 2.980548 1_554
Hf5 Ti6 3.002418 1_655
Hf5 Ti3 3.016926 1_565
Hf5 Ir1 3.252818 1_555
Hf5 Ir2 3.252824 1_554
Hf5 Ti12 3.277261 1_555
Hf5 Ti9 3.277262 1_554
Hf5 Ir3 3.279973 1_555
Hf5 Ir0 3.279979 1_554
Hf5 Ti14 3.293008 1_565
Hf5 Ti11 3.324326 1_655
Ti0 Ti10 2.821199 1_555
Ti0 Ti11 2.821199 1_555
Ti0 Ti14 2.835783 1_555
Ti0 Ti6 2.880251 1_555
Ti0 Ti3 2.886340 1_555
Ti0 Ti2 2.886341 1_555
Ti1 Ti12 2.841033 1_555
Ti1 Ti13 2.841033 1_555
Ti1 Ti7 2.892400 1_555
Ti1 Ti5 2.945469 1_555
Ti1 Ti4 2.945469 1_555
Ti2 Ti8 2.821193 1_555
Ti2 Ti6 2.880256 1_555
Ti2 Ti3 2.886341 1_555
Ti3 Ti8 2.821193 1_555
Ti3 Ti6 2.880256 1_555
Ti4 Ti9 2.841036 1_555
Ti4 Ti7 2.892404 1_555
Ti4 Ti5 2.945469 1_555
Ti5 Ti9 2.841036 1_555
Ti5 Ti7 2.892405 1_555
Ti6 Ti8 2.859846 1_555
Ti7 Ti9 2.833128 1_555
Ti10 Ti3 2.821208 1_555
Ti10 Ti6 2.859854 1_555
Ti10 Ti9 2.990436 1_445
Ti10 Ti13 2.990437 1_455
Ti11 Ti2 2.821208 1_555
Ti11 Ti6 2.859854 1_555
Ti11 Ti9 2.990437 1_454
Ti11 Ti12 2.990437 1_455
Ti12 Ti7 2.833113 1_555
Ti12 Ti5 2.841029 1_555
Ti12 Ti14 2.945897 1_565
Ti12 Ti8 2.990436 1_665
Ti13 Ti7 2.833113 1_555
Ti13 Ti4 2.841029 1_555
Ti13 Ti14 2.945897 1_556
Ti13 Ti8 2.990437 1_656
Ti14 Ti3 2.835792 1_555
Ti14 Ti2 2.835792 1_555
Ti14 Ti9 2.945897 1_544
Al0 Ir6 2.592644 1_555
Al0 Ir0 2.746039 1_555
Al0 Ir3 2.746039 1_555
Al0 Ir5 2.746039 1_555
Al0 Ti5 2.804866 1_555
Al0 Ti4 2.804867 1_555
Al0 Ti1 2.804867 1_555
Al0 Ti11 2.947614 1_556
Al0 Ti10 2.947615 1_565
Al0 Ti8 2.947621 1_566
Al0 Hf1 3.275584 1_555
Al0 Hf4 3.275584 1_565
Al0 Hf2 3.275584 1_556
Ir0 Ti4 2.561828 1_555
Ir0 Ti5 2.561828 1_555
Ir0 Ti2 2.570010 1_566
Ir0 Ti3 2.570010 1_566
Ir0 Ti8 2.719933 1_566
Ir0 Ti9 2.776657 1_555
Ir0 Ti14 2.800799 1_566
Ir1 Ti7 2.567279 1_555
Ir1 Ti1 2.569368 1_555
Ir1 Ti6 2.570694 1_655
Ir1 Ti0 2.572512 1_655
Ir1 Ti12 2.785875 1_555
Ir1 Ti13 2.785875 1_555
Ir1 Ti11 2.804313 1_655
Ir1 Ti10 2.804313 1_655
Ir2 Ti7 2.567287 1_555
Ir2 Ti4 2.569368 1_555
Ir2 Ti6 2.570694 1_656
Ir2 Ti2 2.572510 1_656
Ir2 Ti13 2.785867 1_555
Ir2 Ti9 2.785875 1_555
Ir2 Ti8 2.804313 1_656
Ir2 Ti11 2.804320 1_656
Ir3 Ti5 2.561828 1_555
Ir3 Ti1 2.561828 1_555
Ir3 Ti0 2.570013 1_565
Ir3 Ti3 2.570017 1_565
Ir3 Ti10 2.719934 1_565
Ir3 Ti12 2.776656 1_555
Ir3 Ti14 2.800792 1_565
Ir4 Ti7 2.567287 1_555
Ir4 Ti5 2.569368 1_555
Ir4 Ti6 2.570694 1_665
Ir4 Ti3 2.572509 1_665
Ir4 Ti12 2.785867 1_555
Ir4 Ti9 2.785875 1_555
Ir4 Ti8 2.804313 1_665
Ir4 Ti10 2.804320 1_665
Ir5 Ti4 2.561827 1_555
Ir5 Ti1 2.561828 1_555
Ir5 Ti0 2.570013 1_556
Ir5 Ti2 2.570017 1_556
Ir5 Ti11 2.719934 1_556
Ir5 Ti13 2.776656 1_555
Ir5 Ti14 2.800792 1_556
Ir6 Ti8 2.561456 1_566
Ir6 Ti10 2.561456 1_565
Ir6 Ti11 2.561456 1_556
Ir6 Ti14 2.572267 1_466
Ir6 Ti9 2.572343 1_455
Ir6 Ti12 2.572343 1_456
Ir6 Ti13 2.572343 1_465
