# generated using pymatgen
data_Sr2IrRh3
_symmetry_space_group_name_H-M   'P 1'
_cell_length_a   5.40358901
_cell_length_b   5.40358838
_cell_length_c   5.40358828
_cell_angle_alpha   61.19547347
_cell_angle_beta   61.19548037
_cell_angle_gamma   61.19547706
_symmetry_Int_Tables_number   1
_chemical_formula_structural   Sr2IrRh3
_chemical_formula_sum   'Sr2 Ir1 Rh3'
_cell_volume   114.56623572
_cell_formula_units_Z   1
loop_
 _symmetry_equiv_pos_site_id
 _symmetry_equiv_pos_as_xyz
  1  'x, y, z'
loop_
 _atom_site_type_symbol
 _atom_site_label
 _atom_site_symmetry_multiplicity
 _atom_site_fract_x
 _atom_site_fract_y
 _atom_site_fract_z
 _atom_site_occupancy
  Sr  Sr0  1  0.37428048  0.37428048  0.37428048  1
  Sr  Sr1  1  0.62571952  0.62571952  0.62571952  1
  Ir  Ir0  1  0.00000000  0.00000000  0.00000000  1
  Rh  Rh0  1  0.50000100  0.00000000  0.00000000  1
  Rh  Rh1  1  0.00000000  0.50000100  0.00000000  1
  Rh  Rh2  1  0.00000000  0.00000000  0.50000100  1
loop_
_geom_bond_atom_site_label_1
_geom_bond_atom_site_label_2
_geom_bond_distance
_geom_bond_site_symmetry_2
Ir0 Rh2 2.701789 1_554
Ir0 Rh1 2.701789 1_545
Ir0 Rh0 2.701789 1_455
Ir0 Rh2 2.701800 1_555
Ir0 Rh1 2.701800 1_555
Ir0 Rh0 2.701800 1_555
Ir0 Sr0 3.221049 1_545
Ir0 Sr1 3.221049 1_454
Ir0 Sr0 3.221049 1_554
Ir0 Sr1 3.221049 1_445
Ir0 Sr0 3.221049 1_455
Ir0 Sr1 3.221049 1_544
Rh0 Rh1 2.750461 1_645
Rh0 Rh2 2.750461 1_654
Rh0 Rh1 2.750472 1_555
Rh0 Rh2 2.750472 1_555
Rh0 Sr0 3.152115 1_555
Rh0 Sr1 3.152119 1_544
Rh0 Sr1 3.206822 1_545
Rh0 Sr1 3.206822 1_554
Rh0 Sr0 3.206827 1_554
Rh0 Sr0 3.206827 1_545
Rh1 Rh2 2.750461 1_564
Rh1 Rh2 2.750472 1_555
Rh1 Sr0 3.152115 1_555
Rh1 Sr1 3.152119 1_454
Rh1 Sr1 3.206822 1_455
Rh1 Sr1 3.206823 1_554
Rh1 Sr0 3.206827 1_554
Rh1 Sr0 3.206827 1_455
Rh2 Sr0 3.152115 1_555
Rh2 Sr1 3.152119 1_445
Rh2 Sr1 3.206822 1_455
Rh2 Sr1 3.206823 1_545
Rh2 Sr0 3.206827 1_545
Rh2 Sr0 3.206827 1_455
