# generated using pymatgen
data_K15Rb(TiBi4)2
_symmetry_space_group_name_H-M   'P 1'
_cell_length_a   11.66965756
_cell_length_b   11.66965719
_cell_length_c   11.64729067
_cell_angle_alpha   60.06338168
_cell_angle_beta   60.06338272
_cell_angle_gamma   60.31437737
_symmetry_Int_Tables_number   1
_chemical_formula_structural   K15Rb(TiBi4)2
_chemical_formula_sum   'K15 Rb1 Ti2 Bi8'
_cell_volume   1125.29072745
_cell_formula_units_Z   1
loop_
 _symmetry_equiv_pos_site_id
 _symmetry_equiv_pos_as_xyz
  1  'x, y, z'
loop_
 _atom_site_type_symbol
 _atom_site_label
 _atom_site_symmetry_multiplicity
 _atom_site_fract_x
 _atom_site_fract_y
 _atom_site_fract_z
 _atom_site_occupancy
  K  K0  1  0.62494016  0.12459210  0.62523337  1
  K  K1  1  0.62455099  0.62455099  0.12510672  1
  K  K2  1  0.12459210  0.62494016  0.62523337  1
  K  K3  1  0.62455099  0.62455099  0.62579230  1
  K  K4  1  0.77581030  0.22299034  0.22157264  1
  K  K5  1  0.22299034  0.77581030  0.77962672  1
  K  K6  1  0.77843093  0.77843093  0.22156907  1
  K  K7  1  0.77581030  0.22299034  0.77962672  1
  K  K8  1  0.22299034  0.77581030  0.22157264  1
  K  K9  1  0.47346721  0.02664079  0.47243165  1
  K  K10  1  0.47346721  0.02664079  0.02746034  1
  K  K11  1  0.02664079  0.47346721  0.47243165  1
  K  K12  1  0.02664079  0.47346721  0.02746034  1
  K  K13  1  0.22177570  0.22177570  0.77822430  1
  K  K14  1  0.47184381  0.47184381  0.02815619  1
  Rb  Rb0  1  0.03486034  0.03486034  0.46513966  1
  Ti  Ti0  1  0.74971517  0.74971517  0.75028483  1
  Ti  Ti1  1  0.49894282  0.49894282  0.50105718  1
  Bi  Bi0  1  0.40495809  0.79449432  0.40027480  1
  Bi  Bi1  1  0.84888692  0.84888692  0.45211685  1
  Bi  Bi2  1  0.45248264  0.84885884  0.84932876  1
  Bi  Bi3  1  0.84888692  0.84888692  0.85010731  1
  Bi  Bi4  1  0.79449432  0.40495809  0.40027480  1
  Bi  Bi5  1  0.39970648  0.39970648  0.40116440  1
  Bi  Bi6  1  0.39970648  0.39970648  0.79942264  1
  Bi  Bi7  1  0.84885884  0.45248264  0.84932876  1
loop_
_geom_bond_atom_site_label_1
_geom_bond_atom_site_label_2
_geom_bond_distance
_geom_bond_site_symmetry_2
K0 Ti1 3.576607 1_555
K0 Ti0 3.581532 1_545
K0 K9 3.843194 1_555
K0 K10 3.843204 1_556
K0 K4 3.856844 1_555
K0 K7 3.856854 1_555
K0 K13 3.867955 1_555
K0 Rb0 3.942231 1_655
K1 Ti0 3.565138 1_554
K1 Ti1 3.575876 1_555
K1 K14 3.845618 1_555
K1 K4 3.856034 1_555
K1 K8 3.856035 1_555
K1 K10 3.860062 1_565
K1 K12 3.860062 1_655
K1 K6 3.864307 1_555
K2 Ti1 3.576608 1_555
K2 Ti0 3.581532 1_455
K2 K8 3.856844 1_555
K2 K5 3.856854 1_555
K2 Rb0 3.942231 1_565
K3 Ti0 3.565129 1_555
K3 Ti1 3.575885 1_555
K3 K7 3.856033 1_555
K3 K5 3.856034 1_555
K3 K9 3.860063 1_565
K3 K6 3.864315 1_555
K4 K9 4.155957 1_555
K4 Rb0 4.216187 1_655
K5 K9 4.182914 1_565
K5 Rb0 4.216187 1_565
K6 K9 4.177422 1_565
K7 Rb0 4.216187 1_655
K8 Rb0 4.216187 1_565
K10 K7 4.155957 1_554
K10 K6 4.177422 1_545
K10 K8 4.182914 1_545
K10 K13 4.186507 1_554
K11 K2 3.843194 1_555
K11 K3 3.860063 1_455
K11 K8 4.155957 1_555
K11 K6 4.177422 1_455
K11 K7 4.182914 1_455
K11 K13 4.186507 1_555
K12 K2 3.843204 1_554
K12 K5 4.155957 1_554
K12 K6 4.177422 1_455
K12 K4 4.182914 1_455
K12 K13 4.186507 1_554
K13 K2 3.867955 1_555
K13 K9 4.186507 1_555
K14 K3 3.845609 1_554
K14 K5 4.163406 1_554
K14 K8 4.163406 1_555
K14 K7 4.163406 1_554
K14 K4 4.163406 1_555
Bi0 Ti1 2.823780 1_555
Bi0 K9 3.711175 1_565
Bi0 K10 3.711191 1_565
Bi0 K3 3.726186 1_555
Bi0 K1 3.726195 1_555
Bi0 K6 3.726712 1_555
Bi0 Rb0 3.735103 1_565
Bi0 K2 3.763807 1_555
Bi0 K5 3.769851 1_555
Bi0 K8 3.769871 1_555
Bi1 Ti0 2.836038 1_555
Bi1 K6 3.693150 1_555
Bi1 K4 3.727509 1_565
Bi1 K8 3.727509 1_655
Bi1 K11 3.742491 1_655
Bi1 K9 3.742491 1_565
Bi1 K3 3.743825 1_555
Bi1 K0 3.759557 1_565
Bi1 K2 3.759557 1_655
Bi1 Rb0 3.842549 1_665
Bi2 Ti0 2.839739 1_555
Bi2 K5 3.698638 1_555
Bi2 K8 3.698646 1_556
Bi2 K13 3.727730 1_565
Bi2 K9 3.738331 1_565
Bi2 K10 3.738341 1_566
Bi2 K0 3.742371 1_565
Bi2 K3 3.747078 1_555
Bi2 K1 3.747096 1_556
Bi2 K14 3.752999 1_556
Bi3 Ti0 2.836019 1_555
Bi3 K6 3.693172 1_556
Bi3 K7 3.727515 1_565
Bi3 K5 3.727515 1_655
Bi3 K12 3.742497 1_656
Bi3 K10 3.742497 1_566
Bi3 K1 3.743830 1_556
Bi3 K0 3.759550 1_565
Bi3 K2 3.759550 1_655
Bi3 Rb0 3.842535 1_665
Bi4 Ti1 2.823780 1_555
Bi4 K11 3.711175 1_655
Bi4 K12 3.711191 1_655
Bi4 K3 3.726186 1_555
Bi4 K1 3.726195 1_555
Bi4 K6 3.726712 1_555
Bi4 Rb0 3.735102 1_655
Bi4 K0 3.763807 1_555
Bi4 K7 3.769851 1_555
Bi4 K4 3.769871 1_555
Bi5 Ti1 2.837916 1_555
Bi5 K14 3.700489 1_555
Bi5 K9 3.711861 1_555
Bi5 K11 3.711861 1_555
Bi5 K13 3.738649 1_555
Bi5 K8 3.750849 1_555
Bi5 K4 3.750849 1_555
Bi5 K1 3.753119 1_555
Bi5 K0 3.761970 1_555
Bi5 K2 3.761970 1_555
Bi6 Ti1 2.837916 1_555
Bi6 K14 3.700489 1_556
Bi6 K10 3.711861 1_556
Bi6 K12 3.711861 1_556
Bi6 K13 3.738649 1_555
Bi6 K5 3.750849 1_555
Bi6 K7 3.750849 1_555
Bi6 K3 3.753121 1_555
Bi6 K0 3.761977 1_555
Bi6 K2 3.761977 1_555
Bi7 Ti0 2.839738 1_555
Bi7 K7 3.698638 1_555
Bi7 K4 3.698646 1_556
Bi7 K13 3.727730 1_655
Bi7 K11 3.738331 1_655
Bi7 K12 3.738341 1_656
Bi7 K2 3.742371 1_655
Bi7 K3 3.747078 1_555
Bi7 K1 3.747096 1_556
Bi7 K14 3.752999 1_556
