# generated using pymatgen
data_SrZr(GaAu)2
_symmetry_space_group_name_H-M   'P 1'
_cell_length_a   4.47840826
_cell_length_b   4.47840904
_cell_length_c   7.47390631
_cell_angle_alpha   90.00000000
_cell_angle_beta   90.00000000
_cell_angle_gamma   120.00000848
_symmetry_Int_Tables_number   1
_chemical_formula_structural   SrZr(GaAu)2
_chemical_formula_sum   'Sr1 Zr1 Ga2 Au2'
_cell_volume   129.81524096
_cell_formula_units_Z   1
loop_
 _symmetry_equiv_pos_site_id
 _symmetry_equiv_pos_as_xyz
  1  'x, y, z'
loop_
 _atom_site_type_symbol
 _atom_site_label
 _atom_site_symmetry_multiplicity
 _atom_site_fract_x
 _atom_site_fract_y
 _atom_site_fract_z
 _atom_site_occupancy
  Sr  Sr0  1  0.00000000  0.00000000  0.50000000  1
  Zr  Zr0  1  0.00000000  0.00000000  0.00000000  1
  Ga  Ga0  1  0.66666700  0.33333300  0.18725884  1
  Ga  Ga1  1  0.66666700  0.33333300  0.81274116  1
  Au  Au0  1  0.33333300  0.66666700  0.79543530  1
  Au  Au1  1  0.33333300  0.66666700  0.20456470  1
loop_
_geom_bond_atom_site_label_1
_geom_bond_atom_site_label_2
_geom_bond_distance
_geom_bond_site_symmetry_2
Ga0 Zr0 2.940089 1_655
Ga0 Zr0 2.940092 1_555
Ga0 Zr0 2.940092 1_665
Ga0 Sr0 3.485513 1_655
Ga0 Sr0 3.485515 1_555
Ga0 Sr0 3.485515 1_665
Ga1 Zr0 2.940089 1_656
Ga1 Zr0 2.940092 1_556
Ga1 Zr0 2.940092 1_666
Ga1 Sr0 3.485513 1_655
Ga1 Sr0 3.485515 1_555
Ga1 Sr0 3.485515 1_665
Au0 Ga1 2.588840 1_455
Au0 Ga1 2.588841 1_565
Au0 Ga1 2.588849 1_555
Au0 Zr0 3.003814 1_566
Au0 Zr0 3.003816 1_666
Au0 Zr0 3.003817 1_556
Au0 Sr0 3.400129 1_565
Au0 Sr0 3.400132 1_665
Au0 Sr0 3.400132 1_555
Au1 Ga0 2.588840 1_455
Au1 Ga0 2.588841 1_565
Au1 Ga0 2.588849 1_555
Au1 Zr0 3.003814 1_565
Au1 Zr0 3.003816 1_665
Au1 Zr0 3.003817 1_555
Au1 Sr0 3.400129 1_565
Au1 Sr0 3.400132 1_665
Au1 Sr0 3.400132 1_555
