# generated using pymatgen
data_Nb8V2Si5Ge
_symmetry_space_group_name_H-M   'P 1'
_cell_length_a   7.53139965
_cell_length_b   7.53139915
_cell_length_c   7.53139906
_cell_angle_alpha   129.08095892
_cell_angle_beta   129.08095420
_cell_angle_gamma   74.88034780
_symmetry_Int_Tables_number   1
_chemical_formula_structural   Nb8V2Si5Ge
_chemical_formula_sum   'Nb8 V2 Si5 Ge1'
_cell_volume   250.71611968
_cell_formula_units_Z   1
loop_
 _symmetry_equiv_pos_site_id
 _symmetry_equiv_pos_as_xyz
  1  'x, y, z'
loop_
 _atom_site_type_symbol
 _atom_site_label
 _atom_site_symmetry_multiplicity
 _atom_site_fract_x
 _atom_site_fract_y
 _atom_site_fract_z
 _atom_site_occupancy
  Nb  Nb0  1  0.02138820  0.51688187  0.83307319  1
  Nb  Nb1  1  0.68380768  0.18831401  0.16692681  1
  Nb  Nb2  1  0.51688187  0.68380768  0.49549367  1
  Nb  Nb3  1  0.18831401  0.02138820  0.50450633  1
  Nb  Nb4  1  0.98311813  0.47861180  0.16692681  1
  Nb  Nb5  1  0.31168599  0.81619232  0.83307319  1
  Nb  Nb6  1  0.47861180  0.31168599  0.49549367  1
  Nb  Nb7  1  0.81619232  0.98311813  0.50450633  1
  V  V0  1  0.00157153  0.00157153  1.00000000  1
  V  V1  1  0.49842847  0.49842847  0.00000000  1
  Si  Si0  1  0.25000000  0.25000000  0.00000000  1
  Si  Si1  1  0.63187041  0.13187041  0.76373982  1
  Si  Si2  1  0.36812959  0.86812959  0.23626018  1
  Si  Si3  1  0.13187041  0.36812959  0.50000000  1
  Si  Si4  1  0.86812959  0.63187041  0.50000000  1
  Ge  Ge0  1  0.75000000  0.75000000  0.00000000  1
loop_
_geom_bond_atom_site_label_1
_geom_bond_atom_site_label_2
_geom_bond_distance
_geom_bond_site_symmetry_2
Nb0 Si2 2.552636 1_556
Nb0 Si3 2.615753 1_555
Nb0 Si4 2.634735 1_455
Nb0 Si0 2.690092 1_556
Nb1 Si1 2.552652 1_554
Nb1 Si4 2.615761 1_555
Nb1 Si3 2.634743 1_655
Nb1 Si0 2.690086 1_555
Nb2 Si4 2.552638 1_555
Nb2 Si2 2.615754 1_555
Nb2 Si1 2.634743 1_565
Nb2 Si0 2.690087 1_555
Nb3 Si3 2.552637 1_555
Nb3 Si1 2.615762 1_555
Nb3 Si2 2.634735 1_545
Nb3 Si0 2.690087 1_556
Nb4 Si1 2.552636 1_554
Nb4 Si3 2.615753 1_655
Nb4 Si4 2.634735 1_555
Nb4 Si0 2.690092 1_655
Nb5 Si2 2.552652 1_556
Nb5 Si4 2.615762 1_455
Nb5 Si3 2.634743 1_555
Nb5 Si0 2.690086 1_566
Nb6 Si3 2.552638 1_555
Nb6 Si2 2.615762 1_545
Nb6 Si1 2.634735 1_555
Nb6 Si0 2.690087 1_555
Nb7 Si4 2.552637 1_555
Nb7 Si1 2.615754 1_565
Nb7 Si2 2.634743 1_555
Nb7 Si0 2.690088 1_666
Si0 V1 2.971127 1_555
Si0 V0 2.971127 1_554
Si1 Si2 2.415110 1_545
Si1 V1 2.532067 1_556
Si1 V0 2.532068 1_655
Si2 V1 2.532067 1_555
Si2 V0 2.532068 1_564
Si3 Si4 2.415119 1_455
Si3 V0 2.532065 1_554
Si3 V1 2.532066 1_556
Si4 V0 2.532065 1_665
Si4 V1 2.532066 1_555
Ge0 Nb1 2.724977 1_565
Ge0 Nb5 2.724977 1_554
Ge0 Nb7 2.724978 1_555
Ge0 Nb6 2.724978 1_554
Ge0 Nb2 2.724978 1_554
Ge0 Nb3 2.724978 1_665
Ge0 Nb0 2.724982 1_654
Ge0 Nb4 2.724982 1_555
Ge0 V0 3.008717 1_664
Ge0 V1 3.008717 1_555
