# generated using pymatgen
data_Lu6AlNiRh
_symmetry_space_group_name_H-M   'P 1'
_cell_length_a   8.13406219
_cell_length_b   8.13406166
_cell_length_c   8.13406181
_cell_angle_alpha   112.37298072
_cell_angle_beta   110.45985833
_cell_angle_gamma   105.65323436
_symmetry_Int_Tables_number   1
_chemical_formula_structural   Lu6AlNiRh
_chemical_formula_sum   'Lu12 Al2 Ni2 Rh2'
_cell_volume   412.79474147
_cell_formula_units_Z   2
loop_
 _symmetry_equiv_pos_site_id
 _symmetry_equiv_pos_as_xyz
  1  'x, y, z'
loop_
 _atom_site_type_symbol
 _atom_site_label
 _atom_site_symmetry_multiplicity
 _atom_site_fract_x
 _atom_site_fract_y
 _atom_site_fract_z
 _atom_site_occupancy
  Lu  Lu0  1  0.43742132  0.24230668  0.19511364  1
  Lu  Lu1  1  0.56257868  0.75769332  0.80488636  1
  Lu  Lu2  1  0.04719404  0.24230668  0.80488636  1
  Lu  Lu3  1  0.95280596  0.75769332  0.19511364  1
  Lu  Lu4  1  0.18182051  0.28271052  0.46453104  1
  Lu  Lu5  1  0.81817949  0.71728948  0.53546896  1
  Lu  Lu6  1  0.18182051  0.71728948  0.89910999  1
  Lu  Lu7  1  0.81817949  0.28271052  0.10089001  1
  Lu  Lu8  1  0.32304919  0.63166782  0.30861962  1
  Lu  Lu9  1  0.67695081  0.36833218  0.69138038  1
  Lu  Lu10  1  0.32304919  0.01442957  0.69138038  1
  Lu  Lu11  1  0.67695081  0.98557043  0.30861962  1
  Al  Al0  1  0.50000000  0.50000000  0.00000000  1
  Al  Al1  1  0.00000000  0.00000000  0.00000000  1
  Ni  Ni0  1  0.11875744  0.61875744  0.50000000  1
  Ni  Ni1  1  0.88124256  0.38124256  0.50000000  1
  Rh  Rh0  1  0.33313203  1.00000000  0.33313203  1
  Rh  Rh1  1  0.66686797  0.00000000  0.66686797  1
loop_
_geom_bond_atom_site_label_1
_geom_bond_atom_site_label_2
_geom_bond_distance
_geom_bond_site_symmetry_2
Lu0 Rh0 2.704170 1_545
Lu0 Ni1 3.141002 1_555
Lu0 Lu11 3.378657 1_545
Lu0 Lu9 3.378659 1_555
Lu0 Lu7 3.404327 1_555
Lu0 Lu5 3.404332 1_555
Lu0 Lu10 3.422392 1_554
Lu0 Lu8 3.422392 1_555
Lu0 Lu6 3.498383 1_544
Lu0 Lu4 3.498390 1_555
Lu0 Lu2 3.620318 1_554
Lu1 Rh1 2.704170 1_565
Lu1 Ni0 3.141002 1_555
Lu1 Lu10 3.378657 1_565
Lu1 Lu8 3.378659 1_555
Lu1 Lu6 3.404327 1_555
Lu1 Lu4 3.404332 1_555
Lu1 Lu11 3.422392 1_556
Lu1 Lu9 3.422392 1_555
Lu1 Lu7 3.498383 1_566
Lu1 Lu5 3.498390 1_555
Lu1 Lu3 3.620318 1_556
Lu2 Rh1 2.704175 1_455
Lu2 Ni1 3.141010 1_455
Lu2 Lu9 3.378675 1_455
Lu2 Lu4 3.404330 1_555
Lu2 Lu6 3.404335 1_555
Lu2 Lu8 3.422392 1_556
Lu2 Lu5 3.498382 1_445
Lu2 Lu7 3.498389 1_456
Lu3 Rh0 2.704175 1_655
Lu3 Ni0 3.141010 1_655
Lu3 Lu8 3.378675 1_655
Lu3 Lu5 3.404330 1_555
Lu3 Lu7 3.404335 1_555
Lu3 Lu9 3.422392 1_554
Lu3 Lu4 3.498382 1_665
Lu3 Lu6 3.498389 1_654
Lu4 Ni0 2.842135 1_555
Lu4 Ni1 2.842135 1_455
Lu4 Rh0 2.919099 1_545
Lu4 Lu7 3.373665 1_455
Lu4 Lu9 3.524587 1_555
Lu4 Lu8 3.603327 1_555
Lu5 Ni1 2.842135 1_555
Lu5 Ni0 2.842135 1_655
Lu5 Rh1 2.919099 1_565
Lu5 Lu6 3.373665 1_655
Lu5 Lu8 3.524587 1_555
Lu5 Lu9 3.603327 1_555
Lu6 Ni0 2.842135 1_555
Lu6 Ni1 2.842135 1_455
Lu6 Rh0 2.919099 1_556
Lu6 Lu8 3.524594 1_556
Lu6 Lu9 3.603332 1_455
Lu7 Ni1 2.842135 1_555
Lu7 Ni0 2.842135 1_655
Lu7 Rh1 2.919099 1_554
Lu7 Lu9 3.524594 1_554
Lu7 Lu8 3.603332 1_655
Lu8 Ni0 2.652241 1_555
Lu8 Rh1 2.902396 1_565
Lu8 Rh0 2.902401 1_555
Lu9 Ni1 2.652241 1_555
Lu9 Rh0 2.902396 1_545
Lu9 Rh1 2.902401 1_555
Lu10 Ni0 2.652242 1_545
Lu10 Rh0 2.902393 1_545
Lu10 Rh1 2.902393 1_555
Lu10 Lu3 3.378665 1_445
Lu10 Lu2 3.422387 1_555
Lu10 Lu4 3.524589 1_555
Lu10 Lu7 3.524589 1_556
Lu10 Lu6 3.603334 1_545
Lu10 Lu5 3.603334 1_445
Lu11 Ni1 2.652242 1_565
Lu11 Rh1 2.902393 1_565
Lu11 Rh0 2.902393 1_555
Lu11 Lu2 3.378665 1_665
Lu11 Lu3 3.422387 1_555
Lu11 Lu5 3.524589 1_555
Lu11 Lu6 3.524589 1_554
Lu11 Lu7 3.603334 1_565
Lu11 Lu4 3.603334 1_665
Al0 Lu2 3.113347 1_554
Al0 Lu3 3.113347 1_555
Al0 Lu1 3.113352 1_554
Al0 Lu0 3.113352 1_555
Al0 Lu8 3.291137 1_555
Al0 Lu9 3.291137 1_554
Al0 Lu11 3.291138 1_555
Al0 Lu10 3.291138 1_554
Al0 Lu5 3.547299 1_555
Al0 Lu4 3.547299 1_554
Al0 Lu6 3.547299 1_554
Al0 Lu7 3.547299 1_555
Al1 Lu2 2.991593 1_554
Al1 Lu3 2.991593 1_445
Al1 Lu0 2.991599 1_555
Al1 Lu1 2.991599 1_444
Al1 Lu4 3.065278 1_555
Al1 Lu5 3.065278 1_444
Al1 Lu6 3.065278 1_544
Al1 Lu7 3.065278 1_455
Al1 Rh0 3.090619 1_545
Al1 Rh1 3.090619 1_454
Ni0 Ni1 2.334693 1_455
Rh0 Rh1 3.096222 1_565
