# generated using pymatgen
data_Mg2GePRu2
_symmetry_space_group_name_H-M   'P 1'
_cell_length_a   3.94353280
_cell_length_b   6.61299583
_cell_length_c   7.07829581
_cell_angle_alpha   90.00000000
_cell_angle_beta   90.00000000
_cell_angle_gamma   90.00000000
_symmetry_Int_Tables_number   1
_chemical_formula_structural   Mg2GePRu2
_chemical_formula_sum   'Mg4 Ge2 P2 Ru4'
_cell_volume   184.59180388
_cell_formula_units_Z   2
loop_
 _symmetry_equiv_pos_site_id
 _symmetry_equiv_pos_as_xyz
  1  'x, y, z'
loop_
 _atom_site_type_symbol
 _atom_site_label
 _atom_site_symmetry_multiplicity
 _atom_site_fract_x
 _atom_site_fract_y
 _atom_site_fract_z
 _atom_site_occupancy
  Mg  Mg0  1  0.25000000  0.01874125  0.33511880  1
  Mg  Mg1  1  0.25000000  0.51874125  0.16488120  1
  Mg  Mg2  1  0.75000000  0.98549618  0.66480678  1
  Mg  Mg3  1  0.75000000  0.48549618  0.83519322  1
  Ge  Ge0  1  0.75000000  0.70979114  0.36635902  1
  Ge  Ge1  1  0.75000000  0.20979114  0.13364098  1
  P  P0  1  0.25000000  0.29776998  0.63590192  1
  P  P1  1  0.25000000  0.79776998  0.86409808  1
  Ru  Ru0  1  0.25000000  0.14640757  0.93575802  1
  Ru  Ru1  1  0.25000000  0.64640757  0.56424198  1
  Ru  Ru2  1  0.75000000  0.84179388  0.03243953  1
  Ru  Ru3  1  0.75000000  0.34179388  0.46756047  1
loop_
_geom_bond_atom_site_label_1
_geom_bond_atom_site_label_2
_geom_bond_distance
_geom_bond_site_symmetry_2
Mg0 P0 2.817374 1_555
Mg0 Ru1 2.948368 1_545
Mg0 Ru0 2.950175 1_554
Mg0 Ru3 3.054614 1_455
Mg0 Ru3 3.054614 1_555
Mg0 Ru2 3.138029 1_445
Mg0 Ru2 3.138029 1_545
Mg1 P1 2.817374 1_554
Mg1 Ru0 2.948368 1_554
Mg1 Ru1 2.950175 1_555
Mg1 Ru2 3.054614 1_455
Mg1 Ru2 3.054614 1_555
Mg1 Ru3 3.138029 1_455
Mg1 Ru3 3.138029 1_555
Mg2 P1 2.723771 1_655
Mg2 P1 2.723771 1_555
Mg2 Ru3 2.738784 1_565
Mg2 Ru2 2.770305 1_556
Mg2 P0 2.862554 1_565
Mg2 P0 2.862554 1_665
Mg2 Ru0 2.949309 1_665
Mg2 Ru0 2.949309 1_565
Mg2 Ru1 3.069671 1_655
Mg2 Ru1 3.069671 1_555
Mg3 P0 2.723771 1_655
Mg3 P0 2.723771 1_555
Mg3 Ru2 2.738784 1_556
Mg3 Ru3 2.770305 1_555
Mg3 P1 2.862554 1_655
Mg3 P1 2.862554 1_555
Mg3 Ru1 2.949309 1_555
Mg3 Ru1 2.949309 1_655
Mg3 Ru0 3.069671 1_555
Mg3 Ru0 3.069671 1_655
Ge0 Ru1 2.454678 1_655
Ge0 Ru1 2.454678 1_555
Ge0 Ru2 2.519628 1_555
Ge0 Ru3 2.536803 1_555
Ge0 Mg1 2.741877 1_655
Ge0 Mg1 2.741877 1_555
Ge0 Mg2 2.790493 1_555
Ge0 Mg0 2.847975 1_565
Ge0 Mg0 2.847975 1_665
Ge1 Ru0 2.454678 1_654
Ge1 Ru0 2.454678 1_554
Ge1 Ru3 2.519628 1_555
Ge1 Ru2 2.536803 1_545
Ge1 Mg0 2.741877 1_555
Ge1 Mg0 2.741877 1_655
Ge1 Mg3 2.790493 1_554
Ge1 Mg1 2.847975 1_655
Ge1 Mg1 2.847975 1_555
P0 Ru3 2.322167 1_455
P0 Ru3 2.322167 1_555
P0 Ru0 2.346657 1_555
P0 Ru1 2.360676 1_555
P1 Ru2 2.322167 1_456
P1 Ru2 2.322167 1_556
P1 Ru1 2.346657 1_555
P1 Ru0 2.360676 1_565
