# generated using pymatgen
data_Nb6Si2Ni4C
_symmetry_space_group_name_H-M   'P 1'
_cell_length_a   7.93609410
_cell_length_b   7.93609454
_cell_length_c   7.93609558
_cell_angle_alpha   60.00000400
_cell_angle_beta   60.00000219
_cell_angle_gamma   60.00000086
_symmetry_Int_Tables_number   1
_chemical_formula_structural   Nb6Si2Ni4C
_chemical_formula_sum   'Nb12 Si4 Ni8 C2'
_cell_volume   353.43174590
_cell_formula_units_Z   2
loop_
 _symmetry_equiv_pos_site_id
 _symmetry_equiv_pos_as_xyz
  1  'x, y, z'
loop_
 _atom_site_type_symbol
 _atom_site_label
 _atom_site_symmetry_multiplicity
 _atom_site_fract_x
 _atom_site_fract_y
 _atom_site_fract_z
 _atom_site_occupancy
  Nb  Nb0  1  0.05163588  0.05163588  0.44836412  1
  Nb  Nb1  1  0.44836412  0.05163588  0.44836412  1
  Nb  Nb2  1  0.05163588  0.44836412  0.44836412  1
  Nb  Nb3  1  0.44836412  0.44836412  0.05163588  1
  Nb  Nb4  1  0.05163588  0.44836412  0.05163588  1
  Nb  Nb5  1  0.44836412  0.05163588  0.05163588  1
  Nb  Nb6  1  0.19836412  0.19836412  0.80163588  1
  Nb  Nb7  1  0.80163588  0.19836412  0.80163588  1
  Nb  Nb8  1  0.19836412  0.80163588  0.80163588  1
  Nb  Nb9  1  0.80163588  0.80163588  0.19836412  1
  Nb  Nb10  1  0.19836412  0.80163588  0.19836412  1
  Nb  Nb11  1  0.80163588  0.19836412  0.19836412  1
  Si  Si0  1  0.62500000  0.62500000  0.12500000  1
  Si  Si1  1  0.62500000  0.12500000  0.62500000  1
  Si  Si2  1  0.12500000  0.62500000  0.62500000  1
  Si  Si3  1  0.62500000  0.62500000  0.62500000  1
  Ni  Ni0  1  0.41957385  0.41957385  0.74127844  1
  Ni  Ni1  1  0.41957385  0.74127844  0.41957385  1
  Ni  Ni2  1  0.74127844  0.41957385  0.41957385  1
  Ni  Ni3  1  0.41957385  0.41957385  0.41957385  1
  Ni  Ni4  1  0.83042615  0.83042615  0.50872156  1
  Ni  Ni5  1  0.83042615  0.50872156  0.83042615  1
  Ni  Ni6  1  0.50872156  0.83042615  0.83042615  1
  Ni  Ni7  1  0.83042615  0.83042615  0.83042615  1
  C  C0  1  0.25000000  0.25000000  0.25000000  1
  C  C1  1  0.00000000  0.00000000  0.00000000  1
loop_
_geom_bond_atom_site_label_1
_geom_bond_atom_site_label_2
_geom_bond_distance
_geom_bond_site_symmetry_2
Nb0 Ni1 2.710835 1_545
Nb0 Ni2 2.710835 1_455
Nb0 Ni4 2.791667 1_445
Nb0 Ni7 2.791667 1_445
Nb0 Si1 2.804716 1_455
Nb0 Si2 2.804716 1_545
Nb1 Ni1 2.710835 1_545
Nb1 Ni3 2.710835 1_555
Nb1 Ni4 2.791667 1_545
Nb1 Ni6 2.791667 1_545
Nb1 Si1 2.804716 1_555
Nb1 Si3 2.804716 1_545
Nb2 Ni3 2.710835 1_555
Nb2 Ni2 2.710835 1_455
Nb2 Ni4 2.791667 1_455
Nb2 Ni5 2.791667 1_455
Nb2 Si3 2.804716 1_455
Nb2 Si2 2.804716 1_555
Nb3 Ni0 2.710835 1_554
Nb3 Ni3 2.710835 1_555
Nb3 Ni5 2.791667 1_554
Nb3 Ni6 2.791667 1_554
Nb3 Si0 2.804716 1_555
Nb3 Si3 2.804716 1_554
Nb4 Ni0 2.710835 1_554
Nb4 Ni2 2.710835 1_455
Nb4 Ni5 2.791667 1_454
Nb4 Ni7 2.791667 1_454
Nb4 Si0 2.804716 1_455
Nb4 Si2 2.804716 1_554
Nb5 Ni0 2.710835 1_554
Nb5 Ni1 2.710835 1_545
Nb5 Ni7 2.791667 1_544
Nb5 Ni6 2.791667 1_544
Nb5 Si0 2.804716 1_545
Nb5 Si1 2.804716 1_554
Nb6 Ni5 2.710835 1_455
Nb6 Ni6 2.710835 1_545
Nb6 Ni0 2.791667 1_555
Nb6 Ni3 2.791667 1_555
Nb6 Si1 2.804716 1_555
Nb6 Si2 2.804716 1_555
Nb7 Ni5 2.710835 1_555
Nb7 Ni7 2.710835 1_545
Nb7 Ni0 2.791667 1_555
Nb7 Ni2 2.791667 1_555
Nb7 Si1 2.804716 1_555
Nb7 Si3 2.804716 1_555
Nb8 Ni7 2.710835 1_455
Nb8 Ni6 2.710835 1_555
Nb8 Ni0 2.791667 1_555
Nb8 Ni1 2.791667 1_555
Nb8 Si3 2.804716 1_555
Nb8 Si2 2.804716 1_555
Nb9 Ni4 2.710835 1_555
Nb9 Ni7 2.710835 1_554
Nb9 Ni1 2.791667 1_555
Nb9 Ni2 2.791667 1_555
Nb9 Si0 2.804716 1_555
Nb9 Si3 2.804716 1_555
Nb10 Ni4 2.710835 1_455
Nb10 Ni6 2.710835 1_554
Nb10 Ni1 2.791667 1_555
Nb10 Ni3 2.791667 1_555
Nb10 Si0 2.804716 1_555
Nb10 Si2 2.804716 1_555
Nb11 Ni4 2.710835 1_545
Nb11 Ni5 2.710835 1_554
Nb11 Ni3 2.791667 1_555
Nb11 Ni2 2.791667 1_555
Nb11 Si0 2.804716 1_555
Nb11 Si1 2.804716 1_555
Ni0 Si3 2.411673 1_555
Ni0 Si2 2.411673 1_555
Ni0 Si1 2.411674 1_555
Ni0 Ni2 2.553078 1_555
Ni0 Ni1 2.553078 1_555
Ni0 Ni3 2.553078 1_555
Ni1 Si2 2.411673 1_555
Ni1 Si3 2.411674 1_555
Ni1 Si0 2.411674 1_555
Ni1 Ni2 2.553078 1_555
Ni1 Ni3 2.553078 1_555
Ni2 Si1 2.411674 1_555
Ni2 Si3 2.411674 1_555
Ni2 Si0 2.411674 1_555
Ni2 Ni3 2.553078 1_555
Ni3 Si2 2.411674 1_555
Ni3 Si1 2.411674 1_555
Ni3 Si0 2.411674 1_555
Ni4 Si3 2.411673 1_555
Ni4 Si2 2.411673 1_655
Ni4 Si1 2.411674 1_565
Ni4 Ni6 2.553078 1_555
Ni4 Ni5 2.553078 1_555
Ni4 Ni7 2.553078 1_555
Ni5 Si2 2.411673 1_655
Ni5 Si3 2.411674 1_555
Ni5 Si0 2.411674 1_556
Ni5 Ni6 2.553078 1_555
Ni5 Ni7 2.553078 1_555
Ni6 Si1 2.411674 1_565
Ni6 Si3 2.411674 1_555
Ni6 Si0 2.411674 1_556
Ni6 Ni7 2.553078 1_555
Ni7 Si2 2.411674 1_655
Ni7 Si1 2.411674 1_565
Ni7 Si0 2.411674 1_556
C0 Nb3 2.226307 1_555
C0 Nb0 2.226307 1_555
C0 Nb2 2.226307 1_555
C0 Nb5 2.226307 1_555
C0 Nb1 2.226307 1_555
C0 Nb4 2.226307 1_555
C1 Nb6 2.226307 1_554
C1 Nb9 2.226307 1_445
C1 Nb11 2.226307 1_455
C1 Nb8 2.226307 1_544
C1 Nb10 2.226307 1_545
C1 Nb7 2.226307 1_454
