# generated using pymatgen
data_Zr7Nb3ZnSn7
_symmetry_space_group_name_H-M   'P 1'
_cell_length_a   5.82380723
_cell_length_b   8.63914592
_cell_length_c   8.63915149
_cell_angle_alpha   120.00014685
_cell_angle_beta   89.99989975
_cell_angle_gamma   89.99998537
_symmetry_Int_Tables_number   1
_chemical_formula_structural   Zr7Nb3ZnSn7
_chemical_formula_sum   'Zr7 Nb3 Zn1 Sn7'
_cell_volume   376.42536445
_cell_formula_units_Z   1
loop_
 _symmetry_equiv_pos_site_id
 _symmetry_equiv_pos_as_xyz
  1  'x, y, z'
loop_
 _atom_site_type_symbol
 _atom_site_label
 _atom_site_symmetry_multiplicity
 _atom_site_fract_x
 _atom_site_fract_y
 _atom_site_fract_z
 _atom_site_occupancy
  Zr  Zr0  1  0.00000165  0.33333290  0.66666591  1
  Zr  Zr1  1  0.73868281  0.27547692  0.00033695  1
  Zr  Zr2  1  0.73867782  0.72486251  0.72452116  1
  Zr  Zr3  1  0.73869021  0.99966234  0.27514159  1
  Zr  Zr4  1  0.26130593  0.72485673  0.00033607  1
  Zr  Zr5  1  0.26130843  0.27548327  0.27514054  1
  Zr  Zr6  1  0.26131425  0.99965847  0.72452119  1
  Nb  Nb0  1  0.50000458  0.33333330  0.66666465  1
  Nb  Nb1  1  0.50001077  0.66666529  0.33333231  1
  Nb  Nb2  1  0.00001327  0.66666582  0.33333176  1
  Zn  Zn0  1  0.49998797  0.00000070  0.00001069  1
  Sn  Sn0  1  0.75120753  0.61403808  0.00244606  1
  Sn  Sn1  1  0.75121115  0.38841121  0.38596287  1
  Sn  Sn2  1  0.75121294  0.99755288  0.61158723  1
  Sn  Sn3  1  0.24878744  0.38840736  0.00244386  1
  Sn  Sn4  1  0.24878613  0.61403783  0.61159273  1
  Sn  Sn5  1  0.24879550  0.99755402  0.38596309  1
  Sn  Sn6  1  0.99999862  0.00000136  0.00000133  1
loop_
_geom_bond_atom_site_label_1
_geom_bond_atom_site_label_2
_geom_bond_distance
_geom_bond_site_symmetry_2
Nb0 Zr0 2.911887 1_655
Nb0 Zr0 2.911921 1_555
Nb0 Sn1 3.066162 1_555
Nb0 Sn5 3.066164 1_545
Nb0 Sn0 3.066166 1_556
Nb0 Sn2 3.066171 1_545
Nb0 Sn4 3.066188 1_555
Nb0 Sn3 3.066196 1_556
Nb1 Nb2 2.911889 1_555
Nb1 Nb2 2.911918 1_655
Nb1 Sn1 3.036210 1_555
Nb1 Sn0 3.036219 1_555
Nb1 Sn2 3.036229 1_555
Nb1 Sn5 3.036279 1_555
Nb1 Sn3 3.036301 1_555
Nb1 Sn4 3.036311 1_555
Nb1 Zr2 3.450637 1_555
Nb1 Zr1 3.450646 1_555
Nb1 Zr3 3.450675 1_555
Nb1 Zr5 3.450679 1_555
Nb1 Zr6 3.450700 1_555
Nb1 Zr4 3.450735 1_555
Nb2 Sn3 3.029447 1_555
Nb2 Sn4 3.029467 1_555
Nb2 Sn5 3.029473 1_555
Nb2 Sn2 3.029508 1_455
Nb2 Sn1 3.029512 1_455
Nb2 Sn0 3.029533 1_455
Nb2 Zr5 3.505760 1_555
Nb2 Zr4 3.505788 1_555
Nb2 Zr6 3.505811 1_555
Nb2 Zr3 3.505868 1_455
Nb2 Zr1 3.505888 1_455
Nb2 Zr2 3.505898 1_455
Zn0 Zr5 2.754809 1_555
Zn0 Zr4 2.754826 1_545
Zn0 Zr3 2.754840 1_545
Zn0 Zr6 2.754893 1_544
Zn0 Zr2 2.754897 1_544
Zn0 Zr1 2.754912 1_555
Sn0 Zr1 2.916724 1_555
Sn0 Zr3 2.967414 1_555
Sn0 Zr2 2.997632 1_554
Sn0 Zr4 3.012390 1_555
Sn0 Zr0 3.059488 1_654
Sn0 Zr4 3.124021 1_655
Sn1 Zr2 2.916704 1_555
Sn1 Zr1 2.967423 1_555
Sn1 Zr3 2.997627 1_545
Sn1 Zr5 3.012401 1_555
Sn1 Zr0 3.059488 1_655
Sn1 Zr5 3.124016 1_655
Sn2 Zr3 2.916672 1_555
Sn2 Zr2 2.967414 1_555
Sn2 Zr1 2.997624 1_566
Sn2 Zr6 3.012393 1_555
Sn2 Zr0 3.059468 1_665
Sn2 Zr6 3.124058 1_655
Sn3 Zr4 2.916694 1_555
Sn3 Zr5 2.967403 1_555
Sn3 Zr6 2.997615 1_544
Sn3 Zr1 3.012365 1_555
Sn3 Zr0 3.059459 1_554
Sn3 Zr1 3.124064 1_455
Sn4 Zr5 2.916689 1_555
Sn4 Zr6 2.967389 1_555
Sn4 Zr4 2.997588 1_556
Sn4 Zr2 3.012345 1_555
Sn4 Zr0 3.059458 1_555
Sn4 Zr2 3.124080 1_455
Sn5 Zr6 2.916718 1_555
Sn5 Zr4 2.967435 1_555
Sn5 Zr5 2.997652 1_565
Sn5 Zr3 3.012356 1_555
Sn5 Zr0 3.059474 1_565
Sn5 Zr3 3.124066 1_455
Sn6 Zr3 2.823631 1_545
Sn6 Zr1 2.823640 1_555
Sn6 Zr5 2.823640 1_655
Sn6 Zr4 2.823644 1_645
Sn6 Zr6 2.823645 1_644
Sn6 Zr2 2.823667 1_544
Sn6 Zn0 2.911842 1_655
Sn6 Zn0 2.911966 1_555
