# generated using pymatgen
data_Hf4NbZnSn3
_symmetry_space_group_name_H-M   'P 1'
_cell_length_a   8.52726527
_cell_length_b   8.52726471
_cell_length_c   5.72962264
_cell_angle_alpha   90.00000000
_cell_angle_beta   90.00000000
_cell_angle_gamma   119.99999073
_symmetry_Int_Tables_number   1
_chemical_formula_structural   Hf4NbZnSn3
_chemical_formula_sum   'Hf8 Nb2 Zn2 Sn6'
_cell_volume   360.80804346
_cell_formula_units_Z   2
loop_
 _symmetry_equiv_pos_site_id
 _symmetry_equiv_pos_as_xyz
  1  'x, y, z'
loop_
 _atom_site_type_symbol
 _atom_site_label
 _atom_site_symmetry_multiplicity
 _atom_site_fract_x
 _atom_site_fract_y
 _atom_site_fract_z
 _atom_site_occupancy
  Hf  Hf0  1  0.66666700  0.33333300  0.00000000  1
  Hf  Hf1  1  0.33333300  0.66666700  0.50000000  1
  Hf  Hf2  1  0.26850197  0.00000000  0.25000000  1
  Hf  Hf3  1  0.26850197  0.26850197  0.75000000  1
  Hf  Hf4  1  1.00000000  0.73149803  0.75000000  1
  Hf  Hf5  1  0.00000000  0.26850197  0.25000000  1
  Hf  Hf6  1  0.73149803  0.73149803  0.25000000  1
  Hf  Hf7  1  0.73149803  1.00000000  0.75000000  1
  Nb  Nb0  1  0.33333300  0.66666700  0.00000000  1
  Nb  Nb1  1  0.66666700  0.33333300  0.50000000  1
  Zn  Zn0  1  0.00000000  0.00000000  0.00000000  1
  Zn  Zn1  1  0.00000000  0.00000000  0.50000000  1
  Sn  Sn0  1  0.61369449  1.00000000  0.25000000  1
  Sn  Sn1  1  0.61369449  0.61369449  0.75000000  1
  Sn  Sn2  1  0.00000000  0.38630551  0.75000000  1
  Sn  Sn3  1  1.00000000  0.61369449  0.25000000  1
  Sn  Sn4  1  0.38630551  0.38630551  0.25000000  1
  Sn  Sn5  1  0.38630551  0.00000000  0.75000000  1
loop_
_geom_bond_atom_site_label_1
_geom_bond_atom_site_label_2
_geom_bond_distance
_geom_bond_site_symmetry_2
Hf0 Nb1 2.864811 1_554
Hf0 Nb1 2.864811 1_555
Hf0 Sn0 3.008525 1_545
Hf0 Sn2 3.008525 1_654
Hf0 Sn5 3.008528 1_554
Hf0 Sn3 3.008528 1_555
Hf0 Sn1 3.008532 1_554
Hf0 Sn4 3.008532 1_555
Hf1 Nb0 2.864811 1_555
Hf1 Nb0 2.864811 1_556
Hf1 Sn5 3.008525 1_565
Hf1 Sn3 3.008525 1_455
Hf1 Sn0 3.008528 1_555
Hf1 Sn2 3.008528 1_555
Hf1 Sn4 3.008532 1_555
Hf1 Sn1 3.008532 1_555
Hf2 Zn1 2.700740 1_555
Hf2 Zn0 2.700740 1_555
Hf2 Sn4 2.924261 1_555
Hf2 Sn3 2.924261 1_445
Hf2 Sn0 2.943548 1_545
Hf2 Sn5 3.035827 1_555
Hf2 Sn5 3.035827 1_554
Hf3 Zn1 2.700740 1_555
Hf3 Zn0 2.700740 1_556
Hf3 Sn5 2.924261 1_555
Hf3 Sn2 2.924261 1_555
Hf3 Sn1 2.943549 1_555
Hf3 Sn4 3.035828 1_555
Hf3 Sn4 3.035828 1_556
Hf4 Zn1 2.700740 1_665
Hf4 Zn0 2.700740 1_666
Hf4 Sn1 2.924261 1_555
Hf4 Sn5 2.924261 1_665
Hf4 Sn2 2.943548 1_655
Hf4 Sn3 3.035827 1_556
Hf4 Sn3 3.035827 1_555
Hf5 Zn0 2.700740 1_555
Hf5 Zn1 2.700740 1_555
Hf5 Sn4 2.924261 1_555
Hf5 Sn0 2.924261 1_445
Hf5 Sn3 2.943548 1_455
Hf5 Sn2 3.035827 1_554
Hf5 Sn2 3.035827 1_555
Hf6 Zn1 2.700740 1_665
Hf6 Zn0 2.700740 1_665
Hf6 Sn0 2.924261 1_555
Hf6 Sn3 2.924261 1_555
Hf6 Sn4 2.943549 1_555
Hf6 Sn1 3.035828 1_555
Hf6 Sn1 3.035828 1_554
Hf7 Zn0 2.700740 1_666
Hf7 Zn1 2.700740 1_665
Hf7 Sn1 2.924261 1_555
Hf7 Sn2 2.924261 1_665
Hf7 Sn5 2.943548 1_565
Hf7 Sn0 3.035827 1_556
Hf7 Sn0 3.035827 1_555
Nb0 Sn5 3.008525 1_564
Nb0 Sn3 3.008525 1_455
Nb0 Sn0 3.008528 1_555
Nb0 Sn2 3.008528 1_554
Nb0 Sn4 3.008532 1_555
Nb0 Sn1 3.008532 1_554
Nb1 Sn0 3.008525 1_545
Nb1 Sn2 3.008525 1_655
Nb1 Sn5 3.008528 1_555
Nb1 Sn3 3.008528 1_555
Nb1 Sn1 3.008532 1_555
Nb1 Sn4 3.008532 1_555
