# generated using pymatgen
data_Nb4SiB2Mo
_symmetry_space_group_name_H-M   'P 1'
_cell_length_a   7.28119873
_cell_length_b   7.28119844
_cell_length_c   7.28119772
_cell_angle_alpha   129.60344438
_cell_angle_beta   129.60343769
_cell_angle_gamma   74.04152892
_symmetry_Int_Tables_number   1
_chemical_formula_structural   Nb4SiB2Mo
_chemical_formula_sum   'Nb8 Si2 B4 Mo2'
_cell_volume   223.46637068
_cell_formula_units_Z   2
loop_
 _symmetry_equiv_pos_site_id
 _symmetry_equiv_pos_as_xyz
  1  'x, y, z'
loop_
 _atom_site_type_symbol
 _atom_site_label
 _atom_site_symmetry_multiplicity
 _atom_site_fract_x
 _atom_site_fract_y
 _atom_site_fract_z
 _atom_site_occupancy
  Nb  Nb0  1  0.80726737  0.96916953  0.50000000  1
  Nb  Nb1  1  0.30726737  0.80726737  0.83809884  1
  Nb  Nb2  1  0.19273263  0.03083047  0.50000000  1
  Nb  Nb3  1  0.53083047  0.69273263  0.50000000  1
  Nb  Nb4  1  0.03083047  0.53083047  0.83809884  1
  Nb  Nb5  1  0.69273263  0.19273263  0.16190116  1
  Nb  Nb6  1  0.96916953  0.46916953  0.16190116  1
  Nb  Nb7  1  0.46916953  0.30726737  0.50000000  1
  Si  Si0  1  0.75000000  0.75000000  0.00000000  1
  Si  Si1  1  0.25000000  0.25000000  0.00000000  1
  B  B0  1  0.38357294  0.88357294  0.26714689  1
  B  B1  1  0.88357294  0.61642706  0.50000000  1
  B  B2  1  0.61642706  0.11642706  0.73285311  1
  B  B3  1  0.11642706  0.38357294  0.50000000  1
  Mo  Mo0  1  0.00000000  0.00000000  0.00000000  1
  Mo  Mo1  1  0.50000000  0.50000000  0.00000000  1
loop_
_geom_bond_atom_site_label_1
_geom_bond_atom_site_label_2
_geom_bond_distance
_geom_bond_site_symmetry_2
Nb0 Si0 2.645353 1_555
Nb0 Si1 2.645353 1_666
Nb1 Si1 2.645355 1_566
Nb1 Si0 2.645355 1_556
Nb2 Si1 2.645353 1_556
Nb2 Si0 2.645353 1_445
Nb3 Si0 2.645353 1_556
Nb3 Si1 2.645353 1_555
Nb4 Si0 2.645349 1_456
Nb4 Si1 2.645349 1_556
Nb5 Si0 2.645355 1_545
Nb5 Si1 2.645355 1_555
Nb6 Si1 2.645349 1_655
Nb6 Si0 2.645349 1_555
Nb7 Si1 2.645353 1_555
Nb7 Si0 2.645353 1_556
B0 B2 2.041675 1_565
B0 Nb2 2.412823 1_565
B0 Nb3 2.412823 1_555
B0 Nb7 2.412831 1_565
B0 Nb0 2.412831 1_555
B0 Nb1 2.473991 1_554
B0 Nb4 2.473991 1_554
B0 Mo1 2.485282 1_555
B0 Mo0 2.485282 1_565
B1 B3 2.041684 1_655
B1 Nb5 2.412828 1_555
B1 Nb1 2.412828 1_655
B1 Nb6 2.412835 1_555
B1 Nb4 2.412835 1_655
B1 Nb0 2.473991 1_555
B1 Nb3 2.473991 1_555
B1 Mo0 2.485279 1_666
B1 Mo1 2.485280 1_555
B2 Nb0 2.412823 1_545
B2 Nb7 2.412823 1_555
B2 Nb3 2.412831 1_545
B2 Nb2 2.412831 1_555
B2 Nb5 2.473991 1_556
B2 Nb6 2.473991 1_556
B2 Mo1 2.485282 1_556
B2 Mo0 2.485282 1_656
B3 Nb1 2.412828 1_555
B3 Nb5 2.412828 1_455
B3 Nb4 2.412835 1_555
B3 Nb6 2.412835 1_455
B3 Nb2 2.473991 1_555
B3 Nb7 2.473991 1_555
B3 Mo0 2.485279 1_555
B3 Mo1 2.485280 1_556
Mo0 Nb1 2.809151 1_544
Mo0 Nb5 2.809151 1_455
Mo0 Nb2 2.809155 1_555
Mo0 Nb0 2.809155 1_444
Mo0 Nb7 2.809156 1_555
Mo0 Nb3 2.809156 1_444
Mo0 Nb6 2.809158 1_455
Mo0 Nb4 2.809158 1_544
Mo0 Si0 2.906718 1_445
Mo0 Si1 2.906718 1_555
Mo1 Nb1 2.809151 1_554
Mo1 Nb5 2.809151 1_555
Mo1 Nb3 2.809155 1_555
Mo1 Nb7 2.809155 1_554
Mo1 Nb0 2.809156 1_555
Mo1 Nb2 2.809156 1_554
Mo1 Nb6 2.809158 1_555
Mo1 Nb4 2.809158 1_554
Mo1 Si0 2.906718 1_555
Mo1 Si1 2.906718 1_555
