# generated using pymatgen
data_Sb12Ru2RhAu
_symmetry_space_group_name_H-M   'P 1'
_cell_length_a   8.12459744
_cell_length_b   8.12039043
_cell_length_c   9.38476803
_cell_angle_alpha   54.70601870
_cell_angle_beta   54.79676073
_cell_angle_gamma   70.54522769
_symmetry_Int_Tables_number   1
_chemical_formula_structural   Sb12Ru2RhAu
_chemical_formula_sum   'Sb12 Ru2 Rh1 Au1'
_cell_volume   412.93313744
_cell_formula_units_Z   1
loop_
 _symmetry_equiv_pos_site_id
 _symmetry_equiv_pos_as_xyz
  1  'x, y, z'
loop_
 _atom_site_type_symbol
 _atom_site_label
 _atom_site_symmetry_multiplicity
 _atom_site_fract_x
 _atom_site_fract_y
 _atom_site_fract_z
 _atom_site_occupancy
  Sb  Sb0  1  0.15573982  0.15599766  0.17587134  1
  Sb  Sb1  1  0.84426018  0.84400234  0.82412866  1
  Sb  Sb2  1  0.84065581  0.85665057  0.49979508  1
  Sb  Sb3  1  0.15934419  0.14334943  0.50020492  1
  Sb  Sb4  1  0.80607365  0.50272454  0.33609077  1
  Sb  Sb5  1  0.19392635  0.49727546  0.66390923  1
  Sb  Sb6  1  0.50832530  0.81989546  0.33431455  1
  Sb  Sb7  1  0.49167470  0.18010454  0.66568545  1
  Sb  Sb8  1  0.64516032  0.33626153  0.85778469  1
  Sb  Sb9  1  0.35483968  0.66373847  0.14221531  1
  Sb  Sb10  1  0.66563013  0.33680058  0.15419963  1
  Sb  Sb11  1  0.33436987  0.66319942  0.84580037  1
  Ru  Ru0  1  0.00000000  0.50000000  0.00000000  1
  Ru  Ru1  1  0.50000000  0.00000000  0.00000000  1
  Rh  Rh0  1  0.50000000  0.00000000  0.50000000  1
  Au  Au0  1  0.00000000  0.50000000  0.50000000  1
loop_
_geom_bond_atom_site_label_1
_geom_bond_atom_site_label_2
_geom_bond_distance
_geom_bond_site_symmetry_2
Sb0 Sb2 2.887417 1_445
Sb0 Sb3 3.002601 1_555
Sb1 Sb3 2.887417 1_665
Sb1 Sb2 3.002601 1_555
Ru0 Sb4 2.599846 1_455
Ru0 Sb5 2.599846 1_554
Ru0 Sb0 2.618042 1_555
Ru0 Sb1 2.618042 1_454
Ru0 Sb11 2.622963 1_554
Ru0 Sb10 2.622963 1_455
Ru1 Sb8 2.597568 1_554
Ru1 Sb9 2.597568 1_545
Ru1 Sb6 2.619861 1_545
Ru1 Sb7 2.619861 1_554
Ru1 Sb0 2.623977 1_555
Ru1 Sb1 2.623977 1_544
Rh0 Sb2 2.620211 1_545
Rh0 Sb3 2.620211 1_555
Rh0 Sb10 2.642513 1_555
Rh0 Sb11 2.642513 1_545
Rh0 Sb7 2.646125 1_555
Rh0 Sb6 2.646125 1_545
Au0 Sb2 2.750007 1_455
Au0 Sb3 2.750007 1_555
Au0 Sb5 2.753348 1_555
Au0 Sb4 2.753348 1_455
Au0 Sb9 2.754494 1_555
Au0 Sb8 2.754494 1_455
