# generated using pymatgen
data_Hf5TaAl16Rh7
_symmetry_space_group_name_H-M   'P 1'
_cell_length_a   8.60536333
_cell_length_b   8.61804721
_cell_length_c   8.61804767
_cell_angle_alpha   59.90266130
_cell_angle_beta   60.04867527
_cell_angle_gamma   60.04866863
_symmetry_Int_Tables_number   1
_chemical_formula_structural   Hf5TaAl16Rh7
_chemical_formula_sum   'Hf5 Ta1 Al16 Rh7'
_cell_volume   451.92889865
_cell_formula_units_Z   1
loop_
 _symmetry_equiv_pos_site_id
 _symmetry_equiv_pos_as_xyz
  1  'x, y, z'
loop_
 _atom_site_type_symbol
 _atom_site_label
 _atom_site_symmetry_multiplicity
 _atom_site_fract_x
 _atom_site_fract_y
 _atom_site_fract_z
 _atom_site_occupancy
  Hf  Hf0  1  0.31813007  0.68186893  0.68186893  1
  Hf  Hf1  1  0.31260812  0.68739088  0.31183153  1
  Hf  Hf2  1  0.31260812  0.31183153  0.68739088  1
  Hf  Hf3  1  0.68816747  0.31183153  0.68739088  1
  Hf  Hf4  1  0.68816747  0.68739088  0.31183153  1
  Ta  Ta0  1  0.66824579  0.33175321  0.33175321  1
  Al  Al0  1  0.34012584  0.33656559  0.33656559  1
  Al  Al1  1  0.33807073  0.33522689  0.98863065  1
  Al  Al2  1  0.98674199  0.33656559  0.33656559  1
  Al  Al3  1  0.33807073  0.98863065  0.33522689  1
  Al  Al4  1  0.66477311  0.66192927  0.66192927  1
  Al  Al5  1  0.66343441  0.65987416  0.01325801  1
  Al  Al6  1  0.66343441  0.01325801  0.65987416  1
  Al  Al7  1  0.01136935  0.66192927  0.66192927  1
  Al  Al8  1  0.11584430  0.12058398  0.12058398  1
  Al  Al9  1  0.12059207  0.11942582  0.63939105  1
  Al  Al10  1  0.64298874  0.12058398  0.12058398  1
  Al  Al11  1  0.12059207  0.63939105  0.11942582  1
  Al  Al12  1  0.88057318  0.87940693  0.87940693  1
  Al  Al13  1  0.87941502  0.88415470  0.35701426  1
  Al  Al14  1  0.87941502  0.35701426  0.88415470  1
  Al  Al15  1  0.36061195  0.87940693  0.87940693  1
  Rh  Rh0  1  0.00258817  0.99741183  0.99741183  1
  Rh  Rh1  1  0.50177852  0.99822148  0.99822148  1
  Rh  Rh2  1  0.00177852  0.49822148  0.49822148  1
  Rh  Rh3  1  0.99872903  0.49879212  0.00127097  1
  Rh  Rh4  1  0.99872903  0.00127097  0.49879212  1
  Rh  Rh5  1  0.50120788  0.00127097  0.49879212  1
  Rh  Rh6  1  0.50120788  0.49879212  0.00127097  1
loop_
_geom_bond_atom_site_label_1
_geom_bond_atom_site_label_2
_geom_bond_distance
_geom_bond_site_symmetry_2
Hf0 Rh4 3.168704 1_465
Hf0 Rh3 3.168704 1_456
Hf0 Rh6 3.168716 1_556
Hf0 Rh5 3.168716 1_565
Hf0 Hf3 3.189215 1_555
Hf0 Hf2 3.189215 1_555
Hf0 Hf4 3.189215 1_555
Hf0 Hf1 3.189215 1_555
Hf1 Ta0 3.069203 1_555
Hf1 Rh2 3.135306 1_555
Hf1 Rh1 3.135318 1_554
Hf1 Rh6 3.135380 1_555
Hf1 Rh4 3.152604 1_465
Hf1 Hf4 3.231825 1_555
Hf1 Hf2 3.231825 1_555
Hf2 Ta0 3.069203 1_555
Hf2 Rh2 3.135306 1_555
Hf2 Rh1 3.135318 1_545
Hf2 Rh5 3.135380 1_555
Hf2 Rh3 3.152604 1_456
Hf2 Hf3 3.231825 1_555
Hf3 Ta0 3.069203 1_555
Hf3 Rh1 3.135309 1_545
Hf3 Rh2 3.135321 1_655
Hf3 Rh4 3.135383 1_555
Hf3 Rh6 3.152607 1_556
Hf3 Hf4 3.231825 1_555
Hf4 Ta0 3.069203 1_555
Hf4 Rh1 3.135309 1_554
Hf4 Rh2 3.135321 1_655
Hf4 Rh3 3.135383 1_555
Hf4 Rh5 3.152607 1_565
Al0 Rh5 2.471761 1_555
Al0 Rh6 2.471761 1_555
Al0 Rh2 2.491003 1_555
Al0 Al10 2.740169 1_555
Al0 Al11 2.755105 1_555
Al0 Al9 2.755106 1_555
Al0 Ta0 2.782799 1_555
Al0 Hf1 2.816341 1_555
Al0 Hf2 2.816341 1_555
Al0 Al3 3.013207 1_545
Al0 Al1 3.013207 1_554
Al0 Al2 3.040996 1_455
Al1 Rh1 2.493309 1_545
Al1 Rh3 2.500467 1_456
Al1 Rh6 2.500475 1_556
Al1 Al11 2.757306 1_556
Al1 Al8 2.760981 1_556
Al1 Al10 2.760995 1_556
Al1 Hf0 2.821904 1_555
Al1 Hf3 2.822314 1_555
Al1 Hf2 2.822319 1_555
Al1 Al3 2.982587 1_546
Al1 Al2 3.013207 1_456
Al2 Rh4 2.471758 1_555
Al2 Rh3 2.471759 1_555
Al2 Rh2 2.491009 1_655
Al2 Al8 2.740164 1_655
Al2 Al9 2.755115 1_655
Al2 Ta0 2.782808 1_555
Al2 Hf4 2.816344 1_555
Al2 Hf3 2.816344 1_555
Al2 Al3 3.013207 1_645
Al3 Rh1 2.493309 1_554
Al3 Rh4 2.500467 1_465
Al3 Rh5 2.500475 1_565
Al3 Al9 2.757306 1_565
Al3 Al8 2.760981 1_565
Al3 Hf0 2.821904 1_555
Al3 Hf4 2.822313 1_555
Al3 Hf1 2.822319 1_555
Al4 Rh2 2.493311 1_655
Al4 Rh5 2.500469 1_565
Al4 Rh6 2.500470 1_556
Al4 Hf0 2.821916 1_555
Al4 Hf3 2.822326 1_555
Al4 Hf4 2.822326 1_555
Al4 Al7 2.982587 1_655
Al4 Al6 3.013207 1_565
Al4 Al5 3.013207 1_556
Al5 Rh3 2.471758 1_555
Al5 Rh6 2.471766 1_555
Al5 Rh1 2.491001 1_554
Al5 Ta0 2.782804 1_555
Al5 Hf4 2.816331 1_555
Al5 Hf1 2.816345 1_555
Al5 Al7 3.013207 1_654
Al5 Al6 3.040997 1_564
Al6 Rh4 2.471758 1_555
Al6 Rh5 2.471766 1_555
Al6 Rh1 2.491001 1_545
Al6 Ta0 2.782804 1_555
Al6 Hf3 2.816331 1_555
Al6 Hf2 2.816345 1_555
Al6 Al7 3.013207 1_645
Al7 Rh2 2.493316 1_555
Al7 Rh4 2.500467 1_465
Al7 Rh3 2.500467 1_456
Al7 Hf0 2.821890 1_555
Al7 Hf2 2.822315 1_555
Al7 Hf1 2.822315 1_555
Al8 Rh0 2.529744 1_544
Al8 Rh3 2.662731 1_455
Al8 Rh4 2.662731 1_455
Al8 Rh1 2.715696 1_544
Al8 Hf1 3.134377 1_545
Al8 Hf2 3.134377 1_554
Al8 Ta0 3.283709 1_455
Al9 Rh0 2.518040 1_545
Al9 Rh2 2.666144 1_555
Al9 Rh5 2.679036 1_555
Al9 Rh4 2.679043 1_455
Al9 Hf2 3.123661 1_555
Al9 Hf3 3.123683 1_455
Al9 Hf0 3.174814 1_545
Al10 Rh0 2.529737 1_644
Al10 Rh6 2.662731 1_555
Al10 Rh5 2.662731 1_555
Al10 Rh1 2.715704 1_544
Al10 Al3 2.760995 1_545
Al10 Al13 2.877290 1_545
Al10 Al14 2.877290 1_554
Al10 Al12 2.943890 1_544
Al10 Hf4 3.134382 1_545
Al10 Hf3 3.134383 1_554
Al10 Ta0 3.283693 1_555
Al11 Rh0 2.518040 1_554
Al11 Rh2 2.666144 1_555
Al11 Rh6 2.679036 1_555
Al11 Rh3 2.679043 1_455
Al11 Al2 2.755115 1_455
Al11 Al15 2.920975 1_554
Al11 Al12 2.920987 1_454
Al11 Al13 2.943877 1_455
Al11 Hf1 3.123661 1_555
Al11 Hf4 3.123683 1_455
Al11 Hf0 3.174814 1_554
Al12 Rh0 2.518068 1_655
Al12 Rh1 2.666136 1_555
Al12 Rh3 2.679028 1_556
Al12 Rh4 2.679029 1_565
Al12 Al6 2.755084 1_565
Al12 Al5 2.755085 1_556
Al12 Al7 2.757275 1_655
Al12 Al9 2.920987 1_665
Al12 Hf3 3.123678 1_565
Al12 Hf4 3.123679 1_556
Al12 Hf0 3.174808 1_655
Al13 Rh0 2.529759 1_654
Al13 Rh5 2.662723 1_565
Al13 Rh4 2.662730 1_565
Al13 Rh2 2.715689 1_655
Al13 Al6 2.740162 1_565
Al13 Al4 2.760969 1_555
Al13 Al7 2.760979 1_655
Al13 Al8 2.877302 1_665
Al13 Hf1 3.134375 1_655
Al13 Hf4 3.134383 1_555
Al13 Ta0 3.283707 1_565
Al14 Rh0 2.529758 1_645
Al14 Rh6 2.662723 1_556
Al14 Rh3 2.662730 1_556
Al14 Rh2 2.715689 1_655
Al14 Al5 2.740162 1_556
Al14 Al4 2.760969 1_555
Al14 Al7 2.760979 1_655
Al14 Al8 2.877302 1_656
Al14 Al9 2.943877 1_655
Al14 Hf2 3.134375 1_655
Al14 Hf3 3.134383 1_555
Al14 Ta0 3.283707 1_556
Al15 Rh0 2.518061 1_555
Al15 Rh1 2.666143 1_555
Al15 Rh6 2.679029 1_556
Al15 Rh5 2.679029 1_565
Al15 Al5 2.755098 1_556
Al15 Al6 2.755099 1_565
Al15 Al4 2.757280 1_555
Al15 Al9 2.920975 1_565
Al15 Al8 2.943889 1_566
Al15 Hf2 3.123677 1_565
Al15 Hf1 3.123677 1_556
Al15 Hf0 3.174814 1_555
Rh3 Ta0 3.187469 1_555
Rh4 Ta0 3.187469 1_555
Rh5 Ta0 3.187458 1_555
Rh6 Ta0 3.187458 1_555
