# generated using pymatgen
data_Th7Ni3
_symmetry_space_group_name_H-M   'P 1'
_cell_length_a   9.81260129
_cell_length_b   9.81259767
_cell_length_c   6.21354606
_cell_angle_alpha   89.99998579
_cell_angle_beta   89.99989791
_cell_angle_gamma   119.99790911
_symmetry_Int_Tables_number   1
_chemical_formula_structural   Th7Ni3
_chemical_formula_sum   'Th14 Ni6'
_cell_volume   518.14039135
_cell_formula_units_Z   2
loop_
 _symmetry_equiv_pos_site_id
 _symmetry_equiv_pos_as_xyz
  1  'x, y, z'
loop_
 _atom_site_type_symbol
 _atom_site_label
 _atom_site_symmetry_multiplicity
 _atom_site_fract_x
 _atom_site_fract_y
 _atom_site_fract_z
 _atom_site_occupancy
  Th  Th0  1  0.33333304  0.66666455  0.07119557  1
  Th  Th1  1  0.66666580  0.33333228  0.57119622  1
  Th  Th2  1  0.12705674  0.87294582  0.24068552  1
  Th  Th3  1  0.25410865  0.12705667  0.74068766  1
  Th  Th4  1  0.87294543  0.74589444  0.74068772  1
  Th  Th5  1  0.12705718  0.25411053  0.24068698  1
  Th  Th6  1  0.74588980  0.87294452  0.24068608  1
  Th  Th7  1  0.87294728  0.12705397  0.74068790  1
  Th  Th8  1  0.54451115  0.45548517  0.04009990  1
  Th  Th9  1  0.08903461  0.54451500  0.54010468  1
  Th  Th10  1  0.45548379  0.91096704  0.54010215  1
  Th  Th11  1  0.54451415  0.08902767  0.04010098  1
  Th  Th12  1  0.91097406  0.45548462  0.04010024  1
  Th  Th13  1  0.45548064  0.54451564  0.54010448  1
  Ni  Ni0  1  0.81431363  0.18567717  0.30547845  1
  Ni  Ni1  1  0.62863816  0.81431827  0.80548060  1
  Ni  Ni2  1  0.18568229  0.37137061  0.80548204  1
  Ni  Ni3  1  0.81431686  0.62863786  0.30547868  1
  Ni  Ni4  1  0.37137130  0.18568270  0.30547865  1
  Ni  Ni5  1  0.18567743  0.81431449  0.80547949  1
loop_
_geom_bond_atom_site_label_1
_geom_bond_atom_site_label_2
_geom_bond_distance
_geom_bond_site_symmetry_2
Ni0 Th6 2.823059 1_545
Ni0 Th5 2.823134 1_655
Ni0 Th11 2.848986 1_555
Ni0 Th12 2.849029 1_555
Ni0 Th7 2.881935 1_555
Ni0 Th1 3.003877 1_555
Ni1 Th4 2.823004 1_555
Ni1 Th7 2.823139 1_565
Ni1 Th10 2.848971 1_555
Ni1 Th13 2.849031 1_555
Ni1 Th6 2.881909 1_556
Ni1 Th0 3.003948 1_556
Ni2 Th3 2.823085 1_555
Ni2 Th7 2.823160 1_455
Ni2 Th9 2.848884 1_555
Ni2 Th13 2.848989 1_555
Ni2 Th5 2.881927 1_556
Ni2 Th0 3.003868 1_556
Ni3 Th6 2.823019 1_555
Ni3 Th2 2.823163 1_655
Ni3 Th12 2.849012 1_555
Ni3 Th8 2.849055 1_555
Ni3 Th4 2.881943 1_555
Ni3 Th1 3.003960 1_555
Ni4 Th5 2.823095 1_555
Ni4 Th2 2.823165 1_545
Ni4 Th11 2.848917 1_555
Ni4 Th8 2.849012 1_555
Ni4 Th3 2.881958 1_555
Ni4 Th1 3.003887 1_555
Ni5 Th4 2.823066 1_455
Ni5 Th3 2.823127 1_565
Ni5 Th9 2.848983 1_555
Ni5 Th10 2.849027 1_555
Ni5 Th2 2.881899 1_556
Ni5 Th0 3.003892 1_556
