# generated using pymatgen
data_Na3(P3Pd10)2
_symmetry_space_group_name_H-M   'P 1'
_cell_length_a   8.55088793
_cell_length_b   8.55088732
_cell_length_c   8.55088749
_cell_angle_alpha   59.99999932
_cell_angle_beta   60.00000171
_cell_angle_gamma   59.99999875
_symmetry_Int_Tables_number   1
_chemical_formula_structural   Na3(P3Pd10)2
_chemical_formula_sum   'Na3 P6 Pd20'
_cell_volume   442.09804213
_cell_formula_units_Z   1
loop_
 _symmetry_equiv_pos_site_id
 _symmetry_equiv_pos_as_xyz
  1  'x, y, z'
loop_
 _atom_site_type_symbol
 _atom_site_label
 _atom_site_symmetry_multiplicity
 _atom_site_fract_x
 _atom_site_fract_y
 _atom_site_fract_z
 _atom_site_occupancy
  Na  Na0  1  0.25000000  0.25000000  0.25000000  1
  Na  Na1  1  0.75000000  0.75000000  0.75000000  1
  Na  Na2  1  0.00000000  0.00000000  0.00000000  1
  P  P0  1  0.73725589  0.73725589  0.26274411  1
  P  P1  1  0.26274411  0.26274411  0.73725589  1
  P  P2  1  0.26274411  0.73725589  0.73725589  1
  P  P3  1  0.73725589  0.26274411  0.73725589  1
  P  P4  1  0.26274411  0.73725589  0.26274411  1
  P  P5  1  0.73725589  0.26274411  0.26274411  1
  Pd  Pd0  1  0.61480130  0.61480130  0.61480130  1
  Pd  Pd1  1  0.38519870  0.84440190  0.38519870  1
  Pd  Pd2  1  0.65532169  0.34467831  1.00000000  1
  Pd  Pd3  1  1.00000000  0.34467831  0.65532169  1
  Pd  Pd4  1  0.65532169  0.00000000  1.00000000  1
  Pd  Pd5  1  0.61480130  0.61480130  0.15559810  1
  Pd  Pd6  1  0.00000000  0.00000000  0.65532169  1
  Pd  Pd7  1  1.00000000  0.34467831  0.00000000  1
  Pd  Pd8  1  0.65532169  0.00000000  0.34467831  1
  Pd  Pd9  1  0.34467831  0.00000000  0.00000000  1
  Pd  Pd10  1  0.00000000  0.65532169  0.00000000  1
  Pd  Pd11  1  0.34467831  0.00000000  0.65532169  1
  Pd  Pd12  1  0.00000000  0.65532169  0.34467831  1
  Pd  Pd13  1  0.34467831  0.65532169  0.00000000  1
  Pd  Pd14  1  0.15559810  0.61480130  0.61480130  1
  Pd  Pd15  1  0.38519870  0.38519870  0.38519870  1
  Pd  Pd16  1  0.84440190  0.38519870  0.38519870  1
  Pd  Pd17  1  0.38519870  0.38519870  0.84440190  1
  Pd  Pd18  1  0.61480130  0.15559810  0.61480130  1
  Pd  Pd19  1  0.00000000  0.00000000  0.34467831  1
loop_
_geom_bond_atom_site_label_1
_geom_bond_atom_site_label_2
_geom_bond_distance
_geom_bond_site_symmetry_2
Na0 Pd15 2.831779 1_555
Na0 Pd1 2.831793 1_545
Na0 Pd17 2.831793 1_554
Na0 Pd16 2.831793 1_455
Na0 Pd12 3.302069 1_555
Na0 Pd10 3.302069 1_555
Na0 Pd11 3.302069 1_555
Na0 Pd9 3.302069 1_555
Na0 Pd13 3.302069 1_555
Na0 Pd7 3.302069 1_455
Na0 Pd3 3.302069 1_455
Na0 Pd8 3.302069 1_555
Na0 Pd4 3.302069 1_554
Na0 Pd6 3.302069 1_555
Na0 Pd19 3.302069 1_555
Na0 Pd2 3.302069 1_554
Na1 Pd0 2.831779 1_555
Na1 Pd18 2.831793 1_565
Na1 Pd5 2.831793 1_556
Na1 Pd14 2.831793 1_655
Na1 Pd3 3.302069 1_555
Na1 Pd7 3.302069 1_556
Na1 Pd4 3.302069 1_565
Na1 Pd8 3.302069 1_565
Na1 Pd2 3.302069 1_555
Na1 Pd10 3.302069 1_656
Na1 Pd12 3.302069 1_655
Na1 Pd9 3.302069 1_566
Na1 Pd11 3.302069 1_565
Na1 Pd6 3.302069 1_665
Na1 Pd19 3.302069 1_665
Na1 Pd13 3.302069 1_556
Na2 Pd12 2.947305 1_545
Na2 Pd3 2.947305 1_454
Na2 Pd7 2.947305 1_455
Na2 Pd10 2.947305 1_545
Na2 Pd13 2.947305 1_545
Na2 Pd2 2.947305 1_454
Na2 Pd19 2.947305 1_555
Na2 Pd6 2.947305 1_554
Na2 Pd9 2.947306 1_555
Na2 Pd11 2.947306 1_554
Na2 Pd8 2.947306 1_455
Na2 Pd4 2.947306 1_454
Na2 P5 3.177307 1_455
Na2 P2 3.177307 1_544
Na2 P4 3.177307 1_545
Na2 P3 3.177307 1_454
Na2 P1 3.177307 1_554
Na2 P0 3.177307 1_445
P0 Pd4 2.353401 1_564
P0 Pd8 2.353401 1_565
P0 Pd12 2.353401 1_655
P0 Pd10 2.353401 1_655
P0 Pd5 2.459130 1_555
P0 Pd0 2.459144 1_555
P0 Pd16 2.459144 1_555
P0 Pd1 2.459144 1_555
P1 Pd11 2.353401 1_555
P1 Pd9 2.353401 1_556
P1 Pd3 2.353401 1_455
P1 Pd7 2.353401 1_456
P1 Pd17 2.459130 1_555
P1 Pd15 2.459144 1_555
P1 Pd14 2.459144 1_555
P1 Pd18 2.459144 1_555
P2 Pd11 2.353401 1_565
P2 Pd6 2.353401 1_565
P2 Pd13 2.353401 1_556
P2 Pd10 2.353401 1_556
P2 Pd14 2.459130 1_555
P2 Pd0 2.459144 1_555
P2 Pd17 2.459144 1_555
P2 Pd1 2.459144 1_555
P3 Pd4 2.353401 1_555
P3 Pd6 2.353401 1_655
P3 Pd2 2.353401 1_555
P3 Pd3 2.353401 1_555
P3 Pd18 2.459130 1_555
P3 Pd0 2.459144 1_555
P3 Pd16 2.459144 1_555
P3 Pd17 2.459144 1_555
P4 Pd9 2.353401 1_565
P4 Pd19 2.353401 1_565
P4 Pd13 2.353401 1_555
P4 Pd12 2.353401 1_555
P4 Pd1 2.459130 1_555
P4 Pd15 2.459144 1_555
P4 Pd14 2.459144 1_555
P4 Pd5 2.459144 1_555
P5 Pd8 2.353401 1_555
P5 Pd19 2.353401 1_655
P5 Pd2 2.353401 1_554
P5 Pd7 2.353401 1_555
P5 Pd16 2.459130 1_555
P5 Pd15 2.459144 1_555
P5 Pd5 2.459144 1_555
P5 Pd18 2.459144 1_555
Pd4 Pd9 2.656277 1_556
Pd10 Pd7 2.656277 1_455
Pd11 Pd8 2.656277 1_555
Pd12 Pd3 2.656277 1_455
Pd13 Pd2 2.656277 1_554
Pd19 Pd6 2.656277 1_555
