# generated using pymatgen
data_CsSnAsS5
_symmetry_space_group_name_H-M   'P 1'
_cell_length_a   7.56661397
_cell_length_b   8.59578633
_cell_length_c   14.95774667
_cell_angle_alpha   90.00000000
_cell_angle_beta   90.00000000
_cell_angle_gamma   90.00000000
_symmetry_Int_Tables_number   1
_chemical_formula_structural   CsSnAsS5
_chemical_formula_sum   'Cs4 Sn4 As4 S20'
_cell_volume   972.86675569
_cell_formula_units_Z   4
loop_
 _symmetry_equiv_pos_site_id
 _symmetry_equiv_pos_as_xyz
  1  'x, y, z'
loop_
 _atom_site_type_symbol
 _atom_site_label
 _atom_site_symmetry_multiplicity
 _atom_site_fract_x
 _atom_site_fract_y
 _atom_site_fract_z
 _atom_site_occupancy
  Cs  Cs0  1  0.50000000  0.91808807  0.84448335  1
  Cs  Cs1  1  0.50000000  0.58191193  0.34448335  1
  Cs  Cs2  1  0.50000000  0.41808807  0.65551665  1
  Cs  Cs3  1  0.50000000  0.08191193  0.15551665  1
  Sn  Sn0  1  0.73276047  0.00000000  0.50000000  1
  Sn  Sn1  1  0.73276047  0.50000000  0.00000000  1
  Sn  Sn2  1  0.26723953  0.50000000  0.00000000  1
  Sn  Sn3  1  0.26723953  0.00000000  0.50000000  1
  As  As0  1  0.00000000  0.69639676  0.79646563  1
  As  As1  1  0.00000000  0.80360324  0.29646563  1
  As  As2  1  0.00000000  0.30360324  0.20353437  1
  As  As3  1  0.00000000  0.19639676  0.70353437  1
  S  S0  1  0.00000000  0.70604388  0.02619665  1
  S  S1  1  0.23213025  0.55165095  0.83096296  1
  S  S2  1  0.00000000  0.79395612  0.52619665  1
  S  S3  1  0.50000000  0.19570257  0.46116088  1
  S  S4  1  0.76786975  0.05165095  0.66903704  1
  S  S5  1  0.23213025  0.94834905  0.33096296  1
  S  S6  1  0.76786975  0.55165095  0.83096296  1
  S  S7  1  0.00000000  0.85557864  0.92157005  1
  S  S8  1  0.00000000  0.35557864  0.57842995  1
  S  S9  1  0.00000000  0.29395612  0.97380335  1
  S  S10  1  0.76786975  0.94834905  0.33096296  1
  S  S11  1  0.00000000  0.14442136  0.07842995  1
  S  S12  1  0.76786975  0.44834905  0.16903704  1
  S  S13  1  0.50000000  0.30429743  0.96116088  1
  S  S14  1  0.23213025  0.44834905  0.16903704  1
  S  S15  1  0.00000000  0.20604388  0.47380335  1
  S  S16  1  0.50000000  0.69570257  0.03883912  1
  S  S17  1  0.23213025  0.05165095  0.66903704  1
  S  S18  1  0.50000000  0.80429743  0.53883912  1
  S  S19  1  0.00000000  0.64442136  0.42157005  1
loop_
_geom_bond_atom_site_label_1
_geom_bond_atom_site_label_2
_geom_bond_distance
_geom_bond_site_symmetry_2
Cs0 S16 3.479297 1_556
Cs0 S4 3.509006 1_565
Cs0 S17 3.509006 1_565
Cs0 S13 3.750564 1_565
Cs0 S6 3.751056 1_555
Cs0 S1 3.751056 1_555
Cs0 S7 3.991445 1_555
Cs0 S7 3.991445 1_655
Cs1 S18 3.479297 1_555
Cs1 S12 3.509006 1_555
Cs1 S14 3.509006 1_555
Cs1 S3 3.750564 1_555
Cs1 S10 3.751056 1_555
Cs1 S5 3.751056 1_555
Cs1 S19 3.991445 1_555
Cs1 S19 3.991445 1_655
Cs2 S3 3.479297 1_555
Cs2 S6 3.509006 1_555
Cs2 S1 3.509006 1_555
Cs2 S18 3.750564 1_555
Cs2 S4 3.751056 1_555
Cs2 S17 3.751056 1_555
Cs2 S8 3.991445 1_555
Cs2 S8 3.991445 1_655
Cs3 S13 3.479297 1_554
Cs3 S10 3.509006 1_545
Cs3 S5 3.509006 1_545
Cs3 S16 3.750564 1_545
Cs3 S12 3.751056 1_555
Cs3 S14 3.751056 1_555
Cs3 S11 3.991445 1_555
Cs3 S11 3.991445 1_655
As0 S1 2.213455 1_555
As0 S6 2.213455 1_455
As0 S7 2.318171 1_555
As1 S5 2.213455 1_555
As1 S10 2.213455 1_455
As1 S19 2.318171 1_555
As2 S14 2.213455 1_555
As2 S12 2.213455 1_455
As2 S11 2.318171 1_555
As3 S17 2.213455 1_555
As3 S4 2.213455 1_455
As3 S8 2.318171 1_555
S0 S7 2.025174 1_554
S0 Sn2 2.716478 1_555
S0 Sn1 2.716478 1_455
S1 Sn2 2.580807 1_556
S2 Sn3 2.716478 1_565
S2 Sn0 2.716478 1_465
S3 Sn0 2.503839 1_555
S3 Sn3 2.503839 1_555
S4 Sn0 2.580807 1_555
S5 Sn3 2.580807 1_565
S6 Sn1 2.580807 1_556
S9 Sn2 2.716478 1_556
S9 Sn1 2.716478 1_456
S10 Sn0 2.580807 1_565
S11 S9 2.025174 1_554
S12 Sn1 2.580807 1_555
S13 Sn1 2.503839 1_556
S13 Sn2 2.503839 1_556
S14 Sn2 2.580807 1_555
S15 S8 2.025174 1_555
S15 Sn3 2.716478 1_555
S15 Sn0 2.716478 1_455
S16 Sn1 2.503839 1_555
S16 Sn2 2.503839 1_555
S17 Sn3 2.580807 1_555
S18 Sn0 2.503839 1_565
S18 Sn3 2.503839 1_565
S19 S2 2.025174 1_555
