# generated using pymatgen
data_Ba2AlCu3Au22
_symmetry_space_group_name_H-M   'P 1'
_cell_length_a   9.10208444
_cell_length_b   9.14267865
_cell_length_c   9.13337040
_cell_angle_alpha   60.87060052
_cell_angle_beta   60.18084003
_cell_angle_gamma   60.07922739
_symmetry_Int_Tables_number   1
_chemical_formula_structural   Ba2AlCu3Au22
_chemical_formula_sum   'Ba2 Al1 Cu3 Au22'
_cell_volume   541.96108358
_cell_formula_units_Z   1
loop_
 _symmetry_equiv_pos_site_id
 _symmetry_equiv_pos_as_xyz
  1  'x, y, z'
loop_
 _atom_site_type_symbol
 _atom_site_label
 _atom_site_symmetry_multiplicity
 _atom_site_fract_x
 _atom_site_fract_y
 _atom_site_fract_z
 _atom_site_occupancy
  Ba  Ba0  1  0.25911916  0.23913885  0.24436761  1
  Ba  Ba1  1  0.74262363  0.75563239  0.76086115  1
  Al  Al0  1  0.92525478  0.72887371  0.27112629  1
  Cu  Cu0  1  0.00065512  0.00265859  0.99734141  1
  Cu  Cu1  1  0.49681287  0.50064535  0.49935465  1
  Cu  Cu2  1  0.07352677  0.26930186  0.73069814  1
  Au  Au0  1  0.42810965  0.21389153  0.55782594  1
  Au  Au1  1  0.19982612  0.44217406  0.78610847  1
  Au  Au2  1  0.79870603  0.21054658  0.43867850  1
  Au  Au3  1  0.44793011  0.56132150  0.78945342  1
  Au  Au4  1  0.14923479  0.54589202  0.45410798  1
  Au  Au5  1  0.84869530  0.45535737  0.54464263  1
  Au  Au6  1  0.29796763  0.94095979  0.70043536  1
  Au  Au7  1  0.71794969  0.30375531  0.92484074  1
  Au  Au8  1  0.94654573  0.07515926  0.69624469  1
  Au  Au9  1  0.93936378  0.29956464  0.05904021  1
  Au  Au10  1  0.70766540  0.05440493  0.30036097  1
  Au  Au11  1  0.05597087  0.92652258  0.30234416  1
  Au  Au12  1  0.06243231  0.69963903  0.94559507  1
  Au  Au13  1  0.28483660  0.69765584  0.07347742  1
  Au  Au14  1  0.55312738  0.43591863  0.21057613  1
  Au  Au15  1  0.57034984  0.78567025  0.44097656  1
  Au  Au16  1  0.43696920  0.79456127  0.20543873  1
  Au  Au17  1  0.56180532  0.20757796  0.79242204  1
  Au  Au18  1  0.79699666  0.55902344  0.21432975  1
  Au  Au19  1  0.19962214  0.78942387  0.56408137  1
  Au  Au20  1  0.70164669  0.94420927  0.05579073  1
  Au  Au21  1  0.29625643  0.06052410  0.93947590  1
loop_
_geom_bond_atom_site_label_1
_geom_bond_atom_site_label_2
_geom_bond_distance
_geom_bond_site_symmetry_2
Al0 Cu0 2.627309 1_664
Al0 Au5 2.627708 1_555
Al0 Au4 2.648034 1_655
Al0 Au12 2.686833 1_654
Al0 Au10 2.686835 1_565
Al0 Au18 2.690440 1_555
Al0 Au15 2.690440 1_555
Al0 Au13 2.783179 1_655
Al0 Au11 2.783186 1_655
Al0 Au20 2.846124 1_555
Cu0 Cu2 2.557435 1_555
Au0 Cu2 2.691776 1_555
Au0 Cu1 2.736763 1_555
Au0 Au6 2.752533 1_545
Au0 Au10 2.795802 1_555
Au0 Au14 2.814519 1_555
Au0 Au21 2.883875 1_555
Au0 Au4 2.908556 1_555
Au0 Au17 2.911670 1_555
Au0 Au1 2.936386 1_555
Au0 Au2 2.973622 1_555
Au0 Ba0 3.741336 1_555
Au0 Ba1 3.864972 1_545
Au1 Cu2 2.691769 1_555
Au1 Cu1 2.736768 1_555
Au1 Au9 2.752521 1_456
Au1 Au12 2.795806 1_555
Au1 Au19 2.814521 1_555
Au1 Au21 2.883874 1_555
Au1 Au4 2.908551 1_555
Au1 Au17 2.911677 1_555
Au1 Au3 2.973622 1_555
Au1 Ba1 3.741344 1_455
Au1 Ba0 3.864984 1_556
Au2 Au8 2.743835 1_555
Au2 Cu1 2.745598 1_555
Au2 Au9 2.863803 1_555
Au2 Au5 3.117079 1_555
Au2 Ba0 3.744949 1_655
Au2 Ba1 3.863528 1_545
Au3 Au7 2.743841 1_555
Au3 Cu1 2.745594 1_555
Au3 Au6 2.863803 1_555
Au3 Au5 3.117085 1_555
Au3 Ba1 3.744941 1_555
Au3 Ba0 3.863520 1_556
Au4 Cu2 2.653119 1_555
Au4 Au5 2.862681 1_455
Au4 Cu1 3.190458 1_555
Au4 Ba0 3.614161 1_555
Au4 Ba1 3.614168 1_455
Au5 Cu2 2.672206 1_655
Au5 Au7 2.871482 1_555
Au5 Au8 2.871483 1_555
Au5 Cu1 3.229351 1_555
Au5 Ba1 3.620297 1_555
Au5 Ba0 3.620304 1_655
Au6 Cu2 2.718395 1_565
Au6 Cu0 2.768250 1_565
Au6 Au8 2.810553 1_465
Au6 Ba1 3.745120 1_555
Au6 Ba0 3.788869 1_565
Au7 Cu0 2.737013 1_655
Au7 Cu2 2.745456 1_655
Au7 Au9 2.810562 1_556
Au7 Au8 2.940418 1_555
Au7 Ba1 3.732138 1_555
Au7 Ba0 3.868973 1_556
Au8 Cu0 2.737013 1_655
Au8 Cu2 2.745456 1_655
Au8 Ba0 3.732146 1_655
Au8 Ba1 3.868987 1_545
Au9 Cu2 2.718397 1_654
Au9 Cu0 2.768254 1_654
Au9 Ba0 3.745129 1_655
Au9 Ba1 3.788877 1_554
Au10 Au15 2.764638 1_545
Au10 Cu0 2.769677 1_654
Au10 Au11 2.785114 1_645
Au10 Au14 2.878438 1_555
Au10 Au2 2.880544 1_555
Au10 Au20 2.894030 1_545
Au10 Au7 3.041472 1_554
Au10 Au9 3.100437 1_555
Au10 Ba0 3.760211 1_555
Au10 Ba1 3.811993 1_545
Au11 Au19 2.748061 1_555
Au11 Cu0 2.766877 1_564
Au11 Au2 2.821156 1_465
Au11 Au16 2.842234 1_555
Au11 Au4 2.877365 1_555
Au11 Au13 2.943900 1_555
Au11 Au21 2.963030 1_564
Au11 Au9 3.008751 1_465
Au11 Ba1 3.782855 1_455
Au11 Ba0 3.833215 1_565
Au12 Au18 2.764644 1_456
Au12 Cu0 2.769673 1_565
Au12 Au13 2.785097 1_556
Au12 Au19 2.878438 1_555
Au12 Au3 2.880530 1_555
Au12 Au20 2.894035 1_456
Au12 Au8 3.041473 1_465
Au12 Au6 3.100424 1_555
Au12 Ba1 3.760237 1_455
Au12 Ba0 3.811996 1_556
Au13 Au14 2.748067 1_555
Au13 Cu0 2.766872 1_564
Au13 Au3 2.821156 1_554
Au13 Au16 2.842242 1_555
Au13 Au4 2.877364 1_555
Au13 Au21 2.963033 1_564
Au13 Au6 3.008751 1_554
Au13 Ba0 3.782844 1_555
Au13 Ba1 3.833208 1_554
Au14 Cu1 2.727979 1_555
Au14 Au7 2.808786 1_554
Au14 Au9 2.880525 1_555
Au14 Au16 2.883170 1_555
Au14 Au18 2.966592 1_555
Au14 Au2 3.072426 1_555
Au14 Au4 3.135410 1_555
Au14 Ba0 3.732888 1_555
Au14 Ba1 3.832110 1_554
Au15 Cu1 2.748706 1_555
Au15 Au6 2.774714 1_555
Au15 Au3 2.824191 1_555
Au15 Au5 2.899036 1_555
Au15 Au16 2.904673 1_555
Au15 Au20 2.913426 1_555
Au15 Au18 2.915345 1_555
Au15 Au19 2.966592 1_555
Au15 Ba1 3.796780 1_555
Au15 Ba0 3.812173 1_565
Au16 Au21 2.773179 1_564
Au16 Cu1 2.773982 1_555
Au16 Au20 2.781505 1_555
Au16 Au19 2.883169 1_555
Au16 Au18 2.904673 1_555
Au16 Ba1 3.679488 1_554
Au16 Ba0 3.679491 1_565
Au17 Au20 2.748231 1_546
Au17 Cu1 2.775796 1_555
Au17 Au21 2.776489 1_555
Au17 Au3 2.851890 1_555
Au17 Au2 2.851892 1_555
Au17 Au7 2.871831 1_555
Au17 Au8 2.871831 1_555
Au17 Ba0 3.710621 1_556
Au17 Ba1 3.710623 1_545
Au18 Cu1 2.748706 1_555
Au18 Au9 2.774712 1_555
Au18 Au2 2.824190 1_555
Au18 Au5 2.899036 1_555
Au18 Au20 2.913426 1_555
Au18 Ba0 3.796794 1_655
Au18 Ba1 3.812181 1_554
Au19 Cu1 2.727980 1_555
Au19 Au8 2.808786 1_465
Au19 Au6 2.880518 1_555
Au19 Au3 3.072419 1_555
Au19 Au4 3.135410 1_555
Au19 Ba1 3.732905 1_455
Au19 Ba0 3.832115 1_565
Au20 Cu0 2.775945 1_664
Au20 Au8 2.956472 1_564
Au20 Au7 2.956472 1_564
Au20 Ba0 3.639827 1_565
Au20 Ba1 3.639835 1_554
Au21 Cu0 2.744463 1_555
Au21 Cu2 2.798234 1_555
Au21 Au9 2.869569 1_456
Au21 Au6 2.869574 1_545
Au21 Ba1 3.670947 1_545
Au21 Ba0 3.670956 1_556
