# generated using pymatgen
data_K3Sn(BPt3)2
_symmetry_space_group_name_H-M   'P 1'
_cell_length_a   8.18000992
_cell_length_b   8.18000987
_cell_length_c   8.18000852
_cell_angle_alpha   41.21191231
_cell_angle_beta   41.21190987
_cell_angle_gamma   41.21191496
_symmetry_Int_Tables_number   1
_chemical_formula_structural   K3Sn(BPt3)2
_chemical_formula_sum   'K3 Sn1 B2 Pt6'
_cell_volume   214.58109297
_cell_formula_units_Z   1
loop_
 _symmetry_equiv_pos_site_id
 _symmetry_equiv_pos_as_xyz
  1  'x, y, z'
loop_
 _atom_site_type_symbol
 _atom_site_label
 _atom_site_symmetry_multiplicity
 _atom_site_fract_x
 _atom_site_fract_y
 _atom_site_fract_z
 _atom_site_occupancy
  K  K0  1  0.86216157  0.86216157  0.86216157  1
  K  K1  1  0.13783843  0.13783843  0.13783843  1
  K  K2  1  0.00000000  0.00000000  0.00000000  1
  Sn  Sn0  1  0.50000000  0.50000000  0.50000000  1
  B  B0  1  0.66929207  0.66929207  0.66929207  1
  B  B1  1  0.33070793  0.33070793  0.33070793  1
  Pt  Pt0  1  0.43812442  0.93347701  0.43812442  1
  Pt  Pt1  1  0.43812442  0.43812442  0.93347701  1
  Pt  Pt2  1  0.93347701  0.43812442  0.43812442  1
  Pt  Pt3  1  0.56187558  0.06652299  0.56187558  1
  Pt  Pt4  1  0.56187558  0.56187558  0.06652299  1
  Pt  Pt5  1  0.06652299  0.56187558  0.56187558  1
loop_
_geom_bond_atom_site_label_1
_geom_bond_atom_site_label_2
_geom_bond_distance
_geom_bond_site_symmetry_2
K0 K2 3.090652 1_666
K0 Pt0 3.327472 1_556
K0 Pt2 3.327472 1_556
K0 Pt0 3.327473 1_655
K0 Pt2 3.327473 1_565
K0 Pt1 3.327473 1_565
K0 Pt1 3.327473 1_655
K0 Sn0 3.386488 1_556
K0 Sn0 3.386488 1_655
K0 Sn0 3.386489 1_565
K0 Pt5 3.403469 1_655
K0 Pt3 3.403469 1_565
K0 Pt4 3.403469 1_556
K0 K1 3.566760 1_665
K0 K1 3.566761 1_566
K0 K1 3.566761 1_656
K1 K2 3.090652 1_555
K1 Pt3 3.327472 1_554
K1 Pt5 3.327472 1_554
K1 Pt3 3.327473 1_455
K1 Pt5 3.327473 1_545
K1 Pt4 3.327473 1_545
K1 Pt4 3.327473 1_455
K1 Sn0 3.386488 1_554
K1 Sn0 3.386488 1_455
K1 Sn0 3.386489 1_545
K1 Pt2 3.403469 1_455
K1 Pt0 3.403469 1_545
K1 Pt1 3.403469 1_554
K2 Pt3 3.211003 1_455
K2 Pt0 3.211003 1_544
K2 Pt5 3.211003 1_545
K2 Pt2 3.211003 1_454
K2 Pt0 3.211003 1_445
K2 Pt3 3.211003 1_554
K2 Pt5 3.211003 1_554
K2 Pt2 3.211003 1_445
K2 Pt4 3.211003 1_455
K2 Pt1 3.211003 1_544
K2 Pt4 3.211003 1_545
K2 Pt1 3.211003 1_454
B0 Pt4 2.161640 1_556
B0 Pt5 2.161641 1_655
B0 Pt3 2.161641 1_565
B0 Pt2 2.214689 1_555
B0 Pt0 2.214689 1_555
B0 Pt1 2.214689 1_555
B0 K2 3.324747 1_665
B0 K2 3.324747 1_566
B0 K2 3.324747 1_656
B1 Pt1 2.161640 1_554
B1 Pt2 2.161641 1_455
B1 Pt0 2.161641 1_545
B1 Pt5 2.214689 1_555
B1 Pt3 2.214689 1_555
B1 Pt4 2.214689 1_555
B1 K2 3.324747 1_556
B1 K2 3.324747 1_655
B1 K2 3.324747 1_565
Pt0 Sn0 2.840837 1_555
Pt1 Sn0 2.840837 1_555
Pt2 Sn0 2.840838 1_555
Pt3 Sn0 2.840837 1_555
Pt4 Sn0 2.840837 1_555
Pt5 Sn0 2.840838 1_555
