# generated using pymatgen
data_BaTiTeO6
_symmetry_space_group_name_H-M   'P 1'
_cell_length_a   5.23995820
_cell_length_b   5.23995910
_cell_length_c   5.76577682
_cell_angle_alpha   90.00000000
_cell_angle_beta   90.00000000
_cell_angle_gamma   120.00000041
_symmetry_Int_Tables_number   1
_chemical_formula_structural   BaTiTeO6
_chemical_formula_sum   'Ba1 Ti1 Te1 O6'
_cell_volume   137.10212218
_cell_formula_units_Z   1
loop_
 _symmetry_equiv_pos_site_id
 _symmetry_equiv_pos_as_xyz
  1  'x, y, z'
loop_
 _atom_site_type_symbol
 _atom_site_label
 _atom_site_symmetry_multiplicity
 _atom_site_fract_x
 _atom_site_fract_y
 _atom_site_fract_z
 _atom_site_occupancy
  Ba  Ba0  1  0.00000000  0.00000000  0.00000000  1
  Ti  Ti0  1  0.33333400  0.66666800  0.50000000  1
  Te  Te0  1  0.66666600  0.33333400  0.50000000  1
  O  O0  1  0.61118012  0.00655881  0.31003439  1
  O  O1  1  0.39537868  0.38881988  0.31003439  1
  O  O2  1  0.99344219  0.60462032  0.31003439  1
  O  O3  1  0.39537968  0.00655881  0.68996661  1
  O  O4  1  0.99344219  0.38881988  0.68996661  1
  O  O5  1  0.61117912  0.60462032  0.68996661  1
loop_
_geom_bond_atom_site_label_1
_geom_bond_atom_site_label_2
_geom_bond_distance
_geom_bond_site_symmetry_2
Ba0 O4 2.723535 1_454
Ba0 O0 2.723541 1_455
Ba0 O1 2.723541 1_555
Ba0 O3 2.723541 1_554
Ba0 O5 2.723541 1_444
Ba0 O2 2.723547 1_445
O0 Te0 1.928291 1_555
O0 Ti0 1.974427 1_545
O1 Te0 1.928283 1_555
O1 Ti0 1.974435 1_555
O2 Te0 1.928289 1_555
O2 Ti0 1.974426 1_655
O3 Te0 1.928290 1_555
O3 Ti0 1.974428 1_545
O4 Te0 1.928299 1_555
O4 Ti0 1.974435 1_655
O5 Te0 1.928285 1_555
O5 Ti0 1.974434 1_555
