# generated using pymatgen
data_K4AlAuO5
_symmetry_space_group_name_H-M   'P 1'
_cell_length_a   6.08888213
_cell_length_b   6.08888338
_cell_length_c   10.37410806
_cell_angle_alpha   90.00000000
_cell_angle_beta   90.00000000
_cell_angle_gamma   113.58264943
_symmetry_Int_Tables_number   1
_chemical_formula_structural   K4AlAuO5
_chemical_formula_sum   'K8 Al2 Au2 O10'
_cell_volume   352.49327980
_cell_formula_units_Z   2
loop_
 _symmetry_equiv_pos_site_id
 _symmetry_equiv_pos_as_xyz
  1  'x, y, z'
loop_
 _atom_site_type_symbol
 _atom_site_label
 _atom_site_symmetry_multiplicity
 _atom_site_fract_x
 _atom_site_fract_y
 _atom_site_fract_z
 _atom_site_occupancy
  K  K0  1  0.38595182  0.03536227  0.25000000  1
  K  K1  1  0.03536227  0.38595182  0.25000000  1
  K  K2  1  0.65563235  0.34436765  0.00000000  1
  K  K3  1  0.65563235  0.34436765  0.50000000  1
  K  K4  1  0.34436765  0.65563235  0.00000000  1
  K  K5  1  0.61404818  0.96463773  0.75000000  1
  K  K6  1  0.34436765  0.65563235  0.50000000  1
  K  K7  1  0.96463773  0.61404818  0.75000000  1
  Al  Al0  1  0.77277240  0.77277240  0.25000000  1
  Al  Al1  1  0.22722760  0.22722760  0.75000000  1
  Au  Au0  1  0.00000000  0.00000000  0.00000000  1
  Au  Au1  1  0.00000000  0.00000000  0.50000000  1
  O  O0  1  0.01247243  0.26063206  0.62234552  1
  O  O1  1  0.26063206  0.01247243  0.87765448  1
  O  O2  1  0.73936794  0.98752757  0.37765448  1
  O  O3  1  0.73936794  0.98752757  0.12234552  1
  O  O4  1  0.50911950  0.50911950  0.25000000  1
  O  O5  1  0.49088050  0.49088050  0.75000000  1
  O  O6  1  0.98752757  0.73936794  0.37765448  1
  O  O7  1  0.26063206  0.01247243  0.62234552  1
  O  O8  1  0.98752757  0.73936794  0.12234552  1
  O  O9  1  0.01247243  0.26063206  0.87765448  1
loop_
_geom_bond_atom_site_label_1
_geom_bond_atom_site_label_2
_geom_bond_distance
_geom_bond_site_symmetry_2
K0 O2 2.640231 1_545
K0 O3 2.640231 1_545
K0 O4 2.674445 1_555
K0 O6 2.718239 1_445
K0 O8 2.718239 1_445
K1 O6 2.640232 1_455
K1 O8 2.640232 1_455
K1 O4 2.674445 1_555
K1 O2 2.718239 1_445
K1 O3 2.718239 1_445
K2 O9 2.734621 1_654
K2 O3 2.734622 1_545
K2 O1 2.755064 1_554
K2 O8 2.755065 1_555
K2 O5 3.040494 1_554
K2 O4 3.040494 1_555
K3 O0 2.734621 1_655
K3 O2 2.734622 1_545
K3 O7 2.755064 1_555
K3 O6 2.755065 1_555
K3 O5 3.040494 1_555
K3 O4 3.040494 1_555
K4 O8 2.734621 1_455
K4 O1 2.734622 1_564
K4 O3 2.755064 1_555
K4 O9 2.755065 1_554
K4 O4 3.040494 1_555
K4 O5 3.040494 1_554
K5 O1 2.640231 1_565
K5 O7 2.640231 1_565
K5 O5 2.674445 1_555
K5 O9 2.718239 1_665
K5 O0 2.718239 1_665
K6 O6 2.734621 1_455
K6 O7 2.734622 1_565
K6 O2 2.755064 1_555
K6 O0 2.755065 1_555
K6 O4 3.040494 1_555
K6 O5 3.040494 1_555
K7 O9 2.640232 1_655
K7 O0 2.640232 1_655
K7 O5 2.674445 1_555
K7 O1 2.718239 1_665
K7 O7 2.718239 1_665
Al0 O4 1.758470 1_555
Al0 O6 1.928165 1_555
Al0 O8 1.928165 1_555
Al0 O2 1.928165 1_555
Al0 O3 1.928165 1_555
Al1 O5 1.758470 1_555
Al1 O9 1.928165 1_555
Al1 O0 1.928165 1_555
Al1 O1 1.928165 1_555
Al1 O7 1.928165 1_555
Au0 O3 2.009653 1_445
Au0 O1 2.009653 1_554
Au0 O8 2.009653 1_445
Au0 O9 2.009653 1_554
Au1 O7 2.009653 1_555
Au1 O2 2.009653 1_445
Au1 O0 2.009653 1_555
Au1 O6 2.009653 1_445
