# generated using pymatgen
data_Zr2InGaPt2
_symmetry_space_group_name_H-M   'P 1'
_cell_length_a   7.31105223
_cell_length_b   7.31105214
_cell_length_c   7.17781554
_cell_angle_alpha   90.00000000
_cell_angle_beta   90.00000000
_cell_angle_gamma   120.00000042
_symmetry_Int_Tables_number   1
_chemical_formula_structural   Zr2InGaPt2
_chemical_formula_sum   'Zr6 In3 Ga3 Pt6'
_cell_volume   332.26354247
_cell_formula_units_Z   3
loop_
 _symmetry_equiv_pos_site_id
 _symmetry_equiv_pos_as_xyz
  1  'x, y, z'
loop_
 _atom_site_type_symbol
 _atom_site_label
 _atom_site_symmetry_multiplicity
 _atom_site_fract_x
 _atom_site_fract_y
 _atom_site_fract_z
 _atom_site_occupancy
  Zr  Zr0  1  0.38731136  0.41081671  0.74449269  1
  Zr  Zr1  1  0.02350634  0.61268864  0.74449269  1
  Zr  Zr2  1  0.58918329  0.97649366  0.74449269  1
  Zr  Zr3  1  0.61268864  0.02350634  0.25550731  1
  Zr  Zr4  1  0.97649366  0.58918329  0.25550731  1
  Zr  Zr5  1  0.41081671  0.38731136  0.25550731  1
  In  In0  1  0.25475772  0.00000000  0.00000000  1
  In  In1  1  0.74524228  0.74524228  0.00000000  1
  In  In2  1  0.00000000  0.25475772  0.00000000  1
  Ga  Ga0  1  0.71537493  0.71537493  0.50000000  1
  Ga  Ga1  1  0.28462507  0.00000000  0.50000000  1
  Ga  Ga2  1  0.00000000  0.28462507  0.50000000  1
  Pt  Pt0  1  0.66666700  0.33333300  0.96130144  1
  Pt  Pt1  1  0.00000000  0.00000000  0.70948447  1
  Pt  Pt2  1  0.66666700  0.33333300  0.53624913  1
  Pt  Pt3  1  0.33333300  0.66666700  0.46375087  1
  Pt  Pt4  1  0.33333300  0.66666700  0.03869856  1
  Pt  Pt5  1  0.00000000  0.00000000  0.29051553  1
loop_
_geom_bond_atom_site_label_1
_geom_bond_atom_site_label_2
_geom_bond_distance
_geom_bond_site_symmetry_2
In0 Pt4 2.783199 1_545
In0 Pt0 2.783204 1_554
In0 Pt5 2.795965 1_555
In0 Pt1 2.795965 1_554
In0 Zr1 3.074532 1_544
In0 Zr5 3.074532 1_555
In0 Zr3 3.129093 1_555
In0 Zr2 3.129099 1_544
In0 In2 3.226026 1_555
In0 In1 3.226026 1_445
In0 Zr0 3.226915 1_554
In0 Zr4 3.226916 1_445
In1 Pt0 2.783207 1_554
In1 Pt4 2.783207 1_555
In1 Pt5 2.795965 1_665
In1 Pt1 2.795965 1_664
In1 Zr2 3.074527 1_554
In1 Zr4 3.074527 1_555
In1 Zr5 3.129096 1_555
In1 Zr0 3.129096 1_554
In1 In2 3.226026 1_665
In1 Zr3 3.226920 1_565
In1 Zr1 3.226920 1_654
In2 Pt0 2.783199 1_454
In2 Pt4 2.783204 1_555
In2 Pt5 2.795965 1_555
In2 Pt1 2.795965 1_554
In2 Zr3 3.074532 1_455
In2 Zr0 3.074532 1_554
In2 Zr1 3.129093 1_554
In2 Zr4 3.129099 1_455
In2 Zr5 3.226915 1_555
In2 Zr2 3.226916 1_444
Ga0 Pt1 2.567317 1_665
Ga0 Pt5 2.567317 1_665
Ga0 Pt2 2.646021 1_555
Ga0 Pt3 2.646021 1_555
Ga0 Zr5 2.906865 1_555
Ga0 Zr0 2.906865 1_555
Ga0 Zr2 3.055601 1_555
Ga0 Zr4 3.055601 1_555
Ga0 Zr3 3.226387 1_565
Ga0 Zr1 3.226387 1_655
Ga1 Pt5 2.567317 1_555
Ga1 Pt1 2.567317 1_555
Ga1 Pt3 2.646014 1_545
Ga1 Pt2 2.646018 1_555
Ga1 Zr3 2.906862 1_555
Ga1 Zr2 2.906868 1_545
Ga1 Zr1 3.055605 1_545
Ga1 Zr5 3.055607 1_555
Ga1 Zr0 3.226381 1_555
Ga1 Zr4 3.226383 1_445
Ga2 Pt1 2.567317 1_555
Ga2 Pt5 2.567317 1_555
Ga2 Pt2 2.646014 1_455
Ga2 Pt3 2.646018 1_555
Ga2 Zr1 2.906862 1_555
Ga2 Zr4 2.906868 1_455
Ga2 Zr3 3.055605 1_455
Ga2 Zr0 3.055607 1_555
Ga2 Zr5 3.226381 1_555
Ga2 Zr2 3.226383 1_445
Pt0 Zr2 2.840955 1_545
Pt0 Zr1 2.840955 1_655
Pt0 Zr0 2.840955 1_555
Pt0 Zr3 2.975277 1_556
Pt0 Zr4 2.975281 1_556
Pt0 Zr5 2.975288 1_556
Pt0 Pt2 3.050947 1_555
Pt1 Zr2 2.932155 1_445
Pt1 Zr0 2.932158 1_555
Pt1 Zr1 2.932162 1_545
Pt1 Pt5 3.007282 1_555
Pt2 Zr2 2.807749 1_545
Pt2 Zr1 2.807749 1_655
Pt2 Zr0 2.807749 1_555
Pt2 Zr3 2.907481 1_555
Pt2 Zr4 2.907485 1_555
Pt2 Zr5 2.907491 1_555
Pt3 Zr3 2.807749 1_565
Pt3 Zr5 2.807749 1_555
Pt3 Zr4 2.807749 1_455
Pt3 Zr1 2.907481 1_555
Pt3 Zr2 2.907485 1_555
Pt3 Zr0 2.907491 1_555
Pt3 Pt4 3.050947 1_555
Pt4 Zr3 2.840955 1_565
Pt4 Zr5 2.840955 1_555
Pt4 Zr4 2.840955 1_455
Pt4 Zr1 2.975278 1_554
Pt4 Zr2 2.975281 1_554
Pt4 Zr0 2.975288 1_554
Pt5 Zr4 2.932155 1_445
Pt5 Zr5 2.932158 1_555
Pt5 Zr3 2.932162 1_455
