# generated using pymatgen
data_BeTl2F4
_symmetry_space_group_name_H-M   'P 1'
_cell_length_a   5.76008699
_cell_length_b   7.63319675
_cell_length_c   10.40952466
_cell_angle_alpha   90.00000000
_cell_angle_beta   90.00000000
_cell_angle_gamma   90.00000000
_symmetry_Int_Tables_number   1
_chemical_formula_structural   BeTl2F4
_chemical_formula_sum   'Be4 Tl8 F16'
_cell_volume   457.68470292
_cell_formula_units_Z   4
loop_
 _symmetry_equiv_pos_site_id
 _symmetry_equiv_pos_as_xyz
  1  'x, y, z'
loop_
 _atom_site_type_symbol
 _atom_site_label
 _atom_site_symmetry_multiplicity
 _atom_site_fract_x
 _atom_site_fract_y
 _atom_site_fract_z
 _atom_site_occupancy
  Be  Be0  1  0.25000000  0.73104376  0.92234580  1
  Be  Be1  1  0.25000000  0.23104376  0.57765420  1
  Be  Be2  1  0.75000000  0.76895624  0.42234580  1
  Be  Be3  1  0.75000000  0.26895624  0.07765420  1
  Tl  Tl0  1  0.25000000  0.98925306  0.30347183  1
  Tl  Tl1  1  0.75000000  0.01074694  0.69652817  1
  Tl  Tl2  1  0.25000000  0.48925306  0.19652817  1
  Tl  Tl3  1  0.75000000  0.51074694  0.80347183  1
  Tl  Tl4  1  0.25000000  0.16740723  0.91385941  1
  Tl  Tl5  1  0.75000000  0.83259277  0.08614059  1
  Tl  Tl6  1  0.25000000  0.66740723  0.58614059  1
  Tl  Tl7  1  0.75000000  0.33259277  0.41385941  1
  F  F0  1  0.25000000  0.02807502  0.58306981  1
  F  F1  1  0.75000000  0.97192498  0.41693019  1
  F  F2  1  0.25000000  0.52807502  0.91693019  1
  F  F3  1  0.75000000  0.47192498  0.08306981  1
  F  F4  1  0.75000000  0.20063304  0.93530487  1
  F  F5  1  0.25000000  0.29936696  0.43530487  1
  F  F6  1  0.25000000  0.79936696  0.06469513  1
  F  F7  1  0.75000000  0.70063304  0.56469513  1
  F  F8  1  0.52803871  0.19390013  0.14290191  1
  F  F9  1  0.02803871  0.80609987  0.85709809  1
  F  F10  1  0.97196129  0.69390013  0.35709809  1
  F  F11  1  0.47196129  0.30609987  0.64290191  1
  F  F12  1  0.47196129  0.80609987  0.85709809  1
  F  F13  1  0.97196129  0.19390013  0.14290191  1
  F  F14  1  0.02803871  0.30609987  0.64290191  1
  F  F15  1  0.52803871  0.69390013  0.35709809  1
loop_
_geom_bond_atom_site_label_1
_geom_bond_atom_site_label_2
_geom_bond_distance
_geom_bond_site_symmetry_2
Be0 F2 1.550326 1_555
Be0 F9 1.556968 1_555
Be0 F12 1.556968 1_555
Be0 F6 1.570887 1_556
Be1 F0 1.550326 1_555
Be1 F11 1.556968 1_555
Be1 F14 1.556968 1_555
Be1 F5 1.570887 1_555
Be2 F1 1.550326 1_555
Be2 F15 1.556968 1_555
Be2 F10 1.556968 1_555
Be2 F7 1.570887 1_555
Be3 F3 1.550326 1_555
Be3 F8 1.556968 1_555
Be3 F13 1.556968 1_555
Be3 F4 1.570887 1_554
F0 Tl6 2.753234 1_545
F1 Tl7 2.753234 1_565
F2 Tl4 2.753234 1_555
F3 Tl5 2.753234 1_555
