# generated using pymatgen
data_NpBe13
_symmetry_space_group_name_H-M   'P 1'
_cell_length_a   7.25205210
_cell_length_b   7.25205227
_cell_length_c   7.25799437
_cell_angle_alpha   59.97290128
_cell_angle_beta   59.97290055
_cell_angle_gamma   59.77500765
_symmetry_Int_Tables_number   1
_chemical_formula_structural   NpBe13
_chemical_formula_sum   'Np2 Be26'
_cell_volume   269.34080449
_cell_formula_units_Z   2
loop_
 _symmetry_equiv_pos_site_id
 _symmetry_equiv_pos_as_xyz
  1  'x, y, z'
loop_
 _atom_site_type_symbol
 _atom_site_label
 _atom_site_symmetry_multiplicity
 _atom_site_fract_x
 _atom_site_fract_y
 _atom_site_fract_z
 _atom_site_occupancy
  Np  Np0  1  0.25000000  0.25000000  0.25000000  1
  Np  Np1  1  0.75000000  0.75000000  0.75000000  1
  Be  Be0  1  -0.00000000  -0.00000000  0.00000000  1
  Be  Be1  1  0.50000000  0.50000000  0.50000000  1
  Be  Be2  1  0.28980899  0.93776128  0.06257259  1
  Be  Be3  1  0.56287656  0.43712344  0.78852016  1
  Be  Be4  1  0.79141141  0.20858859  0.56126090  1
  Be  Be5  1  0.56210108  0.78935774  0.21084091  1
  Be  Be6  1  0.43789892  0.21064226  0.78915909  1
  Be  Be7  1  0.43776128  0.78980899  0.56257259  1
  Be  Be8  1  0.78980899  0.43776128  0.20985514  1
  Be  Be9  1  0.06210108  0.28935774  0.93770128  1
  Be  Be10  1  0.93712344  0.06287656  0.28852016  1
  Be  Be11  1  0.70858859  0.29141141  0.06126090  1
  Be  Be12  1  0.93789892  0.71064226  0.06229872  1
  Be  Be13  1  0.71064226  0.93789892  0.28915909  1
  Be  Be14  1  0.06287656  0.93712344  0.71147984  1
  Be  Be15  1  0.28935774  0.06210108  0.71084091  1
  Be  Be16  1  0.29141141  0.70858859  0.93873910  1
  Be  Be17  1  0.78935774  0.56210108  0.43770128  1
  Be  Be18  1  0.20858859  0.79141141  0.43873910  1
  Be  Be19  1  0.21019101  0.56223872  0.79014486  1
  Be  Be20  1  0.56223872  0.21019101  0.43742741  1
  Be  Be21  1  0.43712344  0.56287656  0.21147984  1
  Be  Be22  1  0.21064226  0.43789892  0.56229872  1
  Be  Be23  1  0.06223872  0.71019101  0.29014486  1
  Be  Be24  1  0.71019101  0.06223872  0.93742741  1
  Be  Be25  1  0.93776128  0.28980899  0.70985514  1
loop_
_geom_bond_atom_site_label_1
_geom_bond_atom_site_label_2
_geom_bond_distance
_geom_bond_site_symmetry_2
Be0 Be14 2.142818 1_544
Be0 Be10 2.142818 1_455
Be0 Be15 2.146802 1_554
Be0 Be13 2.146802 1_445
Be0 Be9 2.146805 1_554
Be0 Be12 2.146805 1_445
Be0 Be24 2.149934 1_454
Be0 Be2 2.149934 1_545
Be0 Be25 2.149943 1_454
Be0 Be23 2.149943 1_545
Be0 Be11 2.152562 1_455
Be0 Be16 2.152562 1_544
Be1 Be21 2.142818 1_555
Be1 Be3 2.142818 1_555
Be1 Be6 2.146802 1_555
Be1 Be5 2.146802 1_555
Be1 Be22 2.146805 1_555
Be1 Be17 2.146805 1_555
Be1 Be20 2.149934 1_555
Be1 Be7 2.149934 1_555
Be1 Be8 2.149943 1_555
Be1 Be19 2.149943 1_555
Be1 Be18 2.152562 1_555
Be1 Be4 2.152562 1_555
Be2 Be21 2.234130 1_555
Be2 Be9 2.235099 1_564
Be2 Be5 2.245811 1_555
Be2 Be6 2.254792 1_564
Be2 Be23 2.336955 1_555
Be2 Np1 3.012921 1_554
Be2 Np0 3.015446 1_565
Be3 Be6 2.237420 1_555
Be3 Be7 2.238143 1_555
Be3 Be4 2.334269 1_555
Be3 Np1 3.025469 1_555
Be3 Np0 3.025469 1_556
Be4 Be8 2.243931 1_555
Be4 Be6 2.247422 1_555
Be4 Np1 3.010212 1_545
Be4 Np0 3.010212 1_655
Be5 Be8 2.235104 1_555
Be5 Be7 2.243161 1_555
Be5 Np0 3.009531 1_565
Be5 Np1 3.021296 1_554
Be6 Be9 2.241546 1_555
Be6 Np1 3.009531 1_545
Be6 Np0 3.021296 1_556
Be7 Np0 3.012921 1_565
Be7 Np1 3.015446 1_555
Be8 Be9 2.245797 1_654
Be8 Np0 3.012927 1_655
Be8 Np1 3.015435 1_554
Be9 Np1 3.009533 1_455
Be9 Np0 3.021288 1_556
Be10 Be8 2.234128 1_555
Be10 Be20 2.234130 1_555
Be10 Be9 2.237416 1_654
Be10 Be13 2.237420 1_545
Be10 Be23 2.238138 1_645
Be10 Be2 2.238143 1_645
Be10 Be4 2.242247 1_555
Be10 Be18 2.244570 1_645
Be10 Be11 2.334269 1_555
Be10 Np0 3.025469 1_655
Be10 Np1 3.025469 1_545
Be11 Be3 2.242247 1_554
Be11 Be24 2.243920 1_554
Be11 Be25 2.243931 1_554
Be11 Be21 2.244570 1_555
Be11 Be8 2.246614 1_555
Be11 Be20 2.246627 1_555
Be11 Be13 2.247422 1_545
Be11 Be9 2.247423 1_654
Be11 Np0 3.010212 1_555
Be11 Np1 3.010212 1_554
Be12 Be24 2.235099 1_564
Be12 Be14 2.237416 1_654
Be12 Be5 2.241546 1_555
Be12 Be23 2.243181 1_655
Be12 Be17 2.244545 1_555
Be12 Be19 2.245797 1_654
Be12 Be16 2.247423 1_654
Be12 Be8 2.254793 1_555
Be12 Be13 2.325691 1_555
Be12 Np0 3.009533 1_655
Be12 Np1 3.021288 1_554
Be13 Be23 2.235104 1_655
Be13 Be17 2.241546 1_555
Be13 Be24 2.243161 1_564
Be13 Be5 2.244533 1_555
Be13 Be20 2.245811 1_565
Be13 Be7 2.254792 1_555
Be13 Np0 3.009531 1_565
Be13 Np1 3.021296 1_555
Be14 Be19 2.234128 1_555
Be14 Be7 2.234130 1_555
Be14 Be15 2.237420 1_565
Be14 Be25 2.238138 1_465
Be14 Be24 2.238143 1_465
Be14 Be18 2.242247 1_555
Be14 Be4 2.244570 1_465
Be14 Be16 2.334269 1_555
Be14 Np1 3.025469 1_455
Be14 Np0 3.025469 1_565
Be15 Be25 2.235104 1_455
Be15 Be22 2.241546 1_555
Be15 Be2 2.243161 1_546
Be15 Be6 2.244533 1_555
Be15 Be7 2.245811 1_545
Be15 Be16 2.247422 1_545
Be15 Be20 2.254792 1_555
Be15 Be9 2.325691 1_555
Be15 Np1 3.009531 1_545
Be15 Np0 3.021296 1_555
Be16 Be21 2.242247 1_556
Be16 Be2 2.243920 1_556
Be16 Be23 2.243931 1_556
Be16 Be3 2.244570 1_555
Be16 Be19 2.246614 1_555
Be16 Be7 2.246627 1_555
Be16 Np1 3.010212 1_555
Be16 Np0 3.010212 1_556
Be17 Be7 2.235099 1_555
Be17 Be3 2.237416 1_555
Be17 Be8 2.243181 1_555
Be17 Be25 2.245797 1_555
Be17 Be4 2.247423 1_555
Be17 Be23 2.254793 1_655
Be17 Be5 2.325691 1_555
Be17 Np0 3.009533 1_655
Be17 Np1 3.021289 1_555
Be18 Be7 2.243920 1_555
Be18 Be19 2.243931 1_555
Be18 Be23 2.246614 1_555
Be18 Be2 2.246627 1_555
Be18 Be5 2.247422 1_555
Be18 Be22 2.247423 1_555
Be18 Be21 2.334269 1_555
Be18 Np0 3.010212 1_565
Be18 Np1 3.010212 1_455
Be19 Be6 2.235104 1_555
Be19 Be3 2.238138 1_555
Be19 Be22 2.243181 1_555
Be19 Be9 2.254793 1_555
Be19 Be7 2.336955 1_555
Be19 Np1 3.012927 1_455
Be19 Np0 3.015435 1_556
Be20 Be22 2.235099 1_555
Be20 Be21 2.238143 1_555
Be20 Be6 2.243161 1_555
Be20 Be4 2.243920 1_555
Be20 Be8 2.336955 1_555
Be20 Np1 3.012921 1_545
Be20 Np0 3.015446 1_555
Be21 Be23 2.234128 1_555
Be21 Be22 2.237416 1_555
Be21 Be5 2.237420 1_555
Be21 Be8 2.238138 1_555
Be21 Np0 3.025469 1_555
Be21 Np1 3.025469 1_554
Be22 Be9 2.244545 1_555
Be22 Be23 2.245797 1_555
Be22 Be25 2.254793 1_455
Be22 Be6 2.325691 1_555
Be22 Np1 3.009533 1_455
Be22 Np0 3.021289 1_555
Be23 Np0 3.012927 1_555
Be23 Np1 3.015435 1_455
Be24 Be3 2.234130 1_555
Be24 Be6 2.245811 1_555
Be24 Be4 2.246627 1_555
Be24 Be5 2.254792 1_546
Be24 Be25 2.336955 1_555
Be24 Np0 3.012921 1_556
Be24 Np1 3.015446 1_545
Be25 Be3 2.234128 1_555
Be25 Be9 2.243181 1_655
Be25 Be4 2.246614 1_555
Be25 Np1 3.012927 1_555
Be25 Np0 3.015435 1_655
