# generated using pymatgen
data_TaAg6AsS8
_symmetry_space_group_name_H-M   'P 1'
_cell_length_a   6.71606916
_cell_length_b   6.96060522
_cell_length_c   7.88087558
_cell_angle_alpha   90.00000000
_cell_angle_beta   90.00000000
_cell_angle_gamma   90.22923092
_symmetry_Int_Tables_number   1
_chemical_formula_structural   TaAg6AsS8
_chemical_formula_sum   'Ta1 Ag6 As1 S8'
_cell_volume   368.41148271
_cell_formula_units_Z   1
loop_
 _symmetry_equiv_pos_site_id
 _symmetry_equiv_pos_as_xyz
  1  'x, y, z'
loop_
 _atom_site_type_symbol
 _atom_site_label
 _atom_site_symmetry_multiplicity
 _atom_site_fract_x
 _atom_site_fract_y
 _atom_site_fract_z
 _atom_site_occupancy
  Ta  Ta0  1  0.50175416  0.81928570  0.50000000  1
  Ag  Ag0  1  0.00056968  0.15759177  0.50000000  1
  Ag  Ag1  1  0.01325813  0.67683124  0.23391438  1
  Ag  Ag2  1  0.51220462  0.31938167  0.24875501  1
  Ag  Ag3  1  0.49546205  0.85682390  0.00000000  1
  Ag  Ag4  1  0.51220462  0.31938167  0.75124499  1
  Ag  Ag5  1  0.01325813  0.67683124  0.76608562  1
  As  As0  1  0.99229700  0.17819743  0.00000000  1
  S  S0  1  0.38706952  0.66482401  0.73814998  1
  S  S1  1  0.88497181  0.33030257  0.77134653  1
  S  S2  1  0.88497181  0.33030257  0.22865347  1
  S  S3  1  0.38706952  0.66482401  0.26185002  1
  S  S4  1  0.31743879  0.17754797  0.00000000  1
  S  S5  1  0.87096243  0.88445313  0.00000000  1
  S  S6  1  0.84152279  0.81753054  0.50000000  1
  S  S7  1  0.38078793  0.12588957  0.50000000  1
loop_
_geom_bond_atom_site_label_1
_geom_bond_atom_site_label_2
_geom_bond_distance
_geom_bond_site_symmetry_2
Ag0 S7 2.563968 1_555
Ag0 S1 2.574565 1_455
Ag0 S2 2.574565 1_455
Ag0 S6 2.592990 1_445
Ag1 S3 2.521896 1_555
Ag1 S5 2.532032 1_455
Ag1 S2 2.558396 1_455
Ag1 S6 2.587630 1_455
Ag2 S2 2.509385 1_555
Ag2 S7 2.550280 1_555
Ag2 S3 2.552387 1_555
Ag2 S4 2.553144 1_555
Ag3 S5 2.528441 1_555
Ag3 S4 2.536655 1_565
Ag3 S3 2.562556 1_555
Ag3 S0 2.562556 1_554
Ag4 S1 2.509385 1_555
Ag4 S7 2.550280 1_555
Ag4 S0 2.552387 1_555
Ag4 S4 2.553144 1_556
Ag5 S0 2.521896 1_555
Ag5 S5 2.532032 1_456
Ag5 S1 2.558396 1_455
Ag5 S6 2.587630 1_455
As0 S4 2.183697 1_655
As0 S5 2.198013 1_545
As0 S2 2.212186 1_555
As0 S1 2.212186 1_554
S0 Ta0 2.294572 1_555
S3 Ta0 2.294572 1_555
S6 Ta0 2.281991 1_555
S7 Ta0 2.286588 1_545
