# generated using pymatgen
data_CsBa3(B2Pt3)6
_symmetry_space_group_name_H-M   'P 1'
_cell_length_a   8.19852822
_cell_length_b   8.19852846
_cell_length_c   8.19852913
_cell_angle_alpha   83.17038032
_cell_angle_beta   83.17039210
_cell_angle_gamma   83.17038522
_symmetry_Int_Tables_number   1
_chemical_formula_structural   CsBa3(B2Pt3)6
_chemical_formula_sum   'Cs1 Ba3 B12 Pt18'
_cell_volume   540.20145379
_cell_formula_units_Z   1
loop_
 _symmetry_equiv_pos_site_id
 _symmetry_equiv_pos_as_xyz
  1  'x, y, z'
loop_
 _atom_site_type_symbol
 _atom_site_label
 _atom_site_symmetry_multiplicity
 _atom_site_fract_x
 _atom_site_fract_y
 _atom_site_fract_z
 _atom_site_occupancy
  Cs  Cs0  1  0.60799283  0.60799283  0.60799283  1
  Ba  Ba0  1  0.84569765  0.84569765  0.84569765  1
  Ba  Ba1  1  0.36233697  0.36233697  0.36233697  1
  Ba  Ba2  1  0.12172380  0.12172380  0.12172380  1
  B  B0  1  0.53388103  0.19527986  0.85290856  1
  B  B1  1  0.85290856  0.53388103  0.19527986  1
  B  B2  1  0.19527986  0.85290856  0.53388103  1
  B  B3  1  0.96990144  0.64755119  0.31357998  1
  B  B4  1  0.47169682  0.81192234  0.14563140  1
  B  B5  1  0.14563140  0.47169682  0.81192234  1
  B  B6  1  0.81192234  0.14563140  0.47169682  1
  B  B7  1  0.03214345  0.35603550  0.69476136  1
  B  B8  1  0.69476136  0.03214345  0.35603550  1
  B  B9  1  0.35603550  0.69476136  0.03214345  1
  B  B10  1  0.31357998  0.96990144  0.64755119  1
  B  B11  1  0.64755119  0.31357998  0.96990144  1
  Pt  Pt0  1  0.42738575  0.93414113  0.39416315  1
  Pt  Pt1  1  0.07667615  0.10104365  0.57883777  1
  Pt  Pt2  1  0.93414113  0.39416315  0.42738575  1
  Pt  Pt3  1  0.57883777  0.07667615  0.10104365  1
  Pt  Pt4  1  0.60311125  0.57230596  0.08201294  1
  Pt  Pt5  1  0.57230596  0.08201294  0.60311125  1
  Pt  Pt6  1  0.08201294  0.60311125  0.57230596  1
  Pt  Pt7  1  0.93254112  0.89687693  0.42349985  1
  Pt  Pt8  1  0.89687693  0.42349985  0.93254112  1
  Pt  Pt9  1  0.42349985  0.93254112  0.89687693  1
  Pt  Pt10  1  0.75056847  0.27649789  0.23065516  1
  Pt  Pt11  1  0.23065516  0.75056847  0.27649789  1
  Pt  Pt12  1  0.27649789  0.23065516  0.75056847  1
  Pt  Pt13  1  0.24286241  0.73095938  0.78281387  1
  Pt  Pt14  1  0.78281387  0.24286241  0.73095938  1
  Pt  Pt15  1  0.73095938  0.78281387  0.24286241  1
  Pt  Pt16  1  0.10104365  0.57883777  0.07667615  1
  Pt  Pt17  1  0.39416315  0.42738575  0.93414113  1
loop_
_geom_bond_atom_site_label_1
_geom_bond_atom_site_label_2
_geom_bond_distance
_geom_bond_site_symmetry_2
Cs0 Pt14 3.261491 1_555
Cs0 Pt13 3.261491 1_555
Cs0 Pt15 3.261491 1_555
Cs0 Pt0 3.313094 1_555
Cs0 Pt17 3.313094 1_555
Cs0 Pt2 3.313094 1_555
Cs0 Pt8 3.829733 1_555
Cs0 Pt7 3.829733 1_555
Cs0 Pt9 3.829733 1_555
Ba0 Pt14 3.277331 1_565
Ba0 Pt13 3.277331 1_655
Ba0 Pt15 3.277331 1_556
Ba0 Pt16 3.409325 1_656
Ba0 Pt1 3.409326 1_665
Ba0 Pt3 3.409326 1_566
Ba0 Pt8 3.435661 1_555
Ba0 Pt9 3.435661 1_555
Ba0 Pt7 3.435662 1_555
Ba0 Pt5 3.441522 1_565
Ba0 Pt4 3.441523 1_556
Ba0 Pt6 3.441523 1_655
Ba1 Pt11 3.259219 1_555
Ba1 Pt10 3.259219 1_555
Ba1 Pt12 3.259219 1_555
Ba1 Pt5 3.306083 1_555
Ba1 Pt4 3.306083 1_555
Ba1 Pt6 3.306083 1_555
Ba1 Pt2 3.470821 1_455
Ba1 Pt0 3.470821 1_545
Ba1 Pt17 3.470822 1_554
Ba1 Pt16 3.539047 1_555
Ba1 Pt1 3.539047 1_555
Ba1 Pt3 3.539047 1_555
Ba2 Pt11 3.220561 1_545
Ba2 Pt10 3.220561 1_455
Ba2 Pt12 3.220561 1_554
Ba2 Pt8 3.256950 1_454
Ba2 Pt7 3.256950 1_445
Ba2 Pt9 3.256950 1_544
B0 B11 1.837932 1_555
B0 Pt3 2.200577 1_556
B0 Pt14 2.219975 1_555
B0 Pt17 2.231221 1_555
B0 Pt5 2.320573 1_555
B0 Pt12 2.336353 1_555
B0 Pt9 2.406301 1_545
B1 B3 1.837932 1_555
B1 Pt16 2.200577 1_655
B1 Pt15 2.219975 1_555
B1 Pt2 2.231221 1_555
B1 Pt4 2.320572 1_555
B1 Pt10 2.336353 1_555
B1 Pt8 2.406301 1_554
B2 Pt1 2.200577 1_565
B2 Pt13 2.219975 1_555
B2 Pt0 2.231221 1_555
B2 Pt6 2.320572 1_555
B2 Pt11 2.336353 1_555
B2 Pt7 2.406301 1_455
B3 Pt16 2.205733 1_655
B3 Pt2 2.211549 1_555
B3 Pt15 2.236971 1_555
B3 Pt7 2.303881 1_555
B3 Pt11 2.364258 1_655
B3 Pt6 2.382687 1_655
B4 B9 1.823888 1_555
B4 Pt4 2.213315 1_555
B4 Pt9 2.216384 1_554
B4 Pt11 2.216588 1_555
B4 Pt15 2.334000 1_555
B4 Pt0 2.347501 1_555
B4 Pt3 2.409370 1_565
B5 B7 1.823888 1_555
B5 Pt6 2.213315 1_555
B5 Pt8 2.216385 1_455
B5 Pt12 2.216588 1_555
B5 Pt13 2.334000 1_555
B5 Pt17 2.347501 1_555
B5 Pt16 2.409370 1_556
B6 B8 1.823888 1_555
B6 Pt5 2.213315 1_555
B6 Pt7 2.216385 1_545
B6 Pt10 2.216588 1_555
B6 Pt14 2.334000 1_555
B6 Pt2 2.347501 1_555
B6 Pt1 2.409370 1_655
B7 Pt6 2.212250 1_555
B7 Pt12 2.212635 1_555
B7 Pt8 2.220923 1_455
B7 Pt14 2.317066 1_455
B7 Pt1 2.369702 1_555
B7 Pt2 2.396814 1_455
B8 Pt5 2.212250 1_555
B8 Pt10 2.212635 1_555
B8 Pt7 2.220922 1_545
B8 Pt15 2.317066 1_545
B8 Pt3 2.369702 1_555
B8 Pt0 2.396814 1_545
B9 Pt4 2.212250 1_555
B9 Pt11 2.212635 1_555
B9 Pt9 2.220923 1_554
B9 Pt13 2.317066 1_554
B9 Pt16 2.369702 1_555
B9 Pt17 2.396814 1_554
B10 B2 1.837932 1_555
B10 Pt1 2.205733 1_565
B10 Pt0 2.211549 1_555
B10 Pt13 2.236971 1_555
B10 Pt9 2.303881 1_555
B10 Pt12 2.364258 1_565
B10 Pt5 2.382687 1_565
B11 Pt3 2.205733 1_556
B11 Pt17 2.211548 1_555
B11 Pt14 2.236971 1_555
B11 Pt8 2.303881 1_555
B11 Pt10 2.364258 1_556
B11 Pt4 2.382687 1_556
Pt1 Pt7 2.674978 1_445
Pt3 Pt9 2.674978 1_544
Pt4 Pt8 2.783076 1_554
Pt5 Pt9 2.783076 1_545
Pt6 Pt7 2.783076 1_455
Pt10 Pt8 2.794806 1_554
Pt11 Pt7 2.794806 1_455
Pt12 Pt9 2.794805 1_545
Pt13 Pt9 2.660478 1_555
Pt14 Pt8 2.660478 1_555
Pt15 Pt7 2.660478 1_555
Pt16 Pt8 2.674978 1_454
