# generated using pymatgen
data_Rb5BaNbSb4
_symmetry_space_group_name_H-M   'P 1'
_cell_length_a   11.43397790
_cell_length_b   11.43397766
_cell_length_c   8.77122603
_cell_angle_alpha   88.76940252
_cell_angle_beta   88.76939611
_cell_angle_gamma   120.68069660
_symmetry_Int_Tables_number   1
_chemical_formula_structural   Rb5BaNbSb4
_chemical_formula_sum   'Rb10 Ba2 Nb2 Sb8'
_cell_volume   985.27231566
_cell_formula_units_Z   2
loop_
 _symmetry_equiv_pos_site_id
 _symmetry_equiv_pos_as_xyz
  1  'x, y, z'
loop_
 _atom_site_type_symbol
 _atom_site_label
 _atom_site_symmetry_multiplicity
 _atom_site_fract_x
 _atom_site_fract_y
 _atom_site_fract_z
 _atom_site_occupancy
  Rb  Rb0  1  0.46877964  0.52409840  0.60605515  1
  Rb  Rb1  1  0.05371155  0.52507500  0.60908739  1
  Rb  Rb2  1  0.52409840  0.46877964  0.10605515  1
  Rb  Rb3  1  0.52507500  0.05371155  0.10908739  1
  Rb  Rb4  1  0.86527339  0.14283866  0.78875666  1
  Rb  Rb5  1  0.29522993  0.15402883  0.82458127  1
  Rb  Rb6  1  0.85448859  0.71486506  0.77038459  1
  Rb  Rb7  1  0.14283866  0.86527339  0.28875666  1
  Rb  Rb8  1  0.71486506  0.85448859  0.27038459  1
  Rb  Rb9  1  0.15402883  0.29522993  0.32458127  1
  Ba  Ba0  1  0.46788411  0.94170634  0.60355002  1
  Ba  Ba1  1  0.94170634  0.46788411  0.10355002  1
  Nb  Nb0  1  0.66885502  0.33105461  0.49958139  1
  Nb  Nb1  1  0.33105461  0.66885502  0.99958139  1
  Sb  Sb0  1  0.68153022  0.33483906  0.80784328  1
  Sb  Sb1  1  0.33483906  0.68153022  0.30784328  1
  Sb  Sb2  1  0.19775550  0.79364810  0.89480045  1
  Sb  Sb3  1  0.58800242  0.79922493  0.87975796  1
  Sb  Sb4  1  0.19291042  0.40420022  0.92280084  1
  Sb  Sb5  1  0.79364810  0.19775550  0.39480045  1
  Sb  Sb6  1  0.40420022  0.19291042  0.42280084  1
  Sb  Sb7  1  0.79922493  0.58800242  0.37975796  1
loop_
_geom_bond_atom_site_label_1
_geom_bond_atom_site_label_2
_geom_bond_distance
_geom_bond_site_symmetry_2
Rb0 Sb3 3.688685 1_555
Rb0 Sb4 3.820292 1_555
Rb0 Sb6 3.863624 1_555
Rb0 Sb1 3.900076 1_555
Rb0 Sb7 3.943039 1_555
Rb1 Sb2 3.710729 1_555
Rb1 Sb1 3.752093 1_555
Rb1 Sb4 3.779484 1_555
Rb1 Sb7 3.918741 1_455
Rb1 Sb5 3.945484 1_455
Rb1 Sb0 3.994014 1_455
Rb2 Sb7 3.688685 1_555
Rb2 Sb6 3.820292 1_555
Rb2 Sb4 3.863625 1_554
Rb2 Sb0 3.900075 1_554
Rb2 Sb3 3.943039 1_554
Rb3 Sb5 3.710729 1_555
Rb3 Sb0 3.752093 1_554
Rb3 Sb6 3.779483 1_555
Rb3 Sb3 3.918741 1_544
Rb3 Sb2 3.945484 1_544
Rb3 Sb1 3.994014 1_545
Rb4 Sb3 3.628974 1_545
Rb4 Sb4 3.641739 1_655
Rb4 Sb5 3.682181 1_555
Rb4 Sb0 3.737485 1_555
Rb5 Sb6 3.653522 1_555
Rb5 Sb4 3.710900 1_555
Rb5 Sb2 3.711546 1_545
Rb5 Sb0 3.800710 1_555
Rb6 Sb7 3.689690 1_555
Rb6 Sb2 3.745044 1_655
Rb6 Sb0 3.747154 1_555
Rb6 Sb3 3.748121 1_555
Rb7 Sb7 3.628974 1_455
Rb7 Sb6 3.641739 1_565
Rb7 Sb2 3.682181 1_554
Rb7 Sb1 3.737485 1_555
Rb8 Sb3 3.689690 1_554
Rb8 Sb5 3.745044 1_565
Rb8 Sb1 3.747154 1_555
Rb8 Sb7 3.748121 1_555
Rb9 Sb4 3.653522 1_554
Rb9 Sb6 3.710900 1_555
Rb9 Sb5 3.711546 1_455
Rb9 Sb1 3.800710 1_555
Ba0 Sb3 3.559007 1_555
Ba0 Sb2 3.615394 1_555
Ba0 Sb6 3.644437 1_565
Ba0 Sb1 3.711316 1_555
Ba0 Sb5 3.761117 1_565
Ba1 Sb7 3.559007 1_555
Ba1 Sb5 3.615394 1_555
Ba1 Sb4 3.644437 1_654
Ba1 Sb0 3.711316 1_554
Ba1 Sb2 3.761117 1_654
Nb0 Sb7 2.699804 1_555
Nb0 Sb0 2.710914 1_555
Nb0 Sb6 2.713107 1_555
Nb0 Sb5 2.725226 1_555
Nb0 Rb1 3.939377 1_655
Nb1 Sb3 2.699804 1_555
Nb1 Sb1 2.710914 1_556
Nb1 Sb4 2.713107 1_555
Nb1 Sb2 2.725226 1_555
Nb1 Rb3 3.939377 1_566
