# generated using pymatgen
data_CaZr3ScSe8
_symmetry_space_group_name_H-M   'P 1'
_cell_length_a   8.21169601
_cell_length_b   8.21169584
_cell_length_c   8.21169504
_cell_angle_alpha   55.33719948
_cell_angle_beta   55.33720059
_cell_angle_gamma   55.33719524
_symmetry_Int_Tables_number   1
_chemical_formula_structural   CaZr3ScSe8
_chemical_formula_sum   'Ca1 Zr3 Sc1 Se8'
_cell_volume   349.12761919
_cell_formula_units_Z   1
loop_
 _symmetry_equiv_pos_site_id
 _symmetry_equiv_pos_as_xyz
  1  'x, y, z'
loop_
 _atom_site_type_symbol
 _atom_site_label
 _atom_site_symmetry_multiplicity
 _atom_site_fract_x
 _atom_site_fract_y
 _atom_site_fract_z
 _atom_site_occupancy
  Ca  Ca0  1  0.50000000  0.50000000  0.50000000  1
  Zr  Zr0  1  0.00000000  0.50000000  0.50000000  1
  Zr  Zr1  1  0.50000000  0.00000000  0.50000000  1
  Zr  Zr2  1  0.50000000  0.50000000  0.00000000  1
  Sc  Sc0  1  0.00000000  0.00000000  0.00000000  1
  Se  Se0  1  0.25354228  0.75903935  0.75903935  1
  Se  Se1  1  0.24096065  0.24096065  0.74645772  1
  Se  Se2  1  0.74645772  0.24096065  0.24096065  1
  Se  Se3  1  0.24096065  0.74645772  0.24096065  1
  Se  Se4  1  0.25797278  0.25797278  0.25797278  1
  Se  Se5  1  0.74202722  0.74202722  0.74202722  1
  Se  Se6  1  0.75903935  0.25354228  0.75903935  1
  Se  Se7  1  0.75903935  0.75903935  0.25354228  1
loop_
_geom_bond_atom_site_label_1
_geom_bond_atom_site_label_2
_geom_bond_distance
_geom_bond_site_symmetry_2
Ca0 Se6 2.915226 1_555
Ca0 Se3 2.915226 1_555
Ca0 Se0 2.915226 1_555
Ca0 Se2 2.915226 1_555
Ca0 Se7 2.915226 1_555
Ca0 Se1 2.915226 1_555
Sc0 Se3 2.691955 1_545
Sc0 Se6 2.691955 1_454
Sc0 Se2 2.691955 1_455
Sc0 Se0 2.691955 1_544
Sc0 Se1 2.691955 1_554
Sc0 Se7 2.691955 1_445
Se0 Zr2 2.721484 1_556
Se0 Zr1 2.721485 1_565
Se1 Zr0 2.721484 1_555
Se1 Zr1 2.721484 1_555
Se2 Zr2 2.721484 1_555
Se2 Zr1 2.721485 1_555
Se3 Zr2 2.721484 1_555
Se3 Zr0 2.721485 1_555
Se4 Zr1 2.702303 1_555
Se4 Zr0 2.702303 1_555
Se4 Zr2 2.702304 1_555
Se5 Zr1 2.702303 1_565
Se5 Zr0 2.702303 1_655
Se5 Zr2 2.702304 1_556
Se6 Zr2 2.721484 1_556
Se6 Zr0 2.721485 1_655
Se7 Zr0 2.721484 1_655
Se7 Zr1 2.721484 1_565
