# generated using pymatgen
data_Mg2SnO4
_symmetry_space_group_name_H-M   'P 1'
_cell_length_a   6.10925008
_cell_length_b   6.10925026
_cell_length_c   6.04408527
_cell_angle_alpha   60.35222875
_cell_angle_beta   60.35222204
_cell_angle_gamma   61.23304911
_symmetry_Int_Tables_number   1
_chemical_formula_structural   Mg2SnO4
_chemical_formula_sum   'Mg4 Sn2 O8'
_cell_volume   161.81208558
_cell_formula_units_Z   2
loop_
 _symmetry_equiv_pos_site_id
 _symmetry_equiv_pos_as_xyz
  1  'x, y, z'
loop_
 _atom_site_type_symbol
 _atom_site_label
 _atom_site_symmetry_multiplicity
 _atom_site_fract_x
 _atom_site_fract_y
 _atom_site_fract_z
 _atom_site_occupancy
  Mg  Mg0  1  0.01318595  0.01318595  0.98681405  1
  Mg  Mg1  1  0.23681405  0.23681405  0.26318595  1
  Mg  Mg2  1  0.62500000  0.62500000  0.12500000  1
  Mg  Mg3  1  0.62500000  0.62500000  0.62500000  1
  Sn  Sn0  1  0.12500000  0.62500000  0.62500000  1
  Sn  Sn1  1  0.62500000  0.12500000  0.62500000  1
  O  O0  1  0.37844217  0.37844217  0.38780922  1
  O  O1  1  0.37929166  0.84255847  0.38907594  1
  O  O2  1  0.37844217  0.37844217  0.85530745  1
  O  O3  1  0.84255847  0.37929166  0.38907594  1
  O  O4  1  0.40744153  0.87070834  0.86092406  1
  O  O5  1  0.87070834  0.40744153  0.86092406  1
  O  O6  1  0.87155783  0.87155783  0.39469255  1
  O  O7  1  0.87155783  0.87155783  0.86219078  1
loop_
_geom_bond_atom_site_label_1
_geom_bond_atom_site_label_2
_geom_bond_distance
_geom_bond_site_symmetry_2
Mg0 O4 1.990525 1_545
Mg0 O5 1.990525 1_455
Mg0 O6 2.018601 1_446
Mg0 O7 2.018605 1_445
Mg1 O3 1.990525 1_455
Mg1 O1 1.990525 1_545
Mg1 O2 2.018601 1_554
Mg1 O0 2.018605 1_555
Mg2 O5 2.091769 1_554
Mg2 O1 2.091769 1_555
Mg2 O4 2.091770 1_554
Mg2 O3 2.091770 1_555
Mg2 O0 2.123789 1_555
Mg2 O7 2.123789 1_554
Mg3 O4 2.091761 1_555
Mg3 O3 2.091761 1_555
Mg3 O1 2.091761 1_555
Mg3 O5 2.091761 1_555
Mg3 O2 2.123789 1_555
Mg3 O6 2.123789 1_555
O0 Sn0 2.101675 1_555
O0 Sn1 2.101675 1_555
O1 Sn0 2.033241 1_555
O2 Sn1 2.101679 1_555
O2 Sn0 2.101680 1_555
O3 Sn1 2.033241 1_555
O4 Sn1 2.033241 1_565
O5 Sn0 2.033241 1_655
O6 Sn1 2.101679 1_565
O6 Sn0 2.101680 1_655
O7 Sn0 2.101675 1_655
O7 Sn1 2.101675 1_565
