# generated using pymatgen
data_Hf16Ir5Pd3N4
_symmetry_space_group_name_H-M   'P 1'
_cell_length_a   8.67865789
_cell_length_b   8.67865670
_cell_length_c   8.67865718
_cell_angle_alpha   60.05752625
_cell_angle_beta   60.05753399
_cell_angle_gamma   60.05753418
_symmetry_Int_Tables_number   1
_chemical_formula_structural   Hf16Ir5Pd3N4
_chemical_formula_sum   'Hf16 Ir5 Pd3 N4'
_cell_volume   462.81617162
_cell_formula_units_Z   1
loop_
 _symmetry_equiv_pos_site_id
 _symmetry_equiv_pos_as_xyz
  1  'x, y, z'
loop_
 _atom_site_type_symbol
 _atom_site_label
 _atom_site_symmetry_multiplicity
 _atom_site_fract_x
 _atom_site_fract_y
 _atom_site_fract_z
 _atom_site_occupancy
  Hf  Hf0  1  0.13243207  0.62158448  0.62158448  1
  Hf  Hf1  1  0.62158448  0.13243207  0.62158448  1
  Hf  Hf2  1  0.62158448  0.62158448  0.13243207  1
  Hf  Hf3  1  0.62549040  0.62549040  0.62549040  1
  Hf  Hf4  1  0.81849153  0.81849153  0.18157550  1
  Hf  Hf5  1  0.18241459  0.18241459  0.81695701  1
  Hf  Hf6  1  0.81849153  0.18157550  0.81849153  1
  Hf  Hf7  1  0.18241459  0.81695701  0.18241459  1
  Hf  Hf8  1  0.18157550  0.81849153  0.81849153  1
  Hf  Hf9  1  0.81695701  0.18241459  0.18241459  1
  Hf  Hf10  1  0.43431060  0.43431060  0.06813566  1
  Hf  Hf11  1  0.06395517  0.06395517  0.43554412  1
  Hf  Hf12  1  0.43431060  0.06813566  0.43431060  1
  Hf  Hf13  1  0.06395517  0.43554412  0.06395517  1
  Hf  Hf14  1  0.06813566  0.43431060  0.43431060  1
  Hf  Hf15  1  0.43554412  0.06395517  0.06395517  1
  Ir  Ir0  1  0.40360157  0.40360157  0.40360157  1
  Ir  Ir1  1  0.48627230  0.83951504  0.83951504  1
  Ir  Ir2  1  0.83951504  0.48627230  0.83951504  1
  Ir  Ir3  1  0.83951504  0.83951504  0.48627230  1
  Ir  Ir4  1  0.83738719  0.83738719  0.83738719  1
  Pd  Pd0  1  0.77709058  0.40851655  0.40851655  1
  Pd  Pd1  1  0.40851655  0.77709058  0.40851655  1
  Pd  Pd2  1  0.40851655  0.40851655  0.77709058  1
  N  N0  1  0.62543781  0.12394502  0.12394502  1
  N  N1  1  0.12394502  0.62543781  0.12394502  1
  N  N2  1  0.12394502  0.12394502  0.62543781  1
  N  N3  1  0.12461282  0.12461282  0.12461282  1
loop_
_geom_bond_atom_site_label_1
_geom_bond_atom_site_label_2
_geom_bond_distance
_geom_bond_site_symmetry_2
Hf0 Pd1 2.701039 1_555
Hf0 Pd2 2.701039 1_555
Hf0 Ir0 2.716641 1_555
Hf0 Ir2 2.716959 1_455
Hf0 Ir3 2.716959 1_455
Hf0 Ir4 2.738408 1_455
Hf1 Pd0 2.701039 1_555
Hf1 Pd2 2.701039 1_555
Hf1 Ir0 2.716640 1_555
Hf1 Ir1 2.716959 1_545
Hf1 Ir3 2.716959 1_545
Hf1 Ir4 2.738408 1_545
Hf2 Pd0 2.701039 1_555
Hf2 Pd1 2.701039 1_555
Hf2 Ir0 2.716640 1_555
Hf2 Ir1 2.716959 1_554
Hf2 Ir2 2.716959 1_554
Hf2 Ir4 2.738408 1_554
Hf3 Ir3 2.706198 1_555
Hf3 Ir2 2.706198 1_555
Hf3 Ir1 2.706198 1_555
Hf3 Pd2 2.723240 1_555
Hf3 Pd1 2.723240 1_555
Hf3 Pd0 2.723240 1_555
Hf4 N0 2.272418 1_565
Hf4 N1 2.272419 1_655
Hf4 Ir4 2.832906 1_554
Hf4 Ir3 2.838261 1_555
Hf5 N3 2.282424 1_556
Hf5 N2 2.284431 1_555
Hf5 Ir1 2.819267 1_545
Hf5 Ir2 2.819267 1_455
Hf6 N0 2.272418 1_556
Hf6 N2 2.272419 1_655
Hf6 Ir4 2.832906 1_545
Hf6 Ir2 2.838261 1_555
Hf7 N3 2.282424 1_565
Hf7 N1 2.284431 1_555
Hf7 Ir1 2.819267 1_554
Hf7 Ir3 2.819267 1_455
Hf8 N2 2.272418 1_565
Hf8 N1 2.272418 1_556
Hf8 Ir4 2.832906 1_455
Hf8 Ir1 2.838261 1_555
Hf9 N3 2.282424 1_655
Hf9 N0 2.284431 1_555
Hf9 Ir3 2.819266 1_545
Hf9 Ir2 2.819266 1_554
Hf10 N0 2.297992 1_555
Hf10 N1 2.297992 1_555
Hf10 Ir0 2.672083 1_555
Hf10 Pd2 2.767531 1_554
Hf11 N2 2.289479 1_555
Hf11 N3 2.297056 1_555
Hf11 Pd0 2.765172 1_455
Hf11 Pd1 2.765173 1_545
Hf11 Ir4 3.172342 1_445
Hf12 N0 2.297992 1_555
Hf12 N2 2.297992 1_555
Hf12 Ir0 2.672083 1_555
Hf12 Pd1 2.767531 1_545
Hf13 N1 2.289479 1_555
Hf13 N3 2.297056 1_555
Hf13 Pd0 2.765172 1_455
Hf13 Pd2 2.765173 1_554
Hf13 Ir4 3.172342 1_454
Hf14 N2 2.297992 1_555
Hf14 N1 2.297992 1_555
Hf14 Ir0 2.672083 1_555
Hf14 Pd0 2.767532 1_455
Hf15 N0 2.289479 1_555
Hf15 N3 2.297056 1_555
Hf15 Pd2 2.765172 1_554
Hf15 Pd1 2.765172 1_545
Hf15 Ir4 3.172343 1_544
