# generated using pymatgen
data_Ba2Mg(SeO3)3
_symmetry_space_group_name_H-M   'P 1'
_cell_length_a   7.47896725
_cell_length_b   7.81073014
_cell_length_c   9.22442472
_cell_angle_alpha   103.10173925
_cell_angle_beta   105.32297130
_cell_angle_gamma   93.99592965
_symmetry_Int_Tables_number   1
_chemical_formula_structural   Ba2Mg(SeO3)3
_chemical_formula_sum   'Ba4 Mg2 Se6 O18'
_cell_volume   501.33220721
_cell_formula_units_Z   2
loop_
 _symmetry_equiv_pos_site_id
 _symmetry_equiv_pos_as_xyz
  1  'x, y, z'
loop_
 _atom_site_type_symbol
 _atom_site_label
 _atom_site_symmetry_multiplicity
 _atom_site_fract_x
 _atom_site_fract_y
 _atom_site_fract_z
 _atom_site_occupancy
  Ba  Ba0  1  0.62967668  0.48552431  0.80929355  1
  Ba  Ba1  1  0.37032735  0.51446005  0.19069928  1
  Ba  Ba2  1  0.76100481  0.91965194  0.61362031  1
  Ba  Ba3  1  0.23898888  0.08034534  0.38638967  1
  Mg  Mg0  1  0.09334294  0.34934077  0.75055297  1
  Mg  Mg1  1  0.90664017  0.65066882  0.24943088  1
  Se  Se0  1  0.22833727  0.63910242  0.58584380  1
  Se  Se1  1  0.89319541  0.21088237  0.03189283  1
  Se  Se2  1  0.34672258  0.08541593  0.79211537  1
  Se  Se3  1  0.65325251  0.91457816  0.20788640  1
  Se  Se4  1  0.10681234  0.78909059  0.96811627  1
  Se  Se5  1  0.77169454  0.36093820  0.41417487  1
  O  O0  1  0.16437581  0.63322380  0.39234893  1
  O  O1  1  0.83562621  0.36678233  0.60764909  1
  O  O2  1  0.22639308  0.41959192  0.59173174  1
  O  O3  1  0.77360256  0.58043734  0.40824961  1
  O  O4  1  0.46183160  0.70567969  0.63677721  1
  O  O5  1  0.53817375  0.29431314  0.36318210  1
  O  O6  1  0.07765775  0.76443978  0.13990914  1
  O  O7  1  0.92233942  0.23556113  0.86011950  1
  O  O8  1  0.17662838  0.58962498  0.90401112  1
  O  O9  1  0.82338651  0.41036962  0.09599443  1
  O  O10  1  0.88708383  0.77324338  0.85092892  1
  O  O11  1  0.11294360  0.22676286  0.14908532  1
  O  O12  1  0.50552658  0.88150721  0.31434831  1
  O  O13  1  0.49446077  0.11845617  0.68565312  1
  O  O14  1  0.86658659  0.92669640  0.34165881  1
  O  O15  1  0.35330007  0.29784673  0.89647315  1
  O  O16  1  0.64669027  0.70215123  0.10352452  1
  O  O17  1  0.13339774  0.07331238  0.65833977  1
loop_
_geom_bond_atom_site_label_1
_geom_bond_atom_site_label_2
_geom_bond_distance
_geom_bond_site_symmetry_2
Ba0 O10 2.742073 1_555
Ba0 O4 2.747878 1_555
Ba0 O1 2.761103 1_555
Ba0 O16 2.819750 1_556
Ba0 O13 2.836795 1_555
Ba0 O15 2.838800 1_555
Ba0 O9 2.869668 1_556
Ba0 O7 3.048078 1_555
Ba0 O2 3.083136 1_555
Ba1 O11 2.741886 1_555
Ba1 O5 2.747643 1_555
Ba1 O0 2.761188 1_555
Ba1 O15 2.819648 1_554
Ba1 O12 2.836632 1_555
Ba1 O16 2.838751 1_555
Ba1 O8 2.869583 1_554
Ba1 O6 3.048173 1_555
Ba1 O3 3.083031 1_555
Ba2 O10 2.680109 1_555
Ba2 O13 2.736855 1_565
Ba2 O4 2.781819 1_555
Ba2 O14 2.832593 1_555
Ba2 O17 2.840768 1_665
Ba2 O12 2.849657 1_555
Ba2 O7 2.882010 1_565
Ba2 O3 2.910535 1_555
Ba3 O11 2.680080 1_555
Ba3 O12 2.736989 1_545
Ba3 O5 2.782067 1_555
Ba3 O17 2.832510 1_555
Ba3 O14 2.840781 1_445
Ba3 O13 2.849620 1_555
Ba3 O6 2.881904 1_545
Ba3 O2 2.910603 1_555
Mg0 O8 2.020091 1_555
Mg0 O1 2.060696 1_455
Mg0 O7 2.092584 1_455
Mg0 O2 2.120479 1_555
Mg0 O15 2.173667 1_555
Mg0 O17 2.203365 1_555
Mg1 O9 2.020083 1_555
Mg1 O0 2.060865 1_655
Mg1 O6 2.092320 1_655
Mg1 O3 2.120341 1_555
Mg1 O16 2.173538 1_555
Mg1 O14 2.203383 1_555
O0 Se0 1.710338 1_555
O1 Se5 1.710215 1_555
O2 Se0 1.726835 1_555
O3 Se5 1.726850 1_555
O4 Se0 1.694034 1_555
O5 Se5 1.694248 1_555
O6 Se4 1.706153 1_554
O7 Se1 1.706015 1_556
O8 Se4 1.705429 1_555
O9 Se1 1.705542 1_555
O10 Se4 1.690129 1_655
O11 Se1 1.690228 1_455
O12 Se3 1.703082 1_555
O13 Se2 1.703100 1_555
O14 Se3 1.721269 1_555
O15 Se2 1.709280 1_555
O16 Se3 1.709288 1_555
O17 Se2 1.721251 1_555
