# generated using pymatgen
data_Sc6MnSi6Tc5
_symmetry_space_group_name_H-M   'P 1'
_cell_length_a   7.75315117
_cell_length_b   7.75395032
_cell_length_c   7.75394908
_cell_angle_alpha   126.94407879
_cell_angle_beta   127.21113773
_cell_angle_gamma   78.12669155
_symmetry_Int_Tables_number   1
_chemical_formula_structural   Sc6MnSi6Tc5
_chemical_formula_sum   'Sc6 Mn1 Si6 Tc5'
_cell_volume   287.45414208
_cell_formula_units_Z   1
loop_
 _symmetry_equiv_pos_site_id
 _symmetry_equiv_pos_as_xyz
  1  'x, y, z'
loop_
 _atom_site_type_symbol
 _atom_site_label
 _atom_site_symmetry_multiplicity
 _atom_site_fract_x
 _atom_site_fract_y
 _atom_site_fract_z
 _atom_site_occupancy
  Sc  Sc0  1  0.54745046  0.10008155  0.04825394  1
  Sc  Sc1  1  0.45254954  0.50080348  0.55263109  1
  Sc  Sc2  1  0.94816296  0.50080729  0.04811911  1
  Sc  Sc3  1  0.05183704  0.09995615  0.55264433  1
  Sc  Sc4  1  0.74664921  0.88872023  0.63530302  1
  Sc  Sc5  1  0.25335079  0.88865281  0.14207203  1
  Mn  Mn0  1  0.00000000  0.24393718  0.24393718  1
  Si  Si0  1  0.33319457  0.83114203  0.49821111  1
  Si  Si1  1  0.66680543  0.16501454  0.49794646  1
  Si  Si2  1  0.83282516  0.82844544  0.99543144  1
  Si  Si3  1  0.16717484  0.16260528  0.99562028  1
  Si  Si4  1  0.74067538  0.50025356  0.24084509  1
  Si  Si5  1  0.25932462  0.50017071  0.75957918  1
  Tc  Tc0  1  0.12601959  0.74331423  0.61740931  1
  Tc  Tc1  1  0.87398041  0.49138972  0.61729463  1
  Tc  Tc2  1  0.62979484  0.75826984  0.12844980  1
  Tc  Tc3  1  0.37020516  0.49865396  0.12847500  1
  Tc  Tc4  1  0.50000000  0.23977899  0.73977899  1
loop_
_geom_bond_atom_site_label_1
_geom_bond_atom_site_label_2
_geom_bond_distance
_geom_bond_site_symmetry_2
Sc0 Si3 2.699735 1_554
Sc0 Si1 2.728900 1_555
Sc0 Si0 2.731928 1_544
Sc0 Si2 2.764213 1_544
Sc0 Si4 2.781970 1_555
Sc0 Tc2 2.936583 1_545
Sc0 Tc1 2.939584 1_555
Sc0 Tc3 2.966823 1_555
Sc0 Tc0 2.982799 1_544
Sc0 Tc4 2.985973 1_554
Sc1 Si2 2.699736 1_555
Sc1 Si0 2.728900 1_555
Sc1 Si1 2.731939 1_555
Sc1 Si3 2.764215 1_554
Sc1 Si5 2.781972 1_555
Sc1 Tc3 2.936578 1_555
Sc1 Tc0 2.939583 1_555
Sc1 Tc2 2.966829 1_556
Sc1 Tc1 2.982799 1_555
Sc1 Tc4 2.985973 1_555
Sc2 Si2 2.700288 1_554
Sc2 Si0 2.729836 1_655
Sc2 Si1 2.732469 1_554
Sc2 Si3 2.765225 1_654
Sc2 Si4 2.781956 1_555
Sc2 Tc3 2.935914 1_655
Sc2 Tc0 2.941062 1_655
Sc2 Tc2 2.967034 1_555
Sc2 Tc1 2.982592 1_554
Sc2 Tc4 2.985839 1_554
Sc3 Si3 2.700292 1_555
Sc3 Si1 2.729831 1_455
Sc3 Si0 2.732462 1_545
Sc3 Si2 2.765219 1_444
Sc3 Si5 2.781960 1_555
Sc3 Tc2 2.935915 1_445
Sc3 Tc1 2.941062 1_455
Sc3 Tc3 2.967033 1_556
Sc3 Tc0 2.982592 1_545
Sc3 Tc4 2.985839 1_555
Sc4 Si4 2.691038 1_555
Sc4 Si0 2.738979 1_555
Sc4 Si1 2.739883 1_565
Sc4 Si3 2.765026 1_665
Sc4 Si2 2.765167 1_555
Sc4 Tc2 2.929437 1_555
Sc4 Tc3 2.929497 1_555
Sc4 Tc4 2.967135 1_565
Sc4 Tc0 2.980388 1_655
Sc4 Tc1 2.980597 1_555
Sc5 Si5 2.691030 1_554
Sc5 Si1 2.738979 1_565
Sc5 Si0 2.739879 1_555
Sc5 Si2 2.765024 1_454
Sc5 Si3 2.765173 1_564
Sc5 Tc3 2.929434 1_555
Sc5 Tc2 2.929495 1_555
Sc5 Tc4 2.967132 1_565
Sc5 Tc1 2.980387 1_454
Sc5 Tc0 2.980607 1_554
Mn0 Si4 2.519461 1_455
Mn0 Si5 2.519466 1_555
Mn0 Si3 2.647161 1_554
Mn0 Si2 2.647164 1_444
Mn0 Tc1 2.998285 1_455
Mn0 Tc0 2.998286 1_555
Mn0 Sc0 2.999032 1_455
Mn0 Sc1 2.999032 1_555
Mn0 Sc3 3.000315 1_555
Mn0 Sc2 3.000315 1_455
Mn0 Sc4 3.017551 1_444
Mn0 Sc5 3.017555 1_545
Si0 Tc3 2.598844 1_555
Si0 Tc4 2.615862 1_565
Si0 Tc0 2.626876 1_555
Si1 Tc2 2.598831 1_545
Si1 Tc4 2.615864 1_555
Si1 Tc1 2.626885 1_555
Si2 Tc2 2.613162 1_556
Si2 Tc1 2.665746 1_555
Si3 Tc3 2.613163 1_556
Si3 Tc0 2.665742 1_545
Si4 Tc2 2.446045 1_555
Si4 Tc3 2.446257 1_555
Si4 Tc4 2.450641 1_554
Si4 Tc0 2.480821 1_655
Si4 Tc1 2.481194 1_555
Si5 Tc3 2.446047 1_556
Si5 Tc2 2.446254 1_556
Si5 Tc4 2.450646 1_555
Si5 Tc1 2.480819 1_455
Si5 Tc0 2.481192 1_555
