# generated using pymatgen
data_Tc3OsO12
_symmetry_space_group_name_H-M   'P 1'
_cell_length_a   6.45354760
_cell_length_b   6.45346400
_cell_length_c   6.45354730
_cell_angle_alpha   109.47095106
_cell_angle_beta   109.47147476
_cell_angle_gamma   109.47096598
_symmetry_Int_Tables_number   1
_chemical_formula_structural   Tc3OsO12
_chemical_formula_sum   'Tc3 Os1 O12'
_cell_volume   206.90427464
_cell_formula_units_Z   1
loop_
 _symmetry_equiv_pos_site_id
 _symmetry_equiv_pos_as_xyz
  1  'x, y, z'
loop_
 _atom_site_type_symbol
 _atom_site_label
 _atom_site_symmetry_multiplicity
 _atom_site_fract_x
 _atom_site_fract_y
 _atom_site_fract_z
 _atom_site_occupancy
  Tc  Tc0  1  0.00000000  0.00000000  0.50000000  1
  Tc  Tc1  1  0.50000000  0.00000000  0.00000000  1
  Tc  Tc2  1  0.50000000  0.50000000  0.50000000  1
  Os  Os0  1  0.00000000  0.50000000  0.00000000  1
  O  O0  1  0.74144296  0.75882749  0.50026675  1
  O  O1  1  0.74048132  0.24019522  0.98245862  1
  O  O2  1  0.25951868  0.75980478  0.01754138  1
  O  O3  1  0.24197730  0.49971589  0.25951868  1
  O  O4  1  0.25855704  0.24117251  0.49973325  1
  O  O5  1  0.75882379  0.01738453  0.25855704  1
  O  O6  1  0.98245862  0.74226340  0.24197730  1
  O  O7  1  0.75802270  0.50028411  0.74048132  1
  O  O8  1  0.01754138  0.25773660  0.75802270  1
  O  O9  1  0.24117621  0.98261547  0.74144296  1
  O  O10  1  0.50026675  0.74144026  0.75882379  1
  O  O11  1  0.49973325  0.25855974  0.24117621  1
loop_
_geom_bond_atom_site_label_1
_geom_bond_atom_site_label_2
_geom_bond_distance
_geom_bond_site_symmetry_2
O0 Tc0 1.865211 1_665
O0 Tc2 1.865236 1_555
O1 Tc1 1.858633 1_556
O1 Os0 1.871896 1_656
O2 Tc1 1.858633 1_565
O2 Os0 1.871896 1_555
O3 Tc2 1.858641 1_555
O3 Os0 1.871889 1_555
O4 Tc0 1.865211 1_555
O4 Tc2 1.865236 1_555
O5 Tc1 1.865212 1_555
O5 Tc0 1.865237 1_655
O6 Tc0 1.858633 1_665
O6 Os0 1.871897 1_655
O7 Tc2 1.858641 1_555
O7 Os0 1.871889 1_656
O8 Tc0 1.858633 1_555
O8 Os0 1.871897 1_556
O9 Tc1 1.865212 1_566
O9 Tc0 1.865237 1_565
O10 Tc2 1.865215 1_555
O10 Tc1 1.865233 1_566
O11 Tc2 1.865215 1_555
O11 Tc1 1.865233 1_555
