# generated using pymatgen
data_CsRb4GeP3
_symmetry_space_group_name_H-M   'P 1'
_cell_length_a   5.43068158
_cell_length_b   14.89926052
_cell_length_c   15.75006407
_cell_angle_alpha   90.00000000
_cell_angle_beta   90.00000000
_cell_angle_gamma   90.00000000
_symmetry_Int_Tables_number   1
_chemical_formula_structural   CsRb4GeP3
_chemical_formula_sum   'Cs4 Rb16 Ge4 P12'
_cell_volume   1274.38713496
_cell_formula_units_Z   4
loop_
 _symmetry_equiv_pos_site_id
 _symmetry_equiv_pos_as_xyz
  1  'x, y, z'
loop_
 _atom_site_type_symbol
 _atom_site_label
 _atom_site_symmetry_multiplicity
 _atom_site_fract_x
 _atom_site_fract_y
 _atom_site_fract_z
 _atom_site_occupancy
  Cs  Cs0  1  0.25000000  0.13214622  0.52476465  1
  Cs  Cs1  1  0.75000000  0.86785378  0.47523535  1
  Cs  Cs2  1  0.75000000  0.63214622  0.97523535  1
  Cs  Cs3  1  0.25000000  0.36785378  0.02476465  1
  Rb  Rb0  1  0.25000000  0.42436687  0.56675037  1
  Rb  Rb1  1  0.75000000  0.57563313  0.43324963  1
  Rb  Rb2  1  0.75000000  0.92436687  0.93324963  1
  Rb  Rb3  1  0.25000000  0.07563313  0.06675037  1
  Rb  Rb4  1  0.25000000  0.82338022  0.08752142  1
  Rb  Rb5  1  0.75000000  0.17661978  0.91247858  1
  Rb  Rb6  1  0.75000000  0.32338022  0.41247858  1
  Rb  Rb7  1  0.25000000  0.67661978  0.58752142  1
  Rb  Rb8  1  0.25000000  0.23342880  0.26807007  1
  Rb  Rb9  1  0.75000000  0.76657120  0.73192993  1
  Rb  Rb10  1  0.75000000  0.73342880  0.23192993  1
  Rb  Rb11  1  0.25000000  0.26657120  0.76807007  1
  Rb  Rb12  1  0.25000000  0.94912676  0.30410884  1
  Rb  Rb13  1  0.75000000  0.05087324  0.69589116  1
  Rb  Rb14  1  0.75000000  0.44912676  0.19589116  1
  Rb  Rb15  1  0.25000000  0.55087324  0.80410884  1
  Ge  Ge0  1  0.25000000  0.58777710  0.28327226  1
  Ge  Ge1  1  0.75000000  0.41222290  0.71672774  1
  Ge  Ge2  1  0.75000000  0.08777710  0.21672774  1
  Ge  Ge3  1  0.25000000  0.91222290  0.78327226  1
  P  P0  1  0.25000000  0.59718710  0.13929310  1
  P  P1  1  0.75000000  0.40281290  0.86070690  1
  P  P2  1  0.75000000  0.09718710  0.36070690  1
  P  P3  1  0.25000000  0.90281290  0.63929310  1
  P  P4  1  0.25000000  0.45053812  0.34528697  1
  P  P5  1  0.75000000  0.54946188  0.65471303  1
  P  P6  1  0.75000000  0.95053812  0.15471303  1
  P  P7  1  0.25000000  0.04946188  0.84528697  1
  P  P8  1  0.25000000  0.71307303  0.36635203  1
  P  P9  1  0.75000000  0.28692697  0.63364797  1
  P  P10  1  0.75000000  0.21307303  0.13364797  1
  P  P11  1  0.25000000  0.78692697  0.86635203  1
loop_
_geom_bond_atom_site_label_1
_geom_bond_atom_site_label_2
_geom_bond_distance
_geom_bond_site_symmetry_2
Cs0 P2 3.784312 1_555
Cs0 P2 3.784312 1_455
Cs0 P3 3.863805 1_545
Cs0 P9 3.953759 1_455
Cs0 P9 3.953759 1_555
Cs1 P3 3.784312 1_555
Cs1 P3 3.784312 1_655
Cs1 P2 3.863805 1_565
Cs1 P8 3.953759 1_555
Cs1 P8 3.953759 1_655
Cs2 P0 3.784312 1_656
Cs2 P0 3.784312 1_556
Cs2 P1 3.863805 1_555
Cs2 P11 3.953759 1_655
Cs2 P11 3.953759 1_555
Cs3 P1 3.784312 1_454
Cs3 P1 3.784312 1_554
Cs3 P0 3.863805 1_555
Cs3 P10 3.953759 1_555
Cs3 P10 3.953759 1_455
Ge0 P4 2.266065 1_555
Ge0 P0 2.272011 1_555
Ge0 P8 2.279739 1_555
Ge0 Rb10 3.568799 1_555
Ge0 Rb10 3.568799 1_455
Ge0 Rb1 3.603551 1_455
Ge0 Rb1 3.603551 1_555
Ge1 P5 2.266065 1_555
Ge1 P1 2.272011 1_555
Ge1 P9 2.279739 1_555
Ge1 Rb11 3.568799 1_555
Ge1 Rb11 3.568799 1_655
Ge1 Rb0 3.603551 1_655
Ge1 Rb0 3.603551 1_555
Ge2 P6 2.266065 1_545
Ge2 P2 2.272011 1_555
Ge2 P10 2.279739 1_555
Ge2 Rb8 3.568799 1_655
Ge2 Rb8 3.568799 1_555
Ge2 Rb3 3.603551 1_655
Ge2 Rb3 3.603551 1_555
Ge3 P7 2.266065 1_565
Ge3 P3 2.272011 1_555
Ge3 P11 2.279739 1_555
Ge3 Rb9 3.568799 1_455
Ge3 Rb9 3.568799 1_555
Ge3 Rb2 3.603551 1_455
Ge3 Rb2 3.603551 1_555
P0 Rb4 3.467352 1_555
P0 Rb14 3.610277 1_455
P0 Rb14 3.610277 1_555
P0 Rb10 3.690848 1_455
P0 Rb10 3.690848 1_555
P1 Rb5 3.467352 1_555
P1 Rb15 3.610277 1_655
P1 Rb15 3.610277 1_555
P1 Rb11 3.690848 1_655
P1 Rb11 3.690848 1_555
P2 Rb6 3.467352 1_555
P2 Rb12 3.610277 1_645
P2 Rb12 3.610277 1_545
P2 Rb8 3.690848 1_555
P2 Rb8 3.690848 1_655
P3 Rb7 3.467352 1_555
P3 Rb13 3.610277 1_565
P3 Rb13 3.610277 1_465
P3 Rb9 3.690848 1_455
P3 Rb9 3.690848 1_555
P4 Rb8 3.455835 1_555
P4 Rb6 3.475970 1_555
P4 Rb6 3.475970 1_455
P4 Rb0 3.509790 1_555
P4 Rb1 3.572995 1_455
P4 Rb1 3.572995 1_555
P4 Rb14 3.593062 1_455
P4 Rb14 3.593062 1_555
P5 Rb9 3.455835 1_555
P5 Rb7 3.475970 1_655
P5 Rb7 3.475970 1_555
P5 Rb1 3.509790 1_555
P5 Rb0 3.572995 1_655
P5 Rb0 3.572995 1_555
P5 Rb15 3.593062 1_555
P5 Rb15 3.593062 1_655
P6 Rb10 3.455835 1_555
P6 Rb4 3.475970 1_655
P6 Rb4 3.475970 1_555
P6 Rb2 3.509790 1_554
P6 Rb3 3.572995 1_665
P6 Rb3 3.572995 1_565
P6 Rb12 3.593062 1_555
P6 Rb12 3.593062 1_655
P7 Rb11 3.455835 1_555
P7 Rb5 3.475970 1_455
P7 Rb5 3.475970 1_555
P7 Rb3 3.509790 1_556
P7 Rb2 3.572995 1_445
P7 Rb2 3.572995 1_545
P7 Rb13 3.593062 1_455
P7 Rb13 3.593062 1_555
P8 Rb10 3.456503 1_555
P8 Rb10 3.456503 1_455
P8 Rb7 3.525519 1_555
P8 Rb1 3.560411 1_455
P8 Rb1 3.560411 1_555
P8 Rb12 3.651099 1_555
P9 Rb11 3.456503 1_655
P9 Rb11 3.456503 1_555
P9 Rb6 3.525519 1_555
P9 Rb0 3.560411 1_655
P9 Rb0 3.560411 1_555
P9 Rb13 3.651099 1_555
P10 Rb8 3.456503 1_555
P10 Rb8 3.456503 1_655
P10 Rb5 3.525519 1_554
P10 Rb3 3.560411 1_655
P10 Rb3 3.560411 1_555
P10 Rb14 3.651099 1_555
P11 Rb9 3.456503 1_455
P11 Rb9 3.456503 1_555
P11 Rb4 3.525519 1_556
P11 Rb2 3.560411 1_555
P11 Rb2 3.560411 1_455
P11 Rb15 3.651099 1_555
