# generated using pymatgen
data_YAl2Pd2Pt3
_symmetry_space_group_name_H-M   'P 1'
_cell_length_a   8.04153220
_cell_length_b   8.04153215
_cell_length_c   8.04153181
_cell_angle_alpha   150.45309436
_cell_angle_beta   150.44075423
_cell_angle_gamma   42.28576087
_symmetry_Int_Tables_number   1
_chemical_formula_structural   YAl2Pd2Pt3
_chemical_formula_sum   'Y1 Al2 Pd2 Pt3'
_cell_volume   126.20044865
_cell_formula_units_Z   1
loop_
 _symmetry_equiv_pos_site_id
 _symmetry_equiv_pos_as_xyz
  1  'x, y, z'
loop_
 _atom_site_type_symbol
 _atom_site_label
 _atom_site_symmetry_multiplicity
 _atom_site_fract_x
 _atom_site_fract_y
 _atom_site_fract_z
 _atom_site_occupancy
  Y  Y0  1  0.00018170  0.00018170  0.00000000  1
  Al  Al0  1  0.74721851  0.74721851  1.00000000  1
  Al  Al1  1  0.25245617  0.25245617  1.00000000  1
  Pd  Pd0  1  0.50052873  0.50052873  1.00000000  1
  Pd  Pd1  1  0.64297797  0.14297797  0.50000000  1
  Pt  Pt0  1  0.85450065  0.35450065  0.50000000  1
  Pt  Pt1  1  0.35637011  0.85637011  0.50000000  1
  Pt  Pt2  1  0.14576516  0.64576516  0.50000000  1
loop_
_geom_bond_atom_site_label_1
_geom_bond_atom_site_label_2
_geom_bond_distance
_geom_bond_site_symmetry_2
Al0 Pt2 2.554268 1_656
Al0 Pt2 2.554269 1_555
Al0 Pd1 2.578731 1_566
Al0 Pd1 2.578731 1_555
Al0 Pt0 2.606649 1_555
Al0 Pt0 2.606649 1_566
Al0 Pt1 2.624709 1_555
Al0 Pt1 2.624709 1_656
Al1 Pt0 2.559561 1_455
Al1 Pt0 2.559562 1_556
Al1 Pt1 2.575763 1_545
Al1 Pt1 2.575763 1_556
Al1 Pt2 2.601184 1_556
Al1 Pt2 2.601184 1_545
Al1 Pd1 2.627768 1_556
Al1 Pd1 2.627768 1_455
Pd0 Y0 2.900544 1_667
Pd0 Y0 2.900544 1_555
Pd0 Y0 2.900545 1_656
Pd0 Y0 2.900545 1_566
Pd1 Y0 2.965883 1_656
Pd1 Y0 2.965883 1_555
Pt0 Y0 2.996711 1_655
Pt0 Y0 2.996712 1_666
Pt1 Y0 2.976901 1_565
Pt1 Y0 2.976901 1_666
Pt2 Y0 2.995644 1_566
Pt2 Y0 2.995644 1_555
