# generated using pymatgen
data_KSbTeO6
_symmetry_space_group_name_H-M   'P 1'
_cell_length_a   7.17280174
_cell_length_b   7.17280309
_cell_length_c   7.17280186
_cell_angle_alpha   120.26934677
_cell_angle_beta   119.80222243
_cell_angle_gamma   89.93850842
_symmetry_Int_Tables_number   1
_chemical_formula_structural   KSbTeO6
_chemical_formula_sum   'K2 Sb2 Te2 O12'
_cell_volume   260.79982541
_cell_formula_units_Z   2
loop_
 _symmetry_equiv_pos_site_id
 _symmetry_equiv_pos_as_xyz
  1  'x, y, z'
loop_
 _atom_site_type_symbol
 _atom_site_label
 _atom_site_symmetry_multiplicity
 _atom_site_fract_x
 _atom_site_fract_y
 _atom_site_fract_z
 _atom_site_occupancy
  K  K0  1  0.37132424  0.62132424  0.75000000  1
  K  K1  1  0.62867576  0.37867576  0.25000000  1
  Sb  Sb0  1  0.00000000  0.00000000  0.50000000  1
  Sb  Sb1  1  0.00000000  0.50000000  0.00000000  1
  Te  Te0  1  0.00000000  0.00000000  0.00000000  1
  Te  Te1  1  0.50000000  0.00000000  0.50000000  1
  O  O0  1  0.31966583  0.06966583  0.25000000  1
  O  O1  1  0.92337086  0.67337086  0.25000000  1
  O  O2  1  0.32899007  0.68242184  0.25794216  1
  O  O3  1  0.92448068  0.07104991  0.24205784  1
  O  O4  1  0.32899007  0.07104991  0.64656923  1
  O  O5  1  0.92448068  0.68242184  0.85343077  1
  O  O6  1  0.68033417  0.93033417  0.75000000  1
  O  O7  1  0.07662914  0.32662914  0.75000000  1
  O  O8  1  0.67100993  0.31757816  0.74205784  1
  O  O9  1  0.07551932  0.92895009  0.75794216  1
  O  O10  1  0.67100993  0.92895009  0.35343077  1
  O  O11  1  0.07551932  0.31757816  0.14656923  1
loop_
_geom_bond_atom_site_label_1
_geom_bond_atom_site_label_2
_geom_bond_distance
_geom_bond_site_symmetry_2
K0 O7 2.990954 1_555
K0 O11 3.058964 1_555
K0 O10 3.058964 1_556
K0 O9 3.058964 1_555
K0 O8 3.058969 1_555
K0 O6 3.136240 1_555
K1 O1 2.990954 1_555
K1 O5 3.058964 1_555
K1 O4 3.058964 1_554
K1 O3 3.058964 1_555
K1 O2 3.058969 1_555
K1 O0 3.136240 1_555
O0 Te0 1.932549 1_555
O0 Te1 1.932549 1_555
O1 Sb1 1.947894 1_655
O1 Sb0 1.947894 1_665
O2 Te1 1.899980 1_565
O2 Sb1 1.982417 1_555
O3 Te0 1.899971 1_655
O3 Sb0 1.982429 1_655
O4 Te1 1.899985 1_555
O4 Sb0 1.982415 1_555
O5 Te0 1.899978 1_666
O5 Sb1 1.982422 1_656
O6 Te0 1.932549 1_666
O6 Te1 1.932549 1_565
O7 Sb1 1.947894 1_556
O7 Sb0 1.947894 1_555
O8 Te1 1.899980 1_555
O8 Sb1 1.982417 1_656
O9 Te0 1.899971 1_566
O9 Sb0 1.982429 1_565
O10 Te1 1.899985 1_565
O10 Sb0 1.982415 1_665
O11 Te0 1.899978 1_555
O11 Sb1 1.982422 1_555
