# generated using pymatgen
data_Ba4ScRuO8
_symmetry_space_group_name_H-M   'P 1'
_cell_length_a   7.32195340
_cell_length_b   7.32195343
_cell_length_c   5.78462426
_cell_angle_alpha   90.00000000
_cell_angle_beta   90.00000000
_cell_angle_gamma   133.53953142
_symmetry_Int_Tables_number   1
_chemical_formula_structural   Ba4ScRuO8
_chemical_formula_sum   'Ba4 Sc1 Ru1 O8'
_cell_volume   224.80539935
_cell_formula_units_Z   1
loop_
 _symmetry_equiv_pos_site_id
 _symmetry_equiv_pos_as_xyz
  1  'x, y, z'
loop_
 _atom_site_type_symbol
 _atom_site_label
 _atom_site_symmetry_multiplicity
 _atom_site_fract_x
 _atom_site_fract_y
 _atom_site_fract_z
 _atom_site_occupancy
  Ba  Ba0  1  0.64551324  0.35448676  0.00000000  1
  Ba  Ba1  1  0.14498813  0.85501187  0.50000000  1
  Ba  Ba2  1  0.85501187  0.14498813  0.50000000  1
  Ba  Ba3  1  0.35448676  0.64551324  0.00000000  1
  Sc  Sc0  1  0.00000000  0.00000000  0.00000000  1
  Ru  Ru0  1  0.50000000  0.50000000  0.50000000  1
  O  O0  1  0.74131586  0.74131586  0.26163778  1
  O  O1  1  0.25868414  0.25868414  0.73836222  1
  O  O2  1  0.25868414  0.25868414  0.26163778  1
  O  O3  1  0.74131586  0.74131586  0.73836222  1
  O  O4  1  0.84322140  0.15677860  0.00000000  1
  O  O5  1  0.35129174  0.64870826  0.50000000  1
  O  O6  1  0.64870826  0.35129174  0.50000000  1
  O  O7  1  0.15677860  0.84322140  0.00000000  1
loop_
_geom_bond_atom_site_label_1
_geom_bond_atom_site_label_2
_geom_bond_distance
_geom_bond_site_symmetry_2
Ba0 O4 2.660497 1_555
Ba0 O2 2.840357 1_555
Ba0 O1 2.840357 1_554
Ba0 O0 2.840357 1_555
Ba0 O3 2.840357 1_554
Ba0 O7 2.891951 1_655
Ba0 O7 2.891951 1_545
Ba0 O6 2.892632 1_555
Ba0 O6 2.892632 1_554
Ba1 O5 2.776163 1_555
Ba1 O3 2.817853 1_455
Ba1 O0 2.817853 1_455
Ba1 O1 2.817853 1_565
Ba1 O2 2.817853 1_565
Ba1 O6 2.888409 1_565
Ba1 O6 2.888409 1_455
Ba1 O7 2.896661 1_555
Ba1 O7 2.896661 1_556
Ba2 O6 2.776163 1_555
Ba2 O1 2.817853 1_655
Ba2 O2 2.817853 1_655
Ba2 O3 2.817853 1_545
Ba2 O0 2.817853 1_545
Ba2 O5 2.888409 1_545
Ba2 O5 2.888409 1_655
Ba2 O4 2.896661 1_556
Ba2 O4 2.896661 1_555
Ba3 O7 2.660497 1_555
Ba3 O0 2.840357 1_555
Ba3 O3 2.840357 1_554
Ba3 O2 2.840357 1_555
Ba3 O1 2.840357 1_554
Ba3 O4 2.891951 1_455
Ba3 O4 2.891951 1_565
Ba3 O5 2.892632 1_555
Ba3 O5 2.892632 1_554
O0 Ru0 1.960598 1_555
O0 Sc0 2.126755 1_665
O1 Ru0 1.960598 1_555
O1 Sc0 2.126755 1_556
O2 Ru0 1.960598 1_555
O2 Sc0 2.126755 1_555
O3 Ru0 1.960598 1_555
O3 Sc0 2.126755 1_666
O4 Sc0 2.109720 1_655
O5 Ru0 2.001120 1_555
O6 Ru0 2.001120 1_555
O7 Sc0 2.109720 1_565
