# generated using pymatgen
data_AgB(SO4)2
_symmetry_space_group_name_H-M   'P 1'
_cell_length_a   7.65844760
_cell_length_b   5.40945529
_cell_length_c   7.82458201
_cell_angle_alpha   73.33592353
_cell_angle_beta   90.00000000
_cell_angle_gamma   90.00000000
_symmetry_Int_Tables_number   1
_chemical_formula_structural   AgB(SO4)2
_chemical_formula_sum   'Ag2 B2 S4 O16'
_cell_volume   310.54322533
_cell_formula_units_Z   2
loop_
 _symmetry_equiv_pos_site_id
 _symmetry_equiv_pos_as_xyz
  1  'x, y, z'
loop_
 _atom_site_type_symbol
 _atom_site_label
 _atom_site_symmetry_multiplicity
 _atom_site_fract_x
 _atom_site_fract_y
 _atom_site_fract_z
 _atom_site_occupancy
  Ag  Ag0  1  0.55217771  0.50000000  0.75000000  1
  Ag  Ag1  1  0.44782229  0.50000000  0.25000000  1
  B  B0  1  0.96005795  0.00000000  0.25000000  1
  B  B1  1  0.03994205  0.00000000  0.75000000  1
  S  S0  1  0.22176570  0.86814865  0.49599723  1
  S  S1  1  0.22176570  0.13185135  0.00400277  1
  S  S2  1  0.77823430  0.13185135  0.50400277  1
  S  S3  1  0.77823430  0.86814865  0.99599723  1
  O  O0  1  0.28349285  0.12632172  0.42543695  1
  O  O1  1  0.28349285  0.87367828  0.07456305  1
  O  O2  1  0.71650715  0.87367828  0.57456305  1
  O  O3  1  0.71650715  0.12632172  0.92543695  1
  O  O4  1  0.06210921  0.82151512  0.39083557  1
  O  O5  1  0.06210921  0.17848488  0.10916443  1
  O  O6  1  0.93789079  0.17848488  0.60916443  1
  O  O7  1  0.93789079  0.82151512  0.89083557  1
  O  O8  1  0.15081705  0.82292567  0.68487982  1
  O  O9  1  0.15081705  0.17707433  0.81512018  1
  O  O10  1  0.84918295  0.17707433  0.31512018  1
  O  O11  1  0.84918295  0.82292567  0.18487982  1
  O  O12  1  0.34172924  0.66135228  0.50557198  1
  O  O13  1  0.34172924  0.33864772  0.99442802  1
  O  O14  1  0.65827076  0.33864772  0.49442802  1
  O  O15  1  0.65827076  0.66135228  0.00557198  1
loop_
_geom_bond_atom_site_label_1
_geom_bond_atom_site_label_2
_geom_bond_distance
_geom_bond_site_symmetry_2
Ag0 O2 2.441892 1_555
Ag0 O3 2.441892 1_555
Ag0 O13 2.461682 1_555
Ag0 O12 2.461682 1_555
Ag0 O15 2.534169 1_556
Ag0 O14 2.534169 1_555
Ag1 O1 2.441892 1_555
Ag1 O0 2.441892 1_555
Ag1 O14 2.461682 1_555
Ag1 O15 2.461682 1_555
Ag1 O12 2.534169 1_555
Ag1 O13 2.534169 1_554
B0 O4 1.465326 1_645
B0 O5 1.465326 1_655
B0 O10 1.475838 1_555
B0 O11 1.475838 1_545
B1 O7 1.465326 1_445
B1 O6 1.465326 1_455
B1 O9 1.475838 1_555
B1 O8 1.475838 1_545
O0 S0 1.427062 1_545
O1 S1 1.427062 1_565
O2 S2 1.427062 1_565
O3 S3 1.427062 1_545
O4 S0 1.534537 1_555
O5 S1 1.534537 1_555
O6 S2 1.534537 1_555
O7 S3 1.534537 1_555
O8 S0 1.527087 1_555
O9 S1 1.527087 1_556
O10 S2 1.527087 1_555
O11 S3 1.527087 1_554
O12 S0 1.432833 1_555
O13 S1 1.432833 1_556
O14 S2 1.432833 1_555
O15 S3 1.432833 1_554
