# generated using pymatgen
data_Hf4TaTi2Re5
_symmetry_space_group_name_H-M   'P 1'
_cell_length_a   5.27846515
_cell_length_b   5.30666721
_cell_length_c   8.73030684
_cell_angle_alpha   90.00000000
_cell_angle_beta   90.00000000
_cell_angle_gamma   119.82434206
_symmetry_Int_Tables_number   1
_chemical_formula_structural   Hf4TaTi2Re5
_chemical_formula_sum   'Hf4 Ta1 Ti2 Re5'
_cell_volume   212.15616413
_cell_formula_units_Z   1
loop_
 _symmetry_equiv_pos_site_id
 _symmetry_equiv_pos_as_xyz
  1  'x, y, z'
loop_
 _atom_site_type_symbol
 _atom_site_label
 _atom_site_symmetry_multiplicity
 _atom_site_fract_x
 _atom_site_fract_y
 _atom_site_fract_z
 _atom_site_occupancy
  Hf  Hf0  1  0.33325421  0.66650943  0.05860879  1
  Hf  Hf1  1  0.66592275  0.33184251  0.56679979  1
  Hf  Hf2  1  0.66592275  0.33184251  0.93320021  1
  Hf  Hf3  1  0.33325421  0.66650943  0.44139121  1
  Ta  Ta0  1  0.82917075  0.65834350  0.25000000  1
  Ti  Ti0  1  0.00279287  0.00558575  0.99683035  1
  Ti  Ti1  1  0.00279287  0.00558575  0.50316965  1
  Re  Re0  1  0.16988889  0.83147634  0.75000000  1
  Re  Re1  1  0.66158845  0.83147634  0.75000000  1
  Re  Re2  1  0.33704782  0.16461116  0.25000000  1
  Re  Re3  1  0.82756334  0.16461116  0.25000000  1
  Re  Re4  1  0.17080306  0.34160512  0.75000000  1
loop_
_geom_bond_atom_site_label_1
_geom_bond_atom_site_label_2
_geom_bond_distance
_geom_bond_site_symmetry_2
Hf0 Re4 3.081623 1_554
Hf0 Re0 3.085421 1_554
Hf0 Re1 3.085426 1_554
Hf0 Ti0 3.090206 1_554
Hf0 Ti0 3.113405 1_564
Hf0 Ti0 3.113410 1_664
Hf0 Re2 3.118733 1_565
Hf0 Re3 3.118736 1_565
Hf0 Ta0 3.123919 1_555
Hf0 Ta0 3.123923 1_455
Hf0 Re3 3.152633 1_455
Hf0 Re2 3.152635 1_555
Hf0 Hf2 3.246245 1_454
Hf0 Hf2 3.246261 1_554
Hf0 Hf2 3.252866 1_564
Hf0 Hf3 3.341808 1_555
Hf1 Re4 3.086357 1_655
Hf1 Re4 3.086366 1_555
Hf1 Ti1 3.087100 1_655
Hf1 Ti1 3.087114 1_555
Hf1 Re1 3.090090 1_545
Hf1 Re0 3.090094 1_545
Hf1 Re0 3.106247 1_655
Hf1 Re1 3.106251 1_555
Hf1 Ta0 3.147839 1_555
Hf1 Re3 3.149302 1_555
Hf1 Re2 3.149309 1_555
Hf1 Ti1 3.151145 1_665
Hf1 Hf2 3.198788 1_555
Hf1 Hf3 3.246245 1_655
Hf1 Hf3 3.246261 1_555
Hf1 Hf3 3.252866 1_545
Hf2 Re4 3.086357 1_655
Hf2 Re4 3.086366 1_555
Hf2 Ti0 3.087100 1_655
Hf2 Ti0 3.087114 1_555
Hf2 Re1 3.090090 1_545
Hf2 Re0 3.090094 1_545
Hf2 Re0 3.106247 1_655
Hf2 Re1 3.106251 1_555
Hf2 Ta0 3.147839 1_556
Hf2 Re3 3.149302 1_556
Hf2 Re2 3.149309 1_556
Hf2 Ti0 3.151145 1_665
Hf3 Re4 3.081623 1_555
Hf3 Re0 3.085421 1_555
Hf3 Re1 3.085426 1_555
Hf3 Ti1 3.090206 1_555
Hf3 Ti1 3.113405 1_565
Hf3 Ti1 3.113410 1_665
Hf3 Re2 3.118733 1_565
Hf3 Re3 3.118736 1_565
Hf3 Ta0 3.123919 1_555
Hf3 Ta0 3.123923 1_455
Hf3 Re3 3.152633 1_455
Hf3 Re2 3.152635 1_555
Ta0 Ti1 2.727793 1_665
Ta0 Ti0 2.727793 1_664
Re0 Re1 2.595419 1_555
Re0 Re4 2.601987 1_555
Re0 Ti0 2.661920 1_565
Re0 Ti1 2.661920 1_565
Re0 Re1 2.683046 1_455
Re0 Re4 2.704687 1_565
Re1 Re4 2.601987 1_555
Re1 Ti0 2.661917 1_665
Re1 Ti1 2.661917 1_665
Re1 Re4 2.704687 1_665
Re2 Re3 2.589169 1_555
Re2 Ta0 2.615859 1_555
Re2 Ti1 2.688733 1_555
Re2 Ti0 2.688733 1_554
Re2 Re3 2.689296 1_455
Re2 Ta0 2.690830 1_445
Re3 Ta0 2.615864 1_555
Re3 Ti1 2.688733 1_655
Re3 Ti0 2.688733 1_654
Re3 Ta0 2.690824 1_545
Re4 Ti0 2.652685 1_555
Re4 Ti1 2.652685 1_555
