# generated using pymatgen
data_Ca4CrSiN6
_symmetry_space_group_name_H-M   'P 1'
_cell_length_a   5.87650649
_cell_length_b   5.87650647
_cell_length_c   11.54993919
_cell_angle_alpha   89.86298895
_cell_angle_beta   90.13701055
_cell_angle_gamma   125.58813635
_symmetry_Int_Tables_number   1
_chemical_formula_structural   Ca4CrSiN6
_chemical_formula_sum   'Ca8 Cr2 Si2 N12'
_cell_volume   324.35851254
_cell_formula_units_Z   2
loop_
 _symmetry_equiv_pos_site_id
 _symmetry_equiv_pos_as_xyz
  1  'x, y, z'
loop_
 _atom_site_type_symbol
 _atom_site_label
 _atom_site_symmetry_multiplicity
 _atom_site_fract_x
 _atom_site_fract_y
 _atom_site_fract_z
 _atom_site_occupancy
  Ca  Ca0  1  0.55339449  0.44660551  0.65141194  1
  Ca  Ca1  1  0.44660551  0.55339449  0.34858806  1
  Ca  Ca2  1  0.94941303  0.05058697  0.13586969  1
  Ca  Ca3  1  0.05058697  0.94941303  0.86413031  1
  Ca  Ca4  1  0.86033065  0.13966935  0.57822348  1
  Ca  Ca5  1  0.13966935  0.86033065  0.42177652  1
  Ca  Ca6  1  0.63758137  0.36241863  0.07373086  1
  Ca  Ca7  1  0.36241863  0.63758137  0.92626914  1
  Cr  Cr0  1  0.75399095  0.24600905  0.33666318  1
  Cr  Cr1  1  0.24600905  0.75399095  0.66333682  1
  Si  Si0  1  0.74200790  0.25799210  0.84247251  1
  Si  Si1  1  0.25799210  0.74200790  0.15752749  1
  N  N0  1  0.84382832  0.15617168  0.95628404  1
  N  N1  1  0.15617168  0.84382832  0.04371596  1
  N  N2  1  0.66014506  0.33985494  0.45934950  1
  N  N3  1  0.33985494  0.66014506  0.54065050  1
  N  N4  1  0.57993267  0.42006733  0.86082906  1
  N  N5  1  0.42006733  0.57993267  0.13917094  1
  N  N6  1  0.91550270  0.08449730  0.36805738  1
  N  N7  1  0.08449730  0.91550270  0.63194262  1
  N  N8  1  0.54005282  0.97244311  0.74687382  1
  N  N9  1  0.97244311  0.54005282  0.25312618  1
  N  N10  1  0.45994718  0.02755689  0.25312618  1
  N  N11  1  0.02755689  0.45994718  0.74687382  1
loop_
_geom_bond_atom_site_label_1
_geom_bond_atom_site_label_2
_geom_bond_distance
_geom_bond_site_symmetry_2
Ca0 N4 2.433869 1_555
Ca0 N2 2.485820 1_555
Ca0 N3 2.569708 1_555
Ca0 N7 2.715678 1_655
Ca0 N7 2.715678 1_545
Ca1 N5 2.433869 1_555
Ca1 N3 2.485820 1_555
Ca1 N2 2.569708 1_555
Ca1 N6 2.715678 1_455
Ca1 N6 2.715678 1_565
Ca2 N0 2.346925 1_554
Ca2 N1 2.411646 1_645
Ca2 N5 2.704415 1_655
Ca2 N5 2.704415 1_545
Ca2 N6 2.706022 1_555
Ca3 N1 2.346925 1_556
Ca3 N0 2.411646 1_465
Ca3 N4 2.704415 1_455
Ca3 N4 2.704415 1_565
Ca3 N7 2.706022 1_555
Ca4 N7 2.422303 1_645
Ca4 N8 2.481540 1_545
Ca4 N11 2.481540 1_655
Ca4 N6 2.496479 1_555
Ca4 N2 2.499634 1_555
Ca4 N3 2.729814 1_655
Ca4 N3 2.729814 1_545
Ca5 N6 2.422303 1_465
Ca5 N10 2.481540 1_565
Ca5 N9 2.481540 1_455
Ca5 N7 2.496479 1_555
Ca5 N3 2.499634 1_555
Ca5 N2 2.729814 1_455
Ca5 N2 2.729814 1_565
Ca6 N5 2.397891 1_555
Ca6 N4 2.530186 1_554
Ca6 N0 2.550200 1_554
Ca6 N10 2.618240 1_555
Ca6 N9 2.618240 1_555
Ca6 N1 2.715981 1_655
Ca6 N1 2.715981 1_545
Ca7 N4 2.397891 1_555
Ca7 N5 2.530186 1_556
Ca7 N1 2.550200 1_556
Ca7 N8 2.618240 1_555
Ca7 N11 2.618240 1_555
Ca7 N0 2.715981 1_455
Ca7 N0 2.715981 1_565
Cr0 N2 1.725596 1_555
Cr0 N6 1.725792 1_555
Cr0 N9 1.726514 1_555
Cr0 N10 1.726514 1_555
Cr1 N3 1.725596 1_555
Cr1 N7 1.725792 1_555
Cr1 N11 1.726514 1_555
Cr1 N8 1.726514 1_555
N0 Si0 1.689134 1_555
N1 Si1 1.689134 1_555
N4 Si0 1.707915 1_555
N5 Si1 1.707915 1_555
N8 Si0 1.768652 1_565
N9 Si1 1.768652 1_655
N10 Si1 1.768652 1_545
N11 Si0 1.768652 1_455
