# generated using pymatgen
data_BaSn2Rh3
_symmetry_space_group_name_H-M   'P 1'
_cell_length_a   12.12840899
_cell_length_b   12.12840779
_cell_length_c   7.99617769
_cell_angle_alpha   90.00000000
_cell_angle_beta   90.00000000
_cell_angle_gamma   119.99999799
_symmetry_Int_Tables_number   1
_chemical_formula_structural   BaSn2Rh3
_chemical_formula_sum   'Ba8 Sn16 Rh24'
_cell_volume   1018.63994173
_cell_formula_units_Z   8
loop_
 _symmetry_equiv_pos_site_id
 _symmetry_equiv_pos_as_xyz
  1  'x, y, z'
loop_
 _atom_site_type_symbol
 _atom_site_label
 _atom_site_symmetry_multiplicity
 _atom_site_fract_x
 _atom_site_fract_y
 _atom_site_fract_z
 _atom_site_occupancy
  Ba  Ba0_0  1  0.00000000  0.00000000  0.00000000  1
  Ba  Ba0_1  1  0.00000000  0.00000000  0.50000000  1
  Ba  Ba0_2  1  0.00000000  0.50000000  0.00000000  1
  Ba  Ba0_3  1  0.00000000  0.50000000  0.50000000  1
  Ba  Ba0_4  1  0.50000000  0.00000000  0.00000000  1
  Ba  Ba0_5  1  0.50000000  0.00000000  0.50000000  1
  Ba  Ba0_6  1  0.50000000  0.50000000  0.00000000  1
  Ba  Ba0_7  1  0.50000000  0.50000000  0.50000000  1
  Sn  Sn0_0  1  0.33333300  0.16666650  0.00000000  1
  Sn  Sn0_1  1  0.33333300  0.16666650  0.50000000  1
  Sn  Sn0_2  1  0.33333300  0.66666650  0.00000000  1
  Sn  Sn0_3  1  0.33333300  0.66666650  0.50000000  1
  Sn  Sn0_4  1  0.83333300  0.16666650  0.00000000  1
  Sn  Sn0_5  1  0.83333300  0.16666650  0.50000000  1
  Sn  Sn0_6  1  0.83333300  0.66666650  0.00000000  1
  Sn  Sn0_7  1  0.83333300  0.66666650  0.50000000  1
  Sn  Sn1_0  1  0.16666650  0.33333300  0.00000000  1
  Sn  Sn1_1  1  0.16666650  0.33333300  0.50000000  1
  Sn  Sn1_2  1  0.16666650  0.83333300  0.00000000  1
  Sn  Sn1_3  1  0.16666650  0.83333300  0.50000000  1
  Sn  Sn1_4  1  0.66666650  0.33333300  0.00000000  1
  Sn  Sn1_5  1  0.66666650  0.33333300  0.50000000  1
  Sn  Sn1_6  1  0.66666650  0.83333300  0.00000000  1
  Sn  Sn1_7  1  0.66666650  0.83333300  0.50000000  1
  Rh  Rh0_0  1  0.24999950  0.00000000  0.25000050  1
  Rh  Rh0_1  1  0.24999950  0.00000000  0.75000050  1
  Rh  Rh0_2  1  0.24999950  0.50000000  0.25000050  1
  Rh  Rh0_3  1  0.24999950  0.50000000  0.75000050  1
  Rh  Rh0_4  1  0.74999950  0.00000000  0.25000050  1
  Rh  Rh0_5  1  0.74999950  0.00000000  0.75000050  1
  Rh  Rh0_6  1  0.74999950  0.50000000  0.25000050  1
  Rh  Rh0_7  1  0.74999950  0.50000000  0.75000050  1
  Rh  Rh1_0  1  0.00000000  0.25000050  0.25000050  1
  Rh  Rh1_1  1  0.00000000  0.25000050  0.75000050  1
  Rh  Rh1_2  1  0.00000000  0.75000050  0.25000050  1
  Rh  Rh1_3  1  0.00000000  0.75000050  0.75000050  1
  Rh  Rh1_4  1  0.50000000  0.25000050  0.25000050  1
  Rh  Rh1_5  1  0.50000000  0.25000050  0.75000050  1
  Rh  Rh1_6  1  0.50000000  0.75000050  0.25000050  1
  Rh  Rh1_7  1  0.50000000  0.75000050  0.75000050  1
  Rh  Rh2_0  1  0.25000050  0.25000050  0.25000050  1
  Rh  Rh2_1  1  0.25000050  0.25000050  0.75000050  1
  Rh  Rh2_2  1  0.25000050  0.75000050  0.25000050  1
  Rh  Rh2_3  1  0.25000050  0.75000050  0.75000050  1
  Rh  Rh2_4  1  0.75000050  0.25000050  0.25000050  1
  Rh  Rh2_5  1  0.75000050  0.25000050  0.75000050  1
  Rh  Rh2_6  1  0.75000050  0.75000050  0.25000050  1
  Rh  Rh2_7  1  0.75000050  0.75000050  0.75000050  1
loop_
_geom_bond_atom_site_label_1
_geom_bond_atom_site_label_2
_geom_bond_distance
_geom_bond_site_symmetry_2
Ba0_0 Sn1_0 3.501166 1_555
Ba0_0 Sn0_0 3.501167 1_555
Ba0_0 Sn0_6 3.501172 1_445
Ba0_0 Sn1_2 3.501172 1_545
Ba0_0 Sn0_4 3.501172 1_455
Ba0_0 Sn1_6 3.501172 1_445
Ba0_0 Rh1_3 3.631772 1_544
Ba0_0 Rh2_7 3.631772 1_444
Ba0_0 Rh0_1 3.631772 1_554
Ba0_0 Rh1_2 3.631776 1_545
Ba0_0 Rh2_6 3.631777 1_445
Ba0_0 Rh0_0 3.631777 1_555
Ba0_0 Rh1_1 3.631782 1_554
Ba0_0 Rh2_1 3.631782 1_554
Ba0_0 Rh0_5 3.631782 1_454
Ba0_0 Rh1_0 3.631787 1_555
Ba0_0 Rh2_0 3.631787 1_555
Ba0_0 Rh0_4 3.631787 1_455
Ba0_0 Ba0_1 3.998089 1_555
Ba0_0 Ba0_1 3.998089 1_554
Ba0_1 Sn1_1 3.501166 1_555
Ba0_1 Sn0_1 3.501167 1_555
Ba0_1 Sn0_7 3.501172 1_445
Ba0_1 Sn1_3 3.501172 1_545
Ba0_1 Sn0_5 3.501172 1_455
Ba0_1 Sn1_7 3.501172 1_445
Ba0_1 Rh1_2 3.631772 1_545
Ba0_1 Rh2_6 3.631772 1_445
Ba0_1 Rh0_0 3.631772 1_555
Ba0_1 Rh1_3 3.631776 1_545
Ba0_1 Rh2_7 3.631777 1_445
Ba0_1 Rh0_1 3.631777 1_555
Ba0_1 Rh1_0 3.631782 1_555
Ba0_1 Rh2_0 3.631782 1_555
Ba0_1 Rh0_4 3.631782 1_455
Ba0_1 Rh1_1 3.631787 1_555
Ba0_1 Rh2_1 3.631787 1_555
Ba0_1 Rh0_5 3.631787 1_455
Ba0_2 Sn1_2 3.501166 1_555
Ba0_2 Sn0_2 3.501167 1_555
Ba0_2 Sn0_4 3.501172 1_455
Ba0_2 Sn1_0 3.501172 1_555
Ba0_2 Sn0_6 3.501172 1_455
Ba0_2 Sn1_4 3.501172 1_455
Ba0_2 Rh1_1 3.631772 1_554
Ba0_2 Rh2_5 3.631772 1_454
Ba0_2 Rh0_3 3.631772 1_554
Ba0_2 Rh1_0 3.631776 1_555
Ba0_2 Rh2_4 3.631777 1_455
Ba0_2 Rh0_2 3.631777 1_555
Ba0_2 Rh1_3 3.631782 1_554
Ba0_2 Rh2_3 3.631782 1_554
Ba0_2 Rh0_7 3.631782 1_454
Ba0_2 Rh1_2 3.631787 1_555
Ba0_2 Rh2_2 3.631787 1_555
Ba0_2 Rh0_6 3.631787 1_455
Ba0_2 Ba0_3 3.998089 1_555
Ba0_2 Ba0_3 3.998089 1_554
Ba0_3 Sn1_3 3.501166 1_555
Ba0_3 Sn0_3 3.501167 1_555
Ba0_3 Sn0_5 3.501172 1_455
Ba0_3 Sn1_1 3.501172 1_555
Ba0_3 Sn0_7 3.501172 1_455
Ba0_3 Sn1_5 3.501172 1_455
Ba0_3 Rh1_0 3.631772 1_555
Ba0_3 Rh2_4 3.631772 1_455
Ba0_3 Rh0_2 3.631772 1_555
Ba0_3 Rh1_1 3.631776 1_555
Ba0_3 Rh2_5 3.631777 1_455
Ba0_3 Rh0_3 3.631777 1_555
Ba0_3 Rh1_2 3.631782 1_555
Ba0_3 Rh2_2 3.631782 1_555
Ba0_3 Rh0_6 3.631782 1_455
Ba0_3 Rh1_3 3.631787 1_555
Ba0_3 Rh2_3 3.631787 1_555
Ba0_3 Rh0_7 3.631787 1_455
Ba0_4 Sn1_4 3.501166 1_555
Ba0_4 Sn0_4 3.501167 1_555
Ba0_4 Sn0_2 3.501172 1_545
Ba0_4 Sn1_6 3.501172 1_545
Ba0_4 Sn0_0 3.501172 1_555
Ba0_4 Sn1_2 3.501172 1_545
Ba0_4 Rh1_7 3.631772 1_544
Ba0_4 Rh2_3 3.631772 1_544
Ba0_4 Rh0_5 3.631772 1_554
Ba0_4 Rh1_6 3.631776 1_545
Ba0_4 Rh2_2 3.631777 1_545
Ba0_4 Rh0_4 3.631777 1_555
Ba0_4 Rh1_5 3.631782 1_554
Ba0_4 Rh2_5 3.631782 1_554
Ba0_4 Rh0_1 3.631782 1_554
Ba0_4 Rh1_4 3.631787 1_555
Ba0_4 Rh2_4 3.631787 1_555
Ba0_4 Rh0_0 3.631787 1_555
Ba0_4 Ba0_5 3.998089 1_555
Ba0_4 Ba0_5 3.998089 1_554
Ba0_5 Sn1_5 3.501166 1_555
Ba0_5 Sn0_5 3.501167 1_555
Ba0_5 Sn0_3 3.501172 1_545
Ba0_5 Sn1_7 3.501172 1_545
Ba0_5 Sn0_1 3.501172 1_555
Ba0_5 Sn1_3 3.501172 1_545
Ba0_5 Rh1_6 3.631772 1_545
Ba0_5 Rh2_2 3.631772 1_545
Ba0_5 Rh0_4 3.631772 1_555
Ba0_5 Rh1_7 3.631776 1_545
Ba0_5 Rh2_3 3.631777 1_545
Ba0_5 Rh0_5 3.631777 1_555
Ba0_5 Rh1_4 3.631782 1_555
Ba0_5 Rh2_4 3.631782 1_555
Ba0_5 Rh0_0 3.631782 1_555
Ba0_5 Rh1_5 3.631787 1_555
Ba0_5 Rh2_5 3.631787 1_555
Ba0_5 Rh0_1 3.631787 1_555
Ba0_6 Sn1_6 3.501166 1_555
Ba0_6 Sn0_6 3.501167 1_555
Ba0_6 Sn0_0 3.501172 1_555
Ba0_6 Sn1_4 3.501172 1_555
Ba0_6 Sn0_2 3.501172 1_555
Ba0_6 Sn1_0 3.501172 1_555
Ba0_6 Rh1_5 3.631772 1_554
Ba0_6 Rh2_1 3.631772 1_554
Ba0_6 Rh0_7 3.631772 1_554
Ba0_6 Rh1_4 3.631776 1_555
Ba0_6 Rh2_0 3.631777 1_555
Ba0_6 Rh0_6 3.631777 1_555
Ba0_6 Rh1_7 3.631782 1_554
Ba0_6 Rh2_7 3.631782 1_554
Ba0_6 Rh0_3 3.631782 1_554
Ba0_6 Rh1_6 3.631787 1_555
Ba0_6 Rh2_6 3.631787 1_555
Ba0_6 Rh0_2 3.631787 1_555
Ba0_6 Ba0_7 3.998089 1_555
Ba0_6 Ba0_7 3.998089 1_554
Ba0_7 Sn1_7 3.501166 1_555
Ba0_7 Sn0_7 3.501167 1_555
Ba0_7 Sn0_1 3.501172 1_555
Ba0_7 Sn1_5 3.501172 1_555
Ba0_7 Sn0_3 3.501172 1_555
Ba0_7 Sn1_1 3.501172 1_555
Ba0_7 Rh1_4 3.631772 1_555
Ba0_7 Rh2_0 3.631772 1_555
Ba0_7 Rh0_6 3.631772 1_555
Ba0_7 Rh1_5 3.631776 1_555
Ba0_7 Rh2_1 3.631777 1_555
Ba0_7 Rh0_7 3.631777 1_555
Ba0_7 Rh1_6 3.631782 1_555
Ba0_7 Rh2_6 3.631782 1_555
Ba0_7 Rh0_2 3.631782 1_555
Ba0_7 Rh1_7 3.631787 1_555
Ba0_7 Rh2_7 3.631787 1_555
Ba0_7 Rh0_3 3.631787 1_555
Rh0_0 Sn0_1 2.657199 1_555
Rh0_0 Sn1_3 2.657202 1_545
Rh0_0 Sn0_0 2.657205 1_555
Rh0_0 Sn1_2 2.657208 1_545
Rh0_1 Sn0_0 2.657199 1_556
Rh0_1 Sn1_2 2.657202 1_546
Rh0_1 Sn0_1 2.657205 1_555
Rh0_1 Sn1_3 2.657208 1_545
Rh0_2 Sn0_3 2.657199 1_555
Rh0_2 Sn1_1 2.657202 1_555
Rh0_2 Sn0_2 2.657205 1_555
Rh0_2 Sn1_0 2.657208 1_555
Rh0_3 Sn0_2 2.657199 1_556
Rh0_3 Sn1_0 2.657202 1_556
Rh0_3 Sn0_3 2.657205 1_555
Rh0_3 Sn1_1 2.657208 1_555
Rh0_4 Sn0_5 2.657199 1_555
Rh0_4 Sn1_7 2.657202 1_545
Rh0_4 Sn0_4 2.657205 1_555
Rh0_4 Sn1_6 2.657208 1_545
Rh0_5 Sn0_4 2.657199 1_556
Rh0_5 Sn1_6 2.657202 1_546
Rh0_5 Sn0_5 2.657205 1_555
Rh0_5 Sn1_7 2.657208 1_545
Rh0_6 Sn0_7 2.657199 1_555
Rh0_6 Sn1_5 2.657202 1_555
Rh0_6 Sn0_6 2.657205 1_555
Rh0_6 Sn1_4 2.657208 1_555
Rh0_7 Sn0_6 2.657199 1_556
Rh0_7 Sn1_4 2.657202 1_556
Rh0_7 Sn0_7 2.657205 1_555
Rh0_7 Sn1_5 2.657208 1_555
Rh1_0 Sn1_1 2.657199 1_555
Rh1_0 Sn0_5 2.657202 1_455
Rh1_0 Sn1_0 2.657205 1_555
Rh1_0 Sn0_4 2.657208 1_455
Rh1_1 Sn1_0 2.657199 1_556
Rh1_1 Sn0_4 2.657202 1_456
Rh1_1 Sn1_1 2.657205 1_555
Rh1_1 Sn0_5 2.657208 1_455
Rh1_2 Sn1_3 2.657199 1_555
Rh1_2 Sn0_7 2.657202 1_455
Rh1_2 Sn1_2 2.657205 1_555
Rh1_2 Sn0_6 2.657208 1_455
Rh1_3 Sn1_2 2.657199 1_556
Rh1_3 Sn0_6 2.657202 1_456
Rh1_3 Sn1_3 2.657205 1_555
Rh1_3 Sn0_7 2.657208 1_455
Rh1_4 Sn1_5 2.657199 1_555
Rh1_4 Sn0_1 2.657202 1_555
Rh1_4 Sn1_4 2.657205 1_555
Rh1_4 Sn0_0 2.657208 1_555
Rh1_5 Sn1_4 2.657199 1_556
Rh1_5 Sn0_0 2.657202 1_556
Rh1_5 Sn1_5 2.657205 1_555
Rh1_5 Sn0_1 2.657208 1_555
Rh1_6 Sn1_7 2.657199 1_555
Rh1_6 Sn0_3 2.657202 1_555
Rh1_6 Sn1_6 2.657205 1_555
Rh1_6 Sn0_2 2.657208 1_555
Rh1_7 Sn1_6 2.657199 1_556
Rh1_7 Sn0_2 2.657202 1_556
Rh1_7 Sn1_7 2.657205 1_555
Rh1_7 Sn0_3 2.657208 1_555
Rh2_0 Sn0_1 2.657199 1_555
Rh2_0 Sn1_1 2.657199 1_555
Rh2_0 Sn0_0 2.657205 1_555
Rh2_0 Sn1_0 2.657205 1_555
Rh2_1 Sn0_0 2.657199 1_556
Rh2_1 Sn1_0 2.657199 1_556
Rh2_1 Sn0_1 2.657205 1_555
Rh2_1 Sn1_1 2.657205 1_555
Rh2_2 Sn0_3 2.657199 1_555
Rh2_2 Sn1_3 2.657199 1_555
Rh2_2 Sn0_2 2.657205 1_555
Rh2_2 Sn1_2 2.657205 1_555
Rh2_3 Sn0_2 2.657199 1_556
Rh2_3 Sn1_2 2.657199 1_556
Rh2_3 Sn0_3 2.657205 1_555
Rh2_3 Sn1_3 2.657205 1_555
Rh2_4 Sn0_5 2.657199 1_555
Rh2_4 Sn1_5 2.657199 1_555
Rh2_4 Sn0_4 2.657205 1_555
Rh2_4 Sn1_4 2.657205 1_555
Rh2_5 Sn0_4 2.657199 1_556
Rh2_5 Sn1_4 2.657199 1_556
Rh2_5 Sn0_5 2.657205 1_555
Rh2_5 Sn1_5 2.657205 1_555
Rh2_6 Sn0_7 2.657199 1_555
Rh2_6 Sn1_7 2.657199 1_555
Rh2_6 Sn0_6 2.657205 1_555
Rh2_6 Sn1_6 2.657205 1_555
Rh2_7 Sn0_6 2.657199 1_556
Rh2_7 Sn1_6 2.657199 1_556
Rh2_7 Sn0_7 2.657205 1_555
Rh2_7 Sn1_7 2.657205 1_555
