# generated using pymatgen
data_Zr3Zn2AuN
_symmetry_space_group_name_H-M   'P 1'
_cell_length_a   8.61037163
_cell_length_b   8.61037265
_cell_length_c   8.61037328
_cell_angle_alpha   60.00000508
_cell_angle_beta   60.00000116
_cell_angle_gamma   59.99999820
_symmetry_Int_Tables_number   1
_chemical_formula_structural   Zr3Zn2AuN
_chemical_formula_sum   'Zr12 Zn8 Au4 N4'
_cell_volume   451.38886326
_cell_formula_units_Z   4
loop_
 _symmetry_equiv_pos_site_id
 _symmetry_equiv_pos_as_xyz
  1  'x, y, z'
loop_
 _atom_site_type_symbol
 _atom_site_label
 _atom_site_symmetry_multiplicity
 _atom_site_fract_x
 _atom_site_fract_y
 _atom_site_fract_z
 _atom_site_occupancy
  Zr  Zr0  1  0.81279566  0.18720434  0.18720434  1
  Zr  Zr1  1  0.18720434  0.81279566  0.18720434  1
  Zr  Zr2  1  0.81279566  0.81279566  0.18720434  1
  Zr  Zr3  1  0.18720434  0.81279566  0.81279566  1
  Zr  Zr4  1  0.81279566  0.18720434  0.81279566  1
  Zr  Zr5  1  0.18720434  0.18720434  0.81279566  1
  Zr  Zr6  1  0.43720434  0.06279566  0.06279566  1
  Zr  Zr7  1  0.06279566  0.43720434  0.06279566  1
  Zr  Zr8  1  0.43720434  0.43720434  0.06279566  1
  Zr  Zr9  1  0.06279566  0.43720434  0.43720434  1
  Zr  Zr10  1  0.43720434  0.06279566  0.43720434  1
  Zr  Zr11  1  0.06279566  0.06279566  0.43720434  1
  Zn  Zn0  1  0.41685817  0.41685817  0.74942448  1
  Zn  Zn1  1  0.41685817  0.41685817  0.41685817  1
  Zn  Zn2  1  0.74942448  0.41685817  0.41685817  1
  Zn  Zn3  1  0.41685817  0.74942448  0.41685817  1
  Zn  Zn4  1  0.83314183  0.83314183  0.50057552  1
  Zn  Zn5  1  0.83314183  0.83314183  0.83314183  1
  Zn  Zn6  1  0.50057552  0.83314183  0.83314183  1
  Zn  Zn7  1  0.83314183  0.50057552  0.83314183  1
  Au  Au0  1  0.62500000  0.62500000  0.12500000  1
  Au  Au1  1  0.62500000  0.62500000  0.62500000  1
  Au  Au2  1  0.12500000  0.62500000  0.62500000  1
  Au  Au3  1  0.62500000  0.12500000  0.62500000  1
  N  N0  1  0.12500000  0.12500000  0.62500000  1
  N  N1  1  0.12500000  0.12500000  0.12500000  1
  N  N2  1  0.62500000  0.12500000  0.12500000  1
  N  N3  1  0.12500000  0.62500000  0.12500000  1
loop_
_geom_bond_atom_site_label_1
_geom_bond_atom_site_label_2
_geom_bond_distance
_geom_bond_site_symmetry_2
Au0 Zn3 2.635029 1_555
Au0 Zn7 2.635029 1_554
Au0 Zn2 2.635029 1_555
Au0 Zn6 2.635029 1_554
Au0 Zn5 2.635034 1_554
Au0 Zn1 2.635034 1_555
Au0 Zr7 3.140537 1_655
Au0 Zr1 3.140537 1_555
Au0 Zr2 3.140537 1_555
Au0 Zr8 3.140537 1_555
Au0 Zr6 3.140537 1_565
Au0 Zr0 3.140537 1_555
Au1 Zn4 2.635036 1_555
Au1 Zn0 2.635036 1_555
Au1 Zn7 2.635036 1_555
Au1 Zn3 2.635036 1_555
Au1 Zn6 2.635036 1_555
Au1 Zn2 2.635036 1_555
Au1 Zr9 3.140537 1_655
Au1 Zr3 3.140537 1_555
Au1 Zr10 3.140537 1_565
Au1 Zr4 3.140537 1_555
Au1 Zr8 3.140538 1_556
Au1 Zr2 3.140538 1_555
Au2 Zn0 2.635029 1_555
Au2 Zn4 2.635029 1_455
Au2 Zn3 2.635029 1_555
Au2 Zn7 2.635029 1_455
Au2 Zn5 2.635034 1_455
Au2 Zn1 2.635034 1_555
Au2 Zr3 3.140537 1_555
Au2 Zr9 3.140537 1_555
Au2 Zr11 3.140537 1_565
Au2 Zr5 3.140537 1_555
Au2 Zr7 3.140538 1_556
Au2 Zr1 3.140538 1_555
Au3 Zn0 2.635029 1_555
Au3 Zn4 2.635029 1_545
Au3 Zn2 2.635029 1_555
Au3 Zn6 2.635029 1_545
Au3 Zn5 2.635034 1_545
Au3 Zn1 2.635034 1_555
Au3 Zr11 3.140537 1_655
Au3 Zr5 3.140537 1_555
Au3 Zr4 3.140537 1_555
Au3 Zr10 3.140537 1_555
Au3 Zr6 3.140538 1_556
Au3 Zr0 3.140538 1_555
N0 Zr10 2.281972 1_555
N0 Zr4 2.281972 1_455
N0 Zr5 2.281972 1_555
N0 Zr11 2.281972 1_555
N0 Zr9 2.281972 1_555
N0 Zr3 2.281972 1_545
N1 Zr6 2.281972 1_555
N1 Zr0 2.281972 1_455
N1 Zr7 2.281972 1_555
N1 Zr1 2.281972 1_545
N1 Zr11 2.281973 1_555
N1 Zr5 2.281973 1_554
N2 Zr0 2.281972 1_555
N2 Zr6 2.281972 1_555
N2 Zr8 2.281972 1_555
N2 Zr2 2.281972 1_545
N2 Zr10 2.281972 1_555
N2 Zr4 2.281972 1_554
N3 Zr8 2.281972 1_555
N3 Zr2 2.281972 1_455
N3 Zr1 2.281972 1_555
N3 Zr7 2.281972 1_555
N3 Zr9 2.281973 1_555
N3 Zr3 2.281973 1_554
