# generated using pymatgen
data_LiAl(PSe3)2
_symmetry_space_group_name_H-M   'P 1'
_cell_length_a   6.29953704
_cell_length_b   6.29953685
_cell_length_c   14.06047696
_cell_angle_alpha   90.00000000
_cell_angle_beta   90.00000000
_cell_angle_gamma   119.99999071
_symmetry_Int_Tables_number   1
_chemical_formula_structural   LiAl(PSe3)2
_chemical_formula_sum   'Li2 Al2 P4 Se12'
_cell_volume   483.22342579
_cell_formula_units_Z   2
loop_
 _symmetry_equiv_pos_site_id
 _symmetry_equiv_pos_as_xyz
  1  'x, y, z'
loop_
 _atom_site_type_symbol
 _atom_site_label
 _atom_site_symmetry_multiplicity
 _atom_site_fract_x
 _atom_site_fract_y
 _atom_site_fract_z
 _atom_site_occupancy
  Li  Li0  1  0.33333300  0.66666700  0.75000000  1
  Li  Li1  1  0.66666700  0.33333300  0.25000000  1
  Al  Al0  1  0.00000000  0.00000000  0.25000000  1
  Al  Al1  1  0.00000000  0.00000000  0.75000000  1
  P  P0  1  0.66666700  0.33333300  0.67188154  1
  P  P1  1  0.66666700  0.33333300  0.82811846  1
  P  P2  1  0.33333300  0.66666700  0.32811846  1
  P  P3  1  0.33333300  0.66666700  0.17188154  1
  Se  Se0  1  0.68220694  0.99095442  0.13121612  1
  Se  Se1  1  0.68220694  0.69125352  0.36878388  1
  Se  Se2  1  0.30874648  0.31779306  0.13121612  1
  Se  Se3  1  0.30874648  0.99095442  0.36878388  1
  Se  Se4  1  0.69125352  0.68220694  0.86878388  1
  Se  Se5  1  0.31779306  0.00904558  0.86878388  1
  Se  Se6  1  0.99095442  0.30874648  0.86878388  1
  Se  Se7  1  0.31779306  0.30874648  0.63121612  1
  Se  Se8  1  0.99095442  0.68220694  0.63121612  1
  Se  Se9  1  0.69125352  0.00904558  0.63121612  1
  Se  Se10  1  0.00904558  0.31779306  0.36878388  1
  Se  Se11  1  0.00904558  0.69125352  0.13121612  1
loop_
_geom_bond_atom_site_label_1
_geom_bond_atom_site_label_2
_geom_bond_distance
_geom_bond_site_symmetry_2
Li0 Se5 2.768041 1_565
Li0 Se8 2.768041 1_455
Li0 Se6 2.768047 1_455
Li0 Se9 2.768047 1_565
Li0 Se7 2.768051 1_555
Li0 Se4 2.768051 1_555
Li1 Se0 2.768041 1_545
Li1 Se10 2.768041 1_655
Li1 Se11 2.768047 1_655
Li1 Se3 2.768047 1_545
Li1 Se1 2.768051 1_555
Li1 Se2 2.768051 1_555
Al0 Se11 2.585802 1_545
Al0 Se3 2.585802 1_545
Al0 Se2 2.585805 1_555
Al0 Se1 2.585805 1_445
Al0 Se10 2.585807 1_555
Al0 Se0 2.585807 1_445
Al1 Se6 2.585802 1_455
Al1 Se9 2.585802 1_455
Al1 Se4 2.585805 1_445
Al1 Se7 2.585805 1_555
Al1 Se8 2.585807 1_445
Al1 Se5 2.585807 1_555
P0 P1 2.196766 1_555
P0 Se9 2.200137 1_555
P0 Se7 2.200137 1_555
P0 Se8 2.200137 1_555
P1 Se4 2.200137 1_555
P1 Se6 2.200137 1_555
P1 Se5 2.200137 1_555
P2 P3 2.196766 1_555
P2 Se3 2.200137 1_555
P2 Se1 2.200137 1_555
P2 Se10 2.200137 1_555
P3 Se2 2.200137 1_555
P3 Se11 2.200137 1_555
P3 Se0 2.200137 1_555
