# generated using pymatgen
data_Mg4Cu(GeIr)6
_symmetry_space_group_name_H-M   'P 1'
_cell_length_a   6.99913832
_cell_length_b   6.99913887
_cell_length_c   6.99913817
_cell_angle_alpha   109.36571190
_cell_angle_beta   109.36571008
_cell_angle_gamma   109.68244349
_symmetry_Int_Tables_number   1
_chemical_formula_structural   Mg4Cu(GeIr)6
_chemical_formula_sum   'Mg4 Cu1 Ge6 Ir6'
_cell_volume   263.94136089
_cell_formula_units_Z   1
loop_
 _symmetry_equiv_pos_site_id
 _symmetry_equiv_pos_as_xyz
  1  'x, y, z'
loop_
 _atom_site_type_symbol
 _atom_site_label
 _atom_site_symmetry_multiplicity
 _atom_site_fract_x
 _atom_site_fract_y
 _atom_site_fract_z
 _atom_site_occupancy
  Mg  Mg0  1  0.00193767  0.99806233  0.50000000  1
  Mg  Mg1  1  0.00193767  0.50193767  0.00387633  1
  Mg  Mg2  1  0.49806233  0.99806233  0.99612367  1
  Mg  Mg3  1  0.49806233  0.50193767  0.50000000  1
  Cu  Cu0  1  0.75000000  0.25000000  0.50000000  1
  Ge  Ge0  1  0.68687079  0.68687079  0.00000000  1
  Ge  Ge1  1  0.30780112  0.99784782  0.30995331  1
  Ge  Ge2  1  0.00215218  0.31210549  0.30995331  1
  Ge  Ge3  1  0.31312921  0.31312921  0.00000000  1
  Ge  Ge4  1  0.68789451  0.99784782  0.69004669  1
  Ge  Ge5  1  0.00215218  0.69219888  0.69004669  1
  Ir  Ir0  1  0.74608678  0.49157882  0.25450796  1
  Ir  Ir1  1  0.50842118  0.25391322  0.74549204  1
  Ir  Ir2  1  0.23707086  0.49157882  0.74549204  1
  Ir  Ir3  1  0.25000000  0.75000000  0.50000000  1
  Ir  Ir4  1  0.50842118  0.76292914  0.25450796  1
  Ir  Ir5  1  0.00000000  0.00000000  0.00000000  1
loop_
_geom_bond_atom_site_label_1
_geom_bond_atom_site_label_2
_geom_bond_distance
_geom_bond_site_symmetry_2
Cu0 Ge2 2.548831 1_655
Cu0 Ge4 2.548831 1_545
Cu0 Ge1 2.548831 1_545
Cu0 Ge5 2.548831 1_655
Cu0 Ir1 2.781863 1_555
Cu0 Ir0 2.781863 1_555
Cu0 Ir2 2.781863 1_655
Cu0 Ir4 2.781863 1_545
Cu0 Mg0 2.883281 1_645
Cu0 Mg3 2.883281 1_555
Cu0 Mg1 2.883287 1_656
Cu0 Mg2 2.883287 1_544
Ge0 Ir4 2.512179 1_555
Ge0 Ir1 2.512179 1_554
Ge0 Ir5 2.524081 1_665
Ge0 Ir0 2.592307 1_555
Ge0 Ir2 2.592307 1_554
Ge0 Mg1 2.906091 1_655
Ge0 Mg3 2.906092 1_554
Ge0 Mg0 2.906092 1_655
Ge0 Mg2 2.906093 1_554
Ge1 Ir5 2.508335 1_565
Ge1 Ir1 2.513804 1_565
Ge1 Ir4 2.513804 1_555
Ge1 Ir3 2.521249 1_555
Ge1 Mg1 2.870822 1_555
Ge1 Mg0 2.870822 1_555
Ge1 Mg3 2.922120 1_565
Ge1 Mg2 2.922126 1_554
Ge2 Ir5 2.508335 1_555
Ge2 Ir2 2.513804 1_555
Ge2 Ir0 2.513804 1_455
Ge2 Ir3 2.521249 1_555
Ge2 Mg1 2.870816 1_555
Ge2 Mg3 2.870822 1_555
Ge2 Mg0 2.922120 1_545
Ge2 Mg2 2.922121 1_444
Ge3 Ir2 2.512179 1_554
Ge3 Ir0 2.512179 1_555
Ge3 Ir5 2.524081 1_555
Ge3 Ir1 2.592306 1_554
Ge3 Ir4 2.592307 1_555
Ge3 Mg2 2.906091 1_544
Ge3 Mg3 2.906092 1_555
Ge3 Mg0 2.906092 1_544
Ge3 Mg1 2.906093 1_555
Ge4 Ir5 2.508335 1_666
Ge4 Ir4 2.513804 1_555
Ge4 Ir1 2.513804 1_565
Ge4 Ir3 2.521249 1_555
Ge4 Mg2 2.870816 1_555
Ge4 Mg3 2.870822 1_555
Ge4 Mg0 2.922120 1_655
Ge4 Mg1 2.922121 1_666
Ge5 Ir5 2.508335 1_566
Ge5 Ir0 2.513804 1_455
Ge5 Ir2 2.513804 1_555
Ge5 Ir3 2.521249 1_555
Ge5 Mg2 2.870822 1_555
Ge5 Mg0 2.870822 1_555
Ge5 Mg3 2.922120 1_455
Ge5 Mg1 2.922126 1_556
Ir0 Mg3 2.819832 1_555
Ir0 Mg2 2.819832 1_544
Ir0 Mg1 2.892995 1_655
Ir0 Mg0 2.893001 1_655
Ir1 Mg3 2.819832 1_555
Ir1 Mg1 2.819832 1_656
Ir1 Mg2 2.892995 1_545
Ir1 Mg0 2.893001 1_545
Ir2 Mg0 2.819832 1_545
Ir2 Mg1 2.819837 1_556
Ir2 Mg3 2.893001 1_555
Ir2 Mg2 2.893001 1_555
Ir3 Mg2 2.838925 1_555
Ir3 Mg1 2.838925 1_555
Ir3 Mg3 2.838930 1_555
Ir3 Mg0 2.838930 1_555
Ir4 Mg0 2.819832 1_655
Ir4 Mg2 2.819838 1_554
Ir4 Mg3 2.893001 1_555
Ir4 Mg1 2.893001 1_555
