# generated using pymatgen
data_Pr2MoC2
_symmetry_space_group_name_H-M   'P 1'
_cell_length_a   5.84545270
_cell_length_b   5.84545270
_cell_length_c   10.50044410
_cell_angle_alpha   90.00000000
_cell_angle_beta   90.00000000
_cell_angle_gamma   90.00000000
_symmetry_Int_Tables_number   1
_chemical_formula_structural   Pr2MoC2
_chemical_formula_sum   'Pr8 Mo4 C8'
_cell_volume   358.79300591
_cell_formula_units_Z   4
loop_
 _symmetry_equiv_pos_site_id
 _symmetry_equiv_pos_as_xyz
  1  'x, y, z'
loop_
 _atom_site_type_symbol
 _atom_site_label
 _atom_site_symmetry_multiplicity
 _atom_site_fract_x
 _atom_site_fract_y
 _atom_site_fract_z
 _atom_site_occupancy
  Pr  Pr0  1  0.80338940  0.80338940  0.65555014  1
  Pr  Pr1  1  0.19661060  0.19661060  0.65555014  1
  Pr  Pr2  1  0.80338940  0.80338940  0.34444986  1
  Pr  Pr3  1  0.30338940  0.69661060  0.15555014  1
  Pr  Pr4  1  0.69661060  0.30338940  0.15555014  1
  Pr  Pr5  1  0.69661060  0.30338940  0.84444986  1
  Pr  Pr6  1  0.30338940  0.69661060  0.84444986  1
  Pr  Pr7  1  0.19661060  0.19661060  0.34444986  1
  Mo  Mo0  1  0.17539926  0.17539926  -0.00000000  1
  Mo  Mo1  1  0.32460074  0.67539926  0.50000000  1
  Mo  Mo2  1  0.67539926  0.32460074  0.50000000  1
  Mo  Mo3  1  0.82460074  0.82460074  -0.00000000  1
  C  C0  1  0.50000000  -0.00000000  -0.00000000  1
  C  C1  1  0.50000000  -0.00000000  0.50000000  1
  C  C2  1  -0.00000000  0.50000000  0.50000000  1
  C  C3  1  -0.00000000  0.50000000  -0.00000000  1
  C  C4  1  -0.00000000  -0.00000000  0.85923504  1
  C  C5  1  0.50000000  0.50000000  0.35923504  1
  C  C6  1  0.50000000  0.50000000  0.64076496  1
  C  C7  1  0.00000000  -0.00000000  0.14076496  1
loop_
_geom_bond_atom_site_label_1
_geom_bond_atom_site_label_2
_geom_bond_distance
_geom_bond_site_symmetry_2
C0 Mo3 2.156731 1_545
C0 Mo0 2.156731 1_555
C0 Pr5 2.670913 1_554
C0 Pr4 2.670913 1_555
C0 Pr3 2.670913 1_545
C0 Pr6 2.670913 1_544
C1 Mo2 2.156731 1_555
C1 Mo1 2.156731 1_545
C1 Pr1 2.670913 1_555
C1 Pr2 2.670913 1_545
C1 Pr7 2.670913 1_555
C1 Pr0 2.670913 1_545
C2 Mo1 2.156731 1_555
C2 Mo2 2.156731 1_455
C2 Pr1 2.670913 1_555
C2 Pr2 2.670913 1_455
C2 Pr0 2.670913 1_455
C2 Pr7 2.670913 1_555
C3 Mo3 2.156731 1_455
C3 Mo0 2.156731 1_555
C3 Pr6 2.670913 1_554
C3 Pr3 2.670913 1_555
C3 Pr4 2.670913 1_455
C3 Pr5 2.670913 1_454
C4 Mo3 2.070554 1_446
C4 Mo0 2.070554 1_556
C4 Pr5 2.512835 1_455
C4 Pr6 2.512835 1_545
C4 Pr0 2.686274 1_445
C4 Pr1 2.686274 1_555
C5 Mo1 2.070554 1_555
C5 Mo2 2.070554 1_555
C5 Pr2 2.512835 1_555
C5 Pr7 2.512835 1_555
C5 Pr3 2.686274 1_555
C5 Pr4 2.686274 1_555
C6 Mo1 2.070554 1_555
C6 Mo2 2.070554 1_555
C6 Pr1 2.512835 1_555
C6 Pr0 2.512835 1_555
C6 Pr5 2.686274 1_555
C6 Pr6 2.686274 1_555
C7 Mo3 2.070554 1_445
C7 Mo0 2.070554 1_555
C7 Pr4 2.512835 1_455
C7 Pr3 2.512835 1_545
C7 Pr2 2.686274 1_445
C7 Pr7 2.686274 1_555
