# generated using pymatgen
data_Zr2Co5P6Ru5
_symmetry_space_group_name_H-M   'P 1'
_cell_length_a   3.71798118
_cell_length_b   10.35665608
_cell_length_c   11.84120550
_cell_angle_alpha   90.00000000
_cell_angle_beta   90.00000000
_cell_angle_gamma   90.00000000
_symmetry_Int_Tables_number   1
_chemical_formula_structural   Zr2Co5P6Ru5
_chemical_formula_sum   'Zr4 Co10 P12 Ru10'
_cell_volume   455.95571147
_cell_formula_units_Z   2
loop_
 _symmetry_equiv_pos_site_id
 _symmetry_equiv_pos_as_xyz
  1  'x, y, z'
loop_
 _atom_site_type_symbol
 _atom_site_label
 _atom_site_symmetry_multiplicity
 _atom_site_fract_x
 _atom_site_fract_y
 _atom_site_fract_z
 _atom_site_occupancy
  Zr  Zr0  1  0.25000000  0.58534946  0.70874726  1
  Zr  Zr1  1  0.25000000  0.91465054  0.20874726  1
  Zr  Zr2  1  0.75000000  0.42079879  0.29345951  1
  Zr  Zr3  1  0.75000000  0.07920121  0.79345951  1
  Co  Co0  1  0.75000000  0.77201764  0.82246827  1
  Co  Co1  1  0.75000000  0.72798236  0.32246827  1
  Co  Co2  1  0.25000000  0.87885046  0.70079788  1
  Co  Co3  1  0.25000000  0.62114954  0.20079788  1
  Co  Co4  1  0.75000000  0.10889494  0.29886176  1
  Co  Co5  1  0.75000000  0.39110506  0.79886176  1
  Co  Co6  1  0.25000000  0.46243316  0.93100471  1
  Co  Co7  1  0.25000000  0.03756684  0.43100471  1
  Co  Co8  1  0.75000000  0.53671988  0.06771489  1
  Co  Co9  1  0.75000000  0.96328012  0.56771489  1
  P  P0  1  0.25000000  0.43125693  0.11475379  1
  P  P1  1  0.25000000  0.06874307  0.61475379  1
  P  P2  1  0.75000000  0.57710525  0.88600278  1
  P  P3  1  0.75000000  0.92289475  0.38600278  1
  P  P4  1  0.25000000  0.26847933  0.86892022  1
  P  P5  1  0.25000000  0.23152067  0.36892022  1
  P  P6  1  0.75000000  0.72914098  0.13789723  1
  P  P7  1  0.75000000  0.77085902  0.63789723  1
  P  P8  1  0.25000000  0.60343795  0.38390340  1
  P  P9  1  0.25000000  0.89656205  0.88390340  1
  P  P10  1  0.75000000  0.40255214  0.61368759  1
  P  P11  1  0.75000000  0.09744786  0.11368759  1
  Ru  Ru0  1  0.25000000  0.70519890  0.98342184  1
  Ru  Ru1  1  0.25000000  0.79480110  0.48342184  1
  Ru  Ru2  1  0.75000000  0.29140303  0.00867279  1
  Ru  Ru3  1  0.75000000  0.20859697  0.50867279  1
  Ru  Ru4  1  0.25000000  0.40887518  0.48188083  1
  Ru  Ru5  1  0.25000000  0.09112482  0.98188083  1
  Ru  Ru6  1  0.75000000  0.59885632  0.51857543  1
  Ru  Ru7  1  0.75000000  0.90114368  0.01857543  1
  Ru  Ru8  1  0.25000000  0.22794022  0.17922881  1
  Ru  Ru9  1  0.25000000  0.27205978  0.67922881  1
loop_
_geom_bond_atom_site_label_1
_geom_bond_atom_site_label_2
_geom_bond_distance
_geom_bond_site_symmetry_2
Co0 P2 2.154276 1_555
Co0 P7 2.185576 1_555
Co0 P9 2.376721 1_555
Co0 P9 2.376721 1_655
Co0 Ru7 2.679695 1_556
Co0 Ru0 2.750842 1_555
Co0 Ru0 2.750842 1_655
Co1 P3 2.154276 1_555
Co1 P6 2.185576 1_555
Co1 P8 2.376721 1_655
Co1 P8 2.376721 1_555
Co1 Ru6 2.679695 1_555
Co1 Ru1 2.750842 1_655
Co1 Ru1 2.750842 1_555
Co2 P9 2.175936 1_555
Co2 P1 2.214906 1_565
Co2 P7 2.293793 1_555
Co2 P7 2.293793 1_455
Co2 Ru1 2.717198 1_555
Co2 Zr3 2.994198 1_565
Co2 Zr3 2.994198 1_465
Co3 P8 2.175936 1_555
Co3 P0 2.214906 1_555
Co3 P6 2.293793 1_555
Co3 P6 2.293793 1_455
Co3 Ru0 2.717198 1_554
Co3 Zr2 2.994198 1_455
Co3 Zr2 2.994198 1_555
Co4 P3 2.185294 1_545
Co4 P11 2.195888 1_555
Co4 P5 2.399359 1_655
Co4 P5 2.399359 1_555
Co4 Ru8 2.642474 1_555
Co4 Ru8 2.642474 1_655
Co4 Ru3 2.690454 1_555
Co5 P2 2.185294 1_555
Co5 P10 2.195888 1_555
Co5 P4 2.399359 1_555
Co5 P4 2.399359 1_655
Co5 Ru9 2.642474 1_655
Co5 Ru9 2.642474 1_555
Co5 Ru2 2.690454 1_556
Co6 P4 2.139014 1_555
Co6 P0 2.199637 1_556
Co6 P2 2.269415 1_455
Co6 P2 2.269415 1_555
Co6 Ru0 2.589721 1_555
Co6 Ru2 2.727484 1_456
Co6 Ru2 2.727484 1_556
Co7 P5 2.139014 1_555
Co7 P1 2.199637 1_555
Co7 P3 2.269415 1_445
Co7 P3 2.269415 1_545
Co7 Ru1 2.589721 1_545
Co7 Ru3 2.727484 1_455
Co7 Ru3 2.727484 1_555
Co8 P6 2.159176 1_555
Co8 P2 2.191965 1_554
Co8 P0 2.226901 1_655
Co8 P0 2.226901 1_555
Co8 Ru2 2.635099 1_555
Co8 Ru0 2.738013 1_554
Co8 Ru0 2.738013 1_654
Co8 Zr2 2.930313 1_555
Co9 P7 2.159176 1_555
Co9 P3 2.191965 1_555
Co9 P1 2.226901 1_665
Co9 P1 2.226901 1_565
Co9 Ru3 2.635099 1_565
Co9 Ru1 2.738013 1_655
Co9 Ru1 2.738013 1_555
Co9 Zr3 2.930313 1_565
P0 Ru8 2.239814 1_555
P0 Ru2 2.670509 1_555
P0 Ru2 2.670509 1_455
P0 Zr2 2.818762 1_555
P0 Zr2 2.818762 1_455
P1 Ru9 2.239814 1_555
P1 Ru3 2.670509 1_455
P1 Ru3 2.670509 1_555
P1 Zr3 2.818762 1_455
P1 Zr3 2.818762 1_555
P2 Ru0 2.558607 1_655
P2 Ru0 2.558607 1_555
P2 Zr0 2.805102 1_555
P2 Zr0 2.805102 1_655
P3 Ru1 2.558607 1_555
P3 Ru1 2.558607 1_655
P3 Zr1 2.805102 1_655
P3 Zr1 2.805102 1_555
P4 Ru9 2.246481 1_555
P4 Ru5 2.272219 1_555
P4 Ru2 2.500141 1_456
P4 Ru2 2.500141 1_556
P4 Zr3 2.845523 1_455
P4 Zr3 2.845523 1_555
P5 Ru8 2.246481 1_555
P5 Ru4 2.272219 1_555
P5 Ru3 2.500141 1_455
P5 Ru3 2.500141 1_555
P5 Zr2 2.845523 1_555
P5 Zr2 2.845523 1_455
P6 Ru7 2.273679 1_555
P6 Ru0 2.619773 1_654
P6 Ru0 2.619773 1_554
P6 Zr1 2.801949 1_655
P6 Zr1 2.801949 1_555
P7 Ru6 2.273679 1_555
P7 Ru1 2.619773 1_555
P7 Ru1 2.619773 1_655
P7 Zr0 2.801949 1_555
P7 Zr0 2.801949 1_655
P8 Ru1 2.305760 1_555
P8 Ru4 2.325145 1_555
P8 Ru6 2.449714 1_555
P8 Ru6 2.449714 1_455
P8 Zr2 2.860192 1_455
P8 Zr2 2.860192 1_555
P9 Ru0 2.305760 1_555
P9 Ru5 2.325145 1_565
P9 Ru7 2.449714 1_456
P9 Ru7 2.449714 1_556
P9 Zr3 2.860192 1_565
P9 Zr3 2.860192 1_465
P10 Ru6 2.324163 1_555
P10 Ru3 2.362473 1_555
P10 Ru9 2.425822 1_655
P10 Ru9 2.425822 1_555
P10 Ru4 2.428184 1_655
P10 Ru4 2.428184 1_555
P10 Zr0 2.882179 1_655
P10 Zr0 2.882179 1_555
P11 Ru7 2.324163 1_545
P11 Ru2 2.362473 1_555
P11 Ru8 2.425822 1_655
P11 Ru8 2.425822 1_555
P11 Ru5 2.428184 1_654
P11 Ru5 2.428184 1_554
P11 Zr1 2.882179 1_645
P11 Zr1 2.882179 1_545
Ru2 Ru8 2.822513 1_655
Ru2 Ru8 2.822513 1_555
Ru3 Ru9 2.822513 1_555
Ru3 Ru9 2.822513 1_655
Ru4 Ru9 2.732866 1_555
Ru4 Zr2 2.906727 1_455
Ru4 Zr2 2.906727 1_555
Ru5 Ru8 2.732866 1_556
Ru5 Zr3 2.906727 1_455
Ru5 Zr3 2.906727 1_555
Ru6 Zr0 2.923406 1_555
Ru6 Zr0 2.923406 1_655
Ru7 Zr1 2.923406 1_655
Ru7 Zr1 2.923406 1_555
Ru8 Zr2 3.045478 1_555
Ru8 Zr2 3.045478 1_455
Ru8 Zr1 3.263406 1_545
Ru9 Zr3 3.045478 1_455
Ru9 Zr3 3.045478 1_555
Ru9 Zr0 3.263406 1_555
