# generated using pymatgen
data_Sc22Tc4Hg3Os
_symmetry_space_group_name_H-M   'P 1'
_cell_length_a   9.59492072
_cell_length_b   9.65963846
_cell_length_c   9.77029082
_cell_angle_alpha   59.18089633
_cell_angle_beta   59.93917011
_cell_angle_gamma   60.98415063
_symmetry_Int_Tables_number   1
_chemical_formula_structural   Sc22Tc4Hg3Os
_chemical_formula_sum   'Sc22 Tc4 Hg3 Os1'
_cell_volume   640.50012669
_cell_formula_units_Z   1
loop_
 _symmetry_equiv_pos_site_id
 _symmetry_equiv_pos_as_xyz
  1  'x, y, z'
loop_
 _atom_site_type_symbol
 _atom_site_label
 _atom_site_symmetry_multiplicity
 _atom_site_fract_x
 _atom_site_fract_y
 _atom_site_fract_z
 _atom_site_occupancy
  Sc  Sc0  1  0.86487175  0.83399608  0.84063635  1
  Sc  Sc1  1  0.51886426  0.18391399  0.14503276  1
  Sc  Sc2  1  0.14503276  0.15218800  0.51886426  1
  Sc  Sc3  1  0.15936365  0.53950317  0.13512825  1
  Sc  Sc4  1  0.85496724  0.84781200  0.48113574  1
  Sc  Sc5  1  0.84063635  0.46049683  0.86487175  1
  Sc  Sc6  1  0.48113574  0.81608601  0.85496724  1
  Sc  Sc7  1  0.13512825  0.16600392  0.15936365  1
  Sc  Sc8  1  0.19383958  0.80616042  0.19383958  1
  Sc  Sc9  1  0.20257975  0.80816764  0.79742025  1
  Sc  Sc10  1  0.79742025  0.19183236  0.20257975  1
  Sc  Sc11  1  0.80219950  0.81279524  0.19780050  1
  Sc  Sc12  1  0.19780050  0.18720476  0.80219950  1
  Sc  Sc13  1  0.80616042  0.19383958  0.80616042  1
  Sc  Sc14  1  0.38615377  0.39795484  0.37335366  1
  Sc  Sc15  1  0.15444715  0.61066227  0.62821054  1
  Sc  Sc16  1  0.62664634  0.15746127  0.61384623  1
  Sc  Sc17  1  0.62821054  0.60668004  0.15444715  1
  Sc  Sc18  1  0.37335366  0.84253873  0.38615377  1
  Sc  Sc19  1  0.37178946  0.39331996  0.84555285  1
  Sc  Sc20  1  0.84555285  0.38933773  0.37178946  1
  Sc  Sc21  1  0.61384623  0.60204516  0.62664634  1
  Tc  Tc0  1  0.50000000  0.50000000  0.00000000  1
  Tc  Tc1  1  0.00000000  0.00000000  0.50000000  1
  Tc  Tc2  1  0.00000000  0.50000000  0.00000000  1
  Tc  Tc3  1  0.00000000  0.00000000  0.00000000  1
  Hg  Hg0  1  0.50000000  0.00000000  0.50000000  1
  Hg  Hg1  1  0.00000000  0.50000000  0.50000000  1
  Hg  Hg2  1  0.50000000  0.00000000  0.00000000  1
  Os  Os0  1  0.50000000  0.50000000  0.50000000  1
loop_
_geom_bond_atom_site_label_1
_geom_bond_atom_site_label_2
_geom_bond_distance
_geom_bond_site_symmetry_2
Sc0 Tc2 2.707672 1_656
Sc0 Tc1 2.748505 1_665
Sc1 Tc0 2.578914 1_555
Sc2 Tc1 2.578905 1_555
Sc3 Tc2 2.707665 1_555
Sc3 Tc0 2.748507 1_555
Sc4 Tc1 2.578905 1_665
Sc5 Tc2 2.707665 1_656
Sc5 Tc0 2.748507 1_556
Sc6 Tc0 2.578914 1_556
Sc7 Tc2 2.707672 1_555
Sc7 Tc1 2.748505 1_555
Sc8 Tc3 2.658713 1_565
Sc9 Tc3 2.745730 1_566
Sc10 Tc3 2.745730 1_655
Sc11 Tc3 2.584723 1_665
Sc12 Tc3 2.584723 1_556
Sc13 Tc3 2.658713 1_656
Sc14 Tc0 2.973108 1_555
Sc15 Tc2 2.949375 1_556
Sc15 Tc1 3.087904 1_565
Sc16 Tc1 2.973107 1_655
Sc17 Tc2 2.949375 1_655
Sc17 Tc0 3.087904 1_555
Sc18 Tc1 2.973107 1_565
Sc19 Tc2 2.949375 1_556
Sc19 Tc0 3.087904 1_556
Sc20 Tc2 2.949375 1_655
Sc20 Tc1 3.087904 1_655
Sc21 Tc0 2.973108 1_556
Hg0 Sc6 2.930299 1_545
Hg0 Sc1 2.930299 1_555
Hg0 Sc4 2.930299 1_545
Hg0 Sc2 2.930299 1_555
Hg0 Sc16 3.147708 1_555
Hg0 Sc18 3.147708 1_545
Hg0 Sc14 3.147716 1_555
Hg0 Sc21 3.147716 1_545
Hg0 Sc10 3.365451 1_555
Hg0 Sc9 3.365451 1_545
Hg0 Sc12 3.493225 1_555
Hg0 Sc11 3.493225 1_545
Hg1 Sc4 2.888805 1_455
Hg1 Sc2 2.888805 1_555
Hg1 Sc5 2.983849 1_455
Hg1 Sc3 2.983849 1_555
Hg1 Sc14 3.056851 1_555
Hg1 Sc21 3.056851 1_455
Hg1 Sc15 3.110689 1_555
Hg1 Sc20 3.110689 1_455
Hg1 Sc8 3.442508 1_555
Hg1 Sc13 3.442508 1_455
Hg1 Sc12 3.515516 1_555
Hg1 Sc11 3.515516 1_455
Hg2 Sc1 2.888796 1_555
Hg2 Sc6 2.888796 1_544
Hg2 Sc0 2.983847 1_544
Hg2 Sc7 2.983847 1_555
Hg2 Sc18 3.056850 1_545
Hg2 Sc16 3.056850 1_554
Hg2 Sc19 3.110689 1_554
Hg2 Sc17 3.110689 1_545
Hg2 Sc13 3.442508 1_554
Hg2 Sc8 3.442508 1_545
Hg2 Sc11 3.515516 1_545
Hg2 Sc12 3.515516 1_554
Os0 Sc21 2.710056 1_555
Os0 Sc14 2.710056 1_555
Os0 Sc18 2.710064 1_555
Os0 Sc16 2.710064 1_555
Os0 Sc19 2.734530 1_555
Os0 Sc17 2.734530 1_555
Os0 Sc20 2.734530 1_555
Os0 Sc15 2.734530 1_555
