# generated using pymatgen
data_Zr5HgBi2B
_symmetry_space_group_name_H-M   'P 1'
_cell_length_a   8.61365862
_cell_length_b   8.61365895
_cell_length_c   5.87110219
_cell_angle_alpha   90.00000000
_cell_angle_beta   90.00000000
_cell_angle_gamma   119.55036742
_symmetry_Int_Tables_number   1
_chemical_formula_structural   Zr5HgBi2B
_chemical_formula_sum   'Zr10 Hg2 Bi4 B2'
_cell_volume   378.94442444
_cell_formula_units_Z   2
loop_
 _symmetry_equiv_pos_site_id
 _symmetry_equiv_pos_as_xyz
  1  'x, y, z'
loop_
 _atom_site_type_symbol
 _atom_site_label
 _atom_site_symmetry_multiplicity
 _atom_site_fract_x
 _atom_site_fract_y
 _atom_site_fract_z
 _atom_site_occupancy
  Zr  Zr0  1  0.66961087  0.33114215  0.00416193  1
  Zr  Zr1  1  0.33114215  0.66961087  0.00416193  1
  Zr  Zr2  1  0.33114215  0.66961087  0.49583807  1
  Zr  Zr3  1  0.66961087  0.33114215  0.49583807  1
  Zr  Zr4  1  0.77517168  0.77517168  0.75000000  1
  Zr  Zr5  1  0.22155861  0.99708511  0.75000000  1
  Zr  Zr6  1  0.99708511  0.22155861  0.75000000  1
  Zr  Zr7  1  0.22134532  0.22134532  0.25000000  1
  Zr  Zr8  1  0.77476688  0.00602120  0.25000000  1
  Zr  Zr9  1  0.00602120  0.77476688  0.25000000  1
  Hg  Hg0  1  0.39782411  0.00355054  0.25000000  1
  Hg  Hg1  1  0.00355054  0.39782411  0.25000000  1
  Bi  Bi0  1  0.39696396  0.39696396  0.75000000  1
  Bi  Bi1  1  0.59805726  0.99984079  0.75000000  1
  Bi  Bi2  1  0.99984079  0.59805726  0.75000000  1
  Bi  Bi3  1  0.60621145  0.60621145  0.25000000  1
  B  B0  1  0.00004751  0.00004751  0.00232849  1
  B  B1  1  0.00004751  0.00004751  0.49767151  1
loop_
_geom_bond_atom_site_label_1
_geom_bond_atom_site_label_2
_geom_bond_distance
_geom_bond_site_symmetry_2
Hg0 Zr7 2.939920 1_555
Hg0 Zr9 2.951791 1_545
Hg0 Zr3 3.001708 1_555
Hg0 Zr0 3.001708 1_555
Hg0 Zr2 3.009553 1_545
Hg0 Zr1 3.009553 1_545
Hg0 Zr8 3.236414 1_555
Hg0 Zr5 3.292775 1_544
Hg0 Zr5 3.292775 1_545
Hg1 Zr7 2.939920 1_555
Hg1 Zr8 2.951791 1_455
Hg1 Zr2 3.001708 1_555
Hg1 Zr1 3.001708 1_555
Hg1 Zr3 3.009553 1_455
Hg1 Zr0 3.009553 1_455
Hg1 Zr9 3.236414 1_555
Hg1 Zr6 3.292775 1_454
Hg1 Zr6 3.292775 1_455
Bi0 Zr6 3.002262 1_455
Bi0 Zr5 3.002262 1_545
Bi0 Zr0 3.062174 1_556
Bi0 Zr3 3.062174 1_555
Bi0 Zr1 3.062174 1_556
Bi0 Zr2 3.062174 1_555
Bi0 Zr4 3.279867 1_555
Bi0 Zr7 3.307106 1_555
Bi0 Zr7 3.307106 1_556
Bi1 Zr4 2.997452 1_555
Bi1 Zr6 2.997698 1_565
Bi1 Zr0 3.002561 1_566
Bi1 Zr3 3.002561 1_565
Bi1 Zr1 3.025396 1_556
Bi1 Zr2 3.025396 1_555
Bi1 Zr5 3.231390 1_555
Bi1 Zr8 3.295027 1_565
Bi1 Zr8 3.295027 1_566
Bi2 Zr4 2.997451 1_555
Bi2 Zr5 2.997698 1_655
Bi2 Zr1 3.002561 1_656
Bi2 Zr2 3.002561 1_655
Bi2 Zr0 3.025396 1_556
Bi2 Zr3 3.025396 1_555
Bi2 Zr6 3.231390 1_555
Bi2 Zr9 3.295027 1_655
Bi2 Zr9 3.295027 1_656
Bi3 Zr9 3.005991 1_655
Bi3 Zr8 3.005991 1_565
Bi3 Zr2 3.044925 1_555
Bi3 Zr1 3.044925 1_555
Bi3 Zr3 3.044925 1_555
Bi3 Zr0 3.044925 1_555
Bi3 Zr4 3.280915 1_555
Bi3 Zr4 3.280915 1_554
Bi3 Zr7 3.337610 1_555
B0 Zr7 2.407791 1_555
B0 Zr5 2.425676 1_544
B0 Zr6 2.425676 1_454
B0 Zr8 2.445621 1_455
B0 Zr9 2.445621 1_545
B0 Zr4 2.449037 1_444
B1 Zr7 2.407791 1_555
B1 Zr5 2.425676 1_545
B1 Zr6 2.425676 1_455
B1 Zr8 2.445621 1_455
B1 Zr9 2.445621 1_545
B1 Zr4 2.449037 1_445
