# generated using pymatgen
data_Y2B3Ru4C
_symmetry_space_group_name_H-M   'P 1'
_cell_length_a   6.58485105
_cell_length_b   5.78461982
_cell_length_c   5.51482419
_cell_angle_alpha   71.24406779
_cell_angle_beta   57.65280552
_cell_angle_gamma   52.46935587
_symmetry_Int_Tables_number   1
_chemical_formula_structural   Y2B3Ru4C
_chemical_formula_sum   'Y2 B3 Ru4 C1'
_cell_volume   140.73311023
_cell_formula_units_Z   1
loop_
 _symmetry_equiv_pos_site_id
 _symmetry_equiv_pos_as_xyz
  1  'x, y, z'
loop_
 _atom_site_type_symbol
 _atom_site_label
 _atom_site_symmetry_multiplicity
 _atom_site_fract_x
 _atom_site_fract_y
 _atom_site_fract_z
 _atom_site_occupancy
  Y  Y0  1  0.99859720  0.00140280  0.99859720  1
  Y  Y1  1  0.25034965  0.24965035  0.25034965  1
  B  B0  1  0.31318994  0.68681006  0.31318994  1
  B  B1  1  0.93628121  0.56371879  0.93628121  1
  B  B2  1  0.56050868  0.93949132  0.56050868  1
  Ru  Ru0  1  0.61148975  0.60745677  0.88426722  1
  Ru  Ru1  1  0.64462489  0.62653051  0.36276470  1
  Ru  Ru2  1  0.36276470  0.36607890  0.64462489  1
  Ru  Ru3  1  0.88426822  0.89678627  0.61148875  1
  C  C0  1  0.68792477  0.31207523  0.68792477  1
loop_
_geom_bond_atom_site_label_1
_geom_bond_atom_site_label_2
_geom_bond_distance
_geom_bond_site_symmetry_2
B0 Ru3 2.071706 1_455
B0 Ru0 2.071711 1_554
B0 Ru1 2.146957 1_555
B0 Ru2 2.146960 1_555
B0 Y0 2.799195 1_464
B0 Y1 2.945861 1_555
B0 Y1 2.945861 1_565
B1 Ru2 2.053761 1_655
B1 Ru1 2.053762 1_556
B1 Ru0 2.161224 1_555
B1 Ru3 2.161228 1_555
B1 Y1 2.794530 1_656
B1 Y0 2.944979 1_565
B1 Y0 2.944979 1_555
B2 Ru2 2.043260 1_565
B2 Ru1 2.043265 1_555
B2 Ru0 2.154104 1_555
B2 Ru3 2.154106 1_555
B2 Y1 2.759745 1_565
B2 Y0 3.005312 1_465
B2 Y0 3.005312 1_564
Ru0 Y0 2.931936 1_555
Ru0 Y0 2.978940 1_465
Ru1 Y1 2.945305 1_655
Ru1 Y1 3.000151 1_565
Ru2 Y1 2.945305 1_556
Ru2 Y1 3.000148 1_555
Ru3 Y0 2.931937 1_565
Ru3 Y0 2.978937 1_564
C0 Ru0 1.975884 1_555
C0 Ru3 1.975884 1_545
C0 Ru1 2.103154 1_555
C0 Ru2 2.103157 1_555
C0 Y0 2.764313 1_555
C0 Y1 3.006153 1_655
C0 Y1 3.006153 1_556
