# generated using pymatgen
data_V2Tc3As4
_symmetry_space_group_name_H-M   'P 1'
_cell_length_a   6.84924009
_cell_length_b   6.84923915
_cell_length_c   6.83586240
_cell_angle_alpha   93.30234848
_cell_angle_beta   93.09893298
_cell_angle_gamma   152.69197432
_symmetry_Int_Tables_number   1
_chemical_formula_structural   V2Tc3As4
_chemical_formula_sum   'V2 Tc3 As4'
_cell_volume   142.94713492
_cell_formula_units_Z   1
loop_
 _symmetry_equiv_pos_site_id
 _symmetry_equiv_pos_as_xyz
  1  'x, y, z'
loop_
 _atom_site_type_symbol
 _atom_site_label
 _atom_site_symmetry_multiplicity
 _atom_site_fract_x
 _atom_site_fract_y
 _atom_site_fract_z
 _atom_site_occupancy
  V  V0  1  0.00174199  0.99687619  0.99861818  1
  V  V1  1  0.61440096  0.30044533  0.91484629  1
  Tc  Tc0  1  0.38934231  0.69852141  0.08786672  1
  Tc  Tc1  1  0.69937728  0.61484121  0.31422149  1
  Tc  Tc2  1  0.30079780  0.39002789  0.69082669  1
  As  As0  1  0.27553777  0.93397492  0.20951569  1
  As  As1  1  0.06371530  0.28455003  0.34826532  1
  As  As2  1  0.94192177  0.71612611  0.65805087  1
  As  As3  1  0.71316083  0.06463291  0.77779374  1
loop_
_geom_bond_atom_site_label_1
_geom_bond_atom_site_label_2
_geom_bond_distance
_geom_bond_site_symmetry_2
V0 V1 2.674223 1_455
V0 V1 2.674224 1_565
Tc0 V0 2.707338 1_544
Tc0 V0 2.707344 1_654
Tc1 V0 2.700652 1_544
Tc1 V0 2.700658 1_654
Tc2 V0 2.681488 1_545
Tc2 V0 2.681490 1_655
As0 Tc1 2.453514 1_565
As0 Tc1 2.453514 1_455
As0 Tc0 2.459533 1_555
As0 V1 2.545526 1_454
As0 V1 2.545532 1_564
As0 V0 2.644949 1_554
As1 Tc2 2.439574 1_555
As1 Tc0 2.440279 1_555
As1 Tc0 2.440285 1_445
As1 Tc1 2.606596 1_555
As1 Tc1 2.606601 1_445
As1 V0 2.763450 1_544
As2 V1 2.423066 1_555
As2 V1 2.423072 1_665
As2 Tc1 2.471275 1_555
As2 Tc2 2.656306 1_555
As2 Tc2 2.656309 1_665
As2 V0 2.695628 1_655
As3 V1 2.404095 1_555
As3 Tc2 2.447525 1_655
As3 Tc2 2.447527 1_545
As3 Tc0 2.633807 1_656
As3 Tc0 2.633813 1_546
As3 V0 2.790890 1_645
