# generated using pymatgen
data_Li2FeBr4
_symmetry_space_group_name_H-M   'P 1'
_cell_length_a   7.82915746
_cell_length_b   7.82915746
_cell_length_c   7.82915746
_cell_angle_alpha   119.84170712
_cell_angle_beta   119.46566569
_cell_angle_gamma   90.60119200
_symmetry_Int_Tables_number   1
_chemical_formula_structural   Li2FeBr4
_chemical_formula_sum   'Li4 Fe2 Br8'
_cell_volume   341.08751719
_cell_formula_units_Z   2
loop_
 _symmetry_equiv_pos_site_id
 _symmetry_equiv_pos_as_xyz
  1  'x, y, z'
loop_
 _atom_site_type_symbol
 _atom_site_label
 _atom_site_symmetry_multiplicity
 _atom_site_fract_x
 _atom_site_fract_y
 _atom_site_fract_z
 _atom_site_occupancy
  Li  Li0  1  0.13083100  0.88083100  0.25000000  1
  Li  Li1  1  0.50000000  0.50000000  0.00000000  1
  Li  Li2  1  0.00000000  0.50000000  0.50000000  1
  Li  Li3  1  0.86916900  0.11916900  0.75000000  1
  Fe  Fe0  1  0.50000000  0.00000000  0.00000000  1
  Fe  Fe1  1  0.50000000  0.50000000  0.50000000  1
  Br  Br0  1  0.26419600  0.75349300  0.98929700  1
  Br  Br1  1  0.72650900  0.74684900  0.97966000  1
  Br  Br2  1  0.26419600  0.27489900  0.51070300  1
  Br  Br3  1  0.26718900  0.74684900  0.52034000  1
  Br  Br4  1  0.73281100  0.25315100  0.47966000  1
  Br  Br5  1  0.73580400  0.72510100  0.48929700  1
  Br  Br6  1  0.27349100  0.25315100  0.02034000  1
  Br  Br7  1  0.73580400  0.24650700  0.01070300  1
loop_
_geom_bond_atom_site_label_1
_geom_bond_atom_site_label_2
_geom_bond_distance
_geom_bond_site_symmetry_2
Br0 Li0 2.518638 1_556
Br0 Fe0 2.598470 1_566
Br0 Li2 2.728418 1_555
Br0 Li1 2.728418 1_556
Br1 Li0 2.594194 1_656
Br1 Fe0 2.671303 1_566
Br1 Fe1 2.671303 1_555
Br1 Li1 2.723495 1_556
Br2 Li0 2.518638 1_545
Br2 Fe1 2.598470 1_555
Br2 Li2 2.728418 1_555
Br2 Li1 2.728418 1_556
Br3 Li0 2.594194 1_555
Br3 Fe0 2.671303 1_566
Br3 Fe1 2.671303 1_555
Br3 Li2 2.723495 1_555
Br4 Li3 2.594194 1_555
Br4 Fe1 2.671303 1_555
Br4 Fe0 2.671303 1_555
Br4 Li2 2.723495 1_655
Br5 Li3 2.518638 1_565
Br5 Fe1 2.598470 1_555
Br5 Li1 2.728418 1_555
Br5 Li2 2.728418 1_655
Br6 Li3 2.594194 1_454
Br6 Fe1 2.671303 1_555
Br6 Fe0 2.671303 1_555
Br6 Li1 2.723495 1_555
Br7 Li3 2.518638 1_554
Br7 Fe0 2.598470 1_555
Br7 Li1 2.728418 1_555
Br7 Li2 2.728418 1_655
