# generated using pymatgen
data_In6Ga2PdO8
_symmetry_space_group_name_H-M   'P 1'
_cell_length_a   7.09111008
_cell_length_b   7.09111083
_cell_length_c   7.09111002
_cell_angle_alpha   59.99999929
_cell_angle_beta   59.99999580
_cell_angle_gamma   60.00000329
_symmetry_Int_Tables_number   1
_chemical_formula_structural   In6Ga2PdO8
_chemical_formula_sum   'In6 Ga2 Pd1 O8'
_cell_volume   252.13185639
_cell_formula_units_Z   1
loop_
 _symmetry_equiv_pos_site_id
 _symmetry_equiv_pos_as_xyz
  1  'x, y, z'
loop_
 _atom_site_type_symbol
 _atom_site_label
 _atom_site_symmetry_multiplicity
 _atom_site_fract_x
 _atom_site_fract_y
 _atom_site_fract_z
 _atom_site_occupancy
  In  In0  1  0.74774067  0.74774067  0.25225933  1
  In  In1  1  0.74774067  0.25225933  0.74774067  1
  In  In2  1  0.25225933  0.74774067  0.25225933  1
  In  In3  1  0.74774067  0.25225933  0.25225933  1
  In  In4  1  0.25225933  0.74774067  0.74774067  1
  In  In5  1  0.25225933  0.25225933  0.74774067  1
  Ga  Ga0  1  0.25000000  0.25000000  0.25000000  1
  Ga  Ga1  1  0.75000000  0.75000000  0.75000000  1
  Pd  Pd0  1  0.00000000  0.00000000  0.00000000  1
  O  O0  1  0.35889337  0.92332089  0.35889337  1
  O  O1  1  0.64110663  0.64110663  0.07667911  1
  O  O2  1  0.64110663  0.64110663  0.64110663  1
  O  O3  1  0.07667911  0.64110663  0.64110663  1
  O  O4  1  0.35889337  0.35889337  0.35889337  1
  O  O5  1  0.92332089  0.35889337  0.35889337  1
  O  O6  1  0.35889337  0.35889337  0.92332089  1
  O  O7  1  0.64110663  0.07667911  0.64110663  1
loop_
_geom_bond_atom_site_label_1
_geom_bond_atom_site_label_2
_geom_bond_distance
_geom_bond_site_symmetry_2
In0 O2 2.269000 1_555
In0 O0 2.269000 1_555
In0 O5 2.269001 1_555
In0 O1 2.269006 1_555
In0 Pd0 2.529743 1_665
In1 O2 2.269000 1_555
In1 O5 2.269000 1_555
In1 O6 2.269000 1_555
In1 O7 2.269006 1_555
In1 Pd0 2.529744 1_656
In2 O4 2.269000 1_555
In2 O3 2.269000 1_555
In2 O1 2.269000 1_555
In2 O0 2.269006 1_555
In2 Pd0 2.529744 1_565
In3 O4 2.269000 1_555
In3 O7 2.269000 1_555
In3 O1 2.269001 1_555
In3 O5 2.269006 1_555
In3 Pd0 2.529744 1_655
In4 O2 2.269000 1_555
In4 O0 2.269000 1_555
In4 O6 2.269001 1_555
In4 O3 2.269006 1_555
In4 Pd0 2.529744 1_566
In5 O4 2.269000 1_555
In5 O7 2.269000 1_555
In5 O3 2.269001 1_555
In5 O6 2.269006 1_555
In5 Pd0 2.529743 1_556
Ga0 O6 1.891429 1_554
Ga0 O5 1.891429 1_455
Ga0 O0 1.891429 1_545
Ga0 O4 1.891434 1_555
Ga1 O1 1.891429 1_556
Ga1 O3 1.891429 1_655
Ga1 O7 1.891429 1_565
Ga1 O2 1.891434 1_555
