# generated using pymatgen
data_Lu6BiO11F
_symmetry_space_group_name_H-M   'P 1'
_cell_length_a   6.34701329
_cell_length_b   6.35212611
_cell_length_c   6.37526990
_cell_angle_alpha   99.29518521
_cell_angle_beta   99.33243156
_cell_angle_gamma   99.16859904
_symmetry_Int_Tables_number   1
_chemical_formula_structural   Lu6BiO11F
_chemical_formula_sum   'Lu6 Bi1 O11 F1'
_cell_volume   245.71473793
_cell_formula_units_Z   1
loop_
 _symmetry_equiv_pos_site_id
 _symmetry_equiv_pos_as_xyz
  1  'x, y, z'
loop_
 _atom_site_type_symbol
 _atom_site_label
 _atom_site_symmetry_multiplicity
 _atom_site_fract_x
 _atom_site_fract_y
 _atom_site_fract_z
 _atom_site_occupancy
  Lu  Lu0  1  0.40177336  0.69575468  0.87020931  1
  Lu  Lu1  1  0.84104120  0.39304966  0.68748204  1
  Lu  Lu2  1  0.68490264  0.85606215  0.39506346  1
  Lu  Lu3  1  0.60700357  0.31811169  0.14808891  1
  Lu  Lu4  1  0.13689094  0.61817261  0.29654026  1
  Lu  Lu5  1  0.31889892  0.12691055  0.60952521  1
  Bi  Bi0  1  0.00257225  0.00381848  0.99737281  1
  O  O0  1  0.58123030  0.17554860  0.42852937  1
  O  O1  1  0.42875536  0.58503270  0.18163743  1
  O  O2  1  0.83024410  0.57504223  0.42335235  1
  O  O3  1  0.40928136  0.81283096  0.57348389  1
  O  O4  1  0.56095802  0.41515111  0.81793099  1
  O  O5  1  0.92855481  0.06163857  0.68026155  1
  O  O6  1  0.94304820  0.32039146  0.07773434  1
  O  O7  1  0.32403297  0.07377235  0.94990669  1
  O  O8  1  0.08369428  0.95391289  0.31571683  1
  O  O9  1  0.05574100  0.67919937  0.92078244  1
  O  O10  1  0.68679431  0.91732246  0.05507097  1
  F  F0  1  0.17458341  0.41827747  0.57130917  1
loop_
_geom_bond_atom_site_label_1
_geom_bond_atom_site_label_2
_geom_bond_distance
_geom_bond_site_symmetry_2
Lu0 O10 2.145629 1_556
Lu0 O3 2.146227 1_555
Lu0 O4 2.190923 1_555
Lu0 O1 2.201172 1_556
Lu0 O9 2.259564 1_555
Lu0 O7 2.516390 1_565
Lu1 O4 2.095910 1_555
Lu1 O2 2.189362 1_555
Lu1 O0 2.237798 1_555
Lu1 O9 2.247893 1_655
Lu1 O5 2.256544 1_555
Lu1 O6 2.601134 1_556
Lu2 O2 2.155181 1_555
Lu2 O0 2.219967 1_565
Lu2 O3 2.241149 1_555
Lu2 O5 2.253929 1_565
Lu2 O1 2.256614 1_555
Lu2 O10 2.264783 1_555
Lu2 O8 2.657883 1_655
Lu3 O0 2.148030 1_555
Lu3 O1 2.184739 1_555
Lu3 O7 2.230063 1_554
Lu3 O6 2.247907 1_555
Lu3 O4 2.274373 1_554
Lu3 O2 2.298315 1_555
Lu3 O10 2.666484 1_545
Lu4 O1 2.127704 1_555
Lu4 O8 2.199054 1_555
Lu4 O6 2.210628 1_455
Lu4 O2 2.220061 1_455
Lu4 O3 2.293188 1_555
Lu4 O9 2.473399 1_554
Lu5 O3 2.149787 1_545
Lu5 O0 2.184850 1_555
Lu5 O8 2.202291 1_545
Lu5 O7 2.245259 1_555
Lu5 O4 2.265765 1_555
Lu5 O5 2.570755 1_455
Bi0 O8 2.098935 1_546
Bi0 O7 2.099207 1_555
Bi0 O10 2.099441 1_446
Bi0 O6 2.102629 1_456
Bi0 O5 2.104654 1_455
Bi0 O9 2.134052 1_545
F0 Lu5 2.222018 1_555
F0 Lu4 2.327550 1_555
F0 Lu1 2.344064 1_455
F0 Lu0 2.455813 1_555
