# generated using pymatgen
data_K3Rb2SiSb3
_symmetry_space_group_name_H-M   'P 1'
_cell_length_a   5.58155216
_cell_length_b   15.61260309
_cell_length_c   16.76889096
_cell_angle_alpha   90.00000000
_cell_angle_beta   90.00000000
_cell_angle_gamma   90.00000000
_symmetry_Int_Tables_number   1
_chemical_formula_structural   K3Rb2SiSb3
_chemical_formula_sum   'K12 Rb8 Si4 Sb12'
_cell_volume   1461.28406206
_cell_formula_units_Z   4
loop_
 _symmetry_equiv_pos_site_id
 _symmetry_equiv_pos_as_xyz
  1  'x, y, z'
loop_
 _atom_site_type_symbol
 _atom_site_label
 _atom_site_symmetry_multiplicity
 _atom_site_fract_x
 _atom_site_fract_y
 _atom_site_fract_z
 _atom_site_occupancy
  K  K0  1  0.25000000  0.42394683  0.57073668  1
  K  K1  1  0.75000000  0.57605317  0.42926332  1
  K  K2  1  0.75000000  0.92394683  0.92926332  1
  K  K3  1  0.25000000  0.07605317  0.07073668  1
  K  K4  1  0.25000000  0.82256871  0.08438035  1
  K  K5  1  0.75000000  0.17743129  0.91561965  1
  K  K6  1  0.75000000  0.32256871  0.41561965  1
  K  K7  1  0.25000000  0.67743129  0.58438035  1
  K  K8  1  0.25000000  0.22876621  0.26441264  1
  K  K9  1  0.75000000  0.77123379  0.73558736  1
  K  K10  1  0.75000000  0.72876621  0.23558736  1
  K  K11  1  0.25000000  0.27123379  0.76441264  1
  Rb  Rb0  1  0.25000000  0.94983302  0.29944760  1
  Rb  Rb1  1  0.75000000  0.05016698  0.70055240  1
  Rb  Rb2  1  0.75000000  0.44983302  0.20055240  1
  Rb  Rb3  1  0.25000000  0.55016698  0.79944760  1
  Rb  Rb4  1  0.25000000  0.13044152  0.52257992  1
  Rb  Rb5  1  0.75000000  0.86955848  0.47742008  1
  Rb  Rb6  1  0.75000000  0.63044152  0.97742008  1
  Rb  Rb7  1  0.25000000  0.36955848  0.02257992  1
  Si  Si0  1  0.25000000  0.58893318  0.28715791  1
  Si  Si1  1  0.75000000  0.41106682  0.71284209  1
  Si  Si2  1  0.75000000  0.08893318  0.21284209  1
  Si  Si3  1  0.25000000  0.91106682  0.78715791  1
  Sb  Sb0  1  0.25000000  0.60054285  0.13644576  1
  Sb  Sb1  1  0.75000000  0.39945715  0.86355424  1
  Sb  Sb2  1  0.75000000  0.10054285  0.36355424  1
  Sb  Sb3  1  0.25000000  0.89945715  0.63644576  1
  Sb  Sb4  1  0.25000000  0.44409372  0.35340966  1
  Sb  Sb5  1  0.75000000  0.55590628  0.64659034  1
  Sb  Sb6  1  0.75000000  0.94409372  0.14659034  1
  Sb  Sb7  1  0.25000000  0.05590628  0.85340966  1
  Sb  Sb8  1  0.25000000  0.72123989  0.37445656  1
  Sb  Sb9  1  0.75000000  0.27876011  0.62554344  1
  Sb  Sb10  1  0.75000000  0.22123989  0.12554344  1
  Sb  Sb11  1  0.25000000  0.77876011  0.87445656  1
loop_
_geom_bond_atom_site_label_1
_geom_bond_atom_site_label_2
_geom_bond_distance
_geom_bond_site_symmetry_2
K0 Sb4 3.657882 1_555
K0 Si1 3.675231 1_555
K0 Si1 3.675231 1_455
K0 Sb5 3.694715 1_455
K0 Sb5 3.694715 1_555
K0 Sb9 3.710957 1_455
K0 Sb9 3.710957 1_555
K1 Sb5 3.657882 1_555
K1 Si0 3.675231 1_555
K1 Si0 3.675231 1_655
K1 Sb4 3.694715 1_655
K1 Sb4 3.694715 1_555
K1 Sb8 3.710957 1_555
K1 Sb8 3.710957 1_655
K2 Sb6 3.657882 1_556
K2 Si3 3.675231 1_555
K2 Si3 3.675231 1_655
K2 Sb7 3.694715 1_665
K2 Sb7 3.694715 1_565
K2 Sb11 3.710957 1_555
K2 Sb11 3.710957 1_655
K3 Sb7 3.657882 1_554
K3 Si2 3.675231 1_555
K3 Si2 3.675231 1_455
K3 Sb6 3.694715 1_545
K3 Sb6 3.694715 1_445
K3 Sb10 3.710957 1_455
K3 Sb10 3.710957 1_555
K4 Sb6 3.532211 1_455
K4 Sb6 3.532211 1_555
K4 Sb0 3.574662 1_555
K4 Sb11 3.586020 1_554
K5 Sb7 3.532211 1_655
K5 Sb7 3.532211 1_555
K5 Sb1 3.574662 1_555
K5 Sb10 3.586020 1_556
K6 Sb4 3.532211 1_655
K6 Sb4 3.532211 1_555
K6 Sb2 3.574662 1_555
K6 Sb9 3.586020 1_555
K7 Sb5 3.532211 1_555
K7 Sb5 3.532211 1_455
K7 Sb3 3.574662 1_555
K7 Sb8 3.586020 1_555
K8 Sb10 3.636619 1_455
K8 Sb10 3.636619 1_555
K8 Si2 3.647253 1_455
K8 Si2 3.647253 1_555
K8 Sb4 3.678186 1_555
K8 Sb2 3.815747 1_455
K8 Sb2 3.815747 1_555
K9 Sb11 3.636619 1_655
K9 Sb11 3.636619 1_555
K9 Si3 3.647253 1_555
K9 Si3 3.647253 1_655
K9 Sb5 3.678186 1_555
K9 Sb3 3.815747 1_555
K9 Sb3 3.815747 1_655
K10 Sb8 3.636619 1_555
K10 Sb8 3.636619 1_655
K10 Si0 3.647253 1_655
K10 Si0 3.647253 1_555
K10 Sb6 3.678186 1_555
K10 Sb0 3.815747 1_555
K10 Sb0 3.815747 1_655
K11 Sb9 3.636619 1_555
K11 Sb9 3.636619 1_455
K11 Si1 3.647253 1_555
K11 Si1 3.647253 1_455
K11 Sb7 3.678186 1_555
K11 Sb1 3.815747 1_555
K11 Sb1 3.815747 1_455
Rb0 Sb8 3.784097 1_555
Rb0 Sb6 3.790342 1_455
Rb0 Sb6 3.790342 1_555
Rb0 Sb2 3.805329 1_465
Rb0 Sb2 3.805329 1_565
Rb0 Si2 3.822812 1_565
Rb0 Si2 3.822812 1_465
Rb1 Sb9 3.784097 1_555
Rb1 Sb7 3.790342 1_555
Rb1 Sb7 3.790342 1_655
Rb1 Sb3 3.805329 1_645
Rb1 Sb3 3.805329 1_545
Rb1 Si3 3.822812 1_645
Rb1 Si3 3.822812 1_545
Rb2 Sb10 3.784097 1_555
Rb2 Sb4 3.790342 1_555
Rb2 Sb4 3.790342 1_655
Rb2 Sb0 3.805329 1_555
Rb2 Sb0 3.805329 1_655
Rb2 Si0 3.822812 1_655
Rb2 Si0 3.822812 1_555
Rb3 Sb11 3.784097 1_555
Rb3 Sb5 3.790342 1_555
Rb3 Sb5 3.790342 1_455
Rb3 Sb1 3.805329 1_455
Rb3 Sb1 3.805329 1_555
Rb3 Si1 3.822812 1_455
Rb3 Si1 3.822812 1_555
Rb4 Sb2 3.888128 1_455
Rb4 Sb2 3.888128 1_555
Rb4 Sb9 4.016430 1_555
Rb4 Sb9 4.016430 1_455
Rb4 Sb3 4.080562 1_545
Rb5 Sb3 3.888128 1_655
Rb5 Sb3 3.888128 1_555
Rb5 Sb8 4.016430 1_555
Rb5 Sb8 4.016430 1_655
Rb5 Sb2 4.080562 1_565
Rb6 Sb0 3.888128 1_556
Rb6 Sb0 3.888128 1_656
Rb6 Sb11 4.016430 1_555
Rb6 Sb11 4.016430 1_655
Rb6 Sb1 4.080562 1_555
Rb7 Sb1 3.888128 1_554
Rb7 Sb1 3.888128 1_454
Rb7 Sb10 4.016430 1_455
Rb7 Sb10 4.016430 1_555
Rb7 Sb0 4.080562 1_555
Sb0 Si0 2.533767 1_555
Sb1 Si1 2.533767 1_555
Sb2 Si2 2.533767 1_555
Sb3 Si3 2.533767 1_555
Sb4 Si0 2.519489 1_555
Sb5 Si1 2.519489 1_555
Sb6 Si2 2.519489 1_565
Sb7 Si3 2.519489 1_545
Sb8 Si0 2.531783 1_555
Sb9 Si1 2.531783 1_555
Sb10 Si2 2.531783 1_555
Sb11 Si3 2.531783 1_555
