# generated using pymatgen
data_SrSnAu
_symmetry_space_group_name_H-M   'P 1'
_cell_length_a   4.85103975
_cell_length_b   8.31593231
_cell_length_c   23.68418931
_cell_angle_alpha   90.00000000
_cell_angle_beta   90.00000000
_cell_angle_gamma   90.00000000
_symmetry_Int_Tables_number   1
_chemical_formula_structural   SrSnAu
_chemical_formula_sum   'Sr12 Sn12 Au12'
_cell_volume   955.44194345
_cell_formula_units_Z   12
loop_
 _symmetry_equiv_pos_site_id
 _symmetry_equiv_pos_as_xyz
  1  'x, y, z'
loop_
 _atom_site_type_symbol
 _atom_site_label
 _atom_site_symmetry_multiplicity
 _atom_site_fract_x
 _atom_site_fract_y
 _atom_site_fract_z
 _atom_site_occupancy
  Sr  Sr0  1  0.75000000  0.21235614  0.49761289  1
  Sr  Sr1  1  0.25000000  0.79267992  0.16596470  1
  Sr  Sr2  1  0.25000000  0.78764386  0.50238711  1
  Sr  Sr3  1  0.25000000  0.79380565  0.83349843  1
  Sr  Sr4  1  0.25000000  0.70619435  0.33349843  1
  Sr  Sr5  1  0.75000000  0.20732008  0.83403530  1
  Sr  Sr6  1  0.75000000  0.28764386  0.99761289  1
  Sr  Sr7  1  0.75000000  0.29380565  0.66650157  1
  Sr  Sr8  1  0.75000000  0.29267992  0.33403530  1
  Sr  Sr9  1  0.25000000  0.70732008  0.66596470  1
  Sr  Sr10  1  0.25000000  0.71235614  0.00238711  1
  Sr  Sr11  1  0.75000000  0.20619435  0.16650157  1
  Sn  Sn0  1  0.25000000  0.41205292  0.56570440  1
  Sn  Sn1  1  0.25000000  0.08331268  0.39790048  1
  Sn  Sn2  1  0.25000000  0.08794708  0.06570440  1
  Sn  Sn3  1  0.25000000  0.41668732  0.89790048  1
  Sn  Sn4  1  0.75000000  0.58331268  0.10209952  1
  Sn  Sn5  1  0.25000000  0.41779922  0.76920164  1
  Sn  Sn6  1  0.75000000  0.58220078  0.23079836  1
  Sn  Sn7  1  0.75000000  0.58794708  0.43429560  1
  Sn  Sn8  1  0.75000000  0.91205292  0.93429560  1
  Sn  Sn9  1  0.25000000  0.08220078  0.26920164  1
  Sn  Sn10  1  0.75000000  0.91668732  0.60209952  1
  Sn  Sn11  1  0.75000000  0.91779922  0.73079836  1
  Au  Au0  1  0.25000000  0.08624043  0.59318163  1
  Au  Au1  1  0.25000000  0.08652765  0.73999040  1
  Au  Au2  1  0.75000000  0.58624043  0.90681837  1
  Au  Au3  1  0.75000000  0.91375957  0.40681837  1
  Au  Au4  1  0.75000000  0.58464239  0.56668991  1
  Au  Au5  1  0.75000000  0.58652765  0.76000960  1
  Au  Au6  1  0.25000000  0.41535761  0.43331009  1
  Au  Au7  1  0.25000000  0.41347235  0.23999040  1
  Au  Au8  1  0.75000000  0.91535761  0.06668991  1
  Au  Au9  1  0.25000000  0.41375957  0.09318163  1
  Au  Au10  1  0.25000000  0.08464239  0.93331009  1
  Au  Au11  1  0.75000000  0.91347235  0.26000960  1
loop_
_geom_bond_atom_site_label_1
_geom_bond_atom_site_label_2
_geom_bond_distance
_geom_bond_site_symmetry_2
Sn0 Sr0 3.352869 1_555
Sn0 Sr0 3.352869 1_455
Sn0 Sr9 3.415808 1_555
Sn0 Sr2 3.464739 1_555
Sn0 Sr7 3.542498 1_555
Sn0 Sr7 3.542498 1_455
Sn1 Sn9 3.048142 1_555
Sn1 Sr8 3.347008 1_455
Sn1 Sr8 3.347008 1_555
Sn1 Sr4 3.487354 1_545
Sn1 Sr2 3.488489 1_545
Sn1 Sr0 3.551326 1_555
Sn1 Sr0 3.551326 1_455
Sn2 Sr6 3.352869 1_454
Sn2 Sr6 3.352869 1_554
Sn2 Sr1 3.415808 1_545
Sn2 Sr10 3.464739 1_545
Sn2 Sr11 3.542498 1_555
Sn2 Sr11 3.542498 1_455
Sn3 Sn5 3.048142 1_555
Sn3 Sr5 3.347008 1_455
Sn3 Sr5 3.347008 1_555
Sn3 Sr3 3.487354 1_555
Sn3 Sr10 3.488489 1_556
Sn3 Sr6 3.551326 1_555
Sn3 Sr6 3.551326 1_455
Sn4 Sn6 3.048142 1_555
Sn4 Sr1 3.347008 1_655
Sn4 Sr1 3.347008 1_555
Sn4 Sr11 3.487354 1_555
Sn4 Sr6 3.488489 1_554
Sn4 Sr10 3.551326 1_655
Sn4 Sr10 3.551326 1_555
Sn5 Sr5 3.362241 1_555
Sn5 Sr5 3.362241 1_455
Sn5 Sr9 3.431493 1_555
Sn5 Sr3 3.477949 1_555
Sn5 Sr7 3.586471 1_455
Sn5 Sr7 3.586471 1_555
Sn6 Sr1 3.362241 1_655
Sn6 Sr1 3.362241 1_555
Sn6 Sr8 3.431493 1_555
Sn6 Sr11 3.477949 1_555
Sn6 Sr4 3.586471 1_555
Sn6 Sr4 3.586471 1_655
Sn7 Sr2 3.352869 1_655
Sn7 Sr2 3.352869 1_555
Sn7 Sr8 3.415808 1_555
Sn7 Sr0 3.464739 1_555
Sn7 Sr4 3.542498 1_555
Sn7 Sr4 3.542498 1_655
Sn8 Sr10 3.352869 1_556
Sn8 Sr10 3.352869 1_656
Sn8 Sr5 3.415808 1_565
Sn8 Sr6 3.464739 1_565
Sn8 Sr3 3.542498 1_655
Sn8 Sr3 3.542498 1_555
Sn9 Sr8 3.362241 1_455
Sn9 Sr8 3.362241 1_555
Sn9 Sr1 3.431493 1_545
Sn9 Sr4 3.477949 1_545
Sn9 Sr11 3.586471 1_455
Sn9 Sr11 3.586471 1_555
Sn10 Sn11 3.048142 1_555
Sn10 Sr9 3.347008 1_655
Sn10 Sr9 3.347008 1_555
Sn10 Sr7 3.487354 1_565
Sn10 Sr0 3.488489 1_565
Sn10 Sr2 3.551326 1_555
Sn10 Sr2 3.551326 1_655
Sn11 Sr9 3.362241 1_555
Sn11 Sr9 3.362241 1_655
Sn11 Sr5 3.431493 1_565
Sn11 Sr7 3.477949 1_565
Sn11 Sr3 3.586471 1_555
Sn11 Sr3 3.586471 1_655
Au0 Sn0 2.786493 1_555
Au0 Sn10 2.813509 1_445
Au0 Sn10 2.813509 1_545
Au0 Sr2 3.284818 1_545
Au0 Sr7 3.446458 1_455
Au0 Sr7 3.446458 1_555
Au0 Sr0 3.479418 1_555
Au0 Sr0 3.479418 1_455
Au0 Sr9 3.591768 1_545
Au1 Sn11 2.810574 1_545
Au1 Sn11 2.810574 1_445
Au1 Sn5 2.840378 1_555
Au1 Sr3 3.290947 1_545
Au1 Sr5 3.442874 1_455
Au1 Sr5 3.442874 1_555
Au1 Sr7 3.447281 1_455
Au1 Sr7 3.447281 1_555
Au1 Sr9 3.608072 1_545
Au2 Sn8 2.786493 1_555
Au2 Sn3 2.813509 1_655
Au2 Sn3 2.813509 1_555
Au2 Sr6 3.284818 1_555
Au2 Sr3 3.446458 1_555
Au2 Sr3 3.446458 1_655
Au2 Sr10 3.479418 1_556
Au2 Sr10 3.479418 1_656
Au2 Sr5 3.591768 1_555
Au3 Sn7 2.786493 1_555
Au3 Sn1 2.813509 1_565
Au3 Sn1 2.813509 1_665
Au3 Sr0 3.284818 1_565
Au3 Sr4 3.446458 1_555
Au3 Sr4 3.446458 1_655
Au3 Sr2 3.479418 1_555
Au3 Sr2 3.479418 1_655
Au3 Sr8 3.591768 1_565
Au4 Sn0 2.818441 1_655
Au4 Sn0 2.818441 1_555
Au4 Sn10 2.885811 1_555
Au4 Sn7 3.135772 1_555
Au4 Sr2 3.324514 1_555
Au4 Sr2 3.324514 1_655
Au4 Sr7 3.381985 1_555
Au4 Sr0 3.501606 1_555
Au4 Sr9 3.528775 1_555
Au4 Sr9 3.528775 1_655
Au5 Sn5 2.810574 1_555
Au5 Sn5 2.810574 1_655
Au5 Sn11 2.840378 1_555
Au5 Sr7 3.290947 1_555
Au5 Sr9 3.442874 1_555
Au5 Sr9 3.442874 1_655
Au5 Sr3 3.447281 1_655
Au5 Sr3 3.447281 1_555
Au5 Sr5 3.608072 1_555
Au6 Sn7 2.818441 1_455
Au6 Sn7 2.818441 1_555
Au6 Sn1 2.885811 1_555
Au6 Sn0 3.135772 1_555
Au6 Sr0 3.324514 1_455
Au6 Sr0 3.324514 1_555
Au6 Sr4 3.381985 1_555
Au6 Sr2 3.501606 1_555
Au6 Sr8 3.528775 1_455
Au6 Sr8 3.528775 1_555
Au7 Sn6 2.810574 1_455
Au7 Sn6 2.810574 1_555
Au7 Sn9 2.840378 1_555
Au7 Sr4 3.290947 1_555
Au7 Sr8 3.442874 1_555
Au7 Sr8 3.442874 1_455
Au7 Sr11 3.447281 1_555
Au7 Sr11 3.447281 1_455
Au7 Sr1 3.608072 1_555
Au8 Sn2 2.818441 1_665
Au8 Sn2 2.818441 1_565
Au8 Sn4 2.885811 1_555
Au8 Sn8 3.135772 1_554
Au8 Sr10 3.324514 1_655
Au8 Sr10 3.324514 1_555
Au8 Sr11 3.381985 1_565
Au8 Sr6 3.501606 1_564
Au8 Sr1 3.528775 1_655
Au8 Sr1 3.528775 1_555
Au9 Sn2 2.786493 1_555
Au9 Sn4 2.813509 1_555
Au9 Sn4 2.813509 1_455
Au9 Sr10 3.284818 1_555
Au9 Sr11 3.446458 1_555
Au9 Sr11 3.446458 1_455
Au9 Sr6 3.479418 1_454
Au9 Sr6 3.479418 1_554
Au9 Sr1 3.591768 1_555
Au10 Sn8 2.818441 1_545
Au10 Sn8 2.818441 1_445
Au10 Sn3 2.885811 1_555
Au10 Sn2 3.135772 1_556
Au10 Sr6 3.324514 1_555
Au10 Sr6 3.324514 1_455
Au10 Sr3 3.381985 1_545
Au10 Sr10 3.501606 1_546
Au10 Sr5 3.528775 1_455
Au10 Sr5 3.528775 1_555
Au11 Sn9 2.810574 1_565
Au11 Sn9 2.810574 1_665
Au11 Sn6 2.840378 1_555
Au11 Sr11 3.290947 1_565
Au11 Sr1 3.442874 1_555
Au11 Sr1 3.442874 1_655
Au11 Sr4 3.447281 1_655
Au11 Sr4 3.447281 1_555
Au11 Sr8 3.608072 1_565
