# generated using pymatgen
data_Na2CuF4
_symmetry_space_group_name_H-M   'P 1'
_cell_length_a   3.25077648
_cell_length_b   5.55942897
_cell_length_c   9.17075519
_cell_angle_alpha   90.00000000
_cell_angle_beta   90.00000000
_cell_angle_gamma   92.04682510
_symmetry_Int_Tables_number   1
_chemical_formula_structural   Na2CuF4
_chemical_formula_sum   'Na4 Cu2 F8'
_cell_volume   165.63236930
_cell_formula_units_Z   2
loop_
 _symmetry_equiv_pos_site_id
 _symmetry_equiv_pos_as_xyz
  1  'x, y, z'
loop_
 _atom_site_type_symbol
 _atom_site_label
 _atom_site_symmetry_multiplicity
 _atom_site_fract_x
 _atom_site_fract_y
 _atom_site_fract_z
 _atom_site_occupancy
  Na  Na0  1  0.48389682  0.58279307  0.81829467  1
  Na  Na1  1  0.51610318  0.91720693  0.31829467  1
  Na  Na2  1  0.48389682  0.08279307  0.68170533  1
  Na  Na3  1  0.51610318  0.41720693  0.18170533  1
  Cu  Cu0  1  -0.00000000  0.00000000  0.00000000  1
  Cu  Cu1  1  -0.00000000  0.50000000  0.50000000  1
  F  F0  1  0.98821970  0.37472338  0.69276009  1
  F  F1  1  0.01178030  0.12527662  0.19276009  1
  F  F2  1  0.01178030  0.62527662  0.30723991  1
  F  F3  1  0.98821970  0.87472338  0.80723991  1
  F  F4  1  0.42614123  0.23676862  0.94993223  1
  F  F5  1  0.57385877  0.26323138  0.44993223  1
  F  F6  1  0.42614123  0.73676862  0.55006777  1
  F  F7  1  0.57385877  0.76323138  0.05006777  1
loop_
_geom_bond_atom_site_label_1
_geom_bond_atom_site_label_2
_geom_bond_distance
_geom_bond_site_symmetry_2
Cu0 F3 1.899891 1_444
Cu0 F1 1.899891 1_555
Cu0 F4 1.931901 1_554
Cu0 F7 1.931901 1_445
Cu0 F7 2.366202 1_545
Cu0 F4 2.366202 1_454
Cu1 F2 1.899891 1_555
Cu1 F0 1.899891 1_455
Cu1 F6 1.931901 1_555
Cu1 F5 1.931901 1_455
Cu1 F5 2.366202 1_555
Cu1 F6 2.366202 1_455
F0 Na0 2.264221 1_655
F0 Na2 2.267597 1_555
F0 Na2 2.329700 1_655
F0 Na0 2.342364 1_555
F1 Na1 2.264221 1_445
F1 Na3 2.267597 1_555
F1 Na3 2.329700 1_455
F1 Na1 2.342364 1_545
F2 Na3 2.264221 1_455
F2 Na1 2.267597 1_555
F2 Na1 2.329700 1_455
F2 Na3 2.342364 1_555
F3 Na2 2.264221 1_665
F3 Na0 2.267597 1_555
F3 Na0 2.329700 1_655
F3 Na2 2.342364 1_565
F4 Na0 2.273200 1_555
F4 Na3 2.364052 1_556
F4 Na2 2.613489 1_555
F5 Na1 2.273200 1_545
F5 Na2 2.364052 1_555
F5 Na3 2.613489 1_555
F6 Na2 2.273200 1_565
F6 Na1 2.364052 1_555
F6 Na0 2.613489 1_555
F7 Na3 2.273200 1_555
F7 Na0 2.364052 1_554
F7 Na1 2.613489 1_555
