# generated using pymatgen
data_Lu8Si12Rh3Au
_symmetry_space_group_name_H-M   'P 1'
_cell_length_a   8.07445749
_cell_length_b   8.07445763
_cell_length_c   7.68030068
_cell_angle_alpha   90.00000000
_cell_angle_beta   90.00000000
_cell_angle_gamma   119.99999941
_symmetry_Int_Tables_number   1
_chemical_formula_structural   Lu8Si12Rh3Au
_chemical_formula_sum   'Lu8 Si12 Rh3 Au1'
_cell_volume   433.64622408
_cell_formula_units_Z   1
loop_
 _symmetry_equiv_pos_site_id
 _symmetry_equiv_pos_as_xyz
  1  'x, y, z'
loop_
 _atom_site_type_symbol
 _atom_site_label
 _atom_site_symmetry_multiplicity
 _atom_site_fract_x
 _atom_site_fract_y
 _atom_site_fract_z
 _atom_site_occupancy
  Lu  Lu0  1  0.00000000  0.00000000  0.25061536  1
  Lu  Lu1  1  0.00000000  0.00000000  0.75353783  1
  Lu  Lu2  1  0.51408785  0.48591215  0.24447216  1
  Lu  Lu3  1  0.51408785  0.02817571  0.24447216  1
  Lu  Lu4  1  0.97182429  0.48591215  0.24447216  1
  Lu  Lu5  1  0.49133810  0.50866190  0.75431581  1
  Lu  Lu6  1  0.49133810  0.98267720  0.75431581  1
  Lu  Lu7  1  0.01732280  0.50866190  0.75431581  1
  Si  Si0  1  0.16130754  0.83869246  0.50316117  1
  Si  Si1  1  0.16130754  0.32261507  0.50316117  1
  Si  Si2  1  0.67738493  0.83869246  0.50316117  1
  Si  Si3  1  0.83104625  0.16895375  0.50028088  1
  Si  Si4  1  0.83104625  0.66209550  0.50028088  1
  Si  Si5  1  0.33790450  0.16895375  0.50028088  1
  Si  Si6  1  0.83369401  0.16630599  0.99598441  1
  Si  Si7  1  0.83369401  0.66739001  0.99598441  1
  Si  Si8  1  0.33260999  0.16630599  0.99598441  1
  Si  Si9  1  0.16712778  0.83287222  0.00413032  1
  Si  Si10  1  0.16712778  0.33425355  0.00413032  1
  Si  Si11  1  0.66574645  0.83287222  0.00413032  1
  Rh  Rh0  1  0.66666700  0.33333300  0.54106143  1
  Rh  Rh1  1  0.66666700  0.33333300  0.96310889  1
  Rh  Rh2  1  0.33333300  0.66666700  0.03278143  1
  Au  Au0  1  0.33333300  0.66666700  0.45186579  1
loop_
_geom_bond_atom_site_label_1
_geom_bond_atom_site_label_2
_geom_bond_distance
_geom_bond_site_symmetry_2
Lu0 Si0 2.975138 1_545
Lu0 Si2 2.975138 1_445
Lu0 Si1 2.975138 1_555
Lu0 Si11 3.007800 1_445
Lu0 Si10 3.007800 1_555
Lu0 Si9 3.007811 1_545
Lu0 Si8 3.038759 1_554
Lu0 Si7 3.038759 1_444
Lu0 Si6 3.038769 1_454
Lu0 Si5 3.043014 1_555
Lu0 Si4 3.043015 1_445
Lu0 Si3 3.043031 1_455
Lu1 Si0 2.964304 1_545
Lu1 Si2 2.964304 1_445
Lu1 Si1 2.964304 1_555
Lu1 Si8 2.979395 1_555
Lu1 Si7 2.979395 1_445
Lu1 Si6 2.979406 1_455
Lu1 Si11 3.027754 1_446
Lu1 Si10 3.027754 1_556
Lu1 Si9 3.027765 1_546
Lu1 Si5 3.060470 1_555
Lu1 Si4 3.060471 1_445
Lu1 Si3 3.060487 1_455
Lu2 Si7 2.944088 1_554
Lu2 Si8 2.944088 1_554
Lu2 Si4 2.965269 1_555
Lu2 Si5 2.965269 1_555
Lu2 Rh2 3.005625 1_555
Lu2 Rh1 3.036964 1_554
Lu2 Si10 3.053645 1_555
Lu2 Si11 3.053645 1_555
Lu2 Rh0 3.121255 1_555
Lu2 Si1 3.169242 1_555
Lu2 Si2 3.169242 1_555
Lu3 Si6 2.944087 1_554
Lu3 Si8 2.944098 1_554
Lu3 Si3 2.965268 1_555
Lu3 Si5 2.965284 1_555
Lu3 Rh2 3.005619 1_545
Lu3 Rh1 3.036959 1_554
Lu3 Si9 3.053646 1_545
Lu3 Si11 3.053656 1_545
Lu3 Rh0 3.121250 1_555
Lu3 Si2 3.169242 1_545
Lu3 Si0 3.169242 1_545
Lu4 Si6 2.944087 1_554
Lu4 Si7 2.944098 1_554
Lu4 Si3 2.965268 1_555
Lu4 Si4 2.965284 1_555
Lu4 Rh2 3.005619 1_655
Lu4 Rh1 3.036959 1_554
Lu4 Si9 3.053646 1_655
Lu4 Si10 3.053656 1_655
Lu4 Rh0 3.121250 1_555
Lu4 Si1 3.169242 1_655
Lu4 Si0 3.169242 1_655
Lu5 Rh1 2.929848 1_555
Lu5 Rh0 2.948742 1_555
Lu5 Si10 2.971672 1_556
Lu5 Si11 2.971672 1_556
Lu5 Si1 3.012574 1_555
Lu5 Si2 3.012574 1_555
Lu5 Si7 3.030898 1_555
Lu5 Si8 3.030898 1_555
Lu5 Rh2 3.075236 1_556
Lu5 Si4 3.076865 1_555
Lu5 Si5 3.076865 1_555
Lu6 Rh1 2.929837 1_565
Lu6 Rh0 2.948730 1_565
Lu6 Si9 2.971671 1_556
Lu6 Si11 2.971688 1_556
Lu6 Si0 3.012573 1_555
Lu6 Si2 3.012579 1_555
Lu6 Si6 3.030898 1_565
Lu6 Si8 3.030903 1_565
Lu6 Rh2 3.075236 1_556
Lu6 Si3 3.076866 1_565
Lu6 Si5 3.076877 1_565
Lu7 Rh1 2.929837 1_455
Lu7 Rh0 2.948730 1_455
Lu7 Si9 2.971671 1_556
Lu7 Si10 2.971688 1_556
Lu7 Si0 3.012573 1_555
Lu7 Si1 3.012579 1_555
Lu7 Si6 3.030898 1_455
Lu7 Si7 3.030903 1_455
Lu7 Rh2 3.075236 1_556
Lu7 Si3 3.076866 1_455
Lu7 Si4 3.076877 1_455
Si0 Si4 2.311374 1_455
Si0 Si5 2.311374 1_565
Si1 Si5 2.311354 1_555
Si1 Si3 2.311375 1_455
Si2 Si4 2.311354 1_555
Si2 Si3 2.311375 1_565
Si7 Si9 2.332458 1_656
Si8 Si9 2.332458 1_546
Si10 Si8 2.332430 1_554
Si10 Si6 2.332458 1_454
Si11 Si7 2.332430 1_554
Si11 Si6 2.332458 1_564
Rh0 Si3 2.320143 1_555
Rh0 Si5 2.320170 1_555
Rh0 Si4 2.320170 1_555
Rh1 Si6 2.349541 1_555
Rh1 Si8 2.349562 1_555
Rh1 Si7 2.349562 1_555
Rh2 Si9 2.334834 1_555
Rh2 Si11 2.334855 1_555
Rh2 Si10 2.334855 1_555
Au0 Si0 2.437883 1_555
Au0 Si2 2.437890 1_555
Au0 Si1 2.437890 1_555
Au0 Lu4 2.987895 1_455
Au0 Lu3 2.987895 1_565
Au0 Lu2 2.987901 1_555
Au0 Lu5 3.206078 1_555
Au0 Lu7 3.206078 1_555
Au0 Lu6 3.206078 1_555
Au0 Rh2 3.218694 1_555
