# generated using pymatgen
data_Y2B4Os3Ru
_symmetry_space_group_name_H-M   'P 1'
_cell_length_a   6.60029431
_cell_length_b   5.91019822
_cell_length_c   5.57366230
_cell_angle_alpha   70.09345207
_cell_angle_beta   57.34567951
_cell_angle_gamma   52.53838946
_symmetry_Int_Tables_number   1
_chemical_formula_structural   Y2B4Os3Ru
_chemical_formula_sum   'Y2 B4 Os3 Ru1'
_cell_volume   145.27936367
_cell_formula_units_Z   1
loop_
 _symmetry_equiv_pos_site_id
 _symmetry_equiv_pos_as_xyz
  1  'x, y, z'
loop_
 _atom_site_type_symbol
 _atom_site_label
 _atom_site_symmetry_multiplicity
 _atom_site_fract_x
 _atom_site_fract_y
 _atom_site_fract_z
 _atom_site_occupancy
  Y  Y0  1  0.99925372  0.99925372  0.00074628  1
  Y  Y1  1  0.25174146  0.25174146  0.24825854  1
  B  B0  1  0.68865073  0.31076937  0.69068904  1
  B  B1  1  0.31076937  0.68865073  0.30989086  1
  B  B2  1  0.94175805  0.55675302  0.94150451  1
  B  B3  1  0.55675302  0.94175805  0.55998242  1
  Os  Os0  1  0.61156534  0.61156534  0.88843466  1
  Os  Os1  1  0.63915918  0.63915918  0.36083982  1
  Os  Os2  1  0.36064156  0.36064256  0.63935744  1
  Ru  Ru0  1  0.88970658  0.88970558  0.61029342  1
loop_
_geom_bond_atom_site_label_1
_geom_bond_atom_site_label_2
_geom_bond_distance
_geom_bond_site_symmetry_2
B0 Ru0 2.062817 1_545
B0 Os0 2.064689 1_555
B0 Os2 2.165756 1_555
B0 Os1 2.168080 1_555
B0 Y0 2.764801 1_546
B0 Y1 2.984952 1_556
B0 Y1 3.022236 1_655
B1 Ru0 2.062811 1_455
B1 Os0 2.064689 1_554
B1 Os2 2.165749 1_555
B1 Os1 2.168073 1_555
B1 Y0 2.764801 1_455
B1 Y1 2.984952 1_555
B1 Y1 3.022236 1_565
B2 Os2 2.056676 1_655
B2 Os1 2.059922 1_556
B2 Os0 2.171097 1_555
B2 Ru0 2.187809 1_555
B2 Y1 2.747436 1_656
B2 Y0 2.997150 1_546
B2 Y0 3.003868 1_556
B3 Os2 2.056681 1_565
B3 Os1 2.059921 1_555
B3 Os0 2.171104 1_555
B3 Ru0 2.187816 1_555
B3 Y1 2.747427 1_565
B3 Y0 2.997153 1_456
B3 Y0 3.003863 1_555
Os0 Y0 2.992854 1_546
Os0 Y0 2.992854 1_456
Os1 Y1 2.993818 1_565
Os1 Y1 2.993821 1_655
Os2 Y1 2.981885 1_555
Os2 Y1 2.981892 1_556
Ru0 Y0 2.984135 1_555
Ru0 Y0 2.984138 1_556
