# generated using pymatgen
data_Y2RuWC3
_symmetry_space_group_name_H-M   'P 1'
_cell_length_a   6.04977795
_cell_length_b   6.04977816
_cell_length_c   5.70344320
_cell_angle_alpha   67.34384757
_cell_angle_beta   67.34384939
_cell_angle_gamma   32.17713626
_symmetry_Int_Tables_number   1
_chemical_formula_structural   Y2RuWC3
_chemical_formula_sum   'Y2 Ru1 W1 C3'
_cell_volume   101.84037686
_cell_formula_units_Z   1
loop_
 _symmetry_equiv_pos_site_id
 _symmetry_equiv_pos_as_xyz
  1  'x, y, z'
loop_
 _atom_site_type_symbol
 _atom_site_label
 _atom_site_symmetry_multiplicity
 _atom_site_fract_x
 _atom_site_fract_y
 _atom_site_fract_z
 _atom_site_occupancy
  Y  Y0  1  0.60868992  0.60868992  0.18331247  1
  Y  Y1  1  0.39196338  0.39196338  0.83114803  1
  Ru  Ru0  1  0.84177571  0.84177571  0.31654193  1
  W  W0  1  0.15903845  0.15903845  0.67537526  1
  C  C0  1  0.75254696  0.75254696  0.72816728  1
  C  C1  1  0.24657881  0.24657881  0.27190658  1
  C  C2  1  0.99940777  0.99940777  0.99354646  1
loop_
_geom_bond_atom_site_label_1
_geom_bond_atom_site_label_2
_geom_bond_distance
_geom_bond_site_symmetry_2
C0 W0 2.084623 1_565
C0 W0 2.084623 1_655
C0 Ru0 2.152909 1_555
C0 Y0 2.460632 1_556
C0 Y1 2.558525 1_655
C0 Y1 2.558526 1_565
C1 Ru0 2.079981 1_545
C1 Ru0 2.079981 1_455
C1 W0 2.110290 1_555
C1 Y1 2.401955 1_554
C1 Y0 2.507054 1_455
C1 Y0 2.507054 1_545
C2 W0 2.009192 1_665
C2 Ru0 2.011255 1_556
C2 Y1 2.481251 1_565
C2 Y1 2.481251 1_655
C2 Y0 2.588208 1_656
C2 Y0 2.588208 1_566
