# generated using pymatgen
data_Ca4AlGeIr4
_symmetry_space_group_name_H-M   'P 1'
_cell_length_a   5.72006871
_cell_length_b   5.72006871
_cell_length_c   7.49576633
_cell_angle_alpha   80.08037716
_cell_angle_beta   80.08036907
_cell_angle_gamma   60.52734579
_symmetry_Int_Tables_number   1
_chemical_formula_structural   Ca4AlGeIr4
_chemical_formula_sum   'Ca4 Al1 Ge1 Ir4'
_cell_volume   209.22711783
_cell_formula_units_Z   1
loop_
 _symmetry_equiv_pos_site_id
 _symmetry_equiv_pos_as_xyz
  1  'x, y, z'
loop_
 _atom_site_type_symbol
 _atom_site_label
 _atom_site_symmetry_multiplicity
 _atom_site_fract_x
 _atom_site_fract_y
 _atom_site_fract_z
 _atom_site_occupancy
  Ca  Ca0  1  0.99107719  0.71863959  0.14093641  1
  Ca  Ca1  1  0.28136041  0.00892281  0.35906359  1
  Ca  Ca2  1  0.01112781  0.28167162  0.85741690  1
  Ca  Ca3  1  0.71832838  0.98887219  0.64258310  1
  Al  Al0  1  0.42014853  0.57985147  0.75000000  1
  Ge  Ge0  1  0.57871243  0.42128757  0.25000000  1
  Ir  Ir0  1  0.49116701  0.78551391  0.99297927  1
  Ir  Ir1  1  0.21448609  0.50883299  0.50702073  1
  Ir  Ir2  1  0.50995277  0.21636163  0.01344971  1
  Ir  Ir3  1  0.78363837  0.49004723  0.48655029  1
loop_
_geom_bond_atom_site_label_1
_geom_bond_atom_site_label_2
_geom_bond_distance
_geom_bond_site_symmetry_2
Ca0 Ir2 2.975117 1_565
Ca0 Ir3 3.021527 1_555
Ca0 Ir1 3.027830 1_655
Ca0 Ir0 3.065388 1_654
Ca0 Ir0 3.069739 1_554
Ca0 Ir2 3.091037 1_655
Ca0 Ge0 3.114744 1_655
Ca1 Ir3 2.975117 1_455
Ca1 Ir2 3.021527 1_555
Ca1 Ir0 3.027829 1_544
Ca1 Ir1 3.065388 1_545
Ca1 Ir1 3.069739 1_555
Ca1 Ir3 3.091037 1_545
Ca1 Ge0 3.114743 1_545
Ca2 Ir0 2.987679 1_545
Ca2 Ir1 3.032949 1_555
Ca2 Ir3 3.069278 1_455
Ca2 Ir2 3.077968 1_456
Ca2 Ir2 3.098262 1_556
Ca2 Ir0 3.117289 1_455
Ca3 Ir1 2.987679 1_655
Ca3 Ir0 3.032949 1_555
Ca3 Ir2 3.069277 1_566
Ca3 Ir3 3.077968 1_565
Ca3 Ir3 3.098262 1_555
Ca3 Ir1 3.117290 1_565
Al0 Ir0 2.515850 1_555
Al0 Ir1 2.515850 1_555
Al0 Ir3 2.523977 1_555
Al0 Ir2 2.523978 1_556
Ge0 Ir2 2.466319 1_555
Ge0 Ir3 2.466319 1_555
Ge0 Ir1 2.495168 1_555
Ge0 Ir0 2.495168 1_554
Ir0 Ir2 2.550549 1_566
Ir1 Ir3 2.550549 1_455
