# generated using pymatgen
data_Zr10CuSn6As
_symmetry_space_group_name_H-M   'P 1'
_cell_length_a   8.67299026
_cell_length_b   8.67299091
_cell_length_c   5.88653924
_cell_angle_alpha   90.00000000
_cell_angle_beta   90.00000000
_cell_angle_gamma   119.99999753
_symmetry_Int_Tables_number   1
_chemical_formula_structural   Zr10CuSn6As
_chemical_formula_sum   'Zr10 Cu1 Sn6 As1'
_cell_volume   383.46738832
_cell_formula_units_Z   1
loop_
 _symmetry_equiv_pos_site_id
 _symmetry_equiv_pos_as_xyz
  1  'x, y, z'
loop_
 _atom_site_type_symbol
 _atom_site_label
 _atom_site_symmetry_multiplicity
 _atom_site_fract_x
 _atom_site_fract_y
 _atom_site_fract_z
 _atom_site_occupancy
  Zr  Zr0  1  0.66666700  0.33333300  0.50000000  1
  Zr  Zr1  1  0.33333300  0.66666700  0.50000000  1
  Zr  Zr2  1  0.33333300  0.66666700  0.00000000  1
  Zr  Zr3  1  0.66666700  0.33333300  0.00000000  1
  Zr  Zr4  1  0.73938174  0.73938174  0.24810087  1
  Zr  Zr5  1  0.26061826  0.00000000  0.24810087  1
  Zr  Zr6  1  0.00000000  0.26061826  0.24810087  1
  Zr  Zr7  1  0.26061826  0.26061826  0.75189913  1
  Zr  Zr8  1  0.73938174  0.00000000  0.75189913  1
  Zr  Zr9  1  1.00000000  0.73938174  0.75189913  1
  Cu  Cu0  1  0.00000000  0.00000000  0.00000000  1
  Sn  Sn0  1  0.39099536  0.39099536  0.24751979  1
  Sn  Sn1  1  0.60900464  0.00000000  0.24751979  1
  Sn  Sn2  1  0.00000000  0.60900464  0.24751979  1
  Sn  Sn3  1  0.60900464  0.60900464  0.75248021  1
  Sn  Sn4  1  0.39099536  0.00000000  0.75248021  1
  Sn  Sn5  1  1.00000000  0.39099536  0.75248021  1
  As  As0  1  0.00000000  0.00000000  0.50000000  1
loop_
_geom_bond_atom_site_label_1
_geom_bond_atom_site_label_2
_geom_bond_distance
_geom_bond_site_symmetry_2
Cu0 Zr5 2.691109 1_555
Cu0 Zr8 2.691109 1_454
Cu0 Zr6 2.691109 1_555
Cu0 Zr7 2.691109 1_554
Cu0 Zr9 2.691109 1_444
Cu0 Zr4 2.691109 1_445
Sn0 Zr6 2.990596 1_555
Sn0 Zr5 2.990596 1_555
Sn0 Zr4 3.021554 1_555
Sn0 Zr3 3.047154 1_555
Sn0 Zr2 3.047154 1_555
Sn0 Zr0 3.061223 1_555
Sn0 Zr1 3.061224 1_555
Sn0 Zr7 3.128956 1_554
Sn0 Zr7 3.177085 1_555
Sn1 Zr6 2.990596 1_655
Sn1 Zr4 2.990596 1_545
Sn1 Zr5 3.021554 1_555
Sn1 Zr3 3.047147 1_555
Sn1 Zr2 3.047149 1_545
Sn1 Zr0 3.061216 1_555
Sn1 Zr1 3.061219 1_545
Sn1 Zr8 3.128956 1_554
Sn1 Zr8 3.177085 1_555
Sn2 Zr4 2.990596 1_455
Sn2 Zr5 2.990596 1_565
Sn2 Zr6 3.021554 1_555
Sn2 Zr2 3.047146 1_555
Sn2 Zr3 3.047149 1_455
Sn2 Zr1 3.061216 1_555
Sn2 Zr0 3.061219 1_455
Sn2 Zr9 3.128956 1_454
Sn2 Zr9 3.177085 1_455
Sn3 Zr9 2.990596 1_555
Sn3 Zr8 2.990596 1_565
Sn3 Zr7 3.021554 1_555
Sn3 Zr2 3.047154 1_556
Sn3 Zr3 3.047154 1_556
Sn3 Zr1 3.061223 1_555
Sn3 Zr0 3.061224 1_555
Sn3 Zr4 3.128956 1_556
Sn3 Zr4 3.177085 1_555
Sn4 Zr7 2.990596 1_555
Sn4 Zr9 2.990596 1_445
Sn4 Zr8 3.021554 1_555
Sn4 Zr2 3.047147 1_546
Sn4 Zr3 3.047149 1_556
Sn4 Zr1 3.061216 1_545
Sn4 Zr0 3.061219 1_555
Sn4 Zr5 3.128956 1_556
Sn4 Zr5 3.177085 1_555
Sn5 Zr7 2.990596 1_655
Sn5 Zr8 2.990596 1_555
Sn5 Zr9 3.021554 1_555
Sn5 Zr3 3.047146 1_556
Sn5 Zr2 3.047149 1_656
Sn5 Zr0 3.061216 1_555
Sn5 Zr1 3.061219 1_655
Sn5 Zr6 3.128956 1_656
Sn5 Zr6 3.177085 1_655
As0 Zr5 2.703308 1_555
As0 Zr8 2.703308 1_455
As0 Zr6 2.703308 1_555
As0 Zr7 2.703308 1_555
As0 Zr9 2.703308 1_445
As0 Zr4 2.703308 1_445
As0 Cu0 2.943270 1_556
As0 Cu0 2.943270 1_555
