# generated using pymatgen
data_Cr2NiSb12Os
_symmetry_space_group_name_H-M   'P 1'
_cell_length_a   8.11006811
_cell_length_b   8.07588093
_cell_length_c   9.40054982
_cell_angle_alpha   54.86902120
_cell_angle_beta   55.29148815
_cell_angle_gamma   70.67681868
_symmetry_Int_Tables_number   1
_chemical_formula_structural   Cr2NiSb12Os
_chemical_formula_sum   'Cr2 Ni1 Sb12 Os1'
_cell_volume   413.93631159
_cell_formula_units_Z   1
loop_
 _symmetry_equiv_pos_site_id
 _symmetry_equiv_pos_as_xyz
  1  'x, y, z'
loop_
 _atom_site_type_symbol
 _atom_site_label
 _atom_site_symmetry_multiplicity
 _atom_site_fract_x
 _atom_site_fract_y
 _atom_site_fract_z
 _atom_site_occupancy
  Cr  Cr0  1  0.00000000  0.50000000  0.00000000  1
  Cr  Cr1  1  0.50000000  0.00000000  0.00000000  1
  Ni  Ni0  1  0.50000000  0.00000000  0.50000000  1
  Sb  Sb0  1  0.15284164  0.15223942  0.19532648  1
  Sb  Sb1  1  0.84715836  0.84776058  0.80467352  1
  Sb  Sb2  1  0.84510015  0.84751079  0.48887566  1
  Sb  Sb3  1  0.15489985  0.15248921  0.51112434  1
  Sb  Sb4  1  0.81221499  0.50766758  0.34410253  1
  Sb  Sb5  1  0.18778501  0.49233242  0.65589747  1
  Sb  Sb6  1  0.50277271  0.81164324  0.35092867  1
  Sb  Sb7  1  0.49722729  0.18835676  0.64907133  1
  Sb  Sb8  1  0.66702316  0.34592642  0.84049481  1
  Sb  Sb9  1  0.33297684  0.65407358  0.15950519  1
  Sb  Sb10  1  0.64896367  0.33301744  0.16235410  1
  Sb  Sb11  1  0.35103633  0.66698256  0.83764590  1
  Os  Os0  1  0.00000000  0.50000000  0.50000000  1
loop_
_geom_bond_atom_site_label_1
_geom_bond_atom_site_label_2
_geom_bond_distance
_geom_bond_site_symmetry_2
Cr0 Sb0 2.673698 1_555
Cr0 Sb1 2.673698 1_454
Cr0 Sb4 2.710128 1_455
Cr0 Sb5 2.710128 1_554
Cr0 Sb11 2.734366 1_554
Cr0 Sb10 2.734366 1_455
Cr1 Sb1 2.688886 1_544
Cr1 Sb0 2.688886 1_555
Cr1 Sb8 2.694077 1_554
Cr1 Sb9 2.694077 1_545
Cr1 Sb7 2.735647 1_554
Cr1 Sb6 2.735647 1_545
Ni0 Sb7 2.583211 1_555
Ni0 Sb6 2.583211 1_545
Ni0 Sb10 2.593458 1_555
Ni0 Sb11 2.593458 1_545
Ni0 Sb2 2.625762 1_545
Ni0 Sb3 2.625762 1_555
Sb0 Sb2 2.882025 1_445
Sb0 Sb3 2.979371 1_555
Sb1 Sb3 2.882025 1_665
Sb1 Sb2 2.979371 1_555
Sb4 Sb6 2.872171 1_555
Sb4 Sb7 2.984220 1_555
Sb5 Sb7 2.872171 1_555
Sb5 Sb6 2.984220 1_555
Sb10 Sb8 2.886057 1_554
Sb10 Sb9 2.981883 1_555
Sb11 Sb9 2.886057 1_556
Sb11 Sb8 2.981883 1_555
Os0 Sb5 2.616452 1_555
Os0 Sb4 2.616452 1_455
Os0 Sb9 2.623466 1_555
Os0 Sb8 2.623466 1_455
Os0 Sb2 2.635130 1_455
Os0 Sb3 2.635130 1_555
