# generated using pymatgen
data_Be8VMo2W
_symmetry_space_group_name_H-M   'P 1'
_cell_length_a   4.42433964
_cell_length_b   4.42433955
_cell_length_c   7.23668189
_cell_angle_alpha   90.00000000
_cell_angle_beta   90.00000000
_cell_angle_gamma   120.00000063
_symmetry_Int_Tables_number   1
_chemical_formula_structural   Be8VMo2W
_chemical_formula_sum   'Be8 V1 Mo2 W1'
_cell_volume   122.67809410
_cell_formula_units_Z   1
loop_
 _symmetry_equiv_pos_site_id
 _symmetry_equiv_pos_as_xyz
  1  'x, y, z'
loop_
 _atom_site_type_symbol
 _atom_site_label
 _atom_site_symmetry_multiplicity
 _atom_site_fract_x
 _atom_site_fract_y
 _atom_site_fract_z
 _atom_site_occupancy
  Be  Be0  1  0.00000000  0.00000000  0.00191502  1
  Be  Be1  1  0.00000000  0.00000000  0.49868641  1
  Be  Be2  1  0.82972965  0.65945829  0.25210803  1
  Be  Be3  1  0.16991370  0.83008630  0.74819980  1
  Be  Be4  1  0.66017161  0.83008630  0.74819980  1
  Be  Be5  1  0.34054171  0.17027035  0.25210803  1
  Be  Be6  1  0.82972965  0.17027035  0.25210803  1
  Be  Be7  1  0.16991370  0.33982839  0.74819980  1
  V  V0  1  0.33333300  0.66666700  0.43485690  1
  Mo  Mo0  1  0.33333300  0.66666700  0.06425242  1
  Mo  Mo1  1  0.66666700  0.33333300  0.56244299  1
  W  W0  1  0.66666700  0.33333300  0.93692178  1
loop_
_geom_bond_atom_site_label_1
_geom_bond_atom_site_label_2
_geom_bond_distance
_geom_bond_site_symmetry_2
Be0 Be6 2.231746 1_455
Be0 Be2 2.231748 1_445
Be0 Be5 2.231748 1_555
Be0 Be3 2.250892 1_544
Be0 Be7 2.250894 1_554
Be0 Be4 2.250894 1_444
Be0 Mo0 2.593920 1_545
Be0 Mo0 2.593923 1_555
Be0 Mo0 2.593924 1_445
Be0 W0 2.597331 1_454
Be0 W0 2.597335 1_444
Be0 W0 2.597335 1_554
Be1 Be6 2.210577 1_455
Be1 Be2 2.210580 1_445
Be1 Be5 2.210580 1_555
Be1 Be3 2.226158 1_545
Be1 Be7 2.226160 1_555
Be1 Be4 2.226160 1_445
Be1 Mo1 2.595726 1_455
Be1 Mo1 2.595729 1_445
Be1 Mo1 2.595729 1_555
Be1 V0 2.595819 1_545
Be1 V0 2.595823 1_555
Be1 V0 2.595823 1_445
Be2 Be5 2.164334 1_555
Be2 Be6 2.164334 1_555
Be2 Be6 2.260006 1_565
Be2 Be5 2.260006 1_665
Be2 Mo1 2.570028 1_555
Be2 V0 2.577486 1_655
Be2 V0 2.577493 1_555
Be2 Mo0 2.596641 1_655
Be2 Mo0 2.596649 1_555
Be2 W0 2.600762 1_554
Be3 Be7 2.169067 1_555
Be3 Be4 2.169068 1_555
Be3 Be7 2.255272 1_565
Be3 Be4 2.255272 1_455
Be3 Mo1 2.588698 1_565
Be3 Mo1 2.588698 1_455
Be3 V0 2.590391 1_555
Be3 W0 2.599905 1_565
Be3 W0 2.599905 1_455
Be3 Mo0 2.607574 1_556
Be4 Be7 2.169067 1_555
Be4 Be7 2.255272 1_665
Be4 Mo1 2.588694 1_565
Be4 Mo1 2.588702 1_555
Be4 V0 2.590391 1_555
Be4 W0 2.599902 1_565
Be4 W0 2.599909 1_555
Be4 Mo0 2.607574 1_556
Be5 Be6 2.164334 1_555
Be5 Be6 2.260006 1_455
Be5 Mo1 2.570028 1_555
Be5 V0 2.577486 1_545
Be5 V0 2.577493 1_555
Be5 Mo0 2.596641 1_545
Be5 Mo0 2.596649 1_555
Be5 W0 2.600762 1_554
Be6 Mo1 2.570028 1_555
Be6 V0 2.577489 1_545
Be6 V0 2.577489 1_655
Be6 Mo0 2.596645 1_545
Be6 Mo0 2.596645 1_655
Be6 W0 2.600762 1_554
Be7 Mo1 2.588694 1_455
Be7 Mo1 2.588702 1_555
Be7 V0 2.590391 1_555
Be7 W0 2.599902 1_455
Be7 W0 2.599909 1_555
Be7 Mo0 2.607574 1_556
Mo0 V0 2.681947 1_555
Mo0 W0 2.715508 1_564
Mo0 W0 2.715509 1_454
Mo0 W0 2.715516 1_554
Mo1 W0 2.709984 1_555
Mo1 V0 2.716136 1_545
Mo1 V0 2.716136 1_655
Mo1 V0 2.716144 1_555
