# generated using pymatgen
data_Li2MgSiS4
_symmetry_space_group_name_H-M   'P 1'
_cell_length_a   6.24852678
_cell_length_b   6.78112608
_cell_length_c   7.58510973
_cell_angle_alpha   90.00000000
_cell_angle_beta   90.00000000
_cell_angle_gamma   90.00000000
_symmetry_Int_Tables_number   1
_chemical_formula_structural   Li2MgSiS4
_chemical_formula_sum   'Li4 Mg2 Si2 S8'
_cell_volume   321.39663309
_cell_formula_units_Z   2
loop_
 _symmetry_equiv_pos_site_id
 _symmetry_equiv_pos_as_xyz
  1  'x, y, z'
loop_
 _atom_site_type_symbol
 _atom_site_label
 _atom_site_symmetry_multiplicity
 _atom_site_fract_x
 _atom_site_fract_y
 _atom_site_fract_z
 _atom_site_occupancy
  Li  Li0  1  0.62676376  0.67136652  0.25364054  1
  Li  Li1  1  0.62676376  0.67136652  0.74635946  1
  Li  Li2  1  0.12676376  0.32863348  0.24635946  1
  Li  Li3  1  0.12676376  0.32863348  0.75364054  1
  Mg  Mg0  1  0.12809126  0.85442711  0.50000000  1
  Mg  Mg1  1  0.62809126  0.14557289  0.00000000  1
  Si  Si0  1  0.12442109  0.82664105  0.00000000  1
  Si  Si1  1  0.62442109  0.17335895  0.50000000  1
  S  S0  1  0.73278181  0.87603278  0.50000000  1
  S  S1  1  0.23278181  0.12396722  0.00000000  1
  S  S2  1  0.23805012  0.67467751  0.22798486  1
  S  S3  1  0.23805012  0.67467751  0.77201514  1
  S  S4  1  0.73805012  0.32532249  0.27201514  1
  S  S5  1  0.73805012  0.32532249  0.72798486  1
  S  S6  1  0.78394806  0.81669129  0.00000000  1
  S  S7  1  0.28394806  0.18330871  0.50000000  1
loop_
_geom_bond_atom_site_label_1
_geom_bond_atom_site_label_2
_geom_bond_distance
_geom_bond_site_symmetry_2
Li0 S6 2.374270 1_555
Li0 S0 2.420109 1_555
Li0 S2 2.436774 1_555
Li0 S4 2.451399 1_555
Li1 S6 2.374270 1_556
Li1 S0 2.420109 1_555
Li1 S3 2.436774 1_555
Li1 S5 2.451399 1_555
Li2 S7 2.374270 1_555
Li2 S1 2.420109 1_555
Li2 S4 2.436774 1_455
Li2 S2 2.451399 1_555
Li3 S7 2.374270 1_555
Li3 S1 2.420109 1_556
Li3 S5 2.436774 1_455
Li3 S3 2.451399 1_555
Mg0 S7 2.433551 1_565
Mg0 S0 2.474443 1_455
Mg0 S3 2.492964 1_555
Mg0 S2 2.492964 1_555
Mg1 S6 2.433551 1_545
Mg1 S1 2.474443 1_555
Mg1 S5 2.492964 1_554
Mg1 S4 2.492964 1_555
S0 Si1 2.126863 1_565
S1 Si0 2.126863 1_545
S2 Si0 2.134587 1_555
S3 Si0 2.134587 1_556
S4 Si1 2.134587 1_555
S5 Si1 2.134587 1_555
S6 Si0 2.128524 1_655
S7 Si1 2.128524 1_555
