# generated using pymatgen
data_Cs14Nb2As7P
_symmetry_space_group_name_H-M   'P 1'
_cell_length_a   8.91832229
_cell_length_b   10.02220714
_cell_length_c   11.10159979
_cell_angle_alpha   90.00000000
_cell_angle_beta   90.00000000
_cell_angle_gamma   89.80571848
_symmetry_Int_Tables_number   1
_chemical_formula_structural   Cs14Nb2As7P
_chemical_formula_sum   'Cs14 Nb2 As7 P1'
_cell_volume   992.26942024
_cell_formula_units_Z   1
loop_
 _symmetry_equiv_pos_site_id
 _symmetry_equiv_pos_as_xyz
  1  'x, y, z'
loop_
 _atom_site_type_symbol
 _atom_site_label
 _atom_site_symmetry_multiplicity
 _atom_site_fract_x
 _atom_site_fract_y
 _atom_site_fract_z
 _atom_site_occupancy
  Cs  Cs0  1  0.87055490  0.03139394  0.00000000  1
  Cs  Cs1  1  0.70002547  0.82759736  0.71719806  1
  Cs  Cs2  1  0.39665746  0.89595457  0.00000000  1
  Cs  Cs3  1  0.37754835  0.97008054  0.50000000  1
  Cs  Cs4  1  0.88194074  0.46500444  0.29572982  1
  Cs  Cs5  1  0.89668625  0.09281957  0.50000000  1
  Cs  Cs6  1  0.66557585  0.35160271  0.00000000  1
  Cs  Cs7  1  0.16246315  0.65749316  0.50000000  1
  Cs  Cs8  1  0.20261380  0.16989653  0.21214113  1
  Cs  Cs9  1  0.37843081  0.53368497  0.20638578  1
  Cs  Cs10  1  0.37843081  0.53368497  0.79361422  1
  Cs  Cs11  1  0.88194074  0.46500444  0.70427018  1
  Cs  Cs12  1  0.70002547  0.82759736  0.28280194  1
  Cs  Cs13  1  0.20261380  0.16989653  0.78785887  1
  Nb  Nb0  1  0.99466586  0.67567923  0.00000000  1
  Nb  Nb1  1  0.49845599  0.32581295  0.50000000  1
  As  As0  1  0.21776424  0.31499138  0.50000000  1
  As  As1  1  0.06978445  0.43277617  0.00000000  1
  As  As2  1  0.57070984  0.56831765  0.50000000  1
  As  As3  1  0.08596902  0.79820236  0.18813070  1
  As  As4  1  0.58846908  0.20368207  0.31220955  1
  As  As5  1  0.58846908  0.20368207  0.68779045  1
  As  As6  1  0.08596902  0.79820236  0.81186930  1
  P  P0  1  0.72643482  0.68693968  0.00000000  1
loop_
_geom_bond_atom_site_label_1
_geom_bond_atom_site_label_2
_geom_bond_distance
_geom_bond_site_symmetry_2
Cs0 P0 3.687783 1_545
Cs1 P0 3.449243 1_556
Cs2 P0 3.605025 1_555
Cs6 P0 3.406178 1_555
Cs12 P0 3.449243 1_555
Nb0 P0 2.394449 1_555
As0 Nb1 2.506015 1_555
As0 Cs7 3.466218 1_555
As0 Cs13 3.513782 1_555
As0 Cs8 3.513782 1_555
As0 Cs5 3.633279 1_455
As0 Cs3 3.734499 1_545
As0 Cs11 4.042568 1_455
As0 Cs4 4.042568 1_455
As1 Nb0 2.522731 1_455
As1 Cs6 3.698211 1_455
As1 Cs4 3.699419 1_455
As1 Cs11 3.699419 1_454
As1 Cs9 3.723999 1_555
As1 Cs10 3.723999 1_554
As1 Cs8 3.724241 1_555
As1 Cs13 3.724241 1_554
As2 Nb1 2.516516 1_555
As2 Cs10 3.699998 1_555
As2 Cs9 3.699998 1_555
As2 Cs11 3.728200 1_555
As2 Cs4 3.728200 1_555
As2 Cs12 3.730545 1_555
As2 Cs1 3.730545 1_555
As2 Cs7 3.746021 1_555
As3 Nb0 2.557290 1_455
As3 Cs2 3.608005 1_555
As3 Cs12 3.609940 1_455
As3 Cs0 3.672106 1_465
As3 Cs9 3.718239 1_555
As3 Cs7 3.799308 1_555
As3 Cs8 3.880282 1_565
As3 Cs4 3.991296 1_455
As4 Nb1 2.546032 1_555
As4 Cs5 3.621585 1_555
As4 Cs8 3.632964 1_555
As4 Cs3 3.660022 1_545
As4 Cs4 3.713406 1_555
As4 Cs6 3.832872 1_555
As4 Cs12 3.908687 1_545
As4 Cs9 3.973112 1_555
As5 Nb1 2.546032 1_555
As5 Cs5 3.621585 1_555
As5 Cs13 3.632964 1_555
As5 Cs3 3.660022 1_545
As5 Cs11 3.713406 1_555
As5 Cs6 3.832872 1_556
As5 Cs1 3.908687 1_545
As5 Cs10 3.973112 1_555
As6 Nb0 2.557290 1_456
As6 Cs2 3.608005 1_556
As6 Cs1 3.609940 1_455
As6 Cs0 3.672106 1_466
As6 Cs10 3.718239 1_555
As6 Cs7 3.799308 1_555
As6 Cs13 3.880282 1_565
As6 Cs11 3.991296 1_455
