# generated using pymatgen
data_Rb3Si4Au
_symmetry_space_group_name_H-M   'P 1'
_cell_length_a   5.93413427
_cell_length_b   6.92460583
_cell_length_c   12.44513718
_cell_angle_alpha   90.00000000
_cell_angle_beta   90.00000000
_cell_angle_gamma   90.00000000
_symmetry_Int_Tables_number   1
_chemical_formula_structural   Rb3Si4Au
_chemical_formula_sum   'Rb6 Si8 Au2'
_cell_volume   511.38986167
_cell_formula_units_Z   2
loop_
 _symmetry_equiv_pos_site_id
 _symmetry_equiv_pos_as_xyz
  1  'x, y, z'
loop_
 _atom_site_type_symbol
 _atom_site_label
 _atom_site_symmetry_multiplicity
 _atom_site_fract_x
 _atom_site_fract_y
 _atom_site_fract_z
 _atom_site_occupancy
  Rb  Rb0  1  0.84131805  0.50000000  0.26826754  1
  Rb  Rb1  1  0.84131805  0.50000000  0.73173246  1
  Rb  Rb2  1  0.42658440  0.50000000  0.50000000  1
  Rb  Rb3  1  0.15868195  0.00000000  0.23173246  1
  Rb  Rb4  1  0.15868195  0.00000000  0.76826754  1
  Rb  Rb5  1  0.57341560  0.00000000  0.00000000  1
  Si  Si0  1  0.06787930  0.31647538  0.00000000  1
  Si  Si1  1  0.33280851  0.50000000  0.10295519  1
  Si  Si2  1  0.66719149  0.00000000  0.60295519  1
  Si  Si3  1  0.06787930  0.68352462  0.00000000  1
  Si  Si4  1  0.93212070  0.81647538  0.50000000  1
  Si  Si5  1  0.66719149  0.00000000  0.39704481  1
  Si  Si6  1  0.33280851  0.50000000  0.89704481  1
  Si  Si7  1  0.93212070  0.18352462  0.50000000  1
  Au  Au0  1  0.69897149  0.50000000  0.00000000  1
  Au  Au1  1  0.30102851  0.00000000  0.50000000  1
loop_
_geom_bond_atom_site_label_1
_geom_bond_atom_site_label_2
_geom_bond_distance
_geom_bond_site_symmetry_2
Rb0 Si1 3.569175 1_655
Rb0 Si1 3.652166 1_555
Rb0 Si4 3.661966 1_555
Rb0 Si7 3.661966 1_555
Rb1 Si6 3.569175 1_655
Rb1 Si6 3.652166 1_555
Rb1 Si4 3.661966 1_555
Rb1 Si7 3.661966 1_555
Rb2 Si4 3.662259 1_455
Rb2 Si7 3.662259 1_455
Rb2 Si4 3.715111 1_555
Rb2 Si7 3.715111 1_555
Rb3 Si5 3.569175 1_455
Rb3 Si5 3.652166 1_555
Rb3 Si0 3.661966 1_555
Rb3 Si3 3.661966 1_545
Rb4 Si2 3.569175 1_455
Rb4 Si2 3.652166 1_555
Rb4 Si0 3.661966 1_556
Rb4 Si3 3.661966 1_546
Rb5 Si0 3.662259 1_655
Rb5 Si3 3.662259 1_645
Rb5 Si0 3.715111 1_555
Rb5 Si3 3.715111 1_545
Au0 Si1 2.522505 1_555
Au0 Si6 2.522505 1_554
Au0 Si3 2.531283 1_655
Au0 Si0 2.531283 1_655
Au0 Rb0 3.443828 1_555
Au0 Rb1 3.443828 1_554
Au0 Rb5 3.541562 1_565
Au0 Rb5 3.541562 1_555
Au1 Si2 2.522505 1_555
Au1 Si5 2.522505 1_555
Au1 Si7 2.531283 1_455
Au1 Si4 2.531283 1_445
Au1 Rb4 3.443828 1_555
Au1 Rb3 3.443828 1_555
Au1 Rb2 3.541562 1_545
Au1 Rb2 3.541562 1_555
