# generated using pymatgen
data_Hf3Zn2AuN
_symmetry_space_group_name_H-M   'P 1'
_cell_length_a   8.50180277
_cell_length_b   8.50180300
_cell_length_c   8.50180315
_cell_angle_alpha   59.99999565
_cell_angle_beta   59.99999473
_cell_angle_gamma   59.99999959
_symmetry_Int_Tables_number   1
_chemical_formula_structural   Hf3Zn2AuN
_chemical_formula_sum   'Hf12 Zn8 Au4 N4'
_cell_volume   434.52831086
_cell_formula_units_Z   4
loop_
 _symmetry_equiv_pos_site_id
 _symmetry_equiv_pos_as_xyz
  1  'x, y, z'
loop_
 _atom_site_type_symbol
 _atom_site_label
 _atom_site_symmetry_multiplicity
 _atom_site_fract_x
 _atom_site_fract_y
 _atom_site_fract_z
 _atom_site_occupancy
  Hf  Hf0  1  0.81329528  0.18670472  0.18670472  1
  Hf  Hf1  1  0.18670472  0.81329528  0.18670472  1
  Hf  Hf2  1  0.81329528  0.81329528  0.18670472  1
  Hf  Hf3  1  0.18670472  0.81329528  0.81329528  1
  Hf  Hf4  1  0.81329528  0.18670472  0.81329528  1
  Hf  Hf5  1  0.18670472  0.18670472  0.81329528  1
  Hf  Hf6  1  0.43670472  0.06329528  0.06329528  1
  Hf  Hf7  1  0.06329528  0.43670472  0.06329528  1
  Hf  Hf8  1  0.43670472  0.43670472  0.06329528  1
  Hf  Hf9  1  0.06329528  0.43670472  0.43670472  1
  Hf  Hf10  1  0.43670472  0.06329528  0.43670472  1
  Hf  Hf11  1  0.06329528  0.06329528  0.43670472  1
  Zn  Zn0  1  0.41513036  0.41513036  0.75460693  1
  Zn  Zn1  1  0.41513036  0.41513036  0.41513036  1
  Zn  Zn2  1  0.75460693  0.41513036  0.41513036  1
  Zn  Zn3  1  0.41513036  0.75460693  0.41513036  1
  Zn  Zn4  1  0.83486964  0.83486964  0.49539307  1
  Zn  Zn5  1  0.83486964  0.83486964  0.83486964  1
  Zn  Zn6  1  0.49539307  0.83486964  0.83486964  1
  Zn  Zn7  1  0.83486964  0.49539307  0.83486964  1
  Au  Au0  1  0.62500000  0.62500000  0.12500000  1
  Au  Au1  1  0.62500000  0.62500000  0.62500000  1
  Au  Au2  1  0.12500000  0.62500000  0.62500000  1
  Au  Au3  1  0.62500000  0.12500000  0.62500000  1
  N  N0  1  0.12500000  0.12500000  0.62500000  1
  N  N1  1  0.12500000  0.12500000  0.12500000  1
  N  N2  1  0.62500000  0.12500000  0.12500000  1
  N  N3  1  0.12500000  0.62500000  0.12500000  1
loop_
_geom_bond_atom_site_label_1
_geom_bond_atom_site_label_2
_geom_bond_distance
_geom_bond_site_symmetry_2
Hf0 N1 2.251212 1_655
Hf0 N2 2.251212 1_555
Hf0 Zn7 2.819775 1_554
Hf0 Zn4 2.819775 1_545
Hf1 N1 2.251212 1_565
Hf1 N3 2.251212 1_555
Hf1 Zn4 2.819775 1_455
Hf1 Zn6 2.819775 1_554
Hf2 N3 2.251212 1_655
Hf2 N2 2.251212 1_565
Hf2 Zn5 2.819768 1_554
Hf2 Zn4 2.819785 1_555
Hf3 N3 2.251212 1_556
Hf3 N0 2.251212 1_565
Hf3 Zn5 2.819768 1_455
Hf3 Zn6 2.819785 1_555
Hf4 N0 2.251212 1_655
Hf4 N2 2.251212 1_556
Hf4 Zn5 2.819768 1_545
Hf4 Zn7 2.819785 1_555
Hf5 N1 2.251212 1_556
Hf5 N0 2.251212 1_555
Hf5 Zn7 2.819775 1_455
Hf5 Zn6 2.819775 1_545
Hf6 N1 2.251212 1_555
Hf6 N2 2.251212 1_555
Hf6 Zn3 2.819775 1_545
Hf6 Zn0 2.819775 1_554
Hf7 N1 2.251212 1_555
Hf7 N3 2.251212 1_555
Hf7 Zn0 2.819775 1_554
Hf7 Zn2 2.819775 1_455
Hf8 N3 2.251212 1_555
Hf8 N2 2.251212 1_555
Hf8 Zn1 2.819768 1_555
Hf8 Zn0 2.819785 1_554
Hf9 N3 2.251212 1_555
Hf9 N0 2.251212 1_555
Hf9 Zn1 2.819768 1_555
Hf9 Zn2 2.819785 1_455
Hf10 N0 2.251212 1_555
Hf10 N2 2.251212 1_555
Hf10 Zn1 2.819768 1_555
Hf10 Zn3 2.819785 1_545
Hf11 N1 2.251212 1_555
Hf11 N0 2.251212 1_555
Hf11 Zn3 2.819775 1_545
Hf11 Zn2 2.819775 1_455
Au0 Zn3 2.613964 1_555
Au0 Zn7 2.613964 1_554
Au0 Zn2 2.613964 1_555
Au0 Zn6 2.613964 1_554
Au0 Zn5 2.613973 1_554
Au0 Zn1 2.613973 1_555
Au0 Hf7 3.105314 1_655
Au0 Hf1 3.105314 1_555
Au0 Hf6 3.105314 1_565
Au0 Hf0 3.105314 1_555
Au0 Hf2 3.105315 1_555
Au0 Hf8 3.105315 1_555
Au1 Zn4 2.613978 1_555
Au1 Zn0 2.613978 1_555
Au1 Zn7 2.613978 1_555
Au1 Zn3 2.613978 1_555
Au1 Zn6 2.613978 1_555
Au1 Zn2 2.613978 1_555
Au1 Hf8 3.105314 1_556
Au1 Hf2 3.105314 1_555
Au1 Hf9 3.105314 1_655
Au1 Hf3 3.105314 1_555
Au1 Hf10 3.105314 1_565
Au1 Hf4 3.105314 1_555
Au2 Zn3 2.613964 1_555
Au2 Zn7 2.613964 1_455
Au2 Zn0 2.613964 1_555
Au2 Zn4 2.613964 1_455
Au2 Zn5 2.613973 1_455
Au2 Zn1 2.613973 1_555
Au2 Hf7 3.105314 1_556
Au2 Hf1 3.105314 1_555
Au2 Hf11 3.105314 1_565
Au2 Hf5 3.105314 1_555
Au2 Hf3 3.105315 1_555
Au2 Hf9 3.105315 1_555
Au3 Zn2 2.613964 1_555
Au3 Zn6 2.613964 1_545
Au3 Zn0 2.613964 1_555
Au3 Zn4 2.613964 1_545
Au3 Zn5 2.613974 1_545
Au3 Zn1 2.613974 1_555
Au3 Hf11 3.105314 1_655
Au3 Hf5 3.105314 1_555
Au3 Hf6 3.105314 1_556
Au3 Hf0 3.105314 1_555
Au3 Hf4 3.105315 1_555
Au3 Hf10 3.105315 1_555
