# generated using pymatgen
data_Hf6GePN2
_symmetry_space_group_name_H-M   'P 1'
_cell_length_a   5.73778636
_cell_length_b   5.73778690
_cell_length_c   8.37607847
_cell_angle_alpha   90.00000000
_cell_angle_beta   90.00000000
_cell_angle_gamma   145.45212636
_symmetry_Int_Tables_number   1
_chemical_formula_structural   Hf6GePN2
_chemical_formula_sum   'Hf6 Ge1 P1 N2'
_cell_volume   156.38138976
_cell_formula_units_Z   1
loop_
 _symmetry_equiv_pos_site_id
 _symmetry_equiv_pos_as_xyz
  1  'x, y, z'
loop_
 _atom_site_type_symbol
 _atom_site_label
 _atom_site_symmetry_multiplicity
 _atom_site_fract_x
 _atom_site_fract_y
 _atom_site_fract_z
 _atom_site_occupancy
  Hf  Hf0  1  0.63440901  0.36559099  0.43897267  1
  Hf  Hf1  1  0.36817054  0.63182946  0.55122816  1
  Hf  Hf2  1  0.63440901  0.36559099  0.06102733  1
  Hf  Hf3  1  0.36817054  0.63182946  0.94877184  1
  Hf  Hf4  1  0.93592457  0.06407543  0.25000000  1
  Hf  Hf5  1  0.05612943  0.94387057  0.75000000  1
  Ge  Ge0  1  0.74492730  0.25507270  0.75000000  1
  P  P0  1  0.25635328  0.74364672  0.25000000  1
  N  N0  1  0.00075466  0.99924534  0.49793189  1
  N  N1  1  0.00075466  0.99924534  0.00206811  1
loop_
_geom_bond_atom_site_label_1
_geom_bond_atom_site_label_2
_geom_bond_distance
_geom_bond_site_symmetry_2
Hf0 N0 2.300381 1_545
Hf0 N0 2.300382 1_655
Hf0 P0 2.682141 1_655
Hf0 P0 2.682142 1_545
Hf1 N0 2.283186 1_655
Hf1 N0 2.283187 1_545
Hf1 P0 2.804893 1_555
Hf2 N1 2.300381 1_545
Hf2 N1 2.300382 1_655
Hf2 P0 2.682141 1_655
Hf2 P0 2.682142 1_545
Hf3 N1 2.283186 1_656
Hf3 N1 2.283187 1_546
Hf3 P0 2.804893 1_556
Hf4 N0 2.194846 1_645
Hf4 N1 2.194846 1_645
Hf4 P0 2.602857 1_545
Hf4 P0 2.602857 1_655
Hf5 N1 2.196808 1_556
Hf5 N0 2.196808 1_555
Ge0 Hf5 2.680108 1_545
Ge0 Hf5 2.680109 1_655
Ge0 Hf3 2.738375 1_655
Ge0 Hf1 2.738375 1_655
Ge0 Hf3 2.738376 1_545
Ge0 Hf1 2.738376 1_545
Ge0 Hf2 2.872920 1_556
Ge0 Hf0 2.872920 1_555
