# generated using pymatgen
data_Li2Cr3SbSe8
_symmetry_space_group_name_H-M   'P 1'
_cell_length_a   7.66000229
_cell_length_b   7.66000304
_cell_length_c   7.66000272
_cell_angle_alpha   58.49757978
_cell_angle_beta   58.49757816
_cell_angle_gamma   58.49757784
_symmetry_Int_Tables_number   1
_chemical_formula_structural   Li2Cr3SbSe8
_chemical_formula_sum   'Li2 Cr3 Sb1 Se8'
_cell_volume   306.88995665
_cell_formula_units_Z   1
loop_
 _symmetry_equiv_pos_site_id
 _symmetry_equiv_pos_as_xyz
  1  'x, y, z'
loop_
 _atom_site_type_symbol
 _atom_site_label
 _atom_site_symmetry_multiplicity
 _atom_site_fract_x
 _atom_site_fract_y
 _atom_site_fract_z
 _atom_site_occupancy
  Li  Li0  1  0.36768639  0.36768639  0.36768639  1
  Li  Li1  1  0.63231361  0.63231361  0.63231361  1
  Cr  Cr0  1  0.50000000  0.00000000  0.00000000  1
  Cr  Cr1  1  0.00000000  0.00000000  0.50000000  1
  Cr  Cr2  1  0.00000000  0.50000000  0.00000000  1
  Sb  Sb0  1  0.00000000  0.00000000  0.00000000  1
  Se  Se0  1  0.23796548  0.23796548  0.23796548  1
  Se  Se1  1  0.77381660  0.25095004  0.25095004  1
  Se  Se2  1  0.25095004  0.25095004  0.77381660  1
  Se  Se3  1  0.25095004  0.77381660  0.25095004  1
  Se  Se4  1  0.76203452  0.76203452  0.76203452  1
  Se  Se5  1  0.22618340  0.74904996  0.74904996  1
  Se  Se6  1  0.74904996  0.74904996  0.22618340  1
  Se  Se7  1  0.74904996  0.22618340  0.74904996  1
loop_
_geom_bond_atom_site_label_1
_geom_bond_atom_site_label_2
_geom_bond_distance
_geom_bond_site_symmetry_2
Li0 Se0 2.461238 1_555
Li0 Se1 2.509680 1_555
Li0 Se2 2.509680 1_555
Li0 Se3 2.509680 1_555
Li1 Se4 2.461238 1_555
Li1 Se5 2.509680 1_555
Li1 Se6 2.509680 1_555
Li1 Se7 2.509680 1_555
Cr0 Se6 2.545101 1_545
Cr0 Se2 2.545101 1_554
Cr0 Se7 2.545101 1_554
Cr0 Se3 2.545101 1_545
Cr0 Se0 2.549366 1_555
Cr0 Se4 2.549366 1_544
Cr1 Se5 2.545101 1_545
Cr1 Se1 2.545101 1_455
Cr1 Se7 2.545101 1_455
Cr1 Se3 2.545101 1_545
Cr1 Se0 2.549366 1_555
Cr1 Se4 2.549366 1_445
Cr2 Se6 2.545101 1_455
Cr2 Se2 2.545101 1_554
Cr2 Se5 2.545101 1_554
Cr2 Se1 2.545101 1_455
Cr2 Se0 2.549366 1_555
Cr2 Se4 2.549366 1_454
Sb0 Se3 2.700487 1_545
Sb0 Se7 2.700487 1_454
Sb0 Se2 2.700487 1_554
Sb0 Se6 2.700487 1_445
Sb0 Se1 2.700487 1_455
Sb0 Se5 2.700487 1_544
