# generated using pymatgen
data_K4Ba2ZrAs4
_symmetry_space_group_name_H-M   'P 1'
_cell_length_a   10.58253671
_cell_length_b   10.58253629
_cell_length_c   8.16306490
_cell_angle_alpha   89.01668499
_cell_angle_beta   89.01667860
_cell_angle_gamma   120.11264666
_symmetry_Int_Tables_number   1
_chemical_formula_structural   K4Ba2ZrAs4
_chemical_formula_sum   'K8 Ba4 Zr2 As8'
_cell_volume   790.33735442
_cell_formula_units_Z   2
loop_
 _symmetry_equiv_pos_site_id
 _symmetry_equiv_pos_as_xyz
  1  'x, y, z'
loop_
 _atom_site_type_symbol
 _atom_site_label
 _atom_site_symmetry_multiplicity
 _atom_site_fract_x
 _atom_site_fract_y
 _atom_site_fract_z
 _atom_site_occupancy
  K  K0  1  0.47257539  0.94110573  0.38181496  1
  K  K1  1  0.94110573  0.47257539  0.88181496  1
  K  K2  1  0.86660902  0.72475555  0.18427121  1
  K  K3  1  0.27116386  0.12790958  0.23141241  1
  K  K4  1  0.85613745  0.13737800  0.20665007  1
  K  K5  1  0.12790958  0.27116386  0.73141241  1
  K  K6  1  0.72475555  0.86660902  0.68427121  1
  K  K7  1  0.13737800  0.85613745  0.70665007  1
  Ba  Ba0  1  0.06304061  0.53402648  0.39037095  1
  Ba  Ba1  1  0.47558333  0.53482063  0.38081319  1
  Ba  Ba2  1  0.53402648  0.06304061  0.89037095  1
  Ba  Ba3  1  0.53482063  0.47558333  0.88081319  1
  Zr  Zr0  1  0.66395964  0.33129097  0.48816990  1
  Zr  Zr1  1  0.33129097  0.66395964  0.98816990  1
  As  As0  1  0.65336975  0.33161981  0.16583547  1
  As  As1  1  0.33161981  0.65336975  0.66583547  1
  As  As2  1  0.20491276  0.39770419  0.11515360  1
  As  As3  1  0.60603053  0.79951858  0.07937391  1
  As  As4  1  0.20303596  0.80326218  0.09380233  1
  As  As5  1  0.79951858  0.60603053  0.57937391  1
  As  As6  1  0.39770419  0.20491276  0.61515360  1
  As  As7  1  0.80326218  0.20303596  0.59380233  1
loop_
_geom_bond_atom_site_label_1
_geom_bond_atom_site_label_2
_geom_bond_distance
_geom_bond_site_symmetry_2
As0 Zr0 2.635560 1_555
As0 Ba3 3.347328 1_554
As0 Ba2 3.383013 1_554
As0 K1 3.457417 1_554
As0 K3 3.525692 1_555
As0 K2 3.610609 1_555
As0 K4 3.656187 1_555
As1 Zr1 2.635560 1_555
As1 Ba1 3.347328 1_555
As1 Ba0 3.383014 1_555
As1 K0 3.457417 1_555
As1 K5 3.525692 1_555
As1 K6 3.610609 1_555
As1 K7 3.656187 1_555
As2 Zr1 2.621705 1_554
As2 Ba1 3.341218 1_555
As2 K4 3.376730 1_455
As2 K5 3.377352 1_554
As2 K3 3.388546 1_555
As2 Ba0 3.398729 1_555
As2 Ba3 3.654721 1_554
As2 K1 3.794728 1_454
As3 Zr1 2.644111 1_554
As3 K2 3.348196 1_555
As3 K6 3.372259 1_554
As3 Ba1 3.402044 1_555
As3 K4 3.405110 1_565
As3 K0 3.530642 1_555
As3 Ba3 3.547841 1_554
As3 Ba2 3.572519 1_564
As4 Zr1 2.601922 1_554
As4 K2 3.291166 1_455
As4 K7 3.344919 1_554
As4 K3 3.355565 1_565
As4 Ba0 3.402685 1_555
As4 K0 3.458971 1_555
As4 Ba2 3.544836 1_564
As4 K1 3.682885 1_454
As5 Zr0 2.644111 1_555
As5 K6 3.348195 1_555
As5 K2 3.372259 1_555
As5 Ba3 3.402044 1_555
As5 K7 3.405110 1_655
As5 K1 3.530643 1_555
As5 Ba1 3.547842 1_555
As5 Ba0 3.572519 1_655
As6 Zr0 2.621705 1_555
As6 Ba3 3.341218 1_555
As6 K7 3.376730 1_545
As6 K3 3.377352 1_555
As6 K5 3.388546 1_555
As6 Ba2 3.398729 1_555
As6 Ba1 3.654721 1_555
As6 K0 3.794728 1_545
As7 Zr0 2.601922 1_555
As7 K6 3.291166 1_545
As7 K4 3.344919 1_555
As7 K5 3.355566 1_655
As7 Ba2 3.402685 1_555
As7 K1 3.458971 1_555
As7 Ba0 3.544836 1_655
As7 K0 3.682885 1_545
