# generated using pymatgen
data_Lu4Hf2ZrO12
_symmetry_space_group_name_H-M   'P 1'
_cell_length_a   6.21587023
_cell_length_b   6.22681549
_cell_length_c   6.36921475
_cell_angle_alpha   99.70133016
_cell_angle_beta   98.92822085
_cell_angle_gamma   99.41205644
_symmetry_Int_Tables_number   1
_chemical_formula_structural   Lu4Hf2ZrO12
_chemical_formula_sum   'Lu4 Hf2 Zr1 O12'
_cell_volume   235.45275373
_cell_formula_units_Z   1
loop_
 _symmetry_equiv_pos_site_id
 _symmetry_equiv_pos_as_xyz
  1  'x, y, z'
loop_
 _atom_site_type_symbol
 _atom_site_label
 _atom_site_symmetry_multiplicity
 _atom_site_fract_x
 _atom_site_fract_y
 _atom_site_fract_z
 _atom_site_occupancy
  Lu  Lu0  1  0.38991244  0.69805939  0.86473293  1
  Lu  Lu1  1  0.69314400  0.86532132  0.38954760  1
  Lu  Lu2  1  0.60975066  0.30033520  0.13342103  1
  Lu  Lu3  1  0.30898339  0.13643206  0.61040194  1
  Hf  Hf0  1  0.99894196  0.99905950  0.99873296  1
  Hf  Hf1  1  0.85053370  0.39562259  0.67269763  1
  Zr  Zr0  1  0.14939922  0.60553597  0.32380679  1
  O  O0  1  0.03264216  0.67510079  0.89438169  1
  O  O1  1  0.68372408  0.92741319  0.05814152  1
  O  O2  1  0.91618575  0.07933924  0.69087339  1
  O  O3  1  0.96575095  0.31975366  0.11005410  1
  O  O4  1  0.31510540  0.07087310  0.94018896  1
  O  O5  1  0.08212057  0.92531054  0.31069450  1
  O  O6  1  0.58567755  0.18742882  0.43118553  1
  O  O7  1  0.17249164  0.42713489  0.57674728  1
  O  O8  1  0.41753370  0.58033553  0.17696995  1
  O  O9  1  0.41700159  0.81416944  0.56883881  1
  O  O10  1  0.82519526  0.57388834  0.42765134  1
  O  O11  1  0.58590398  0.41888544  0.82093103  1
loop_
_geom_bond_atom_site_label_1
_geom_bond_atom_site_label_2
_geom_bond_distance
_geom_bond_site_symmetry_2
Lu0 O9 2.149591 1_555
Lu0 O1 2.179024 1_556
Lu0 O8 2.224473 1_556
Lu0 O0 2.241259 1_555
Lu0 O11 2.284425 1_555
Lu0 O7 2.340695 1_555
Lu0 O4 2.425426 1_565
Lu1 O10 2.144654 1_555
Lu1 O1 2.202831 1_555
Lu1 O6 2.203027 1_565
Lu1 O9 2.214479 1_555
Lu1 O2 2.255938 1_565
Lu1 O8 2.322305 1_555
Lu1 O5 2.526343 1_655
Lu2 O6 2.148610 1_555
Lu2 O4 2.182281 1_554
Lu2 O3 2.225817 1_555
Lu2 O11 2.228820 1_554
Lu2 O8 2.272775 1_555
Lu2 O10 2.367679 1_555
Lu2 O1 2.424037 1_545
Lu3 O7 2.149192 1_555
Lu3 O4 2.202132 1_555
Lu3 O9 2.205544 1_545
Lu3 O6 2.216918 1_555
Lu3 O5 2.252340 1_545
Lu3 O11 2.313617 1_555
Lu3 O2 2.552712 1_455
Hf0 O1 2.045090 1_556
Hf0 O4 2.048746 1_665
Hf0 O3 2.058125 1_566
Hf0 O0 2.069881 1_655
Hf0 O2 2.112036 1_565
Hf0 O5 2.119546 1_656
Hf1 O11 2.032721 1_555
Hf1 O10 2.063416 1_555
Hf1 O0 2.082052 1_655
Hf1 O2 2.093719 1_555
Hf1 O6 2.144987 1_555
Hf1 O7 2.169925 1_655
O3 Zr0 2.088057 1_655
O5 Zr0 2.112866 1_555
O7 Zr0 2.105610 1_555
O8 Zr0 2.048669 1_555
O9 Zr0 2.166647 1_555
O10 Zr0 2.205702 1_655
