# generated using pymatgen
data_AgCNF14
_symmetry_space_group_name_H-M   'P 1'
_cell_length_a   6.83785800
_cell_length_b   6.83785818
_cell_length_c   6.83785772
_cell_angle_alpha   117.34120701
_cell_angle_beta   117.34120329
_cell_angle_gamma   94.67036480
_symmetry_Int_Tables_number   1
_chemical_formula_structural   AgCNF14
_chemical_formula_sum   'Ag1 C1 N1 F14'
_cell_volume   234.31420302
_cell_formula_units_Z   1
loop_
 _symmetry_equiv_pos_site_id
 _symmetry_equiv_pos_as_xyz
  1  'x, y, z'
loop_
 _atom_site_type_symbol
 _atom_site_label
 _atom_site_symmetry_multiplicity
 _atom_site_fract_x
 _atom_site_fract_y
 _atom_site_fract_z
 _atom_site_occupancy
  Ag  Ag0  1  0.00000000  0.00000000  0.00000000  1
  C  C0  1  0.75000000  0.25000000  0.50000000  1
  N  N0  1  0.25000000  0.75000000  0.50000000  1
  F  F0  1  0.40152333  0.96828832  0.70567261  1
  F  F1  1  0.23570336  0.12177636  0.35987250  1
  F  F2  1  0.12417015  0.76429664  0.88607200  1
  F  F3  1  0.87822364  0.23809715  0.11392800  1
  F  F4  1  0.76190285  0.87582985  0.64012750  1
  F  F5  1  0.20427648  0.20427648  0.00000000  1
  F  F6  1  0.79572352  0.79572352  1.00000000  1
  F  F7  1  0.73010171  0.30755911  0.70281282  1
  F  F8  1  0.30414928  0.59847667  0.56676499  1
  F  F9  1  0.03171168  0.73738429  0.43323501  1
  F  F10  1  0.60474528  0.02728789  0.29718718  1
  F  F11  1  0.26261571  0.69585072  0.29432739  1
  F  F12  1  0.69244089  0.39525472  0.42254260  1
  F  F13  1  0.97271211  0.26989829  0.57745740  1
loop_
_geom_bond_atom_site_label_1
_geom_bond_atom_site_label_2
_geom_bond_distance
_geom_bond_site_symmetry_2
Ag0 F6 1.893264 1_444
Ag0 F5 1.893264 1_555
Ag0 F1 1.898011 1_555
Ag0 F4 1.898011 1_444
Ag0 F3 1.898018 1_455
Ag0 F2 1.898018 1_544
C0 F7 1.333161 1_555
C0 F10 1.333166 1_555
C0 F13 1.333167 1_555
C0 F12 1.333167 1_555
F0 N0 1.326914 1_555
F8 N0 1.326914 1_555
F9 N0 1.326914 1_555
F11 N0 1.326914 1_555
