# generated using pymatgen
data_Li2YTcH6
_symmetry_space_group_name_H-M   'P 1'
_cell_length_a   4.97734898
_cell_length_b   4.97735466
_cell_length_c   4.97734822
_cell_angle_alpha   120.00011121
_cell_angle_beta   120.00000809
_cell_angle_gamma   59.99988575
_symmetry_Int_Tables_number   1
_chemical_formula_structural   Li2YTcH6
_chemical_formula_sum   'Li2 Y1 Tc1 H6'
_cell_volume   87.19246175
_cell_formula_units_Z   1
loop_
 _symmetry_equiv_pos_site_id
 _symmetry_equiv_pos_as_xyz
  1  'x, y, z'
loop_
 _atom_site_type_symbol
 _atom_site_label
 _atom_site_symmetry_multiplicity
 _atom_site_fract_x
 _atom_site_fract_y
 _atom_site_fract_z
 _atom_site_occupancy
  Li  Li0  1  0.50000000  0.50000000  0.49999900  1
  Li  Li1  1  0.25000000  0.25000100  0.74999900  1
  Y  Y0  1  0.75000000  0.75000000  0.25000000  1
  Tc  Tc0  1  0.00000100  0.00000000  0.00000200  1
  H  H0  1  0.24718081  0.24717981  0.24718081  1
  H  H1  1  0.75281919  0.24718181  0.24717981  1
  H  H2  1  0.24718181  0.75282019  0.24717981  1
  H  H3  1  0.75281819  0.24718181  0.75281719  1
  H  H4  1  0.24718181  0.75281819  0.75281819  1
  H  H5  1  0.75281919  0.75281919  0.75281919  1
loop_
_geom_bond_atom_site_label_1
_geom_bond_atom_site_label_2
_geom_bond_distance
_geom_bond_site_symmetry_2
H0 Tc0 1.739908 1_555
H0 Li0 1.779607 1_555
H0 Y0 2.488748 1_545
H0 Y0 2.488753 1_455
H1 Tc0 1.739904 1_655
H1 Li0 1.779600 1_555
H1 Y0 2.488749 1_555
H1 Y0 2.488764 1_545
H2 Tc0 1.739901 1_565
H2 Li0 1.779607 1_555
H2 Y0 2.488744 1_555
H2 Y0 2.488764 1_455
H3 Tc0 1.739933 1_656
H3 Li0 1.779597 1_555
H3 Y0 2.488748 1_545
H3 Y0 2.488753 1_556
H4 Tc0 1.739922 1_566
H4 Li0 1.779596 1_555
H4 Y0 2.488753 1_455
H4 Y0 2.488753 1_556
H5 Tc0 1.739919 1_666
H5 Li0 1.779604 1_555
H5 Y0 2.488753 1_555
H5 Y0 2.488753 1_556
