# generated using pymatgen
data_Cs2Mn3Se4
_symmetry_space_group_name_H-M   'P 1'
_cell_length_a   6.28157785
_cell_length_b   10.01198588
_cell_length_c   10.01198539
_cell_angle_alpha   74.69287725
_cell_angle_beta   71.71746453
_cell_angle_gamma   71.71747326
_symmetry_Int_Tables_number   1
_chemical_formula_structural   Cs2Mn3Se4
_chemical_formula_sum   'Cs4 Mn6 Se8'
_cell_volume   558.04311520
_cell_formula_units_Z   2
loop_
 _symmetry_equiv_pos_site_id
 _symmetry_equiv_pos_as_xyz
  1  'x, y, z'
loop_
 _atom_site_type_symbol
 _atom_site_label
 _atom_site_symmetry_multiplicity
 _atom_site_fract_x
 _atom_site_fract_y
 _atom_site_fract_z
 _atom_site_occupancy
  Cs  Cs0  1  0.23227863  0.11995195  0.88004805  1
  Cs  Cs1  1  0.73227863  0.38004805  0.61995195  1
  Cs  Cs2  1  0.26772137  0.61995195  0.38004805  1
  Cs  Cs3  1  0.76772137  0.88004805  0.11995195  1
  Mn  Mn0  1  0.25000000  0.52071330  0.97928670  1
  Mn  Mn1  1  0.25000000  0.97928670  0.52071330  1
  Mn  Mn2  1  0.75000000  0.47928670  0.02071330  1
  Mn  Mn3  1  0.75000000  0.75000000  0.75000000  1
  Mn  Mn4  1  0.25000000  0.25000000  0.25000000  1
  Mn  Mn5  1  0.75000000  0.02071330  0.47928670  1
  Se  Se0  1  0.37226933  0.21560146  0.48232966  1
  Se  Se1  1  0.57020044  0.28439854  0.01767034  1
  Se  Se2  1  0.12773067  0.01767034  0.28439854  1
  Se  Se3  1  0.92979956  0.48232966  0.21560146  1
  Se  Se4  1  0.62773067  0.78439854  0.51767034  1
  Se  Se5  1  0.42979956  0.71560146  0.98232966  1
  Se  Se6  1  0.87226933  0.98232966  0.71560146  1
  Se  Se7  1  0.07020044  0.51767034  0.78439854  1
loop_
_geom_bond_atom_site_label_1
_geom_bond_atom_site_label_2
_geom_bond_distance
_geom_bond_site_symmetry_2
Cs0 Se0 3.723488 1_555
Cs0 Se7 3.723489 1_555
Cs0 Se6 3.786894 1_545
Cs0 Se1 3.786894 1_556
Cs0 Se2 3.799226 1_556
Cs0 Se5 3.799226 1_545
Cs0 Se1 3.900269 1_456
Cs0 Se6 3.900270 1_445
Cs1 Se1 3.723488 1_556
Cs1 Se6 3.723489 1_545
Cs1 Se0 3.786894 1_655
Cs1 Se7 3.786894 1_655
Cs1 Se3 3.799226 1_555
Cs1 Se4 3.799226 1_555
Cs1 Se7 3.900269 1_555
Cs1 Se0 3.900270 1_555
Cs2 Se5 3.723488 1_554
Cs2 Se2 3.723489 1_565
Cs2 Se4 3.786894 1_455
Cs2 Se3 3.786894 1_455
Cs2 Se7 3.799226 1_555
Cs2 Se0 3.799226 1_555
Cs2 Se3 3.900269 1_555
Cs2 Se4 3.900270 1_555
Cs3 Se4 3.723488 1_555
Cs3 Se3 3.723489 1_555
Cs3 Se2 3.786894 1_565
Cs3 Se5 3.786894 1_554
Cs3 Se6 3.799226 1_554
Cs3 Se1 3.799226 1_565
Cs3 Se5 3.900269 1_654
Cs3 Se2 3.900270 1_665
Mn0 Se5 2.553312 1_555
Mn0 Se7 2.553312 1_555
Mn0 Se3 2.609654 1_456
Mn0 Se1 2.609655 1_556
Mn1 Se6 2.553312 1_455
Mn1 Se4 2.553312 1_555
Mn1 Se0 2.609655 1_565
Mn1 Se2 2.609655 1_565
Mn2 Se1 2.553312 1_555
Mn2 Se3 2.553312 1_555
Mn2 Se7 2.609654 1_654
Mn2 Se5 2.609655 1_554
Mn3 Se5 2.578975 1_555
Mn3 Se7 2.578975 1_655
Mn3 Se6 2.578975 1_555
Mn3 Se4 2.578975 1_555
Mn4 Se1 2.578975 1_555
Mn4 Se3 2.578975 1_455
Mn4 Se2 2.578975 1_555
Mn4 Se0 2.578975 1_555
Mn5 Se2 2.553312 1_655
Mn5 Se0 2.553312 1_555
Mn5 Se4 2.609655 1_545
Mn5 Se6 2.609655 1_545
