# generated using pymatgen
data_Ta3V3(Zn3C)2
_symmetry_space_group_name_H-M   'P 1'
_cell_length_a   8.06207866
_cell_length_b   8.06207841
_cell_length_c   8.06207938
_cell_angle_alpha   120.00233921
_cell_angle_beta   120.00052631
_cell_angle_gamma   89.99751986
_symmetry_Int_Tables_number   1
_chemical_formula_structural   Ta3V3(Zn3C)2
_chemical_formula_sum   'Ta6 V6 Zn12 C4'
_cell_volume   370.52431209
_cell_formula_units_Z   2
loop_
 _symmetry_equiv_pos_site_id
 _symmetry_equiv_pos_as_xyz
  1  'x, y, z'
loop_
 _atom_site_type_symbol
 _atom_site_label
 _atom_site_symmetry_multiplicity
 _atom_site_fract_x
 _atom_site_fract_y
 _atom_site_fract_z
 _atom_site_occupancy
  Ta  Ta0  1  0.94067619  0.94067619  0.00000000  1
  Ta  Ta1  1  0.30924904  0.30924904  1.00000000  1
  Ta  Ta2  1  0.30933082  0.94072894  0.00005334  1
  Ta  Ta3  1  0.94067761  0.30927748  0.99994666  1
  Ta  Ta4  1  0.94067761  0.94072894  0.63140012  1
  Ta  Ta5  1  0.30933082  0.30927748  0.36859988  1
  V  V0  1  0.54646954  0.04646954  0.50000000  1
  V  V1  1  0.20339124  0.70339124  0.50000000  1
  V  V2  1  0.20356015  0.04638761  0.50001658  1
  V  V3  1  0.54637203  0.70354457  0.49998342  1
  V  V4  1  0.54637203  0.04638761  0.84282747  1
  V  V5  1  0.20356015  0.70354457  0.15717253  1
  Zn  Zn0  1  0.74848526  0.50167289  0.24681138  1
  Zn  Zn1  1  0.25486051  0.50167289  0.75318862  1
  Zn  Zn2  1  0.74839851  0.50150597  0.75310745  1
  Zn  Zn3  1  0.74839851  0.99529106  0.24689255  1
  Zn  Zn4  1  0.95623102  0.29394270  0.66228732  1
  Zn  Zn5  1  0.63165339  0.29394270  0.33771268  1
  Zn  Zn6  1  0.95618411  0.29395913  0.33777502  1
  Zn  Zn7  1  0.95618411  0.61840908  0.66222498  1
  Zn  Zn8  1  0.53894728  0.71108060  0.82786667  1
  Zn  Zn9  1  0.88321393  0.71108060  0.17213333  1
  Zn  Zn10  1  0.53895333  0.71115929  0.17220596  1
  Zn  Zn11  1  0.53895333  0.36674737  0.82779404  1
  C  C0  1  0.25333604  0.99659497  0.25674107  1
  C  C1  1  0.73985390  0.99659497  0.74325893  1
  C  C2  1  0.25334076  0.99657703  0.74323627  1
  C  C3  1  0.25334076  0.51010450  0.25676373  1
loop_
_geom_bond_atom_site_label_1
_geom_bond_atom_site_label_2
_geom_bond_distance
_geom_bond_site_symmetry_2
Ta0 Zn6 2.728807 1_565
Ta0 Zn7 2.728807 1_554
Ta0 Zn2 2.961058 1_554
Ta0 Zn3 2.961058 1_555
Ta0 Zn8 2.962880 1_554
Ta0 Zn9 2.962880 1_555
Ta1 Zn5 2.728225 1_556
Ta1 Zn4 2.728228 1_455
Ta1 Zn1 2.961888 1_555
Ta1 Zn0 2.961896 1_556
Ta1 Zn10 2.964231 1_556
Ta1 Zn11 2.964231 1_555
Ta2 Zn7 2.728501 1_454
Ta2 Zn5 2.728798 1_565
Ta2 Zn3 2.960433 1_555
Ta2 Zn1 2.960434 1_554
Ta2 Zn10 2.962786 1_555
Ta2 Zn8 2.963273 1_554
Ta3 Zn6 2.728508 1_556
Ta3 Zn4 2.728802 1_555
Ta3 Zn2 2.960436 1_555
Ta3 Zn0 2.960443 1_556
Ta3 Zn11 2.962800 1_555
Ta3 Zn9 2.963279 1_556
Ta4 Zn7 2.728492 1_555
Ta4 Zn4 2.728813 1_565
Ta4 Zn0 2.960439 1_555
Ta4 Zn3 2.960447 1_555
Ta4 Zn10 2.962800 1_555
Ta4 Zn9 2.963279 1_555
Ta5 Zn6 2.728508 1_455
Ta5 Zn5 2.728781 1_555
Ta5 Zn2 2.960436 1_555
Ta5 Zn1 2.960455 1_555
Ta5 Zn11 2.962801 1_555
Ta5 Zn8 2.963279 1_555
V0 Zn10 2.643997 1_545
V0 Zn11 2.643997 1_555
V0 Zn2 3.076430 1_555
V0 Zn3 3.076431 1_545
V0 Zn5 3.110200 1_555
V0 Zn4 3.110214 1_555
V1 Zn8 2.644720 1_555
V1 Zn9 2.644720 1_455
V1 Zn0 3.075098 1_455
V1 Zn1 3.075107 1_555
V1 Zn6 3.107229 1_455
V1 Zn7 3.107229 1_455
V2 Zn9 2.644338 1_445
V2 Zn11 2.644756 1_555
V2 Zn3 3.077433 1_445
V2 Zn1 3.077907 1_555
V2 Zn4 3.109318 1_455
V2 Zn6 3.110307 1_455
V3 Zn8 2.644346 1_555
V3 Zn10 2.644749 1_555
V3 Zn2 3.077438 1_555
V3 Zn0 3.077907 1_555
V3 Zn5 3.109321 1_555
V3 Zn7 3.110303 1_555
V4 Zn8 2.644338 1_545
V4 Zn11 2.644756 1_555
V4 Zn3 3.077433 1_546
V4 Zn0 3.077906 1_556
V4 Zn5 3.109335 1_556
V4 Zn6 3.110303 1_556
V5 Zn9 2.644338 1_455
V5 Zn10 2.644757 1_555
V5 Zn2 3.077433 1_454
V5 Zn1 3.077901 1_554
V5 Zn4 3.109328 1_454
V5 Zn7 3.110304 1_454
Zn0 Zn9 2.462346 1_555
Zn0 Zn11 2.463192 1_554
Zn0 Zn10 2.463197 1_555
Zn0 Zn6 2.479097 1_555
Zn0 Zn7 2.479102 1_555
Zn0 Zn5 2.479286 1_555
Zn1 Zn8 2.462357 1_555
Zn1 Zn10 2.463194 1_556
Zn1 Zn11 2.463199 1_555
Zn1 Zn7 2.479095 1_455
Zn1 Zn6 2.479099 1_455
Zn1 Zn4 2.479260 1_455
Zn2 Zn8 2.463442 1_555
Zn2 Zn9 2.463442 1_556
Zn2 Zn5 2.478928 1_555
Zn2 Zn4 2.478940 1_555
Zn2 Zn7 2.479826 1_555
Zn3 Zn9 2.463442 1_555
Zn3 Zn8 2.463442 1_554
Zn3 Zn4 2.478933 1_565
Zn3 Zn5 2.478941 1_565
Zn3 Zn6 2.479826 1_565
Zn4 Zn6 2.616121 1_555
Zn4 Zn7 2.616125 1_555
Zn4 Zn5 2.616738 1_555
Zn5 Zn7 2.616133 1_555
Zn5 Zn6 2.616141 1_555
Zn6 Zn7 2.615649 1_555
Zn8 Zn9 2.775483 1_556
Zn10 Zn3 2.462778 1_555
Zn10 Zn9 2.775749 1_555
Zn10 Zn8 2.775749 1_554
Zn10 Zn11 2.776578 1_554
Zn11 Zn2 2.462778 1_555
Zn11 Zn9 2.775749 1_556
Zn11 Zn8 2.775749 1_555
C0 V5 2.041704 1_555
C0 V2 2.041712 1_565
C0 V0 2.041937 1_565
C0 Ta0 2.165820 1_455
C0 Ta2 2.165940 1_555
C0 Ta5 2.165945 1_565
C1 V3 2.041704 1_555
C1 V4 2.041704 1_565
C1 V0 2.041937 1_565
C1 Ta0 2.165820 1_556
C1 Ta3 2.165945 1_565
C1 Ta4 2.165945 1_555
C2 V2 2.041518 1_565
C2 V4 2.041525 1_565
C2 V1 2.041948 1_555
C2 Ta4 2.165868 1_455
C2 Ta2 2.165880 1_556
C2 Ta1 2.165906 1_565
C3 V3 2.041525 1_555
C3 V5 2.041525 1_555
C3 V1 2.041949 1_555
C3 Ta3 2.165868 1_454
C3 Ta5 2.165868 1_555
C3 Ta1 2.165906 1_554
