# generated using pymatgen
data_Bi4IrRh3O14
_symmetry_space_group_name_H-M   'P 1'
_cell_length_a   7.28625098
_cell_length_b   7.28625181
_cell_length_c   7.27184023
_cell_angle_alpha   59.93441921
_cell_angle_beta   59.93441433
_cell_angle_gamma   59.99999657
_symmetry_Int_Tables_number   1
_chemical_formula_structural   Bi4IrRh3O14
_chemical_formula_sum   'Bi4 Ir1 Rh3 O14'
_cell_volume   272.71334985
_cell_formula_units_Z   1
loop_
 _symmetry_equiv_pos_site_id
 _symmetry_equiv_pos_as_xyz
  1  'x, y, z'
loop_
 _atom_site_type_symbol
 _atom_site_label
 _atom_site_symmetry_multiplicity
 _atom_site_fract_x
 _atom_site_fract_y
 _atom_site_fract_z
 _atom_site_occupancy
  Bi  Bi0  1  0.62500000  0.12500000  0.12500000  1
  Bi  Bi1  1  0.12500000  0.62500000  0.12500000  1
  Bi  Bi2  1  0.12500000  0.12500000  0.62500000  1
  Bi  Bi3  1  0.12500000  0.12500000  0.12500000  1
  Ir  Ir0  1  0.62500000  0.62500000  0.12500000  1
  Rh  Rh0  1  0.12500000  0.62500000  0.62500000  1
  Rh  Rh1  1  0.62500000  0.12500000  0.62500000  1
  Rh  Rh2  1  0.62500000  0.62500000  0.62500000  1
  O  O0  1  0.70627445  0.70627445  0.29155835  1
  O  O1  1  0.29270124  0.29270124  0.70871430  1
  O  O2  1  0.70588322  0.29270124  0.70871430  1
  O  O3  1  0.29589275  0.70627445  0.29155835  1
  O  O4  1  0.29270124  0.70588322  0.70871430  1
  O  O5  1  0.70627445  0.29589275  0.29155835  1
  O  O6  1  0.54372555  0.54372555  0.95844165  1
  O  O7  1  0.95729876  0.95729876  0.54128570  1
  O  O8  1  0.54411678  0.95729876  0.54128570  1
  O  O9  1  0.95410725  0.54372555  0.95844165  1
  O  O10  1  0.95729876  0.54411678  0.54128570  1
  O  O11  1  0.54372555  0.95410725  0.95844165  1
  O  O12  1  0.25078334  0.25078334  0.24765099  1
  O  O13  1  0.99921666  0.99921666  0.00234901  1
loop_
_geom_bond_atom_site_label_1
_geom_bond_atom_site_label_2
_geom_bond_distance
_geom_bond_site_symmetry_2
Bi0 O13 2.225619 1_545
Bi0 O12 2.225619 1_555
Bi0 O8 2.496079 1_545
Bi0 O2 2.496079 1_554
Bi0 O6 2.516993 1_554
Bi0 O0 2.516993 1_545
Bi0 O5 2.516993 1_555
Bi0 O11 2.516993 1_544
Bi1 O13 2.225620 1_455
Bi1 O12 2.225620 1_555
Bi1 O10 2.496079 1_455
Bi1 O4 2.496079 1_554
Bi1 O6 2.516993 1_554
Bi1 O0 2.516993 1_455
Bi1 O3 2.516993 1_555
Bi1 O9 2.516993 1_454
Bi2 O13 2.238261 1_446
Bi2 O12 2.238261 1_555
Bi2 O8 2.518024 1_545
Bi2 O2 2.518024 1_455
Bi2 O1 2.518024 1_555
Bi2 O7 2.518024 1_445
Bi2 O10 2.518025 1_455
Bi2 O4 2.518025 1_545
Bi3 O12 2.225626 1_555
Bi3 O13 2.225626 1_445
Bi3 O7 2.496079 1_445
Bi3 O1 2.496079 1_554
Bi3 O11 2.516993 1_544
Bi3 O5 2.516993 1_455
Bi3 O9 2.516993 1_454
Bi3 O3 2.516993 1_545
Ir0 O9 1.989060 1_554
Ir0 O3 1.989060 1_555
Ir0 O11 1.989060 1_554
Ir0 O5 1.989060 1_555
Ir0 O0 1.989061 1_555
Ir0 O6 1.989061 1_554
O0 Rh2 2.013432 1_555
O1 Rh1 2.008951 1_555
O1 Rh0 2.008952 1_555
O2 Rh2 2.008952 1_555
O2 Rh1 2.008952 1_555
O3 Rh0 2.013432 1_555
O4 Rh2 2.008951 1_555
O4 Rh0 2.008952 1_555
O5 Rh1 2.013432 1_555
O6 Rh2 2.013432 1_555
O7 Rh1 2.008951 1_565
O7 Rh0 2.008952 1_655
O8 Rh2 2.008952 1_555
O8 Rh1 2.008952 1_565
O9 Rh0 2.013432 1_655
O10 Rh2 2.008951 1_555
O10 Rh0 2.008952 1_655
O11 Rh1 2.013432 1_565
