# generated using pymatgen
data_NaNb8VTe16
_symmetry_space_group_name_H-M   'P 1'
_cell_length_a   7.48996699
_cell_length_b   7.48996800
_cell_length_c   14.99426320
_cell_angle_alpha   90.00000000
_cell_angle_beta   90.00000000
_cell_angle_gamma   120.00000453
_symmetry_Int_Tables_number   1
_chemical_formula_structural   NaNb8VTe16
_chemical_formula_sum   'Na1 Nb8 V1 Te16'
_cell_volume   728.47660342
_cell_formula_units_Z   1
loop_
 _symmetry_equiv_pos_site_id
 _symmetry_equiv_pos_as_xyz
  1  'x, y, z'
loop_
 _atom_site_type_symbol
 _atom_site_label
 _atom_site_symmetry_multiplicity
 _atom_site_fract_x
 _atom_site_fract_y
 _atom_site_fract_z
 _atom_site_occupancy
  Na  Na0  1  0.00000000  0.00000000  0.00000000  1
  Nb  Nb0  1  0.00000000  0.00000000  0.27178014  1
  Nb  Nb1  1  0.00000000  0.00000000  0.72821986  1
  Nb  Nb2  1  0.51296963  0.02594026  0.27245979  1
  Nb  Nb3  1  0.48703037  0.97405974  0.72754021  1
  Nb  Nb4  1  0.97405974  0.48703037  0.27245979  1
  Nb  Nb5  1  0.02594026  0.51296963  0.72754021  1
  Nb  Nb6  1  0.51296963  0.48703037  0.27245979  1
  Nb  Nb7  1  0.48703037  0.51296963  0.72754021  1
  V  V0  1  0.00000000  0.00000000  0.50000000  1
  Te  Te0  1  0.33333300  0.66666700  0.59915919  1
  Te  Te1  1  0.66666700  0.33333300  0.40084081  1
  Te  Te2  1  0.66666700  0.33333300  0.14303117  1
  Te  Te3  1  0.33333300  0.66666700  0.85696883  1
  Te  Te4  1  0.16893032  0.33786165  0.15388317  1
  Te  Te5  1  0.83106968  0.66213835  0.84611683  1
  Te  Te6  1  0.66213835  0.83106968  0.15388317  1
  Te  Te7  1  0.83205581  0.66411061  0.61169745  1
  Te  Te8  1  0.33786165  0.16893032  0.84611683  1
  Te  Te9  1  0.16794419  0.33588939  0.38830255  1
  Te  Te10  1  0.16893032  0.83106968  0.15388317  1
  Te  Te11  1  0.33588939  0.16794419  0.61169745  1
  Te  Te12  1  0.83106968  0.16893032  0.84611683  1
  Te  Te13  1  0.66411061  0.83205581  0.38830255  1
  Te  Te14  1  0.83205581  0.16794419  0.61169745  1
  Te  Te15  1  0.16794419  0.83205581  0.38830255  1
loop_
_geom_bond_atom_site_label_1
_geom_bond_atom_site_label_2
_geom_bond_distance
_geom_bond_site_symmetry_2
Na0 Te10 3.182256 1_545
Na0 Te12 3.182256 1_454
Na0 Te6 3.182260 1_445
Na0 Te8 3.182260 1_554
Na0 Te4 3.182260 1_555
Na0 Te5 3.182260 1_444
Nb0 Te15 2.792760 1_545
Nb0 Te13 2.792764 1_445
Nb0 Te9 2.792765 1_555
Nb0 Te10 2.815646 1_545
Nb0 Te6 2.815650 1_445
Nb0 Te4 2.815651 1_555
Nb1 Te14 2.792760 1_455
Nb1 Te11 2.792764 1_555
Nb1 Te7 2.792765 1_445
Nb1 Te12 2.815646 1_455
Nb1 Te8 2.815650 1_555
Nb1 Te5 2.815651 1_445
Nb2 Te1 2.771497 1_555
Nb2 Te2 2.782430 1_555
Nb2 Te15 2.837497 1_545
Nb2 Te13 2.837498 1_545
Nb2 Te10 2.858419 1_545
Nb2 Te6 2.858419 1_545
Nb3 Te0 2.771497 1_555
Nb3 Te3 2.782430 1_555
Nb3 Te14 2.837497 1_565
Nb3 Te11 2.837498 1_565
Nb3 Te12 2.858419 1_565
Nb3 Te8 2.858419 1_565
Nb4 Te1 2.771497 1_555
Nb4 Te2 2.782430 1_555
Nb4 Te15 2.837498 1_655
Nb4 Te9 2.837498 1_655
Nb4 Te10 2.858419 1_655
Nb4 Te4 2.858419 1_655
Nb5 Te0 2.771497 1_555
Nb5 Te3 2.782430 1_555
Nb5 Te14 2.837498 1_455
Nb5 Te7 2.837498 1_455
Nb5 Te12 2.858419 1_455
Nb5 Te5 2.858419 1_455
Nb6 Te1 2.771506 1_555
Nb6 Te2 2.782439 1_555
Nb6 Te9 2.837497 1_555
Nb6 Te13 2.837498 1_555
Nb6 Te4 2.858419 1_555
Nb6 Te6 2.858419 1_555
Nb7 Te0 2.771506 1_555
Nb7 Te3 2.782439 1_555
Nb7 Te7 2.837497 1_555
Nb7 Te11 2.837498 1_555
Nb7 Te5 2.858419 1_555
Nb7 Te8 2.858419 1_555
Te7 V0 2.748084 1_665
Te9 V0 2.748084 1_555
Te11 V0 2.748084 1_555
Te13 V0 2.748084 1_665
Te14 V0 2.748079 1_655
Te15 V0 2.748079 1_565
