# generated using pymatgen
data_K4Sr2TiBi4
_symmetry_space_group_name_H-M   'P 1'
_cell_length_a   11.06472193
_cell_length_b   11.06472100
_cell_length_c   8.34419980
_cell_angle_alpha   88.42434494
_cell_angle_beta   88.42434395
_cell_angle_gamma   60.42080866
_symmetry_Int_Tables_number   1
_chemical_formula_structural   K4Sr2TiBi4
_chemical_formula_sum   'K8 Sr4 Ti2 Bi8'
_cell_volume   887.97825471
_cell_formula_units_Z   2
loop_
 _symmetry_equiv_pos_site_id
 _symmetry_equiv_pos_as_xyz
  1  'x, y, z'
loop_
 _atom_site_type_symbol
 _atom_site_label
 _atom_site_symmetry_multiplicity
 _atom_site_fract_x
 _atom_site_fract_y
 _atom_site_fract_z
 _atom_site_occupancy
  K  K0  1  0.94667320  0.52588916  0.37295712  1
  K  K1  1  0.52588916  0.94667320  0.37295712  1
  K  K2  1  0.72094677  0.13331281  0.18594589  1
  K  K3  1  0.13331281  0.72094677  0.18594589  1
  K  K4  1  0.14211089  0.14211089  0.20776919  1
  K  K5  1  0.27505506  0.86573638  0.69029866  1
  K  K6  1  0.86573638  0.27505506  0.69029866  1
  K  K7  1  0.85428123  0.85428123  0.65020597  1
  Sr  Sr0  1  0.52661539  0.52661539  0.37221077  1
  Sr  Sr1  1  0.05000194  0.47867493  0.87803108  1
  Sr  Sr2  1  0.47867493  0.05000194  0.87803108  1
  Sr  Sr3  1  0.47899503  0.47899503  0.87078743  1
  Ti  Ti0  1  0.33514858  0.33514858  0.48990645  1
  Ti  Ti1  1  0.66492650  0.66492650  0.98361118  1
  Bi  Bi0  1  0.39259791  0.79990240  0.09322610  1
  Bi  Bi1  1  0.79990240  0.39259791  0.09322610  1
  Bi  Bi2  1  0.80364409  0.80364409  0.06126803  1
  Bi  Bi3  1  0.60367039  0.20687737  0.59892539  1
  Bi  Bi4  1  0.20687737  0.60367039  0.59892539  1
  Bi  Bi5  1  0.20240785  0.20240785  0.61988827  1
  Bi  Bi6  1  0.33710842  0.33710842  0.15188674  1
  Bi  Bi7  1  0.65603668  0.65603668  0.65651452  1
loop_
_geom_bond_atom_site_label_1
_geom_bond_atom_site_label_2
_geom_bond_distance
_geom_bond_site_symmetry_2
Bi0 Ti1 2.761773 1_554
Bi0 K3 3.450744 1_555
Bi0 Sr0 3.483905 1_555
Bi0 K4 3.553164 1_565
Bi0 K5 3.563196 1_554
Bi0 K1 3.608730 1_555
Bi0 Sr3 3.725647 1_554
Bi0 Sr2 3.744854 1_564
Bi1 Ti1 2.761773 1_554
Bi1 K2 3.450744 1_555
Bi1 Sr0 3.483905 1_555
Bi1 K4 3.553164 1_655
Bi1 K6 3.563196 1_554
Bi1 K0 3.608730 1_555
Bi1 Sr3 3.725647 1_554
Bi1 Sr1 3.744854 1_654
Bi2 Ti1 2.750770 1_554
Bi2 K2 3.476549 1_565
Bi2 K3 3.476550 1_655
Bi2 K7 3.534286 1_554
Bi2 Sr1 3.618539 1_654
Bi2 Sr2 3.618539 1_564
Bi2 K0 3.701193 1_555
Bi2 K1 3.701193 1_555
Bi3 Ti0 2.753898 1_555
Bi3 K6 3.445478 1_555
Bi3 Sr3 3.495349 1_555
Bi3 Sr2 3.510013 1_555
Bi3 K7 3.519390 1_545
Bi3 K2 3.617564 1_555
Bi3 Sr0 3.683007 1_555
Bi3 K1 3.926708 1_545
Bi4 Ti0 2.753898 1_555
Bi4 K5 3.445478 1_555
Bi4 Sr3 3.495349 1_555
Bi4 Sr1 3.510013 1_555
Bi4 K7 3.519391 1_455
Bi4 K3 3.617564 1_555
Bi4 Sr0 3.683007 1_555
Bi4 K0 3.926708 1_455
Bi5 Ti0 2.728593 1_555
Bi5 K5 3.437681 1_545
Bi5 K6 3.437681 1_455
Bi5 Sr1 3.449753 1_555
Bi5 Sr2 3.449753 1_555
Bi5 K4 3.661609 1_555
Bi5 K0 3.870323 1_455
Bi5 K1 3.870323 1_545
Bi6 Ti0 2.819560 1_555
Bi6 Sr3 3.529768 1_554
Bi6 Sr2 3.613422 1_554
Bi6 Sr1 3.613422 1_554
Bi6 K3 3.712064 1_555
Bi6 K2 3.712065 1_555
Bi6 K4 3.743402 1_555
Bi7 Ti1 2.740043 1_555
Bi7 Sr0 3.482415 1_555
Bi7 K1 3.634622 1_555
Bi7 K0 3.634622 1_555
Bi7 K6 3.680692 1_555
Bi7 K5 3.680693 1_555
Bi7 Sr3 3.778179 1_555
Bi7 K7 3.789899 1_555
