# generated using pymatgen
data_ScZn2CdNi2
_symmetry_space_group_name_H-M   'P 1'
_cell_length_a   5.06141808
_cell_length_b   4.94911826
_cell_length_c   4.94911830
_cell_angle_alpha   60.36358093
_cell_angle_beta   59.24650666
_cell_angle_gamma   59.24651389
_symmetry_Int_Tables_number   1
_chemical_formula_structural   ScZn2CdNi2
_chemical_formula_sum   'Sc1 Zn2 Cd1 Ni2'
_cell_volume   86.88055004
_cell_formula_units_Z   1
loop_
 _symmetry_equiv_pos_site_id
 _symmetry_equiv_pos_as_xyz
  1  'x, y, z'
loop_
 _atom_site_type_symbol
 _atom_site_label
 _atom_site_symmetry_multiplicity
 _atom_site_fract_x
 _atom_site_fract_y
 _atom_site_fract_z
 _atom_site_occupancy
  Sc  Sc0  1  0.24001468  0.25998532  0.25998532  1
  Zn  Zn0  1  0.62695083  0.62323026  0.12286709  1
  Zn  Zn1  1  0.62695083  0.12286709  0.62323026  1
  Cd  Cd0  1  0.00256476  0.99743524  0.99743524  1
  Ni  Ni0  1  0.12586236  0.62324104  0.62324104  1
  Ni  Ni1  1  0.62765555  0.62324104  0.62324104  1
loop_
_geom_bond_atom_site_label_1
_geom_bond_atom_site_label_2
_geom_bond_distance
_geom_bond_site_symmetry_2
Sc0 Zn0 2.926234 1_555
Sc0 Zn1 2.926234 1_555
Sc0 Zn1 2.926238 1_455
Sc0 Zn0 2.926239 1_455
Sc0 Zn1 2.944688 1_554
Sc0 Zn0 2.944689 1_545
Zn0 Zn1 2.486338 1_564
Zn0 Zn1 2.489953 1_555
Cd0 Zn1 2.874846 1_466
Cd0 Zn0 2.874846 1_466
Cd0 Ni0 2.876935 1_555
Cd0 Ni1 2.876935 1_555
Cd0 Ni1 2.921266 1_456
Cd0 Ni0 2.921266 1_565
Cd0 Ni0 2.921266 1_556
Cd0 Ni1 2.921266 1_465
Cd0 Zn1 2.947255 1_565
Cd0 Zn0 2.947256 1_556
Cd0 Zn0 2.947260 1_456
Cd0 Zn1 2.947260 1_465
Cd0 Sc0 2.978979 1_565
Cd0 Sc0 2.978979 1_556
Cd0 Sc0 3.112112 1_566
Cd0 Sc0 3.112112 1_466
Ni0 Zn0 2.470862 1_456
Ni0 Zn1 2.470863 1_465
Ni0 Zn0 2.478259 1_555
Ni0 Zn1 2.478260 1_555
Ni0 Ni1 2.521633 1_455
Ni0 Ni1 2.539785 1_555
Ni0 Sc0 2.805328 1_555
Ni0 Sc0 2.948466 1_565
Ni0 Sc0 2.948466 1_556
Ni1 Zn1 2.470860 1_565
Ni1 Zn0 2.470860 1_556
Ni1 Zn1 2.478262 1_555
Ni1 Zn0 2.478262 1_555
Ni1 Sc0 2.805328 1_655
Ni1 Sc0 2.948465 1_556
Ni1 Sc0 2.948466 1_565
