# generated using pymatgen
data_Lu2IrPdO7
_symmetry_space_group_name_H-M   'P 1'
_cell_length_a   7.08455840
_cell_length_b   7.11908561
_cell_length_c   7.08455792
_cell_angle_alpha   59.83864639
_cell_angle_beta   59.66709445
_cell_angle_gamma   59.83864450
_symmetry_Int_Tables_number   1
_chemical_formula_structural   Lu2IrPdO7
_chemical_formula_sum   'Lu4 Ir2 Pd2 O14'
_cell_volume   251.40389360
_cell_formula_units_Z   2
loop_
 _symmetry_equiv_pos_site_id
 _symmetry_equiv_pos_as_xyz
  1  'x, y, z'
loop_
 _atom_site_type_symbol
 _atom_site_label
 _atom_site_symmetry_multiplicity
 _atom_site_fract_x
 _atom_site_fract_y
 _atom_site_fract_z
 _atom_site_occupancy
  Lu  Lu0  1  0.62500000  0.12500000  0.12500000  1
  Lu  Lu1  1  0.12500000  0.62500000  0.12500000  1
  Lu  Lu2  1  0.12500000  0.12500000  0.62500000  1
  Lu  Lu3  1  0.12500000  0.12500000  0.12500000  1
  Ir  Ir0  1  0.62500000  0.12500000  0.62500000  1
  Ir  Ir1  1  0.62500000  0.62500000  0.62500000  1
  Pd  Pd0  1  0.12500000  0.62500000  0.62500000  1
  Pd  Pd1  1  0.62500000  0.62500000  0.12500000  1
  O  O0  1  0.71494636  0.71999426  0.28375878  1
  O  O1  1  0.28375878  0.28130060  0.71494636  1
  O  O2  1  0.71538747  0.28461253  0.71538747  1
  O  O3  1  0.28009260  0.71990740  0.28009260  1
  O  O4  1  0.28375878  0.71999426  0.71494636  1
  O  O5  1  0.71494636  0.28130060  0.28375878  1
  O  O6  1  0.53505364  0.53000574  0.96624122  1
  O  O7  1  0.96624122  0.96869940  0.53505364  1
  O  O8  1  0.53461253  0.96538747  0.53461253  1
  O  O9  1  0.96990740  0.53009260  0.96990740  1
  O  O10  1  0.96624122  0.53000574  0.53505364  1
  O  O11  1  0.53505364  0.96869940  0.96624122  1
  O  O12  1  0.24983556  0.25016444  0.24983556  1
  O  O13  1  0.00016444  0.99983556  0.00016444  1
loop_
_geom_bond_atom_site_label_1
_geom_bond_atom_site_label_2
_geom_bond_distance
_geom_bond_site_symmetry_2
Lu0 O13 2.162922 1_645
Lu0 O12 2.162922 1_555
Lu0 O6 2.367124 1_554
Lu0 O0 2.367124 1_545
Lu0 O5 2.367124 1_555
Lu0 O11 2.367124 1_544
Lu0 O8 2.379731 1_545
Lu0 O2 2.379731 1_554
Lu1 O13 2.175349 1_555
Lu1 O12 2.175349 1_555
Lu1 O3 2.362727 1_555
Lu1 O9 2.362727 1_454
Lu1 O10 2.377309 1_455
Lu1 O4 2.377309 1_554
Lu1 O6 2.377309 1_554
Lu1 O0 2.377309 1_455
Lu2 O13 2.162922 1_546
Lu2 O12 2.162922 1_555
Lu2 O10 2.367124 1_455
Lu2 O4 2.367124 1_545
Lu2 O1 2.367124 1_555
Lu2 O7 2.367124 1_445
Lu2 O8 2.379731 1_545
Lu2 O2 2.379731 1_455
Lu3 O12 2.175350 1_555
Lu3 O13 2.175350 1_545
Lu3 O9 2.362727 1_454
Lu3 O3 2.362727 1_545
Lu3 O1 2.377309 1_554
Lu3 O7 2.377309 1_445
Lu3 O11 2.377309 1_544
Lu3 O5 2.377309 1_455
Ir0 O11 1.985464 1_545
Ir0 O5 1.985464 1_555
Ir0 O7 1.985464 1_545
Ir0 O1 1.985464 1_555
Ir0 O2 1.996950 1_555
Ir0 O8 1.996950 1_545
Ir1 O6 1.985464 1_555
Ir1 O0 1.985464 1_555
Ir1 O10 1.985464 1_555
Ir1 O4 1.985464 1_555
Ir1 O8 1.996950 1_555
Ir1 O2 1.996950 1_555
O0 Pd1 2.012394 1_555
O1 Pd0 2.012394 1_555
O3 Pd0 2.002430 1_555
O3 Pd1 2.002430 1_555
O4 Pd0 2.012394 1_555
O5 Pd1 2.012394 1_555
O6 Pd1 2.012394 1_556
O7 Pd0 2.012394 1_655
O9 Pd0 2.002430 1_655
O9 Pd1 2.002430 1_556
O10 Pd0 2.012394 1_655
O11 Pd1 2.012394 1_556
