# generated using pymatgen
data_LiYHgPt3
_symmetry_space_group_name_H-M   'P 1'
_cell_length_a   5.42616591
_cell_length_b   5.42616642
_cell_length_c   5.14549680
_cell_angle_alpha   58.17859920
_cell_angle_beta   58.17860309
_cell_angle_gamma   60.00001010
_symmetry_Int_Tables_number   1
_chemical_formula_structural   LiYHgPt3
_chemical_formula_sum   'Li1 Y1 Hg1 Pt3'
_cell_volume   104.08225634
_cell_formula_units_Z   1
loop_
 _symmetry_equiv_pos_site_id
 _symmetry_equiv_pos_as_xyz
  1  'x, y, z'
loop_
 _atom_site_type_symbol
 _atom_site_label
 _atom_site_symmetry_multiplicity
 _atom_site_fract_x
 _atom_site_fract_y
 _atom_site_fract_z
 _atom_site_occupancy
  Li  Li0  1  0.62236061  0.62236061  0.13291716  1
  Y  Y0  1  0.00428765  0.00428765  0.98713604  1
  Hg  Hg0  1  0.25180537  0.25180537  0.24458388  1
  Pt  Pt0  1  0.62358939  0.12436558  0.62845364  1
  Pt  Pt1  1  0.62358939  0.62358939  0.62845364  1
  Pt  Pt2  1  0.12436558  0.62358939  0.62845364  1
loop_
_geom_bond_atom_site_label_1
_geom_bond_atom_site_label_2
_geom_bond_distance
_geom_bond_site_symmetry_2
Li0 Pt1 2.556829 1_555
Li0 Pt0 2.556832 1_555
Li0 Pt2 2.556832 1_555
Li0 Pt0 2.588698 1_564
Li0 Pt2 2.588698 1_654
Li0 Pt1 2.588700 1_554
Li0 Y0 3.188812 1_664
Li0 Y0 3.188812 1_564
Li0 Y0 3.188813 1_654
Hg0 Pt1 2.961594 1_554
Hg0 Pt2 2.961598 1_554
Hg0 Pt0 2.961599 1_554
Hg0 Y0 3.031006 1_555
Hg0 Pt0 3.133049 1_555
Hg0 Pt2 3.133050 1_555
Hg0 Pt1 3.133055 1_545
Hg0 Pt1 3.133055 1_455
Hg0 Pt0 3.133059 1_455
Hg0 Pt2 3.133059 1_545
Hg0 Li0 3.165781 1_555
Hg0 Li0 3.165786 1_455
Hg0 Li0 3.165786 1_545
Hg0 Y0 3.304353 1_654
Hg0 Y0 3.304353 1_564
Hg0 Y0 3.304357 1_554
Pt0 Pt1 2.708871 1_555
Pt0 Pt2 2.708872 1_555
Pt0 Pt1 2.717295 1_545
Pt0 Pt2 2.717295 1_645
Pt0 Y0 3.051884 1_654
Pt0 Y0 3.082919 1_555
Pt0 Y0 3.082924 1_655
Pt1 Pt2 2.708871 1_555
Pt1 Pt2 2.717295 1_655
Pt1 Y0 3.051886 1_664
Pt1 Y0 3.082922 1_655
Pt1 Y0 3.082922 1_565
Pt2 Y0 3.051883 1_564
Pt2 Y0 3.082920 1_555
Pt2 Y0 3.082924 1_565
