# generated using pymatgen
data_CsHC2
_symmetry_space_group_name_H-M   'P 1'
_cell_length_a   9.15915705
_cell_length_b   9.15915705
_cell_length_c   9.15915752
_cell_angle_alpha   109.14910609
_cell_angle_beta   109.14910609
_cell_angle_gamma   109.14909931
_symmetry_Int_Tables_number   1
_chemical_formula_structural   CsHC2
_chemical_formula_sum   'Cs6 H6 C12'
_cell_volume   598.43638973
_cell_formula_units_Z   6
loop_
 _symmetry_equiv_pos_site_id
 _symmetry_equiv_pos_as_xyz
  1  'x, y, z'
loop_
 _atom_site_type_symbol
 _atom_site_label
 _atom_site_symmetry_multiplicity
 _atom_site_fract_x
 _atom_site_fract_y
 _atom_site_fract_z
 _atom_site_occupancy
  Cs  Cs0  1  0.38274200  0.73503400  0.25803900  1
  Cs  Cs1  1  0.73503400  0.25803900  0.38274200  1
  Cs  Cs2  1  0.25803900  0.38274200  0.73503400  1
  Cs  Cs3  1  0.75803900  0.23503400  0.88274200  1
  Cs  Cs4  1  0.23503400  0.88274200  0.75803900  1
  Cs  Cs5  1  0.88274200  0.75803900  0.23503400  1
  H  H0  1  0.79397300  0.64535900  0.81095300  1
  H  H1  1  0.64535900  0.81095300  0.79397300  1
  H  H2  1  0.81095300  0.79397300  0.64535900  1
  H  H3  1  0.31095300  0.14535900  0.29397300  1
  H  H4  1  0.14535900  0.29397300  0.31095300  1
  H  H5  1  0.29397300  0.31095300  0.14535900  1
  C  C0  1  0.39965300  0.33233700  0.11322700  1
  C  C1  1  0.11322700  0.39965300  0.33233700  1
  C  C2  1  0.33233700  0.11322700  0.39965300  1
  C  C3  1  0.83233700  0.89965300  0.61322700  1
  C  C4  1  0.61322700  0.83233700  0.89965300  1
  C  C5  1  0.89965300  0.61322700  0.83233700  1
  C  C6  1  0.52124900  0.35923600  0.07519900  1
  C  C7  1  0.07519900  0.52124900  0.35923600  1
  C  C8  1  0.35923600  0.07519900  0.52124900  1
  C  C9  1  0.85923600  0.02124900  0.57519900  1
  C  C10  1  0.57519900  0.85923600  0.02124900  1
  C  C11  1  0.02124900  0.57519900  0.85923600  1
loop_
_geom_bond_atom_site_label_1
_geom_bond_atom_site_label_2
_geom_bond_distance
_geom_bond_site_symmetry_2
C0 H5 1.078059 1_555
C0 C6 1.246257 1_555
C1 H4 1.078059 1_555
C1 C7 1.246257 1_555
C2 H3 1.078059 1_555
C2 C8 1.246257 1_555
C3 H2 1.078059 1_555
C3 C9 1.246257 1_565
C4 H1 1.078059 1_555
C5 H0 1.078059 1_555
C6 Cs2 3.379087 1_554
C6 Cs5 3.438813 1_555
C6 Cs1 3.451491 1_555
C6 Cs3 3.451987 1_554
C6 Cs4 3.679464 1_544
C7 Cs1 3.379087 1_455
C7 Cs4 3.438813 1_555
C7 Cs0 3.451491 1_555
C7 Cs5 3.451987 1_455
C7 Cs3 3.679464 1_454
C8 Cs0 3.379087 1_545
C8 Cs3 3.438813 1_555
C8 Cs2 3.451490 1_555
C8 Cs4 3.451987 1_545
C8 Cs5 3.679464 1_445
C9 Cs5 3.379087 1_545
C9 Cs2 3.438813 1_655
C9 Cs3 3.451491 1_555
C9 Cs1 3.451987 1_555
C9 Cs0 3.679464 1_545
C10 C4 1.246257 1_554
C10 Cs4 3.379087 1_554
C10 Cs1 3.438813 1_565
C10 Cs5 3.451490 1_555
C10 Cs0 3.451987 1_555
C10 Cs2 3.679464 1_554
C11 C5 1.246257 1_455
C11 Cs3 3.379087 1_455
C11 Cs0 3.438813 1_556
C11 Cs4 3.451491 1_555
C11 Cs2 3.451987 1_555
C11 Cs1 3.679464 1_455
