# generated using pymatgen
data_Rb4Ti5Rh3Se16
_symmetry_space_group_name_H-M   'P 1'
_cell_length_a   6.20487611
_cell_length_b   7.33303833
_cell_length_c   16.69657309
_cell_angle_alpha   90.14238223
_cell_angle_beta   89.77016772
_cell_angle_gamma   89.25896720
_symmetry_Int_Tables_number   1
_chemical_formula_structural   Rb4Ti5Rh3Se16
_chemical_formula_sum   'Rb4 Ti5 Rh3 Se16'
_cell_volume   759.63190315
_cell_formula_units_Z   1
loop_
 _symmetry_equiv_pos_site_id
 _symmetry_equiv_pos_as_xyz
  1  'x, y, z'
loop_
 _atom_site_type_symbol
 _atom_site_label
 _atom_site_symmetry_multiplicity
 _atom_site_fract_x
 _atom_site_fract_y
 _atom_site_fract_z
 _atom_site_occupancy
  Rb  Rb0  1  0.37810801  0.99675602  0.99764616  1
  Rb  Rb1  1  0.62189199  0.50324398  0.50235384  1
  Rb  Rb2  1  0.01837914  0.99611538  0.50070199  1
  Rb  Rb3  1  0.98162086  0.50388462  0.99929801  1
  Ti  Ti0  1  0.04380752  0.99691871  0.24695528  1
  Ti  Ti1  1  0.06262410  0.00004372  0.75407293  1
  Ti  Ti2  1  0.95619248  0.50308129  0.25304472  1
  Ti  Ti3  1  0.93737590  0.49995628  0.74592707  1
  Ti  Ti4  1  0.50000000  0.25000000  0.25000000  1
  Rh  Rh0  1  0.50000000  0.75000000  0.75000000  1
  Rh  Rh1  1  0.50000000  0.75000000  0.25000000  1
  Rh  Rh2  1  0.50000000  0.25000000  0.75000000  1
  Se  Se0  1  0.83802204  0.24908075  0.34081861  1
  Se  Se1  1  0.83224621  0.75802686  0.66194831  1
  Se  Se2  1  0.17182419  0.74088181  0.16178990  1
  Se  Se3  1  0.16788236  0.25761232  0.83813094  1
  Se  Se4  1  0.16197796  0.25091925  0.15918139  1
  Se  Se5  1  0.16775379  0.74197314  0.83805169  1
  Se  Se6  1  0.82817581  0.75911819  0.33821010  1
  Se  Se7  1  0.83211764  0.24238768  0.66186906  1
  Se  Se8  1  0.67960304  0.99406519  0.16660213  1
  Se  Se9  1  0.68442397  0.99937296  0.82740553  1
  Se  Se10  1  0.32039696  0.50593481  0.33339787  1
  Se  Se11  1  0.31557603  0.50062704  0.67259447  1
  Se  Se12  1  0.35073722  0.99517110  0.34271021  1
  Se  Se13  1  0.36765102  0.00044994  0.65860169  1
  Se  Se14  1  0.64926278  0.50482890  0.15728979  1
  Se  Se15  1  0.63234898  0.49955006  0.84139831  1
loop_
_geom_bond_atom_site_label_1
_geom_bond_atom_site_label_2
_geom_bond_distance
_geom_bond_site_symmetry_2
Rb0 Se8 3.391117 1_556
Rb0 Se9 3.413233 1_555
Rb0 Se5 3.515826 1_555
Rb0 Se4 3.525304 1_566
Rb0 Se3 3.527423 1_565
Rb0 Se2 3.567854 1_556
Rb1 Se10 3.391117 1_555
Rb1 Se11 3.413233 1_555
Rb1 Se1 3.515826 1_555
Rb1 Se0 3.525304 1_555
Rb1 Se7 3.527423 1_555
Rb1 Se6 3.567854 1_555
Rb2 Se12 3.341767 1_555
Rb2 Se1 3.417736 1_455
Rb2 Se13 3.419860 1_565
Rb2 Se7 3.425658 1_465
Rb2 Se0 3.437230 1_465
Rb2 Se6 3.439355 1_455
Rb3 Se14 3.341767 1_556
Rb3 Se5 3.417736 1_655
Rb3 Se15 3.419860 1_555
Rb3 Se3 3.425658 1_655
Rb3 Se4 3.437230 1_656
Rb3 Se2 3.439355 1_656
Rh0 Se13 2.522122 1_565
Rh0 Se15 2.522122 1_555
Rh0 Se9 2.525480 1_555
Rh0 Se11 2.525480 1_555
Rh0 Se5 2.528649 1_555
Rh0 Se1 2.528649 1_555
Rh1 Se6 2.519365 1_555
Rh1 Se2 2.519365 1_555
Rh1 Se12 2.533328 1_555
Rh1 Se14 2.533328 1_555
Rh1 Se10 2.536840 1_555
Rh1 Se8 2.536840 1_555
Rh2 Se9 2.515312 1_545
Rh2 Se11 2.515312 1_555
Rh2 Se15 2.527247 1_555
Rh2 Se13 2.527247 1_555
Rh2 Se3 2.527322 1_555
Rh2 Se7 2.527322 1_555
Se0 Ti2 2.488960 1_555
Se0 Ti4 2.592994 1_555
Se0 Ti0 2.722903 1_645
Se1 Ti3 2.441617 1_555
Se1 Ti1 2.762000 1_665
Se2 Ti0 2.473289 1_555
Se2 Ti2 2.685086 1_455
Se3 Ti1 2.447411 1_555
Se3 Ti3 2.745787 1_455
Se4 Ti0 2.488960 1_545
Se4 Ti4 2.592994 1_555
Se4 Ti2 2.722903 1_455
Se5 Ti1 2.441617 1_565
Se5 Ti3 2.762000 1_455
Se6 Ti2 2.473289 1_555
Se6 Ti0 2.685086 1_655
Se7 Ti3 2.447411 1_555
Se7 Ti1 2.745787 1_655
Se8 Ti4 2.573641 1_565
Se8 Ti0 2.633000 1_655
Se9 Ti1 2.642611 1_665
Se10 Ti4 2.573641 1_555
Se10 Ti2 2.633000 1_455
Se11 Ti3 2.642611 1_455
Se12 Ti0 2.491411 1_555
Se12 Ti4 2.606427 1_565
Se13 Ti1 2.469633 1_555
Se14 Ti2 2.491411 1_555
Se14 Ti4 2.606427 1_555
Se15 Ti3 2.469633 1_555
