# generated using pymatgen
data_Cs3Al2Bi3
_symmetry_space_group_name_H-M   'P 1'
_cell_length_a   7.13725296
_cell_length_b   8.74114650
_cell_length_c   12.15576703
_cell_angle_alpha   69.10470354
_cell_angle_beta   90.00000000
_cell_angle_gamma   90.00000000
_symmetry_Int_Tables_number   1
_chemical_formula_structural   Cs3Al2Bi3
_chemical_formula_sum   'Cs6 Al4 Bi6'
_cell_volume   708.49601544
_cell_formula_units_Z   2
loop_
 _symmetry_equiv_pos_site_id
 _symmetry_equiv_pos_as_xyz
  1  'x, y, z'
loop_
 _atom_site_type_symbol
 _atom_site_label
 _atom_site_symmetry_multiplicity
 _atom_site_fract_x
 _atom_site_fract_y
 _atom_site_fract_z
 _atom_site_occupancy
  Cs  Cs0  1  0.25000000  0.36897881  0.49471370  1
  Cs  Cs1  1  0.75000000  0.13893875  0.85712355  1
  Cs  Cs2  1  0.75000000  0.48498597  0.14583028  1
  Cs  Cs3  1  0.25000000  0.51501403  0.85416972  1
  Cs  Cs4  1  0.75000000  0.63102119  0.50528630  1
  Cs  Cs5  1  0.25000000  0.86106125  0.14287645  1
  Al  Al0  1  0.99972856  0.07257141  0.34625145  1
  Al  Al1  1  0.49972856  0.92742859  0.65374855  1
  Al  Al2  1  0.50027144  0.07257141  0.34625145  1
  Al  Al3  1  0.00027144  0.92742859  0.65374855  1
  Bi  Bi0  1  0.25000000  0.82164717  0.50208417  1
  Bi  Bi1  1  0.75000000  0.17835283  0.49791583  1
  Bi  Bi2  1  0.25000000  0.30147051  0.20581686  1
  Bi  Bi3  1  0.75000000  0.69852949  0.79418314  1
  Bi  Bi4  1  0.25000000  0.02590788  0.78907137  1
  Bi  Bi5  1  0.75000000  0.97409212  0.21092863  1
loop_
_geom_bond_atom_site_label_1
_geom_bond_atom_site_label_2
_geom_bond_distance
_geom_bond_site_symmetry_2
Al0 Bi5 2.762937 1_545
Al0 Bi2 2.769797 1_655
Al0 Bi0 2.937016 1_645
Al0 Bi1 2.940524 1_555
Al1 Bi4 2.762937 1_565
Al1 Bi3 2.769797 1_555
Al1 Bi1 2.937016 1_565
Al1 Bi0 2.940524 1_555
Al2 Bi5 2.762937 1_545
Al2 Bi2 2.769797 1_555
Al2 Bi0 2.937016 1_545
Al2 Bi1 2.940524 1_555
Al3 Bi4 2.762937 1_565
Al3 Bi3 2.769797 1_455
Al3 Bi1 2.937016 1_465
Al3 Bi0 2.940524 1_555
Bi0 Cs4 3.932794 1_555
Bi0 Cs4 3.932794 1_455
Bi0 Cs0 3.989673 1_555
Bi0 Cs3 4.161561 1_555
Bi0 Cs5 4.255756 1_555
Bi1 Cs0 3.932794 1_555
Bi1 Cs0 3.932794 1_655
Bi1 Cs4 3.989673 1_555
Bi1 Cs2 4.161561 1_555
Bi1 Cs1 4.255756 1_555
Bi2 Cs0 3.762832 1_555
Bi2 Cs2 3.873716 1_455
Bi2 Cs2 3.873716 1_555
Bi2 Cs3 4.008043 1_554
Bi3 Cs4 3.762832 1_555
Bi3 Cs3 3.873716 1_555
Bi3 Cs3 3.873716 1_655
Bi3 Cs2 4.008043 1_556
Bi4 Cs0 3.760582 1_555
Bi4 Cs1 3.870218 1_555
Bi4 Cs1 3.870218 1_455
Bi4 Cs5 4.019002 1_546
Bi5 Cs4 3.760582 1_555
Bi5 Cs5 3.870218 1_555
Bi5 Cs5 3.870218 1_655
Bi5 Cs1 4.019002 1_564
