# generated using pymatgen
data_K3VS4
_symmetry_space_group_name_H-M   'P 1'
_cell_length_a   9.15110591
_cell_length_b   9.20845207
_cell_length_c   10.58299046
_cell_angle_alpha   90.00000000
_cell_angle_beta   90.00000000
_cell_angle_gamma   90.00000000
_symmetry_Int_Tables_number   1
_chemical_formula_structural   K3VS4
_chemical_formula_sum   'K12 V4 S16'
_cell_volume   891.80236194
_cell_formula_units_Z   4
loop_
 _symmetry_equiv_pos_site_id
 _symmetry_equiv_pos_as_xyz
  1  'x, y, z'
loop_
 _atom_site_type_symbol
 _atom_site_label
 _atom_site_symmetry_multiplicity
 _atom_site_fract_x
 _atom_site_fract_y
 _atom_site_fract_z
 _atom_site_occupancy
  K  K0  1  0.05330736  0.20792552  0.04471746  1
  K  K1  1  0.13782100  0.41700145  0.75000000  1
  K  K2  1  0.36217900  0.91700145  0.25000000  1
  K  K3  1  0.63782100  0.08299855  0.75000000  1
  K  K4  1  0.86217900  0.58299855  0.25000000  1
  K  K5  1  0.94669264  0.79207448  0.54471746  1
  K  K6  1  0.55330736  0.29207448  0.45528254  1
  K  K7  1  0.44669264  0.70792552  0.95528254  1
  K  K8  1  0.55330736  0.29207448  0.04471746  1
  K  K9  1  0.05330736  0.20792552  0.45528254  1
  K  K10  1  0.44669264  0.70792552  0.54471746  1
  K  K11  1  0.94669264  0.79207448  0.95528254  1
  V  V0  1  0.78350524  0.01449529  0.25000000  1
  V  V1  1  0.71649476  0.51449529  0.75000000  1
  V  V2  1  0.28350524  0.48550471  0.25000000  1
  V  V3  1  0.21649476  0.98550471  0.75000000  1
  S  S0  1  0.33113179  0.05104693  0.91759186  1
  S  S1  1  0.19710001  0.75265620  0.75000000  1
  S  S2  1  0.30289999  0.25265620  0.25000000  1
  S  S3  1  0.69710001  0.74734380  0.75000000  1
  S  S4  1  0.80289999  0.24734380  0.25000000  1
  S  S5  1  0.00027628  0.07953014  0.75000000  1
  S  S6  1  0.49972372  0.57953014  0.25000000  1
  S  S7  1  0.50027628  0.42046986  0.75000000  1
  S  S8  1  -0.00027628  0.92046986  0.25000000  1
  S  S9  1  0.66886821  0.94895307  0.41759186  1
  S  S10  1  0.83113179  0.44895307  0.58240814  1
  S  S11  1  0.16886821  0.55104693  0.08240814  1
  S  S12  1  0.66886821  0.94895307  0.08240814  1
  S  S13  1  0.33113179  0.05104693  0.58240814  1
  S  S14  1  0.16886821  0.55104693  0.41759186  1
  S  S15  1  0.83113179  0.44895307  0.91759186  1
loop_
_geom_bond_atom_site_label_1
_geom_bond_atom_site_label_2
_geom_bond_distance
_geom_bond_site_symmetry_2
K0 S4 3.178446 1_455
K0 S2 3.179042 1_555
K0 S0 3.218806 1_554
K0 S15 3.296948 1_454
K0 S11 3.355684 1_555
K0 S5 3.370684 1_554
K0 S8 3.459326 1_545
K1 S1 3.138103 1_555
K1 S7 3.317020 1_555
K1 S10 3.333017 1_455
K1 S15 3.333017 1_455
K1 S5 3.352819 1_555
K2 S2 3.138103 1_565
K2 S8 3.317020 1_555
K2 S12 3.333017 1_555
K2 S9 3.333017 1_555
K2 S6 3.352819 1_555
K3 S3 3.138103 1_545
K3 S5 3.317020 1_655
K3 S13 3.333017 1_555
K3 S0 3.333017 1_555
K3 S7 3.352819 1_555
K4 S4 3.138103 1_555
K4 S6 3.317020 1_555
K4 S11 3.333017 1_655
K4 S14 3.333017 1_655
K4 S8 3.352819 1_655
K5 S1 3.178446 1_655
K5 S3 3.179042 1_555
K5 S9 3.218806 1_555
K5 S14 3.296948 1_655
K5 S10 3.355684 1_555
K5 S8 3.370684 1_655
K5 S5 3.459326 1_665
K6 S2 3.178446 1_555
K6 S4 3.179042 1_555
K6 S10 3.218806 1_555
K6 S13 3.296948 1_555
K6 S9 3.355684 1_545
K6 S7 3.370684 1_555
K6 S6 3.459326 1_555
K7 S3 3.178446 1_555
K7 S1 3.179042 1_555
K7 S11 3.218806 1_556
K7 S12 3.296948 1_556
K7 S0 3.355684 1_565
K7 S6 3.370684 1_556
K7 S7 3.459326 1_555
K8 S2 3.178446 1_555
K8 S4 3.179042 1_555
K8 S15 3.218806 1_554
K8 S0 3.296948 1_554
K8 S12 3.355684 1_545
K8 S7 3.370684 1_554
K8 S6 3.459326 1_555
K9 S4 3.178446 1_455
K9 S2 3.179042 1_555
K9 S13 3.218806 1_555
K9 S10 3.296948 1_455
K9 S14 3.355684 1_555
K9 S5 3.370684 1_555
K9 S8 3.459326 1_545
K10 S3 3.178446 1_555
K10 S1 3.179042 1_555
K10 S14 3.218806 1_555
K10 S9 3.296948 1_555
K10 S13 3.355684 1_565
K10 S6 3.370684 1_555
K10 S7 3.459326 1_555
K11 S1 3.178446 1_655
K11 S3 3.179042 1_555
K11 S12 3.218806 1_556
K11 S11 3.296948 1_656
K11 S15 3.355684 1_555
K11 S8 3.370684 1_656
K11 S5 3.459326 1_665
S0 V3 2.147212 1_545
S1 V3 2.151507 1_555
S2 V2 2.151507 1_555
S3 V1 2.151507 1_555
S4 V0 2.151507 1_555
S5 V3 2.159784 1_545
S6 V2 2.159784 1_555
S7 V1 2.159784 1_555
S8 V0 2.159784 1_465
S9 V0 2.147212 1_565
S10 V1 2.147212 1_555
S11 V2 2.147212 1_555
S12 V0 2.147212 1_565
S13 V3 2.147212 1_545
S14 V2 2.147212 1_555
S15 V1 2.147212 1_555
