# generated using pymatgen
data_U12Ir4Se31
_symmetry_space_group_name_H-M   'P 1'
_cell_length_a   11.86193800
_cell_length_b   11.86193800
_cell_length_c   11.86193800
_cell_angle_alpha   109.55181029
_cell_angle_beta   109.55181029
_cell_angle_gamma   109.31016128
_symmetry_Int_Tables_number   1
_chemical_formula_structural   U12Ir4Se31
_chemical_formula_sum   'U12 Ir4 Se31'
_cell_volume   1284.82058338
_cell_formula_units_Z   1
loop_
 _symmetry_equiv_pos_site_id
 _symmetry_equiv_pos_as_xyz
  1  'x, y, z'
loop_
 _atom_site_type_symbol
 _atom_site_label
 _atom_site_symmetry_multiplicity
 _atom_site_fract_x
 _atom_site_fract_y
 _atom_site_fract_z
 _atom_site_occupancy
  U  U0  1  0.99906700  0.29501600  0.70405200  1
  U  U1  1  0.40903600  0.70498400  0.70405200  1
  U  U2  1  0.30148300  0.30148300  0.60296600  1
  U  U3  1  0.29501600  0.59096400  0.29594800  1
  U  U4  1  0.29501600  0.99906700  0.70405200  1
  U  U5  1  0.30148300  0.69851700  0.00000000  1
  U  U6  1  0.70498400  0.00093300  0.29594800  1
  U  U7  1  0.70498400  0.40903600  0.70405200  1
  U  U8  1  0.69851700  0.69851700  0.39703400  1
  U  U9  1  0.59096400  0.29501600  0.29594800  1
  U  U10  1  0.69851700  0.30148300  0.00000000  1
  U  U11  1  0.00093300  0.70498400  0.29594800  1
  Ir  Ir0  1  0.00000000  0.50000000  0.00000000  1
  Ir  Ir1  1  0.50000000  0.50000000  0.50000000  1
  Ir  Ir2  1  0.50000000  0.00000000  0.00000000  1
  Ir  Ir3  1  0.00000000  0.00000000  0.50000000  1
  Se  Se0  1  0.00071100  0.56352700  0.81817800  1
  Se  Se1  1  0.99928900  0.81746700  0.56281700  1
  Se  Se2  1  0.25465100  0.81746700  0.81817800  1
  Se  Se3  1  0.25000000  0.75000000  0.50000000  1
  Se  Se4  1  0.23450200  0.50000000  0.73450200  1
  Se  Se5  1  0.18818100  0.18818100  0.74875400  1
  Se  Se6  1  0.18253300  0.74534900  0.18182200  1
  Se  Se7  1  0.25465100  0.43647300  0.43718300  1
  Se  Se8  1  0.18818100  0.43942700  0.00000000  1
  Se  Se9  1  0.18253300  0.00071100  0.43718300  1
  Se  Se10  1  0.43647300  0.99928900  0.18182200  1
  Se  Se11  1  0.56057300  0.56057300  0.74875400  1
  Se  Se12  1  0.56352700  0.74534900  0.56281700  1
  Se  Se13  1  0.50000000  0.76549800  0.26549800  1
  Se  Se14  1  0.50000000  0.23450200  0.73450200  1
  Se  Se15  1  0.43647300  0.25465100  0.43718300  1
  Se  Se16  1  0.43942700  0.43942700  0.25124600  1
  Se  Se17  1  0.56352700  0.00071100  0.81817800  1
  Se  Se18  1  0.56057300  0.81181900  0.00000000  1
  Se  Se19  1  0.81746700  0.99928900  0.56281700  1
  Se  Se20  1  0.50000000  0.50000000  0.00000000  1
  Se  Se21  1  0.74534900  0.56352700  0.56281700  1
  Se  Se22  1  0.43942700  0.18818100  0.00000000  1
  Se  Se23  1  0.81746700  0.25465100  0.81817800  1
  Se  Se24  1  0.81181900  0.81181900  0.25124600  1
  Se  Se25  1  0.76549800  0.50000000  0.26549800  1
  Se  Se26  1  0.75000000  0.25000000  0.50000000  1
  Se  Se27  1  0.74534900  0.18253300  0.18182200  1
  Se  Se28  1  0.81181900  0.56057300  0.00000000  1
  Se  Se29  1  0.00071100  0.18253300  0.43718300  1
  Se  Se30  1  0.99928900  0.43647300  0.18182200  1
loop_
_geom_bond_atom_site_label_1
_geom_bond_atom_site_label_2
_geom_bond_distance
_geom_bond_site_symmetry_2
Ir0 Se30 2.513027 1_455
Ir0 Se6 2.513027 1_555
Ir0 Se0 2.513027 1_554
Ir0 Se23 2.513027 1_454
Ir0 Se28 2.561186 1_455
Ir0 Se8 2.561186 1_555
Ir1 Se12 2.513025 1_555
Ir1 Se21 2.513025 1_555
Ir1 Se7 2.513025 1_555
Ir1 Se15 2.513025 1_555
Ir1 Se11 2.561186 1_555
Ir1 Se16 2.561186 1_555
Ir2 Se10 2.513027 1_545
Ir2 Se27 2.513027 1_555
Ir2 Se17 2.513027 1_554
Ir2 Se2 2.513027 1_544
Ir2 Se18 2.561186 1_545
Ir2 Se22 2.561186 1_555
Ir3 Se29 2.513034 1_555
Ir3 Se9 2.513034 1_555
Ir3 Se1 2.513034 1_445
Ir3 Se19 2.513034 1_445
Ir3 Se5 2.561186 1_555
Ir3 Se24 2.561186 1_445
Se0 U7 2.899273 1_455
Se0 U5 2.950318 1_556
Se0 U0 3.005484 1_455
Se1 U4 2.899272 1_655
Se1 U8 2.950319 1_555
Se1 U11 3.005507 1_655
Se2 U4 2.899263 1_555
Se2 U5 2.950318 1_556
Se2 U1 3.005490 1_555
Se3 U4 2.859643 1_555
Se3 U11 2.859643 1_555
Se3 U1 2.859651 1_555
Se3 U3 2.859651 1_555
Se4 U1 2.843928 1_555
Se4 U0 2.843936 1_455
Se4 U5 2.866834 1_556
Se4 U2 2.866834 1_555
Se5 U0 2.907421 1_455
Se5 U4 2.907421 1_545
Se5 U2 2.918865 1_555
Se6 U11 2.899263 1_555
Se6 U5 2.950318 1_555
Se6 U3 3.005490 1_555
Se7 U3 2.899263 1_555
Se7 U2 2.950327 1_555
Se7 U1 3.005496 1_555
Se8 U3 2.907411 1_555
Se8 U0 2.907413 1_454
Se8 U5 2.918865 1_555
Se9 U11 2.899272 1_545
Se9 U2 2.950319 1_555
Se9 U4 3.005507 1_545
Se10 U9 2.899273 1_565
Se10 U5 2.950318 1_555
Se10 U6 3.005484 1_565
Se11 U7 2.907411 1_555
Se11 U1 2.907411 1_555
Se11 U2 2.918865 1_555
Se12 U1 2.899263 1_555
Se12 U8 2.950327 1_555
Se12 U3 3.005496 1_555
Se13 U3 2.843928 1_555
Se13 U6 2.843936 1_565
Se13 U5 2.866834 1_555
Se13 U8 2.866834 1_555
Se14 U7 2.843928 1_555
Se14 U4 2.843936 1_545
Se14 U10 2.866834 1_556
Se14 U2 2.866834 1_555
Se15 U9 2.899263 1_555
Se15 U2 2.950327 1_555
Se15 U7 3.005496 1_555
Se16 U9 2.907411 1_555
Se16 U3 2.907411 1_555
Se16 U8 2.918865 1_555
Se17 U1 2.899273 1_545
Se17 U10 2.950318 1_556
Se17 U4 3.005484 1_545
Se18 U1 2.907411 1_554
Se18 U6 2.907413 1_565
Se18 U5 2.918865 1_555
Se19 U0 2.899272 1_565
Se19 U8 2.950319 1_555
Se19 U6 3.005507 1_565
Se20 U5 3.841541 1_555
Se20 U10 3.841541 1_555
Se20 U2 3.841541 1_554
Se20 U8 3.841541 1_555
Se21 U7 2.899263 1_555
Se21 U8 2.950327 1_555
Se21 U9 3.005496 1_555
Se22 U9 2.907411 1_555
Se22 U4 2.907413 1_544
Se22 U10 2.918865 1_555
Se23 U0 2.899263 1_555
Se23 U10 2.950318 1_556
Se23 U7 3.005490 1_555
Se24 U6 2.907421 1_565
Se24 U11 2.907421 1_655
Se24 U8 2.918865 1_555
Se25 U9 2.843928 1_555
Se25 U11 2.843936 1_655
Se25 U10 2.866834 1_555
Se25 U8 2.866834 1_555
Se26 U0 2.859643 1_555
Se26 U6 2.859643 1_555
Se26 U7 2.859651 1_555
Se26 U9 2.859651 1_555
Se27 U6 2.899263 1_555
Se27 U10 2.950318 1_555
Se27 U9 3.005490 1_555
Se28 U7 2.907411 1_554
Se28 U11 2.907413 1_655
Se28 U10 2.918865 1_555
Se29 U6 2.899272 1_455
Se29 U2 2.950319 1_555
Se29 U0 3.005507 1_455
Se30 U3 2.899273 1_655
Se30 U10 2.950318 1_555
Se30 U11 3.005484 1_655
