# generated using pymatgen
data_Er2Pd2Pb
_symmetry_space_group_name_H-M   'P 1'
_cell_length_a   3.59183987
_cell_length_b   7.78571382
_cell_length_c   7.78571382
_cell_angle_alpha   90.00000000
_cell_angle_beta   90.00000000
_cell_angle_gamma   90.00000000
_symmetry_Int_Tables_number   1
_chemical_formula_structural   Er2Pd2Pb
_chemical_formula_sum   'Er4 Pd4 Pb2'
_cell_volume   217.72777750
_cell_formula_units_Z   2
loop_
 _symmetry_equiv_pos_site_id
 _symmetry_equiv_pos_as_xyz
  1  'x, y, z'
loop_
 _atom_site_type_symbol
 _atom_site_label
 _atom_site_symmetry_multiplicity
 _atom_site_fract_x
 _atom_site_fract_y
 _atom_site_fract_z
 _atom_site_occupancy
  Er  Er0  1  0.50000000  0.17065899  0.67065899  1
  Er  Er1  1  0.50000000  0.32934101  0.17065899  1
  Er  Er2  1  0.50000000  0.67065899  0.82934101  1
  Er  Er3  1  0.50000000  0.82934101  0.32934101  1
  Pd  Pd0  1  0.00000000  0.12559853  0.37440047  1
  Pd  Pd1  1  0.00000000  0.62559853  0.12559853  1
  Pd  Pd2  1  -0.00000000  0.87440147  0.62559853  1
  Pd  Pd3  1  -0.00000000  0.37440047  0.87440147  1
  Pb  Pb0  1  0.00000000  0.00000000  -0.00000000  1
  Pb  Pb1  1  -0.00000000  0.50000000  0.50000000  1
loop_
_geom_bond_atom_site_label_1
_geom_bond_atom_site_label_2
_geom_bond_distance
_geom_bond_site_symmetry_2
Er0 Pd3 2.873652 1_655
Er0 Pd3 2.873652 1_555
Er0 Pd2 2.944266 1_645
Er0 Pd2 2.944266 1_545
Er0 Pd0 2.944272 1_655
Er0 Pd0 2.944272 1_555
Er0 Pb1 3.400833 1_655
Er0 Pb1 3.400833 1_555
Er0 Pb0 3.400833 1_556
Er0 Pb0 3.400833 1_656
Er1 Pd0 2.873652 1_555
Er1 Pd0 2.873652 1_655
Er1 Pd3 2.944265 1_654
Er1 Pd3 2.944265 1_554
Er1 Pd1 2.944266 1_655
Er1 Pd1 2.944266 1_555
Er1 Pb0 3.400833 1_655
Er1 Pb0 3.400833 1_555
Er1 Pb1 3.400833 1_655
Er1 Pb1 3.400833 1_555
Er2 Pd2 2.873656 1_655
Er2 Pd2 2.873656 1_555
Er2 Pd1 2.944266 1_556
Er2 Pd1 2.944266 1_656
Er2 Pd3 2.944272 1_655
Er2 Pd3 2.944272 1_555
Er2 Pb0 3.400833 1_666
Er2 Pb0 3.400833 1_566
Er2 Pb1 3.400833 1_655
Er2 Pb1 3.400833 1_555
Er3 Pd1 2.873656 1_655
Er3 Pd1 2.873656 1_555
Er3 Pd0 2.944265 1_665
Er3 Pd0 2.944265 1_565
Er3 Pd2 2.944266 1_555
Er3 Pd2 2.944266 1_655
Er3 Pb0 3.400833 1_565
Er3 Pb0 3.400833 1_665
Er3 Pb1 3.400833 1_655
Er3 Pb1 3.400833 1_555
Pd0 Pd2 2.765851 1_545
Pd1 Pd3 2.765851 1_554
Pb0 Pd3 3.074625 1_554
Pb0 Pd0 3.074625 1_555
Pb0 Pd1 3.074632 1_545
Pb0 Pd2 3.074632 1_544
Pb1 Pd1 3.074632 1_555
Pb1 Pd2 3.074632 1_555
Pb1 Pd0 3.074635 1_555
Pb1 Pd3 3.074635 1_555
