# generated using pymatgen
data_Cs2LiFe3F12
_symmetry_space_group_name_H-M   'P 1'
_cell_length_a   7.24843830
_cell_length_b   7.24843864
_cell_length_c   7.24843858
_cell_angle_alpha   61.06338253
_cell_angle_beta   61.06338116
_cell_angle_gamma   61.06338849
_symmetry_Int_Tables_number   1
_chemical_formula_structural   Cs2LiFe3F12
_chemical_formula_sum   'Cs2 Li1 Fe3 F12'
_cell_volume   275.73624783
_cell_formula_units_Z   1
loop_
 _symmetry_equiv_pos_site_id
 _symmetry_equiv_pos_as_xyz
  1  'x, y, z'
loop_
 _atom_site_type_symbol
 _atom_site_label
 _atom_site_symmetry_multiplicity
 _atom_site_fract_x
 _atom_site_fract_y
 _atom_site_fract_z
 _atom_site_occupancy
  Cs  Cs0  1  0.36884814  0.36884814  0.36884814  1
  Cs  Cs1  1  0.63115186  0.63115186  0.63115186  1
  Li  Li0  1  0.00000000  0.00000000  0.00000000  1
  Fe  Fe0  1  0.50000000  0.00000000  0.00000000  1
  Fe  Fe1  1  0.00000000  0.00000000  0.50000000  1
  Fe  Fe2  1  0.00000000  0.50000000  0.00000000  1
  F  F0  1  0.93195377  0.31904043  0.31904043  1
  F  F1  1  0.32484223  0.93342149  0.93342149  1
  F  F2  1  0.31904043  0.31904043  0.93195377  1
  F  F3  1  0.93342149  0.93342149  0.32484223  1
  F  F4  1  0.93342149  0.32484223  0.93342149  1
  F  F5  1  0.31904043  0.93195377  0.31904043  1
  F  F6  1  0.06804623  0.68095957  0.68095957  1
  F  F7  1  0.67515777  0.06657851  0.06657851  1
  F  F8  1  0.68095957  0.68095957  0.06804623  1
  F  F9  1  0.06657851  0.06657851  0.67515777  1
  F  F10  1  0.06657851  0.67515777  0.06657851  1
  F  F11  1  0.68095957  0.06804623  0.68095957  1
loop_
_geom_bond_atom_site_label_1
_geom_bond_atom_site_label_2
_geom_bond_distance
_geom_bond_site_symmetry_2
Cs0 F9 3.124251 1_555
Cs0 F10 3.124252 1_555
Cs0 F7 3.124252 1_555
Cs0 F8 3.224332 1_555
Cs0 F11 3.224333 1_555
Cs0 F6 3.224333 1_555
Cs1 F3 3.124251 1_555
Cs1 F4 3.124252 1_555
Cs1 F1 3.124252 1_555
Cs1 F2 3.224332 1_555
Cs1 F5 3.224333 1_555
Cs1 F0 3.224333 1_555
F0 Fe2 1.974498 1_655
F0 Fe1 1.974498 1_655
F1 Fe0 1.867860 1_566
F1 Li0 2.009010 1_566
F2 Fe2 1.974498 1_556
F2 Fe0 1.974498 1_556
F3 Fe1 1.867860 1_665
F3 Li0 2.009010 1_665
F4 Fe2 1.867860 1_656
F4 Li0 2.009010 1_656
F5 Fe0 1.974498 1_565
F5 Fe1 1.974498 1_565
F6 Fe2 1.974498 1_556
F6 Fe1 1.974498 1_565
F7 Fe0 1.867860 1_555
F7 Li0 2.009010 1_655
F8 Fe2 1.974498 1_655
F8 Fe0 1.974498 1_565
F9 Fe1 1.867860 1_555
F9 Li0 2.009010 1_556
F10 Fe2 1.867860 1_555
F10 Li0 2.009010 1_565
F11 Fe0 1.974498 1_556
F11 Fe1 1.974498 1_655
