# generated using pymatgen
data_Rb3Sc(AsSe2)6
_symmetry_space_group_name_H-M   'P 1'
_cell_length_a   9.81142025
_cell_length_b   9.81142177
_cell_length_c   8.21902007
_cell_angle_alpha   90.00000000
_cell_angle_beta   90.00000000
_cell_angle_gamma   120.00000058
_symmetry_Int_Tables_number   1
_chemical_formula_structural   Rb3Sc(AsSe2)6
_chemical_formula_sum   'Rb3 Sc1 As6 Se12'
_cell_volume   685.19548702
_cell_formula_units_Z   1
loop_
 _symmetry_equiv_pos_site_id
 _symmetry_equiv_pos_as_xyz
  1  'x, y, z'
loop_
 _atom_site_type_symbol
 _atom_site_label
 _atom_site_symmetry_multiplicity
 _atom_site_fract_x
 _atom_site_fract_y
 _atom_site_fract_z
 _atom_site_occupancy
  Rb  Rb0  1  0.00000000  0.00000000  0.00000000  1
  Rb  Rb1  1  0.33333300  0.66666700  0.85411577  1
  Rb  Rb2  1  0.66666700  0.33333300  0.14588423  1
  Sc  Sc0  1  0.00000000  0.00000000  0.50000000  1
  As  As0  1  0.28530950  0.83602493  0.39164847  1
  As  As1  1  0.16397507  0.44928457  0.39164847  1
  As  As2  1  0.55071543  0.71469050  0.39164847  1
  As  As3  1  0.71469050  0.16397507  0.60835153  1
  As  As4  1  0.83602493  0.55071543  0.60835153  1
  As  As5  1  0.44928457  0.28530950  0.60835153  1
  Se  Se0  1  0.24804396  0.04431806  0.30740475  1
  Se  Se1  1  0.95568194  0.20372690  0.30740475  1
  Se  Se2  1  0.79627310  0.75195604  0.30740475  1
  Se  Se3  1  0.75195604  0.95568194  0.69259525  1
  Se  Se4  1  0.04431806  0.79627310  0.69259525  1
  Se  Se5  1  0.20372690  0.24804396  0.69259525  1
  Se  Se6  1  0.52413934  0.90917554  0.23024919  1
  Se  Se7  1  0.09082446  0.61496281  0.23024919  1
  Se  Se8  1  0.38503719  0.47586066  0.23024919  1
  Se  Se9  1  0.47586066  0.09082446  0.76975081  1
  Se  Se10  1  0.90917554  0.38503719  0.76975081  1
  Se  Se11  1  0.61496281  0.52413934  0.76975081  1
loop_
_geom_bond_atom_site_label_1
_geom_bond_atom_site_label_2
_geom_bond_distance
_geom_bond_site_symmetry_2
Rb0 Se0 3.381880 1_555
Rb0 Se3 3.381880 1_444
Rb0 Se2 3.381882 1_445
Rb0 Se5 3.381882 1_554
Rb0 Se1 3.381886 1_455
Rb0 Se4 3.381886 1_544
Rb1 Se10 3.733037 1_455
Rb1 Se11 3.733038 1_555
Rb1 Se9 3.733038 1_565
Rb1 Se7 3.777392 1_556
Rb1 Se6 3.777396 1_556
Rb1 Se8 3.777403 1_556
Rb1 Se4 3.876357 1_555
Rb1 Se3 3.876370 1_555
Rb1 Se5 3.876375 1_555
Rb2 Se7 3.733037 1_655
Rb2 Se8 3.733038 1_555
Rb2 Se6 3.733038 1_545
Rb2 Se10 3.777392 1_554
Rb2 Se9 3.777396 1_554
Rb2 Se11 3.777403 1_554
Rb2 Se1 3.876357 1_555
Rb2 Se0 3.876370 1_555
Rb2 Se2 3.876375 1_555
Sc0 Se0 2.749416 1_555
Sc0 Se3 2.749416 1_445
Sc0 Se5 2.749419 1_555
Sc0 Se2 2.749419 1_445
Sc0 Se1 2.749424 1_455
Sc0 Se4 2.749424 1_545
As0 Se0 2.353047 1_565
As0 Se7 2.442625 1_555
As0 Se6 2.466559 1_555
As1 Se1 2.353041 1_455
As1 Se8 2.442628 1_555
As1 Se7 2.466551 1_555
As2 Se2 2.353038 1_555
As2 Se6 2.442620 1_555
As2 Se8 2.466557 1_555
As3 Se3 2.353047 1_545
As3 Se10 2.442625 1_555
As3 Se9 2.466559 1_555
As4 Se4 2.353041 1_655
As4 Se11 2.442628 1_555
As4 Se10 2.466551 1_555
As5 Se5 2.353038 1_555
As5 Se9 2.442620 1_555
As5 Se11 2.466557 1_555
