# generated using pymatgen
data_CdRuF6
_symmetry_space_group_name_H-M   'P 1'
_cell_length_a   5.74281641
_cell_length_b   5.70263026
_cell_length_c   5.71300778
_cell_angle_alpha   53.38736000
_cell_angle_beta   53.30733746
_cell_angle_gamma   52.68088986
_symmetry_Int_Tables_number   1
_chemical_formula_structural   CdRuF6
_chemical_formula_sum   'Cd1 Ru1 F6'
_cell_volume   110.97525877
_cell_formula_units_Z   1
loop_
 _symmetry_equiv_pos_site_id
 _symmetry_equiv_pos_as_xyz
  1  'x, y, z'
loop_
 _atom_site_type_symbol
 _atom_site_label
 _atom_site_symmetry_multiplicity
 _atom_site_fract_x
 _atom_site_fract_y
 _atom_site_fract_z
 _atom_site_occupancy
  Cd  Cd0  1  0.50000000  0.50000000  0.50000000  1
  Ru  Ru0  1  0.00000000  0.00000000  0.00000000  1
  F  F0  1  0.07458532  0.37940544  0.78243402  1
  F  F1  1  0.38534280  0.77330501  0.06857974  1
  F  F2  1  0.22372488  0.93411040  0.60768571  1
  F  F3  1  0.61465720  0.22669499  0.93142026  1
  F  F4  1  0.92541468  0.62059456  0.21756598  1
  F  F5  1  0.77627512  0.06588960  0.39231429  1
loop_
_geom_bond_atom_site_label_1
_geom_bond_atom_site_label_2
_geom_bond_distance
_geom_bond_site_symmetry_2
Cd0 F2 2.216299 1_555
Cd0 F5 2.216299 1_555
Cd0 F4 2.246726 1_555
Cd0 F0 2.246726 1_555
Cd0 F3 2.247340 1_555
Cd0 F1 2.247340 1_555
F0 Ru0 1.920749 1_556
F1 Ru0 1.919666 1_565
F2 Ru0 1.947614 1_566
F3 Ru0 1.919666 1_656
F4 Ru0 1.920749 1_665
F5 Ru0 1.947614 1_655
