# generated using pymatgen
data_LiLu6Zn22Si
_symmetry_space_group_name_H-M   'P 1'
_cell_length_a   8.86879892
_cell_length_b   8.86879811
_cell_length_c   8.86879967
_cell_angle_alpha   60.00000501
_cell_angle_beta   60.00000803
_cell_angle_gamma   60.00000233
_symmetry_Int_Tables_number   1
_chemical_formula_structural   LiLu6Zn22Si
_chemical_formula_sum   'Li1 Lu6 Zn22 Si1'
_cell_volume   493.26406176
_cell_formula_units_Z   1
loop_
 _symmetry_equiv_pos_site_id
 _symmetry_equiv_pos_as_xyz
  1  'x, y, z'
loop_
 _atom_site_type_symbol
 _atom_site_label
 _atom_site_symmetry_multiplicity
 _atom_site_fract_x
 _atom_site_fract_y
 _atom_site_fract_z
 _atom_site_occupancy
  Li  Li0  1  0.00000000  0.00000000  0.00000000  1
  Lu  Lu0  1  0.71358289  0.28641711  0.28641711  1
  Lu  Lu1  1  0.28641711  0.71358289  0.71358289  1
  Lu  Lu2  1  0.28641711  0.71358289  0.28641711  1
  Lu  Lu3  1  0.71358289  0.28641711  0.71358289  1
  Lu  Lu4  1  0.28641711  0.28641711  0.71358289  1
  Lu  Lu5  1  0.71358289  0.71358289  0.28641711  1
  Zn  Zn0  1  0.12347881  0.12347881  0.12347881  1
  Zn  Zn1  1  0.87652119  0.87652119  0.87652119  1
  Zn  Zn2  1  0.12347881  0.12347881  0.62956557  1
  Zn  Zn3  1  0.12347881  0.62956557  0.12347881  1
  Zn  Zn4  1  0.87652119  0.87652119  0.37043443  1
  Zn  Zn5  1  0.87652119  0.37043443  0.87652119  1
  Zn  Zn6  1  0.62956557  0.12347881  0.12347881  1
  Zn  Zn7  1  0.37043443  0.87652119  0.87652119  1
  Zn  Zn8  1  0.50000000  0.00000000  0.00000000  1
  Zn  Zn9  1  0.00000000  0.50000000  0.50000000  1
  Zn  Zn10  1  0.00000000  0.50000000  0.00000000  1
  Zn  Zn11  1  0.50000000  0.00000000  0.50000000  1
  Zn  Zn12  1  0.00000000  0.00000000  0.50000000  1
  Zn  Zn13  1  0.50000000  0.50000000  0.00000000  1
  Zn  Zn14  1  0.32982415  0.32982415  0.32982415  1
  Zn  Zn15  1  0.67017585  0.67017585  0.67017585  1
  Zn  Zn16  1  0.32982415  0.32982415  0.01052856  1
  Zn  Zn17  1  0.32982415  0.01052856  0.32982415  1
  Zn  Zn18  1  0.67017585  0.67017585  0.98947144  1
  Zn  Zn19  1  0.67017585  0.98947144  0.67017585  1
  Zn  Zn20  1  0.01052856  0.32982415  0.32982415  1
  Zn  Zn21  1  0.98947144  0.67017585  0.67017585  1
  Si  Si0  1  0.50000000  0.50000000  0.50000000  1
loop_
_geom_bond_atom_site_label_1
_geom_bond_atom_site_label_2
_geom_bond_distance
_geom_bond_site_symmetry_2
Li0 Zn5 2.682443 1_454
Li0 Zn3 2.682443 1_545
Li0 Zn7 2.682443 1_544
Li0 Zn6 2.682443 1_455
Li0 Zn4 2.682444 1_445
Li0 Zn2 2.682444 1_554
Li0 Zn0 2.682458 1_555
Li0 Zn1 2.682458 1_444
Lu0 Si0 2.678837 1_555
Lu0 Zn14 3.067215 1_555
Lu0 Zn18 3.067219 1_554
Lu0 Zn19 3.067219 1_545
Lu0 Zn20 3.067224 1_655
Lu0 Zn11 3.168687 1_555
Lu0 Zn12 3.168687 1_655
Lu0 Zn13 3.168687 1_555
Lu0 Zn10 3.168687 1_655
Lu1 Si0 2.678837 1_555
Lu1 Zn15 3.067215 1_555
Lu1 Zn16 3.067219 1_556
Lu1 Zn17 3.067219 1_565
Lu1 Zn21 3.067224 1_455
Lu1 Zn11 3.168687 1_565
Lu1 Zn12 3.168687 1_565
Lu1 Zn13 3.168687 1_556
Lu1 Zn10 3.168687 1_556
Lu2 Si0 2.678837 1_555
Lu2 Zn14 3.067215 1_555
Lu2 Zn18 3.067219 1_554
Lu2 Zn21 3.067219 1_455
Lu2 Zn17 3.067224 1_565
Lu2 Zn12 3.168687 1_565
Lu2 Zn9 3.168687 1_555
Lu2 Zn8 3.168687 1_565
Lu2 Zn13 3.168687 1_555
Lu3 Si0 2.678837 1_555
Lu3 Zn15 3.067215 1_555
Lu3 Zn16 3.067219 1_556
Lu3 Zn20 3.067219 1_655
Lu3 Zn19 3.067224 1_545
Lu3 Zn12 3.168687 1_655
Lu3 Zn9 3.168687 1_655
Lu3 Zn8 3.168687 1_556
Lu3 Zn13 3.168687 1_556
Lu4 Si0 2.678837 1_555
Lu4 Zn14 3.067216 1_555
Lu4 Zn21 3.067218 1_455
Lu4 Zn19 3.067218 1_545
Lu4 Zn16 3.067224 1_556
Lu4 Zn11 3.168687 1_555
Lu4 Zn9 3.168687 1_555
Lu4 Zn8 3.168687 1_556
Lu4 Zn10 3.168687 1_556
Lu5 Si0 2.678837 1_555
Lu5 Zn15 3.067216 1_555
Lu5 Zn20 3.067218 1_655
Lu5 Zn17 3.067218 1_565
Lu5 Zn18 3.067224 1_554
Lu5 Zn11 3.168687 1_565
Lu5 Zn9 3.168687 1_655
Lu5 Zn8 3.168687 1_565
Lu5 Zn10 3.168687 1_655
Zn0 Zn16 2.717378 1_555
Zn0 Zn20 2.717378 1_555
Zn0 Zn17 2.717378 1_555
Zn0 Zn10 2.726697 1_555
Zn0 Zn8 2.726698 1_555
Zn0 Zn12 2.726698 1_555
Zn1 Zn18 2.717378 1_555
Zn1 Zn21 2.717378 1_555
Zn1 Zn19 2.717378 1_555
Zn1 Zn10 2.726697 1_656
Zn1 Zn8 2.726698 1_566
Zn1 Zn12 2.726698 1_665
Zn2 Zn20 2.717386 1_555
Zn2 Zn9 2.726697 1_555
Zn3 Zn9 2.726698 1_555
Zn4 Zn9 2.726697 1_655
Zn5 Zn9 2.726698 1_655
Zn6 Zn8 2.726712 1_555
Zn7 Zn8 2.726712 1_566
Zn10 Zn16 2.561339 1_555
Zn10 Zn18 2.561339 1_454
Zn10 Zn20 2.561340 1_555
Zn10 Zn21 2.561340 1_454
Zn10 Zn3 2.726712 1_555
Zn10 Zn5 2.726712 1_454
Zn11 Zn19 2.561332 1_545
Zn11 Zn17 2.561332 1_555
Zn11 Zn15 2.561336 1_545
Zn11 Zn14 2.561336 1_555
Zn11 Zn4 2.726698 1_545
Zn11 Zn2 2.726698 1_555
Zn11 Zn7 2.726698 1_545
Zn11 Zn6 2.726698 1_555
Zn12 Zn20 2.561339 1_555
Zn12 Zn21 2.561339 1_445
Zn12 Zn17 2.561339 1_555
Zn12 Zn19 2.561339 1_445
Zn12 Zn2 2.726712 1_555
Zn12 Zn4 2.726712 1_445
Zn13 Zn18 2.561331 1_554
Zn13 Zn16 2.561331 1_555
Zn13 Zn15 2.561337 1_554
Zn13 Zn14 2.561337 1_555
Zn13 Zn7 2.726697 1_554
Zn13 Zn6 2.726697 1_555
Zn13 Zn5 2.726698 1_554
Zn13 Zn3 2.726698 1_555
Zn14 Zn9 2.561337 1_555
Zn14 Zn3 2.717381 1_555
Zn14 Zn6 2.717381 1_555
Zn14 Zn2 2.717381 1_555
Zn14 Zn17 2.831768 1_555
Zn14 Zn20 2.831768 1_555
Zn14 Zn16 2.831769 1_555
Zn15 Zn9 2.561337 1_655
Zn15 Zn5 2.717381 1_555
Zn15 Zn7 2.717381 1_555
Zn15 Zn4 2.717381 1_555
Zn15 Zn19 2.831768 1_555
Zn15 Zn21 2.831768 1_555
Zn15 Zn18 2.831769 1_555
Zn16 Zn8 2.561339 1_555
Zn16 Zn3 2.717385 1_555
Zn16 Zn6 2.717385 1_555
Zn16 Zn17 2.831769 1_555
Zn16 Zn20 2.831769 1_555
Zn17 Zn8 2.561340 1_555
Zn17 Zn6 2.717385 1_555
Zn17 Zn2 2.717386 1_555
Zn17 Zn20 2.831768 1_555
Zn18 Zn8 2.561339 1_566
Zn18 Zn5 2.717385 1_555
Zn18 Zn7 2.717385 1_555
Zn18 Zn19 2.831769 1_555
Zn18 Zn21 2.831769 1_555
Zn19 Zn8 2.561340 1_566
Zn19 Zn7 2.717385 1_555
Zn19 Zn4 2.717386 1_555
Zn19 Zn21 2.831768 1_555
Zn20 Zn9 2.561331 1_555
Zn20 Zn3 2.717385 1_555
Zn21 Zn9 2.561331 1_655
Zn21 Zn5 2.717385 1_555
Zn21 Zn4 2.717386 1_555
