# generated using pymatgen
data_Y2Si5Pt2Rh
_symmetry_space_group_name_H-M   'P 1'
_cell_length_a   8.10581445
_cell_length_b   8.10581488
_cell_length_c   5.93021068
_cell_angle_alpha   68.62259809
_cell_angle_beta   68.62259622
_cell_angle_gamma   88.89267348
_symmetry_Int_Tables_number   1
_chemical_formula_structural   Y2Si5Pt2Rh
_chemical_formula_sum   'Y4 Si10 Pt4 Rh2'
_cell_volume   334.96062726
_cell_formula_units_Z   2
loop_
 _symmetry_equiv_pos_site_id
 _symmetry_equiv_pos_as_xyz
  1  'x, y, z'
loop_
 _atom_site_type_symbol
 _atom_site_label
 _atom_site_symmetry_multiplicity
 _atom_site_fract_x
 _atom_site_fract_y
 _atom_site_fract_z
 _atom_site_occupancy
  Y  Y0  1  0.86104816  0.59884448  0.77044792  1
  Y  Y1  1  0.13895184  0.40115552  0.22955208  1
  Y  Y2  1  0.40115552  0.13895184  0.72955208  1
  Y  Y3  1  0.59884448  0.86104816  0.27044792  1
  Si  Si0  1  0.77498988  0.22501012  0.75000000  1
  Si  Si1  1  0.22501012  0.77498988  0.25000000  1
  Si  Si2  1  0.50012711  0.49987289  0.75000000  1
  Si  Si3  1  0.49987289  0.50012711  0.25000000  1
  Si  Si4  1  0.22479858  0.77520142  0.75000000  1
  Si  Si5  1  0.77520142  0.22479858  0.25000000  1
  Si  Si6  1  0.25518637  0.04342466  0.35054553  1
  Si  Si7  1  0.74481363  0.95657534  0.64945447  1
  Si  Si8  1  0.95657534  0.74481363  0.14945447  1
  Si  Si9  1  0.04342466  0.25518637  0.85054553  1
  Pt  Pt0  1  0.52327455  0.24766551  0.11436558  1
  Pt  Pt1  1  0.75233449  0.47672545  0.38563442  1
  Pt  Pt2  1  0.47672545  0.75233449  0.88563442  1
  Pt  Pt3  1  0.24766551  0.52327455  0.61436558  1
  Rh  Rh0  1  0.99999014  0.00000986  0.25000000  1
  Rh  Rh1  1  0.00000986  0.99999014  0.75000000  1
loop_
_geom_bond_atom_site_label_1
_geom_bond_atom_site_label_2
_geom_bond_distance
_geom_bond_site_symmetry_2
Si0 Si9 2.494500 1_655
Si0 Si7 2.494500 1_545
Si0 Y2 3.177241 1_555
Si0 Y0 3.177241 1_555
Si0 Y1 3.252722 1_655
Si0 Y3 3.252722 1_546
Si1 Si8 2.494500 1_455
Si1 Si6 2.494500 1_565
Si1 Y3 3.177241 1_555
Si1 Y1 3.177241 1_555
Si1 Y0 3.252722 1_455
Si1 Y2 3.252722 1_564
Si2 Y0 3.104425 1_555
Si2 Y2 3.104425 1_555
Si2 Y1 3.108167 1_556
Si2 Y3 3.108167 1_555
Si3 Y1 3.104425 1_555
Si3 Y3 3.104425 1_555
Si3 Y0 3.108167 1_554
Si3 Y2 3.108167 1_555
Si4 Si8 2.497959 1_456
Si4 Si6 2.497959 1_565
Si4 Y3 3.180781 1_555
Si4 Y1 3.180781 1_556
Si4 Y0 3.244645 1_455
Si4 Y2 3.244645 1_565
Si5 Si9 2.497959 1_654
Si5 Si7 2.497959 1_545
Si5 Y2 3.180781 1_555
Si5 Y0 3.180781 1_554
Si5 Y1 3.244645 1_655
Si5 Y3 3.244645 1_545
Si6 Y1 2.946395 1_555
Si6 Y3 3.091745 1_545
Si6 Y2 3.208439 1_555
Si6 Y2 3.215787 1_554
Si7 Y0 2.946395 1_555
Si7 Y2 3.091745 1_565
Si7 Y3 3.208439 1_555
Si7 Y3 3.215787 1_556
Si8 Y3 2.946395 1_555
Si8 Y1 3.091745 1_655
Si8 Y0 3.208439 1_554
Si8 Y0 3.215787 1_555
Si9 Y2 2.946395 1_555
Si9 Y0 3.091745 1_455
Si9 Y1 3.208439 1_556
Si9 Y1 3.215787 1_555
Pt0 Si6 2.377925 1_555
Pt0 Si5 2.434233 1_555
Pt0 Si0 2.434426 1_554
Pt0 Si2 2.438004 1_554
Pt0 Si3 2.438127 1_555
Pt0 Y3 3.045891 1_545
Pt0 Y2 3.179710 1_554
Pt0 Y2 3.181670 1_555
Pt0 Y1 3.261556 1_555
Pt0 Y0 3.428831 1_554
Pt1 Si8 2.377925 1_555
Pt1 Si5 2.434233 1_555
Pt1 Si0 2.434427 1_555
Pt1 Si2 2.438004 1_555
Pt1 Si3 2.438127 1_555
Pt1 Y1 3.045891 1_655
Pt1 Y0 3.179710 1_555
Pt1 Y0 3.181670 1_554
Pt1 Y3 3.261556 1_555
Pt1 Y2 3.428831 1_555
Pt2 Si7 2.377925 1_555
Pt2 Si4 2.434233 1_555
Pt2 Si1 2.434426 1_556
Pt2 Si3 2.438004 1_556
Pt2 Si2 2.438127 1_555
Pt2 Y2 3.045891 1_565
Pt2 Y3 3.179710 1_556
Pt2 Y3 3.181670 1_555
Pt2 Y0 3.261556 1_555
Pt2 Y1 3.428831 1_556
Pt3 Si9 2.377925 1_555
Pt3 Si4 2.434233 1_555
Pt3 Si1 2.434427 1_555
Pt3 Si3 2.438004 1_555
Pt3 Si2 2.438127 1_555
Pt3 Y0 3.045891 1_455
Pt3 Y1 3.179710 1_555
Pt3 Y1 3.181670 1_556
Pt3 Y2 3.261556 1_555
Pt3 Y3 3.428831 1_555
Rh0 Si6 2.416327 1_655
Rh0 Si8 2.416327 1_545
Rh0 Si7 2.421127 1_545
Rh0 Si9 2.421127 1_654
Rh0 Si5 2.551812 1_555
Rh0 Si1 2.554437 1_645
Rh0 Y3 3.407492 1_545
Rh0 Y1 3.407492 1_655
Rh0 Y2 3.414532 1_654
Rh0 Y0 3.414532 1_545
Rh1 Si7 2.416327 1_455
Rh1 Si9 2.416327 1_565
Rh1 Si6 2.421127 1_565
Rh1 Si8 2.421127 1_456
Rh1 Si4 2.551812 1_555
Rh1 Si0 2.554437 1_465
Rh1 Y2 3.407492 1_565
Rh1 Y0 3.407492 1_455
Rh1 Y3 3.414532 1_456
Rh1 Y1 3.414532 1_565
