# generated using pymatgen
data_MnAgIO6
_symmetry_space_group_name_H-M   'P 1'
_cell_length_a   5.03433038
_cell_length_b   5.03433024
_cell_length_c   5.14912551
_cell_angle_alpha   90.00000000
_cell_angle_beta   90.00000000
_cell_angle_gamma   119.99998221
_symmetry_Int_Tables_number   1
_chemical_formula_structural   MnAgIO6
_chemical_formula_sum   'Mn1 Ag1 I1 O6'
_cell_volume   113.01799582
_cell_formula_units_Z   1
loop_
 _symmetry_equiv_pos_site_id
 _symmetry_equiv_pos_as_xyz
  1  'x, y, z'
loop_
 _atom_site_type_symbol
 _atom_site_label
 _atom_site_symmetry_multiplicity
 _atom_site_fract_x
 _atom_site_fract_y
 _atom_site_fract_z
 _atom_site_occupancy
  Mn  Mn0  1  0.33333300  0.66666700  0.00000000  1
  Ag  Ag0  1  0.66666700  0.33333300  0.50000000  1
  I  I0  1  0.00000000  0.00000000  0.00000000  1
  O  O0  1  0.03922261  0.33099798  0.79584281  1
  O  O1  1  0.29177537  0.96077739  0.79584281  1
  O  O2  1  0.29177537  0.33099798  0.20415719  1
  O  O3  1  0.66900202  0.70822463  0.79584281  1
  O  O4  1  0.66900202  0.96077739  0.20415719  1
  O  O5  1  0.03922261  0.70822463  0.20415719  1
loop_
_geom_bond_atom_site_label_1
_geom_bond_atom_site_label_2
_geom_bond_distance
_geom_bond_site_symmetry_2
Mn0 O1 1.910746 1_554
Mn0 O5 1.910746 1_555
Mn0 O0 1.910749 1_554
Mn0 O4 1.910749 1_555
Mn0 O2 1.910751 1_555
Mn0 O3 1.910751 1_554
Ag0 O4 2.420843 1_545
Ag0 O0 2.420843 1_655
Ag0 O5 2.420845 1_655
Ag0 O1 2.420845 1_545
Ag0 O3 2.420847 1_555
Ag0 O2 2.420847 1_555
I0 O5 1.895197 1_545
I0 O1 1.895197 1_544
I0 O0 1.895197 1_554
I0 O4 1.895197 1_445
I0 O2 1.895198 1_555
I0 O3 1.895198 1_444
