# generated using pymatgen
data_LiMg3(Nb2N3)4
_symmetry_space_group_name_H-M   'P 1'
_cell_length_a   5.25685253
_cell_length_b   5.25685237
_cell_length_c   10.45046251
_cell_angle_alpha   90.00000000
_cell_angle_beta   90.00000000
_cell_angle_gamma   119.99999480
_symmetry_Int_Tables_number   1
_chemical_formula_structural   LiMg3(Nb2N3)4
_chemical_formula_sum   'Li1 Mg3 Nb8 N12'
_cell_volume   250.10233190
_cell_formula_units_Z   1
loop_
 _symmetry_equiv_pos_site_id
 _symmetry_equiv_pos_as_xyz
  1  'x, y, z'
loop_
 _atom_site_type_symbol
 _atom_site_label
 _atom_site_symmetry_multiplicity
 _atom_site_fract_x
 _atom_site_fract_y
 _atom_site_fract_z
 _atom_site_occupancy
  Li  Li0  1  0.33333300  0.66666700  0.00000000  1
  Mg  Mg0  1  0.33333300  0.66666700  0.50000000  1
  Mg  Mg1  1  0.66666700  0.33333300  0.50000000  1
  Mg  Mg2  1  0.66666700  0.33333300  0.00000000  1
  Nb  Nb0  1  0.00198254  0.34127111  0.24879485  1
  Nb  Nb1  1  0.65872889  0.99801746  0.75120515  1
  Nb  Nb2  1  0.33928857  0.34127111  0.75120515  1
  Nb  Nb3  1  0.00000000  0.00000000  0.50000000  1
  Nb  Nb4  1  0.00000000  0.00000000  0.00000000  1
  Nb  Nb5  1  0.65872889  0.66071143  0.24879485  1
  Nb  Nb6  1  0.33928857  0.99801746  0.24879485  1
  Nb  Nb7  1  0.00198254  0.66071143  0.75120515  1
  N  N0  1  0.67001121  0.66946875  0.62019573  1
  N  N1  1  0.67400523  0.67116006  0.87843832  1
  N  N2  1  0.32883994  0.32599477  0.12156168  1
  N  N3  1  0.33053125  0.32998879  0.37980427  1
  N  N4  1  0.32883994  0.00284618  0.87843832  1
  N  N5  1  0.33053125  0.00054247  0.62019573  1
  N  N6  1  0.99945753  0.66946875  0.37980427  1
  N  N7  1  0.99715382  0.67116006  0.12156168  1
  N  N8  1  0.67400523  0.00284618  0.12156168  1
  N  N9  1  0.67001121  0.00054247  0.37980427  1
  N  N10  1  0.99715382  0.32599477  0.87843832  1
  N  N11  1  0.99945753  0.32998879  0.62019573  1
loop_
_geom_bond_atom_site_label_1
_geom_bond_atom_site_label_2
_geom_bond_distance
_geom_bond_site_symmetry_2
Li0 N4 2.186162 1_564
Li0 N2 2.186162 1_555
Li0 N7 2.186162 1_455
Li0 N1 2.186162 1_554
Li0 N10 2.186163 1_454
Li0 N8 2.186163 1_565
Mg0 N5 2.164336 1_565
Mg0 N6 2.164337 1_455
Mg0 N11 2.164339 1_455
Mg0 N9 2.164339 1_565
Mg0 N3 2.164341 1_555
Mg0 N0 2.164341 1_555
Mg1 N9 2.160871 1_555
Mg1 N11 2.160871 1_555
Mg1 N6 2.160873 1_555
Mg1 N5 2.160873 1_555
Mg1 N0 2.160875 1_555
Mg1 N3 2.160875 1_555
Mg2 N8 2.168097 1_555
Mg2 N10 2.168097 1_554
Mg2 N7 2.168101 1_555
Mg2 N4 2.168101 1_554
Mg2 N1 2.168105 1_554
Mg2 N2 2.168105 1_555
N0 Nb3 2.142881 1_665
N0 Nb2 2.207748 1_555
N0 Nb1 2.227868 1_555
N0 Nb7 2.236599 1_655
N1 Nb4 2.139275 1_666
N1 Nb2 2.195446 1_555
N1 Nb7 2.199612 1_655
N1 Nb1 2.205616 1_555
N2 Nb4 2.139276 1_555
N2 Nb5 2.195446 1_555
N2 Nb6 2.199612 1_545
N2 Nb0 2.205616 1_555
N3 Nb3 2.142881 1_555
N3 Nb5 2.207748 1_555
N3 Nb0 2.227868 1_555
N3 Nb6 2.236599 1_545
N4 Nb4 2.139273 1_556
N4 Nb1 2.195448 1_545
N4 Nb2 2.199608 1_555
N4 Nb7 2.205619 1_545
N5 Nb3 2.142881 1_555
N5 Nb1 2.207748 1_545
N5 Nb7 2.227869 1_545
N5 Nb2 2.236599 1_555
N6 Nb3 2.142880 1_665
N6 Nb0 2.207748 1_655
N6 Nb6 2.227869 1_655
N6 Nb5 2.236599 1_555
N7 Nb4 2.139273 1_665
N7 Nb0 2.195448 1_655
N7 Nb5 2.199608 1_555
N7 Nb6 2.205619 1_655
N8 Nb4 2.139278 1_655
N8 Nb6 2.195444 1_545
N8 Nb0 2.199610 1_655
N8 Nb5 2.205620 1_545
N9 Nb3 2.142881 1_655
N9 Nb6 2.207748 1_545
N9 Nb5 2.227868 1_545
N9 Nb0 2.236599 1_655
N10 Nb4 2.139278 1_656
N10 Nb7 2.195444 1_655
N10 Nb1 2.199610 1_545
N10 Nb2 2.205620 1_655
N11 Nb3 2.142880 1_655
N11 Nb7 2.207748 1_655
N11 Nb2 2.227868 1_655
N11 Nb1 2.236599 1_545
