# generated using pymatgen
data_MgZn3InIr
_symmetry_space_group_name_H-M   'P 1'
_cell_length_a   5.16932355
_cell_length_b   5.16932222
_cell_length_c   5.16932267
_cell_angle_alpha   59.20716236
_cell_angle_beta   59.20717092
_cell_angle_gamma   59.20716209
_symmetry_Int_Tables_number   1
_chemical_formula_structural   MgZn3InIr
_chemical_formula_sum   'Mg1 Zn3 In1 Ir1'
_cell_volume   95.91126800
_cell_formula_units_Z   1
loop_
 _symmetry_equiv_pos_site_id
 _symmetry_equiv_pos_as_xyz
  1  'x, y, z'
loop_
 _atom_site_type_symbol
 _atom_site_label
 _atom_site_symmetry_multiplicity
 _atom_site_fract_x
 _atom_site_fract_y
 _atom_site_fract_z
 _atom_site_occupancy
  Mg  Mg0  1  0.00345550  0.00345550  0.00345550  1
  Zn  Zn0  1  0.87518988  0.37497806  0.37497806  1
  Zn  Zn1  1  0.37497806  0.87518988  0.37497806  1
  Zn  Zn2  1  0.37497806  0.37497806  0.87518988  1
  In  In0  1  0.74715244  0.74715244  0.74715244  1
  Ir  Ir0  1  0.37424506  0.37424506  0.37424506  1
loop_
_geom_bond_atom_site_label_1
_geom_bond_atom_site_label_2
_geom_bond_distance
_geom_bond_site_symmetry_2
Mg0 Zn0 2.997546 1_455
Mg0 Zn1 2.997547 1_545
Mg0 Zn2 2.997547 1_554
Mg0 Zn2 3.032516 1_544
Mg0 Zn0 3.032516 1_445
Mg0 Zn0 3.032516 1_454
Mg0 Zn1 3.032516 1_544
Mg0 Zn2 3.032516 1_454
Mg0 Zn1 3.032517 1_445
Zn0 Zn1 2.552544 1_645
Zn0 Zn2 2.552545 1_654
Zn0 Zn1 2.554708 1_555
Zn0 Zn2 2.554708 1_555
Zn1 Zn2 2.552544 1_564
Zn1 Zn2 2.554708 1_555
In0 Ir0 2.991449 1_565
In0 Ir0 2.991449 1_556
In0 Ir0 2.991449 1_655
In0 Zn0 3.003825 1_555
In0 Zn1 3.003825 1_555
In0 Zn2 3.003825 1_555
In0 Zn2 3.029013 1_565
In0 Zn0 3.029013 1_565
In0 Zn0 3.029013 1_556
In0 Zn1 3.029013 1_556
In0 Zn2 3.029013 1_655
In0 Zn1 3.029014 1_655
In0 Mg0 3.107632 1_656
In0 Mg0 3.107633 1_665
In0 Mg0 3.107633 1_566
In0 Mg0 3.264671 1_666
Ir0 Zn1 2.575903 1_545
Ir0 Zn2 2.575903 1_554
Ir0 Zn0 2.575904 1_455
Ir0 Zn1 2.593430 1_555
Ir0 Zn2 2.593430 1_555
Ir0 Zn0 2.593431 1_555
Ir0 Mg0 2.987021 1_565
Ir0 Mg0 2.987022 1_556
Ir0 Mg0 2.987022 1_655
