# generated using pymatgen
data_Os2Rh2Pb4O13
_symmetry_space_group_name_H-M   'P 1'
_cell_length_a   7.33394065
_cell_length_b   7.27728761
_cell_length_c   7.27728734
_cell_angle_alpha   59.95712366
_cell_angle_beta   59.74215503
_cell_angle_gamma   59.74214643
_symmetry_Int_Tables_number   1
_chemical_formula_structural   Os2Rh2Pb4O13
_chemical_formula_sum   'Os2 Rh2 Pb4 O13'
_cell_volume   273.47522124
_cell_formula_units_Z   1
loop_
 _symmetry_equiv_pos_site_id
 _symmetry_equiv_pos_as_xyz
  1  'x, y, z'
loop_
 _atom_site_type_symbol
 _atom_site_label
 _atom_site_symmetry_multiplicity
 _atom_site_fract_x
 _atom_site_fract_y
 _atom_site_fract_z
 _atom_site_occupancy
  Os  Os0  1  0.87358267  0.87554675  0.87554675  1
  Os  Os1  1  0.37532282  0.87554675  0.87554675  1
  Rh  Rh0  1  0.87439841  0.37677279  0.87442940  1
  Rh  Rh1  1  0.87439841  0.87442940  0.37677279  1
  Pb  Pb0  1  0.88012792  0.37190892  0.37190892  1
  Pb  Pb1  1  0.37605623  0.37190892  0.37190892  1
  Pb  Pb2  1  0.37139580  0.37457351  0.88263588  1
  Pb  Pb3  1  0.37139580  0.88263588  0.37457351  1
  O  O0  1  0.19427407  0.80572593  0.80572593  1
  O  O1  1  0.20456171  0.80778259  0.19405081  1
  O  O2  1  0.56358272  0.93641728  0.93641728  1
  O  O3  1  0.54791867  0.93788175  0.55910044  1
  O  O4  1  0.95510014  0.93788175  0.55910044  1
  O  O5  1  0.79360589  0.80778259  0.19405081  1
  O  O6  1  0.54791867  0.55910044  0.93788175  1
  O  O7  1  0.79360589  0.19405081  0.80778259  1
  O  O8  1  0.78991006  0.21008994  0.21008994  1
  O  O9  1  0.95510014  0.55910044  0.93788175  1
  O  O10  1  0.95599402  0.54400598  0.54400598  1
  O  O11  1  0.20456171  0.19405081  0.80778259  1
  O  O12  1  0.49719026  0.50280974  0.50280974  1
loop_
_geom_bond_atom_site_label_1
_geom_bond_atom_site_label_2
_geom_bond_distance
_geom_bond_site_symmetry_2
O0 Os1 1.974269 1_555
O0 Os0 1.974276 1_455
O0 Pb2 2.590780 1_555
O0 Pb3 2.590780 1_555
O1 Os1 1.933007 1_554
O1 Rh1 2.020874 1_455
O1 Pb3 2.554957 1_555
O1 Pb1 2.612997 1_555
O2 Os0 1.930786 1_555
O2 Os1 1.930792 1_555
O2 Pb2 2.661586 1_565
O2 Pb3 2.661586 1_556
O3 Os1 1.925163 1_555
O3 Rh1 2.001087 1_555
O3 Pb3 2.541265 1_555
O3 Pb1 2.613573 1_565
O4 Os0 1.925160 1_555
O4 Rh1 2.001097 1_555
O4 Pb3 2.541266 1_655
O4 Pb0 2.613574 1_565
O5 Os0 1.933009 1_554
O5 Rh1 2.020863 1_555
O5 Pb3 2.554958 1_555
O5 Pb0 2.612996 1_555
O6 Os1 1.925163 1_555
O6 Rh0 2.001087 1_555
O6 Pb2 2.541266 1_555
O6 Pb1 2.613573 1_556
O7 Os0 1.933009 1_545
O7 Rh0 2.020863 1_555
O7 Pb2 2.554958 1_555
O7 Pb0 2.612996 1_555
O8 Rh1 2.021723 1_545
O8 Rh0 2.021723 1_554
O8 Pb1 2.483996 1_555
O8 Pb0 2.484007 1_555
O9 Os0 1.925160 1_555
O9 Rh0 2.001097 1_555
O9 Pb2 2.541266 1_655
O9 Pb0 2.613574 1_556
O10 Rh1 1.993703 1_555
O10 Rh0 1.993703 1_555
O10 Pb0 2.534095 1_555
O10 Pb1 2.534106 1_655
O11 Os1 1.933006 1_545
O11 Rh0 2.020874 1_455
O11 Pb2 2.554957 1_555
O11 Pb1 2.612997 1_555
O12 Pb3 2.253259 1_555
O12 Pb2 2.253260 1_555
O12 Pb1 2.284406 1_555
O12 Pb0 2.284418 1_555
