# generated using pymatgen
data_Se(SCl6)2
_symmetry_space_group_name_H-M   'P 1'
_cell_length_a   8.27575761
_cell_length_b   8.27575715
_cell_length_c   8.27575771
_cell_angle_alpha   77.64626515
_cell_angle_beta   77.64626300
_cell_angle_gamma   77.64626391
_symmetry_Int_Tables_number   1
_chemical_formula_structural   Se(SCl6)2
_chemical_formula_sum   'Se1 S2 Cl12'
_cell_volume   532.38176547
_cell_formula_units_Z   1
loop_
 _symmetry_equiv_pos_site_id
 _symmetry_equiv_pos_as_xyz
  1  'x, y, z'
loop_
 _atom_site_type_symbol
 _atom_site_label
 _atom_site_symmetry_multiplicity
 _atom_site_fract_x
 _atom_site_fract_y
 _atom_site_fract_z
 _atom_site_occupancy
  Se  Se0  1  0.00000000  0.00000000  0.00000000  1
  S  S0  1  0.21098870  0.21098870  0.21098870  1
  S  S1  1  0.78901130  0.78901130  0.78901130  1
  Cl  Cl0  1  0.83574760  0.83574760  0.53644685  1
  Cl  Cl1  1  0.86185302  0.19164380  0.19164380  1
  Cl  Cl2  1  0.19164380  0.19164380  0.86185302  1
  Cl  Cl3  1  0.19164380  0.86185302  0.19164380  1
  Cl  Cl4  1  0.80835620  0.13814698  0.80835620  1
  Cl  Cl5  1  0.13814698  0.80835620  0.80835620  1
  Cl  Cl6  1  0.80835620  0.80835620  0.13814698  1
  Cl  Cl7  1  0.46355315  0.16425240  0.16425240  1
  Cl  Cl8  1  0.16425240  0.16425240  0.46355315  1
  Cl  Cl9  1  0.16425240  0.46355315  0.16425240  1
  Cl  Cl10  1  0.83574760  0.53644685  0.83574760  1
  Cl  Cl11  1  0.53644685  0.83574760  0.83574760  1
loop_
_geom_bond_atom_site_label_1
_geom_bond_atom_site_label_2
_geom_bond_distance
_geom_bond_site_symmetry_2
Cl0 S1 2.010010 1_555
Cl1 Se0 2.421245 1_655
Cl2 Se0 2.421245 1_556
Cl3 Se0 2.421246 1_565
Cl4 Se0 2.421246 1_656
Cl5 Se0 2.421245 1_566
Cl6 Se0 2.421245 1_665
Cl7 S0 2.010010 1_555
Cl8 S0 2.010010 1_555
Cl9 S0 2.010010 1_555
Cl10 S1 2.010010 1_555
Cl11 S1 2.010010 1_555
