# generated using pymatgen
data_Hf16Ni4MoOs3
_symmetry_space_group_name_H-M   'P 1'
_cell_length_a   8.58721368
_cell_length_b   8.58721299
_cell_length_c   8.58721540
_cell_angle_alpha   59.91141261
_cell_angle_beta   59.91141716
_cell_angle_gamma   59.91140899
_symmetry_Int_Tables_number   1
_chemical_formula_structural   Hf16Ni4MoOs3
_chemical_formula_sum   'Hf16 Ni4 Mo1 Os3'
_cell_volume   446.85664922
_cell_formula_units_Z   1
loop_
 _symmetry_equiv_pos_site_id
 _symmetry_equiv_pos_as_xyz
  1  'x, y, z'
loop_
 _atom_site_type_symbol
 _atom_site_label
 _atom_site_symmetry_multiplicity
 _atom_site_fract_x
 _atom_site_fract_y
 _atom_site_fract_z
 _atom_site_occupancy
  Hf  Hf0  1  0.68741651  0.10393527  0.10393527  1
  Hf  Hf1  1  0.10393527  0.68741651  0.10393527  1
  Hf  Hf2  1  0.10393527  0.10393527  0.68741651  1
  Hf  Hf3  1  0.10550121  0.10550121  0.10550121  1
  Hf  Hf4  1  0.31501361  0.31501361  0.68345570  1
  Hf  Hf5  1  0.68496041  0.68496041  0.31482920  1
  Hf  Hf6  1  0.31501361  0.68345570  0.31501361  1
  Hf  Hf7  1  0.68496041  0.31482920  0.68496041  1
  Hf  Hf8  1  0.68345570  0.31501361  0.31501361  1
  Hf  Hf9  1  0.31482920  0.68496041  0.68496041  1
  Hf  Hf10  1  0.95325154  0.95325154  0.54692541  1
  Hf  Hf11  1  0.54787504  0.54787504  0.95233550  1
  Hf  Hf12  1  0.95325154  0.54692541  0.95325154  1
  Hf  Hf13  1  0.54787504  0.95233550  0.54787504  1
  Hf  Hf14  1  0.54692541  0.95325154  0.95325154  1
  Hf  Hf15  1  0.95233550  0.54787504  0.54787504  1
  Ni  Ni0  1  0.32343022  0.89280696  0.89280696  1
  Ni  Ni1  1  0.89280696  0.32343022  0.89280696  1
  Ni  Ni2  1  0.89280696  0.89280696  0.32343022  1
  Ni  Ni3  1  0.89189329  0.89189329  0.89189329  1
  Mo  Mo0  1  0.33254320  0.33254320  0.33254320  1
  Os  Os0  1  0.99713530  0.33442241  0.33442241  1
  Os  Os1  1  0.33442241  0.99713530  0.33442241  1
  Os  Os2  1  0.33442241  0.33442241  0.99713530  1
loop_
_geom_bond_atom_site_label_1
_geom_bond_atom_site_label_2
_geom_bond_distance
_geom_bond_site_symmetry_2
Hf0 Ni3 2.574290 1_544
Hf0 Ni1 2.578965 1_554
Hf0 Ni2 2.578965 1_545
Hf0 Mo0 2.976825 1_555
Hf0 Os2 2.983062 1_554
Hf0 Os1 2.983062 1_545
Hf0 Hf14 3.100544 1_544
Hf0 Hf11 3.109861 1_554
Hf0 Hf13 3.109862 1_545
Hf0 Hf5 3.119167 1_545
Hf0 Hf7 3.119168 1_554
Hf0 Hf8 3.121315 1_555
Hf1 Ni3 2.574290 1_454
Hf1 Ni0 2.578965 1_554
Hf1 Ni2 2.578965 1_455
Hf1 Mo0 2.976825 1_555
Hf1 Os2 2.983062 1_554
Hf1 Os0 2.983062 1_455
Hf1 Hf12 3.100544 1_454
Hf1 Hf11 3.109861 1_554
Hf1 Hf15 3.109862 1_455
Hf1 Hf5 3.119167 1_455
Hf1 Hf9 3.119168 1_554
Hf1 Hf6 3.121315 1_555
Hf2 Ni3 2.574290 1_445
Hf2 Ni0 2.578965 1_545
Hf2 Ni1 2.578965 1_455
Hf2 Mo0 2.976826 1_555
Hf2 Os0 2.983063 1_455
Hf2 Os1 2.983063 1_545
Hf2 Hf9 3.119167 1_545
Hf2 Hf7 3.119167 1_455
Hf2 Hf4 3.121314 1_555
Hf3 Ni2 2.581569 1_445
Hf3 Ni1 2.581569 1_454
Hf3 Ni0 2.581569 1_544
Hf3 Os2 2.966641 1_554
Hf3 Os0 2.966642 1_455
Hf3 Os1 2.966642 1_545
Hf3 Hf6 3.127035 1_545
Hf3 Hf8 3.127035 1_455
Hf3 Hf4 3.127036 1_554
Hf4 Mo0 2.870323 1_555
Hf4 Os2 2.870429 1_555
Hf4 Ni0 3.116754 1_545
Hf4 Ni1 3.116754 1_455
Hf4 Hf6 3.159654 1_555
Hf4 Hf8 3.159654 1_555
Hf4 Hf9 3.182514 1_555
Hf4 Hf7 3.182515 1_555
Hf5 Os0 2.851138 1_555
Hf5 Os1 2.851138 1_555
Hf5 Ni3 3.119250 1_554
Hf5 Ni2 3.136099 1_555
Hf5 Hf7 3.174139 1_555
Hf5 Hf9 3.174139 1_555
Hf5 Hf8 3.182514 1_555
Hf5 Hf6 3.182515 1_555
Hf6 Mo0 2.870322 1_555
Hf6 Os1 2.870428 1_555
Hf6 Ni2 3.116754 1_455
Hf6 Ni0 3.116755 1_554
Hf6 Hf8 3.159653 1_555
Hf6 Hf9 3.182515 1_555
Hf7 Os2 2.851139 1_555
Hf7 Os0 2.851139 1_555
Hf7 Ni3 3.119249 1_545
Hf7 Ni1 3.136099 1_555
Hf7 Hf9 3.174139 1_555
Hf7 Hf8 3.182515 1_555
Hf8 Mo0 2.870322 1_555
Hf8 Os0 2.870428 1_555
Hf8 Ni2 3.116754 1_545
Hf8 Ni1 3.116755 1_554
Hf9 Os2 2.851139 1_555
Hf9 Os1 2.851139 1_555
Hf9 Ni3 3.119249 1_455
Hf9 Ni0 3.136099 1_555
Hf10 Ni3 2.545365 1_555
Hf10 Ni2 2.547539 1_555
Hf10 Os0 2.957037 1_565
Hf10 Os1 2.957038 1_655
Hf10 Hf3 3.092400 1_665
Hf10 Hf2 3.100544 1_665
Hf10 Hf7 3.183248 1_565
Hf10 Hf9 3.183248 1_655
Hf10 Hf8 3.192277 1_565
Hf10 Hf6 3.192277 1_655
Hf11 Ni0 2.548538 1_555
Hf11 Ni1 2.548538 1_555
Hf11 Mo0 2.969804 1_556
Hf11 Os2 2.970215 1_555
Hf11 Hf8 3.179704 1_556
Hf11 Hf6 3.179705 1_556
Hf11 Hf7 3.193308 1_555
Hf11 Hf9 3.193308 1_555
Hf12 Ni3 2.545364 1_555
Hf12 Ni1 2.547538 1_555
Hf12 Os2 2.957037 1_655
Hf12 Os0 2.957038 1_556
Hf12 Hf3 3.092399 1_656
Hf12 Hf9 3.183248 1_655
Hf12 Hf5 3.183249 1_556
Hf12 Hf4 3.192277 1_655
Hf12 Hf8 3.192277 1_556
Hf13 Ni2 2.548539 1_555
Hf13 Ni0 2.548539 1_555
Hf13 Mo0 2.969804 1_565
Hf13 Os1 2.970215 1_555
Hf13 Hf2 3.109861 1_565
Hf13 Hf4 3.179704 1_565
Hf13 Hf8 3.179704 1_565
Hf13 Hf9 3.193308 1_555
Hf13 Hf5 3.193308 1_555
Hf14 Ni3 2.545364 1_555
Hf14 Ni0 2.547538 1_555
Hf14 Os2 2.957037 1_565
Hf14 Os1 2.957038 1_556
Hf14 Hf3 3.092400 1_566
Hf14 Hf7 3.183248 1_565
Hf14 Hf5 3.183248 1_556
Hf14 Hf4 3.192277 1_565
Hf14 Hf6 3.192277 1_556
Hf15 Ni2 2.548538 1_555
Hf15 Ni1 2.548539 1_555
Hf15 Mo0 2.969804 1_655
Hf15 Os0 2.970215 1_555
Hf15 Hf2 3.109861 1_655
Hf15 Hf4 3.179704 1_655
Hf15 Hf6 3.179704 1_655
Hf15 Hf7 3.193308 1_555
Hf15 Hf5 3.193308 1_555
Mo0 Os1 2.864129 1_545
Mo0 Os0 2.864130 1_455
Mo0 Os2 2.864130 1_554
Os0 Os1 2.892477 1_645
Os0 Os2 2.892478 1_654
Os1 Os2 2.892478 1_564
