# generated using pymatgen
data_BSeI
_symmetry_space_group_name_H-M   'P 1'
_cell_length_a   4.53054751
_cell_length_b   15.24991836
_cell_length_c   19.71223269
_cell_angle_alpha   64.87218940
_cell_angle_beta   90.00000000
_cell_angle_gamma   90.00000000
_symmetry_Int_Tables_number   1
_chemical_formula_structural   BSeI
_chemical_formula_sum   'B12 Se12 I12'
_cell_volume   1233.03858448
_cell_formula_units_Z   12
loop_
 _symmetry_equiv_pos_site_id
 _symmetry_equiv_pos_as_xyz
  1  'x, y, z'
loop_
 _atom_site_type_symbol
 _atom_site_label
 _atom_site_symmetry_multiplicity
 _atom_site_fract_x
 _atom_site_fract_y
 _atom_site_fract_z
 _atom_site_occupancy
  B  B0  1  0.73868037  0.37448136  0.16547987  1
  B  B1  1  0.23868037  0.62551864  0.33452013  1
  B  B2  1  0.26131963  0.62551864  0.83452013  1
  B  B3  1  0.76131963  0.37448136  0.66547987  1
  B  B4  1  0.98701750  0.16979655  0.27066211  1
  B  B5  1  0.48701750  0.83020345  0.22933789  1
  B  B6  1  0.01298250  0.83020345  0.72933789  1
  B  B7  1  0.51298250  0.16979655  0.77066211  1
  B  B8  1  0.97831583  0.23711616  0.09679857  1
  B  B9  1  0.47831583  0.76288384  0.40320143  1
  B  B10  1  0.02168417  0.76288384  0.90320143  1
  B  B11  1  0.52168417  0.23711616  0.59679857  1
  Se  Se0  1  0.68972825  0.28623258  0.76921678  1
  Se  Se1  1  0.18972825  0.71376742  0.73078322  1
  Se  Se2  1  0.31027175  0.71376742  0.23078322  1
  Se  Se3  1  0.81027175  0.28623258  0.26921678  1
  Se  Se4  1  0.69022968  0.36344742  0.57257614  1
  Se  Se5  1  0.19022968  0.63655258  0.92742386  1
  Se  Se6  1  0.30977032  0.63655258  0.42742386  1
  Se  Se7  1  0.80977032  0.36344742  0.07257614  1
  Se  Se8  1  0.41490552  0.13152664  0.69146326  1
  Se  Se9  1  0.91490552  0.86847336  0.80853674  1
  Se  Se10  1  0.58509448  0.86847336  0.30853674  1
  Se  Se11  1  0.08509448  0.13152664  0.19146326  1
  I  I0  1  0.54121139  0.50864851  0.15054899  1
  I  I1  1  0.04121139  0.49135149  0.34945101  1
  I  I2  1  0.45878861  0.49135149  0.84945101  1
  I  I3  1  0.95878861  0.50864851  0.65054899  1
  I  I4  1  0.08876839  0.06207299  0.38058560  1
  I  I5  1  0.58876839  0.93792701  0.11941440  1
  I  I6  1  0.91123161  0.93792701  0.61941440  1
  I  I7  1  0.41123161  0.06207299  0.88058560  1
  I  I8  1  0.06367364  0.20898476  0.00114810  1
  I  I9  1  0.56367364  0.79101524  0.49885190  1
  I  I10  1  0.93632636  0.79101524  0.99885190  1
  I  I11  1  0.43632636  0.20898476  0.50114810  1
loop_
_geom_bond_atom_site_label_1
_geom_bond_atom_site_label_2
_geom_bond_distance
_geom_bond_site_symmetry_2
B0 Se7 1.935862 1_555
B0 Se3 1.939254 1_555
B0 I0 2.135850 1_555
B1 Se6 1.935862 1_555
B1 Se2 1.939254 1_555
B1 I1 2.135850 1_555
B2 Se5 1.935862 1_555
B2 Se1 1.939254 1_555
B2 I2 2.135850 1_555
B3 Se4 1.935862 1_555
B3 Se0 1.939254 1_555
B3 I3 2.135850 1_555
B4 Se11 1.936272 1_655
B4 Se3 1.936996 1_555
B4 I4 2.140862 1_655
B5 Se10 1.936272 1_555
B5 Se2 1.936996 1_555
B5 I5 2.140862 1_555
B6 Se9 1.936272 1_455
B6 Se1 1.936996 1_555
B6 I6 2.140862 1_455
B7 Se8 1.936272 1_555
B7 Se0 1.936996 1_555
B7 I7 2.140862 1_555
B8 Se7 1.934270 1_555
B8 Se11 1.938333 1_655
B8 I8 2.139066 1_655
B9 Se6 1.934270 1_555
B9 Se10 1.938333 1_555
B9 I9 2.139066 1_555
B10 Se5 1.934270 1_555
B10 Se9 1.938333 1_455
B10 I10 2.139066 1_455
B11 Se4 1.934270 1_555
B11 Se8 1.938333 1_555
B11 I11 2.139066 1_555
