# generated using pymatgen
data_Cd3Ir4PbO14
_symmetry_space_group_name_H-M   'P 1'
_cell_length_a   7.21798318
_cell_length_b   7.18735913
_cell_length_c   7.18736025
_cell_angle_alpha   59.99999933
_cell_angle_beta   60.14024916
_cell_angle_gamma   60.14025162
_symmetry_Int_Tables_number   1
_chemical_formula_structural   Cd3Ir4PbO14
_chemical_formula_sum   'Cd3 Ir4 Pb1 O14'
_cell_volume   264.21473458
_cell_formula_units_Z   1
loop_
 _symmetry_equiv_pos_site_id
 _symmetry_equiv_pos_as_xyz
  1  'x, y, z'
loop_
 _atom_site_type_symbol
 _atom_site_label
 _atom_site_symmetry_multiplicity
 _atom_site_fract_x
 _atom_site_fract_y
 _atom_site_fract_z
 _atom_site_occupancy
  Cd  Cd0  1  0.12500000  0.62500000  0.12500000  1
  Cd  Cd1  1  0.12500000  0.12500000  0.62500000  1
  Cd  Cd2  1  0.12500000  0.12500000  0.12500000  1
  Ir  Ir0  1  0.12500000  0.62500000  0.62500000  1
  Ir  Ir1  1  0.62500000  0.12500000  0.62500000  1
  Ir  Ir2  1  0.62500000  0.62500000  0.12500000  1
  Ir  Ir3  1  0.62500000  0.62500000  0.62500000  1
  Pb  Pb0  1  0.62500000  0.12500000  0.12500000  1
  O  O0  1  0.69165031  0.71309730  0.29762620  1
  O  O1  1  0.30247098  0.29914800  0.69919001  1
  O  O2  1  0.69165031  0.29762620  0.71309730  1
  O  O3  1  0.30247098  0.69919001  0.29914800  1
  O  O4  1  0.30247098  0.69919001  0.69919001  1
  O  O5  1  0.69165031  0.29762620  0.29762620  1
  O  O6  1  0.55834969  0.53690270  0.95237380  1
  O  O7  1  0.94752902  0.95085200  0.55080999  1
  O  O8  1  0.55834969  0.95237380  0.53690270  1
  O  O9  1  0.94752902  0.55080999  0.95085200  1
  O  O10  1  0.94752902  0.55080999  0.55080999  1
  O  O11  1  0.55834969  0.95237380  0.95237380  1
  O  O12  1  0.24304322  0.25231926  0.25231926  1
  O  O13  1  0.00695678  0.99768074  0.99768074  1
loop_
_geom_bond_atom_site_label_1
_geom_bond_atom_site_label_2
_geom_bond_distance
_geom_bond_site_symmetry_2
Cd0 O13 2.188803 1_554
Cd0 O12 2.188803 1_555
Cd0 O3 2.536939 1_555
Cd0 O9 2.536939 1_454
Cd0 O10 2.536945 1_455
Cd0 O4 2.536945 1_554
Cd0 O6 2.583254 1_554
Cd0 O0 2.583254 1_455
Cd1 O13 2.188803 1_545
Cd1 O12 2.188803 1_555
Cd1 O1 2.536939 1_555
Cd1 O7 2.536939 1_445
Cd1 O10 2.536945 1_455
Cd1 O4 2.536945 1_545
Cd1 O8 2.583254 1_545
Cd1 O2 2.583254 1_455
Cd2 O12 2.188809 1_555
Cd2 O13 2.188809 1_544
Cd2 O9 2.536944 1_454
Cd2 O3 2.536944 1_545
Cd2 O7 2.536944 1_445
Cd2 O1 2.536944 1_554
Cd2 O5 2.583254 1_455
Cd2 O11 2.583254 1_544
Ir0 O4 1.963222 1_555
Ir0 O10 1.963222 1_455
Ir0 O1 1.963227 1_555
Ir0 O7 1.963227 1_455
Ir0 O9 1.963228 1_455
Ir0 O3 1.963228 1_555
Ir1 O7 1.949469 1_545
Ir1 O1 1.949469 1_555
Ir1 O2 1.963430 1_555
Ir1 O8 1.963430 1_545
Ir1 O11 1.963430 1_545
Ir1 O5 1.963430 1_555
Ir2 O9 1.949469 1_554
Ir2 O3 1.949469 1_555
Ir2 O11 1.963430 1_554
Ir2 O5 1.963430 1_555
Ir2 O0 1.963430 1_555
Ir2 O6 1.963430 1_554
Ir3 O10 1.949470 1_555
Ir3 O4 1.949470 1_555
Ir3 O8 1.963430 1_555
Ir3 O2 1.963430 1_555
Ir3 O6 1.963430 1_555
Ir3 O0 1.963430 1_555
O0 Pb0 2.457307 1_565
O2 Pb0 2.457308 1_556
O5 Pb0 2.457308 1_555
O6 Pb0 2.457307 1_556
O8 Pb0 2.457308 1_565
O11 Pb0 2.457308 1_566
O12 Pb0 2.255807 1_555
O13 Pb0 2.255807 1_466
