# generated using pymatgen
data_RbSnRhSe4
_symmetry_space_group_name_H-M   'P 1'
_cell_length_a   3.85942748
_cell_length_b   8.39550581
_cell_length_c   6.56109215
_cell_angle_alpha   74.63586796
_cell_angle_beta   90.00000000
_cell_angle_gamma   90.00000000
_symmetry_Int_Tables_number   1
_chemical_formula_structural   RbSnRhSe4
_chemical_formula_sum   'Rb1 Sn1 Rh1 Se4'
_cell_volume   204.99378608
_cell_formula_units_Z   1
loop_
 _symmetry_equiv_pos_site_id
 _symmetry_equiv_pos_as_xyz
  1  'x, y, z'
loop_
 _atom_site_type_symbol
 _atom_site_label
 _atom_site_symmetry_multiplicity
 _atom_site_fract_x
 _atom_site_fract_y
 _atom_site_fract_z
 _atom_site_occupancy
  Rb  Rb0  1  0.50000000  0.49434506  0.64751033  1
  Sn  Sn0  1  0.00000000  0.00025236  0.00324528  1
  Rh  Rh0  1  0.50000000  0.00097163  0.50399614  1
  Se  Se0  1  0.00000000  0.83726555  0.41268642  1
  Se  Se1  1  0.50000000  0.81900203  0.87653629  1
  Se  Se2  1  0.00000000  0.16473139  0.59344191  1
  Se  Se3  1  0.50000000  0.18255198  0.12954363  1
loop_
_geom_bond_atom_site_label_1
_geom_bond_atom_site_label_2
_geom_bond_distance
_geom_bond_site_symmetry_2
Rb0 Se1 3.443481 1_555
Rb0 Se2 3.468089 1_555
Rb0 Se2 3.468089 1_655
Rb0 Se0 3.469245 1_555
Rb0 Se0 3.469245 1_655
Rb0 Se3 3.530953 1_556
Rh0 Se1 2.515879 1_545
Rh0 Se3 2.524929 1_555
Rh0 Se2 2.527045 1_555
Rh0 Se2 2.527045 1_655
Rh0 Se0 2.531400 1_545
Rh0 Se0 2.531400 1_645
Se0 Sn0 2.672293 1_565
Se1 Sn0 2.720447 1_666
Se1 Sn0 2.720447 1_566
Se2 Sn0 2.677461 1_556
Se3 Sn0 2.724875 1_655
Se3 Sn0 2.724875 1_555
