# generated using pymatgen
data_Hf4Rh2N
_symmetry_space_group_name_H-M   'P 1'
_cell_length_a   8.64642833
_cell_length_b   8.64642794
_cell_length_c   8.64642950
_cell_angle_alpha   59.99999776
_cell_angle_beta   59.99999924
_cell_angle_gamma   60.00000017
_symmetry_Int_Tables_number   1
_chemical_formula_structural   Hf4Rh2N
_chemical_formula_sum   'Hf16 Rh8 N4'
_cell_volume   457.08321124
_cell_formula_units_Z   4
loop_
 _symmetry_equiv_pos_site_id
 _symmetry_equiv_pos_as_xyz
  1  'x, y, z'
loop_
 _atom_site_type_symbol
 _atom_site_label
 _atom_site_symmetry_multiplicity
 _atom_site_fract_x
 _atom_site_fract_y
 _atom_site_fract_z
 _atom_site_occupancy
  Hf  Hf0  1  0.12500000  0.62500000  0.62500000  1
  Hf  Hf1  1  0.62500000  0.12500000  0.62500000  1
  Hf  Hf2  1  0.62500000  0.62500000  0.12500000  1
  Hf  Hf3  1  0.62500000  0.62500000  0.62500000  1
  Hf  Hf4  1  0.81663630  0.81663630  0.18336370  1
  Hf  Hf5  1  0.18336370  0.18336370  0.81663630  1
  Hf  Hf6  1  0.81663630  0.18336370  0.81663630  1
  Hf  Hf7  1  0.18336370  0.81663630  0.18336370  1
  Hf  Hf8  1  0.18336370  0.81663630  0.81663630  1
  Hf  Hf9  1  0.81663630  0.18336370  0.18336370  1
  Hf  Hf10  1  0.43336370  0.43336370  0.06663630  1
  Hf  Hf11  1  0.06663630  0.06663630  0.43336370  1
  Hf  Hf12  1  0.43336370  0.06663630  0.43336370  1
  Hf  Hf13  1  0.06663630  0.43336370  0.06663630  1
  Hf  Hf14  1  0.06663630  0.43336370  0.43336370  1
  Hf  Hf15  1  0.43336370  0.06663630  0.06663630  1
  Rh  Rh0  1  0.76992044  0.41002652  0.41002652  1
  Rh  Rh1  1  0.41002652  0.76992044  0.41002652  1
  Rh  Rh2  1  0.41002652  0.41002652  0.76992044  1
  Rh  Rh3  1  0.41002652  0.41002652  0.41002652  1
  Rh  Rh4  1  0.48007956  0.83997348  0.83997348  1
  Rh  Rh5  1  0.83997348  0.48007956  0.83997348  1
  Rh  Rh6  1  0.83997348  0.83997348  0.48007956  1
  Rh  Rh7  1  0.83997348  0.83997348  0.83997348  1
  N  N0  1  0.62500000  0.12500000  0.12500000  1
  N  N1  1  0.12500000  0.62500000  0.12500000  1
  N  N2  1  0.12500000  0.12500000  0.62500000  1
  N  N3  1  0.12500000  0.12500000  0.12500000  1
loop_
_geom_bond_atom_site_label_1
_geom_bond_atom_site_label_2
_geom_bond_distance
_geom_bond_site_symmetry_2
Hf0 Rh1 2.697556 1_555
Hf0 Rh5 2.697556 1_455
Hf0 Rh2 2.697556 1_555
Hf0 Rh6 2.697556 1_455
Hf0 Rh7 2.697556 1_455
Hf0 Rh3 2.697556 1_555
Hf1 Rh0 2.697556 1_555
Hf1 Rh4 2.697556 1_545
Hf1 Rh2 2.697556 1_555
Hf1 Rh6 2.697556 1_545
Hf1 Rh7 2.697556 1_545
Hf1 Rh3 2.697556 1_555
Hf2 Rh7 2.697556 1_554
Hf2 Rh3 2.697556 1_555
Hf2 Rh0 2.697556 1_555
Hf2 Rh4 2.697556 1_554
Hf2 Rh1 2.697556 1_555
Hf2 Rh5 2.697556 1_554
Hf3 Rh6 2.697556 1_555
Hf3 Rh2 2.697556 1_555
Hf3 Rh4 2.697556 1_555
Hf3 Rh0 2.697556 1_555
Hf3 Rh5 2.697556 1_555
Hf3 Rh1 2.697556 1_555
Hf4 N0 2.276371 1_565
Hf4 N1 2.276371 1_655
Hf4 Rh6 2.781990 1_555
Hf4 Rh7 2.781990 1_554
Hf5 N2 2.276371 1_555
Hf5 N3 2.276371 1_556
Hf5 Rh4 2.781990 1_545
Hf5 Rh5 2.781990 1_455
Hf6 N2 2.276371 1_655
Hf6 N0 2.276371 1_556
Hf6 Rh7 2.781990 1_545
Hf6 Rh5 2.781990 1_555
Hf7 N3 2.276371 1_565
Hf7 N1 2.276371 1_555
Hf7 Rh6 2.781990 1_455
Hf7 Rh4 2.781990 1_554
Hf8 N2 2.276371 1_565
Hf8 N1 2.276371 1_556
Hf8 Rh7 2.781990 1_455
Hf8 Rh4 2.781990 1_555
Hf9 N3 2.276371 1_655
Hf9 N0 2.276371 1_555
Hf9 Rh6 2.781990 1_545
Hf9 Rh5 2.781990 1_554
Hf10 N0 2.276371 1_555
Hf10 N1 2.276371 1_555
Hf10 Rh2 2.781990 1_554
Hf10 Rh3 2.781990 1_555
Hf11 N2 2.276371 1_555
Hf11 N3 2.276371 1_555
Hf11 Rh0 2.781990 1_455
Hf11 Rh1 2.781990 1_545
Hf12 N2 2.276371 1_555
Hf12 N0 2.276371 1_555
Hf12 Rh3 2.781990 1_555
Hf12 Rh1 2.781990 1_545
Hf13 N3 2.276371 1_555
Hf13 N1 2.276371 1_555
Hf13 Rh2 2.781990 1_554
Hf13 Rh0 2.781990 1_455
Hf14 N2 2.276371 1_555
Hf14 N1 2.276371 1_555
Hf14 Rh3 2.781990 1_555
Hf14 Rh0 2.781990 1_455
Hf15 N3 2.276371 1_555
Hf15 N0 2.276371 1_555
Hf15 Rh2 2.781990 1_554
Hf15 Rh1 2.781990 1_545
