# generated using pymatgen
data_Rb2Pb(SeO4)2
_symmetry_space_group_name_H-M   'P 1'
_cell_length_a   8.04927890
_cell_length_b   8.04927939
_cell_length_c   8.04928007
_cell_angle_alpha   42.12503120
_cell_angle_beta   42.12502709
_cell_angle_gamma   42.12503064
_symmetry_Int_Tables_number   1
_chemical_formula_structural   Rb2Pb(SeO4)2
_chemical_formula_sum   'Rb2 Pb1 Se2 O8'
_cell_volume   212.29732839
_cell_formula_units_Z   1
loop_
 _symmetry_equiv_pos_site_id
 _symmetry_equiv_pos_as_xyz
  1  'x, y, z'
loop_
 _atom_site_type_symbol
 _atom_site_label
 _atom_site_symmetry_multiplicity
 _atom_site_fract_x
 _atom_site_fract_y
 _atom_site_fract_z
 _atom_site_occupancy
  Rb  Rb0  1  0.19849304  0.19849304  0.19849304  1
  Rb  Rb1  1  0.80150696  0.80150696  0.80150696  1
  Pb  Pb0  1  0.00000000  0.00000000  0.00000000  1
  Se  Se0  1  0.39757152  0.39757152  0.39757152  1
  Se  Se1  1  0.60242848  0.60242848  0.60242848  1
  O  O0  1  0.26702103  0.73545511  0.26702203  1
  O  O1  1  0.73545511  0.26702103  0.26702203  1
  O  O2  1  0.73297897  0.73297897  0.26454489  1
  O  O3  1  0.32286684  0.32286684  0.32286684  1
  O  O4  1  0.67713316  0.67713316  0.67713316  1
  O  O5  1  0.26702203  0.26702203  0.73545511  1
  O  O6  1  0.73297897  0.26454489  0.73297897  1
  O  O7  1  0.26454489  0.73297897  0.73297897  1
loop_
_geom_bond_atom_site_label_1
_geom_bond_atom_site_label_2
_geom_bond_distance
_geom_bond_site_symmetry_2
O0 Se0 1.662693 1_555
O0 Pb0 2.654826 1_565
O0 Rb0 2.975233 1_565
O0 Rb1 3.058953 1_455
O0 Rb1 3.058958 1_554
O1 Se0 1.662693 1_555
O1 Pb0 2.654826 1_655
O1 Rb0 2.975233 1_655
O1 Rb1 3.058953 1_545
O1 Rb1 3.058959 1_554
O2 Se1 1.662692 1_555
O2 Pb0 2.654819 1_665
O2 Rb1 2.975238 1_554
O2 Rb0 3.058958 1_565
O2 Rb0 3.058958 1_655
O3 Se0 1.641292 1_555
O3 Rb0 2.732542 1_555
O4 Se1 1.641292 1_555
O4 Rb1 2.732542 1_555
O5 Se0 1.662694 1_555
O5 Pb0 2.654832 1_556
O5 Rb0 2.975229 1_556
O5 Rb1 3.058953 1_545
O5 Rb1 3.058953 1_455
O6 Se1 1.662692 1_555
O6 Pb0 2.654819 1_656
O6 Rb1 2.975238 1_545
O6 Rb0 3.058958 1_556
O6 Rb0 3.058958 1_655
O7 Se1 1.662692 1_555
O7 Pb0 2.654819 1_566
O7 Rb1 2.975238 1_455
O7 Rb0 3.058958 1_556
O7 Rb0 3.058958 1_565
