# generated using pymatgen
data_Hf4Zr6Sn2Sb5
_symmetry_space_group_name_H-M   'P 1'
_cell_length_a   5.85794152
_cell_length_b   8.61310719
_cell_length_c   8.60575476
_cell_angle_alpha   120.02827478
_cell_angle_beta   89.93796517
_cell_angle_gamma   90.12393598
_symmetry_Int_Tables_number   1
_chemical_formula_structural   Hf4Zr6Sn2Sb5
_chemical_formula_sum   'Hf4 Zr6 Sn2 Sb5'
_cell_volume   375.92365739
_cell_formula_units_Z   1
loop_
 _symmetry_equiv_pos_site_id
 _symmetry_equiv_pos_as_xyz
  1  'x, y, z'
loop_
 _atom_site_type_symbol
 _atom_site_label
 _atom_site_symmetry_multiplicity
 _atom_site_fract_x
 _atom_site_fract_y
 _atom_site_fract_z
 _atom_site_occupancy
  Hf  Hf0  1  0.49996160  0.33342066  0.66764174  1
  Hf  Hf1  1  0.49996160  0.66577792  0.33235826  1
  Hf  Hf2  1  0.00189784  0.66634838  0.33307726  1
  Hf  Hf3  1  0.00189784  0.33327112  0.66692274  1
  Zr  Zr0  1  0.77110252  0.26875105  1.00000000  1
  Zr  Zr1  1  0.77372440  0.73332434  0.73246795  1
  Zr  Zr2  1  0.77372440  0.00085439  0.26753205  1
  Zr  Zr3  1  0.22656276  0.73004772  0.00000000  1
  Zr  Zr4  1  0.22610964  0.26793356  0.26816470  1
  Zr  Zr5  1  0.22610964  0.99976885  0.73183530  1
  Sn  Sn0  1  0.25730783  0.61284735  0.61287957  1
  Sn  Sn1  1  0.25730783  0.99996878  0.38712043  1
  Sb  Sb0  1  0.74397006  0.61309375  1.00000000  1
  Sb  Sb1  1  0.74443280  0.38924585  0.38980189  1
  Sb  Sb2  1  0.74443280  0.99944296  0.61019811  1
  Sb  Sb3  1  0.25388791  0.38660098  0.00000000  1
  Sb  Sb4  1  0.49760351  0.99930434  0.00000000  1
loop_
_geom_bond_atom_site_label_1
_geom_bond_atom_site_label_2
_geom_bond_distance
_geom_bond_site_symmetry_2
Hf0 Sb0 3.020714 1_555
Hf0 Sb1 3.023135 1_555
Hf0 Sn1 3.024487 1_545
Hf0 Sb3 3.025078 1_556
Hf0 Sb2 3.027057 1_545
Hf0 Sn0 3.030911 1_555
Hf1 Sb0 3.020717 1_554
Hf1 Sb2 3.023135 1_555
Hf1 Sn0 3.024487 1_555
Hf1 Sb3 3.025076 1_555
Hf1 Sb1 3.027042 1_555
Hf1 Sn1 3.030925 1_555
Hf2 Sb3 3.048704 1_555
Hf2 Sb2 3.058796 1_455
Hf2 Sn1 3.058961 1_555
Hf2 Sb1 3.059140 1_455
Hf2 Sn0 3.061085 1_555
Hf2 Sb0 3.065928 1_454
Hf3 Sb3 3.048705 1_556
Hf3 Sb1 3.058802 1_455
Hf3 Sn0 3.058954 1_555
Hf3 Sb2 3.059147 1_445
Hf3 Sn1 3.061080 1_545
Hf3 Sb0 3.065927 1_455
Sn0 Zr5 2.962312 1_555
Sn0 Zr3 2.963736 1_556
Sn0 Zr4 2.972814 1_555
Sn0 Zr1 3.016333 1_455
Sn0 Zr1 3.195577 1_555
Sn1 Zr4 2.962304 1_565
Sn1 Zr3 2.963738 1_555
Sn1 Zr5 2.972819 1_555
Sn1 Zr2 3.016329 1_465
Sn1 Zr2 3.195572 1_565
Sb0 Zr2 2.964441 1_566
Sb0 Zr1 2.964454 1_555
Sb0 Zr0 2.970460 1_555
Sb0 Zr3 2.999056 1_656
Sb0 Zr3 3.196020 1_556
Sb1 Zr1 2.959797 1_555
Sb1 Zr2 2.967573 1_555
Sb1 Zr0 2.978184 1_554
Sb1 Zr4 3.010117 1_655
Sb1 Zr4 3.210162 1_555
Sb2 Zr2 2.959793 1_565
Sb2 Zr1 2.967548 1_555
Sb2 Zr0 2.978185 1_565
Sb2 Zr5 3.010116 1_655
Sb2 Zr5 3.210160 1_555
Sb3 Zr5 2.959078 1_544
Sb3 Zr4 2.959079 1_555
Sb3 Zr3 2.962817 1_555
Sb3 Zr0 3.002703 1_454
Sb3 Zr0 3.197406 1_554
Sb4 Zr4 2.805769 1_565
Sb4 Zr5 2.805770 1_554
Sb4 Zr3 2.807736 1_555
Sb4 Zr1 2.809680 1_554
Sb4 Zr2 2.809688 1_565
Sb4 Zr0 2.817226 1_564
