# generated using pymatgen
data_Sc6Ta4Al12Os7
_symmetry_space_group_name_H-M   'P 1'
_cell_length_a   8.83731284
_cell_length_b   8.83731311
_cell_length_c   8.83731321
_cell_angle_alpha   60.00000330
_cell_angle_beta   60.00000228
_cell_angle_gamma   60.00000254
_symmetry_Int_Tables_number   1
_chemical_formula_structural   Sc6Ta4Al12Os7
_chemical_formula_sum   'Sc6 Ta4 Al12 Os7'
_cell_volume   488.02913309
_cell_formula_units_Z   1
loop_
 _symmetry_equiv_pos_site_id
 _symmetry_equiv_pos_as_xyz
  1  'x, y, z'
loop_
 _atom_site_type_symbol
 _atom_site_label
 _atom_site_symmetry_multiplicity
 _atom_site_fract_x
 _atom_site_fract_y
 _atom_site_fract_z
 _atom_site_occupancy
  Sc  Sc0  1  0.71018419  0.71018419  0.28981581  1
  Sc  Sc1  1  0.28981581  0.71018419  0.28981581  1
  Sc  Sc2  1  0.71018419  0.28981581  0.28981581  1
  Sc  Sc3  1  0.28981581  0.28981581  0.71018419  1
  Sc  Sc4  1  0.71018419  0.28981581  0.71018419  1
  Sc  Sc5  1  0.28981581  0.71018419  0.71018419  1
  Ta  Ta0  1  0.87916488  0.87916488  0.36250337  1
  Ta  Ta1  1  0.87916488  0.36250337  0.87916488  1
  Ta  Ta2  1  0.36250337  0.87916488  0.87916488  1
  Ta  Ta3  1  0.87916488  0.87916488  0.87916488  1
  Al  Al0  1  0.12148518  0.12148518  0.63554446  1
  Al  Al1  1  0.12148518  0.63554446  0.12148518  1
  Al  Al2  1  0.63554446  0.12148518  0.12148518  1
  Al  Al3  1  0.12148518  0.12148518  0.12148518  1
  Al  Al4  1  0.66254422  0.66254422  0.01236934  1
  Al  Al5  1  0.66254422  0.01236934  0.66254422  1
  Al  Al6  1  0.01236934  0.66254422  0.66254422  1
  Al  Al7  1  0.66254422  0.66254422  0.66254422  1
  Al  Al8  1  0.33349176  0.33349176  0.99952472  1
  Al  Al9  1  0.33349176  0.99952472  0.33349176  1
  Al  Al10  1  0.99952472  0.33349176  0.33349176  1
  Al  Al11  1  0.33349176  0.33349176  0.33349176  1
  Os  Os0  1  0.00000000  0.00000000  0.00000000  1
  Os  Os1  1  0.99629106  0.99629106  0.50370894  1
  Os  Os2  1  0.50370894  0.99629106  0.50370894  1
  Os  Os3  1  0.99629106  0.50370894  0.50370894  1
  Os  Os4  1  0.50370894  0.50370894  0.99629106  1
  Os  Os5  1  0.99629106  0.50370894  0.99629106  1
  Os  Os6  1  0.50370894  0.99629106  0.99629106  1
loop_
_geom_bond_atom_site_label_1
_geom_bond_atom_site_label_2
_geom_bond_distance
_geom_bond_site_symmetry_2
Sc0 Ta0 3.003549 1_555
Sc0 Ta3 3.003562 1_554
Sc1 Ta0 3.003564 1_455
Sc1 Ta2 3.003564 1_554
Sc2 Ta0 3.003564 1_545
Sc2 Ta1 3.003564 1_554
Sc3 Ta1 3.003564 1_455
Sc3 Ta2 3.003564 1_545
Sc4 Ta1 3.003549 1_555
Sc4 Ta3 3.003562 1_545
Sc5 Ta2 3.003549 1_555
Sc5 Ta3 3.003561 1_455
Al0 Os0 2.629779 1_556
Al0 Os1 2.758196 1_445
Al0 Os2 2.758196 1_545
Al0 Os3 2.758196 1_455
Al0 Al9 2.766543 1_545
Al0 Al11 2.766543 1_555
Al0 Al10 2.766543 1_455
Al0 Sc3 3.006051 1_555
Al0 Sc4 3.006051 1_455
Al0 Sc5 3.006051 1_545
Al0 Ta1 3.028492 1_455
Al0 Ta2 3.028492 1_545
Al0 Ta3 3.028504 1_445
Al1 Os0 2.629779 1_565
Al1 Os5 2.758196 1_454
Al1 Os4 2.758196 1_554
Al1 Os3 2.758196 1_455
Al1 Al8 2.766543 1_554
Al1 Al10 2.766543 1_455
Al1 Al11 2.766543 1_555
Al1 Sc1 3.006051 1_555
Al1 Sc0 3.006051 1_455
Al1 Sc5 3.006051 1_554
Al1 Ta2 3.028492 1_554
Al1 Ta0 3.028492 1_455
Al1 Ta3 3.028504 1_454
Al2 Os0 2.629778 1_655
Al2 Os6 2.758196 1_544
Al2 Os4 2.758196 1_554
Al2 Os2 2.758196 1_545
Al2 Al9 2.766543 1_545
Al2 Al8 2.766543 1_554
Al2 Sc2 3.006051 1_555
Al2 Sc0 3.006051 1_545
Al2 Sc4 3.006051 1_554
Al2 Ta1 3.028492 1_554
Al2 Ta0 3.028492 1_545
Al2 Ta3 3.028504 1_544
Al3 Os0 2.629778 1_555
Al3 Os6 2.758196 1_544
Al3 Os5 2.758196 1_454
Al3 Os1 2.758196 1_445
Al3 Al8 2.766543 1_554
Al3 Al9 2.766543 1_545
Al3 Sc2 3.006051 1_455
Al3 Sc1 3.006051 1_545
Al3 Sc3 3.006051 1_554
Al3 Ta0 3.028504 1_445
Al3 Ta1 3.028504 1_454
Al3 Ta2 3.028504 1_544
Al4 Os5 2.515936 1_554
Al4 Os6 2.515936 1_554
Al4 Os4 2.515951 1_554
Al4 Ta3 2.805861 1_554
Al4 Ta2 2.805890 1_554
Al4 Ta1 2.805890 1_554
Al4 Sc0 2.933939 1_555
Al4 Sc1 2.933950 1_555
Al4 Sc2 2.933950 1_555
Al5 Os1 2.515936 1_545
Al5 Os6 2.515936 1_545
Al5 Os2 2.515951 1_545
Al5 Ta3 2.805861 1_545
Al5 Ta2 2.805890 1_545
Al5 Ta0 2.805890 1_545
Al5 Sc4 2.933939 1_555
Al5 Sc3 2.933950 1_555
Al5 Sc2 2.933950 1_555
Al6 Os1 2.515936 1_455
Al6 Os5 2.515936 1_455
Al6 Os3 2.515951 1_455
Al6 Ta3 2.805861 1_455
Al6 Ta1 2.805890 1_455
Al6 Ta0 2.805890 1_455
Al6 Sc5 2.933939 1_555
Al6 Sc3 2.933950 1_555
Al6 Sc1 2.933950 1_555
Al7 Os3 2.515940 1_555
Al7 Os2 2.515941 1_555
Al7 Os4 2.515941 1_555
Al7 Ta2 2.805871 1_555
Al7 Ta0 2.805871 1_555
Al7 Ta1 2.805871 1_555
Al7 Sc5 2.933956 1_555
Al7 Sc4 2.933956 1_555
Al7 Sc0 2.933956 1_555
Al8 Os4 2.589065 1_555
Al8 Os5 2.589065 1_455
Al8 Os6 2.589065 1_545
Al8 Al9 2.951371 1_546
Al8 Sc3 2.993165 1_555
Al8 Sc4 2.993165 1_555
Al8 Sc5 2.993165 1_555
Al9 Os2 2.589065 1_555
Al9 Os1 2.589065 1_455
Al9 Os6 2.589065 1_554
Al9 Sc1 2.993165 1_555
Al9 Sc0 2.993165 1_555
Al9 Sc5 2.993165 1_555
Al10 Os3 2.589065 1_555
Al10 Os1 2.589065 1_545
Al10 Os5 2.589065 1_554
Al10 Al3 2.766543 1_655
Al10 Al11 2.951371 1_655
Al10 Al9 2.951371 1_645
Al10 Al8 2.951371 1_654
Al10 Sc2 2.993165 1_555
Al10 Sc0 2.993165 1_555
Al10 Sc4 2.993165 1_555
Al11 Os3 2.589065 1_455
Al11 Os2 2.589065 1_545
Al11 Os4 2.589065 1_554
Al11 Al2 2.766543 1_555
Al11 Al9 2.951371 1_545
Al11 Al8 2.951371 1_554
Al11 Sc2 2.993165 1_555
Al11 Sc1 2.993165 1_555
Al11 Sc3 2.993165 1_555
Os0 Ta2 2.615692 1_544
Os0 Ta1 2.615692 1_454
Os0 Ta0 2.615693 1_445
Os0 Ta3 2.615707 1_444
Os1 Ta3 2.711937 1_555
Os1 Ta0 2.711952 1_555
Os1 Sc5 3.164179 1_655
Os1 Sc4 3.164179 1_565
Os1 Sc1 3.164179 1_655
Os1 Sc2 3.164179 1_565
Os2 Ta0 2.711938 1_555
Os2 Ta2 2.711938 1_555
Os2 Sc5 3.164179 1_555
Os2 Sc2 3.164179 1_565
Os2 Sc0 3.164179 1_555
Os2 Sc3 3.164179 1_565
Os3 Ta0 2.711938 1_555
Os3 Ta1 2.711938 1_555
Os3 Sc4 3.164179 1_555
Os3 Sc1 3.164179 1_655
Os3 Sc0 3.164179 1_555
Os3 Sc3 3.164179 1_655
Os4 Ta1 2.711938 1_555
Os4 Ta2 2.711938 1_555
Os4 Sc5 3.164179 1_555
Os4 Sc4 3.164179 1_555
Os4 Sc1 3.164179 1_556
Os4 Sc2 3.164179 1_556
Os5 Ta3 2.711937 1_555
Os5 Ta1 2.711952 1_555
Os5 Sc5 3.164179 1_655
Os5 Sc2 3.164179 1_556
Os5 Sc3 3.164179 1_655
Os5 Sc0 3.164179 1_556
Os6 Ta3 2.711937 1_555
Os6 Ta2 2.711952 1_555
Os6 Sc4 3.164179 1_565
Os6 Sc1 3.164179 1_556
Os6 Sc0 3.164179 1_556
Os6 Sc3 3.164179 1_565
