# generated using pymatgen
data_Ta8V2ZnSi5
_symmetry_space_group_name_H-M   'P 1'
_cell_length_a   7.49183743
_cell_length_b   7.49183709
_cell_length_c   7.49183697
_cell_angle_alpha   129.29764512
_cell_angle_beta   129.29764310
_cell_angle_gamma   74.53211835
_symmetry_Int_Tables_number   1
_chemical_formula_structural   Ta8V2ZnSi5
_chemical_formula_sum   'Ta8 V2 Zn1 Si5'
_cell_volume   245.39706536
_cell_formula_units_Z   1
loop_
 _symmetry_equiv_pos_site_id
 _symmetry_equiv_pos_as_xyz
  1  'x, y, z'
loop_
 _atom_site_type_symbol
 _atom_site_label
 _atom_site_symmetry_multiplicity
 _atom_site_fract_x
 _atom_site_fract_y
 _atom_site_fract_z
 _atom_site_occupancy
  Ta  Ta0  1  0.01879344  0.51367221  0.83032028  1
  Ta  Ta1  1  0.68335193  0.18847316  0.16967972  1
  Ta  Ta2  1  0.51367221  0.68335193  0.49487877  1
  Ta  Ta3  1  0.18847316  0.01879344  0.50512123  1
  Ta  Ta4  1  0.98632779  0.48120656  0.16967972  1
  Ta  Ta5  1  0.31152684  0.81664807  0.83032028  1
  Ta  Ta6  1  0.48120656  0.31152684  0.49487877  1
  Ta  Ta7  1  0.81664807  0.98632779  0.50512123  1
  V  V0  1  0.00201518  0.00201518  1.00000000  1
  V  V1  1  0.49798482  0.49798482  0.00000000  1
  Zn  Zn0  1  0.75000000  0.75000000  0.00000000  1
  Si  Si0  1  0.25000000  0.25000000  0.00000000  1
  Si  Si1  1  0.63278868  0.13278868  0.76557637  1
  Si  Si2  1  0.36721132  0.86721132  0.23442363  1
  Si  Si3  1  0.13278868  0.36721132  0.50000000  1
  Si  Si4  1  0.86721132  0.63278868  0.50000000  1
loop_
_geom_bond_atom_site_label_1
_geom_bond_atom_site_label_2
_geom_bond_distance
_geom_bond_site_symmetry_2
Ta0 Zn0 2.701083 1_456
Ta1 Zn0 2.701083 1_545
Ta2 Zn0 2.701083 1_556
Ta3 Zn0 2.701083 1_445
Ta4 Zn0 2.701083 1_555
Ta5 Zn0 2.701083 1_556
Ta6 Zn0 2.701083 1_556
Ta7 Zn0 2.701083 1_555
V0 Zn0 3.005153 1_446
V1 Zn0 3.005153 1_555
Si0 Ta3 2.661779 1_554
Si0 Ta5 2.661779 1_544
Si0 Ta0 2.661779 1_554
Si0 Ta6 2.661779 1_555
Si0 Ta4 2.661779 1_455
Si0 Ta2 2.661779 1_555
Si0 Ta1 2.661779 1_555
Si0 Ta7 2.661779 1_444
Si0 V1 2.957093 1_555
Si0 V0 2.957093 1_554
Si1 Si2 2.409540 1_545
Si1 V1 2.505256 1_556
Si1 V0 2.505256 1_655
Si1 Ta4 2.552422 1_556
Si1 Ta1 2.552430 1_556
Si1 Ta7 2.606761 1_545
Si1 Ta3 2.606769 1_555
Si1 Ta6 2.628147 1_555
Si1 Ta2 2.628156 1_545
Si2 V1 2.505256 1_555
Si2 V0 2.505257 1_564
Si2 Ta0 2.552422 1_554
Si2 Ta5 2.552430 1_554
Si2 Ta2 2.606761 1_555
Si2 Ta6 2.606769 1_565
Si2 Ta3 2.628147 1_565
Si2 Ta7 2.628156 1_555
Si3 Si4 2.409549 1_455
Si3 V0 2.505254 1_554
Si3 V1 2.505255 1_556
Si3 Ta3 2.552423 1_555
Si3 Ta6 2.552423 1_555
Si3 Ta0 2.606767 1_555
Si3 Ta4 2.606767 1_455
Si3 Ta5 2.628154 1_555
Si3 Ta1 2.628154 1_455
Si4 V0 2.505254 1_665
Si4 V1 2.505255 1_555
Si4 Ta7 2.552423 1_555
Si4 Ta2 2.552423 1_555
Si4 Ta1 2.606767 1_555
Si4 Ta5 2.606767 1_655
Si4 Ta4 2.628154 1_555
Si4 Ta0 2.628154 1_655
