# generated using pymatgen
data_Ta3TcS6
_symmetry_space_group_name_H-M   'P 1'
_cell_length_a   5.76841730
_cell_length_b   5.76841760
_cell_length_c   12.01320488
_cell_angle_alpha   90.00000000
_cell_angle_beta   90.00000000
_cell_angle_gamma   120.00000396
_symmetry_Int_Tables_number   1
_chemical_formula_structural   Ta3TcS6
_chemical_formula_sum   'Ta6 Tc2 S12'
_cell_volume   346.18070806
_cell_formula_units_Z   2
loop_
 _symmetry_equiv_pos_site_id
 _symmetry_equiv_pos_as_xyz
  1  'x, y, z'
loop_
 _atom_site_type_symbol
 _atom_site_label
 _atom_site_symmetry_multiplicity
 _atom_site_fract_x
 _atom_site_fract_y
 _atom_site_fract_z
 _atom_site_occupancy
  Ta  Ta0  1  0.00000000  0.00000000  0.50000000  1
  Ta  Ta1  1  0.00000000  0.00000000  0.00000000  1
  Ta  Ta2  1  0.33333300  0.66666700  0.99679099  1
  Ta  Ta3  1  0.66666700  0.33333300  0.00320901  1
  Ta  Ta4  1  0.66666700  0.33333300  0.49679099  1
  Ta  Ta5  1  0.33333300  0.66666700  0.50320901  1
  Tc  Tc0  1  0.33333300  0.66666700  0.25000000  1
  Tc  Tc1  1  0.66666700  0.33333300  0.75000000  1
  S  S0  1  0.33132721  0.33474225  0.37028439  1
  S  S1  1  0.66525775  0.99658495  0.37028439  1
  S  S2  1  0.00341505  0.66867279  0.37028439  1
  S  S3  1  0.33474225  0.33132721  0.62971561  1
  S  S4  1  0.99658495  0.66525775  0.62971561  1
  S  S5  1  0.66867279  0.00341505  0.62971561  1
  S  S6  1  0.66867279  0.66525775  0.87028439  1
  S  S7  1  0.33474225  0.00341505  0.87028439  1
  S  S8  1  0.99658495  0.33132721  0.87028439  1
  S  S9  1  0.66525775  0.66867279  0.12971561  1
  S  S10  1  0.00341505  0.33474225  0.12971561  1
  S  S11  1  0.33132721  0.99658495  0.12971561  1
loop_
_geom_bond_atom_site_label_1
_geom_bond_atom_site_label_2
_geom_bond_distance
_geom_bond_site_symmetry_2
S0 Tc0 2.394162 1_555
S0 Ta4 2.463180 1_555
S0 Ta0 2.473692 1_555
S0 Ta5 2.488758 1_555
S1 Tc0 2.394159 1_555
S1 Ta4 2.463176 1_565
S1 Ta0 2.473692 1_665
S1 Ta5 2.488755 1_555
S2 Tc0 2.394157 1_555
S2 Ta4 2.463178 1_455
S2 Ta0 2.473692 1_565
S2 Ta5 2.488753 1_555
S3 Tc1 2.394162 1_555
S3 Ta5 2.463180 1_555
S3 Ta0 2.473692 1_555
S3 Ta4 2.488757 1_555
S4 Tc1 2.394159 1_555
S4 Ta5 2.463175 1_655
S4 Ta0 2.473692 1_665
S4 Ta4 2.488755 1_555
S5 Tc1 2.394157 1_555
S5 Ta5 2.463178 1_545
S5 Ta0 2.473692 1_655
S5 Ta4 2.488753 1_555
S6 Tc1 2.394162 1_555
S6 Ta2 2.463180 1_555
S6 Ta1 2.473692 1_666
S6 Ta3 2.488758 1_556
S7 Tc1 2.394159 1_555
S7 Ta2 2.463176 1_545
S7 Ta1 2.473692 1_556
S7 Ta3 2.488755 1_556
S8 Tc1 2.394157 1_555
S8 Ta2 2.463178 1_655
S8 Ta1 2.473692 1_656
S8 Ta3 2.488753 1_556
S9 Tc0 2.394162 1_555
S9 Ta3 2.463180 1_555
S9 Ta1 2.473692 1_665
S9 Ta2 2.488757 1_554
S10 Tc0 2.394159 1_555
S10 Ta3 2.463175 1_455
S10 Ta1 2.473692 1_555
S10 Ta2 2.488755 1_554
S11 Tc0 2.394157 1_555
S11 Ta3 2.463178 1_565
S11 Ta1 2.473692 1_565
S11 Ta2 2.488753 1_554
