# generated using pymatgen
data_K2Ti(WO4)3
_symmetry_space_group_name_H-M   'P 1'
_cell_length_a   7.17616360
_cell_length_b   7.46196289
_cell_length_c   7.20293621
_cell_angle_alpha   89.99999907
_cell_angle_beta   61.36666976
_cell_angle_gamma   121.32642198
_symmetry_Int_Tables_number   1
_chemical_formula_structural   K2Ti(WO4)3
_chemical_formula_sum   'K2 Ti1 W3 O12'
_cell_volume   272.74952879
_cell_formula_units_Z   1
loop_
 _symmetry_equiv_pos_site_id
 _symmetry_equiv_pos_as_xyz
  1  'x, y, z'
loop_
 _atom_site_type_symbol
 _atom_site_label
 _atom_site_symmetry_multiplicity
 _atom_site_fract_x
 _atom_site_fract_y
 _atom_site_fract_z
 _atom_site_occupancy
  K  K0  1  0.28163115  0.04884633  0.61847001  1
  K  K1  1  0.71836885  0.76721618  0.38152999  1
  Ti  Ti0  1  0.00000000  0.52170707  0.00000000  1
  W  W0  1  0.49671829  0.47960950  0.98477525  1
  W  W1  1  0.50328171  0.98289121  0.01522475  1
  W  W2  1  1.00000000  0.48252529  0.50000000  1
  O  O0  1  0.63862260  0.82821930  0.93826128  1
  O  O1  1  0.87628352  0.45875838  0.31631085  1
  O  O2  1  0.25442975  0.46406143  0.94213644  1
  O  O3  1  0.25808780  0.81996368  0.31560470  1
  O  O4  1  0.25478679  0.83201780  0.94172818  1
  O  O5  1  0.25538655  0.45038214  0.31103042  1
  O  O6  1  0.36137740  0.18959570  0.06173872  1
  O  O7  1  0.12371648  0.58247487  0.68368915  1
  O  O8  1  0.74521321  0.57723001  0.05827182  1
  O  O9  1  0.74461345  0.19499458  0.68896958  1
  O  O10  1  0.74557025  0.20963168  0.05786356  1
  O  O11  1  0.74191220  0.56187588  0.68439530  1
loop_
_geom_bond_atom_site_label_1
_geom_bond_atom_site_label_2
_geom_bond_distance
_geom_bond_site_symmetry_2
K0 O4 2.705998 1_545
K0 O3 2.785271 1_545
K0 O7 3.000777 1_545
K0 O1 3.135142 1_555
K0 O9 3.214830 1_555
K0 O0 3.349977 1_445
K1 O8 2.706006 1_555
K1 O11 2.785275 1_555
K1 O1 3.000784 1_555
K1 O7 3.135140 1_555
K1 O5 3.214830 1_555
K1 O6 3.349974 1_665
O0 W1 1.797847 1_556
O0 W0 2.198772 1_555
O1 W2 1.879451 1_555
O1 Ti0 1.956412 1_655
O2 W0 1.852809 1_555
O2 Ti0 1.944151 1_556
O3 W1 1.839103 1_555
O3 W2 2.080289 1_455
O4 W1 1.882782 1_556
O4 Ti0 1.934695 1_556
O5 W2 1.826277 1_455
O5 W0 2.067857 1_554
O6 W0 1.797854 1_554
O6 W1 2.198765 1_545
O7 W2 1.879451 1_455
O7 Ti0 1.956412 1_556
O8 W0 1.882783 1_554
O8 Ti0 1.934690 1_655
O9 W2 1.826281 1_555
O9 W1 2.067854 1_546
O10 W1 1.852809 1_545
O10 Ti0 1.944151 1_655
O11 W0 1.839103 1_555
O11 W2 2.080289 1_555
