# generated using pymatgen
data_Al2(PSe3)3
_symmetry_space_group_name_H-M   'P 1'
_cell_length_a   10.81086141
_cell_length_b   10.81086085
_cell_length_c   7.25315511
_cell_angle_alpha   75.92305592
_cell_angle_beta   75.92305437
_cell_angle_gamma   60.05889849
_symmetry_Int_Tables_number   1
_chemical_formula_structural   Al2(PSe3)3
_chemical_formula_sum   'Al4 P6 Se18'
_cell_volume   704.99043793
_cell_formula_units_Z   2
loop_
 _symmetry_equiv_pos_site_id
 _symmetry_equiv_pos_as_xyz
  1  'x, y, z'
loop_
 _atom_site_type_symbol
 _atom_site_label
 _atom_site_symmetry_multiplicity
 _atom_site_fract_x
 _atom_site_fract_y
 _atom_site_fract_z
 _atom_site_occupancy
  Al  Al0  1  0.16403807  0.48834604  0.50051279  1
  Al  Al1  1  0.51165396  0.83596193  0.49948721  1
  Al  Al2  1  0.81701137  0.18298863  0.50000000  1
  Al  Al3  1  0.16473427  0.83526573  0.50000000  1
  P  P0  1  0.84445828  0.86051562  0.34359611  1
  P  P1  1  0.13948438  0.15554172  0.65640389  1
  P  P2  1  0.51100165  0.51552471  0.34249170  1
  P  P3  1  0.48447529  0.48899835  0.65750830  1
  P  P4  1  0.18981726  0.18200838  0.34165008  1
  P  P5  1  0.81799162  0.81018274  0.65834992  1
  Se  Se0  1  0.74266810  0.41437193  0.25305688  1
  Se  Se1  1  0.58562807  0.25733190  0.74694312  1
  Se  Se2  1  0.08649173  0.73895952  0.27266227  1
  Se  Se3  1  0.26104048  0.91350827  0.72733773  1
  Se  Se4  1  0.42219717  0.06721757  0.26041621  1
  Se  Se5  1  0.93278243  0.57780283  0.73958379  1
  Se  Se6  1  0.74411479  0.75825296  0.25412386  1
  Se  Se7  1  0.24174704  0.25588521  0.74587614  1
  Se  Se8  1  0.39507379  0.42525153  0.26153443  1
  Se  Se9  1  0.57474847  0.60492621  0.73846557  1
  Se  Se10  1  0.06805515  0.08417501  0.27133270  1
  Se  Se11  1  0.91582499  0.93194485  0.72866730  1
  Se  Se12  1  0.41346110  0.75770369  0.27238243  1
  Se  Se13  1  0.24229631  0.58653890  0.72761757  1
  Se  Se14  1  0.08760852  0.41390558  0.25374243  1
  Se  Se15  1  0.58609442  0.91239148  0.74625757  1
  Se  Se16  1  0.75329971  0.09269443  0.26249794  1
  Se  Se17  1  0.90730557  0.24670029  0.73750206  1
loop_
_geom_bond_atom_site_label_1
_geom_bond_atom_site_label_2
_geom_bond_distance
_geom_bond_site_symmetry_2
Al0 Se8 2.544937 1_555
Al0 Se5 2.546738 1_455
Al0 Se14 2.572519 1_555
Al0 Se7 2.575421 1_555
Al0 Se13 2.642172 1_555
Al0 Se2 2.646342 1_555
Al1 Se9 2.544937 1_555
Al1 Se4 2.546738 1_565
Al1 Se15 2.572519 1_555
Al1 Se6 2.575421 1_555
Al1 Se12 2.642172 1_555
Al1 Se3 2.646342 1_555
Al2 Se16 2.541874 1_555
Al2 Se17 2.541874 1_555
Al2 Se0 2.573952 1_555
Al2 Se1 2.573952 1_555
Al2 Se11 2.652528 1_545
Al2 Se10 2.652528 1_655
Al3 Se2 2.628904 1_555
Al3 Se3 2.628904 1_555
Al3 Se13 2.631043 1_555
Al3 Se12 2.631043 1_555
Al3 Se10 2.636097 1_565
Al3 Se11 2.636097 1_455
P0 Se6 2.169974 1_555
P0 Se16 2.170735 1_565
P0 P5 2.196184 1_555
P0 Se2 2.253840 1_655
P1 Se7 2.169974 1_555
P1 Se17 2.170735 1_455
P1 P4 2.196184 1_555
P1 Se3 2.253840 1_545
P2 Se0 2.170269 1_555
P2 Se8 2.173854 1_555
P2 P3 2.197657 1_555
P2 Se12 2.254463 1_555
P3 Se1 2.170269 1_555
P3 Se9 2.173854 1_555
P3 Se13 2.254463 1_555
P4 Se14 2.170829 1_555
P4 Se4 2.173027 1_555
P4 Se10 2.256177 1_555
P5 Se15 2.170829 1_555
P5 Se5 2.173027 1_555
P5 Se11 2.256177 1_555
