# generated using pymatgen
data_InPd3
_symmetry_space_group_name_H-M   'P 1'
_cell_length_a   4.00151542
_cell_length_b   4.00659572
_cell_length_c   4.00659880
_cell_angle_alpha   90.00000000
_cell_angle_beta   90.00000000
_cell_angle_gamma   90.00000000
_symmetry_Int_Tables_number   1
_chemical_formula_structural   InPd3
_chemical_formula_sum   'In1 Pd3'
_cell_volume   64.23561318
_cell_formula_units_Z   1
loop_
 _symmetry_equiv_pos_site_id
 _symmetry_equiv_pos_as_xyz
  1  'x, y, z'
loop_
 _atom_site_type_symbol
 _atom_site_label
 _atom_site_symmetry_multiplicity
 _atom_site_fract_x
 _atom_site_fract_y
 _atom_site_fract_z
 _atom_site_occupancy
  In  In0  1  -0.00000000  -0.00000000  -0.00000000  1
  Pd  Pd0  1  0.50000000  0.50000000  -0.00000000  1
  Pd  Pd1  1  -0.00000000  0.50000000  0.50000000  1
  Pd  Pd2  1  0.50000000  -0.00000000  0.50000000  1
loop_
_geom_bond_atom_site_label_1
_geom_bond_atom_site_label_2
_geom_bond_distance
_geom_bond_site_symmetry_2
In0 Pd0 2.831295 1_545
In0 Pd0 2.831295 1_555
In0 Pd0 2.831295 1_455
In0 Pd0 2.831295 1_445
In0 Pd2 2.831297 1_454
In0 Pd2 2.831297 1_554
In0 Pd2 2.831297 1_455
In0 Pd2 2.831297 1_555
In0 Pd1 2.833092 1_544
In0 Pd1 2.833092 1_545
In0 Pd1 2.833092 1_555
In0 Pd1 2.833092 1_554
Pd0 Pd1 2.831297 1_654
Pd0 Pd1 2.831297 1_554
Pd0 Pd1 2.831297 1_655
Pd0 Pd1 2.831297 1_555
Pd0 Pd2 2.833092 1_555
Pd0 Pd2 2.833092 1_565
Pd0 Pd2 2.833092 1_564
Pd0 Pd2 2.833092 1_554
Pd1 Pd2 2.831295 1_465
Pd1 Pd2 2.831295 1_455
Pd1 Pd2 2.831295 1_555
Pd1 Pd2 2.831295 1_565
