# generated using pymatgen
data_Ba3GaSe4Br
_symmetry_space_group_name_H-M   'P 1'
_cell_length_a   8.85133174
_cell_length_b   10.01690350
_cell_length_c   12.95890216
_cell_angle_alpha   90.00000000
_cell_angle_beta   90.00000000
_cell_angle_gamma   90.00000000
_symmetry_Int_Tables_number   1
_chemical_formula_structural   Ba3GaSe4Br
_chemical_formula_sum   'Ba12 Ga4 Se16 Br4'
_cell_volume   1148.97431182
_cell_formula_units_Z   4
loop_
 _symmetry_equiv_pos_site_id
 _symmetry_equiv_pos_as_xyz
  1  'x, y, z'
loop_
 _atom_site_type_symbol
 _atom_site_label
 _atom_site_symmetry_multiplicity
 _atom_site_fract_x
 _atom_site_fract_y
 _atom_site_fract_z
 _atom_site_occupancy
  Ba  Ba0  1  0.58207940  0.75000000  0.01611466  1
  Ba  Ba1  1  0.91792060  0.75000000  0.51611466  1
  Ba  Ba2  1  0.41792060  0.25000000  0.98388534  1
  Ba  Ba3  1  0.08207940  0.25000000  0.48388534  1
  Ba  Ba4  1  0.91996176  0.48139087  0.83295206  1
  Ba  Ba5  1  0.58003824  0.01860913  0.33295206  1
  Ba  Ba6  1  0.08003824  0.98139087  0.16704794  1
  Ba  Ba7  1  0.41996176  0.51860913  0.66704794  1
  Ba  Ba8  1  0.08003824  0.51860913  0.16704794  1
  Ba  Ba9  1  0.41996176  0.98139087  0.66704794  1
  Ba  Ba10  1  0.91996176  0.01860913  0.83295206  1
  Ba  Ba11  1  0.58003824  0.48139087  0.33295206  1
  Ga  Ga0  1  0.18859884  0.75000000  0.89068672  1
  Ga  Ga1  1  0.31140116  0.75000000  0.39068672  1
  Ga  Ga2  1  0.81140116  0.25000000  0.10931328  1
  Ga  Ga3  1  0.68859884  0.25000000  0.60931328  1
  Se  Se0  1  0.68656415  0.45427206  0.07584209  1
  Se  Se1  1  0.81343585  0.04572794  0.57584209  1
  Se  Se2  1  0.31343585  0.95427206  0.92415791  1
  Se  Se3  1  0.18656415  0.54572794  0.42415791  1
  Se  Se4  1  0.31343585  0.54572794  0.92415791  1
  Se  Se5  1  0.18656415  0.95427206  0.42415791  1
  Se  Se6  1  0.68656415  0.04572794  0.07584209  1
  Se  Se7  1  0.81343585  0.45427206  0.57584209  1
  Se  Se8  1  0.35900552  0.75000000  0.20862523  1
  Se  Se9  1  0.14099448  0.75000000  0.70862523  1
  Se  Se10  1  0.64099448  0.25000000  0.79137477  1
  Se  Se11  1  0.85900552  0.25000000  0.29137477  1
  Se  Se12  1  0.96230676  0.75000000  0.99257072  1
  Se  Se13  1  0.53769324  0.75000000  0.49257072  1
  Se  Se14  1  0.03769324  0.25000000  0.00742928  1
  Se  Se15  1  0.46230676  0.25000000  0.50742928  1
  Br  Br0  1  0.66898510  0.75000000  0.76898744  1
  Br  Br1  1  0.83101490  0.75000000  0.26898744  1
  Br  Br2  1  0.33101490  0.25000000  0.23101256  1
  Br  Br3  1  0.16898510  0.25000000  0.73101256  1
loop_
_geom_bond_atom_site_label_1
_geom_bond_atom_site_label_2
_geom_bond_distance
_geom_bond_site_symmetry_2
Ba0 Se8 3.181558 1_555
Ba0 Se0 3.198356 1_555
Ba0 Se6 3.198356 1_565
Ba0 Br0 3.293586 1_554
Ba0 Se4 3.355751 1_554
Ba0 Se2 3.355751 1_554
Ba0 Se12 3.379320 1_554
Ba0 Br1 3.948853 1_555
Ba1 Se9 3.181558 1_655
Ba1 Se7 3.198356 1_555
Ba1 Se1 3.198356 1_565
Ba1 Br1 3.293586 1_555
Ba1 Se3 3.355751 1_655
Ba1 Se5 3.355751 1_655
Ba1 Se13 3.379320 1_555
Ba1 Br0 3.948853 1_555
Ba2 Se10 3.181558 1_555
Ba2 Se2 3.198356 1_545
Ba2 Se4 3.198356 1_555
Ba2 Br2 3.293586 1_556
Ba2 Se6 3.355751 1_556
Ba2 Se0 3.355751 1_556
Ba2 Se14 3.379320 1_556
Ba2 Br3 3.948853 1_555
Ba3 Se11 3.181558 1_455
Ba3 Se5 3.198356 1_545
Ba3 Se3 3.198356 1_555
Ba3 Br3 3.293586 1_555
Ba3 Se1 3.355751 1_455
Ba3 Se7 3.355751 1_455
Ba3 Se15 3.379320 1_555
Ba3 Br2 3.948853 1_555
Ba4 Se14 3.401543 1_656
Ba4 Se12 3.414469 1_555
Ba4 Se10 3.429241 1_555
Ba4 Br3 3.460613 1_655
Ba4 Se7 3.473349 1_555
Ba4 Br0 3.586301 1_555
Ba4 Ga0 3.667858 1_655
Ba4 Se9 3.696336 1_655
Ba4 Se4 3.733894 1_655
Ba4 Se0 3.774780 1_556
Ba5 Se15 3.401543 1_555
Ba5 Se13 3.414469 1_545
Ba5 Se11 3.429241 1_555
Ba5 Br2 3.460613 1_555
Ba5 Se6 3.473349 1_555
Ba5 Br1 3.586301 1_545
Ba5 Ga1 3.667858 1_545
Ba5 Se8 3.696336 1_545
Ba5 Se5 3.733894 1_545
Ba5 Se1 3.774780 1_555
Ba6 Se12 3.401543 1_454
Ba6 Se14 3.414469 1_565
Ba6 Se8 3.429241 1_555
Ba6 Br1 3.460613 1_455
Ba6 Se5 3.473349 1_555
Ba6 Br2 3.586301 1_565
Ba6 Ga2 3.667858 1_465
Ba6 Se11 3.696336 1_465
Ba6 Se6 3.733894 1_465
Ba6 Se2 3.774780 1_554
Ba7 Se13 3.401543 1_555
Ba7 Se15 3.414469 1_555
Ba7 Se9 3.429241 1_555
Ba7 Br0 3.460613 1_555
Ba7 Se4 3.473349 1_555
Ba7 Br3 3.586301 1_555
Ba7 Ga3 3.667858 1_555
Ba7 Se10 3.696336 1_555
Ba7 Se7 3.733894 1_555
Ba7 Se3 3.774780 1_555
Ba8 Se12 3.401543 1_454
Ba8 Se14 3.414469 1_555
Ba8 Se8 3.429241 1_555
Ba8 Br1 3.460613 1_455
Ba8 Se3 3.473349 1_555
Ba8 Br2 3.586301 1_555
Ba8 Ga2 3.667858 1_455
Ba8 Se11 3.696336 1_455
Ba8 Se0 3.733894 1_455
Ba8 Se4 3.774780 1_554
Ba9 Se13 3.401543 1_555
Ba9 Se15 3.414469 1_565
Ba9 Se9 3.429241 1_555
Ba9 Br0 3.460613 1_555
Ba9 Se2 3.473349 1_555
Ba9 Br3 3.586301 1_565
Ba9 Ga3 3.667858 1_565
Ba9 Se10 3.696336 1_565
Ba9 Se1 3.733894 1_565
Ba9 Se5 3.774780 1_555
Ba10 Se14 3.401543 1_656
Ba10 Se12 3.414469 1_545
Ba10 Se10 3.429241 1_555
Ba10 Br3 3.460613 1_655
Ba10 Se1 3.473349 1_555
Ba10 Br0 3.586301 1_545
Ba10 Ga0 3.667858 1_645
Ba10 Se9 3.696336 1_645
Ba10 Se2 3.733894 1_645
Ba10 Se6 3.774780 1_556
Ba11 Se15 3.401543 1_555
Ba11 Se13 3.414469 1_555
Ba11 Se11 3.429241 1_555
Ba11 Br2 3.460613 1_555
Ba11 Se0 3.473349 1_555
Ba11 Br1 3.586301 1_555
Ba11 Ga1 3.667858 1_555
Ba11 Se8 3.696336 1_555
Ba11 Se3 3.733894 1_555
Ba11 Se7 3.774780 1_555
Ga0 Se4 2.365572 1_555
Ga0 Se2 2.365572 1_555
Ga0 Se9 2.396648 1_555
Ga0 Se12 2.398991 1_455
Ga1 Se3 2.365572 1_555
Ga1 Se5 2.365572 1_555
Ga1 Se8 2.396648 1_555
Ga1 Se13 2.398991 1_555
Ga2 Se6 2.365572 1_555
Ga2 Se0 2.365572 1_555
Ga2 Se11 2.396648 1_555
Ga2 Se14 2.398991 1_655
Ga3 Se1 2.365572 1_555
Ga3 Se7 2.365572 1_555
Ga3 Se10 2.396648 1_555
Ga3 Se15 2.398991 1_555
