# generated using pymatgen
data_Mg5Si6
_symmetry_space_group_name_H-M   'P 1'
_cell_length_a   8.18693497
_cell_length_b   8.18693497
_cell_length_c   6.57095862
_cell_angle_alpha   77.05640166
_cell_angle_beta   77.05640166
_cell_angle_gamma   27.83643335
_symmetry_Int_Tables_number   1
_chemical_formula_structural   Mg5Si6
_chemical_formula_sum   'Mg5 Si6'
_cell_volume   200.10491759
_cell_formula_units_Z   1
loop_
 _symmetry_equiv_pos_site_id
 _symmetry_equiv_pos_as_xyz
  1  'x, y, z'
loop_
 _atom_site_type_symbol
 _atom_site_label
 _atom_site_symmetry_multiplicity
 _atom_site_fract_x
 _atom_site_fract_y
 _atom_site_fract_z
 _atom_site_occupancy
  Mg  Mg0  1  0.50000000  0.50000000  0.00000000  1
  Mg  Mg1  1  0.67266300  0.67266300  0.04919300  1
  Mg  Mg2  1  0.32733700  0.32733700  0.95080700  1
  Mg  Mg3  1  0.59322900  0.59322900  0.56639400  1
  Mg  Mg4  1  0.40677100  0.40677100  0.43360600  1
  Si  Si0  1  0.95561200  0.95561200  0.69738300  1
  Si  Si1  1  0.04438800  0.04438800  0.30261700  1
  Si  Si2  1  0.80590400  0.80590400  0.27212600  1
  Si  Si3  1  0.19409600  0.19409600  0.72787400  1
  Si  Si4  1  0.79860700  0.79860700  0.65988300  1
  Si  Si5  1  0.20139300  0.20139300  0.34011700  1
loop_
_geom_bond_atom_site_label_1
_geom_bond_atom_site_label_2
_geom_bond_distance
_geom_bond_site_symmetry_2
Mg0 Mg1 2.836244 1_555
Mg0 Mg2 2.836244 1_554
Mg0 Mg4 2.892226 1_555
Mg0 Mg3 2.892226 1_554
Mg0 Si0 2.996192 1_544
Mg0 Si0 2.996192 1_454
Mg0 Si1 2.996192 1_565
Mg0 Si1 2.996192 1_655
Mg1 Si2 2.839347 1_555
Mg1 Si3 2.849556 1_564
Mg1 Si3 2.849556 1_654
Mg1 Si5 2.853723 1_565
Mg1 Si5 2.853723 1_655
Mg1 Si4 2.861360 1_554
Mg1 Si1 3.039802 1_655
Mg1 Si1 3.039802 1_565
Mg2 Si3 2.839347 1_555
Mg2 Si2 2.849556 1_456
Mg2 Si2 2.849556 1_546
Mg2 Si4 2.853723 1_455
Mg2 Si4 2.853723 1_545
Mg2 Si5 2.861360 1_556
Mg2 Si0 3.039802 1_455
Mg2 Si0 3.039802 1_545
Mg3 Si5 2.804322 1_565
Mg3 Si5 2.804322 1_655
Mg3 Si1 2.847051 1_565
Mg3 Si1 2.847051 1_655
Mg3 Si3 2.891166 1_565
Mg3 Si3 2.891166 1_655
Mg3 Si0 2.921242 1_455
Mg3 Si0 2.921242 1_545
Mg4 Si4 2.804322 1_545
Mg4 Si4 2.804322 1_455
Mg4 Si0 2.847051 1_455
Mg4 Si0 2.847051 1_545
Mg4 Si2 2.891166 1_545
Mg4 Si2 2.891166 1_455
Mg4 Si1 2.921242 1_655
Mg4 Si1 2.921242 1_565
Si0 Si4 2.563402 1_555
Si0 Si1 2.651476 1_665
Si1 Si5 2.563402 1_555
Si2 Si4 2.523697 1_555
Si2 Si5 2.548338 1_565
Si2 Si5 2.548338 1_655
Si3 Si5 2.523697 1_555
Si3 Si4 2.548338 1_545
Si3 Si4 2.548338 1_455
