# generated using pymatgen
data_Ti13Al9MoRh7
_symmetry_space_group_name_H-M   'P 1'
_cell_length_a   8.70935782
_cell_length_b   8.70935705
_cell_length_c   8.70935798
_cell_angle_alpha   59.65315267
_cell_angle_beta   59.65315838
_cell_angle_gamma   59.65316420
_symmetry_Int_Tables_number   1
_chemical_formula_structural   Ti13Al9MoRh7
_chemical_formula_sum   'Ti13 Al9 Mo1 Rh7'
_cell_volume   463.45466045
_cell_formula_units_Z   1
loop_
 _symmetry_equiv_pos_site_id
 _symmetry_equiv_pos_as_xyz
  1  'x, y, z'
loop_
 _atom_site_type_symbol
 _atom_site_label
 _atom_site_symmetry_multiplicity
 _atom_site_fract_x
 _atom_site_fract_y
 _atom_site_fract_z
 _atom_site_occupancy
  Ti  Ti0  1  0.21481188  0.21481188  0.78716107  1
  Ti  Ti1  1  0.78716107  0.21481188  0.21481188  1
  Ti  Ti2  1  0.21481188  0.78716107  0.21481188  1
  Ti  Ti3  1  0.79306004  0.79306004  0.19118073  1
  Ti  Ti4  1  0.19118073  0.79306004  0.79306004  1
  Ti  Ti5  1  0.79306004  0.19118073  0.79306004  1
  Ti  Ti6  1  0.37800611  0.37800611  0.37800611  1
  Ti  Ti7  1  0.37861538  0.86868156  0.37861538  1
  Ti  Ti8  1  0.86868156  0.37861538  0.37861538  1
  Ti  Ti9  1  0.37861538  0.37861538  0.86868156  1
  Ti  Ti10  1  0.84798313  0.45906960  0.84798313  1
  Ti  Ti11  1  0.45906960  0.84798313  0.84798313  1
  Ti  Ti12  1  0.84798313  0.84798313  0.45906960  1
  Al  Al0  1  0.14998025  0.14998025  0.14998025  1
  Al  Al1  1  0.15341581  0.54699705  0.15341581  1
  Al  Al2  1  0.54699705  0.15341581  0.15341581  1
  Al  Al3  1  0.15341581  0.15341581  0.54699705  1
  Al  Al4  1  0.61928993  0.61928993  0.61928993  1
  Al  Al5  1  0.62035808  0.14150960  0.62035808  1
  Al  Al6  1  0.14150960  0.62035808  0.62035808  1
  Al  Al7  1  0.62035808  0.62035808  0.14150960  1
  Al  Al8  1  0.83115774  0.83115774  0.83115774  1
  Mo  Mo0  1  0.00204136  0.00204136  0.00204136  1
  Rh  Rh0  1  0.00415167  0.00415167  0.49830030  1
  Rh  Rh1  1  0.49830030  0.00415167  0.00415167  1
  Rh  Rh2  1  0.00415167  0.49830030  0.00415167  1
  Rh  Rh3  1  0.50023306  0.50023306  0.00108630  1
  Rh  Rh4  1  0.00108630  0.50023306  0.50023306  1
  Rh  Rh5  1  0.50023306  0.00108630  0.50023306  1
  Rh  Rh6  1  0.50028030  0.50028030  0.50028030  1
loop_
_geom_bond_atom_site_label_1
_geom_bond_atom_site_label_2
_geom_bond_distance
_geom_bond_site_symmetry_2
Al0 Rh2 2.504512 1_555
Al0 Rh0 2.504512 1_555
Al0 Rh1 2.504513 1_555
Al1 Rh4 2.510648 1_555
Al1 Rh3 2.510648 1_555
Al1 Rh2 2.526216 1_555
Al2 Rh3 2.510648 1_555
Al2 Rh5 2.510648 1_555
Al2 Rh1 2.526216 1_555
Al3 Rh4 2.510648 1_555
Al3 Rh5 2.510648 1_555
Al3 Rh0 2.526216 1_555
Al4 Rh6 2.545525 1_555
Al4 Rh5 2.706606 1_565
Al4 Rh3 2.706606 1_556
Al4 Rh4 2.706607 1_655
Al5 Rh6 2.540099 1_555
Al5 Rh5 2.716002 1_555
Al5 Rh1 2.718097 1_556
Al5 Rh0 2.718098 1_655
Al6 Rh6 2.540100 1_555
Al6 Rh4 2.716002 1_555
Al6 Rh0 2.718097 1_565
Al6 Rh2 2.718097 1_556
Al7 Rh6 2.540100 1_555
Al7 Rh3 2.716002 1_555
Al7 Rh1 2.718097 1_565
Al7 Rh2 2.718098 1_655
Al8 Rh0 2.531982 1_665
Al8 Rh2 2.531982 1_656
Al8 Rh1 2.531983 1_566
Mo0 Ti3 2.574345 1_445
Mo0 Ti5 2.574345 1_454
Mo0 Ti4 2.574345 1_544
Mo0 Ti0 2.613733 1_554
Mo0 Ti2 2.613733 1_545
Mo0 Ti1 2.613733 1_455
Rh0 Ti12 2.573930 1_445
Rh0 Ti8 2.652236 1_455
Rh0 Ti7 2.652236 1_545
Rh0 Ti4 3.008985 1_545
Rh0 Ti5 3.008985 1_455
Rh0 Ti1 3.109277 1_455
Rh0 Ti2 3.109277 1_545
Rh1 Ti11 2.573930 1_544
Rh1 Ti9 2.652236 1_554
Rh1 Ti7 2.652236 1_545
Rh1 Ti5 3.008984 1_554
Rh1 Ti3 3.008985 1_545
Rh1 Ti2 3.109277 1_545
Rh1 Ti0 3.109277 1_554
Rh2 Ti10 2.573930 1_454
Rh2 Ti8 2.652236 1_455
Rh2 Ti9 2.652236 1_554
Rh2 Ti4 3.008984 1_554
Rh2 Ti3 3.008985 1_455
Rh2 Ti1 3.109277 1_455
Rh2 Ti0 3.109277 1_554
Rh3 Ti11 2.526765 1_554
Rh3 Ti10 2.526765 1_554
Rh3 Ti6 2.669376 1_555
Rh3 Ti9 2.678761 1_554
Rh4 Ti12 2.526765 1_455
Rh4 Ti10 2.526765 1_455
Rh4 Ti6 2.669376 1_555
Rh4 Ti8 2.678761 1_455
Rh5 Ti11 2.526765 1_545
Rh5 Ti12 2.526765 1_545
Rh5 Ti6 2.669376 1_555
Rh5 Ti7 2.678761 1_545
Rh6 Ti7 2.608452 1_555
Rh6 Ti9 2.608452 1_555
Rh6 Ti8 2.608452 1_555
Rh6 Ti6 2.615351 1_555
