# generated using pymatgen
data_Ta24GaSi2As5
_symmetry_space_group_name_H-M   'P 1'
_cell_length_a   10.24518594
_cell_length_b   10.27627769
_cell_length_c   5.19539882
_cell_angle_alpha   89.93545429
_cell_angle_beta   89.93766972
_cell_angle_gamma   90.00198726
_symmetry_Int_Tables_number   1
_chemical_formula_structural   Ta24GaSi2As5
_chemical_formula_sum   'Ta24 Ga1 Si2 As5'
_cell_volume   546.98325906
_cell_formula_units_Z   1
loop_
 _symmetry_equiv_pos_site_id
 _symmetry_equiv_pos_as_xyz
  1  'x, y, z'
loop_
 _atom_site_type_symbol
 _atom_site_label
 _atom_site_symmetry_multiplicity
 _atom_site_fract_x
 _atom_site_fract_y
 _atom_site_fract_z
 _atom_site_occupancy
  Ta  Ta0  1  0.51798364  0.64743698  0.27019072  1
  Ta  Ta1  1  0.40122884  0.08664377  0.02627648  1
  Ta  Ta2  1  0.70955953  0.80806538  0.51130960  1
  Ta  Ta3  1  0.89925352  0.58305155  0.46970700  1
  Ta  Ta4  1  0.85018148  0.01158826  0.77476867  1
  Ta  Ta5  1  0.01537171  0.14878826  0.22984239  1
  Ta  Ta6  1  0.78493755  0.68833245  0.98748269  1
  Ta  Ta7  1  0.28777327  0.19036084  0.51389438  1
  Ta  Ta8  1  0.69255419  0.21445997  0.01040127  1
  Ta  Ta9  1  0.41740179  0.90098225  0.52856336  1
  Ta  Ta10  1  0.80934030  0.29133783  0.48557708  1
  Ta  Ta11  1  0.35371271  0.51810342  0.72998737  1
  Ta  Ta12  1  0.64775235  0.48816918  0.72505955  1
  Ta  Ta13  1  0.14851923  0.98302071  0.77398597  1
  Ta  Ta14  1  0.21059580  0.31156158  0.98910669  1
  Ta  Ta15  1  0.91376761  0.40543924  0.97484321  1
  Ta  Ta16  1  0.31333042  0.78791817  0.01073076  1
  Ta  Ta17  1  0.59525064  0.91269280  0.02295441  1
  Ta  Ta18  1  0.08667983  0.59913985  0.97445321  1
  Ta  Ta19  1  0.09566526  0.41306233  0.47454144  1
  Ta  Ta20  1  0.98696856  0.85143865  0.22451713  1
  Ta  Ta21  1  0.19190278  0.71192720  0.48909715  1
  Ta  Ta22  1  0.48773325  0.35339858  0.27407068  1
  Ta  Ta23  1  0.58549463  0.09852771  0.52619445  1
  Ga  Ga0  1  0.02285027  0.20324374  0.72674891  1
  Si  Si0  1  0.70431562  0.47389592  0.22006220  1
  Si  Si1  1  0.52621854  0.70476387  0.77620015  1
  As  As0  1  0.97346216  0.79249896  0.72101238  1
  As  As1  1  0.20637438  0.97473001  0.27774273  1
  As  As2  1  0.79379490  0.02508530  0.27713002  1
  As  As3  1  0.47518346  0.29564948  0.77719266  1
  As  As4  1  0.29484277  0.52468574  0.22635629  1
loop_
_geom_bond_atom_site_label_1
_geom_bond_atom_site_label_2
_geom_bond_distance
_geom_bond_site_symmetry_2
Ga0 Ta14 2.608773 1_555
Ga0 Ta13 2.615153 1_545
Ga0 Ta19 2.629420 1_555
Ga0 Ta5 2.643389 1_555
Ga0 Ta4 2.658633 1_455
Ga0 Ta5 2.673404 1_556
Ga0 Ta10 2.679175 1_455
Ga0 Ta15 2.689004 1_455
Ga0 Ta7 2.932761 1_555
Si0 Ta22 2.556040 1_555
Si0 Ta10 2.564693 1_555
Si0 Ta15 2.592092 1_554
Si0 Ta0 2.625393 1_555
Si0 Ta3 2.633995 1_555
Si0 Ta12 2.640750 1_554
Si0 Ta6 2.643850 1_554
Si0 Ta12 2.690447 1_555
Si0 Ta8 2.883676 1_555
Si1 Ta2 2.557352 1_555
Si1 Ta12 2.564350 1_555
Si1 Ta17 2.591788 1_556
Si1 Ta11 2.619600 1_555
Si1 Ta0 2.633836 1_556
Si1 Ta9 2.638453 1_555
Si1 Ta16 2.639827 1_556
Si1 Ta0 2.696175 1_555
Si1 Ta6 2.874927 1_555
As0 Ta4 2.596729 1_565
As0 Ta6 2.604562 1_555
As0 Ta3 2.631282 1_555
As0 Ta18 2.650476 1_655
As0 Ta20 2.652446 1_555
As0 Ta13 2.669756 1_655
As0 Ta21 2.672510 1_655
As0 Ta20 2.689484 1_556
As0 Ta2 2.920409 1_555
As1 Ta20 2.595474 1_455
As1 Ta16 2.610242 1_555
As1 Ta9 2.636432 1_555
As1 Ta13 2.646278 1_555
As1 Ta1 2.646802 1_565
As1 Ta5 2.662868 1_565
As1 Ta7 2.668167 1_565
As1 Ta13 2.685386 1_554
As1 Ta21 2.917894 1_555
As2 Ta8 2.603949 1_555
As2 Ta23 2.606642 1_555
As2 Ta5 2.612956 1_655
As2 Ta4 2.653275 1_555
As2 Ta4 2.676273 1_554
As2 Ta20 2.678797 1_545
As2 Ta2 2.681437 1_545
As2 Ta17 2.687858 1_545
As2 Ta10 2.948112 1_555
As3 Ta7 2.595657 1_555
As3 Ta11 2.614248 1_555
As3 Ta1 2.617878 1_556
As3 Ta22 2.652718 1_556
As3 Ta23 2.661587 1_555
As3 Ta12 2.666591 1_555
As3 Ta8 2.669713 1_556
As3 Ta22 2.682732 1_555
As3 Ta14 2.929334 1_555
As4 Ta21 2.584738 1_555
As4 Ta18 2.617325 1_554
As4 Ta0 2.621256 1_555
As4 Ta11 2.648725 1_554
As4 Ta22 2.658086 1_555
As4 Ta14 2.658798 1_554
As4 Ta19 2.670815 1_555
As4 Ta11 2.686595 1_555
As4 Ta16 2.932717 1_555
