# generated using pymatgen
data_La3RuO7
_symmetry_space_group_name_H-M   'P 1'
_cell_length_a   6.72074198
_cell_length_b   6.72074198
_cell_length_c   7.62489849
_cell_angle_alpha   90.00000000
_cell_angle_beta   90.00000000
_cell_angle_gamma   113.04606801
_symmetry_Int_Tables_number   1
_chemical_formula_structural   La3RuO7
_chemical_formula_sum   'La6 Ru2 O14'
_cell_volume   316.91748906
_cell_formula_units_Z   2
loop_
 _symmetry_equiv_pos_site_id
 _symmetry_equiv_pos_as_xyz
  1  'x, y, z'
loop_
 _atom_site_type_symbol
 _atom_site_label
 _atom_site_symmetry_multiplicity
 _atom_site_fract_x
 _atom_site_fract_y
 _atom_site_fract_z
 _atom_site_occupancy
  La  La0  1  0.46167206  0.90139503  0.75000000  1
  La  La1  1  0.53832794  0.09860497  0.25000000  1
  La  La2  1  0.90139503  0.46167206  0.75000000  1
  La  La3  1  0.09860497  0.53832794  0.25000000  1
  La  La4  1  0.00000000  -0.00000000  0.50000000  1
  La  La5  1  0.00000000  -0.00000000  0.00000000  1
  Ru  Ru0  1  0.50000000  0.50000000  0.50000000  1
  Ru  Ru1  1  0.50000000  0.50000000  0.00000000  1
  O  O0  1  0.58020784  0.58020784  0.75000000  1
  O  O1  1  0.41979216  0.41979216  0.25000000  1
  O  O2  1  0.83659864  0.09669891  0.75000000  1
  O  O3  1  0.16340136  0.90330109  0.25000000  1
  O  O4  1  0.09669891  0.83659864  0.75000000  1
  O  O5  1  0.90330109  0.16340136  0.25000000  1
  O  O6  1  0.44213952  0.19481104  0.95762221  1
  O  O7  1  0.55786048  0.80518896  0.45762221  1
  O  O8  1  0.19481104  0.44213952  0.95762221  1
  O  O9  1  0.80518896  0.55786048  0.45762221  1
  O  O10  1  0.44213952  0.19481104  0.54237779  1
  O  O11  1  0.55786048  0.80518896  0.04237779  1
  O  O12  1  0.80518896  0.55786048  0.04237779  1
  O  O13  1  0.19481104  0.44213952  0.54237779  1
loop_
_geom_bond_atom_site_label_1
_geom_bond_atom_site_label_2
_geom_bond_distance
_geom_bond_site_symmetry_2
La0 O4 2.317323 1_555
La0 O2 2.341510 1_565
La0 O11 2.476536 1_556
La0 O7 2.476536 1_555
La0 O6 2.571923 1_565
La0 O10 2.571923 1_565
La0 O0 2.576949 1_555
La1 O5 2.317323 1_555
La1 O3 2.341510 1_545
La1 O6 2.476536 1_554
La1 O10 2.476536 1_555
La1 O7 2.571923 1_545
La1 O11 2.571923 1_545
La1 O1 2.576949 1_555
La2 O2 2.317323 1_555
La2 O4 2.341510 1_655
La2 O12 2.476536 1_556
La2 O9 2.476536 1_555
La2 O8 2.571923 1_655
La2 O13 2.571923 1_655
La2 O0 2.576949 1_555
La3 O3 2.317323 1_555
La3 O5 2.341510 1_455
La3 O13 2.476536 1_555
La3 O8 2.476536 1_554
La3 O9 2.571923 1_455
La3 O12 2.571923 1_455
La3 O1 2.576949 1_555
La4 O5 2.412638 1_455
La4 O3 2.412638 1_545
La4 O4 2.412638 1_545
La4 O2 2.412638 1_455
La4 O13 2.757246 1_555
La4 O10 2.757246 1_555
La4 O7 2.757246 1_445
La4 O9 2.757246 1_445
La5 O5 2.412638 1_455
La5 O3 2.412638 1_545
La5 O4 2.412638 1_544
La5 O2 2.412638 1_454
La5 O6 2.757246 1_554
La5 O8 2.757246 1_554
La5 O11 2.757246 1_445
La5 O12 2.757246 1_445
O0 Ru0 1.996834 1_555
O0 Ru1 1.996834 1_556
O1 Ru0 1.996834 1_555
O1 Ru1 1.996834 1_555
O6 Ru1 1.959119 1_556
O7 Ru0 1.959119 1_555
O8 Ru1 1.959119 1_556
O9 Ru0 1.959119 1_555
O10 Ru0 1.959119 1_555
O11 Ru1 1.959119 1_555
O12 Ru1 1.959119 1_555
O13 Ru0 1.959119 1_555
