# generated using pymatgen
data_YCoNiO5
_symmetry_space_group_name_H-M   'P 1'
_cell_length_a   5.60118457
_cell_length_b   7.04603977
_cell_length_c   8.38506665
_cell_angle_alpha   90.00000000
_cell_angle_beta   90.00000000
_cell_angle_gamma   90.00000000
_symmetry_Int_Tables_number   1
_chemical_formula_structural   YCoNiO5
_chemical_formula_sum   'Y4 Co4 Ni4 O20'
_cell_volume   330.92645962
_cell_formula_units_Z   4
loop_
 _symmetry_equiv_pos_site_id
 _symmetry_equiv_pos_as_xyz
  1  'x, y, z'
loop_
 _atom_site_type_symbol
 _atom_site_label
 _atom_site_symmetry_multiplicity
 _atom_site_fract_x
 _atom_site_fract_y
 _atom_site_fract_z
 _atom_site_occupancy
  Y  Y0  1  0.50000000  0.36250389  0.32623837  1
  Y  Y1  1  0.50000000  0.63749611  0.67376163  1
  Y  Y2  1  0.50000000  0.13749611  0.82623837  1
  Y  Y3  1  0.50000000  0.86250389  0.17376163  1
  Co  Co0  1  0.24281002  0.00000000  0.50000000  1
  Co  Co1  1  0.75718998  0.00000000  0.50000000  1
  Co  Co2  1  0.75718998  0.50000000  0.00000000  1
  Co  Co3  1  0.24281002  0.50000000  0.00000000  1
  Ni  Ni0  1  0.00000000  0.08748891  0.14850648  1
  Ni  Ni1  1  0.00000000  0.91251109  0.85149352  1
  Ni  Ni2  1  0.00000000  0.41251109  0.64850648  1
  Ni  Ni3  1  0.00000000  0.58748891  0.35149352  1
  O  O0  1  0.22360144  0.00000000  0.00000000  1
  O  O1  1  0.77639856  0.00000000  0.00000000  1
  O  O2  1  0.77639856  0.50000000  0.50000000  1
  O  O3  1  0.22360144  0.50000000  0.50000000  1
  O  O4  1  0.00000000  0.34538353  0.05943804  1
  O  O5  1  0.00000000  0.65461647  0.94056196  1
  O  O6  1  0.00000000  0.15461647  0.55943804  1
  O  O7  1  0.00000000  0.84538353  0.44056196  1
  O  O8  1  0.25423846  0.10335823  0.29040346  1
  O  O9  1  0.74576154  0.89664177  0.70959654  1
  O  O10  1  0.25423846  0.89664177  0.70959654  1
  O  O11  1  0.74576154  0.39664177  0.79040346  1
  O  O12  1  0.74576154  0.10335823  0.29040346  1
  O  O13  1  0.25423846  0.60335823  0.20959654  1
  O  O14  1  0.74576154  0.60335823  0.20959654  1
  O  O15  1  0.25423846  0.39664177  0.79040346  1
  O  O16  1  0.50000000  0.33706556  0.05294460  1
  O  O17  1  0.50000000  0.66293444  0.94705540  1
  O  O18  1  0.50000000  0.16293444  0.55294460  1
  O  O19  1  0.50000000  0.83706556  0.44705540  1
loop_
_geom_bond_atom_site_label_1
_geom_bond_atom_site_label_2
_geom_bond_distance
_geom_bond_site_symmetry_2
Co0 O6 1.812436 1_555
Co0 O7 1.812436 1_545
Co0 O18 1.894815 1_555
Co0 O19 1.894815 1_545
Co0 O10 1.903473 1_545
Co0 O8 1.903473 1_555
Co1 O6 1.812436 1_655
Co1 O7 1.812436 1_645
Co1 O18 1.894815 1_555
Co1 O19 1.894815 1_545
Co1 O9 1.903473 1_545
Co1 O12 1.903473 1_555
Co2 O5 1.812436 1_654
Co2 O4 1.812436 1_655
Co2 O17 1.894815 1_554
Co2 O16 1.894815 1_555
Co2 O14 1.903473 1_555
Co2 O11 1.903473 1_554
Co3 O5 1.812436 1_554
Co3 O4 1.812436 1_555
Co3 O17 1.894815 1_554
Co3 O16 1.894815 1_555
Co3 O13 1.903473 1_555
Co3 O15 1.903473 1_554
Ni0 O12 1.859044 1_455
Ni0 O8 1.859044 1_555
Ni0 O0 1.870619 1_555
Ni0 O1 1.870619 1_455
Ni0 O4 1.964627 1_555
Ni1 O9 1.859044 1_455
Ni1 O10 1.859044 1_555
Ni1 O0 1.870619 1_566
Ni1 O1 1.870619 1_466
Ni1 O5 1.964627 1_555
Ni2 O11 1.859044 1_455
Ni2 O15 1.859044 1_555
Ni2 O3 1.870619 1_555
Ni2 O2 1.870619 1_455
Ni2 O6 1.964627 1_555
Ni3 O14 1.859044 1_455
Ni3 O13 1.859044 1_555
Ni3 O3 1.870619 1_555
Ni3 O2 1.870619 1_455
Ni3 O7 1.964627 1_555
O0 Y3 2.336286 1_545
O0 Y2 2.336286 1_554
O1 Y3 2.336286 1_545
O1 Y2 2.336286 1_554
O2 Y1 2.336286 1_555
O2 Y0 2.336286 1_555
O3 Y1 2.336286 1_555
O3 Y0 2.336286 1_555
O8 Y0 2.306358 1_555
O8 Y3 2.394062 1_545
O9 Y1 2.306358 1_555
O9 Y2 2.394062 1_565
O10 Y1 2.306358 1_555
O10 Y2 2.394062 1_565
O11 Y2 2.306358 1_555
O11 Y1 2.394062 1_555
O12 Y0 2.306358 1_555
O12 Y3 2.394062 1_545
O13 Y3 2.306358 1_555
O13 Y0 2.394062 1_555
O14 Y3 2.306358 1_555
O14 Y0 2.394062 1_555
O15 Y2 2.306358 1_555
O15 Y1 2.394062 1_555
O16 Y0 2.298585 1_555
O16 Y2 2.364514 1_554
O17 Y1 2.298585 1_555
O17 Y3 2.364514 1_556
O18 Y2 2.298585 1_555
O18 Y0 2.364514 1_555
O19 Y3 2.298585 1_555
O19 Y1 2.364514 1_555
