# generated using pymatgen
data_BaIn2AgSn
_symmetry_space_group_name_H-M   'P 1'
_cell_length_a   7.02883015
_cell_length_b   7.02883058
_cell_length_c   7.02883038
_cell_angle_alpha   139.79224670
_cell_angle_beta   139.79225723
_cell_angle_gamma   58.16886692
_symmetry_Int_Tables_number   1
_chemical_formula_structural   BaIn2AgSn
_chemical_formula_sum   'Ba1 In2 Ag1 Sn1'
_cell_volume   143.41373049
_cell_formula_units_Z   1
loop_
 _symmetry_equiv_pos_site_id
 _symmetry_equiv_pos_as_xyz
  1  'x, y, z'
loop_
 _atom_site_type_symbol
 _atom_site_label
 _atom_site_symmetry_multiplicity
 _atom_site_fract_x
 _atom_site_fract_y
 _atom_site_fract_z
 _atom_site_occupancy
  Ba  Ba0  1  0.00152561  0.00152561  1.00000000  1
  In  In0  1  0.74218429  0.24218429  0.50000000  1
  In  In1  1  0.24218429  0.74218429  0.50000000  1
  Ag  Ag0  1  0.62027543  0.62027543  1.00000000  1
  Sn  Sn0  1  0.39383137  0.39383137  0.00000000  1
loop_
_geom_bond_atom_site_label_1
_geom_bond_atom_site_label_2
_geom_bond_distance
_geom_bond_site_symmetry_2
Ba0 Sn0 3.663911 1_456
Ba0 Sn0 3.663911 1_546
Ba0 Sn0 3.663912 1_557
Ba0 Sn0 3.663912 1_445
Ba0 In0 3.818093 1_556
Ba0 In0 3.818093 1_455
Ba0 In1 3.818093 1_545
Ba0 In1 3.818094 1_556
Ba0 In1 3.998456 1_445
Ba0 In1 3.998456 1_546
Ba0 In0 3.998456 1_456
Ba0 In0 3.998457 1_445
In0 Sn0 3.050845 1_656
In0 Sn0 3.050846 1_555
In1 Sn0 3.050846 1_555
In1 Sn0 3.050846 1_566
Ag0 Sn0 2.781877 1_556
Ag0 In1 2.842515 1_656
Ag0 In1 2.842515 1_555
Ag0 In0 2.842516 1_555
Ag0 In0 2.842516 1_566
Ag0 Ba0 3.715114 1_565
Ag0 Ba0 3.715115 1_655
Ag0 Ba0 3.715115 1_666
Ag0 Ba0 3.715115 1_554
