# generated using pymatgen
data_Re3Tc2RuRh2
_symmetry_space_group_name_H-M   'P 1'
_cell_length_a   5.49227770
_cell_length_b   5.49227663
_cell_length_c   4.35178007
_cell_angle_alpha   90.00000000
_cell_angle_beta   90.00000000
_cell_angle_gamma   120.09126676
_symmetry_Int_Tables_number   1
_chemical_formula_structural   Re3Tc2RuRh2
_chemical_formula_sum   'Re3 Tc2 Ru1 Rh2'
_cell_volume   113.58011943
_cell_formula_units_Z   1
loop_
 _symmetry_equiv_pos_site_id
 _symmetry_equiv_pos_as_xyz
  1  'x, y, z'
loop_
 _atom_site_type_symbol
 _atom_site_label
 _atom_site_symmetry_multiplicity
 _atom_site_fract_x
 _atom_site_fract_y
 _atom_site_fract_z
 _atom_site_occupancy
  Re  Re0  1  0.16041803  0.32354489  0.25000000  1
  Re  Re1  1  0.67645511  0.83958197  0.25000000  1
  Re  Re2  1  0.16103203  0.83896797  0.25000000  1
  Tc  Tc0  1  0.84013412  0.67964713  0.75000000  1
  Tc  Tc1  1  0.32035287  0.15986588  0.75000000  1
  Ru  Ru0  1  0.83888831  0.16111169  0.75000000  1
  Rh  Rh0  1  0.33508345  0.66491655  0.75000000  1
  Rh  Rh1  1  0.66763409  0.33236591  0.25000000  1
loop_
_geom_bond_atom_site_label_1
_geom_bond_atom_site_label_2
_geom_bond_distance
_geom_bond_site_symmetry_2
Re0 Re1 2.654391 1_445
Re0 Ru0 2.658782 1_454
Re0 Ru0 2.658782 1_455
Re0 Re2 2.663123 1_545
Re0 Tc1 2.665724 1_555
Re0 Tc1 2.665724 1_554
Re0 Rh0 2.714125 1_554
Re0 Rh0 2.714125 1_555
Re0 Rh1 2.731118 1_455
Re0 Rh1 2.761799 1_555
Re0 Re2 2.829157 1_555
Re0 Re1 2.830308 1_555
Re1 Ru0 2.658781 1_565
Re1 Ru0 2.658781 1_564
Re1 Re2 2.663123 1_655
Re1 Tc0 2.665724 1_554
Re1 Tc0 2.665724 1_555
Re1 Rh0 2.714125 1_554
Re1 Rh0 2.714125 1_555
Re1 Rh1 2.731118 1_565
Re1 Rh1 2.761799 1_555
Re1 Re2 2.829157 1_555
Re2 Tc1 2.657063 1_564
Re2 Tc1 2.657063 1_565
Re2 Tc0 2.657063 1_455
Re2 Tc0 2.657063 1_454
Re2 Rh0 2.734680 1_555
Re2 Rh0 2.734680 1_554
Re2 Rh1 2.743069 1_455
Re2 Rh1 2.743069 1_565
Tc0 Tc1 2.633855 1_665
Tc0 Tc1 2.850844 1_555
Ru0 Tc0 2.647774 1_545
Ru0 Tc1 2.647774 1_655
Ru0 Tc0 2.844516 1_555
Ru0 Tc1 2.844516 1_555
Rh0 Tc1 2.734210 1_555
Rh0 Tc0 2.734211 1_555
Rh0 Ru0 2.742588 1_455
Rh0 Ru0 2.742589 1_565
Rh0 Tc1 2.759850 1_565
Rh0 Tc0 2.759851 1_455
Rh1 Ru0 2.718637 1_555
Rh1 Ru0 2.718637 1_554
Rh1 Tc0 2.730949 1_555
Rh1 Tc0 2.730949 1_554
Rh1 Tc1 2.730949 1_555
Rh1 Tc1 2.730949 1_554
