# generated using pymatgen
data_Ba4NaSb2P
_symmetry_space_group_name_H-M   'P 1'
_cell_length_a   8.98323938
_cell_length_b   10.19680546
_cell_length_c   13.61967991
_cell_angle_alpha   90.00000000
_cell_angle_beta   90.00000000
_cell_angle_gamma   90.00000000
_symmetry_Int_Tables_number   1
_chemical_formula_structural   Ba4NaSb2P
_chemical_formula_sum   'Ba16 Na4 Sb8 P4'
_cell_volume   1247.56737035
_cell_formula_units_Z   4
loop_
 _symmetry_equiv_pos_site_id
 _symmetry_equiv_pos_as_xyz
  1  'x, y, z'
loop_
 _atom_site_type_symbol
 _atom_site_label
 _atom_site_symmetry_multiplicity
 _atom_site_fract_x
 _atom_site_fract_y
 _atom_site_fract_z
 _atom_site_occupancy
  Ba  Ba0  1  0.84646699  0.75000000  0.79315914  1
  Ba  Ba1  1  0.15353301  0.25000000  0.20684086  1
  Ba  Ba2  1  0.34646699  0.25000000  0.70684086  1
  Ba  Ba3  1  0.65353301  0.75000000  0.29315914  1
  Ba  Ba4  1  0.70270982  0.50036091  0.56234948  1
  Ba  Ba5  1  0.29729018  0.49963909  0.43765052  1
  Ba  Ba6  1  0.20270982  0.49963909  0.93765052  1
  Ba  Ba7  1  0.29729018  0.00036091  0.43765052  1
  Ba  Ba8  1  0.79729018  0.50036091  0.06234948  1
  Ba  Ba9  1  0.70270982  0.99963909  0.56234948  1
  Ba  Ba10  1  0.79729018  0.99963909  0.06234948  1
  Ba  Ba11  1  0.20270982  0.00036091  0.93765052  1
  Ba  Ba12  1  0.34568360  0.75000000  0.70683539  1
  Ba  Ba13  1  0.65431640  0.25000000  0.29316461  1
  Ba  Ba14  1  0.84568360  0.25000000  0.79316461  1
  Ba  Ba15  1  0.15431640  0.75000000  0.20683539  1
  Na  Na0  1  0.00041741  0.75000000  0.50013033  1
  Na  Na1  1  0.99958259  0.25000000  0.49986967  1
  Na  Na2  1  0.50041741  0.25000000  0.99986967  1
  Na  Na3  1  0.49958259  0.75000000  0.00013033  1
  Sb  Sb0  1  0.56773591  0.50020451  0.83388274  1
  Sb  Sb1  1  0.43226409  0.49979549  0.16611726  1
  Sb  Sb2  1  0.06773591  0.49979549  0.66611726  1
  Sb  Sb3  1  0.43226409  0.00020451  0.16611726  1
  Sb  Sb4  1  0.93226409  0.50020451  0.33388274  1
  Sb  Sb5  1  0.56773591  0.99979549  0.83388274  1
  Sb  Sb6  1  0.93226409  0.99979549  0.33388274  1
  Sb  Sb7  1  0.06773591  0.00020451  0.66611726  1
  P  P0  1  0.00098270  0.75000000  0.99972372  1
  P  P1  1  0.99901730  0.25000000  0.00027628  1
  P  P2  1  0.50098270  0.25000000  0.50027628  1
  P  P3  1  0.49901730  0.75000000  0.49972372  1
loop_
_geom_bond_atom_site_label_1
_geom_bond_atom_site_label_2
_geom_bond_distance
_geom_bond_site_symmetry_2
Ba0 P0 3.137131 1_655
Ba0 Sb5 3.614552 1_555
Ba0 Sb0 3.614552 1_555
Ba0 Sb7 3.667955 1_665
Ba0 Sb2 3.667955 1_655
Ba1 P1 3.137131 1_455
Ba1 Sb1 3.614552 1_555
Ba1 Sb3 3.614552 1_555
Ba1 Sb4 3.667955 1_455
Ba1 Sb6 3.667955 1_445
Ba2 P2 3.137131 1_555
Ba2 Sb2 3.614552 1_555
Ba2 Sb7 3.614552 1_555
Ba2 Sb0 3.667955 1_555
Ba2 Sb5 3.667955 1_545
Ba3 P3 3.137131 1_555
Ba3 Sb6 3.614552 1_555
Ba3 Sb4 3.614552 1_555
Ba3 Sb3 3.667955 1_565
Ba3 Sb1 3.667955 1_555
Ba4 P2 3.242818 1_555
Ba4 P3 3.248912 1_555
Ba4 Sb2 3.570716 1_655
Ba4 Sb4 3.732929 1_555
Ba4 Sb0 3.891892 1_555
Ba5 P3 3.242818 1_555
Ba5 P2 3.248912 1_555
Ba5 Sb4 3.570716 1_455
Ba5 Sb2 3.732929 1_555
Ba5 Sb1 3.891892 1_555
Ba6 P0 3.242818 1_555
Ba6 P1 3.248912 1_456
Ba6 Sb0 3.570716 1_555
Ba6 Sb1 3.732929 1_556
Ba6 Sb2 3.891892 1_555
Ba7 P3 3.242818 1_545
Ba7 P2 3.248912 1_555
Ba7 Sb6 3.570716 1_445
Ba7 Sb7 3.732929 1_555
Ba7 Sb3 3.891892 1_555
Ba8 P1 3.242818 1_555
Ba8 P0 3.248912 1_654
Ba8 Sb1 3.570716 1_555
Ba8 Sb0 3.732929 1_554
Ba8 Sb4 3.891892 1_555
Ba9 P2 3.242818 1_565
Ba9 P3 3.248912 1_555
Ba9 Sb7 3.570716 1_665
Ba9 Sb6 3.732929 1_555
Ba9 Sb5 3.891892 1_555
Ba10 P1 3.242818 1_565
Ba10 P0 3.248912 1_654
Ba10 Sb3 3.570716 1_565
Ba10 Sb5 3.732929 1_554
Ba10 Sb6 3.891892 1_555
Ba11 P0 3.242818 1_545
Ba11 P1 3.248912 1_456
Ba11 Sb5 3.570716 1_545
Ba11 Sb3 3.732929 1_556
Ba11 Sb7 3.891892 1_555
Ba12 P3 3.139141 1_555
Ba12 Sb7 3.612613 1_565
Ba12 Sb2 3.612613 1_555
Ba12 Sb5 3.668912 1_555
Ba12 Sb0 3.668912 1_555
Ba13 P2 3.139141 1_555
Ba13 Sb4 3.612613 1_555
Ba13 Sb6 3.612613 1_545
Ba13 Sb1 3.668912 1_555
Ba13 Sb3 3.668912 1_555
Ba14 P1 3.139141 1_556
Ba14 Sb0 3.612613 1_555
Ba14 Sb5 3.612613 1_545
Ba14 Sb2 3.668912 1_655
Ba14 Sb7 3.668912 1_655
Ba15 P0 3.139141 1_554
Ba15 Sb3 3.612613 1_565
Ba15 Sb1 3.612613 1_555
Ba15 Sb6 3.668912 1_455
Ba15 Sb4 3.668912 1_455
Na0 Sb7 3.462006 1_565
Na0 Sb2 3.462006 1_555
Na0 Sb6 3.462573 1_455
Na0 Sb4 3.462573 1_455
Na1 Sb4 3.462006 1_555
Na1 Sb6 3.462006 1_545
Na1 Sb2 3.462573 1_655
Na1 Sb7 3.462573 1_655
Na2 Sb0 3.462006 1_555
Na2 Sb5 3.462006 1_545
Na2 Sb1 3.462573 1_556
Na2 Sb3 3.462573 1_556
Na3 Sb3 3.462006 1_565
Na3 Sb1 3.462006 1_555
Na3 Sb5 3.462573 1_554
Na3 Sb0 3.462573 1_554
