# generated using pymatgen
data_In7IrCl12
_symmetry_space_group_name_H-M   'P 1'
_cell_length_a   8.74531857
_cell_length_b   8.74531796
_cell_length_c   8.74531852
_cell_angle_alpha   104.88478178
_cell_angle_beta   104.88478267
_cell_angle_gamma   104.88478948
_symmetry_Int_Tables_number   1
_chemical_formula_structural   In7IrCl12
_chemical_formula_sum   'In7 Ir1 Cl12'
_cell_volume   586.20312986
_cell_formula_units_Z   1
loop_
 _symmetry_equiv_pos_site_id
 _symmetry_equiv_pos_as_xyz
  1  'x, y, z'
loop_
 _atom_site_type_symbol
 _atom_site_label
 _atom_site_symmetry_multiplicity
 _atom_site_fract_x
 _atom_site_fract_y
 _atom_site_fract_z
 _atom_site_occupancy
  In  In0  1  0.04979800  0.06511611  0.31827983  1
  In  In1  1  0.31827983  0.04979800  0.06511611  1
  In  In2  1  0.06511611  0.31827983  0.04979800  1
  In  In3  1  0.95020200  0.93488389  0.68172017  1
  In  In4  1  0.68172017  0.95020200  0.93488389  1
  In  In5  1  0.93488389  0.68172017  0.95020200  1
  In  In6  1  0.50000000  0.50000000  0.50000000  1
  Ir  Ir0  1  0.00000000  0.00000000  0.00000000  1
  Cl  Cl0  1  0.95900860  0.54470211  0.18049490  1
  Cl  Cl1  1  0.18049490  0.95900860  0.54470211  1
  Cl  Cl2  1  0.54470211  0.18049490  0.95900860  1
  Cl  Cl3  1  0.04099140  0.45529789  0.81950510  1
  Cl  Cl4  1  0.81950510  0.04099140  0.45529789  1
  Cl  Cl5  1  0.45529789  0.81950510  0.04099140  1
  Cl  Cl6  1  0.50467193  0.20477366  0.38151157  1
  Cl  Cl7  1  0.38151157  0.50467193  0.20477366  1
  Cl  Cl8  1  0.20477366  0.38151157  0.50467193  1
  Cl  Cl9  1  0.49532807  0.79522634  0.61848843  1
  Cl  Cl10  1  0.61848843  0.49532807  0.79522634  1
  Cl  Cl11  1  0.79522634  0.61848843  0.49532807  1
loop_
_geom_bond_atom_site_label_1
_geom_bond_atom_site_label_2
_geom_bond_distance
_geom_bond_site_symmetry_2
In0 Ir0 2.587871 1_555
In1 Ir0 2.587871 1_555
In2 Ir0 2.587870 1_555
In3 Ir0 2.587871 1_666
In4 Ir0 2.587871 1_666
In5 Ir0 2.587870 1_666
Cl0 In2 2.532700 1_655
Cl0 In5 2.586099 1_554
Cl1 In0 2.532700 1_565
Cl1 In3 2.586099 1_455
Cl2 In1 2.532700 1_556
Cl2 In4 2.586099 1_545
Cl3 In5 2.532700 1_455
Cl3 In2 2.586099 1_556
Cl4 In3 2.532700 1_545
Cl4 In0 2.586099 1_655
Cl5 In4 2.532700 1_554
Cl5 In1 2.586099 1_565
Cl6 In6 2.538274 1_555
Cl6 In1 2.602173 1_555
Cl7 In6 2.538274 1_555
Cl7 In2 2.602173 1_555
Cl8 In6 2.538274 1_555
Cl8 In0 2.602173 1_555
Cl9 In6 2.538274 1_555
Cl9 In4 2.602173 1_555
Cl10 In6 2.538274 1_555
Cl10 In5 2.602173 1_555
Cl11 In6 2.538274 1_555
Cl11 In3 2.602173 1_555
