# generated using pymatgen
data_Zr8V9Si16W3
_symmetry_space_group_name_H-M   'P 1'
_cell_length_a   6.63404841
_cell_length_b   6.63404791
_cell_length_c   12.30394251
_cell_angle_alpha   89.96489774
_cell_angle_beta   90.03510238
_cell_angle_gamma   90.04385556
_symmetry_Int_Tables_number   1
_chemical_formula_structural   Zr8V9Si16W3
_chemical_formula_sum   'Zr8 V9 Si16 W3'
_cell_volume   541.50346812
_cell_formula_units_Z   1
loop_
 _symmetry_equiv_pos_site_id
 _symmetry_equiv_pos_as_xyz
  1  'x, y, z'
loop_
 _atom_site_type_symbol
 _atom_site_label
 _atom_site_symmetry_multiplicity
 _atom_site_fract_x
 _atom_site_fract_y
 _atom_site_fract_z
 _atom_site_occupancy
  Zr  Zr0  1  0.00387445  0.66363479  0.03035096  1
  Zr  Zr1  1  0.83675985  0.50308487  0.28091193  1
  Zr  Zr2  1  0.16265950  0.49631617  0.77980997  1
  Zr  Zr3  1  0.50308487  0.83675985  0.71908807  1
  Zr  Zr4  1  0.49631617  0.16265950  0.22019003  1
  Zr  Zr5  1  0.99556671  0.33682276  0.53044070  1
  Zr  Zr6  1  0.66363479  0.00387445  0.96964904  1
  Zr  Zr7  1  0.33682276  0.99556671  0.46955930  1
  V  V0  1  0.66531680  0.66531680  0.50000000  1
  V  V1  1  0.00332319  0.16220525  0.12695846  1
  V  V2  1  0.33964798  0.50435081  0.37727568  1
  V  V3  1  0.66283108  0.49622858  0.87619457  1
  V  V4  1  0.50435081  0.33964798  0.62272432  1
  V  V5  1  0.49622858  0.66283108  0.12380543  1
  V  V6  1  0.99516387  0.83775060  0.62591363  1
  V  V7  1  0.16220525  0.00332319  0.87304154  1
  V  V8  1  0.83775060  0.99516387  0.37408637  1
  Si  Si0  1  0.29027066  0.96049770  0.06304036  1
  Si  Si1  1  0.54174368  0.78871970  0.31514224  1
  Si  Si2  1  0.46018558  0.21000972  0.81261405  1
  Si  Si3  1  0.78871970  0.54174368  0.68485776  1
  Si  Si4  1  0.21000972  0.46018558  0.18738595  1
  Si  Si5  1  0.70862381  0.03725697  0.56255004  1
  Si  Si6  1  0.96049770  0.29027066  0.93695964  1
  Si  Si7  1  0.03725697  0.70862381  0.43744996  1
  Si  Si8  1  0.70787823  0.37728939  0.07174477  1
  Si  Si9  1  0.12341774  0.20791582  0.32213297  1
  Si  Si10  1  0.87682495  0.79167776  0.82101140  1
  Si  Si11  1  0.20791582  0.12341774  0.67786703  1
  Si  Si12  1  0.79167776  0.87682495  0.17898860  1
  Si  Si13  1  0.29333803  0.62376864  0.57055581  1
  Si  Si14  1  0.37728939  0.70787823  0.92825523  1
  Si  Si15  1  0.62376864  0.29333803  0.42944419  1
  W  W0  1  0.33417002  0.33417002  0.00000000  1
  W  W1  1  0.16649183  0.83438150  0.25019627  1
  W  W2  1  0.83438150  0.16649183  0.74980373  1
loop_
_geom_bond_atom_site_label_1
_geom_bond_atom_site_label_2
_geom_bond_distance
_geom_bond_site_symmetry_2
V1 W1 2.863256 1_545
V1 W0 2.925264 1_555
V2 W1 2.924970 1_555
V3 W0 2.868570 1_556
V3 W2 2.916989 1_555
V4 W2 2.924970 1_555
V5 W0 2.868570 1_555
V5 W1 2.916989 1_555
V6 W2 2.868311 1_565
V7 W2 2.863257 1_455
V7 W0 2.925264 1_556
V8 W1 2.868311 1_655
Si0 Si14 2.428616 1_554
Si0 V1 2.457623 1_565
Si0 V7 2.502928 1_564
Si0 V5 2.515253 1_555
Si0 W1 2.583773 1_555
Si0 W0 2.613140 1_565
Si0 Zr4 2.720833 1_565
Si0 Zr6 2.745960 1_564
Si0 Zr0 2.764868 1_555
Si1 Si12 2.428569 1_555
Si1 V2 2.436496 1_555
Si1 V8 2.500649 1_555
Si1 V5 2.516356 1_555
Si1 V0 2.551858 1_555
Si1 W1 2.631736 1_555
Si1 Zr7 2.711111 1_555
Si1 Zr1 2.757933 1_555
Si1 Zr4 2.758065 1_565
Si2 V3 2.453836 1_555
Si2 V4 2.506434 1_555
Si2 V7 2.517358 1_555
Si2 W0 2.588206 1_556
Si2 W2 2.616637 1_555
Si2 Zr6 2.724215 1_555
Si2 Zr3 2.746183 1_545
Si2 Zr2 2.769519 1_555
Si3 V4 2.436496 1_555
Si3 V6 2.500649 1_555
Si3 V3 2.516356 1_555
Si3 V0 2.551858 1_555
Si3 W2 2.631736 1_555
Si3 Zr5 2.711111 1_555
Si3 Zr3 2.757933 1_555
Si3 Zr2 2.758065 1_655
Si4 Si9 2.424011 1_555
Si4 V5 2.453836 1_555
Si4 V2 2.506434 1_555
Si4 V1 2.517358 1_555
Si4 W0 2.588206 1_555
Si4 W1 2.616637 1_555
Si4 Zr0 2.724215 1_555
Si4 Zr1 2.746183 1_455
Si4 Zr4 2.769519 1_555
Si5 V6 2.444141 1_545
Si5 V8 2.488462 1_545
Si5 V4 2.533016 1_555
Si5 W2 2.595818 1_555
Si5 V0 2.600811 1_545
Si5 Zr3 2.708391 1_545
Si5 Zr7 2.732273 1_545
Si5 Zr5 2.779103 1_555
Si6 Si8 2.428616 1_556
Si6 V7 2.457623 1_655
Si6 V1 2.502928 1_656
Si6 V3 2.515253 1_555
Si6 W2 2.583773 1_555
Si6 W0 2.613140 1_656
Si6 Zr2 2.720833 1_655
Si6 Zr0 2.745960 1_656
Si6 Zr6 2.764868 1_555
Si7 V8 2.444141 1_455
Si7 V6 2.488462 1_455
Si7 V2 2.533016 1_555
Si7 W1 2.595818 1_555
Si7 V0 2.600811 1_455
Si7 Zr1 2.708391 1_455
Si7 Zr5 2.732273 1_455
Si7 Zr7 2.779103 1_555
Si8 V5 2.444751 1_555
Si8 V1 2.518043 1_655
Si8 V3 2.549133 1_554
Si8 W0 2.646513 1_555
Si8 Zr4 2.707415 1_555
Si8 Zr0 2.778174 1_655
Si8 Zr6 2.793415 1_554
Si8 Zr1 2.837189 1_555
Si9 V8 2.447138 1_445
Si9 V2 2.526175 1_555
Si9 V1 2.547879 1_555
Si9 W1 2.647613 1_545
Si9 Zr7 2.697397 1_545
Si9 Zr1 2.776944 1_455
Si9 Zr4 2.790811 1_555
Si9 Zr5 2.833051 1_455
Si10 Si3 2.428569 1_555
Si10 V7 2.441532 1_665
Si10 V3 2.512644 1_555
Si10 V6 2.544221 1_555
Si10 W2 2.651009 1_565
Si10 Zr6 2.708497 1_565
Si10 Zr2 2.774926 1_655
Si10 Zr3 2.794002 1_555
Si10 Zr0 2.839357 1_656
Si11 Si2 2.424011 1_555
Si11 V6 2.447138 1_445
Si11 V4 2.526175 1_555
Si11 V7 2.547879 1_555
Si11 W2 2.647613 1_455
Si11 Zr5 2.697397 1_455
Si11 Zr3 2.776944 1_545
Si11 Zr2 2.790811 1_555
Si11 Zr7 2.833051 1_545
Si12 V1 2.441532 1_665
Si12 V5 2.512644 1_555
Si12 V8 2.544221 1_555
Si12 W1 2.651009 1_655
Si12 Zr0 2.708497 1_655
Si12 Zr4 2.774926 1_565
Si12 Zr1 2.794002 1_555
Si12 Zr6 2.839357 1_564
Si13 Si7 2.425299 1_555
Si13 V4 2.434303 1_555
Si13 V2 2.526059 1_555
Si13 V6 2.529647 1_455
Si13 V0 2.630695 1_555
Si13 Zr3 2.696230 1_555
Si13 Zr7 2.776105 1_555
Si13 Zr5 2.786374 1_455
Si13 Zr2 2.845040 1_555
Si14 V3 2.444751 1_555
Si14 V7 2.518043 1_565
Si14 V5 2.549133 1_556
Si14 W0 2.646513 1_556
Si14 Zr2 2.707415 1_555
Si14 Zr6 2.778174 1_565
Si14 Zr0 2.793415 1_556
Si14 Zr3 2.837189 1_555
Si15 Si5 2.425299 1_555
Si15 V2 2.434303 1_555
Si15 V4 2.526059 1_555
Si15 V8 2.529647 1_545
Si15 V0 2.630694 1_555
Si15 Zr1 2.696230 1_555
Si15 Zr5 2.776105 1_555
Si15 Zr7 2.786374 1_545
Si15 Zr4 2.845040 1_555
W0 Zr6 3.118870 1_554
W0 Zr0 3.118870 1_555
W0 Zr4 3.128263 1_555
W0 Zr2 3.128263 1_554
W1 Zr4 3.107979 1_565
W1 Zr7 3.114964 1_555
W1 Zr1 3.122647 1_455
W1 Zr0 3.124432 1_555
W2 Zr2 3.107979 1_655
W2 Zr5 3.114964 1_555
W2 Zr3 3.122647 1_545
W2 Zr6 3.124432 1_555
