# generated using pymatgen
data_Sn3Pd(SeO3)8
_symmetry_space_group_name_H-M   'P 1'
_cell_length_a   8.14165858
_cell_length_b   8.14165858
_cell_length_c   8.14165858
_cell_angle_alpha   90.10231124
_cell_angle_beta   89.89768876
_cell_angle_gamma   89.89768876
_symmetry_Int_Tables_number   1
_chemical_formula_structural   Sn3Pd(SeO3)8
_chemical_formula_sum   'Sn3 Pd1 Se8 O24'
_cell_volume   539.68031786
_cell_formula_units_Z   1
loop_
 _symmetry_equiv_pos_site_id
 _symmetry_equiv_pos_as_xyz
  1  'x, y, z'
loop_
 _atom_site_type_symbol
 _atom_site_label
 _atom_site_symmetry_multiplicity
 _atom_site_fract_x
 _atom_site_fract_y
 _atom_site_fract_z
 _atom_site_occupancy
  Sn  Sn0  1  0.50000000  0.00000000  0.50000000  1
  Sn  Sn1  1  0.00000000  0.00000000  0.00000000  1
  Sn  Sn2  1  0.00000000  0.50000000  0.50000000  1
  Pd  Pd0  1  0.50000000  0.50000000  0.00000000  1
  Se  Se0  1  0.83556561  0.16443439  0.66443439  1
  Se  Se1  1  0.16443439  0.83556561  0.33556561  1
  Se  Se2  1  0.65971086  0.65900736  0.68030851  1
  Se  Se3  1  0.18030851  0.65971086  0.84099264  1
  Se  Se4  1  0.34099264  0.18030851  0.84028914  1
  Se  Se5  1  0.81969149  0.34028914  0.15900736  1
  Se  Se6  1  0.65900736  0.81969149  0.15971086  1
  Se  Se7  1  0.34028914  0.34099264  0.31969149  1
  O  O0  1  0.24697319  0.47232152  0.45540905  1
  O  O1  1  0.95540905  0.24697319  0.02767848  1
  O  O2  1  0.02551020  0.74715880  0.46629522  1
  O  O3  1  0.48052302  0.25703685  0.98149498  1
  O  O4  1  0.25284120  0.96629522  0.47448980  1
  O  O5  1  0.51850502  0.51947698  0.75703685  1
  O  O6  1  0.96629522  0.02551020  0.75284120  1
  O  O7  1  0.51947698  0.74296315  0.01850502  1
  O  O8  1  0.52767848  0.95540905  0.25302681  1
  O  O9  1  0.47232152  0.04459095  0.74697319  1
  O  O10  1  0.75308478  0.95477093  0.02963903  1
  O  O11  1  0.25703685  0.51850502  0.98052302  1
  O  O12  1  0.04522907  0.52963903  0.74691522  1
  O  O13  1  0.03370478  0.97448980  0.24715880  1
  O  O14  1  0.24691522  0.04522907  0.97036097  1
  O  O15  1  0.48149498  0.48052302  0.24296315  1
  O  O16  1  0.75302681  0.52767848  0.54459095  1
  O  O17  1  0.95477093  0.47036097  0.25308478  1
  O  O18  1  0.04459095  0.75302681  0.97232152  1
  O  O19  1  0.47036097  0.24691522  0.45477093  1
  O  O20  1  0.52963903  0.75308478  0.54522907  1
  O  O21  1  0.97448980  0.25284120  0.53370478  1
  O  O22  1  0.74715880  0.03370478  0.52551020  1
  O  O23  1  0.74296315  0.48149498  0.01947698  1
loop_
_geom_bond_atom_site_label_1
_geom_bond_atom_site_label_2
_geom_bond_distance
_geom_bond_site_symmetry_2
O0 Se7 1.712107 1_555
O0 Sn2 2.054572 1_555
O1 Se5 1.712107 1_555
O1 Sn1 2.054572 1_655
O2 Se1 1.712193 1_555
O2 Sn2 2.042298 1_555
O3 Se4 1.734096 1_555
O3 Pd0 1.990215 1_556
O4 Se1 1.712193 1_555
O4 Sn0 2.042298 1_565
O5 Se2 1.734096 1_555
O5 Pd0 1.990215 1_556
O6 Se0 1.712193 1_555
O6 Sn1 2.042298 1_656
O7 Se6 1.734096 1_555
O7 Pd0 1.990215 1_555
O8 Se6 1.712107 1_555
O8 Sn0 2.054572 1_565
O9 Se4 1.712107 1_555
O9 Sn0 2.054572 1_555
O10 Se6 1.709363 1_555
O10 Sn1 2.058243 1_665
O11 Se3 1.734096 1_555
O11 Pd0 1.990215 1_556
O12 Se3 1.709363 1_555
O12 Sn2 2.058243 1_555
O13 Se1 1.712193 1_555
O13 Sn1 2.042298 1_565
O14 Se4 1.709363 1_555
O14 Sn1 2.058243 1_556
O15 Se7 1.734096 1_555
O15 Pd0 1.990215 1_555
O16 Se2 1.712107 1_555
O16 Sn2 2.054572 1_655
O17 Se5 1.709363 1_555
O17 Sn2 2.058243 1_655
O18 Se3 1.712107 1_555
O18 Sn1 2.054572 1_566
O19 Se7 1.709363 1_555
O19 Sn0 2.058243 1_555
O20 Se2 1.709363 1_555
O20 Sn0 2.058243 1_565
O21 Se0 1.712193 1_555
O21 Sn2 2.042298 1_655
O22 Se0 1.712193 1_555
O22 Sn0 2.042298 1_555
O23 Se5 1.734096 1_555
O23 Pd0 1.990215 1_555
