# generated using pymatgen
data_Lu5GaBiRh
_symmetry_space_group_name_H-M   'P 1'
_cell_length_a   8.45252109
_cell_length_b   8.45252118
_cell_length_c   8.58592850
_cell_angle_alpha   125.77073312
_cell_angle_beta   125.77072312
_cell_angle_gamma   79.19084121
_symmetry_Int_Tables_number   1
_chemical_formula_structural   Lu5GaBiRh
_chemical_formula_sum   'Lu10 Ga2 Bi2 Rh2'
_cell_volume   392.59433668
_cell_formula_units_Z   2
loop_
 _symmetry_equiv_pos_site_id
 _symmetry_equiv_pos_as_xyz
  1  'x, y, z'
loop_
 _atom_site_type_symbol
 _atom_site_label
 _atom_site_symmetry_multiplicity
 _atom_site_fract_x
 _atom_site_fract_y
 _atom_site_fract_z
 _atom_site_occupancy
  Lu  Lu0  1  0.00000000  0.00000000  0.00000000  1
  Lu  Lu1  1  0.50000000  0.50000000  0.00000000  1
  Lu  Lu2  1  0.78223389  0.28223389  0.79297460  1
  Lu  Lu3  1  0.21776611  0.71776611  0.20702540  1
  Lu  Lu4  1  0.48926029  0.98926029  0.20702540  1
  Lu  Lu5  1  0.30475844  0.46419222  0.50000000  1
  Lu  Lu6  1  0.03580778  0.19524156  0.50000000  1
  Lu  Lu7  1  0.51073971  0.01073971  0.79297460  1
  Lu  Lu8  1  0.69524156  0.53580778  0.50000000  1
  Lu  Lu9  1  0.96419222  0.80475844  0.50000000  1
  Ga  Ga0  1  0.13842669  0.63842669  0.77685338  1
  Ga  Ga1  1  0.86157331  0.36157331  0.22314662  1
  Bi  Bi0  1  0.25000000  0.25000000  0.00000000  1
  Bi  Bi1  1  0.75000000  0.75000000  0.00000000  1
  Rh  Rh0  1  0.63651486  0.86348514  0.50000000  1
  Rh  Rh1  1  0.36348514  0.13651486  0.50000000  1
loop_
_geom_bond_atom_site_label_1
_geom_bond_atom_site_label_2
_geom_bond_distance
_geom_bond_site_symmetry_2
Lu0 Rh1 3.052738 1_555
Lu0 Rh0 3.052738 1_444
Lu0 Lu6 3.410334 1_555
Lu0 Lu9 3.410334 1_444
Lu0 Lu5 3.410334 1_555
Lu0 Lu8 3.410334 1_444
Lu0 Lu2 3.424033 1_454
Lu0 Lu3 3.424033 1_545
Lu0 Lu4 3.424040 1_545
Lu0 Lu7 3.424040 1_454
Lu1 Rh0 3.052738 1_555
Lu1 Rh1 3.052738 1_554
Lu1 Lu9 3.410334 1_555
Lu1 Lu6 3.410334 1_554
Lu1 Lu8 3.410334 1_555
Lu1 Lu5 3.410334 1_554
Lu1 Lu2 3.424033 1_554
Lu1 Lu3 3.424033 1_555
Lu1 Lu4 3.424040 1_555
Lu1 Lu7 3.424040 1_554
Lu2 Rh0 2.824303 1_545
Lu2 Rh1 2.824303 1_555
Lu3 Rh1 2.824303 1_565
Lu3 Rh0 2.824303 1_555
Lu4 Rh1 2.824311 1_565
Lu4 Rh0 2.824311 1_555
Lu5 Rh1 2.720655 1_555
Lu6 Rh1 2.720655 1_555
Lu7 Rh0 2.824311 1_545
Lu7 Rh1 2.824311 1_555
Lu8 Rh0 2.720655 1_555
Lu9 Rh0 2.720655 1_555
Ga0 Lu0 2.968868 1_566
Ga0 Lu1 2.968869 1_556
Ga0 Lu5 2.972141 1_555
Ga0 Lu6 2.972141 1_555
Ga0 Lu8 2.972141 1_455
Ga0 Lu9 2.972141 1_455
Ga0 Lu3 2.986330 1_556
Ga0 Lu4 2.986338 1_556
Ga0 Ga1 3.097605 1_455
Ga1 Lu0 2.968868 1_655
Ga1 Lu1 2.968869 1_555
Ga1 Lu8 2.972141 1_555
Ga1 Lu9 2.972141 1_555
Ga1 Lu5 2.972141 1_655
Ga1 Lu6 2.972141 1_655
Ga1 Lu2 2.986330 1_554
Ga1 Lu7 2.986338 1_554
Bi0 Lu1 3.256605 1_555
Bi0 Lu0 3.256605 1_555
Bi0 Lu7 3.288188 1_554
Bi0 Lu4 3.288188 1_545
Bi0 Lu3 3.288194 1_555
Bi0 Lu2 3.288194 1_454
Bi0 Lu5 3.290357 1_555
Bi0 Lu9 3.290357 1_444
Bi0 Lu8 3.290358 1_555
Bi0 Lu6 3.290358 1_554
Bi1 Lu1 3.256605 1_555
Bi1 Lu0 3.256605 1_665
Bi1 Lu4 3.288188 1_555
Bi1 Lu7 3.288188 1_564
Bi1 Lu2 3.288194 1_554
Bi1 Lu3 3.288194 1_655
Bi1 Lu8 3.290357 1_554
Bi1 Lu6 3.290357 1_665
Bi1 Lu5 3.290358 1_554
Bi1 Lu9 3.290358 1_555
Rh0 Rh1 2.941797 1_565
