# generated using pymatgen
data_Lu6Ti7Al9Rh8
_symmetry_space_group_name_H-M   'P 1'
_cell_length_a   8.95552932
_cell_length_b   8.95552912
_cell_length_c   8.95553045
_cell_angle_alpha   60.12025306
_cell_angle_beta   60.12025580
_cell_angle_gamma   60.12025945
_symmetry_Int_Tables_number   1
_chemical_formula_structural   Lu6Ti7Al9Rh8
_chemical_formula_sum   'Lu6 Ti7 Al9 Rh8'
_cell_volume   509.26100737
_cell_formula_units_Z   1
loop_
 _symmetry_equiv_pos_site_id
 _symmetry_equiv_pos_as_xyz
  1  'x, y, z'
loop_
 _atom_site_type_symbol
 _atom_site_label
 _atom_site_symmetry_multiplicity
 _atom_site_fract_x
 _atom_site_fract_y
 _atom_site_fract_z
 _atom_site_occupancy
  Lu  Lu0  1  0.21032925  0.21032925  0.79122419  1
  Lu  Lu1  1  0.79122419  0.21032925  0.21032925  1
  Lu  Lu2  1  0.21032925  0.79122419  0.21032925  1
  Lu  Lu3  1  0.79462116  0.79462116  0.19601908  1
  Lu  Lu4  1  0.19601908  0.79462116  0.79462116  1
  Lu  Lu5  1  0.79462116  0.19601908  0.79462116  1
  Ti  Ti0  1  0.38002900  0.38002900  0.38002900  1
  Ti  Ti1  1  0.38158192  0.86058900  0.38158192  1
  Ti  Ti2  1  0.86058900  0.38158192  0.38158192  1
  Ti  Ti3  1  0.38158192  0.38158192  0.86058900  1
  Ti  Ti4  1  0.83325763  0.49979817  0.83325763  1
  Ti  Ti5  1  0.49979817  0.83325763  0.83325763  1
  Ti  Ti6  1  0.83325763  0.83325763  0.49979817  1
  Al  Al0  1  0.17211703  0.17211703  0.17211703  1
  Al  Al1  1  0.17087361  0.49058318  0.17087361  1
  Al  Al2  1  0.49058318  0.17087361  0.17087361  1
  Al  Al3  1  0.17087361  0.17087361  0.49058318  1
  Al  Al4  1  0.61839339  0.61839339  0.61839339  1
  Al  Al5  1  0.61825860  0.14428164  0.61825860  1
  Al  Al6  1  0.14428164  0.61825860  0.61825860  1
  Al  Al7  1  0.61825860  0.61825860  0.14428164  1
  Al  Al8  1  0.82419457  0.82419457  0.82419457  1
  Rh  Rh0  1  0.00101533  0.00101533  0.49494493  1
  Rh  Rh1  1  0.49494493  0.00101533  0.00101533  1
  Rh  Rh2  1  0.00101533  0.49494493  0.00101533  1
  Rh  Rh3  1  0.50329656  0.50329656  0.99797966  1
  Rh  Rh4  1  0.99797966  0.50329656  0.50329656  1
  Rh  Rh5  1  0.50329656  0.99797966  0.50329656  1
  Rh  Rh6  1  0.50033918  0.50033918  0.50033918  1
  Rh  Rh7  1  0.00303986  0.00303986  0.00303986  1
loop_
_geom_bond_atom_site_label_1
_geom_bond_atom_site_label_2
_geom_bond_distance
_geom_bond_site_symmetry_2
Lu0 Rh7 2.628129 1_556
Lu0 Ti0 3.054334 1_555
Lu0 Ti3 3.054855 1_555
Lu0 Rh1 3.168962 1_556
Lu0 Rh2 3.168962 1_556
Lu0 Rh4 3.212923 1_455
Lu0 Rh5 3.212923 1_545
Lu1 Rh7 2.628130 1_655
Lu1 Ti0 3.054334 1_555
Lu1 Ti2 3.054855 1_555
Lu1 Rh2 3.168961 1_655
Lu1 Rh0 3.168962 1_655
Lu1 Rh5 3.212922 1_545
Lu1 Rh3 3.212923 1_554
Lu2 Rh7 2.628130 1_565
Lu2 Ti0 3.054334 1_555
Lu2 Ti1 3.054855 1_555
Lu2 Rh1 3.168962 1_565
Lu2 Rh0 3.168962 1_565
Lu2 Rh4 3.212922 1_455
Lu2 Rh3 3.212923 1_554
Lu3 Rh7 2.645289 1_665
Lu3 Ti2 3.077228 1_555
Lu3 Ti1 3.077228 1_555
Lu3 Rh1 3.190590 1_565
Lu3 Rh2 3.190590 1_655
Lu3 Rh4 3.286626 1_555
Lu3 Rh5 3.286626 1_555
Lu4 Rh7 2.645290 1_566
Lu4 Ti3 3.077228 1_555
Lu4 Ti1 3.077228 1_555
Lu4 Rh2 3.190590 1_556
Lu4 Rh0 3.190590 1_565
Lu4 Rh5 3.286626 1_555
Lu4 Rh3 3.286626 1_555
Lu5 Rh7 2.645290 1_656
Lu5 Ti3 3.077228 1_555
Lu5 Ti2 3.077228 1_555
Lu5 Rh1 3.190590 1_556
Lu5 Rh0 3.190590 1_655
Lu5 Rh4 3.286626 1_555
Lu5 Rh3 3.286626 1_555
Al0 Rh2 2.562405 1_555
Al0 Rh0 2.562405 1_555
Al0 Rh1 2.562405 1_555
Al0 Ti3 2.810426 1_554
Al0 Ti1 2.810426 1_545
Al0 Ti2 2.810426 1_455
Al1 Rh2 2.610859 1_555
Al1 Rh3 2.615795 1_554
Al1 Rh4 2.615795 1_455
Al1 Ti0 2.792392 1_555
Al1 Ti2 2.806791 1_455
Al1 Ti3 2.806792 1_554
Al2 Rh1 2.610859 1_555
Al2 Rh3 2.615795 1_554
Al2 Rh5 2.615795 1_545
Al2 Ti0 2.792392 1_555
Al2 Ti1 2.806791 1_545
Al2 Ti3 2.806791 1_554
Al3 Rh0 2.610859 1_555
Al3 Rh4 2.615795 1_455
Al3 Rh5 2.615795 1_545
Al3 Ti0 2.792391 1_555
Al3 Ti2 2.806791 1_455
Al3 Ti1 2.806791 1_545
Al4 Rh6 2.587338 1_555
Al4 Rh5 2.785139 1_555
Al4 Rh4 2.785139 1_555
Al4 Rh3 2.785139 1_555
Al4 Ti6 2.854812 1_555
Al4 Ti4 2.854812 1_555
Al4 Ti5 2.854813 1_555
Al4 Ti3 3.002462 1_555
Al4 Ti1 3.002462 1_555
Al4 Ti2 3.002462 1_555
Al4 Lu5 3.142474 1_555
Al4 Lu4 3.142474 1_555
Al4 Lu3 3.142474 1_555
Al5 Rh6 2.607499 1_555
Al5 Rh5 2.753312 1_545
Al5 Rh0 2.805991 1_655
Al5 Rh1 2.805991 1_556
Al5 Al8 2.806026 1_545
Al5 Ti5 2.855965 1_545
Al5 Ti6 2.855965 1_545
Al5 Ti0 3.019953 1_555
Al5 Lu5 3.024499 1_555
Al5 Lu0 3.035942 1_555
Al5 Lu1 3.035942 1_555
Al5 Ti2 3.040171 1_555
Al5 Ti3 3.040171 1_555
Al6 Rh6 2.607499 1_555
Al6 Rh4 2.753312 1_455
Al6 Rh0 2.805991 1_565
Al6 Rh2 2.805991 1_556
Al6 Al8 2.806026 1_455
Al6 Ti4 2.855965 1_455
Al6 Ti6 2.855965 1_455
Al6 Ti0 3.019953 1_555
Al6 Lu4 3.024499 1_555
Al6 Lu0 3.035942 1_555
Al6 Lu2 3.035942 1_555
Al6 Ti1 3.040171 1_555
Al6 Ti3 3.040171 1_555
Al7 Rh6 2.607499 1_555
Al7 Rh3 2.753312 1_554
Al7 Rh1 2.805991 1_565
Al7 Rh2 2.805991 1_655
Al7 Al8 2.806026 1_554
Al7 Ti5 2.855965 1_554
Al7 Ti4 2.855966 1_554
Al7 Ti0 3.019952 1_555
Al7 Lu3 3.024498 1_555
Al7 Lu1 3.035942 1_555
Al7 Lu2 3.035942 1_555
Al7 Ti2 3.040171 1_555
Al7 Ti1 3.040171 1_555
Al8 Rh0 2.627430 1_665
Al8 Rh2 2.627430 1_656
Al8 Rh1 2.627430 1_566
Rh0 Ti6 2.575812 1_445
Rh0 Ti2 2.789622 1_455
Rh0 Ti1 2.789622 1_545
Rh1 Ti5 2.575812 1_544
Rh1 Ti3 2.789622 1_554
Rh1 Ti1 2.789622 1_545
Rh2 Ti4 2.575812 1_454
Rh2 Ti3 2.789622 1_554
Rh2 Ti2 2.789622 1_455
Rh3 Ti5 2.553343 1_555
Rh3 Ti4 2.553343 1_555
Rh3 Ti3 2.783267 1_555
Rh3 Ti0 2.798444 1_556
Rh4 Ti6 2.553343 1_555
Rh4 Ti4 2.553344 1_555
Rh4 Ti2 2.783267 1_555
Rh4 Ti0 2.798444 1_655
Rh5 Ti6 2.553343 1_555
Rh5 Ti5 2.553344 1_555
Rh5 Ti1 2.783267 1_555
Rh5 Ti0 2.798444 1_565
Rh6 Ti0 2.636780 1_555
Rh6 Ti1 2.638238 1_555
Rh6 Ti2 2.638238 1_555
Rh6 Ti3 2.638239 1_555
