# generated using pymatgen
data_V3Si(BW)2
_symmetry_space_group_name_H-M   'P 1'
_cell_length_a   6.82476172
_cell_length_b   6.84603006
_cell_length_c   6.83070226
_cell_angle_alpha   129.23726164
_cell_angle_beta   129.12733473
_cell_angle_gamma   75.04185884
_symmetry_Int_Tables_number   1
_chemical_formula_structural   V3Si(BW)2
_chemical_formula_sum   'V6 Si2 B4 W4'
_cell_volume   186.39863190
_cell_formula_units_Z   2
loop_
 _symmetry_equiv_pos_site_id
 _symmetry_equiv_pos_as_xyz
  1  'x, y, z'
loop_
 _atom_site_type_symbol
 _atom_site_label
 _atom_site_symmetry_multiplicity
 _atom_site_fract_x
 _atom_site_fract_y
 _atom_site_fract_z
 _atom_site_occupancy
  V  V0  1  0.19299641  0.03047394  0.49828921  1
  V  V1  1  0.47182119  0.30464077  0.49966050  1
  V  V2  1  0.80354549  0.97212154  0.49953658  1
  V  V3  1  0.30565040  0.80334788  0.83522153  1
  V  V4  1  0.00435583  0.00135941  0.00267543  1
  V  V5  1  0.49912320  0.50122339  0.99747647  1
  Si  Si0  1  0.24537554  0.23541062  0.98829562  1
  Si  Si1  1  0.74645227  0.75039318  0.00446723  1
  B  B0  1  0.61524016  0.11887868  0.73146818  1
  B  B1  1  0.12780289  0.37795271  0.50338115  1
  B  B2  1  0.87984541  0.62830289  0.50338767  1
  B  B3  1  0.38432298  0.88775809  0.26743796  1
  W  W0  1  0.52574556  0.69270042  0.49867400  1
  W  W1  1  0.02944699  0.52930146  0.83596687  1
  W  W2  1  0.69294952  0.19269833  0.16385980  1
  W  W3  1  0.97532716  0.47343669  0.17020280  1
loop_
_geom_bond_atom_site_label_1
_geom_bond_atom_site_label_2
_geom_bond_distance
_geom_bond_site_symmetry_2
V0 V4 2.633656 1_555
V0 V5 2.638352 1_555
V0 W0 2.791712 1_545
V1 V4 2.616735 1_555
V1 V5 2.636149 1_555
V1 W0 2.779185 1_555
V2 V5 2.636119 1_554
V2 V4 2.656434 1_666
V3 V5 2.625474 1_555
V3 V4 2.634791 1_566
V3 W3 2.746414 1_455
V3 W2 2.776600 1_566
V3 W0 3.111694 1_555
V4 W3 2.659064 1_455
V4 W1 2.659879 1_544
V4 W2 2.671412 1_455
V4 W0 2.674744 1_444
V5 W1 2.648751 1_555
V5 W3 2.667567 1_556
V5 W0 2.670675 1_556
V5 W2 2.683247 1_556
Si0 V2 2.444370 1_445
Si0 V3 2.452322 1_545
Si0 V0 2.471295 1_555
Si0 W2 2.492679 1_556
Si0 V1 2.506933 1_556
Si0 W3 2.524763 1_456
Si0 W0 2.546007 1_556
Si0 W1 2.546565 1_555
Si0 V4 2.654506 1_556
Si0 V5 2.767650 1_555
Si1 V2 2.457674 1_555
Si1 V3 2.469006 1_554
Si1 V1 2.489878 1_554
Si1 V0 2.490492 1_665
Si1 W2 2.499603 1_565
Si1 W3 2.504257 1_555
Si1 W0 2.524716 1_554
Si1 W1 2.537423 1_654
Si1 V5 2.653858 1_554
Si1 V4 2.768587 1_665
B0 B3 1.916274 1_545
B0 V1 2.243065 1_555
B0 V2 2.249516 1_545
B0 V0 2.257306 1_555
B0 W0 2.288909 1_545
B0 W3 2.343965 1_556
B0 V5 2.347509 1_555
B0 W2 2.352274 1_556
B0 V4 2.388520 1_656
B1 B2 2.074594 1_455
B1 V3 2.256967 1_555
B1 V1 2.283807 1_555
B1 V0 2.286170 1_555
B1 V5 2.287197 1_555
B1 W3 2.287254 1_455
B1 W1 2.296296 1_555
B1 W2 2.308698 1_455
B1 V4 2.320313 1_555
B2 V3 2.250974 1_655
B2 W3 2.278363 1_555
B2 V2 2.289214 1_555
B2 V4 2.306483 1_666
B2 W1 2.307793 1_655
B2 W2 2.319387 1_555
B2 W0 2.324938 1_555
B2 V5 2.341234 1_554
B3 V1 2.230518 1_565
B3 V2 2.236687 1_555
B3 V0 2.266535 1_565
B3 W0 2.299677 1_555
B3 V3 2.310794 1_554
B3 V4 2.327967 1_565
B3 W1 2.341757 1_554
B3 V5 2.365753 1_554
