# generated using pymatgen
data_Cs3KPbI6
_symmetry_space_group_name_H-M   'P 1'
_cell_length_a   10.36863862
_cell_length_b   10.36863885
_cell_length_c   10.36863899
_cell_angle_alpha   91.43424896
_cell_angle_beta   91.43424807
_cell_angle_gamma   91.43425506
_symmetry_Int_Tables_number   1
_chemical_formula_structural   Cs3KPbI6
_chemical_formula_sum   'Cs6 K2 Pb2 I12'
_cell_volume   1113.65305040
_cell_formula_units_Z   2
loop_
 _symmetry_equiv_pos_site_id
 _symmetry_equiv_pos_as_xyz
  1  'x, y, z'
loop_
 _atom_site_type_symbol
 _atom_site_label
 _atom_site_symmetry_multiplicity
 _atom_site_fract_x
 _atom_site_fract_y
 _atom_site_fract_z
 _atom_site_occupancy
  Cs  Cs0  1  0.25000000  0.63214210  0.86785790  1
  Cs  Cs1  1  0.86785790  0.25000000  0.63214210  1
  Cs  Cs2  1  0.63214210  0.86785790  0.25000000  1
  Cs  Cs3  1  0.75000000  0.36785790  0.13214210  1
  Cs  Cs4  1  0.13214210  0.75000000  0.36785790  1
  Cs  Cs5  1  0.36785790  0.13214210  0.75000000  1
  K  K0  1  0.25000000  0.25000000  0.25000000  1
  K  K1  1  0.75000000  0.75000000  0.75000000  1
  Pb  Pb0  1  0.00000000  0.00000000  0.00000000  1
  Pb  Pb1  1  0.50000000  0.50000000  0.50000000  1
  I  I0  1  0.54788007  0.20067233  0.41897176  1
  I  I1  1  0.41897176  0.54788007  0.20067233  1
  I  I2  1  0.20067233  0.41897176  0.54788007  1
  I  I3  1  0.95211993  0.08102824  0.29932767  1
  I  I4  1  0.29932767  0.95211993  0.08102824  1
  I  I5  1  0.08102824  0.29932767  0.95211993  1
  I  I6  1  0.45211993  0.79932767  0.58102824  1
  I  I7  1  0.58102824  0.45211993  0.79932767  1
  I  I8  1  0.79932767  0.58102824  0.45211993  1
  I  I9  1  0.04788007  0.91897176  0.70067233  1
  I  I10  1  0.91897176  0.70067233  0.04788007  1
  I  I11  1  0.70067233  0.04788007  0.91897176  1
loop_
_geom_bond_atom_site_label_1
_geom_bond_atom_site_label_2
_geom_bond_distance
_geom_bond_site_symmetry_2
Cs0 I4 3.955463 1_556
Cs0 I2 3.955463 1_555
Cs0 I5 3.958029 1_555
Cs0 I1 3.958029 1_556
Cs0 I10 4.018236 1_456
Cs0 I7 4.018236 1_555
Cs0 I6 4.077998 1_555
Cs0 I9 4.077998 1_555
Cs1 I0 3.955463 1_555
Cs1 I5 3.955463 1_655
Cs1 I2 3.958029 1_655
Cs1 I3 3.958029 1_555
Cs1 I8 4.018236 1_555
Cs1 I9 4.018236 1_645
Cs1 I11 4.077998 1_555
Cs1 I7 4.077998 1_555
Cs2 I3 3.955463 1_565
Cs2 I1 3.955463 1_555
Cs2 I4 3.958029 1_555
Cs2 I0 3.958029 1_565
Cs2 I6 4.018236 1_555
Cs2 I11 4.018236 1_564
Cs2 I10 4.077998 1_555
Cs2 I8 4.077998 1_555
Cs3 I11 3.955463 1_554
Cs3 I8 3.955463 1_555
Cs3 I10 3.958029 1_555
Cs3 I7 3.958029 1_554
Cs3 I5 4.018236 1_654
Cs3 I1 4.018236 1_555
Cs3 I0 4.077998 1_555
Cs3 I3 4.077998 1_555
Cs4 I6 3.955463 1_555
Cs4 I10 3.955463 1_455
Cs4 I8 3.958029 1_455
Cs4 I9 3.958029 1_555
Cs4 I2 4.018236 1_555
Cs4 I3 4.018236 1_465
Cs4 I4 4.077998 1_555
Cs4 I1 4.077998 1_555
Cs5 I9 3.955463 1_545
Cs5 I7 3.955463 1_555
Cs5 I11 3.958029 1_555
Cs5 I6 3.958029 1_545
Cs5 I0 4.018236 1_555
Cs5 I4 4.018236 1_546
Cs5 I5 4.077998 1_555
Cs5 I2 4.077998 1_555
I0 Pb1 3.248424 1_555
I0 K0 3.567028 1_555
I1 Pb1 3.248424 1_555
I1 K0 3.567028 1_555
I2 Pb1 3.248424 1_555
I2 K0 3.567028 1_555
I3 Pb0 3.248424 1_655
I3 K0 3.567028 1_655
I4 Pb0 3.248424 1_565
I4 K0 3.567028 1_565
I5 Pb0 3.248424 1_556
I5 K0 3.567028 1_556
I6 Pb1 3.248424 1_555
I6 K1 3.567028 1_555
I7 Pb1 3.248424 1_555
I7 K1 3.567028 1_555
I8 Pb1 3.248424 1_555
I8 K1 3.567028 1_555
I9 Pb0 3.248424 1_566
I9 K1 3.567028 1_455
I10 Pb0 3.248424 1_665
I10 K1 3.567028 1_554
I11 Pb0 3.248424 1_656
I11 K1 3.567028 1_545
