# generated using pymatgen
data_Hf4NbTe4
_symmetry_space_group_name_H-M   'P 1'
_cell_length_a   7.72525763
_cell_length_b   7.72525730
_cell_length_c   7.72525787
_cell_angle_alpha   93.54848186
_cell_angle_beta   93.54848528
_cell_angle_gamma   151.18894348
_symmetry_Int_Tables_number   1
_chemical_formula_structural   Hf4NbTe4
_chemical_formula_sum   'Hf4 Nb1 Te4'
_cell_volume   215.20012257
_cell_formula_units_Z   1
loop_
 _symmetry_equiv_pos_site_id
 _symmetry_equiv_pos_as_xyz
  1  'x, y, z'
loop_
 _atom_site_type_symbol
 _atom_site_label
 _atom_site_symmetry_multiplicity
 _atom_site_fract_x
 _atom_site_fract_y
 _atom_site_fract_z
 _atom_site_occupancy
  Hf  Hf0  1  0.68369412  0.37849943  0.06219354  1
  Hf  Hf1  1  0.37849943  0.31630588  0.69480731  1
  Hf  Hf2  1  0.62150057  0.68369412  0.30519269  1
  Hf  Hf3  1  0.31630588  0.62150057  0.93780646  1
  Nb  Nb0  1  0.00000000  0.00000000  0.00000000  1
  Te  Te0  1  0.94273315  0.28449563  0.22722879  1
  Te  Te1  1  0.28449563  0.05726685  0.34176348  1
  Te  Te2  1  0.71550437  0.94273315  0.65823652  1
  Te  Te3  1  0.05726685  0.71550437  0.77277121  1
loop_
_geom_bond_atom_site_label_1
_geom_bond_atom_site_label_2
_geom_bond_distance
_geom_bond_site_symmetry_2
Hf0 Te1 2.899981 1_665
Hf0 Te1 2.899983 1_555
Hf0 Te3 2.908315 1_654
Hf0 Te3 2.908315 1_544
Hf0 Te0 2.915973 1_555
Hf0 Nb0 3.020769 1_665
Hf0 Nb0 3.020770 1_555
Hf1 Te3 2.899971 1_545
Hf1 Te3 2.899976 1_655
Hf1 Te2 2.908313 1_445
Hf1 Te2 2.908320 1_555
Hf1 Te1 2.915980 1_555
Hf1 Nb0 3.020756 1_556
Hf1 Nb0 3.020761 1_666
Hf2 Te0 2.899971 1_565
Hf2 Te0 2.899976 1_455
Hf2 Te1 2.908313 1_665
Hf2 Te1 2.908320 1_555
Hf2 Te2 2.915980 1_555
Hf2 Nb0 3.020756 1_665
Hf2 Nb0 3.020761 1_555
Hf3 Te2 2.899981 1_445
Hf3 Te2 2.899983 1_555
Hf3 Te0 2.908315 1_456
Hf3 Te0 2.908315 1_566
Hf3 Te3 2.915973 1_555
Hf3 Nb0 3.020769 1_556
Hf3 Nb0 3.020770 1_666
Nb0 Te0 3.070822 1_455
Nb0 Te3 3.070822 1_544
Nb0 Te1 3.070828 1_555
Nb0 Te2 3.070828 1_444
