# generated using pymatgen
data_Y16In6TcAu
_symmetry_space_group_name_H-M   'P 1'
_cell_length_a   10.47829333
_cell_length_b   10.47829516
_cell_length_c   7.08322174
_cell_angle_alpha   90.00000000
_cell_angle_beta   90.00000000
_cell_angle_gamma   120.00000353
_symmetry_Int_Tables_number   1
_chemical_formula_structural   Y16In6TcAu
_chemical_formula_sum   'Y16 In6 Tc1 Au1'
_cell_volume   673.50780586
_cell_formula_units_Z   1
loop_
 _symmetry_equiv_pos_site_id
 _symmetry_equiv_pos_as_xyz
  1  'x, y, z'
loop_
 _atom_site_type_symbol
 _atom_site_label
 _atom_site_symmetry_multiplicity
 _atom_site_fract_x
 _atom_site_fract_y
 _atom_site_fract_z
 _atom_site_occupancy
  Y  Y0  1  0.47340980  0.52659020  0.47631286  1
  Y  Y1  1  0.05317840  0.52659020  0.47631286  1
  Y  Y2  1  0.47340980  0.94682160  0.47631286  1
  Y  Y3  1  0.53517997  0.46482003  0.98077669  1
  Y  Y4  1  0.92964007  0.46482003  0.98077669  1
  Y  Y5  1  0.53517997  0.07035993  0.98077669  1
  Y  Y6  1  0.82517044  0.17482956  0.27024223  1
  Y  Y7  1  0.34965911  0.17482956  0.27024223  1
  Y  Y8  1  0.82517044  0.65034089  0.27024223  1
  Y  Y9  1  0.17297891  0.82702109  0.77340325  1
  Y  Y10  1  0.65404319  0.82702109  0.77340325  1
  Y  Y11  1  0.17297891  0.34595681  0.77340325  1
  Y  Y12  1  0.33333300  0.66666700  0.11205318  1
  Y  Y13  1  0.66666700  0.33333300  0.60692351  1
  Y  Y14  1  0.00000000  0.00000000  0.49857013  1
  Y  Y15  1  0.00000000  0.00000000  0.99581008  1
  In  In0  1  0.16486287  0.83513713  0.23517259  1
  In  In1  1  0.67027626  0.83513713  0.23517259  1
  In  In2  1  0.16486287  0.32972374  0.23517259  1
  In  In3  1  0.83716195  0.16283805  0.73386362  1
  In  In4  1  0.32567610  0.16283805  0.73386362  1
  In  In5  1  0.83716195  0.67432390  0.73386362  1
  Tc  Tc0  1  0.66666700  0.33333300  0.21350364  1
  Au  Au0  1  0.33333300  0.66666700  0.70838471  1
loop_
_geom_bond_atom_site_label_1
_geom_bond_atom_site_label_2
_geom_bond_distance
_geom_bond_site_symmetry_2
Y0 Y11 3.458663 1_555
Y0 Y10 3.458663 1_555
Y0 Y8 3.552190 1_555
Y0 Y7 3.552190 1_555
Y0 Y12 3.622167 1_555
Y0 Y13 3.627373 1_555
Y0 Y3 3.684675 1_554
Y0 Y3 3.744963 1_555
Y1 Y9 3.458660 1_555
Y1 Y11 3.458683 1_555
Y1 Y8 3.552172 1_455
Y1 Y6 3.552187 1_455
Y1 Y12 3.622173 1_555
Y1 Y13 3.627347 1_455
Y1 Y4 3.684669 1_454
Y1 Y4 3.744958 1_455
Y2 Y9 3.458660 1_555
Y2 Y7 3.552172 1_565
Y2 Y6 3.552186 1_565
Y2 Y5 3.684669 1_564
Y2 Y5 3.744958 1_565
Y3 Y8 3.362899 1_556
Y3 Y7 3.362899 1_556
Y4 Y8 3.362899 1_556
Y4 Y6 3.362899 1_556
Y4 Y9 3.658664 1_655
Y5 Y6 3.362899 1_556
Y5 Y7 3.362899 1_556
Y5 Y9 3.658664 1_545
Y10 Y2 3.458683 1_555
Y10 Y15 3.512466 1_665
Y10 Y3 3.658663 1_555
Y10 Y5 3.658672 1_565
Y10 Y14 3.693958 1_665
Y10 Y12 3.771421 1_556
Y11 Y15 3.512467 1_555
Y11 Y3 3.658662 1_555
Y11 Y4 3.658671 1_455
Y11 Y14 3.693958 1_555
Y11 Y12 3.771421 1_556
Y12 Y2 3.622173 1_555
Y12 Y9 3.771407 1_554
Y12 Y4 3.779470 1_454
Y12 Y5 3.779471 1_564
Y12 Y3 3.779480 1_554
Y13 Y4 3.564685 1_555
Y13 Y5 3.564685 1_555
Y13 Y3 3.564691 1_555
Y13 Y2 3.627347 1_545
Y13 Y6 3.736635 1_555
Y13 Y7 3.736642 1_555
Y13 Y8 3.736642 1_555
Y14 Y15 3.522061 1_555
Y14 Y15 3.561161 1_554
Y14 Y7 3.561375 1_555
Y14 Y6 3.561375 1_455
Y14 Y8 3.561375 1_445
Y14 Y9 3.693966 1_545
Y15 Y9 3.512475 1_545
Y15 Y7 3.721068 1_556
Y15 Y6 3.721068 1_456
Y15 Y8 3.721069 1_446
In0 Y8 3.096486 1_455
In0 Y7 3.096486 1_565
In0 Y12 3.179491 1_555
In0 Y9 3.274130 1_554
In0 Y2 3.309988 1_555
In0 Y1 3.309988 1_555
In0 Y15 3.439063 1_564
In0 Y14 3.526107 1_565
In0 Y9 3.815252 1_555
In0 Y5 3.848985 1_564
In0 Y4 3.848985 1_454
In1 Y8 3.096469 1_555
In1 Y6 3.096487 1_565
In1 Y12 3.179517 1_555
In1 Y10 3.274130 1_554
In1 Y0 3.309994 1_555
In1 Y2 3.310021 1_555
In1 Y15 3.439047 1_664
In1 Y14 3.526091 1_665
In1 Y10 3.815252 1_555
In1 Y3 3.848982 1_554
In1 Y5 3.849000 1_564
In2 Y7 3.096469 1_555
In2 Y6 3.096487 1_455
In2 Y12 3.179517 1_555
In2 Y11 3.274130 1_554
In2 Y0 3.309993 1_555
In2 Y1 3.310022 1_555
In2 Y15 3.439048 1_554
In2 Y14 3.526091 1_555
In2 Y11 3.815252 1_555
In2 Y3 3.848982 1_554
In2 Y4 3.848999 1_454
In3 Y11 3.064350 1_655
In3 Y10 3.064351 1_545
In3 Y13 3.222292 1_555
In3 Y6 3.291137 1_555
In3 Y5 3.308185 1_555
In3 Y4 3.308185 1_555
In3 Y14 3.392889 1_655
In3 Y15 3.489502 1_655
In3 Y2 3.788359 1_545
In3 Y1 3.788359 1_655
In3 Y6 3.805517 1_556
In4 Y11 3.064342 1_555
In4 Y9 3.064352 1_545
In4 Y13 3.222301 1_555
In4 Y7 3.291137 1_555
In4 Y5 3.308185 1_555
In4 Y3 3.308185 1_555
In4 Y14 3.392889 1_555
In4 Y15 3.489501 1_555
In4 Y2 3.788344 1_545
In4 Y0 3.788361 1_555
In4 Y7 3.805517 1_556
In5 Y10 3.064342 1_555
In5 Y9 3.064351 1_655
In5 Y13 3.222301 1_555
In5 Y8 3.291137 1_555
In5 Y3 3.308185 1_555
In5 Y4 3.308185 1_555
In5 Y14 3.392889 1_665
In5 Y15 3.489502 1_665
In5 Y1 3.788344 1_655
In5 Y0 3.788361 1_555
In5 Y8 3.805517 1_556
Tc0 Y13 2.786680 1_555
Tc0 Y4 2.900350 1_554
Tc0 Y5 2.900350 1_554
Tc0 Y3 2.900358 1_554
Tc0 Y6 2.904607 1_555
Tc0 Y7 2.904616 1_555
Tc0 Y8 2.904616 1_555
Au0 Y12 2.859273 1_556
Au0 Y9 2.946471 1_555
Au0 Y10 2.946488 1_555
Au0 Y11 2.946489 1_555
Au0 Y0 3.027399 1_555
Au0 Y1 3.027406 1_555
Au0 Y2 3.027406 1_555
