# generated using pymatgen
data_KLi(Ga3Te5)2
_symmetry_space_group_name_H-M   'P 1'
_cell_length_a   10.43457623
_cell_length_b   10.43457454
_cell_length_c   10.61481505
_cell_angle_alpha   89.22591855
_cell_angle_beta   89.22591906
_cell_angle_gamma   88.36662891
_symmetry_Int_Tables_number   1
_chemical_formula_structural   KLi(Ga3Te5)2
_chemical_formula_sum   'K2 Li2 Ga12 Te20'
_cell_volume   1155.07029050
_cell_formula_units_Z   2
loop_
 _symmetry_equiv_pos_site_id
 _symmetry_equiv_pos_as_xyz
  1  'x, y, z'
loop_
 _atom_site_type_symbol
 _atom_site_label
 _atom_site_symmetry_multiplicity
 _atom_site_fract_x
 _atom_site_fract_y
 _atom_site_fract_z
 _atom_site_occupancy
  K  K0  1  0.50425631  0.49574369  0.50000000  1
  K  K1  1  0.24283758  0.75716242  1.00000000  1
  Li  Li0  1  0.74469064  0.00036509  0.72422104  1
  Li  Li1  1  0.99963491  0.25530936  0.27577896  1
  Ga  Ga0  1  0.43111248  0.16067138  0.88087661  1
  Ga  Ga1  1  0.15466322  0.12613912  0.57224939  1
  Ga  Ga2  1  0.11794518  0.42534147  0.83971003  1
  Ga  Ga3  1  0.87386088  0.84533678  0.42775061  1
  Ga  Ga4  1  0.57465853  0.88205482  0.16028997  1
  Ga  Ga5  1  0.83932862  0.56888752  0.11912339  1
  Ga  Ga6  1  0.66020788  0.24922697  0.16043564  1
  Ga  Ga7  1  0.25024735  0.84412632  0.34556826  1
  Ga  Ga8  1  0.82548281  0.66119559  0.74701858  1
  Ga  Ga9  1  0.15587368  0.74975265  0.65443174  1
  Ga  Ga10  1  0.33880441  0.17451719  0.25298142  1
  Ga  Ga11  1  0.75077303  0.33979212  0.83956436  1
  Te  Te0  1  0.17781801  0.17337361  0.82220653  1
  Te  Te1  1  0.82662639  0.82218199  0.17779347  1
  Te  Te2  1  0.42918204  0.32693687  0.06916353  1
  Te  Te3  1  0.31864059  0.92867175  0.57146753  1
  Te  Te4  1  0.92623588  0.43234690  0.67820726  1
  Te  Te5  1  0.07132825  0.68135941  0.42853247  1
  Te  Te6  1  0.56765310  0.07376412  0.32179274  1
  Te  Te7  1  0.67306313  0.57081796  0.93083647  1
  Te  Te8  1  0.58011308  0.23852656  0.69619837  1
  Te  Te9  1  0.23081248  0.31671516  0.42706466  1
  Te  Te10  1  0.30139241  0.56601667  0.74727940  1
  Te  Te11  1  0.68328484  0.76918752  0.57293534  1
  Te  Te12  1  0.43398333  0.69860759  0.25272060  1
  Te  Te13  1  0.76147344  0.41988692  0.30380163  1
  Te  Te14  1  0.98238102  0.83504039  0.81523740  1
  Te  Te15  1  0.83243053  0.16756947  1.00000000  1
  Te  Te16  1  0.16495961  0.01761898  0.18476260  1
  Te  Te17  1  0.51886789  0.92572260  0.92234646  1
  Te  Te18  1  0.91612510  0.08387490  0.50000000  1
  Te  Te19  1  0.07427740  0.48113211  0.07765354  1
loop_
_geom_bond_atom_site_label_1
_geom_bond_atom_site_label_2
_geom_bond_distance
_geom_bond_site_symmetry_2
K0 Te12 3.423685 1_555
K0 Te10 3.423685 1_555
K0 Te8 3.455399 1_555
K0 Te13 3.455399 1_555
K0 Te11 3.554279 1_555
K0 Te9 3.554279 1_555
K1 Te10 3.402720 1_555
K1 Te12 3.402720 1_556
K1 Te16 3.444994 1_566
K1 Te14 3.444994 1_455
K1 Te19 3.500624 1_556
K1 Te17 3.500624 1_555
Li0 Te8 2.993980 1_555
Li0 Te11 3.004805 1_545
Li0 Te18 3.088978 1_555
Li0 Te14 3.136323 1_545
Li0 Te17 3.241671 1_545
Li1 Te13 2.993980 1_555
Li1 Te9 3.004805 1_655
Li1 Te18 3.088978 1_555
Li1 Te16 3.136323 1_655
Li1 Te19 3.241671 1_655
Ga0 Te8 2.620447 1_555
Ga0 Te17 2.626083 1_545
Ga0 Te2 2.663729 1_556
Ga0 Te0 2.722727 1_555
Ga1 Te9 2.633442 1_555
Ga1 Te3 2.640533 1_545
Ga1 Te18 2.664823 1_455
Ga1 Te0 2.720381 1_555
Ga2 Te10 2.617628 1_555
Ga2 Te19 2.630461 1_556
Ga2 Te4 2.650812 1_455
Ga2 Te0 2.693293 1_555
Ga3 Te11 2.633443 1_555
Ga3 Te5 2.640533 1_655
Ga3 Te18 2.664822 1_565
Ga3 Te1 2.720381 1_555
Ga4 Te12 2.617628 1_555
Ga4 Te17 2.630461 1_554
Ga4 Te6 2.650811 1_565
Ga4 Te1 2.693293 1_555
Ga5 Te13 2.620447 1_555
Ga5 Te19 2.626083 1_655
Ga5 Te7 2.663729 1_554
Ga5 Te1 2.722727 1_555
Ga6 Te15 2.593239 1_554
Ga6 Te13 2.612945 1_555
Ga6 Te6 2.681382 1_555
Ga6 Te2 2.708849 1_555
Ga7 Te12 2.603085 1_555
Ga7 Te16 2.616974 1_565
Ga7 Te3 2.678933 1_555
Ga7 Te5 2.691008 1_555
Ga8 Te14 2.594627 1_555
Ga8 Te11 2.609306 1_555
Ga8 Te7 2.679164 1_555
Ga8 Te4 2.687804 1_555
Ga9 Te10 2.603085 1_555
Ga9 Te14 2.616974 1_455
Ga9 Te5 2.678933 1_555
Ga9 Te3 2.691008 1_555
Ga10 Te16 2.594627 1_555
Ga10 Te9 2.609306 1_555
Ga10 Te2 2.679164 1_555
Ga10 Te6 2.687804 1_555
Ga11 Te15 2.593238 1_555
Ga11 Te8 2.612946 1_555
Ga11 Te4 2.681382 1_555
Ga11 Te7 2.708849 1_555
