# generated using pymatgen
data_NaCa2(AsRu)6
_symmetry_space_group_name_H-M   'P 1'
_cell_length_a   8.41560301
_cell_length_b   8.41560457
_cell_length_c   5.97481084
_cell_angle_alpha   78.88221277
_cell_angle_beta   78.88220928
_cell_angle_gamma   41.06311569
_symmetry_Int_Tables_number   1
_chemical_formula_structural   NaCa2(AsRu)6
_chemical_formula_sum   'Na1 Ca2 As6 Ru6'
_cell_volume   272.00698933
_cell_formula_units_Z   1
loop_
 _symmetry_equiv_pos_site_id
 _symmetry_equiv_pos_as_xyz
  1  'x, y, z'
loop_
 _atom_site_type_symbol
 _atom_site_label
 _atom_site_symmetry_multiplicity
 _atom_site_fract_x
 _atom_site_fract_y
 _atom_site_fract_z
 _atom_site_occupancy
  Na  Na0  1  0.00000000  0.00000000  0.00000000  1
  Ca  Ca0  1  0.66538225  0.66538225  0.66988404  1
  Ca  Ca1  1  0.33461775  0.33461775  0.33011596  1
  As  As0  1  0.87857925  0.87857925  0.50877461  1
  As  As1  1  0.21063290  0.21063290  0.84742649  1
  As  As2  1  0.54565994  0.54565994  0.17953951  1
  As  As3  1  0.45434006  0.45434006  0.82046049  1
  As  As4  1  0.78936710  0.78936710  0.15257351  1
  As  As5  1  0.12142075  0.12142075  0.49122539  1
  Ru  Ru0  1  0.08235420  0.58221258  0.82913065  1
  Ru  Ru1  1  0.41778742  0.91764580  0.17086935  1
  Ru  Ru2  1  0.74985626  0.25014374  0.50000000  1
  Ru  Ru3  1  0.25014374  0.74985626  0.50000000  1
  Ru  Ru4  1  0.58221258  0.08235420  0.82913065  1
  Ru  Ru5  1  0.91764580  0.41778742  0.17086935  1
loop_
_geom_bond_atom_site_label_1
_geom_bond_atom_site_label_2
_geom_bond_distance
_geom_bond_site_symmetry_2
Na0 Ru2 3.332417 1_455
Na0 Ru3 3.332417 1_544
Na0 Ru3 3.332417 1_545
Na0 Ru2 3.332417 1_454
Na0 Ru1 3.364705 1_545
Na0 Ru4 3.364705 1_454
Na0 Ru5 3.364705 1_455
Na0 Ru0 3.364705 1_544
Ca0 Ru5 3.319985 1_555
Ca0 Ru1 3.319986 1_555
Ca0 Ru0 3.322023 1_655
Ca0 Ru4 3.322024 1_565
Ca0 Ru3 3.330247 1_555
Ca0 Ru2 3.330247 1_555
Ca0 Ru1 3.344127 1_556
Ca0 Ru5 3.344127 1_556
Ca1 Ru0 3.319985 1_555
Ca1 Ru4 3.319986 1_555
Ca1 Ru5 3.322023 1_455
Ca1 Ru1 3.322024 1_545
Ca1 Ru2 3.330247 1_555
Ca1 Ru3 3.330247 1_555
Ca1 Ru4 3.344127 1_554
Ca1 Ru0 3.344127 1_554
As0 Ru4 2.408338 1_565
As0 Ru0 2.408338 1_655
As0 Ru3 2.409281 1_655
As0 Ru2 2.409282 1_565
As0 As4 2.781924 1_555
As0 Na0 3.241535 1_665
As0 Ca1 3.261262 1_565
As0 Ca1 3.261263 1_655
As0 Ca0 3.299540 1_555
As1 Ru4 2.403950 1_555
As1 Ru0 2.403950 1_555
As1 Ru5 2.415157 1_456
As1 Ru1 2.415157 1_546
As1 As5 2.781924 1_555
As1 Na0 3.256859 1_556
As1 Ca0 3.264535 1_455
As1 Ca0 3.264535 1_545
As1 Ca1 3.299229 1_555
As2 Ru3 2.406643 1_555
As2 Ru2 2.406644 1_555
As2 Ru5 2.416522 1_555
As2 Ru1 2.416522 1_555
As2 As3 2.818942 1_554
As2 Ca0 3.235312 1_554
As2 Ca1 3.262257 1_555
As2 Na0 3.270817 1_565
As2 Na0 3.270817 1_655
As3 Ru2 2.406643 1_555
As3 Ru3 2.406644 1_555
As3 Ru0 2.416522 1_555
As3 Ru4 2.416522 1_555
As3 Ca1 3.235312 1_556
As3 Ca0 3.262257 1_555
As3 Na0 3.270817 1_656
As3 Na0 3.270817 1_566
As4 Ru1 2.403950 1_555
As4 Ru5 2.403950 1_555
As4 Ru0 2.415157 1_654
As4 Ru4 2.415157 1_564
As4 Na0 3.256859 1_665
As4 Ca1 3.264535 1_655
As4 Ca1 3.264535 1_565
As4 Ca0 3.299229 1_555
As5 Ru1 2.408338 1_545
As5 Ru5 2.408338 1_455
As5 Ru2 2.409281 1_455
As5 Ru3 2.409282 1_545
As5 Na0 3.241535 1_556
As5 Ca0 3.261262 1_545
As5 Ca0 3.261263 1_455
As5 Ca1 3.299540 1_555
