# generated using pymatgen
data_Co5RuO8
_symmetry_space_group_name_H-M   'P 1'
_cell_length_a   5.78972615
_cell_length_b   5.72490424
_cell_length_c   5.72498582
_cell_angle_alpha   60.07993993
_cell_angle_beta   61.16977331
_cell_angle_gamma   61.16971733
_symmetry_Int_Tables_number   1
_chemical_formula_structural   Co5RuO8
_chemical_formula_sum   'Co5 Ru1 O8'
_cell_volume   136.58805656
_cell_formula_units_Z   1
loop_
 _symmetry_equiv_pos_site_id
 _symmetry_equiv_pos_as_xyz
  1  'x, y, z'
loop_
 _atom_site_type_symbol
 _atom_site_label
 _atom_site_symmetry_multiplicity
 _atom_site_fract_x
 _atom_site_fract_y
 _atom_site_fract_z
 _atom_site_occupancy
  Co  Co0  1  0.12015768  0.12602098  0.12597495  1
  Co  Co1  1  0.49999130  0.49999309  0.00002220  1
  Co  Co2  1  0.50000705  0.00001678  0.49999264  1
  Co  Co3  1  0.49997590  0.50000762  0.49999432  1
  Co  Co4  1  0.87984298  0.87400327  0.87401934  1
  Ru  Ru0  1  0.00001823  0.49997692  0.49999447  1
  O  O0  1  0.27872059  0.25334486  0.25336391  1
  O  O1  1  0.27796022  0.71444114  0.24984306  1
  O  O2  1  0.27798220  0.24984043  0.71442489  1
  O  O3  1  0.71191622  0.26437993  0.26436030  1
  O  O4  1  0.28809290  0.73564075  0.73564272  1
  O  O5  1  0.72201435  0.75015772  0.28556857  1
  O  O6  1  0.72200837  0.28555140  0.75015926  1
  O  O7  1  0.72131202  0.74662511  0.74663937  1
loop_
_geom_bond_atom_site_label_1
_geom_bond_atom_site_label_2
_geom_bond_distance
_geom_bond_site_symmetry_2
Co0 O0 1.930643 1_555
Co0 O2 1.941894 1_554
Co0 O1 1.941991 1_545
Co0 O3 1.963709 1_455
Co1 O0 1.910039 1_555
Co1 O7 1.910183 1_554
Co1 O1 1.913552 1_555
Co1 O6 1.913705 1_554
Co1 O3 1.942519 1_555
Co1 O4 1.942591 1_554
Co2 O0 1.910029 1_555
Co2 O7 1.910195 1_545
Co2 O2 1.913498 1_555
Co2 O5 1.913616 1_545
Co2 O3 1.942549 1_555
Co2 O4 1.942623 1_545
Co3 O2 1.926084 1_555
Co3 O1 1.926121 1_555
Co3 O5 1.926199 1_555
Co3 O6 1.926242 1_555
Co3 O3 1.941048 1_555
Co3 O4 1.941145 1_555
Co4 O7 1.930694 1_555
Co4 O6 1.941857 1_565
Co4 O5 1.941890 1_556
Co4 O4 1.963748 1_655
O0 Ru0 2.045758 1_555
O1 Ru0 2.019103 1_555
O2 Ru0 2.019081 1_555
O5 Ru0 2.019243 1_655
O6 Ru0 2.019257 1_655
O7 Ru0 2.045875 1_655
