# generated using pymatgen
data_Lu12InFe3Pb
_symmetry_space_group_name_H-M   'P 1'
_cell_length_a   8.17766357
_cell_length_b   8.17766498
_cell_length_c   8.17766390
_cell_angle_alpha   108.80688580
_cell_angle_beta   109.10552183
_cell_angle_gamma   110.50636651
_symmetry_Int_Tables_number   1
_chemical_formula_structural   Lu12InFe3Pb
_chemical_formula_sum   'Lu12 In1 Fe3 Pb1'
_cell_volume   420.87827906
_cell_formula_units_Z   1
loop_
 _symmetry_equiv_pos_site_id
 _symmetry_equiv_pos_as_xyz
  1  'x, y, z'
loop_
 _atom_site_type_symbol
 _atom_site_label
 _atom_site_symmetry_multiplicity
 _atom_site_fract_x
 _atom_site_fract_y
 _atom_site_fract_z
 _atom_site_occupancy
  Lu  Lu0  1  0.30739090  0.31215423  0.61954513  1
  Lu  Lu1  1  0.69260910  0.68784577  0.38045487  1
  Lu  Lu2  1  0.69260910  0.31215423  0.00476333  1
  Lu  Lu3  1  0.30739090  0.68784577  0.99523667  1
  Lu  Lu4  1  0.18916775  0.42746666  0.23829891  1
  Lu  Lu5  1  0.81083225  0.57253334  0.76170109  1
  Lu  Lu6  1  0.18916775  0.95086883  0.76170109  1
  Lu  Lu7  1  0.95469237  0.19120705  0.76348832  1
  Lu  Lu8  1  0.81083225  0.04913117  0.23829891  1
  Lu  Lu9  1  0.04530763  0.80879295  0.23651168  1
  Lu  Lu10  1  0.42771874  0.19120705  0.23651168  1
  Lu  Lu11  1  0.57228126  0.80879295  0.76348832  1
  In  In0  1  0.00000000  0.50000000  0.50000000  1
  Fe  Fe0  1  0.37816708  0.37816708  1.00000000  1
  Fe  Fe1  1  0.62183292  0.62183292  0.00000000  1
  Fe  Fe2  1  0.00000000  0.00000000  0.00000000  1
  Pb  Pb0  1  0.50000000  0.00000000  0.50000000  1
loop_
_geom_bond_atom_site_label_1
_geom_bond_atom_site_label_2
_geom_bond_distance
_geom_bond_site_symmetry_2
Lu0 Lu11 3.414249 1_555
Lu0 Lu7 3.414270 1_455
Lu0 Lu5 3.458897 1_555
Lu0 Lu6 3.458897 1_545
Lu0 Lu4 3.479246 1_555
Lu0 Lu8 3.479246 1_455
Lu0 Pb0 3.488389 1_555
Lu0 Lu10 3.529867 1_555
Lu0 Lu9 3.529870 1_545
Lu1 Lu10 3.414249 1_555
Lu1 Lu9 3.414270 1_655
Lu1 Lu4 3.458897 1_555
Lu1 Lu8 3.458897 1_565
Lu1 Lu5 3.479246 1_555
Lu1 Lu6 3.479246 1_655
Lu1 Pb0 3.488389 1_565
Lu1 Lu11 3.529867 1_555
Lu1 Lu7 3.529870 1_565
Lu2 Lu9 3.414256 1_655
Lu2 Lu5 3.458897 1_554
Lu2 Lu6 3.458897 1_544
Lu2 Lu4 3.479246 1_655
Lu2 Lu8 3.479246 1_555
Lu2 Pb0 3.488389 1_554
Lu2 Lu7 3.529845 1_554
Lu3 Lu7 3.414256 1_455
Lu3 Lu4 3.458897 1_556
Lu3 Lu8 3.458897 1_566
Lu3 Lu5 3.479246 1_455
Lu3 Lu6 3.479246 1_555
Lu3 Pb0 3.488389 1_566
Lu3 Lu9 3.529845 1_556
Lu4 Lu7 3.190571 1_454
Lu4 Lu8 3.526744 1_455
Lu4 Lu9 3.700918 1_555
Lu4 Pb0 3.821329 1_565
Lu5 Lu9 3.190571 1_656
Lu5 Lu6 3.526744 1_655
Lu5 Lu7 3.700918 1_555
Lu5 Pb0 3.821329 1_555
Lu6 Lu7 3.190591 1_465
Lu6 Lu9 3.700937 1_555
Lu6 Pb0 3.821328 1_565
Lu7 Pb0 3.069710 1_555
Lu7 Lu8 3.700937 1_555
Lu8 Lu9 3.190591 1_645
Lu8 Pb0 3.821328 1_555
Lu9 Pb0 3.069710 1_565
Lu10 Pb0 3.069730 1_555
Lu10 Lu4 3.190571 1_555
Lu10 Lu6 3.190571 1_544
Lu10 Lu2 3.414249 1_555
Lu10 Lu3 3.529868 1_544
Lu10 Lu9 3.564750 1_545
Lu10 Lu8 3.700932 1_555
Lu10 Lu5 3.700933 1_555
Lu11 Pb0 3.069730 1_565
Lu11 Lu5 3.190571 1_555
Lu11 Lu8 3.190571 1_566
Lu11 Lu3 3.414249 1_555
Lu11 Lu2 3.529868 1_566
Lu11 Lu7 3.564750 1_565
Lu11 Lu6 3.700932 1_555
Lu11 Lu4 3.700933 1_555
In0 Lu5 3.052301 1_455
In0 Lu4 3.052301 1_555
In0 Lu6 3.052302 1_555
In0 Lu8 3.052302 1_455
In0 Lu0 3.420426 1_555
In0 Lu1 3.420426 1_455
In0 Lu3 3.420426 1_555
In0 Lu2 3.420426 1_455
In0 Lu11 3.812092 1_555
In0 Lu10 3.812092 1_455
In0 Lu9 3.812093 1_555
In0 Lu7 3.812093 1_455
Fe0 Fe1 2.271389 1_556
Fe0 Lu2 2.797423 1_556
Fe0 Lu0 2.797423 1_555
Fe0 Lu3 2.797424 1_555
Fe0 Lu1 2.797424 1_556
Fe0 Lu10 2.840796 1_556
Fe0 Lu7 2.840816 1_455
Fe0 Lu4 2.872374 1_556
Fe0 Lu6 2.872374 1_545
Fe1 Lu3 2.797423 1_554
Fe1 Lu1 2.797423 1_555
Fe1 Lu2 2.797424 1_555
Fe1 Lu0 2.797424 1_554
Fe1 Lu11 2.840796 1_554
Fe1 Lu9 2.840816 1_655
Fe1 Lu5 2.872374 1_554
Fe1 Lu8 2.872374 1_565
Fe2 Lu10 2.865254 1_555
Fe2 Lu11 2.865254 1_444
Fe2 Lu9 2.865257 1_545
Fe2 Lu7 2.865257 1_454
Fe2 Lu8 2.873337 1_455
Fe2 Lu6 2.873337 1_544
Fe2 Lu4 2.873338 1_555
Fe2 Lu5 2.873338 1_444
