# generated using pymatgen
data_Zr10Ga2Sn5Sb
_symmetry_space_group_name_H-M   'P 1'
_cell_length_a   8.70697377
_cell_length_b   8.69703326
_cell_length_c   5.87834642
_cell_angle_alpha   90.00000000
_cell_angle_beta   90.00000000
_cell_angle_gamma   120.03781282
_symmetry_Int_Tables_number   1
_chemical_formula_structural   Zr10Ga2Sn5Sb
_chemical_formula_sum   'Zr10 Ga2 Sn5 Sb1'
_cell_volume   385.35284568
_cell_formula_units_Z   1
loop_
 _symmetry_equiv_pos_site_id
 _symmetry_equiv_pos_as_xyz
  1  'x, y, z'
loop_
 _atom_site_type_symbol
 _atom_site_label
 _atom_site_symmetry_multiplicity
 _atom_site_fract_x
 _atom_site_fract_y
 _atom_site_fract_z
 _atom_site_occupancy
  Zr  Zr0  1  0.99938506  0.26384137  0.25000000  1
  Zr  Zr1  1  0.73304585  1.00000000  0.75000000  1
  Zr  Zr2  1  0.73554369  0.73615863  0.25000000  1
  Zr  Zr3  1  0.66654224  0.33238810  0.50055287  1
  Zr  Zr4  1  0.99999952  0.73397975  0.75000000  1
  Zr  Zr5  1  0.26601976  0.26602025  0.75000000  1
  Zr  Zr6  1  0.33415313  0.66761190  0.99944713  1
  Zr  Zr7  1  0.66654224  0.33238810  0.99944713  1
  Zr  Zr8  1  0.33415313  0.66761190  0.50055287  1
  Zr  Zr9  1  0.26554872  0.00000000  0.25000000  1
  Ga  Ga0  1  0.00064212  1.00000000  0.99789537  1
  Ga  Ga1  1  0.00064212  1.00000000  0.50210463  1
  Sn  Sn0  1  0.38704431  0.00000000  0.75000000  1
  Sn  Sn1  1  0.38920086  0.38918511  0.25000000  1
  Sn  Sn2  1  0.00001575  0.61081489  0.25000000  1
  Sn  Sn3  1  0.00061044  0.38915471  0.75000000  1
  Sn  Sn4  1  0.61145473  0.61084529  0.75000000  1
  Sb  Sb0  1  0.60945233  0.00000000  0.25000000  1
loop_
_geom_bond_atom_site_label_1
_geom_bond_atom_site_label_2
_geom_bond_distance
_geom_bond_site_symmetry_2
Ga0 Zr4 2.731892 1_455
Ga0 Zr5 2.731892 1_565
Ga0 Zr0 2.736206 1_466
Ga0 Zr2 2.736206 1_456
Ga0 Zr9 2.741588 1_566
Ga0 Zr1 2.748119 1_455
Ga1 Zr4 2.731892 1_455
Ga1 Zr5 2.731892 1_565
Ga1 Zr0 2.736206 1_465
Ga1 Zr2 2.736206 1_455
Ga1 Zr9 2.741588 1_565
Ga1 Zr1 2.748119 1_455
Sn0 Zr5 2.983930 1_555
Sn0 Zr4 2.983930 1_445
Sn0 Zr1 3.012626 1_545
Sn0 Zr6 3.063674 1_545
Sn0 Zr8 3.063674 1_545
Sn0 Zr7 3.063677 1_555
Sn0 Zr3 3.063677 1_555
Sn0 Zr9 3.123749 1_556
Sn0 Zr9 3.123749 1_555
Sn1 Zr9 2.994562 1_555
Sn1 Zr0 3.000694 1_455
Sn1 Zr2 3.014895 1_555
Sn1 Zr8 3.069938 1_555
Sn1 Zr6 3.069938 1_554
Sn1 Zr3 3.072250 1_555
Sn1 Zr7 3.072250 1_554
Sn1 Zr5 3.128305 1_555
Sn1 Zr5 3.128305 1_554
Sn2 Zr9 2.994562 1_565
Sn2 Zr2 3.000694 1_455
Sn2 Zr0 3.014895 1_455
Sn2 Zr3 3.069933 1_455
Sn2 Zr7 3.069933 1_454
Sn2 Zr8 3.072243 1_555
Sn2 Zr6 3.072243 1_554
Sn2 Zr4 3.128305 1_454
Sn2 Zr4 3.128305 1_455
Sn3 Zr5 2.994118 1_555
Sn3 Zr1 2.998065 1_445
Sn3 Zr4 3.001621 1_455
Sn3 Zr6 3.067236 1_555
Sn3 Zr8 3.067236 1_555
Sn3 Zr7 3.068692 1_455
Sn3 Zr3 3.068692 1_455
Sn3 Zr0 3.132889 1_455
Sn3 Zr0 3.132889 1_456
Sn4 Zr4 2.994127 1_555
Sn4 Zr1 2.998063 1_555
Sn4 Zr5 3.001617 1_555
Sn4 Zr7 3.067245 1_555
Sn4 Zr3 3.067245 1_555
Sn4 Zr6 3.068692 1_555
Sn4 Zr8 3.068692 1_555
Sn4 Zr2 3.132891 1_556
Sn4 Zr2 3.132891 1_555
Sb0 Zr9 2.994360 1_555
Sb0 Zr2 2.998798 1_545
Sb0 Zr0 2.998798 1_555
Sb0 Zr3 3.055226 1_555
Sb0 Zr7 3.055226 1_554
Sb0 Zr8 3.055229 1_545
Sb0 Zr6 3.055229 1_544
Sb0 Zr1 3.129982 1_544
Sb0 Zr1 3.129982 1_545
