# generated using pymatgen
data_AlFe2
_symmetry_space_group_name_H-M   'P 1'
_cell_length_a   4.73947512
_cell_length_b   4.73947512
_cell_length_c   4.73947512
_cell_angle_alpha   60.00000000
_cell_angle_beta   60.00000000
_cell_angle_gamma   60.00000000
_symmetry_Int_Tables_number   1
_chemical_formula_structural   AlFe2
_chemical_formula_sum   'Al2 Fe4'
_cell_volume   75.27933029
_cell_formula_units_Z   2
loop_
 _symmetry_equiv_pos_site_id
 _symmetry_equiv_pos_as_xyz
  1  'x, y, z'
loop_
 _atom_site_type_symbol
 _atom_site_label
 _atom_site_symmetry_multiplicity
 _atom_site_fract_x
 _atom_site_fract_y
 _atom_site_fract_z
 _atom_site_occupancy
  Al  Al0  1  0.75000000  0.75000000  0.75000000  1
  Al  Al1  1  0.50000000  0.50000000  0.50000000  1
  Fe  Fe0  1  0.12500000  0.62500000  0.12500000  1
  Fe  Fe1  1  0.12500000  0.12500000  0.62500000  1
  Fe  Fe2  1  0.62500000  0.12500000  0.12500000  1
  Fe  Fe3  1  0.12500000  0.12500000  0.12500000  1
loop_
_geom_bond_atom_site_label_1
_geom_bond_atom_site_label_2
_geom_bond_distance
_geom_bond_site_symmetry_2
Al0 Fe3 2.778764 1_656
Al0 Fe0 2.778764 1_556
Al0 Fe0 2.778764 1_656
Al0 Fe3 2.778764 1_665
Al0 Fe0 2.778764 1_655
Al0 Fe1 2.778764 1_565
Al0 Fe2 2.778764 1_556
Al0 Fe3 2.778764 1_566
Al0 Fe1 2.778764 1_665
Al0 Fe1 2.778764 1_655
Al0 Fe2 2.778764 1_566
Al0 Fe2 2.778764 1_565
Al0 Al1 2.902324 1_655
Al0 Al1 2.902324 1_556
Al0 Al1 2.902324 1_555
Al0 Al1 2.902324 1_565
Al1 Fe2 2.778764 1_555
Al1 Fe0 2.778764 1_555
Al1 Fe3 2.778764 1_556
Al1 Fe0 2.778764 1_556
Al1 Fe3 2.778764 1_565
Al1 Fe3 2.778764 1_655
Al1 Fe0 2.778764 1_655
Al1 Fe1 2.778764 1_555
Al1 Fe1 2.778764 1_565
Al1 Fe2 2.778764 1_556
Al1 Fe1 2.778764 1_655
Al1 Fe2 2.778764 1_565
Fe0 Fe1 2.369738 1_555
Fe0 Fe1 2.369738 1_564
Fe0 Fe3 2.369738 1_555
Fe0 Fe2 2.369738 1_465
Fe0 Fe3 2.369738 1_565
Fe0 Fe2 2.369738 1_555
Fe1 Fe2 2.369738 1_456
Fe1 Fe3 2.369738 1_555
Fe1 Fe3 2.369738 1_556
Fe1 Fe2 2.369738 1_555
Fe2 Fe3 2.369738 1_555
Fe2 Fe3 2.369738 1_655
