# generated using pymatgen
data_GaHgBr3Cl
_symmetry_space_group_name_H-M   'P 1'
_cell_length_a   6.89085905
_cell_length_b   6.84461834
_cell_length_c   9.82251350
_cell_angle_alpha   82.24622778
_cell_angle_beta   74.57456424
_cell_angle_gamma   60.79511851
_symmetry_Int_Tables_number   1
_chemical_formula_structural   GaHgBr3Cl
_chemical_formula_sum   'Ga2 Hg2 Br6 Cl2'
_cell_volume   389.81523791
_cell_formula_units_Z   2
loop_
 _symmetry_equiv_pos_site_id
 _symmetry_equiv_pos_as_xyz
  1  'x, y, z'
loop_
 _atom_site_type_symbol
 _atom_site_label
 _atom_site_symmetry_multiplicity
 _atom_site_fract_x
 _atom_site_fract_y
 _atom_site_fract_z
 _atom_site_occupancy
  Ga  Ga0  1  0.38101431  0.85937440  0.76175817  1
  Ga  Ga1  1  0.61898569  0.14062560  0.23824183  1
  Hg  Hg0  1  0.93625053  0.52051464  0.88390487  1
  Hg  Hg1  1  0.06374947  0.47948536  0.11609513  1
  Br  Br0  1  0.75768532  0.55177849  0.67088358  1
  Br  Br1  1  0.24231468  0.44822151  0.32911642  1
  Br  Br2  1  0.32589316  0.83141041  0.00580689  1
  Br  Br3  1  0.67410684  0.16858959  0.99419311  1
  Br  Br4  1  0.13151938  0.81360161  0.66791222  1
  Br  Br5  1  0.86848062  0.18639839  0.33208778  1
  Cl  Cl0  1  0.38728700  0.17116577  0.68825582  1
  Cl  Cl1  1  0.61271300  0.82883423  0.31174418  1
loop_
_geom_bond_atom_site_label_1
_geom_bond_atom_site_label_2
_geom_bond_distance
_geom_bond_site_symmetry_2
Br0 Ga0 2.430685 1_555
Br0 Hg0 2.632461 1_555
Br1 Ga1 2.430685 1_555
Br1 Hg1 2.632461 1_555
Br2 Ga0 2.321661 1_554
Br3 Ga1 2.321661 1_556
Br4 Ga0 2.313064 1_555
Br5 Ga1 2.313064 1_555
Cl0 Ga0 2.176038 1_545
Cl1 Ga1 2.176038 1_565
