# generated using pymatgen
data_RbCrCl3
_symmetry_space_group_name_H-M   'P 1'
_cell_length_a   7.05703276
_cell_length_b   7.05703276
_cell_length_c   12.74991915
_cell_angle_alpha   86.08378263
_cell_angle_beta   86.08378263
_cell_angle_gamma   59.57859920
_symmetry_Int_Tables_number   1
_chemical_formula_structural   RbCrCl3
_chemical_formula_sum   'Rb4 Cr4 Cl12'
_cell_volume   545.85017922
_cell_formula_units_Z   4
loop_
 _symmetry_equiv_pos_site_id
 _symmetry_equiv_pos_as_xyz
  1  'x, y, z'
loop_
 _atom_site_type_symbol
 _atom_site_label
 _atom_site_symmetry_multiplicity
 _atom_site_fract_x
 _atom_site_fract_y
 _atom_site_fract_z
 _atom_site_occupancy
  Rb  Rb0  1  0.68614875  0.64651743  0.63003563  1
  Rb  Rb1  1  0.35348257  0.31385125  0.86996437  1
  Rb  Rb2  1  0.31385125  0.35348257  0.36996437  1
  Rb  Rb3  1  0.64651743  0.68614875  0.13003563  1
  Cr  Cr0  1  -0.00000000  0.00000000  0.50000000  1
  Cr  Cr1  1  -0.00000000  0.00000000  0.00000000  1
  Cr  Cr2  1  0.96134180  0.03865820  0.25000000  1
  Cr  Cr3  1  0.03865820  0.96134180  0.75000000  1
  Cl  Cl0  1  0.12837354  0.71948872  0.14189996  1
  Cl  Cl1  1  0.28051128  0.87162646  0.35810004  1
  Cl  Cl2  1  0.87162646  0.28051128  0.85810004  1
  Cl  Cl3  1  0.71948872  0.12837354  0.64189996  1
  Cl  Cl4  1  0.18989178  0.64327258  0.64717593  1
  Cl  Cl5  1  0.35672742  0.81010822  0.85282407  1
  Cl  Cl6  1  0.81010822  0.35672742  0.35282407  1
  Cl  Cl7  1  0.64327258  0.18989178  0.14717593  1
  Cl  Cl8  1  0.85258919  0.81760373  0.91351132  1
  Cl  Cl9  1  0.18239627  0.14741081  0.58648868  1
  Cl  Cl10  1  0.14741081  0.18239627  0.08648868  1
  Cl  Cl11  1  0.81760373  0.85258919  0.41351132  1
loop_
_geom_bond_atom_site_label_1
_geom_bond_atom_site_label_2
_geom_bond_distance
_geom_bond_site_symmetry_2
Cl0 Cr2 2.423985 1_465
Cl0 Cr1 2.435406 1_565
Cl0 Rb3 3.536483 1_555
Cl0 Rb3 3.539326 1_455
Cl0 Rb2 3.593080 1_555
Cl1 Cr2 2.423985 1_465
Cl1 Cr0 2.435406 1_565
Cl1 Rb2 3.536483 1_555
Cl1 Rb2 3.539326 1_565
Cl1 Rb3 3.593080 1_555
Cl2 Cr3 2.423985 1_645
Cl2 Cr1 2.435406 1_656
Cl2 Rb1 3.536483 1_555
Cl2 Rb1 3.539326 1_655
Cl2 Rb0 3.593080 1_555
Cl3 Cr3 2.423985 1_645
Cl3 Cr0 2.435406 1_655
Cl3 Rb0 3.536483 1_555
Cl3 Rb0 3.539326 1_545
Cl3 Rb1 3.593080 1_555
Cl4 Cr3 2.383462 1_555
Cl4 Cr0 2.817136 1_565
Cl4 Rb1 3.410838 1_555
Cl4 Rb0 3.505565 1_555
Cl4 Rb0 3.564942 1_455
Cl5 Cr3 2.383462 1_555
Cl5 Cr1 2.817136 1_566
Cl5 Rb0 3.410838 1_555
Cl5 Rb1 3.505565 1_555
Cl5 Rb1 3.564942 1_565
Cl6 Cr2 2.383462 1_555
Cl6 Cr0 2.817136 1_655
Cl6 Rb3 3.410838 1_555
Cl6 Rb2 3.505565 1_555
Cl6 Rb2 3.564942 1_655
Cl7 Cr2 2.383462 1_555
Cl7 Cr1 2.817136 1_655
Cl7 Rb2 3.410838 1_555
Cl7 Rb3 3.505565 1_555
Cl7 Rb3 3.564942 1_545
Cl8 Cr1 2.379420 1_666
Cl8 Cr3 2.790244 1_655
Cl8 Rb3 3.326373 1_556
Cl8 Rb1 3.533881 1_565
Cl8 Rb1 3.566055 1_655
Cl9 Cr0 2.379420 1_555
Cl9 Cr3 2.790244 1_545
Cl9 Rb2 3.326373 1_555
Cl9 Rb0 3.533881 1_455
Cl9 Rb0 3.566055 1_545
Cl10 Cr1 2.379420 1_555
Cl10 Cr2 2.790244 1_455
Cl10 Rb1 3.326373 1_554
Cl10 Rb3 3.533881 1_545
Cl10 Rb3 3.566055 1_455
Cl11 Cr0 2.379420 1_665
Cl11 Cr2 2.790244 1_565
Cl11 Rb0 3.326373 1_555
Cl11 Rb2 3.533881 1_655
Cl11 Rb2 3.566055 1_565
