# generated using pymatgen
data_VSb(NF10)2
_symmetry_space_group_name_H-M   'P 1'
_cell_length_a   5.67003370
_cell_length_b   7.31680898
_cell_length_c   8.80077594
_cell_angle_alpha   90.39471299
_cell_angle_beta   109.72343470
_cell_angle_gamma   93.77254521
_symmetry_Int_Tables_number   1
_chemical_formula_structural   VSb(NF10)2
_chemical_formula_sum   'V1 Sb1 N2 F20'
_cell_volume   342.78427999
_cell_formula_units_Z   1
loop_
 _symmetry_equiv_pos_site_id
 _symmetry_equiv_pos_as_xyz
  1  'x, y, z'
loop_
 _atom_site_type_symbol
 _atom_site_label
 _atom_site_symmetry_multiplicity
 _atom_site_fract_x
 _atom_site_fract_y
 _atom_site_fract_z
 _atom_site_occupancy
  V  V0  1  0.98698892  0.74510614  0.28878277  1
  Sb  Sb0  1  0.01274836  0.25431015  0.70705131  1
  N  N0  1  0.29798161  0.25780497  0.21921000  1
  N  N1  1  0.70217622  0.74246729  0.78680492  1
  F  F0  1  0.06415282  0.24100987  0.21749571  1
  F  F1  1  0.93154805  0.75911035  0.77948682  1
  F  F2  1  0.35078029  0.10770222  0.15436387  1
  F  F3  1  0.65738776  0.89203832  0.85606214  1
  F  F4  1  0.93618355  0.21771121  0.90026719  1
  F  F5  1  0.06745422  0.77961201  0.10737292  1
  F  F6  1  0.09067335  0.29441032  0.51802549  1
  F  F7  1  0.90474989  0.70916439  0.46336142  1
  F  F8  1  0.78596289  0.05198153  0.60693974  1
  F  F9  1  0.19613668  0.93791705  0.38445835  1
  F  F10  1  0.27755037  0.09817399  0.78915424  1
  F  F11  1  0.73604404  0.89059682  0.20626470  1
  F  F12  1  0.22689227  0.46202890  0.81156162  1
  F  F13  1  0.78840631  0.54679202  0.18985931  1
  F  F14  1  0.74209275  0.40816637  0.63610027  1
  F  F15  1  0.24477377  0.60193280  0.36043794  1
  F  F16  1  0.68162271  0.59967173  0.87461624  1
  F  F17  1  0.32819711  0.40068199  0.13354505  1
  F  F18  1  0.53447836  0.71976747  0.63917431  1
  F  F19  1  0.45501672  0.28184310  0.36960467  1
loop_
_geom_bond_atom_site_label_1
_geom_bond_atom_site_label_2
_geom_bond_distance
_geom_bond_site_symmetry_2
F0 N0 1.318391 1_555
F1 N1 1.321439 1_555
F2 N0 1.330965 1_555
F3 N1 1.328734 1_555
F4 Sb0 1.908125 1_655
F5 V0 1.817390 1_455
F6 Sb0 1.880044 1_555
F7 V0 1.766408 1_555
F8 Sb0 1.894249 1_655
F9 V0 1.787472 1_455
F10 Sb0 1.893770 1_555
F11 V0 1.788208 1_555
F12 Sb0 1.901129 1_555
F13 V0 1.799219 1_555
F14 Sb0 1.898026 1_655
F15 V0 1.794424 1_455
F16 N1 1.326019 1_555
F17 N0 1.328565 1_555
F18 N1 1.327474 1_555
F19 N0 1.325277 1_555
