# generated using pymatgen
data_Zr10Sn5BiP
_symmetry_space_group_name_H-M   'P 1'
_cell_length_a   5.85719355
_cell_length_b   8.59593764
_cell_length_c   8.58613143
_cell_angle_alpha   120.03779607
_cell_angle_beta   89.97724242
_cell_angle_gamma   90.04546461
_symmetry_Int_Tables_number   1
_chemical_formula_structural   Zr10Sn5BiP
_chemical_formula_sum   'Zr10 Sn5 Bi1 P1'
_cell_volume   374.23579787
_cell_formula_units_Z   1
loop_
 _symmetry_equiv_pos_site_id
 _symmetry_equiv_pos_as_xyz
  1  'x, y, z'
loop_
 _atom_site_type_symbol
 _atom_site_label
 _atom_site_symmetry_multiplicity
 _atom_site_fract_x
 _atom_site_fract_y
 _atom_site_fract_z
 _atom_site_occupancy
  Zr  Zr0  1  0.49866476  0.33165158  0.66441660  1
  Zr  Zr1  1  0.49866476  0.66723497  0.33558340  1
  Zr  Zr2  1  0.00162163  0.66722611  0.33615118  1
  Zr  Zr3  1  0.00162163  0.33107593  0.66384882  1
  Zr  Zr4  1  0.75645491  0.24736568  0.00000000  1
  Zr  Zr5  1  0.75611668  0.75134605  0.74611794  1
  Zr  Zr6  1  0.75611668  0.00522711  0.25388206  1
  Zr  Zr7  1  0.24516902  0.74994739  1.00000000  1
  Zr  Zr8  1  0.24341219  0.25071287  0.25157433  1
  Zr  Zr9  1  0.24341219  0.99913853  0.74842567  1
  Sn  Sn0  1  0.75023431  0.39515747  0.39442526  1
  Sn  Sn1  1  0.75023431  0.00073221  0.60557474  1
  Sn  Sn2  1  0.24959886  0.39116787  1.00000000  1
  Sn  Sn3  1  0.24930207  0.60601658  0.60685239  1
  Sn  Sn4  1  0.24930207  0.99916419  0.39314761  1
  Bi  Bi0  1  0.75072671  0.60737582  0.00000000  1
  P  P0  1  0.49934323  0.99946363  1.00000000  1
loop_
_geom_bond_atom_site_label_1
_geom_bond_atom_site_label_2
_geom_bond_distance
_geom_bond_site_symmetry_2
Sn0 Zr6 2.939874 1_555
Sn0 Zr4 2.962592 1_555
Sn0 Zr2 3.008866 1_655
Sn0 Zr1 3.014173 1_555
Sn0 Zr3 3.017044 1_655
Sn0 Zr0 3.017627 1_555
Sn0 Zr5 3.039390 1_555
Sn0 Zr8 3.141419 1_655
Sn0 Zr8 3.214151 1_555
Sn1 Zr5 2.939867 1_545
Sn1 Zr4 2.962591 1_556
Sn1 Zr3 3.008873 1_655
Sn1 Zr0 3.014173 1_555
Sn1 Zr2 3.017049 1_645
Sn1 Zr1 3.017627 1_545
Sn1 Zr6 3.039386 1_555
Sn1 Zr9 3.141419 1_645
Sn1 Zr9 3.214151 1_545
Sn2 Zr9 2.955600 1_545
Sn2 Zr8 2.955600 1_556
Sn2 Zr1 3.035494 1_556
Sn2 Zr0 3.035494 1_555
Sn2 Zr2 3.035844 1_556
Sn2 Zr3 3.035847 1_555
Sn2 Zr7 3.084176 1_555
Sn2 Zr4 3.140923 1_456
Sn2 Zr4 3.216722 1_556
Sn3 Zr7 2.957181 1_555
Sn3 Zr9 2.964100 1_555
Sn3 Zr2 3.001979 1_555
Sn3 Zr1 3.009694 1_555
Sn3 Zr3 3.013551 1_555
Sn3 Zr0 3.018731 1_555
Sn3 Zr8 3.050755 1_555
Sn3 Zr5 3.137261 1_455
Sn3 Zr5 3.209974 1_555
Sn4 Zr7 2.957181 1_554
Sn4 Zr8 2.964100 1_565
Sn4 Zr3 3.001983 1_565
Sn4 Zr0 3.009694 1_565
Sn4 Zr2 3.013558 1_555
Sn4 Zr1 3.018731 1_555
Sn4 Zr9 3.050756 1_555
Sn4 Zr6 3.137260 1_465
Sn4 Zr6 3.209972 1_565
Bi0 Zr6 2.997498 1_565
Bi0 Zr5 2.997505 1_554
Bi0 Zr0 3.043063 1_554
Bi0 Zr1 3.043064 1_555
Bi0 Zr3 3.044696 1_654
Bi0 Zr2 3.044699 1_655
Bi0 Zr4 3.094833 1_555
Bi0 Zr7 3.143784 1_654
Bi0 Zr7 3.205636 1_554
P0 Zr4 2.608400 1_566
P0 Zr7 2.609900 1_555
P0 Zr8 2.628585 1_566
P0 Zr9 2.628585 1_555
P0 Zr5 2.628791 1_555
P0 Zr6 2.628795 1_566
