# generated using pymatgen
data_Sc4As6Ru2Rh5
_symmetry_space_group_name_H-M   'P 1'
_cell_length_a   7.03305118
_cell_length_b   7.03289579
_cell_length_c   7.03305083
_cell_angle_alpha   109.48512102
_cell_angle_beta   109.44511000
_cell_angle_gamma   109.48512653
_symmetry_Int_Tables_number   1
_chemical_formula_structural   Sc4As6Ru2Rh5
_chemical_formula_sum   'Sc4 As6 Ru2 Rh5'
_cell_volume   267.78773601
_cell_formula_units_Z   1
loop_
 _symmetry_equiv_pos_site_id
 _symmetry_equiv_pos_as_xyz
  1  'x, y, z'
loop_
 _atom_site_type_symbol
 _atom_site_label
 _atom_site_symmetry_multiplicity
 _atom_site_fract_x
 _atom_site_fract_y
 _atom_site_fract_z
 _atom_site_occupancy
  Sc  Sc0  1  0.00140649  0.00282421  0.50140303  1
  Sc  Sc1  1  0.49859697  0.99717579  0.99859351  1
  Sc  Sc2  1  0.00141412  0.50000000  0.99858588  1
  Sc  Sc3  1  0.49859200  0.50000000  0.50140800  1
  As  As0  1  0.68485096  0.68625845  0.99857829  1
  As  As1  1  0.31229358  0.31374980  0.99858304  1
  As  As2  1  0.00141696  0.68625020  0.68770642  1
  As  As3  1  0.00142171  0.31374155  0.31514904  1
  As  As4  1  0.68681462  0.99999739  0.68679922  1
  As  As5  1  0.31320078  0.00000261  0.31318538  1
  Ru  Ru0  1  0.99999592  1.00000000  0.00000408  1
  Ru  Ru1  1  0.25000401  0.50000000  0.74999599  1
  Rh  Rh0  1  0.74910924  0.24935915  0.49974636  1
  Rh  Rh1  1  0.50024282  0.24935635  0.74961444  1
  Rh  Rh2  1  0.50025364  0.75064085  0.25089076  1
  Rh  Rh3  1  0.75000062  0.50000000  0.24999938  1
  Rh  Rh4  1  0.25038556  0.75064365  0.49975718  1
loop_
_geom_bond_atom_site_label_1
_geom_bond_atom_site_label_2
_geom_bond_distance
_geom_bond_site_symmetry_2
As0 Ru1 2.522952 1_555
As0 Rh1 2.535487 1_555
As0 Rh2 2.535657 1_556
As0 Rh3 2.541426 1_556
As0 Ru0 2.547386 1_556
As0 Sc1 2.899687 1_555
As0 Sc3 2.899687 1_555
As0 Sc0 2.935671 1_666
As0 Sc2 2.935713 1_655
As1 Ru1 2.522893 1_555
As1 Rh2 2.535418 1_556
As1 Rh1 2.535713 1_555
As1 Rh3 2.541572 1_556
As1 Ru0 2.547419 1_446
As1 Sc2 2.899464 1_555
As1 Sc0 2.899691 1_555
As1 Sc3 2.935696 1_556
As1 Sc1 2.935992 1_545
As2 Ru1 2.522893 1_555
As2 Rh0 2.535418 1_455
As2 Rh4 2.535713 1_555
As2 Rh3 2.541572 1_455
As2 Ru0 2.547419 1_456
As2 Sc2 2.899464 1_555
As2 Sc1 2.899691 1_555
As2 Sc3 2.935696 1_455
As2 Sc0 2.935992 1_565
As3 Ru1 2.522952 1_555
As3 Rh4 2.535487 1_555
As3 Rh0 2.535657 1_455
As3 Rh3 2.541426 1_455
As3 Ru0 2.547386 1_445
As3 Sc0 2.899687 1_555
As3 Sc3 2.899688 1_555
As3 Sc1 2.935671 1_444
As3 Sc2 2.935713 1_554
As4 Rh2 2.529012 1_555
As4 Rh1 2.529179 1_565
As4 Rh0 2.531507 1_565
As4 Rh4 2.531579 1_555
As4 Ru0 2.544271 1_556
As4 Sc3 2.916222 1_555
As4 Sc2 2.916237 1_665
As4 Sc0 2.916273 1_665
As4 Sc1 2.916429 1_555
As5 Rh0 2.529012 1_555
As5 Rh4 2.529179 1_545
As5 Rh2 2.531507 1_545
As5 Rh1 2.531579 1_555
As5 Ru0 2.544271 1_445
As5 Sc3 2.916222 1_555
As5 Sc2 2.916237 1_544
As5 Sc1 2.916273 1_544
As5 Sc0 2.916429 1_555
Ru1 Sc0 2.854430 1_555
Ru1 Sc1 2.854430 1_555
Ru1 Sc3 2.854554 1_555
Ru1 Sc2 2.854576 1_555
Rh0 Sc0 2.864809 1_655
Rh0 Sc2 2.864822 1_655
Rh0 Ru1 2.876556 1_655
Rh0 Sc1 2.878056 1_544
Rh0 Sc3 2.878114 1_555
Rh1 Sc0 2.864805 1_555
Rh1 Sc3 2.864910 1_555
Rh1 Ru1 2.876513 1_555
Rh1 Sc1 2.878123 1_545
Rh1 Sc2 2.878162 1_655
Rh2 Sc1 2.864808 1_554
Rh2 Sc2 2.864822 1_554
Rh2 Ru1 2.876556 1_554
Rh2 Sc0 2.878056 1_665
Rh2 Sc3 2.878114 1_555
Rh3 Sc0 2.886860 1_665
Rh3 Sc1 2.886860 1_544
Rh3 Sc3 2.886944 1_555
Rh3 Sc2 2.887000 1_654
Rh4 Sc1 2.864805 1_555
Rh4 Sc3 2.864910 1_555
Rh4 Ru1 2.876513 1_555
Rh4 Sc0 2.878123 1_565
Rh4 Sc2 2.878162 1_554
