# generated using pymatgen
data_PSClF2
_symmetry_space_group_name_H-M   'P 1'
_cell_length_a   5.19984359
_cell_length_b   10.07569610
_cell_length_c   9.21529680
_cell_angle_alpha   84.95631484
_cell_angle_beta   90.00000000
_cell_angle_gamma   90.00000000
_symmetry_Int_Tables_number   1
_chemical_formula_structural   PSClF2
_chemical_formula_sum   'P4 S4 Cl4 F8'
_cell_volume   480.93877911
_cell_formula_units_Z   4
loop_
 _symmetry_equiv_pos_site_id
 _symmetry_equiv_pos_as_xyz
  1  'x, y, z'
loop_
 _atom_site_type_symbol
 _atom_site_label
 _atom_site_symmetry_multiplicity
 _atom_site_fract_x
 _atom_site_fract_y
 _atom_site_fract_z
 _atom_site_occupancy
  P  P0  1  0.96827149  0.39033299  0.29490795  1
  P  P1  1  0.46827149  0.10966701  0.70509205  1
  P  P2  1  0.03172851  0.60966701  0.70509205  1
  P  P3  1  0.53172851  0.89033299  0.29490795  1
  S  S0  1  0.82005696  0.29458569  0.15084370  1
  S  S1  1  0.32005696  0.20541431  0.84915630  1
  S  S2  1  0.17994304  0.70541431  0.84915630  1
  S  S3  1  0.67994304  0.79458569  0.15084370  1
  Cl  Cl0  1  0.21346123  0.53496538  0.23646221  1
  Cl  Cl1  1  0.71346123  0.96503462  0.76353779  1
  Cl  Cl2  1  0.78653877  0.46503462  0.76353779  1
  Cl  Cl3  1  0.28653877  0.03496538  0.23646221  1
  F  F0  1  0.77896433  0.46126190  0.39329627  1
  F  F1  1  0.27896433  0.03873810  0.60670373  1
  F  F2  1  0.22103567  0.53873810  0.60670373  1
  F  F3  1  0.72103567  0.96126190  0.39329627  1
  F  F4  1  0.12029121  0.30793232  0.41706595  1
  F  F5  1  0.62029121  0.19206768  0.58293405  1
  F  F6  1  0.87970879  0.69206768  0.58293405  1
  F  F7  1  0.37970879  0.80793232  0.41706595  1
loop_
_geom_bond_atom_site_label_1
_geom_bond_atom_site_label_2
_geom_bond_distance
_geom_bond_site_symmetry_2
P0 S0 1.874128 1_555
P1 S1 1.874128 1_555
P2 S2 1.874128 1_555
P3 S3 1.874128 1_555
Cl0 P0 1.975149 1_455
Cl1 P1 1.975149 1_565
Cl2 P2 1.975149 1_655
Cl3 P3 1.975149 1_545
F0 P0 1.554256 1_555
F1 P1 1.554256 1_555
F2 P2 1.554256 1_555
F3 P3 1.554256 1_555
F4 P0 1.554695 1_455
F5 P1 1.554695 1_555
F6 P2 1.554695 1_655
F7 P3 1.554695 1_555
