# generated using pymatgen
data_Ca3YSb6Rh7
_symmetry_space_group_name_H-M   'P 1'
_cell_length_a   7.57152710
_cell_length_b   7.60726653
_cell_length_c   7.57152706
_cell_angle_alpha   109.56686288
_cell_angle_beta   109.37540400
_cell_angle_gamma   109.56686606
_symmetry_Int_Tables_number   1
_chemical_formula_structural   Ca3YSb6Rh7
_chemical_formula_sum   'Ca3 Y1 Sb6 Rh7'
_cell_volume   335.32021001
_cell_formula_units_Z   1
loop_
 _symmetry_equiv_pos_site_id
 _symmetry_equiv_pos_as_xyz
  1  'x, y, z'
loop_
 _atom_site_type_symbol
 _atom_site_label
 _atom_site_symmetry_multiplicity
 _atom_site_fract_x
 _atom_site_fract_y
 _atom_site_fract_z
 _atom_site_occupancy
  Ca  Ca0  1  0.50000000  0.00000000  0.00000000  1
  Ca  Ca1  1  0.00000000  0.00000000  0.50000000  1
  Ca  Ca2  1  0.50000000  0.50000000  0.50000000  1
  Y  Y0  1  0.00000000  0.50000000  0.00000000  1
  Sb  Sb0  1  0.32152243  0.00335435  0.32152243  1
  Sb  Sb1  1  0.00000000  0.68183192  0.67847757  1
  Sb  Sb2  1  0.67847757  0.68183192  0.00000000  1
  Sb  Sb3  1  0.67847757  0.99664565  0.67847757  1
  Sb  Sb4  1  1.00000000  0.31816808  0.32152243  1
  Sb  Sb5  1  0.32152243  0.31816808  1.00000000  1
  Rh  Rh0  1  0.24691058  0.50000000  0.75308942  1
  Rh  Rh1  1  0.50618085  0.25308942  0.75308942  1
  Rh  Rh2  1  0.75308942  0.25308942  0.50618085  1
  Rh  Rh3  1  0.49381915  0.74691058  0.24691058  1
  Rh  Rh4  1  0.00000000  0.00000000  0.00000000  1
  Rh  Rh5  1  0.24691058  0.74691058  0.49381915  1
  Rh  Rh6  1  0.75308942  0.50000000  0.24691058  1
loop_
_geom_bond_atom_site_label_1
_geom_bond_atom_site_label_2
_geom_bond_distance
_geom_bond_site_symmetry_2
Ca0 Rh1 3.100425 1_554
Ca0 Rh3 3.100425 1_545
Ca0 Rh6 3.100425 1_555
Ca0 Rh0 3.100425 1_544
Ca0 Rh2 3.127423 1_555
Ca0 Rh5 3.127423 1_544
Ca0 Sb5 3.142490 1_554
Ca0 Sb2 3.142490 1_545
Ca0 Sb0 3.149198 1_555
Ca0 Sb3 3.149198 1_544
Ca0 Sb4 3.149198 1_555
Ca0 Sb1 3.149198 1_544
Ca1 Rh2 3.100425 1_455
Ca1 Rh5 3.100425 1_545
Ca1 Rh0 3.100425 1_555
Ca1 Rh6 3.100425 1_445
Ca1 Rh1 3.127423 1_555
Ca1 Rh3 3.127423 1_445
Ca1 Sb4 3.142490 1_455
Ca1 Sb1 3.142490 1_545
Ca1 Sb0 3.149198 1_555
Ca1 Sb3 3.149198 1_445
Ca1 Sb5 3.149198 1_555
Ca1 Sb2 3.149198 1_445
Ca2 Rh3 3.100425 1_555
Ca2 Rh1 3.100425 1_555
Ca2 Rh2 3.100425 1_555
Ca2 Rh5 3.100425 1_555
Ca2 Rh0 3.127410 1_555
Ca2 Rh6 3.127410 1_555
Ca2 Sb0 3.142490 1_555
Ca2 Sb3 3.142490 1_555
Ca2 Sb1 3.149198 1_655
Ca2 Sb4 3.149198 1_455
Ca2 Sb2 3.149198 1_556
Ca2 Sb5 3.149198 1_554
Sb0 Y0 3.177305 1_545
Sb1 Y0 3.177305 1_556
Sb2 Y0 3.177305 1_655
Sb3 Y0 3.177305 1_666
Sb4 Y0 3.177305 1_655
Sb5 Y0 3.177305 1_556
Rh0 Sb2 2.696820 1_556
Rh0 Sb4 2.696820 1_455
Rh0 Sb5 2.698568 1_555
Rh0 Sb1 2.698568 1_555
Rh0 Y0 3.051058 1_556
Rh1 Sb0 2.696818 1_555
Rh1 Sb5 2.696832 1_555
Rh1 Sb3 2.698556 1_545
Rh1 Sb2 2.698571 1_556
Rh1 Y0 3.051046 1_656
Rh2 Sb0 2.696818 1_555
Rh2 Sb4 2.696832 1_555
Rh2 Sb3 2.698556 1_545
Rh2 Sb1 2.698571 1_655
Rh2 Y0 3.051046 1_656
Rh3 Sb3 2.696818 1_555
Rh3 Sb2 2.696832 1_555
Rh3 Sb0 2.698556 1_565
Rh3 Sb5 2.698571 1_554
Rh3 Y0 3.051046 1_555
Rh4 Sb0 2.799637 1_555
Rh4 Sb3 2.799637 1_444
Rh4 Sb5 2.799637 1_554
Rh4 Sb2 2.799637 1_445
Rh4 Sb4 2.799637 1_455
Rh4 Sb1 2.799637 1_544
Rh5 Sb3 2.696818 1_555
Rh5 Sb1 2.696832 1_555
Rh5 Sb0 2.698556 1_565
Rh5 Sb4 2.698571 1_455
Rh5 Y0 3.051046 1_555
Rh6 Sb5 2.696820 1_554
Rh6 Sb1 2.696820 1_655
Rh6 Sb2 2.698568 1_555
Rh6 Sb4 2.698568 1_555
Rh6 Y0 3.051058 1_655
