# generated using pymatgen
data_NaY2(B3Rh4)2
_symmetry_space_group_name_H-M   'P 1'
_cell_length_a   9.79615344
_cell_length_b   8.95682259
_cell_length_c   5.54143529
_cell_angle_alpha   81.32785474
_cell_angle_beta   64.67114729
_cell_angle_gamma   34.00100858
_symmetry_Int_Tables_number   1
_chemical_formula_structural   NaY2(B3Rh4)2
_chemical_formula_sum   'Na1 Y2 B6 Rh8'
_cell_volume   224.87738057
_cell_formula_units_Z   1
loop_
 _symmetry_equiv_pos_site_id
 _symmetry_equiv_pos_as_xyz
  1  'x, y, z'
loop_
 _atom_site_type_symbol
 _atom_site_label
 _atom_site_symmetry_multiplicity
 _atom_site_fract_x
 _atom_site_fract_y
 _atom_site_fract_z
 _atom_site_occupancy
  Na  Na0  1  0.68680933  0.68680933  0.31319067  1
  Y  Y0  1  0.31663961  0.31663961  0.68336039  1
  Y  Y1  1  0.50847900  0.50847900  0.49152100  1
  B  B0  1  0.66899457  0.98297393  0.01702607  1
  B  B1  1  0.98297393  0.66899457  0.33100543  1
  B  B2  1  0.32921329  0.01275857  0.98724143  1
  B  B3  1  0.01275857  0.32921329  0.67078671  1
  B  B4  1  0.16657027  0.83196860  0.16803140  1
  B  B5  1  0.83196860  0.16657027  0.83342973  1
  Rh  Rh0  1  0.58519239  0.58519239  0.91480761  1
  Rh  Rh1  1  0.91308872  0.91308872  0.08691128  1
  Rh  Rh2  1  0.41440889  0.41440889  0.08559111  1
  Rh  Rh3  1  0.08519239  0.08519239  0.41480761  1
  Rh  Rh4  1  0.91440889  0.91440889  0.58559111  1
  Rh  Rh5  1  0.24841913  0.24841913  0.25158087  1
  Rh  Rh6  1  0.08646130  0.08646130  0.91353870  1
  Rh  Rh7  1  0.74841913  0.74841913  0.75158087  1
loop_
_geom_bond_atom_site_label_1
_geom_bond_atom_site_label_2
_geom_bond_distance
_geom_bond_site_symmetry_2
Na0 Rh7 2.963327 1_555
Na0 Rh7 2.963327 1_554
Na0 Rh5 2.963327 1_655
Na0 Rh5 2.963327 1_565
Na0 Y1 3.041897 1_555
Na0 Rh6 3.227027 1_654
Na0 Rh6 3.227027 1_565
Na0 Rh0 3.268236 1_554
Na0 Rh0 3.268236 1_555
Na0 Rh3 3.268236 1_565
Na0 Rh3 3.268236 1_655
Y0 Y1 3.272330 1_555
B0 Rh7 2.103594 1_554
B0 Rh5 2.103594 1_565
B0 Rh1 2.120628 1_555
B0 Rh4 2.224768 1_554
B0 Rh2 2.224768 1_565
B0 Na0 2.815196 1_555
B0 Y0 3.130280 1_565
B0 Y0 3.130280 1_654
B1 Rh7 2.103594 1_555
B1 Rh5 2.103594 1_655
B1 Rh1 2.120628 1_555
B1 Rh4 2.224768 1_555
B1 Rh2 2.224768 1_655
B1 Na0 2.815196 1_555
B1 Y0 3.130280 1_654
B1 Y0 3.130280 1_565
B2 Rh5 2.097120 1_556
B2 Rh7 2.097121 1_545
B2 Rh6 2.098683 1_555
B2 Rh3 2.189743 1_556
B2 Rh0 2.189743 1_545
B2 Y0 2.915218 1_555
B2 Na0 3.143618 1_545
B2 Na0 3.143619 1_456
B3 Rh5 2.097120 1_555
B3 Rh7 2.097121 1_455
B3 Rh6 2.098683 1_555
B3 Rh3 2.189742 1_555
B3 Rh0 2.189743 1_455
B3 Y0 2.915218 1_555
B3 Na0 3.143618 1_456
B3 Na0 3.143619 1_545
B4 Rh4 2.145131 1_455
B4 Rh2 2.145131 1_555
B4 Rh3 2.157401 1_565
B4 Rh0 2.157401 1_554
B4 Rh1 2.181997 1_455
B4 Rh6 2.193654 1_564
B4 Y1 3.179394 1_554
B4 Y1 3.179394 1_465
B4 Y1 3.210467 1_555
B5 Rh4 2.145131 1_545
B5 Rh2 2.145131 1_556
B5 Rh3 2.157401 1_655
B5 Rh0 2.157401 1_555
B5 Rh1 2.181997 1_546
B5 Rh6 2.193654 1_655
B5 Y1 3.179394 1_556
B5 Y1 3.179394 1_645
B5 Y1 3.210467 1_555
Rh0 Y1 3.064177 1_555
Rh0 Y1 3.064177 1_556
Rh1 Y1 3.182977 1_565
Rh1 Y1 3.182977 1_654
Rh1 Y0 3.192248 1_654
Rh1 Y0 3.192248 1_565
Rh2 Y1 3.201822 1_555
Rh2 Y1 3.201822 1_554
Rh2 Y0 3.233906 1_554
Rh2 Y0 3.233906 1_555
Rh3 Y1 3.064177 1_455
Rh3 Y1 3.064177 1_545
Rh4 Y1 3.201823 1_655
Rh4 Y1 3.201823 1_565
Rh4 Y0 3.233906 1_565
Rh4 Y0 3.233906 1_655
Rh5 Y0 3.005167 1_555
Rh5 Y0 3.005167 1_554
Rh6 Y1 3.041907 1_545
Rh6 Y1 3.041907 1_456
Rh7 Y0 3.005168 1_655
Rh7 Y0 3.005168 1_565
