# generated using pymatgen
data_Cs12Nb3SbS16
_symmetry_space_group_name_H-M   'P 1'
_cell_length_a   10.04371721
_cell_length_b   11.67203350
_cell_length_c   10.10834092
_cell_angle_alpha   90.00000000
_cell_angle_beta   89.93600049
_cell_angle_gamma   90.00000000
_symmetry_Int_Tables_number   1
_chemical_formula_structural   Cs12Nb3SbS16
_chemical_formula_sum   'Cs12 Nb3 Sb1 S16'
_cell_volume   1185.00616842
_cell_formula_units_Z   1
loop_
 _symmetry_equiv_pos_site_id
 _symmetry_equiv_pos_as_xyz
  1  'x, y, z'
loop_
 _atom_site_type_symbol
 _atom_site_label
 _atom_site_symmetry_multiplicity
 _atom_site_fract_x
 _atom_site_fract_y
 _atom_site_fract_z
 _atom_site_occupancy
  Cs  Cs0  1  0.14712242  0.75000000  0.08112409  1
  Cs  Cs1  1  0.54829585  0.04198224  0.21030978  1
  Cs  Cs2  1  0.54829585  0.45801776  0.21030978  1
  Cs  Cs3  1  0.04927857  0.04010036  0.29210461  1
  Cs  Cs4  1  0.04927857  0.45989964  0.29210461  1
  Cs  Cs5  1  0.64759950  0.75000000  0.41807684  1
  Cs  Cs6  1  0.35302050  0.25000000  0.58293310  1
  Cs  Cs7  1  0.95266552  0.54043114  0.70775395  1
  Cs  Cs8  1  0.95266552  0.95956886  0.70775395  1
  Cs  Cs9  1  0.45118607  0.54075607  0.79252946  1
  Cs  Cs10  1  0.45118607  0.95924393  0.79252946  1
  Cs  Cs11  1  0.85012120  0.25000000  0.91490954  1
  Nb  Nb0  1  0.27649073  0.25000000  0.01653912  1
  Nb  Nb1  1  0.77898252  0.25000000  0.48359538  1
  Nb  Nb2  1  0.22244771  0.75000000  0.51563807  1
  Sb  Sb0  1  0.72236991  0.75000000  0.98381922  1
  S  S0  1  0.83522813  0.58335325  0.04664441  1
  S  S1  1  0.83522813  0.91664675  0.04664441  1
  S  S2  1  0.50802061  0.75000000  0.07778097  1
  S  S3  1  0.29385674  0.25000000  0.24239318  1
  S  S4  1  0.79636932  0.25000000  0.25766443  1
  S  S5  1  0.01244350  0.75000000  0.42626813  1
  S  S6  1  0.33289735  0.58761945  0.45246773  1
  S  S7  1  0.33289735  0.91238055  0.45246773  1
  S  S8  1  0.66843733  0.08790582  0.54767650  1
  S  S9  1  0.66843733  0.41209418  0.54767650  1
  S  S10  1  0.98931907  0.25000000  0.57253505  1
  S  S11  1  0.20504722  0.75000000  0.74141402  1
  S  S12  1  0.70238790  0.75000000  0.75263488  1
  S  S13  1  0.48676540  0.25000000  0.92705775  1
  S  S14  1  0.16582655  0.08775729  0.95332317  1
  S  S15  1  0.16582655  0.41224271  0.95332317  1
loop_
_geom_bond_atom_site_label_1
_geom_bond_atom_site_label_2
_geom_bond_distance
_geom_bond_site_symmetry_2
Cs0 S11 3.482199 1_554
Cs0 S2 3.624879 1_555
Cs0 S1 3.704106 1_455
Cs0 S0 3.704106 1_455
Cs0 S5 3.740475 1_555
Cs1 S4 3.512108 1_555
Cs1 S3 3.539649 1_555
Cs1 S7 3.598414 1_545
Cs1 S1 3.629274 1_545
Cs1 S8 3.658161 1_555
Cs1 S2 3.684310 1_545
Cs1 S13 3.805124 1_554
Cs2 S4 3.512108 1_555
Cs2 S3 3.539649 1_555
Cs2 S6 3.598414 1_555
Cs2 S0 3.629274 1_555
Cs2 S9 3.658161 1_555
Cs2 S2 3.684310 1_555
Cs2 S13 3.805124 1_554
Cs3 S3 3.505181 1_555
Cs3 S4 3.546521 1_455
Cs3 S1 3.586991 1_445
Cs3 S7 3.602049 1_545
Cs3 S14 3.660332 1_554
Cs3 S5 3.666109 1_545
Cs3 S10 3.794283 1_455
Cs4 S3 3.505181 1_555
Cs4 S4 3.546521 1_455
Cs4 S0 3.586991 1_455
Cs4 S6 3.602049 1_555
Cs4 S15 3.660332 1_554
Cs4 S5 3.666109 1_555
Cs4 S10 3.794283 1_455
Cs5 S12 3.426911 1_555
Cs5 S5 3.665418 1_655
Cs5 S7 3.701503 1_555
Cs5 S6 3.701503 1_555
Cs5 S2 3.715976 1_555
Cs6 S3 3.493860 1_555
Cs6 S10 3.654543 1_455
Cs6 S9 3.706749 1_555
Cs6 S8 3.706749 1_555
Cs6 S13 3.730288 1_555
Cs7 S12 3.536301 1_555
Cs7 S11 3.539285 1_655
Cs7 S15 3.604986 1_655
Cs7 S9 3.608579 1_555
Cs7 S0 3.656238 1_556
Cs7 S10 3.673448 1_555
Cs7 S5 3.799484 1_655
Cs8 S12 3.536301 1_555
Cs8 S11 3.539285 1_655
Cs8 S14 3.604986 1_665
Cs8 S8 3.608579 1_565
Cs8 S1 3.656238 1_556
Cs8 S10 3.673448 1_565
Cs8 S5 3.799484 1_655
Cs9 S11 3.513714 1_555
Cs9 S12 3.534221 1_555
Cs9 S15 3.618809 1_555
Cs9 S9 3.623569 1_555
Cs9 S13 3.673594 1_555
Cs9 S6 3.679122 1_555
Cs9 S2 3.822103 1_556
Cs10 S11 3.513714 1_555
Cs10 S12 3.534221 1_555
Cs10 S14 3.618809 1_565
Cs10 S8 3.623569 1_565
Cs10 S13 3.673594 1_565
Cs10 S7 3.679122 1_555
Cs10 S2 3.822103 1_556
Cs11 S4 3.505896 1_556
Cs11 S13 3.651371 1_555
Cs11 S14 3.714022 1_655
Cs11 S15 3.714022 1_655
Cs11 S10 3.731109 1_555
Cs11 S0 4.115134 1_556
Cs11 S1 4.115134 1_546
Nb0 S14 2.287228 1_554
Nb0 S15 2.287228 1_554
Nb0 S3 2.289857 1_555
Nb0 S13 2.296553 1_554
Nb1 S9 2.286975 1_555
Nb1 S8 2.286975 1_555
Nb1 S4 2.290259 1_555
Nb1 S10 2.296827 1_555
Nb2 S7 2.286693 1_555
Nb2 S6 2.286693 1_555
Nb2 S11 2.288707 1_555
Nb2 S5 2.295469 1_555
S0 Sb0 2.339488 1_554
S1 Sb0 2.339488 1_554
S2 Sb0 2.352099 1_554
S12 Sb0 2.345715 1_555
