# generated using pymatgen
data_KHgPS4
_symmetry_space_group_name_H-M   'P 1'
_cell_length_a   12.10001778
_cell_length_b   6.37300335
_cell_length_c   11.94739485
_cell_angle_alpha   55.76541632
_cell_angle_beta   90.00000000
_cell_angle_gamma   90.00000000
_symmetry_Int_Tables_number   1
_chemical_formula_structural   KHgPS4
_chemical_formula_sum   'K4 Hg4 P4 S16'
_cell_volume   761.68065858
_cell_formula_units_Z   4
loop_
 _symmetry_equiv_pos_site_id
 _symmetry_equiv_pos_as_xyz
  1  'x, y, z'
loop_
 _atom_site_type_symbol
 _atom_site_label
 _atom_site_symmetry_multiplicity
 _atom_site_fract_x
 _atom_site_fract_y
 _atom_site_fract_z
 _atom_site_occupancy
  K  K0  1  0.37272003  0.42364535  0.78711804  1
  K  K1  1  0.87272003  0.57635465  0.71288196  1
  K  K2  1  0.62727997  0.57635465  0.21288196  1
  K  K3  1  0.12727997  0.42364535  0.28711804  1
  Hg  Hg0  1  0.10945258  0.88705196  0.88164540  1
  Hg  Hg1  1  0.60945258  0.11294804  0.61835460  1
  Hg  Hg2  1  0.89054742  0.11294804  0.11835460  1
  Hg  Hg3  1  0.39054742  0.88705196  0.38164540  1
  P  P0  1  0.31264544  0.17003475  0.55955138  1
  P  P1  1  0.81264544  0.82996525  0.94044862  1
  P  P2  1  0.68735456  0.82996525  0.44044862  1
  P  P3  1  0.18735456  0.17003475  0.05955138  1
  S  S0  1  0.42135415  0.99185825  0.72134197  1
  S  S1  1  0.92135415  0.00814175  0.77865803  1
  S  S2  1  0.57864585  0.00814175  0.27865803  1
  S  S3  1  0.07864585  0.99185825  0.22134197  1
  S  S4  1  0.11755956  0.45952712  0.88533559  1
  S  S5  1  0.61755956  0.54047288  0.61466441  1
  S  S6  1  0.88244044  0.54047288  0.11466441  1
  S  S7  1  0.38244044  0.45952712  0.38533559  1
  S  S8  1  0.18014720  0.28236824  0.61302528  1
  S  S9  1  0.68014720  0.71763176  0.88697472  1
  S  S10  1  0.81985280  0.71763176  0.38697472  1
  S  S11  1  0.31985280  0.28236824  0.11302528  1
  S  S12  1  0.25308159  0.90238068  0.52612707  1
  S  S13  1  0.75308159  0.09761932  0.97387293  1
  S  S14  1  0.74691841  0.09761932  0.47387293  1
  S  S15  1  0.24691841  0.90238068  0.02612707  1
loop_
_geom_bond_atom_site_label_1
_geom_bond_atom_site_label_2
_geom_bond_distance
_geom_bond_site_symmetry_2
K0 S12 3.228443 1_555
K0 S15 3.291432 1_546
K0 S0 3.297754 1_555
K0 S0 3.311997 1_545
K0 S4 3.356115 1_555
K0 S5 3.442414 1_555
K0 S11 3.526545 1_556
K0 S8 3.559985 1_555
K1 S13 3.228443 1_555
K1 S14 3.291432 1_565
K1 S1 3.297754 1_555
K1 S1 3.311997 1_565
K1 S5 3.356115 1_555
K1 S4 3.442414 1_655
K1 S10 3.526545 1_555
K1 S9 3.559985 1_555
K2 S14 3.228443 1_555
K2 S13 3.291432 1_564
K2 S2 3.297754 1_555
K2 S2 3.311997 1_565
K2 S6 3.356115 1_555
K2 S7 3.442414 1_555
K2 S9 3.526545 1_554
K2 S10 3.559985 1_555
K3 S15 3.228443 1_555
K3 S12 3.291432 1_545
K3 S3 3.297754 1_555
K3 S3 3.311997 1_545
K3 S7 3.356115 1_555
K3 S6 3.442414 1_455
K3 S8 3.526545 1_555
K3 S11 3.559985 1_555
Hg0 S15 2.438375 1_556
Hg0 S1 2.494246 1_465
Hg0 S4 2.701841 1_555
Hg0 S8 2.877697 1_565
Hg1 S14 2.438375 1_555
Hg1 S0 2.494246 1_545
Hg1 S5 2.701841 1_555
Hg1 S9 2.877697 1_545
Hg2 S13 2.438375 1_554
Hg2 S3 2.494246 1_645
Hg2 S6 2.701841 1_555
Hg2 S10 2.877697 1_545
Hg3 S12 2.438375 1_555
Hg3 S2 2.494246 1_565
Hg3 S7 2.701841 1_555
Hg3 S11 2.877697 1_565
P0 S8 2.001410 1_555
P0 S7 2.031894 1_555
P0 S0 2.070352 1_545
P0 S12 2.086852 1_545
P1 S9 2.001410 1_555
P1 S6 2.031894 1_556
P1 S1 2.070352 1_565
P1 S13 2.086852 1_565
P2 S10 2.001410 1_555
P2 S5 2.031894 1_555
P2 S2 2.070352 1_565
P2 S14 2.086852 1_565
P3 S11 2.001410 1_555
P3 S4 2.031894 1_554
P3 S3 2.070352 1_545
P3 S15 2.086852 1_545
