# generated using pymatgen
data_CsTaMoO6
_symmetry_space_group_name_H-M   'P 1'
_cell_length_a   7.34541548
_cell_length_b   7.34541619
_cell_length_c   7.34541628
_cell_angle_alpha   120.36362691
_cell_angle_beta   119.69339183
_cell_angle_gamma   89.95161374
_symmetry_Int_Tables_number   1
_chemical_formula_structural   CsTaMoO6
_chemical_formula_sum   'Cs2 Ta2 Mo2 O12'
_cell_volume   280.10974821
_cell_formula_units_Z   2
loop_
 _symmetry_equiv_pos_site_id
 _symmetry_equiv_pos_as_xyz
  1  'x, y, z'
loop_
 _atom_site_type_symbol
 _atom_site_label
 _atom_site_symmetry_multiplicity
 _atom_site_fract_x
 _atom_site_fract_y
 _atom_site_fract_z
 _atom_site_occupancy
  Cs  Cs0  1  0.62343227  0.87343227  0.75000000  1
  Cs  Cs1  1  0.37656773  0.12656773  0.25000000  1
  Ta  Ta0  1  0.50000000  0.50000000  0.00000000  1
  Ta  Ta1  1  0.00000000  0.50000000  0.50000000  1
  Mo  Mo0  1  0.00000000  0.50000000  0.00000000  1
  Mo  Mo1  1  0.00000000  0.00000000  0.50000000  1
  O  O0  1  0.05653717  0.80653717  0.25000000  1
  O  O1  1  0.68577744  0.43577744  0.25000000  1
  O  O2  1  0.05850185  0.81706649  0.62027119  1
  O  O3  1  0.69679430  0.43822967  0.87972881  1
  O  O4  1  0.69679430  0.81706649  0.25856363  1
  O  O5  1  0.05850185  0.43822967  0.24143637  1
  O  O6  1  0.94346283  0.19346283  0.75000000  1
  O  O7  1  0.31422256  0.56422256  0.75000000  1
  O  O8  1  0.94149815  0.18293351  0.37972881  1
  O  O9  1  0.30320570  0.56177033  0.12027119  1
  O  O10  1  0.30320570  0.18293351  0.74143637  1
  O  O11  1  0.94149815  0.56177033  0.75856363  1
loop_
_geom_bond_atom_site_label_1
_geom_bond_atom_site_label_2
_geom_bond_distance
_geom_bond_site_symmetry_2
Cs0 O7 3.213422 1_555
Cs0 O11 3.270193 1_555
Cs0 O10 3.270193 1_565
Cs0 O9 3.270198 1_555
Cs0 O8 3.270198 1_566
Cs0 O6 3.325877 1_565
Cs1 O1 3.213422 1_555
Cs1 O5 3.270193 1_555
Cs1 O4 3.270193 1_545
Cs1 O3 3.270198 1_555
Cs1 O2 3.270198 1_544
Cs1 O0 3.325877 1_545
Mo0 O9 1.895729 1_555
Mo0 O3 1.895729 1_454
Mo0 O5 1.895734 1_555
Mo0 O11 1.895734 1_454
Mo0 O0 1.918441 1_555
Mo0 O6 1.918441 1_454
Mo1 O8 1.895722 1_455
Mo1 O2 1.895722 1_545
Mo1 O10 1.895727 1_555
Mo1 O4 1.895727 1_445
Mo1 O6 1.918441 1_455
Mo1 O0 1.918441 1_545
O1 Ta1 1.961875 1_655
O1 Ta0 1.961876 1_555
O2 Ta1 1.983629 1_555
O3 Ta0 1.983622 1_556
O4 Ta0 1.983627 1_555
O5 Ta1 1.983620 1_555
O7 Ta1 1.961875 1_555
O7 Ta0 1.961876 1_556
O8 Ta1 1.983629 1_655
O9 Ta0 1.983622 1_555
O10 Ta0 1.983627 1_556
O11 Ta1 1.983620 1_655
