# generated using pymatgen
data_BaGaPRh2
_symmetry_space_group_name_H-M   'P 1'
_cell_length_a   6.87028213
_cell_length_b   6.87028215
_cell_length_c   6.87028140
_cell_angle_alpha   145.31656371
_cell_angle_beta   145.31656167
_cell_angle_gamma   49.86302690
_symmetry_Int_Tables_number   1
_chemical_formula_structural   BaGaPRh2
_chemical_formula_sum   'Ba1 Ga1 P1 Rh2'
_cell_volume   104.50511584
_cell_formula_units_Z   1
loop_
 _symmetry_equiv_pos_site_id
 _symmetry_equiv_pos_as_xyz
  1  'x, y, z'
loop_
 _atom_site_type_symbol
 _atom_site_label
 _atom_site_symmetry_multiplicity
 _atom_site_fract_x
 _atom_site_fract_y
 _atom_site_fract_z
 _atom_site_occupancy
  Ba  Ba0  1  0.99047624  0.99047624  1.00000000  1
  Ga  Ga0  1  0.64813115  0.64813115  1.00000000  1
  P  P0  1  0.34364636  0.34364636  0.00000000  1
  Rh  Rh0  1  0.75887362  0.25887362  0.50000000  1
  Rh  Rh1  1  0.25887362  0.75887362  0.50000000  1
loop_
_geom_bond_atom_site_label_1
_geom_bond_atom_site_label_2
_geom_bond_distance
_geom_bond_site_symmetry_2
Ba0 P0 3.425537 1_667
Ba0 P0 3.425537 1_555
Ba0 P0 3.425537 1_566
Ba0 P0 3.425537 1_656
Ba0 Ga0 3.499432 1_554
Ba0 Ga0 3.499433 1_666
Ba0 Ga0 3.499433 1_655
Ba0 Ga0 3.499433 1_565
Ba0 Rh0 3.538558 1_566
Ba0 Rh1 3.538559 1_656
Ba0 Rh0 3.538559 1_555
Ba0 Rh1 3.538559 1_555
Ga0 Rh0 2.469334 1_555
Ga0 Rh1 2.469334 1_555
Ga0 Rh0 2.469334 1_566
Ga0 Rh1 2.469334 1_656
P0 Rh1 2.304194 1_555
P0 Rh0 2.304194 1_555
P0 Rh1 2.304194 1_544
P0 Rh0 2.304194 1_454
