# generated using pymatgen
data_Mg5(Si8Pt5)2
_symmetry_space_group_name_H-M   'P 1'
_cell_length_a   8.91240611
_cell_length_b   8.91240620
_cell_length_c   8.91240614
_cell_angle_alpha   59.99961288
_cell_angle_beta   59.99961506
_cell_angle_gamma   59.99961401
_symmetry_Int_Tables_number   1
_chemical_formula_structural   Mg5(Si8Pt5)2
_chemical_formula_sum   'Mg5 Si16 Pt10'
_cell_volume   500.57148922
_cell_formula_units_Z   1
loop_
 _symmetry_equiv_pos_site_id
 _symmetry_equiv_pos_as_xyz
  1  'x, y, z'
loop_
 _atom_site_type_symbol
 _atom_site_label
 _atom_site_symmetry_multiplicity
 _atom_site_fract_x
 _atom_site_fract_y
 _atom_site_fract_z
 _atom_site_occupancy
  Mg  Mg0  1  0.34423449  0.34423460  0.34423455  1
  Mg  Mg1  1  0.96725406  0.34426096  0.34426109  1
  Mg  Mg2  1  0.34426098  0.96725403  0.34426109  1
  Mg  Mg3  1  0.34426094  0.34426109  0.96725405  1
  Mg  Mg4  1  -0.00000297  -0.00000316  -0.00000298  1
  Si  Si0  1  0.67727729  0.95574739  0.95574737  1
  Si  Si1  1  0.57215201  0.57215202  0.28354174  1
  Si  Si2  1  0.57215201  0.28354173  0.57215204  1
  Si  Si3  1  0.28354174  0.57215204  0.57215200  1
  Si  Si4  1  0.57215223  0.57215223  0.57215222  1
  Si  Si5  1  0.41122670  0.95574730  0.95574727  1
  Si  Si6  1  0.41122674  0.95574729  0.67727916  1
  Si  Si7  1  0.41122674  0.67727916  0.95574727  1
  Si  Si8  1  0.95574730  0.95574731  0.41122667  1
  Si  Si9  1  0.95574732  0.41122666  0.95574728  1
  Si  Si10  1  0.95574739  0.95574739  0.67727729  1
  Si  Si11  1  0.67727916  0.95574725  0.41122677  1
  Si  Si12  1  0.95574738  0.67727730  0.95574736  1
  Si  Si13  1  0.95574728  0.41122676  0.67727915  1
  Si  Si14  1  0.67727916  0.41122674  0.95574728  1
  Si  Si15  1  0.95574727  0.67727915  0.41122675  1
  Pt  Pt0  1  0.12662276  0.12662275  0.12662268  1
  Pt  Pt1  1  0.73201279  0.73201274  0.26798612  1
  Pt  Pt2  1  0.26798509  0.26798512  0.73201383  1
  Pt  Pt3  1  0.73201278  0.26798613  0.73201275  1
  Pt  Pt4  1  0.26798617  0.73201280  0.73201272  1
  Pt  Pt5  1  0.73201395  0.26798507  0.26798516  1
  Pt  Pt6  1  0.26798503  0.73201393  0.26798509  1
  Pt  Pt7  1  0.12662144  0.12662149  0.62013530  1
  Pt  Pt8  1  0.12662145  0.62013528  0.12662144  1
  Pt  Pt9  1  0.62013529  0.12662148  0.12662149  1
loop_
_geom_bond_atom_site_label_1
_geom_bond_atom_site_label_2
_geom_bond_distance
_geom_bond_site_symmetry_2
Mg0 Pt8 2.791554 1_555
Mg0 Pt7 2.791554 1_555
Mg0 Pt9 2.791555 1_555
Mg0 Pt2 2.938097 1_555
Mg0 Pt6 2.938097 1_555
Mg0 Pt5 2.938098 1_555
Mg1 Pt7 2.791597 1_655
Mg1 Pt8 2.791598 1_655
Mg1 Pt0 2.791845 1_655
Mg1 Pt3 2.937832 1_555
Mg1 Pt1 2.937833 1_555
Mg1 Pt5 2.938105 1_555
Mg2 Pt7 2.791597 1_565
Mg2 Pt9 2.791598 1_565
Mg2 Pt0 2.791845 1_565
Mg2 Pt4 2.937832 1_555
Mg2 Pt1 2.937833 1_555
Mg2 Pt6 2.938106 1_555
Mg3 Pt8 2.791597 1_556
Mg3 Pt9 2.791598 1_556
Mg3 Pt0 2.791845 1_556
Mg3 Pt4 2.937832 1_555
Mg3 Pt3 2.937833 1_555
Mg3 Pt2 2.938106 1_555
Mg4 Pt8 2.764220 1_545
Mg4 Pt7 2.764221 1_554
Mg4 Pt9 2.764221 1_455
Mg4 Pt0 2.764356 1_555
Si0 Si5 2.371152 1_555
Si0 Si12 2.481824 1_555
Si0 Si10 2.481824 1_555
Si5 Si6 2.481821 1_555
Si5 Si7 2.481821 1_555
Si6 Si7 2.481806 1_555
Si10 Si8 2.371152 1_555
Si10 Si12 2.481824 1_555
Si11 Si6 2.371153 1_555
Si11 Si15 2.481806 1_555
Si11 Si8 2.481821 1_555
Si12 Si9 2.371152 1_555
Si13 Si15 2.371153 1_555
Si13 Si14 2.481807 1_555
Si13 Si9 2.481821 1_555
Si14 Si7 2.371153 1_555
Si14 Si9 2.481821 1_555
Si15 Si8 2.481821 1_555
Pt0 Si9 2.380300 1_454
Pt0 Si5 2.380300 1_544
Pt0 Si8 2.380300 1_445
Pt1 Si4 2.390354 1_555
Pt1 Si1 2.390372 1_555
Pt1 Si12 2.606496 1_554
Pt1 Si0 2.606496 1_554
Pt1 Si15 2.606523 1_555
Pt1 Si11 2.606523 1_555
Pt2 Si2 2.390370 1_555
Pt2 Si3 2.390370 1_555
Pt2 Si13 2.606488 1_455
Pt2 Si6 2.606488 1_545
Pt2 Si9 2.606490 1_455
Pt2 Si5 2.606490 1_545
Pt3 Si4 2.390354 1_555
Pt3 Si2 2.390372 1_555
Pt3 Si10 2.606496 1_545
Pt3 Si0 2.606496 1_545
Pt3 Si13 2.606523 1_555
Pt3 Si14 2.606523 1_555
Pt4 Si4 2.390354 1_555
Pt4 Si3 2.390372 1_555
Pt4 Si10 2.606496 1_455
Pt4 Si12 2.606496 1_455
Pt4 Si6 2.606523 1_555
Pt4 Si7 2.606523 1_555
Pt5 Si2 2.390370 1_555
Pt5 Si1 2.390370 1_555
Pt5 Si11 2.606488 1_545
Pt5 Si14 2.606489 1_554
Pt5 Si8 2.606489 1_545
Pt5 Si9 2.606490 1_554
Pt6 Si3 2.390370 1_555
Pt6 Si1 2.390370 1_555
Pt6 Si15 2.606488 1_455
Pt6 Si7 2.606488 1_554
Pt6 Si8 2.606490 1_455
Pt6 Si5 2.606490 1_554
Pt7 Si13 2.380304 1_455
Pt7 Si6 2.380304 1_545
Pt7 Si10 2.380313 1_445
Pt8 Si7 2.380304 1_554
Pt8 Si15 2.380304 1_455
Pt8 Si12 2.380313 1_454
Pt9 Si14 2.380304 1_554
Pt9 Si11 2.380304 1_545
Pt9 Si0 2.380314 1_544
