# generated using pymatgen
data_SrPtCl6
_symmetry_space_group_name_H-M   'P 1'
_cell_length_a   6.37178373
_cell_length_b   6.37178398
_cell_length_c   10.27133509
_cell_angle_alpha   88.07048538
_cell_angle_beta   88.07048461
_cell_angle_gamma   83.22592676
_symmetry_Int_Tables_number   1
_chemical_formula_structural   SrPtCl6
_chemical_formula_sum   'Sr2 Pt2 Cl12'
_cell_volume   413.68109362
_cell_formula_units_Z   2
loop_
 _symmetry_equiv_pos_site_id
 _symmetry_equiv_pos_as_xyz
  1  'x, y, z'
loop_
 _atom_site_type_symbol
 _atom_site_label
 _atom_site_symmetry_multiplicity
 _atom_site_fract_x
 _atom_site_fract_y
 _atom_site_fract_z
 _atom_site_occupancy
  Sr  Sr0  1  0.96850724  0.03149276  0.25000000  1
  Sr  Sr1  1  0.03149276  0.96850724  0.75000000  1
  Pt  Pt0  1  0.00000000  0.50000000  0.00000000  1
  Pt  Pt1  1  0.50000000  0.00000000  0.50000000  1
  Cl  Cl0  1  0.08982037  0.53631451  0.21588015  1
  Cl  Cl1  1  0.46368549  0.91017963  0.28411985  1
  Cl  Cl2  1  0.91017963  0.46368549  0.78411985  1
  Cl  Cl3  1  0.53631451  0.08982037  0.71588015  1
  Cl  Cl4  1  0.79966380  0.83041563  0.00155679  1
  Cl  Cl5  1  0.16958437  0.20033620  0.49844321  1
  Cl  Cl6  1  0.20033620  0.16958437  0.99844321  1
  Cl  Cl7  1  0.83041563  0.79966380  0.50155679  1
  Cl  Cl8  1  0.70822403  0.33782676  0.07615820  1
  Cl  Cl9  1  0.66217324  0.29177597  0.42384180  1
  Cl  Cl10  1  0.29177597  0.66217324  0.92384180  1
  Cl  Cl11  1  0.33782676  0.70822403  0.57615820  1
loop_
_geom_bond_atom_site_label_1
_geom_bond_atom_site_label_2
_geom_bond_distance
_geom_bond_site_symmetry_2
Cl0 Pt0 2.334330 1_555
Cl0 Sr0 3.186891 1_465
Cl0 Sr0 3.399903 1_455
Cl1 Pt1 2.334330 1_565
Cl1 Sr0 3.186891 1_465
Cl1 Sr0 3.399903 1_565
Cl2 Pt0 2.334330 1_656
Cl2 Sr1 3.186891 1_645
Cl2 Sr1 3.399903 1_655
Cl3 Pt1 2.334330 1_555
Cl3 Sr1 3.186891 1_645
Cl3 Sr1 3.399903 1_545
Cl4 Pt0 2.330031 1_655
Cl4 Sr1 3.086887 1_654
Cl4 Sr0 3.168763 1_565
Cl5 Pt1 2.330031 1_555
Cl5 Sr1 3.086887 1_545
Cl5 Sr0 3.168763 1_455
Cl6 Pt0 2.330031 1_556
Cl6 Sr0 3.086887 1_456
Cl6 Sr1 3.168763 1_545
Cl7 Pt1 2.330031 1_565
Cl7 Sr0 3.086887 1_565
Cl7 Sr1 3.168763 1_655
Cl8 Pt0 2.331717 1_655
Cl8 Sr0 2.991617 1_555
Cl9 Pt1 2.331717 1_555
Cl9 Sr0 2.991617 1_555
Cl10 Pt0 2.331717 1_556
Cl10 Sr1 2.991617 1_555
Cl11 Pt1 2.331717 1_565
Cl11 Sr1 2.991617 1_555
