# generated using pymatgen
data_Ca10Si4Sb2F
_symmetry_space_group_name_H-M   'P 1'
_cell_length_a   9.18073984
_cell_length_b   9.18073996
_cell_length_c   9.18074029
_cell_angle_alpha   129.85028098
_cell_angle_beta   129.85027900
_cell_angle_gamma   73.64622739
_symmetry_Int_Tables_number   1
_chemical_formula_structural   Ca10Si4Sb2F
_chemical_formula_sum   'Ca10 Si4 Sb2 F1'
_cell_volume   445.01522526
_cell_formula_units_Z   1
loop_
 _symmetry_equiv_pos_site_id
 _symmetry_equiv_pos_as_xyz
  1  'x, y, z'
loop_
 _atom_site_type_symbol
 _atom_site_label
 _atom_site_symmetry_multiplicity
 _atom_site_fract_x
 _atom_site_fract_y
 _atom_site_fract_z
 _atom_site_occupancy
  Ca  Ca0  1  0.77002453  0.44261859  1.00000000  1
  Ca  Ca1  1  0.44261859  0.77002553  0.00000000  1
  Ca  Ca2  1  0.94443940  0.94443940  0.66525539  1
  Ca  Ca3  1  0.27918400  0.27918400  0.33474461  1
  Ca  Ca4  1  0.72081600  0.05556060  1.00000000  1
  Ca  Ca5  1  0.05556060  0.72081600  0.00000000  1
  Ca  Ca6  1  0.55738141  0.55738141  0.32740595  1
  Ca  Ca7  1  0.22997447  0.22997447  0.67259405  1
  Ca  Ca8  1  0.25000000  0.75000000  0.50000000  1
  Ca  Ca9  1  0.75000000  0.25000000  0.50000000  1
  Si  Si0  1  0.13553290  0.36526876  0.00000000  1
  Si  Si1  1  0.36526876  0.13553290  1.00000000  1
  Si  Si2  1  0.86446710  0.86446710  0.22973586  1
  Si  Si3  1  0.63473124  0.63473124  0.77026414  1
  Sb  Sb0  1  0.00000000  0.50000000  0.50000000  1
  Sb  Sb1  1  0.50000000  0.00000000  0.50000000  1
  F  F0  1  0.50000000  0.50000000  0.00000000  1
loop_
_geom_bond_atom_site_label_1
_geom_bond_atom_site_label_2
_geom_bond_distance
_geom_bond_site_symmetry_2
Ca0 F0 2.384881 1_556
Ca0 Si2 3.046045 1_556
Ca0 Si3 3.046045 1_555
Ca0 Si0 3.228416 1_656
Ca0 Sb1 3.303524 1_555
Ca0 Sb0 3.303524 1_656
Ca1 F0 2.384890 1_555
Ca1 Si3 3.046043 1_554
Ca1 Si2 3.046043 1_555
Ca1 Si1 3.228407 1_564
Ca1 Sb1 3.303526 1_565
Ca1 Sb0 3.303526 1_554
Ca2 Si0 3.023246 1_666
Ca2 Si1 3.023246 1_665
Ca2 Si2 3.137575 1_555
Ca2 Sb0 3.331204 1_655
Ca2 Sb1 3.331204 1_565
Ca3 Si1 3.023246 1_554
Ca3 Si0 3.023246 1_555
Ca3 Si3 3.137575 1_555
Ca3 Sb0 3.331204 1_555
Ca3 Sb1 3.331204 1_555
Ca4 Si3 3.023246 1_545
Ca4 Si2 3.023246 1_546
Ca4 Si1 3.137574 1_555
Ca4 Sb0 3.331205 1_656
Ca4 Sb1 3.331205 1_555
Ca5 Si2 3.023246 1_455
Ca5 Si3 3.023246 1_454
Ca5 Si0 3.137574 1_555
Ca5 Sb0 3.331205 1_554
Ca5 Sb1 3.331205 1_565
Ca6 F0 2.384881 1_555
Ca6 Si1 3.046045 1_554
Ca6 Si0 3.046045 1_555
Ca6 Si3 3.228416 1_555
Ca6 Sb1 3.303524 1_565
Ca6 Sb0 3.303524 1_655
Ca7 F0 2.384890 1_556
Ca7 Si0 3.046035 1_556
Ca7 Si1 3.046035 1_555
Ca7 Si2 3.228407 1_445
Ca7 Sb1 3.303531 1_555
Ca7 Sb0 3.303531 1_555
Ca8 Si2 3.127422 1_455
Ca8 Si3 3.127422 1_555
Ca8 Si0 3.127422 1_555
Ca8 Si1 3.127422 1_565
Ca8 Sb1 3.674544 1_565
Ca8 Sb0 3.674544 1_555
Ca9 Si3 3.127422 1_555
Ca9 Si2 3.127422 1_545
Ca9 Si0 3.127422 1_656
Ca9 Si1 3.127422 1_554
Ca9 Sb1 3.674544 1_555
Ca9 Sb0 3.674544 1_655
Si0 Si1 2.528218 1_554
Si2 Si3 2.528218 1_554
