# generated using pymatgen
data_Y2BPdPt5
_symmetry_space_group_name_H-M   'P 1'
_cell_length_a   5.84083582
_cell_length_b   5.97515229
_cell_length_c   5.97515271
_cell_angle_alpha   58.51827450
_cell_angle_beta   60.74085645
_cell_angle_gamma   60.74085665
_symmetry_Int_Tables_number   1
_chemical_formula_structural   Y2BPdPt5
_chemical_formula_sum   'Y2 B1 Pd1 Pt5'
_cell_volume   147.30870947
_cell_formula_units_Z   1
loop_
 _symmetry_equiv_pos_site_id
 _symmetry_equiv_pos_as_xyz
  1  'x, y, z'
loop_
 _atom_site_type_symbol
 _atom_site_label
 _atom_site_symmetry_multiplicity
 _atom_site_fract_x
 _atom_site_fract_y
 _atom_site_fract_z
 _atom_site_occupancy
  Y  Y0  1  0.25353467  0.24646533  0.24646533  1
  Y  Y1  1  0.75353467  0.74646533  0.74646533  1
  B  B0  1  0.98689600  0.01310400  0.01310400  1
  Pd  Pd0  1  0.25454184  0.74545916  0.74545916  1
  Pt  Pt0  1  0.73814674  0.26185426  0.26185426  1
  Pt  Pt1  1  0.25958273  0.74041827  0.25290819  1
  Pt  Pt2  1  0.74709181  0.74041727  0.25290919  1
  Pt  Pt3  1  0.25958273  0.25290819  0.74041827  1
  Pt  Pt4  1  0.74709181  0.25290919  0.74041727  1
loop_
_geom_bond_atom_site_label_1
_geom_bond_atom_site_label_2
_geom_bond_distance
_geom_bond_site_symmetry_2
B0 Pt3 2.121392 1_654
B0 Pt2 2.121392 1_545
B0 Pt1 2.121393 1_645
B0 Pt4 2.121393 1_554
B0 Pt0 2.148187 1_555
B0 Pd0 2.311359 1_644
Pd0 Y1 2.920425 1_555
Pd0 Y0 2.920431 1_565
Pd0 Y0 2.920431 1_556
Pd0 Y1 2.920437 1_455
Pt0 Y0 2.923434 1_655
Pt0 Y1 2.923440 1_545
Pt0 Y1 2.923440 1_554
Pt0 Y0 2.923446 1_555
Pt1 Y0 2.986784 1_565
Pt1 Y1 2.986790 1_455
Pt1 Y1 2.989254 1_554
Pt1 Y0 2.989259 1_555
Pt2 Y1 2.986784 1_555
Pt2 Y0 2.986790 1_565
Pt2 Y0 2.989254 1_655
Pt2 Y1 2.989260 1_554
Pt3 Y0 2.986784 1_556
Pt3 Y1 2.986790 1_455
Pt3 Y1 2.989254 1_545
Pt3 Y0 2.989260 1_555
Pt4 Y1 2.986784 1_555
Pt4 Y0 2.986790 1_556
Pt4 Y0 2.989254 1_655
Pt4 Y1 2.989259 1_545
