# generated using pymatgen
data_Cs6CaS4
_symmetry_space_group_name_H-M   'P 1'
_cell_length_a   11.01740621
_cell_length_b   11.01740560
_cell_length_c   8.50465470
_cell_angle_alpha   90.00000000
_cell_angle_beta   90.00000000
_cell_angle_gamma   120.00000476
_symmetry_Int_Tables_number   1
_chemical_formula_structural   Cs6CaS4
_chemical_formula_sum   'Cs12 Ca2 S8'
_cell_volume   894.01745117
_cell_formula_units_Z   2
loop_
 _symmetry_equiv_pos_site_id
 _symmetry_equiv_pos_as_xyz
  1  'x, y, z'
loop_
 _atom_site_type_symbol
 _atom_site_label
 _atom_site_symmetry_multiplicity
 _atom_site_fract_x
 _atom_site_fract_y
 _atom_site_fract_z
 _atom_site_occupancy
  Cs  Cs0  1  0.53226380  0.06452660  0.36331770  1
  Cs  Cs1  1  0.46773620  0.53226380  0.86331770  1
  Cs  Cs2  1  0.93547340  0.46773620  0.36331770  1
  Cs  Cs3  1  0.53226380  0.46773620  0.36331770  1
  Cs  Cs4  1  0.14530844  0.85469156  0.54355838  1
  Cs  Cs5  1  0.29061588  0.14530844  0.04355838  1
  Cs  Cs6  1  0.06452660  0.53226380  0.86331770  1
  Cs  Cs7  1  0.85469156  0.70938412  0.04355838  1
  Cs  Cs8  1  0.85469156  0.14530844  0.04355838  1
  Cs  Cs9  1  0.70938412  0.85469156  0.54355838  1
  Cs  Cs10  1  0.14530844  0.29061588  0.54355838  1
  Cs  Cs11  1  0.46773620  0.93547340  0.86331770  1
  Ca  Ca0  1  0.66666700  0.33333300  0.75350395  1
  Ca  Ca1  1  0.33333300  0.66666700  0.25350395  1
  S  S0  1  0.80350963  0.19649037  0.65292970  1
  S  S1  1  0.60702125  0.80350963  0.15292970  1
  S  S2  1  0.19649037  0.39297875  0.15292970  1
  S  S3  1  0.80350963  0.60702125  0.65292970  1
  S  S4  1  0.39297875  0.19649037  0.65292970  1
  S  S5  1  0.19649037  0.80350963  0.15292970  1
  S  S6  1  0.66666700  0.33333300  0.07477473  1
  S  S7  1  0.33333300  0.66666700  0.57477473  1
loop_
_geom_bond_atom_site_label_1
_geom_bond_atom_site_label_2
_geom_bond_distance
_geom_bond_site_symmetry_2
Cs0 S6 3.549647 1_555
Cs0 S0 3.572990 1_555
Cs0 S4 3.573011 1_555
Cs0 S5 3.810276 1_545
Cs0 S1 3.810283 1_545
Cs1 S7 3.549647 1_555
Cs1 S1 3.572990 1_556
Cs1 S2 3.572990 1_556
Cs1 S4 3.810273 1_555
Cs1 S3 3.810273 1_555
Cs2 S6 3.549647 1_555
Cs2 S0 3.572990 1_555
Cs2 S3 3.573011 1_555
Cs2 S5 3.810276 1_655
Cs2 S2 3.810283 1_655
Cs3 S6 3.549647 1_555
Cs3 S4 3.572990 1_555
Cs3 S3 3.572990 1_555
Cs3 S1 3.810273 1_555
Cs3 S2 3.810273 1_555
Cs4 S5 3.462757 1_555
Cs4 S4 3.495166 1_565
Cs4 S3 3.495166 1_455
Cs4 S7 3.597826 1_555
Cs5 S4 3.462754 1_554
Cs5 S2 3.495144 1_555
Cs5 S5 3.495174 1_545
Cs5 S6 3.597845 1_555
Cs6 S7 3.549647 1_555
Cs6 S5 3.572990 1_556
Cs6 S2 3.573011 1_556
Cs6 S0 3.810276 1_455
Cs6 S3 3.810283 1_455
Cs7 S3 3.462754 1_554
Cs7 S1 3.495144 1_555
Cs7 S5 3.495175 1_655
Cs7 S6 3.597845 1_555
Cs8 S0 3.462757 1_554
Cs8 S1 3.495166 1_545
Cs8 S2 3.495166 1_655
Cs8 S6 3.597826 1_555
Cs9 S1 3.462754 1_555
Cs9 S3 3.495144 1_555
Cs9 S0 3.495174 1_565
Cs9 S7 3.597845 1_555
Cs10 S2 3.462754 1_555
Cs10 S4 3.495144 1_555
Cs10 S0 3.495175 1_455
Cs10 S7 3.597845 1_555
Cs11 S7 3.549647 1_555
Cs11 S5 3.572990 1_556
Cs11 S1 3.573011 1_556
Cs11 S0 3.810276 1_565
Cs11 S4 3.810283 1_565
Ca0 S6 2.732297 1_556
Ca0 S0 2.747846 1_555
Ca0 S3 2.747873 1_555
Ca0 S4 2.747873 1_555
Ca1 S7 2.732297 1_555
Ca1 S5 2.747846 1_555
Ca1 S2 2.747873 1_555
Ca1 S1 2.747873 1_555
