# generated using pymatgen
data_YAg6BrO8
_symmetry_space_group_name_H-M   'P 1'
_cell_length_a   7.00794690
_cell_length_b   7.00794664
_cell_length_c   7.00794575
_cell_angle_alpha   60.00000418
_cell_angle_beta   60.00000542
_cell_angle_gamma   59.99999720
_symmetry_Int_Tables_number   1
_chemical_formula_structural   YAg6BrO8
_chemical_formula_sum   'Y1 Ag6 Br1 O8'
_cell_volume   243.36456603
_cell_formula_units_Z   1
loop_
 _symmetry_equiv_pos_site_id
 _symmetry_equiv_pos_as_xyz
  1  'x, y, z'
loop_
 _atom_site_type_symbol
 _atom_site_label
 _atom_site_symmetry_multiplicity
 _atom_site_fract_x
 _atom_site_fract_y
 _atom_site_fract_z
 _atom_site_occupancy
  Y  Y0  1  0.00000000  0.00000000  0.00000000  1
  Ag  Ag0  1  0.00000000  0.00000000  0.50000000  1
  Ag  Ag1  1  0.50000000  0.00000000  0.50000000  1
  Ag  Ag2  1  0.00000000  0.50000000  0.50000000  1
  Ag  Ag3  1  0.50000000  0.50000000  0.00000000  1
  Ag  Ag4  1  0.00000000  0.50000000  0.00000000  1
  Ag  Ag5  1  0.50000000  0.00000000  0.00000000  1
  Br  Br0  1  0.50000000  0.50000000  0.50000000  1
  O  O0  1  0.86121765  0.86121765  0.41634706  1
  O  O1  1  0.86121765  0.41634706  0.86121765  1
  O  O2  1  0.41634706  0.86121765  0.86121765  1
  O  O3  1  0.86121765  0.86121765  0.86121765  1
  O  O4  1  0.13878235  0.13878235  0.58365294  1
  O  O5  1  0.13878235  0.58365294  0.13878235  1
  O  O6  1  0.58365294  0.13878235  0.13878235  1
  O  O7  1  0.13878235  0.13878235  0.13878235  1
loop_
_geom_bond_atom_site_label_1
_geom_bond_atom_site_label_2
_geom_bond_distance
_geom_bond_site_symmetry_2
Ag0 O4 2.078876 1_555
Ag0 O7 2.078876 1_555
Ag0 O3 2.078876 1_445
Ag0 O0 2.078876 1_445
Ag1 O2 2.078876 1_545
Ag1 O6 2.078876 1_555
Ag1 O0 2.078876 1_545
Ag1 O4 2.078876 1_555
Ag2 O1 2.078876 1_455
Ag2 O5 2.078876 1_555
Ag2 O0 2.078876 1_455
Ag2 O4 2.078876 1_555
Ag3 O2 2.078876 1_554
Ag3 O6 2.078876 1_555
Ag3 O1 2.078876 1_554
Ag3 O5 2.078876 1_555
Ag4 O5 2.078876 1_555
Ag4 O1 2.078876 1_454
Ag4 O3 2.078876 1_454
Ag4 O7 2.078876 1_555
Ag5 O6 2.078876 1_555
Ag5 O2 2.078876 1_544
Ag5 O3 2.078876 1_544
Ag5 O7 2.078876 1_555
O0 Y0 2.382323 1_665
O1 Y0 2.382323 1_656
O2 Y0 2.382323 1_566
O3 Y0 2.382323 1_666
O4 Y0 2.382323 1_556
O5 Y0 2.382323 1_565
O6 Y0 2.382323 1_655
O7 Y0 2.382323 1_555
