# generated using pymatgen
data_Zr5Co16(ReP4)3
_symmetry_space_group_name_H-M   'P 1'
_cell_length_a   11.77095592
_cell_length_b   11.77095702
_cell_length_c   3.64559418
_cell_angle_alpha   90.00000000
_cell_angle_beta   90.00000000
_cell_angle_gamma   119.99999691
_symmetry_Int_Tables_number   1
_chemical_formula_structural   Zr5Co16(ReP4)3
_chemical_formula_sum   'Zr5 Co16 Re3 P12'
_cell_volume   437.44401136
_cell_formula_units_Z   1
loop_
 _symmetry_equiv_pos_site_id
 _symmetry_equiv_pos_as_xyz
  1  'x, y, z'
loop_
 _atom_site_type_symbol
 _atom_site_label
 _atom_site_symmetry_multiplicity
 _atom_site_fract_x
 _atom_site_fract_y
 _atom_site_fract_z
 _atom_site_occupancy
  Zr  Zr0  1  0.66666700  0.33333300  0.00000000  1
  Zr  Zr1  1  0.33333300  0.66666700  0.00000000  1
  Zr  Zr2  1  0.82008670  0.82008670  0.50000000  1
  Zr  Zr3  1  0.17991330  0.00000000  0.50000000  1
  Zr  Zr4  1  0.00000000  0.17991330  0.50000000  1
  Co  Co0  1  0.19460734  0.37456227  0.00000000  1
  Co  Co1  1  0.17995493  0.80539266  0.00000000  1
  Co  Co2  1  0.82004507  0.62543773  0.00000000  1
  Co  Co3  1  0.80539266  0.17995493  0.00000000  1
  Co  Co4  1  0.37456227  0.19460734  0.00000000  1
  Co  Co5  1  0.12810332  0.48558731  0.50000000  1
  Co  Co6  1  0.35748399  0.87189668  0.50000000  1
  Co  Co7  1  0.51441269  0.64251601  0.50000000  1
  Co  Co8  1  0.64251601  0.51441269  0.50000000  1
  Co  Co9  1  0.87189668  0.35748399  0.50000000  1
  Co  Co10  1  0.48558731  0.12810332  0.50000000  1
  Co  Co11  1  0.00000000  0.00000000  0.00000000  1
  Co  Co12  1  0.71937891  0.00000000  0.50000000  1
  Co  Co13  1  0.00000000  0.71937891  0.50000000  1
  Co  Co14  1  0.62543773  0.82004507  0.00000000  1
  Co  Co15  1  0.28062109  0.28062109  0.50000000  1
  Re  Re0  1  0.44593018  0.44593018  0.00000000  1
  Re  Re1  1  0.55406982  0.00000000  0.00000000  1
  Re  Re2  1  1.00000000  0.55406982  0.00000000  1
  P  P0  1  0.64114299  0.64114299  0.00000000  1
  P  P1  1  0.35885701  0.00000000  0.00000000  1
  P  P2  1  1.00000000  0.35885701  0.00000000  1
  P  P3  1  0.48001728  0.31305387  0.50000000  1
  P  P4  1  0.68694613  0.16696541  0.50000000  1
  P  P5  1  0.83303459  0.51998272  0.50000000  1
  P  P6  1  0.51998272  0.83303459  0.50000000  1
  P  P7  1  0.16696541  0.68694613  0.50000000  1
  P  P8  1  0.82342080  0.00000000  0.00000000  1
  P  P9  1  0.00000000  0.82342080  0.00000000  1
  P  P10  1  0.31305387  0.48001728  0.50000000  1
  P  P11  1  0.17657920  0.17657920  0.00000000  1
loop_
_geom_bond_atom_site_label_1
_geom_bond_atom_site_label_2
_geom_bond_distance
_geom_bond_site_symmetry_2
Co0 P2 2.204104 1_455
Co0 P11 2.231925 1_555
Co0 P10 2.253140 1_555
Co0 P10 2.253140 1_554
Co0 Zr4 2.927642 1_555
Co0 Zr4 2.927642 1_554
Co0 Zr1 2.978949 1_555
Co1 P1 2.204104 1_565
Co1 P9 2.231925 1_555
Co1 P7 2.253146 1_555
Co1 P7 2.253146 1_554
Co1 Zr3 2.927642 1_565
Co1 Zr3 2.927642 1_564
Co1 Zr1 2.978938 1_555
Co2 P0 2.204104 1_555
Co2 P9 2.231925 1_655
Co2 P5 2.253132 1_554
Co2 P5 2.253132 1_555
Co2 Zr2 2.927642 1_555
Co2 Zr2 2.927642 1_554
Co2 Zr0 2.978949 1_555
Co3 P2 2.204104 1_555
Co3 P8 2.231925 1_555
Co3 P4 2.253146 1_555
Co3 P4 2.253146 1_554
Co3 Zr4 2.927641 1_655
Co3 Zr4 2.927641 1_654
Co3 Zr0 2.978938 1_555
Co4 P1 2.204104 1_555
Co4 P11 2.231925 1_555
Co4 P3 2.253140 1_555
Co4 P3 2.253140 1_554
Co4 Zr3 2.927642 1_555
Co4 Zr3 2.927642 1_554
Co4 Zr0 2.978949 1_555
Co5 P7 2.177799 1_555
Co5 P10 2.210556 1_555
Co5 P2 2.360559 1_456
Co5 P2 2.360559 1_455
Co5 Zr1 2.924470 1_556
Co5 Zr1 2.924470 1_555
Co5 Zr4 3.129596 1_555
Co6 P6 2.177822 1_555
Co6 P7 2.210544 1_555
Co6 P1 2.360559 1_566
Co6 P1 2.360559 1_565
Co6 Zr1 2.924466 1_555
Co6 Zr1 2.924466 1_556
Co6 Zr3 3.129596 1_565
Co7 P10 2.177807 1_555
Co7 P6 2.210533 1_555
Co7 P0 2.360559 1_556
Co7 P0 2.360559 1_555
Co7 Zr1 2.924475 1_555
Co7 Zr1 2.924475 1_556
Co7 Zr2 3.129596 1_555
Co8 P3 2.177807 1_555
Co8 P5 2.210533 1_555
Co8 P0 2.360559 1_555
Co8 P0 2.360559 1_556
Co8 Zr0 2.924475 1_555
Co8 Zr0 2.924475 1_556
Co8 Zr2 3.129596 1_555
Co9 P5 2.177822 1_555
Co9 P4 2.210544 1_555
Co9 P2 2.360559 1_555
Co9 P2 2.360559 1_556
Co9 Zr0 2.924466 1_555
Co9 Zr0 2.924466 1_556
Co9 Zr4 3.129596 1_655
Co10 P4 2.177799 1_555
Co10 P3 2.210557 1_555
Co10 P1 2.360559 1_556
Co10 P1 2.360559 1_555
Co10 Zr0 2.924470 1_555
Co10 Zr0 2.924470 1_556
Co10 Zr3 3.129596 1_555
Co11 P8 2.078506 1_455
Co11 P11 2.078506 1_555
Co11 P9 2.078506 1_545
Co11 Zr3 2.794183 1_554
Co11 Zr3 2.794183 1_555
Co11 Zr2 2.794184 1_445
Co11 Zr2 2.794184 1_444
Co11 Zr4 2.794184 1_555
Co11 Zr4 2.794184 1_554
Co12 P6 2.181410 1_545
Co12 P4 2.181425 1_555
Co12 P8 2.195999 1_555
Co12 P8 2.195999 1_556
Co12 Zr4 2.898370 1_655
Co12 Zr2 2.898370 1_545
Co13 P5 2.181410 1_455
Co13 P7 2.181425 1_555
Co13 P9 2.195999 1_556
Co13 P9 2.195999 1_555
Co13 Zr2 2.898370 1_455
Co13 Zr3 2.898370 1_565
Co14 P0 2.204104 1_555
Co14 P8 2.231925 1_565
Co14 P6 2.253132 1_555
Co14 P6 2.253132 1_554
Co14 Zr2 2.927641 1_555
Co14 Zr2 2.927641 1_554
Co14 Zr1 2.978948 1_555
Co15 P3 2.181402 1_555
Co15 P10 2.181402 1_555
Co15 P11 2.195999 1_555
Co15 P11 2.195999 1_556
Co15 Zr4 2.898370 1_555
Co15 Zr3 2.898370 1_555
P0 Re0 2.297842 1_555
P0 Zr2 2.785543 1_555
P0 Zr2 2.785543 1_554
P1 Re1 2.297841 1_555
P1 Zr3 2.785543 1_554
P1 Zr3 2.785543 1_555
P2 Re2 2.297842 1_555
P2 Zr4 2.785543 1_655
P2 Zr4 2.785543 1_654
P3 Re0 2.560762 1_555
P3 Re0 2.560762 1_556
P3 Zr0 2.771666 1_555
P3 Zr0 2.771666 1_556
P4 Re1 2.560772 1_556
P4 Re1 2.560772 1_555
P4 Zr0 2.771640 1_555
P4 Zr0 2.771640 1_556
P5 Re2 2.560778 1_555
P5 Re2 2.560778 1_556
P5 Zr0 2.771655 1_555
P5 Zr0 2.771655 1_556
P6 Re1 2.560778 1_566
P6 Re1 2.560778 1_565
P6 Zr1 2.771655 1_556
P6 Zr1 2.771655 1_555
P7 Re2 2.560772 1_456
P7 Re2 2.560772 1_455
P7 Zr1 2.771640 1_555
P7 Zr1 2.771640 1_556
P8 Zr4 2.779548 1_654
P8 Zr4 2.779548 1_655
P8 Zr2 2.779548 1_544
P8 Zr2 2.779548 1_545
P9 Zr2 2.779548 1_455
P9 Zr2 2.779548 1_454
P9 Zr3 2.779548 1_565
P9 Zr3 2.779548 1_564
P10 Re0 2.560761 1_556
P10 Re0 2.560761 1_555
P10 Zr1 2.771666 1_555
P10 Zr1 2.771666 1_556
P11 Zr4 2.779548 1_554
P11 Zr4 2.779548 1_555
P11 Zr3 2.779548 1_554
P11 Zr3 2.779548 1_555
