# generated using pymatgen
data_Ca5Sb3Cl
_symmetry_space_group_name_H-M   'P 1'
_cell_length_a   9.11207329
_cell_length_b   9.11207352
_cell_length_c   7.08019519
_cell_angle_alpha   90.00000000
_cell_angle_beta   90.00000000
_cell_angle_gamma   120.00000274
_symmetry_Int_Tables_number   1
_chemical_formula_structural   Ca5Sb3Cl
_chemical_formula_sum   'Ca10 Sb6 Cl2'
_cell_volume   509.10840800
_cell_formula_units_Z   2
loop_
 _symmetry_equiv_pos_site_id
 _symmetry_equiv_pos_as_xyz
  1  'x, y, z'
loop_
 _atom_site_type_symbol
 _atom_site_label
 _atom_site_symmetry_multiplicity
 _atom_site_fract_x
 _atom_site_fract_y
 _atom_site_fract_z
 _atom_site_occupancy
  Ca  Ca0  1  0.25651551  1.00000000  0.25000000  1
  Ca  Ca1  1  0.74348449  0.00000000  0.75000000  1
  Ca  Ca2  1  1.00000000  0.25651551  0.25000000  1
  Ca  Ca3  1  0.00000000  0.74348449  0.75000000  1
  Ca  Ca4  1  0.74348449  0.74348449  0.25000000  1
  Ca  Ca5  1  0.25651551  0.25651551  0.75000000  1
  Ca  Ca6  1  0.33333300  0.66666700  0.00000000  1
  Ca  Ca7  1  0.66666700  0.33333300  0.00000000  1
  Ca  Ca8  1  0.66666700  0.33333300  0.50000000  1
  Ca  Ca9  1  0.33333300  0.66666700  0.50000000  1
  Sb  Sb0  1  0.60832660  0.00000000  0.25000000  1
  Sb  Sb1  1  0.39167340  0.00000000  0.75000000  1
  Sb  Sb2  1  0.00000000  0.60832660  0.25000000  1
  Sb  Sb3  1  0.00000000  0.39167340  0.75000000  1
  Sb  Sb4  1  0.39167340  0.39167340  0.25000000  1
  Sb  Sb5  1  0.60832660  0.60832660  0.75000000  1
  Cl  Cl0  1  0.00000000  0.00000000  0.00000000  1
  Cl  Cl1  1  0.00000000  0.00000000  0.50000000  1
loop_
_geom_bond_atom_site_label_1
_geom_bond_atom_site_label_2
_geom_bond_distance
_geom_bond_site_symmetry_2
Ca0 Cl0 2.931971 1_565
Ca0 Cl1 2.931971 1_565
Ca0 Sb2 3.139872 1_555
Ca0 Sb4 3.139872 1_565
Ca0 Sb0 3.205728 1_565
Ca0 Sb1 3.748207 1_565
Ca0 Sb1 3.748207 1_564
Ca1 Cl1 2.931971 1_655
Ca1 Cl0 2.931971 1_656
Ca1 Sb3 3.139872 1_655
Ca1 Sb5 3.139872 1_545
Ca1 Sb1 3.205728 1_555
Ca1 Sb0 3.748207 1_555
Ca1 Sb0 3.748207 1_556
Ca2 Cl1 2.931971 1_655
Ca2 Cl0 2.931971 1_655
Ca2 Sb0 3.139872 1_555
Ca2 Sb4 3.139872 1_655
Ca2 Sb2 3.205728 1_655
Ca2 Sb3 3.748207 1_655
Ca2 Sb3 3.748207 1_654
Ca3 Cl0 2.931971 1_566
Ca3 Cl1 2.931971 1_565
Ca3 Sb1 3.139872 1_565
Ca3 Sb5 3.139872 1_455
Ca3 Sb3 3.205728 1_555
Ca3 Sb2 3.748207 1_555
Ca3 Sb2 3.748207 1_556
Ca4 Cl1 2.931971 1_665
Ca4 Cl0 2.931971 1_665
Ca4 Sb2 3.139872 1_655
Ca4 Sb0 3.139872 1_565
Ca4 Sb4 3.205728 1_555
Ca4 Sb5 3.748207 1_554
Ca4 Sb5 3.748207 1_555
Ca5 Cl1 2.931971 1_555
Ca5 Cl0 2.931971 1_556
Ca5 Sb3 3.139872 1_555
Ca5 Sb1 3.139872 1_555
Ca5 Sb5 3.205728 1_555
Ca5 Sb4 3.748207 1_556
Ca5 Sb4 3.748207 1_555
Ca6 Sb2 3.320622 1_555
Ca6 Sb1 3.320622 1_564
Ca6 Sb3 3.320625 1_554
Ca6 Sb0 3.320625 1_565
Ca6 Sb5 3.320630 1_554
Ca6 Sb4 3.320630 1_555
Ca7 Sb3 3.320622 1_654
Ca7 Sb0 3.320622 1_555
Ca7 Sb2 3.320625 1_655
Ca7 Sb1 3.320625 1_554
Ca7 Sb4 3.320630 1_555
Ca7 Sb5 3.320630 1_554
Ca8 Sb3 3.320622 1_655
Ca8 Sb0 3.320622 1_555
Ca8 Sb2 3.320625 1_655
Ca8 Sb1 3.320625 1_555
Ca8 Sb4 3.320630 1_555
Ca8 Sb5 3.320630 1_555
Ca9 Sb2 3.320622 1_555
Ca9 Sb1 3.320622 1_565
Ca9 Sb3 3.320625 1_555
Ca9 Sb0 3.320625 1_565
Ca9 Sb5 3.320630 1_555
Ca9 Sb4 3.320630 1_555
