# generated using pymatgen
data_Al5Zn(Pd3Pt2)2
_symmetry_space_group_name_H-M   'P 1'
_cell_length_a   4.04235382
_cell_length_b   5.38460652
_cell_length_c   10.55318369
_cell_angle_alpha   89.86257243
_cell_angle_beta   90.00000000
_cell_angle_gamma   90.00000000
_symmetry_Int_Tables_number   1
_chemical_formula_structural   Al5Zn(Pd3Pt2)2
_chemical_formula_sum   'Al5 Zn1 Pd6 Pt4'
_cell_volume   229.70505101
_cell_formula_units_Z   1
loop_
 _symmetry_equiv_pos_site_id
 _symmetry_equiv_pos_as_xyz
  1  'x, y, z'
loop_
 _atom_site_type_symbol
 _atom_site_label
 _atom_site_symmetry_multiplicity
 _atom_site_fract_x
 _atom_site_fract_y
 _atom_site_fract_z
 _atom_site_occupancy
  Al  Al0  1  0.00000000  0.99702911  0.00174985  1
  Al  Al1  1  0.00000000  0.48714937  0.49663867  1
  Al  Al2  1  0.50000000  0.83205032  0.63969927  1
  Al  Al3  1  0.50000000  0.67106276  0.14383057  1
  Al  Al4  1  0.50000000  0.33409819  0.85909037  1
  Zn  Zn0  1  0.50000000  0.17055120  0.36060998  1
  Pd  Pd0  1  0.00000000  0.98834080  0.50580350  1
  Pd  Pd1  1  0.00000000  0.49949276  0.99653251  1
  Pd  Pd2  1  0.00000000  0.91497039  0.23479815  1
  Pd  Pd3  1  0.00000000  0.09492956  0.76988775  1
  Pd  Pd4  1  0.00000000  0.41695626  0.26134889  1
  Pd  Pd5  1  0.00000000  0.59554819  0.73011041  1
  Pt  Pt0  1  0.50000000  0.19414231  0.10374131  1
  Pt  Pt1  1  0.50000000  0.80911743  0.89217940  1
  Pt  Pt2  1  0.50000000  0.68654792  0.39327074  1
  Pt  Pt3  1  0.50000000  0.30801343  0.61071064  1
loop_
_geom_bond_atom_site_label_1
_geom_bond_atom_site_label_2
_geom_bond_distance
_geom_bond_site_symmetry_2
Al0 Pd2 2.497734 1_555
Al0 Pd3 2.501788 1_564
Al0 Pt0 2.525006 1_565
Al0 Pt0 2.525006 1_465
Al0 Pt1 2.540008 1_454
Al0 Pt1 2.540008 1_554
Al0 Pd1 2.679735 1_554
Al0 Pd1 2.705997 1_564
Al1 Pd4 2.512554 1_555
Al1 Pd5 2.533425 1_555
Al1 Pt2 2.534228 1_455
Al1 Pt2 2.534228 1_555
Al1 Pt3 2.541492 1_455
Al1 Pt3 2.541492 1_555
Al1 Pd0 2.687397 1_545
Al1 Pd0 2.700683 1_555
Al2 Pd5 2.571266 1_555
Al2 Pd5 2.571266 1_655
Al2 Pt3 2.580339 1_565
Al2 Pd0 2.604673 1_555
Al2 Pd0 2.604673 1_655
Al2 Pt1 2.667033 1_555
Al2 Pt2 2.717858 1_555
Al2 Pd3 2.825905 1_665
Al2 Pd3 2.825905 1_565
Al2 Pt3 2.838997 1_555
Al3 Pd2 2.595704 1_555
Al3 Pd2 2.595704 1_655
Al3 Pt0 2.603646 1_555
Al3 Pt2 2.633908 1_555
Al3 Pd1 2.713278 1_654
Al3 Pd1 2.713278 1_554
Al3 Pd4 2.736282 1_555
Al3 Pd4 2.736282 1_655
Al3 Pt1 2.756081 1_554
Al3 Pt0 2.847171 1_565
Al4 Pd3 2.575977 1_655
Al4 Pd3 2.575977 1_555
Al4 Pt1 2.582348 1_555
Al4 Pt3 2.625294 1_555
Al4 Pd1 2.643540 1_555
Al4 Pd1 2.643540 1_655
Al4 Pt0 2.687847 1_556
Al4 Pd5 2.812580 1_555
Al4 Pd5 2.812580 1_655
Al4 Pt1 2.847470 1_545
Pd0 Zn0 2.718155 1_565
Pd0 Zn0 2.718155 1_465
Pd2 Zn0 2.784005 1_465
Pd2 Zn0 2.784005 1_565
Pd4 Zn0 2.633661 1_455
Pd4 Zn0 2.633661 1_555
Pt0 Zn0 2.713453 1_555
Pt2 Zn0 2.628041 1_565
Pt2 Zn0 2.800557 1_555
Pt3 Zn0 2.742891 1_555
