# generated using pymatgen
data_Ta4BeSiH2
_symmetry_space_group_name_H-M   'P 1'
_cell_length_a   5.04528770
_cell_length_b   5.04528706
_cell_length_c   5.04528735
_cell_angle_alpha   104.82581349
_cell_angle_beta   104.82580854
_cell_angle_gamma   119.22478793
_symmetry_Int_Tables_number   1
_chemical_formula_structural   Ta4BeSiH2
_chemical_formula_sum   'Ta4 Be1 Si1 H2'
_cell_volume   96.68281438
_cell_formula_units_Z   1
loop_
 _symmetry_equiv_pos_site_id
 _symmetry_equiv_pos_as_xyz
  1  'x, y, z'
loop_
 _atom_site_type_symbol
 _atom_site_label
 _atom_site_symmetry_multiplicity
 _atom_site_fract_x
 _atom_site_fract_y
 _atom_site_fract_z
 _atom_site_occupancy
  Ta  Ta0  1  0.16913725  0.66913725  0.83827749  1
  Ta  Ta1  1  0.83086275  0.33086275  0.16172251  1
  Ta  Ta2  1  0.33086275  0.16913725  0.50000000  1
  Ta  Ta3  1  0.66913725  0.83086275  0.50000000  1
  Be  Be0  1  0.25000000  0.25000000  0.00000000  1
  Si  Si0  1  0.75000000  0.75000000  0.00000000  1
  H  H0  1  0.75000000  0.25000000  0.50000000  1
  H  H1  1  0.25000000  0.75000000  0.50000000  1
loop_
_geom_bond_atom_site_label_1
_geom_bond_atom_site_label_2
_geom_bond_distance
_geom_bond_site_symmetry_2
Be0 Si0 2.552144 1_445
Be0 Si0 2.552144 1_555
Be0 Ta0 2.618990 1_554
Be0 Ta1 2.618990 1_455
Be0 Ta2 2.618998 1_554
Be0 Ta2 2.618998 1_555
Be0 Ta0 2.618998 1_544
Be0 Ta3 2.618998 1_555
Be0 Ta1 2.618998 1_555
Be0 Ta3 2.618998 1_444
Si0 Ta1 2.618990 1_555
Si0 Ta0 2.618990 1_654
Si0 Ta3 2.618998 1_555
Si0 Ta3 2.618998 1_554
Si0 Ta1 2.618998 1_565
Si0 Ta2 2.618998 1_554
Si0 Ta0 2.618998 1_554
Si0 Ta2 2.618998 1_665
H0 Ta3 1.948288 1_545
H0 Ta2 1.948288 1_555
H0 Ta0 1.948293 1_655
H0 Ta1 1.948303 1_555
H1 Ta2 1.948288 1_565
H1 Ta3 1.948288 1_555
H1 Ta1 1.948293 1_455
H1 Ta0 1.948303 1_555
