# generated using pymatgen
data_RbBF4
_symmetry_space_group_name_H-M   'P 1'
_cell_length_a   5.50237138
_cell_length_b   7.21842889
_cell_length_c   9.01939383
_cell_angle_alpha   90.00000000
_cell_angle_beta   90.00000000
_cell_angle_gamma   90.00000000
_symmetry_Int_Tables_number   1
_chemical_formula_structural   RbBF4
_chemical_formula_sum   'Rb4 B4 F16'
_cell_volume   358.23658218
_cell_formula_units_Z   4
loop_
 _symmetry_equiv_pos_site_id
 _symmetry_equiv_pos_as_xyz
  1  'x, y, z'
loop_
 _atom_site_type_symbol
 _atom_site_label
 _atom_site_symmetry_multiplicity
 _atom_site_fract_x
 _atom_site_fract_y
 _atom_site_fract_z
 _atom_site_occupancy
  Rb  Rb0  1  0.25000000  0.15988576  0.81455267  1
  Rb  Rb1  1  0.75000000  0.84011424  0.18544733  1
  Rb  Rb2  1  0.75000000  0.65988576  0.68544733  1
  Rb  Rb3  1  0.25000000  0.34011424  0.31455267  1
  B  B0  1  0.25000000  0.69260125  0.93837465  1
  B  B1  1  0.25000000  0.80739875  0.43837465  1
  B  B2  1  0.75000000  0.19260125  0.56162535  1
  B  B3  1  0.75000000  0.30739875  0.06162535  1
  F  F0  1  0.54181999  0.30594531  0.57674179  1
  F  F1  1  0.95818001  0.19405469  0.07674179  1
  F  F2  1  0.45818001  0.80594531  0.92325821  1
  F  F3  1  0.04181999  0.69405469  0.42325821  1
  F  F4  1  0.25000000  0.60979890  0.07859633  1
  F  F5  1  0.75000000  0.39020110  0.92140367  1
  F  F6  1  0.75000000  0.10979890  0.42140367  1
  F  F7  1  0.25000000  0.89020110  0.57859633  1
  F  F8  1  0.25000000  0.55875149  0.82535588  1
  F  F9  1  0.75000000  0.44124851  0.17464412  1
  F  F10  1  0.75000000  0.05875149  0.67464412  1
  F  F11  1  0.25000000  0.94124851  0.32535588  1
  F  F12  1  0.04181999  0.80594531  0.92325821  1
  F  F13  1  0.54181999  0.19405469  0.07674179  1
  F  F14  1  0.95818001  0.30594531  0.57674179  1
  F  F15  1  0.45818001  0.69405469  0.42325821  1
loop_
_geom_bond_atom_site_label_1
_geom_bond_atom_site_label_2
_geom_bond_distance
_geom_bond_site_symmetry_2
B0 F4 1.398839 1_556
B0 F8 1.404496 1_555
B0 F12 1.414255 1_555
B0 F2 1.414255 1_555
B1 F7 1.398839 1_555
B1 F11 1.404496 1_555
B1 F3 1.414255 1_555
B1 F15 1.414255 1_555
B2 F6 1.398839 1_555
B2 F10 1.404496 1_555
B2 F0 1.414255 1_555
B2 F14 1.414255 1_555
B3 F5 1.398839 1_554
B3 F9 1.404496 1_555
B3 F13 1.414255 1_555
B3 F1 1.414255 1_555
F0 Rb3 2.869029 1_555
F0 Rb0 2.879324 1_555
F0 Rb2 2.966633 1_555
F1 Rb0 2.869029 1_654
F1 Rb3 2.879324 1_655
F1 Rb1 2.966633 1_545
F2 Rb1 2.869029 1_556
F2 Rb2 2.879324 1_555
F2 Rb0 2.966633 1_565
F3 Rb2 2.869029 1_455
F3 Rb1 2.879324 1_455
F3 Rb3 2.966633 1_555
F4 Rb3 2.884233 1_555
F4 Rb1 3.355854 1_455
F4 Rb1 3.355854 1_555
F5 Rb2 2.884233 1_555
F5 Rb0 3.355854 1_655
F5 Rb0 3.355854 1_555
F6 Rb1 2.884233 1_545
F6 Rb3 3.355854 1_655
F6 Rb3 3.355854 1_555
F7 Rb0 2.884233 1_565
F7 Rb2 3.355854 1_555
F7 Rb2 3.355854 1_455
F8 Rb0 2.880832 1_555
F8 Rb2 3.113573 1_555
F8 Rb2 3.113573 1_455
F9 Rb1 2.880832 1_555
F9 Rb3 3.113573 1_555
F9 Rb3 3.113573 1_655
F10 Rb2 2.880832 1_545
F10 Rb0 3.113573 1_655
F10 Rb0 3.113573 1_555
F11 Rb3 2.880832 1_565
F11 Rb1 3.113573 1_455
F11 Rb1 3.113573 1_555
F12 Rb1 2.869029 1_456
F12 Rb2 2.879324 1_455
F12 Rb0 2.966633 1_565
F13 Rb0 2.869029 1_554
F13 Rb3 2.879324 1_555
F13 Rb1 2.966633 1_545
F14 Rb3 2.869029 1_655
F14 Rb0 2.879324 1_655
F14 Rb2 2.966633 1_555
F15 Rb2 2.869029 1_555
F15 Rb1 2.879324 1_555
F15 Rb3 2.966633 1_555
