# generated using pymatgen
data_KAuI3
_symmetry_space_group_name_H-M   'P 1'
_cell_length_a   9.46142359
_cell_length_b   7.36852376
_cell_length_c   13.45476131
_cell_angle_alpha   59.10163995
_cell_angle_beta   90.00000000
_cell_angle_gamma   90.00000000
_symmetry_Int_Tables_number   1
_chemical_formula_structural   KAuI3
_chemical_formula_sum   'K4 Au4 I12'
_cell_volume   804.89745073
_cell_formula_units_Z   4
loop_
 _symmetry_equiv_pos_site_id
 _symmetry_equiv_pos_as_xyz
  1  'x, y, z'
loop_
 _atom_site_type_symbol
 _atom_site_label
 _atom_site_symmetry_multiplicity
 _atom_site_fract_x
 _atom_site_fract_y
 _atom_site_fract_z
 _atom_site_occupancy
  K  K0  1  0.11715102  0.18907745  0.25109476  1
  K  K1  1  0.61715102  0.81092255  0.24890524  1
  K  K2  1  0.88284898  0.81092255  0.74890524  1
  K  K3  1  0.38284898  0.18907745  0.75109476  1
  Au  Au0  1  0.50000000  0.50000000  0.00000000  1
  Au  Au1  1  -0.00000000  0.50000000  0.50000000  1
  Au  Au2  1  0.50000000  -0.00000000  0.50000000  1
  Au  Au3  1  -0.00000000  -0.00000000  0.00000000  1
  I  I0  1  0.15274716  0.74396210  0.96529594  1
  I  I1  1  0.65274716  0.25603790  0.53470406  1
  I  I2  1  0.84725284  0.25603790  0.03470406  1
  I  I3  1  0.34725284  0.74396210  0.46529594  1
  I  I4  1  0.99271523  0.34077492  0.73090939  1
  I  I5  1  0.49271523  0.65922508  0.76909061  1
  I  I6  1  0.00728477  0.65922508  0.26909061  1
  I  I7  1  0.50728477  0.34077492  0.23090939  1
  I  I8  1  0.15983377  0.17541239  0.53211594  1
  I  I9  1  0.65983377  0.82458761  0.96788406  1
  I  I10  1  0.84016623  0.82458761  0.46788406  1
  I  I11  1  0.34016623  0.17541239  0.03211594  1
loop_
_geom_bond_atom_site_label_1
_geom_bond_atom_site_label_2
_geom_bond_distance
_geom_bond_site_symmetry_2
Au0 I11 2.670689 1_555
Au0 I9 2.670689 1_554
Au0 I7 2.700006 1_555
Au0 I5 2.700006 1_554
Au1 I8 2.670689 1_555
Au1 I10 2.670689 1_455
Au1 I4 2.700006 1_455
Au1 I6 2.700006 1_555
Au2 I1 2.602063 1_555
Au2 I3 2.602063 1_545
Au2 I5 3.175106 1_545
Au2 I7 3.175106 1_555
Au3 I0 2.602063 1_544
Au3 I2 2.602063 1_455
Au3 I4 3.175106 1_454
Au3 I6 3.175106 1_545
I0 K2 3.710230 1_455
I0 K3 3.754336 1_565
I0 K0 3.933196 1_556
I1 K3 3.710230 1_555
I1 K2 3.754336 1_545
I1 K1 3.933196 1_555
I2 K0 3.710230 1_655
I2 K1 3.754336 1_545
I2 K2 3.933196 1_554
I3 K1 3.710230 1_555
I3 K0 3.754336 1_565
I3 K3 3.933196 1_555
I4 K2 3.741923 1_555
I4 K3 3.825772 1_655
I4 K2 3.925722 1_545
I5 K3 3.741923 1_555
I5 K2 3.825772 1_555
I5 K3 3.925722 1_565
I6 K0 3.741923 1_555
I6 K1 3.825772 1_455
I6 K0 3.925722 1_565
I7 K1 3.741923 1_555
I7 K0 3.825772 1_555
I7 K1 3.925722 1_545
I8 K3 3.667128 1_555
I8 K0 3.752163 1_555
I8 K2 3.813591 1_445
I9 K2 3.667128 1_555
I9 K1 3.752163 1_556
I9 K3 3.813591 1_565
I10 K1 3.667128 1_555
I10 K2 3.752163 1_555
I10 K0 3.813591 1_665
I11 K0 3.667128 1_555
I11 K3 3.752163 1_554
I11 K1 3.813591 1_545
