# generated using pymatgen
data_K3RbSnSe4
_symmetry_space_group_name_H-M   'P 1'
_cell_length_a   8.32608093
_cell_length_b   10.34364772
_cell_length_c   15.14768391
_cell_angle_alpha   90.00000000
_cell_angle_beta   90.00000000
_cell_angle_gamma   90.00000000
_symmetry_Int_Tables_number   1
_chemical_formula_structural   K3RbSnSe4
_chemical_formula_sum   'K12 Rb4 Sn4 Se16'
_cell_volume   1304.54956086
_cell_formula_units_Z   4
loop_
 _symmetry_equiv_pos_site_id
 _symmetry_equiv_pos_as_xyz
  1  'x, y, z'
loop_
 _atom_site_type_symbol
 _atom_site_label
 _atom_site_symmetry_multiplicity
 _atom_site_fract_x
 _atom_site_fract_y
 _atom_site_fract_z
 _atom_site_occupancy
  K  K0  1  0.97743085  0.75000000  0.42413025  1
  K  K1  1  0.47743085  0.25000000  0.07586975  1
  K  K2  1  0.02256915  0.25000000  0.57586975  1
  K  K3  1  0.52256915  0.75000000  0.92413025  1
  K  K4  1  0.83347744  0.05029661  0.26803813  1
  K  K5  1  0.33347744  0.94970339  0.23196187  1
  K  K6  1  0.16652256  0.55029661  0.73196187  1
  K  K7  1  0.66652256  0.44970339  0.76803813  1
  K  K8  1  0.16652256  0.94970339  0.73196187  1
  K  K9  1  0.66652256  0.05029661  0.76803813  1
  K  K10  1  0.83347744  0.44970339  0.26803813  1
  K  K11  1  0.33347744  0.55029661  0.23196187  1
  Rb  Rb0  1  0.00000000  0.00000000  0.00000000  1
  Rb  Rb1  1  0.50000000  0.00000000  0.50000000  1
  Rb  Rb2  1  0.00000000  0.50000000  0.00000000  1
  Rb  Rb3  1  0.50000000  0.50000000  0.50000000  1
  Sn  Sn0  1  0.77266961  0.75000000  0.66964291  1
  Sn  Sn1  1  0.22733039  0.25000000  0.33035709  1
  Sn  Sn2  1  0.72733039  0.75000000  0.16964291  1
  Sn  Sn3  1  0.27266961  0.25000000  0.83035709  1
  Se  Se0  1  0.96710758  0.25000000  0.82129889  1
  Se  Se1  1  0.53289242  0.25000000  0.32129889  1
  Se  Se2  1  0.46710758  0.75000000  0.67870111  1
  Se  Se3  1  0.03289242  0.75000000  0.17870111  1
  Se  Se4  1  0.62970644  0.55172065  0.08967911  1
  Se  Se5  1  0.12970644  0.44827935  0.41032089  1
  Se  Se6  1  0.37029356  0.05172065  0.91032089  1
  Se  Se7  1  0.87029356  0.94827935  0.58967911  1
  Se  Se8  1  0.37029356  0.44827935  0.91032089  1
  Se  Se9  1  0.87029356  0.55172065  0.58967911  1
  Se  Se10  1  0.62970644  0.94827935  0.08967911  1
  Se  Se11  1  0.12970644  0.05172065  0.41032089  1
  Se  Se12  1  0.61397215  0.75000000  0.32718254  1
  Se  Se13  1  0.11397215  0.25000000  0.17281746  1
  Se  Se14  1  0.38602785  0.25000000  0.67281746  1
  Se  Se15  1  0.88602785  0.75000000  0.82718254  1
loop_
_geom_bond_atom_site_label_1
_geom_bond_atom_site_label_2
_geom_bond_distance
_geom_bond_site_symmetry_2
K0 Se7 3.360136 1_555
K0 Se9 3.360136 1_555
K0 Se12 3.363688 1_555
K0 Se11 3.375084 1_665
K0 Se5 3.375084 1_655
K0 Se3 3.746252 1_655
K1 Se8 3.360136 1_554
K1 Se6 3.360136 1_554
K1 Se13 3.363688 1_555
K1 Se4 3.375084 1_555
K1 Se10 3.375084 1_545
K1 Se1 3.746252 1_555
K2 Se5 3.360136 1_555
K2 Se11 3.360136 1_555
K2 Se14 3.363688 1_555
K2 Se9 3.375084 1_455
K2 Se7 3.375084 1_445
K2 Se0 3.746252 1_455
K3 Se10 3.360136 1_556
K3 Se4 3.360136 1_556
K3 Se15 3.363688 1_555
K3 Se6 3.375084 1_565
K3 Se8 3.375084 1_555
K3 Se2 3.746252 1_555
K4 Se11 3.275454 1_655
K4 Se1 3.343850 1_555
K4 Se10 3.360258 1_545
K4 Se13 3.435344 1_655
K4 Sn2 3.556796 1_545
K4 Se12 3.713633 1_545
K4 Se3 3.773099 1_645
K5 Se10 3.275454 1_555
K5 Se3 3.343850 1_555
K5 Se11 3.360258 1_565
K5 Se12 3.435344 1_555
K5 Sn1 3.556796 1_565
K5 Se13 3.713633 1_565
K5 Se1 3.773099 1_565
K6 Se9 3.275454 1_455
K6 Se2 3.343850 1_555
K6 Se8 3.360258 1_555
K6 Se15 3.435344 1_455
K6 Sn3 3.556796 1_555
K6 Se14 3.713633 1_555
K6 Se0 3.773099 1_455
K7 Se8 3.275454 1_555
K7 Se0 3.343850 1_555
K7 Se9 3.360258 1_555
K7 Se14 3.435344 1_555
K7 Sn0 3.556796 1_555
K7 Se15 3.713633 1_555
K7 Se2 3.773099 1_555
K8 Se7 3.275454 1_455
K8 Se2 3.343850 1_555
K8 Se6 3.360258 1_565
K8 Se15 3.435344 1_455
K8 Sn3 3.556796 1_565
K8 Se14 3.713633 1_565
K8 Se0 3.773099 1_465
K9 Se6 3.275454 1_555
K9 Se0 3.343850 1_555
K9 Se7 3.360258 1_545
K9 Se14 3.435344 1_555
K9 Sn0 3.556796 1_545
K9 Se15 3.713633 1_545
K9 Se2 3.773099 1_545
K10 Se5 3.275454 1_655
K10 Se1 3.343850 1_555
K10 Se4 3.360258 1_555
K10 Se13 3.435344 1_655
K10 Sn2 3.556796 1_555
K10 Se12 3.713633 1_555
K10 Se3 3.773099 1_655
K11 Se4 3.275454 1_555
K11 Se3 3.343850 1_555
K11 Se5 3.360258 1_555
K11 Se12 3.435344 1_555
K11 Sn1 3.556796 1_555
K11 Se13 3.713633 1_555
K11 Se1 3.773099 1_555
Rb0 Se6 3.411306 1_554
Rb0 Se10 3.411306 1_445
Rb0 Se3 3.753571 1_545
Rb0 Se0 3.753571 1_454
Rb0 Se13 3.800030 1_555
Rb0 Se15 3.800030 1_444
Rb1 Se7 3.411306 1_545
Rb1 Se11 3.411306 1_555
Rb1 Se2 3.753571 1_545
Rb1 Se1 3.753571 1_555
Rb1 Se14 3.800030 1_555
Rb1 Se12 3.800030 1_545
Rb2 Se8 3.411306 1_554
Rb2 Se4 3.411306 1_455
Rb2 Se3 3.753571 1_555
Rb2 Se0 3.753571 1_454
Rb2 Se13 3.800030 1_555
Rb2 Se15 3.800030 1_454
Rb3 Se9 3.411306 1_555
Rb3 Se5 3.411306 1_555
Rb3 Se2 3.753571 1_555
Rb3 Se1 3.753571 1_555
Rb3 Se14 3.800030 1_555
Rb3 Se12 3.800030 1_555
Se0 Sn3 2.547832 1_655
Se1 Sn1 2.547832 1_555
Se2 Sn0 2.547832 1_555
Se3 Sn2 2.547832 1_455
Se4 Sn2 2.516778 1_555
Se5 Sn1 2.516778 1_555
Se6 Sn3 2.516778 1_555
Se7 Sn0 2.516778 1_555
Se8 Sn3 2.516778 1_555
Se9 Sn0 2.516778 1_555
Se10 Sn2 2.516778 1_555
Se11 Sn1 2.516778 1_555
Se12 Sn2 2.566229 1_555
Se13 Sn1 2.566229 1_555
Se14 Sn3 2.566229 1_555
Se15 Sn0 2.566229 1_555
