# generated using pymatgen
data_SrMnP2Rh
_symmetry_space_group_name_H-M   'P 1'
_cell_length_a   6.62313820
_cell_length_b   6.62313819
_cell_length_c   6.62313895
_cell_angle_alpha   145.34532071
_cell_angle_beta   145.34532051
_cell_angle_gamma   49.82021786
_symmetry_Int_Tables_number   1
_chemical_formula_structural   SrMnP2Rh
_chemical_formula_sum   'Sr1 Mn1 P2 Rh1'
_cell_volume   93.49370909
_cell_formula_units_Z   1
loop_
 _symmetry_equiv_pos_site_id
 _symmetry_equiv_pos_as_xyz
  1  'x, y, z'
loop_
 _atom_site_type_symbol
 _atom_site_label
 _atom_site_symmetry_multiplicity
 _atom_site_fract_x
 _atom_site_fract_y
 _atom_site_fract_z
 _atom_site_occupancy
  Sr  Sr0  1  0.00000000  0.00000000  0.00000000  1
  Mn  Mn0  1  0.25000000  0.75000000  0.50000000  1
  P  P0  1  0.64227380  0.64227380  1.00000000  1
  P  P1  1  0.35772620  0.35772620  0.00000000  1
  Rh  Rh0  1  0.75000000  0.25000000  0.50000000  1
loop_
_geom_bond_atom_site_label_1
_geom_bond_atom_site_label_2
_geom_bond_distance
_geom_bond_site_symmetry_2
Mn0 P1 2.359246 1_566
Mn0 P0 2.359246 1_454
Mn0 P1 2.359247 1_555
Mn0 P0 2.359247 1_555
Mn0 Rh0 2.789638 1_555
Mn0 Rh0 2.789638 1_465
Mn0 Rh0 2.789638 1_454
Mn0 Rh0 2.789638 1_566
P0 Rh0 2.359246 1_566
P0 Rh0 2.359247 1_555
P0 Sr0 3.271650 1_555
P0 Sr0 3.271651 1_656
P0 Sr0 3.271651 1_566
P0 Sr0 3.271651 1_667
P1 Rh0 2.359246 1_454
P1 Rh0 2.359247 1_555
P1 Sr0 3.271650 1_666
P1 Sr0 3.271651 1_565
P1 Sr0 3.271651 1_655
P1 Sr0 3.271651 1_554
