# generated using pymatgen
data_BaCaLaBiO6
_symmetry_space_group_name_H-M   'P 1'
_cell_length_a   6.08527893
_cell_length_b   6.08527893
_cell_length_c   6.08527893
_cell_angle_alpha   60.00000000
_cell_angle_beta   60.00000000
_cell_angle_gamma   60.00000000
_symmetry_Int_Tables_number   1
_chemical_formula_structural   BaCaLaBiO6
_chemical_formula_sum   'Ba1 Ca1 La1 Bi1 O6'
_cell_volume   159.34060884
_cell_formula_units_Z   1
loop_
 _symmetry_equiv_pos_site_id
 _symmetry_equiv_pos_as_xyz
  1  'x, y, z'
loop_
 _atom_site_type_symbol
 _atom_site_label
 _atom_site_symmetry_multiplicity
 _atom_site_fract_x
 _atom_site_fract_y
 _atom_site_fract_z
 _atom_site_occupancy
  Ba  Ba0  1  0.75000000  0.75000000  0.75000000  1
  Ca  Ca0  1  0.50000000  0.50000000  0.50000000  1
  La  La0  1  0.25000000  0.25000000  0.25000000  1
  Bi  Bi0  1  0.00000000  0.00000000  0.00000000  1
  O  O0  1  0.24307100  0.24307100  0.75692900  1
  O  O1  1  0.75692900  0.24307100  0.24307100  1
  O  O2  1  0.24307100  0.75692900  0.24307100  1
  O  O3  1  0.75692900  0.24307100  0.75692900  1
  O  O4  1  0.24307100  0.75692900  0.75692900  1
  O  O5  1  0.75692900  0.75692900  0.24307100  1
loop_
_geom_bond_atom_site_label_1
_geom_bond_atom_site_label_2
_geom_bond_distance
_geom_bond_site_symmetry_2
Ba0 O3 3.043224 1_565
Ba0 O5 3.043224 1_556
Ba0 O4 3.043224 1_655
Ba0 O2 3.043224 1_655
Ba0 O2 3.043224 1_556
Ba0 O0 3.043224 1_655
Ba0 O1 3.043224 1_556
Ba0 O0 3.043224 1_565
Ba0 O1 3.043224 1_565
Ba0 O5 3.043224 1_555
Ba0 O3 3.043224 1_555
Ba0 O4 3.043224 1_555
Ca0 O4 2.211101 1_555
Ca0 O5 2.211101 1_555
Ca0 O3 2.211101 1_555
Ca0 O1 2.211101 1_555
Ca0 O0 2.211101 1_555
Ca0 O2 2.211101 1_555
La0 O2 3.043224 1_555
La0 O1 3.043224 1_555
La0 O0 3.043224 1_555
La0 O3 3.043224 1_554
La0 O4 3.043224 1_554
La0 O5 3.043224 1_545
La0 O5 3.043224 1_455
La0 O4 3.043224 1_545
La0 O3 3.043224 1_455
La0 O0 3.043224 1_554
La0 O2 3.043224 1_545
La0 O1 3.043224 1_455
Bi0 O0 2.091841 1_554
Bi0 O2 2.091841 1_545
Bi0 O1 2.091841 1_455
Bi0 O4 2.091841 1_544
Bi0 O5 2.091841 1_445
Bi0 O3 2.091841 1_454
