# generated using pymatgen
data_Ta3Ti2MnRu6
_symmetry_space_group_name_H-M   'P 1'
_cell_length_a   4.40084840
_cell_length_b   6.22053896
_cell_length_c   13.19416143
_cell_angle_alpha   90.00000000
_cell_angle_beta   90.00040476
_cell_angle_gamma   90.00000000
_symmetry_Int_Tables_number   1
_chemical_formula_structural   Ta3Ti2MnRu6
_chemical_formula_sum   'Ta6 Ti4 Mn2 Ru12'
_cell_volume   361.19873109
_cell_formula_units_Z   2
loop_
 _symmetry_equiv_pos_site_id
 _symmetry_equiv_pos_as_xyz
  1  'x, y, z'
loop_
 _atom_site_type_symbol
 _atom_site_label
 _atom_site_symmetry_multiplicity
 _atom_site_fract_x
 _atom_site_fract_y
 _atom_site_fract_z
 _atom_site_occupancy
  Ta  Ta0  1  0.99998626  0.50000000  0.99503288  1
  Ta  Ta1  1  0.49995754  0.00000000  0.16655686  1
  Ta  Ta2  1  0.99995167  0.50000000  0.33343797  1
  Ta  Ta3  1  0.49998611  0.00000000  0.50496903  1
  Ta  Ta4  1  0.00003044  0.50000000  0.67234890  1
  Ta  Ta5  1  0.50003629  0.00000000  0.82766215  1
  Ti  Ti0  1  0.00000199  0.00000000  0.99810742  1
  Ti  Ti1  1  0.49996858  0.50000000  0.16575755  1
  Ti  Ti2  1  0.99996840  0.00000000  0.33422148  1
  Ti  Ti3  1  0.50000160  0.50000000  0.50189433  1
  Mn  Mn0  1  0.00002809  0.00000000  0.66665983  1
  Mn  Mn1  1  0.50001789  0.50000000  0.83332992  1
  Ru  Ru0  1  0.49999620  0.24675113  0.00214809  1
  Ru  Ru1  1  0.49999620  0.75324887  0.00214809  1
  Ru  Ru2  1  0.99997272  0.25001423  0.16631560  1
  Ru  Ru3  1  0.99997272  0.74998677  0.16631560  1
  Ru  Ru4  1  0.49997523  0.24998704  0.33366539  1
  Ru  Ru5  1  0.49997523  0.75001296  0.33366539  1
  Ru  Ru6  1  0.99999816  0.25324899  0.49785338  1
  Ru  Ru7  1  0.99999816  0.74675101  0.49785338  1
  Ru  Ru8  1  0.50004471  0.25374990  0.66380214  1
  Ru  Ru9  1  0.50004471  0.74625010  0.66380214  1
  Ru  Ru10  1  0.00004555  0.24624749  0.83622772  1
  Ru  Ru11  1  0.00004555  0.75375351  0.83622772  1
loop_
_geom_bond_atom_site_label_1
_geom_bond_atom_site_label_2
_geom_bond_distance
_geom_bond_site_symmetry_2
Mn0 Ru9 2.708229 1_445
Mn0 Ru8 2.708229 1_455
Mn0 Ru9 2.708348 1_545
Mn0 Ru8 2.708348 1_555
Mn0 Ru11 2.711440 1_545
Mn0 Ru10 2.711443 1_555
Mn0 Ru6 2.728076 1_455
Mn0 Ru7 2.728076 1_445
Mn1 Ru10 2.708207 1_555
Mn1 Ru11 2.708211 1_555
Mn1 Ru10 2.708404 1_655
Mn1 Ru11 2.708408 1_655
Mn1 Ru8 2.711016 1_555
Mn1 Ru9 2.711016 1_555
Mn1 Ru1 2.728202 1_556
Mn1 Ru0 2.728202 1_556
Ru0 Ta1 2.657363 1_555
Ru0 Ti1 2.672387 1_555
Ru0 Ti0 2.683391 1_554
Ru0 Ti0 2.683434 1_654
Ru0 Ta0 2.707804 1_554
Ru0 Ta0 2.707874 1_454
Ru0 Ta5 2.766966 1_554
Ru1 Ta1 2.657363 1_565
Ru1 Ti1 2.672387 1_555
Ru1 Ti0 2.683391 1_564
Ru1 Ti0 2.683434 1_664
Ru1 Ta0 2.707804 1_554
Ru1 Ta0 2.707874 1_454
Ru1 Ta5 2.766966 1_564
Ru2 Ti1 2.694441 1_655
Ru2 Ti1 2.694470 1_555
Ru2 Ta1 2.694495 1_655
Ru2 Ta1 2.694604 1_555
Ru2 Ta2 2.698216 1_555
Ru2 Ti2 2.706772 1_555
Ru2 Ti0 2.710038 1_654
Ru2 Ta0 2.743257 1_554
Ru3 Ti1 2.694444 1_655
Ru3 Ti1 2.694474 1_555
Ru3 Ta1 2.694491 1_665
Ru3 Ta1 2.694600 1_565
Ru3 Ta2 2.698219 1_555
Ru3 Ti2 2.706769 1_565
Ru3 Ti0 2.710034 1_664
Ru3 Ta0 2.743261 1_554
Ru4 Ti2 2.694435 1_555
Ru4 Ta2 2.694460 1_555
Ru4 Ti2 2.694484 1_455
Ru4 Ta2 2.694629 1_455
Ru4 Ta1 2.698071 1_555
Ru4 Ti1 2.706789 1_555
Ru4 Ti3 2.710257 1_555
Ru4 Ta3 2.743489 1_555
Ru5 Ti2 2.694435 1_565
Ru5 Ta2 2.694460 1_555
Ru5 Ti2 2.694484 1_465
Ru5 Ta2 2.694629 1_455
Ru5 Ta1 2.698071 1_565
Ru5 Ti1 2.706789 1_555
Ru5 Ti3 2.710257 1_555
Ru5 Ta3 2.743489 1_565
Ru6 Ta2 2.657434 1_555
Ru6 Ti2 2.672626 1_555
Ru6 Ti3 2.683400 1_555
Ru6 Ti3 2.683424 1_655
Ru6 Ta3 2.707796 1_655
Ru6 Ta3 2.707883 1_555
Ru6 Ta4 2.767071 1_655
Ru7 Ta2 2.657434 1_555
Ru7 Ti2 2.672626 1_565
Ru7 Ti3 2.683400 1_555
Ru7 Ti3 2.683424 1_655
Ru7 Ta3 2.707796 1_665
Ru7 Ta3 2.707883 1_565
Ru7 Ta4 2.767071 1_655
Ru8 Ta3 2.623618 1_555
Ru8 Ti3 2.628678 1_555
Ru8 Ta5 2.676894 1_555
Ru8 Ta4 2.683419 1_655
Ru8 Ta4 2.683524 1_555
Ru9 Ta3 2.623618 1_565
Ru9 Ti3 2.628678 1_555
Ru9 Ta5 2.676894 1_565
Ru9 Ta4 2.683419 1_655
Ru9 Ta4 2.683524 1_555
Ru10 Ta0 2.623333 1_455
Ru10 Ti0 2.628367 1_555
Ru10 Ta4 2.677104 1_555
Ru10 Ta5 2.683440 1_555
Ru10 Ta5 2.683506 1_455
Ru11 Ta0 2.623337 1_455
Ru11 Ti0 2.628364 1_565
Ru11 Ta4 2.677108 1_555
Ru11 Ta5 2.683436 1_565
Ru11 Ta5 2.683502 1_465
