# generated using pymatgen
data_Li3Hf(Ta2N3)4
_symmetry_space_group_name_H-M   'P 1'
_cell_length_a   5.22596104
_cell_length_b   5.22595972
_cell_length_c   10.36012416
_cell_angle_alpha   90.00000000
_cell_angle_beta   90.00000000
_cell_angle_gamma   120.00000215
_symmetry_Int_Tables_number   1
_chemical_formula_structural   Li3Hf(Ta2N3)4
_chemical_formula_sum   'Li3 Hf1 Ta8 N12'
_cell_volume   245.03482295
_cell_formula_units_Z   1
loop_
 _symmetry_equiv_pos_site_id
 _symmetry_equiv_pos_as_xyz
  1  'x, y, z'
loop_
 _atom_site_type_symbol
 _atom_site_label
 _atom_site_symmetry_multiplicity
 _atom_site_fract_x
 _atom_site_fract_y
 _atom_site_fract_z
 _atom_site_occupancy
  Li  Li0  1  0.33333300  0.66666700  0.50000000  1
  Li  Li1  1  0.66666700  0.33333300  0.50000000  1
  Li  Li2  1  0.66666700  0.33333300  0.00000000  1
  Hf  Hf0  1  0.33333300  0.66666700  0.00000000  1
  Ta  Ta0  1  0.99703376  0.34110345  0.25268857  1
  Ta  Ta1  1  0.65889655  0.00296624  0.74731143  1
  Ta  Ta2  1  0.34406969  0.34110345  0.74731143  1
  Ta  Ta3  1  0.00000000  0.00000000  0.50000000  1
  Ta  Ta4  1  0.00000000  0.00000000  0.00000000  1
  Ta  Ta5  1  0.65889655  0.65593031  0.25268857  1
  Ta  Ta6  1  0.34406969  0.00296624  0.25268857  1
  Ta  Ta7  1  0.99703376  0.65593031  0.74731143  1
  N  N0  1  0.67664532  0.67782451  0.62298342  1
  N  N1  1  0.67337092  0.67094528  0.87915059  1
  N  N2  1  0.32905472  0.32662908  0.12084941  1
  N  N3  1  0.32217549  0.32335468  0.37701658  1
  N  N4  1  0.32905472  0.00242564  0.87915059  1
  N  N5  1  0.32217549  0.99882081  0.62298342  1
  N  N6  1  0.00117919  0.67782451  0.37701658  1
  N  N7  1  0.99757436  0.67094528  0.12084941  1
  N  N8  1  0.67337092  0.00242564  0.12084941  1
  N  N9  1  0.67664532  0.99882081  0.37701658  1
  N  N10  1  0.99757436  0.32662908  0.87915059  1
  N  N11  1  0.00117919  0.32335468  0.62298342  1
loop_
_geom_bond_atom_site_label_1
_geom_bond_atom_site_label_2
_geom_bond_distance
_geom_bond_site_symmetry_2
Li0 N5 2.177403 1_555
Li0 N6 2.177403 1_555
Li0 N11 2.177405 1_555
Li0 N9 2.177405 1_555
Li0 N3 2.177407 1_555
Li0 N0 2.177408 1_555
Li1 N9 2.184786 1_545
Li1 N11 2.184786 1_655
Li1 N6 2.184788 1_655
Li1 N5 2.184788 1_545
Li1 N0 2.184790 1_555
Li1 N3 2.184790 1_555
Li2 N8 2.149386 1_555
Li2 N10 2.149387 1_554
Li2 N7 2.149389 1_555
Li2 N4 2.149389 1_554
Li2 N1 2.149391 1_554
Li2 N2 2.149391 1_555
Hf0 N4 2.164742 1_564
Hf0 N7 2.164742 1_455
Hf0 N10 2.164744 1_454
Hf0 N8 2.164744 1_565
Hf0 N2 2.164746 1_555
Hf0 N1 2.164747 1_554
N0 Ta3 2.113899 1_665
N0 Ta7 2.160360 1_555
N0 Ta1 2.170828 1_565
N0 Ta2 2.172082 1_555
N1 Ta4 2.122032 1_666
N1 Ta2 2.198186 1_555
N1 Ta7 2.205784 1_555
N1 Ta1 2.239027 1_565
N2 Ta4 2.122032 1_555
N2 Ta5 2.198186 1_555
N2 Ta6 2.205784 1_555
N2 Ta0 2.239027 1_455
N3 Ta3 2.113899 1_555
N3 Ta6 2.160360 1_555
N3 Ta0 2.170829 1_455
N3 Ta5 2.172082 1_555
N4 Ta4 2.122032 1_556
N4 Ta1 2.198186 1_555
N4 Ta2 2.205784 1_555
N4 Ta7 2.239027 1_445
N5 Ta3 2.113899 1_565
N5 Ta2 2.160359 1_565
N5 Ta7 2.170829 1_455
N5 Ta1 2.172083 1_565
N6 Ta3 2.113899 1_565
N6 Ta5 2.160360 1_455
N6 Ta6 2.170829 1_565
N6 Ta0 2.172082 1_455
N7 Ta4 2.122032 1_665
N7 Ta0 2.198185 1_555
N7 Ta5 2.205784 1_555
N7 Ta6 2.239027 1_665
N8 Ta4 2.122032 1_655
N8 Ta6 2.198186 1_555
N8 Ta0 2.205784 1_555
N8 Ta5 2.239027 1_545
N9 Ta3 2.113899 1_665
N9 Ta0 2.160360 1_565
N9 Ta5 2.170828 1_555
N9 Ta6 2.172083 1_565
N10 Ta4 2.122032 1_656
N10 Ta7 2.198185 1_555
N10 Ta1 2.205784 1_555
N10 Ta2 2.239027 1_655
N11 Ta3 2.113899 1_555
N11 Ta1 2.160360 1_455
N11 Ta2 2.170829 1_555
N11 Ta7 2.172082 1_455
