# generated using pymatgen
data_CaY(Si7Ir3)2
_symmetry_space_group_name_H-M   'P 1'
_cell_length_a   7.99438552
_cell_length_b   7.99438597
_cell_length_c   7.99438468
_cell_angle_alpha   56.77169532
_cell_angle_beta   56.77169439
_cell_angle_gamma   56.77169226
_symmetry_Int_Tables_number   1
_chemical_formula_structural   CaY(Si7Ir3)2
_chemical_formula_sum   'Ca1 Y1 Si14 Ir6'
_cell_volume   334.35436042
_cell_formula_units_Z   1
loop_
 _symmetry_equiv_pos_site_id
 _symmetry_equiv_pos_as_xyz
  1  'x, y, z'
loop_
 _atom_site_type_symbol
 _atom_site_label
 _atom_site_symmetry_multiplicity
 _atom_site_fract_x
 _atom_site_fract_y
 _atom_site_fract_z
 _atom_site_occupancy
  Ca  Ca0  1  0.50000000  0.50000000  0.50000000  1
  Y  Y0  1  0.00000000  0.00000000  0.00000000  1
  Si  Si0  1  0.06425964  0.84894671  0.67329344  1
  Si  Si1  1  0.67329344  0.06425964  0.84894671  1
  Si  Si2  1  0.84894671  0.67329344  0.06425964  1
  Si  Si3  1  0.17455858  0.35148163  0.56324483  1
  Si  Si4  1  0.56324483  0.17455858  0.35148163  1
  Si  Si5  1  0.35148163  0.56324483  0.17455858  1
  Si  Si6  1  0.93574036  0.15105329  0.32670656  1
  Si  Si7  1  0.32670656  0.93574036  0.15105329  1
  Si  Si8  1  0.15105329  0.32670656  0.93574036  1
  Si  Si9  1  0.82544142  0.64851837  0.43675517  1
  Si  Si10  1  0.43675517  0.82544142  0.64851837  1
  Si  Si11  1  0.64851837  0.43675517  0.82544142  1
  Si  Si12  1  0.75006769  0.75006769  0.75006769  1
  Si  Si13  1  0.24993231  0.24993231  0.24993231  1
  Ir  Ir0  1  0.06903257  0.75181576  0.42743852  1
  Ir  Ir1  1  0.42743852  0.06903257  0.75181576  1
  Ir  Ir2  1  0.75181576  0.42743852  0.06903257  1
  Ir  Ir3  1  0.93096743  0.24818424  0.57256148  1
  Ir  Ir4  1  0.57256148  0.93096743  0.24818424  1
  Ir  Ir5  1  0.24818424  0.57256148  0.93096743  1
loop_
_geom_bond_atom_site_label_1
_geom_bond_atom_site_label_2
_geom_bond_distance
_geom_bond_site_symmetry_2
Ca0 Ir5 3.093305 1_555
Ca0 Ir2 3.093305 1_555
Ca0 Ir3 3.093305 1_555
Ca0 Ir0 3.093305 1_555
Ca0 Ir4 3.093306 1_555
Ca0 Ir1 3.093306 1_555
Ca0 Si11 3.117706 1_555
Ca0 Si5 3.117706 1_555
Ca0 Si10 3.117706 1_555
Ca0 Si4 3.117706 1_555
Ca0 Si9 3.117706 1_555
Ca0 Si3 3.117706 1_555
Ca0 Si1 3.183134 1_555
Ca0 Si7 3.183134 1_555
Ca0 Si0 3.183134 1_555
Ca0 Si6 3.183134 1_555
Ca0 Si8 3.183134 1_555
Ca0 Si2 3.183134 1_555
Si0 Y0 3.138470 1_566
Si1 Y0 3.138470 1_656
Si2 Y0 3.138471 1_665
Si3 Y0 3.199855 1_556
Si4 Y0 3.199855 1_655
Si5 Y0 3.199855 1_565
Si6 Y0 3.138470 1_655
Si7 Y0 3.138470 1_565
Si8 Y0 3.138471 1_556
Si9 Y0 3.199855 1_665
Si10 Y0 3.199855 1_566
Si11 Y0 3.199855 1_656
Ir0 Si12 2.438518 1_455
Ir0 Si9 2.452708 1_455
Ir0 Si0 2.454669 1_555
Ir0 Si7 2.461316 1_555
Ir0 Si5 2.462668 1_555
Ir0 Si6 2.523280 1_465
Ir0 Si3 2.523857 1_555
Ir0 Y0 3.058454 1_565
Ir1 Si12 2.438518 1_545
Ir1 Si10 2.452708 1_545
Ir1 Si1 2.454670 1_555
Ir1 Si8 2.461316 1_555
Ir1 Si3 2.462668 1_555
Ir1 Si7 2.523279 1_546
Ir1 Si4 2.523856 1_555
Ir1 Y0 3.058454 1_556
Ir2 Si12 2.438518 1_554
Ir2 Si11 2.452708 1_554
Ir2 Si2 2.454670 1_555
Ir2 Si6 2.461316 1_555
Ir2 Si4 2.462668 1_555
Ir2 Si8 2.523280 1_654
Ir2 Si5 2.523857 1_555
Ir2 Y0 3.058454 1_655
Ir3 Si13 2.438518 1_655
Ir3 Si3 2.452708 1_655
Ir3 Si6 2.454669 1_555
Ir3 Si1 2.461316 1_555
Ir3 Si11 2.462668 1_555
Ir3 Si0 2.523280 1_645
Ir3 Si9 2.523857 1_555
Ir3 Y0 3.058454 1_656
Ir4 Si13 2.438518 1_565
Ir4 Si4 2.452708 1_565
Ir4 Si7 2.454670 1_555
Ir4 Si2 2.461316 1_555
Ir4 Si9 2.462668 1_555
Ir4 Si1 2.523279 1_564
Ir4 Si10 2.523856 1_555
Ir4 Y0 3.058454 1_665
Ir5 Si13 2.438518 1_556
Ir5 Si5 2.452708 1_556
Ir5 Si8 2.454670 1_555
Ir5 Si0 2.461316 1_555
Ir5 Si10 2.462668 1_555
Ir5 Si2 2.523280 1_456
Ir5 Si11 2.523857 1_555
Ir5 Y0 3.058454 1_566
