# generated using pymatgen
data_V3GaTcS8
_symmetry_space_group_name_H-M   'P 1'
_cell_length_a   6.89605957
_cell_length_b   6.89605905
_cell_length_c   6.80913631
_cell_angle_alpha   59.57681016
_cell_angle_beta   59.57680850
_cell_angle_gamma   60.00000227
_symmetry_Int_Tables_number   1
_chemical_formula_structural   V3GaTcS8
_chemical_formula_sum   'V3 Ga1 Tc1 S8'
_cell_volume   227.49466606
_cell_formula_units_Z   1
loop_
 _symmetry_equiv_pos_site_id
 _symmetry_equiv_pos_as_xyz
  1  'x, y, z'
loop_
 _atom_site_type_symbol
 _atom_site_label
 _atom_site_symmetry_multiplicity
 _atom_site_fract_x
 _atom_site_fract_y
 _atom_site_fract_z
 _atom_site_occupancy
  V  V0  1  0.60914302  0.18333329  0.59838166  1
  V  V1  1  0.18333329  0.60914302  0.59838166  1
  V  V2  1  0.60914302  0.60914302  0.59838166  1
  Ga  Ga0  1  0.00220049  0.00220049  0.99339853  1
  Tc  Tc0  1  0.60162066  0.60162066  0.19513903  1
  S  S0  1  0.86543035  0.86543035  0.40370895  1
  S  S1  1  0.86165234  0.40895257  0.86774276  1
  S  S2  1  0.40895257  0.86165234  0.86774276  1
  S  S3  1  0.86165234  0.86165234  0.86774276  1
  S  S4  1  0.37353266  0.37353266  0.87940103  1
  S  S5  1  0.36667974  0.36667974  0.37665974  1
  S  S6  1  0.88997978  0.36667974  0.37665974  1
  S  S7  1  0.36667974  0.88997978  0.37665974  1
loop_
_geom_bond_atom_site_label_1
_geom_bond_atom_site_label_2
_geom_bond_distance
_geom_bond_site_symmetry_2
Ga0 S0 2.266476 1_446
Ga0 S1 2.286920 1_455
Ga0 S3 2.286920 1_445
Ga0 S2 2.286921 1_545
S0 V2 2.526381 1_555
S0 V0 2.526387 1_565
S0 V1 2.526387 1_655
S1 Tc0 2.553277 1_556
S1 V2 2.562865 1_555
S1 V1 2.562870 1_655
S2 Tc0 2.553277 1_556
S2 V2 2.562865 1_555
S2 V0 2.562870 1_565
S3 Tc0 2.553273 1_556
S3 V1 2.562866 1_655
S3 V0 2.562866 1_565
S4 V0 2.298647 1_555
S4 V1 2.298647 1_555
S4 V2 2.298656 1_555
S5 V1 2.276600 1_555
S5 V0 2.276600 1_555
S5 Tc0 2.312215 1_555
S6 V0 2.276589 1_555
S6 V2 2.276598 1_555
S6 Tc0 2.312204 1_555
S7 V1 2.276589 1_555
S7 V2 2.276598 1_555
S7 Tc0 2.312204 1_555
