# generated using pymatgen
data_K8TiP4
_symmetry_space_group_name_H-M   'P 1'
_cell_length_a   10.58671570
_cell_length_b   10.58671564
_cell_length_c   10.58671648
_cell_angle_alpha   60.00000353
_cell_angle_beta   60.00000371
_cell_angle_gamma   60.00000229
_symmetry_Int_Tables_number   1
_chemical_formula_structural   K8TiP4
_chemical_formula_sum   'K16 Ti2 P8'
_cell_volume   839.01324061
_cell_formula_units_Z   2
loop_
 _symmetry_equiv_pos_site_id
 _symmetry_equiv_pos_as_xyz
  1  'x, y, z'
loop_
 _atom_site_type_symbol
 _atom_site_label
 _atom_site_symmetry_multiplicity
 _atom_site_fract_x
 _atom_site_fract_y
 _atom_site_fract_z
 _atom_site_occupancy
  K  K0  1  0.62500000  0.62500000  0.12500000  1
  K  K1  1  0.62500000  0.12500000  0.62500000  1
  K  K2  1  0.12500000  0.62500000  0.62500000  1
  K  K3  1  0.62500000  0.62500000  0.62500000  1
  K  K4  1  0.02721543  0.47278457  0.47278457  1
  K  K5  1  0.77721543  0.22278457  0.22278457  1
  K  K6  1  0.47278457  0.02721543  0.47278457  1
  K  K7  1  0.47278457  0.47278457  0.02721543  1
  K  K8  1  0.02721543  0.02721543  0.47278457  1
  K  K9  1  0.02721543  0.47278457  0.02721543  1
  K  K10  1  0.47278457  0.02721543  0.02721543  1
  K  K11  1  0.77721543  0.22278457  0.77721543  1
  K  K12  1  0.22278457  0.77721543  0.22278457  1
  K  K13  1  0.22278457  0.22278457  0.77721543  1
  K  K14  1  0.77721543  0.77721543  0.22278457  1
  K  K15  1  0.22278457  0.77721543  0.77721543  1
  Ti  Ti0  1  0.75000000  0.75000000  0.75000000  1
  Ti  Ti1  1  0.50000000  0.50000000  0.50000000  1
  P  P0  1  0.84555253  0.84555253  0.46334342  1
  P  P1  1  0.84555253  0.46334342  0.84555253  1
  P  P2  1  0.40444747  0.40444747  0.78665658  1
  P  P3  1  0.40444747  0.78665658  0.40444747  1
  P  P4  1  0.78665658  0.40444747  0.40444747  1
  P  P5  1  0.84555253  0.84555253  0.84555253  1
  P  P6  1  0.46334342  0.84555253  0.84555253  1
  P  P7  1  0.40444747  0.40444747  0.40444747  1
loop_
_geom_bond_atom_site_label_1
_geom_bond_atom_site_label_2
_geom_bond_distance
_geom_bond_site_symmetry_2
K0 Ti1 3.241507 1_555
K0 Ti0 3.241507 1_554
K0 P4 3.360429 1_555
K0 P6 3.360429 1_554
K0 P3 3.360429 1_555
K0 P1 3.360429 1_554
K0 P5 3.360435 1_554
K0 P7 3.360435 1_555
K1 Ti0 3.241507 1_545
K1 Ti1 3.241507 1_555
K1 P4 3.360429 1_555
K1 P6 3.360429 1_545
K1 P2 3.360429 1_555
K1 P0 3.360429 1_545
K1 P5 3.360435 1_545
K1 P7 3.360435 1_555
K2 Ti0 3.241507 1_455
K2 Ti1 3.241507 1_555
K2 P3 3.360429 1_555
K2 P1 3.360429 1_455
K2 P2 3.360429 1_555
K2 P0 3.360429 1_455
K2 P5 3.360435 1_455
K2 P7 3.360435 1_555
K3 Ti0 3.241506 1_555
K3 Ti1 3.241506 1_555
K3 P0 3.360437 1_555
K3 P2 3.360437 1_555
K3 P6 3.360437 1_555
K3 P4 3.360437 1_555
K3 P1 3.360437 1_555
K3 P3 3.360437 1_555
K4 P0 3.389802 1_455
K4 P1 3.389802 1_455
K4 P7 3.426500 1_555
K4 P4 3.426510 1_455
K5 P4 3.389793 1_555
K5 P7 3.389799 1_555
K5 P0 3.426503 1_545
K5 P1 3.426503 1_554
K6 P0 3.389802 1_545
K6 P6 3.389802 1_545
K6 P7 3.426500 1_555
K6 P3 3.426510 1_545
K7 P6 3.389802 1_554
K7 P1 3.389802 1_554
K7 P7 3.426500 1_555
K7 P2 3.426510 1_554
K8 P0 3.389793 1_445
K8 P5 3.389799 1_445
K8 P4 3.426503 1_455
K8 P3 3.426503 1_545
K9 P1 3.389793 1_454
K9 P5 3.389799 1_454
K9 P2 3.426503 1_554
K9 P4 3.426503 1_455
K10 P6 3.389793 1_544
K10 P5 3.389799 1_544
K10 P2 3.426503 1_554
K10 P3 3.426503 1_545
K11 P2 3.389802 1_555
K11 P4 3.389802 1_555
K11 P5 3.426500 1_545
K11 P1 3.426510 1_555
K12 P3 3.389793 1_555
K12 P7 3.389799 1_555
K12 P0 3.426503 1_455
K12 P6 3.426503 1_554
K13 P2 3.389793 1_555
K13 P7 3.389799 1_555
K13 P6 3.426503 1_545
K13 P1 3.426503 1_455
K14 P4 3.389802 1_555
K14 P3 3.389802 1_555
K14 P5 3.426500 1_554
K14 P0 3.426510 1_555
K15 P2 3.389802 1_555
K15 P3 3.389802 1_555
K15 P5 3.426500 1_455
K15 P6 3.426510 1_555
P0 Ti0 2.477865 1_555
P1 Ti0 2.477864 1_555
P2 Ti1 2.477865 1_555
P3 Ti1 2.477864 1_555
P4 Ti1 2.477864 1_555
P5 Ti0 2.477873 1_555
P6 Ti0 2.477864 1_555
P7 Ti1 2.477873 1_555
