# generated using pymatgen
data_Ta6Re5Si6W
_symmetry_space_group_name_H-M   'P 1'
_cell_length_a   7.52572329
_cell_length_b   7.53487674
_cell_length_c   7.53487699
_cell_angle_alpha   127.07333165
_cell_angle_beta   124.94605231
_cell_angle_gamma   79.91211480
_symmetry_Int_Tables_number   1
_chemical_formula_structural   Ta6Re5Si6W
_chemical_formula_sum   'Ta6 Re5 Si6 W1'
_cell_volume   269.81206385
_cell_formula_units_Z   1
loop_
 _symmetry_equiv_pos_site_id
 _symmetry_equiv_pos_as_xyz
  1  'x, y, z'
loop_
 _atom_site_type_symbol
 _atom_site_label
 _atom_site_symmetry_multiplicity
 _atom_site_fract_x
 _atom_site_fract_y
 _atom_site_fract_z
 _atom_site_occupancy
  Ta  Ta0  1  0.55525646  0.09626851  0.03969928  1
  Ta  Ta1  1  0.44474354  0.48444282  0.54101305  1
  Ta  Ta2  1  0.96051963  0.49584820  0.03171233  1
  Ta  Ta3  1  0.03948037  0.07119371  0.53532857  1
  Ta  Ta4  1  0.75224787  0.91292792  0.65832713  1
  Ta  Ta5  1  0.24775213  0.90607827  0.16067905  1
  Re  Re0  1  0.00000000  0.24505949  0.24505949  1
  Re  Re1  1  0.15929138  0.75058071  0.65477154  1
  Re  Re2  1  0.84070862  0.49548016  0.59128833  1
  Re  Re3  1  0.59441064  0.75191372  0.09054042  1
  Re  Re4  1  0.40558936  0.49612979  0.15750309  1
  Si  Si0  1  0.77538921  0.53551831  0.26158383  1
  Si  Si1  1  0.22461079  0.48619462  0.76013010  1
  Si  Si2  1  0.33602904  0.82265744  0.49599361  1
  Si  Si3  1  0.66397096  0.15996457  0.48662840  1
  Si  Si4  1  0.82758948  0.82546277  0.98876465  1
  Si  Si5  1  0.17241052  0.16117517  0.99787329  1
  W  W0  1  0.50000000  0.24529982  0.74529982  1
loop_
_geom_bond_atom_site_label_1
_geom_bond_atom_site_label_2
_geom_bond_distance
_geom_bond_site_symmetry_2
Ta0 W0 2.852635 1_554
Ta1 W0 2.852628 1_555
Ta2 W0 3.007362 1_554
Ta3 W0 3.007360 1_555
Ta4 W0 2.843603 1_565
Ta5 W0 2.843608 1_565
Re0 Si0 2.505841 1_455
Re0 Si1 2.505847 1_555
Re0 Si4 2.571751 1_444
Re0 Si5 2.571751 1_554
Re0 Ta4 2.852415 1_444
Re0 Ta5 2.852420 1_545
Re0 Ta1 2.853688 1_555
Re0 Ta0 2.853690 1_455
Re0 Re2 2.942557 1_455
Re0 Re1 2.942562 1_555
Re0 Ta3 3.026861 1_555
Re0 Ta2 3.026868 1_455
Re1 Si0 2.407546 1_455
Re1 Si1 2.440698 1_555
Re1 Si2 2.520865 1_555
Re1 Si5 2.536946 1_565
Re1 Ta0 2.790329 1_566
Re1 Ta1 2.810497 1_555
Re1 Ta5 2.885836 1_556
Re1 Ta3 2.896134 1_565
Re1 Re2 2.977221 1_455
Re1 Re3 3.026274 1_556
Re1 Ta4 3.102043 1_455
Re1 Ta2 3.171440 1_455
Re2 Si1 2.407543 1_655
Re2 Si0 2.440685 1_555
Re2 Si3 2.520869 1_555
Re2 Si4 2.536950 1_555
Re2 Ta1 2.790336 1_555
Re2 Ta0 2.810496 1_555
Re2 Ta4 2.885838 1_555
Re2 Ta2 2.896134 1_556
Re2 Re4 3.026271 1_555
Re2 Ta5 3.102041 1_656
Re2 Ta3 3.171435 1_655
Re3 Si0 2.432959 1_555
Re3 Si1 2.440626 1_554
Re3 Si3 2.518928 1_565
Re3 Si4 2.523772 1_554
Re3 Ta0 2.786960 1_565
Re3 Ta1 2.804686 1_554
Re3 Ta5 2.865743 1_555
Re3 Ta3 2.912121 1_665
Re3 W0 2.950208 1_554
Re3 Re4 2.990249 1_555
Re3 Ta4 3.100164 1_555
Re3 Ta2 3.164833 1_555
Re4 Si1 2.432952 1_554
Re4 Si0 2.440625 1_555
Re4 Si2 2.518928 1_555
Re4 Si5 2.523772 1_554
Re4 Ta1 2.786968 1_555
Re4 Ta0 2.804692 1_555
Re4 Ta4 2.865748 1_555
Re4 Ta2 2.912118 1_455
Re4 W0 2.950208 1_554
Re4 Ta5 3.100160 1_555
Re4 Ta3 3.164831 1_554
Si0 W0 2.511040 1_554
Si0 Ta2 2.650457 1_555
Si0 Ta4 2.688333 1_555
Si0 Ta0 2.927468 1_555
Si1 W0 2.511040 1_555
Si1 Ta3 2.650447 1_555
Si1 Ta5 2.688323 1_556
Si1 Ta1 2.927468 1_555
Si2 W0 2.588711 1_565
Si2 Ta2 2.648391 1_455
Si2 Ta0 2.649711 1_566
Si2 Ta5 2.658093 1_555
Si2 Ta4 2.669157 1_555
Si2 Ta3 2.683275 1_565
Si2 Ta1 2.696798 1_555
Si3 W0 2.588711 1_555
Si3 Ta3 2.648390 1_655
Si3 Ta1 2.649711 1_555
Si3 Ta4 2.658092 1_545
Si3 Ta5 2.669159 1_545
Si3 Ta2 2.683271 1_556
Si3 Ta0 2.696795 1_555
Si4 Ta2 2.646044 1_556
Si4 Ta0 2.646366 1_566
Si4 Ta5 2.660294 1_656
Si4 Ta4 2.680510 1_555
Si4 Ta3 2.692361 1_666
Si4 Ta1 2.700323 1_555
Si5 Ta3 2.646048 1_555
Si5 Ta1 2.646370 1_556
Si5 Ta4 2.660293 1_445
Si5 Ta5 2.680512 1_546
Si5 Ta2 2.692362 1_456
Si5 Ta0 2.700323 1_556
