# generated using pymatgen
data_TaZn(Ni7B2)3
_symmetry_space_group_name_H-M   'P 1'
_cell_length_a   7.35395534
_cell_length_b   7.35395489
_cell_length_c   7.35395477
_cell_angle_alpha   60.00000054
_cell_angle_beta   60.00000254
_cell_angle_gamma   60.00000221
_symmetry_Int_Tables_number   1
_chemical_formula_structural   TaZn(Ni7B2)3
_chemical_formula_sum   'Ta1 Zn1 Ni21 B6'
_cell_volume   281.22111362
_cell_formula_units_Z   1
loop_
 _symmetry_equiv_pos_site_id
 _symmetry_equiv_pos_as_xyz
  1  'x, y, z'
loop_
 _atom_site_type_symbol
 _atom_site_label
 _atom_site_symmetry_multiplicity
 _atom_site_fract_x
 _atom_site_fract_y
 _atom_site_fract_z
 _atom_site_occupancy
  Ta  Ta0  1  0.25000000  0.25000000  0.25000000  1
  Zn  Zn0  1  0.75000000  0.75000000  0.75000000  1
  Ni  Ni0  1  0.00000000  0.00000000  0.00000000  1
  Ni  Ni1  1  0.61766761  0.61766761  0.14699818  1
  Ni  Ni2  1  0.61766761  0.14699818  0.61766761  1
  Ni  Ni3  1  0.14699818  0.61766761  0.61766761  1
  Ni  Ni4  1  0.61766761  0.61766761  0.61766761  1
  Ni  Ni5  1  0.38475082  0.38475082  0.84574853  1
  Ni  Ni6  1  0.38475082  0.84574853  0.38475082  1
  Ni  Ni7  1  0.84574853  0.38475082  0.38475082  1
  Ni  Ni8  1  0.38475082  0.38475082  0.38475082  1
  Ni  Ni9  1  0.00183239  0.00183239  0.33724480  1
  Ni  Ni10  1  0.65909043  0.00183239  0.33724480  1
  Ni  Ni11  1  0.00183239  0.65909043  0.33724480  1
  Ni  Ni12  1  0.65909043  0.33724480  0.00183239  1
  Ni  Ni13  1  0.00183239  0.33724480  0.00183239  1
  Ni  Ni14  1  0.00183239  0.33724480  0.65909043  1
  Ni  Ni15  1  0.33724480  0.65909043  0.00183239  1
  Ni  Ni16  1  0.33724480  0.00183239  0.65909043  1
  Ni  Ni17  1  0.33724480  0.00183239  0.00183239  1
  Ni  Ni18  1  0.00183239  0.00183239  0.65909043  1
  Ni  Ni19  1  0.00183239  0.65909043  0.00183239  1
  Ni  Ni20  1  0.65909043  0.00183239  0.00183239  1
  B  B0  1  0.72893585  0.72893585  0.27106415  1
  B  B1  1  0.27106415  0.72893585  0.27106415  1
  B  B2  1  0.72893585  0.27106415  0.27106415  1
  B  B3  1  0.27106415  0.27106415  0.72893585  1
  B  B4  1  0.72893585  0.27106415  0.72893585  1
  B  B5  1  0.27106415  0.72893585  0.72893585  1
loop_
_geom_bond_atom_site_label_1
_geom_bond_atom_site_label_2
_geom_bond_distance
_geom_bond_site_symmetry_2
Ni0 Ni18 2.493631 1_554
Ni0 Ni9 2.493631 1_555
Ni0 Ni14 2.493631 1_554
Ni0 Ni13 2.493631 1_555
Ni0 Ni19 2.493631 1_545
Ni0 Ni11 2.493631 1_545
Ni0 Ni17 2.493631 1_555
Ni0 Ni16 2.493631 1_554
Ni0 Ni20 2.493631 1_455
Ni0 Ni10 2.493631 1_455
Ni0 Ni15 2.493631 1_545
Ni0 Ni12 2.493631 1_455
Ni1 Zn0 2.383767 1_554
Ni2 Zn0 2.383767 1_545
Ni3 Zn0 2.383767 1_455
Ni4 Zn0 2.383761 1_555
Ni5 Ta0 2.427319 1_556
Ni6 Ta0 2.427320 1_565
Ni7 Ta0 2.427320 1_655
Ni8 Ta0 2.427325 1_555
B0 Ni20 2.055273 1_565
B0 Ni10 2.055273 1_565
B0 Ni19 2.055273 1_655
B0 Ni11 2.055273 1_655
B0 Ni7 2.066694 1_555
B0 Ni6 2.066695 1_555
B0 Ni1 2.081876 1_555
B0 Ni4 2.081883 1_555
B1 Ni15 2.055273 1_555
B1 Ni17 2.055273 1_565
B1 Ni9 2.055273 1_565
B1 Ni11 2.055273 1_555
B1 Ni8 2.066694 1_555
B1 Ni6 2.066700 1_555
B1 Ni3 2.081882 1_555
B1 Ni1 2.081883 1_555
B2 Ni12 2.055273 1_555
B2 Ni10 2.055273 1_555
B2 Ni9 2.055273 1_655
B2 Ni13 2.055273 1_655
B2 Ni8 2.066695 1_555
B2 Ni7 2.066700 1_555
B2 Ni2 2.081882 1_555
B2 Ni1 2.081882 1_555
B3 Ni17 2.055273 1_556
B3 Ni16 2.055273 1_555
B3 Ni14 2.055273 1_555
B3 Ni13 2.055273 1_556
B3 Ni8 2.066694 1_555
B3 Ni5 2.066700 1_555
B3 Ni3 2.081882 1_555
B3 Ni2 2.081883 1_555
B4 Ni12 2.055273 1_556
B4 Ni20 2.055273 1_556
B4 Ni18 2.055273 1_655
B4 Ni14 2.055273 1_655
B4 Ni7 2.066694 1_555
B4 Ni5 2.066695 1_555
B4 Ni2 2.081876 1_555
B4 Ni4 2.081883 1_555
B5 Ni15 2.055273 1_556
B5 Ni16 2.055273 1_565
B5 Ni18 2.055273 1_565
B5 Ni19 2.055273 1_556
B5 Ni6 2.066694 1_555
B5 Ni5 2.066694 1_555
B5 Ni3 2.081876 1_555
B5 Ni4 2.081883 1_555
