# generated using pymatgen
data_Hf4Co6Si6Ir
_symmetry_space_group_name_H-M   'P 1'
_cell_length_a   6.64383893
_cell_length_b   6.64383963
_cell_length_c   6.64383972
_cell_angle_alpha   109.47122091
_cell_angle_beta   109.47122307
_cell_angle_gamma   109.47122450
_symmetry_Int_Tables_number   1
_chemical_formula_structural   Hf4Co6Si6Ir
_chemical_formula_sum   'Hf4 Co6 Si6 Ir1'
_cell_volume   225.75400135
_cell_formula_units_Z   1
loop_
 _symmetry_equiv_pos_site_id
 _symmetry_equiv_pos_as_xyz
  1  'x, y, z'
loop_
 _atom_site_type_symbol
 _atom_site_label
 _atom_site_symmetry_multiplicity
 _atom_site_fract_x
 _atom_site_fract_y
 _atom_site_fract_z
 _atom_site_occupancy
  Hf  Hf0  1  0.00000000  0.00000000  0.50000000  1
  Hf  Hf1  1  0.00000000  0.50000000  0.00000000  1
  Hf  Hf2  1  0.50000000  0.00000000  0.00000000  1
  Hf  Hf3  1  0.50000000  0.50000000  0.50000000  1
  Co  Co0  1  0.75000000  0.25000000  0.50000000  1
  Co  Co1  1  0.75000000  0.50000000  0.25000000  1
  Co  Co2  1  0.50000000  0.25000000  0.75000000  1
  Co  Co3  1  0.25000000  0.50000000  0.75000000  1
  Co  Co4  1  0.25000000  0.75000000  0.50000000  1
  Co  Co5  1  0.50000000  0.75000000  0.25000000  1
  Si  Si0  1  0.67012133  0.67012133  1.00000000  1
  Si  Si1  1  0.32987867  0.00000000  0.32987867  1
  Si  Si2  1  0.00000000  0.32987867  0.32987867  1
  Si  Si3  1  0.32987867  0.32987867  0.00000000  1
  Si  Si4  1  0.67012133  1.00000000  0.67012133  1
  Si  Si5  1  1.00000000  0.67012133  0.67012133  1
  Ir  Ir0  1  0.00000000  0.00000000  0.00000000  1
loop_
_geom_bond_atom_site_label_1
_geom_bond_atom_site_label_2
_geom_bond_distance
_geom_bond_site_symmetry_2
Hf0 Si3 2.780700 1_556
Hf0 Si0 2.780700 1_444
Hf0 Si1 2.780700 1_555
Hf0 Si4 2.780700 1_445
Hf0 Si5 2.780700 1_445
Hf0 Si2 2.780700 1_555
Hf1 Si1 2.780700 1_565
Hf1 Si4 2.780700 1_444
Hf1 Si3 2.780700 1_555
Hf1 Si0 2.780700 1_454
Hf1 Si2 2.780700 1_555
Hf1 Si5 2.780700 1_454
Hf2 Si2 2.780699 1_655
Hf2 Si5 2.780699 1_444
Hf2 Si3 2.780700 1_555
Hf2 Si0 2.780700 1_544
Hf2 Si1 2.780700 1_555
Hf2 Si4 2.780700 1_544
Hf3 Si2 2.780700 1_555
Hf3 Si5 2.780700 1_555
Hf3 Si4 2.780700 1_555
Hf3 Si1 2.780700 1_555
Hf3 Si3 2.780700 1_555
Hf3 Si0 2.780700 1_555
Co0 Si1 2.319848 1_555
Co0 Si5 2.319848 1_555
Co0 Si2 2.319848 1_655
Co0 Si4 2.319849 1_545
Co0 Hf1 2.712336 1_656
Co0 Hf2 2.712336 1_555
Co0 Hf0 2.712336 1_655
Co0 Hf3 2.712336 1_555
Co1 Si3 2.319848 1_555
Co1 Si5 2.319848 1_555
Co1 Si2 2.319848 1_655
Co1 Si0 2.319849 1_554
Co1 Hf0 2.712336 1_665
Co1 Hf2 2.712336 1_555
Co1 Hf3 2.712336 1_555
Co1 Hf1 2.712336 1_655
Co2 Si0 2.319848 1_555
Co2 Si1 2.319848 1_555
Co2 Si4 2.319848 1_545
Co2 Si3 2.319848 1_556
Co2 Hf1 2.712336 1_656
Co2 Hf0 2.712336 1_555
Co2 Hf2 2.712336 1_556
Co2 Hf3 2.712336 1_555
Co3 Si0 2.319848 1_555
Co3 Si2 2.319848 1_555
Co3 Si5 2.319848 1_455
Co3 Si3 2.319849 1_556
Co3 Hf0 2.712336 1_555
Co3 Hf2 2.712336 1_566
Co3 Hf3 2.712336 1_555
Co3 Hf1 2.712336 1_556
Co4 Si4 2.319848 1_555
Co4 Si2 2.319848 1_555
Co4 Si5 2.319848 1_455
Co4 Si1 2.319849 1_565
Co4 Hf1 2.712336 1_555
Co4 Hf2 2.712336 1_566
Co4 Hf3 2.712336 1_555
Co4 Hf0 2.712336 1_565
Co5 Si3 2.319848 1_555
Co5 Si4 2.319848 1_555
Co5 Si1 2.319848 1_565
Co5 Si0 2.319848 1_554
Co5 Hf0 2.712336 1_665
Co5 Hf1 2.712336 1_555
Co5 Hf2 2.712336 1_565
Co5 Hf3 2.712336 1_555
Ir0 Si3 2.530712 1_555
Ir0 Si0 2.530712 1_444
Ir0 Si1 2.530712 1_555
Ir0 Si4 2.530712 1_444
Ir0 Si2 2.530712 1_555
Ir0 Si5 2.530712 1_444
