# generated using pymatgen
data_Sc5P2Os
_symmetry_space_group_name_H-M   'P 1'
_cell_length_a   5.76372576
_cell_length_b   7.83373290
_cell_length_c   7.83373290
_cell_angle_alpha   121.46287097
_cell_angle_beta   90.00000000
_cell_angle_gamma   90.00000000
_symmetry_Int_Tables_number   1
_chemical_formula_structural   Sc5P2Os
_chemical_formula_sum   'Sc10 P4 Os2'
_cell_volume   301.70252942
_cell_formula_units_Z   2
loop_
 _symmetry_equiv_pos_site_id
 _symmetry_equiv_pos_as_xyz
  1  'x, y, z'
loop_
 _atom_site_type_symbol
 _atom_site_label
 _atom_site_symmetry_multiplicity
 _atom_site_fract_x
 _atom_site_fract_y
 _atom_site_fract_z
 _atom_site_occupancy
  Sc  Sc0  1  0.75000000  0.75172722  0.75172722  1
  Sc  Sc1  1  0.25000000  0.24827278  0.24827278  1
  Sc  Sc2  1  0.75000000  0.01958480  0.25777140  1
  Sc  Sc3  1  0.25000000  0.98041520  0.74222860  1
  Sc  Sc4  1  0.75000000  0.25777140  0.01958480  1
  Sc  Sc5  1  0.25000000  0.74222860  0.98041520  1
  Sc  Sc6  1  0.00000000  0.66664872  0.33335128  1
  Sc  Sc7  1  0.00000000  0.33335128  0.66664872  1
  Sc  Sc8  1  0.50000000  0.33335128  0.66664872  1
  Sc  Sc9  1  0.50000000  0.66664872  0.33335128  1
  P  P0  1  0.75000000  0.00854440  0.62185618  1
  P  P1  1  0.25000000  0.99145560  0.37814382  1
  P  P2  1  0.75000000  0.62185618  0.00854440  1
  P  P3  1  0.25000000  0.37814382  0.99145560  1
  Os  Os0  1  0.75000000  0.40846641  0.40846641  1
  Os  Os1  1  0.25000000  0.59153359  0.59153359  1
loop_
_geom_bond_atom_site_label_1
_geom_bond_atom_site_label_2
_geom_bond_distance
_geom_bond_site_symmetry_2
P0 Sc4 2.677563 1_556
P0 Sc0 2.686852 1_545
P0 Sc7 2.782377 1_655
P0 Sc8 2.782377 1_555
P0 Sc6 2.835264 1_645
P0 Sc9 2.835264 1_545
P0 Sc2 2.898224 1_555
P0 Sc3 3.075676 1_645
P0 Sc3 3.075676 1_545
P1 Sc5 2.677563 1_554
P1 Sc1 2.686852 1_565
P1 Sc9 2.782377 1_555
P1 Sc6 2.782377 1_555
P1 Sc8 2.835264 1_565
P1 Sc7 2.835264 1_565
P1 Sc3 2.898224 1_555
P1 Sc2 3.075676 1_465
P1 Sc2 3.075676 1_565
P2 Sc2 2.677563 1_565
P2 Sc0 2.686852 1_554
P2 Sc6 2.782377 1_655
P2 Sc9 2.782377 1_555
P2 Sc7 2.835264 1_654
P2 Sc8 2.835264 1_554
P2 Sc4 2.898224 1_555
P2 Sc5 3.075676 1_654
P2 Sc5 3.075676 1_554
P3 Sc3 2.677563 1_545
P3 Sc1 2.686852 1_556
P3 Sc8 2.782377 1_555
P3 Sc7 2.782377 1_555
P3 Sc9 2.835264 1_556
P3 Sc6 2.835264 1_556
P3 Sc5 2.898224 1_555
P3 Sc4 3.075676 1_456
P3 Sc4 3.075676 1_556
Os0 Sc0 2.629338 1_555
Os0 Sc4 2.630586 1_555
Os0 Sc2 2.630586 1_555
Os0 Sc7 2.784875 1_655
Os0 Sc8 2.784875 1_555
Os0 Sc6 2.784875 1_655
Os0 Sc9 2.784875 1_555
Os0 Sc1 3.132223 1_655
Os0 Sc1 3.132223 1_555
Os1 Sc1 2.629338 1_555
Os1 Sc5 2.630586 1_555
Os1 Sc3 2.630586 1_555
Os1 Sc6 2.784875 1_555
Os1 Sc9 2.784875 1_555
Os1 Sc8 2.784875 1_555
Os1 Sc7 2.784875 1_555
Os1 Sc0 3.132223 1_455
Os1 Sc0 3.132223 1_555
