# generated using pymatgen
data_Nb2SnGeRu3
_symmetry_space_group_name_H-M   'P 1'
_cell_length_a   4.35479201
_cell_length_b   4.35479229
_cell_length_c   7.60438601
_cell_angle_alpha   73.36137346
_cell_angle_beta   73.36137387
_cell_angle_gamma   59.99999558
_symmetry_Int_Tables_number   1
_chemical_formula_structural   Nb2SnGeRu3
_chemical_formula_sum   'Nb2 Sn1 Ge1 Ru3'
_cell_volume   117.86675765
_cell_formula_units_Z   1
loop_
 _symmetry_equiv_pos_site_id
 _symmetry_equiv_pos_as_xyz
  1  'x, y, z'
loop_
 _atom_site_type_symbol
 _atom_site_label
 _atom_site_symmetry_multiplicity
 _atom_site_fract_x
 _atom_site_fract_y
 _atom_site_fract_z
 _atom_site_occupancy
  Nb  Nb0  1  0.24893903  0.24893903  0.25318391  1
  Nb  Nb1  1  0.75297558  0.75297558  0.74106926  1
  Sn  Sn0  1  0.50506125  0.50506125  0.48481325  1
  Ge  Ge0  1  0.99448478  0.99448478  0.01654565  1
  Ru  Ru0  1  0.62966748  0.62966748  0.11099555  1
  Ru  Ru1  1  0.12111760  0.12111760  0.63664421  1
  Ru  Ru2  1  0.37274927  0.37274927  0.88174918  1
loop_
_geom_bond_atom_site_label_1
_geom_bond_atom_site_label_2
_geom_bond_distance
_geom_bond_site_symmetry_2
Nb0 Ru2 2.665682 1_554
Nb0 Ru0 2.713425 1_555
Nb0 Ru0 2.713436 1_455
Nb0 Ru0 2.713436 1_545
Nb0 Ru1 2.751986 1_555
Nb0 Sn0 3.014088 1_555
Nb0 Sn0 3.014100 1_455
Nb0 Sn0 3.014100 1_545
Nb1 Ru1 2.623555 1_565
Nb1 Ru1 2.623555 1_655
Nb1 Ru1 2.623559 1_665
Nb1 Ru0 2.654857 1_556
Nb1 Ru2 2.709377 1_555
Nb1 Ru2 2.709381 1_655
Nb1 Ru2 2.709381 1_565
Nb1 Sn0 3.115060 1_555
Nb1 Sn0 3.115062 1_655
Nb1 Sn0 3.115063 1_565
Ge0 Ru0 2.604008 1_655
Ge0 Ru0 2.604008 1_565
Ge0 Ru0 2.604016 1_555
Ge0 Ru2 2.693923 1_664
Ge0 Ru2 2.693934 1_564
Ge0 Ru2 2.693934 1_654
Ge0 Ru1 2.726445 1_664
Ge0 Nb0 3.034069 1_565
Ge0 Nb0 3.034069 1_655
Ge0 Nb0 3.034072 1_665
Ge0 Nb1 3.198433 1_654
Ge0 Nb1 3.198433 1_564
Ge0 Nb1 3.198445 1_554
Ru0 Sn0 2.682784 1_555
Ru1 Sn0 2.740207 1_455
Ru1 Sn0 2.740207 1_555
Ru1 Sn0 2.740208 1_545
Ru2 Sn0 2.848697 1_555
