# generated using pymatgen
data_NbAgSeO5
_symmetry_space_group_name_H-M   'P 1'
_cell_length_a   3.96421293
_cell_length_b   5.53098920
_cell_length_c   21.43622270
_cell_angle_alpha   90.00000000
_cell_angle_beta   90.00000000
_cell_angle_gamma   90.00000000
_symmetry_Int_Tables_number   1
_chemical_formula_structural   NbAgSeO5
_chemical_formula_sum   'Nb4 Ag4 Se4 O20'
_cell_volume   470.01102321
_cell_formula_units_Z   4
loop_
 _symmetry_equiv_pos_site_id
 _symmetry_equiv_pos_as_xyz
  1  'x, y, z'
loop_
 _atom_site_type_symbol
 _atom_site_label
 _atom_site_symmetry_multiplicity
 _atom_site_fract_x
 _atom_site_fract_y
 _atom_site_fract_z
 _atom_site_occupancy
  Nb  Nb0  1  0.45922383  0.75000000  0.68823631  1
  Nb  Nb1  1  0.54077617  0.25000000  0.31176369  1
  Nb  Nb2  1  0.54077617  0.75000000  0.18823631  1
  Nb  Nb3  1  0.45922383  0.25000000  0.81176369  1
  Ag  Ag0  1  0.56882189  0.25000000  0.47788317  1
  Ag  Ag1  1  0.43117811  0.25000000  0.97788317  1
  Ag  Ag2  1  0.43117811  0.75000000  0.52211683  1
  Ag  Ag3  1  0.56882189  0.75000000  0.02211683  1
  Se  Se0  1  0.13097793  0.25000000  0.61066817  1
  Se  Se1  1  0.86902207  0.25000000  0.11066817  1
  Se  Se2  1  0.13097793  0.75000000  0.88933183  1
  Se  Se3  1  0.86902207  0.75000000  0.38933183  1
  O  O0  1  0.58310330  0.01151482  0.11491795  1
  O  O1  1  0.41689670  0.98848518  0.88508205  1
  O  O2  1  0.92974867  0.75000000  0.46693105  1
  O  O3  1  0.08180629  0.25000000  0.32264511  1
  O  O4  1  0.07025133  0.25000000  0.53306895  1
  O  O5  1  0.58909382  0.50000000  0.25000000  1
  O  O6  1  0.41090618  0.00000000  0.75000000  1
  O  O7  1  0.41689670  0.48848518  0.61491795  1
  O  O8  1  0.41689670  0.51151482  0.88508205  1
  O  O9  1  0.08180629  0.75000000  0.17735489  1
  O  O10  1  0.58310330  0.48848518  0.11491795  1
  O  O11  1  0.41090618  0.50000000  0.75000000  1
  O  O12  1  0.58310330  0.98848518  0.38508205  1
  O  O13  1  0.07025133  0.75000000  0.96693105  1
  O  O14  1  0.58909382  0.00000000  0.25000000  1
  O  O15  1  0.91819371  0.75000000  0.67735489  1
  O  O16  1  0.58310330  0.51151482  0.38508205  1
  O  O17  1  0.92974867  0.25000000  0.03306895  1
  O  O18  1  0.41689670  0.01151482  0.61491795  1
  O  O19  1  0.91819371  0.25000000  0.82264511  1
loop_
_geom_bond_atom_site_label_1
_geom_bond_atom_site_label_2
_geom_bond_distance
_geom_bond_site_symmetry_2
Nb0 O15 1.834345 1_555
Nb0 O11 1.923955 1_555
Nb0 O6 1.923955 1_565
Nb0 O18 2.142539 1_565
Nb0 O7 2.142539 1_555
Nb0 O15 2.157405 1_455
Nb1 O3 1.834345 1_555
Nb1 O14 1.923955 1_555
Nb1 O5 1.923955 1_555
Nb1 O16 2.142539 1_555
Nb1 O12 2.142539 1_545
Nb1 O3 2.157405 1_655
Nb2 O9 1.834345 1_555
Nb2 O5 1.923955 1_555
Nb2 O14 1.923955 1_565
Nb2 O0 2.142539 1_565
Nb2 O10 2.142539 1_555
Nb2 O9 2.157405 1_655
Nb3 O19 1.834345 1_555
Nb3 O11 1.923955 1_555
Nb3 O6 1.923955 1_555
Nb3 O8 2.142539 1_555
Nb3 O1 2.142539 1_545
Nb3 O19 2.157405 1_455
Ag0 O4 2.303420 1_555
Ag0 O4 2.313152 1_655
Ag0 O16 2.460227 1_555
Ag0 O12 2.460227 1_545
Ag1 O17 2.303420 1_556
Ag1 O17 2.313152 1_456
Ag1 O8 2.460227 1_555
Ag1 O1 2.460227 1_545
Ag2 O2 2.303420 1_555
Ag2 O2 2.313152 1_455
Ag2 O18 2.460227 1_565
Ag2 O7 2.460227 1_555
Ag3 O13 2.303420 1_554
Ag3 O13 2.313152 1_654
Ag3 O0 2.460227 1_565
Ag3 O10 2.460227 1_555
O0 Se1 1.741525 1_555
O1 Se2 1.741525 1_555
O2 Se3 1.680763 1_555
O4 Se0 1.680763 1_555
O7 Se0 1.741525 1_555
O8 Se2 1.741525 1_555
O10 Se1 1.741525 1_555
O12 Se3 1.741525 1_555
O13 Se2 1.680763 1_555
O16 Se3 1.741525 1_555
O17 Se1 1.680763 1_555
O18 Se0 1.741525 1_555
