# generated using pymatgen
data_Ti2Co
_symmetry_space_group_name_H-M   'P 1'
_cell_length_a   5.00741768
_cell_length_b   5.00741768
_cell_length_c   5.00741768
_cell_angle_alpha   60.00000000
_cell_angle_beta   60.00000000
_cell_angle_gamma   60.00000000
_symmetry_Int_Tables_number   1
_chemical_formula_structural   Ti2Co
_chemical_formula_sum   'Ti4 Co2'
_cell_volume   88.78231359
_cell_formula_units_Z   2
loop_
 _symmetry_equiv_pos_site_id
 _symmetry_equiv_pos_as_xyz
  1  'x, y, z'
loop_
 _atom_site_type_symbol
 _atom_site_label
 _atom_site_symmetry_multiplicity
 _atom_site_fract_x
 _atom_site_fract_y
 _atom_site_fract_z
 _atom_site_occupancy
  Ti  Ti0  1  0.87500000  0.87500000  0.87500000  1
  Ti  Ti1  1  0.87500000  0.87500000  0.37500000  1
  Ti  Ti2  1  0.87500000  0.37500000  0.87500000  1
  Ti  Ti3  1  0.37500000  0.87500000  0.87500000  1
  Co  Co0  1  0.50000000  0.50000000  0.50000000  1
  Co  Co1  1  0.25000000  0.25000000  0.25000000  1
loop_
_geom_bond_atom_site_label_1
_geom_bond_atom_site_label_2
_geom_bond_distance
_geom_bond_site_symmetry_2
Ti0 Ti1 2.503709 1_556
Ti0 Ti2 2.503709 1_565
Ti0 Ti3 2.503709 1_655
Ti0 Ti3 2.503709 1_555
Ti0 Ti2 2.503709 1_555
Ti0 Ti1 2.503709 1_555
Ti1 Ti2 2.503709 1_564
Ti1 Ti3 2.503709 1_555
Ti1 Ti2 2.503709 1_555
Ti1 Ti3 2.503709 1_654
Ti2 Ti3 2.503709 1_645
Ti2 Ti3 2.503709 1_555
Co0 Ti3 2.935859 1_545
Co0 Ti0 2.935859 1_545
Co0 Ti3 2.935859 1_555
Co0 Ti0 2.935859 1_554
Co0 Ti1 2.935859 1_545
Co0 Ti2 2.935859 1_455
Co0 Ti3 2.935859 1_554
Co0 Ti1 2.935859 1_555
Co0 Ti1 2.935859 1_455
Co0 Ti2 2.935859 1_554
Co0 Ti2 2.935859 1_555
Co0 Ti0 2.935859 1_455
Co0 Co1 3.066405 1_565
Co0 Co1 3.066405 1_655
Co0 Co1 3.066405 1_555
Co0 Co1 3.066405 1_556
Co1 Ti3 2.935859 1_545
Co1 Ti1 2.935859 1_545
Co1 Ti0 2.935859 1_445
Co1 Ti1 2.935859 1_445
Co1 Ti2 2.935859 1_454
Co1 Ti2 2.935859 1_455
Co1 Ti1 2.935859 1_455
Co1 Ti2 2.935859 1_554
Co1 Ti3 2.935859 1_554
Co1 Ti3 2.935859 1_544
Co1 Ti0 2.935859 1_544
Co1 Ti0 2.935859 1_454
