# generated using pymatgen
data_Y20Cd6ReNi
_symmetry_space_group_name_H-M   'P 1'
_cell_length_a   9.66853078
_cell_length_b   9.66853198
_cell_length_c   9.81701667
_cell_angle_alpha   90.00000000
_cell_angle_beta   90.00000000
_cell_angle_gamma   119.99999589
_symmetry_Int_Tables_number   1
_chemical_formula_structural   Y20Cd6ReNi
_chemical_formula_sum   'Y20 Cd6 Re1 Ni1'
_cell_volume   794.75121550
_cell_formula_units_Z   1
loop_
 _symmetry_equiv_pos_site_id
 _symmetry_equiv_pos_as_xyz
  1  'x, y, z'
loop_
 _atom_site_type_symbol
 _atom_site_label
 _atom_site_symmetry_multiplicity
 _atom_site_fract_x
 _atom_site_fract_y
 _atom_site_fract_z
 _atom_site_occupancy
  Y  Y0  1  0.00000000  0.00000000  0.50032476  1
  Y  Y1  1  0.00000000  0.00000000  0.99967524  1
  Y  Y2  1  0.53968865  0.46031135  0.25000000  1
  Y  Y3  1  0.53968865  0.07937731  0.25000000  1
  Y  Y4  1  0.92062269  0.46031135  0.25000000  1
  Y  Y5  1  0.45645540  0.54354460  0.75000000  1
  Y  Y6  1  0.45645540  0.91291180  0.75000000  1
  Y  Y7  1  0.08708820  0.54354460  0.75000000  1
  Y  Y8  1  0.20987732  0.79012268  0.44009606  1
  Y  Y9  1  0.20987732  0.41975664  0.44009606  1
  Y  Y10  1  0.58024336  0.79012268  0.44009606  1
  Y  Y11  1  0.78924176  0.21075824  0.56521207  1
  Y  Y12  1  0.78924176  0.57848252  0.56521207  1
  Y  Y13  1  0.42151748  0.21075824  0.56521207  1
  Y  Y14  1  0.78924176  0.21075824  0.93478793  1
  Y  Y15  1  0.78924176  0.57848252  0.93478793  1
  Y  Y16  1  0.42151748  0.21075824  0.93478793  1
  Y  Y17  1  0.20987732  0.79012268  0.05990394  1
  Y  Y18  1  0.20987732  0.41975664  0.05990394  1
  Y  Y19  1  0.58024336  0.79012268  0.05990394  1
  Cd  Cd0  1  0.88560036  0.11439964  0.25000000  1
  Cd  Cd1  1  0.88560036  0.77120072  0.25000000  1
  Cd  Cd2  1  0.22879928  0.11439964  0.25000000  1
  Cd  Cd3  1  0.11451178  0.88548822  0.75000000  1
  Cd  Cd4  1  0.11451178  0.22902456  0.75000000  1
  Cd  Cd5  1  0.77097544  0.88548822  0.75000000  1
  Re  Re0  1  0.33333300  0.66666700  0.25000000  1
  Ni  Ni0  1  0.66666700  0.33333300  0.75000000  1
loop_
_geom_bond_atom_site_label_1
_geom_bond_atom_site_label_2
_geom_bond_distance
_geom_bond_site_symmetry_2
Cd0 Y0 3.115965 1_655
Cd0 Y1 3.115965 1_654
Cd0 Y3 3.188664 1_555
Cd0 Y4 3.188664 1_555
Cd0 Cd2 3.318229 1_655
Cd0 Cd1 3.318230 1_545
Cd0 Y11 3.489909 1_555
Cd0 Y14 3.489909 1_554
Cd0 Y9 3.573869 1_655
Cd0 Y18 3.573869 1_655
Cd0 Y10 3.573869 1_545
Cd0 Y19 3.573869 1_545
Cd1 Y0 3.115965 1_665
Cd1 Y1 3.115965 1_664
Cd1 Y2 3.188664 1_555
Cd1 Y4 3.188664 1_555
Cd1 Cd2 3.318230 1_665
Cd1 Y12 3.489913 1_555
Cd1 Y15 3.489913 1_554
Cd1 Y8 3.573861 1_655
Cd1 Y17 3.573861 1_655
Cd1 Y10 3.573878 1_555
Cd1 Y19 3.573878 1_555
Cd2 Y0 3.115965 1_555
Cd2 Y1 3.115965 1_554
Cd2 Y3 3.188664 1_555
Cd2 Y2 3.188664 1_555
Cd2 Y13 3.489913 1_555
Cd2 Y16 3.489913 1_554
Cd2 Y8 3.573861 1_545
Cd2 Y17 3.573861 1_545
Cd2 Y9 3.573878 1_555
Cd2 Y18 3.573878 1_555
Cd3 Y1 3.112096 1_565
Cd3 Y0 3.112096 1_565
Cd3 Y6 3.181816 1_555
Cd3 Y7 3.181816 1_555
Cd3 Cd5 3.321492 1_455
Cd3 Cd4 3.321492 1_565
Cd3 Y17 3.436027 1_556
Cd3 Y8 3.436027 1_555
Cd3 Y15 3.557662 1_455
Cd3 Y12 3.557662 1_455
Cd3 Y16 3.557662 1_565
Cd3 Y13 3.557662 1_565
Cd4 Y1 3.112101 1_555
Cd4 Y0 3.112101 1_555
Cd4 Y5 3.181816 1_555
Cd4 Y7 3.181816 1_555
Cd4 Cd5 3.321492 1_445
Cd4 Y18 3.436031 1_556
Cd4 Y9 3.436031 1_555
Cd4 Y14 3.557654 1_455
Cd4 Y11 3.557654 1_455
Cd4 Y16 3.557671 1_555
Cd4 Y13 3.557671 1_555
Cd5 Y1 3.112101 1_665
Cd5 Y0 3.112101 1_665
Cd5 Y6 3.181816 1_555
Cd5 Y5 3.181816 1_555
Cd5 Y19 3.436031 1_556
Cd5 Y10 3.436031 1_555
Cd5 Y14 3.557655 1_565
Cd5 Y11 3.557655 1_565
Cd5 Y15 3.557671 1_555
Cd5 Y12 3.557671 1_555
Re0 Y10 2.785116 1_555
Re0 Y19 2.785116 1_555
Re0 Y9 2.785117 1_555
Re0 Y18 2.785117 1_555
Re0 Y8 2.785123 1_555
Re0 Y17 2.785123 1_555
Re0 Y4 3.455703 1_455
Re0 Y3 3.455704 1_565
Re0 Y2 3.455712 1_555
Ni0 Y16 2.739407 1_555
Ni0 Y13 2.739407 1_555
Ni0 Y14 2.739407 1_555
Ni0 Y11 2.739407 1_555
Ni0 Y15 2.739407 1_555
Ni0 Y12 2.739407 1_555
