# generated using pymatgen
data_Zr4TiBPb3
_symmetry_space_group_name_H-M   'P 1'
_cell_length_a   8.57294125
_cell_length_b   8.57294090
_cell_length_c   5.82240092
_cell_angle_alpha   90.00000000
_cell_angle_beta   90.00000000
_cell_angle_gamma   119.99999378
_symmetry_Int_Tables_number   1
_chemical_formula_structural   Zr4TiBPb3
_chemical_formula_sum   'Zr8 Ti2 B2 Pb6'
_cell_volume   370.58893111
_cell_formula_units_Z   2
loop_
 _symmetry_equiv_pos_site_id
 _symmetry_equiv_pos_as_xyz
  1  'x, y, z'
loop_
 _atom_site_type_symbol
 _atom_site_label
 _atom_site_symmetry_multiplicity
 _atom_site_fract_x
 _atom_site_fract_y
 _atom_site_fract_z
 _atom_site_occupancy
  Zr  Zr0  1  0.33333300  0.66666700  0.50000000  1
  Zr  Zr1  1  0.66666700  0.33333300  0.50000000  1
  Zr  Zr2  1  0.77439107  0.77439107  0.74877174  1
  Zr  Zr3  1  0.22560893  1.00000000  0.74877174  1
  Zr  Zr4  1  0.00000000  0.22560893  0.74877174  1
  Zr  Zr5  1  0.22560893  0.22560893  0.25122826  1
  Zr  Zr6  1  0.77439107  0.00000000  0.25122826  1
  Zr  Zr7  1  0.00000000  0.77439107  0.25122826  1
  Ti  Ti0  1  0.66666700  0.33333300  0.00000000  1
  Ti  Ti1  1  0.33333300  0.66666700  0.00000000  1
  B  B0  1  0.00000000  0.00000000  0.00000000  1
  B  B1  1  0.00000000  0.00000000  0.50000000  1
  Pb  Pb0  1  0.40151280  0.40151280  0.75871925  1
  Pb  Pb1  1  0.59848720  0.00000000  0.75871925  1
  Pb  Pb2  1  0.00000000  0.59848720  0.75871925  1
  Pb  Pb3  1  0.59848720  0.59848720  0.24128075  1
  Pb  Pb4  1  0.40151280  1.00000000  0.24128075  1
  Pb  Pb5  1  1.00000000  0.40151280  0.24128075  1
loop_
_geom_bond_atom_site_label_1
_geom_bond_atom_site_label_2
_geom_bond_distance
_geom_bond_site_symmetry_2
Ti0 Zr1 2.911200 1_554
Ti0 Zr1 2.911200 1_555
Ti1 Zr0 2.911200 1_555
Ti1 Zr0 2.911200 1_554
B0 Zr7 2.424976 1_545
B0 Zr4 2.424976 1_554
B0 Zr3 2.424976 1_544
B0 Zr6 2.424976 1_455
B0 Zr5 2.424976 1_555
B0 Zr2 2.424976 1_444
B1 Zr4 2.416375 1_555
B1 Zr7 2.416375 1_545
B1 Zr3 2.416376 1_545
B1 Zr6 2.416376 1_455
B1 Zr5 2.416376 1_555
B1 Zr2 2.416376 1_445
Pb0 Ti1 2.968345 1_556
Pb0 Ti0 2.968346 1_556
Pb0 Zr3 2.989151 1_545
Pb0 Zr4 2.989151 1_555
Pb0 Zr0 3.017724 1_555
Pb0 Zr1 3.017724 1_555
Pb0 Zr2 3.197188 1_555
Pb0 Zr5 3.239930 1_556
Pb0 Zr5 3.317385 1_555
Pb1 Ti0 2.968338 1_556
Pb1 Ti1 2.968341 1_546
Pb1 Zr2 2.989151 1_545
Pb1 Zr4 2.989151 1_655
Pb1 Zr1 3.017717 1_555
Pb1 Zr0 3.017720 1_545
Pb1 Zr3 3.197188 1_545
Pb1 Zr6 3.239930 1_556
Pb1 Zr6 3.317385 1_555
Pb2 Ti1 2.968338 1_556
Pb2 Ti0 2.968341 1_456
Pb2 Zr2 2.989151 1_455
Pb2 Zr3 2.989151 1_555
Pb2 Zr0 3.017717 1_555
Pb2 Zr1 3.017720 1_455
Pb2 Zr4 3.197188 1_555
Pb2 Zr7 3.239930 1_556
Pb2 Zr7 3.317385 1_555
Pb3 Ti0 2.968345 1_555
Pb3 Ti1 2.968346 1_555
Pb3 Zr6 2.989151 1_565
Pb3 Zr7 2.989151 1_655
Pb3 Zr1 3.017724 1_555
Pb3 Zr0 3.017724 1_555
Pb3 Zr5 3.197188 1_555
Pb3 Zr2 3.239930 1_554
Pb3 Zr2 3.317385 1_555
Pb4 Ti1 2.968338 1_555
Pb4 Ti0 2.968341 1_565
Pb4 Zr5 2.989151 1_565
Pb4 Zr7 2.989151 1_555
Pb4 Zr0 3.017717 1_555
Pb4 Zr1 3.017720 1_565
Pb4 Zr6 3.197188 1_565
Pb4 Zr3 3.239930 1_554
Pb4 Zr3 3.317385 1_555
Pb5 Ti0 2.968338 1_555
Pb5 Ti1 2.968341 1_655
Pb5 Zr5 2.989151 1_655
Pb5 Zr6 2.989151 1_555
Pb5 Zr1 3.017717 1_555
Pb5 Zr0 3.017720 1_655
Pb5 Zr7 3.197188 1_655
Pb5 Zr4 3.239930 1_654
Pb5 Zr4 3.317385 1_655
