# generated using pymatgen
data_Ta3Be8Ga
_symmetry_space_group_name_H-M   'P 1'
_cell_length_a   7.54762281
_cell_length_b   7.54762279
_cell_length_c   7.54762444
_cell_angle_alpha   35.62663256
_cell_angle_beta   35.62662987
_cell_angle_gamma   35.62662835
_symmetry_Int_Tables_number   1
_chemical_formula_structural   Ta3Be8Ga
_chemical_formula_sum   'Ta3 Be8 Ga1'
_cell_volume   130.40249579
_cell_formula_units_Z   1
loop_
 _symmetry_equiv_pos_site_id
 _symmetry_equiv_pos_as_xyz
  1  'x, y, z'
loop_
 _atom_site_type_symbol
 _atom_site_label
 _atom_site_symmetry_multiplicity
 _atom_site_fract_x
 _atom_site_fract_y
 _atom_site_fract_z
 _atom_site_occupancy
  Ta  Ta0  1  0.85962155  0.85962155  0.85962155  1
  Ta  Ta1  1  0.14037845  0.14037845  0.14037845  1
  Ta  Ta2  1  0.00000000  0.00000000  0.00000000  1
  Be  Be0  1  0.41499446  0.93518621  0.41499446  1
  Be  Be1  1  0.41499446  0.41499446  0.93518621  1
  Be  Be2  1  0.93518621  0.41499446  0.41499446  1
  Be  Be3  1  0.58500554  0.06481379  0.58500554  1
  Be  Be4  1  0.58500554  0.58500554  0.06481379  1
  Be  Be5  1  0.06481379  0.58500554  0.58500554  1
  Be  Be6  1  0.66440806  0.66440806  0.66440806  1
  Be  Be7  1  0.33559194  0.33559194  0.33559194  1
  Ga  Ga0  1  0.50000000  0.50000000  0.50000000  1
loop_
_geom_bond_atom_site_label_1
_geom_bond_atom_site_label_2
_geom_bond_distance
_geom_bond_site_symmetry_2
Ta0 Ta1 2.889410 1_566
Ta0 Ta1 2.889410 1_656
Ta0 Ta1 2.889411 1_665
Ta0 Ta2 2.973655 1_666
Ta1 Ta2 2.973655 1_555
Be0 Be6 2.125194 1_555
Be0 Be7 2.132303 1_565
Be0 Be2 2.215700 1_465
Be0 Be1 2.215700 1_564
Be0 Ga0 2.330113 1_555
Be0 Be2 2.402186 1_555
Be0 Be1 2.402186 1_555
Be0 Ta0 2.657965 1_455
Be0 Ta0 2.657965 1_554
Be0 Ta1 2.745513 1_565
Be0 Ta2 2.843139 1_665
Be0 Ta2 2.843140 1_566
Be1 Be6 2.125194 1_555
Be1 Be7 2.132304 1_556
Be1 Be2 2.215700 1_456
Be1 Ga0 2.330114 1_555
Be1 Be2 2.402186 1_555
Be1 Ta0 2.657965 1_545
Be1 Ta0 2.657965 1_455
Be1 Ta1 2.745513 1_556
Be1 Ta2 2.843139 1_566
Be1 Ta2 2.843139 1_656
Be2 Be6 2.125194 1_555
Be2 Be7 2.132303 1_655
Be2 Ga0 2.330113 1_555
Be2 Ta0 2.657965 1_545
Be2 Ta0 2.657966 1_554
Be2 Ta1 2.745513 1_655
Be2 Ta2 2.843139 1_665
Be2 Ta2 2.843140 1_656
Be3 Be7 2.125194 1_555
Be3 Be6 2.132303 1_545
Be3 Be5 2.215700 1_645
Be3 Be4 2.215700 1_546
Be3 Ga0 2.330113 1_555
Be3 Be5 2.402186 1_555
Be3 Be4 2.402186 1_555
Be3 Ta1 2.657965 1_655
Be3 Ta1 2.657965 1_556
Be3 Ta0 2.745513 1_545
Be3 Ta2 2.843139 1_556
Be3 Ta2 2.843140 1_655
Be4 Be7 2.125194 1_555
Be4 Be6 2.132304 1_554
Be4 Be5 2.215700 1_654
Be4 Ga0 2.330114 1_555
Be4 Be5 2.402186 1_555
Be4 Ta1 2.657965 1_565
Be4 Ta1 2.657965 1_655
Be4 Ta0 2.745513 1_554
Be4 Ta2 2.843139 1_655
Be4 Ta2 2.843139 1_565
Be5 Be7 2.125194 1_555
Be5 Be6 2.132303 1_455
Be5 Ga0 2.330113 1_555
Be5 Ta1 2.657965 1_565
Be5 Ta1 2.657966 1_556
Be5 Ta0 2.745513 1_455
Be5 Ta2 2.843139 1_556
Be5 Ta2 2.843140 1_565
Be6 Ta2 2.666567 1_566
Be6 Ta2 2.666567 1_656
Be6 Ta2 2.666567 1_665
Be7 Ta2 2.666567 1_655
Be7 Ta2 2.666567 1_565
Be7 Ta2 2.666567 1_556
Ga0 Ta0 2.723672 1_455
Ga0 Ta1 2.723672 1_655
Ga0 Ta0 2.723672 1_545
Ga0 Ta1 2.723672 1_565
Ga0 Ta0 2.723672 1_554
Ga0 Ta1 2.723672 1_556
