# generated using pymatgen
data_Hf18Cu3NiP8
_symmetry_space_group_name_H-M   'P 1'
_cell_length_a   11.92406969
_cell_length_b   11.92406969
_cell_length_c   3.62714785
_cell_angle_alpha   90.00000000
_cell_angle_beta   90.00000000
_cell_angle_gamma   89.93106675
_symmetry_Int_Tables_number   1
_chemical_formula_structural   Hf18Cu3NiP8
_chemical_formula_sum   'Hf18 Cu3 Ni1 P8'
_cell_volume   515.71997867
_cell_formula_units_Z   1
loop_
 _symmetry_equiv_pos_site_id
 _symmetry_equiv_pos_as_xyz
  1  'x, y, z'
loop_
 _atom_site_type_symbol
 _atom_site_label
 _atom_site_symmetry_multiplicity
 _atom_site_fract_x
 _atom_site_fract_y
 _atom_site_fract_z
 _atom_site_occupancy
  Hf  Hf0  1  0.00026439  0.00004826  0.00000000  1
  Hf  Hf1  1  0.49995174  0.49973561  0.00000000  1
  Hf  Hf2  1  0.10205908  0.18264346  0.50000000  1
  Hf  Hf3  1  0.18284176  0.89816094  0.50000000  1
  Hf  Hf4  1  0.81709404  0.10109982  0.50000000  1
  Hf  Hf5  1  0.89366883  0.81654661  0.50000000  1
  Hf  Hf6  1  0.39890018  0.68290596  0.50000000  1
  Hf  Hf7  1  0.60183906  0.31715824  0.50000000  1
  Hf  Hf8  1  0.68345339  0.60633117  0.50000000  1
  Hf  Hf9  1  0.31735654  0.39794092  0.50000000  1
  Hf  Hf10  1  0.09323166  0.40676834  0.00000000  1
  Hf  Hf11  1  0.40745588  0.90634020  0.00000000  1
  Hf  Hf12  1  0.59365980  0.09254412  0.00000000  1
  Hf  Hf13  1  0.90502120  0.59497880  0.00000000  1
  Hf  Hf14  1  0.38278894  0.11721106  0.50000000  1
  Hf  Hf15  1  0.11700767  0.61748746  0.50000000  1
  Hf  Hf16  1  0.88251254  0.38299233  0.50000000  1
  Hf  Hf17  1  0.61860060  0.88139940  0.50000000  1
  Cu  Cu0  1  0.25483390  0.24516610  0.00000000  1
  Cu  Cu1  1  0.24516498  0.74514405  0.00000000  1
  Cu  Cu2  1  0.75485595  0.25483502  0.00000000  1
  Ni  Ni0  1  0.74646200  0.75353800  0.00000000  1
  P  P0  1  0.22307829  0.05399615  0.00000000  1
  P  P1  1  0.05380681  0.77736587  0.00000000  1
  P  P2  1  0.94586639  0.22297313  0.00000000  1
  P  P3  1  0.77664477  0.94408625  0.00000000  1
  P  P4  1  0.27702687  0.55413361  0.00000000  1
  P  P5  1  0.72263413  0.44619319  0.00000000  1
  P  P6  1  0.55591375  0.72335523  0.00000000  1
  P  P7  1  0.44600385  0.27692171  0.00000000  1
loop_
_geom_bond_atom_site_label_1
_geom_bond_atom_site_label_2
_geom_bond_distance
_geom_bond_site_symmetry_2
Hf0 P1 2.730210 1_545
Hf0 P0 2.734367 1_555
Hf0 P2 2.735410 1_455
Hf0 P3 2.749464 1_445
Hf1 P5 2.730210 1_555
Hf1 P7 2.734367 1_555
Hf1 P4 2.735410 1_555
Hf1 P6 2.749464 1_555
Hf2 P2 2.643271 1_456
Hf2 P2 2.643271 1_455
Hf2 P0 2.778353 1_555
Hf2 P0 2.778353 1_556
Hf3 P0 2.640882 1_565
Hf3 P0 2.640882 1_566
Hf3 P1 2.781439 1_556
Hf3 P1 2.781439 1_555
Hf4 P3 2.651253 1_545
Hf4 P3 2.651253 1_546
Hf4 P2 2.786398 1_555
Hf4 P2 2.786398 1_556
Hf5 Ni0 2.633970 1_556
Hf5 Ni0 2.633970 1_555
Hf5 P1 2.674201 1_656
Hf5 P1 2.674201 1_655
Hf5 P3 2.746616 1_556
Hf5 P3 2.746616 1_555
Hf6 P6 2.651253 1_555
Hf6 P6 2.651253 1_556
Hf6 P4 2.786398 1_555
Hf6 P4 2.786398 1_556
Hf7 P7 2.640882 1_555
Hf7 P7 2.640882 1_556
Hf7 P5 2.781439 1_556
Hf7 P5 2.781439 1_555
Hf8 Ni0 2.633970 1_556
Hf8 Ni0 2.633970 1_555
Hf8 P5 2.674201 1_556
Hf8 P5 2.674201 1_555
Hf8 P6 2.746616 1_556
Hf8 P6 2.746616 1_555
Hf9 P4 2.643271 1_555
Hf9 P4 2.643271 1_556
Hf9 P7 2.778353 1_555
Hf9 P7 2.778353 1_556
Hf10 P4 2.810703 1_555
Hf10 P2 2.810703 1_455
Hf11 P6 2.808058 1_555
Hf11 P0 2.814986 1_565
Hf12 P3 2.808058 1_545
Hf12 P7 2.814986 1_555
Hf13 Ni0 2.672203 1_555
Hf13 P1 2.808302 1_655
Hf13 P5 2.808302 1_555
Hf14 P7 2.736317 1_555
Hf14 P0 2.736317 1_555
Hf14 P0 2.736317 1_556
Hf14 P7 2.736317 1_556
Hf15 P1 2.736401 1_555
Hf15 P1 2.736401 1_556
Hf15 P4 2.738071 1_556
Hf15 P4 2.738071 1_555
Hf16 P5 2.736401 1_556
Hf16 P5 2.736401 1_555
Hf16 P2 2.738071 1_556
Hf16 P2 2.738071 1_555
Hf17 P6 2.720776 1_556
Hf17 P3 2.720776 1_556
Hf17 P6 2.720776 1_555
Hf17 P3 2.720776 1_555
Hf17 Ni0 2.816459 1_555
Hf17 Ni0 2.816459 1_556
Cu0 P7 2.311209 1_555
Cu0 P0 2.311209 1_555
Cu0 Hf9 2.677071 1_555
Cu0 Hf9 2.677071 1_554
Cu0 Hf2 2.677071 1_555
Cu0 Hf2 2.677071 1_554
Cu0 Hf10 2.723488 1_555
Cu0 Hf14 2.817666 1_554
Cu0 Hf14 2.817666 1_555
Cu1 P4 2.308640 1_555
Cu1 P1 2.313434 1_555
Cu1 Hf3 2.677155 1_554
Cu1 Hf3 2.677155 1_555
Cu1 Hf6 2.682717 1_554
Cu1 Hf6 2.682717 1_555
Cu1 Hf11 2.729166 1_555
Cu1 Hf15 2.819035 1_555
Cu1 Hf15 2.819035 1_554
Cu2 P2 2.308640 1_555
Cu2 P5 2.313434 1_555
Cu2 Hf7 2.677155 1_555
Cu2 Hf7 2.677155 1_554
Cu2 Hf4 2.682717 1_555
Cu2 Hf4 2.682717 1_554
Cu2 Hf12 2.729166 1_555
Cu2 Hf16 2.819035 1_555
Cu2 Hf16 2.819035 1_554
Ni0 P3 2.300866 1_555
Ni0 P6 2.300866 1_555
