# generated using pymatgen
data_Ni3BiPbS2
_symmetry_space_group_name_H-M   'P 1'
_cell_length_a   6.84070804
_cell_length_b   6.84070854
_cell_length_c   7.95774278
_cell_angle_alpha   56.30256157
_cell_angle_beta   56.30256022
_cell_angle_gamma   72.92779062
_symmetry_Int_Tables_number   1
_chemical_formula_structural   Ni3BiPbS2
_chemical_formula_sum   'Ni6 Bi2 Pb2 S4'
_cell_volume   257.70618217
_cell_formula_units_Z   2
loop_
 _symmetry_equiv_pos_site_id
 _symmetry_equiv_pos_as_xyz
  1  'x, y, z'
loop_
 _atom_site_type_symbol
 _atom_site_label
 _atom_site_symmetry_multiplicity
 _atom_site_fract_x
 _atom_site_fract_y
 _atom_site_fract_z
 _atom_site_occupancy
  Ni  Ni0  1  0.73058575  0.73058575  0.28539625  1
  Ni  Ni1  1  0.50000000  0.00000000  0.00000000  1
  Ni  Ni2  1  0.73059406  0.26940594  1.00000000  1
  Ni  Ni3  1  0.26940594  0.73059406  0.00000000  1
  Ni  Ni4  1  0.26941425  0.26941425  0.71460375  1
  Ni  Ni5  1  0.00000000  0.50000000  0.00000000  1
  Bi  Bi0  1  0.50518900  0.50518900  0.24323292  1
  Bi  Bi1  1  0.49481100  0.49481100  0.75676708  1
  Pb  Pb0  1  0.00138619  0.00138619  0.24780372  1
  Pb  Pb1  1  0.99861381  0.99861381  0.75219628  1
  S  S0  1  0.46837563  0.99656698  0.28633465  1
  S  S1  1  0.99656698  0.46837563  0.28633465  1
  S  S2  1  0.53162437  0.00343302  0.71366535  1
  S  S3  1  0.00343302  0.53162437  0.71366535  1
loop_
_geom_bond_atom_site_label_1
_geom_bond_atom_site_label_2
_geom_bond_distance
_geom_bond_site_symmetry_2
Ni0 S1 2.147548 1_555
Ni0 S0 2.147548 1_555
Ni0 Pb0 2.781695 1_665
Ni0 Pb1 3.071817 1_554
Ni1 S0 2.153116 1_545
Ni1 S2 2.153116 1_554
Ni1 Pb1 2.839214 1_544
Ni1 Pb0 2.839214 1_555
Ni2 S3 2.145820 1_655
Ni2 S0 2.145820 1_546
Ni2 Pb0 2.954474 1_656
Ni2 Pb1 2.954474 1_545
Ni3 S1 2.145820 1_455
Ni3 S2 2.145820 1_564
Ni3 Pb1 2.954474 1_454
Ni3 Pb0 2.954474 1_565
Ni4 S3 2.147548 1_555
Ni4 S2 2.147548 1_555
Ni4 Pb1 2.781695 1_445
Ni4 Pb0 3.071817 1_556
Ni5 S1 2.153116 1_455
Ni5 S3 2.153116 1_554
Ni5 Pb0 2.839215 1_555
Ni5 Pb1 2.839215 1_454
Bi0 Ni4 2.715552 1_555
Bi0 Ni0 2.722370 1_555
Bi0 Ni3 2.723559 1_555
Bi0 Ni2 2.723559 1_554
Bi0 Ni5 2.817954 1_655
Bi0 Ni1 2.817954 1_565
Bi1 Ni0 2.715552 1_555
Bi1 Ni4 2.722370 1_555
Bi1 Ni2 2.723559 1_555
Bi1 Ni3 2.723559 1_556
Bi1 Ni5 2.817954 1_556
Bi1 Ni1 2.817954 1_556
