# generated using pymatgen
data_Rb4Ge2BiAu6
_symmetry_space_group_name_H-M   'P 1'
_cell_length_a   10.50592083
_cell_length_b   10.50592089
_cell_length_c   10.50592148
_cell_angle_alpha   36.96129424
_cell_angle_beta   36.96129459
_cell_angle_gamma   36.96129333
_symmetry_Int_Tables_number   1
_chemical_formula_structural   Rb4Ge2BiAu6
_chemical_formula_sum   'Rb4 Ge2 Bi1 Au6'
_cell_volume   375.60773797
_cell_formula_units_Z   1
loop_
 _symmetry_equiv_pos_site_id
 _symmetry_equiv_pos_as_xyz
  1  'x, y, z'
loop_
 _atom_site_type_symbol
 _atom_site_label
 _atom_site_symmetry_multiplicity
 _atom_site_fract_x
 _atom_site_fract_y
 _atom_site_fract_z
 _atom_site_occupancy
  Rb  Rb0  1  0.68212049  0.68212049  0.68212049  1
  Rb  Rb1  1  0.31787951  0.31787951  0.31787951  1
  Rb  Rb2  1  0.80944578  0.80944578  0.80944578  1
  Rb  Rb3  1  0.19055422  0.19055422  0.19055422  1
  Ge  Ge0  1  0.54344719  0.54344719  0.54344719  1
  Ge  Ge1  1  0.45655281  0.45655281  0.45655281  1
  Bi  Bi0  1  0.00000000  0.00000000  0.00000000  1
  Au  Au0  1  0.22855440  0.22855440  0.79715529  1
  Au  Au1  1  0.79715529  0.22855440  0.22855440  1
  Au  Au2  1  0.22855440  0.79715529  0.22855440  1
  Au  Au3  1  0.77144560  0.20284471  0.77144560  1
  Au  Au4  1  0.77144560  0.77144560  0.20284471  1
  Au  Au5  1  0.20284471  0.77144560  0.77144560  1
loop_
_geom_bond_atom_site_label_1
_geom_bond_atom_site_label_2
_geom_bond_distance
_geom_bond_site_symmetry_2
Bi0 Rb0 3.872020 1_454
Bi0 Rb1 3.872020 1_545
Bi0 Rb0 3.872020 1_544
Bi0 Rb1 3.872020 1_455
Bi0 Rb0 3.872020 1_445
Bi0 Rb1 3.872020 1_554
Au0 Ge1 2.460405 1_555
Au0 Au2 2.873301 1_546
Au0 Au1 2.873301 1_456
Au0 Bi0 2.988594 1_556
Au0 Rb3 3.518749 1_556
Au0 Rb1 3.663269 1_555
Au0 Rb2 3.749179 1_545
Au0 Rb2 3.749179 1_455
Au0 Rb0 3.910437 1_455
Au0 Rb0 3.910437 1_545
Au1 Ge1 2.460405 1_555
Au1 Au2 2.873301 1_645
Au1 Bi0 2.988594 1_655
Au1 Rb3 3.518749 1_655
Au1 Rb1 3.663269 1_555
Au1 Rb2 3.749179 1_554
Au1 Rb2 3.749179 1_545
Au1 Rb0 3.910437 1_545
Au1 Rb0 3.910438 1_554
Au2 Ge1 2.460405 1_555
Au2 Bi0 2.988594 1_565
Au2 Rb3 3.518749 1_565
Au2 Rb1 3.663269 1_555
Au2 Rb2 3.749179 1_554
Au2 Rb2 3.749179 1_455
Au2 Rb0 3.910437 1_455
Au2 Rb0 3.910438 1_554
Au3 Ge0 2.460405 1_555
Au3 Au5 2.873301 1_645
Au3 Au4 2.873301 1_546
Au3 Bi0 2.988594 1_656
Au3 Rb2 3.518749 1_545
Au3 Rb0 3.663269 1_555
Au3 Rb3 3.749179 1_556
Au3 Rb3 3.749179 1_655
Au3 Rb1 3.910437 1_655
Au3 Rb1 3.910438 1_556
Au4 Ge0 2.460405 1_555
Au4 Au5 2.873301 1_654
Au4 Bi0 2.988594 1_665
Au4 Rb2 3.518749 1_554
Au4 Rb0 3.663269 1_555
Au4 Rb3 3.749179 1_565
Au4 Rb3 3.749179 1_655
Au4 Rb1 3.910437 1_655
Au4 Rb1 3.910437 1_565
Au5 Ge0 2.460405 1_555
Au5 Bi0 2.988594 1_566
Au5 Rb2 3.518749 1_455
Au5 Rb0 3.663269 1_555
Au5 Rb3 3.749179 1_556
Au5 Rb3 3.749179 1_565
Au5 Rb1 3.910437 1_565
Au5 Rb1 3.910438 1_556
