# generated using pymatgen
data_RbBaCrH6
_symmetry_space_group_name_H-M   'P 1'
_cell_length_a   5.79613297
_cell_length_b   5.79613272
_cell_length_c   5.79613292
_cell_angle_alpha   59.99999886
_cell_angle_beta   60.00000027
_cell_angle_gamma   59.99999550
_symmetry_Int_Tables_number   1
_chemical_formula_structural   RbBaCrH6
_chemical_formula_sum   'Rb1 Ba1 Cr1 H6'
_cell_volume   137.68923373
_cell_formula_units_Z   1
loop_
 _symmetry_equiv_pos_site_id
 _symmetry_equiv_pos_as_xyz
  1  'x, y, z'
loop_
 _atom_site_type_symbol
 _atom_site_label
 _atom_site_symmetry_multiplicity
 _atom_site_fract_x
 _atom_site_fract_y
 _atom_site_fract_z
 _atom_site_occupancy
  Rb  Rb0  1  0.25000000  0.25000000  0.25000000  1
  Ba  Ba0  1  0.75000000  0.75000000  0.75000000  1
  Cr  Cr0  1  0.00000000  0.00000000  0.00000000  1
  H  H0  1  0.78836041  0.21163959  0.21163959  1
  H  H1  1  0.21163959  0.78836041  0.21163959  1
  H  H2  1  0.78836041  0.78836041  0.21163959  1
  H  H3  1  0.21163959  0.78836041  0.78836041  1
  H  H4  1  0.78836041  0.21163959  0.78836041  1
  H  H5  1  0.21163959  0.21163959  0.78836041  1
loop_
_geom_bond_atom_site_label_1
_geom_bond_atom_site_label_2
_geom_bond_distance
_geom_bond_site_symmetry_2
Ba0 H5 2.915075 1_655
Ba0 H5 2.915075 1_565
Ba0 H4 2.915075 1_555
Ba0 H0 2.915075 1_556
Ba0 H0 2.915075 1_565
Ba0 H4 2.915075 1_565
Ba0 H2 2.915075 1_556
Ba0 H2 2.915075 1_555
Ba0 H1 2.915075 1_556
Ba0 H3 2.915075 1_555
Ba0 H3 2.915075 1_655
Ba0 H1 2.915075 1_655
Cr0 H1 1.734803 1_545
Cr0 H4 1.734803 1_454
Cr0 H0 1.734803 1_455
Cr0 H3 1.734803 1_544
Cr0 H5 1.734803 1_554
Cr0 H2 1.734803 1_445
H0 Rb0 2.915075 1_555
H0 Rb0 2.915075 1_655
H1 Rb0 2.915075 1_555
H1 Rb0 2.915075 1_565
H2 Rb0 2.915075 1_655
H2 Rb0 2.915075 1_565
H3 Rb0 2.915075 1_556
H3 Rb0 2.915075 1_565
H4 Rb0 2.915075 1_556
H4 Rb0 2.915075 1_655
H5 Rb0 2.915075 1_555
H5 Rb0 2.915075 1_556
