# generated using pymatgen
data_Ni2Mo3WC
_symmetry_space_group_name_H-M   'P 1'
_cell_length_a   7.95724081
_cell_length_b   7.95724066
_cell_length_c   7.95724060
_cell_angle_alpha   60.00000025
_cell_angle_beta   60.00000088
_cell_angle_gamma   60.00000231
_symmetry_Int_Tables_number   1
_chemical_formula_structural   Ni2Mo3WC
_chemical_formula_sum   'Ni8 Mo12 W4 C4'
_cell_volume   356.26445801
_cell_formula_units_Z   4
loop_
 _symmetry_equiv_pos_site_id
 _symmetry_equiv_pos_as_xyz
  1  'x, y, z'
loop_
 _atom_site_type_symbol
 _atom_site_label
 _atom_site_symmetry_multiplicity
 _atom_site_fract_x
 _atom_site_fract_y
 _atom_site_fract_z
 _atom_site_occupancy
  Ni  Ni0  1  0.83219370  0.83219370  0.83219370  1
  Ni  Ni1  1  0.83219370  0.83219370  0.50341689  1
  Ni  Ni2  1  0.50341689  0.83219370  0.83219370  1
  Ni  Ni3  1  0.83219370  0.50341689  0.83219370  1
  Ni  Ni4  1  0.41780630  0.41780630  0.41780630  1
  Ni  Ni5  1  0.41780630  0.41780630  0.74658311  1
  Ni  Ni6  1  0.41780630  0.74658311  0.41780630  1
  Ni  Ni7  1  0.74658311  0.41780630  0.41780630  1
  Mo  Mo0  1  0.43955485  0.06044515  0.06044515  1
  Mo  Mo1  1  0.06044515  0.43955485  0.43955485  1
  Mo  Mo2  1  0.06044515  0.43955485  0.06044515  1
  Mo  Mo3  1  0.06044515  0.06044515  0.43955485  1
  Mo  Mo4  1  0.43955485  0.06044515  0.43955485  1
  Mo  Mo5  1  0.43955485  0.43955485  0.06044515  1
  Mo  Mo6  1  0.18955485  0.81044515  0.18955485  1
  Mo  Mo7  1  0.81044515  0.18955485  0.81044515  1
  Mo  Mo8  1  0.81044515  0.18955485  0.18955485  1
  Mo  Mo9  1  0.18955485  0.18955485  0.81044515  1
  Mo  Mo10  1  0.18955485  0.81044515  0.81044515  1
  Mo  Mo11  1  0.81044515  0.81044515  0.18955485  1
  W  W0  1  0.62500000  0.62500000  0.62500000  1
  W  W1  1  0.62500000  0.62500000  0.12500000  1
  W  W2  1  0.12500000  0.62500000  0.62500000  1
  W  W3  1  0.62500000  0.12500000  0.62500000  1
  C  C0  1  0.12500000  0.12500000  0.12500000  1
  C  C1  1  0.12500000  0.12500000  0.62500000  1
  C  C2  1  0.62500000  0.12500000  0.12500000  1
  C  C3  1  0.12500000  0.62500000  0.12500000  1
loop_
_geom_bond_atom_site_label_1
_geom_bond_atom_site_label_2
_geom_bond_distance
_geom_bond_site_symmetry_2
Ni0 W1 2.429083 1_556
Ni0 W3 2.429084 1_565
Ni0 W2 2.429084 1_655
Ni0 Ni1 2.616156 1_555
Ni0 Ni3 2.616156 1_555
Ni0 Ni2 2.616156 1_555
Ni1 W0 2.429079 1_555
Ni1 W3 2.429092 1_565
Ni1 W2 2.429092 1_655
Ni1 Ni3 2.616156 1_555
Ni1 Ni2 2.616156 1_555
Ni2 W0 2.429079 1_555
Ni2 W3 2.429092 1_565
Ni2 W1 2.429092 1_556
Ni2 Ni3 2.616156 1_555
Ni3 W0 2.429079 1_555
Ni3 W1 2.429092 1_556
Ni3 W2 2.429092 1_655
Ni4 W1 2.429083 1_555
Ni4 W3 2.429084 1_555
Ni4 W2 2.429084 1_555
Ni4 Ni5 2.616156 1_555
Ni4 Ni6 2.616156 1_555
Ni4 Ni7 2.616156 1_555
Ni5 W0 2.429079 1_555
Ni5 W3 2.429092 1_555
Ni5 W2 2.429092 1_555
Ni5 Ni6 2.616156 1_555
Ni5 Ni7 2.616156 1_555
Ni6 W0 2.429079 1_555
Ni6 W1 2.429092 1_555
Ni6 W2 2.429092 1_555
Ni6 Ni7 2.616156 1_555
Ni7 W0 2.429079 1_555
Ni7 W3 2.429092 1_555
Ni7 W1 2.429092 1_555
Mo0 Ni6 2.681734 1_545
Mo0 Ni5 2.681734 1_554
Mo0 Ni0 2.882462 1_544
Mo0 Ni2 2.882469 1_544
Mo1 Ni7 2.681726 1_455
Mo1 Ni4 2.681741 1_555
Mo1 Ni3 2.882456 1_455
Mo1 Ni1 2.882456 1_455
Mo2 Ni7 2.681734 1_455
Mo2 Ni5 2.681735 1_554
Mo2 Ni0 2.882462 1_454
Mo2 Ni3 2.882469 1_454
Mo3 Ni7 2.681735 1_455
Mo3 Ni6 2.681735 1_545
Mo3 Ni0 2.882462 1_445
Mo3 Ni1 2.882469 1_445
Mo4 Ni6 2.681726 1_545
Mo4 Ni4 2.681741 1_555
Mo4 Ni2 2.882456 1_545
Mo4 Ni1 2.882456 1_545
Mo5 Ni5 2.681725 1_554
Mo5 Ni4 2.681741 1_555
Mo5 Ni2 2.882456 1_554
Mo5 Ni3 2.882456 1_554
Mo6 Ni2 2.681734 1_554
Mo6 Ni1 2.681735 1_455
Mo6 Ni4 2.882462 1_555
Mo6 Ni6 2.882469 1_555
Mo7 Ni3 2.681726 1_555
Mo7 Ni0 2.681741 1_545
Mo7 Ni7 2.882456 1_555
Mo7 Ni5 2.882456 1_555
Mo8 Ni3 2.681734 1_554
Mo8 Ni1 2.681734 1_545
Mo8 Ni4 2.882462 1_555
Mo8 Ni7 2.882469 1_555
Mo9 Ni2 2.681735 1_545
Mo9 Ni3 2.681735 1_455
Mo9 Ni4 2.882462 1_555
Mo9 Ni5 2.882469 1_555
Mo10 Ni2 2.681726 1_555
Mo10 Ni0 2.681741 1_455
Mo10 Ni6 2.882456 1_555
Mo10 Ni5 2.882456 1_555
Mo11 Ni1 2.681725 1_555
Mo11 Ni0 2.681741 1_554
Mo11 Ni7 2.882456 1_555
Mo11 Ni6 2.882456 1_555
C0 Mo3 2.117802 1_555
C0 Mo9 2.117802 1_554
C0 Mo2 2.117802 1_555
C0 Mo6 2.117802 1_545
C0 Mo0 2.117802 1_555
C0 Mo8 2.117802 1_455
C1 Mo9 2.117802 1_555
C1 Mo3 2.117802 1_555
C1 Mo1 2.117802 1_555
C1 Mo10 2.117802 1_545
C1 Mo7 2.117802 1_455
C1 Mo4 2.117802 1_555
C2 Mo8 2.117802 1_555
C2 Mo4 2.117802 1_555
C2 Mo7 2.117802 1_554
C2 Mo0 2.117802 1_555
C2 Mo5 2.117802 1_555
C2 Mo11 2.117802 1_545
C3 Mo6 2.117802 1_555
C3 Mo1 2.117802 1_555
C3 Mo10 2.117802 1_554
C3 Mo2 2.117802 1_555
C3 Mo5 2.117802 1_555
C3 Mo11 2.117802 1_455
