# generated using pymatgen
data_Na5LuI8
_symmetry_space_group_name_H-M   'P 1'
_cell_length_a   7.84515351
_cell_length_b   7.84515398
_cell_length_c   9.07673129
_cell_angle_alpha   90.00000000
_cell_angle_beta   90.00000000
_cell_angle_gamma   109.28693330
_symmetry_Int_Tables_number   1
_chemical_formula_structural   Na5LuI8
_chemical_formula_sum   'Na5 Lu1 I8'
_cell_volume   527.28750393
_cell_formula_units_Z   1
loop_
 _symmetry_equiv_pos_site_id
 _symmetry_equiv_pos_as_xyz
  1  'x, y, z'
loop_
 _atom_site_type_symbol
 _atom_site_label
 _atom_site_symmetry_multiplicity
 _atom_site_fract_x
 _atom_site_fract_y
 _atom_site_fract_z
 _atom_site_occupancy
  Na  Na0  1  0.50000000  0.00000000  0.23943135  1
  Na  Na1  1  0.00000000  0.50000000  0.76056865  1
  Na  Na2  1  0.50000000  0.00000000  0.76056865  1
  Na  Na3  1  0.00000000  0.50000000  0.23943135  1
  Na  Na4  1  0.50000000  0.50000000  0.00000000  1
  Lu  Lu0  1  0.50000000  0.50000000  0.50000000  1
  I  I0  1  0.26513876  0.26513876  0.26939586  1
  I  I1  1  0.73486124  0.73486124  0.26939586  1
  I  I2  1  0.26461742  0.73538258  0.50000000  1
  I  I3  1  0.26513876  0.26513876  0.73060414  1
  I  I4  1  0.73486124  0.73486124  0.73060414  1
  I  I5  1  0.25002153  0.74997847  0.00000000  1
  I  I6  1  0.73538258  0.26461742  0.50000000  1
  I  I7  1  0.74997847  0.25002153  0.00000000  1
loop_
_geom_bond_atom_site_label_1
_geom_bond_atom_site_label_2
_geom_bond_distance
_geom_bond_site_symmetry_2
I0 Lu0 2.988030 1_555
I0 Na3 3.213606 1_555
I0 Na0 3.213606 1_555
I0 Na4 3.244424 1_555
I1 Lu0 2.988030 1_555
I1 Na3 3.213606 1_655
I1 Na0 3.213606 1_565
I1 Na4 3.244424 1_555
I2 Lu0 3.012073 1_555
I2 Na1 3.283436 1_555
I2 Na3 3.283436 1_555
I2 Na2 3.283436 1_565
I2 Na0 3.283436 1_565
I3 Lu0 2.988030 1_555
I3 Na1 3.213606 1_555
I3 Na2 3.213606 1_555
I3 Na4 3.244424 1_556
I4 Lu0 2.988030 1_555
I4 Na1 3.213606 1_655
I4 Na2 3.213606 1_565
I4 Na4 3.244424 1_556
I5 Na3 3.142490 1_555
I5 Na1 3.142490 1_554
I5 Na0 3.142490 1_565
I5 Na2 3.142490 1_564
I5 Na4 3.198849 1_555
I6 Lu0 3.012073 1_555
I6 Na1 3.283436 1_655
I6 Na3 3.283436 1_655
I6 Na2 3.283436 1_555
I6 Na0 3.283436 1_555
I7 Na3 3.142490 1_655
I7 Na1 3.142490 1_654
I7 Na0 3.142490 1_555
I7 Na2 3.142490 1_554
I7 Na4 3.198849 1_555
