# generated using pymatgen
data_NaBH4
_symmetry_space_group_name_H-M   'P 1'
_cell_length_a   4.27632389
_cell_length_b   4.27632389
_cell_length_c   5.79882743
_cell_angle_alpha   90.00000000
_cell_angle_beta   90.00000000
_cell_angle_gamma   90.00000000
_symmetry_Int_Tables_number   1
_chemical_formula_structural   NaBH4
_chemical_formula_sum   'Na2 B2 H8'
_cell_volume   106.04284415
_cell_formula_units_Z   2
loop_
 _symmetry_equiv_pos_site_id
 _symmetry_equiv_pos_as_xyz
  1  'x, y, z'
loop_
 _atom_site_type_symbol
 _atom_site_label
 _atom_site_symmetry_multiplicity
 _atom_site_fract_x
 _atom_site_fract_y
 _atom_site_fract_z
 _atom_site_occupancy
  Na  Na0  1  0.50000000  0.50000000  0.50000000  1
  Na  Na1  1  0.00000000  -0.00000000  0.00000000  1
  B  B0  1  0.50000000  0.50000000  -0.00000000  1
  B  B1  1  0.00000000  -0.00000000  0.50000000  1
  H  H0  1  0.99141903  0.23321254  0.37927869  1
  H  H1  1  0.00858097  0.76678746  0.37927869  1
  H  H2  1  0.23321254  0.00858097  0.62072131  1
  H  H3  1  0.49141903  0.26678746  0.12072131  1
  H  H4  1  0.26678746  0.50858097  0.87927869  1
  H  H5  1  0.76678746  0.99141903  0.62072131  1
  H  H6  1  0.73321254  0.49141903  0.87927869  1
  H  H7  1  0.50858097  0.73321254  0.12072131  1
loop_
_geom_bond_atom_site_label_1
_geom_bond_atom_site_label_2
_geom_bond_distance
_geom_bond_site_symmetry_2
B0 H3 1.219015 1_555
B0 H6 1.219015 1_554
B0 H7 1.219015 1_555
B0 H4 1.219015 1_554
B1 H1 1.219015 1_545
B1 H2 1.219015 1_555
B1 H0 1.219015 1_455
B1 H5 1.219015 1_445
H0 Na1 2.415197 1_655
H0 Na0 2.491547 1_555
H0 Na0 2.553751 1_655
H1 Na1 2.415197 1_565
H1 Na0 2.491547 1_555
H1 Na0 2.553751 1_455
H2 Na1 2.415197 1_556
H2 Na0 2.491547 1_555
H2 Na0 2.553751 1_545
H3 Na0 2.415197 1_555
H3 Na1 2.491547 1_555
H3 Na1 2.553751 1_655
H4 Na0 2.415197 1_555
H4 Na1 2.491547 1_566
H4 Na1 2.553751 1_556
H5 Na1 2.415197 1_666
H5 Na0 2.491547 1_555
H5 Na0 2.553751 1_565
H6 Na0 2.415197 1_555
H6 Na1 2.491547 1_656
H6 Na1 2.553751 1_666
H7 Na0 2.415197 1_555
H7 Na1 2.491547 1_665
H7 Na1 2.553751 1_565
