# generated using pymatgen
data_ZrBe9Nb2
_symmetry_space_group_name_H-M   'P 1'
_cell_length_a   7.64866666
_cell_length_b   7.64866669
_cell_length_c   7.64866655
_cell_angle_alpha   35.15509877
_cell_angle_beta   35.15509637
_cell_angle_gamma   35.15510012
_symmetry_Int_Tables_number   1
_chemical_formula_structural   ZrBe9Nb2
_chemical_formula_sum   'Zr1 Be9 Nb2'
_cell_volume   132.49418920
_cell_formula_units_Z   1
loop_
 _symmetry_equiv_pos_site_id
 _symmetry_equiv_pos_as_xyz
  1  'x, y, z'
loop_
 _atom_site_type_symbol
 _atom_site_label
 _atom_site_symmetry_multiplicity
 _atom_site_fract_x
 _atom_site_fract_y
 _atom_site_fract_z
 _atom_site_occupancy
  Zr  Zr0  1  0.00000000  0.00000000  0.00000000  1
  Be  Be0  1  0.50000000  0.50000000  0.50000000  1
  Be  Be1  1  0.33493869  0.33493869  0.33493969  1
  Be  Be2  1  0.66506131  0.66506131  0.66506031  1
  Be  Be3  1  0.07672291  0.58626127  0.58626127  1
  Be  Be4  1  0.58626127  0.58626127  0.07672291  1
  Be  Be5  1  0.58626127  0.07672291  0.58626127  1
  Be  Be6  1  0.41373873  0.92327709  0.41373873  1
  Be  Be7  1  0.92327709  0.41373873  0.41373873  1
  Be  Be8  1  0.41373873  0.41373873  0.92327709  1
  Nb  Nb0  1  0.14207617  0.14207617  0.14207617  1
  Nb  Nb1  1  0.85792383  0.85792383  0.85792383  1
loop_
_geom_bond_atom_site_label_1
_geom_bond_atom_site_label_2
_geom_bond_distance
_geom_bond_site_symmetry_2
Be0 Be8 2.253481 1_555
Be0 Be4 2.253481 1_555
Be0 Be7 2.253481 1_555
Be0 Be3 2.253481 1_555
Be0 Be6 2.253481 1_555
Be0 Be5 2.253481 1_555
Be0 Nb1 2.719129 1_554
Be0 Nb0 2.719129 1_556
Be0 Nb1 2.719129 1_455
Be0 Nb0 2.719129 1_655
Be0 Nb1 2.719129 1_545
Be0 Nb0 2.719129 1_565
Be1 Be3 2.217474 1_555
Be1 Be5 2.217474 1_555
Be1 Be4 2.217477 1_555
Be1 Be7 2.242381 1_455
Be1 Be6 2.242381 1_545
Be1 Be8 2.242384 1_554
Be1 Zr0 2.667428 1_556
Be1 Zr0 2.667432 1_655
Be1 Zr0 2.667433 1_565
Be2 Be7 2.217474 1_555
Be2 Be6 2.217474 1_555
Be2 Be8 2.217477 1_555
Be2 Be3 2.242381 1_655
Be2 Be5 2.242381 1_565
Be2 Be4 2.242384 1_556
Be2 Zr0 2.667428 1_665
Be2 Zr0 2.667432 1_566
Be2 Zr0 2.667433 1_656
Be3 Be4 2.265805 1_456
Be3 Be5 2.265805 1_465
Be3 Be4 2.353934 1_555
Be3 Be5 2.353934 1_555
Be3 Nb0 2.635484 1_556
Be3 Nb0 2.635484 1_565
Be3 Nb1 2.668959 1_455
Be3 Zr0 2.920367 1_565
Be3 Zr0 2.920367 1_556
Be4 Be5 2.265805 1_564
Be4 Be5 2.353934 1_555
Be4 Nb0 2.635484 1_565
Be4 Nb0 2.635484 1_655
Be4 Nb1 2.668959 1_554
Be4 Zr0 2.920367 1_655
Be4 Zr0 2.920367 1_565
Be5 Nb0 2.635484 1_556
Be5 Nb0 2.635484 1_655
Be5 Nb1 2.668959 1_545
Be5 Zr0 2.920367 1_655
Be5 Zr0 2.920367 1_556
Be6 Be8 2.265805 1_564
Be6 Be7 2.265805 1_465
Be6 Be8 2.353934 1_555
Be6 Be7 2.353934 1_555
Be6 Nb1 2.635484 1_554
Be6 Nb1 2.635484 1_455
Be6 Nb0 2.668959 1_565
Be6 Zr0 2.920367 1_566
Be6 Zr0 2.920367 1_665
Be7 Be8 2.265805 1_654
Be7 Be8 2.353934 1_555
Be7 Nb1 2.635484 1_554
Be7 Nb1 2.635484 1_545
Be7 Nb0 2.668959 1_655
Be7 Zr0 2.920367 1_656
Be7 Zr0 2.920367 1_665
Be8 Nb1 2.635484 1_545
Be8 Nb1 2.635484 1_455
Be8 Nb0 2.668959 1_556
Be8 Zr0 2.920367 1_566
Be8 Zr0 2.920367 1_656
Nb0 Nb1 2.869261 1_445
Nb0 Nb1 2.869261 1_544
Nb0 Nb1 2.869262 1_454
Nb0 Zr0 3.055440 1_555
Nb1 Zr0 3.055440 1_666
