# generated using pymatgen
data_Ti2Pd3
_symmetry_space_group_name_H-M   'P 1'
_cell_length_a   4.59806935
_cell_length_b   4.70005421
_cell_length_c   7.52805833
_cell_angle_alpha   108.19001076
_cell_angle_beta   90.00000000
_cell_angle_gamma   90.00000000
_symmetry_Int_Tables_number   1
_chemical_formula_structural   Ti2Pd3
_chemical_formula_sum   'Ti4 Pd6'
_cell_volume   154.55998805
_cell_formula_units_Z   2
loop_
 _symmetry_equiv_pos_site_id
 _symmetry_equiv_pos_as_xyz
  1  'x, y, z'
loop_
 _atom_site_type_symbol
 _atom_site_label
 _atom_site_symmetry_multiplicity
 _atom_site_fract_x
 _atom_site_fract_y
 _atom_site_fract_z
 _atom_site_occupancy
  Ti  Ti0  1  0.75000000  0.33628392  0.21527162  1
  Ti  Ti1  1  0.25000000  0.66371608  0.78472838  1
  Ti  Ti2  1  0.75000000  0.12101230  0.78472838  1
  Ti  Ti3  1  0.25000000  0.87898770  0.21527162  1
  Pd  Pd0  1  0.25000000  0.08889773  0.61077042  1
  Pd  Pd1  1  0.75000000  0.91110227  0.38922958  1
  Pd  Pd2  1  0.75000000  0.52187269  0.61077042  1
  Pd  Pd3  1  0.25000000  0.47812731  0.38922958  1
  Pd  Pd4  1  0.75000000  0.70214351  -0.00000000  1
  Pd  Pd5  1  0.25000000  0.29785649  0.00000000  1
loop_
_geom_bond_atom_site_label_1
_geom_bond_atom_site_label_2
_geom_bond_distance
_geom_bond_site_symmetry_2
Pd0 Ti1 2.608658 1_555
Pd0 Ti2 2.626765 1_455
Pd0 Ti2 2.626765 1_555
Pd0 Ti1 2.709681 1_545
Pd0 Ti3 2.829127 1_545
Pd1 Ti0 2.608658 1_555
Pd1 Ti3 2.626765 1_655
Pd1 Ti3 2.626765 1_555
Pd1 Ti0 2.709681 1_565
Pd1 Ti2 2.829127 1_565
Pd2 Ti2 2.608659 1_555
Pd2 Ti1 2.626765 1_655
Pd2 Ti1 2.626765 1_555
Pd2 Ti2 2.709680 1_565
Pd2 Ti0 2.829127 1_555
Pd3 Ti3 2.608659 1_555
Pd3 Ti0 2.626765 1_555
Pd3 Ti0 2.626765 1_455
Pd3 Ti3 2.709680 1_545
Pd3 Ti1 2.829127 1_555
Pd4 Ti2 2.706102 1_554
Pd4 Ti0 2.706102 1_555
Pd4 Ti3 2.785985 1_655
Pd4 Ti3 2.785985 1_555
Pd4 Ti1 2.785985 1_554
Pd4 Ti1 2.785985 1_654
Pd4 Ti0 2.914444 1_565
Pd4 Ti2 2.914445 1_564
Pd5 Ti3 2.706102 1_555
Pd5 Ti1 2.706102 1_554
Pd5 Ti2 2.785985 1_554
Pd5 Ti2 2.785985 1_454
Pd5 Ti0 2.785985 1_555
Pd5 Ti0 2.785985 1_455
Pd5 Ti1 2.914444 1_544
Pd5 Ti3 2.914445 1_545
