# generated using pymatgen
data_K4(TiTe3)3
_symmetry_space_group_name_H-M   'P 1'
_cell_length_a   8.26103600
_cell_length_b   9.09045400
_cell_length_c   29.92113096
_cell_angle_alpha   87.77403510
_cell_angle_beta   90.00000000
_cell_angle_gamma   90.00000000
_symmetry_Int_Tables_number   1
_chemical_formula_structural   K4(TiTe3)3
_chemical_formula_sum   'K16 Ti12 Te36'
_cell_volume   2245.27871100
_cell_formula_units_Z   4
loop_
 _symmetry_equiv_pos_site_id
 _symmetry_equiv_pos_as_xyz
  1  'x, y, z'
loop_
 _atom_site_type_symbol
 _atom_site_label
 _atom_site_symmetry_multiplicity
 _atom_site_fract_x
 _atom_site_fract_y
 _atom_site_fract_z
 _atom_site_occupancy
  K  K0  1  0.76546300  0.39132900  0.51602200  1
  K  K1  1  0.26546300  0.60867100  0.98397800  1
  K  K2  1  0.23453700  0.60867100  0.48397800  1
  K  K3  1  0.73453700  0.39132900  0.01602200  1
  K  K4  1  0.78524900  0.93144500  0.56630400  1
  K  K5  1  0.28524900  0.06855500  0.93369600  1
  K  K6  1  0.21475100  0.06855500  0.43369600  1
  K  K7  1  0.71475100  0.93144500  0.06630400  1
  K  K8  1  0.76052300  0.12544800  0.23370300  1
  K  K9  1  0.26052300  0.87455200  0.26629700  1
  K  K10  1  0.23947700  0.87455200  0.76629700  1
  K  K11  1  0.73947700  0.12544800  0.73370300  1
  K  K12  1  0.77695700  0.57186900  0.68170300  1
  K  K13  1  0.27695700  0.42813100  0.81829700  1
  K  K14  1  0.22304300  0.42813100  0.31829700  1
  K  K15  1  0.72304300  0.57186900  0.18170300  1
  Ti  Ti0  1  0.73313600  0.25102900  0.37309600  1
  Ti  Ti1  1  0.23313600  0.74897100  0.12690400  1
  Ti  Ti2  1  0.26686400  0.74897100  0.62690400  1
  Ti  Ti3  1  0.76686400  0.25102900  0.87309600  1
  Ti  Ti4  1  0.81128100  0.91902700  0.87000400  1
  Ti  Ti5  1  0.31128100  0.08097300  0.62999600  1
  Ti  Ti6  1  0.18871900  0.08097300  0.12999600  1
  Ti  Ti7  1  0.68871900  0.91902700  0.37000400  1
  Ti  Ti8  1  0.80286700  0.58442000  0.88281300  1
  Ti  Ti9  1  0.30286700  0.41558000  0.61718700  1
  Ti  Ti10  1  0.19713300  0.41558000  0.11718700  1
  Ti  Ti11  1  0.69713300  0.58442000  0.38281300  1
  Te  Te0  1  0.96924600  0.42207300  0.40990000  1
  Te  Te1  1  0.46924600  0.57792700  0.09010000  1
  Te  Te2  1  0.03075400  0.57792700  0.59010000  1
  Te  Te3  1  0.53075400  0.42207300  0.90990000  1
  Te  Te4  1  0.01060300  0.11454200  0.82519600  1
  Te  Te5  1  0.51060300  0.88545800  0.67480400  1
  Te  Te6  1  0.98939700  0.88545800  0.17480400  1
  Te  Te7  1  0.48939700  0.11454200  0.32519600  1
  Te  Te8  1  0.99440400  0.61675300  0.07458600  1
  Te  Te9  1  0.49440400  0.38324700  0.42541400  1
  Te  Te10  1  0.00559600  0.38324700  0.92541400  1
  Te  Te11  1  0.50559600  0.61675300  0.57458600  1
  Te  Te12  1  0.96772000  0.07216200  0.33909600  1
  Te  Te13  1  0.46772000  0.92783800  0.16090400  1
  Te  Te14  1  0.03228000  0.92783800  0.66090400  1
  Te  Te15  1  0.53228000  0.07216200  0.83909600  1
  Te  Te16  1  0.83422900  0.44820400  0.80075800  1
  Te  Te17  1  0.33422900  0.55179600  0.69924200  1
  Te  Te18  1  0.16577100  0.55179600  0.19924200  1
  Te  Te19  1  0.66577100  0.44820400  0.30075800  1
  Te  Te20  1  0.83427600  0.06865400  0.94907900  1
  Te  Te21  1  0.33427600  0.93134600  0.55092100  1
  Te  Te22  1  0.16572400  0.93134600  0.05092100  1
  Te  Te23  1  0.66572400  0.06865400  0.44907900  1
  Te  Te24  1  0.83877800  0.74074400  0.30870200  1
  Te  Te25  1  0.33877800  0.25925600  0.19129800  1
  Te  Te26  1  0.16122200  0.25925600  0.69129800  1
  Te  Te27  1  0.66122200  0.74074400  0.80870200  1
  Te  Te28  1  0.83971100  0.76876300  0.44379800  1
  Te  Te29  1  0.33971100  0.23123700  0.05620200  1
  Te  Te30  1  0.16028900  0.23123700  0.55620200  1
  Te  Te31  1  0.66028900  0.76876300  0.94379800  1
  Te  Te32  1  0.91256300  0.25292600  0.12271600  1
  Te  Te33  1  0.41256300  0.74707400  0.37728400  1
  Te  Te34  1  0.08743700  0.74707400  0.87728400  1
  Te  Te35  1  0.58743700  0.25292600  0.62271600  1
loop_
_geom_bond_atom_site_label_1
_geom_bond_atom_site_label_2
_geom_bond_distance
_geom_bond_site_symmetry_2
K0 Te11 3.486742 1_555
K0 Te9 3.519239 1_555
K0 Te2 3.589602 1_655
K0 Te0 3.595229 1_555
K0 Te35 3.691243 1_555
K0 Te23 3.708284 1_555
K0 Te30 3.750450 1_655
K0 Te28 4.030179 1_555
K1 Te10 3.486742 1_555
K1 Te8 3.519239 1_456
K1 Te3 3.589602 1_555
K1 Te1 3.595229 1_556
K1 Te34 3.691243 1_555
K1 Te22 3.708284 1_556
K1 Te31 3.750450 1_555
K1 Te29 4.030179 1_556
K2 Te9 3.486742 1_555
K2 Te11 3.519239 1_555
K2 Te0 3.589602 1_455
K2 Te2 3.595229 1_555
K2 Te33 3.691243 1_555
K2 Te21 3.708284 1_555
K2 Te28 3.750450 1_455
K2 Te30 4.030179 1_555
K3 Te8 3.486742 1_555
K3 Te10 3.519239 1_654
K3 Te1 3.589602 1_555
K3 Te3 3.595229 1_554
K3 Te32 3.691243 1_555
K3 Te20 3.708284 1_554
K3 Te29 3.750450 1_555
K3 Te31 4.030179 1_554
K4 Te14 3.488611 1_655
K4 Te11 3.677912 1_555
K4 Te21 3.753834 1_555
K4 Te35 3.800406 1_565
K4 Te23 3.807025 1_565
K4 Te2 3.843172 1_655
K4 Te5 3.969440 1_555
K4 Te28 4.030700 1_555
K4 Te30 4.129564 1_665
K5 Te15 3.488611 1_555
K5 Te10 3.677912 1_555
K5 Te20 3.753834 1_455
K5 Te34 3.800406 1_545
K5 Te22 3.807025 1_546
K5 Te3 3.843172 1_555
K5 Te4 3.969440 1_555
K5 Te29 4.030700 1_556
K5 Te31 4.129564 1_545
K6 Te12 3.488611 1_455
K6 Te9 3.677912 1_555
K6 Te23 3.753834 1_555
K6 Te33 3.800406 1_545
K6 Te21 3.807025 1_545
K6 Te0 3.843172 1_455
K6 Te7 3.969440 1_555
K6 Te30 4.030700 1_555
K6 Te28 4.129564 1_445
K7 Te13 3.488611 1_555
K7 Te8 3.677912 1_555
K7 Te22 3.753834 1_655
K7 Te32 3.800406 1_565
K7 Te20 3.807025 1_564
K7 Te1 3.843172 1_555
K7 Te6 3.969440 1_555
K7 Te31 4.030700 1_554
K7 Te29 4.129564 1_565
K8 Te6 3.426192 1_545
K8 Te7 3.535489 1_555
K8 Te12 3.604190 1_555
K8 Te32 3.694536 1_555
K8 Te19 3.701866 1_555
K8 Te13 3.758514 1_545
K8 Te25 3.886921 1_555
K9 Te7 3.426192 1_565
K9 Te6 3.535489 1_455
K9 Te13 3.604190 1_555
K9 Te33 3.694536 1_555
K9 Te18 3.701866 1_555
K9 Te12 3.758514 1_465
K9 Te24 3.886921 1_455
K10 Te4 3.426192 1_565
K10 Te5 3.535489 1_555
K10 Te14 3.604190 1_555
K10 Te34 3.694536 1_555
K10 Te17 3.701866 1_555
K10 Te15 3.758514 1_565
K10 Te27 3.886921 1_555
K11 Te5 3.426192 1_545
K11 Te4 3.535489 1_655
K11 Te15 3.604190 1_555
K11 Te35 3.694536 1_555
K11 Te16 3.701866 1_555
K11 Te14 3.758514 1_645
K11 Te26 3.886921 1_655
K12 Te2 3.449564 1_655
K12 Te5 3.600664 1_555
K12 Te17 3.698348 1_555
K12 Te16 3.723738 1_555
K12 Te35 3.790771 1_555
K12 Te14 3.892415 1_655
K12 Te11 3.919520 1_555
K13 Te3 3.449564 1_555
K13 Te4 3.600664 1_555
K13 Te16 3.698348 1_455
K13 Te17 3.723738 1_555
K13 Te34 3.790771 1_555
K13 Te15 3.892415 1_555
K13 Te10 3.919520 1_555
K14 Te0 3.449564 1_455
K14 Te7 3.600664 1_555
K14 Te19 3.698348 1_555
K14 Te18 3.723738 1_555
K14 Te33 3.790771 1_555
K14 Te12 3.892415 1_455
K14 Te9 3.919520 1_555
K15 Te1 3.449564 1_555
K15 Te6 3.600664 1_555
K15 Te18 3.698348 1_655
K15 Te19 3.723738 1_555
K15 Te32 3.790771 1_555
K15 Te13 3.892415 1_555
K15 Te8 3.919520 1_555
Te0 Ti0 2.750964 1_555
Te0 Ti11 2.791984 1_555
Te1 Ti1 2.750964 1_555
Te1 Ti10 2.791984 1_555
Te2 Ti2 2.750964 1_555
Te2 Ti9 2.791984 1_555
Te3 Ti3 2.750964 1_555
Te3 Ti8 2.791984 1_555
Te4 Ti4 2.735428 1_445
Te4 Ti3 2.790340 1_455
Te5 Ti5 2.735428 1_565
Te5 Ti2 2.790340 1_555
Te6 Ti6 2.735428 1_665
Te6 Ti1 2.790340 1_655
Te7 Ti7 2.735428 1_545
Te7 Ti0 2.790340 1_555
Te8 Ti10 2.755510 1_655
Te8 Ti1 2.816161 1_655
Te9 Ti11 2.755510 1_555
Te9 Ti0 2.816161 1_555
Te10 Ti8 2.755510 1_455
Te10 Ti3 2.816161 1_455
Te10 Te20 3.244305 1_455
Te11 Ti9 2.755510 1_555
Te11 Ti2 2.816161 1_555
Te11 Te21 3.244305 1_555
Te12 Ti0 2.750043 1_555
Te12 Ti7 2.829378 1_545
Te13 Ti1 2.750043 1_555
Te13 Ti6 2.829378 1_565
Te14 Ti2 2.750043 1_555
Te14 Ti5 2.829378 1_565
Te15 Ti3 2.750043 1_555
Te15 Ti4 2.829378 1_545
Te16 Ti8 2.804370 1_555
Te16 Ti3 2.811733 1_555
Te17 Ti9 2.804370 1_555
Te17 Ti2 2.811733 1_555
Te18 Ti10 2.804370 1_555
Te18 Ti1 2.811733 1_555
Te19 Ti11 2.804370 1_555
Te19 Ti0 2.811733 1_555
Te20 Ti4 2.781040 1_545
Te20 Ti3 2.816854 1_555
Te20 Te31 3.091305 1_545
Te21 Ti5 2.781040 1_565
Te21 Ti2 2.816854 1_555
Te21 Te30 3.091305 1_565
Te22 Ti6 2.781040 1_565
Te22 Ti1 2.816854 1_555
Te22 Te29 3.091305 1_565
Te22 Te8 3.244305 1_455
Te23 Ti7 2.781040 1_545
Te23 Ti0 2.816854 1_555
Te23 Te28 3.091305 1_545
Te23 Te9 3.244305 1_555
Te24 Ti7 2.785426 1_555
Te24 Ti11 2.839202 1_555
Te25 Ti6 2.785426 1_555
Te25 Ti10 2.839202 1_555
Te26 Ti5 2.785426 1_555
Te26 Ti9 2.839202 1_555
Te27 Ti4 2.785426 1_555
Te27 Ti8 2.839202 1_555
Te28 Ti11 2.786162 1_555
Te28 Ti7 2.839494 1_555
Te29 Ti10 2.786162 1_555
Te29 Ti6 2.839494 1_555
Te30 Ti9 2.786162 1_555
Te30 Ti5 2.839494 1_555
Te31 Ti8 2.786162 1_555
Te31 Ti4 2.839494 1_555
Te32 Ti6 2.769271 1_655
Te32 Ti10 2.778684 1_655
Te33 Ti7 2.769271 1_555
Te33 Ti11 2.778684 1_555
Te34 Ti4 2.769271 1_455
Te34 Ti8 2.778684 1_455
Te35 Ti5 2.769271 1_555
Te35 Ti9 2.778684 1_555
