# generated using pymatgen
data_SiO2
_symmetry_space_group_name_H-M   'P 1'
_cell_length_a   11.48936772
_cell_length_b   11.48936772
_cell_length_c   10.07745070
_cell_angle_alpha   87.18326785
_cell_angle_beta   87.18326785
_cell_angle_gamma   132.37966176
_symmetry_Int_Tables_number   1
_chemical_formula_structural   SiO2
_chemical_formula_sum   'Si16 O32'
_cell_volume   975.36313525
_cell_formula_units_Z   16
loop_
 _symmetry_equiv_pos_site_id
 _symmetry_equiv_pos_as_xyz
  1  'x, y, z'
loop_
 _atom_site_type_symbol
 _atom_site_label
 _atom_site_symmetry_multiplicity
 _atom_site_fract_x
 _atom_site_fract_y
 _atom_site_fract_z
 _atom_site_occupancy
  Si  Si0  1  0.01090400  0.47692100  0.22000400  1
  Si  Si1  1  0.96917900  0.28657900  0.98546000  1
  Si  Si2  1  0.31890100  0.47193600  0.88816500  1
  Si  Si3  1  0.32882000  0.67252400  0.34506200  1
  Si  Si4  1  0.32747600  0.67118000  0.65493800  1
  Si  Si5  1  0.52806400  0.68109900  0.11183500  1
  Si  Si6  1  0.28657900  0.96917900  0.98546000  1
  Si  Si7  1  0.47692100  0.01090400  0.22000400  1
  Si  Si8  1  0.52307900  0.98909600  0.77999600  1
  Si  Si9  1  0.71342100  0.03082100  0.01454000  1
  Si  Si10  1  0.47193600  0.31890100  0.88816500  1
  Si  Si11  1  0.67252400  0.32882000  0.34506200  1
  Si  Si12  1  0.67118000  0.32747600  0.65493800  1
  Si  Si13  1  0.68109900  0.52806400  0.11183500  1
  Si  Si14  1  0.03082100  0.71342100  0.01454000  1
  Si  Si15  1  0.98909600  0.52307900  0.77999600  1
  O  O0  1  0.65697800  0.43567200  0.25136100  1
  O  O1  1  0.84542900  0.38547000  0.31161500  1
  O  O2  1  0.43567200  0.65697800  0.25136100  1
  O  O3  1  0.38547000  0.84542900  0.31161500  1
  O  O4  1  0.59714500  0.40285500  0.00000000  1
  O  O5  1  0.59724700  0.59724700  0.13287000  1
  O  O6  1  0.35586000  0.99943800  0.13037800  1
  O  O7  1  0.67486500  0.86999800  0.06842200  1
  O  O8  1  0.99943800  0.35586000  0.13037800  1
  O  O9  1  0.86999800  0.67486500  0.06842200  1
  O  O10  1  0.62329800  0.06003400  0.11993200  1
  O  O11  1  0.53865400  0.14352500  0.32137100  1
  O  O12  1  0.06003400  0.62329800  0.11993200  1
  O  O13  1  0.65054800  0.34945200  0.50000000  1
  O  O14  1  0.86946200  0.13053800  0.50000000  1
  O  O15  1  0.14352500  0.53865400  0.32137100  1
  O  O16  1  0.85647500  0.46134600  0.67862900  1
  O  O17  1  0.13053800  0.86946200  0.50000000  1
  O  O18  1  0.34945200  0.65054800  0.50000000  1
  O  O19  1  0.93996600  0.37670200  0.88006800  1
  O  O20  1  0.46134600  0.85647500  0.67862900  1
  O  O21  1  0.37670200  0.93996600  0.88006800  1
  O  O22  1  0.13000200  0.32513500  0.93157800  1
  O  O23  1  0.00056200  0.64414000  0.86962200  1
  O  O24  1  0.32513500  0.13000200  0.93157800  1
  O  O25  1  0.64414000  0.00056200  0.86962200  1
  O  O26  1  0.40275300  0.40275300  0.86713000  1
  O  O27  1  0.40285500  0.59714500  0.00000000  1
  O  O28  1  0.61453000  0.15457100  0.68838500  1
  O  O29  1  0.56432800  0.34302200  0.74863900  1
  O  O30  1  0.15457100  0.61453000  0.68838500  1
  O  O31  1  0.34302200  0.56432800  0.74863900  1
loop_
_geom_bond_atom_site_label_1
_geom_bond_atom_site_label_2
_geom_bond_distance
_geom_bond_site_symmetry_2
O0 Si13 1.612168 1_555
O0 Si11 1.621402 1_555
O1 Si0 1.615576 1_655
O1 Si11 1.628882 1_555
O2 Si5 1.612168 1_555
O2 Si3 1.621402 1_555
O3 Si7 1.615576 1_565
O3 Si3 1.628882 1_555
O4 Si13 1.632675 1_555
O4 Si10 1.632675 1_554
O5 Si5 1.622876 1_555
O5 Si13 1.622876 1_555
O6 Si7 1.629699 1_565
O6 Si6 1.636565 1_554
O7 Si5 1.626626 1_555
O7 Si9 1.636944 1_565
O8 Si0 1.629699 1_655
O8 Si1 1.636565 1_554
O9 Si13 1.626626 1_555
O9 Si14 1.636944 1_655
O10 Si7 1.631450 1_555
O10 Si9 1.645692 1_555
O11 Si11 1.620746 1_555
O11 Si7 1.623451 1_555
O12 Si0 1.631450 1_555
O12 Si14 1.645692 1_555
O13 Si12 1.623628 1_555
O13 Si11 1.623628 1_555
O15 Si3 1.620746 1_555
O15 Si0 1.623451 1_555
O16 Si12 1.620746 1_555
O16 Si15 1.623451 1_555
O18 Si3 1.623628 1_555
O18 Si4 1.623628 1_555
O19 Si15 1.631450 1_555
O19 Si1 1.645692 1_555
O20 Si4 1.620746 1_555
O20 Si8 1.623451 1_555
O21 Si8 1.631450 1_555
O21 Si6 1.645692 1_555
O22 Si2 1.626626 1_555
O22 Si1 1.636944 1_455
O23 Si15 1.629699 1_455
O23 Si14 1.636565 1_556
O24 Si10 1.626626 1_555
O24 Si6 1.636944 1_545
O25 Si8 1.629699 1_545
O25 Si9 1.636565 1_556
O26 Si10 1.622876 1_555
O26 Si2 1.622876 1_555
O27 Si5 1.632675 1_555
O27 Si2 1.632675 1_554
O28 Si8 1.615576 1_545
O28 Si12 1.628882 1_555
O29 Si10 1.612168 1_555
O29 Si12 1.621402 1_555
O30 Si15 1.615576 1_455
O30 Si4 1.628882 1_555
O31 Si2 1.612168 1_555
O31 Si4 1.621402 1_555
