# generated using pymatgen
data_Y16Al4Pd3Ru
_symmetry_space_group_name_H-M   'P 1'
_cell_length_a   9.63969590
_cell_length_b   9.63969606
_cell_length_c   9.63969585
_cell_angle_alpha   59.61673590
_cell_angle_beta   59.61673936
_cell_angle_gamma   59.61673659
_symmetry_Int_Tables_number   1
_chemical_formula_structural   Y16Al4Pd3Ru
_chemical_formula_sum   'Y16 Al4 Pd3 Ru1'
_cell_volume   627.87853286
_cell_formula_units_Z   1
loop_
 _symmetry_equiv_pos_site_id
 _symmetry_equiv_pos_as_xyz
  1  'x, y, z'
loop_
 _atom_site_type_symbol
 _atom_site_label
 _atom_site_symmetry_multiplicity
 _atom_site_fract_x
 _atom_site_fract_y
 _atom_site_fract_z
 _atom_site_occupancy
  Y  Y0  1  0.35787992  0.35787992  0.35787992  1
  Y  Y1  1  0.35029326  0.35029326  0.94169411  1
  Y  Y2  1  0.35029326  0.94169411  0.35029326  1
  Y  Y3  1  0.94169411  0.35029326  0.35029326  1
  Y  Y4  1  0.81406461  0.19088051  0.19088051  1
  Y  Y5  1  0.19171772  0.80616901  0.80616901  1
  Y  Y6  1  0.19088051  0.81406461  0.19088051  1
  Y  Y7  1  0.80616901  0.19171772  0.80616901  1
  Y  Y8  1  0.19088051  0.19088051  0.81406461  1
  Y  Y9  1  0.80616901  0.80616901  0.19171772  1
  Y  Y10  1  0.93573341  0.56293132  0.56293132  1
  Y  Y11  1  0.55914357  0.93672301  0.93672301  1
  Y  Y12  1  0.56293132  0.93573341  0.56293132  1
  Y  Y13  1  0.93672301  0.55914357  0.93672301  1
  Y  Y14  1  0.56293132  0.56293132  0.93573341  1
  Y  Y15  1  0.93672301  0.93672301  0.55914357  1
  Al  Al0  1  0.57772401  0.57772401  0.57772401  1
  Al  Al1  1  0.57912294  0.57912294  0.26643403  1
  Al  Al2  1  0.57912294  0.26643403  0.57912294  1
  Al  Al3  1  0.26643403  0.57912294  0.57912294  1
  Pd  Pd0  1  0.14651965  0.14651965  0.56773903  1
  Pd  Pd1  1  0.14651965  0.56773903  0.14651965  1
  Pd  Pd2  1  0.56773903  0.14651965  0.14651965  1
  Ru  Ru0  1  0.14258919  0.14258919  0.14258919  1
loop_
_geom_bond_atom_site_label_1
_geom_bond_atom_site_label_2
_geom_bond_distance
_geom_bond_site_symmetry_2
Y0 Y12 3.471719 1_545
Y0 Y14 3.471719 1_554
Y0 Y10 3.471719 1_455
Y0 Y6 3.580551 1_555
Y0 Y8 3.580551 1_555
Y0 Y4 3.580551 1_555
Y1 Y13 3.453378 1_455
Y1 Y11 3.453379 1_545
Y1 Y14 3.523951 1_555
Y10 Y3 3.523951 1_555
Y10 Y12 3.572860 1_555
Y10 Y14 3.572860 1_555
Y10 Y13 3.589719 1_555
Y10 Y15 3.589719 1_555
Y10 Y9 3.596351 1_555
Y10 Y7 3.596352 1_555
Y10 Y8 3.617988 1_655
Y10 Y6 3.617988 1_655
Y11 Y2 3.453379 1_556
Y11 Y8 3.538406 1_565
Y11 Y6 3.538406 1_556
Y11 Y12 3.589719 1_555
Y11 Y14 3.589719 1_555
Y11 Y9 3.613384 1_556
Y11 Y7 3.613384 1_565
Y11 Y13 3.618645 1_555
Y11 Y15 3.618646 1_555
Y12 Y2 3.523951 1_555
Y12 Y14 3.572860 1_555
Y12 Y15 3.589719 1_555
Y12 Y5 3.596352 1_555
Y12 Y9 3.596352 1_555
Y12 Y4 3.617988 1_565
Y12 Y8 3.617989 1_565
Y13 Y3 3.453378 1_556
Y13 Y4 3.538406 1_556
Y13 Y8 3.538406 1_655
Y13 Y14 3.589719 1_555
Y13 Y5 3.613384 1_655
Y13 Y9 3.613384 1_556
Y13 Y15 3.618645 1_555
Y14 Y5 3.596351 1_555
Y14 Y7 3.596352 1_555
Y14 Y4 3.617988 1_556
Y14 Y6 3.617989 1_556
Y15 Y3 3.453379 1_565
Y15 Y2 3.453379 1_655
Y15 Y4 3.538405 1_565
Y15 Y6 3.538406 1_655
Y15 Y5 3.613384 1_655
Y15 Y7 3.613384 1_565
Al0 Al1 2.987160 1_555
Al0 Al3 2.987160 1_555
Al0 Al2 2.987160 1_555
Al0 Y14 3.312963 1_555
Al0 Y10 3.312963 1_555
Al0 Y12 3.312963 1_555
Al0 Y2 3.350071 1_555
Al0 Y1 3.350071 1_555
Al0 Y3 3.350071 1_555
Al0 Y7 3.445620 1_555
Al0 Y9 3.445620 1_555
Al0 Y5 3.445620 1_555
Al1 Al2 2.996748 1_555
Al1 Al3 2.996748 1_555
Al1 Y0 3.266739 1_555
Al1 Y11 3.299461 1_554
Al1 Y13 3.299461 1_554
Al1 Y3 3.315158 1_555
Al1 Y2 3.315158 1_555
Al1 Y14 3.352972 1_554
Al1 Y9 3.428643 1_555
Al1 Y6 3.490121 1_555
Al1 Y4 3.490121 1_555
Al2 Al3 2.996748 1_555
Al2 Y0 3.266739 1_555
Al2 Y11 3.299461 1_545
Al2 Y15 3.299461 1_545
Al2 Y1 3.315158 1_555
Al2 Y3 3.315158 1_555
Al2 Y12 3.352972 1_545
Al2 Y7 3.428643 1_555
Al2 Y4 3.490121 1_555
Al2 Y8 3.490121 1_555
Al3 Y0 3.266739 1_555
Al3 Y15 3.299461 1_455
Al3 Y13 3.299461 1_455
Al3 Y1 3.315158 1_555
Al3 Y2 3.315158 1_555
Al3 Y10 3.352972 1_455
Al3 Y5 3.428643 1_555
Al3 Y6 3.490121 1_555
Al3 Y8 3.490121 1_555
Pd0 Y5 2.859307 1_545
Pd0 Y7 2.859307 1_455
Pd0 Y8 2.871106 1_555
Pd0 Y3 2.872088 1_455
Pd0 Y2 2.872088 1_545
Pd0 Y0 2.873201 1_555
Pd0 Y12 3.449662 1_545
Pd0 Y10 3.449662 1_455
Pd0 Y15 3.558537 1_445
Pd1 Y5 2.859307 1_554
Pd1 Y9 2.859307 1_455
Pd1 Y6 2.871106 1_555
Pd1 Y3 2.872088 1_455
Pd1 Y1 2.872088 1_554
Pd1 Y0 2.873201 1_555
Pd1 Y10 3.449662 1_455
Pd1 Y14 3.449662 1_554
Pd1 Y13 3.558537 1_454
Pd2 Y9 2.859307 1_545
Pd2 Y7 2.859307 1_554
Pd2 Y4 2.871106 1_555
Pd2 Y1 2.872088 1_554
Pd2 Y2 2.872088 1_545
Pd2 Y0 2.873201 1_555
Pd2 Y12 3.449662 1_545
Pd2 Y14 3.449662 1_554
Pd2 Y11 3.558537 1_544
Ru0 Y8 2.774740 1_554
Ru0 Y4 2.774740 1_455
Ru0 Y6 2.774740 1_545
Ru0 Y2 2.824647 1_545
Ru0 Y1 2.824648 1_554
Ru0 Y3 2.824648 1_455
Ru0 Y13 3.444193 1_454
Ru0 Y15 3.444193 1_445
Ru0 Y11 3.444194 1_544
