# generated using pymatgen
data_H(Pd3Pb)5
_symmetry_space_group_name_H-M   'P 1'
_cell_length_a   4.09045003
_cell_length_b   4.09045003
_cell_length_c   20.41839981
_cell_angle_alpha   90.00000000
_cell_angle_beta   90.00000000
_cell_angle_gamma   90.00000000
_symmetry_Int_Tables_number   1
_chemical_formula_structural   H(Pd3Pb)5
_chemical_formula_sum   'H1 Pd15 Pb5'
_cell_volume   341.63620288
_cell_formula_units_Z   1
loop_
 _symmetry_equiv_pos_site_id
 _symmetry_equiv_pos_as_xyz
  1  'x, y, z'
loop_
 _atom_site_type_symbol
 _atom_site_label
 _atom_site_symmetry_multiplicity
 _atom_site_fract_x
 _atom_site_fract_y
 _atom_site_fract_z
 _atom_site_occupancy
  H  H0  1  0.50000000  0.50000000  0.10000000  1
  Pd  Pd0  1  0.00000000  0.50000000  0.10000000  1
  Pd  Pd1  1  0.00000000  0.50000000  0.30104737  1
  Pd  Pd2  1  0.00000000  0.50000000  0.50030119  1
  Pd  Pd3  1  0.00000000  0.50000000  0.69969881  1
  Pd  Pd4  1  0.00000000  0.50000000  0.89895263  1
  Pd  Pd5  1  0.50000000  0.50000000  0.99956761  1
  Pd  Pd6  1  0.50000000  0.50000000  0.20043239  1
  Pd  Pd7  1  0.50000000  0.50000000  0.39978097  1
  Pd  Pd8  1  0.50000000  0.50000000  0.60000000  1
  Pd  Pd9  1  0.50000000  0.50000000  0.80021903  1
  Pd  Pd10  1  0.50000000  0.00000000  0.10000000  1
  Pd  Pd11  1  0.50000000  0.00000000  0.30104737  1
  Pd  Pd12  1  0.50000000  0.00000000  0.50030119  1
  Pd  Pd13  1  0.50000000  0.00000000  0.69969881  1
  Pd  Pd14  1  0.50000000  0.00000000  0.89895263  1
  Pb  Pb0  1  0.00000000  0.00000000  0.99566403  1
  Pb  Pb1  1  0.00000000  0.00000000  0.20433597  1
  Pb  Pb2  1  0.00000000  0.00000000  0.40215365  1
  Pb  Pb3  1  0.00000000  0.00000000  0.60000000  1
  Pb  Pb4  1  0.00000000  0.00000000  0.79784635  1
loop_
_geom_bond_atom_site_label_1
_geom_bond_atom_site_label_2
_geom_bond_distance
_geom_bond_site_symmetry_2
H0 Pd10 2.045225 1_555
H0 Pd10 2.045225 1_565
H0 Pd0 2.045225 1_555
H0 Pd0 2.045225 1_655
H0 Pd6 2.050669 1_555
H0 Pd5 2.050669 1_554
Pd1 Pd7 2.871782 1_555
Pd1 Pd7 2.871782 1_455
Pd1 Pd11 2.892385 1_455
Pd1 Pd11 2.892385 1_555
Pd1 Pd11 2.892385 1_465
Pd1 Pd11 2.892385 1_565
Pd1 Pd6 2.898878 1_555
Pd1 Pd6 2.898878 1_455
Pd2 Pd8 2.885651 1_455
Pd2 Pd8 2.885651 1_555
Pd2 Pd7 2.897507 1_555
Pd2 Pd7 2.897507 1_455
Pd3 Pd8 2.885651 1_455
Pd3 Pd8 2.885651 1_555
Pd3 Pd9 2.897507 1_555
Pd3 Pd9 2.897507 1_455
Pd4 Pd9 2.871782 1_455
Pd4 Pd9 2.871782 1_555
Pd4 Pd5 2.898878 1_555
Pd4 Pd5 2.898878 1_455
Pd11 Pd7 2.871782 1_555
Pd11 Pd7 2.871782 1_545
Pd11 Pd6 2.898878 1_555
Pd11 Pd6 2.898878 1_545
Pd12 Pd8 2.885651 1_545
Pd12 Pd8 2.885651 1_555
Pd12 Pd2 2.892385 1_645
Pd12 Pd2 2.892385 1_555
Pd12 Pd2 2.892385 1_655
Pd12 Pd2 2.892385 1_545
Pd12 Pd7 2.897507 1_555
Pd12 Pd7 2.897507 1_545
Pd13 Pd8 2.885651 1_545
Pd13 Pd8 2.885651 1_555
Pd13 Pd3 2.892385 1_555
Pd13 Pd3 2.892385 1_655
Pd13 Pd3 2.892385 1_545
Pd13 Pd3 2.892385 1_645
Pd13 Pd9 2.897507 1_545
Pd13 Pd9 2.897507 1_555
Pd14 Pd9 2.871782 1_545
Pd14 Pd9 2.871782 1_555
Pd14 Pd4 2.892385 1_655
Pd14 Pd4 2.892385 1_555
Pd14 Pd4 2.892385 1_545
Pd14 Pd4 2.892385 1_645
Pd14 Pd5 2.898878 1_545
Pd14 Pd5 2.898878 1_555
Pb0 Pd4 2.842948 1_555
Pb0 Pd4 2.842948 1_545
Pb0 Pd14 2.842948 1_555
Pb0 Pd14 2.842948 1_455
Pb0 Pd5 2.893483 1_445
Pb0 Pd5 2.893483 1_545
Pb0 Pd5 2.893483 1_555
Pb0 Pd5 2.893483 1_455
Pb0 Pd0 2.953208 1_546
Pb0 Pd10 2.953208 1_456
Pb0 Pd0 2.953208 1_556
Pb0 Pd10 2.953208 1_556
Pb1 Pd1 2.842948 1_545
Pb1 Pd11 2.842948 1_455
Pb1 Pd11 2.842948 1_555
Pb1 Pd1 2.842948 1_555
Pb1 Pd6 2.893483 1_555
Pb1 Pd6 2.893483 1_445
Pb1 Pd6 2.893483 1_545
Pb1 Pd6 2.893483 1_455
Pb1 Pd10 2.953208 1_555
Pb1 Pd0 2.953208 1_545
Pb1 Pd0 2.953208 1_555
Pb1 Pd10 2.953208 1_455
Pb2 Pd2 2.863394 1_545
Pb2 Pd12 2.863394 1_555
Pb2 Pd12 2.863394 1_455
Pb2 Pd2 2.863394 1_555
Pb2 Pd7 2.892791 1_455
Pb2 Pd7 2.892791 1_445
Pb2 Pd7 2.892791 1_555
Pb2 Pd7 2.892791 1_545
Pb2 Pd11 2.905996 1_455
Pb2 Pd11 2.905996 1_555
Pb2 Pd1 2.905996 1_555
Pb2 Pd1 2.905996 1_545
Pb3 Pd3 2.885651 1_555
Pb3 Pd12 2.885651 1_555
Pb3 Pd12 2.885651 1_455
Pb3 Pd3 2.885651 1_545
Pb3 Pd2 2.885651 1_555
Pb3 Pd13 2.885651 1_455
Pb3 Pd2 2.885651 1_545
Pb3 Pd13 2.885651 1_555
Pb3 Pd8 2.892385 1_455
Pb3 Pd8 2.892385 1_545
Pb3 Pd8 2.892385 1_555
Pb3 Pd8 2.892385 1_445
Pb4 Pd3 2.863394 1_555
Pb4 Pd13 2.863394 1_555
Pb4 Pd3 2.863394 1_545
Pb4 Pd13 2.863394 1_455
Pb4 Pd9 2.892791 1_545
Pb4 Pd9 2.892791 1_445
Pb4 Pd9 2.892791 1_455
Pb4 Pd9 2.892791 1_555
Pb4 Pd14 2.905996 1_455
Pb4 Pd14 2.905996 1_555
Pb4 Pd4 2.905996 1_555
Pb4 Pd4 2.905996 1_545
