# generated using pymatgen
data_Rb12In2AsP5
_symmetry_space_group_name_H-M   'P 1'
_cell_length_a   9.30150539
_cell_length_b   9.28630173
_cell_length_c   10.42889799
_cell_angle_alpha   81.91826475
_cell_angle_beta   106.98192851
_cell_angle_gamma   119.51453485
_symmetry_Int_Tables_number   1
_chemical_formula_structural   Rb12In2AsP5
_chemical_formula_sum   'Rb12 In2 As1 P5'
_cell_volume   749.72782954
_cell_formula_units_Z   1
loop_
 _symmetry_equiv_pos_site_id
 _symmetry_equiv_pos_as_xyz
  1  'x, y, z'
loop_
 _atom_site_type_symbol
 _atom_site_label
 _atom_site_symmetry_multiplicity
 _atom_site_fract_x
 _atom_site_fract_y
 _atom_site_fract_z
 _atom_site_occupancy
  Rb  Rb0  1  0.73541148  0.12575558  0.61732691  1
  Rb  Rb1  1  0.25399889  0.85727786  0.39264683  1
  Rb  Rb2  1  0.96625843  0.81722877  0.62781817  1
  Rb  Rb3  1  0.02723951  0.20031722  0.39527644  1
  Rb  Rb4  1  0.62682237  0.44518488  0.39963994  1
  Rb  Rb5  1  0.40644212  0.56877815  0.59557257  1
  Rb  Rb6  1  0.86310438  0.48620164  0.13194456  1
  Rb  Rb7  1  0.10877071  0.50316516  0.84150392  1
  Rb  Rb8  1  0.75687919  0.09577539  0.98570925  1
  Rb  Rb9  1  0.23899769  0.87339135  0.00424955  1
  Rb  Rb10  1  0.55667078  0.61723488  0.94913765  1
  Rb  Rb11  1  0.24237329  0.19994475  0.11067095  1
  In  In0  1  0.59311353  0.83415554  0.25745905  1
  In  In1  1  0.41915307  0.17607041  0.75031436  1
  As  As0  1  0.29576803  0.55828409  0.22775848  1
  P  P0  1  0.70522498  0.43281505  0.76218207  1
  P  P1  1  0.60026762  0.11076484  0.26123020  1
  P  P2  1  0.38835735  0.88549333  0.74053402  1
  P  P3  1  0.85779762  0.82445594  0.24715694  1
  P  P4  1  0.16672697  0.20444618  0.76324811  1
loop_
_geom_bond_atom_site_label_1
_geom_bond_atom_site_label_2
_geom_bond_distance
_geom_bond_site_symmetry_2
In0 P3 2.540991 1_555
In0 P1 2.542153 1_565
In0 Rb8 3.632363 1_564
In1 P4 2.530820 1_555
In1 P0 2.533760 1_555
In1 P2 2.583117 1_545
In1 Rb8 3.706638 1_555
As0 In0 2.655156 1_555
As0 Rb11 3.459891 1_555
As0 Rb6 3.581525 1_455
As0 Rb3 3.616110 1_555
As0 Rb9 3.627719 1_555
As0 Rb4 3.637477 1_555
As0 Rb5 3.671911 1_555
As0 Rb1 3.689551 1_555
As0 Rb7 3.888906 1_554
P0 Rb7 3.335044 1_655
P0 Rb5 3.515183 1_555
P0 Rb2 3.555712 1_555
P0 Rb0 3.569250 1_555
P0 Rb4 3.631821 1_555
P0 Rb10 3.672588 1_555
P0 Rb6 3.712814 1_556
P0 Rb8 3.773192 1_555
P1 Rb1 3.463299 1_545
P1 Rb4 3.476383 1_555
P1 Rb6 3.486495 1_555
P1 Rb3 3.499734 1_655
P1 Rb9 3.526416 1_545
P1 Rb0 3.554869 1_555
P1 Rb8 3.626985 1_554
P1 Rb11 3.678397 1_555
P2 Rb9 3.390844 1_556
P2 Rb0 3.401502 1_565
P2 Rb8 3.433632 1_565
P2 Rb7 3.453752 1_555
P2 Rb1 3.477001 1_555
P2 Rb2 3.501383 1_455
P2 Rb5 3.584709 1_555
P2 Rb10 3.703902 1_555
P3 Rb3 3.424398 1_665
P3 Rb1 3.425390 1_655
P3 Rb10 3.534667 1_554
P3 Rb4 3.537603 1_555
P3 Rb6 3.544213 1_555
P3 Rb8 3.683385 1_564
P3 Rb2 3.799279 1_555
P4 Rb7 3.319437 1_555
P4 Rb2 3.418323 1_445
P4 Rb11 3.481648 1_556
P4 Rb5 3.557732 1_555
P4 Rb0 3.578110 1_455
P4 Rb3 3.673617 1_555
