# generated using pymatgen
data_Yb4MnS7
_symmetry_space_group_name_H-M   'P 1'
_cell_length_a   6.44551583
_cell_length_b   6.44551583
_cell_length_c   11.30465184
_cell_angle_alpha   75.86736833
_cell_angle_beta   75.86736833
_cell_angle_gamma   33.55709416
_symmetry_Int_Tables_number   1
_chemical_formula_structural   Yb4MnS7
_chemical_formula_sum   'Yb4 Mn1 S7'
_cell_volume   251.02229518
_cell_formula_units_Z   1
loop_
 _symmetry_equiv_pos_site_id
 _symmetry_equiv_pos_as_xyz
  1  'x, y, z'
loop_
 _atom_site_type_symbol
 _atom_site_label
 _atom_site_symmetry_multiplicity
 _atom_site_fract_x
 _atom_site_fract_y
 _atom_site_fract_z
 _atom_site_occupancy
  Yb  Yb0  1  0.69498146  0.69498146  0.20102721  1
  Yb  Yb1  1  0.30676363  0.30676363  0.80101772  1
  Yb  Yb2  1  0.00094195  0.00094195  0.00468930  1
  Yb  Yb3  1  0.11273106  0.11273106  0.56931943  1
  Mn  Mn0  1  0.88515003  0.88515003  0.42078174  1
  S  S0  1  0.74159796  0.74159796  0.64190525  1
  S  S1  1  0.26391626  0.26391626  0.35355984  1
  S  S2  1  0.34082082  0.34082082  0.05073188  1
  S  S3  1  0.66036272  0.66036272  0.94790132  1
  S  S4  1  0.03736107  0.03736107  0.22188205  1
  S  S5  1  0.96211361  0.96211361  0.78564038  1
  S  S6  1  0.49325944  0.49325944  0.50154488  1
loop_
_geom_bond_atom_site_label_1
_geom_bond_atom_site_label_2
_geom_bond_distance
_geom_bond_site_symmetry_2
Mn0 S4 2.535835 1_665
Mn0 S6 2.587918 1_565
Mn0 S6 2.587918 1_655
Mn0 S1 2.618845 1_565
Mn0 S1 2.618845 1_655
Mn0 S0 2.669977 1_555
S0 Yb3 2.707526 1_565
S0 Yb3 2.707526 1_655
S0 Yb1 2.842910 1_565
S0 Yb1 2.842910 1_655
S1 Yb3 2.666384 1_555
S1 Yb0 2.812024 1_455
S1 Yb0 2.812024 1_545
S2 Yb2 2.667180 1_565
S2 Yb2 2.667180 1_655
S2 Yb0 2.833518 1_455
S2 Yb0 2.833518 1_545
S2 Yb1 2.958184 1_554
S3 Yb2 2.664836 1_566
S3 Yb2 2.664836 1_656
S3 Yb1 2.820247 1_565
S3 Yb1 2.820247 1_655
S3 Yb0 2.999058 1_556
S4 Yb2 2.606414 1_555
S4 Yb0 2.658608 1_545
S4 Yb0 2.658608 1_455
S5 Yb2 2.639480 1_666
S5 Yb1 2.645471 1_655
S5 Yb1 2.645471 1_565
S5 Yb3 2.667808 1_665
S6 Yb3 2.607593 1_565
S6 Yb3 2.607593 1_655
