# generated using pymatgen
data_Ta3Ga2BPt
_symmetry_space_group_name_H-M   'P 1'
_cell_length_a   8.35994634
_cell_length_b   8.35994648
_cell_length_c   8.35994527
_cell_angle_alpha   59.99999702
_cell_angle_beta   59.99999648
_cell_angle_gamma   60.00000043
_symmetry_Int_Tables_number   1
_chemical_formula_structural   Ta3Ga2BPt
_chemical_formula_sum   'Ta12 Ga8 B4 Pt4'
_cell_volume   413.13824784
_cell_formula_units_Z   4
loop_
 _symmetry_equiv_pos_site_id
 _symmetry_equiv_pos_as_xyz
  1  'x, y, z'
loop_
 _atom_site_type_symbol
 _atom_site_label
 _atom_site_symmetry_multiplicity
 _atom_site_fract_x
 _atom_site_fract_y
 _atom_site_fract_z
 _atom_site_occupancy
  Ta  Ta0  1  0.56210644  0.93789356  0.56210644  1
  Ta  Ta1  1  0.31210644  0.68789356  0.68789356  1
  Ta  Ta2  1  0.68789356  0.31210644  0.31210644  1
  Ta  Ta3  1  0.31210644  0.68789356  0.31210644  1
  Ta  Ta4  1  0.68789356  0.68789356  0.31210644  1
  Ta  Ta5  1  0.31210644  0.31210644  0.68789356  1
  Ta  Ta6  1  0.56210644  0.56210644  0.93789356  1
  Ta  Ta7  1  0.93789356  0.56210644  0.56210644  1
  Ta  Ta8  1  0.56210644  0.93789356  0.93789356  1
  Ta  Ta9  1  0.93789356  0.93789356  0.56210644  1
  Ta  Ta10  1  0.68789356  0.31210644  0.68789356  1
  Ta  Ta11  1  0.93789356  0.56210644  0.93789356  1
  Ga  Ga0  1  0.91296144  0.91296144  0.91296144  1
  Ga  Ga1  1  0.98888332  0.33703856  0.33703856  1
  Ga  Ga2  1  0.33703856  0.98888332  0.33703856  1
  Ga  Ga3  1  0.33703856  0.33703856  0.98888332  1
  Ga  Ga4  1  0.91296144  0.26111668  0.91296144  1
  Ga  Ga5  1  0.91296144  0.91296144  0.26111668  1
  Ga  Ga6  1  0.26111668  0.91296144  0.91296144  1
  Ga  Ga7  1  0.33703856  0.33703856  0.33703856  1
  B  B0  1  0.62500000  0.62500000  0.62500000  1
  B  B1  1  0.12500000  0.62500000  0.62500000  1
  B  B2  1  0.62500000  0.12500000  0.62500000  1
  B  B3  1  0.62500000  0.62500000  0.12500000  1
  Pt  Pt0  1  0.12500000  0.12500000  0.12500000  1
  Pt  Pt1  1  0.62500000  0.12500000  0.12500000  1
  Pt  Pt2  1  0.12500000  0.62500000  0.12500000  1
  Pt  Pt3  1  0.12500000  0.12500000  0.62500000  1
loop_
_geom_bond_atom_site_label_1
_geom_bond_atom_site_label_2
_geom_bond_distance
_geom_bond_site_symmetry_2
Ga0 Pt3 2.585981 1_665
Ga0 Pt1 2.585981 1_566
Ga0 Pt2 2.585981 1_656
Ga0 Ta9 2.740595 1_555
Ga0 Ta8 2.740596 1_555
Ga0 Ta11 2.740596 1_555
Ga1 Pt0 2.585979 1_655
Ga1 Pt3 2.585986 1_655
Ga1 Pt2 2.585986 1_655
Ga1 Ta2 2.740587 1_555
Ga1 Ta10 2.740592 1_555
Ga1 Ta4 2.740592 1_555
Ga2 Pt0 2.585979 1_565
Ga2 Pt3 2.585986 1_565
Ga2 Pt1 2.585986 1_565
Ga2 Ta3 2.740588 1_555
Ga2 Ta1 2.740592 1_555
Ga2 Ta4 2.740592 1_555
Ga3 Pt0 2.585979 1_556
Ga3 Pt1 2.585986 1_556
Ga3 Pt2 2.585986 1_556
Ga3 Ta5 2.740587 1_555
Ga3 Ta10 2.740592 1_555
Ga3 Ta1 2.740592 1_555
Ga4 Pt0 2.585979 1_656
Ga4 Pt3 2.585986 1_655
Ga4 Pt1 2.585986 1_556
Ga4 Ta11 2.740588 1_555
Ga4 Ta7 2.740592 1_555
Ga4 Ta6 2.740592 1_555
Ga5 Pt0 2.585979 1_665
Ga5 Pt1 2.585986 1_565
Ga5 Pt2 2.585986 1_655
Ga5 Ta9 2.740587 1_555
Ga5 Ta0 2.740592 1_555
Ga5 Ta7 2.740592 1_555
Ga6 Pt0 2.585979 1_566
Ga6 Pt3 2.585986 1_565
Ga6 Pt2 2.585986 1_556
Ga6 Ta8 2.740587 1_555
Ga6 Ta0 2.740592 1_555
Ga6 Ta6 2.740592 1_555
Ga7 Pt3 2.585981 1_555
Ga7 Pt1 2.585981 1_555
Ga7 Pt2 2.585981 1_555
Ga7 Ta5 2.740595 1_555
Ga7 Ta2 2.740596 1_555
Ga7 Ta3 2.740596 1_555
B0 Ta6 2.218320 1_555
B0 Ta4 2.218320 1_555
B0 Ta7 2.218321 1_555
B0 Ta1 2.218321 1_555
B0 Ta0 2.218321 1_555
B0 Ta10 2.218321 1_555
B1 Ta11 2.218321 1_455
B1 Ta3 2.218321 1_555
B1 Ta1 2.218321 1_555
B1 Ta7 2.218321 1_455
B1 Ta9 2.218321 1_455
B1 Ta5 2.218321 1_555
B2 Ta8 2.218321 1_545
B2 Ta2 2.218321 1_555
B2 Ta10 2.218321 1_555
B2 Ta0 2.218321 1_545
B2 Ta9 2.218321 1_545
B2 Ta5 2.218321 1_555
B3 Ta4 2.218321 1_555
B3 Ta6 2.218321 1_554
B3 Ta11 2.218321 1_554
B3 Ta3 2.218321 1_555
B3 Ta8 2.218321 1_554
B3 Ta2 2.218321 1_555
Pt0 Ta9 3.043268 1_445
Pt0 Ta5 3.043268 1_554
Pt0 Ta8 3.043269 1_544
Pt0 Ta2 3.043269 1_455
Pt0 Ta11 3.043269 1_454
Pt0 Ta3 3.043269 1_545
Pt1 Ta0 3.043268 1_545
Pt1 Ta10 3.043268 1_554
Pt1 Ta2 3.043269 1_555
Pt1 Ta8 3.043269 1_544
Pt1 Ta6 3.043269 1_554
Pt1 Ta4 3.043269 1_545
Pt2 Ta7 3.043268 1_455
Pt2 Ta1 3.043268 1_554
Pt2 Ta3 3.043269 1_555
Pt2 Ta11 3.043269 1_454
Pt2 Ta6 3.043269 1_554
Pt2 Ta4 3.043269 1_455
Pt3 Ta5 3.043269 1_555
Pt3 Ta9 3.043269 1_445
Pt3 Ta0 3.043269 1_545
Pt3 Ta10 3.043269 1_455
Pt3 Ta7 3.043269 1_455
Pt3 Ta1 3.043269 1_545
