# generated using pymatgen
data_CdSb2Pb5O11
_symmetry_space_group_name_H-M   'P 1'
_cell_length_a   7.34015663
_cell_length_b   7.34015643
_cell_length_c   11.23147064
_cell_angle_alpha   90.00000000
_cell_angle_beta   90.00000000
_cell_angle_gamma   103.87349007
_symmetry_Int_Tables_number   1
_chemical_formula_structural   CdSb2Pb5O11
_chemical_formula_sum   'Cd2 Sb4 Pb10 O22'
_cell_volume   587.47494739
_cell_formula_units_Z   2
loop_
 _symmetry_equiv_pos_site_id
 _symmetry_equiv_pos_as_xyz
  1  'x, y, z'
loop_
 _atom_site_type_symbol
 _atom_site_label
 _atom_site_symmetry_multiplicity
 _atom_site_fract_x
 _atom_site_fract_y
 _atom_site_fract_z
 _atom_site_occupancy
  Cd  Cd0  1  0.57783043  0.42216957  0.25000000  1
  Cd  Cd1  1  0.42216957  0.57783043  0.75000000  1
  Sb  Sb0  1  0.67702975  0.67702975  0.50000000  1
  Sb  Sb1  1  0.67702975  0.67702975  0.00000000  1
  Sb  Sb2  1  0.32297025  0.32297025  0.50000000  1
  Sb  Sb3  1  0.32297025  0.32297025  0.00000000  1
  Pb  Pb0  1  0.99914370  0.00085630  0.75000000  1
  Pb  Pb1  1  0.78107037  0.21892963  0.47702090  1
  Pb  Pb2  1  0.21892963  0.78107037  0.52297910  1
  Pb  Pb3  1  0.05481239  0.48740915  0.25000000  1
  Pb  Pb4  1  0.48740915  0.05481239  0.75000000  1
  Pb  Pb5  1  0.21892963  0.78107037  0.97702090  1
  Pb  Pb6  1  0.51259085  0.94518761  0.25000000  1
  Pb  Pb7  1  0.00085630  0.99914370  0.25000000  1
  Pb  Pb8  1  0.94518761  0.51259085  0.75000000  1
  Pb  Pb9  1  0.78107037  0.21892963  0.02297910  1
  O  O0  1  0.19240066  0.47315449  0.60274193  1
  O  O1  1  0.47315449  0.19240066  0.39725807  1
  O  O2  1  0.19240066  0.47315449  0.89725807  1
  O  O3  1  0.25835566  0.10758523  0.89141856  1
  O  O4  1  0.10758523  0.25835566  0.39141856  1
  O  O5  1  0.89241477  0.74164434  0.60858144  1
  O  O6  1  0.43643161  0.56356839  0.40299151  1
  O  O7  1  0.74164434  0.89241477  0.39141856  1
  O  O8  1  0.10758523  0.25835566  0.10858144  1
  O  O9  1  0.74164434  0.89241477  0.10858144  1
  O  O10  1  0.43643161  0.56356839  0.09700849  1
  O  O11  1  0.19987206  0.80012794  0.75000000  1
  O  O12  1  0.52684551  0.80759934  0.60274193  1
  O  O13  1  0.56356839  0.43643161  0.90299151  1
  O  O14  1  0.52684551  0.80759934  0.89725807  1
  O  O15  1  0.80012794  0.19987206  0.25000000  1
  O  O16  1  0.47315449  0.19240066  0.10274193  1
  O  O17  1  0.89241477  0.74164434  0.89141856  1
  O  O18  1  0.25835566  0.10758523  0.60858144  1
  O  O19  1  0.56356839  0.43643161  0.59700849  1
  O  O20  1  0.80759934  0.52684551  0.39725807  1
  O  O21  1  0.80759934  0.52684551  0.10274193  1
loop_
_geom_bond_atom_site_label_1
_geom_bond_atom_site_label_2
_geom_bond_distance
_geom_bond_site_symmetry_2
Cd0 O1 2.355589 1_555
Cd0 O16 2.355589 1_555
Cd0 O20 2.355589 1_555
Cd0 O21 2.355589 1_555
Cd0 O6 2.371421 1_555
Cd0 O10 2.371421 1_555
Cd0 O15 2.569372 1_555
Cd1 O14 2.355589 1_555
Cd1 O12 2.355589 1_555
Cd1 O2 2.355589 1_555
Cd1 O0 2.355589 1_555
Cd1 O13 2.371421 1_555
Cd1 O19 2.371421 1_555
Cd1 O11 2.569372 1_555
O0 Sb2 1.992991 1_555
O0 Pb2 2.395349 1_555
O0 Pb8 2.522670 1_455
O1 Sb2 1.992991 1_555
O1 Pb1 2.395349 1_555
O1 Pb6 2.522670 1_545
O2 Sb3 1.992991 1_556
O2 Pb5 2.395349 1_555
O2 Pb8 2.522670 1_455
O3 Sb3 1.962663 1_556
O3 Pb4 2.410792 1_555
O3 Pb0 2.458015 1_455
O3 Pb5 2.533679 1_545
O4 Sb2 1.962663 1_555
O4 Pb3 2.410792 1_555
O4 Pb7 2.458015 1_545
O4 Pb1 2.533680 1_455
O5 Sb0 1.962663 1_555
O5 Pb8 2.410792 1_555
O5 Pb0 2.458015 1_565
O5 Pb2 2.533680 1_655
O6 Sb2 2.072254 1_555
O6 Sb0 2.072254 1_555
O7 Sb0 1.962663 1_555
O7 Pb6 2.410792 1_555
O7 Pb7 2.458015 1_655
O7 Pb1 2.533679 1_565
O8 Sb3 1.962663 1_555
O8 Pb3 2.410792 1_555
O8 Pb7 2.458015 1_545
O8 Pb9 2.533680 1_455
O9 Sb1 1.962663 1_555
O9 Pb6 2.410792 1_555
O9 Pb7 2.458015 1_655
O9 Pb9 2.533679 1_565
O10 Sb3 2.072254 1_555
O10 Sb1 2.072254 1_555
O11 Pb0 2.320070 1_465
O11 Pb8 2.461122 1_455
O11 Pb4 2.461122 1_565
O11 Pb5 2.559275 1_555
O11 Pb2 2.559275 1_555
O12 Sb0 1.992991 1_555
O12 Pb2 2.395349 1_555
O12 Pb4 2.522670 1_565
O13 Sb1 2.072254 1_556
O13 Sb3 2.072254 1_556
O14 Sb1 1.992991 1_556
O14 Pb5 2.395349 1_555
O14 Pb4 2.522670 1_565
O15 Pb7 2.320070 1_645
O15 Pb3 2.461122 1_655
O15 Pb6 2.461122 1_545
O15 Pb1 2.559275 1_555
O15 Pb9 2.559275 1_555
O16 Sb3 1.992991 1_555
O16 Pb9 2.395349 1_555
O16 Pb6 2.522670 1_545
O17 Sb1 1.962663 1_556
O17 Pb8 2.410792 1_555
O17 Pb0 2.458015 1_565
O17 Pb5 2.533680 1_655
O18 Sb2 1.962663 1_555
O18 Pb4 2.410792 1_555
O18 Pb0 2.458015 1_455
O18 Pb2 2.533679 1_545
O19 Sb0 2.072254 1_555
O19 Sb2 2.072254 1_555
O20 Sb0 1.992991 1_555
O20 Pb1 2.395349 1_555
O20 Pb3 2.522670 1_655
O21 Sb1 1.992991 1_555
O21 Pb9 2.395349 1_555
O21 Pb3 2.522670 1_655
