# generated using pymatgen
data_ZrTi(SiTc)2
_symmetry_space_group_name_H-M   'P 1'
_cell_length_a   3.32902751
_cell_length_b   6.87343468
_cell_length_c   11.90820252
_cell_angle_alpha   89.97804124
_cell_angle_beta   90.00000000
_cell_angle_gamma   90.00000000
_symmetry_Int_Tables_number   1
_chemical_formula_structural   ZrTi(SiTc)2
_chemical_formula_sum   'Zr3 Ti3 Si6 Tc6'
_cell_volume   272.48172102
_cell_formula_units_Z   3
loop_
 _symmetry_equiv_pos_site_id
 _symmetry_equiv_pos_as_xyz
  1  'x, y, z'
loop_
 _atom_site_type_symbol
 _atom_site_label
 _atom_site_symmetry_multiplicity
 _atom_site_fract_x
 _atom_site_fract_y
 _atom_site_fract_z
 _atom_site_occupancy
  Zr  Zr0  1  0.50000000  0.29949368  0.29783059  1
  Zr  Zr1  1  0.50000000  0.29636340  0.70299121  1
  Zr  Zr2  1  0.50000000  0.79999173  0.20134179  1
  Ti  Ti0  1  0.50000000  0.40150711  0.99770946  1
  Ti  Ti1  1  0.50000000  0.90257290  0.50223840  1
  Ti  Ti2  1  0.50000000  0.79764363  0.79847699  1
  Si  Si0  1  0.50000000  0.00150774  0.99644224  1
  Si  Si1  1  0.50000000  0.50428339  0.50161389  1
  Si  Si2  1  0.00000000  0.98987171  0.66680054  1
  Si  Si3  1  0.00000000  0.49739996  0.15836551  1
  Si  Si4  1  0.00000000  0.50653093  0.83693830  1
  Si  Si5  1  0.00000000  0.99681777  0.34081022  1
  Tc  Tc0  1  0.00000000  0.24158407  0.50214270  1
  Tc  Tc1  1  0.00000000  0.74256014  0.99589180  1
  Tc  Tc2  1  0.00000000  0.63247774  0.63025851  1
  Tc  Tc3  1  0.00000000  0.13049779  0.12432610  1
  Tc  Tc4  1  0.00000000  0.12819037  0.87109954  1
  Tc  Tc5  1  0.00000000  0.63090194  0.37472220  1
loop_
_geom_bond_atom_site_label_1
_geom_bond_atom_site_label_2
_geom_bond_distance
_geom_bond_site_symmetry_2
Si0 Tc4 2.399100 1_555
Si0 Tc4 2.399100 1_655
Si0 Tc3 2.424218 1_656
Si0 Tc3 2.424218 1_556
Si0 Tc1 2.436916 1_545
Si0 Tc1 2.436916 1_645
Si0 Ti2 2.742883 1_545
Si0 Ti0 2.749417 1_555
Si0 Zr2 2.805256 1_546
Si1 Tc5 2.410458 1_555
Si1 Tc5 2.410458 1_655
Si1 Tc2 2.427929 1_555
Si1 Tc2 2.427929 1_655
Si1 Tc0 2.455809 1_655
Si1 Tc0 2.455809 1_555
Si1 Ti1 2.737630 1_555
Si1 Zr1 2.791124 1_555
Si1 Zr0 2.805854 1_555
Si2 Tc2 2.494932 1_555
Si2 Tc4 2.612342 1_565
Si2 Tc0 2.614459 1_565
Si2 Ti1 2.640406 1_455
Si2 Ti1 2.640406 1_555
Si2 Ti2 2.640735 1_555
Si2 Ti2 2.640735 1_455
Si2 Zr1 2.719377 1_465
Si2 Zr1 2.719377 1_565
Si3 Tc3 2.554400 1_555
Si3 Tc1 2.565224 1_554
Si3 Ti0 2.620315 1_454
Si3 Ti0 2.620315 1_554
Si3 Zr2 2.712763 1_555
Si3 Zr2 2.712763 1_455
Si3 Zr0 2.716149 1_455
Si3 Zr0 2.716149 1_555
Si3 Tc5 2.735282 1_555
Si4 Tc1 2.493430 1_555
Si4 Tc2 2.608680 1_555
Si4 Tc4 2.631971 1_555
Si4 Ti0 2.637412 1_555
Si4 Ti0 2.637412 1_455
Si4 Ti2 2.642622 1_555
Si4 Ti2 2.642622 1_455
Si4 Zr1 2.720920 1_555
Si4 Zr1 2.720920 1_455
Si5 Tc5 2.547159 1_555
Si5 Tc0 2.554179 1_565
Si5 Ti1 2.623850 1_555
Si5 Ti1 2.623850 1_455
Si5 Zr0 2.712914 1_465
Si5 Zr0 2.712914 1_565
Si5 Zr2 2.713099 1_455
Si5 Zr2 2.713099 1_555
Si5 Tc3 2.736460 1_565
Tc0 Ti1 2.863617 1_445
Tc0 Ti1 2.863617 1_545
Tc0 Zr1 2.938283 1_455
Tc0 Zr1 2.938283 1_555
Tc0 Zr0 2.974515 1_455
Tc0 Zr0 2.974515 1_555
Tc1 Ti0 2.875124 1_555
Tc1 Ti0 2.875124 1_455
Tc1 Ti2 2.905132 1_455
Tc1 Ti2 2.905132 1_555
Tc1 Zr2 2.985420 1_456
Tc1 Zr2 2.985420 1_556
Tc2 Ti2 2.841458 1_555
Tc2 Ti2 2.841458 1_455
Tc2 Ti1 2.922162 1_455
Tc2 Ti1 2.922162 1_555
Tc2 Zr1 2.975992 1_555
Tc2 Zr1 2.975992 1_455
Tc3 Zr0 2.896653 1_555
Tc3 Zr0 2.896653 1_455
Tc3 Ti0 2.917488 1_554
Tc3 Ti0 2.917488 1_454
Tc3 Zr2 2.961552 1_445
Tc3 Zr2 2.961552 1_545
Tc4 Zr1 2.848241 1_555
Tc4 Zr1 2.848241 1_455
Tc4 Ti0 2.928337 1_555
Tc4 Ti0 2.928337 1_455
Tc4 Ti2 2.946514 1_545
Tc4 Ti2 2.946514 1_445
Tc5 Zr2 2.895223 1_455
Tc5 Zr2 2.895223 1_555
Tc5 Ti1 2.926678 1_455
Tc5 Ti1 2.926678 1_555
Tc5 Zr0 2.966394 1_455
Tc5 Zr0 2.966394 1_555
