# generated using pymatgen
data_CsKP2Pt
_symmetry_space_group_name_H-M   'P 1'
_cell_length_a   7.46702247
_cell_length_b   7.46702145
_cell_length_c   6.30495204
_cell_angle_alpha   90.00000000
_cell_angle_beta   90.00000000
_cell_angle_gamma   125.43576263
_symmetry_Int_Tables_number   1
_chemical_formula_structural   CsKP2Pt
_chemical_formula_sum   'Cs2 K2 P4 Pt2'
_cell_volume   286.42411254
_cell_formula_units_Z   2
loop_
 _symmetry_equiv_pos_site_id
 _symmetry_equiv_pos_as_xyz
  1  'x, y, z'
loop_
 _atom_site_type_symbol
 _atom_site_label
 _atom_site_symmetry_multiplicity
 _atom_site_fract_x
 _atom_site_fract_y
 _atom_site_fract_z
 _atom_site_occupancy
  Cs  Cs0  1  0.40351070  0.59648930  0.25000000  1
  Cs  Cs1  1  0.59648930  0.40351070  0.75000000  1
  K  K0  1  0.78761001  0.21238999  0.25000000  1
  K  K1  1  0.21238999  0.78761001  0.75000000  1
  P  P0  1  0.95073927  0.73203309  0.25000000  1
  P  P1  1  0.04926073  0.26796691  0.75000000  1
  P  P2  1  0.26796691  0.04926073  0.25000000  1
  P  P3  1  0.73203309  0.95073927  0.75000000  1
  Pt  Pt0  1  0.00000000  0.00000000  0.00000000  1
  Pt  Pt1  1  0.00000000  0.00000000  0.50000000  1
loop_
_geom_bond_atom_site_label_1
_geom_bond_atom_site_label_2
_geom_bond_distance
_geom_bond_site_symmetry_2
Cs0 P2 3.595208 1_555
Cs0 P0 3.595208 1_555
Cs0 P3 3.927900 1_554
Cs0 P3 3.927900 1_555
Cs0 P1 3.927900 1_554
Cs0 P1 3.927900 1_555
Cs0 P2 4.052453 1_565
Cs0 P0 4.052454 1_455
Cs1 P3 3.595208 1_555
Cs1 P1 3.595208 1_555
Cs1 P2 3.927900 1_555
Cs1 P2 3.927900 1_556
Cs1 P0 3.927900 1_556
Cs1 P0 3.927900 1_555
Cs1 P3 4.052453 1_545
Cs1 P1 4.052454 1_655
K0 Pt1 3.229756 1_655
K0 Pt0 3.229756 1_655
K0 P0 3.325497 1_555
K0 P2 3.325498 1_555
K0 P3 3.603788 1_544
K0 P3 3.603788 1_545
K0 P1 3.603788 1_654
K0 P1 3.603788 1_655
K1 Pt0 3.229756 1_566
K1 Pt1 3.229756 1_565
K1 P1 3.325497 1_555
K1 P3 3.325498 1_555
K1 P2 3.603788 1_565
K1 P2 3.603788 1_566
K1 P0 3.603788 1_455
K1 P0 3.603788 1_456
P0 P2 2.171534 1_665
P0 Pt1 2.402090 1_665
P0 Pt0 2.402090 1_665
P1 P3 2.171534 1_445
P1 Pt0 2.402090 1_556
P1 Pt1 2.402090 1_555
P2 Pt0 2.402090 1_555
P2 Pt1 2.402090 1_555
P3 Pt0 2.402090 1_666
P3 Pt1 2.402090 1_665
