# generated using pymatgen
data_ScCrBr18
_symmetry_space_group_name_H-M   'P 1'
_cell_length_a   8.98666887
_cell_length_b   8.98666961
_cell_length_c   8.98666956
_cell_angle_alpha   90.14252142
_cell_angle_beta   90.14251568
_cell_angle_gamma   90.14252564
_symmetry_Int_Tables_number   1
_chemical_formula_structural   ScCrBr18
_chemical_formula_sum   'Sc1 Cr1 Br18'
_cell_volume   725.75869971
_cell_formula_units_Z   1
loop_
 _symmetry_equiv_pos_site_id
 _symmetry_equiv_pos_as_xyz
  1  'x, y, z'
loop_
 _atom_site_type_symbol
 _atom_site_label
 _atom_site_symmetry_multiplicity
 _atom_site_fract_x
 _atom_site_fract_y
 _atom_site_fract_z
 _atom_site_occupancy
  Sc  Sc0  1  0.00000000  0.00000000  0.00000000  1
  Cr  Cr0  1  0.50000000  0.50000000  0.50000000  1
  Br  Br0  1  0.70650026  0.99372992  0.03022771  1
  Br  Br1  1  0.74796293  0.12991763  0.60253629  1
  Br  Br2  1  0.03022771  0.70650026  0.99372992  1
  Br  Br3  1  0.25203707  0.87008237  0.39746371  1
  Br  Br4  1  0.12991763  0.60253629  0.74796293  1
  Br  Br5  1  0.00627008  0.96977229  0.29349974  1
  Br  Br6  1  0.60253629  0.74796293  0.12991763  1
  Br  Br7  1  0.96977229  0.29349974  0.00627008  1
  Br  Br8  1  0.87008237  0.39746371  0.25203707  1
  Br  Br9  1  0.39746371  0.25203707  0.87008237  1
  Br  Br10  1  0.99372992  0.03022771  0.70650026  1
  Br  Br11  1  0.29349974  0.00627008  0.96977229  1
  Br  Br12  1  0.77792469  0.52811380  0.48643848  1
  Br  Br13  1  0.51356152  0.22207531  0.47188620  1
  Br  Br14  1  0.47188620  0.51356152  0.22207531  1
  Br  Br15  1  0.48643848  0.77792469  0.52811380  1
  Br  Br16  1  0.52811380  0.48643848  0.77792469  1
  Br  Br17  1  0.22207531  0.47188620  0.51356152  1
loop_
_geom_bond_atom_site_label_1
_geom_bond_atom_site_label_2
_geom_bond_distance
_geom_bond_site_symmetry_2
Br0 Br6 2.560717 1_555
Br0 Sc0 2.652682 1_665
Br1 Br13 2.550086 1_555
Br1 Br10 2.560717 1_555
Br2 Br4 2.560717 1_555
Br2 Sc0 2.652682 1_566
Br3 Br5 2.560717 1_555
Br5 Sc0 2.652682 1_565
Br7 Br8 2.560717 1_555
Br7 Sc0 2.652682 1_655
Br10 Sc0 2.652682 1_656
Br11 Br9 2.560717 1_555
Br11 Sc0 2.652682 1_556
Br12 Cr0 2.513027 1_555
Br12 Br8 2.550085 1_555
Br13 Cr0 2.513027 1_555
Br14 Cr0 2.513027 1_555
Br14 Br6 2.550085 1_555
Br15 Cr0 2.513027 1_555
Br15 Br3 2.550086 1_555
Br16 Cr0 2.513027 1_555
Br16 Br9 2.550085 1_555
Br17 Cr0 2.513027 1_555
Br17 Br4 2.550085 1_555
