# generated using pymatgen
data_Ta3MnAl2C
_symmetry_space_group_name_H-M   'P 1'
_cell_length_a   8.24372675
_cell_length_b   8.24372712
_cell_length_c   8.24372688
_cell_angle_alpha   60.00000099
_cell_angle_beta   59.99999950
_cell_angle_gamma   59.99999884
_symmetry_Int_Tables_number   1
_chemical_formula_structural   Ta3MnAl2C
_chemical_formula_sum   'Ta12 Mn4 Al8 C4'
_cell_volume   396.14647018
_cell_formula_units_Z   4
loop_
 _symmetry_equiv_pos_site_id
 _symmetry_equiv_pos_as_xyz
  1  'x, y, z'
loop_
 _atom_site_type_symbol
 _atom_site_label
 _atom_site_symmetry_multiplicity
 _atom_site_fract_x
 _atom_site_fract_y
 _atom_site_fract_z
 _atom_site_occupancy
  Ta  Ta0  1  0.55911281  0.94088719  0.55911281  1
  Ta  Ta1  1  0.30911281  0.69088719  0.69088719  1
  Ta  Ta2  1  0.69088719  0.30911281  0.30911281  1
  Ta  Ta3  1  0.30911281  0.69088719  0.30911281  1
  Ta  Ta4  1  0.69088719  0.69088719  0.30911281  1
  Ta  Ta5  1  0.30911281  0.30911281  0.69088719  1
  Ta  Ta6  1  0.55911281  0.55911281  0.94088719  1
  Ta  Ta7  1  0.94088719  0.55911281  0.55911281  1
  Ta  Ta8  1  0.55911281  0.94088719  0.94088719  1
  Ta  Ta9  1  0.94088719  0.94088719  0.55911281  1
  Ta  Ta10  1  0.69088719  0.30911281  0.69088719  1
  Ta  Ta11  1  0.94088719  0.55911281  0.94088719  1
  Mn  Mn0  1  0.12500000  0.12500000  0.12500000  1
  Mn  Mn1  1  0.62500000  0.12500000  0.12500000  1
  Mn  Mn2  1  0.12500000  0.62500000  0.12500000  1
  Mn  Mn3  1  0.12500000  0.12500000  0.62500000  1
  Al  Al0  1  0.91613672  0.91613672  0.91613672  1
  Al  Al1  1  0.99840915  0.33386328  0.33386328  1
  Al  Al2  1  0.33386328  0.99840915  0.33386328  1
  Al  Al3  1  0.33386328  0.33386328  0.99840915  1
  Al  Al4  1  0.91613672  0.25159085  0.91613672  1
  Al  Al5  1  0.91613672  0.91613672  0.25159085  1
  Al  Al6  1  0.25159085  0.91613672  0.91613672  1
  Al  Al7  1  0.33386328  0.33386328  0.33386328  1
  C  C0  1  0.62500000  0.62500000  0.62500000  1
  C  C1  1  0.12500000  0.62500000  0.62500000  1
  C  C2  1  0.62500000  0.12500000  0.62500000  1
  C  C3  1  0.62500000  0.62500000  0.12500000  1
loop_
_geom_bond_atom_site_label_1
_geom_bond_atom_site_label_2
_geom_bond_distance
_geom_bond_site_symmetry_2
Mn0 Ta8 2.975689 1_544
Mn0 Ta2 2.975689 1_455
Mn0 Ta9 2.975689 1_445
Mn0 Ta5 2.975689 1_554
Mn0 Ta11 2.975689 1_454
Mn0 Ta3 2.975689 1_545
Mn1 Ta0 2.975689 1_545
Mn1 Ta10 2.975689 1_554
Mn1 Ta2 2.975689 1_555
Mn1 Ta8 2.975689 1_544
Mn1 Ta6 2.975689 1_554
Mn1 Ta4 2.975689 1_545
Mn2 Ta6 2.975689 1_554
Mn2 Ta4 2.975689 1_455
Mn2 Ta3 2.975689 1_555
Mn2 Ta11 2.975689 1_454
Mn2 Ta7 2.975689 1_455
Mn2 Ta1 2.975689 1_554
Mn3 Ta0 2.975689 1_545
Mn3 Ta10 2.975689 1_455
Mn3 Ta5 2.975689 1_555
Mn3 Ta9 2.975689 1_445
Mn3 Ta7 2.975689 1_455
Mn3 Ta1 2.975689 1_545
Al0 Mn1 2.527703 1_566
Al0 Mn2 2.527703 1_656
Al0 Mn3 2.527703 1_665
Al0 Ta8 2.754328 1_555
Al0 Ta9 2.754328 1_555
Al0 Ta11 2.754328 1_555
Al0 Al6 2.765392 1_655
Al0 Al5 2.765392 1_556
Al0 Al4 2.765392 1_565
Al0 Ta1 2.967821 1_655
Al0 Ta10 2.967821 1_565
Al0 Ta4 2.967821 1_556
Al1 Mn0 2.527701 1_655
Al1 Mn3 2.527707 1_655
Al1 Mn2 2.527707 1_655
Al1 Ta2 2.754320 1_555
Al1 Ta10 2.754324 1_555
Al1 Ta4 2.754324 1_555
Al1 Al3 2.765392 1_654
Al1 Al7 2.765392 1_655
Al1 Al2 2.765392 1_645
Al1 Ta11 2.967817 1_554
Al1 Ta9 2.967818 1_545
Al1 Ta7 2.967825 1_555
Al2 Mn0 2.527701 1_565
Al2 Mn3 2.527707 1_565
Al2 Mn1 2.527707 1_565
Al2 Ta3 2.754320 1_555
Al2 Ta4 2.754324 1_555
Al2 Ta1 2.754324 1_555
Al2 Al3 2.765392 1_564
Al2 Al7 2.765392 1_565
Al2 Ta9 2.967817 1_455
Al2 Ta8 2.967817 1_554
Al2 Ta0 2.967825 1_555
Al3 Mn0 2.527701 1_556
Al3 Mn1 2.527707 1_556
Al3 Mn2 2.527707 1_556
Al3 Ta5 2.754320 1_555
Al3 Ta10 2.754324 1_555
Al3 Ta1 2.754324 1_555
Al3 Al7 2.765392 1_556
Al3 Ta11 2.967817 1_455
Al3 Ta8 2.967817 1_545
Al3 Ta6 2.967825 1_555
Al4 Mn0 2.527701 1_656
Al4 Mn3 2.527707 1_655
Al4 Mn1 2.527707 1_556
Al4 Ta11 2.754320 1_555
Al4 Ta6 2.754324 1_555
Al4 Ta7 2.754324 1_555
Al4 Al6 2.765392 1_645
Al4 Al5 2.765392 1_546
Al4 Ta5 2.967817 1_655
Al4 Ta2 2.967817 1_556
Al4 Ta10 2.967825 1_555
Al5 Mn0 2.527701 1_665
Al5 Mn1 2.527707 1_565
Al5 Mn2 2.527707 1_655
Al5 Ta9 2.754320 1_555
Al5 Ta0 2.754324 1_555
Al5 Ta7 2.754324 1_555
Al5 Al6 2.765392 1_654
Al5 Ta3 2.967817 1_655
Al5 Ta2 2.967817 1_565
Al5 Ta4 2.967825 1_555
Al6 Mn0 2.527701 1_566
Al6 Mn3 2.527707 1_565
Al6 Mn2 2.527707 1_556
Al6 Ta8 2.754320 1_555
Al6 Ta0 2.754324 1_555
Al6 Ta6 2.754324 1_555
Al6 Ta3 2.967817 1_556
Al6 Ta5 2.967818 1_565
Al6 Ta1 2.967825 1_555
Al7 Mn1 2.527703 1_555
Al7 Mn2 2.527703 1_555
Al7 Mn3 2.527703 1_555
Al7 Ta2 2.754328 1_555
Al7 Ta5 2.754328 1_555
Al7 Ta3 2.754328 1_555
Al7 Ta7 2.967821 1_455
Al7 Ta0 2.967821 1_545
Al7 Ta6 2.967821 1_554
C0 Ta7 2.199426 1_555
C0 Ta1 2.199426 1_555
C0 Ta6 2.199426 1_555
C0 Ta4 2.199426 1_555
C0 Ta0 2.199426 1_555
C0 Ta10 2.199426 1_555
C1 Ta1 2.199426 1_555
C1 Ta7 2.199426 1_455
C1 Ta11 2.199426 1_455
C1 Ta3 2.199426 1_555
C1 Ta9 2.199426 1_455
C1 Ta5 2.199426 1_555
C2 Ta9 2.199426 1_545
C2 Ta5 2.199426 1_555
C2 Ta8 2.199426 1_545
C2 Ta2 2.199426 1_555
C2 Ta10 2.199426 1_555
C2 Ta0 2.199426 1_545
C3 Ta11 2.199426 1_554
C3 Ta3 2.199426 1_555
C3 Ta4 2.199426 1_555
C3 Ta6 2.199426 1_554
C3 Ta8 2.199426 1_554
C3 Ta2 2.199426 1_555
