# generated using pymatgen
data_Nb4VSi2Ge
_symmetry_space_group_name_H-M   'P 1'
_cell_length_a   7.54841573
_cell_length_b   7.54841540
_cell_length_c   7.54841650
_cell_angle_alpha   129.07067686
_cell_angle_beta   129.07067100
_cell_angle_gamma   74.89688252
_symmetry_Int_Tables_number   1
_chemical_formula_structural   Nb4VSi2Ge
_chemical_formula_sum   'Nb8 V2 Si4 Ge2'
_cell_volume   252.48663535
_cell_formula_units_Z   2
loop_
 _symmetry_equiv_pos_site_id
 _symmetry_equiv_pos_as_xyz
  1  'x, y, z'
loop_
 _atom_site_type_symbol
 _atom_site_label
 _atom_site_symmetry_multiplicity
 _atom_site_fract_x
 _atom_site_fract_y
 _atom_site_fract_z
 _atom_site_occupancy
  Nb  Nb0  1  0.01920045  0.51920045  0.83188503  1
  Nb  Nb1  1  0.68731442  0.18731442  0.16811497  1
  Nb  Nb2  1  0.51920045  0.68731442  0.50000000  1
  Nb  Nb3  1  0.18731442  0.01920045  0.50000000  1
  Nb  Nb4  1  0.98079955  0.48079955  0.16811497  1
  Nb  Nb5  1  0.31268558  0.81268558  0.83188503  1
  Nb  Nb6  1  0.48079955  0.31268558  0.50000000  1
  Nb  Nb7  1  0.81268558  0.98079955  0.50000000  1
  V  V0  1  0.00000000  0.00000000  0.00000000  1
  V  V1  1  0.50000000  0.50000000  0.00000000  1
  Si  Si0  1  0.63208935  0.13208935  0.76417670  1
  Si  Si1  1  0.36791065  0.86791065  0.23582330  1
  Si  Si2  1  0.13208935  0.36791065  0.50000000  1
  Si  Si3  1  0.86791065  0.63208935  0.50000000  1
  Ge  Ge0  1  0.75000000  0.75000000  0.00000000  1
  Ge  Ge1  1  0.25000000  0.25000000  0.00000000  1
loop_
_geom_bond_atom_site_label_1
_geom_bond_atom_site_label_2
_geom_bond_distance
_geom_bond_site_symmetry_2
Nb0 Si1 2.555482 1_556
Nb0 Si2 2.623709 1_555
Nb0 Si3 2.623710 1_455
Nb1 Si0 2.555507 1_554
Nb1 Si3 2.623717 1_555
Nb1 Si2 2.623717 1_655
Nb2 Si3 2.555484 1_555
Nb2 Si1 2.623704 1_555
Nb2 Si0 2.623720 1_565
Nb3 Si2 2.555484 1_555
Nb3 Si1 2.623704 1_545
Nb3 Si0 2.623720 1_555
Nb4 Si0 2.555482 1_554
Nb4 Si3 2.623709 1_555
Nb4 Si2 2.623710 1_655
Nb5 Si1 2.555507 1_556
Nb5 Si2 2.623717 1_555
Nb5 Si3 2.623717 1_455
Nb6 Si2 2.555484 1_555
Nb6 Si0 2.623704 1_555
Nb6 Si1 2.623720 1_545
Nb7 Si3 2.555484 1_555
Nb7 Si0 2.623704 1_565
Nb7 Si1 2.623720 1_555
Si0 Si1 2.425033 1_545
Si0 V1 2.537341 1_556
Si0 V0 2.537341 1_656
Si1 V1 2.537341 1_555
Si1 V0 2.537341 1_565
Si2 Si3 2.425051 1_455
Si2 V0 2.537337 1_555
Si2 V1 2.537337 1_556
Si3 V0 2.537337 1_666
Si3 V1 2.537337 1_555
Ge0 Nb1 2.719104 1_565
Ge0 Nb5 2.719104 1_554
Ge0 Nb6 2.719106 1_554
Ge0 Nb3 2.719106 1_665
Ge0 Nb7 2.719106 1_555
Ge0 Nb2 2.719106 1_554
Ge0 Nb0 2.719110 1_654
Ge0 Nb4 2.719110 1_555
Ge0 V0 2.996347 1_665
Ge0 V1 2.996347 1_555
Ge1 Nb5 2.719104 1_544
Ge1 Nb1 2.719104 1_555
Ge1 Nb2 2.719106 1_555
Ge1 Nb7 2.719106 1_444
Ge1 Nb3 2.719106 1_554
Ge1 Nb6 2.719106 1_555
Ge1 Nb4 2.719110 1_455
Ge1 Nb0 2.719110 1_554
Ge1 V0 2.996347 1_555
Ge1 V1 2.996347 1_555
