# generated using pymatgen
data_CsYSiS4
_symmetry_space_group_name_H-M   'P 1'
_cell_length_a   6.71664316
_cell_length_b   6.39074247
_cell_length_c   18.76038836
_cell_angle_alpha   71.57146881
_cell_angle_beta   90.00000000
_cell_angle_gamma   90.00000000
_symmetry_Int_Tables_number   1
_chemical_formula_structural   CsYSiS4
_chemical_formula_sum   'Cs4 Y4 Si4 S16'
_cell_volume   763.98157382
_cell_formula_units_Z   4
loop_
 _symmetry_equiv_pos_site_id
 _symmetry_equiv_pos_as_xyz
  1  'x, y, z'
loop_
 _atom_site_type_symbol
 _atom_site_label
 _atom_site_symmetry_multiplicity
 _atom_site_fract_x
 _atom_site_fract_y
 _atom_site_fract_z
 _atom_site_occupancy
  Cs  Cs0  1  0.24515678  0.73011230  0.03140036  1
  Cs  Cs1  1  0.25484322  0.73011230  0.53140036  1
  Cs  Cs2  1  0.74515678  0.26988770  0.46859964  1
  Cs  Cs3  1  0.75484322  0.26988770  0.96859964  1
  Y  Y0  1  0.77576980  0.23009186  0.22782171  1
  Y  Y1  1  0.22423020  0.76990814  0.77217829  1
  Y  Y2  1  0.72423020  0.23009186  0.72782171  1
  Y  Y3  1  0.27576980  0.76990814  0.27217829  1
  Si  Si0  1  0.26323744  0.21521328  0.83114385  1
  Si  Si1  1  0.23676256  0.21521328  0.33114385  1
  Si  Si2  1  0.76323744  0.78478672  0.66885615  1
  Si  Si3  1  0.73676256  0.78478672  0.16885615  1
  S  S0  1  0.50073612  0.98086032  0.65775197  1
  S  S1  1  0.18178313  0.42152280  0.21998771  1
  S  S2  1  0.49926388  0.01913968  0.34224803  1
  S  S3  1  0.00073612  0.01913968  0.84224803  1
  S  S4  1  0.31821687  0.42152280  0.71998771  1
  S  S5  1  0.25894062  0.41017531  0.90270615  1
  S  S6  1  0.74105938  0.58982469  0.09729385  1
  S  S7  1  0.81821687  0.57847720  0.78001229  1
  S  S8  1  0.75894062  0.58982469  0.59729385  1
  S  S9  1  0.24105938  0.41017531  0.40270615  1
  S  S10  1  0.49308088  0.97440630  0.85209599  1
  S  S11  1  0.99308088  0.02559370  0.64790401  1
  S  S12  1  0.50691912  0.02559370  0.14790401  1
  S  S13  1  0.99926388  0.98086032  0.15775197  1
  S  S14  1  0.00691912  0.97440630  0.35209599  1
  S  S15  1  0.68178313  0.57847720  0.28001229  1
loop_
_geom_bond_atom_site_label_1
_geom_bond_atom_site_label_2
_geom_bond_distance
_geom_bond_site_symmetry_2
Cs0 S1 3.489460 1_555
Cs0 S6 3.567278 1_555
Cs0 S6 3.618724 1_455
Cs0 S5 3.624811 1_554
Cs0 S10 3.633912 1_554
Cs0 S13 3.649108 1_455
Cs0 S12 3.747467 1_565
Cs0 S3 3.815127 1_564
Cs1 S4 3.489460 1_555
Cs1 S8 3.567278 1_455
Cs1 S8 3.618724 1_555
Cs1 S9 3.624811 1_555
Cs1 S14 3.633912 1_555
Cs1 S0 3.649108 1_555
Cs1 S11 3.747467 1_465
Cs1 S2 3.815127 1_565
Cs2 S15 3.489460 1_555
Cs2 S9 3.567278 1_655
Cs2 S9 3.618724 1_555
Cs2 S8 3.624811 1_555
Cs2 S11 3.633912 1_555
Cs2 S2 3.649108 1_555
Cs2 S14 3.747467 1_645
Cs2 S0 3.815127 1_545
Cs3 S7 3.489460 1_555
Cs3 S5 3.567278 1_555
Cs3 S5 3.618724 1_655
Cs3 S6 3.624811 1_556
Cs3 S12 3.633912 1_556
Cs3 S3 3.649108 1_655
Cs3 S10 3.747467 1_545
Cs3 S13 3.815127 1_546
S0 Si2 2.134743 1_555
S0 Y2 2.800373 1_565
S0 Y1 2.836399 1_555
S1 Si1 2.117787 1_555
S1 Y3 2.773530 1_555
S1 Y0 2.973446 1_455
S2 Si1 2.134743 1_555
S2 Y3 2.800373 1_545
S2 Y0 2.836399 1_555
S3 Si0 2.134743 1_555
S3 Y1 2.800373 1_545
S3 Y2 2.836399 1_455
S4 Si0 2.117787 1_555
S4 Y1 2.773530 1_555
S4 Y2 2.973446 1_555
S5 Si0 2.100764 1_555
S5 Y1 2.788673 1_555
S6 Si3 2.100764 1_555
S6 Y0 2.788673 1_555
S7 Si2 2.117787 1_555
S7 Y2 2.773530 1_555
S7 Y1 2.973446 1_655
S8 Si2 2.100764 1_555
S8 Y2 2.788673 1_555
S9 Si1 2.100764 1_555
S9 Y3 2.788673 1_555
S10 Si0 2.126881 1_565
S10 Y2 2.847351 1_565
S10 Y1 2.907831 1_555
S11 Si2 2.126881 1_545
S11 Y1 2.847351 1_645
S11 Y2 2.907831 1_555
S12 Si3 2.126881 1_545
S12 Y3 2.847351 1_545
S12 Y0 2.907831 1_555
S13 Si3 2.134743 1_555
S13 Y0 2.800373 1_565
S13 Y3 2.836399 1_655
S14 Si1 2.126881 1_565
S14 Y0 2.847351 1_465
S14 Y3 2.907831 1_555
S15 Si3 2.117787 1_555
S15 Y0 2.773530 1_555
S15 Y3 2.973446 1_555
