# generated using pymatgen
data_Zr2Ni
_symmetry_space_group_name_H-M   'P 1'
_cell_length_a   5.23987722
_cell_length_b   5.27266424
_cell_length_c   5.27266397
_cell_angle_alpha   75.70582907
_cell_angle_beta   60.20548666
_cell_angle_gamma   60.20546829
_symmetry_Int_Tables_number   1
_chemical_formula_structural   Zr2Ni
_chemical_formula_sum   'Zr4 Ni2'
_cell_volume   109.70680953
_cell_formula_units_Z   2
loop_
 _symmetry_equiv_pos_site_id
 _symmetry_equiv_pos_as_xyz
  1  'x, y, z'
loop_
 _atom_site_type_symbol
 _atom_site_label
 _atom_site_symmetry_multiplicity
 _atom_site_fract_x
 _atom_site_fract_y
 _atom_site_fract_z
 _atom_site_occupancy
  Zr  Zr0  1  0.16440951  0.50000000  0.17118297  1
  Zr  Zr1  1  0.33559049  0.82881703  0.50000000  1
  Zr  Zr2  1  0.66440951  0.17118297  0.50000000  1
  Zr  Zr3  1  0.83559049  0.50000000  0.82881703  1
  Ni  Ni0  1  0.25000000  -0.00000000  -0.00000000  1
  Ni  Ni1  1  0.75000000  -0.00000000  -0.00000000  1
loop_
_geom_bond_atom_site_label_1
_geom_bond_atom_site_label_2
_geom_bond_distance
_geom_bond_site_symmetry_2
Ni0 Ni1 2.619939 1_455
Ni0 Ni1 2.619939 1_555
Ni0 Zr3 2.750228 1_544
Ni0 Zr2 2.750229 1_455
Ni0 Zr1 2.750229 1_545
Ni0 Zr0 2.750229 1_545
Ni0 Zr3 2.750234 1_454
Ni0 Zr1 2.750234 1_544
Ni0 Zr0 2.750234 1_555
Ni0 Zr2 2.750234 1_554
Ni1 Zr0 2.750228 1_555
Ni1 Zr1 2.750229 1_644
Ni1 Zr2 2.750229 1_554
Ni1 Zr3 2.750229 1_554
Ni1 Zr0 2.750234 1_645
Ni1 Zr2 2.750234 1_555
Ni1 Zr3 2.750234 1_544
Ni1 Zr1 2.750234 1_545
