# generated using pymatgen
data_Ba2Ga2Cl
_symmetry_space_group_name_H-M   'P 1'
_cell_length_a   4.44934196
_cell_length_b   4.44934235
_cell_length_c   18.30633892
_cell_angle_alpha   90.00000000
_cell_angle_beta   90.00000000
_cell_angle_gamma   120.00000438
_symmetry_Int_Tables_number   1
_chemical_formula_structural   Ba2Ga2Cl
_chemical_formula_sum   'Ba4 Ga4 Cl2'
_cell_volume   313.85114685
_cell_formula_units_Z   2
loop_
 _symmetry_equiv_pos_site_id
 _symmetry_equiv_pos_as_xyz
  1  'x, y, z'
loop_
 _atom_site_type_symbol
 _atom_site_label
 _atom_site_symmetry_multiplicity
 _atom_site_fract_x
 _atom_site_fract_y
 _atom_site_fract_z
 _atom_site_occupancy
  Ba  Ba0  1  0.00000000  0.00000000  0.12781481  1
  Ba  Ba1  1  0.00000000  0.00000000  0.37218519  1
  Ba  Ba2  1  0.00000000  0.00000000  0.62781481  1
  Ba  Ba3  1  0.00000000  0.00000000  0.87218519  1
  Ga  Ga0  1  0.33333300  0.66666600  0.00037337  1
  Ga  Ga1  1  0.33333300  0.66666600  0.49962663  1
  Ga  Ga2  1  0.66666800  0.33333400  0.50037337  1
  Ga  Ga3  1  0.66666800  0.33333400  0.99962663  1
  Cl  Cl0  1  0.66666800  0.33333400  0.25000000  1
  Cl  Cl1  1  0.33333300  0.66666600  0.75000000  1
loop_
_geom_bond_atom_site_label_1
_geom_bond_atom_site_label_2
_geom_bond_distance
_geom_bond_site_symmetry_2
Ba0 Cl0 3.406168 1_445
Ba0 Cl0 3.406168 1_455
Ba0 Cl0 3.406174 1_555
Ba0 Ga0 3.470114 1_555
Ba0 Ga0 3.470117 1_445
Ba0 Ga0 3.470117 1_545
Ba0 Ga3 3.479320 1_444
Ba0 Ga3 3.479320 1_454
Ba0 Ga3 3.479325 1_554
Ba1 Cl0 3.406168 1_445
Ba1 Cl0 3.406168 1_455
Ba1 Cl0 3.406174 1_555
Ba1 Ga1 3.470114 1_555
Ba1 Ga1 3.470117 1_445
Ba1 Ga1 3.470117 1_545
Ba1 Ga2 3.479320 1_445
Ba1 Ga2 3.479320 1_455
Ba1 Ga2 3.479325 1_555
Ba2 Cl1 3.406168 1_555
Ba2 Cl1 3.406171 1_445
Ba2 Cl1 3.406171 1_545
Ba2 Ga2 3.470114 1_445
Ba2 Ga2 3.470114 1_455
Ba2 Ga2 3.470120 1_555
Ba2 Ga1 3.479320 1_555
Ba2 Ga1 3.479322 1_445
Ba2 Ga1 3.479322 1_545
Ba3 Cl1 3.406168 1_555
Ba3 Cl1 3.406171 1_445
Ba3 Cl1 3.406171 1_545
Ba3 Ga3 3.470114 1_445
Ba3 Ga3 3.470114 1_455
Ba3 Ga3 3.470120 1_555
Ba3 Ga0 3.479320 1_556
Ba3 Ga0 3.479322 1_446
Ba3 Ga0 3.479322 1_546
Ga0 Ga3 2.568859 1_454
Ga0 Ga3 2.568867 1_554
Ga0 Ga3 2.568870 1_564
Ga1 Ga2 2.568859 1_455
Ga1 Ga2 2.568867 1_555
Ga1 Ga2 2.568870 1_565
