# generated using pymatgen
data_Nb3V2FeN
_symmetry_space_group_name_H-M   'P 1'
_cell_length_a   8.20577606
_cell_length_b   8.20577626
_cell_length_c   8.20577637
_cell_angle_alpha   60.00000362
_cell_angle_beta   60.00000283
_cell_angle_gamma   59.99999799
_symmetry_Int_Tables_number   1
_chemical_formula_structural   Nb3V2FeN
_chemical_formula_sum   'Nb12 V8 Fe4 N4'
_cell_volume   390.70055257
_cell_formula_units_Z   4
loop_
 _symmetry_equiv_pos_site_id
 _symmetry_equiv_pos_as_xyz
  1  'x, y, z'
loop_
 _atom_site_type_symbol
 _atom_site_label
 _atom_site_symmetry_multiplicity
 _atom_site_fract_x
 _atom_site_fract_y
 _atom_site_fract_z
 _atom_site_occupancy
  Nb  Nb0  1  0.80881839  0.80881839  0.19118161  1
  Nb  Nb1  1  0.19118161  0.19118161  0.80881839  1
  Nb  Nb2  1  0.80881839  0.19118161  0.80881839  1
  Nb  Nb3  1  0.19118161  0.80881839  0.19118161  1
  Nb  Nb4  1  0.19118161  0.80881839  0.80881839  1
  Nb  Nb5  1  0.80881839  0.19118161  0.19118161  1
  Nb  Nb6  1  0.44137153  0.44137153  0.05862847  1
  Nb  Nb7  1  0.05862847  0.05862847  0.44137153  1
  Nb  Nb8  1  0.44137153  0.05862847  0.44137153  1
  Nb  Nb9  1  0.05862847  0.44137153  0.05862847  1
  Nb  Nb10  1  0.05862847  0.44137153  0.44137153  1
  Nb  Nb11  1  0.44137153  0.05862847  0.05862847  1
  V  V0  1  0.11354714  0.62881695  0.62881695  1
  V  V1  1  0.62881695  0.11354714  0.62881695  1
  V  V2  1  0.62881695  0.62881695  0.11354714  1
  V  V3  1  0.62881695  0.62881695  0.62881695  1
  V  V4  1  0.74137043  0.41954352  0.41954352  1
  V  V5  1  0.41954352  0.74137043  0.41954352  1
  V  V6  1  0.41954352  0.41954352  0.74137043  1
  V  V7  1  0.41954352  0.41954352  0.41954352  1
  Fe  Fe0  1  0.50979104  0.83006932  0.83006932  1
  Fe  Fe1  1  0.83006932  0.50979104  0.83006932  1
  Fe  Fe2  1  0.83006932  0.83006932  0.50979104  1
  Fe  Fe3  1  0.83006932  0.83006932  0.83006932  1
  N  N0  1  0.62175279  0.12608174  0.12608174  1
  N  N1  1  0.12608174  0.62175279  0.12608174  1
  N  N2  1  0.12608174  0.12608174  0.62175279  1
  N  N3  1  0.12608174  0.12608174  0.12608174  1
loop_
_geom_bond_atom_site_label_1
_geom_bond_atom_site_label_2
_geom_bond_distance
_geom_bond_site_symmetry_2
Nb0 V5 2.960808 1_555
Nb0 V4 2.960808 1_555
Nb1 V7 2.960811 1_555
Nb1 V6 2.960815 1_555
Nb2 V6 2.960807 1_555
Nb2 V4 2.960808 1_555
Nb3 V7 2.960811 1_555
Nb3 V5 2.960814 1_555
Nb4 V6 2.960807 1_555
Nb4 V5 2.960808 1_555
Nb5 V7 2.960811 1_555
Nb5 V4 2.960814 1_555
Nb6 V6 2.793971 1_554
Nb6 V7 2.793979 1_555
Nb7 V5 2.793975 1_545
Nb7 V4 2.793975 1_455
Nb8 V5 2.793971 1_545
Nb8 V7 2.793979 1_555
Nb9 V6 2.793975 1_554
Nb9 V4 2.793975 1_455
Nb10 V4 2.793971 1_455
Nb10 V7 2.793979 1_555
Nb11 V6 2.793975 1_554
Nb11 V5 2.793975 1_545
V0 V7 2.554964 1_555
V0 V6 2.554977 1_555
V0 V5 2.554977 1_555
V1 V7 2.554964 1_555
V1 V6 2.554977 1_555
V1 V4 2.554977 1_555
V2 V7 2.554964 1_555
V2 V5 2.554977 1_555
V2 V4 2.554977 1_555
V3 V5 2.554956 1_555
V3 V4 2.554956 1_555
V3 V6 2.554956 1_555
V4 V5 2.640839 1_555
V4 V7 2.640839 1_555
V4 V6 2.640840 1_555
V5 V7 2.640840 1_555
V5 V6 2.640840 1_555
V6 V7 2.640840 1_555
Fe0 V2 2.430984 1_556
Fe0 V1 2.430985 1_565
Fe0 V3 2.430991 1_555
Fe0 Fe1 2.628132 1_555
Fe0 Fe3 2.628132 1_555
Fe0 Fe2 2.628132 1_555
Fe0 Nb4 2.799700 1_555
Fe0 Nb1 2.799705 1_565
Fe0 Nb3 2.799705 1_556
Fe0 Nb8 2.960030 1_565
Fe0 Nb6 2.960030 1_556
Fe0 Nb11 2.960037 1_566
Fe1 V2 2.430984 1_556
Fe1 V0 2.430984 1_655
Fe1 V3 2.430991 1_555
Fe1 Fe3 2.628132 1_555
Fe1 Fe2 2.628132 1_555
Fe1 Nb2 2.799701 1_555
Fe1 Nb1 2.799705 1_655
Fe1 Nb5 2.799705 1_556
Fe1 Nb6 2.960030 1_556
Fe1 Nb10 2.960030 1_655
Fe1 Nb9 2.960037 1_656
Fe2 V0 2.430984 1_655
Fe2 V1 2.430984 1_565
Fe2 V3 2.430991 1_555
Fe2 Fe3 2.628132 1_555
Fe2 Nb0 2.799701 1_555
Fe2 Nb3 2.799705 1_655
Fe2 Nb5 2.799705 1_565
Fe2 Nb8 2.960030 1_565
Fe2 Nb10 2.960030 1_655
Fe2 Nb7 2.960037 1_665
Fe3 V0 2.430989 1_655
Fe3 V1 2.430989 1_565
Fe3 V2 2.430989 1_556
Fe3 Nb4 2.799709 1_655
Fe3 Nb2 2.799709 1_565
Fe3 Nb0 2.799709 1_556
Fe3 Nb11 2.960033 1_566
Fe3 Nb9 2.960034 1_656
Fe3 Nb7 2.960034 1_665
N0 Nb11 2.179122 1_555
N0 Nb6 2.179133 1_555
N0 Nb8 2.179134 1_555
N0 Nb0 2.202799 1_545
N0 Nb2 2.202799 1_554
N0 Nb5 2.202810 1_555
N1 Nb9 2.179122 1_555
N1 Nb6 2.179133 1_555
N1 Nb10 2.179134 1_555
N1 Nb0 2.202798 1_455
N1 Nb4 2.202799 1_554
N1 Nb3 2.202810 1_555
N2 Nb7 2.179122 1_555
N2 Nb8 2.179133 1_555
N2 Nb10 2.179134 1_555
N2 Nb2 2.202799 1_455
N2 Nb4 2.202799 1_545
N2 Nb1 2.202810 1_555
N3 Nb11 2.179137 1_555
N3 Nb9 2.179137 1_555
N3 Nb7 2.179137 1_555
N3 Nb5 2.202795 1_455
N3 Nb3 2.202795 1_545
N3 Nb1 2.202795 1_554
