# generated using pymatgen
data_K8Ti6BeBr20
_symmetry_space_group_name_H-M   'P 1'
_cell_length_a   11.39511854
_cell_length_b   11.39511936
_cell_length_c   11.39511922
_cell_angle_alpha   60.00000317
_cell_angle_beta   60.00000078
_cell_angle_gamma   60.00000291
_symmetry_Int_Tables_number   1
_chemical_formula_structural   K8Ti6BeBr20
_chemical_formula_sum   'K8 Ti6 Be1 Br20'
_cell_volume   1046.26482262
_cell_formula_units_Z   1
loop_
 _symmetry_equiv_pos_site_id
 _symmetry_equiv_pos_as_xyz
  1  'x, y, z'
loop_
 _atom_site_type_symbol
 _atom_site_label
 _atom_site_symmetry_multiplicity
 _atom_site_fract_x
 _atom_site_fract_y
 _atom_site_fract_z
 _atom_site_occupancy
  K  K0  1  0.36092488  0.36092488  0.36092488  1
  K  K1  1  0.63907512  0.63907512  0.63907512  1
  K  K2  1  0.36092488  0.36092488  0.91722437  1
  K  K3  1  0.36092488  0.91722437  0.36092488  1
  K  K4  1  0.63907512  0.63907512  0.08277563  1
  K  K5  1  0.63907512  0.08277563  0.63907512  1
  K  K6  1  0.91722437  0.36092488  0.36092488  1
  K  K7  1  0.08277563  0.63907512  0.63907512  1
  Ti  Ti0  1  0.86028807  0.13971193  0.13971193  1
  Ti  Ti1  1  0.13971193  0.86028807  0.86028807  1
  Ti  Ti2  1  0.13971193  0.86028807  0.13971193  1
  Ti  Ti3  1  0.86028807  0.13971193  0.86028807  1
  Ti  Ti4  1  0.13971193  0.13971193  0.86028807  1
  Ti  Ti5  1  0.86028807  0.86028807  0.13971193  1
  Be  Be0  1  0.00000000  0.00000000  0.00000000  1
  Br  Br0  1  0.31944734  1.00000000  0.00000000  1
  Br  Br1  1  0.68055266  0.00000000  1.00000000  1
  Br  Br2  1  1.00000000  0.31944734  0.68055266  1
  Br  Br3  1  0.00000000  0.68055266  0.31944734  1
  Br  Br4  1  1.00000000  0.31944734  1.00000000  1
  Br  Br5  1  0.68055266  1.00000000  0.31944734  1
  Br  Br6  1  0.00000000  0.68055266  0.00000000  1
  Br  Br7  1  0.31944734  0.00000000  0.68055266  1
  Br  Br8  1  1.00000000  1.00000000  0.31944734  1
  Br  Br9  1  0.00000000  0.00000000  0.68055266  1
  Br  Br10  1  0.68055266  0.31944734  1.00000000  1
  Br  Br11  1  0.31944734  0.68055266  0.00000000  1
  Br  Br12  1  0.68621255  0.31378745  0.31378745  1
  Br  Br13  1  0.31378745  0.68621255  0.68621255  1
  Br  Br14  1  0.31378745  0.68621255  0.31378745  1
  Br  Br15  1  0.68621255  0.31378745  0.68621255  1
  Br  Br16  1  0.31378745  0.31378745  0.68621255  1
  Br  Br17  1  0.68621255  0.68621255  0.31378745  1
  Br  Br18  1  0.25000000  0.25000000  0.25000000  1
  Br  Br19  1  0.75000000  0.75000000  0.75000000  1
loop_
_geom_bond_atom_site_label_1
_geom_bond_atom_site_label_2
_geom_bond_distance
_geom_bond_site_symmetry_2
Be0 Ti4 2.251476 1_554
Be0 Ti5 2.251476 1_445
Be0 Ti0 2.251476 1_455
Be0 Ti1 2.251476 1_544
Be0 Ti2 2.251476 1_545
Be0 Ti3 2.251476 1_454
Br0 Ti2 2.594092 1_555
Br0 Ti4 2.594092 1_564
Br1 Ti3 2.594092 1_555
Br1 Ti5 2.594092 1_546
Br2 Ti3 2.594092 1_555
Br2 Ti4 2.594092 1_655
Br3 Ti2 2.594092 1_555
Br3 Ti5 2.594092 1_455
Br4 Ti0 2.594092 1_556
Br4 Ti4 2.594092 1_655
Br5 Ti0 2.594092 1_565
Br5 Ti5 2.594092 1_555
Br6 Ti1 2.594092 1_554
Br6 Ti5 2.594092 1_455
Br7 Ti1 2.594092 1_545
Br7 Ti4 2.594092 1_555
Br8 Ti2 2.594092 1_655
Br8 Ti0 2.594092 1_565
Br9 Ti3 2.594092 1_455
Br9 Ti1 2.594092 1_545
Br10 Ti0 2.594092 1_556
Br10 Ti3 2.594092 1_555
Br11 Ti1 2.594092 1_554
Br11 Ti2 2.594092 1_555
Br12 Ti0 2.805250 1_555
Br12 K6 3.259300 1_555
Br12 K5 3.259308 1_555
Br12 K4 3.259308 1_555
Br12 K0 3.259311 1_555
Br13 Ti1 2.805250 1_555
Br13 K7 3.259300 1_555
Br13 K3 3.259308 1_555
Br13 K2 3.259308 1_555
Br13 K1 3.259311 1_555
Br14 Ti2 2.805250 1_555
Br14 K3 3.259300 1_555
Br14 K4 3.259308 1_555
Br14 K7 3.259308 1_555
Br14 K0 3.259312 1_555
Br15 Ti3 2.805250 1_555
Br15 K5 3.259300 1_555
Br15 K2 3.259308 1_555
Br15 K6 3.259308 1_555
Br15 K1 3.259312 1_555
Br16 Ti4 2.805250 1_555
Br16 K2 3.259300 1_555
Br16 K5 3.259308 1_555
Br16 K7 3.259308 1_555
Br16 K0 3.259312 1_555
Br17 Ti5 2.805250 1_555
Br17 K4 3.259300 1_555
Br17 K3 3.259308 1_555
Br17 K6 3.259308 1_555
Br17 K1 3.259312 1_555
Br18 K0 3.096160 1_555
Br18 K6 3.096170 1_455
Br18 K2 3.096170 1_554
Br18 K3 3.096170 1_545
Br19 K1 3.096160 1_555
Br19 K7 3.096170 1_655
Br19 K4 3.096170 1_556
Br19 K5 3.096170 1_565
