# generated using pymatgen
data_CaCr2(Sb6Ru)2
_symmetry_space_group_name_H-M   'P 1'
_cell_length_a   8.19062362
_cell_length_b   8.15880526
_cell_length_c   8.15880522
_cell_angle_alpha   109.55329774
_cell_angle_beta   109.40738989
_cell_angle_gamma   109.29603260
_symmetry_Int_Tables_number   1
_chemical_formula_structural   CaCr2(Sb6Ru)2
_chemical_formula_sum   'Ca1 Cr2 Sb12 Ru2'
_cell_volume   420.51828878
_cell_formula_units_Z   1
loop_
 _symmetry_equiv_pos_site_id
 _symmetry_equiv_pos_as_xyz
  1  'x, y, z'
loop_
 _atom_site_type_symbol
 _atom_site_label
 _atom_site_symmetry_multiplicity
 _atom_site_fract_x
 _atom_site_fract_y
 _atom_site_fract_z
 _atom_site_occupancy
  Ca  Ca0  1  0.00000000  0.00000000  0.00000000  1
  Cr  Cr0  1  0.00000000  0.50000000  0.00000000  1
  Cr  Cr1  1  0.00000000  0.00000000  0.50000000  1
  Sb  Sb0  1  0.84000089  0.65275750  0.50421210  1
  Sb  Sb1  1  0.15999911  0.34724250  0.49578790  1
  Sb  Sb2  1  0.15999911  0.66421121  0.81275761  1
  Sb  Sb3  1  0.84000089  0.33578879  0.18724239  1
  Sb  Sb4  1  0.65253037  0.50329934  0.84023546  1
  Sb  Sb5  1  0.34746963  0.49670066  0.15976454  1
  Sb  Sb6  1  0.65253037  0.81229590  0.14923103  1
  Sb  Sb7  1  0.34746963  0.18770410  0.85076897  1
  Sb  Sb8  1  0.50590197  0.84268477  0.66321720  1
  Sb  Sb9  1  0.49409803  0.15731523  0.33678280  1
  Sb  Sb10  1  0.19520834  0.84884840  0.34635993  1
  Sb  Sb11  1  0.80479166  0.15115160  0.65364007  1
  Ru  Ru0  1  0.50000000  0.50000000  0.50000000  1
  Ru  Ru1  1  0.50000000  0.00000000  0.00000000  1
loop_
_geom_bond_atom_site_label_1
_geom_bond_atom_site_label_2
_geom_bond_distance
_geom_bond_site_symmetry_2
Ca0 Sb9 3.520209 1_555
Ca0 Sb8 3.520209 1_444
Ca0 Sb2 3.529669 1_544
Ca0 Sb3 3.529669 1_455
Ca0 Sb1 3.529672 1_555
Ca0 Sb0 3.529672 1_444
Ca0 Sb7 3.549340 1_554
Ca0 Sb6 3.549340 1_445
Ca0 Sb4 3.549342 1_444
Ca0 Sb5 3.549342 1_555
Ca0 Sb10 3.563146 1_545
Ca0 Sb11 3.563146 1_454
Cr0 Sb10 2.692372 1_555
Cr0 Sb11 2.692372 1_454
Cr0 Sb3 2.717767 1_455
Cr0 Sb2 2.717767 1_554
Cr0 Sb5 2.721810 1_555
Cr0 Sb4 2.721810 1_454
Cr1 Sb11 2.692372 1_455
Cr1 Sb10 2.692372 1_545
Cr1 Sb1 2.717774 1_555
Cr1 Sb0 2.717774 1_445
Cr1 Sb7 2.721811 1_555
Cr1 Sb6 2.721811 1_445
Sb0 Sb2 2.917412 1_655
Sb0 Sb3 2.983134 1_555
Sb1 Sb3 2.917412 1_455
Sb1 Sb2 2.983134 1_555
Sb4 Sb6 2.908095 1_556
Sb4 Sb7 2.986536 1_555
Sb5 Sb7 2.908095 1_554
Sb5 Sb6 2.986536 1_555
Sb10 Sb9 2.918904 1_565
Sb10 Sb8 2.993521 1_555
Sb11 Sb8 2.918904 1_545
Sb11 Sb9 2.993521 1_555
Ru0 Sb4 2.624932 1_555
Ru0 Sb5 2.624932 1_555
Ru0 Sb0 2.631276 1_555
Ru0 Sb1 2.631276 1_555
Ru0 Sb8 2.639776 1_555
Ru0 Sb9 2.639776 1_555
Ru1 Sb6 2.624924 1_545
Ru1 Sb7 2.624924 1_554
Ru1 Sb3 2.631277 1_555
Ru1 Sb2 2.631277 1_544
Ru1 Sb9 2.639776 1_555
Ru1 Sb8 2.639776 1_544
