# generated using pymatgen
data_Li2Cd(P3Pd10)2
_symmetry_space_group_name_H-M   'P 1'
_cell_length_a   8.49731627
_cell_length_b   8.49732196
_cell_length_c   8.49731102
_cell_angle_alpha   60.00002325
_cell_angle_beta   60.00005248
_cell_angle_gamma   60.00004637
_symmetry_Int_Tables_number   1
_chemical_formula_structural   Li2Cd(P3Pd10)2
_chemical_formula_sum   'Li2 Cd1 P6 Pd20'
_cell_volume   433.84118225
_cell_formula_units_Z   1
loop_
 _symmetry_equiv_pos_site_id
 _symmetry_equiv_pos_as_xyz
  1  'x, y, z'
loop_
 _atom_site_type_symbol
 _atom_site_label
 _atom_site_symmetry_multiplicity
 _atom_site_fract_x
 _atom_site_fract_y
 _atom_site_fract_z
 _atom_site_occupancy
  Li  Li0  1  0.75000000  0.75000000  0.75000000  1
  Li  Li1  1  0.00000000  0.00000000  0.00000000  1
  Cd  Cd0  1  0.25000000  0.25000000  0.25000000  1
  P  P0  1  0.73669276  0.26330724  0.26330824  1
  P  P1  1  0.26330824  0.73669276  0.73669176  1
  P  P2  1  0.26330724  0.73669276  0.26330824  1
  P  P3  1  0.73669276  0.26330824  0.73669176  1
  P  P4  1  0.26330824  0.26330724  0.73669176  1
  P  P5  1  0.73669176  0.73669276  0.26330824  1
  Pd  Pd0  1  0.38365722  0.38365822  0.38365922  1
  Pd  Pd1  1  0.61702353  0.61702353  0.61702353  1
  Pd  Pd2  1  0.38365822  0.38365822  0.84902433  1
  Pd  Pd3  1  0.38365722  0.84902633  0.38365822  1
  Pd  Pd4  1  0.61702353  0.61702453  0.14892842  1
  Pd  Pd5  1  0.61702453  0.14892842  0.61702353  1
  Pd  Pd6  1  0.84902533  0.38365822  0.38365822  1
  Pd  Pd7  1  0.14892842  0.61702453  0.61702353  1
  Pd  Pd8  1  0.34351545  0.99962242  0.99962242  1
  Pd  Pd9  1  0.65724071  0.99962242  0.99962242  1
  Pd  Pd10  1  0.99962242  0.34351445  0.65724071  1
  Pd  Pd11  1  0.99962142  0.65724171  0.34351445  1
  Pd  Pd12  1  0.99962142  0.34351545  0.99962242  1
  Pd  Pd13  1  0.65724071  0.99962242  0.34351545  1
  Pd  Pd14  1  0.99962142  0.65724071  0.99962242  1
  Pd  Pd15  1  0.34351545  0.99962142  0.65723971  1
  Pd  Pd16  1  0.99962242  0.99962142  0.34351545  1
  Pd  Pd17  1  0.99962242  0.99962242  0.65724071  1
  Pd  Pd18  1  0.65724071  0.34351445  0.99962242  1
  Pd  Pd19  1  0.34351445  0.65724071  0.99962242  1
loop_
_geom_bond_atom_site_label_1
_geom_bond_atom_site_label_2
_geom_bond_distance
_geom_bond_site_symmetry_2
Li0 Pd4 2.767777 1_556
Li0 Pd7 2.767779 1_655
Li0 Pd5 2.767780 1_565
Li0 Pd1 2.767783 1_555
Li0 Pd14 3.282516 1_555
Li0 Pd13 3.282516 1_555
Li0 Pd16 3.282519 1_555
Li0 Pd12 3.282519 1_555
Li0 Pd11 3.282521 1_555
Li0 Pd15 3.282522 1_555
Li0 Pd8 3.282524 1_555
Li0 Pd9 3.282525 1_555
Li0 Pd17 3.282526 1_555
Li0 Pd19 3.282526 1_555
Li0 Pd18 3.282527 1_555
Li0 Pd10 3.282528 1_555
Li1 Pd11 2.915743 1_445
Li1 Pd17 2.915744 1_444
Li1 Pd9 2.915746 1_444
Li1 Pd10 2.915747 1_454
Li1 Pd16 2.915749 1_445
Li1 Pd19 2.915749 1_544
Li1 Pd18 2.915749 1_454
Li1 Pd13 2.915752 1_445
Li1 Pd14 2.915752 1_444
Li1 Pd12 2.915752 1_454
Li1 Pd8 2.915755 1_544
Li1 Pd15 2.915756 1_544
Cd0 Pd3 2.781970 1_545
Cd0 Pd0 2.781973 1_555
Cd0 Pd6 2.781976 1_455
Cd0 Pd2 2.781981 1_554
Cd0 Pd15 3.290815 1_545
Cd0 Pd8 3.290817 1_544
Cd0 Pd10 3.290820 1_455
Cd0 Pd17 3.290821 1_445
Cd0 Pd18 3.290822 1_554
Cd0 Pd12 3.290822 1_454
Cd0 Pd19 3.290822 1_554
Cd0 Pd9 3.290823 1_544
Cd0 Pd13 3.290825 1_545
Cd0 Pd16 3.290825 1_445
Cd0 Pd14 3.290825 1_454
Cd0 Pd11 3.290831 1_455
P0 Pd12 2.337980 1_554
P0 Pd13 2.337980 1_545
P0 Pd16 2.337983 1_545
P0 Pd18 2.337985 1_554
P0 Pd6 2.449672 1_555
P0 Pd0 2.449689 1_555
P0 Pd5 2.454224 1_555
P0 Pd4 2.454241 1_555
P1 Pd15 2.337972 1_555
P1 Pd19 2.337980 1_555
P1 Pd17 2.337983 1_455
P1 Pd14 2.337993 1_455
P1 Pd3 2.449672 1_555
P1 Pd2 2.449683 1_555
P1 Pd1 2.454226 1_555
P1 Pd7 2.454231 1_555
P2 Pd16 2.337976 1_455
P2 Pd11 2.337985 1_455
P2 Pd8 2.337985 1_554
P2 Pd19 2.337986 1_554
P2 Pd3 2.449672 1_555
P2 Pd0 2.449682 1_555
P2 Pd7 2.454224 1_555
P2 Pd4 2.454233 1_555
P3 Pd10 2.337977 1_555
P3 Pd18 2.337981 1_555
P3 Pd17 2.337984 1_545
P3 Pd9 2.337988 1_545
P3 Pd6 2.449673 1_555
P3 Pd2 2.449682 1_555
P3 Pd1 2.454227 1_555
P3 Pd5 2.454230 1_555
P4 Pd10 2.337981 1_455
P4 Pd8 2.337984 1_545
P4 Pd15 2.337988 1_545
P4 Pd12 2.337993 1_455
P4 Pd0 2.449666 1_555
P4 Pd2 2.449672 1_555
P4 Pd5 2.454233 1_555
P4 Pd7 2.454241 1_555
P5 Pd11 2.337976 1_555
P5 Pd9 2.337982 1_554
P5 Pd13 2.337983 1_555
P5 Pd14 2.337985 1_554
P5 Pd3 2.449681 1_555
P5 Pd6 2.449682 1_555
P5 Pd1 2.454224 1_555
P5 Pd4 2.454231 1_555
Pd0 Pd10 2.983882 1_455
Pd0 Pd15 2.983890 1_545
Pd0 Pd19 2.983892 1_554
Pd0 Pd13 2.983893 1_545
Pd0 Pd11 2.983894 1_455
Pd0 Pd18 2.983897 1_554
Pd1 Pd15 2.974655 1_555
Pd1 Pd11 2.974660 1_555
Pd1 Pd18 2.974662 1_555
Pd1 Pd19 2.974663 1_555
Pd1 Pd13 2.974663 1_555
Pd1 Pd10 2.974664 1_555
Pd2 Pd8 2.983886 1_545
Pd2 Pd9 2.983893 1_545
Pd3 Pd8 2.983881 1_554
Pd3 Pd9 2.983891 1_554
Pd4 Pd8 2.974654 1_554
Pd4 Pd9 2.974658 1_554
Pd5 Pd9 2.974658 1_545
Pd5 Pd8 2.974661 1_545
Pd8 Pd9 2.665823 1_555
Pd10 Pd11 2.665836 1_555
Pd10 Pd12 2.909324 1_555
Pd10 Pd18 2.909327 1_555
Pd10 Pd17 2.922161 1_545
Pd10 Pd15 2.922171 1_645
Pd10 Pd7 2.974665 1_655
Pd10 Pd6 2.983886 1_555
Pd11 Pd16 2.909319 1_555
Pd11 Pd13 2.909320 1_555
Pd11 Pd14 2.922162 1_554
Pd11 Pd19 2.922165 1_654
Pd11 Pd7 2.974660 1_655
Pd11 Pd6 2.983891 1_555
Pd12 Pd14 2.665825 1_555
Pd12 Pd18 2.909321 1_555
Pd12 Pd16 2.922173 1_546
Pd12 Pd8 2.922175 1_645
Pd12 Pd4 2.974659 1_556
Pd12 Pd7 2.974663 1_655
Pd12 Pd6 2.983885 1_556
Pd12 Pd2 2.983892 1_655
Pd13 Pd15 2.665820 1_555
Pd13 Pd16 2.909321 1_555
Pd13 Pd18 2.922165 1_564
Pd13 Pd9 2.922166 1_554
Pd13 Pd5 2.974651 1_565
Pd13 Pd3 2.983894 1_555
Pd14 Pd9 2.909324 1_555
Pd14 Pd17 2.909327 1_555
Pd14 Pd19 2.922168 1_655
Pd14 Pd4 2.974653 1_556
Pd14 Pd7 2.974658 1_655
Pd14 Pd6 2.983887 1_556
Pd14 Pd2 2.983898 1_655
Pd15 Pd19 2.909327 1_555
Pd15 Pd8 2.909337 1_555
Pd15 Pd17 2.922159 1_455
Pd15 Pd5 2.974667 1_565
Pd15 Pd3 2.983875 1_555
Pd16 Pd17 2.665825 1_555
Pd16 Pd8 2.922169 1_654
Pd16 Pd7 2.974649 1_655
Pd16 Pd5 2.974657 1_565
Pd16 Pd3 2.983880 1_655
Pd16 Pd6 2.983896 1_565
Pd17 Pd9 2.909327 1_555
Pd17 Pd5 2.974656 1_565
Pd17 Pd7 2.974659 1_655
Pd17 Pd3 2.983884 1_655
Pd17 Pd6 2.983890 1_565
Pd18 Pd19 2.665834 1_555
Pd18 Pd9 2.922161 1_545
Pd18 Pd4 2.974665 1_556
Pd18 Pd2 2.983894 1_555
Pd19 Pd8 2.909332 1_555
Pd19 Pd4 2.974659 1_556
Pd19 Pd2 2.983896 1_555
