# generated using pymatgen
data_Y2B4Ir4Rh
_symmetry_space_group_name_H-M   'P 1'
_cell_length_a   7.48788459
_cell_length_b   6.31650867
_cell_length_c   5.57155118
_cell_angle_alpha   77.80179243
_cell_angle_beta   55.53969854
_cell_angle_gamma   46.80536860
_symmetry_Int_Tables_number   1
_chemical_formula_structural   Y2B4Ir4Rh
_chemical_formula_sum   'Y2 B4 Ir4 Rh1'
_cell_volume   151.45907390
_cell_formula_units_Z   1
loop_
 _symmetry_equiv_pos_site_id
 _symmetry_equiv_pos_as_xyz
  1  'x, y, z'
loop_
 _atom_site_type_symbol
 _atom_site_label
 _atom_site_symmetry_multiplicity
 _atom_site_fract_x
 _atom_site_fract_y
 _atom_site_fract_z
 _atom_site_occupancy
  Y  Y0  1  0.86013830  0.86013830  0.13986170  1
  Y  Y1  1  0.13986170  0.13986170  0.86013830  1
  B  B0  1  0.21134911  0.52203609  0.47840100  1
  B  B1  1  0.78865089  0.47796391  0.52159900  1
  B  B2  1  0.52203609  0.21134911  0.78821580  1
  B  B3  1  0.47796391  0.78865089  0.21178420  1
  Ir  Ir0  1  0.74963683  0.74963683  0.75036317  1
  Ir  Ir1  1  0.25036317  0.25036317  0.24963683  1
  Ir  Ir2  1  0.00000000  0.00000000  0.50000000  1
  Ir  Ir3  1  0.50000000  0.50000000  0.50000000  1
  Rh  Rh0  1  0.50000000  0.50000000  0.00000000  1
loop_
_geom_bond_atom_site_label_1
_geom_bond_atom_site_label_2
_geom_bond_distance
_geom_bond_site_symmetry_2
B0 Ir1 2.114535 1_555
B0 Ir0 2.122134 1_455
B0 Ir3 2.140295 1_555
B0 Rh0 2.240726 1_555
B0 Ir2 2.243003 1_565
B0 Y1 2.991390 1_555
B0 Y0 3.119019 1_456
B0 Y0 3.129877 1_545
B1 Ir0 2.114535 1_555
B1 Ir1 2.122134 1_655
B1 Ir3 2.140295 1_555
B1 Rh0 2.240726 1_556
B1 Ir2 2.243003 1_655
B1 Y0 2.991390 1_555
B1 Y1 3.119019 1_654
B1 Y1 3.129877 1_565
B2 Ir1 2.114528 1_556
B2 Ir0 2.122132 1_545
B2 Ir3 2.140302 1_555
B2 Rh0 2.240719 1_556
B2 Ir2 2.243003 1_655
B2 Y1 2.991395 1_555
B2 Y0 3.119029 1_545
B2 Y0 3.129877 1_456
B3 Ir0 2.114528 1_554
B3 Ir1 2.122132 1_565
B3 Ir3 2.140302 1_555
B3 Rh0 2.240719 1_555
B3 Ir2 2.243003 1_565
B3 Y0 2.991395 1_555
B3 Y1 3.119029 1_565
B3 Y1 3.129877 1_654
Ir0 Y0 3.056783 1_556
Ir0 Y0 3.056783 1_555
Ir0 Y1 3.060606 1_655
Ir0 Y1 3.060606 1_565
Ir1 Y1 3.056783 1_554
Ir1 Y1 3.056783 1_555
Ir1 Y0 3.060606 1_455
Ir1 Y0 3.060606 1_545
Ir2 Y1 3.208910 1_555
Ir2 Y0 3.208910 1_445
Ir2 Y0 3.208911 1_446
Ir2 Y1 3.208911 1_554
Ir3 Y1 3.164921 1_565
Ir3 Y0 3.164921 1_545
Ir3 Y1 3.164921 1_654
Ir3 Y0 3.164921 1_456
Rh0 Y1 3.215780 1_564
Rh0 Y0 3.215780 1_545
Rh0 Y1 3.215780 1_654
Rh0 Y0 3.215780 1_455
