# generated using pymatgen
data_ThAl3Ni2
_symmetry_space_group_name_H-M   'P 1'
_cell_length_a   5.29107423
_cell_length_b   5.29107479
_cell_length_c   4.04189658
_cell_angle_alpha   90.00000000
_cell_angle_beta   90.00000000
_cell_angle_gamma   120.00000908
_symmetry_Int_Tables_number   1
_chemical_formula_structural   ThAl3Ni2
_chemical_formula_sum   'Th1 Al3 Ni2'
_cell_volume   97.99491569
_cell_formula_units_Z   1
loop_
 _symmetry_equiv_pos_site_id
 _symmetry_equiv_pos_as_xyz
  1  'x, y, z'
loop_
 _atom_site_type_symbol
 _atom_site_label
 _atom_site_symmetry_multiplicity
 _atom_site_fract_x
 _atom_site_fract_y
 _atom_site_fract_z
 _atom_site_occupancy
  Th  Th0  1  -0.00000000  -0.00000000  -0.00000000  1
  Al  Al0  1  0.50000000  -0.00000000  0.50000000  1
  Al  Al1  1  0.50000000  0.50000000  0.50000000  1
  Al  Al2  1  -0.00000000  0.50000000  0.50000000  1
  Ni  Ni0  1  0.33333300  0.66666700  -0.00000000  1
  Ni  Ni1  1  0.66666700  0.33333300  0.00000000  1
loop_
_geom_bond_atom_site_label_1
_geom_bond_atom_site_label_2
_geom_bond_distance
_geom_bond_site_symmetry_2
Al0 Ni0 2.533216 1_545
Al0 Ni1 2.533216 1_555
Al0 Ni0 2.533216 1_546
Al0 Ni1 2.533216 1_556
Al0 Th0 3.329129 1_655
Al0 Th0 3.329129 1_656
Al0 Th0 3.329129 1_555
Al0 Th0 3.329129 1_556
Al1 Ni0 2.533219 1_556
Al1 Ni1 2.533219 1_555
Al1 Ni0 2.533219 1_555
Al1 Ni1 2.533219 1_556
Al1 Th0 3.329129 1_555
Al1 Th0 3.329129 1_556
Al1 Th0 3.329129 1_665
Al1 Th0 3.329129 1_666
Al2 Ni0 2.533216 1_556
Al2 Ni1 2.533216 1_455
Al2 Ni1 2.533216 1_456
Al2 Ni0 2.533216 1_555
Al2 Th0 3.329129 1_566
Al2 Th0 3.329129 1_565
Al2 Th0 3.329129 1_556
Al2 Th0 3.329129 1_555
Ni0 Th0 3.054800 1_565
Ni0 Th0 3.054804 1_665
Ni0 Th0 3.054805 1_555
Ni1 Th0 3.054800 1_655
Ni1 Th0 3.054804 1_555
Ni1 Th0 3.054805 1_665
