# generated using pymatgen
data_Hf5Zr5Sn6
_symmetry_space_group_name_H-M   'P 1'
_cell_length_a   8.44794422
_cell_length_b   8.44794481
_cell_length_c   5.75049824
_cell_angle_alpha   90.00000000
_cell_angle_beta   90.00000000
_cell_angle_gamma   119.79354952
_symmetry_Int_Tables_number   1
_chemical_formula_structural   Hf5Zr5Sn6
_chemical_formula_sum   'Hf5 Zr5 Sn6'
_cell_volume   356.15408919
_cell_formula_units_Z   1
loop_
 _symmetry_equiv_pos_site_id
 _symmetry_equiv_pos_as_xyz
  1  'x, y, z'
loop_
 _atom_site_type_symbol
 _atom_site_label
 _atom_site_symmetry_multiplicity
 _atom_site_fract_x
 _atom_site_fract_y
 _atom_site_fract_z
 _atom_site_occupancy
  Hf  Hf0  1  0.33323110  0.66684647  0.25002667  1
  Hf  Hf1  1  0.66684647  0.33323110  0.25002667  1
  Hf  Hf2  1  0.66684647  0.33323110  0.74997333  1
  Hf  Hf3  1  0.33323110  0.66684647  0.74997333  1
  Hf  Hf4  1  0.24939860  0.24939860  0.50000000  1
  Zr  Zr0  1  0.75359853  0.00016354  0.50000000  1
  Zr  Zr1  1  0.00016354  0.75359853  0.50000000  1
  Zr  Zr2  1  0.74978697  0.74978697  0.00000000  1
  Zr  Zr3  1  0.24698487  0.00080698  0.00000000  1
  Zr  Zr4  1  0.00080698  0.24698487  0.00000000  1
  Sn  Sn0  1  0.60583685  0.60583685  0.50000000  1
  Sn  Sn1  1  0.39286265  0.00087890  0.50000000  1
  Sn  Sn2  1  0.00087890  0.39286265  0.50000000  1
  Sn  Sn3  1  0.39280409  0.39280409  0.00000000  1
  Sn  Sn4  1  0.60683215  0.99993274  0.00000000  1
  Sn  Sn5  1  0.99993274  0.60683215  0.00000000  1
loop_
_geom_bond_atom_site_label_1
_geom_bond_atom_site_label_2
_geom_bond_distance
_geom_bond_site_symmetry_2
Hf0 Sn0 2.969028 1_555
Hf0 Sn5 2.972156 1_455
Hf0 Sn3 2.972875 1_555
Hf0 Sn2 2.974685 1_555
Hf0 Sn4 2.977300 1_555
Hf0 Sn1 2.978333 1_565
Hf1 Sn0 2.969028 1_555
Hf1 Sn4 2.972156 1_545
Hf1 Sn3 2.972875 1_555
Hf1 Sn1 2.974685 1_555
Hf1 Sn5 2.977300 1_555
Hf1 Sn2 2.978333 1_655
Hf2 Sn0 2.969028 1_555
Hf2 Sn4 2.972156 1_546
Hf2 Sn3 2.972875 1_556
Hf2 Sn1 2.974685 1_555
Hf2 Sn5 2.977300 1_556
Hf2 Sn2 2.978333 1_655
Hf3 Sn0 2.969028 1_555
Hf3 Sn5 2.972156 1_456
Hf3 Sn3 2.972875 1_556
Hf3 Sn2 2.974685 1_555
Hf3 Sn4 2.977300 1_556
Hf3 Sn1 2.978333 1_565
Hf4 Sn2 2.899195 1_555
Hf4 Sn1 2.899195 1_555
Hf4 Sn0 3.020562 1_555
Hf4 Sn3 3.121524 1_556
Hf4 Sn3 3.121524 1_555
Sn0 Zr1 2.919430 1_655
Sn0 Zr0 2.919431 1_565
Sn0 Zr2 3.123324 1_556
Sn0 Zr2 3.123324 1_555
Sn1 Zr1 2.912521 1_545
Sn1 Zr0 3.050484 1_555
Sn1 Zr3 3.128105 1_555
Sn1 Zr3 3.128105 1_556
Sn2 Zr0 2.912521 1_455
Sn2 Zr1 3.050484 1_555
Sn2 Zr4 3.128105 1_556
Sn2 Zr4 3.128105 1_555
Sn3 Zr4 2.903456 1_555
Sn3 Zr3 2.903456 1_555
Sn3 Zr2 3.025177 1_555
Sn4 Zr2 2.908660 1_555
Sn4 Zr4 2.920677 1_665
Sn4 Zr3 3.043646 1_565
Sn4 Zr0 3.130806 1_565
Sn4 Zr0 3.130806 1_564
Sn5 Zr2 2.908660 1_555
Sn5 Zr3 2.920677 1_665
Sn5 Zr4 3.043646 1_655
Sn5 Zr1 3.130806 1_654
Sn5 Zr1 3.130806 1_655
