# generated using pymatgen
data_Ca7Ni4Sn13
_symmetry_space_group_name_H-M   'P 1'
_cell_length_a   11.21260413
_cell_length_b   11.21260413
_cell_length_c   4.59920244
_cell_angle_alpha   90.00000000
_cell_angle_beta   90.00000000
_cell_angle_gamma   90.00000000
_symmetry_Int_Tables_number   1
_chemical_formula_structural   Ca7Ni4Sn13
_chemical_formula_sum   'Ca7 Ni4 Sn13'
_cell_volume   578.22318910
_cell_formula_units_Z   1
loop_
 _symmetry_equiv_pos_site_id
 _symmetry_equiv_pos_as_xyz
  1  'x, y, z'
loop_
 _atom_site_type_symbol
 _atom_site_label
 _atom_site_symmetry_multiplicity
 _atom_site_fract_x
 _atom_site_fract_y
 _atom_site_fract_z
 _atom_site_occupancy
  Ca  Ca0  1  0.83817463  0.17034548  -0.00000000  1
  Ca  Ca1  1  0.82965452  0.83817463  -0.00000000  1
  Ca  Ca2  1  0.16182537  0.82965452  0.00000000  1
  Ca  Ca3  1  0.17034548  0.16182537  0.00000000  1
  Ca  Ca4  1  0.50000000  0.50000000  0.50000000  1
  Ca  Ca5  1  -0.00000000  0.50000000  -0.00000000  1
  Ca  Ca6  1  0.50000000  -0.00000000  -0.00000000  1
  Ni  Ni0  1  0.77496457  0.61936102  0.50000000  1
  Ni  Ni1  1  0.38063898  0.77496457  0.50000000  1
  Ni  Ni2  1  0.61936102  0.22503543  0.50000000  1
  Ni  Ni3  1  0.22503543  0.38063898  0.50000000  1
  Sn  Sn0  1  0.01896621  0.28671286  0.50000000  1
  Sn  Sn1  1  0.98103379  0.71328714  0.50000000  1
  Sn  Sn2  1  0.21605751  0.61086552  0.50000000  1
  Sn  Sn3  1  0.57611202  0.30831743  -0.00000000  1
  Sn  Sn4  1  0.69168257  0.57611202  -0.00000000  1
  Sn  Sn5  1  0.78394249  0.38913448  0.50000000  1
  Sn  Sn6  1  0.71328714  0.01896621  0.50000000  1
  Sn  Sn7  1  -0.00000000  -0.00000000  0.50000000  1
  Sn  Sn8  1  0.28671286  0.98103379  0.50000000  1
  Sn  Sn9  1  0.42388798  0.69168257  0.00000000  1
  Sn  Sn10  1  0.61086552  0.78394249  0.50000000  1
  Sn  Sn11  1  0.30831743  0.42388798  0.00000000  1
  Sn  Sn12  1  0.38913448  0.21605751  0.50000000  1
loop_
_geom_bond_atom_site_label_1
_geom_bond_atom_site_label_2
_geom_bond_distance
_geom_bond_site_symmetry_2
Ca0 Sn6 3.182776 1_554
Ca0 Sn6 3.182776 1_555
Ca0 Sn3 3.320769 1_555
Ca0 Sn0 3.331656 1_654
Ca0 Sn0 3.331656 1_655
Ca0 Sn5 3.417030 1_555
Ca0 Sn5 3.417030 1_554
Ca0 Ni2 3.418145 1_554
Ca0 Ni2 3.418145 1_555
Ca0 Sn7 3.496953 1_655
Ca0 Sn7 3.496953 1_654
Ca1 Sn1 3.182776 1_555
Ca1 Sn1 3.182776 1_554
Ca1 Sn4 3.320769 1_555
Ca1 Sn6 3.331656 1_564
Ca1 Sn6 3.331656 1_565
Ca1 Sn10 3.417030 1_554
Ca1 Sn10 3.417030 1_555
Ca1 Ni0 3.418145 1_554
Ca1 Ni0 3.418145 1_555
Ca1 Sn7 3.496953 1_664
Ca1 Sn7 3.496953 1_665
Ca2 Sn8 3.182776 1_555
Ca2 Sn8 3.182776 1_554
Ca2 Sn9 3.320769 1_555
Ca2 Sn1 3.331656 1_455
Ca2 Sn1 3.331656 1_454
Ca2 Sn2 3.417030 1_555
Ca2 Sn2 3.417030 1_554
Ca2 Ni1 3.418145 1_555
Ca2 Ni1 3.418145 1_554
Ca2 Sn7 3.496953 1_565
Ca2 Sn7 3.496953 1_564
Ca3 Sn0 3.182776 1_555
Ca3 Sn0 3.182776 1_554
Ca3 Sn11 3.320769 1_555
Ca3 Sn8 3.331656 1_545
Ca3 Sn8 3.331656 1_544
Ca3 Sn12 3.417030 1_554
Ca3 Sn12 3.417030 1_555
Ca3 Ni3 3.418145 1_554
Ca3 Ni3 3.418145 1_555
Ca3 Sn7 3.496953 1_554
Ca3 Sn7 3.496953 1_555
Ca4 Sn11 3.261258 1_556
Ca4 Sn4 3.261258 1_555
Ca4 Sn9 3.261258 1_555
Ca4 Sn3 3.261258 1_556
Ca4 Sn11 3.261258 1_555
Ca4 Sn9 3.261258 1_556
Ca4 Sn3 3.261258 1_555
Ca4 Sn4 3.261258 1_556
Ca4 Ni3 3.361025 1_555
Ca4 Ni1 3.361025 1_555
Ca4 Ni0 3.361025 1_555
Ca4 Ni2 3.361025 1_555
Ca4 Sn12 3.417813 1_555
Ca4 Sn2 3.417813 1_555
Ca4 Sn10 3.417813 1_555
Ca4 Sn5 3.417813 1_555
Ca5 Sn0 3.324558 1_555
Ca5 Sn0 3.324558 1_554
Ca5 Sn1 3.324558 1_454
Ca5 Sn1 3.324558 1_455
Ca5 Sn4 3.560822 1_455
Ca5 Sn11 3.560822 1_555
Ca5 Sn5 3.564025 1_455
Ca5 Sn5 3.564025 1_454
Ca5 Sn2 3.564025 1_555
Ca5 Sn2 3.564025 1_554
Ca6 Sn8 3.324558 1_545
Ca6 Sn8 3.324558 1_544
Ca6 Sn6 3.324558 1_554
Ca6 Sn6 3.324558 1_555
Ca6 Sn3 3.560822 1_555
Ca6 Sn9 3.560822 1_545
Ca6 Sn10 3.564025 1_544
Ca6 Sn10 3.564025 1_545
Ca6 Sn12 3.564025 1_554
Ca6 Sn12 3.564025 1_555
Ni0 Sn4 2.528898 1_555
Ni0 Sn4 2.528898 1_556
Ni0 Sn1 2.539268 1_555
Ni0 Sn5 2.583401 1_555
Ni0 Sn10 2.605949 1_555
Ni1 Sn9 2.528898 1_556
Ni1 Sn9 2.528898 1_555
Ni1 Sn8 2.539268 1_555
Ni1 Sn10 2.583401 1_555
Ni1 Sn2 2.605949 1_555
Ni2 Sn3 2.528898 1_555
Ni2 Sn3 2.528898 1_556
Ni2 Sn6 2.539268 1_555
Ni2 Sn12 2.583401 1_555
Ni2 Sn5 2.605949 1_555
Ni3 Sn11 2.528898 1_555
Ni3 Sn11 2.528898 1_556
Ni3 Sn0 2.539268 1_555
Ni3 Sn2 2.583401 1_555
Ni3 Sn12 2.605949 1_555
Sn0 Sn5 2.874592 1_455
Sn0 Sn7 3.221824 1_555
Sn1 Sn2 2.874592 1_655
Sn1 Sn7 3.221824 1_665
Sn6 Sn7 3.221824 1_655
Sn7 Sn8 3.221824 1_545
Sn10 Sn6 2.874592 1_565
Sn12 Sn8 2.874592 1_545
