# generated using pymatgen
data_YAgIr2O7
_symmetry_space_group_name_H-M   'P 1'
_cell_length_a   7.16384689
_cell_length_b   7.09972281
_cell_length_c   7.16384816
_cell_angle_alpha   60.29566260
_cell_angle_beta   61.20413717
_cell_angle_gamma   60.29566331
_symmetry_Int_Tables_number   1
_chemical_formula_structural   YAgIr2O7
_chemical_formula_sum   'Y2 Ag2 Ir4 O14'
_cell_volume   261.08274993
_cell_formula_units_Z   2
loop_
 _symmetry_equiv_pos_site_id
 _symmetry_equiv_pos_as_xyz
  1  'x, y, z'
loop_
 _atom_site_type_symbol
 _atom_site_label
 _atom_site_symmetry_multiplicity
 _atom_site_fract_x
 _atom_site_fract_y
 _atom_site_fract_z
 _atom_site_occupancy
  Y  Y0  1  0.62500000  0.12500000  0.12500000  1
  Y  Y1  1  0.12500000  0.12500000  0.62500000  1
  Ag  Ag0  1  0.12500000  0.62500000  0.12500000  1
  Ag  Ag1  1  0.12500000  0.12500000  0.12500000  1
  Ir  Ir0  1  0.12500000  0.62500000  0.62500000  1
  Ir  Ir1  1  0.62500000  0.12500000  0.62500000  1
  Ir  Ir2  1  0.62500000  0.62500000  0.12500000  1
  Ir  Ir3  1  0.62500000  0.62500000  0.62500000  1
  O  O0  1  0.69538082  0.71254604  0.29811200  1
  O  O1  1  0.29811200  0.29396013  0.69538082  1
  O  O2  1  0.71321473  0.28678527  0.71321473  1
  O  O3  1  0.30472300  0.69527700  0.30472300  1
  O  O4  1  0.29811200  0.71254604  0.69538082  1
  O  O5  1  0.69538082  0.29396013  0.29811200  1
  O  O6  1  0.55461918  0.53745396  0.95188800  1
  O  O7  1  0.95188800  0.95603987  0.55461918  1
  O  O8  1  0.53678527  0.96321473  0.53678527  1
  O  O9  1  0.94527700  0.55472300  0.94527700  1
  O  O10  1  0.95188800  0.53745396  0.55461918  1
  O  O11  1  0.55461918  0.95603987  0.95188800  1
  O  O12  1  0.24326428  0.25673572  0.24326428  1
  O  O13  1  0.00673572  0.99326428  0.00673572  1
loop_
_geom_bond_atom_site_label_1
_geom_bond_atom_site_label_2
_geom_bond_distance
_geom_bond_site_symmetry_2
Ag0 O12 2.138335 1_555
Ag0 O13 2.138335 1_555
Ag0 O3 2.536646 1_555
Ag0 O9 2.536646 1_454
Ag0 O6 2.566651 1_554
Ag0 O0 2.566651 1_455
Ag0 O10 2.566652 1_455
Ag0 O4 2.566652 1_554
Ag1 O13 2.138335 1_545
Ag1 O12 2.138335 1_555
Ag1 O3 2.536646 1_545
Ag1 O9 2.536646 1_454
Ag1 O11 2.566650 1_544
Ag1 O5 2.566650 1_455
Ag1 O7 2.566651 1_445
Ag1 O1 2.566651 1_554
Ir0 O9 1.956315 1_455
Ir0 O3 1.956315 1_555
Ir0 O4 1.963515 1_555
Ir0 O10 1.963515 1_455
Ir0 O7 1.963520 1_455
Ir0 O1 1.963520 1_555
Ir1 O7 1.963426 1_545
Ir1 O1 1.963426 1_555
Ir1 O11 1.963427 1_545
Ir1 O5 1.963427 1_555
Ir1 O2 1.985349 1_555
Ir1 O8 1.985349 1_545
Ir2 O9 1.956315 1_554
Ir2 O3 1.956315 1_555
Ir2 O0 1.963515 1_555
Ir2 O6 1.963515 1_554
Ir2 O11 1.963520 1_554
Ir2 O5 1.963520 1_555
Ir3 O10 1.963427 1_555
Ir3 O4 1.963427 1_555
Ir3 O6 1.963428 1_555
Ir3 O0 1.963428 1_555
Ir3 O8 1.985349 1_555
Ir3 O2 1.985349 1_555
O0 Y0 2.430493 1_565
O1 Y1 2.430487 1_555
O2 Y1 2.446699 1_655
O2 Y0 2.446700 1_556
O4 Y1 2.430493 1_565
O5 Y0 2.430487 1_555
O6 Y0 2.430493 1_556
O7 Y1 2.430487 1_665
O8 Y1 2.446699 1_565
O8 Y0 2.446700 1_565
O10 Y1 2.430493 1_655
O11 Y0 2.430487 1_566
O12 Y0 2.255999 1_555
O12 Y1 2.255999 1_555
O13 Y0 2.255999 1_465
O13 Y1 2.255999 1_564
