# generated using pymatgen
data_Li2Mn3(P2O7)2
_symmetry_space_group_name_H-M   'P 1'
_cell_length_a   5.36070800
_cell_length_b   6.64308344
_cell_length_c   16.22331428
_cell_angle_alpha   81.75310576
_cell_angle_beta   82.83565119
_cell_angle_gamma   71.85734247
_symmetry_Int_Tables_number   1
_chemical_formula_structural   Li2Mn3(P2O7)2
_chemical_formula_sum   'Li4 Mn6 P8 O28'
_cell_volume   541.36671721
_cell_formula_units_Z   2
loop_
 _symmetry_equiv_pos_site_id
 _symmetry_equiv_pos_as_xyz
  1  'x, y, z'
loop_
 _atom_site_type_symbol
 _atom_site_label
 _atom_site_symmetry_multiplicity
 _atom_site_fract_x
 _atom_site_fract_y
 _atom_site_fract_z
 _atom_site_occupancy
  Li  Li0  1  0.92598500  0.78326000  0.00450700  1
  Li  Li1  1  0.35505200  0.69071700  0.11657800  1
  Li  Li2  1  0.07401500  0.21674000  0.99549300  1
  Li  Li3  1  0.64494800  0.30928300  0.88342200  1
  Mn  Mn0  1  0.25543600  0.97092800  0.33179800  1
  Mn  Mn1  1  0.74456400  0.02907200  0.66820200  1
  Mn  Mn2  1  0.96399700  0.38139300  0.18675100  1
  Mn  Mn3  1  0.03600300  0.61860700  0.81324900  1
  Mn  Mn4  1  0.83729800  0.70880400  0.42405800  1
  Mn  Mn5  1  0.16270200  0.29119600  0.57594200  1
  P  P0  1  0.16720400  0.09233400  0.79064400  1
  P  P1  1  0.56372000  0.24324500  0.07330100  1
  P  P2  1  0.37069600  0.44301200  0.31794500  1
  P  P3  1  0.71799600  0.21719000  0.46111800  1
  P  P4  1  0.43628000  0.75675500  0.92669900  1
  P  P5  1  0.62930400  0.55698800  0.68205500  1
  P  P6  1  0.83279600  0.90766600  0.20935600  1
  P  P7  1  0.28200400  0.78281000  0.53888200  1
  O  O0  1  0.32663800  0.13965400  0.70953800  1
  O  O1  1  0.57788400  0.15874300  0.54592000  1
  O  O2  1  0.59934900  0.46884800  0.25774900  1
  O  O3  1  0.60520400  0.05366000  0.15020100  1
  O  O4  1  0.89174400  0.02322700  0.41871000  1
  O  O5  1  0.86541000  0.37921700  0.46507300  1
  O  O6  1  0.97867300  0.71398000  0.16029600  1
  O  O7  1  0.28327300  0.85965600  0.00480900  1
  O  O8  1  0.21947400  0.30432200  0.29033900  1
  O  O9  1  0.73744300  0.67818000  0.92823000  1
  O  O10  1  0.46781900  0.32269700  0.40702200  1
  O  O11  1  0.97758500  0.96456400  0.78270600  1
  O  O12  1  0.67336200  0.86034600  0.29046200  1
  O  O13  1  0.71672700  0.14034400  0.99519100  1
  O  O14  1  0.78052600  0.69567800  0.70966100  1
  O  O15  1  0.39479600  0.94634000  0.84979900  1
  O  O16  1  0.40065100  0.53115200  0.74225100  1
  O  O17  1  0.18290800  0.65963400  0.33914200  1
  O  O18  1  0.13459000  0.62078300  0.53492700  1
  O  O19  1  0.32220900  0.58444000  0.90780600  1
  O  O20  1  0.67779100  0.41556000  0.09219400  1
  O  O21  1  0.02132700  0.28602000  0.83970400  1
  O  O22  1  0.02241500  0.03543600  0.21729400  1
  O  O23  1  0.81709200  0.34036600  0.66085800  1
  O  O24  1  0.42211600  0.84125700  0.45408000  1
  O  O25  1  0.53218100  0.67730300  0.59297800  1
  O  O26  1  0.10825600  0.97677300  0.58129000  1
  O  O27  1  0.26255700  0.32182000  0.07177000  1
loop_
_geom_bond_atom_site_label_1
_geom_bond_atom_site_label_2
_geom_bond_distance
_geom_bond_site_symmetry_2
Li0 O9 2.009807 1_554
Li0 O7 2.129420 1_655
Li0 O13 2.278269 1_564
Li0 O6 2.538271 1_555
Li0 O19 2.594866 1_654
Li1 O7 2.004195 1_555
Li1 O6 2.019451 1_455
Li1 O20 2.134996 1_555
Li2 O27 2.009807 1_556
Li2 O13 2.129420 1_455
Li2 O7 2.278269 1_546
Li2 O21 2.538271 1_555
Li2 O20 2.594866 1_456
Li3 O13 2.004195 1_555
Li3 O21 2.019451 1_655
Li3 O19 2.134996 1_555
Mn0 O8 2.175737 1_565
Mn0 O12 2.179515 1_555
Mn0 O17 2.204602 1_555
Mn0 O4 2.223272 1_465
Mn0 O24 2.224525 1_555
Mn0 O22 2.282959 1_565
Mn1 O14 2.175737 1_545
Mn1 O0 2.179515 1_555
Mn1 O23 2.204602 1_555
Mn1 O26 2.223272 1_645
Mn1 O1 2.224525 1_555
Mn1 O11 2.282959 1_545
Mn2 O2 2.099634 1_555
Mn2 O8 2.202851 1_655
Mn2 O22 2.211157 1_655
Mn2 O6 2.213516 1_555
Mn2 O20 2.242552 1_555
Mn2 O27 2.295746 1_655
Mn3 O16 2.099634 1_555
Mn3 O14 2.202851 1_455
Mn3 O11 2.211157 1_455
Mn3 O21 2.213516 1_555
Mn3 O19 2.242552 1_555
Mn3 O9 2.295746 1_455
Mn4 O17 2.133695 1_655
Mn4 O24 2.144294 1_555
Mn4 O5 2.158899 1_555
Mn4 O4 2.185612 1_565
Mn4 O12 2.404465 1_555
Mn4 O18 2.439241 1_655
Mn5 O23 2.133695 1_455
Mn5 O1 2.144294 1_555
Mn5 O18 2.158899 1_555
Mn5 O26 2.185612 1_545
Mn5 O0 2.404465 1_555
Mn5 O5 2.439241 1_455
O0 P0 1.526038 1_555
O1 P3 1.542165 1_555
O2 P2 1.506638 1_555
O3 P1 1.623602 1_555
O3 P6 1.624280 1_545
O4 P3 1.532386 1_555
O5 P3 1.532752 1_555
O6 P6 1.553209 1_555
O7 P4 1.544643 1_554
O8 P2 1.542938 1_555
O9 P4 1.536551 1_555
O10 P3 1.609908 1_555
O10 P2 1.611038 1_555
O11 P0 1.540001 1_665
O12 P6 1.526038 1_555
O13 P1 1.544643 1_556
O14 P5 1.542938 1_555
O15 P4 1.623602 1_555
O15 P0 1.624280 1_565
O16 P5 1.506638 1_555
O17 P2 1.534905 1_555
O18 P7 1.532752 1_555
O19 P4 1.536737 1_555
O20 P1 1.536737 1_555
O21 P0 1.553209 1_555
O22 P6 1.540001 1_445
O23 P5 1.534905 1_555
O24 P7 1.542165 1_555
O25 P7 1.609908 1_555
O25 P5 1.611038 1_555
O26 P7 1.532386 1_555
O27 P1 1.536551 1_555
