# generated using pymatgen
data_VNi3(SeS)2
_symmetry_space_group_name_H-M   'P 1'
_cell_length_a   5.33472578
_cell_length_b   5.33472577
_cell_length_c   5.33310753
_cell_angle_alpha   90.00000000
_cell_angle_beta   90.00000000
_cell_angle_gamma   90.87005351
_symmetry_Int_Tables_number   1
_chemical_formula_structural   VNi3(SeS)2
_chemical_formula_sum   'V1 Ni3 Se2 S2'
_cell_volume   151.75900320
_cell_formula_units_Z   1
loop_
 _symmetry_equiv_pos_site_id
 _symmetry_equiv_pos_as_xyz
  1  'x, y, z'
loop_
 _atom_site_type_symbol
 _atom_site_label
 _atom_site_symmetry_multiplicity
 _atom_site_fract_x
 _atom_site_fract_y
 _atom_site_fract_z
 _atom_site_occupancy
  V  V0  1  0.00000000  0.00000000  0.99869342  1
  Ni  Ni0  1  0.50000000  0.00000000  0.01548557  1
  Ni  Ni1  1  0.00000000  0.50000000  0.01548557  1
  Ni  Ni2  1  0.00000000  0.00000000  0.49056479  1
  Se  Se0  1  0.74339457  0.74339457  0.74931829  1
  Se  Se1  1  0.25660543  0.25660543  0.74931829  1
  S  S0  1  0.23521591  0.76478409  0.24056704  1
  S  S1  1  0.76478409  0.23521591  0.24056704  1
loop_
_geom_bond_atom_site_label_1
_geom_bond_atom_site_label_2
_geom_bond_distance
_geom_bond_site_symmetry_2
Ni0 S1 2.226420 1_555
Ni0 S0 2.226420 1_545
Ni0 Se1 2.372520 1_554
Ni0 Se0 2.372520 1_544
Ni1 S0 2.226420 1_555
Ni1 S1 2.226420 1_455
Ni1 Se1 2.372520 1_554
Ni1 Se0 2.372520 1_454
Ni2 S1 2.230364 1_455
Ni2 S0 2.230364 1_545
Ni2 Se1 2.365430 1_555
Ni2 Se0 2.365430 1_445
Se0 V0 2.336605 1_665
Se1 V0 2.336605 1_555
S0 V0 2.204737 1_564
S1 V0 2.204737 1_654
