# generated using pymatgen
data_Zr2BIr5Ru
_symmetry_space_group_name_H-M   'P 1'
_cell_length_a   5.71306731
_cell_length_b   5.71306734
_cell_length_c   5.69434804
_cell_angle_alpha   60.10832352
_cell_angle_beta   60.10832333
_cell_angle_gamma   59.78333892
_symmetry_Int_Tables_number   1
_chemical_formula_structural   Zr2BIr5Ru
_chemical_formula_sum   'Zr2 B1 Ir5 Ru1'
_cell_volume   131.41905872
_cell_formula_units_Z   1
loop_
 _symmetry_equiv_pos_site_id
 _symmetry_equiv_pos_as_xyz
  1  'x, y, z'
loop_
 _atom_site_type_symbol
 _atom_site_label
 _atom_site_symmetry_multiplicity
 _atom_site_fract_x
 _atom_site_fract_y
 _atom_site_fract_z
 _atom_site_occupancy
  Zr  Zr0  1  0.74999510  0.74999510  0.75000490  1
  Zr  Zr1  1  0.24999510  0.24999510  0.25000490  1
  B  B0  1  0.99751287  0.99751287  0.00248713  1
  Ir  Ir0  1  0.25885984  0.74199858  0.25800142  1
  Ir  Ir1  1  0.74199858  0.25885984  0.25800142  1
  Ir  Ir2  1  0.25774538  0.25774538  0.74225462  1
  Ir  Ir3  1  0.74199858  0.25885984  0.74114016  1
  Ir  Ir4  1  0.25885984  0.74199858  0.74114016  1
  Ru  Ru0  1  0.74303570  0.74303570  0.25696430  1
loop_
_geom_bond_atom_site_label_1
_geom_bond_atom_site_label_2
_geom_bond_distance
_geom_bond_site_symmetry_2
B0 Ru0 2.062762 1_555
B0 Ir4 2.081282 1_654
B0 Ir3 2.081282 1_564
B0 Ir0 2.081282 1_655
B0 Ir1 2.081282 1_565
B0 Ir2 2.109414 1_664
Ir0 Zr0 2.854846 1_554
Ir0 Zr1 2.854846 1_565
Ir0 Zr0 2.859837 1_455
Ir0 Zr1 2.859837 1_555
Ir1 Zr0 2.854846 1_554
Ir1 Zr1 2.854846 1_655
Ir1 Zr0 2.859837 1_545
Ir1 Zr1 2.859837 1_555
Ir2 Zr0 2.847867 1_455
Ir2 Zr0 2.847867 1_545
Ir2 Zr1 2.847867 1_556
Ir2 Zr1 2.847867 1_555
Ir3 Zr1 2.854846 1_655
Ir3 Zr0 2.854846 1_555
Ir3 Zr1 2.859837 1_556
Ir3 Zr0 2.859837 1_545
Ir4 Zr1 2.854846 1_565
Ir4 Zr0 2.854846 1_555
Ir4 Zr1 2.859837 1_556
Ir4 Zr0 2.859837 1_455
Ru0 Zr1 2.847733 1_655
Ru0 Zr1 2.847733 1_565
Ru0 Zr0 2.847733 1_554
Ru0 Zr0 2.847733 1_555
