# generated using pymatgen
data_SrB2RuRh
_symmetry_space_group_name_H-M   'P 1'
_cell_length_a   6.99764641
_cell_length_b   6.04065895
_cell_length_c   5.64491198
_cell_angle_alpha   73.48398374
_cell_angle_beta   55.85547686
_cell_angle_gamma   50.66052384
_symmetry_Int_Tables_number   1
_chemical_formula_structural   SrB2RuRh
_chemical_formula_sum   'Sr2 B4 Ru2 Rh2'
_cell_volume   151.77660152
_cell_formula_units_Z   2
loop_
 _symmetry_equiv_pos_site_id
 _symmetry_equiv_pos_as_xyz
  1  'x, y, z'
loop_
 _atom_site_type_symbol
 _atom_site_label
 _atom_site_symmetry_multiplicity
 _atom_site_fract_x
 _atom_site_fract_y
 _atom_site_fract_z
 _atom_site_occupancy
  Sr  Sr0  1  0.00188947  0.00188947  0.99811053  1
  Sr  Sr1  1  0.25188947  0.25188947  0.24811053  1
  B  B0  1  0.32228121  0.67904440  0.33221297  1
  B  B1  1  0.58353858  0.91778703  0.57095560  1
  B  B2  1  0.67904440  0.32228121  0.66646142  1
  B  B3  1  0.91778703  0.58353858  0.92771879  1
  Ru  Ru0  1  0.63152419  0.63152419  0.36847581  1
  Ru  Ru1  1  0.88152419  0.88152419  0.61847581  1
  Rh  Rh0  1  0.61526173  0.61526173  0.88473827  1
  Rh  Rh1  1  0.36526173  0.36526173  0.63473827  1
loop_
_geom_bond_atom_site_label_1
_geom_bond_atom_site_label_2
_geom_bond_distance
_geom_bond_site_symmetry_2
B0 Ru1 2.089521 1_455
B0 Rh0 2.114383 1_554
B0 Ru0 2.117401 1_555
B0 Rh1 2.147776 1_555
B0 Sr0 3.082001 1_564
B0 Sr1 3.099933 1_565
B0 Sr1 3.113898 1_555
B1 Ru0 2.089521 1_555
B1 Rh1 2.114384 1_565
B1 Ru1 2.117401 1_555
B1 Rh0 2.147776 1_555
B1 Sr1 3.082001 1_565
B1 Sr0 3.099933 1_664
B1 Sr0 3.113898 1_565
B2 Ru1 2.089521 1_545
B2 Rh0 2.114384 1_555
B2 Ru0 2.117401 1_555
B2 Rh1 2.147777 1_555
B2 Sr0 3.082001 1_655
B2 Sr1 3.099933 1_655
B2 Sr1 3.113898 1_556
B3 Ru0 2.089521 1_556
B3 Rh1 2.114384 1_655
B3 Ru1 2.117401 1_555
B3 Rh0 2.147777 1_555
B3 Sr1 3.082001 1_656
B3 Sr0 3.099933 1_665
B3 Sr0 3.113898 1_655
Ru0 Sr1 3.085305 1_565
Ru0 Sr1 3.085305 1_655
Ru1 Sr0 3.085305 1_664
Ru1 Sr0 3.085305 1_665
Rh0 Sr0 3.056781 1_655
Rh0 Sr0 3.056781 1_565
Rh1 Sr1 3.056781 1_556
Rh1 Sr1 3.056781 1_555
