# generated using pymatgen
data_Sr3CrCoO6
_symmetry_space_group_name_H-M   'P 1'
_cell_length_a   6.53405126
_cell_length_b   6.53413733
_cell_length_c   6.53427330
_cell_angle_alpha   93.51648869
_cell_angle_beta   93.51819029
_cell_angle_gamma   93.51949685
_symmetry_Int_Tables_number   1
_chemical_formula_structural   Sr3CrCoO6
_chemical_formula_sum   'Sr6 Cr2 Co2 O12'
_cell_volume   277.33178789
_cell_formula_units_Z   2
loop_
 _symmetry_equiv_pos_site_id
 _symmetry_equiv_pos_as_xyz
  1  'x, y, z'
loop_
 _atom_site_type_symbol
 _atom_site_label
 _atom_site_symmetry_multiplicity
 _atom_site_fract_x
 _atom_site_fract_y
 _atom_site_fract_z
 _atom_site_occupancy
  Sr  Sr0  1  0.62073191  0.87924484  0.24999663  1
  Sr  Sr1  1  0.87927128  0.25001855  0.62072943  1
  Sr  Sr2  1  0.24999775  0.62070737  0.87927099  1
  Sr  Sr3  1  0.12072201  0.74998232  0.37926236  1
  Sr  Sr4  1  0.75000074  0.37928329  0.12072076  1
  Sr  Sr5  1  0.37926091  0.12074388  0.75000256  1
  Cr  Cr0  1  0.25002162  0.24997475  0.25002233  1
  Cr  Cr1  1  0.74997407  0.75003563  0.74997480  1
  Co  Co0  1  0.50001115  0.50000635  0.50000906  1
  Co  Co1  1  0.00001325  0.00000717  0.00001067  1
  O  O0  1  0.52493528  0.21564694  0.40977346  1
  O  O1  1  0.21565951  0.40974956  0.52493857  1
  O  O2  1  0.40976645  0.52493607  0.21566840  1
  O  O3  1  0.02493479  0.90977980  0.71565263  1
  O  O4  1  0.90975471  0.71565802  0.02494007  1
  O  O5  1  0.71564132  0.02494468  0.90975818  1
  O  O6  1  0.47506414  0.78435261  0.59022788  1
  O  O7  1  0.78434155  0.59024973  0.47505913  1
  O  O8  1  0.59023527  0.47506567  0.78433115  1
  O  O9  1  0.97505941  0.09022152  0.28434828  1
  O  O10  1  0.09024691  0.28433825  0.97506104  1
  O  O11  1  0.28435397  0.97505401  0.09023962  1
loop_
_geom_bond_atom_site_label_1
_geom_bond_atom_site_label_2
_geom_bond_distance
_geom_bond_site_symmetry_2
Cr0 O0 2.052974 1_555
Cr0 O11 2.053165 1_545
Cr0 O1 2.053174 1_555
Cr0 O9 2.053214 1_455
Cr0 O2 2.053230 1_555
Cr0 O10 2.053387 1_554
Cr1 O6 2.052927 1_555
Cr1 O5 2.053102 1_565
Cr1 O3 2.053173 1_655
Cr1 O7 2.053211 1_555
Cr1 O8 2.053263 1_555
Cr1 O4 2.053445 1_556
Co0 O8 1.933955 1_555
Co0 O7 1.933979 1_555
Co0 O2 1.934092 1_555
Co0 O6 1.934094 1_555
Co0 O1 1.934111 1_555
Co0 O0 1.934179 1_555
Co1 O10 1.933985 1_554
Co1 O11 1.934042 1_545
Co1 O9 1.934072 1_455
Co1 O4 1.934117 1_445
Co1 O3 1.934185 1_544
Co1 O5 1.934257 1_454
O0 Sr0 2.506200 1_545
O0 Sr5 2.566962 1_555
O0 Sr1 2.611019 1_555
O0 Sr4 2.696075 1_555
O1 Sr1 2.505901 1_455
O1 Sr3 2.567028 1_555
O1 Sr2 2.611093 1_555
O1 Sr5 2.695758 1_555
O2 Sr2 2.506078 1_554
O2 Sr4 2.567001 1_555
O2 Sr0 2.610881 1_555
O2 Sr3 2.695898 1_555
O3 Sr3 2.506188 1_555
O3 Sr1 2.567011 1_465
O3 Sr5 2.610953 1_565
O3 Sr2 2.696132 1_555
O4 Sr4 2.505871 1_555
O4 Sr2 2.567100 1_654
O4 Sr3 2.611027 1_655
O4 Sr0 2.695812 1_555
O5 Sr5 2.505973 1_555
O5 Sr0 2.567091 1_546
O5 Sr4 2.611113 1_556
O5 Sr1 2.695967 1_555
O6 Sr5 2.506147 1_565
O6 Sr0 2.566938 1_555
O6 Sr3 2.611083 1_555
O6 Sr2 2.696054 1_555
O7 Sr3 2.505874 1_655
O7 Sr1 2.566989 1_555
O7 Sr4 2.611153 1_555
O7 Sr0 2.695722 1_555
O8 Sr4 2.506049 1_556
O8 Sr2 2.566977 1_555
O8 Sr5 2.610980 1_555
O8 Sr1 2.695880 1_555
O9 Sr1 2.506138 1_555
O9 Sr3 2.566995 1_645
O9 Sr0 2.610999 1_545
O9 Sr4 2.696087 1_555
O10 Sr2 2.505851 1_555
O10 Sr4 2.567083 1_456
O10 Sr1 2.611105 1_455
O10 Sr5 2.695795 1_555
O11 Sr0 2.505984 1_555
O11 Sr5 2.567052 1_564
O11 Sr2 2.611176 1_554
O11 Sr3 2.695935 1_555
