# generated using pymatgen
data_NaTlO2
_symmetry_space_group_name_H-M   'P 1'
_cell_length_a   5.77044513
_cell_length_b   5.77044513
_cell_length_c   5.77044513
_cell_angle_alpha   130.98243390
_cell_angle_beta   130.98243390
_cell_angle_gamma   71.84098937
_symmetry_Int_Tables_number   1
_chemical_formula_structural   NaTlO2
_chemical_formula_sum   'Na2 Tl2 O4'
_cell_volume   107.10970307
_cell_formula_units_Z   2
loop_
 _symmetry_equiv_pos_site_id
 _symmetry_equiv_pos_as_xyz
  1  'x, y, z'
loop_
 _atom_site_type_symbol
 _atom_site_label
 _atom_site_symmetry_multiplicity
 _atom_site_fract_x
 _atom_site_fract_y
 _atom_site_fract_z
 _atom_site_occupancy
  Na  Na0  1  0.25000000  0.75000000  0.50000000  1
  Na  Na1  1  0.50000000  0.50000000  -0.00000000  1
  Tl  Tl0  1  0.00000000  -0.00000000  -0.00000000  1
  Tl  Tl1  1  0.75000000  0.25000000  0.50000000  1
  O  O0  1  0.98109056  0.48109056  0.50000000  1
  O  O1  1  0.76890944  0.76890944  0.00000000  1
  O  O2  1  0.51890944  0.01890944  0.50000000  1
  O  O3  1  0.23109056  0.23109056  -0.00000000  1
loop_
_geom_bond_atom_site_label_1
_geom_bond_atom_site_label_2
_geom_bond_distance
_geom_bond_site_symmetry_2
Na0 O3 2.400285 1_566
Na0 O1 2.400285 1_455
Na0 O1 2.400285 1_556
Na0 O3 2.400285 1_555
Na0 O0 2.513276 1_455
Na0 O2 2.513276 1_565
Na1 O0 2.400285 1_454
Na1 O2 2.400285 1_565
Na1 O2 2.400285 1_554
Na1 O0 2.400285 1_555
Na1 O3 2.513276 1_555
Na1 O1 2.513276 1_555
O0 Tl1 2.159814 1_555
O0 Tl0 2.400285 1_655
O0 Tl0 2.400285 1_666
O1 Tl0 2.159814 1_665
O1 Tl1 2.400285 1_554
O1 Tl1 2.400285 1_565
O2 Tl1 2.159814 1_555
O2 Tl0 2.400285 1_555
O2 Tl0 2.400285 1_656
O3 Tl0 2.159814 1_555
O3 Tl1 2.400285 1_555
O3 Tl1 2.400285 1_454
