# generated using pymatgen
data_Zr2V3AsO14
_symmetry_space_group_name_H-M   'P 1'
_cell_length_a   7.28173692
_cell_length_b   8.93528877
_cell_length_c   5.70024825
_cell_angle_alpha   90.00000000
_cell_angle_beta   90.00000000
_cell_angle_gamma   90.32371304
_symmetry_Int_Tables_number   1
_chemical_formula_structural   Zr2V3AsO14
_chemical_formula_sum   'Zr2 V3 As1 O14'
_cell_volume   370.87743886
_cell_formula_units_Z   1
loop_
 _symmetry_equiv_pos_site_id
 _symmetry_equiv_pos_as_xyz
  1  'x, y, z'
loop_
 _atom_site_type_symbol
 _atom_site_label
 _atom_site_symmetry_multiplicity
 _atom_site_fract_x
 _atom_site_fract_y
 _atom_site_fract_z
 _atom_site_occupancy
  Zr  Zr0  1  0.49523156  0.99897268  0.00000000  1
  Zr  Zr1  1  0.00016326  0.50239762  0.49999900  1
  V  V0  1  0.30124604  0.38707373  0.00000000  1
  V  V1  1  0.69669492  0.61601337  0.00000000  1
  V  V2  1  0.80643493  0.11056336  0.49999900  1
  As  As0  1  0.19928873  0.88540918  0.49999900  1
  O  O0  1  0.37303065  0.20721241  0.00000000  1
  O  O1  1  0.49422866  0.50711100  0.00000000  1
  O  O2  1  0.63878036  0.79919407  0.00000000  1
  O  O3  1  0.17533950  0.42060076  0.24341057  1
  O  O4  1  0.81978191  0.57617121  0.24364845  1
  O  O5  1  0.67928959  0.07517983  0.25825756  1
  O  O6  1  0.31849677  0.92465761  0.25724211  1
  O  O7  1  0.00660533  0.99372474  0.49999900  1
  O  O8  1  0.86892024  0.29312846  0.49999900  1
  O  O9  1  0.13355676  0.70598056  0.49999900  1
  O  O10  1  0.67928959  0.07517983  0.74174244  1
  O  O11  1  0.31849677  0.92465761  0.74275789  1
  O  O12  1  0.17533950  0.42060076  0.75659043  1
  O  O13  1  0.81978191  0.57617121  0.75635255  1
loop_
_geom_bond_atom_site_label_1
_geom_bond_atom_site_label_2
_geom_bond_distance
_geom_bond_site_symmetry_2
As0 O6 1.669693 1_555
As0 O11 1.669703 1_555
As0 O9 1.670577 1_555
As0 O7 1.708990 1_555
O0 V0 1.692790 1_555
O0 Zr0 2.067040 1_545
O1 V1 1.761886 1_555
O1 V0 1.762979 1_555
O2 V1 1.692534 1_555
O2 Zr0 2.073696 1_555
O3 V0 1.690728 1_555
O3 Zr1 2.076317 1_555
O4 V1 1.691921 1_555
O4 Zr1 2.074814 1_655
O5 V2 1.688986 1_555
O5 Zr0 2.101626 1_545
O6 Zr0 2.058554 1_555
O7 V2 1.797684 1_465
O8 V2 1.691061 1_555
O8 Zr1 2.095132 1_655
O9 Zr1 2.057317 1_555
O10 V2 1.688996 1_555
O10 Zr0 2.101626 1_546
O11 Zr0 2.058554 1_556
O12 V0 1.690724 1_556
O12 Zr1 2.076329 1_555
O13 V1 1.691916 1_556
O13 Zr1 2.074826 1_655
