# generated using pymatgen
data_Na14Mg2S9
_symmetry_space_group_name_H-M   'P 1'
_cell_length_a   7.84279251
_cell_length_b   7.84279242
_cell_length_c   11.03013117
_cell_angle_alpha   90.00000000
_cell_angle_beta   90.00000000
_cell_angle_gamma   120.00000038
_symmetry_Int_Tables_number   1
_chemical_formula_structural   Na14Mg2S9
_chemical_formula_sum   'Na14 Mg2 S9'
_cell_volume   587.56071859
_cell_formula_units_Z   1
loop_
 _symmetry_equiv_pos_site_id
 _symmetry_equiv_pos_as_xyz
  1  'x, y, z'
loop_
 _atom_site_type_symbol
 _atom_site_label
 _atom_site_symmetry_multiplicity
 _atom_site_fract_x
 _atom_site_fract_y
 _atom_site_fract_z
 _atom_site_occupancy
  Na  Na0  1  0.03045166  0.67577051  0.91014077  1
  Na  Na1  1  0.31359571  0.94055277  0.59195408  1
  Na  Na2  1  0.05944723  0.37304394  0.59195408  1
  Na  Na3  1  0.00000000  0.00000000  0.25075194  1
  Na  Na4  1  0.00000000  0.00000000  0.74924806  1
  Na  Na5  1  0.32422949  0.35468115  0.91014077  1
  Na  Na6  1  0.64531885  0.96954834  0.91014077  1
  Na  Na7  1  0.37304394  0.31359571  0.40804592  1
  Na  Na8  1  0.62695606  0.68640429  0.59195408  1
  Na  Na9  1  0.35468115  0.03045166  0.08985923  1
  Na  Na10  1  0.67577051  0.64531885  0.08985923  1
  Na  Na11  1  0.94055277  0.62695606  0.40804592  1
  Na  Na12  1  0.68640429  0.05944723  0.40804592  1
  Na  Na13  1  0.96954834  0.32422949  0.08985923  1
  Mg  Mg0  1  0.33333300  0.66666700  0.26047190  1
  Mg  Mg1  1  0.66666700  0.33333300  0.73952810  1
  S  S0  1  0.30548406  0.94895017  0.33684799  1
  S  S1  1  0.05104983  0.35653389  0.33684799  1
  S  S2  1  0.33333300  0.66666700  0.03578433  1
  S  S3  1  0.00000000  0.00000000  0.00000000  1
  S  S4  1  0.35653389  0.30548406  0.66315201  1
  S  S5  1  0.64346611  0.69451594  0.33684799  1
  S  S6  1  0.66666700  0.33333300  0.96421567  1
  S  S7  1  0.94895017  0.64346611  0.66315201  1
  S  S8  1  0.69451594  0.05104983  0.66315201  1
loop_
_geom_bond_atom_site_label_1
_geom_bond_atom_site_label_2
_geom_bond_distance
_geom_bond_site_symmetry_2
Na0 S7 2.780779 1_455
Na0 S2 2.781728 1_556
Na0 S6 2.836587 1_455
Na0 S3 2.848315 1_566
Na1 S7 2.749703 1_455
Na1 S8 2.775572 1_565
Na1 S0 2.816087 1_555
Na1 S4 2.820961 1_565
Na2 S4 2.749708 1_555
Na2 S7 2.775564 1_455
Na2 S1 2.816087 1_555
Na2 S8 2.820964 1_455
Na3 S3 2.765827 1_555
Na3 S1 2.785939 1_555
Na3 S5 2.785939 1_445
Na3 S0 2.785939 1_545
Na4 S3 2.765827 1_556
Na4 S7 2.785939 1_445
Na4 S4 2.785939 1_555
Na4 S8 2.785939 1_455
Na5 S4 2.780779 1_555
Na5 S2 2.781735 1_556
Na5 S6 2.836592 1_555
Na5 S3 2.848315 1_556
Na6 S8 2.780779 1_565
Na6 S2 2.781732 1_556
Na6 S6 2.836584 1_565
Na6 S3 2.848315 1_666
Na7 S0 2.749700 1_545
Na7 S5 2.775570 1_555
Na7 S4 2.816087 1_555
Na7 S1 2.820968 1_555
Na8 S8 2.749700 1_565
Na8 S4 2.775570 1_555
Na8 S5 2.816087 1_555
Na8 S7 2.820968 1_555
Na9 S0 2.780779 1_545
Na9 S6 2.781732 1_554
Na9 S2 2.836584 1_545
Na9 S3 2.848315 1_555
Na10 S5 2.780779 1_555
Na10 S6 2.781735 1_554
Na10 S2 2.836592 1_555
Na10 S3 2.848315 1_665
Na11 S5 2.749708 1_555
Na11 S1 2.775564 1_655
Na11 S7 2.816087 1_555
Na11 S0 2.820964 1_655
Na12 S1 2.749703 1_655
Na12 S0 2.775572 1_545
Na12 S8 2.816087 1_555
Na12 S5 2.820961 1_545
Na13 S1 2.780779 1_655
Na13 S6 2.781728 1_554
Na13 S2 2.836587 1_655
Na13 S3 2.848315 1_655
Mg0 S2 2.478333 1_555
Mg0 S0 2.478357 1_555
Mg0 S1 2.478361 1_555
Mg0 S5 2.478364 1_555
Mg1 S6 2.478333 1_555
Mg1 S8 2.478357 1_555
Mg1 S7 2.478361 1_555
Mg1 S4 2.478364 1_555
