# generated using pymatgen
data_Cs3YSb2
_symmetry_space_group_name_H-M   'P 1'
_cell_length_a   10.47652447
_cell_length_b   10.47652361
_cell_length_c   10.47652446
_cell_angle_alpha   127.73640295
_cell_angle_beta   70.60596337
_cell_angle_gamma   136.05722687
_symmetry_Int_Tables_number   1
_chemical_formula_structural   Cs3YSb2
_chemical_formula_sum   'Cs6 Y2 Sb4'
_cell_volume   618.55957504
_cell_formula_units_Z   2
loop_
 _symmetry_equiv_pos_site_id
 _symmetry_equiv_pos_as_xyz
  1  'x, y, z'
loop_
 _atom_site_type_symbol
 _atom_site_label
 _atom_site_symmetry_multiplicity
 _atom_site_fract_x
 _atom_site_fract_y
 _atom_site_fract_z
 _atom_site_occupancy
  Cs  Cs0  1  0.31530280  0.71172329  0.02702709  1
  Cs  Cs1  1  0.18469720  0.21172329  0.39642049  1
  Cs  Cs2  1  0.75000000  0.25000000  0.50000000  1
  Cs  Cs3  1  0.25000000  0.74999900  0.49999900  1
  Cs  Cs4  1  0.81530280  0.78827771  0.60358051  1
  Cs  Cs5  1  0.68469720  0.28827771  0.97297391  1
  Y  Y0  1  0.25000000  0.25000000  0.00000000  1
  Y  Y1  1  0.75000000  0.75000000  0.00000000  1
  Sb  Sb0  1  0.90558454  0.18371331  0.08929586  1
  Sb  Sb1  1  0.59441646  0.68371431  0.27812977  1
  Sb  Sb2  1  0.40558354  0.31628569  0.72186923  1
  Sb  Sb3  1  0.09441646  0.81628569  0.91070314  1
loop_
_geom_bond_atom_site_label_1
_geom_bond_atom_site_label_2
_geom_bond_distance
_geom_bond_site_symmetry_2
Cs0 Sb3 3.898455 1_554
Cs0 Sb2 3.962410 1_554
Cs0 Sb0 4.220692 1_455
Cs0 Sb0 4.220714 1_565
Cs1 Sb2 3.898455 1_555
Cs1 Sb3 3.962402 1_544
Cs1 Sb1 4.220705 1_445
Cs1 Sb1 4.220712 1_555
Cs2 Sb1 3.868767 1_545
Cs2 Sb2 3.868769 1_555
Cs2 Sb3 3.868775 1_655
Cs2 Sb0 3.868787 1_555
Cs3 Sb1 3.868764 1_555
Cs3 Sb0 3.868773 1_455
Cs3 Sb2 3.868776 1_565
Cs3 Sb3 3.868785 1_555
Cs4 Sb1 3.898467 1_555
Cs4 Sb0 3.962384 1_566
Cs4 Sb2 4.220704 1_555
Cs4 Sb2 4.220704 1_665
Cs5 Sb0 3.898469 1_556
Cs5 Sb1 3.962401 1_556
Cs5 Sb3 4.220691 1_655
Cs5 Sb3 4.220706 1_545
Sb0 Y0 3.053201 1_655
Sb0 Y1 3.053211 1_545
Sb1 Y1 3.053207 1_555
Sb1 Y0 3.053212 1_555
Sb2 Y0 3.053216 1_556
Sb2 Y1 3.053217 1_556
Sb3 Y1 3.053216 1_456
Sb3 Y0 3.053221 1_566
