# generated using pymatgen
data_Hf7Nb3CuSn7
_symmetry_space_group_name_H-M   'P 1'
_cell_length_a   5.74843572
_cell_length_b   8.55144126
_cell_length_c   8.55141483
_cell_angle_alpha   119.99979395
_cell_angle_beta   89.99955296
_cell_angle_gamma   90.00059549
_symmetry_Int_Tables_number   1
_chemical_formula_structural   Hf7Nb3CuSn7
_chemical_formula_sum   'Hf7 Nb3 Cu1 Sn7'
_cell_volume   364.04787869
_cell_formula_units_Z   1
loop_
 _symmetry_equiv_pos_site_id
 _symmetry_equiv_pos_as_xyz
  1  'x, y, z'
loop_
 _atom_site_type_symbol
 _atom_site_label
 _atom_site_symmetry_multiplicity
 _atom_site_fract_x
 _atom_site_fract_y
 _atom_site_fract_z
 _atom_site_occupancy
  Hf  Hf0  1  0.00000479  0.33333364  0.66666940  1
  Hf  Hf1  1  0.73348975  0.27359488  0.99993961  1
  Hf  Hf2  1  0.73349701  0.72634381  0.72640406  1
  Hf  Hf3  1  0.73348615  0.00006233  0.27365256  1
  Hf  Hf4  1  0.26651479  0.72634770  0.99993733  1
  Hf  Hf5  1  0.26651457  0.27358826  0.27365155  1
  Hf  Hf6  1  0.26650482  0.00006118  0.72640709  1
  Nb  Nb0  1  0.50000853  0.33333603  0.66667205  1
  Nb  Nb1  1  0.50000231  0.66666608  0.33333351  1
  Nb  Nb2  1  0.99999499  0.66666802  0.33334047  1
  Cu  Cu0  1  0.49994922  0.99999559  0.99999077  1
  Sn  Sn0  1  0.75475777  0.61354214  0.00191721  1
  Sn  Sn1  1  0.75475630  0.38837230  0.38646157  1
  Sn  Sn2  1  0.75473969  0.99808694  0.61162333  1
  Sn  Sn3  1  0.24526337  0.38838414  0.00191666  1
  Sn  Sn4  1  0.24527164  0.61352926  0.61161682  1
  Sn  Sn5  1  0.24525326  0.99808643  0.38646614  1
  Sn  Sn6  1  0.99998903  0.00000026  0.99999985  1
loop_
_geom_bond_atom_site_label_1
_geom_bond_atom_site_label_2
_geom_bond_distance
_geom_bond_site_symmetry_2
Hf0 Nb0 2.874196 1_455
Hf0 Nb0 2.874239 1_555
Hf0 Sn5 3.013058 1_545
Hf0 Sn3 3.013059 1_556
Hf0 Sn1 3.013060 1_455
Hf0 Sn0 3.013064 1_456
Hf0 Sn4 3.013066 1_555
Hf0 Sn2 3.013072 1_445
Hf1 Sn6 2.796788 1_555
Hf1 Sn0 2.901196 1_556
Hf1 Sn1 2.942653 1_556
Hf1 Sn2 2.961245 1_545
Hf1 Sn3 2.970516 1_556
Hf1 Sn3 3.098703 1_656
Hf1 Nb0 3.411796 1_555
Hf1 Nb1 3.412493 1_556
Hf1 Nb2 3.491527 1_556
Hf2 Sn6 2.796762 1_565
Hf2 Sn1 2.901187 1_555
Hf2 Sn2 2.942656 1_555
Hf2 Sn0 2.961240 1_556
Hf2 Sn4 2.970500 1_555
Hf2 Sn4 3.098721 1_655
Hf2 Nb0 3.411820 1_555
Hf2 Nb1 3.412493 1_555
Hf2 Nb2 3.491409 1_555
Hf3 Sn6 2.796748 1_554
Hf3 Sn2 2.901186 1_545
Hf3 Sn0 2.942638 1_545
Hf3 Sn1 2.961199 1_555
Hf3 Sn5 2.970536 1_545
Hf3 Sn5 3.098685 1_645
Hf3 Nb0 3.411861 1_555
Hf3 Nb1 3.412495 1_545
Hf3 Nb2 3.491573 1_545
Hf4 Sn6 2.796847 1_465
Hf4 Sn3 2.901147 1_556
Hf4 Sn5 2.942689 1_556
Hf4 Sn4 2.961251 1_555
Hf4 Sn0 2.970592 1_556
Hf4 Sn0 3.098598 1_456
Hf4 Nb0 3.411841 1_555
Hf4 Nb1 3.412522 1_556
Hf4 Nb2 3.491595 1_456
Hf5 Sn6 2.796822 1_454
Hf5 Sn4 2.901151 1_555
Hf5 Sn3 2.942683 1_555
Hf5 Sn5 2.961230 1_545
Hf5 Sn1 2.970578 1_555
Hf5 Sn1 3.098621 1_455
Hf5 Nb0 3.411896 1_555
Hf5 Nb1 3.412511 1_555
Hf5 Nb2 3.491581 1_455
Hf6 Sn6 2.796800 1_455
Hf6 Sn5 2.901144 1_545
Hf6 Sn4 2.942710 1_545
Hf6 Sn3 2.961294 1_556
Hf6 Sn2 2.970533 1_545
Hf6 Sn2 3.098661 1_445
Hf6 Nb0 3.411857 1_555
Hf6 Nb1 3.412524 1_545
Hf6 Nb2 3.491486 1_445
Nb0 Sn3 3.038929 1_556
Nb0 Sn4 3.038941 1_555
Nb0 Sn2 3.038950 1_545
Nb0 Sn1 3.038979 1_555
Nb0 Sn0 3.038984 1_556
Nb0 Sn5 3.039019 1_545
Nb1 Nb2 2.874176 1_555
Nb1 Nb2 2.874260 1_455
Nb1 Sn4 3.015786 1_555
Nb1 Sn3 3.015810 1_555
Nb1 Sn2 3.015844 1_555
Nb1 Sn0 3.015866 1_555
Nb1 Sn5 3.015884 1_555
Nb1 Sn1 3.015919 1_555
Nb2 Sn1 2.989696 1_555
Nb2 Sn2 2.989740 1_555
Nb2 Sn0 2.989744 1_555
Nb2 Sn5 2.989753 1_655
Nb2 Sn4 2.989756 1_655
Nb2 Sn3 2.989795 1_655
Cu0 Hf4 2.697315 1_555
Cu0 Hf6 2.697323 1_565
Cu0 Hf5 2.697375 1_566
Cu0 Hf2 2.697643 1_555
Cu0 Hf1 2.697646 1_565
Cu0 Hf3 2.697677 1_566
Cu0 Sn6 2.873989 1_465
Cu0 Sn6 2.874447 1_565
