# generated using pymatgen
data_La2Te4O11
_symmetry_space_group_name_H-M   'P 1'
_cell_length_a   6.93762169
_cell_length_b   6.93762169
_cell_length_c   16.48551715
_cell_angle_alpha   75.76556983
_cell_angle_beta   75.76556983
_cell_angle_gamma   44.95065810
_symmetry_Int_Tables_number   1
_chemical_formula_structural   La2Te4O11
_chemical_formula_sum   'La4 Te8 O22'
_cell_volume   540.36435483
_cell_formula_units_Z   2
loop_
 _symmetry_equiv_pos_site_id
 _symmetry_equiv_pos_as_xyz
  1  'x, y, z'
loop_
 _atom_site_type_symbol
 _atom_site_label
 _atom_site_symmetry_multiplicity
 _atom_site_fract_x
 _atom_site_fract_y
 _atom_site_fract_z
 _atom_site_occupancy
  La  La0  1  0.13618683  0.62685616  0.53800808  1
  La  La1  1  0.37314384  0.86381317  0.96199192  1
  La  La2  1  0.86381317  0.37314384  0.46199192  1
  La  La3  1  0.62685616  0.13618683  0.03800808  1
  Te  Te0  1  0.60936810  0.15321048  0.70265251  1
  Te  Te1  1  0.84678952  0.39063190  0.79734749  1
  Te  Te2  1  0.39063190  0.84678952  0.29734749  1
  Te  Te3  1  0.15321048  0.60936810  0.20265251  1
  Te  Te4  1  0.14843633  0.58858954  0.87124364  1
  Te  Te5  1  0.41141046  0.85156367  0.62875636  1
  Te  Te6  1  0.85156367  0.41141046  0.12875636  1
  Te  Te7  1  0.58858954  0.14843633  0.37124364  1
  O  O0  1  0.85209016  0.14790984  0.75000000  1
  O  O1  1  0.14790984  0.85209016  0.25000000  1
  O  O2  1  0.19558132  0.09529774  0.82779243  1
  O  O3  1  0.90470226  0.80441868  0.67220757  1
  O  O4  1  0.80441868  0.90470226  0.17220757  1
  O  O5  1  0.09529774  0.19558132  0.32779243  1
  O  O6  1  0.62365747  0.42909184  0.89717768  1
  O  O7  1  0.57090816  0.37634253  0.60282232  1
  O  O8  1  0.37634253  0.57090816  0.10282232  1
  O  O9  1  0.42909184  0.62365747  0.39717768  1
  O  O10  1  0.04926741  0.80172088  0.95202472  1
  O  O11  1  0.19827912  0.95073259  0.54797528  1
  O  O12  1  0.67811853  0.82046917  0.37115045  1
  O  O13  1  0.17953083  0.32188147  0.12884955  1
  O  O14  1  0.32188147  0.17953083  0.62884955  1
  O  O15  1  0.82046917  0.67811853  0.87115045  1
  O  O16  1  0.25612787  0.33066323  0.44112299  1
  O  O17  1  0.66933677  0.74387213  0.05887701  1
  O  O18  1  0.74387213  0.66933677  0.55887701  1
  O  O19  1  0.33066323  0.25612787  0.94112299  1
  O  O20  1  0.80172088  0.04926741  0.45202472  1
  O  O21  1  0.95073259  0.19827912  0.04797528  1
loop_
_geom_bond_atom_site_label_1
_geom_bond_atom_site_label_2
_geom_bond_distance
_geom_bond_site_symmetry_2
La0 O3 2.404970 1_455
La0 O20 2.435418 1_465
La0 O16 2.450756 1_555
La0 O18 2.463137 1_455
La0 O7 2.551563 1_555
La0 O14 2.556878 1_555
La0 O11 2.616804 1_555
La0 O9 2.676060 1_555
La1 O2 2.404970 1_565
La1 O21 2.435418 1_466
La1 O17 2.450756 1_556
La1 O19 2.463137 1_565
La1 O6 2.551563 1_555
La1 O15 2.556878 1_555
La1 O10 2.616804 1_555
La1 O8 2.676060 1_556
La2 O5 2.404970 1_655
La2 O11 2.435418 1_645
La2 O18 2.450756 1_555
La2 O16 2.463137 1_655
La2 O9 2.551563 1_555
La2 O12 2.556878 1_555
La2 O20 2.616804 1_555
La2 O7 2.676060 1_555
La3 O4 2.404970 1_545
La3 O10 2.435418 1_644
La3 O19 2.450756 1_554
La3 O17 2.463137 1_545
La3 O8 2.551563 1_555
La3 O13 2.556878 1_555
La3 O21 2.616804 1_555
La3 O6 2.676060 1_554
O0 Te1 1.997696 1_555
O0 Te0 1.997696 1_555
O1 Te2 1.997696 1_555
O1 Te3 1.997696 1_555
O2 Te1 1.838272 1_455
O3 Te0 1.838272 1_565
O4 Te3 1.838272 1_655
O5 Te2 1.838272 1_545
O6 Te1 1.885328 1_555
O7 Te0 1.885328 1_555
O8 Te3 1.885328 1_555
O9 Te2 1.885328 1_555
O10 Te4 1.873775 1_555
O11 Te5 1.873775 1_555
O12 Te7 1.887788 1_565
O12 Te2 2.461748 1_555
O13 Te6 1.887788 1_455
O13 Te3 2.461748 1_555
O14 Te5 1.887788 1_545
O14 Te0 2.461748 1_555
O15 Te4 1.887788 1_655
O15 Te1 2.461748 1_555
O16 Te7 1.878166 1_555
O17 Te6 1.878166 1_555
O18 Te5 1.878166 1_555
O19 Te4 1.878166 1_555
O20 Te7 1.873775 1_555
O21 Te6 1.873775 1_555
