# generated using pymatgen
data_MgTaIrOs
_symmetry_space_group_name_H-M   'P 1'
_cell_length_a   4.42476827
_cell_length_b   4.42476824
_cell_length_c   4.42476820
_cell_angle_alpha   60.00000034
_cell_angle_beta   60.00000056
_cell_angle_gamma   60.00000861
_symmetry_Int_Tables_number   1
_chemical_formula_structural   MgTaIrOs
_chemical_formula_sum   'Mg1 Ta1 Ir1 Os1'
_cell_volume   61.25712598
_cell_formula_units_Z   1
loop_
 _symmetry_equiv_pos_site_id
 _symmetry_equiv_pos_as_xyz
  1  'x, y, z'
loop_
 _atom_site_type_symbol
 _atom_site_label
 _atom_site_symmetry_multiplicity
 _atom_site_fract_x
 _atom_site_fract_y
 _atom_site_fract_z
 _atom_site_occupancy
  Mg  Mg0  1  0.50000000  0.50000000  0.50000000  1
  Ta  Ta0  1  0.00000000  0.00000000  0.00000000  1
  Ir  Ir0  1  0.75000000  0.75000000  0.75000000  1
  Os  Os0  1  0.25000000  0.25000000  0.25000000  1
loop_
_geom_bond_atom_site_label_1
_geom_bond_atom_site_label_2
_geom_bond_distance
_geom_bond_site_symmetry_2
Mg0 Os0 2.709606 1_555
Mg0 Os0 2.709606 1_556
Mg0 Os0 2.709606 1_565
Mg0 Os0 2.709606 1_655
Ir0 Ta0 2.709606 1_665
Ir0 Ta0 2.709606 1_666
Ir0 Mg0 2.709606 1_555
Ir0 Mg0 2.709606 1_556
Ir0 Mg0 2.709606 1_565
Ir0 Ta0 2.709606 1_656
Ir0 Mg0 2.709606 1_655
Ir0 Ta0 2.709606 1_566
Os0 Ta0 2.709606 1_555
Os0 Ta0 2.709606 1_556
Os0 Ta0 2.709606 1_565
Os0 Ta0 2.709606 1_655
