# generated using pymatgen
data_Li2GeSbPt3
_symmetry_space_group_name_H-M   'P 1'
_cell_length_a   7.42799145
_cell_length_b   7.42799134
_cell_length_c   7.42799125
_cell_angle_alpha   33.43416795
_cell_angle_beta   33.43416636
_cell_angle_gamma   33.43416764
_symmetry_Int_Tables_number   1
_chemical_formula_structural   Li2GeSbPt3
_chemical_formula_sum   'Li2 Ge1 Sb1 Pt3'
_cell_volume   110.79970034
_cell_formula_units_Z   1
loop_
 _symmetry_equiv_pos_site_id
 _symmetry_equiv_pos_as_xyz
  1  'x, y, z'
loop_
 _atom_site_type_symbol
 _atom_site_label
 _atom_site_symmetry_multiplicity
 _atom_site_fract_x
 _atom_site_fract_y
 _atom_site_fract_z
 _atom_site_occupancy
  Li  Li0  1  0.24116603  0.24116603  0.24116603  1
  Li  Li1  1  0.75504382  0.75504382  0.75504382  1
  Ge  Ge0  1  0.00501306  0.00501306  0.00501306  1
  Sb  Sb0  1  0.49574724  0.49574724  0.49574724  1
  Pt  Pt0  1  0.36762547  0.36762547  0.36762547  1
  Pt  Pt1  1  0.62826485  0.62826485  0.62826485  1
  Pt  Pt2  1  0.88213752  0.88213752  0.88213752  1
loop_
_geom_bond_atom_site_label_1
_geom_bond_atom_site_label_2
_geom_bond_distance
_geom_bond_site_symmetry_2
Li0 Pt2 2.525594 1_544
Li0 Pt2 2.525594 1_445
Li0 Pt2 2.525594 1_454
Li0 Pt0 2.658035 1_555
Li0 Pt1 2.713676 1_455
Li0 Pt1 2.713676 1_554
Li0 Pt1 2.713676 1_545
Li0 Sb0 2.971008 1_554
Li0 Sb0 2.971008 1_545
Li0 Sb0 2.971008 1_455
Li1 Pt1 2.664751 1_555
Li1 Pt2 2.671367 1_555
Li1 Pt0 2.716479 1_655
Li1 Pt0 2.716480 1_556
Li1 Pt0 2.716480 1_565
Li1 Sb0 2.916950 1_556
Li1 Sb0 2.916950 1_655
Li1 Sb0 2.916950 1_565
Ge0 Pt0 2.542767 1_455
Ge0 Pt0 2.542767 1_554
Ge0 Pt0 2.542767 1_545
Ge0 Pt2 2.582706 1_444
Ge0 Pt1 2.630522 1_544
Ge0 Pt1 2.630522 1_445
Ge0 Pt1 2.630522 1_454
Ge0 Li1 3.026087 1_445
Ge0 Li1 3.026088 1_454
Ge0 Li1 3.026088 1_544
Pt0 Sb0 2.692976 1_555
Pt1 Sb0 2.785371 1_555
Pt2 Sb0 2.707508 1_655
Pt2 Sb0 2.707508 1_556
Pt2 Sb0 2.707508 1_565
