# generated using pymatgen
data_Zr13Sn3(Ir2N)4
_symmetry_space_group_name_H-M   'P 1'
_cell_length_a   8.71352220
_cell_length_b   8.74042955
_cell_length_c   8.71352137
_cell_angle_alpha   60.10178298
_cell_angle_beta   59.99999943
_cell_angle_gamma   60.10177888
_symmetry_Int_Tables_number   1
_chemical_formula_structural   Zr13Sn3(Ir2N)4
_chemical_formula_sum   'Zr13 Sn3 Ir8 N4'
_cell_volume   469.97162281
_cell_formula_units_Z   1
loop_
 _symmetry_equiv_pos_site_id
 _symmetry_equiv_pos_as_xyz
  1  'x, y, z'
loop_
 _atom_site_type_symbol
 _atom_site_label
 _atom_site_symmetry_multiplicity
 _atom_site_fract_x
 _atom_site_fract_y
 _atom_site_fract_z
 _atom_site_occupancy
  Zr  Zr0  1  0.62500000  0.12500000  0.62500000  1
  Zr  Zr1  1  0.81188104  0.81599487  0.18606154  1
  Zr  Zr2  1  0.18463073  0.18965658  0.81285584  1
  Zr  Zr3  1  0.81285584  0.18965658  0.81285584  1
  Zr  Zr4  1  0.18606154  0.81599487  0.18606154  1
  Zr  Zr5  1  0.18606154  0.81599487  0.81188104  1
  Zr  Zr6  1  0.81285584  0.18965658  0.18463073  1
  Zr  Zr7  1  0.43811896  0.43400513  0.06393846  1
  Zr  Zr8  1  0.06536927  0.06034342  0.43714416  1
  Zr  Zr9  1  0.43714416  0.06034342  0.43714416  1
  Zr  Zr10  1  0.06393846  0.43400513  0.06393846  1
  Zr  Zr11  1  0.06393846  0.43400513  0.43811896  1
  Zr  Zr12  1  0.43714416  0.06034342  0.06536927  1
  Sn  Sn0  1  0.12500000  0.62500000  0.62500000  1
  Sn  Sn1  1  0.62500000  0.62500000  0.12500000  1
  Sn  Sn2  1  0.62500000  0.62500000  0.62500000  1
  Ir  Ir0  1  0.77310704  0.40080957  0.41304219  1
  Ir  Ir1  1  0.40835597  0.77493210  0.40835597  1
  Ir  Ir2  1  0.41304219  0.40080957  0.77310704  1
  Ir  Ir3  1  0.41304219  0.40080957  0.41304219  1
  Ir  Ir4  1  0.47689296  0.84919043  0.83695781  1
  Ir  Ir5  1  0.84164403  0.47506790  0.84164403  1
  Ir  Ir6  1  0.83695781  0.84919043  0.47689296  1
  Ir  Ir7  1  0.83695781  0.84919043  0.83695781  1
  N  N0  1  0.62500000  0.12500000  0.12500000  1
  N  N1  1  0.12500000  0.62500000  0.12500000  1
  N  N2  1  0.12500000  0.12500000  0.62500000  1
  N  N3  1  0.12500000  0.12500000  0.12500000  1
loop_
_geom_bond_atom_site_label_1
_geom_bond_atom_site_label_2
_geom_bond_distance
_geom_bond_site_symmetry_2
Sn0 Zr8 3.177775 1_565
Sn0 Zr2 3.177775 1_555
Sn0 Zr5 3.191157 1_555
Sn0 Zr11 3.191157 1_555
Sn0 Zr10 3.191164 1_556
Sn0 Zr4 3.191164 1_555
Sn1 Zr12 3.177775 1_565
Sn1 Zr6 3.177775 1_555
Sn1 Zr1 3.191157 1_555
Sn1 Zr7 3.191157 1_555
Sn1 Zr10 3.191164 1_655
Sn1 Zr4 3.191164 1_555
Sn2 Zr9 3.177773 1_565
Sn2 Zr3 3.177773 1_555
Sn2 Zr7 3.191163 1_556
Sn2 Zr1 3.191163 1_555
Sn2 Zr11 3.191163 1_655
Sn2 Zr5 3.191163 1_555
Ir0 Zr0 2.677196 1_555
Ir0 Sn2 2.760362 1_555
Ir0 Sn1 2.760369 1_555
Ir0 Zr8 2.782400 1_655
Ir0 Zr10 2.811382 1_655
Ir0 Zr11 2.811382 1_655
Ir0 Zr3 3.134077 1_555
Ir0 Zr6 3.134092 1_555
Ir0 Zr1 3.254791 1_555
Ir1 Sn1 2.734141 1_555
Ir1 Sn2 2.734142 1_555
Ir1 Sn0 2.734142 1_555
Ir1 Zr8 2.767587 1_565
Ir1 Zr12 2.767587 1_565
Ir1 Zr9 2.767592 1_565
Ir1 Zr5 3.161992 1_555
Ir1 Zr1 3.161992 1_555
Ir1 Zr4 3.162000 1_555
Ir2 Zr0 2.677196 1_555
Ir2 Sn2 2.760363 1_555
Ir2 Sn0 2.760369 1_555
Ir2 Zr12 2.782400 1_556
Ir2 Zr7 2.811382 1_556
Ir2 Zr10 2.811382 1_556
Ir2 Zr3 3.134077 1_555
Ir2 Zr2 3.134092 1_555
Ir2 Zr5 3.254791 1_555
Ir3 Zr0 2.677190 1_555
Ir3 Sn0 2.760364 1_555
Ir3 Sn1 2.760365 1_555
Ir3 Zr9 2.782400 1_555
Ir3 Zr7 2.811382 1_555
Ir3 Zr11 2.811382 1_555
Ir3 Zr6 3.134083 1_555
Ir3 Zr2 3.134083 1_555
Ir3 Zr4 3.254797 1_555
Ir4 Zr0 2.677196 1_565
Ir4 Sn2 2.760362 1_555
Ir4 Sn1 2.760369 1_556
Ir4 Zr2 2.782400 1_565
Ir4 Zr4 2.811382 1_556
Ir4 Zr5 2.811382 1_555
Ir4 Zr9 3.134077 1_565
Ir4 Zr12 3.134092 1_566
Ir4 Zr7 3.254791 1_556
Ir5 Sn1 2.734141 1_556
Ir5 Sn2 2.734142 1_555
Ir5 Sn0 2.734142 1_655
Ir5 Zr2 2.767587 1_655
Ir5 Zr6 2.767587 1_556
Ir5 Zr3 2.767592 1_555
Ir5 Zr11 3.161992 1_655
Ir5 Zr7 3.161992 1_556
Ir5 Zr10 3.162000 1_656
Ir6 Zr0 2.677196 1_565
Ir6 Sn2 2.760363 1_555
Ir6 Sn0 2.760369 1_655
Ir6 Zr6 2.782400 1_565
Ir6 Zr1 2.811382 1_555
Ir6 Zr4 2.811382 1_655
Ir6 Zr9 3.134077 1_565
Ir6 Zr8 3.134092 1_665
Ir6 Zr11 3.254791 1_655
Ir7 Zr0 2.677190 1_565
Ir7 Sn0 2.760364 1_655
Ir7 Sn1 2.760365 1_556
Ir7 Zr3 2.782400 1_565
Ir7 Zr1 2.811382 1_556
Ir7 Zr5 2.811382 1_655
Ir7 Zr12 3.134083 1_566
Ir7 Zr8 3.134083 1_665
Ir7 Zr10 3.254797 1_656
N0 Zr1 2.297522 1_545
N0 Zr7 2.297522 1_555
N0 Zr6 2.309586 1_555
N0 Zr12 2.309586 1_555
N0 Zr9 2.309592 1_555
N0 Zr3 2.309592 1_554
N1 Zr4 2.325304 1_555
N1 Zr10 2.325304 1_555
N1 Zr11 2.325310 1_555
N1 Zr5 2.325310 1_554
N1 Zr7 2.325310 1_555
N1 Zr1 2.325310 1_455
N2 Zr11 2.297522 1_555
N2 Zr5 2.297522 1_545
N2 Zr2 2.309586 1_555
N2 Zr8 2.309586 1_555
N2 Zr9 2.309592 1_555
N2 Zr3 2.309592 1_455
N3 Zr10 2.297524 1_555
N3 Zr4 2.297524 1_545
N3 Zr8 2.309594 1_555
N3 Zr2 2.309594 1_554
N3 Zr12 2.309594 1_555
N3 Zr6 2.309594 1_455
