# generated using pymatgen
data_Hf6Al(Ga3Cu8)2
_symmetry_space_group_name_H-M   'P 1'
_cell_length_a   8.31444611
_cell_length_b   8.31444550
_cell_length_c   8.31444806
_cell_angle_alpha   60.00000140
_cell_angle_beta   60.00000381
_cell_angle_gamma   59.99999568
_symmetry_Int_Tables_number   1
_chemical_formula_structural   Hf6Al(Ga3Cu8)2
_chemical_formula_sum   'Hf6 Al1 Ga6 Cu16'
_cell_volume   406.42933221
_cell_formula_units_Z   1
loop_
 _symmetry_equiv_pos_site_id
 _symmetry_equiv_pos_as_xyz
  1  'x, y, z'
loop_
 _atom_site_type_symbol
 _atom_site_label
 _atom_site_symmetry_multiplicity
 _atom_site_fract_x
 _atom_site_fract_y
 _atom_site_fract_z
 _atom_site_occupancy
  Hf  Hf0  1  0.70362728  0.70362728  0.29637272  1
  Hf  Hf1  1  0.29637272  0.70362728  0.29637272  1
  Hf  Hf2  1  0.70362728  0.29637272  0.29637272  1
  Hf  Hf3  1  0.29637272  0.29637272  0.70362728  1
  Hf  Hf4  1  0.70362728  0.29637272  0.70362728  1
  Hf  Hf5  1  0.29637272  0.70362728  0.70362728  1
  Al  Al0  1  0.00000000  0.00000000  0.00000000  1
  Ga  Ga0  1  0.00000000  0.00000000  0.50000000  1
  Ga  Ga1  1  0.50000000  0.00000000  0.50000000  1
  Ga  Ga2  1  0.00000000  0.50000000  0.50000000  1
  Ga  Ga3  1  0.50000000  0.50000000  0.00000000  1
  Ga  Ga4  1  0.00000000  0.50000000  0.00000000  1
  Ga  Ga5  1  0.50000000  0.00000000  0.00000000  1
  Cu  Cu0  1  0.88088254  0.88088254  0.35735139  1
  Cu  Cu1  1  0.88088254  0.35735139  0.88088254  1
  Cu  Cu2  1  0.35735139  0.88088254  0.88088254  1
  Cu  Cu3  1  0.88088254  0.88088254  0.88088254  1
  Cu  Cu4  1  0.11911746  0.11911746  0.64264861  1
  Cu  Cu5  1  0.11911746  0.64264861  0.11911746  1
  Cu  Cu6  1  0.64264861  0.11911746  0.11911746  1
  Cu  Cu7  1  0.11911746  0.11911746  0.11911746  1
  Cu  Cu8  1  0.66987318  0.66987318  0.99037845  1
  Cu  Cu9  1  0.66987318  0.99037845  0.66987318  1
  Cu  Cu10  1  0.99037845  0.66987318  0.66987318  1
  Cu  Cu11  1  0.66987318  0.66987318  0.66987318  1
  Cu  Cu12  1  0.33012682  0.33012682  0.00962155  1
  Cu  Cu13  1  0.33012682  0.00962155  0.33012682  1
  Cu  Cu14  1  0.00962155  0.33012682  0.33012682  1
  Cu  Cu15  1  0.33012682  0.33012682  0.33012682  1
loop_
_geom_bond_atom_site_label_1
_geom_bond_atom_site_label_2
_geom_bond_distance
_geom_bond_site_symmetry_2
Hf0 Hf2 3.386096 1_555
Hf0 Hf1 3.386096 1_555
Hf0 Hf4 3.386096 1_555
Hf0 Hf5 3.386097 1_555
Hf1 Hf2 3.386096 1_555
Hf1 Hf3 3.386096 1_555
Hf1 Hf5 3.386097 1_555
Hf2 Hf3 3.386097 1_555
Hf2 Hf4 3.386097 1_555
Hf3 Hf5 3.386096 1_555
Hf3 Hf4 3.386096 1_555
Hf4 Hf5 3.386096 1_555
Al0 Cu1 2.425957 1_454
Al0 Cu5 2.425957 1_545
Al0 Cu2 2.425957 1_544
Al0 Cu6 2.425957 1_455
Al0 Cu0 2.425958 1_445
Al0 Cu4 2.425958 1_554
Al0 Cu7 2.425964 1_555
Al0 Cu3 2.425964 1_444
Ga0 Hf4 2.989744 1_455
Ga0 Hf5 2.989744 1_545
Ga0 Hf1 2.989744 1_545
Ga0 Hf2 2.989744 1_455
Ga1 Hf2 2.989744 1_555
Ga1 Hf5 2.989744 1_545
Ga1 Hf3 2.989744 1_555
Ga1 Hf0 2.989744 1_545
Ga2 Hf1 2.989744 1_555
Ga2 Hf4 2.989744 1_455
Ga2 Hf3 2.989744 1_555
Ga2 Hf0 2.989744 1_455
Ga3 Hf2 2.989745 1_555
Ga3 Hf1 2.989745 1_555
Ga3 Hf4 2.989745 1_554
Ga3 Hf5 2.989745 1_554
Ga4 Hf5 2.989744 1_554
Ga4 Hf2 2.989744 1_455
Ga4 Hf0 2.989744 1_455
Ga4 Hf3 2.989744 1_554
Ga5 Hf4 2.989744 1_554
Ga5 Hf1 2.989744 1_545
Ga5 Hf0 2.989744 1_545
Ga5 Hf3 2.989744 1_554
Cu0 Ga2 2.588170 1_655
Cu0 Ga1 2.588170 1_565
Cu0 Ga0 2.588177 1_665
Cu0 Cu10 2.620758 1_555
Cu0 Cu9 2.620758 1_555
Cu0 Cu11 2.620762 1_555
Cu0 Cu6 2.801251 1_565
Cu0 Cu5 2.801251 1_655
Cu0 Cu7 2.801262 1_665
Cu0 Hf0 2.875335 1_555
Cu0 Hf2 2.875342 1_565
Cu0 Hf1 2.875342 1_655
Cu1 Ga3 2.588170 1_556
Cu1 Ga2 2.588171 1_655
Cu1 Ga4 2.588177 1_656
Cu1 Cu8 2.620757 1_555
Cu1 Cu10 2.620757 1_555
Cu1 Cu11 2.620761 1_555
Cu1 Cu6 2.801250 1_556
Cu1 Cu4 2.801251 1_655
Cu1 Cu7 2.801262 1_656
Cu1 Hf4 2.875335 1_555
Cu1 Hf3 2.875342 1_655
Cu1 Hf2 2.875343 1_556
Cu2 Ga3 2.588170 1_556
Cu2 Ga1 2.588171 1_565
Cu2 Ga5 2.588177 1_566
Cu2 Cu8 2.620757 1_555
Cu2 Cu9 2.620757 1_555
Cu2 Cu5 2.801250 1_556
Cu2 Cu4 2.801251 1_565
Cu2 Cu7 2.801262 1_566
Cu2 Hf5 2.875335 1_555
Cu2 Hf3 2.875342 1_565
Cu2 Hf1 2.875343 1_556
Cu3 Ga4 2.588169 1_656
Cu3 Ga5 2.588170 1_566
Cu3 Ga0 2.588170 1_665
Cu3 Cu8 2.620764 1_555
Cu3 Cu9 2.620764 1_555
Cu3 Cu4 2.801262 1_665
Cu3 Cu6 2.801262 1_566
Cu3 Cu5 2.801262 1_656
Cu3 Hf4 2.875341 1_565
Cu3 Hf5 2.875341 1_655
Cu3 Hf0 2.875342 1_556
Cu4 Ga2 2.588170 1_555
Cu4 Ga1 2.588170 1_555
Cu4 Ga0 2.588177 1_555
Cu4 Hf3 2.875335 1_555
Cu4 Hf5 2.875342 1_545
Cu4 Hf4 2.875342 1_455
Cu5 Ga3 2.588170 1_555
Cu5 Ga2 2.588171 1_555
Cu5 Ga4 2.588177 1_555
Cu5 Hf1 2.875335 1_555
Cu5 Hf0 2.875342 1_455
Cu5 Hf5 2.875343 1_554
Cu6 Ga3 2.588170 1_555
Cu6 Ga1 2.588171 1_555
Cu6 Ga5 2.588177 1_555
Cu6 Hf2 2.875335 1_555
Cu6 Hf0 2.875342 1_545
Cu6 Hf4 2.875343 1_554
Cu7 Ga4 2.588169 1_555
Cu7 Ga5 2.588170 1_555
Cu7 Ga0 2.588170 1_555
Cu7 Hf1 2.875341 1_545
Cu7 Hf2 2.875341 1_455
Cu7 Hf3 2.875342 1_554
Cu8 Ga3 2.401053 1_556
Cu8 Ga5 2.401067 1_566
Cu8 Ga4 2.401067 1_656
Cu8 Cu9 2.664824 1_555
Cu8 Hf2 2.852556 1_556
Cu8 Hf1 2.852556 1_556
Cu8 Hf0 2.852566 1_556
Cu9 Ga1 2.401053 1_565
Cu9 Ga0 2.401067 1_665
Cu9 Ga5 2.401068 1_566
Cu9 Hf3 2.852555 1_565
Cu9 Hf2 2.852556 1_565
Cu9 Hf4 2.852565 1_565
Cu10 Ga2 2.401053 1_655
Cu10 Ga0 2.401067 1_665
Cu10 Ga4 2.401068 1_656
Cu10 Cu3 2.620764 1_555
Cu10 Cu9 2.664824 1_555
Cu10 Cu11 2.664824 1_555
Cu10 Cu8 2.664824 1_555
Cu10 Hf3 2.852555 1_655
Cu10 Hf1 2.852556 1_655
Cu10 Hf5 2.852566 1_655
Cu11 Ga1 2.401062 1_565
Cu11 Ga2 2.401062 1_655
Cu11 Ga3 2.401063 1_556
Cu11 Cu2 2.620761 1_555
Cu11 Cu9 2.664824 1_555
Cu11 Cu8 2.664824 1_555
Cu11 Hf4 2.852549 1_555
Cu11 Hf5 2.852549 1_555
Cu11 Hf0 2.852550 1_555
Cu12 Ga3 2.401053 1_555
Cu12 Ga5 2.401067 1_555
Cu12 Ga4 2.401067 1_555
Cu12 Cu5 2.620757 1_555
Cu12 Cu6 2.620757 1_555
Cu12 Cu7 2.620764 1_555
Cu12 Cu13 2.664824 1_555
Cu12 Cu14 2.664824 1_555
Cu12 Cu15 2.664824 1_555
Cu12 Hf5 2.852556 1_554
Cu12 Hf4 2.852556 1_554
Cu12 Hf3 2.852566 1_554
Cu13 Ga1 2.401053 1_555
Cu13 Ga0 2.401067 1_555
Cu13 Ga5 2.401068 1_555
Cu13 Cu6 2.620757 1_555
Cu13 Cu4 2.620758 1_555
Cu13 Cu7 2.620764 1_555
Cu13 Cu14 2.664824 1_555
Cu13 Cu15 2.664824 1_555
Cu13 Hf0 2.852555 1_545
Cu13 Hf5 2.852556 1_545
Cu13 Hf1 2.852565 1_545
Cu14 Ga2 2.401053 1_555
Cu14 Ga0 2.401067 1_555
Cu14 Ga4 2.401068 1_555
Cu14 Cu5 2.620757 1_555
Cu14 Cu4 2.620758 1_555
Cu14 Cu7 2.620764 1_555
Cu14 Cu15 2.664824 1_555
Cu14 Hf0 2.852555 1_455
Cu14 Hf4 2.852556 1_455
Cu14 Hf2 2.852566 1_455
Cu15 Ga1 2.401062 1_555
Cu15 Ga2 2.401062 1_555
Cu15 Ga3 2.401063 1_555
Cu15 Cu5 2.620761 1_555
Cu15 Cu6 2.620761 1_555
Cu15 Cu4 2.620762 1_555
Cu15 Hf1 2.852549 1_555
Cu15 Hf2 2.852549 1_555
Cu15 Hf3 2.852550 1_555
