# generated using pymatgen
data_La(SiIr)2
_symmetry_space_group_name_H-M   'P 1'
_cell_length_a   4.12985563
_cell_length_b   4.12986219
_cell_length_c   5.94025786
_cell_angle_alpha   110.33587988
_cell_angle_beta   110.33575736
_cell_angle_gamma   89.98098207
_symmetry_Int_Tables_number   1
_chemical_formula_structural   La(SiIr)2
_chemical_formula_sum   'La1 Si2 Ir2'
_cell_volume   88.23972483
_cell_formula_units_Z   1
loop_
 _symmetry_equiv_pos_site_id
 _symmetry_equiv_pos_as_xyz
  1  'x, y, z'
loop_
 _atom_site_type_symbol
 _atom_site_label
 _atom_site_symmetry_multiplicity
 _atom_site_fract_x
 _atom_site_fract_y
 _atom_site_fract_z
 _atom_site_occupancy
  La  La0  1  -0.00000000  -0.00000000  0.00000000  1
  Si  Si0  1  0.62902128  0.62902258  0.25807065  1
  Si  Si1  1  0.37097772  0.37097842  0.74192935  1
  Ir  Ir0  1  0.75003934  0.24996085  0.50000139  1
  Ir  Ir1  1  0.24996166  0.75003715  0.49999861  1
loop_
_geom_bond_atom_site_label_1
_geom_bond_atom_site_label_2
_geom_bond_distance
_geom_bond_site_symmetry_2
La0 Si1 3.210554 1_544
La0 Si0 3.210556 1_545
La0 Si0 3.210560 1_455
La0 Si1 3.210561 1_454
La0 Si0 3.211097 1_445
La0 Si1 3.211097 1_554
La0 Si1 3.211781 1_444
La0 Si0 3.211781 1_555
Si0 Si1 2.670314 1_554
Ir0 Si1 2.414481 1_555
Ir0 Si0 2.414499 1_555
Ir0 Si1 2.414818 1_655
Ir0 Si0 2.414821 1_545
Ir0 La0 3.309414 1_656
Ir0 La0 3.309424 1_655
Ir0 La0 3.310394 1_666
Ir0 La0 3.310403 1_555
Ir1 Si0 2.414474 1_555
Ir1 Si1 2.414488 1_555
Ir1 Si0 2.414825 1_455
Ir1 Si1 2.414831 1_565
Ir1 La0 3.309420 1_565
Ir1 La0 3.309427 1_566
Ir1 La0 3.310389 1_555
Ir1 La0 3.310400 1_666
