# generated using pymatgen
data_Ca7TaAs2N9
_symmetry_space_group_name_H-M   'P 1'
_cell_length_a   5.92166136
_cell_length_b   10.13045337
_cell_length_c   9.15336196
_cell_angle_alpha   90.00000000
_cell_angle_beta   88.32881909
_cell_angle_gamma   90.00000000
_symmetry_Int_Tables_number   1
_chemical_formula_structural   Ca7TaAs2N9
_chemical_formula_sum   'Ca14 Ta2 As4 N18'
_cell_volume   548.86851914
_cell_formula_units_Z   2
loop_
 _symmetry_equiv_pos_site_id
 _symmetry_equiv_pos_as_xyz
  1  'x, y, z'
loop_
 _atom_site_type_symbol
 _atom_site_label
 _atom_site_symmetry_multiplicity
 _atom_site_fract_x
 _atom_site_fract_y
 _atom_site_fract_z
 _atom_site_occupancy
  Ca  Ca0  1  0.07812564  0.41019646  0.16968093  1
  Ca  Ca1  1  0.92187436  0.91019546  0.83031907  1
  Ca  Ca2  1  0.92187436  0.58980454  0.83031907  1
  Ca  Ca3  1  0.07812564  0.08980454  0.16968093  1
  Ca  Ca4  1  0.23911659  0.92286566  0.48694067  1
  Ca  Ca5  1  0.76088341  0.42286566  0.51305933  1
  Ca  Ca6  1  0.76088341  0.07713434  0.51305933  1
  Ca  Ca7  1  0.23911659  0.57713434  0.48694067  1
  Ca  Ca8  1  0.58391879  0.93535050  0.17880139  1
  Ca  Ca9  1  0.41608121  0.43535050  0.82119861  1
  Ca  Ca10  1  0.41608121  0.06464950  0.82119861  1
  Ca  Ca11  1  0.58391879  0.56464950  0.17880139  1
  Ca  Ca12  1  0.94267146  0.25000000  0.82404035  1
  Ca  Ca13  1  0.05732854  0.75000000  0.17595965  1
  Ta  Ta0  1  0.27192156  0.25000000  0.55333321  1
  Ta  Ta1  1  0.72807844  0.75000000  0.44666679  1
  As  As0  1  0.56617035  0.25000000  0.29182051  1
  As  As1  1  0.43382965  0.75000000  0.70817949  1
  As  As2  1  0.58115910  0.25000000  0.03675516  1
  As  As3  1  0.41884090  0.75000000  0.96324484  1
  N  N0  1  0.11022977  0.39943671  0.65002577  1
  N  N1  1  0.88977023  0.89943671  0.34997423  1
  N  N2  1  0.88977023  0.60056329  0.34997423  1
  N  N3  1  0.11022977  0.10056329  0.65002577  1
  N  N4  1  0.26078459  0.90081907  0.01281661  1
  N  N5  1  0.73921541  0.40081907  0.98718339  1
  N  N6  1  0.73921541  0.09918093  0.98718339  1
  N  N7  1  0.26078459  0.59918093  0.01281661  1
  N  N8  1  0.40062715  0.38968761  0.35792774  1
  N  N9  1  0.59937285  0.88968761  0.64207226  1
  N  N10  1  0.59937285  0.61031239  0.64207226  1
  N  N11  1  0.40062715  0.11031239  0.35792774  1
  N  N12  1  0.28375219  0.25000000  0.99070770  1
  N  N13  1  0.71624781  0.75000000  0.00929230  1
  N  N14  1  0.54618438  0.25000000  0.65697407  1
  N  N15  1  0.45381562  0.75000000  0.34302593  1
  N  N16  1  0.86265860  0.25000000  0.33071199  1
  N  N17  1  0.13734140  0.75000000  0.66928801  1
loop_
_geom_bond_atom_site_label_1
_geom_bond_atom_site_label_2
_geom_bond_distance
_geom_bond_site_symmetry_2
Ca0 N16 2.514870 1_455
Ca0 N12 2.585291 1_554
Ca0 N7 2.608888 1_555
Ca0 N8 2.617493 1_555
Ca0 N5 2.650041 1_454
Ca0 N2 2.753049 1_455
Ca1 N17 2.514864 1_655
Ca1 N13 2.585285 1_556
Ca1 N6 2.608896 1_565
Ca1 N9 2.617492 1_555
Ca1 N4 2.650040 1_656
Ca1 N3 2.753057 1_665
Ca2 N17 2.514864 1_655
Ca2 N13 2.585285 1_556
Ca2 N5 2.608896 1_555
Ca2 N10 2.617492 1_555
Ca2 N7 2.650040 1_656
Ca2 N0 2.753057 1_655
Ca3 N16 2.514864 1_455
Ca3 N12 2.585285 1_554
Ca3 N4 2.608896 1_545
Ca3 N11 2.617492 1_555
Ca3 N6 2.650040 1_454
Ca3 N1 2.753057 1_445
Ca4 N11 2.418527 1_565
Ca4 N3 2.446428 1_565
Ca4 N1 2.461492 1_455
Ca4 N17 2.481359 1_555
Ca4 N15 2.514105 1_555
Ca4 N9 2.618592 1_555
Ca5 N10 2.418527 1_555
Ca5 N2 2.446428 1_555
Ca5 N0 2.461492 1_655
Ca5 N16 2.481359 1_555
Ca5 N14 2.514105 1_555
Ca5 N8 2.618592 1_555
Ca6 N9 2.418527 1_545
Ca6 N1 2.446428 1_545
Ca6 N3 2.461492 1_655
Ca6 N16 2.481359 1_555
Ca6 N14 2.514105 1_555
Ca6 N11 2.618592 1_555
Ca7 N8 2.418527 1_555
Ca7 N0 2.446428 1_555
Ca7 N2 2.461492 1_455
Ca7 N17 2.481359 1_555
Ca7 N15 2.514105 1_555
Ca7 N10 2.618592 1_555
Ca8 N1 2.456222 1_555
Ca8 N4 2.502343 1_555
Ca8 N15 2.512238 1_555
Ca8 N13 2.544842 1_555
Ca8 N6 2.565633 1_564
Ca8 N11 2.627574 1_565
Ca9 N0 2.456222 1_555
Ca9 N5 2.502343 1_555
Ca9 N14 2.512238 1_555
Ca9 N12 2.544842 1_555
Ca9 N7 2.565633 1_556
Ca9 N10 2.627574 1_555
Ca10 N3 2.456222 1_555
Ca10 N6 2.502343 1_555
Ca10 N14 2.512238 1_555
Ca10 N12 2.544842 1_555
Ca10 N4 2.565633 1_546
Ca10 N9 2.627574 1_545
Ca11 N2 2.456222 1_555
Ca11 N7 2.502343 1_555
Ca11 N15 2.512238 1_555
Ca11 N13 2.544842 1_555
Ca11 N5 2.565633 1_554
Ca11 N8 2.627574 1_555
Ca12 N3 2.391897 1_655
Ca12 N0 2.391897 1_655
Ca12 N5 2.431242 1_555
Ca12 N6 2.431242 1_555
Ca12 N12 2.566422 1_655
Ca12 N14 2.839081 1_555
Ca13 N2 2.391897 1_455
Ca13 N1 2.391897 1_455
Ca13 N4 2.431242 1_555
Ca13 N7 2.431242 1_555
Ca13 N13 2.566422 1_455
Ca13 N15 2.839081 1_555
As0 N16 1.801576 1_555
As0 N8 1.815221 1_555
As0 N11 1.815221 1_555
As1 N17 1.801576 1_555
As1 N9 1.815221 1_555
As1 N10 1.815221 1_555
As2 N12 1.822793 1_554
As2 N5 1.841604 1_554
As2 N6 1.841604 1_554
As3 N13 1.822793 1_556
As3 N4 1.841604 1_556
As3 N7 1.841604 1_556
N0 Ta0 1.985563 1_555
N1 Ta1 1.985563 1_555
N2 Ta1 1.985563 1_555
N3 Ta0 1.985563 1_555
N8 Ta0 2.388099 1_555
N9 Ta1 2.388099 1_555
N10 Ta1 2.388099 1_555
N11 Ta0 2.388099 1_555
N14 Ta0 1.904599 1_555
N15 Ta1 1.904599 1_555
