# generated using pymatgen
data_Cs6YTe4Cl
_symmetry_space_group_name_H-M   'P 1'
_cell_length_a   12.33712096
_cell_length_b   12.33712137
_cell_length_c   8.99579516
_cell_angle_alpha   90.00000000
_cell_angle_beta   90.00000000
_cell_angle_gamma   120.00000411
_symmetry_Int_Tables_number   1
_chemical_formula_structural   Cs6YTe4Cl
_chemical_formula_sum   'Cs12 Y2 Te8 Cl2'
_cell_volume   1185.76282810
_cell_formula_units_Z   2
loop_
 _symmetry_equiv_pos_site_id
 _symmetry_equiv_pos_as_xyz
  1  'x, y, z'
loop_
 _atom_site_type_symbol
 _atom_site_label
 _atom_site_symmetry_multiplicity
 _atom_site_fract_x
 _atom_site_fract_y
 _atom_site_fract_z
 _atom_site_occupancy
  Cs  Cs0  1  0.12458057  0.87541943  0.51127522  1
  Cs  Cs1  1  0.75083887  0.87541943  0.51127522  1
  Cs  Cs2  1  0.94554739  0.47277420  0.31716803  1
  Cs  Cs3  1  0.52722580  0.47277420  0.31716803  1
  Cs  Cs4  1  0.87541943  0.75083887  0.01127522  1
  Cs  Cs5  1  0.24916113  0.12458057  0.01127522  1
  Cs  Cs6  1  0.52722580  0.05445261  0.31716803  1
  Cs  Cs7  1  0.12458057  0.24916113  0.51127522  1
  Cs  Cs8  1  0.87541943  0.12458057  0.01127522  1
  Cs  Cs9  1  0.05445261  0.52722580  0.81716803  1
  Cs  Cs10  1  0.47277420  0.94554739  0.81716803  1
  Cs  Cs11  1  0.47277420  0.52722580  0.81716803  1
  Y  Y0  1  0.66666700  0.33333300  0.71577949  1
  Y  Y1  1  0.33333300  0.66666700  0.21577949  1
  Te  Te0  1  0.40655931  0.20327966  0.60975705  1
  Te  Te1  1  0.59344069  0.79672034  0.10975705  1
  Te  Te2  1  0.66666700  0.33333300  0.04147539  1
  Te  Te3  1  0.79672034  0.59344069  0.60975705  1
  Te  Te4  1  0.20327966  0.40655931  0.10975705  1
  Te  Te5  1  0.33333300  0.66666700  0.54147539  1
  Te  Te6  1  0.20327966  0.79672034  0.10975705  1
  Te  Te7  1  0.79672034  0.20327966  0.60975705  1
  Cl  Cl0  1  0.00000000  0.00000000  0.26874422  1
  Cl  Cl1  1  0.00000000  0.00000000  0.76874422  1
loop_
_geom_bond_atom_site_label_1
_geom_bond_atom_site_label_2
_geom_bond_distance
_geom_bond_site_symmetry_2
Cs0 Te3 3.895705 1_455
Cs0 Te0 3.895705 1_565
Cs0 Te6 3.984272 1_555
Cs1 Te7 3.895705 1_565
Cs1 Te3 3.895705 1_555
Cs1 Te1 3.984272 1_555
Cs2 Te2 3.876721 1_555
Cs2 Te3 3.904941 1_555
Cs2 Te7 3.904949 1_555
Cs2 Te6 4.105653 1_655
Cs2 Te4 4.105660 1_655
Cs3 Te2 3.876738 1_555
Cs3 Te3 3.904949 1_555
Cs3 Te0 3.904949 1_555
Cs3 Te4 4.105649 1_555
Cs3 Te1 4.105649 1_555
Cs4 Te6 3.895705 1_655
Cs4 Te1 3.895705 1_555
Cs4 Te3 3.984272 1_554
Cs5 Te6 3.895705 1_545
Cs5 Te4 3.895705 1_555
Cs5 Te0 3.984272 1_554
Cs6 Te2 3.876721 1_555
Cs6 Te0 3.904941 1_555
Cs6 Te7 3.904949 1_555
Cs6 Te6 4.105653 1_545
Cs6 Te1 4.105660 1_545
Cs7 Te7 3.895705 1_455
Cs7 Te0 3.895705 1_555
Cs7 Te4 3.984272 1_555
Cs8 Te4 3.895705 1_655
Cs8 Te1 3.895705 1_545
Cs8 Te7 3.984272 1_554
Cs9 Te5 3.876721 1_555
Cs9 Te4 3.904941 1_556
Cs9 Te6 3.904949 1_556
Cs9 Te7 4.105653 1_455
Cs9 Te3 4.105660 1_455
Cs10 Te5 3.876721 1_555
Cs10 Te1 3.904941 1_556
Cs10 Te6 3.904949 1_556
Cs10 Te7 4.105653 1_565
Cs10 Te0 4.105660 1_565
Cs11 Te5 3.876738 1_555
Cs11 Te4 3.904949 1_556
Cs11 Te1 3.904949 1_556
Cs11 Te3 4.105649 1_555
Cs11 Te0 4.105649 1_555
Te0 Y0 2.938165 1_555
Te1 Y1 2.938165 1_555
Te2 Y0 2.929894 1_554
Te3 Y0 2.938165 1_555
Te4 Y1 2.938165 1_555
Te5 Y1 2.929894 1_555
Te6 Y1 2.938155 1_555
Te7 Y0 2.938155 1_555
Cl0 Cs1 3.441927 1_445
Cl0 Cs7 3.441927 1_555
Cl0 Cs0 3.441927 1_545
Cl0 Cs5 3.528638 1_555
Cl0 Cs4 3.528638 1_445
Cl0 Cs8 3.528638 1_455
Cl1 Cs5 3.441927 1_556
Cl1 Cs4 3.441927 1_446
Cl1 Cs8 3.441927 1_456
Cl1 Cs1 3.528638 1_445
Cl1 Cs7 3.528638 1_555
Cl1 Cs0 3.528638 1_545
