# generated using pymatgen
data_CrGa12FeIr2
_symmetry_space_group_name_H-M   'P 1'
_cell_length_a   6.36642805
_cell_length_b   6.36730852
_cell_length_c   6.68592556
_cell_angle_alpha   90.00000000
_cell_angle_beta   90.00000000
_cell_angle_gamma   89.81946266
_symmetry_Int_Tables_number   1
_chemical_formula_structural   CrGa12FeIr2
_chemical_formula_sum   'Cr1 Ga12 Fe1 Ir2'
_cell_volume   271.02609660
_cell_formula_units_Z   1
loop_
 _symmetry_equiv_pos_site_id
 _symmetry_equiv_pos_as_xyz
  1  'x, y, z'
loop_
 _atom_site_type_symbol
 _atom_site_label
 _atom_site_symmetry_multiplicity
 _atom_site_fract_x
 _atom_site_fract_y
 _atom_site_fract_z
 _atom_site_occupancy
  Cr  Cr0  1  0.15812673  0.84743223  0.50000000  1
  Ga  Ga0  1  0.00854157  0.51011581  0.50000000  1
  Ga  Ga1  1  0.48880831  0.00871740  0.00000000  1
  Ga  Ga2  1  0.49688962  0.98540321  0.50000000  1
  Ga  Ga3  1  0.00647286  0.48395010  0.00000000  1
  Ga  Ga4  1  0.33473962  0.65220030  0.23809248  1
  Ga  Ga5  1  0.63868002  0.34508629  0.23264032  1
  Ga  Ga6  1  0.17028289  0.15460235  0.73596172  1
  Ga  Ga7  1  0.85906358  0.84102344  0.73303762  1
  Ga  Ga8  1  0.63868002  0.34508629  0.76735968  1
  Ga  Ga9  1  0.33473962  0.65220030  0.76190752  1
  Ga  Ga10  1  0.85906358  0.84102344  0.26696238  1
  Ga  Ga11  1  0.17028289  0.15460235  0.26403828  1
  Fe  Fe0  1  0.34160700  0.34521992  0.00000000  1
  Ir  Ir0  1  0.83499304  0.16987121  0.50000000  1
  Ir  Ir1  1  0.65902763  0.66346735  0.00000000  1
loop_
_geom_bond_atom_site_label_1
_geom_bond_atom_site_label_2
_geom_bond_distance
_geom_bond_site_symmetry_2
Cr0 Ga2 2.331331 1_555
Cr0 Ga0 2.352200 1_555
Cr0 Ga9 2.422207 1_555
Cr0 Ga4 2.422207 1_555
Cr0 Ga7 2.460655 1_455
Cr0 Ga10 2.460655 1_455
Cr0 Ga6 2.514194 1_565
Cr0 Ga11 2.514194 1_565
Ga0 Ir0 2.435021 1_455
Ga0 Ga7 2.785675 1_455
Ga0 Ga10 2.785675 1_455
Ga0 Ga9 2.865204 1_555
Ga0 Ga4 2.865204 1_555
Ga0 Ga6 2.942565 1_555
Ga0 Ga11 2.942565 1_555
Ga1 Ir1 2.447846 1_545
Ga1 Ga11 2.842473 1_555
Ga1 Ga6 2.842473 1_554
Ga1 Ga4 2.943353 1_545
Ga1 Ga9 2.943353 1_544
Ga2 Ir0 2.455369 1_565
Ga2 Ga6 2.821171 1_565
Ga2 Ga7 2.928458 1_555
Ga2 Ga9 2.940582 1_555
Ga2 Ga4 2.940582 1_555
Ga2 Ga8 3.044387 1_565
Ga2 Ga5 3.044387 1_565
Ga3 Ir1 2.486662 1_455
Ga3 Ga4 2.839624 1_555
Ga3 Ga9 2.839624 1_554
Ga3 Ga6 2.930513 1_554
Ga3 Ga5 2.949051 1_455
Ga3 Ga8 2.949051 1_454
Ga3 Ga7 3.036833 1_454
Ga4 Ir1 2.608164 1_555
Ga4 Ga5 2.746945 1_555
Ga5 Ir0 2.448110 1_555
Ga5 Ir1 2.558792 1_555
Ga6 Ir0 2.655852 1_455
Ga6 Ga7 2.817394 1_445
Ga7 Ir1 2.468785 1_556
Ga7 Ir0 2.614070 1_565
Ga8 Ir0 2.448110 1_555
Ga8 Ir1 2.558792 1_556
Ga8 Ga9 2.746945 1_555
Ga9 Ir1 2.608164 1_556
Ga10 Ir1 2.468785 1_555
Ga10 Ir0 2.614070 1_565
Ga10 Ga11 2.817394 1_665
Ga10 Ga2 2.928458 1_555
Ga10 Ga3 3.036833 1_655
Ga11 Ir0 2.655852 1_455
Ga11 Ga2 2.821171 1_545
Ga11 Ga3 2.930513 1_555
Fe0 Ga3 2.306662 1_555
Fe0 Ga1 2.335892 1_555
Fe0 Ga11 2.405735 1_555
Fe0 Ga6 2.405735 1_554
Fe0 Ga5 2.448735 1_555
Fe0 Ga8 2.448735 1_554
Fe0 Ga4 2.521117 1_555
Fe0 Ga9 2.521117 1_554
