# generated using pymatgen
data_PdSCl
_symmetry_space_group_name_H-M   'P 1'
_cell_length_a   7.80341346
_cell_length_b   9.39682600
_cell_length_c   11.99312538
_cell_angle_alpha   90.00000000
_cell_angle_beta   90.00000000
_cell_angle_gamma   109.95370230
_symmetry_Int_Tables_number   1
_chemical_formula_structural   PdSCl
_chemical_formula_sum   'Pd12 S12 Cl12'
_cell_volume   826.63075948
_cell_formula_units_Z   12
loop_
 _symmetry_equiv_pos_site_id
 _symmetry_equiv_pos_as_xyz
  1  'x, y, z'
loop_
 _atom_site_type_symbol
 _atom_site_label
 _atom_site_symmetry_multiplicity
 _atom_site_fract_x
 _atom_site_fract_y
 _atom_site_fract_z
 _atom_site_occupancy
  Pd  Pd0  1  0.88839287  0.89803337  0.37131473  1
  Pd  Pd1  1  0.11160713  0.10196663  0.87131473  1
  Pd  Pd2  1  0.11160713  0.10196663  0.62868527  1
  Pd  Pd3  1  0.88839287  0.89803337  0.12868527  1
  Pd  Pd4  1  0.58967396  0.55723168  0.37272167  1
  Pd  Pd5  1  0.41032604  0.44276832  0.87272167  1
  Pd  Pd6  1  0.41032604  0.44276832  0.62727833  1
  Pd  Pd7  1  0.58967396  0.55723168  0.12727833  1
  Pd  Pd8  1  0.14363555  0.79007393  0.25000000  1
  Pd  Pd9  1  0.85636445  0.20992607  0.75000000  1
  Pd  Pd10  1  0.84312796  0.44888947  0.25000000  1
  Pd  Pd11  1  0.15687204  0.55111053  0.75000000  1
  S  S0  1  0.03662164  0.60063706  0.12292473  1
  S  S1  1  0.14744066  0.31958841  0.53292377  1
  S  S2  1  0.85255934  0.68041159  0.03292377  1
  S  S3  1  0.96337836  0.39936294  0.62292473  1
  S  S4  1  0.85255934  0.68041159  0.46707623  1
  S  S5  1  0.03662164  0.60063706  0.37707527  1
  S  S6  1  0.96337836  0.39936294  0.87707527  1
  S  S7  1  0.58320335  0.79447979  0.33853993  1
  S  S8  1  0.41679665  0.20552021  0.83853993  1
  S  S9  1  0.41679665  0.20552021  0.66146007  1
  S  S10  1  0.58320335  0.79447979  0.16146007  1
  S  S11  1  0.14744066  0.31958841  0.96707623  1
  Cl  Cl0  1  0.63810286  0.32051705  0.39524178  1
  Cl  Cl1  1  0.63810286  0.32051705  0.10475822  1
  Cl  Cl2  1  0.36189714  0.67948295  0.60475822  1
  Cl  Cl3  1  0.33531108  0.45018597  0.25000000  1
  Cl  Cl4  1  0.66468892  0.54981403  0.75000000  1
  Cl  Cl5  1  0.78720519  0.02491917  0.89529076  1
  Cl  Cl6  1  0.09456512  0.89496131  0.75000000  1
  Cl  Cl7  1  0.21279481  0.97508083  0.10470924  1
  Cl  Cl8  1  0.78720519  0.02491917  0.60470924  1
  Cl  Cl9  1  0.90543488  0.10503869  0.25000000  1
  Cl  Cl10  1  0.36189714  0.67948295  0.89524178  1
  Cl  Cl11  1  0.21279481  0.97508083  0.39529076  1
loop_
_geom_bond_atom_site_label_1
_geom_bond_atom_site_label_2
_geom_bond_distance
_geom_bond_site_symmetry_2
Pd0 S4 2.277884 1_555
Pd0 S7 2.278452 1_555
Pd1 S11 2.277884 1_555
Pd1 S8 2.278452 1_555
Pd2 S1 2.277884 1_555
Pd2 S9 2.278452 1_555
Pd3 S2 2.277884 1_555
Pd3 S10 2.278452 1_555
Pd4 S4 2.282093 1_555
Pd4 S7 2.284199 1_555
Pd5 S11 2.282093 1_555
Pd5 S8 2.284199 1_555
Pd6 S1 2.282093 1_555
Pd6 S9 2.284199 1_555
Pd7 S2 2.282093 1_555
Pd7 S10 2.284199 1_555
Pd8 S0 2.274689 1_555
Pd8 S5 2.274689 1_555
Pd9 S3 2.274689 1_555
Pd9 S6 2.274689 1_555
Pd10 S0 2.272953 1_655
Pd10 S5 2.272953 1_655
Pd11 S3 2.272953 1_455
Pd11 S6 2.272953 1_455
S0 S2 2.127181 1_455
S1 S3 2.127181 1_455
S4 S5 2.127181 1_655
S8 S9 2.123741 1_555
S10 S7 2.123741 1_555
S11 S6 2.127181 1_455
Cl0 Pd10 2.394119 1_555
Cl0 Pd4 2.395267 1_555
Cl1 Pd10 2.394119 1_555
Cl1 Pd7 2.395267 1_555
Cl2 Pd11 2.394119 1_555
Cl2 Pd6 2.395267 1_555
Cl3 Pd7 2.398993 1_555
Cl3 Pd4 2.398993 1_555
Cl4 Pd5 2.398993 1_555
Cl4 Pd6 2.398993 1_555
Cl5 Pd9 2.389451 1_555
Cl5 Pd1 2.400866 1_655
Cl6 Pd2 2.396198 1_565
Cl6 Pd1 2.396198 1_565
Cl7 Pd8 2.389451 1_555
Cl7 Pd3 2.400866 1_455
Cl8 Pd9 2.389451 1_555
Cl8 Pd2 2.400866 1_655
Cl9 Pd0 2.396198 1_545
Cl9 Pd3 2.396198 1_545
Cl10 Pd11 2.394119 1_555
Cl10 Pd5 2.395267 1_555
Cl11 Pd8 2.389451 1_555
Cl11 Pd0 2.400866 1_455
