# generated using pymatgen
data_LiMg3P6Ir7
_symmetry_space_group_name_H-M   'P 1'
_cell_length_a   6.82363980
_cell_length_b   6.80199737
_cell_length_c   6.80199745
_cell_angle_alpha   109.40666849
_cell_angle_beta   109.53569669
_cell_angle_gamma   109.53569188
_symmetry_Int_Tables_number   1
_chemical_formula_structural   LiMg3P6Ir7
_chemical_formula_sum   'Li1 Mg3 P6 Ir7'
_cell_volume   242.84040741
_cell_formula_units_Z   1
loop_
 _symmetry_equiv_pos_site_id
 _symmetry_equiv_pos_as_xyz
  1  'x, y, z'
loop_
 _atom_site_type_symbol
 _atom_site_label
 _atom_site_symmetry_multiplicity
 _atom_site_fract_x
 _atom_site_fract_y
 _atom_site_fract_z
 _atom_site_occupancy
  Li  Li0  1  0.50000000  0.00000000  0.00000000  1
  Mg  Mg0  1  0.00000000  0.00000000  0.50000000  1
  Mg  Mg1  1  0.00000000  0.50000000  0.00000000  1
  Mg  Mg2  1  0.50000000  0.50000000  0.50000000  1
  P  P0  1  0.67842667  0.68586073  1.00000000  1
  P  P1  1  0.32157333  0.31413927  0.00000000  1
  P  P2  1  0.00743406  0.68586073  0.68586073  1
  P  P3  1  0.99256594  0.31413927  0.31413927  1
  P  P4  1  0.67842667  1.00000000  0.68586073  1
  P  P5  1  0.32157333  0.00000000  0.31413927  1
  Ir  Ir0  1  0.00000000  0.00000000  0.00000000  1
  Ir  Ir1  1  0.24936192  0.49872384  0.74936192  1
  Ir  Ir2  1  0.75063808  0.25063808  0.50127616  1
  Ir  Ir3  1  0.50000000  0.25063808  0.74936192  1
  Ir  Ir4  1  0.50000000  0.74936192  0.25063808  1
  Ir  Ir5  1  0.75063808  0.50127616  0.25063808  1
  Ir  Ir6  1  0.24936192  0.74936192  0.49872384  1
loop_
_geom_bond_atom_site_label_1
_geom_bond_atom_site_label_2
_geom_bond_distance
_geom_bond_site_symmetry_2
Li0 P3 2.790708 1_555
Li0 P2 2.790708 1_544
Li0 P1 2.790708 1_555
Li0 P0 2.790708 1_544
Li0 P5 2.790708 1_555
Li0 P4 2.790708 1_544
Mg0 P1 2.826908 1_556
Mg0 P0 2.826908 1_444
Mg0 P3 2.826908 1_455
Mg0 P2 2.826908 1_545
Mg0 P5 2.875499 1_555
Mg0 P4 2.875499 1_445
Mg1 P2 2.826908 1_554
Mg1 P3 2.826908 1_455
Mg1 P5 2.826908 1_565
Mg1 P4 2.826908 1_444
Mg1 P1 2.875499 1_555
Mg1 P0 2.875499 1_454
Mg2 P1 2.826909 1_555
Mg2 P0 2.826909 1_555
Mg2 P4 2.826909 1_555
Mg2 P5 2.826909 1_555
Mg2 P2 2.875499 1_655
Mg2 P3 2.875499 1_455
Ir0 P5 2.498999 1_555
Ir0 P4 2.498999 1_444
Ir0 P1 2.498999 1_555
Ir0 P0 2.498999 1_444
Ir0 P3 2.499000 1_455
Ir0 P2 2.499000 1_544
Ir1 P0 2.413698 1_555
Ir1 P2 2.413698 1_555
Ir1 P3 2.449501 1_455
Ir1 P1 2.449501 1_556
Ir1 Mg0 2.768713 1_555
Ir1 Mg2 2.782438 1_555
Ir1 Mg1 2.782438 1_556
Ir1 Li0 2.782882 1_566
Ir2 P5 2.413698 1_555
Ir2 P3 2.413698 1_555
Ir2 P4 2.449501 1_545
Ir2 P2 2.449501 1_655
Ir2 Mg1 2.768713 1_656
Ir2 Mg2 2.782438 1_555
Ir2 Mg0 2.782438 1_655
Ir2 Li0 2.782882 1_555
Ir3 P4 2.413698 1_545
Ir3 P1 2.413698 1_556
Ir3 P5 2.449501 1_555
Ir3 P0 2.449501 1_555
Ir3 Mg2 2.768713 1_555
Ir3 Mg1 2.782438 1_656
Ir3 Mg0 2.782438 1_555
Ir3 Li0 2.782882 1_556
Ir4 P5 2.413698 1_565
Ir4 P0 2.413698 1_554
Ir4 P4 2.449501 1_555
Ir4 P1 2.449501 1_555
Ir4 Mg2 2.768713 1_555
Ir4 Mg1 2.782438 1_555
Ir4 Mg0 2.782438 1_665
Ir4 Li0 2.782882 1_565
Ir5 P1 2.413698 1_555
Ir5 P3 2.413698 1_555
Ir5 P2 2.449501 1_655
Ir5 P0 2.449501 1_554
Ir5 Mg0 2.768713 1_665
Ir5 Mg2 2.782438 1_555
Ir5 Mg1 2.782438 1_655
Ir5 Li0 2.782882 1_555
Ir6 P4 2.413698 1_555
Ir6 P2 2.413698 1_555
Ir6 P5 2.449501 1_565
Ir6 P3 2.449501 1_455
Ir6 Mg1 2.768713 1_555
Ir6 Mg2 2.782438 1_555
Ir6 Mg0 2.782438 1_565
Ir6 Li0 2.782882 1_566
