# generated using pymatgen
data_NaLi6SbO6
_symmetry_space_group_name_H-M   'P 1'
_cell_length_a   5.27285670
_cell_length_b   5.27285688
_cell_length_c   5.27285603
_cell_angle_alpha   101.70080219
_cell_angle_beta   101.70080725
_cell_angle_gamma   101.70080226
_symmetry_Int_Tables_number   1
_chemical_formula_structural   NaLi6SbO6
_chemical_formula_sum   'Na1 Li6 Sb1 O6'
_cell_volume   135.94721129
_cell_formula_units_Z   1
loop_
 _symmetry_equiv_pos_site_id
 _symmetry_equiv_pos_as_xyz
  1  'x, y, z'
loop_
 _atom_site_type_symbol
 _atom_site_label
 _atom_site_symmetry_multiplicity
 _atom_site_fract_x
 _atom_site_fract_y
 _atom_site_fract_z
 _atom_site_occupancy
  Na  Na0  1  0.50000000  0.50000000  0.50000000  1
  Li  Li0  1  0.65615668  0.34384432  0.00000000  1
  Li  Li1  1  0.34384432  0.65615668  1.00000000  1
  Li  Li2  1  0.65615668  1.00000000  0.34384432  1
  Li  Li3  1  1.00000000  0.65615668  0.34384432  1
  Li  Li4  1  0.34384532  0.00000000  0.65615668  1
  Li  Li5  1  0.00000000  0.34384532  0.65615668  1
  Sb  Sb0  1  0.00000000  0.00000000  0.00000000  1
  O  O0  1  0.72446352  0.72446352  0.07857986  1
  O  O1  1  0.92142014  0.27553748  0.27553648  1
  O  O2  1  0.27553748  0.92142014  0.27553648  1
  O  O3  1  0.72446352  0.07858086  0.72446352  1
  O  O4  1  0.07858086  0.72446352  0.72446352  1
  O  O5  1  0.27553648  0.27553648  0.92142014  1
loop_
_geom_bond_atom_site_label_1
_geom_bond_atom_site_label_2
_geom_bond_distance
_geom_bond_site_symmetry_2
Na0 O1 2.934549 1_455
Na0 O2 2.934549 1_545
Na0 O0 2.934549 1_556
Na0 O5 2.934549 1_554
Na0 O4 2.934554 1_655
Na0 O3 2.934554 1_565
Li0 O0 1.907420 1_555
Li0 O5 1.907425 1_554
Li0 O1 1.946595 1_555
Li0 O3 1.946595 1_554
Li1 O0 1.907420 1_556
Li1 O5 1.907425 1_555
Li1 O4 1.946595 1_555
Li1 O2 1.946595 1_556
Li2 O3 1.907420 1_565
Li2 O2 1.907420 1_555
Li2 O0 1.946599 1_555
Li2 O1 1.946601 1_565
Li3 O4 1.907420 1_655
Li3 O1 1.907420 1_555
Li3 O0 1.946599 1_555
Li3 O2 1.946601 1_655
Li4 O3 1.907415 1_555
Li4 O2 1.907425 1_545
Li4 O4 1.946599 1_545
Li4 O5 1.946601 1_555
Li5 O4 1.907415 1_555
Li5 O1 1.907425 1_455
Li5 O3 1.946599 1_455
Li5 O5 1.946600 1_555
O0 Sb0 2.006361 1_665
O1 Sb0 2.006365 1_655
O2 Sb0 2.006364 1_565
O3 Sb0 2.006364 1_656
O4 Sb0 2.006364 1_566
O5 Sb0 2.006361 1_556
