# generated using pymatgen
data_Mg4Ge6Ir4Pt3
_symmetry_space_group_name_H-M   'P 1'
_cell_length_a   7.04085336
_cell_length_b   7.04601470
_cell_length_c   7.04085412
_cell_angle_alpha   109.48606268
_cell_angle_beta   109.45636640
_cell_angle_gamma   109.48607734
_symmetry_Int_Tables_number   1
_chemical_formula_structural   Mg4Ge6Ir4Pt3
_chemical_formula_sum   'Mg4 Ge6 Ir4 Pt3'
_cell_volume   268.83925414
_cell_formula_units_Z   1
loop_
 _symmetry_equiv_pos_site_id
 _symmetry_equiv_pos_as_xyz
  1  'x, y, z'
loop_
 _atom_site_type_symbol
 _atom_site_label
 _atom_site_symmetry_multiplicity
 _atom_site_fract_x
 _atom_site_fract_y
 _atom_site_fract_z
 _atom_site_occupancy
  Mg  Mg0  1  0.49983627  0.50000000  0.50016373  1
  Mg  Mg1  1  0.00000000  0.50000000  0.00000000  1
  Mg  Mg2  1  0.00032847  0.00016373  0.50016373  1
  Mg  Mg3  1  0.49983627  0.99983627  0.99967153  1
  Ge  Ge0  1  0.69602530  0.00000668  0.68556454  1
  Ge  Ge1  1  0.31443546  0.99999332  0.30397470  1
  Ge  Ge2  1  0.98953924  0.30398139  0.30397470  1
  Ge  Ge3  1  0.98953924  0.68555886  0.68556454  1
  Ge  Ge4  1  0.69602530  0.69601861  0.01046076  1
  Ge  Ge5  1  0.31443546  0.31444114  0.01046076  1
  Ir  Ir0  1  0.49840862  0.74920531  0.24920531  1
  Ir  Ir1  1  0.75079469  0.50000000  0.24920531  1
  Ir  Ir2  1  0.00000000  0.00000000  0.00000000  1
  Ir  Ir3  1  0.75079469  0.25079469  0.50159138  1
  Pt  Pt0  1  0.25115667  0.50000000  0.74884333  1
  Pt  Pt1  1  0.25115667  0.75115667  0.50231234  1
  Pt  Pt2  1  0.49768766  0.24884333  0.74884333  1
loop_
_geom_bond_atom_site_label_1
_geom_bond_atom_site_label_2
_geom_bond_distance
_geom_bond_site_symmetry_2
Mg0 Pt0 2.858973 1_555
Mg0 Pt2 2.874820 1_555
Mg0 Pt1 2.874820 1_555
Mg1 Pt2 2.887445 1_454
Mg1 Pt1 2.887445 1_555
Mg1 Pt0 2.887451 1_554
Mg2 Pt2 2.858973 1_555
Mg2 Pt1 2.874814 1_545
Mg2 Pt0 2.874820 1_555
Mg3 Pt1 2.858973 1_555
Mg3 Pt2 2.874814 1_565
Mg3 Pt0 2.874820 1_555
Ge0 Ir2 2.515068 1_656
Ge0 Ir3 2.520770 1_555
Ge0 Ir0 2.527390 1_545
Ge0 Pt1 2.585437 1_545
Ge0 Pt2 2.597983 1_555
Ge0 Mg2 2.856070 1_655
Ge0 Mg1 2.915971 1_656
Ge0 Mg0 2.916824 1_545
Ge0 Mg3 2.972371 1_545
Ge1 Ir2 2.515068 1_565
Ge1 Ir0 2.520770 1_555
Ge1 Ir3 2.527389 1_565
Ge1 Pt2 2.585438 1_565
Ge1 Pt1 2.597983 1_555
Ge1 Mg3 2.856070 1_554
Ge1 Mg1 2.915971 1_555
Ge1 Mg0 2.916824 1_565
Ge1 Mg2 2.972371 1_565
Ge2 Ir2 2.515069 1_655
Ge2 Ir1 2.520781 1_555
Ge2 Ir3 2.527402 1_555
Ge2 Pt0 2.585439 1_655
Ge2 Pt1 2.597989 1_655
Ge2 Mg3 2.856064 1_544
Ge2 Mg1 2.915971 1_655
Ge2 Mg2 2.916825 1_655
Ge2 Mg0 2.972377 1_655
Ge3 Ir2 2.515064 1_666
Ge3 Ir3 2.520788 1_555
Ge3 Ir1 2.527390 1_555
Ge3 Pt1 2.585443 1_655
Ge3 Pt0 2.597994 1_655
Ge3 Mg0 2.856063 1_555
Ge3 Mg1 2.915976 1_656
Ge3 Mg2 2.916817 1_665
Ge3 Mg3 2.972376 1_655
Ge4 Ir2 2.515068 1_665
Ge4 Ir1 2.520781 1_555
Ge4 Ir0 2.527402 1_555
Ge4 Pt0 2.585438 1_554
Ge4 Pt2 2.597989 1_554
Ge4 Mg2 2.856065 1_665
Ge4 Mg1 2.915971 1_655
Ge4 Mg3 2.916825 1_554
Ge4 Mg0 2.972378 1_554
Ge5 Ir2 2.515064 1_555
Ge5 Ir0 2.520789 1_555
Ge5 Ir1 2.527390 1_555
Ge5 Pt2 2.585444 1_554
Ge5 Pt0 2.597994 1_554
Ge5 Mg0 2.856063 1_555
Ge5 Mg1 2.915976 1_555
Ge5 Mg3 2.916817 1_544
Ge5 Mg2 2.972376 1_554
Ir0 Mg1 2.865005 1_555
Ir0 Mg0 2.876686 1_555
Ir0 Mg3 2.876692 1_554
Ir0 Mg2 2.885189 1_665
Ir1 Mg1 2.865017 1_655
Ir1 Mg3 2.876686 1_544
Ir1 Mg2 2.876686 1_665
Ir1 Mg0 2.885172 1_555
Ir3 Mg1 2.865006 1_656
Ir3 Mg0 2.876686 1_555
Ir3 Mg2 2.876692 1_655
Ir3 Mg3 2.885189 1_544
