# generated using pymatgen
data_CsK2Cu3As2
_symmetry_space_group_name_H-M   'P 1'
_cell_length_a   7.74830468
_cell_length_b   7.74830444
_cell_length_c   7.74830504
_cell_angle_alpha   44.50246581
_cell_angle_beta   44.50246617
_cell_angle_gamma   44.50246976
_symmetry_Int_Tables_number   1
_chemical_formula_structural   CsK2Cu3As2
_chemical_formula_sum   'Cs1 K2 Cu3 As2'
_cell_volume   207.80373967
_cell_formula_units_Z   1
loop_
 _symmetry_equiv_pos_site_id
 _symmetry_equiv_pos_as_xyz
  1  'x, y, z'
loop_
 _atom_site_type_symbol
 _atom_site_label
 _atom_site_symmetry_multiplicity
 _atom_site_fract_x
 _atom_site_fract_y
 _atom_site_fract_z
 _atom_site_occupancy
  Cs  Cs0  1  0.50000000  0.50000000  0.50000000  1
  K  K0  1  0.08804620  0.08804620  0.08804620  1
  K  K1  1  0.91195380  0.91195380  0.91195380  1
  Cu  Cu0  1  0.50000000  0.50000000  0.00000000  1
  Cu  Cu1  1  0.50000000  0.00000000  0.50000000  1
  Cu  Cu2  1  0.00000000  0.50000000  0.50000000  1
  As  As0  1  0.74367004  0.74367004  0.74367004  1
  As  As1  1  0.25632996  0.25632996  0.25632996  1
loop_
_geom_bond_atom_site_label_1
_geom_bond_atom_site_label_2
_geom_bond_distance
_geom_bond_site_symmetry_2
Cs0 K1 3.765558 1_554
Cs0 K0 3.765558 1_556
Cs0 K1 3.765559 1_455
Cs0 K0 3.765559 1_655
Cs0 K1 3.765559 1_545
Cs0 K0 3.765559 1_565
Cs0 Cu1 3.874152 1_555
Cs0 Cu1 3.874152 1_565
Cs0 Cu2 3.874152 1_655
Cs0 Cu2 3.874152 1_555
Cs0 Cu0 3.874153 1_555
Cs0 Cu0 3.874153 1_556
Cu0 K0 3.463589 1_565
Cu0 K1 3.463589 1_544
Cu0 K0 3.463589 1_655
Cu0 K1 3.463589 1_454
Cu1 K0 3.463589 1_655
Cu1 K1 3.463589 1_445
Cu1 K0 3.463589 1_556
Cu1 K1 3.463589 1_544
Cu2 K0 3.463588 1_565
Cu2 K1 3.463588 1_445
Cu2 K0 3.463589 1_556
Cu2 K1 3.463589 1_454
As0 Cu0 2.336849 1_556
As0 Cu2 2.336849 1_655
As0 Cu1 2.336849 1_565
As0 K0 3.395792 1_665
As0 K0 3.395793 1_656
As0 K0 3.395793 1_566
As0 K1 3.517988 1_555
As0 Cs0 3.871894 1_565
As0 Cs0 3.871894 1_655
As0 Cs0 3.871894 1_556
As1 Cu0 2.336849 1_555
As1 Cu2 2.336849 1_555
As1 Cu1 2.336849 1_555
As1 K1 3.395792 1_445
As1 K1 3.395793 1_454
As1 K1 3.395793 1_544
As1 K0 3.517988 1_555
As1 Cs0 3.871894 1_545
As1 Cs0 3.871894 1_455
As1 Cs0 3.871894 1_554
