# generated using pymatgen
data_Ta3Nb5Cd4O24
_symmetry_space_group_name_H-M   'P 1'
_cell_length_a   5.16247512
_cell_length_b   5.91458491
_cell_length_c   14.90852851
_cell_angle_alpha   90.48351310
_cell_angle_beta   90.05081479
_cell_angle_gamma   90.03463357
_symmetry_Int_Tables_number   1
_chemical_formula_structural   Ta3Nb5Cd4O24
_chemical_formula_sum   'Ta3 Nb5 Cd4 O24'
_cell_volume   455.19900809
_cell_formula_units_Z   1
loop_
 _symmetry_equiv_pos_site_id
 _symmetry_equiv_pos_as_xyz
  1  'x, y, z'
loop_
 _atom_site_type_symbol
 _atom_site_label
 _atom_site_symmetry_multiplicity
 _atom_site_fract_x
 _atom_site_fract_y
 _atom_site_fract_z
 _atom_site_occupancy
  Ta  Ta0  1  0.73542304  0.17713635  0.83348749  1
  Ta  Ta1  1  0.76296591  0.67998003  0.33423054  1
  Ta  Ta2  1  0.23540431  0.32131005  0.66638670  1
  Nb  Nb0  1  0.23389185  0.81821953  0.83571291  1
  Nb  Nb1  1  0.76546225  0.18241643  0.16466279  1
  Nb  Nb2  1  0.73371886  0.67942419  0.66375868  1
  Nb  Nb3  1  0.26408896  0.81816202  0.16549880  1
  Nb  Nb4  1  0.26463676  0.32072047  0.33615938  1
  Cd  Cd0  1  0.24456352  0.81059507  0.49973022  1
  Cd  Cd1  1  0.75442606  0.19074558  0.50011578  1
  Cd  Cd2  1  0.74827037  0.68923675  0.99930295  1
  Cd  Cd3  1  0.25402295  0.30581608  0.99918002  1
  O  O0  1  0.10789853  0.61579380  0.91488835  1
  O  O1  1  0.89643182  0.38328492  0.08542616  1
  O  O2  1  0.60550582  0.88155589  0.58508248  1
  O  O3  1  0.39566427  0.61359061  0.08617965  1
  O  O4  1  0.39368306  0.11924179  0.41521201  1
  O  O5  1  0.60791059  0.38338695  0.91286803  1
  O  O6  1  0.89246648  0.88602055  0.41344506  1
  O  O7  1  0.10643942  0.11485648  0.58738302  1
  O  O8  1  0.05136269  0.58620207  0.60378375  1
  O  O9  1  0.94801403  0.41501850  0.39694268  1
  O  O10  1  0.55106399  0.91224267  0.89625335  1
  O  O11  1  0.44968669  0.59471364  0.39691224  1
  O  O12  1  0.45061807  0.08931517  0.10306140  1
  O  O13  1  0.54928009  0.40625499  0.60349958  1
  O  O14  1  0.95033481  0.90868070  0.10253138  1
  O  O15  1  0.04890372  0.09065451  0.89649104  1
  O  O16  1  0.40524445  0.62796547  0.74341488  1
  O  O17  1  0.59270673  0.37418096  0.25639253  1
  O  O18  1  0.90487372  0.86976368  0.75658630  1
  O  O19  1  0.08419537  0.63346540  0.25550502  1
  O  O20  1  0.09174595  0.13267092  0.24424348  1
  O  O21  1  0.91481997  0.36474574  0.74550021  1
  O  O22  1  0.58989685  0.86936789  0.24550214  1
  O  O23  1  0.41437905  0.13326317  0.75466701  1
loop_
_geom_bond_atom_site_label_1
_geom_bond_atom_site_label_2
_geom_bond_distance
_geom_bond_site_symmetry_2
Nb0 O0 1.809448 1_555
Nb0 O10 1.947498 1_555
Nb0 O16 1.979759 1_555
Nb0 O15 2.075627 1_565
Nb0 O18 2.091112 1_455
Nb0 O23 2.416213 1_565
Nb1 O1 1.813347 1_555
Nb1 O12 1.943253 1_555
Nb1 O17 1.982229 1_555
Nb1 O20 2.081932 1_655
Nb1 O14 2.090044 1_545
Nb1 O22 2.395785 1_545
Nb2 O2 1.807329 1_555
Nb2 O8 1.946253 1_655
Nb2 O18 1.983349 1_555
Nb2 O13 2.072738 1_555
Nb2 O16 2.094638 1_555
Nb2 O21 2.421073 1_555
Nb3 O3 1.817149 1_555
Nb3 O14 1.948924 1_455
Nb3 O19 1.970314 1_555
Nb3 O22 2.081611 1_555
Nb3 O12 2.095404 1_565
Nb3 O20 2.365818 1_565
Nb4 O4 1.810014 1_555
Nb4 O9 1.949159 1_455
Nb4 O20 1.970385 1_555
Nb4 O11 2.081107 1_555
Nb4 O17 2.095692 1_555
Nb4 O19 2.402671 1_555
Cd0 O11 2.252301 1_555
Cd0 O6 2.272515 1_455
Cd0 O8 2.280046 1_555
Cd0 O2 2.292003 1_555
Cd0 O7 2.327685 1_565
Cd0 O4 2.356204 1_565
Cd1 O13 2.256837 1_555
Cd1 O9 2.271526 1_555
Cd1 O7 2.281057 1_655
Cd1 O4 2.288050 1_555
Cd1 O6 2.321572 1_545
Cd1 O2 2.361996 1_545
Cd2 O14 2.258991 1_556
Cd2 O10 2.273658 1_555
Cd2 O3 2.281288 1_556
Cd2 O0 2.283694 1_655
Cd2 O5 2.327099 1_555
Cd2 O1 2.355279 1_556
Cd3 O15 2.246598 1_555
Cd3 O12 2.258441 1_556
Cd3 O5 2.284103 1_555
Cd3 O1 2.294873 1_456
Cd3 O3 2.342552 1_556
Cd3 O0 2.355518 1_555
O5 Ta0 1.816587 1_555
O6 Ta1 1.816608 1_555
O7 Ta2 1.815199 1_555
O8 Ta2 2.062360 1_555
O9 Ta1 2.065819 1_555
O10 Ta0 2.064130 1_565
O11 Ta1 1.937241 1_555
O13 Ta2 1.940801 1_555
O15 Ta0 1.941476 1_455
O16 Ta2 2.310482 1_555
O17 Ta1 2.313301 1_555
O18 Ta0 2.313710 1_565
O19 Ta1 2.049844 1_455
O21 Ta0 1.958366 1_555
O21 Ta2 2.048184 1_655
O22 Ta1 1.956263 1_555
O23 Ta2 1.961303 1_555
O23 Ta0 2.045967 1_555
