# generated using pymatgen
data_BaHf2VS6
_symmetry_space_group_name_H-M   'P 1'
_cell_length_a   6.28944130
_cell_length_b   6.28944198
_cell_length_c   7.84764643
_cell_angle_alpha   97.76275452
_cell_angle_beta   97.76275772
_cell_angle_gamma   120.29640027
_symmetry_Int_Tables_number   1
_chemical_formula_structural   BaHf2VS6
_chemical_formula_sum   'Ba1 Hf2 V1 S6'
_cell_volume   257.97651832
_cell_formula_units_Z   1
loop_
 _symmetry_equiv_pos_site_id
 _symmetry_equiv_pos_as_xyz
  1  'x, y, z'
loop_
 _atom_site_type_symbol
 _atom_site_label
 _atom_site_symmetry_multiplicity
 _atom_site_fract_x
 _atom_site_fract_y
 _atom_site_fract_z
 _atom_site_occupancy
  Ba  Ba0  1  0.00000000  0.00000000  0.50000000  1
  Hf  Hf0  1  0.83397105  0.16602995  0.00000000  1
  Hf  Hf1  1  0.16602995  0.83397105  1.00000000  1
  V  V0  1  0.50000100  0.50000100  0.00000000  1
  S  S0  1  0.23275188  0.23275188  0.19083443  1
  S  S1  1  0.89784856  0.56167894  0.18994181  1
  S  S2  1  0.56167894  0.89784856  0.18994181  1
  S  S3  1  0.43832006  0.10215144  0.81005719  1
  S  S4  1  0.10215144  0.43832006  0.81005719  1
  S  S5  1  0.76724912  0.76724912  0.80916457  1
loop_
_geom_bond_atom_site_label_1
_geom_bond_atom_site_label_2
_geom_bond_distance
_geom_bond_site_symmetry_2
Ba0 S3 3.148301 1_555
Ba0 S4 3.148302 1_555
Ba0 S2 3.148311 1_445
Ba0 S1 3.148311 1_445
Ba0 S5 3.151061 1_445
Ba0 S0 3.151072 1_555
Hf0 S1 2.530416 1_555
Hf0 S3 2.530427 1_554
Hf0 S4 2.540491 1_654
Hf0 S2 2.540493 1_545
Hf0 S0 2.542267 1_655
Hf0 S5 2.542270 1_544
Hf1 S2 2.530416 1_556
Hf1 S4 2.530427 1_555
Hf1 S3 2.540491 1_565
Hf1 S1 2.540493 1_456
Hf1 S0 2.542267 1_566
Hf1 S5 2.542270 1_455
S0 V0 2.530378 1_555
S1 V0 2.547629 1_555
S2 V0 2.547629 1_555
S3 V0 2.547635 1_556
S4 V0 2.547635 1_556
S5 V0 2.530379 1_556
