# generated using pymatgen
data_Cs4BiSb3Pt2
_symmetry_space_group_name_H-M   'P 1'
_cell_length_a   8.46236867
_cell_length_b   8.42623072
_cell_length_c   7.04311308
_cell_angle_alpha   90.00000000
_cell_angle_beta   90.00000000
_cell_angle_gamma   125.29615080
_symmetry_Int_Tables_number   1
_chemical_formula_structural   Cs4BiSb3Pt2
_chemical_formula_sum   'Cs4 Bi1 Sb3 Pt2'
_cell_volume   409.89628977
_cell_formula_units_Z   1
loop_
 _symmetry_equiv_pos_site_id
 _symmetry_equiv_pos_as_xyz
  1  'x, y, z'
loop_
 _atom_site_type_symbol
 _atom_site_label
 _atom_site_symmetry_multiplicity
 _atom_site_fract_x
 _atom_site_fract_y
 _atom_site_fract_z
 _atom_site_occupancy
  Cs  Cs0  1  0.58544559  0.37081725  0.75000000  1
  Cs  Cs1  1  0.37515460  0.58239519  0.25000000  1
  Cs  Cs2  1  0.18305408  0.79329982  0.75000000  1
  Cs  Cs3  1  0.80069032  0.19703614  0.25000000  1
  Bi  Bi0  1  0.72095687  0.90595048  0.75000000  1
  Sb  Sb0  1  0.90574874  0.73262811  0.25000000  1
  Sb  Sb1  1  0.28522955  0.07540562  0.25000000  1
  Sb  Sb2  1  0.08742461  0.28701229  0.75000000  1
  Pt  Pt0  1  0.02814782  0.02772805  0.00228909  1
  Pt  Pt1  1  0.02814782  0.02772805  0.49771091  1
loop_
_geom_bond_atom_site_label_1
_geom_bond_atom_site_label_2
_geom_bond_distance
_geom_bond_site_symmetry_2
Cs0 Sb2 3.849803 1_555
Cs0 Sb1 4.212349 1_555
Cs0 Sb1 4.212349 1_556
Cs0 Sb0 4.415138 1_556
Cs0 Sb0 4.415138 1_555
Cs1 Sb1 3.882319 1_555
Cs1 Sb0 3.898064 1_555
Cs1 Sb2 4.185880 1_554
Cs1 Sb2 4.185880 1_555
Cs2 Pt0 3.430761 1_566
Cs2 Pt1 3.430761 1_565
Cs2 Sb2 3.855504 1_555
Cs2 Sb1 4.052698 1_566
Cs2 Sb1 4.052698 1_565
Cs2 Sb0 4.096726 1_455
Cs2 Sb0 4.096726 1_456
Cs3 Pt1 3.457944 1_655
Cs3 Pt0 3.457944 1_655
Cs3 Sb1 3.861526 1_555
Cs3 Sb0 4.064623 1_555
Cs3 Sb2 4.091202 1_655
Cs3 Sb2 4.091202 1_654
Bi0 Pt0 2.808111 1_666
Bi0 Pt1 2.808111 1_665
Bi0 Sb2 2.901761 1_665
Bi0 Cs0 3.958793 1_555
Bi0 Cs2 4.077742 1_555
Bi0 Cs3 4.118271 1_566
Bi0 Cs3 4.118271 1_565
Bi0 Cs1 4.379274 1_555
Bi0 Cs1 4.379274 1_556
Sb0 Sb1 2.817148 1_665
Pt0 Sb2 2.629797 1_554
Pt0 Sb1 2.632131 1_555
Pt0 Sb0 2.706182 1_445
Pt1 Sb2 2.629797 1_555
Pt1 Sb1 2.632131 1_555
Pt1 Sb0 2.706182 1_445
