# generated using pymatgen
data_Na2In
_symmetry_space_group_name_H-M   'P 1'
_cell_length_a   8.15097133
_cell_length_b   8.15097091
_cell_length_c   11.60454069
_cell_angle_alpha   90.00000000
_cell_angle_beta   90.00000000
_cell_angle_gamma   114.66587737
_symmetry_Int_Tables_number   1
_chemical_formula_structural   Na2In
_chemical_formula_sum   'Na16 In8'
_cell_volume   700.63910835
_cell_formula_units_Z   8
loop_
 _symmetry_equiv_pos_site_id
 _symmetry_equiv_pos_as_xyz
  1  'x, y, z'
loop_
 _atom_site_type_symbol
 _atom_site_label
 _atom_site_symmetry_multiplicity
 _atom_site_fract_x
 _atom_site_fract_y
 _atom_site_fract_z
 _atom_site_occupancy
  Na  Na0  1  0.06602365  0.93397635  -0.00000000  1
  Na  Na1  1  0.93397635  0.06602365  0.50000000  1
  Na  Na2  1  0.59035682  0.59035682  0.25000000  1
  Na  Na3  1  0.40964318  0.40964318  0.75000000  1
  Na  Na4  1  0.49805210  0.89630088  0.42000317  1
  Na  Na5  1  0.50194790  0.10369912  0.92000317  1
  Na  Na6  1  0.89630088  0.49805210  0.07999683  1
  Na  Na7  1  0.10369912  0.50194790  0.57999683  1
  Na  Na8  1  0.39721790  0.15241640  0.20716430  1
  Na  Na9  1  0.60278210  0.84758360  0.70716430  1
  Na  Na10  1  0.15241640  0.39721790  0.29283570  1
  Na  Na11  1  0.84758360  0.60278210  0.79283570  1
  Na  Na12  1  0.77478601  0.04976221  0.16713665  1
  Na  Na13  1  0.22521399  0.95023779  0.66713665  1
  Na  Na14  1  0.04976221  0.77478601  0.33286335  1
  Na  Na15  1  0.95023779  0.22521399  0.83286335  1
  In  In0  1  0.33048320  0.75608135  0.12792244  1
  In  In1  1  0.66951680  0.24391865  0.62792244  1
  In  In2  1  0.75608135  0.33048320  0.37207756  1
  In  In3  1  0.24391865  0.66951680  0.87207756  1
  In  In4  1  0.72738368  0.62238332  0.52548746  1
  In  In5  1  0.27261632  0.37761668  0.02548746  1
  In  In6  1  0.62238332  0.72738368  0.97451254  1
  In  In7  1  0.37761668  0.27261632  0.47451254  1
loop_
_geom_bond_atom_site_label_1
_geom_bond_atom_site_label_2
_geom_bond_distance
_geom_bond_site_symmetry_2
Na0 Na6 3.361268 1_455
Na0 Na5 3.361268 1_564
Na1 Na7 3.361268 1_655
Na1 Na4 3.361268 1_545
Na2 Na8 3.282889 1_555
Na2 Na4 3.498968 1_555
Na2 Na6 3.498968 1_555
Na3 Na9 3.282889 1_555
Na3 Na5 3.498968 1_555
Na3 Na7 3.498968 1_555
Na4 Na9 3.503433 1_555
Na4 Na8 3.544858 1_565
Na4 Na7 3.935437 1_555
Na5 Na8 3.503433 1_556
Na5 Na9 3.544858 1_545
Na5 Na6 3.935437 1_556
Na10 Na2 3.282889 1_555
Na10 Na7 3.503433 1_555
Na10 Na6 3.544859 1_455
Na11 Na3 3.282889 1_555
Na11 Na6 3.503433 1_556
Na11 Na7 3.544859 1_655
Na12 Na6 3.512057 1_555
Na12 Na2 3.536683 1_545
Na12 Na4 3.592818 1_545
Na12 Na5 3.765597 1_554
Na13 Na7 3.512057 1_555
Na13 Na3 3.536683 1_565
Na13 Na5 3.592818 1_565
Na13 Na4 3.765597 1_555
Na14 Na4 3.512058 1_555
Na14 Na2 3.536684 1_455
Na14 Na6 3.592817 1_455
Na14 Na7 3.765597 1_555
Na15 Na5 3.512058 1_555
Na15 Na3 3.536684 1_655
Na15 Na7 3.592817 1_655
Na15 Na6 3.765597 1_556
In0 In6 3.057688 1_554
In0 In3 3.065111 1_554
In0 In5 3.152362 1_555
In0 Na8 3.179784 1_565
In0 Na2 3.272108 1_555
In0 Na10 3.283537 1_555
In0 Na6 3.323372 1_455
In0 Na14 3.347550 1_555
In0 Na0 3.400249 1_555
In0 Na12 3.437568 1_565
In0 Na5 3.535251 1_564
In0 Na4 3.654769 1_555
In1 In7 3.057688 1_555
In1 In2 3.065111 1_555
In1 In4 3.152362 1_555
In1 Na9 3.179784 1_545
In1 Na3 3.272108 1_555
In1 Na11 3.283537 1_555
In1 Na7 3.323372 1_655
In1 Na15 3.347550 1_555
In1 Na1 3.400249 1_555
In1 Na13 3.437568 1_545
In1 Na4 3.535251 1_545
In1 Na5 3.654769 1_555
In2 In4 3.057688 1_555
In2 In7 3.152362 1_555
In2 Na10 3.179784 1_655
In2 Na2 3.272108 1_555
In2 Na8 3.283537 1_555
In2 Na4 3.323372 1_545
In2 Na12 3.347550 1_555
In2 Na1 3.400249 1_555
In2 Na14 3.437568 1_655
In2 Na7 3.535251 1_655
In2 Na6 3.654769 1_555
In3 In5 3.057688 1_556
In3 In6 3.152362 1_555
In3 Na11 3.179784 1_455
In3 Na3 3.272108 1_555
In3 Na9 3.283537 1_555
In3 Na5 3.323372 1_565
In3 Na13 3.347550 1_555
In3 Na0 3.400249 1_556
In3 Na15 3.437568 1_455
In3 Na6 3.535251 1_456
In3 Na7 3.654769 1_555
In4 In7 3.133961 1_555
In4 Na9 3.225179 1_555
In4 Na14 3.274155 1_655
In4 Na11 3.277392 1_555
In4 Na1 3.304068 1_565
In4 Na2 3.360426 1_555
In4 Na3 3.571269 1_555
In4 Na7 3.644937 1_655
In4 Na4 3.668918 1_555
In5 In6 3.133961 1_554
In5 Na8 3.225179 1_555
In5 Na15 3.274155 1_454
In5 Na10 3.277392 1_555
In5 Na0 3.304068 1_545
In5 Na3 3.360426 1_554
In5 Na2 3.571269 1_555
In5 Na6 3.644937 1_455
In5 Na5 3.668918 1_554
In6 Na11 3.225179 1_555
In6 Na12 3.274154 1_566
In6 Na9 3.277392 1_555
In6 Na0 3.304068 1_656
In6 Na2 3.360426 1_556
In6 Na3 3.571269 1_555
In6 Na5 3.644937 1_565
In6 Na6 3.668918 1_556
In7 Na10 3.225179 1_555
In7 Na13 3.274154 1_545
In7 Na8 3.277392 1_555
In7 Na1 3.304068 1_455
In7 Na3 3.360426 1_555
In7 Na2 3.571269 1_555
In7 Na4 3.644937 1_545
In7 Na7 3.668918 1_555
