# generated using pymatgen
data_LiBrF4
_symmetry_space_group_name_H-M   'P 1'
_cell_length_a   7.19705593
_cell_length_b   4.78566233
_cell_length_c   9.51944409
_cell_angle_alpha   88.51707820
_cell_angle_beta   90.00000000
_cell_angle_gamma   90.00000000
_symmetry_Int_Tables_number   1
_chemical_formula_structural   LiBrF4
_chemical_formula_sum   'Li4 Br4 F16'
_cell_volume   327.76535035
_cell_formula_units_Z   4
loop_
 _symmetry_equiv_pos_site_id
 _symmetry_equiv_pos_as_xyz
  1  'x, y, z'
loop_
 _atom_site_type_symbol
 _atom_site_label
 _atom_site_symmetry_multiplicity
 _atom_site_fract_x
 _atom_site_fract_y
 _atom_site_fract_z
 _atom_site_occupancy
  Li  Li0  1  0.38262669  0.50000000  0.25000000  1
  Li  Li1  1  0.88246734  0.00000000  0.75000000  1
  Li  Li2  1  0.61737331  0.50000000  0.75000000  1
  Li  Li3  1  0.11753266  0.00000000  0.25000000  1
  Br  Br0  1  0.00000000  0.50000000  0.50000000  1
  Br  Br1  1  0.00000000  0.50000000  0.00000000  1
  Br  Br2  1  0.50000000  0.00000000  0.00000000  1
  Br  Br3  1  0.50000000  0.00000000  0.50000000  1
  F  F0  1  0.94338027  0.79760618  0.36982588  1
  F  F1  1  0.05661973  0.20239382  0.63017412  1
  F  F2  1  0.55637584  0.29781295  0.36993179  1
  F  F3  1  0.05661973  0.79760618  0.86982588  1
  F  F4  1  0.66193377  0.17326177  0.63348305  1
  F  F5  1  0.16183843  0.32664463  0.36646490  1
  F  F6  1  0.83816157  0.67335537  0.63353510  1
  F  F7  1  0.83816157  0.32664463  0.86646490  1
  F  F8  1  0.33806623  0.17326177  0.13348305  1
  F  F9  1  0.16183843  0.67335537  0.13353510  1
  F  F10  1  0.94338027  0.20239382  0.13017412  1
  F  F11  1  0.55637584  0.70218705  0.13006821  1
  F  F12  1  0.66193377  0.82673823  0.86651695  1
  F  F13  1  0.33806623  0.82673823  0.36651695  1
  F  F14  1  0.44362416  0.70218705  0.63006821  1
  F  F15  1  0.44362416  0.29781295  0.86993179  1
loop_
_geom_bond_atom_site_label_1
_geom_bond_atom_site_label_2
_geom_bond_distance
_geom_bond_site_symmetry_2
Br0 F0 1.907551 1_455
Br0 F1 1.907551 1_555
Br0 F6 1.927542 1_455
Br0 F5 1.927542 1_555
Br1 F3 1.907551 1_554
Br1 F10 1.907551 1_455
Br1 F9 1.927542 1_555
Br1 F7 1.927542 1_454
Br2 F15 1.907264 1_554
Br2 F11 1.907264 1_545
Br2 F8 1.927424 1_555
Br2 F12 1.927424 1_544
Br3 F2 1.907264 1_555
Br3 F14 1.907264 1_545
Br3 F4 1.927424 1_555
Br3 F13 1.927424 1_545
F0 Li3 1.937290 1_665
F1 Li1 1.937290 1_455
F2 Li0 1.935515 1_555
F3 Li1 1.937290 1_465
F4 Li2 1.966703 1_555
F4 Li1 2.095084 1_555
F5 Li3 1.965752 1_555
F5 Li0 2.096387 1_555
F6 Li1 1.965752 1_565
F6 Li2 2.096387 1_555
F7 Li1 1.965752 1_555
F7 Li2 2.096387 1_555
F8 Li0 1.966703 1_555
F8 Li3 2.095084 1_555
F9 Li3 1.965752 1_565
F9 Li0 2.096387 1_555
F10 Li3 1.937290 1_655
F11 Li0 1.935515 1_555
F12 Li2 1.966703 1_555
F12 Li1 2.095084 1_565
F13 Li0 1.966703 1_555
F13 Li3 2.095084 1_565
F14 Li2 1.935515 1_555
F15 Li2 1.935515 1_555
