# generated using pymatgen
data_Be9NbVW
_symmetry_space_group_name_H-M   'P 1'
_cell_length_a   7.35199066
_cell_length_b   7.35199120
_cell_length_c   7.35199042
_cell_angle_alpha   34.98881851
_cell_angle_beta   34.98881335
_cell_angle_gamma   34.98881814
_symmetry_Int_Tables_number   1
_chemical_formula_structural   Be9NbVW
_chemical_formula_sum   'Be9 Nb1 V1 W1'
_cell_volume   116.66495453
_cell_formula_units_Z   1
loop_
 _symmetry_equiv_pos_site_id
 _symmetry_equiv_pos_as_xyz
  1  'x, y, z'
loop_
 _atom_site_type_symbol
 _atom_site_label
 _atom_site_symmetry_multiplicity
 _atom_site_fract_x
 _atom_site_fract_y
 _atom_site_fract_z
 _atom_site_occupancy
  Be  Be0  1  0.50028678  0.50028678  0.50028678  1
  Be  Be1  1  0.33347725  0.33347725  0.33347825  1
  Be  Be2  1  0.66476856  0.66476856  0.66476756  1
  Be  Be3  1  0.07858479  0.58573458  0.58573458  1
  Be  Be4  1  0.58573458  0.58573458  0.07858479  1
  Be  Be5  1  0.58573458  0.07858479  0.58573458  1
  Be  Be6  1  0.41378688  0.92214204  0.41378688  1
  Be  Be7  1  0.92214204  0.41378688  0.41378688  1
  Be  Be8  1  0.41378688  0.41378688  0.92214204  1
  Nb  Nb0  1  0.00113267  0.00113267  0.00113267  1
  V  V0  1  0.85703769  0.85703769  0.85703769  1
  W  W0  1  0.14352732  0.14352732  0.14352732  1
loop_
_geom_bond_atom_site_label_1
_geom_bond_atom_site_label_2
_geom_bond_distance
_geom_bond_site_symmetry_2
Be0 Be8 2.151069 1_555
Be0 Be7 2.151069 1_555
Be0 Be6 2.151070 1_555
Be0 Be4 2.159970 1_555
Be0 Be3 2.159970 1_555
Be0 Be5 2.159970 1_555
Be0 V0 2.597568 1_455
Be0 V0 2.597568 1_554
Be0 V0 2.597568 1_545
Be0 W0 2.597601 1_655
Be0 W0 2.597601 1_556
Be0 W0 2.597601 1_565
Be1 Be7 2.135995 1_455
Be1 Be6 2.135995 1_545
Be1 Be8 2.135997 1_554
Be1 Be5 2.153432 1_555
Be1 Be3 2.153432 1_555
Be1 Be4 2.153435 1_555
Be1 Nb0 2.552085 1_556
Be1 Nb0 2.552089 1_655
Be1 Nb0 2.552089 1_565
Be2 Be6 2.127677 1_555
Be2 Be7 2.127677 1_555
Be2 Be8 2.127680 1_555
Be2 Be3 2.165956 1_655
Be2 Be5 2.165957 1_565
Be2 Be4 2.165958 1_556
Be2 Nb0 2.552773 1_665
Be2 Nb0 2.552777 1_566
Be2 Nb0 2.552778 1_656
Be3 Be4 2.178498 1_456
Be3 Be5 2.178499 1_465
Be3 Be4 2.241705 1_555
Be3 Be5 2.241706 1_555
Be3 W0 2.536572 1_556
Be3 W0 2.536572 1_565
Be3 V0 2.546022 1_455
Be3 Nb0 2.788748 1_565
Be3 Nb0 2.788749 1_556
Be4 Be5 2.178499 1_564
Be4 Be5 2.241706 1_555
Be4 W0 2.536572 1_655
Be4 W0 2.536572 1_565
Be4 V0 2.546022 1_554
Be4 Nb0 2.788748 1_565
Be4 Nb0 2.788749 1_655
Be5 W0 2.536572 1_556
Be5 W0 2.536572 1_655
Be5 V0 2.546022 1_545
Be5 Nb0 2.788748 1_655
Be5 Nb0 2.788748 1_556
Be6 Be8 2.173171 1_564
Be6 Be7 2.173171 1_465
Be6 Be8 2.247034 1_555
Be6 Be7 2.247034 1_555
Be6 V0 2.530108 1_554
Be6 V0 2.530108 1_455
Be6 W0 2.532963 1_565
Be6 Nb0 2.818575 1_566
Be6 Nb0 2.818575 1_665
Be7 Be8 2.173170 1_654
Be7 Be8 2.247033 1_555
Be7 V0 2.530109 1_554
Be7 V0 2.530109 1_545
Be7 W0 2.532963 1_655
Be7 Nb0 2.818575 1_656
Be7 Nb0 2.818575 1_665
Be8 V0 2.530109 1_455
Be8 V0 2.530109 1_545
Be8 W0 2.532963 1_556
Be8 Nb0 2.818575 1_656
Be8 Nb0 2.818575 1_566
Nb0 W0 2.945372 1_555
Nb0 V0 2.980542 1_444
V0 W0 2.729758 1_665
V0 W0 2.729759 1_566
V0 W0 2.729759 1_656
