# generated using pymatgen
data_Na8HfP4
_symmetry_space_group_name_H-M   'P 1'
_cell_length_a   9.58422646
_cell_length_b   9.58422626
_cell_length_c   9.58422535
_cell_angle_alpha   59.99999312
_cell_angle_beta   59.99999381
_cell_angle_gamma   59.99999712
_symmetry_Int_Tables_number   1
_chemical_formula_structural   Na8HfP4
_chemical_formula_sum   'Na16 Hf2 P8'
_cell_volume   622.52398817
_cell_formula_units_Z   2
loop_
 _symmetry_equiv_pos_site_id
 _symmetry_equiv_pos_as_xyz
  1  'x, y, z'
loop_
 _atom_site_type_symbol
 _atom_site_label
 _atom_site_symmetry_multiplicity
 _atom_site_fract_x
 _atom_site_fract_y
 _atom_site_fract_z
 _atom_site_occupancy
  Na  Na0  1  0.62500000  0.62500000  0.12500000  1
  Na  Na1  1  0.62500000  0.12500000  0.62500000  1
  Na  Na2  1  0.12500000  0.62500000  0.62500000  1
  Na  Na3  1  0.62500000  0.62500000  0.62500000  1
  Na  Na4  1  0.03005056  0.46994944  0.46994944  1
  Na  Na5  1  0.78005056  0.21994944  0.21994944  1
  Na  Na6  1  0.46994944  0.03005056  0.46994944  1
  Na  Na7  1  0.46994944  0.46994944  0.03005056  1
  Na  Na8  1  0.03005056  0.03005056  0.46994944  1
  Na  Na9  1  0.03005056  0.46994944  0.03005056  1
  Na  Na10  1  0.46994944  0.03005056  0.03005056  1
  Na  Na11  1  0.78005056  0.21994944  0.78005056  1
  Na  Na12  1  0.21994944  0.78005056  0.21994944  1
  Na  Na13  1  0.21994944  0.21994944  0.78005056  1
  Na  Na14  1  0.78005056  0.78005056  0.21994944  1
  Na  Na15  1  0.21994944  0.78005056  0.78005056  1
  Hf  Hf0  1  0.75000000  0.75000000  0.75000000  1
  Hf  Hf1  1  0.50000000  0.50000000  0.50000000  1
  P  P0  1  0.85658272  0.85658272  0.43025485  1
  P  P1  1  0.85658272  0.43025485  0.85658272  1
  P  P2  1  0.39341728  0.39341728  0.81974515  1
  P  P3  1  0.39341728  0.81974515  0.39341728  1
  P  P4  1  0.81974515  0.39341728  0.39341728  1
  P  P5  1  0.85658272  0.85658272  0.85658272  1
  P  P6  1  0.43025485  0.85658272  0.85658272  1
  P  P7  1  0.39341728  0.39341728  0.39341728  1
loop_
_geom_bond_atom_site_label_1
_geom_bond_atom_site_label_2
_geom_bond_distance
_geom_bond_site_symmetry_2
Na0 P4 3.158677 1_555
Na0 P6 3.158677 1_554
Na0 P3 3.158677 1_555
Na0 P1 3.158677 1_554
Na0 P5 3.158695 1_554
Na0 P7 3.158695 1_555
Na1 P4 3.158677 1_555
Na1 P6 3.158677 1_545
Na1 P2 3.158677 1_555
Na1 P0 3.158677 1_545
Na1 P5 3.158695 1_545
Na1 P7 3.158695 1_555
Na2 P3 3.158677 1_555
Na2 P1 3.158677 1_455
Na2 P2 3.158677 1_555
Na2 P0 3.158677 1_455
Na2 P5 3.158695 1_455
Na2 P7 3.158695 1_555
Na3 P6 3.158698 1_555
Na3 P4 3.158698 1_555
Na3 P1 3.158698 1_555
Na3 P3 3.158698 1_555
Na3 P0 3.158698 1_555
Na3 P2 3.158698 1_555
Na4 P7 2.938287 1_555
Na4 P4 2.938314 1_455
Na4 P1 3.114830 1_455
Na4 P0 3.114831 1_455
Na5 P1 2.938293 1_554
Na5 P0 2.938293 1_545
Na5 P4 3.114806 1_555
Na5 P7 3.114825 1_555
Na6 P7 2.938287 1_555
Na6 P3 2.938314 1_545
Na6 P6 3.114830 1_545
Na6 P0 3.114831 1_545
Na7 P7 2.938287 1_555
Na7 P2 2.938314 1_554
Na7 P6 3.114830 1_554
Na7 P1 3.114831 1_554
Na8 P4 2.938293 1_455
Na8 P3 2.938293 1_545
Na8 P0 3.114806 1_445
Na8 P5 3.114824 1_445
Na9 P4 2.938293 1_455
Na9 P2 2.938293 1_554
Na9 P1 3.114806 1_454
Na9 P5 3.114824 1_454
Na10 P3 2.938293 1_545
Na10 P2 2.938293 1_554
Na10 P6 3.114806 1_544
Na10 P5 3.114825 1_544
Na11 P5 2.938287 1_545
Na11 P1 2.938314 1_555
Na11 P4 3.114830 1_555
Na11 P2 3.114831 1_555
Na12 P6 2.938293 1_554
Na12 P0 2.938293 1_455
Na12 P3 3.114806 1_555
Na12 P7 3.114824 1_555
Na13 P6 2.938293 1_545
Na13 P1 2.938293 1_455
Na13 P2 3.114806 1_555
Na13 P7 3.114824 1_555
Na14 P5 2.938287 1_554
Na14 P0 2.938314 1_555
Na14 P4 3.114830 1_555
Na14 P3 3.114831 1_555
Na15 P5 2.938287 1_455
Na15 P6 2.938314 1_555
Na15 P3 3.114830 1_555
Na15 P2 3.114831 1_555
Hf0 P0 2.502161 1_555
Hf0 P1 2.502162 1_555
Hf0 P6 2.502162 1_555
Hf0 P5 2.502185 1_555
Hf0 Na0 2.934557 1_556
Hf0 Na1 2.934558 1_565
Hf0 Na2 2.934558 1_655
Hf0 Na3 2.934558 1_555
Hf1 P2 2.502161 1_555
Hf1 P3 2.502162 1_555
Hf1 P4 2.502162 1_555
Hf1 P7 2.502185 1_555
Hf1 Na0 2.934557 1_555
Hf1 Na1 2.934558 1_555
Hf1 Na2 2.934558 1_555
Hf1 Na3 2.934558 1_555
