# generated using pymatgen
data_ZnFeRhO4
_symmetry_space_group_name_H-M   'P 1'
_cell_length_a   5.97493605
_cell_length_b   5.97493545
_cell_length_c   5.97493619
_cell_angle_alpha   120.37275536
_cell_angle_beta   118.78530388
_cell_angle_gamma   90.73612985
_symmetry_Int_Tables_number   1
_chemical_formula_structural   ZnFeRhO4
_chemical_formula_sum   'Zn2 Fe2 Rh2 O8'
_cell_volume   151.73928159
_cell_formula_units_Z   2
loop_
 _symmetry_equiv_pos_site_id
 _symmetry_equiv_pos_as_xyz
  1  'x, y, z'
loop_
 _atom_site_type_symbol
 _atom_site_label
 _atom_site_symmetry_multiplicity
 _atom_site_fract_x
 _atom_site_fract_y
 _atom_site_fract_z
 _atom_site_occupancy
  Zn  Zn0  1  0.11848681  0.86848681  0.25000000  1
  Zn  Zn1  1  0.88151319  0.13151319  0.75000000  1
  Fe  Fe0  1  0.50000000  0.50000000  0.50000000  1
  Fe  Fe1  1  0.50000000  0.00000000  0.00000000  1
  Rh  Rh0  1  0.50000000  0.50000000  0.00000000  1
  Rh  Rh1  1  0.00000000  0.50000000  0.50000000  1
  O  O0  1  0.74181870  0.26107375  0.01925505  1
  O  O1  1  0.74181870  0.72256365  0.48074495  1
  O  O2  1  0.73320176  0.25587440  0.47732636  1
  O  O3  1  0.27854804  0.25587440  0.02267364  1
  O  O4  1  0.25818130  0.73892625  0.98074495  1
  O  O5  1  0.25818130  0.27743635  0.51925505  1
  O  O6  1  0.26679824  0.74412560  0.52267364  1
  O  O7  1  0.72145196  0.74412560  0.97732636  1
loop_
_geom_bond_atom_site_label_1
_geom_bond_atom_site_label_2
_geom_bond_distance
_geom_bond_site_symmetry_2
Fe0 O7 2.030173 1_555
Fe0 O3 2.030173 1_555
Fe0 O6 2.030178 1_555
Fe0 O2 2.030178 1_555
Fe0 O1 2.033380 1_555
Fe0 O5 2.033380 1_555
Fe1 O3 2.030173 1_555
Fe1 O7 2.030173 1_544
Fe1 O2 2.030173 1_555
Fe1 O6 2.030173 1_544
Fe1 O4 2.033380 1_544
Fe1 O0 2.033380 1_555
O0 Zn1 1.983558 1_554
O0 Rh0 2.048849 1_555
O0 Rh1 2.048849 1_655
O1 Zn1 1.983558 1_565
O1 Rh1 2.048849 1_655
O1 Rh0 2.048849 1_555
O2 Zn1 1.960212 1_555
O2 Rh1 2.054160 1_655
O3 Zn1 1.960213 1_454
O3 Rh0 2.054165 1_555
O4 Zn0 1.983558 1_556
O4 Rh0 2.048849 1_556
O4 Rh1 2.048849 1_555
O5 Zn0 1.983558 1_545
O5 Rh1 2.048849 1_555
O5 Rh0 2.048849 1_556
O6 Zn0 1.960212 1_555
O6 Rh1 2.054160 1_555
O7 Zn0 1.960213 1_656
O7 Rh0 2.054165 1_556
