# generated using pymatgen
data_BaP8
_symmetry_space_group_name_H-M   'P 1'
_cell_length_a   6.84241928
_cell_length_b   7.32002861
_cell_length_c   8.66772568
_cell_angle_alpha   86.52435123
_cell_angle_beta   83.84426704
_cell_angle_gamma   70.30536817
_symmetry_Int_Tables_number   1
_chemical_formula_structural   BaP8
_chemical_formula_sum   'Ba2 P16'
_cell_volume   406.24585215
_cell_formula_units_Z   2
loop_
 _symmetry_equiv_pos_site_id
 _symmetry_equiv_pos_as_xyz
  1  'x, y, z'
loop_
 _atom_site_type_symbol
 _atom_site_label
 _atom_site_symmetry_multiplicity
 _atom_site_fract_x
 _atom_site_fract_y
 _atom_site_fract_z
 _atom_site_occupancy
  Ba  Ba0  1  0.73698452  0.66491771  0.31915299  1
  Ba  Ba1  1  0.26301548  0.33508229  0.68084601  1
  P  P0  1  0.47803594  0.66925255  0.79811629  1
  P  P1  1  0.52196406  0.33074745  0.20188371  1
  P  P2  1  0.01107231  0.04282422  0.61756402  1
  P  P3  1  0.98892769  0.95717578  0.38243598  1
  P  P4  1  0.09098166  0.17982595  0.24107350  1
  P  P5  1  0.90901834  0.82017405  0.75892650  1
  P  P6  1  0.14231594  0.04670918  0.00416119  1
  P  P7  1  0.85768406  0.95329082  -0.00416119  1
  P  P8  1  0.23527254  0.67726585  0.39397838  1
  P  P9  1  0.76472746  0.32273415  0.60602162  1
  P  P10  1  0.23899663  0.58008952  0.15722834  1
  P  P11  1  0.76100337  0.41991048  0.84277166  1
  P  P12  1  0.39525206  0.12426611  0.32547578  1
  P  P13  1  0.60474794  0.87573389  0.67452422  1
  P  P14  1  0.40116283  0.77374248  0.03905196  1
  P  P15  1  0.59883717  0.22625752  0.96094804  1
loop_
_geom_bond_atom_site_label_1
_geom_bond_atom_site_label_2
_geom_bond_distance
_geom_bond_site_symmetry_2
Ba0 P3 3.268075 1_555
Ba0 P12 3.387051 1_565
Ba0 P9 3.393861 1_555
Ba0 P8 3.396210 1_555
Ba0 P14 3.396645 1_555
Ba0 P13 3.424267 1_555
Ba0 P10 3.433455 1_655
Ba0 P1 3.497039 1_555
Ba0 P8 3.569668 1_655
Ba0 P7 3.599004 1_555
Ba0 P4 3.616145 1_655
Ba1 P2 3.268073 1_555
Ba1 P13 3.387050 1_545
Ba1 P8 3.393855 1_555
Ba1 P9 3.396209 1_555
Ba1 P15 3.396652 1_555
Ba1 P12 3.424259 1_555
Ba1 P11 3.433458 1_455
Ba1 P0 3.497042 1_555
Ba1 P9 3.569666 1_455
Ba1 P6 3.599010 1_556
Ba1 P5 3.616146 1_455
P0 P13 2.161377 1_555
P0 P14 2.215826 1_556
P0 P11 2.218807 1_555
P1 P12 2.161377 1_555
P1 P15 2.215826 1_554
P1 P10 2.218807 1_555
P2 P9 2.175523 1_455
P2 P3 2.203350 1_445
P2 P5 2.233087 1_445
P3 P8 2.175523 1_655
P3 P4 2.233087 1_665
P4 P6 2.268684 1_555
P5 P7 2.268684 1_556
P6 P7 2.280266 1_445
P10 P8 2.207091 1_555
P10 P14 2.220418 1_555
P11 P9 2.207091 1_555
P11 P15 2.220418 1_555
P12 P4 2.180590 1_555
P13 P5 2.180590 1_555
P14 P6 2.208437 1_565
P15 P7 2.208437 1_546
