# generated using pymatgen
data_Ca3Si(Ni3B)2
_symmetry_space_group_name_H-M   'P 1'
_cell_length_a   7.50091252
_cell_length_b   7.50091197
_cell_length_c   7.50091169
_cell_angle_alpha   40.51413005
_cell_angle_beta   40.51413643
_cell_angle_gamma   40.51413050
_symmetry_Int_Tables_number   1
_chemical_formula_structural   Ca3Si(Ni3B)2
_chemical_formula_sum   'Ca3 Si1 Ni6 B2'
_cell_volume   160.63905859
_cell_formula_units_Z   1
loop_
 _symmetry_equiv_pos_site_id
 _symmetry_equiv_pos_as_xyz
  1  'x, y, z'
loop_
 _atom_site_type_symbol
 _atom_site_label
 _atom_site_symmetry_multiplicity
 _atom_site_fract_x
 _atom_site_fract_y
 _atom_site_fract_z
 _atom_site_occupancy
  Ca  Ca0  1  0.64472013  0.64472013  0.64472013  1
  Ca  Ca1  1  0.35527987  0.35527987  0.35527987  1
  Ca  Ca2  1  0.50000000  0.50000000  0.50000000  1
  Si  Si0  1  0.00000000  0.00000000  0.00000000  1
  Ni  Ni0  1  0.57364741  0.06132446  0.06132446  1
  Ni  Ni1  1  0.06132446  0.06132446  0.57364741  1
  Ni  Ni2  1  0.06132446  0.57364741  0.06132446  1
  Ni  Ni3  1  0.93867554  0.42635259  0.93867554  1
  Ni  Ni4  1  0.93867554  0.93867554  0.42635259  1
  Ni  Ni5  1  0.42635259  0.93867554  0.93867554  1
  B  B0  1  0.82930576  0.82930576  0.82930576  1
  B  B1  1  0.17069424  0.17069424  0.17069424  1
loop_
_geom_bond_atom_site_label_1
_geom_bond_atom_site_label_2
_geom_bond_distance
_geom_bond_site_symmetry_2
Ca0 Ni5 2.969145 1_555
Ca0 Ni3 2.969145 1_555
Ca0 Ni4 2.969145 1_555
Ca0 Ca2 2.985013 1_555
Ca0 Si0 3.032801 1_656
Ca0 Si0 3.032801 1_665
Ca0 Si0 3.032801 1_566
Ca0 Ni0 3.069306 1_565
Ca0 Ni1 3.069306 1_655
Ca0 Ni0 3.069306 1_556
Ca0 Ni2 3.069306 1_655
Ca0 Ni1 3.069306 1_565
Ca0 Ni2 3.069306 1_556
Ca1 Ni0 2.969145 1_555
Ca1 Ni2 2.969145 1_555
Ca1 Ni1 2.969145 1_555
Ca1 Ca2 2.985013 1_555
Ca1 Si0 3.032801 1_565
Ca1 Si0 3.032801 1_556
Ca1 Si0 3.032801 1_655
Ca1 Ni5 3.069306 1_545
Ca1 Ni4 3.069306 1_455
Ca1 Ni5 3.069306 1_554
Ca1 Ni3 3.069306 1_455
Ca1 Ni4 3.069306 1_545
Ca1 Ni3 3.069306 1_554
Ca2 Ni0 2.927036 1_556
Ca2 Ni5 2.927036 1_554
Ca2 Ni1 2.927036 1_565
Ca2 Ni4 2.927036 1_545
Ca2 Ni0 2.927036 1_565
Ca2 Ni5 2.927036 1_545
Ca2 Ni1 2.927036 1_655
Ca2 Ni4 2.927036 1_455
Ca2 Ni2 2.927036 1_556
Ca2 Ni3 2.927036 1_554
Ca2 Ni2 2.927037 1_655
Ca2 Ni3 2.927037 1_455
Ni0 Si0 2.549284 1_655
Ni1 Si0 2.549283 1_556
Ni2 Si0 2.549283 1_565
Ni3 Si0 2.549283 1_656
Ni4 Si0 2.549283 1_665
Ni5 Si0 2.549284 1_566
B0 Ni4 1.991116 1_555
B0 Ni3 1.991116 1_555
B0 Ni5 1.991116 1_555
B0 Ni2 2.047283 1_656
B0 Ni0 2.047283 1_566
B0 Ni1 2.047284 1_665
B0 Ca2 2.999978 1_565
B0 Ca2 2.999979 1_556
B0 Ca2 2.999979 1_655
B1 Ni1 1.991116 1_555
B1 Ni2 1.991116 1_555
B1 Ni0 1.991116 1_555
B1 Ni3 2.047283 1_454
B1 Ni5 2.047283 1_544
B1 Ni4 2.047284 1_445
B1 Ca2 2.999978 1_545
B1 Ca2 2.999979 1_554
B1 Ca2 2.999979 1_455
