# generated using pymatgen
data_TiGaRuRh
_symmetry_space_group_name_H-M   'P 1'
_cell_length_a   4.28571987
_cell_length_b   4.28571993
_cell_length_c   4.28572109
_cell_angle_alpha   60.00000617
_cell_angle_beta   60.00000571
_cell_angle_gamma   59.99999991
_symmetry_Int_Tables_number   1
_chemical_formula_structural   TiGaRuRh
_chemical_formula_sum   'Ti1 Ga1 Ru1 Rh1'
_cell_volume   55.66170598
_cell_formula_units_Z   1
loop_
 _symmetry_equiv_pos_site_id
 _symmetry_equiv_pos_as_xyz
  1  'x, y, z'
loop_
 _atom_site_type_symbol
 _atom_site_label
 _atom_site_symmetry_multiplicity
 _atom_site_fract_x
 _atom_site_fract_y
 _atom_site_fract_z
 _atom_site_occupancy
  Ti  Ti0  1  0.25000000  0.25000000  0.25000000  1
  Ga  Ga0  1  0.75000000  0.75000000  0.75000000  1
  Ru  Ru0  1  0.00000000  0.00000000  0.00000000  1
  Rh  Rh0  1  0.50000000  0.50000000  0.50000000  1
loop_
_geom_bond_atom_site_label_1
_geom_bond_atom_site_label_2
_geom_bond_distance
_geom_bond_site_symmetry_2
Ga0 Rh0 2.624457 1_655
Ga0 Ru0 2.624457 1_566
Ga0 Ru0 2.624457 1_656
Ga0 Rh0 2.624457 1_565
Ga0 Ru0 2.624457 1_666
Ga0 Rh0 2.624457 1_555
Ga0 Rh0 2.624458 1_556
Ga0 Ru0 2.624458 1_665
Ru0 Ti0 2.624457 1_455
Ru0 Ti0 2.624457 1_545
Ru0 Ti0 2.624457 1_555
Ru0 Ti0 2.624458 1_554
Rh0 Ti0 2.624457 1_655
Rh0 Ti0 2.624457 1_565
Rh0 Ti0 2.624457 1_555
Rh0 Ti0 2.624458 1_556
