# generated using pymatgen
data_Be2Al2Os2Ru
_symmetry_space_group_name_H-M   'P 1'
_cell_length_a   8.81583173
_cell_length_b   8.81583150
_cell_length_c   3.05397195
_cell_angle_alpha   90.00000000
_cell_angle_beta   90.00000000
_cell_angle_gamma   159.81963181
_symmetry_Int_Tables_number   1
_chemical_formula_structural   Be2Al2Os2Ru
_chemical_formula_sum   'Be2 Al2 Os2 Ru1'
_cell_volume   81.88064810
_cell_formula_units_Z   1
loop_
 _symmetry_equiv_pos_site_id
 _symmetry_equiv_pos_as_xyz
  1  'x, y, z'
loop_
 _atom_site_type_symbol
 _atom_site_label
 _atom_site_symmetry_multiplicity
 _atom_site_fract_x
 _atom_site_fract_y
 _atom_site_fract_z
 _atom_site_occupancy
  Be  Be0  1  0.28484647  0.71515353  0.50000000  1
  Be  Be1  1  0.71515353  0.28484647  0.50000000  1
  Al  Al0  1  0.42118273  0.57881727  0.50000000  1
  Al  Al1  1  0.57881727  0.42118273  0.50000000  1
  Os  Os0  1  0.17382547  0.82617453  0.00000000  1
  Os  Os1  1  0.82617453  0.17382547  0.00000000  1
  Ru  Ru0  1  0.00000000  0.00000000  0.00000000  1
loop_
_geom_bond_atom_site_label_1
_geom_bond_atom_site_label_2
_geom_bond_distance
_geom_bond_site_symmetry_2
Be0 Be1 1.961922 1_565
Be0 Be1 1.961923 1_455
Be0 Os1 2.287334 1_455
Be0 Os1 2.287334 1_456
Be0 Os1 2.287334 1_566
Be0 Os1 2.287334 1_565
Be0 Os0 2.458825 1_555
Be0 Os0 2.458825 1_556
Be1 Os0 2.287334 1_655
Be1 Os0 2.287334 1_656
Be1 Os0 2.287334 1_546
Be1 Os0 2.287334 1_545
Be1 Os1 2.458825 1_555
Be1 Os1 2.458825 1_556
Al0 Be0 2.366655 1_555
Al0 Ru0 2.566934 1_555
Al0 Ru0 2.566934 1_556
Al0 Ru0 2.566934 1_665
Al0 Ru0 2.566934 1_666
Al0 Os1 2.727127 1_566
Al0 Os1 2.727127 1_565
Al0 Os1 2.727127 1_455
Al0 Os1 2.727127 1_456
Al1 Be1 2.366655 1_555
Al1 Ru0 2.566934 1_665
Al1 Ru0 2.566934 1_666
Al1 Ru0 2.566934 1_555
Al1 Ru0 2.566934 1_556
Al1 Os0 2.727127 1_546
Al1 Os0 2.727127 1_545
Al1 Os0 2.727127 1_656
Al1 Os0 2.727127 1_655
