# generated using pymatgen
data_Rb5SrTaAs4
_symmetry_space_group_name_H-M   'P 1'
_cell_length_a   10.74428621
_cell_length_b   10.74408917
_cell_length_c   8.09099524
_cell_angle_alpha   87.95940233
_cell_angle_beta   87.96592905
_cell_angle_gamma   120.67925040
_symmetry_Int_Tables_number   1
_chemical_formula_structural   Rb5SrTaAs4
_chemical_formula_sum   'Rb10 Sr2 Ta2 As8'
_cell_volume   801.20325506
_cell_formula_units_Z   2
loop_
 _symmetry_equiv_pos_site_id
 _symmetry_equiv_pos_as_xyz
  1  'x, y, z'
loop_
 _atom_site_type_symbol
 _atom_site_label
 _atom_site_symmetry_multiplicity
 _atom_site_fract_x
 _atom_site_fract_y
 _atom_site_fract_z
 _atom_site_occupancy
  Rb  Rb0  1  0.46695533  0.52431850  0.60383195  1
  Rb  Rb1  1  0.05801156  0.52723822  0.60693809  1
  Rb  Rb2  1  0.52431784  0.46694890  0.10384558  1
  Rb  Rb3  1  0.52720747  0.05800732  0.10690849  1
  Rb  Rb4  1  0.86466964  0.14120959  0.79229111  1
  Rb  Rb5  1  0.29848097  0.15522863  0.84026427  1
  Rb  Rb6  1  0.85591062  0.71868218  0.76204566  1
  Rb  Rb7  1  0.14122970  0.86469673  0.29230790  1
  Rb  Rb8  1  0.71866361  0.85588672  0.26203445  1
  Rb  Rb9  1  0.15520731  0.29847685  0.34028148  1
  Sr  Sr0  1  0.46355724  0.93479550  0.60030041  1
  Sr  Sr1  1  0.93481591  0.46354368  0.10028829  1
  Ta  Ta0  1  0.67092478  0.32802864  0.49985809  1
  Ta  Ta1  1  0.32803150  0.67092862  0.99997444  1
  As  As0  1  0.69024756  0.34188988  0.80568668  1
  As  As1  1  0.34189357  0.69028183  0.30587619  1
  As  As2  1  0.19610344  0.78994227  0.89259102  1
  As  As3  1  0.57855274  0.79817330  0.86684919  1
  As  As4  1  0.18763200  0.40949781  0.93641086  1
  As  As5  1  0.78982089  0.19605416  0.39257764  1
  As  As6  1  0.40957812  0.18765431  0.43642014  1
  As  As7  1  0.79818818  0.57851635  0.36682007  1
loop_
_geom_bond_atom_site_label_1
_geom_bond_atom_site_label_2
_geom_bond_distance
_geom_bond_site_symmetry_2
As0 Ta0 2.493869 1_555
As0 Sr1 3.384755 1_556
As0 Rb3 3.467943 1_556
As0 Rb6 3.490264 1_555
As0 Rb4 3.506884 1_555
As0 Rb5 3.616650 1_555
As0 Rb2 3.629522 1_556
As0 Rb1 3.668237 1_655
As1 Ta1 2.494495 1_554
As1 Sr0 3.383409 1_555
As1 Rb1 3.467232 1_555
As1 Rb8 3.490267 1_555
As1 Rb7 3.506701 1_555
As1 Rb9 3.616889 1_555
As1 Rb0 3.628450 1_555
As1 Rb3 3.668440 1_565
As2 Ta1 2.501415 1_555
As2 Sr0 3.311235 1_555
As2 Rb1 3.456041 1_555
As2 Rb7 3.461933 1_556
As2 Sr1 3.493170 1_456
As2 Rb5 3.497921 1_565
As2 Rb6 3.540865 1_455
As2 Rb3 3.780949 1_566
As3 Ta1 2.491681 1_555
As3 Sr0 3.185407 1_555
As3 Rb4 3.397945 1_565
As3 Rb0 3.413287 1_555
As3 Rb8 3.522025 1_556
As3 Rb6 3.577474 1_555
As3 Rb3 3.708382 1_566
As3 Rb2 3.741583 1_556
As4 Ta1 2.502747 1_555
As4 Sr1 3.298856 1_456
As4 Rb9 3.382262 1_556
As4 Rb4 3.468301 1_455
As4 Rb1 3.530907 1_555
As4 Rb5 3.590637 1_555
As4 Rb0 3.630675 1_555
As4 Rb2 3.664837 1_556
As5 Ta0 2.500651 1_555
As5 Sr1 3.311324 1_555
As5 Rb3 3.455441 1_555
As5 Rb4 3.462039 1_555
As5 Sr0 3.492397 1_545
As5 Rb9 3.498919 1_655
As5 Rb8 3.540968 1_545
As5 Rb1 3.782034 1_655
As6 Ta0 2.501733 1_555
As6 Sr0 3.298650 1_545
As6 Rb5 3.382374 1_555
As6 Rb7 3.468464 1_545
As6 Rb3 3.530907 1_555
As6 Rb9 3.591378 1_555
As6 Rb2 3.630365 1_555
As6 Rb0 3.664866 1_555
As7 Ta0 2.491026 1_555
As7 Sr1 3.185404 1_555
As7 Rb7 3.398209 1_655
As7 Rb2 3.413112 1_555
As7 Rb6 3.522627 1_555
As7 Rb8 3.577666 1_555
As7 Rb1 3.708013 1_655
As7 Rb0 3.742092 1_555
