# generated using pymatgen
data_Fe3O4
_symmetry_space_group_name_H-M   'P 1'
_cell_length_a   6.07221623
_cell_length_b   6.08476958
_cell_length_c   6.04861865
_cell_angle_alpha   60.10092980
_cell_angle_beta   59.26280075
_cell_angle_gamma   59.66409828
_symmetry_Int_Tables_number   1
_chemical_formula_structural   Fe3O4
_chemical_formula_sum   'Fe6 O8'
_cell_volume   156.84709860
_cell_formula_units_Z   2
loop_
 _symmetry_equiv_pos_site_id
 _symmetry_equiv_pos_as_xyz
  1  'x, y, z'
loop_
 _atom_site_type_symbol
 _atom_site_label
 _atom_site_symmetry_multiplicity
 _atom_site_fract_x
 _atom_site_fract_y
 _atom_site_fract_z
 _atom_site_occupancy
  Fe  Fe0  1  0.86937100  0.88096200  0.86725400  1
  Fe  Fe1  1  0.00390200  0.49785800  0.49775400  1
  Fe  Fe2  1  0.50014700  0.49694600  0.49763900  1
  Fe  Fe3  1  0.13308700  0.11774300  0.13013300  1
  Fe  Fe4  1  0.50154000  0.99441700  0.50050700  1
  Fe  Fe5  1  0.50198900  0.49926100  0.99622700  1
  O  O0  1  0.73027600  0.75277300  0.26492400  1
  O  O1  1  0.73565000  0.24768300  0.26938000  1
  O  O2  1  0.25625100  0.24322800  0.26838500  1
  O  O3  1  0.26312300  0.75588100  0.73322700  1
  O  O4  1  0.26675200  0.73342700  0.25998400  1
  O  O5  1  0.73973400  0.75999900  0.73395800  1
  O  O6  1  0.26694300  0.25248800  0.73641800  1
  O  O7  1  0.73123600  0.26733400  0.74421000  1
loop_
_geom_bond_atom_site_label_1
_geom_bond_atom_site_label_2
_geom_bond_distance
_geom_bond_site_symmetry_2
Fe0 O5 1.907118 1_555
Fe0 O7 1.919996 1_565
Fe0 O3 1.936158 1_655
Fe0 O0 1.955972 1_556
Fe1 O2 2.060344 1_555
Fe1 O5 2.122087 1_455
Fe1 O4 2.140053 1_555
Fe1 O6 2.159531 1_555
Fe1 O7 2.160886 1_455
Fe1 O0 2.181896 1_455
Fe2 O4 2.026275 1_555
Fe2 O1 2.032267 1_555
Fe2 O6 2.049169 1_555
Fe2 O7 2.055936 1_555
Fe2 O0 2.087920 1_555
Fe2 O3 2.106096 1_555
Fe3 O4 1.909822 1_545
Fe3 O2 1.922052 1_555
Fe3 O6 1.937031 1_554
Fe3 O1 1.953803 1_455
Fe4 O5 2.028834 1_555
Fe4 O0 2.030838 1_555
Fe4 O3 2.046120 1_555
Fe4 O2 2.054866 1_565
Fe4 O1 2.093745 1_565
Fe4 O6 2.104210 1_565
Fe5 O7 2.060134 1_555
Fe5 O4 2.120523 1_556
Fe5 O5 2.140375 1_555
Fe5 O2 2.155016 1_556
Fe5 O3 2.160323 1_555
Fe5 O1 2.183352 1_556
