# generated using pymatgen
data_Cs2Cd(S4O13)2
_symmetry_space_group_name_H-M   'P 1'
_cell_length_a   7.44664723
_cell_length_b   8.69411700
_cell_length_c   9.76253502
_cell_angle_alpha   108.10509830
_cell_angle_beta   89.36268186
_cell_angle_gamma   107.08692660
_symmetry_Int_Tables_number   1
_chemical_formula_structural   Cs2Cd(S4O13)2
_chemical_formula_sum   'Cs2 Cd1 S8 O26'
_cell_volume   571.99440365
_cell_formula_units_Z   1
loop_
 _symmetry_equiv_pos_site_id
 _symmetry_equiv_pos_as_xyz
  1  'x, y, z'
loop_
 _atom_site_type_symbol
 _atom_site_label
 _atom_site_symmetry_multiplicity
 _atom_site_fract_x
 _atom_site_fract_y
 _atom_site_fract_z
 _atom_site_occupancy
  Cs  Cs0  1  0.14238939  0.27382078  0.88675305  1
  Cs  Cs1  1  0.85761061  0.72617922  0.11324695  1
  Cd  Cd0  1  0.50000000  0.50000000  0.50000000  1
  S  S0  1  0.68656893  0.37469743  0.69906525  1
  S  S1  1  0.31343107  0.62530257  0.30093475  1
  S  S2  1  0.88787977  0.19479032  0.48167130  1
  S  S3  1  0.11212023  0.80520968  0.51832870  1
  S  S4  1  0.39725063  0.13723758  0.21310010  1
  S  S5  1  0.60274937  0.86276242  0.78689990  1
  S  S6  1  0.80568791  0.22015777  0.20028607  1
  S  S7  1  0.19431209  0.77984223  0.79971393  1
  O  O0  1  0.71453695  0.19381182  0.57287076  1
  O  O1  1  0.28546305  0.80618818  0.42712924  1
  O  O2  1  0.75263052  0.50256088  0.62656878  1
  O  O3  1  0.24736948  0.49743912  0.37343122  1
  O  O4  1  0.80137472  0.40067383  0.82433048  1
  O  O5  1  0.19862528  0.59932617  0.17566952  1
  O  O6  1  0.84724597  0.29577779  0.37578911  1
  O  O7  1  0.15275403  0.70422221  0.62421089  1
  O  O8  1  0.05685241  0.30247617  0.56685140  1
  O  O9  1  0.94314759  0.69752383  0.43314860  1
  O  O10  1  0.48580780  0.32186204  0.70125089  1
  O  O11  1  0.51419220  0.67813796  0.29874911  1
  O  O12  1  0.86484789  0.02447788  0.39861610  1
  O  O13  1  0.13515211  0.97552212  0.60138390  1
  O  O14  1  0.43359963  0.22939661  0.36792436  1
  O  O15  1  0.56640037  0.77060339  0.63207564  1
  O  O16  1  0.60998726  0.08484928  0.17792586  1
  O  O17  1  0.39001274  0.91515072  0.82207414  1
  O  O18  1  0.79776252  0.36381624  0.16517079  1
  O  O19  1  0.20223748  0.63618376  0.83482921  1
  O  O20  1  0.93635151  0.13251005  0.14275053  1
  O  O21  1  0.06364849  0.86748995  0.85724947  1
  O  O22  1  0.39104334  0.23782398  0.12387014  1
  O  O23  1  0.60895666  0.76217602  0.87612986  1
  O  O24  1  0.27188351  0.96965590  0.17723305  1
  O  O25  1  0.72811649  0.03034410  0.82276695  1
loop_
_geom_bond_atom_site_label_1
_geom_bond_atom_site_label_2
_geom_bond_distance
_geom_bond_site_symmetry_2
Cs0 O10 3.119831 1_555
Cs0 O22 3.125901 1_556
Cs0 O25 3.125948 1_455
Cs0 O13 3.149740 1_545
Cs0 O4 3.183438 1_455
Cs0 O5 3.241681 1_556
Cs0 O19 3.247031 1_555
Cs0 O20 3.290090 1_456
Cs0 O8 3.292768 1_555
Cs0 O21 3.325771 1_545
Cs1 O11 3.119831 1_555
Cs1 O23 3.125901 1_554
Cs1 O24 3.125948 1_655
Cs1 O12 3.149740 1_565
Cs1 O5 3.183438 1_655
Cs1 O4 3.241681 1_554
Cs1 O18 3.247031 1_555
Cs1 O21 3.290090 1_654
Cs1 O9 3.292768 1_555
Cs1 O20 3.325771 1_565
Cd0 O15 2.210705 1_555
Cd0 O14 2.210705 1_555
Cd0 O3 2.253083 1_555
Cd0 O2 2.253083 1_555
O0 S2 1.559386 1_555
O0 S0 1.736932 1_555
O1 S3 1.559386 1_555
O1 S1 1.736932 1_555
O2 S0 1.462392 1_555
O3 S1 1.462392 1_555
O4 S0 1.419695 1_555
O5 S1 1.419695 1_555
O6 S6 1.629637 1_555
O6 S2 1.630361 1_555
O7 S7 1.629637 1_555
O7 S3 1.630361 1_555
O8 S2 1.413661 1_455
O9 S3 1.413661 1_655
O10 S0 1.431190 1_555
O11 S1 1.431190 1_555
O12 S2 1.409622 1_555
O13 S3 1.409622 1_555
O14 S4 1.459031 1_555
O15 S5 1.459031 1_555
O16 S6 1.547688 1_555
O16 S4 1.774734 1_555
O17 S7 1.547688 1_555
O17 S5 1.774734 1_555
O18 S6 1.410974 1_555
O19 S7 1.410974 1_555
O20 S6 1.414369 1_555
O21 S7 1.414369 1_555
O22 S4 1.422624 1_555
O23 S5 1.422624 1_555
O24 S4 1.416975 1_565
O25 S5 1.416975 1_545
