# generated using pymatgen
data_K2Zn(IBr)2
_symmetry_space_group_name_H-M   'P 1'
_cell_length_a   7.00128222
_cell_length_b   7.00128296
_cell_length_c   11.30863031
_cell_angle_alpha   90.00000000
_cell_angle_beta   90.00000000
_cell_angle_gamma   108.61887453
_symmetry_Int_Tables_number   1
_chemical_formula_structural   K2Zn(IBr)2
_chemical_formula_sum   'K4 Zn2 I4 Br4'
_cell_volume   525.31436527
_cell_formula_units_Z   2
loop_
 _symmetry_equiv_pos_site_id
 _symmetry_equiv_pos_as_xyz
  1  'x, y, z'
loop_
 _atom_site_type_symbol
 _atom_site_label
 _atom_site_symmetry_multiplicity
 _atom_site_fract_x
 _atom_site_fract_y
 _atom_site_fract_z
 _atom_site_occupancy
  K  K0  1  0.61518400  0.61518400  0.50000000  1
  K  K1  1  0.61518400  0.61518400  0.00000000  1
  K  K2  1  0.24983348  0.89610439  0.25000000  1
  K  K3  1  0.89610439  0.24983348  0.75000000  1
  Zn  Zn0  1  0.84903239  0.29430183  0.25000000  1
  Zn  Zn1  1  0.29430183  0.84903239  0.75000000  1
  I  I0  1  0.04872113  0.46250909  0.43882484  1
  I  I1  1  0.46250909  0.04872113  0.56117516  1
  I  I2  1  0.04872113  0.46250909  0.06117516  1
  I  I3  1  0.46250909  0.04872113  0.93882484  1
  Br  Br0  1  0.52791605  0.35993921  0.25000000  1
  Br  Br1  1  0.35993921  0.52791605  0.75000000  1
  Br  Br2  1  0.77773014  0.93031207  0.25000000  1
  Br  Br3  1  0.93031207  0.77773014  0.75000000  1
loop_
_geom_bond_atom_site_label_1
_geom_bond_atom_site_label_2
_geom_bond_distance
_geom_bond_site_symmetry_2
I0 Zn0 2.617231 1_455
I0 K0 3.592505 1_455
I0 K2 3.609504 1_555
I0 K0 3.826630 1_555
I0 K3 3.837451 1_455
I1 Zn1 2.617231 1_545
I1 K0 3.592505 1_545
I1 K3 3.609503 1_555
I1 K0 3.826631 1_555
I1 K2 3.837451 1_545
I2 Zn0 2.617231 1_455
I2 K1 3.592505 1_455
I2 K2 3.609504 1_555
I2 K1 3.826630 1_555
I2 K3 3.837451 1_454
I3 Zn1 2.617231 1_545
I3 K1 3.592505 1_546
I3 K3 3.609503 1_555
I3 K1 3.826631 1_556
I3 K2 3.837451 1_546
Br0 Zn0 2.434219 1_555
Br0 K2 3.209236 1_545
Br0 K1 3.295822 1_555
Br0 K0 3.295822 1_555
Br1 Zn1 2.434219 1_555
Br1 K3 3.209235 1_455
Br1 K0 3.295822 1_555
Br1 K1 3.295822 1_556
Br2 Zn0 2.435403 1_565
Br2 K2 3.389401 1_655
Br2 K1 3.542939 1_555
Br2 K0 3.542939 1_555
Br2 K2 3.626598 1_555
Br3 Zn1 2.435403 1_655
Br3 K3 3.389401 1_565
Br3 K0 3.542939 1_555
Br3 K1 3.542939 1_556
Br3 K3 3.626598 1_555
