# generated using pymatgen
data_Zr3TaOs2N
_symmetry_space_group_name_H-M   'P 1'
_cell_length_a   8.69875579
_cell_length_b   8.69874685
_cell_length_c   8.69874679
_cell_angle_alpha   60.00005824
_cell_angle_beta   60.00009260
_cell_angle_gamma   60.00009263
_symmetry_Int_Tables_number   1
_chemical_formula_structural   Zr3TaOs2N
_chemical_formula_sum   'Zr12 Ta4 Os8 N4'
_cell_volume   465.43208792
_cell_formula_units_Z   4
loop_
 _symmetry_equiv_pos_site_id
 _symmetry_equiv_pos_as_xyz
  1  'x, y, z'
loop_
 _atom_site_type_symbol
 _atom_site_label
 _atom_site_symmetry_multiplicity
 _atom_site_fract_x
 _atom_site_fract_y
 _atom_site_fract_z
 _atom_site_occupancy
  Zr  Zr0  1  0.81279811  0.81279692  0.18720213  1
  Zr  Zr1  1  0.18720283  0.18720351  0.81279732  1
  Zr  Zr2  1  0.81279811  0.18720213  0.81279692  1
  Zr  Zr3  1  0.18720283  0.81279732  0.18720351  1
  Zr  Zr4  1  0.18720216  0.81279710  0.81279710  1
  Zr  Zr5  1  0.81279836  0.18720277  0.18720277  1
  Zr  Zr6  1  0.43720189  0.43720308  0.06279787  1
  Zr  Zr7  1  0.06279717  0.06279649  0.43720268  1
  Zr  Zr8  1  0.43720189  0.06279787  0.43720308  1
  Zr  Zr9  1  0.06279717  0.43720268  0.06279649  1
  Zr  Zr10  1  0.06279784  0.43720290  0.43720290  1
  Zr  Zr11  1  0.43720164  0.06279723  0.06279723  1
  Ta  Ta0  1  0.12500000  0.62500000  0.62500000  1
  Ta  Ta1  1  0.62500000  0.12500000  0.62500000  1
  Ta  Ta2  1  0.62500000  0.62500000  0.12500000  1
  Ta  Ta3  1  0.62500000  0.62500000  0.62500000  1
  Os  Os0  1  0.75002372  0.41665817  0.41665817  1
  Os  Os1  1  0.41665669  0.75002431  0.41665865  1
  Os  Os2  1  0.41665669  0.41665865  0.75002431  1
  Os  Os3  1  0.41665676  0.41665866  0.41665866  1
  Os  Os4  1  0.49997628  0.83334183  0.83334183  1
  Os  Os5  1  0.83334331  0.49997569  0.83334135  1
  Os  Os6  1  0.83334331  0.83334135  0.49997569  1
  Os  Os7  1  0.83334324  0.83334134  0.83334134  1
  N  N0  1  0.62500000  0.12500000  0.12500000  1
  N  N1  1  0.12500000  0.62500000  0.12500000  1
  N  N2  1  0.12500000  0.12500000  0.62500000  1
  N  N3  1  0.12500000  0.12500000  0.12500000  1
loop_
_geom_bond_atom_site_label_1
_geom_bond_atom_site_label_2
_geom_bond_distance
_geom_bond_site_symmetry_2
Os0 Ta2 2.663490 1_555
Os0 Ta1 2.663490 1_555
Os0 Ta3 2.663502 1_555
Os0 Os3 2.899874 1_555
Os0 Os2 2.899877 1_555
Os0 Os1 2.899877 1_555
Os0 Zr9 2.910444 1_655
Os0 Zr7 2.910444 1_655
Os0 Zr10 2.910453 1_655
Os0 Zr5 3.173338 1_555
Os0 Zr2 3.173359 1_555
Os0 Zr0 3.173359 1_555
Os1 Ta0 2.663484 1_555
Os1 Ta2 2.663497 1_555
Os1 Ta3 2.663508 1_555
Os1 Os3 2.899863 1_555
Os1 Os2 2.899866 1_555
Os1 Zr7 2.910430 1_565
Os1 Zr11 2.910438 1_565
Os1 Zr8 2.910447 1_565
Os1 Zr3 3.173332 1_555
Os1 Zr4 3.173352 1_555
Os1 Zr0 3.173376 1_555
Os2 Ta0 2.663484 1_555
Os2 Ta1 2.663497 1_555
Os2 Ta3 2.663508 1_555
Os2 Os3 2.899863 1_555
Os2 Zr9 2.910430 1_556
Os2 Zr11 2.910438 1_556
Os2 Zr6 2.910447 1_556
Os2 Zr1 3.173332 1_555
Os2 Zr4 3.173352 1_555
Os2 Zr2 3.173376 1_555
Os3 Ta0 2.663493 1_555
Os3 Ta1 2.663505 1_555
Os3 Ta2 2.663505 1_555
Os3 Zr10 2.910418 1_555
Os3 Zr6 2.910427 1_555
Os3 Zr8 2.910427 1_555
Os3 Zr1 3.173347 1_555
Os3 Zr3 3.173347 1_555
Os3 Zr5 3.173370 1_555
Os4 Ta2 2.663490 1_556
Os4 Ta1 2.663490 1_565
Os4 Ta3 2.663502 1_555
Os4 Os7 2.899874 1_555
Os4 Os6 2.899877 1_555
Os4 Os5 2.899877 1_555
Os4 Zr3 2.910444 1_556
Os4 Zr1 2.910444 1_565
Os4 Zr4 2.910453 1_555
Os4 Zr11 3.173338 1_566
Os4 Zr8 3.173359 1_565
Os4 Zr6 3.173359 1_556
Os5 Ta0 2.663484 1_655
Os5 Ta2 2.663497 1_556
Os5 Ta3 2.663508 1_555
Os5 Os7 2.899863 1_555
Os5 Os6 2.899866 1_555
Os5 Zr1 2.910430 1_655
Os5 Zr5 2.910438 1_556
Os5 Zr2 2.910447 1_555
Os5 Zr9 3.173332 1_656
Os5 Zr10 3.173352 1_655
Os5 Zr6 3.173376 1_556
Os6 Ta0 2.663484 1_655
Os6 Ta1 2.663497 1_565
Os6 Ta3 2.663508 1_555
Os6 Os7 2.899863 1_555
Os6 Zr3 2.910430 1_655
Os6 Zr5 2.910438 1_565
Os6 Zr0 2.910447 1_555
Os6 Zr7 3.173332 1_665
Os6 Zr10 3.173352 1_655
Os6 Zr8 3.173376 1_565
Os7 Ta0 2.663493 1_655
Os7 Ta1 2.663505 1_565
Os7 Ta2 2.663505 1_556
Os7 Zr4 2.910418 1_655
Os7 Zr0 2.910427 1_556
Os7 Zr2 2.910427 1_565
Os7 Zr7 3.173347 1_665
Os7 Zr9 3.173347 1_656
Os7 Zr11 3.173370 1_566
N0 Zr2 2.305394 1_554
N0 Zr8 2.305394 1_555
N0 Zr6 2.305394 1_555
N0 Zr0 2.305394 1_545
N0 Zr5 2.305397 1_555
N0 Zr11 2.305397 1_555
N1 Zr6 2.305387 1_555
N1 Zr0 2.305387 1_455
N1 Zr10 2.305390 1_555
N1 Zr4 2.305390 1_554
N1 Zr3 2.305392 1_555
N1 Zr9 2.305392 1_555
N2 Zr8 2.305387 1_555
N2 Zr2 2.305387 1_455
N2 Zr10 2.305390 1_555
N2 Zr4 2.305390 1_545
N2 Zr1 2.305392 1_555
N2 Zr7 2.305392 1_555
N3 Zr11 2.305382 1_555
N3 Zr5 2.305382 1_455
N3 Zr7 2.305386 1_555
N3 Zr1 2.305386 1_554
N3 Zr9 2.305386 1_555
N3 Zr3 2.305386 1_545
