# generated using pymatgen
data_SrGd2O4
_symmetry_space_group_name_H-M   'P 1'
_cell_length_a   3.46932115
_cell_length_b   10.14486976
_cell_length_c   12.06768151
_cell_angle_alpha   90.00000000
_cell_angle_beta   90.00000000
_cell_angle_gamma   90.00000000
_symmetry_Int_Tables_number   1
_chemical_formula_structural   SrGd2O4
_chemical_formula_sum   'Sr4 Gd8 O16'
_cell_volume   424.73184032
_cell_formula_units_Z   4
loop_
 _symmetry_equiv_pos_site_id
 _symmetry_equiv_pos_as_xyz
  1  'x, y, z'
loop_
 _atom_site_type_symbol
 _atom_site_label
 _atom_site_symmetry_multiplicity
 _atom_site_fract_x
 _atom_site_fract_y
 _atom_site_fract_z
 _atom_site_occupancy
  Sr  Sr0  1  0.75000000  0.74899771  0.14902976  1
  Sr  Sr1  1  0.25000000  0.25100229  0.85097024  1
  Sr  Sr2  1  0.75000000  0.24899771  0.35097024  1
  Sr  Sr3  1  0.25000000  0.75100229  0.64902976  1
  Gd  Gd0  1  0.25000000  0.42472986  0.11208575  1
  Gd  Gd1  1  0.75000000  0.57527014  0.88791425  1
  Gd  Gd2  1  0.25000000  0.92472986  0.38791425  1
  Gd  Gd3  1  0.75000000  0.07527014  0.61208575  1
  Gd  Gd4  1  0.75000000  0.08144201  0.11144747  1
  Gd  Gd5  1  0.25000000  0.91855799  0.88855253  1
  Gd  Gd6  1  0.75000000  0.58144201  0.38855253  1
  Gd  Gd7  1  0.25000000  0.41855799  0.61144747  1
  O  O0  1  0.25000000  0.42675881  0.42095255  1
  O  O1  1  0.75000000  0.57324119  0.57904745  1
  O  O2  1  0.25000000  0.92675881  0.07904745  1
  O  O3  1  0.75000000  0.07324119  0.92095255  1
  O  O4  1  0.25000000  0.51100716  0.78363302  1
  O  O5  1  0.75000000  0.48899284  0.21636698  1
  O  O6  1  0.25000000  0.01100716  0.71636698  1
  O  O7  1  0.75000000  0.98899284  0.28363302  1
  O  O8  1  0.25000000  0.12964926  0.48101769  1
  O  O9  1  0.75000000  0.87035074  0.51898231  1
  O  O10  1  0.25000000  0.62964926  0.01898231  1
  O  O11  1  0.75000000  0.37035074  0.98101769  1
  O  O12  1  0.75000000  0.28608766  0.68024360  1
  O  O13  1  0.25000000  0.71391234  0.31975640  1
  O  O14  1  0.75000000  0.78608766  0.81975640  1
  O  O15  1  0.25000000  0.21391234  0.18024360  1
loop_
_geom_bond_atom_site_label_1
_geom_bond_atom_site_label_2
_geom_bond_distance
_geom_bond_site_symmetry_2
Gd0 O5 2.240028 1_455
Gd0 O5 2.240028 1_555
Gd0 O15 2.291424 1_555
Gd0 O10 2.363069 1_555
Gd0 O11 2.411456 1_554
Gd0 O11 2.411456 1_454
Gd1 O4 2.240028 1_655
Gd1 O4 2.240028 1_555
Gd1 O14 2.291424 1_555
Gd1 O11 2.363069 1_555
Gd1 O10 2.411456 1_556
Gd1 O10 2.411456 1_656
Gd2 O7 2.240028 1_455
Gd2 O7 2.240028 1_555
Gd2 O13 2.291424 1_555
Gd2 O8 2.363069 1_565
Gd2 O9 2.411456 1_555
Gd2 O9 2.411456 1_455
Gd3 O6 2.240028 1_555
Gd3 O6 2.240028 1_655
Gd3 O12 2.291424 1_555
Gd3 O9 2.363069 1_545
Gd3 O8 2.411456 1_555
Gd3 O8 2.411456 1_655
Gd4 O7 2.279740 1_545
Gd4 O3 2.300337 1_554
Gd4 O15 2.346135 1_555
Gd4 O15 2.346135 1_655
Gd4 O2 2.371590 1_545
Gd4 O2 2.371590 1_645
Gd5 O6 2.279740 1_565
Gd5 O2 2.300337 1_556
Gd5 O14 2.346135 1_555
Gd5 O14 2.346135 1_455
Gd5 O3 2.371590 1_565
Gd5 O3 2.371590 1_465
Gd6 O5 2.279740 1_555
Gd6 O1 2.300337 1_555
Gd6 O13 2.346135 1_555
Gd6 O13 2.346135 1_655
Gd6 O0 2.371590 1_555
Gd6 O0 2.371590 1_655
Gd7 O4 2.279740 1_555
Gd7 O0 2.300337 1_555
Gd7 O12 2.346135 1_455
Gd7 O12 2.346135 1_555
Gd7 O1 2.371590 1_455
Gd7 O1 2.371590 1_555
O0 Sr2 2.640907 1_455
O0 Sr2 2.640907 1_555
O1 Sr3 2.640907 1_555
O1 Sr3 2.640907 1_655
O2 Sr0 2.640907 1_455
O2 Sr0 2.640907 1_555
O3 Sr1 2.640907 1_555
O3 Sr1 2.640907 1_655
O4 Sr1 2.760049 1_555
O4 Sr3 2.926836 1_555
O5 Sr0 2.760049 1_555
O5 Sr2 2.926836 1_555
O6 Sr3 2.760049 1_545
O6 Sr1 2.926836 1_555
O7 Sr2 2.760049 1_565
O7 Sr0 2.926836 1_555
O8 Sr2 2.633999 1_455
O8 Sr2 2.633999 1_555
O9 Sr3 2.633999 1_655
O9 Sr3 2.633999 1_555
O10 Sr0 2.633999 1_555
O10 Sr0 2.633999 1_455
O11 Sr1 2.633999 1_555
O11 Sr1 2.633999 1_655
O12 Sr1 2.716702 1_655
O12 Sr1 2.716702 1_555
O13 Sr0 2.716702 1_455
O13 Sr0 2.716702 1_555
O14 Sr3 2.716702 1_555
O14 Sr3 2.716702 1_655
O15 Sr2 2.716702 1_455
O15 Sr2 2.716702 1_555
