# generated using pymatgen
data_KBaTaSe4
_symmetry_space_group_name_H-M   'P 1'
_cell_length_a   7.31331784
_cell_length_b   9.60116894
_cell_length_c   13.19670382
_cell_angle_alpha   90.00000000
_cell_angle_beta   90.00000000
_cell_angle_gamma   90.00000000
_symmetry_Int_Tables_number   1
_chemical_formula_structural   KBaTaSe4
_chemical_formula_sum   'K4 Ba4 Ta4 Se16'
_cell_volume   926.62503459
_cell_formula_units_Z   4
loop_
 _symmetry_equiv_pos_site_id
 _symmetry_equiv_pos_as_xyz
  1  'x, y, z'
loop_
 _atom_site_type_symbol
 _atom_site_label
 _atom_site_symmetry_multiplicity
 _atom_site_fract_x
 _atom_site_fract_y
 _atom_site_fract_z
 _atom_site_occupancy
  K  K0  1  0.25000000  0.63013198  0.57474241  1
  K  K1  1  0.75000000  0.36986802  0.42525759  1
  K  K2  1  0.25000000  0.13013198  0.92525759  1
  K  K3  1  0.75000000  0.86986802  0.07474241  1
  Ba  Ba0  1  0.75000000  0.02196326  0.67230906  1
  Ba  Ba1  1  0.75000000  0.52196326  0.82769094  1
  Ba  Ba2  1  0.25000000  0.47803674  0.17230906  1
  Ba  Ba3  1  0.25000000  0.97803674  0.32769094  1
  Ta  Ta0  1  0.25000000  0.72940237  0.92327417  1
  Ta  Ta1  1  0.75000000  0.77059763  0.42327417  1
  Ta  Ta2  1  0.75000000  0.27059763  0.07672583  1
  Ta  Ta3  1  0.25000000  0.22940237  0.57672583  1
  Se  Se0  1  0.25000000  0.98000212  0.58584499  1
  Se  Se1  1  0.75000000  0.01999788  0.41415501  1
  Se  Se2  1  0.25000000  0.48000212  0.91415501  1
  Se  Se3  1  0.75000000  0.51999788  0.08584499  1
  Se  Se4  1  0.48905029  0.67717791  0.34047456  1
  Se  Se5  1  0.98905029  0.32282209  0.65952544  1
  Se  Se6  1  0.01094971  0.17717791  0.15952544  1
  Se  Se7  1  0.51094971  0.82282209  0.84047456  1
  Se  Se8  1  0.51094971  0.32282209  0.65952544  1
  Se  Se9  1  0.01094971  0.67717791  0.34047456  1
  Se  Se10  1  0.98905029  0.82282209  0.84047456  1
  Se  Se11  1  0.48905029  0.17717791  0.15952544  1
  Se  Se12  1  0.75000000  0.19132520  0.90458891  1
  Se  Se13  1  0.25000000  0.80867480  0.09541109  1
  Se  Se14  1  0.75000000  0.69132520  0.59541109  1
  Se  Se15  1  0.25000000  0.30867480  0.40458891  1
loop_
_geom_bond_atom_site_label_1
_geom_bond_atom_site_label_2
_geom_bond_distance
_geom_bond_site_symmetry_2
K0 Se0 3.362356 1_555
K0 Se4 3.580248 1_555
K0 Se9 3.580248 1_555
K0 Se8 3.687752 1_555
K0 Se5 3.687752 1_455
K0 Se14 3.713588 1_455
K0 Se14 3.713588 1_555
K0 Se15 3.816774 1_555
K1 Se1 3.362356 1_555
K1 Se5 3.580248 1_555
K1 Se8 3.580248 1_555
K1 Se9 3.687752 1_655
K1 Se4 3.687752 1_555
K1 Se15 3.713588 1_655
K1 Se15 3.713588 1_555
K1 Se14 3.816774 1_555
K2 Se2 3.362356 1_555
K2 Se11 3.580248 1_556
K2 Se6 3.580248 1_556
K2 Se7 3.687752 1_545
K2 Se10 3.687752 1_445
K2 Se12 3.713588 1_455
K2 Se12 3.713588 1_555
K2 Se13 3.816774 1_546
K3 Se3 3.362356 1_555
K3 Se10 3.580248 1_554
K3 Se7 3.580248 1_554
K3 Se6 3.687752 1_665
K3 Se11 3.687752 1_565
K3 Se13 3.713588 1_655
K3 Se13 3.713588 1_555
K3 Se12 3.816774 1_564
Ba0 Se14 3.332768 1_545
Ba0 Se5 3.380655 1_555
Ba0 Se8 3.380655 1_555
Ba0 Se1 3.406835 1_555
Ba0 Se10 3.411314 1_545
Ba0 Se7 3.411314 1_545
Ba0 Se12 3.469921 1_555
Ba0 Se0 3.851680 1_545
Ba0 Se0 3.851680 1_645
Ba1 Se12 3.332768 1_555
Ba1 Se10 3.380655 1_555
Ba1 Se7 3.380655 1_555
Ba1 Se3 3.406835 1_556
Ba1 Se5 3.411314 1_555
Ba1 Se8 3.411314 1_555
Ba1 Se14 3.469921 1_555
Ba1 Se2 3.851680 1_555
Ba1 Se2 3.851680 1_655
Ba2 Se13 3.332768 1_555
Ba2 Se11 3.380655 1_555
Ba2 Se6 3.380655 1_555
Ba2 Se2 3.406835 1_554
Ba2 Se4 3.411314 1_555
Ba2 Se9 3.411314 1_555
Ba2 Se15 3.469921 1_555
Ba2 Se3 3.851680 1_555
Ba2 Se3 3.851680 1_455
Ba3 Se15 3.332768 1_565
Ba3 Se4 3.380655 1_555
Ba3 Se9 3.380655 1_555
Ba3 Se0 3.406835 1_555
Ba3 Se11 3.411314 1_565
Ba3 Se6 3.411314 1_565
Ba3 Se13 3.469921 1_555
Ba3 Se1 3.851680 1_465
Ba3 Se1 3.851680 1_565
Se0 Ta3 2.397556 1_565
Se1 Ta1 2.397556 1_545
Se2 Ta0 2.397556 1_555
Se3 Ta2 2.397556 1_555
Se4 Ta1 2.374968 1_555
Se5 Ta3 2.374968 1_655
Se6 Ta2 2.374968 1_455
Se7 Ta0 2.374968 1_555
Se8 Ta3 2.374968 1_555
Se9 Ta1 2.374968 1_455
Se10 Ta0 2.374968 1_655
Se11 Ta2 2.374968 1_555
Se12 Ta2 2.395753 1_556
Se13 Ta0 2.395753 1_554
Se14 Ta1 2.395753 1_555
Se15 Ta3 2.395753 1_555
