# generated using pymatgen
data_Eu2Sn5Au2
_symmetry_space_group_name_H-M   'P 1'
_cell_length_a   4.60004609
_cell_length_b   9.48777842
_cell_length_c   10.51181727
_cell_angle_alpha   88.47963938
_cell_angle_beta   90.00000000
_cell_angle_gamma   90.00000000
_symmetry_Int_Tables_number   1
_chemical_formula_structural   Eu2Sn5Au2
_chemical_formula_sum   'Eu4 Sn10 Au4'
_cell_volume   458.61853583
_cell_formula_units_Z   2
loop_
 _symmetry_equiv_pos_site_id
 _symmetry_equiv_pos_as_xyz
  1  'x, y, z'
loop_
 _atom_site_type_symbol
 _atom_site_label
 _atom_site_symmetry_multiplicity
 _atom_site_fract_x
 _atom_site_fract_y
 _atom_site_fract_z
 _atom_site_occupancy
  Eu  Eu0  1  0.75000000  0.63807193  0.24626854  1
  Eu  Eu1  1  0.25000000  0.36192807  0.75373146  1
  Eu  Eu2  1  0.75000000  0.09908214  0.24775409  1
  Eu  Eu3  1  0.25000000  0.90091786  0.75224591  1
  Sn  Sn0  1  0.25000000  0.13470397  0.47752365  1
  Sn  Sn1  1  0.75000000  0.86529603  0.52247635  1
  Sn  Sn2  1  0.25000000  0.36957561  0.24080665  1
  Sn  Sn3  1  0.75000000  0.63042439  0.75919335  1
  Sn  Sn4  1  0.25000000  0.60573328  0.52119838  1
  Sn  Sn5  1  0.75000000  0.39426672  0.47880162  1
  Sn  Sn6  1  0.25000000  0.61725126  0.98418043  1
  Sn  Sn7  1  0.75000000  0.38274874  0.01581957  1
  Sn  Sn8  1  0.75000000  0.10695810  0.88561048  1
  Sn  Sn9  1  0.25000000  0.89304190  0.11438952  1
  Au  Au0  1  0.75000000  0.14669610  0.62722989  1
  Au  Au1  1  0.25000000  0.85330390  0.37277011  1
  Au  Au2  1  0.75000000  0.82274448  0.97116464  1
  Au  Au3  1  0.25000000  0.17725552  0.02883536  1
loop_
_geom_bond_atom_site_label_1
_geom_bond_atom_site_label_2
_geom_bond_distance
_geom_bond_site_symmetry_2
Eu0 Sn5 3.320473 1_555
Eu0 Sn2 3.433742 1_555
Eu0 Sn2 3.433742 1_655
Eu0 Sn7 3.471003 1_555
Eu0 Sn9 3.589705 1_555
Eu0 Sn9 3.589705 1_655
Eu0 Sn6 3.598355 1_554
Eu0 Sn6 3.598355 1_654
Eu0 Sn1 3.661946 1_555
Eu0 Sn4 3.699914 1_555
Eu0 Sn4 3.699914 1_655
Eu1 Sn4 3.320473 1_555
Eu1 Sn3 3.433742 1_555
Eu1 Sn3 3.433742 1_455
Eu1 Sn6 3.471003 1_555
Eu1 Sn8 3.589705 1_455
Eu1 Sn8 3.589705 1_555
Eu1 Sn7 3.598355 1_556
Eu1 Sn7 3.598355 1_456
Eu1 Sn0 3.661946 1_555
Eu1 Sn5 3.699914 1_555
Eu1 Sn5 3.699914 1_455
Eu2 Sn9 3.349979 1_645
Eu2 Sn9 3.349979 1_545
Eu2 Sn0 3.358765 1_655
Eu2 Sn0 3.358765 1_555
Eu2 Sn2 3.445549 1_555
Eu2 Sn2 3.445549 1_655
Eu2 Sn7 3.583206 1_555
Eu2 Sn1 3.594395 1_545
Eu2 Sn5 3.755435 1_555
Eu3 Sn8 3.349979 1_565
Eu3 Sn8 3.349979 1_465
Eu3 Sn1 3.358765 1_555
Eu3 Sn1 3.358765 1_455
Eu3 Sn3 3.445549 1_455
Eu3 Sn3 3.445549 1_555
Eu3 Sn6 3.583206 1_555
Eu3 Sn0 3.594395 1_565
Eu3 Sn4 3.755435 1_555
Sn2 Sn7 3.298996 1_455
Sn2 Sn7 3.298996 1_555
Sn3 Sn6 3.298996 1_555
Sn3 Sn6 3.298996 1_655
Sn6 Sn9 2.985011 1_556
Sn6 Sn7 3.211179 1_556
Sn6 Sn7 3.211179 1_456
Sn7 Sn8 2.985011 1_554
Au0 Sn8 2.732167 1_555
Au0 Sn5 2.785178 1_555
Au0 Sn0 2.790884 1_555
Au0 Sn0 2.790884 1_655
Au0 Sn1 2.914909 1_545
Au0 Eu1 3.372318 1_555
Au0 Eu1 3.372318 1_655
Au0 Eu3 3.506021 1_545
Au0 Eu3 3.506021 1_645
Au1 Sn9 2.732167 1_555
Au1 Sn4 2.785178 1_555
Au1 Sn1 2.790884 1_455
Au1 Sn1 2.790884 1_555
Au1 Sn0 2.914909 1_565
Au1 Eu0 3.372318 1_455
Au1 Eu0 3.372318 1_555
Au1 Eu2 3.506021 1_465
Au1 Eu2 3.506021 1_565
Au2 Sn8 2.819844 1_565
Au2 Sn9 2.838120 1_556
Au2 Sn9 2.838120 1_656
Au2 Sn3 2.917213 1_555
Au2 Sn6 3.015941 1_555
Au2 Sn6 3.015941 1_655
Au2 Eu3 3.323450 1_655
Au2 Eu3 3.323450 1_555
Au2 Eu0 3.341234 1_556
Au3 Sn9 2.819844 1_545
Au3 Sn8 2.838120 1_554
Au3 Sn8 2.838120 1_454
Au3 Sn2 2.917213 1_555
Au3 Sn7 3.015941 1_555
Au3 Sn7 3.015941 1_455
Au3 Eu2 3.323450 1_455
Au3 Eu2 3.323450 1_555
Au3 Eu1 3.341234 1_554
