# generated using pymatgen
data_Tc2MoS4
_symmetry_space_group_name_H-M   'P 1'
_cell_length_a   6.47877695
_cell_length_b   6.46774166
_cell_length_c   6.47042527
_cell_angle_alpha   93.31557612
_cell_angle_beta   93.58084464
_cell_angle_gamma   92.79778218
_symmetry_Int_Tables_number   1
_chemical_formula_structural   Tc2MoS4
_chemical_formula_sum   'Tc4 Mo2 S8'
_cell_volume   269.77412604
_cell_formula_units_Z   2
loop_
 _symmetry_equiv_pos_site_id
 _symmetry_equiv_pos_as_xyz
  1  'x, y, z'
loop_
 _atom_site_type_symbol
 _atom_site_label
 _atom_site_symmetry_multiplicity
 _atom_site_fract_x
 _atom_site_fract_y
 _atom_site_fract_z
 _atom_site_occupancy
  Tc  Tc0  1  0.23235957  0.40884259  0.55042284  1
  Tc  Tc1  1  0.55176157  0.23247251  0.41070983  1
  Tc  Tc2  1  0.40828486  0.54890023  0.23324956  1
  Tc  Tc3  1  0.76551641  0.58934908  0.44867737  1
  Mo  Mo0  1  0.44770434  0.76800093  0.59077392  1
  Mo  Mo1  1  0.59197622  0.45165730  0.76928062  1
  S  S0  1  0.38212964  0.12987561  0.71888545  1
  S  S1  1  0.72005339  0.37948704  0.13296507  1
  S  S2  1  0.12480437  0.71802345  0.37884121  1
  S  S3  1  0.62063071  0.86931952  0.27283848  1
  S  S4  1  0.27328948  0.62113275  0.87286031  1
  S  S5  1  0.87431083  0.27902414  0.61967256  1
  S  S6  1  0.22494034  0.22353712  0.22473372  1
  S  S7  1  0.78223727  0.78037772  0.77608908  1
loop_
_geom_bond_atom_site_label_1
_geom_bond_atom_site_label_2
_geom_bond_distance
_geom_bond_site_symmetry_2
Mo0 S7 2.406028 1_555
Mo0 S4 2.421576 1_555
Mo0 S2 2.426057 1_555
Mo0 S0 2.502452 1_565
Mo0 S3 2.507737 1_555
Mo1 S7 2.401695 1_555
Mo1 S5 2.413547 1_555
Mo1 S0 2.424046 1_555
Mo1 S4 2.494486 1_555
Mo1 S1 2.522874 1_556
S0 Tc0 2.377272 1_555
S0 Tc1 2.445381 1_555
S1 Tc1 2.379875 1_555
S1 Tc3 2.380588 1_555
S1 Tc2 2.449306 1_555
S2 Tc2 2.397938 1_555
S2 Tc0 2.452168 1_555
S2 Tc3 2.510174 1_455
S3 Tc3 2.392770 1_555
S3 Tc2 2.422669 1_555
S3 Tc1 2.534034 1_565
S4 Tc0 2.423269 1_555
S4 Tc2 2.516339 1_556
S5 Tc1 2.413351 1_555
S5 Tc3 2.459062 1_555
S5 Tc0 2.504009 1_655
S6 Tc0 2.359919 1_555
S6 Tc2 2.361516 1_555
S6 Tc1 2.365693 1_555
S7 Tc3 2.383647 1_555
