# generated using pymatgen
data_K6ScSe4
_symmetry_space_group_name_H-M   'P 1'
_cell_length_a   10.63690753
_cell_length_b   10.63690736
_cell_length_c   7.92949624
_cell_angle_alpha   90.00000000
_cell_angle_beta   90.00000000
_cell_angle_gamma   120.00000352
_symmetry_Int_Tables_number   1
_chemical_formula_structural   K6ScSe4
_chemical_formula_sum   'K12 Sc2 Se8'
_cell_volume   776.97487310
_cell_formula_units_Z   2
loop_
 _symmetry_equiv_pos_site_id
 _symmetry_equiv_pos_as_xyz
  1  'x, y, z'
loop_
 _atom_site_type_symbol
 _atom_site_label
 _atom_site_symmetry_multiplicity
 _atom_site_fract_x
 _atom_site_fract_y
 _atom_site_fract_z
 _atom_site_occupancy
  K  K0  1  0.53096108  0.06192015  0.36154520  1
  K  K1  1  0.46903892  0.53096108  0.86154520  1
  K  K2  1  0.93807985  0.46903892  0.36154520  1
  K  K3  1  0.53096108  0.46903892  0.36154520  1
  K  K4  1  0.13225658  0.86774342  0.54311912  1
  K  K5  1  0.26451216  0.13225658  0.04311912  1
  K  K6  1  0.06192015  0.53096108  0.86154520  1
  K  K7  1  0.86774342  0.73548784  0.04311912  1
  K  K8  1  0.86774342  0.13225658  0.04311912  1
  K  K9  1  0.73548784  0.86774342  0.54311912  1
  K  K10  1  0.13225658  0.26451216  0.54311912  1
  K  K11  1  0.46903892  0.93807985  0.86154520  1
  Sc  Sc0  1  0.66666700  0.33333300  0.75774756  1
  Sc  Sc1  1  0.33333300  0.66666700  0.25774756  1
  Se  Se0  1  0.79850881  0.20149119  0.65089172  1
  Se  Se1  1  0.59701861  0.79850881  0.15089172  1
  Se  Se2  1  0.20149119  0.40298139  0.15089172  1
  Se  Se3  1  0.79850881  0.59701861  0.65089172  1
  Se  Se4  1  0.40298139  0.20149119  0.65089172  1
  Se  Se5  1  0.20149119  0.79850881  0.15089172  1
  Se  Se6  1  0.66666700  0.33333300  0.08268431  1
  Se  Se7  1  0.33333300  0.66666700  0.58268431  1
loop_
_geom_bond_atom_site_label_1
_geom_bond_atom_site_label_2
_geom_bond_distance
_geom_bond_site_symmetry_2
K0 Se6 3.337749 1_555
K0 Se0 3.367822 1_555
K0 Se4 3.367842 1_555
K0 Se1 3.619827 1_545
K0 Se5 3.619833 1_545
K1 Se7 3.337742 1_555
K1 Se1 3.367821 1_556
K1 Se2 3.367821 1_556
K1 Se4 3.619837 1_555
K1 Se3 3.619837 1_555
K2 Se6 3.337749 1_555
K2 Se0 3.367822 1_555
K2 Se3 3.367842 1_555
K2 Se2 3.619827 1_655
K2 Se5 3.619833 1_655
K3 Se6 3.337742 1_555
K3 Se4 3.367821 1_555
K3 Se3 3.367821 1_555
K3 Se1 3.619837 1_555
K3 Se2 3.619837 1_555
K4 Se5 3.361573 1_555
K4 Se4 3.376785 1_565
K4 Se3 3.376785 1_455
K4 Se7 3.717825 1_555
K5 Se4 3.361573 1_554
K5 Se2 3.376772 1_555
K5 Se5 3.376792 1_545
K5 Se6 3.717844 1_555
K6 Se7 3.337749 1_555
K6 Se5 3.367822 1_556
K6 Se2 3.367842 1_556
K6 Se3 3.619827 1_455
K6 Se0 3.619833 1_455
K7 Se3 3.361573 1_554
K7 Se1 3.376772 1_555
K7 Se5 3.376792 1_655
K7 Se6 3.717844 1_555
K8 Se0 3.361573 1_554
K8 Se1 3.376785 1_545
K8 Se2 3.376785 1_655
K8 Se6 3.717825 1_555
K9 Se1 3.361573 1_555
K9 Se3 3.376772 1_555
K9 Se0 3.376792 1_565
K9 Se7 3.717844 1_555
K10 Se2 3.361573 1_555
K10 Se4 3.376772 1_555
K10 Se0 3.376792 1_455
K10 Se7 3.717844 1_555
K11 Se7 3.337749 1_555
K11 Se5 3.367822 1_556
K11 Se1 3.367842 1_556
K11 Se4 3.619827 1_565
K11 Se0 3.619833 1_565
Sc0 Se0 2.572552 1_555
Sc0 Se3 2.572569 1_555
Sc0 Se4 2.572570 1_555
Sc0 Se6 2.576585 1_556
Sc1 Se5 2.572552 1_555
Sc1 Se2 2.572569 1_555
Sc1 Se1 2.572570 1_555
Sc1 Se7 2.576585 1_555
