# generated using pymatgen
data_Cs5Rb5(Tc3Se7)2
_symmetry_space_group_name_H-M   'P 1'
_cell_length_a   11.29031905
_cell_length_b   11.14174807
_cell_length_c   11.54041369
_cell_angle_alpha   58.81624395
_cell_angle_beta   59.34127787
_cell_angle_gamma   60.17690230
_symmetry_Int_Tables_number   1
_chemical_formula_structural   Cs5Rb5(Tc3Se7)2
_chemical_formula_sum   'Cs5 Rb5 Tc6 Se14'
_cell_volume   1013.25412602
_cell_formula_units_Z   1
loop_
 _symmetry_equiv_pos_site_id
 _symmetry_equiv_pos_as_xyz
  1  'x, y, z'
loop_
 _atom_site_type_symbol
 _atom_site_label
 _atom_site_symmetry_multiplicity
 _atom_site_fract_x
 _atom_site_fract_y
 _atom_site_fract_z
 _atom_site_occupancy
  Cs  Cs0  1  0.00024556  0.42299609  0.57245951  1
  Cs  Cs1  1  0.02463554  0.02130373  0.46920268  1
  Cs  Cs2  1  0.99473275  0.42503023  0.00362210  1
  Cs  Cs3  1  0.19710759  0.56920847  0.11257466  1
  Cs  Cs4  1  0.56641481  0.18382828  0.12199101  1
  Rb  Rb0  1  0.00542752  0.01059887  0.98924347  1
  Rb  Rb1  1  0.41630523  0.98816957  0.00388888  1
  Rb  Rb2  1  0.41572307  0.99453562  0.58792124  1
  Rb  Rb3  1  0.84388293  0.84780667  0.87252830  1
  Rb  Rb4  1  0.84005511  0.84152430  0.42631182  1
  Tc  Tc0  1  0.38190863  0.61937314  0.61120013  1
  Tc  Tc1  1  0.38206379  0.37827546  0.61945072  1
  Tc  Tc2  1  0.38071666  0.61763232  0.38544343  1
  Tc  Tc3  1  0.61700432  0.38111366  0.61361804  1
  Tc  Tc4  1  0.61738974  0.61971018  0.37840536  1
  Tc  Tc5  1  0.61605271  0.37932678  0.38711655  1
  Se  Se0  1  0.21956728  0.20854204  0.78726086  1
  Se  Se1  1  0.20090030  0.79141925  0.76402825  1
  Se  Se2  1  0.38891090  0.38567122  0.83158830  1
  Se  Se3  1  0.16367350  0.60897768  0.61295161  1
  Se  Se4  1  0.61104013  0.61660036  0.60351768  1
  Se  Se5  1  0.19848493  0.78599912  0.24259768  1
  Se  Se6  1  0.38773414  0.38287777  0.39439826  1
  Se  Se7  1  0.39606302  0.84258966  0.37807428  1
  Se  Se8  1  0.60972060  0.15649705  0.61717681  1
  Se  Se9  1  0.78345451  0.20357081  0.77101014  1
  Se  Se10  1  0.83468001  0.39480503  0.38331726  1
  Se  Se11  1  0.60842265  0.61330382  0.16639462  1
  Se  Se12  1  0.79119354  0.78382350  0.20450095  1
  Se  Se13  1  0.78128952  0.19969632  0.24300839  1
loop_
_geom_bond_atom_site_label_1
_geom_bond_atom_site_label_2
_geom_bond_distance
_geom_bond_site_symmetry_2
Cs0 Se9 3.413105 1_455
Cs0 Se0 3.496733 1_555
Cs0 Se6 3.660560 1_555
Cs0 Se3 3.688074 1_555
Cs0 Se10 3.716535 1_455
Cs0 Se4 3.722538 1_455
Cs1 Se10 3.452399 1_455
Cs1 Se7 3.467271 1_545
Cs1 Se3 3.729874 1_545
Cs1 Se5 3.783053 1_545
Cs1 Se8 3.823175 1_455
Cs1 Se13 3.850039 1_455
Cs1 Se1 3.861096 1_545
Cs1 Se9 3.977699 1_455
Cs2 Se13 3.433396 1_555
Cs2 Se0 3.489838 1_654
Cs2 Se11 3.684683 1_555
Cs2 Se10 3.685264 1_555
Cs2 Se3 3.703303 1_654
Cs2 Se2 3.726852 1_654
Cs3 Se5 3.449718 1_555
Cs3 Se1 3.453676 1_554
Cs3 Se12 3.822942 1_455
Cs3 Se2 3.832377 1_554
Cs3 Se6 3.901571 1_555
Cs4 Se9 3.456932 1_554
Cs4 Se13 3.464810 1_555
Cs4 Se12 3.745634 1_545
Cs4 Se2 3.855831 1_554
Cs4 Se6 3.895258 1_555
Cs4 Se7 4.090107 1_545
Rb0 Se0 3.221042 1_555
Rb0 Se12 3.443332 1_446
Rb0 Se9 3.565998 1_455
Rb0 Se13 3.598283 1_456
Rb0 Se1 3.598851 1_545
Rb0 Se5 3.613739 1_546
Rb1 Se5 3.299315 1_555
Rb1 Se0 3.330823 1_564
Rb1 Se11 3.562662 1_555
Rb1 Se7 3.665966 1_555
Rb1 Se8 3.697267 1_564
Rb1 Se2 3.716095 1_564
Rb2 Se1 3.286948 1_555
Rb2 Se0 3.333817 1_565
Rb2 Se4 3.607004 1_555
Rb2 Se6 3.627917 1_565
Rb2 Se8 3.672071 1_565
Rb2 Se7 3.734663 1_555
Rb3 Se12 3.287656 1_556
Rb3 Se9 3.296400 1_565
Rb3 Se1 3.370266 1_655
Rb3 Se11 3.732711 1_556
Rb4 Se12 3.281352 1_555
Rb4 Se13 3.300942 1_565
Rb4 Se5 3.372285 1_655
Rb4 Se4 3.590708 1_555
Se0 Tc1 2.593750 1_555
Se1 Tc0 2.624936 1_555
Se2 Tc3 2.521457 1_555
Se2 Tc0 2.529271 1_555
Se2 Tc1 2.532684 1_555
Se3 Tc0 2.513063 1_555
Se3 Tc2 2.513752 1_555
Se3 Tc1 2.525344 1_555
Se4 Tc0 2.527974 1_555
Se4 Tc3 2.533311 1_555
Se4 Tc4 2.544541 1_555
Se5 Tc2 2.624378 1_555
Se6 Tc5 2.516884 1_555
Se6 Tc2 2.525967 1_555
Se6 Tc1 2.539280 1_555
Se7 Tc4 2.497738 1_555
Se7 Tc0 2.544945 1_555
Se7 Tc2 2.552562 1_555
Se8 Tc3 2.523170 1_555
Se8 Tc5 2.524853 1_555
Se8 Tc1 2.528668 1_555
Se9 Tc3 2.608968 1_555
Se10 Tc4 2.486186 1_555
Se10 Tc3 2.533483 1_555
Se10 Tc5 2.535690 1_555
Se11 Tc2 2.525285 1_555
Se11 Tc5 2.532902 1_555
Se11 Tc4 2.538170 1_555
Se12 Tc4 2.640860 1_555
Se13 Tc5 2.611643 1_555
