# generated using pymatgen
data_In6TcIr
_symmetry_space_group_name_H-M   'P 1'
_cell_length_a   7.06688856
_cell_length_b   7.06688943
_cell_length_c   7.35382582
_cell_angle_alpha   90.00000000
_cell_angle_beta   90.00000000
_cell_angle_gamma   89.62217649
_symmetry_Int_Tables_number   1
_chemical_formula_structural   In6TcIr
_chemical_formula_sum   'In12 Tc2 Ir2'
_cell_volume   367.24884223
_cell_formula_units_Z   2
loop_
 _symmetry_equiv_pos_site_id
 _symmetry_equiv_pos_as_xyz
  1  'x, y, z'
loop_
 _atom_site_type_symbol
 _atom_site_label
 _atom_site_symmetry_multiplicity
 _atom_site_fract_x
 _atom_site_fract_y
 _atom_site_fract_z
 _atom_site_occupancy
  In  In0  1  0.00000000  0.50000000  0.50000000  1
  In  In1  1  0.50000000  0.00000000  0.00000000  1
  In  In2  1  0.50000000  0.00000000  0.50000000  1
  In  In3  1  0.00000000  0.50000000  0.00000000  1
  In  In4  1  0.34570452  0.65429548  0.23919550  1
  In  In5  1  0.65429548  0.34570452  0.23919550  1
  In  In6  1  0.15640401  0.15640401  0.73324571  1
  In  In7  1  0.84359599  0.84359599  0.73324571  1
  In  In8  1  0.65429548  0.34570452  0.76080450  1
  In  In9  1  0.34570452  0.65429548  0.76080450  1
  In  In10  1  0.84359599  0.84359599  0.26675429  1
  In  In11  1  0.15640401  0.15640401  0.26675429  1
  Tc  Tc0  1  0.15799016  0.84200984  0.50000000  1
  Tc  Tc1  1  0.84200984  0.15799016  0.50000000  1
  Ir  Ir0  1  0.34434747  0.34434747  0.00000000  1
  Ir  Ir1  1  0.65565253  0.65565253  0.00000000  1
loop_
_geom_bond_atom_site_label_1
_geom_bond_atom_site_label_2
_geom_bond_distance
_geom_bond_site_symmetry_2
In0 Tc0 2.669042 1_555
In0 Tc1 2.669042 1_455
In0 In7 3.166115 1_455
In0 In6 3.166115 1_555
In0 In10 3.166115 1_455
In0 In11 3.166115 1_555
In0 In9 3.297117 1_555
In0 In4 3.297117 1_555
In0 In8 3.297117 1_455
In0 In5 3.297117 1_455
In1 Ir1 2.663908 1_545
In1 Ir0 2.663908 1_555
In1 In5 3.207287 1_555
In1 In8 3.207287 1_554
In1 In4 3.207287 1_545
In1 In9 3.207287 1_544
In1 In10 3.306105 1_545
In1 In11 3.306105 1_555
In1 In7 3.306105 1_544
In1 In6 3.306105 1_554
In2 Tc1 2.669042 1_555
In2 Tc0 2.669042 1_545
In2 In7 3.166115 1_545
In2 In6 3.166115 1_555
In2 In8 3.297117 1_555
In2 In5 3.297117 1_555
In2 In9 3.297117 1_545
In2 In4 3.297117 1_545
In3 Ir0 2.663908 1_555
In3 Ir1 2.663908 1_455
In3 In4 3.207287 1_555
In3 In9 3.207287 1_554
In3 In5 3.207287 1_455
In3 In8 3.207287 1_454
In3 In7 3.306106 1_454
In3 In6 3.306106 1_554
In4 Tc0 2.678559 1_555
In4 Ir1 2.809301 1_555
In4 Ir0 2.809301 1_555
In4 In5 3.073901 1_555
In5 Tc1 2.678559 1_555
In5 Ir0 2.809301 1_555
In5 Ir1 2.809301 1_555
In6 Ir0 2.720201 1_556
In6 Tc1 2.806816 1_455
In6 Tc0 2.806817 1_545
In6 In7 3.136522 1_445
In7 Ir1 2.720201 1_556
In7 Tc0 2.806816 1_655
In7 Tc1 2.806817 1_565
In8 Tc1 2.678559 1_555
In8 Ir0 2.809301 1_556
In8 Ir1 2.809301 1_556
In8 In9 3.073901 1_555
In9 Tc0 2.678559 1_555
In9 Ir1 2.809301 1_556
In9 Ir0 2.809301 1_556
In10 Ir1 2.720201 1_555
In10 Tc0 2.806816 1_655
In10 Tc1 2.806817 1_565
In10 In11 3.136522 1_665
In10 In2 3.166115 1_565
In10 In3 3.306106 1_655
In10 In7 3.430497 1_555
In11 Ir0 2.720201 1_555
In11 Tc1 2.806816 1_455
In11 Tc0 2.806817 1_545
In11 In2 3.166115 1_555
In11 In3 3.306106 1_555
In11 In6 3.430497 1_555
Ir0 Ir1 3.121452 1_555
