# generated using pymatgen
data_Sc6AlNiRh
_symmetry_space_group_name_H-M   'P 1'
_cell_length_a   7.80915882
_cell_length_b   7.80915803
_cell_length_c   7.80915852
_cell_angle_alpha   111.98740990
_cell_angle_beta   110.75925685
_cell_angle_gamma   105.73300286
_symmetry_Int_Tables_number   1
_chemical_formula_structural   Sc6AlNiRh
_chemical_formula_sum   'Sc12 Al2 Ni2 Rh2'
_cell_volume   365.39305950
_cell_formula_units_Z   2
loop_
 _symmetry_equiv_pos_site_id
 _symmetry_equiv_pos_as_xyz
  1  'x, y, z'
loop_
 _atom_site_type_symbol
 _atom_site_label
 _atom_site_symmetry_multiplicity
 _atom_site_fract_x
 _atom_site_fract_y
 _atom_site_fract_z
 _atom_site_occupancy
  Sc  Sc0  1  0.44151348  0.24372070  0.19779279  1
  Sc  Sc1  1  0.55848652  0.75627930  0.80220721  1
  Sc  Sc2  1  0.04592791  0.24372070  0.80220721  1
  Sc  Sc3  1  0.95407209  0.75627930  0.19779279  1
  Sc  Sc4  1  0.18325727  0.28175019  0.46500747  1
  Sc  Sc5  1  0.81674273  0.71824981  0.53499253  1
  Sc  Sc6  1  0.18325727  0.71824981  0.90150608  1
  Sc  Sc7  1  0.81674273  0.28175019  0.09849392  1
  Sc  Sc8  1  0.32064078  0.62375461  0.30311483  1
  Sc  Sc9  1  0.67935922  0.37624539  0.69688517  1
  Sc  Sc10  1  0.32064078  0.01752595  0.69688517  1
  Sc  Sc11  1  0.67935922  0.98247405  0.30311483  1
  Al  Al0  1  0.50000000  0.50000000  0.00000000  1
  Al  Al1  1  0.00000000  0.00000000  0.00000000  1
  Ni  Ni0  1  0.12226557  0.62226557  0.50000000  1
  Ni  Ni1  1  0.87773443  0.37773443  0.50000000  1
  Rh  Rh0  1  0.33457573  0.00000000  0.33457573  1
  Rh  Rh1  1  0.66542427  1.00000000  0.66542427  1
loop_
_geom_bond_atom_site_label_1
_geom_bond_atom_site_label_2
_geom_bond_distance
_geom_bond_site_symmetry_2
Sc0 Sc9 3.242970 1_555
Sc0 Sc11 3.242972 1_545
Sc0 Sc7 3.253763 1_555
Sc0 Sc5 3.253768 1_555
Sc0 Sc8 3.258328 1_555
Sc0 Sc10 3.258335 1_554
Sc0 Sc4 3.369568 1_555
Sc0 Sc6 3.369569 1_544
Sc0 Sc2 3.510163 1_554
Sc1 Sc8 3.242970 1_555
Sc1 Sc10 3.242972 1_565
Sc1 Sc6 3.253763 1_555
Sc1 Sc4 3.253768 1_555
Sc1 Sc9 3.258328 1_555
Sc1 Sc11 3.258335 1_556
Sc1 Sc5 3.369568 1_555
Sc1 Sc7 3.369569 1_566
Sc1 Sc3 3.510163 1_556
Sc2 Sc9 3.242978 1_455
Sc2 Sc4 3.253768 1_555
Sc2 Sc6 3.253770 1_555
Sc2 Sc8 3.258333 1_556
Sc2 Sc5 3.369568 1_445
Sc2 Sc7 3.369575 1_456
Sc3 Sc8 3.242978 1_655
Sc3 Sc5 3.253768 1_555
Sc3 Sc7 3.253770 1_555
Sc3 Sc9 3.258333 1_554
Sc3 Sc4 3.369568 1_665
Sc3 Sc6 3.369575 1_654
Sc4 Sc7 3.252202 1_455
Sc4 Sc9 3.362810 1_555
Sc4 Sc8 3.437769 1_555
Sc5 Sc6 3.252202 1_655
Sc5 Sc8 3.362810 1_555
Sc5 Sc9 3.437769 1_555
Sc6 Sc8 3.362824 1_556
Sc6 Sc9 3.437776 1_455
Sc7 Sc9 3.362824 1_554
Sc7 Sc8 3.437776 1_655
Sc10 Sc3 3.242973 1_445
Sc10 Sc2 3.258335 1_555
Sc10 Sc4 3.362812 1_555
Sc10 Sc7 3.362814 1_556
Sc10 Sc6 3.437769 1_545
Sc10 Sc5 3.437776 1_445
Sc11 Sc2 3.242973 1_665
Sc11 Sc3 3.258335 1_555
Sc11 Sc5 3.362812 1_555
Sc11 Sc6 3.362814 1_554
Sc11 Sc7 3.437769 1_565
Sc11 Sc4 3.437776 1_665
Al0 Sc1 2.986436 1_554
Al0 Sc0 2.986436 1_555
Al0 Sc2 2.986437 1_554
Al0 Sc3 2.986437 1_555
Al0 Sc8 3.141683 1_555
Al0 Sc9 3.141683 1_554
Al0 Sc11 3.141684 1_555
Al0 Sc10 3.141684 1_554
Al0 Sc5 3.396136 1_555
Al0 Sc4 3.396136 1_554
Al0 Sc7 3.396137 1_555
Al0 Sc6 3.396137 1_554
Al1 Sc3 2.891472 1_445
Al1 Sc2 2.891472 1_554
Al1 Sc0 2.891472 1_555
Al1 Sc1 2.891472 1_444
Al1 Sc4 2.949791 1_555
Al1 Sc5 2.949791 1_444
Al1 Sc7 2.949792 1_455
Al1 Sc6 2.949792 1_544
Al1 Rh0 2.968802 1_555
Al1 Rh1 2.968802 1_444
Ni0 Ni1 2.305531 1_455
Ni0 Sc8 2.540859 1_555
Ni0 Sc10 2.540859 1_565
Ni0 Sc6 2.758171 1_555
Ni0 Sc7 2.758175 1_455
Ni0 Sc4 2.758178 1_555
Ni0 Sc5 2.758178 1_455
Ni0 Sc3 2.964357 1_455
Ni0 Sc1 2.964357 1_555
Ni1 Sc9 2.540859 1_555
Ni1 Sc11 2.540859 1_545
Ni1 Sc7 2.758171 1_555
Ni1 Sc6 2.758175 1_655
Ni1 Sc5 2.758178 1_555
Ni1 Sc4 2.758178 1_655
Ni1 Sc2 2.964357 1_655
Ni1 Sc0 2.964357 1_555
Rh0 Sc0 2.598734 1_555
Rh0 Sc3 2.598734 1_445
Rh0 Sc4 2.803551 1_555
Rh0 Sc6 2.803557 1_544
Rh0 Sc10 2.823485 1_555
Rh0 Sc11 2.823485 1_545
Rh0 Sc9 2.823488 1_555
Rh0 Sc8 2.823492 1_545
Rh0 Rh1 2.935730 1_545
Rh1 Sc1 2.598734 1_555
Rh1 Sc2 2.598734 1_665
Rh1 Sc5 2.803551 1_555
Rh1 Sc7 2.803557 1_566
Rh1 Sc11 2.823485 1_555
Rh1 Sc10 2.823485 1_565
Rh1 Sc8 2.823488 1_555
Rh1 Sc9 2.823492 1_565
