# generated using pymatgen
data_Hf5Sc(AlIr2)2
_symmetry_space_group_name_H-M   'P 1'
_cell_length_a   8.44540496
_cell_length_b   8.44540526
_cell_length_c   8.43431232
_cell_angle_alpha   60.04344032
_cell_angle_beta   60.04343915
_cell_angle_gamma   59.91312618
_symmetry_Int_Tables_number   1
_chemical_formula_structural   Hf5Sc(AlIr2)2
_chemical_formula_sum   'Hf10 Sc2 Al4 Ir8'
_cell_volume   425.37716872
_cell_formula_units_Z   2
loop_
 _symmetry_equiv_pos_site_id
 _symmetry_equiv_pos_as_xyz
  1  'x, y, z'
loop_
 _atom_site_type_symbol
 _atom_site_label
 _atom_site_symmetry_multiplicity
 _atom_site_fract_x
 _atom_site_fract_y
 _atom_site_fract_z
 _atom_site_occupancy
  Hf  Hf0  1  0.80566202  0.19433798  0.80566202  1
  Hf  Hf1  1  0.19433798  0.80566202  0.19433798  1
  Hf  Hf2  1  0.19433798  0.80566202  0.80566202  1
  Hf  Hf3  1  0.80566202  0.19433798  0.19433798  1
  Hf  Hf4  1  0.44240736  0.44240736  0.05759264  1
  Hf  Hf5  1  0.05759264  0.05759264  0.44240736  1
  Hf  Hf6  1  0.44439265  0.05560735  0.44439265  1
  Hf  Hf7  1  0.05560735  0.44439265  0.05560735  1
  Hf  Hf8  1  0.05560735  0.44439265  0.44439265  1
  Hf  Hf9  1  0.44439265  0.05560735  0.05560735  1
  Sc  Sc0  1  0.80789453  0.80789453  0.19210547  1
  Sc  Sc1  1  0.19210547  0.19210547  0.80789453  1
  Al  Al0  1  0.12543547  0.62231812  0.62612370  1
  Al  Al1  1  0.62231812  0.12543547  0.62612370  1
  Al  Al2  1  0.62612370  0.62612370  0.12543547  1
  Al  Al3  1  0.62612370  0.62612370  0.62231812  1
  Ir  Ir0  1  0.76423240  0.41011349  0.41282655  1
  Ir  Ir1  1  0.41011349  0.76423240  0.41282655  1
  Ir  Ir2  1  0.41282655  0.41282655  0.76423240  1
  Ir  Ir3  1  0.41282655  0.41282655  0.41011349  1
  Ir  Ir4  1  0.48715826  0.83427597  0.83928338  1
  Ir  Ir5  1  0.83427597  0.48715826  0.83928338  1
  Ir  Ir6  1  0.83928338  0.83928338  0.48715826  1
  Ir  Ir7  1  0.83928338  0.83928338  0.83427597  1
loop_
_geom_bond_atom_site_label_1
_geom_bond_atom_site_label_2
_geom_bond_distance
_geom_bond_site_symmetry_2
Hf0 Ir7 2.760869 1_545
Hf0 Ir5 2.760877 1_555
Hf0 Ir0 2.984918 1_555
Hf0 Ir2 2.984918 1_555
Hf0 Sc1 3.263676 1_655
Hf0 Sc0 3.263677 1_546
Hf1 Ir4 2.760872 1_554
Hf1 Ir6 2.760872 1_455
Hf1 Ir1 2.984911 1_555
Hf1 Ir3 2.984915 1_555
Hf1 Sc0 3.263676 1_455
Hf1 Sc1 3.263677 1_564
Hf2 Ir7 2.760868 1_455
Hf2 Ir4 2.760877 1_555
Hf2 Ir1 2.984918 1_555
Hf2 Ir2 2.984918 1_555
Hf2 Sc0 3.263676 1_456
Hf2 Sc1 3.263677 1_565
Hf3 Ir5 2.760872 1_554
Hf3 Ir6 2.760872 1_545
Hf3 Ir0 2.984911 1_555
Hf3 Ir3 2.984915 1_555
Hf3 Sc1 3.263676 1_654
Hf3 Sc0 3.263677 1_545
Hf4 Ir3 2.746655 1_555
Hf4 Ir2 2.746663 1_554
Hf4 Ir5 2.993204 1_554
Hf4 Ir4 2.993204 1_554
Hf5 Ir1 2.746658 1_545
Hf5 Ir0 2.746658 1_455
Hf5 Ir6 2.993196 1_445
Hf5 Ir7 2.993200 1_445
Hf6 Ir3 2.766879 1_555
Hf6 Ir1 2.766888 1_545
Hf6 Ir4 3.004081 1_545
Hf6 Ir6 3.004081 1_545
Hf6 Sc1 3.132336 1_555
Hf6 Sc0 3.132336 1_545
Hf7 Ir2 2.766883 1_554
Hf7 Ir0 2.766883 1_455
Hf7 Ir5 3.004074 1_454
Hf7 Ir7 3.004078 1_454
Hf7 Sc1 3.132336 1_554
Hf7 Sc0 3.132336 1_455
Hf8 Ir3 2.766879 1_555
Hf8 Ir0 2.766888 1_455
Hf8 Ir5 3.004081 1_455
Hf8 Ir6 3.004081 1_455
Hf8 Sc1 3.132336 1_555
Hf8 Sc0 3.132336 1_455
Hf9 Ir1 2.766883 1_545
Hf9 Ir2 2.766883 1_554
Hf9 Ir4 3.004074 1_544
Hf9 Ir7 3.004078 1_544
Hf9 Sc1 3.132336 1_554
Hf9 Sc0 3.132336 1_545
Al0 Ir7 2.610695 1_455
Al0 Ir6 2.610695 1_455
Al0 Ir2 2.614949 1_555
Al0 Ir3 2.614958 1_555
Al0 Ir1 2.620953 1_555
Al0 Ir5 2.632755 1_455
Al0 Hf7 3.007744 1_556
Al0 Hf8 3.007751 1_555
Al0 Sc1 3.019350 1_555
Al0 Hf2 3.025612 1_555
Al0 Hf1 3.025619 1_555
Al0 Hf5 3.054341 1_565
Al1 Ir7 2.610695 1_545
Al1 Ir6 2.610695 1_545
Al1 Ir2 2.614949 1_555
Al1 Ir3 2.614958 1_555
Al1 Ir0 2.620953 1_555
Al1 Ir4 2.632755 1_545
Al1 Hf9 3.007744 1_556
Al1 Hf6 3.007751 1_555
Al1 Sc1 3.019349 1_555
Al1 Hf0 3.025612 1_555
Al1 Hf3 3.025619 1_555
Al1 Hf5 3.054341 1_655
Al2 Ir5 2.610695 1_554
Al2 Ir4 2.610695 1_554
Al2 Ir1 2.614949 1_555
Al2 Ir0 2.614949 1_555
Al2 Ir3 2.620963 1_555
Al2 Ir7 2.632755 1_554
Al2 Hf7 3.007744 1_655
Al2 Hf9 3.007744 1_565
Al2 Sc0 3.019342 1_555
Al2 Hf1 3.025620 1_555
Al2 Hf3 3.025620 1_555
Al2 Hf4 3.054348 1_555
Al3 Ir5 2.610695 1_555
Al3 Ir4 2.610695 1_555
Al3 Ir1 2.614962 1_555
Al3 Ir0 2.614962 1_555
Al3 Ir2 2.620967 1_555
Al3 Ir6 2.632755 1_555
Al3 Hf8 3.007745 1_655
Al3 Hf6 3.007745 1_565
Al3 Sc0 3.019348 1_555
Al3 Hf2 3.025618 1_555
Al3 Hf0 3.025618 1_555
Al3 Hf4 3.054342 1_556
Ir0 Sc0 3.032825 1_555
Ir1 Sc0 3.032824 1_555
Ir2 Sc1 3.032817 1_555
Ir3 Sc1 3.032821 1_555
Ir4 Sc1 2.778779 1_565
Ir5 Sc1 2.778778 1_655
Ir6 Sc0 2.778783 1_555
Ir7 Sc0 2.778775 1_556
