# generated using pymatgen
data_NaAg(Bi3S5)2
_symmetry_space_group_name_H-M   'P 1'
_cell_length_a   7.12943003
_cell_length_b   7.12943076
_cell_length_c   16.72636180
_cell_angle_alpha   84.38982563
_cell_angle_beta   84.38982492
_cell_angle_gamma   32.83407059
_symmetry_Int_Tables_number   1
_chemical_formula_structural   NaAg(Bi3S5)2
_chemical_formula_sum   'Na1 Ag1 Bi6 S10'
_cell_volume   458.57441251
_cell_formula_units_Z   1
loop_
 _symmetry_equiv_pos_site_id
 _symmetry_equiv_pos_as_xyz
  1  'x, y, z'
loop_
 _atom_site_type_symbol
 _atom_site_label
 _atom_site_symmetry_multiplicity
 _atom_site_fract_x
 _atom_site_fract_y
 _atom_site_fract_z
 _atom_site_occupancy
  Na  Na0  1  0.50000000  0.50000000  0.50000000  1
  Ag  Ag0  1  0.00000000  0.00000000  0.00000000  1
  Bi  Bi0  1  0.21999071  0.21999071  0.60732534  1
  Bi  Bi1  1  0.78000929  0.78000929  0.39267466  1
  Bi  Bi2  1  0.47451383  0.47451383  0.78662516  1
  Bi  Bi3  1  0.52548617  0.52548617  0.21337484  1
  Bi  Bi4  1  0.73644981  0.73644981  0.89065792  1
  Bi  Bi5  1  0.26355019  0.26355019  0.10934208  1
  S  S0  1  0.84747680  0.84747680  0.53197849  1
  S  S1  1  0.15252320  0.15252320  0.46802151  1
  S  S2  1  0.58248284  0.58248284  0.64520508  1
  S  S3  1  0.41751716  0.41751716  0.35479492  1
  S  S4  1  0.84764793  0.84764793  0.74524269  1
  S  S5  1  0.15235207  0.15235207  0.25475731  1
  S  S6  1  0.08809330  0.08809330  0.86103603  1
  S  S7  1  0.91190670  0.91190670  0.13896397  1
  S  S8  1  0.64873478  0.64873478  0.05694315  1
  S  S9  1  0.35126522  0.35126522  0.94305685  1
loop_
_geom_bond_atom_site_label_1
_geom_bond_atom_site_label_2
_geom_bond_distance
_geom_bond_site_symmetry_2
Na0 S2 2.780303 1_555
Na0 S3 2.780303 1_555
Na0 S1 2.910452 1_655
Na0 S0 2.910452 1_455
Na0 S1 2.910453 1_565
Na0 S0 2.910453 1_545
Ag0 S7 2.506709 1_445
Ag0 S6 2.506709 1_554
Ag0 S9 3.082315 1_454
Ag0 S8 3.082315 1_545
Ag0 S9 3.082316 1_544
Ag0 S8 3.082316 1_455
Bi0 S1 2.592087 1_555
Bi0 S2 2.784946 1_455
Bi0 S2 2.784946 1_545
Bi0 S0 2.870704 1_545
Bi0 S0 2.870704 1_455
Bi1 S0 2.592087 1_555
Bi1 S3 2.784946 1_655
Bi1 S3 2.784946 1_565
Bi1 S1 2.870704 1_565
Bi1 S1 2.870704 1_655
Bi2 S2 2.657838 1_555
Bi2 S4 2.791948 1_455
Bi2 S4 2.791949 1_545
Bi2 S6 2.901138 1_655
Bi2 S6 2.901139 1_565
Bi2 S9 2.964609 1_555
Bi3 S3 2.657838 1_555
Bi3 S5 2.791948 1_655
Bi3 S5 2.791949 1_565
Bi3 S7 2.901138 1_455
Bi3 S7 2.901139 1_545
Bi3 S8 2.964609 1_555
Bi4 S4 2.734061 1_555
Bi4 S9 2.752256 1_655
Bi4 S9 2.752257 1_565
Bi4 S8 2.914632 1_556
Bi4 S6 2.937338 1_565
Bi4 S6 2.937338 1_655
Bi5 S5 2.734061 1_555
Bi5 S8 2.752256 1_455
Bi5 S8 2.752257 1_545
Bi5 S9 2.914632 1_554
Bi5 S7 2.937338 1_545
Bi5 S7 2.937338 1_455
