# generated using pymatgen
data_HfPt3(SeO3)8
_symmetry_space_group_name_H-M   'P 1'
_cell_length_a   8.05862634
_cell_length_b   8.05862593
_cell_length_c   8.05862611
_cell_angle_alpha   89.17096989
_cell_angle_beta   90.82903535
_cell_angle_gamma   90.82903603
_symmetry_Int_Tables_number   1
_chemical_formula_structural   HfPt3(SeO3)8
_chemical_formula_sum   'Hf1 Pt3 Se8 O24'
_cell_volume   523.17612603
_cell_formula_units_Z   1
loop_
 _symmetry_equiv_pos_site_id
 _symmetry_equiv_pos_as_xyz
  1  'x, y, z'
loop_
 _atom_site_type_symbol
 _atom_site_label
 _atom_site_symmetry_multiplicity
 _atom_site_fract_x
 _atom_site_fract_y
 _atom_site_fract_z
 _atom_site_occupancy
  Hf  Hf0  1  0.50000000  0.50000000  0.00000000  1
  Pt  Pt0  1  0.50000000  0.00000000  0.50000000  1
  Pt  Pt1  1  0.00000000  0.00000000  0.00000000  1
  Pt  Pt2  1  0.00000000  0.50000000  0.50000000  1
  Se  Se0  1  0.83001498  0.16998502  0.66998502  1
  Se  Se1  1  0.16998502  0.83001498  0.33001498  1
  Se  Se2  1  0.68447206  0.67446684  0.64175966  1
  Se  Se3  1  0.14175966  0.68447206  0.82553316  1
  Se  Se4  1  0.32553316  0.14175966  0.81552794  1
  Se  Se5  1  0.85824034  0.31552794  0.17446684  1
  Se  Se6  1  0.67446684  0.85824034  0.18447206  1
  Se  Se7  1  0.31552794  0.32553316  0.35824034  1
  O  O0  1  0.24718181  0.47867493  0.48989359  1
  O  O1  1  0.98989359  0.24718181  0.02132507  1
  O  O2  1  0.01288009  0.74466356  0.44993298  1
  O  O3  1  0.44633470  0.25761525  0.94315046  1
  O  O4  1  0.25533644  0.94993298  0.48711991  1
  O  O5  1  0.55684954  0.55366530  0.75761525  1
  O  O6  1  0.94993298  0.01288009  0.75533644  1
  O  O7  1  0.55366530  0.74238475  0.05684954  1
  O  O8  1  0.52132507  0.98989359  0.25281819  1
  O  O9  1  0.47867493  0.01010641  0.74718181  1
  O  O10  1  0.75452769  0.99887597  0.03970794  1
  O  O11  1  0.25761525  0.55684954  0.94633470  1
  O  O12  1  0.00112403  0.53970794  0.74547231  1
  O  O13  1  0.05006702  0.98711991  0.24466356  1
  O  O14  1  0.24547231  0.00112403  0.96029206  1
  O  O15  1  0.44315046  0.44633470  0.24238475  1
  O  O16  1  0.75281819  0.52132507  0.51010641  1
  O  O17  1  0.99887597  0.46029206  0.25452769  1
  O  O18  1  0.01010641  0.75281819  0.97867493  1
  O  O19  1  0.46029206  0.24547231  0.49887597  1
  O  O20  1  0.53970794  0.75452769  0.50112403  1
  O  O21  1  0.98711991  0.25533644  0.55006702  1
  O  O22  1  0.74466356  0.05006702  0.51288009  1
  O  O23  1  0.74238475  0.44315046  0.05366530  1
loop_
_geom_bond_atom_site_label_1
_geom_bond_atom_site_label_2
_geom_bond_distance
_geom_bond_site_symmetry_2
Hf0 O7 2.051332 1_555
Hf0 O3 2.051332 1_554
Hf0 O15 2.051332 1_555
Hf0 O5 2.051332 1_554
Hf0 O23 2.051332 1_555
Hf0 O11 2.051332 1_554
O0 Se7 1.739672 1_555
O0 Pt2 2.004749 1_555
O1 Se5 1.739672 1_555
O1 Pt1 2.004749 1_655
O2 Se1 1.732288 1_555
O2 Pt2 2.008294 1_555
O3 Se4 1.688081 1_555
O4 Se1 1.732288 1_555
O4 Pt0 2.008294 1_565
O5 Se2 1.688081 1_555
O6 Se0 1.732288 1_555
O6 Pt1 2.008294 1_656
O7 Se6 1.688081 1_555
O8 Se6 1.739672 1_555
O8 Pt0 2.004749 1_565
O9 Se4 1.739672 1_555
O9 Pt0 2.004749 1_555
O10 Se6 1.738969 1_555
O10 Pt1 2.008319 1_665
O11 Se3 1.688081 1_555
O12 Se3 1.738968 1_555
O12 Pt2 2.008319 1_555
O13 Se1 1.732288 1_555
O13 Pt1 2.008294 1_565
O14 Se4 1.738969 1_555
O14 Pt1 2.008319 1_556
O15 Se7 1.688081 1_555
O16 Se2 1.739672 1_555
O16 Pt2 2.004749 1_655
O17 Se5 1.738968 1_555
O17 Pt2 2.008319 1_655
O18 Se3 1.739672 1_555
O18 Pt1 2.004749 1_566
O19 Se7 1.738969 1_555
O19 Pt0 2.008319 1_555
O20 Se2 1.738969 1_555
O20 Pt0 2.008319 1_565
O21 Se0 1.732288 1_555
O21 Pt2 2.008294 1_655
O22 Se0 1.732288 1_555
O22 Pt0 2.008294 1_555
O23 Se5 1.688081 1_555
