# generated using pymatgen
data_Sr3C3ICl
_symmetry_space_group_name_H-M   'P 1'
_cell_length_a   7.78829378
_cell_length_b   7.78829383
_cell_length_c   12.06431414
_cell_angle_alpha   90.00000000
_cell_angle_beta   90.00000000
_cell_angle_gamma   148.92678557
_symmetry_Int_Tables_number   1
_chemical_formula_structural   Sr3C3ICl
_chemical_formula_sum   'Sr6 C6 I2 Cl2'
_cell_volume   377.70165949
_cell_formula_units_Z   2
loop_
 _symmetry_equiv_pos_site_id
 _symmetry_equiv_pos_as_xyz
  1  'x, y, z'
loop_
 _atom_site_type_symbol
 _atom_site_label
 _atom_site_symmetry_multiplicity
 _atom_site_fract_x
 _atom_site_fract_y
 _atom_site_fract_z
 _atom_site_occupancy
  Sr  Sr0  1  0.66715974  0.33284026  0.57125906  1
  Sr  Sr1  1  0.33284026  0.66715974  0.42874094  1
  Sr  Sr2  1  0.33284026  0.66715974  0.07125906  1
  Sr  Sr3  1  0.66715974  0.33284026  0.92874094  1
  Sr  Sr4  1  0.11431389  0.88568611  0.25000000  1
  Sr  Sr5  1  0.88568611  0.11431389  0.75000000  1
  C  C0  1  0.27405221  0.72594779  0.63956927  1
  C  C1  1  0.72594779  0.27405221  0.36043073  1
  C  C2  1  0.72594779  0.27405221  0.13956927  1
  C  C3  1  0.27405221  0.72594779  0.86043073  1
  C  C4  1  0.73298028  0.26701972  0.25000000  1
  C  C5  1  0.26701972  0.73298028  0.75000000  1
  I  I0  1  0.00000000  0.00000000  0.00000000  1
  I  I1  1  0.00000000  0.00000000  0.50000000  1
  Cl  Cl0  1  0.53324117  0.46675883  0.75000000  1
  Cl  Cl1  1  0.46675883  0.53324117  0.25000000  1
loop_
_geom_bond_atom_site_label_1
_geom_bond_atom_site_label_2
_geom_bond_distance
_geom_bond_site_symmetry_2
C0 C5 1.336445 1_555
C0 Sr1 2.692167 1_555
C0 Sr0 2.757622 1_455
C0 Sr0 2.757622 1_565
C0 Sr5 2.988916 1_565
C0 Sr5 2.988916 1_455
C1 C4 1.336445 1_555
C1 Sr0 2.692167 1_555
C1 Sr1 2.757622 1_655
C1 Sr1 2.757622 1_545
C1 Sr4 2.988916 1_545
C1 Sr4 2.988916 1_655
C2 C4 1.336445 1_555
C2 Sr3 2.692167 1_554
C2 Sr2 2.757622 1_655
C2 Sr2 2.757622 1_545
C2 Sr4 2.988916 1_545
C2 Sr4 2.988916 1_655
C3 C5 1.336445 1_555
C3 Sr2 2.692167 1_556
C3 Sr3 2.757622 1_455
C3 Sr3 2.757622 1_565
C3 Sr5 2.988916 1_565
C3 Sr5 2.988916 1_455
C4 Sr4 2.742888 1_545
C4 Sr4 2.742888 1_655
C5 Sr5 2.742888 1_565
C5 Sr5 2.742888 1_455
I0 Sr3 3.374054 1_554
I0 Sr2 3.374054 1_445
I0 Sr2 3.374054 1_555
I0 Sr3 3.374054 1_444
I0 Sr5 3.469850 1_454
I0 Sr4 3.469850 1_545
I1 Sr0 3.374054 1_555
I1 Sr1 3.374054 1_445
I1 Sr0 3.374054 1_445
I1 Sr1 3.374054 1_555
I1 Sr5 3.469850 1_455
I1 Sr4 3.469850 1_545
Cl0 Sr3 2.947742 1_555
Cl0 Sr0 2.947742 1_555
Cl0 Sr5 3.042297 1_455
Cl0 Sr5 3.042297 1_565
Cl1 Sr1 2.947742 1_555
Cl1 Sr2 2.947742 1_555
Cl1 Sr4 3.042297 1_655
Cl1 Sr4 3.042297 1_545
