# generated using pymatgen
data_BaSb12(IrOs)2
_symmetry_space_group_name_H-M   'P 1'
_cell_length_a   8.13020221
_cell_length_b   8.14189191
_cell_length_c   8.14189256
_cell_angle_alpha   109.50271459
_cell_angle_beta   109.48779328
_cell_angle_gamma   109.48136667
_symmetry_Int_Tables_number   1
_chemical_formula_structural   BaSb12(IrOs)2
_chemical_formula_sum   'Ba1 Sb12 Ir2 Os2'
_cell_volume   414.58897083
_cell_formula_units_Z   1
loop_
 _symmetry_equiv_pos_site_id
 _symmetry_equiv_pos_as_xyz
  1  'x, y, z'
loop_
 _atom_site_type_symbol
 _atom_site_label
 _atom_site_symmetry_multiplicity
 _atom_site_fract_x
 _atom_site_fract_y
 _atom_site_fract_z
 _atom_site_occupancy
  Ba  Ba0  1  0.00000000  0.00000000  0.00000000  1
  Sb  Sb0  1  0.34448384  0.18586392  0.84490178  1
  Sb  Sb1  1  0.65551616  0.81413608  0.15509822  1
  Sb  Sb2  1  0.65551616  0.50041694  0.84138008  1
  Sb  Sb3  1  0.34448384  0.49958306  0.15861992  1
  Sb  Sb4  1  0.18889688  0.84450699  0.34438988  1
  Sb  Sb5  1  0.81110312  0.15549301  0.65561012  1
  Sb  Sb6  1  0.50095471  0.84173937  0.65921634  1
  Sb  Sb7  1  0.49904529  0.15826063  0.34078366  1
  Sb  Sb8  1  0.84199438  0.34155345  0.18587235  1
  Sb  Sb9  1  0.15800562  0.65844655  0.81412765  1
  Sb  Sb10  1  0.84199438  0.65612204  0.50043993  1
  Sb  Sb11  1  0.15800562  0.34387796  0.49956007  1
  Ir  Ir0  1  0.00000000  0.00000000  0.50000000  1
  Ir  Ir1  1  0.00000000  0.50000000  0.00000000  1
  Os  Os0  1  0.50000000  0.00000000  0.00000000  1
  Os  Os1  1  0.50000000  0.50000000  0.50000000  1
loop_
_geom_bond_atom_site_label_1
_geom_bond_atom_site_label_2
_geom_bond_distance
_geom_bond_site_symmetry_2
Ba0 Sb7 3.526384 1_555
Ba0 Sb6 3.526384 1_444
Ba0 Sb0 3.540832 1_554
Ba0 Sb1 3.540832 1_445
Ba0 Sb3 3.540838 1_555
Ba0 Sb2 3.540838 1_444
Ba0 Sb8 3.541712 1_455
Ba0 Sb9 3.541712 1_544
Ba0 Sb11 3.541718 1_555
Ba0 Sb10 3.541718 1_444
Ba0 Sb5 3.552126 1_454
Ba0 Sb4 3.552126 1_545
Sb0 Sb3 2.948263 1_556
Sb0 Sb2 2.955023 1_555
Sb1 Sb2 2.948263 1_554
Sb1 Sb3 2.955023 1_555
Sb4 Sb7 2.947525 1_565
Sb4 Sb6 2.957262 1_555
Sb5 Sb6 2.947525 1_545
Sb5 Sb7 2.957262 1_555
Sb10 Sb9 2.946429 1_655
Sb10 Sb8 2.956246 1_555
Sb11 Sb8 2.946429 1_455
Sb11 Sb9 2.956246 1_555
Ir0 Sb5 2.662828 1_455
Ir0 Sb4 2.662828 1_545
Ir0 Sb11 2.664583 1_555
Ir0 Sb10 2.664583 1_445
Ir0 Sb0 2.666066 1_555
Ir0 Sb1 2.666066 1_445
Ir1 Sb4 2.662828 1_555
Ir1 Sb5 2.662828 1_454
Ir1 Sb9 2.664587 1_554
Ir1 Sb8 2.664587 1_455
Ir1 Sb3 2.666062 1_555
Ir1 Sb2 2.666062 1_454
Os0 Sb1 2.640113 1_545
Os0 Sb0 2.640113 1_554
Os0 Sb8 2.641921 1_555
Os0 Sb9 2.641921 1_544
Os0 Sb7 2.644389 1_555
Os0 Sb6 2.644389 1_544
Os1 Sb2 2.640117 1_555
Os1 Sb3 2.640117 1_555
Os1 Sb10 2.641925 1_555
Os1 Sb11 2.641925 1_555
Os1 Sb6 2.644397 1_555
Os1 Sb7 2.644397 1_555
