# generated using pymatgen
data_Hf2Zr4BBr12
_symmetry_space_group_name_H-M   'P 1'
_cell_length_a   8.54766125
_cell_length_b   8.54436917
_cell_length_c   8.53993219
_cell_angle_alpha   106.99893503
_cell_angle_beta   107.30047159
_cell_angle_gamma   107.17480108
_symmetry_Int_Tables_number   1
_chemical_formula_structural   Hf2Zr4BBr12
_chemical_formula_sum   'Hf2 Zr4 B1 Br12'
_cell_volume   517.17159300
_cell_formula_units_Z   1
loop_
 _symmetry_equiv_pos_site_id
 _symmetry_equiv_pos_as_xyz
  1  'x, y, z'
loop_
 _atom_site_type_symbol
 _atom_site_label
 _atom_site_symmetry_multiplicity
 _atom_site_fract_x
 _atom_site_fract_y
 _atom_site_fract_z
 _atom_site_occupancy
  Hf  Hf0  1  0.70967288  0.90202680  0.96864440  1
  Hf  Hf1  1  0.03249011  0.29038756  0.09745649  1
  Zr  Zr0  1  0.97043580  0.71022426  0.90301863  1
  Zr  Zr1  1  0.28968774  0.09628122  0.03046241  1
  Zr  Zr2  1  0.09895355  0.02949233  0.29173545  1
  Zr  Zr3  1  0.90251429  0.96824120  0.70807762  1
  B  B0  1  0.99691183  0.00201165  0.00096235  1
  Br  Br0  1  0.92117165  0.31405980  0.77844082  1
  Br  Br1  1  0.69201528  0.22404666  0.07798792  1
  Br  Br2  1  0.45212831  0.14663079  0.37405988  1
  Br  Br3  1  0.85280684  0.62600729  0.54878851  1
  Br  Br4  1  0.22718823  0.08064511  0.68629599  1
  Br  Br5  1  0.62574034  0.55480786  0.85600871  1
  Br  Br6  1  0.36915550  0.44989631  0.14625648  1
  Br  Br7  1  0.77060513  0.92088863  0.30801013  1
  Br  Br8  1  0.14425202  0.37312971  0.44505964  1
  Br  Br9  1  0.54952401  0.85408006  0.63160258  1
  Br  Br10  1  0.31664806  0.77456831  0.92138885  1
  Br  Br11  1  0.07809743  0.68257545  0.22574315  1
loop_
_geom_bond_atom_site_label_1
_geom_bond_atom_site_label_2
_geom_bond_distance
_geom_bond_site_symmetry_2
B0 Hf0 2.248220 1_544
B0 Hf1 2.250330 1_655
B0 Zr3 2.287041 1_544
B0 Zr2 2.287364 1_655
B0 Zr1 2.300203 1_655
B0 Zr0 2.302491 1_544
Br0 Hf1 2.694913 1_656
Br0 Zr3 2.782788 1_545
Br0 Zr0 3.090843 1_555
Br1 Hf0 2.700381 1_544
Br1 Hf1 2.738877 1_655
Br1 Zr1 3.142699 1_555
Br2 Zr2 2.674162 1_555
Br2 Zr1 2.684956 1_555
Br3 Zr0 2.677845 1_555
Br3 Zr3 2.679256 1_555
Br4 Zr3 2.737910 1_445
Br4 Zr1 2.781413 1_556
Br4 Zr2 3.066828 1_555
Br5 Hf0 2.627853 1_555
Br5 Zr0 2.698076 1_555
Br6 Hf1 2.636418 1_555
Br6 Zr1 2.685084 1_555
Br7 Hf0 2.734251 1_554
Br7 Zr2 2.743500 1_665
Br7 Zr3 3.120731 1_555
Br8 Hf1 2.629037 1_555
Br8 Zr2 2.695287 1_555
Br9 Hf0 2.638616 1_555
Br9 Zr3 2.683117 1_555
Br10 Zr1 2.735232 1_566
Br10 Zr0 2.792303 1_455
Br10 Hf0 3.067694 1_555
Br11 Zr0 2.738444 1_454
Br11 Zr2 2.790553 1_565
Br11 Hf1 3.067460 1_555
