# generated using pymatgen
data_Ba3CdRu2O9
_symmetry_space_group_name_H-M   'P 1'
_cell_length_a   5.91010195
_cell_length_b   5.91010973
_cell_length_c   14.65978906
_cell_angle_alpha   90.00000000
_cell_angle_beta   90.00000000
_cell_angle_gamma   120.00005913
_symmetry_Int_Tables_number   1
_chemical_formula_structural   Ba3CdRu2O9
_chemical_formula_sum   'Ba6 Cd2 Ru4 O18'
_cell_volume   443.45403497
_cell_formula_units_Z   2
loop_
 _symmetry_equiv_pos_site_id
 _symmetry_equiv_pos_as_xyz
  1  'x, y, z'
loop_
 _atom_site_type_symbol
 _atom_site_label
 _atom_site_symmetry_multiplicity
 _atom_site_fract_x
 _atom_site_fract_y
 _atom_site_fract_z
 _atom_site_occupancy
  Ba  Ba0  1  0.66666790  0.33333489  0.09433155  1
  Ba  Ba1  1  0.33333210  0.66666511  0.59433155  1
  Ba  Ba2  1  0.33333210  0.66666511  0.90566845  1
  Ba  Ba3  1  0.66666790  0.33333489  0.40566845  1
  Ba  Ba4  1  0.00000077  0.00000017  0.25000000  1
  Ba  Ba5  1  0.99999923  0.99999983  0.75000000  1
  Cd  Cd0  1  0.00000000  0.00000000  0.00000000  1
  Cd  Cd1  1  0.00000000  0.00000000  0.50000000  1
  Ru  Ru0  1  0.33332718  0.66666293  0.15691465  1
  Ru  Ru1  1  0.66667282  0.33333707  0.65691465  1
  Ru  Ru2  1  0.66667282  0.33333707  0.84308535  1
  Ru  Ru3  1  0.33332718  0.66666293  0.34308535  1
  O  O0  1  0.17616448  0.35232950  0.08960986  1
  O  O1  1  0.82383642  0.17616507  0.58961022  1
  O  O2  1  0.35233097  0.17616571  0.58960954  1
  O  O3  1  0.64766903  0.82383429  0.08960954  1
  O  O4  1  0.17616358  0.82383493  0.08961022  1
  O  O5  1  0.82383552  0.64767050  0.91039014  1
  O  O6  1  0.82383642  0.17616507  0.91038978  1
  O  O7  1  0.82383552  0.64767050  0.58960986  1
  O  O8  1  0.35233097  0.17616571  0.91039046  1
  O  O9  1  0.64766903  0.82383429  0.41039046  1
  O  O10  1  0.17616448  0.35232950  0.41039014  1
  O  O11  1  0.17616358  0.82383493  0.41038978  1
  O  O12  1  0.03441033  0.51720568  0.25000000  1
  O  O13  1  0.51720593  0.03441022  0.75000000  1
  O  O14  1  0.51720578  0.48279523  0.75000000  1
  O  O15  1  0.48279422  0.51720477  0.25000000  1
  O  O16  1  0.48279407  0.96558978  0.25000000  1
  O  O17  1  0.96558967  0.48279432  0.75000000  1
loop_
_geom_bond_atom_site_label_1
_geom_bond_atom_site_label_2
_geom_bond_distance
_geom_bond_site_symmetry_2
Ba0 O4 2.957447 1_655
Ba0 O0 2.957455 1_655
Ba0 O3 2.957458 1_555
Ba0 O0 2.957464 1_555
Ba0 O3 2.957472 1_545
Ba0 O4 2.957472 1_545
Ba0 O12 2.958134 1_655
Ba0 O15 2.958140 1_555
Ba0 O16 2.958145 1_545
Ba0 O8 3.140028 1_554
Ba0 O5 3.140029 1_554
Ba0 O6 3.140041 1_554
Ba1 O1 2.957447 1_455
Ba1 O7 2.957455 1_455
Ba1 O2 2.957458 1_555
Ba1 O7 2.957464 1_555
Ba1 O2 2.957472 1_565
Ba1 O1 2.957472 1_565
Ba1 O17 2.958134 1_455
Ba1 O14 2.958140 1_555
Ba1 O13 2.958145 1_565
Ba1 O9 3.140028 1_555
Ba1 O10 3.140029 1_555
Ba1 O11 3.140041 1_555
Ba2 O6 2.957447 1_455
Ba2 O5 2.957455 1_455
Ba2 O8 2.957458 1_555
Ba2 O5 2.957464 1_555
Ba2 O8 2.957472 1_565
Ba2 O6 2.957472 1_565
Ba2 O17 2.958134 1_455
Ba2 O14 2.958140 1_555
Ba2 O13 2.958145 1_565
Ba2 O3 3.140028 1_556
Ba2 O0 3.140029 1_556
Ba2 O4 3.140041 1_556
Ba3 O11 2.957447 1_655
Ba3 O10 2.957455 1_655
Ba3 O9 2.957458 1_555
Ba3 O10 2.957464 1_555
Ba3 O9 2.957472 1_545
Ba3 O11 2.957472 1_545
Ba3 O12 2.958134 1_655
Ba3 O15 2.958140 1_555
Ba3 O16 2.958145 1_545
Ba3 O2 3.140028 1_555
Ba3 O7 3.140029 1_555
Ba3 O1 3.140041 1_555
Ba4 O16 2.960286 1_545
Ba4 O15 2.960289 1_555
Ba4 O12 2.960294 1_545
Ba4 O15 2.960300 1_445
Ba4 O12 2.960303 1_555
Ba4 O16 2.960303 1_445
Ba4 O11 2.963189 1_545
Ba4 O4 2.963189 1_545
Ba4 O10 2.963197 1_555
Ba4 O0 2.963197 1_555
Ba4 O9 2.963207 1_445
Ba4 O3 2.963207 1_445
Ba5 O13 2.960286 1_565
Ba5 O14 2.960289 1_555
Ba5 O17 2.960294 1_565
Ba5 O14 2.960300 1_665
Ba5 O17 2.960303 1_555
Ba5 O13 2.960303 1_665
Ba5 O6 2.963189 1_565
Ba5 O1 2.963189 1_565
Ba5 O5 2.963197 1_555
Ba5 O7 2.963197 1_555
Ba5 O8 2.963207 1_665
Ba5 O2 2.963207 1_665
Cd0 O4 2.231076 1_545
Cd0 O6 2.231076 1_454
Cd0 O0 2.231076 1_555
Cd0 O5 2.231076 1_444
Cd0 O3 2.231078 1_445
Cd0 O8 2.231078 1_554
Cd1 O1 2.231076 1_455
Cd1 O11 2.231076 1_545
Cd1 O7 2.231076 1_445
Cd1 O10 2.231076 1_555
Cd1 O2 2.231078 1_555
Cd1 O9 2.231078 1_445
O0 Ru0 1.887309 1_555
O1 Ru1 1.887316 1_555
O2 Ru1 1.887346 1_555
O3 Ru0 1.887346 1_555
O4 Ru0 1.887316 1_555
O5 Ru2 1.887309 1_555
O6 Ru2 1.887316 1_555
O7 Ru1 1.887309 1_555
O8 Ru2 1.887346 1_555
O9 Ru3 1.887346 1_555
O10 Ru3 1.887309 1_555
O11 Ru3 1.887316 1_555
O12 Ru3 2.050097 1_555
O12 Ru0 2.050097 1_555
O13 Ru2 2.050136 1_555
O13 Ru1 2.050136 1_555
O14 Ru2 2.050130 1_555
O14 Ru1 2.050130 1_555
O15 Ru3 2.050130 1_555
O15 Ru0 2.050130 1_555
O16 Ru3 2.050136 1_555
O16 Ru0 2.050136 1_555
O17 Ru2 2.050097 1_555
O17 Ru1 2.050097 1_555
