# generated using pymatgen
data_Cu2PRh3S8
_symmetry_space_group_name_H-M   'P 1'
_cell_length_a   6.93911712
_cell_length_b   6.86688802
_cell_length_c   6.93911719
_cell_angle_alpha   59.65144220
_cell_angle_beta   60.00000428
_cell_angle_gamma   59.65143526
_symmetry_Int_Tables_number   1
_chemical_formula_structural   Cu2PRh3S8
_chemical_formula_sum   'Cu2 P1 Rh3 S8'
_cell_volume   232.56541705
_cell_formula_units_Z   1
loop_
 _symmetry_equiv_pos_site_id
 _symmetry_equiv_pos_as_xyz
  1  'x, y, z'
loop_
 _atom_site_type_symbol
 _atom_site_label
 _atom_site_symmetry_multiplicity
 _atom_site_fract_x
 _atom_site_fract_y
 _atom_site_fract_z
 _atom_site_occupancy
  Cu  Cu0  1  0.75146894  0.74559218  0.75146894  1
  Cu  Cu1  1  0.49853106  0.50440782  0.49853106  1
  P  P0  1  0.12500000  0.62500000  0.12500000  1
  Rh  Rh0  1  0.12500000  0.12500000  0.62500000  1
  Rh  Rh1  1  0.62500000  0.12500000  0.12500000  1
  Rh  Rh2  1  0.12500000  0.12500000  0.12500000  1
  S  S0  1  0.88441230  0.34676209  0.88441230  1
  S  S1  1  0.36179145  0.37020042  0.90621668  1
  S  S2  1  0.36179145  0.37020042  0.36179145  1
  S  S3  1  0.90621668  0.37020042  0.36179145  1
  S  S4  1  0.88820855  0.87979958  0.88820855  1
  S  S5  1  0.34378332  0.87979958  0.88820855  1
  S  S6  1  0.36558770  0.90323791  0.36558770  1
  S  S7  1  0.88820855  0.87979958  0.34378332  1
loop_
_geom_bond_atom_site_label_1
_geom_bond_atom_site_label_2
_geom_bond_distance
_geom_bond_site_symmetry_2
Cu0 S0 2.224303 1_555
Cu0 S5 2.305982 1_555
Cu0 S7 2.305982 1_555
Cu0 S4 2.305988 1_555
Cu1 S6 2.224303 1_555
Cu1 S3 2.305982 1_555
Cu1 S1 2.305982 1_555
Cu1 S2 2.305988 1_555
P0 S7 2.313133 1_455
P0 S1 2.313133 1_554
P0 S2 2.313133 1_555
P0 S4 2.313133 1_454
P0 S5 2.313133 1_554
P0 S3 2.313133 1_455
Rh0 S0 2.354195 1_455
Rh0 S6 2.354195 1_545
Rh0 S5 2.357503 1_545
Rh0 S3 2.357503 1_455
Rh0 S2 2.357504 1_555
Rh0 S4 2.357504 1_445
Rh1 S0 2.354195 1_554
Rh1 S6 2.354195 1_545
Rh1 S7 2.357503 1_545
Rh1 S1 2.357503 1_554
Rh1 S2 2.357503 1_555
Rh1 S4 2.357503 1_544
Rh2 S6 2.354200 1_545
Rh2 S0 2.354200 1_454
Rh2 S3 2.357503 1_455
Rh2 S5 2.357503 1_544
Rh2 S1 2.357504 1_554
Rh2 S7 2.357504 1_445
