# generated using pymatgen
data_Cs4Co3Rh5Se16
_symmetry_space_group_name_H-M   'P 1'
_cell_length_a   6.44586229
_cell_length_b   6.93897847
_cell_length_c   17.00833426
_cell_angle_alpha   90.00000000
_cell_angle_beta   89.96249010
_cell_angle_gamma   90.00000000
_symmetry_Int_Tables_number   1
_chemical_formula_structural   Cs4Co3Rh5Se16
_chemical_formula_sum   'Cs4 Co3 Rh5 Se16'
_cell_volume   760.74350355
_cell_formula_units_Z   1
loop_
 _symmetry_equiv_pos_site_id
 _symmetry_equiv_pos_as_xyz
  1  'x, y, z'
loop_
 _atom_site_type_symbol
 _atom_site_label
 _atom_site_symmetry_multiplicity
 _atom_site_fract_x
 _atom_site_fract_y
 _atom_site_fract_z
 _atom_site_occupancy
  Cs  Cs0  1  0.38740692  0.00000000  0.99957795  1
  Cs  Cs1  1  0.60314545  0.50000000  0.50370990  1
  Cs  Cs2  1  0.01649861  0.00000000  0.49398627  1
  Cs  Cs3  1  0.97902160  0.50000000  0.99376960  1
  Co  Co0  1  0.00512063  0.00000000  0.74727142  1
  Co  Co1  1  0.99606829  0.50000000  0.24880967  1
  Co  Co2  1  0.99838398  0.50000000  0.75126925  1
  Rh  Rh0  1  0.00268300  0.00000000  0.25282407  1
  Rh  Rh1  1  0.49851803  0.27661122  0.25171818  1
  Rh  Rh2  1  0.50249356  0.77371302  0.75004343  1
  Rh  Rh3  1  0.49851803  0.72338878  0.25171818  1
  Rh  Rh4  1  0.50249356  0.22628698  0.75004343  1
  Se  Se0  1  0.83057818  0.26378938  0.32872723  1
  Se  Se1  1  0.83880535  0.75071762  0.67361134  1
  Se  Se2  1  0.16861920  0.74109883  0.17289410  1
  Se  Se3  1  0.16488670  0.24394353  0.82510848  1
  Se  Se4  1  0.16861920  0.25890117  0.17289410  1
  Se  Se5  1  0.16488670  0.75605647  0.82510848  1
  Se  Se6  1  0.83057818  0.73621062  0.32872723  1
  Se  Se7  1  0.83880535  0.24928238  0.67361134  1
  Se  Se8  1  0.67115987  0.00000000  0.17985970  1
  Se  Se9  1  0.71286388  0.00000000  0.82887849  1
  Se  Se10  1  0.28618569  0.50000000  0.33128815  1
  Se  Se11  1  0.31678188  0.50000000  0.68073544  1
  Se  Se12  1  0.33994375  0.00000000  0.32542920  1
  Se  Se13  1  0.30526960  0.00000000  0.66775076  1
  Se  Se14  1  0.69790355  0.50000000  0.16929592  1
  Se  Se15  1  0.67376427  0.50000000  0.82133967  1
loop_
_geom_bond_atom_site_label_1
_geom_bond_atom_site_label_2
_geom_bond_distance
_geom_bond_site_symmetry_2
Cs0 Se8 3.571394 1_556
Cs0 Se9 3.580814 1_555
Cs0 Se3 3.705922 1_555
Cs0 Se5 3.705922 1_545
Cs0 Se4 3.728340 1_556
Cs0 Se2 3.728340 1_546
Cs1 Se11 3.530651 1_555
Cs1 Se10 3.575220 1_555
Cs1 Se6 3.699664 1_555
Cs1 Se0 3.699664 1_555
Cs1 Se1 3.700060 1_555
Cs1 Se7 3.700060 1_555
Cs2 Se13 3.493792 1_555
Cs2 Se12 3.543710 1_555
Cs2 Se0 3.562524 1_455
Cs2 Se6 3.562524 1_445
Cs2 Se7 3.692315 1_455
Cs2 Se1 3.692315 1_445
Cs3 Se14 3.491291 1_556
Cs3 Se15 3.532731 1_555
Cs3 Se5 3.580068 1_655
Cs3 Se3 3.580068 1_655
Cs3 Se2 3.684989 1_656
Cs3 Se4 3.684989 1_656
Co0 Se9 2.339231 1_455
Co0 Se13 2.359874 1_555
Co0 Se3 2.383335 1_555
Co0 Se5 2.383335 1_545
Co0 Se7 2.390130 1_455
Co0 Se1 2.390130 1_445
Co1 Se10 2.338473 1_655
Co1 Se14 2.350785 1_555
Co1 Se6 2.381203 1_555
Co1 Se0 2.381203 1_555
Co1 Se2 2.387729 1_655
Co1 Se4 2.387729 1_655
Co2 Se11 2.376574 1_655
Co2 Se15 2.407372 1_555
Co2 Se1 2.414763 1_555
Co2 Se7 2.414763 1_555
Co2 Se5 2.426477 1_655
Co2 Se3 2.426477 1_655
Rh0 Se8 2.471867 1_455
Rh0 Se4 2.493545 1_555
Rh0 Se2 2.493545 1_545
Rh0 Se0 2.499186 1_455
Rh0 Se6 2.499186 1_445
Rh0 Se12 2.500895 1_555
Rh1 Se14 2.453042 1_555
Rh1 Se10 2.470862 1_555
Rh1 Se12 2.509775 1_555
Rh1 Se0 2.511677 1_555
Rh1 Se4 2.517568 1_555
Rh1 Se8 2.532676 1_555
Rh2 Se13 2.458264 1_565
Rh2 Se9 2.470745 1_565
Rh2 Se15 2.509644 1_555
Rh2 Se5 2.525296 1_555
Rh2 Se1 2.532028 1_555
Rh2 Se11 2.536085 1_555
Rh3 Se14 2.453042 1_555
Rh3 Se10 2.470862 1_555
Rh3 Se12 2.509775 1_565
Rh3 Se6 2.511677 1_555
Rh3 Se2 2.517568 1_555
Rh3 Se8 2.532676 1_565
Rh4 Se13 2.458264 1_555
Rh4 Se9 2.470745 1_555
Rh4 Se15 2.509644 1_555
Rh4 Se3 2.525296 1_555
Rh4 Se7 2.532028 1_555
Rh4 Se11 2.536085 1_555
