# generated using pymatgen
data_Y3MgGe6Ir7
_symmetry_space_group_name_H-M   'P 1'
_cell_length_a   7.15450309
_cell_length_b   7.28681203
_cell_length_c   7.15450315
_cell_angle_alpha   109.84627531
_cell_angle_beta   109.09358483
_cell_angle_gamma   109.84626585
_symmetry_Int_Tables_number   1
_chemical_formula_structural   Y3MgGe6Ir7
_chemical_formula_sum   'Y3 Mg1 Ge6 Ir7'
_cell_volume   285.78765058
_cell_formula_units_Z   1
loop_
 _symmetry_equiv_pos_site_id
 _symmetry_equiv_pos_as_xyz
  1  'x, y, z'
loop_
 _atom_site_type_symbol
 _atom_site_label
 _atom_site_symmetry_multiplicity
 _atom_site_fract_x
 _atom_site_fract_y
 _atom_site_fract_z
 _atom_site_occupancy
  Y  Y0  1  0.00000000  0.00000000  0.50000000  1
  Y  Y1  1  0.50000000  0.00000000  0.00000000  1
  Y  Y2  1  0.50000000  0.50000000  0.50000000  1
  Mg  Mg0  1  0.00000000  0.50000000  0.00000000  1
  Ge  Ge0  1  0.68631336  0.68043399  1.00000000  1
  Ge  Ge1  1  0.31368664  0.99412163  0.31368664  1
  Ge  Ge2  1  1.00000000  0.31956601  0.31368664  1
  Ge  Ge3  1  0.31368664  0.31956601  0.00000000  1
  Ge  Ge4  1  0.68631336  0.00587837  0.68631336  1
  Ge  Ge5  1  0.00000000  0.68043399  0.68631336  1
  Ir  Ir0  1  0.75333083  0.25333083  0.50666166  1
  Ir  Ir1  1  0.75333083  0.50000000  0.24666917  1
  Ir  Ir2  1  0.50666166  0.25333083  0.75333083  1
  Ir  Ir3  1  0.24666917  0.50000000  0.75333083  1
  Ir  Ir4  1  0.24666917  0.74666917  0.49333834  1
  Ir  Ir5  1  0.49333834  0.74666917  0.24666917  1
  Ir  Ir6  1  0.00000000  0.00000000  0.00000000  1
loop_
_geom_bond_atom_site_label_1
_geom_bond_atom_site_label_2
_geom_bond_distance
_geom_bond_site_symmetry_2
Ge0 Ir1 2.554020 1_556
Ge0 Ir2 2.554021 1_555
Ge0 Ir3 2.592638 1_555
Ge0 Ir5 2.592638 1_556
Ge0 Ir6 2.628831 1_666
Ge0 Mg0 2.961244 1_656
Ge0 Y0 2.966326 1_666
Ge0 Y2 2.966326 1_555
Ge0 Y1 3.050720 1_566
Ge1 Ir5 2.554026 1_555
Ge1 Ir4 2.554026 1_555
Ge1 Ir2 2.592637 1_565
Ge1 Ir0 2.592637 1_565
Ge1 Ir6 2.628826 1_565
Ge1 Mg0 2.961249 1_555
Ge1 Y0 2.966326 1_565
Ge1 Y1 2.966326 1_565
Ge1 Y2 3.050714 1_565
Ge2 Ir1 2.554020 1_555
Ge2 Ir4 2.554021 1_655
Ge2 Ir3 2.592638 1_655
Ge2 Ir0 2.592638 1_555
Ge2 Ir6 2.628831 1_655
Ge2 Mg0 2.961244 1_655
Ge2 Y2 2.966326 1_655
Ge2 Y1 2.966326 1_555
Ge2 Y0 3.050720 1_655
Ge3 Ir3 2.554020 1_554
Ge3 Ir5 2.554021 1_555
Ge3 Ir1 2.592638 1_555
Ge3 Ir2 2.592638 1_554
Ge3 Ir6 2.628831 1_555
Ge3 Mg0 2.961244 1_555
Ge3 Y0 2.966326 1_554
Ge3 Y2 2.966326 1_555
Ge3 Y1 3.050720 1_555
Ge4 Ir2 2.554026 1_555
Ge4 Ir0 2.554026 1_555
Ge4 Ir5 2.592637 1_545
Ge4 Ir4 2.592637 1_545
Ge4 Ir6 2.628826 1_656
Ge4 Mg0 2.961249 1_656
Ge4 Y0 2.966326 1_655
Ge4 Y1 2.966326 1_556
Ge4 Y2 3.050714 1_545
Ge5 Ir3 2.554020 1_555
Ge5 Ir0 2.554021 1_455
Ge5 Ir1 2.592638 1_455
Ge5 Ir4 2.592638 1_555
Ge5 Ir6 2.628831 1_566
Ge5 Mg0 2.961244 1_556
Ge5 Y2 2.966326 1_455
Ge5 Y1 2.966326 1_566
Ge5 Y0 3.050720 1_565
Ir0 Mg0 2.875167 1_656
Ir0 Y1 2.952815 1_555
Ir0 Y2 2.954944 1_555
Ir0 Y0 2.954944 1_655
Ir1 Mg0 2.875167 1_655
Ir1 Y2 2.952816 1_555
Ir1 Y0 2.954944 1_665
Ir1 Y1 2.954944 1_555
Ir2 Mg0 2.875167 1_656
Ir2 Y0 2.952815 1_555
Ir2 Y2 2.954944 1_555
Ir2 Y1 2.954944 1_556
Ir3 Mg0 2.875167 1_556
Ir3 Y2 2.952816 1_555
Ir3 Y0 2.954944 1_555
Ir3 Y1 2.954944 1_566
Ir4 Mg0 2.875167 1_555
Ir4 Y1 2.952815 1_566
Ir4 Y2 2.954944 1_555
Ir4 Y0 2.954944 1_565
Ir5 Mg0 2.875167 1_555
Ir5 Y0 2.952815 1_665
Ir5 Y2 2.954944 1_555
Ir5 Y1 2.954944 1_565
