# generated using pymatgen
data_Ti3Al2RhN
_symmetry_space_group_name_H-M   'P 1'
_cell_length_a   8.11346384
_cell_length_b   8.11346464
_cell_length_c   8.11346387
_cell_angle_alpha   59.99999911
_cell_angle_beta   59.99999586
_cell_angle_gamma   60.00000049
_symmetry_Int_Tables_number   1
_chemical_formula_structural   Ti3Al2RhN
_chemical_formula_sum   'Ti12 Al8 Rh4 N4'
_cell_volume   377.66257172
_cell_formula_units_Z   4
loop_
 _symmetry_equiv_pos_site_id
 _symmetry_equiv_pos_as_xyz
  1  'x, y, z'
loop_
 _atom_site_type_symbol
 _atom_site_label
 _atom_site_symmetry_multiplicity
 _atom_site_fract_x
 _atom_site_fract_y
 _atom_site_fract_z
 _atom_site_occupancy
  Ti  Ti0  1  0.81667265  0.81667265  0.18332735  1
  Ti  Ti1  1  0.06667265  0.43332735  0.43332735  1
  Ti  Ti2  1  0.43332735  0.06667265  0.06667265  1
  Ti  Ti3  1  0.06667265  0.06667265  0.43332735  1
  Ti  Ti4  1  0.06667265  0.43332735  0.06667265  1
  Ti  Ti5  1  0.43332735  0.06667265  0.43332735  1
  Ti  Ti6  1  0.18332735  0.81667265  0.18332735  1
  Ti  Ti7  1  0.18332735  0.81667265  0.81667265  1
  Ti  Ti8  1  0.81667265  0.18332735  0.18332735  1
  Ti  Ti9  1  0.81667265  0.18332735  0.81667265  1
  Ti  Ti10  1  0.43332735  0.43332735  0.06667265  1
  Ti  Ti11  1  0.18332735  0.18332735  0.81667265  1
  Al  Al0  1  0.41558508  0.75324276  0.41558508  1
  Al  Al1  1  0.83441492  0.83441492  0.49675724  1
  Al  Al2  1  0.49675724  0.83441492  0.83441492  1
  Al  Al3  1  0.83441492  0.83441492  0.83441492  1
  Al  Al4  1  0.75324276  0.41558508  0.41558508  1
  Al  Al5  1  0.41558508  0.41558508  0.41558508  1
  Al  Al6  1  0.41558508  0.41558508  0.75324276  1
  Al  Al7  1  0.83441492  0.49675724  0.83441492  1
  Rh  Rh0  1  0.62500000  0.12500000  0.62500000  1
  Rh  Rh1  1  0.62500000  0.62500000  0.12500000  1
  Rh  Rh2  1  0.12500000  0.62500000  0.62500000  1
  Rh  Rh3  1  0.62500000  0.62500000  0.62500000  1
  N  N0  1  0.12500000  0.62500000  0.12500000  1
  N  N1  1  0.12500000  0.12500000  0.62500000  1
  N  N2  1  0.62500000  0.12500000  0.12500000  1
  N  N3  1  0.12500000  0.12500000  0.12500000  1
loop_
_geom_bond_atom_site_label_1
_geom_bond_atom_site_label_2
_geom_bond_distance
_geom_bond_site_symmetry_2
Al0 Rh2 2.491469 1_555
Al0 Rh1 2.491469 1_555
Al0 Rh3 2.491483 1_555
Al1 Rh2 2.491469 1_655
Al1 Rh0 2.491470 1_565
Al1 Rh3 2.491483 1_555
Al2 Rh1 2.491469 1_556
Al2 Rh0 2.491470 1_565
Al2 Rh3 2.491483 1_555
Al3 Rh1 2.491478 1_556
Al3 Rh2 2.491478 1_655
Al3 Rh0 2.491478 1_565
Al4 Rh1 2.491469 1_555
Al4 Rh0 2.491470 1_555
Al4 Rh3 2.491483 1_555
Al5 Rh1 2.491478 1_555
Al5 Rh2 2.491478 1_555
Al5 Rh0 2.491478 1_555
Al6 Rh2 2.491469 1_555
Al6 Rh0 2.491470 1_555
Al6 Rh3 2.491483 1_555
Al7 Rh2 2.491469 1_655
Al7 Rh1 2.491469 1_556
Al7 Rh3 2.491483 1_555
Rh0 Ti2 2.991842 1_556
Rh0 Ti8 2.991842 1_555
Rh0 Ti3 2.991842 1_655
Rh0 Ti11 2.991842 1_555
Rh0 Ti9 2.991843 1_555
Rh0 Ti5 2.991843 1_555
Rh1 Ti4 2.991842 1_655
Rh1 Ti6 2.991842 1_555
Rh1 Ti0 2.991843 1_555
Rh1 Ti10 2.991843 1_555
Rh1 Ti2 2.991843 1_565
Rh1 Ti8 2.991843 1_555
Rh2 Ti4 2.991842 1_556
Rh2 Ti6 2.991842 1_555
Rh2 Ti7 2.991843 1_555
Rh2 Ti1 2.991843 1_555
Rh2 Ti3 2.991843 1_565
Rh2 Ti11 2.991843 1_555
Rh3 Ti0 2.991842 1_555
Rh3 Ti10 2.991842 1_556
Rh3 Ti7 2.991842 1_555
Rh3 Ti1 2.991842 1_655
Rh3 Ti5 2.991843 1_565
Rh3 Ti9 2.991843 1_555
N0 Ti1 2.135925 1_555
N0 Ti7 2.135925 1_554
N0 Ti0 2.135925 1_455
N0 Ti10 2.135925 1_555
N0 Ti6 2.135925 1_555
N0 Ti4 2.135925 1_555
N1 Ti5 2.135925 1_555
N1 Ti9 2.135925 1_455
N1 Ti11 2.135925 1_555
N1 Ti3 2.135925 1_555
N1 Ti1 2.135925 1_555
N1 Ti7 2.135925 1_545
N2 Ti5 2.135925 1_555
N2 Ti9 2.135925 1_554
N2 Ti8 2.135925 1_555
N2 Ti2 2.135925 1_555
N2 Ti10 2.135925 1_555
N2 Ti0 2.135925 1_545
N3 Ti3 2.135925 1_555
N3 Ti11 2.135925 1_554
N3 Ti2 2.135925 1_555
N3 Ti8 2.135925 1_455
N3 Ti4 2.135925 1_555
N3 Ti6 2.135925 1_545
