# generated using pymatgen
data_Y2BiI2
_symmetry_space_group_name_H-M   'P 1'
_cell_length_a   11.42974318
_cell_length_b   11.42974348
_cell_length_c   11.42974356
_cell_angle_alpha   22.17876145
_cell_angle_beta   22.17875701
_cell_angle_gamma   22.17875870
_symmetry_Int_Tables_number   1
_chemical_formula_structural   Y2BiI2
_chemical_formula_sum   'Y2 Bi1 I2'
_cell_volume   186.57581401
_cell_formula_units_Z   1
loop_
 _symmetry_equiv_pos_site_id
 _symmetry_equiv_pos_as_xyz
  1  'x, y, z'
loop_
 _atom_site_type_symbol
 _atom_site_label
 _atom_site_symmetry_multiplicity
 _atom_site_fract_x
 _atom_site_fract_y
 _atom_site_fract_z
 _atom_site_occupancy
  Y  Y0  1  0.61489259  0.61489259  0.61489259  1
  Y  Y1  1  0.38510741  0.38510841  0.38510741  1
  Bi  Bi0  1  0.00000000  0.00000000  0.00000000  1
  I  I0  1  0.22444259  0.22444259  0.22444259  1
  I  I1  1  0.77555741  0.77555741  0.77555741  1
loop_
_geom_bond_atom_site_label_1
_geom_bond_atom_site_label_2
_geom_bond_distance
_geom_bond_site_symmetry_2
Bi0 Y0 3.072481 1_544
Bi0 Y0 3.072481 1_445
Bi0 Y0 3.072482 1_454
Bi0 Y1 3.072486 1_545
Bi0 Y1 3.072489 1_455
Bi0 Y1 3.072489 1_554
I0 Y0 3.176540 1_455
I0 Y0 3.176540 1_554
I0 Y0 3.176540 1_545
I1 Y1 3.176532 1_655
I1 Y1 3.176532 1_556
I1 Y1 3.176536 1_565
