# generated using pymatgen
data_CsSb12RuRh3
_symmetry_space_group_name_H-M   'P 1'
_cell_length_a   8.13896392
_cell_length_b   8.13896348
_cell_length_c   8.13896353
_cell_angle_alpha   109.47708528
_cell_angle_beta   109.47710203
_cell_angle_gamma   109.47709406
_symmetry_Int_Tables_number   1
_chemical_formula_structural   CsSb12RuRh3
_chemical_formula_sum   'Cs1 Sb12 Ru1 Rh3'
_cell_volume   414.94540752
_cell_formula_units_Z   1
loop_
 _symmetry_equiv_pos_site_id
 _symmetry_equiv_pos_as_xyz
  1  'x, y, z'
loop_
 _atom_site_type_symbol
 _atom_site_label
 _atom_site_symmetry_multiplicity
 _atom_site_fract_x
 _atom_site_fract_y
 _atom_site_fract_z
 _atom_site_occupancy
  Cs  Cs0  1  0.00000000  0.00000000  0.00000000  1
  Sb  Sb0  1  0.15931984  0.50067289  0.34459709  1
  Sb  Sb1  1  0.49932711  0.65540291  0.84068016  1
  Sb  Sb2  1  0.34502786  0.84331845  0.18799697  1
  Sb  Sb3  1  0.81200303  0.65497214  0.15668155  1
  Sb  Sb4  1  0.65540291  0.84068016  0.49932711  1
  Sb  Sb5  1  0.18799697  0.34502786  0.84331845  1
  Sb  Sb6  1  0.65497214  0.15668155  0.81200303  1
  Sb  Sb7  1  0.34459709  0.15931984  0.50067289  1
  Sb  Sb8  1  0.50067289  0.34459709  0.15931984  1
  Sb  Sb9  1  0.84068016  0.49932711  0.65540291  1
  Sb  Sb10  1  0.84331845  0.18799697  0.34502786  1
  Sb  Sb11  1  0.15668155  0.81200303  0.65497214  1
  Ru  Ru0  1  0.50000000  0.50000000  0.50000000  1
  Rh  Rh0  1  0.50000000  0.00000000  0.00000000  1
  Rh  Rh1  1  0.00000000  0.50000000  0.00000000  1
  Rh  Rh2  1  0.00000000  0.00000000  0.50000000  1
loop_
_geom_bond_atom_site_label_1
_geom_bond_atom_site_label_2
_geom_bond_distance
_geom_bond_site_symmetry_2
Cs0 Sb7 3.547176 1_555
Cs0 Sb4 3.547176 1_444
Cs0 Sb8 3.547177 1_555
Cs0 Sb1 3.547177 1_444
Cs0 Sb9 3.547177 1_444
Cs0 Sb0 3.547177 1_555
Cs0 Sb2 3.560494 1_545
Cs0 Sb6 3.560494 1_454
Cs0 Sb3 3.560494 1_445
Cs0 Sb5 3.560494 1_554
Cs0 Sb11 3.560495 1_544
Cs0 Sb10 3.560495 1_455
Sb0 Sb11 2.933663 1_555
Sb0 Sb10 2.956070 1_455
Sb1 Sb5 2.933662 1_555
Sb1 Sb3 2.956070 1_556
Sb2 Sb4 2.933662 1_555
Sb2 Sb7 2.956070 1_565
Sb3 Sb8 2.933662 1_555
Sb4 Sb6 2.956070 1_565
Sb5 Sb8 2.956070 1_556
Sb6 Sb7 2.933662 1_555
Sb10 Sb9 2.933663 1_555
Sb11 Sb9 2.956070 1_455
Ru0 Sb9 2.638967 1_555
Ru0 Sb0 2.638967 1_555
Ru0 Sb4 2.638967 1_555
Ru0 Sb7 2.638967 1_555
Ru0 Sb1 2.638967 1_555
Ru0 Sb8 2.638967 1_555
Rh0 Sb6 2.659678 1_554
Rh0 Sb2 2.659678 1_545
Rh0 Sb10 2.661899 1_555
Rh0 Sb11 2.661899 1_544
Rh0 Sb8 2.665966 1_555
Rh0 Sb1 2.665966 1_544
Rh1 Sb5 2.659679 1_554
Rh1 Sb3 2.659679 1_455
Rh1 Sb2 2.661899 1_555
Rh1 Sb6 2.661899 1_454
Rh1 Sb0 2.665966 1_555
Rh1 Sb9 2.665966 1_454
Rh2 Sb10 2.659678 1_455
Rh2 Sb11 2.659678 1_545
Rh2 Sb5 2.661899 1_555
Rh2 Sb3 2.661899 1_445
Rh2 Sb4 2.665966 1_445
Rh2 Sb7 2.665966 1_555
