# generated using pymatgen
data_TaGa(SeO3)4
_symmetry_space_group_name_H-M   'P 1'
_cell_length_a   8.10905606
_cell_length_b   8.17092944
_cell_length_c   8.21523644
_cell_angle_alpha   89.32986882
_cell_angle_beta   90.00000000
_cell_angle_gamma   90.00000000
_symmetry_Int_Tables_number   1
_chemical_formula_structural   TaGa(SeO3)4
_chemical_formula_sum   'Ta2 Ga2 Se8 O24'
_cell_volume   544.29221785
_cell_formula_units_Z   2
loop_
 _symmetry_equiv_pos_site_id
 _symmetry_equiv_pos_as_xyz
  1  'x, y, z'
loop_
 _atom_site_type_symbol
 _atom_site_label
 _atom_site_symmetry_multiplicity
 _atom_site_fract_x
 _atom_site_fract_y
 _atom_site_fract_z
 _atom_site_occupancy
  Ta  Ta0  1  0.00000000  0.00000000  0.50000000  1
  Ta  Ta1  1  0.50000000  0.00000000  0.00000000  1
  Ga  Ga0  1  0.00000000  0.50000000  0.00000000  1
  Ga  Ga1  1  0.50000000  0.50000000  0.50000000  1
  Se  Se0  1  0.31397206  0.65253816  0.18779026  1
  Se  Se1  1  0.81397206  0.34746184  0.31220974  1
  Se  Se2  1  0.67079516  0.80069320  0.66549447  1
  Se  Se3  1  0.17079516  0.19930680  0.83450553  1
  Se  Se4  1  0.68602794  0.34746184  0.81220974  1
  Se  Se5  1  0.18602794  0.65253816  0.68779026  1
  Se  Se6  1  0.32920484  0.19930680  0.33450553  1
  Se  Se7  1  0.82920484  0.80069320  0.16549447  1
  O  O0  1  0.23795258  0.53384403  0.03887388  1
  O  O1  1  0.73795258  0.46615597  0.46112612  1
  O  O2  1  0.76633035  0.95735941  0.55712059  1
  O  O3  1  0.26633035  0.04264059  0.94287941  1
  O  O4  1  0.53895272  0.92238932  0.77508526  1
  O  O5  1  0.45964895  0.52471397  0.26479275  1
  O  O6  1  0.95964895  0.47528603  0.23520725  1
  O  O7  1  0.03895272  0.07761068  0.72491474  1
  O  O8  1  0.94383481  0.22294777  0.43149366  1
  O  O9  1  0.54014567  0.73784125  0.52104682  1
  O  O10  1  0.44383481  0.77705223  0.06850634  1
  O  O11  1  0.04014567  0.26215875  0.97895318  1
  O  O12  1  0.76204742  0.46615597  0.96112612  1
  O  O13  1  0.26204742  0.53384403  0.53887388  1
  O  O14  1  0.23366965  0.04264059  0.44287941  1
  O  O15  1  0.73366965  0.95735941  0.05712059  1
  O  O16  1  0.46104728  0.07761068  0.22491474  1
  O  O17  1  0.54035105  0.47528603  0.73520725  1
  O  O18  1  0.04035105  0.52471397  0.76479275  1
  O  O19  1  0.96104728  0.92238932  0.27508526  1
  O  O20  1  0.05616519  0.77705223  0.56850634  1
  O  O21  1  0.45985433  0.26215875  0.47895318  1
  O  O22  1  0.55616519  0.22294777  0.93149366  1
  O  O23  1  0.95985433  0.73784125  0.02104682  1
loop_
_geom_bond_atom_site_label_1
_geom_bond_atom_site_label_2
_geom_bond_distance
_geom_bond_site_symmetry_2
Ga0 O6 1.967850 1_455
Ga0 O18 1.967850 1_554
Ga0 O0 1.975796 1_555
Ga0 O12 1.975796 1_454
Ga0 O23 1.980019 1_455
Ga0 O11 1.980019 1_554
Ga1 O17 1.967850 1_555
Ga1 O5 1.967850 1_555
Ga1 O1 1.975796 1_555
Ga1 O13 1.975796 1_555
Ga1 O9 1.980019 1_555
Ga1 O21 1.980019 1_555
O0 Se0 1.686718 1_555
O1 Se1 1.686718 1_555
O2 Se2 1.733448 1_555
O2 Ta0 1.981966 1_665
O3 Se3 1.733448 1_555
O3 Ta1 1.981966 1_556
O4 Se2 1.721421 1_555
O4 Ta1 1.985807 1_566
O5 Se0 1.694419 1_555
O6 Se1 1.694419 1_555
O7 Se3 1.721421 1_555
O7 Ta0 1.985807 1_555
O8 Se1 1.755281 1_555
O8 Ta0 1.954161 1_655
O9 Se2 1.675891 1_555
O10 Se0 1.755281 1_555
O10 Ta1 1.954161 1_565
O11 Se3 1.675891 1_555
O12 Se4 1.686718 1_555
O13 Se5 1.686718 1_555
O14 Se6 1.733448 1_555
O14 Ta0 1.981966 1_555
O15 Se7 1.733448 1_555
O15 Ta1 1.981966 1_565
O16 Se6 1.721421 1_555
O16 Ta1 1.985807 1_555
O17 Se4 1.694419 1_555
O18 Se5 1.694419 1_555
O19 Se7 1.721421 1_555
O19 Ta0 1.985807 1_665
O20 Se5 1.755281 1_555
O20 Ta0 1.954161 1_565
O21 Se6 1.675891 1_555
O22 Se4 1.755281 1_555
O22 Ta1 1.954161 1_556
O23 Se7 1.675891 1_555
