# generated using pymatgen
data_Rb5BaNbAs4
_symmetry_space_group_name_H-M   'P 1'
_cell_length_a   10.80128673
_cell_length_b   10.80128745
_cell_length_c   8.31654622
_cell_angle_alpha   88.69962563
_cell_angle_beta   88.69962682
_cell_angle_gamma   120.61481384
_symmetry_Int_Tables_number   1
_chemical_formula_structural   Rb5BaNbAs4
_chemical_formula_sum   'Rb10 Ba2 Nb2 As8'
_cell_volume   834.15037761
_cell_formula_units_Z   2
loop_
 _symmetry_equiv_pos_site_id
 _symmetry_equiv_pos_as_xyz
  1  'x, y, z'
loop_
 _atom_site_type_symbol
 _atom_site_label
 _atom_site_symmetry_multiplicity
 _atom_site_fract_x
 _atom_site_fract_y
 _atom_site_fract_z
 _atom_site_occupancy
  Rb  Rb0  1  0.46614877  0.52512086  0.60660320  1
  Rb  Rb1  1  0.05864886  0.52650367  0.60841019  1
  Rb  Rb2  1  0.52512086  0.46614877  0.10660320  1
  Rb  Rb3  1  0.52650367  0.05864886  0.10841019  1
  Rb  Rb4  1  0.86523002  0.14202498  0.78758925  1
  Rb  Rb5  1  0.29601760  0.15453881  0.82531722  1
  Rb  Rb6  1  0.85539371  0.71674399  0.76700470  1
  Rb  Rb7  1  0.14202498  0.86523002  0.28758925  1
  Rb  Rb8  1  0.71674399  0.85539371  0.26700470  1
  Rb  Rb9  1  0.15453881  0.29601760  0.32531722  1
  Ba  Ba0  1  0.46449878  0.93442225  0.60099829  1
  Ba  Ba1  1  0.93442225  0.46449878  0.10099829  1
  Nb  Nb0  1  0.66888485  0.33139665  0.50146188  1
  Nb  Nb1  1  0.33139665  0.66888485  0.00146188  1
  As  As0  1  0.68292355  0.33635846  0.80209037  1
  As  As1  1  0.33635846  0.68292355  0.30209037  1
  As  As2  1  0.20068064  0.79093986  0.89777324  1
  As  As3  1  0.58256257  0.79717486  0.88204331  1
  As  As4  1  0.19457861  0.40920765  0.92790834  1
  As  As5  1  0.79093986  0.20068064  0.39777324  1
  As  As6  1  0.40920765  0.19457861  0.42790834  1
  As  As7  1  0.79717486  0.58256257  0.38204331  1
loop_
_geom_bond_atom_site_label_1
_geom_bond_atom_site_label_2
_geom_bond_distance
_geom_bond_site_symmetry_2
As0 Nb0 2.508352 1_555
As0 Ba1 3.479633 1_556
As0 Rb4 3.536767 1_555
As0 Rb6 3.544244 1_555
As0 Rb3 3.555007 1_556
As0 Rb5 3.598017 1_555
As0 Rb2 3.699065 1_556
As0 Rb1 3.787651 1_655
As1 Nb1 2.508352 1_555
As1 Ba0 3.479633 1_555
As1 Rb7 3.536767 1_555
As1 Rb8 3.544243 1_555
As1 Rb1 3.555007 1_555
As1 Rb9 3.598017 1_555
As1 Rb0 3.699065 1_555
As1 Rb3 3.787651 1_565
As2 Nb1 2.524809 1_556
As2 Ba0 3.409217 1_555
As2 Rb7 3.478218 1_556
As2 Rb1 3.509910 1_555
As2 Rb5 3.548628 1_565
As2 Ba1 3.569401 1_456
As2 Rb6 3.593589 1_455
As2 Rb3 3.736353 1_566
As3 Nb1 2.500546 1_556
As3 Ba0 3.345220 1_555
As3 Rb4 3.462419 1_565
As3 Rb8 3.481324 1_556
As3 Rb0 3.483714 1_555
As3 Rb6 3.587729 1_555
As3 Rb3 3.717336 1_566
As3 Rb2 3.747242 1_556
As4 Nb1 2.514430 1_556
As4 Rb9 3.437796 1_556
As4 Ba1 3.448158 1_456
As4 Rb4 3.497154 1_455
As4 Rb5 3.553722 1_555
As4 Rb1 3.569314 1_555
As4 Rb0 3.614418 1_555
As4 Rb2 3.657802 1_556
As5 Nb0 2.524809 1_555
As5 Ba1 3.409217 1_555
As5 Rb4 3.478218 1_555
As5 Rb3 3.509910 1_555
As5 Rb9 3.548628 1_655
As5 Ba0 3.569401 1_545
As5 Rb8 3.593589 1_545
As5 Rb1 3.736353 1_655
As6 Nb0 2.514430 1_555
As6 Rb5 3.437796 1_555
As6 Ba0 3.448158 1_545
As6 Rb7 3.497154 1_545
As6 Rb9 3.553722 1_555
As6 Rb3 3.569314 1_555
As6 Rb2 3.614418 1_555
As6 Rb0 3.657802 1_555
As7 Nb0 2.500546 1_555
As7 Ba1 3.345220 1_555
As7 Rb7 3.462419 1_655
As7 Rb6 3.481324 1_555
As7 Rb2 3.483714 1_555
As7 Rb8 3.587729 1_555
As7 Rb1 3.717336 1_655
As7 Rb0 3.747242 1_555
