# generated using pymatgen
data_Ga6PdRh7
_symmetry_space_group_name_H-M   'P 1'
_cell_length_a   6.72414975
_cell_length_b   6.72415008
_cell_length_c   6.72415014
_cell_angle_alpha   113.44421509
_cell_angle_beta   113.44421989
_cell_angle_gamma   113.44420771
_symmetry_Int_Tables_number   1
_chemical_formula_structural   Ga6PdRh7
_chemical_formula_sum   'Ga6 Pd1 Rh7'
_cell_volume   192.08615407
_cell_formula_units_Z   1
loop_
 _symmetry_equiv_pos_site_id
 _symmetry_equiv_pos_as_xyz
  1  'x, y, z'
loop_
 _atom_site_type_symbol
 _atom_site_label
 _atom_site_symmetry_multiplicity
 _atom_site_fract_x
 _atom_site_fract_y
 _atom_site_fract_z
 _atom_site_occupancy
  Ga  Ga0  1  0.36774066  0.22878090  0.95197309  1
  Ga  Ga1  1  0.95197309  0.36774066  0.22878090  1
  Ga  Ga2  1  0.22878090  0.95197309  0.36774066  1
  Ga  Ga3  1  0.63225934  0.77121910  0.04802691  1
  Ga  Ga4  1  0.04802691  0.63225934  0.77121910  1
  Ga  Ga5  1  0.77121910  0.04802691  0.63225934  1
  Pd  Pd0  1  0.50000000  0.50000000  0.50000000  1
  Rh  Rh0  1  0.00000000  0.00000000  0.00000000  1
  Rh  Rh1  1  0.87162955  0.72263444  0.42756795  1
  Rh  Rh2  1  0.42756795  0.87162955  0.72263444  1
  Rh  Rh3  1  0.72263444  0.42756795  0.87162955  1
  Rh  Rh4  1  0.12837045  0.27736556  0.57243205  1
  Rh  Rh5  1  0.57243205  0.12837045  0.27736556  1
  Rh  Rh6  1  0.27736556  0.57243205  0.12837045  1
loop_
_geom_bond_atom_site_label_1
_geom_bond_atom_site_label_2
_geom_bond_distance
_geom_bond_site_symmetry_2
Ga0 Rh0 2.566935 1_556
Ga0 Rh2 2.573488 1_545
Ga0 Rh6 2.574062 1_556
Ga0 Rh5 2.579964 1_556
Ga0 Rh1 2.590263 1_556
Ga0 Rh3 2.614491 1_555
Ga0 Rh4 2.650250 1_555
Ga0 Rh1 2.683657 1_445
Ga0 Pd0 2.906958 1_556
Ga1 Rh0 2.566935 1_655
Ga1 Rh3 2.573487 1_554
Ga1 Rh4 2.574062 1_655
Ga1 Rh6 2.579965 1_655
Ga1 Rh2 2.590263 1_655
Ga1 Rh1 2.614491 1_555
Ga1 Rh5 2.650250 1_555
Ga1 Rh2 2.683657 1_544
Ga1 Pd0 2.906958 1_655
Ga2 Rh0 2.566935 1_565
Ga2 Rh1 2.573488 1_455
Ga2 Rh5 2.574063 1_565
Ga2 Rh4 2.579964 1_565
Ga2 Rh3 2.590263 1_565
Ga2 Rh2 2.614491 1_555
Ga2 Rh6 2.650250 1_555
Ga2 Rh3 2.683657 1_454
Ga2 Pd0 2.906958 1_565
Ga3 Rh0 2.566935 1_665
Ga3 Rh5 2.573488 1_565
Ga3 Rh3 2.574062 1_554
Ga3 Rh2 2.579964 1_554
Ga3 Rh4 2.590263 1_554
Ga3 Rh6 2.614491 1_555
Ga3 Rh1 2.650250 1_555
Ga3 Rh4 2.683657 1_665
Ga3 Pd0 2.906958 1_554
Ga4 Rh0 2.566935 1_566
Ga4 Rh6 2.573487 1_556
Ga4 Rh1 2.574062 1_455
Ga4 Rh3 2.579965 1_455
Ga4 Rh5 2.590263 1_455
Ga4 Rh4 2.614491 1_555
Ga4 Rh2 2.650250 1_555
Ga4 Rh5 2.683657 1_566
Ga4 Pd0 2.906958 1_455
Ga5 Rh0 2.566935 1_656
Ga5 Rh4 2.573488 1_655
Ga5 Rh2 2.574063 1_545
Ga5 Rh1 2.579964 1_545
Ga5 Rh6 2.590263 1_545
Ga5 Rh5 2.614491 1_555
Ga5 Rh3 2.650250 1_555
Ga5 Rh6 2.683657 1_656
Ga5 Pd0 2.906958 1_545
Pd0 Rh0 2.632022 1_555
Pd0 Rh0 2.632022 1_666
Pd0 Rh3 2.700868 1_555
Pd0 Rh6 2.700868 1_555
Pd0 Rh2 2.700868 1_555
Pd0 Rh5 2.700868 1_555
Pd0 Rh1 2.700868 1_555
Pd0 Rh4 2.700868 1_555
