# generated using pymatgen
data_Ca3Mg(TaN3)2
_symmetry_space_group_name_H-M   'P 1'
_cell_length_a   5.55159845
_cell_length_b   5.55159823
_cell_length_c   5.81682963
_cell_angle_alpha   99.18292711
_cell_angle_beta   99.18292517
_cell_angle_gamma   119.96761066
_symmetry_Int_Tables_number   1
_chemical_formula_structural   Ca3Mg(TaN3)2
_chemical_formula_sum   'Ca3 Mg1 Ta2 N6'
_cell_volume   147.19325112
_cell_formula_units_Z   1
loop_
 _symmetry_equiv_pos_site_id
 _symmetry_equiv_pos_as_xyz
  1  'x, y, z'
loop_
 _atom_site_type_symbol
 _atom_site_label
 _atom_site_symmetry_multiplicity
 _atom_site_fract_x
 _atom_site_fract_y
 _atom_site_fract_z
 _atom_site_occupancy
  Ca  Ca0  1  0.83707414  0.16292586  0.50000000  1
  Ca  Ca1  1  0.16292586  0.83707414  0.50000000  1
  Ca  Ca2  1  0.50000000  0.50000000  0.50000000  1
  Mg  Mg0  1  0.00000000  0.00000000  0.00000000  1
  Ta  Ta0  1  0.33248452  0.66751548  1.00000000  1
  Ta  Ta1  1  0.66751548  0.33248452  0.00000000  1
  N  N0  1  0.42429712  0.06991922  0.21037626  1
  N  N1  1  0.93008078  0.57570288  0.78962374  1
  N  N2  1  0.57570288  0.93008078  0.78962374  1
  N  N3  1  0.06991922  0.42429712  0.21037626  1
  N  N4  1  0.71625987  0.71625987  0.21046500  1
  N  N5  1  0.28374013  0.28374013  0.78953500  1
loop_
_geom_bond_atom_site_label_1
_geom_bond_atom_site_label_2
_geom_bond_distance
_geom_bond_site_symmetry_2
Ca0 N1 2.379956 1_555
Ca0 N0 2.379956 1_555
Ca0 N4 2.465812 1_545
Ca0 N5 2.465812 1_655
Ca0 N3 2.493211 1_655
Ca0 N2 2.493211 1_545
Ca1 N3 2.379956 1_555
Ca1 N2 2.379956 1_555
Ca1 N5 2.465812 1_565
Ca1 N4 2.465812 1_455
Ca1 N1 2.493211 1_455
Ca1 N0 2.493211 1_565
Ca2 N5 2.360087 1_555
Ca2 N4 2.360087 1_555
Ca2 N2 2.490644 1_555
Ca2 N0 2.490644 1_555
Ca2 N1 2.490644 1_555
Ca2 N3 2.490644 1_555
Mg0 N3 2.282895 1_555
Mg0 N1 2.282895 1_444
Mg0 N0 2.282895 1_555
Mg0 N2 2.282895 1_444
Mg0 N5 2.283308 1_554
Mg0 N4 2.283308 1_445
N0 Ta0 2.130443 1_544
N0 Ta1 2.139130 1_555
N1 Ta0 2.130443 1_655
N1 Ta1 2.139130 1_556
N2 Ta1 2.130443 1_566
N2 Ta0 2.139130 1_555
N3 Ta1 2.130443 1_455
N3 Ta0 2.139130 1_554
N4 Ta1 2.144078 1_555
N4 Ta0 2.144078 1_554
N5 Ta0 2.144078 1_555
N5 Ta1 2.144078 1_556
