# generated using pymatgen
data_Nb4B2MoAs
_symmetry_space_group_name_H-M   'P 1'
_cell_length_a   7.30823951
_cell_length_b   7.30823907
_cell_length_c   7.30823788
_cell_angle_alpha   129.63700390
_cell_angle_beta   129.63700087
_cell_angle_gamma   73.98774270
_symmetry_Int_Tables_number   1
_chemical_formula_structural   Nb4B2MoAs
_chemical_formula_sum   'Nb8 B4 Mo2 As2'
_cell_volume   225.76394563
_cell_formula_units_Z   2
loop_
 _symmetry_equiv_pos_site_id
 _symmetry_equiv_pos_as_xyz
  1  'x, y, z'
loop_
 _atom_site_type_symbol
 _atom_site_label
 _atom_site_symmetry_multiplicity
 _atom_site_fract_x
 _atom_site_fract_y
 _atom_site_fract_z
 _atom_site_occupancy
  Nb  Nb0  1  0.80354769  0.97016416  0.50000000  1
  Nb  Nb1  1  0.30354769  0.80354769  0.83338453  1
  Nb  Nb2  1  0.19645231  0.02983584  0.50000000  1
  Nb  Nb3  1  0.52983584  0.69645231  0.50000000  1
  Nb  Nb4  1  0.02983584  0.52983584  0.83338453  1
  Nb  Nb5  1  0.69645231  0.19645231  0.16661547  1
  Nb  Nb6  1  0.97016416  0.47016416  0.16661547  1
  Nb  Nb7  1  0.47016416  0.30354769  0.50000000  1
  B  B0  1  0.38025645  0.88025645  0.26051290  1
  B  B1  1  0.88025645  0.61974355  0.50000000  1
  B  B2  1  0.61974355  0.11974355  0.73948710  1
  B  B3  1  0.11974355  0.38025645  0.50000000  1
  Mo  Mo0  1  0.00000000  0.00000000  0.00000000  1
  Mo  Mo1  1  0.50000000  0.50000000  0.00000000  1
  As  As0  1  0.75000000  0.75000000  0.00000000  1
  As  As1  1  0.25000000  0.25000000  0.00000000  1
loop_
_geom_bond_atom_site_label_1
_geom_bond_atom_site_label_2
_geom_bond_distance
_geom_bond_site_symmetry_2
B0 B2 2.106329 1_565
B0 Nb3 2.410629 1_555
B0 Nb2 2.410629 1_565
B0 Nb7 2.410630 1_565
B0 Nb0 2.410630 1_555
B0 Nb1 2.465907 1_554
B0 Nb4 2.465915 1_554
B0 Mo1 2.479344 1_555
B0 Mo0 2.479344 1_565
B1 B3 2.106329 1_655
B1 Nb5 2.410629 1_555
B1 Nb1 2.410629 1_655
B1 Nb6 2.410636 1_555
B1 Nb4 2.410636 1_655
B1 Nb0 2.465914 1_555
B1 Nb3 2.465915 1_555
B1 Mo0 2.479344 1_666
B1 Mo1 2.479344 1_555
B2 Nb7 2.410629 1_555
B2 Nb0 2.410629 1_545
B2 Nb3 2.410630 1_545
B2 Nb2 2.410630 1_555
B2 Nb5 2.465907 1_556
B2 Nb6 2.465915 1_556
B2 Mo1 2.479344 1_556
B2 Mo0 2.479344 1_656
B3 Nb1 2.410629 1_555
B3 Nb5 2.410629 1_455
B3 Nb4 2.410636 1_555
B3 Nb6 2.410636 1_455
B3 Nb2 2.465914 1_555
B3 Nb7 2.465915 1_555
B3 Mo0 2.479344 1_555
B3 Mo1 2.479344 1_556
Mo0 Nb1 2.814979 1_544
Mo0 Nb5 2.814979 1_455
Mo0 Nb2 2.814983 1_555
Mo0 Nb0 2.814983 1_444
Mo0 Nb7 2.814984 1_555
Mo0 Nb3 2.814984 1_444
Mo0 Nb6 2.814986 1_455
Mo0 Nb4 2.814986 1_544
Mo1 Nb1 2.814979 1_554
Mo1 Nb5 2.814979 1_555
Mo1 Nb7 2.814983 1_554
Mo1 Nb3 2.814983 1_555
Mo1 Nb0 2.814984 1_555
Mo1 Nb2 2.814984 1_554
Mo1 Nb6 2.814986 1_555
Mo1 Nb4 2.814986 1_554
As0 Nb6 2.667622 1_555
As0 Nb4 2.667622 1_654
As0 Nb0 2.667626 1_555
As0 Nb3 2.667626 1_554
As0 Nb7 2.667627 1_554
As0 Nb2 2.667627 1_665
As0 Nb5 2.667628 1_565
As0 Nb1 2.667629 1_554
As0 Mo1 2.918545 1_555
As0 Mo0 2.918545 1_665
As1 Nb4 2.667622 1_554
As1 Nb6 2.667622 1_455
As1 Nb2 2.667626 1_554
As1 Nb7 2.667626 1_555
As1 Nb3 2.667627 1_555
As1 Nb0 2.667627 1_444
As1 Nb1 2.667628 1_544
As1 Nb5 2.667629 1_555
As1 Mo1 2.918545 1_555
As1 Mo0 2.918545 1_555
