# generated using pymatgen
data_Cs7Rb9(SnSe4)4
_symmetry_space_group_name_H-M   'P 1'
_cell_length_a   8.68777309
_cell_length_b   10.81310555
_cell_length_c   15.94303093
_cell_angle_alpha   90.00000000
_cell_angle_beta   90.11689884
_cell_angle_gamma   90.00000000
_symmetry_Int_Tables_number   1
_chemical_formula_structural   Cs7Rb9(SnSe4)4
_chemical_formula_sum   'Cs7 Rb9 Sn4 Se16'
_cell_volume   1497.71402418
_cell_formula_units_Z   1
loop_
 _symmetry_equiv_pos_site_id
 _symmetry_equiv_pos_as_xyz
  1  'x, y, z'
loop_
 _atom_site_type_symbol
 _atom_site_label
 _atom_site_symmetry_multiplicity
 _atom_site_fract_x
 _atom_site_fract_y
 _atom_site_fract_z
 _atom_site_occupancy
  Cs  Cs0  1  0.00171581  0.99915446  0.99982012  1
  Cs  Cs1  1  0.49825403  0.00086670  0.50125746  1
  Cs  Cs2  1  0.00171581  0.50084554  0.99982012  1
  Cs  Cs3  1  0.49825403  0.49913330  0.50125746  1
  Cs  Cs4  1  0.99055342  0.75000000  0.42309407  1
  Cs  Cs5  1  0.49298603  0.25000000  0.07753941  1
  Cs  Cs6  1  0.00729251  0.25000000  0.57739697  1
  Rb  Rb0  1  0.52009883  0.75000000  0.92300093  1
  Rb  Rb1  1  0.82663134  0.04881499  0.26970456  1
  Rb  Rb2  1  0.32764737  0.95028428  0.22705444  1
  Rb  Rb3  1  0.17137904  0.55031996  0.73031430  1
  Rb  Rb4  1  0.67357418  0.44958089  0.77264609  1
  Rb  Rb5  1  0.17137904  0.94968004  0.73031430  1
  Rb  Rb6  1  0.67357418  0.05041911  0.77264609  1
  Rb  Rb7  1  0.82663134  0.45118501  0.26970456  1
  Rb  Rb8  1  0.32764737  0.54971572  0.22705444  1
  Sn  Sn0  1  0.77271126  0.75000000  0.67190467  1
  Sn  Sn1  1  0.22437344  0.25000000  0.32918643  1
  Sn  Sn2  1  0.72420362  0.75000000  0.16806820  1
  Sn  Sn3  1  0.27804487  0.25000000  0.83035696  1
  Se  Se0  1  0.98401534  0.25000000  0.82208620  1
  Se  Se1  1  0.51824258  0.25000000  0.32136825  1
  Se  Se2  1  0.47963261  0.75000000  0.68309884  1
  Se  Se3  1  0.01788748  0.75000000  0.17845437  1
  Se  Se4  1  0.63140810  0.56081096  0.09087644  1
  Se  Se5  1  0.13274426  0.44155745  0.40426573  1
  Se  Se6  1  0.36923194  0.05754592  0.90552836  1
  Se  Se7  1  0.86494591  0.94062317  0.59601597  1
  Se  Se8  1  0.36923194  0.44245408  0.90552836  1
  Se  Se9  1  0.86494591  0.55937683  0.59601597  1
  Se  Se10  1  0.63140810  0.93918904  0.09087644  1
  Se  Se11  1  0.13274426  0.05844255  0.40426573  1
  Se  Se12  1  0.61177612  0.75000000  0.31722383  1
  Se  Se13  1  0.11157318  0.25000000  0.17991508  1
  Se  Se14  1  0.38861888  0.25000000  0.68074039  1
  Se  Se15  1  0.88293190  0.75000000  0.82159644  1
loop_
_geom_bond_atom_site_label_1
_geom_bond_atom_site_label_2
_geom_bond_distance
_geom_bond_site_symmetry_2
Cs0 Se6 3.587859 1_565
Cs0 Se10 3.591242 1_456
Cs0 Se3 3.922678 1_556
Cs0 Se0 3.925363 1_465
Cs0 Se15 4.047845 1_455
Cs0 Se13 4.062152 1_566
Cs1 Se7 3.582729 1_545
Cs1 Se11 3.583618 1_555
Cs1 Se1 3.938860 1_555
Cs1 Se2 3.973832 1_545
Cs1 Se14 4.045203 1_555
Cs1 Se12 4.117237 1_545
Cs2 Se8 3.587859 1_555
Cs2 Se4 3.591242 1_456
Cs2 Se3 3.922678 1_556
Cs2 Se0 3.925363 1_455
Cs2 Se15 4.047845 1_455
Cs2 Se13 4.062152 1_556
Cs3 Se9 3.582729 1_555
Cs3 Se5 3.583618 1_555
Cs3 Se1 3.938860 1_555
Cs3 Se2 3.973832 1_555
Cs3 Se14 4.045203 1_555
Cs3 Se12 4.117237 1_555
Cs4 Se11 3.569502 1_665
Cs4 Se5 3.569502 1_655
Cs4 Se7 3.612791 1_555
Cs4 Se9 3.612791 1_555
Cs4 Se12 3.695298 1_555
Cs4 Se3 3.908004 1_655
Cs5 Se4 3.575690 1_555
Cs5 Se10 3.575690 1_545
Cs5 Se8 3.604888 1_554
Cs5 Se6 3.604888 1_554
Cs5 Se13 3.696784 1_555
Cs5 Se1 3.893111 1_555
Cs6 Se9 3.579130 1_455
Cs6 Se7 3.579130 1_445
Cs6 Se5 3.620700 1_555
Cs6 Se11 3.620700 1_555
Cs6 Se14 3.696957 1_555
Cs6 Se0 3.906738 1_455
Rb0 Se10 3.503272 1_556
Rb0 Se4 3.503272 1_556
Rb0 Se15 3.545551 1_555
Rb0 Se6 3.585131 1_565
Rb0 Se8 3.585131 1_555
Rb0 Se2 3.840175 1_555
Rb1 Se11 3.415047 1_655
Rb1 Se10 3.520027 1_545
Rb1 Se1 3.549386 1_555
Rb1 Se13 3.595047 1_655
Rb1 Sn2 3.721797 1_545
Rb1 Se12 3.808425 1_545
Rb1 Se3 3.915013 1_645
Rb2 Se10 3.422828 1_555
Rb2 Se11 3.498103 1_565
Rb2 Se3 3.538960 1_555
Rb2 Se12 3.582680 1_555
Rb2 Sn1 3.737039 1_565
Rb2 Se13 3.819177 1_565
Rb2 Se1 3.936469 1_565
Rb3 Se9 3.414405 1_455
Rb3 Se8 3.478327 1_555
Rb3 Se2 3.522603 1_555
Rb3 Se15 3.615889 1_455
Rb3 Sn3 3.733931 1_555
Rb3 Se14 3.839052 1_555
Rb3 Se0 3.917351 1_455
Rb4 Se8 3.392354 1_555
Rb4 Se9 3.481783 1_555
Rb4 Se0 3.541752 1_555
Rb4 Se14 3.594197 1_555
Rb4 Sn0 3.725533 1_555
Rb4 Se15 3.803156 1_555
Rb4 Se2 3.926812 1_555
Rb5 Se7 3.414405 1_455
Rb5 Se6 3.478327 1_565
Rb5 Se2 3.522603 1_555
Rb5 Se15 3.615889 1_455
Rb5 Sn3 3.733931 1_565
Rb5 Se14 3.839052 1_565
Rb5 Se0 3.917351 1_465
Rb6 Se6 3.392354 1_555
Rb6 Se7 3.481783 1_545
Rb6 Se0 3.541752 1_555
Rb6 Se14 3.594197 1_555
Rb6 Sn0 3.725533 1_545
Rb6 Se15 3.803156 1_545
Rb6 Se2 3.926812 1_545
Rb7 Se5 3.415047 1_655
Rb7 Se4 3.520027 1_555
Rb7 Se1 3.549386 1_555
Rb7 Se13 3.595047 1_655
Rb7 Sn2 3.721797 1_555
Rb7 Se12 3.808425 1_555
Rb7 Se3 3.915013 1_655
Rb8 Se4 3.422828 1_555
Rb8 Se5 3.498103 1_555
Rb8 Se3 3.538960 1_555
Rb8 Se12 3.582680 1_555
Rb8 Sn1 3.737039 1_555
Rb8 Se13 3.819177 1_555
Rb8 Se1 3.936469 1_555
Se0 Sn3 2.557594 1_655
Se1 Sn1 2.556363 1_555
Se2 Sn0 2.552811 1_555
Se3 Sn2 2.556489 1_455
Se4 Sn2 2.519010 1_555
Se5 Sn1 2.522061 1_555
Se6 Sn3 2.527984 1_555
Se7 Sn0 2.521621 1_555
Se8 Sn3 2.527984 1_555
Se9 Sn0 2.521621 1_555
Se10 Sn2 2.519010 1_555
Se11 Sn1 2.522061 1_555
Se12 Sn2 2.572617 1_555
Se13 Sn1 2.571863 1_555
Se14 Sn3 2.573332 1_555
Se15 Sn0 2.569668 1_555
