# generated using pymatgen
data_TiAl3CuMo
_symmetry_space_group_name_H-M   'P 1'
_cell_length_a   4.85698803
_cell_length_b   4.85698873
_cell_length_c   4.85698915
_cell_angle_alpha   62.91477910
_cell_angle_beta   62.91477517
_cell_angle_gamma   62.91478691
_symmetry_Int_Tables_number   1
_chemical_formula_structural   TiAl3CuMo
_chemical_formula_sum   'Ti1 Al3 Cu1 Mo1'
_cell_volume   86.26504105
_cell_formula_units_Z   1
loop_
 _symmetry_equiv_pos_site_id
 _symmetry_equiv_pos_as_xyz
  1  'x, y, z'
loop_
 _atom_site_type_symbol
 _atom_site_label
 _atom_site_symmetry_multiplicity
 _atom_site_fract_x
 _atom_site_fract_y
 _atom_site_fract_z
 _atom_site_occupancy
  Ti  Ti0  1  0.87889543  0.87889543  0.87889543  1
  Al  Al0  1  0.00137206  0.49972270  0.49972270  1
  Al  Al1  1  0.49972270  0.49972270  0.00137206  1
  Al  Al2  1  0.49972270  0.00137206  0.49972270  1
  Cu  Cu0  1  0.50086605  0.50086605  0.50086605  1
  Mo  Mo0  1  0.11941905  0.11941905  0.11941905  1
loop_
_geom_bond_atom_site_label_1
_geom_bond_atom_site_label_2
_geom_bond_distance
_geom_bond_site_symmetry_2
Al0 Cu0 2.425908 1_455
Al0 Cu0 2.431106 1_555
Al0 Al1 2.526328 1_555
Al0 Al2 2.526328 1_555
Al0 Al1 2.543050 1_456
Al0 Al2 2.543050 1_465
Al0 Ti0 2.868868 1_455
Al0 Mo0 2.886290 1_555
Al0 Mo0 2.888633 1_565
Al0 Mo0 2.888634 1_556
Al0 Ti0 2.901163 1_445
Al0 Ti0 2.901163 1_454
Al1 Cu0 2.425909 1_554
Al1 Cu0 2.431107 1_555
Al1 Al2 2.526328 1_555
Al1 Al2 2.543050 1_564
Al1 Ti0 2.868867 1_554
Al1 Mo0 2.886289 1_555
Al1 Mo0 2.888633 1_655
Al1 Mo0 2.888634 1_565
Al1 Ti0 2.901163 1_454
Al1 Ti0 2.901163 1_544
Al2 Cu0 2.425908 1_545
Al2 Cu0 2.431107 1_555
Al2 Ti0 2.868867 1_545
Al2 Mo0 2.886290 1_555
Al2 Mo0 2.888633 1_655
Al2 Mo0 2.888634 1_556
Al2 Ti0 2.901162 1_445
Al2 Ti0 2.901163 1_544
Cu0 Ti0 2.972596 1_554
Cu0 Ti0 2.972596 1_455
Cu0 Ti0 2.972596 1_545
Cu0 Mo0 2.979801 1_556
Cu0 Mo0 2.979801 1_655
Cu0 Mo0 2.979802 1_565
Mo0 Ti0 2.796880 1_444
Mo0 Ti0 3.119441 1_544
Mo0 Ti0 3.119441 1_445
Mo0 Ti0 3.119441 1_454
