# generated using pymatgen
data_Sr5SiBi2
_symmetry_space_group_name_H-M   'P 1'
_cell_length_a   8.64168985
_cell_length_b   10.03165713
_cell_length_c   13.80043326
_cell_angle_alpha   90.00000000
_cell_angle_beta   90.00000000
_cell_angle_gamma   90.00000000
_symmetry_Int_Tables_number   1
_chemical_formula_structural   Sr5SiBi2
_chemical_formula_sum   'Sr20 Si4 Bi8'
_cell_volume   1196.36603974
_cell_formula_units_Z   4
loop_
 _symmetry_equiv_pos_site_id
 _symmetry_equiv_pos_as_xyz
  1  'x, y, z'
loop_
 _atom_site_type_symbol
 _atom_site_label
 _atom_site_symmetry_multiplicity
 _atom_site_fract_x
 _atom_site_fract_y
 _atom_site_fract_z
 _atom_site_occupancy
  Sr  Sr0  1  0.83041495  0.52523986  0.08015759  1
  Sr  Sr1  1  0.66958505  0.97476014  0.58015759  1
  Sr  Sr2  1  0.16958505  0.02523986  0.91984241  1
  Sr  Sr3  1  0.33041495  0.47476014  0.41984241  1
  Sr  Sr4  1  0.16958505  0.47476014  0.91984241  1
  Sr  Sr5  1  0.33041495  0.02523986  0.41984241  1
  Sr  Sr6  1  0.83041495  0.97476014  0.08015759  1
  Sr  Sr7  1  0.66958505  0.52523986  0.58015759  1
  Sr  Sr8  1  0.17421422  0.75000000  0.21308095  1
  Sr  Sr9  1  0.32578578  0.75000000  0.71308095  1
  Sr  Sr10  1  0.82578578  0.25000000  0.78691905  1
  Sr  Sr11  1  0.67421422  0.25000000  0.28691905  1
  Sr  Sr12  1  0.44365203  0.75000000  0.99993606  1
  Sr  Sr13  1  0.05634797  0.75000000  0.49993606  1
  Sr  Sr14  1  0.55634797  0.25000000  0.00006394  1
  Sr  Sr15  1  0.94365203  0.25000000  0.50006394  1
  Sr  Sr16  1  0.65054896  0.75000000  0.30701436  1
  Sr  Sr17  1  0.84945104  0.75000000  0.80701436  1
  Sr  Sr18  1  0.34945104  0.25000000  0.69298564  1
  Sr  Sr19  1  0.15054896  0.25000000  0.19298564  1
  Si  Si0  1  0.44627961  0.75000000  0.49355364  1
  Si  Si1  1  0.05372039  0.75000000  0.99355364  1
  Si  Si2  1  0.55372039  0.25000000  0.50644636  1
  Si  Si3  1  0.94627961  0.25000000  0.00644636  1
  Bi  Bi0  1  0.94923513  0.50538241  0.33083306  1
  Bi  Bi1  1  0.55076487  0.99461759  0.83083306  1
  Bi  Bi2  1  0.05076487  0.00538241  0.66916694  1
  Bi  Bi3  1  0.44923513  0.49461759  0.16916694  1
  Bi  Bi4  1  0.05076487  0.49461759  0.66916694  1
  Bi  Bi5  1  0.44923513  0.00538241  0.16916694  1
  Bi  Bi6  1  0.94923513  0.99461759  0.33083306  1
  Bi  Bi7  1  0.55076487  0.50538241  0.83083306  1
loop_
_geom_bond_atom_site_label_1
_geom_bond_atom_site_label_2
_geom_bond_distance
_geom_bond_site_symmetry_2
Si0 Sr5 3.108225 1_565
Si0 Sr3 3.108225 1_555
Si0 Sr16 3.121407 1_555
Si0 Sr1 3.199385 1_555
Si0 Sr7 3.199385 1_555
Si0 Sr9 3.203521 1_555
Si0 Sr13 3.370819 1_555
Si1 Sr2 3.108225 1_565
Si1 Sr4 3.108225 1_555
Si1 Sr17 3.121407 1_455
Si1 Sr6 3.199385 1_456
Si1 Sr0 3.199385 1_456
Si1 Sr8 3.203521 1_556
Si1 Sr12 3.370819 1_555
Si2 Sr7 3.108225 1_555
Si2 Sr1 3.108225 1_545
Si2 Sr18 3.121407 1_555
Si2 Sr3 3.199385 1_555
Si2 Sr5 3.199385 1_555
Si2 Sr11 3.203521 1_555
Si2 Sr15 3.370819 1_555
Si3 Sr0 3.108225 1_555
Si3 Sr6 3.108225 1_545
Si3 Sr19 3.121407 1_655
Si3 Sr4 3.199385 1_654
Si3 Sr2 3.199385 1_654
Si3 Sr10 3.203521 1_554
Si3 Sr14 3.370819 1_555
Bi0 Sr15 3.466998 1_555
Bi0 Sr13 3.510649 1_655
Bi0 Sr8 3.527373 1_655
Bi0 Sr3 3.529014 1_655
Bi0 Sr11 3.546702 1_555
Bi0 Sr16 3.576608 1_555
Bi0 Sr0 3.614093 1_555
Bi0 Sr19 3.634399 1_655
Bi1 Sr14 3.466998 1_566
Bi1 Sr12 3.510649 1_555
Bi1 Sr9 3.527373 1_555
Bi1 Sr2 3.529014 1_565
Bi1 Sr10 3.546702 1_565
Bi1 Sr17 3.576608 1_555
Bi1 Sr1 3.614093 1_555
Bi1 Sr18 3.634399 1_565
Bi2 Sr13 3.466998 1_545
Bi2 Sr15 3.510649 1_455
Bi2 Sr10 3.527373 1_455
Bi2 Sr1 3.529014 1_445
Bi2 Sr9 3.546702 1_545
Bi2 Sr18 3.576608 1_555
Bi2 Sr2 3.614093 1_555
Bi2 Sr17 3.634399 1_445
Bi3 Sr12 3.466998 1_554
Bi3 Sr14 3.510649 1_555
Bi3 Sr11 3.527373 1_555
Bi3 Sr0 3.529014 1_555
Bi3 Sr8 3.546702 1_555
Bi3 Sr19 3.576608 1_555
Bi3 Sr3 3.614093 1_555
Bi3 Sr16 3.634399 1_555
Bi4 Sr13 3.466998 1_555
Bi4 Sr15 3.510649 1_455
Bi4 Sr10 3.527373 1_455
Bi4 Sr7 3.529014 1_455
Bi4 Sr9 3.546702 1_555
Bi4 Sr18 3.576608 1_555
Bi4 Sr4 3.614093 1_555
Bi4 Sr17 3.634399 1_455
Bi5 Sr12 3.466998 1_544
Bi5 Sr14 3.510649 1_555
Bi5 Sr11 3.527373 1_555
Bi5 Sr6 3.529014 1_545
Bi5 Sr8 3.546702 1_545
Bi5 Sr19 3.576608 1_555
Bi5 Sr5 3.614093 1_555
Bi5 Sr16 3.634399 1_545
Bi6 Sr15 3.466998 1_565
Bi6 Sr13 3.510649 1_655
Bi6 Sr8 3.527373 1_655
Bi6 Sr5 3.529014 1_665
Bi6 Sr11 3.546702 1_565
Bi6 Sr16 3.576608 1_555
Bi6 Sr6 3.614093 1_555
Bi6 Sr19 3.634399 1_665
Bi7 Sr14 3.466998 1_556
Bi7 Sr12 3.510649 1_555
Bi7 Sr9 3.527373 1_555
Bi7 Sr4 3.529014 1_555
Bi7 Sr10 3.546702 1_555
Bi7 Sr17 3.576608 1_555
Bi7 Sr7 3.614093 1_555
Bi7 Sr18 3.634399 1_555
