# generated using pymatgen
data_Ni15O16
_symmetry_space_group_name_H-M   'P 1'
_cell_length_a   10.69415359
_cell_length_b   10.69415359
_cell_length_c   10.69415320
_cell_angle_alpha   32.04801955
_cell_angle_beta   32.04801955
_cell_angle_gamma   32.04802247
_symmetry_Int_Tables_number   1
_chemical_formula_structural   Ni15O16
_chemical_formula_sum   'Ni15 O16'
_cell_volume   305.99184297
_cell_formula_units_Z   1
loop_
 _symmetry_equiv_pos_site_id
 _symmetry_equiv_pos_as_xyz
  1  'x, y, z'
loop_
 _atom_site_type_symbol
 _atom_site_label
 _atom_site_symmetry_multiplicity
 _atom_site_fract_x
 _atom_site_fract_y
 _atom_site_fract_z
 _atom_site_occupancy
  Ni  Ni0  1  0.24838500  0.75043900  0.24838500  1
  Ni  Ni1  1  0.50000000  0.00000000  0.00000000  1
  Ni  Ni2  1  0.75161500  0.24956100  0.75161500  1
  Ni  Ni3  1  0.75161500  0.75161500  0.24956100  1
  Ni  Ni4  1  0.24838500  0.24838500  0.75043900  1
  Ni  Ni5  1  0.50000000  0.50000000  0.50000000  1
  Ni  Ni6  1  0.67562100  0.67562100  0.67562100  1
  Ni  Ni7  1  0.75043900  0.24838500  0.24838500  1
  Ni  Ni8  1  0.00000000  0.50000000  0.00000000  1
  Ni  Ni9  1  0.24956100  0.75161500  0.75161500  1
  Ni  Ni10  1  0.00000000  0.00000000  0.50000000  1
  Ni  Ni11  1  0.24392500  0.24392500  0.24392500  1
  Ni  Ni12  1  0.75607500  0.75607500  0.75607500  1
  Ni  Ni13  1  0.32437900  0.32437900  0.32437900  1
  Ni  Ni14  1  0.00000000  0.00000000  0.00000000  1
  O  O0  1  0.61364800  0.61364800  0.61364800  1
  O  O1  1  0.87973700  0.87973700  0.37498700  1
  O  O2  1  0.12455600  0.12455600  0.12455600  1
  O  O3  1  0.37143300  0.37143300  0.87344000  1
  O  O4  1  0.62501300  0.12026300  0.12026300  1
  O  O5  1  0.12656000  0.62856700  0.62856700  1
  O  O6  1  0.87973700  0.37498700  0.87973700  1
  O  O7  1  0.37143300  0.87344000  0.37143300  1
  O  O8  1  0.38635200  0.38635200  0.38635200  1
  O  O9  1  0.87544400  0.87544400  0.87544400  1
  O  O10  1  0.12026300  0.12026300  0.62501300  1
  O  O11  1  0.62856700  0.62856700  0.12656000  1
  O  O12  1  0.12026300  0.62501300  0.12026300  1
  O  O13  1  0.37498700  0.87973700  0.87973700  1
  O  O14  1  0.62856700  0.12656000  0.62856700  1
  O  O15  1  0.87344000  0.37143300  0.37143300  1
loop_
_geom_bond_atom_site_label_1
_geom_bond_atom_site_label_2
_geom_bond_distance
_geom_bond_site_symmetry_2
Ni0 O8 1.930582 1_555
Ni0 O13 2.042445 1_554
Ni0 O1 2.042446 1_455
Ni0 O2 2.126988 1_565
Ni0 O5 2.200546 1_555
Ni0 O11 2.200546 1_555
Ni1 O7 2.069550 1_545
Ni1 O14 2.069550 1_554
Ni1 O3 2.069550 1_554
Ni1 O11 2.069550 1_545
Ni1 O2 2.131806 1_555
Ni1 O9 2.131806 1_544
Ni2 O0 1.930582 1_555
Ni2 O4 2.042445 1_556
Ni2 O10 2.042446 1_655
Ni2 O9 2.126988 1_545
Ni2 O15 2.200546 1_555
Ni2 O3 2.200546 1_555
Ni3 O0 1.930582 1_555
Ni3 O12 2.042446 1_655
Ni3 O4 2.042446 1_565
Ni3 O9 2.126988 1_554
Ni3 O15 2.200546 1_555
Ni3 O7 2.200546 1_555
Ni4 O8 1.930582 1_555
Ni4 O6 2.042446 1_455
Ni4 O13 2.042446 1_545
Ni4 O2 2.126988 1_556
Ni4 O5 2.200546 1_555
Ni4 O14 2.200546 1_555
Ni5 O3 2.077983 1_555
Ni5 O11 2.077983 1_555
Ni5 O7 2.077984 1_555
Ni5 O15 2.077984 1_555
Ni5 O5 2.077984 1_555
Ni5 O14 2.077984 1_555
Ni6 O0 1.884541 1_555
Ni6 O1 2.037099 1_555
Ni6 O13 2.037099 1_555
Ni6 O6 2.037099 1_555
Ni7 O8 1.930582 1_555
Ni7 O6 2.042445 1_554
Ni7 O1 2.042446 1_545
Ni7 O2 2.126988 1_655
Ni7 O14 2.200546 1_555
Ni7 O11 2.200546 1_555
Ni8 O15 2.069550 1_455
Ni8 O5 2.069550 1_554
Ni8 O3 2.069550 1_554
Ni8 O11 2.069550 1_455
Ni8 O2 2.131806 1_555
Ni8 O9 2.131806 1_454
Ni9 O0 1.930582 1_555
Ni9 O12 2.042445 1_556
Ni9 O10 2.042446 1_565
Ni9 O9 2.126988 1_455
Ni9 O7 2.200546 1_555
Ni9 O3 2.200546 1_555
Ni10 O15 2.069550 1_455
Ni10 O7 2.069550 1_545
Ni10 O14 2.069550 1_455
Ni10 O5 2.069550 1_545
Ni10 O9 2.131806 1_445
Ni10 O2 2.131806 1_555
Ni11 O3 2.061903 1_554
Ni11 O7 2.061903 1_545
Ni11 O15 2.061903 1_455
Ni11 O10 2.190585 1_555
Ni11 O12 2.190585 1_555
Ni11 O4 2.190585 1_555
Ni12 O11 2.061903 1_556
Ni12 O5 2.061903 1_655
Ni12 O14 2.061903 1_565
Ni12 O1 2.190585 1_555
Ni12 O6 2.190585 1_555
Ni12 O13 2.190585 1_555
Ni13 O8 1.884541 1_555
Ni13 O10 2.037099 1_555
Ni13 O12 2.037099 1_555
Ni13 O4 2.037099 1_555
Ni14 O1 2.169675 1_445
Ni14 O10 2.169675 1_554
Ni14 O6 2.169675 1_454
Ni14 O13 2.169675 1_544
Ni14 O4 2.169675 1_455
Ni14 O12 2.169675 1_545
