# generated using pymatgen
data_TcPt3Rh5
_symmetry_space_group_name_H-M   'P 1'
_cell_length_a   6.10356475
_cell_length_b   6.10356460
_cell_length_c   6.10356504
_cell_angle_alpha   95.68602765
_cell_angle_beta   95.63436958
_cell_angle_gamma   143.39284078
_symmetry_Int_Tables_number   1
_chemical_formula_structural   TcPt3Rh5
_chemical_formula_sum   'Tc1 Pt3 Rh5'
_cell_volume   128.73175715
_cell_formula_units_Z   1
loop_
 _symmetry_equiv_pos_site_id
 _symmetry_equiv_pos_as_xyz
  1  'x, y, z'
loop_
 _atom_site_type_symbol
 _atom_site_label
 _atom_site_symmetry_multiplicity
 _atom_site_fract_x
 _atom_site_fract_y
 _atom_site_fract_z
 _atom_site_occupancy
  Tc  Tc0  1  1.00000000  0.00478272  0.00478272  1
  Pt  Pt0  1  1.00000000  0.67197595  0.67197595  1
  Pt  Pt1  1  0.67156131  0.99828971  0.66985002  1
  Pt  Pt2  1  0.32843869  0.99828971  0.32672839  1
  Rh  Rh0  1  0.33862478  0.34004896  0.67867274  1
  Rh  Rh1  1  0.65851189  0.66114593  0.31965582  1
  Rh  Rh2  1  0.66137522  0.34004896  0.00142417  1
  Rh  Rh3  1  0.34148811  0.66114593  0.00263404  1
  Rh  Rh4  1  0.00000000  0.32427514  0.32427514  1
loop_
_geom_bond_atom_site_label_1
_geom_bond_atom_site_label_2
_geom_bond_distance
_geom_bond_site_symmetry_2
Pt0 Rh0 2.705595 1_555
Pt0 Rh2 2.705596 1_556
Pt0 Rh2 2.705597 1_666
Pt0 Rh0 2.705598 1_665
Pt0 Tc0 2.726682 1_566
Pt0 Pt1 2.770719 1_545
Pt0 Pt2 2.770721 1_655
Pt0 Pt2 2.770721 1_545
Pt0 Pt1 2.770722 1_655
Pt0 Rh3 2.800607 1_656
Pt0 Rh1 2.800616 1_555
Pt0 Rh4 2.848709 1_655
Pt1 Rh0 2.688944 1_555
Pt1 Rh0 2.688944 1_665
Pt1 Tc0 2.692764 1_566
Pt1 Rh3 2.719329 1_666
Pt1 Rh3 2.719331 1_556
Pt1 Rh1 2.764290 1_555
Pt1 Rh4 2.772097 1_665
Pt1 Rh4 2.772100 1_555
Pt1 Rh2 2.801278 1_566
Pt1 Pt2 2.812595 1_555
Pt2 Rh2 2.688944 1_565
Pt2 Rh2 2.688944 1_455
Pt2 Tc0 2.692760 1_465
Pt2 Rh1 2.719323 1_455
Pt2 Rh1 2.719329 1_565
Pt2 Rh3 2.764286 1_555
Pt2 Rh4 2.772103 1_555
Pt2 Rh4 2.772103 1_665
Pt2 Rh0 2.801270 1_565
Rh0 Rh3 2.630853 1_556
Rh0 Rh2 2.645611 1_556
Rh0 Tc0 2.691778 1_566
Rh0 Tc0 2.691781 1_456
Rh0 Rh4 2.778733 1_555
Rh0 Rh1 2.828860 1_445
Rh0 Rh1 2.828863 1_555
Rh1 Rh3 2.598657 1_555
Rh1 Rh2 2.630841 1_555
Rh1 Tc0 2.646439 1_565
Rh1 Tc0 2.646444 1_455
Rh1 Rh4 2.673721 1_665
Rh1 Rh4 2.673726 1_555
Rh2 Tc0 2.691775 1_565
Rh2 Tc0 2.691775 1_455
Rh2 Rh4 2.778737 1_655
Rh2 Rh3 2.828857 1_545
Rh2 Rh3 2.828857 1_655
Rh3 Tc0 2.646449 1_455
Rh3 Tc0 2.646449 1_565
Rh3 Rh4 2.673723 1_555
Rh3 Rh4 2.673724 1_665
Rh4 Tc0 2.617598 1_455
