# generated using pymatgen
data_KLuI4
_symmetry_space_group_name_H-M   'P 1'
_cell_length_a   7.83629201
_cell_length_b   7.58115349
_cell_length_c   19.01464073
_cell_angle_alpha   90.00000000
_cell_angle_beta   90.00000000
_cell_angle_gamma   90.00000000
_symmetry_Int_Tables_number   1
_chemical_formula_structural   KLuI4
_chemical_formula_sum   'K4 Lu4 I16'
_cell_volume   1129.62429577
_cell_formula_units_Z   4
loop_
 _symmetry_equiv_pos_site_id
 _symmetry_equiv_pos_as_xyz
  1  'x, y, z'
loop_
 _atom_site_type_symbol
 _atom_site_label
 _atom_site_symmetry_multiplicity
 _atom_site_fract_x
 _atom_site_fract_y
 _atom_site_fract_z
 _atom_site_occupancy
  K  K0  1  0.00000000  0.25000000  0.32145397  1
  K  K1  1  0.50000000  0.75000000  0.17854603  1
  K  K2  1  0.00000000  0.75000000  0.67854603  1
  K  K3  1  0.50000000  0.25000000  0.82145397  1
  Lu  Lu0  1  0.00000000  0.25000000  0.06636693  1
  Lu  Lu1  1  0.50000000  0.25000000  0.56636693  1
  Lu  Lu2  1  0.00000000  0.75000000  0.93363307  1
  Lu  Lu3  1  0.50000000  0.75000000  0.43363307  1
  I  I0  1  0.27041645  0.61512591  0.32771927  1
  I  I1  1  0.78599719  0.42550975  0.95167865  1
  I  I2  1  0.28599719  0.57449025  0.54832135  1
  I  I3  1  0.71400281  0.92550975  0.54832135  1
  I  I4  1  0.77041645  0.38487409  0.17228073  1
  I  I5  1  0.22958355  0.61512591  0.82771927  1
  I  I6  1  0.72958355  0.88487409  0.32771927  1
  I  I7  1  0.22958355  0.11512591  0.17228073  1
  I  I8  1  0.27041645  0.11512591  0.67228073  1
  I  I9  1  0.72958355  0.38487409  0.67228073  1
  I  I10  1  0.21400281  0.57449025  0.04832135  1
  I  I11  1  0.77041645  0.88487409  0.82771927  1
  I  I12  1  0.78599719  0.92550975  0.04832135  1
  I  I13  1  0.28599719  0.07449025  0.45167865  1
  I  I14  1  0.71400281  0.42550975  0.45167865  1
  I  I15  1  0.21400281  0.07449025  0.95167865  1
loop_
_geom_bond_atom_site_label_1
_geom_bond_atom_site_label_2
_geom_bond_distance
_geom_bond_site_symmetry_2
I0 Lu3 2.887569 1_555
I0 K0 3.488103 1_555
I0 K1 3.511097 1_555
I1 Lu2 2.996945 1_655
I1 Lu0 3.055879 1_656
I1 K3 3.595085 1_555
I2 Lu1 2.996945 1_555
I2 Lu3 3.055879 1_555
I2 K2 3.595085 1_555
I3 Lu1 2.996945 1_565
I3 Lu3 3.055879 1_555
I3 K2 3.595085 1_655
I4 Lu0 2.887569 1_655
I4 K1 3.488103 1_555
I4 K0 3.511097 1_655
I5 Lu2 2.887569 1_555
I5 K3 3.488103 1_555
I5 K2 3.511097 1_555
I6 Lu3 2.887569 1_555
I6 K0 3.488103 1_665
I6 K1 3.511097 1_555
I7 Lu0 2.887569 1_555
I7 K1 3.488103 1_545
I7 K0 3.511097 1_555
I8 Lu1 2.887569 1_555
I8 K2 3.488103 1_545
I8 K3 3.511097 1_555
I9 Lu1 2.887569 1_555
I9 K2 3.488103 1_655
I9 K3 3.511097 1_555
I10 Lu0 2.996945 1_555
I10 Lu2 3.055879 1_554
I10 K1 3.595085 1_555
I11 Lu2 2.887569 1_655
I11 K3 3.488103 1_565
I11 K2 3.511097 1_655
I12 Lu0 2.996945 1_665
I12 Lu2 3.055879 1_654
I12 K1 3.595085 1_555
I13 Lu3 2.996945 1_545
I13 Lu1 3.055879 1_555
I13 K0 3.595085 1_555
I14 Lu3 2.996945 1_555
I14 Lu1 3.055879 1_555
I14 K0 3.595085 1_655
I15 Lu2 2.996945 1_545
I15 Lu0 3.055879 1_556
I15 K3 3.595085 1_555
