# generated using pymatgen
data_MgHg2SO6
_symmetry_space_group_name_H-M   'P 1'
_cell_length_a   6.53435651
_cell_length_b   7.13261993
_cell_length_c   7.22104193
_cell_angle_alpha   73.50928245
_cell_angle_beta   64.13588684
_cell_angle_gamma   63.33537663
_symmetry_Int_Tables_number   1
_chemical_formula_structural   MgHg2SO6
_chemical_formula_sum   'Mg2 Hg4 S2 O12'
_cell_volume   269.00351864
_cell_formula_units_Z   2
loop_
 _symmetry_equiv_pos_site_id
 _symmetry_equiv_pos_as_xyz
  1  'x, y, z'
loop_
 _atom_site_type_symbol
 _atom_site_label
 _atom_site_symmetry_multiplicity
 _atom_site_fract_x
 _atom_site_fract_y
 _atom_site_fract_z
 _atom_site_occupancy
  Mg  Mg0  1  0.33437061  0.12696706  0.20819688  1
  Mg  Mg1  1  0.66562839  0.87303194  0.79180412  1
  Hg  Hg0  1  0.83149436  0.63598439  0.21359372  1
  Hg  Hg1  1  0.32890844  0.63423592  0.21437246  1
  Hg  Hg2  1  0.67109256  0.36576408  0.78562754  1
  Hg  Hg3  1  0.16850664  0.36401561  0.78640628  1
  S  S0  1  0.78119851  0.12567903  0.31990734  1
  S  S1  1  0.21880049  0.87432297  0.68009266  1
  O  O0  1  0.53384776  0.81569022  0.12663737  1
  O  O1  1  0.65964254  0.13024527  0.18670064  1
  O  O2  1  0.03437678  0.11157576  0.18788684  1
  O  O3  1  0.15314023  0.44506299  0.25414420  1
  O  O4  1  0.64553785  0.31925475  0.42295091  1
  O  O5  1  0.79088262  0.93626886  0.47312308  1
  O  O6  1  0.20911738  0.06373114  0.52687692  1
  O  O7  1  0.35446215  0.68074525  0.57704909  1
  O  O8  1  0.84685977  0.55493801  0.74585580  1
  O  O9  1  0.96562222  0.88842424  0.81211316  1
  O  O10  1  0.34035746  0.86975573  0.81329936  1
  O  O11  1  0.46615124  0.18431178  0.87336263  1
loop_
_geom_bond_atom_site_label_1
_geom_bond_atom_site_label_2
_geom_bond_distance
_geom_bond_site_symmetry_2
Mg0 O6 2.065832 1_555
Mg0 O1 2.072883 1_555
Mg0 O2 2.080703 1_555
Mg0 O3 2.081638 1_555
Mg0 O0 2.109591 1_545
Mg0 O11 2.166325 1_554
Mg1 O5 2.065839 1_555
Mg1 O10 2.072873 1_555
Mg1 O9 2.080703 1_555
Mg1 O8 2.081627 1_555
Mg1 O11 2.109607 1_565
Mg1 O0 2.166317 1_556
Hg0 O3 2.024659 1_655
Hg0 O0 2.047203 1_555
Hg1 O3 2.026166 1_555
Hg1 O0 2.054174 1_555
Hg2 O8 2.026167 1_555
Hg2 O11 2.054173 1_555
Hg3 O8 2.024665 1_455
Hg3 O11 2.047191 1_555
O1 S0 1.477423 1_555
O2 S0 1.478143 1_455
O4 S0 1.468008 1_555
O5 S0 1.479537 1_565
O6 S1 1.479527 1_545
O7 S1 1.468019 1_555
O9 S1 1.478146 1_655
O10 S1 1.477425 1_555
