# generated using pymatgen
data_CaGaPt
_symmetry_space_group_name_H-M   'P 1'
_cell_length_a   4.44290363
_cell_length_b   7.11286581
_cell_length_c   7.54619721
_cell_angle_alpha   90.00000000
_cell_angle_beta   90.00000000
_cell_angle_gamma   90.00000000
_symmetry_Int_Tables_number   1
_chemical_formula_structural   CaGaPt
_chemical_formula_sum   'Ca4 Ga4 Pt4'
_cell_volume   238.47324390
_cell_formula_units_Z   4
loop_
 _symmetry_equiv_pos_site_id
 _symmetry_equiv_pos_as_xyz
  1  'x, y, z'
loop_
 _atom_site_type_symbol
 _atom_site_label
 _atom_site_symmetry_multiplicity
 _atom_site_fract_x
 _atom_site_fract_y
 _atom_site_fract_z
 _atom_site_occupancy
  Ca  Ca0  1  0.75000000  0.98847081  0.31231687  1
  Ca  Ca1  1  0.25000000  0.01152919  0.68768313  1
  Ca  Ca2  1  0.75000000  0.48847081  0.18768313  1
  Ca  Ca3  1  0.25000000  0.51152919  0.81231687  1
  Ga  Ga0  1  0.75000000  0.83616299  0.92457581  1
  Ga  Ga1  1  0.25000000  0.16383701  0.07542419  1
  Ga  Ga2  1  0.75000000  0.33616299  0.57542419  1
  Ga  Ga3  1  0.25000000  0.66383701  0.42457581  1
  Pt  Pt0  1  0.75000000  0.70473208  0.60411543  1
  Pt  Pt1  1  0.25000000  0.29526792  0.39588457  1
  Pt  Pt2  1  0.75000000  0.20473208  0.89588457  1
  Pt  Pt3  1  0.25000000  0.79526792  0.10411543  1
loop_
_geom_bond_atom_site_label_1
_geom_bond_atom_site_label_2
_geom_bond_distance
_geom_bond_site_symmetry_2
Ca0 Pt0 2.986935 1_555
Ca0 Pt3 3.048244 1_555
Ca0 Pt3 3.048244 1_655
Ca0 Ga1 3.112298 1_565
Ca0 Ga1 3.112298 1_665
Ca0 Ga0 3.120087 1_554
Ca0 Ga2 3.171469 1_565
Ca0 Pt1 3.177193 1_565
Ca0 Pt1 3.177193 1_665
Ca0 Ga3 3.314258 1_555
Ca0 Ga3 3.314258 1_655
Ca0 Pt2 3.498765 1_564
Ca0 Ca1 3.603512 1_665
Ca0 Ca1 3.603512 1_565
Ca0 Ca2 3.678692 1_565
Ca0 Ca2 3.678692 1_555
Ca1 Pt1 2.986935 1_555
Ca1 Pt2 3.048244 1_455
Ca1 Pt2 3.048244 1_555
Ca1 Ga0 3.112298 1_445
Ca1 Ga0 3.112298 1_545
Ca1 Ga1 3.120087 1_556
Ca1 Ga3 3.171469 1_545
Ca1 Pt0 3.177193 1_445
Ca1 Pt0 3.177193 1_545
Ca1 Ga2 3.314258 1_555
Ca1 Ga2 3.314258 1_455
Ca1 Pt3 3.498765 1_546
Ca1 Ca3 3.678692 1_555
Ca1 Ca3 3.678692 1_545
Ca2 Pt2 2.986935 1_554
Ca2 Pt1 3.048244 1_555
Ca2 Pt1 3.048244 1_655
Ca2 Ga3 3.112298 1_555
Ca2 Ga3 3.112298 1_655
Ca2 Ga2 3.120087 1_555
Ca2 Ga0 3.171469 1_554
Ca2 Pt3 3.177193 1_555
Ca2 Pt3 3.177193 1_655
Ca2 Ga1 3.314258 1_555
Ca2 Ga1 3.314258 1_655
Ca2 Pt0 3.498765 1_555
Ca2 Ca3 3.603512 1_654
Ca2 Ca3 3.603512 1_554
Ca3 Pt3 2.986935 1_556
Ca3 Pt0 3.048244 1_455
Ca3 Pt0 3.048244 1_555
Ca3 Ga2 3.112298 1_555
Ca3 Ga2 3.112298 1_455
Ca3 Ga3 3.120087 1_555
Ca3 Ga1 3.171469 1_556
Ca3 Pt2 3.177193 1_455
Ca3 Pt2 3.177193 1_555
Ca3 Ga0 3.314258 1_555
Ca3 Ga0 3.314258 1_455
Ca3 Pt1 3.498765 1_555
Ga0 Pt0 2.592665 1_555
Ga0 Pt3 2.618216 1_656
Ga0 Pt3 2.618216 1_556
Ga0 Pt2 2.630508 1_565
Ga1 Pt1 2.592665 1_555
Ga1 Pt2 2.618216 1_554
Ga1 Pt2 2.618216 1_454
Ga1 Pt3 2.630508 1_545
Ga2 Pt2 2.592665 1_555
Ga2 Pt1 2.618216 1_555
Ga2 Pt1 2.618216 1_655
Ga2 Pt0 2.630508 1_555
Ga3 Pt3 2.592665 1_555
Ga3 Pt0 2.618216 1_455
Ga3 Pt0 2.618216 1_555
Ga3 Pt1 2.630508 1_555
