# generated using pymatgen
data_Hf6GaPbC4
_symmetry_space_group_name_H-M   'P 1'
_cell_length_a   3.31469136
_cell_length_b   3.31469223
_cell_length_c   19.49894367
_cell_angle_alpha   90.00000000
_cell_angle_beta   90.00000000
_cell_angle_gamma   120.00000120
_symmetry_Int_Tables_number   1
_chemical_formula_structural   Hf6GaPbC4
_chemical_formula_sum   'Hf6 Ga1 Pb1 C4'
_cell_volume   185.53592643
_cell_formula_units_Z   1
loop_
 _symmetry_equiv_pos_site_id
 _symmetry_equiv_pos_as_xyz
  1  'x, y, z'
loop_
 _atom_site_type_symbol
 _atom_site_label
 _atom_site_symmetry_multiplicity
 _atom_site_fract_x
 _atom_site_fract_y
 _atom_site_fract_z
 _atom_site_occupancy
  Hf  Hf0  1  0.00000000  0.00000000  0.99365279  1
  Hf  Hf1  1  0.33333400  0.66666800  0.12275020  1
  Hf  Hf2  1  0.33333400  0.66666800  0.37724980  1
  Hf  Hf3  1  0.00000000  0.00000000  0.50634721  1
  Hf  Hf4  1  0.66666700  0.33333200  0.63625572  1
  Hf  Hf5  1  0.66666700  0.33333200  0.86374428  1
  Ga  Ga0  1  0.00000000  0.00000000  0.75000000  1
  Pb  Pb0  1  0.00000000  0.00000000  0.25000000  1
  C  C0  1  0.66666700  0.33333200  0.06446476  1
  C  C1  1  0.66666700  0.33333200  0.43553524  1
  C  C2  1  0.33333400  0.66666800  0.57676145  1
  C  C3  1  0.33333400  0.66666800  0.92323855  1
loop_
_geom_bond_atom_site_label_1
_geom_bond_atom_site_label_2
_geom_bond_distance
_geom_bond_site_symmetry_2
Hf1 Pb0 3.133516 1_665
Hf1 Pb0 3.133516 1_565
Hf1 Pb0 3.133520 1_555
Hf2 Pb0 3.133516 1_665
Hf2 Pb0 3.133516 1_565
Hf2 Pb0 3.133520 1_555
Ga0 Hf5 2.929407 1_455
Ga0 Hf4 2.929407 1_455
Ga0 Hf5 2.929411 1_555
Ga0 Hf4 2.929411 1_555
Ga0 Hf5 2.929413 1_445
Ga0 Hf4 2.929413 1_445
C0 Hf1 2.225760 1_545
C0 Hf1 2.225767 1_655
C0 Hf1 2.225772 1_555
C0 Hf0 2.359845 1_654
C0 Hf0 2.359850 1_554
C0 Hf0 2.359853 1_664
C1 Hf2 2.225760 1_545
C1 Hf2 2.225767 1_655
C1 Hf2 2.225772 1_555
C1 Hf3 2.359845 1_655
C1 Hf3 2.359850 1_555
C1 Hf3 2.359853 1_665
C2 Hf4 2.237888 1_565
C2 Hf4 2.237894 1_455
C2 Hf4 2.237900 1_555
C2 Hf3 2.355318 1_665
C2 Hf3 2.355318 1_565
C2 Hf3 2.355323 1_555
C3 Hf5 2.237888 1_565
C3 Hf5 2.237894 1_455
C3 Hf5 2.237900 1_555
C3 Hf0 2.355318 1_665
C3 Hf0 2.355318 1_565
C3 Hf0 2.355323 1_555
