# generated using pymatgen
data_LiCrSnS4
_symmetry_space_group_name_H-M   'P 1'
_cell_length_a   7.31106208
_cell_length_b   7.31106120
_cell_length_c   7.31106154
_cell_angle_alpha   120.94699112
_cell_angle_beta   118.85876408
_cell_angle_gamma   90.17778733
_symmetry_Int_Tables_number   1
_chemical_formula_structural   LiCrSnS4
_chemical_formula_sum   'Li2 Cr2 Sn2 S8'
_cell_volume   276.61868300
_cell_formula_units_Z   2
loop_
 _symmetry_equiv_pos_site_id
 _symmetry_equiv_pos_as_xyz
  1  'x, y, z'
loop_
 _atom_site_type_symbol
 _atom_site_label
 _atom_site_symmetry_multiplicity
 _atom_site_fract_x
 _atom_site_fract_y
 _atom_site_fract_z
 _atom_site_occupancy
  Li  Li0  1  0.88499986  0.63499986  0.25000000  1
  Li  Li1  1  0.11500014  0.36500014  0.75000000  1
  Cr  Cr0  1  0.50000000  0.00000000  0.00000000  1
  Cr  Cr1  1  0.50000000  0.50000000  0.50000000  1
  Sn  Sn0  1  0.50000000  0.00000000  0.50000000  1
  Sn  Sn1  1  0.00000000  0.00000000  0.00000000  1
  S  S0  1  0.73586452  0.74064539  0.50478087  1
  S  S1  1  0.73586452  0.23108364  0.99521913  1
  S  S2  1  0.72541047  0.75450112  0.97090935  1
  S  S3  1  0.28359176  0.75450112  0.52909065  1
  S  S4  1  0.26413548  0.25935461  0.49521913  1
  S  S5  1  0.26413548  0.76891636  0.00478087  1
  S  S6  1  0.27458953  0.24549888  0.02909065  1
  S  S7  1  0.71640824  0.24549888  0.47090935  1
loop_
_geom_bond_atom_site_label_1
_geom_bond_atom_site_label_2
_geom_bond_distance
_geom_bond_site_symmetry_2
Li0 S1 2.396073 1_554
Li0 S0 2.396073 1_555
Li0 S2 2.414495 1_554
Li0 S3 2.414495 1_655
Li1 S5 2.396073 1_556
Li1 S4 2.396073 1_555
Li1 S6 2.414495 1_556
Li1 S7 2.414495 1_455
Cr0 S1 2.435155 1_554
Cr0 S5 2.435155 1_545
Cr0 S2 2.438586 1_544
Cr0 S6 2.438586 1_555
Cr0 S7 2.438586 1_555
Cr0 S3 2.438586 1_544
Cr1 S0 2.435155 1_555
Cr1 S4 2.435155 1_555
Cr1 S3 2.438586 1_555
Cr1 S7 2.438586 1_555
Cr1 S2 2.438586 1_555
Cr1 S6 2.438586 1_555
S0 Sn0 2.569150 1_565
S0 Sn1 2.569150 1_666
S1 Sn1 2.569150 1_656
S1 Sn0 2.569150 1_555
S2 Sn1 2.543588 1_666
S3 Sn0 2.543588 1_565
S4 Sn0 2.569150 1_555
S4 Sn1 2.569150 1_555
S5 Sn1 2.569150 1_565
S5 Sn0 2.569150 1_565
S6 Sn1 2.543588 1_555
S7 Sn0 2.543588 1_555
