# generated using pymatgen
data_VInPO5
_symmetry_space_group_name_H-M   'P 1'
_cell_length_a   6.27593290
_cell_length_b   6.65980594
_cell_length_c   10.23439911
_cell_angle_alpha   82.81721890
_cell_angle_beta   72.40167880
_cell_angle_gamma   109.44191777
_symmetry_Int_Tables_number   1
_chemical_formula_structural   VInPO5
_chemical_formula_sum   'V4 In4 P4 O20'
_cell_volume   372.17751895
_cell_formula_units_Z   4
loop_
 _symmetry_equiv_pos_site_id
 _symmetry_equiv_pos_as_xyz
  1  'x, y, z'
loop_
 _atom_site_type_symbol
 _atom_site_label
 _atom_site_symmetry_multiplicity
 _atom_site_fract_x
 _atom_site_fract_y
 _atom_site_fract_z
 _atom_site_occupancy
  V  V0  1  0.44648708  0.32426437  0.92086610  1
  V  V1  1  0.55351620  0.67573274  0.07913114  1
  V  V2  1  0.94648245  0.82426921  0.42087018  1
  V  V3  1  0.05351155  0.17573328  0.57913350  1
  In  In0  1  0.99444447  0.27342178  0.21252942  1
  In  In1  1  0.49444450  0.77341190  0.71252719  1
  In  In2  1  0.50555460  0.22658352  0.28747308  1
  In  In3  1  0.00555956  0.72657627  0.78747161  1
  P  P0  1  0.39640689  0.68363248  0.41519605  1
  P  P1  1  0.89641864  0.18363227  0.91518971  1
  P  P2  1  0.10358408  0.81636719  0.08481039  1
  P  P3  1  0.60359003  0.31637070  0.58480476  1
  O  O0  1  0.39358700  0.34474800  0.11514806  1
  O  O1  1  0.89359192  0.84474965  0.61515054  1
  O  O2  1  0.10640526  0.15525390  0.38485488  1
  O  O3  1  0.60641762  0.65524741  0.88485063  1
  O  O4  1  0.59644807  0.80629620  0.46852277  1
  O  O5  1  0.09645970  0.30630962  0.96851431  1
  O  O6  1  0.90354508  0.69369221  0.03148395  1
  O  O7  1  0.40354857  0.19370664  0.53147617  1
  O  O8  1  0.80731583  0.50160720  0.46179604  1
  O  O9  1  0.30730433  0.00160195  0.96179895  1
  O  O10  1  0.69269706  0.99839502  0.03820108  1
  O  O11  1  0.19268133  0.49839366  0.53820656  1
  O  O12  1  0.29833219  0.85093876  0.36620926  1
  O  O13  1  0.79833650  0.35092945  0.86619566  1
  O  O14  1  0.20166630  0.64907000  0.13380034  1
  O  O15  1  0.70165894  0.14906172  0.63379486  1
  O  O16  1  0.50079065  0.59516611  0.28989731  1
  O  O17  1  0.00080564  0.09516353  0.78989361  1
  O  O18  1  0.99919543  0.90483283  0.21010448  1
  O  O19  1  0.49920952  0.40483941  0.71009940  1
loop_
_geom_bond_atom_site_label_1
_geom_bond_atom_site_label_2
_geom_bond_distance
_geom_bond_site_symmetry_2
In0 O2 2.234702 1_655
In0 O0 2.252501 1_655
In0 O14 2.301231 1_655
In0 O5 2.344709 1_654
In0 O18 2.467938 1_545
In1 O3 2.234729 1_555
In1 O1 2.252508 1_555
In1 O15 2.301237 1_565
In1 O4 2.344612 1_555
In1 O19 2.467863 1_555
In2 O0 2.234719 1_555
In2 O2 2.252535 1_555
In2 O12 2.301215 1_545
In2 O7 2.344604 1_555
In2 O16 2.467923 1_555
In3 O1 2.234706 1_455
In3 O3 2.252492 1_455
In3 O13 2.301222 1_455
In3 O6 2.344685 1_456
In3 O17 2.467930 1_565
O0 V0 1.944534 1_554
O0 V1 2.025454 1_555
O1 V2 1.944520 1_555
O1 V3 2.025442 1_665
O2 V3 1.944498 1_555
O2 V2 2.025452 1_445
O3 V1 1.944522 1_556
O3 V0 2.025446 1_555
O4 P0 1.544159 1_555
O4 V2 2.059269 1_555
O5 P1 1.544171 1_455
O5 V0 2.059270 1_555
O6 P2 1.544169 1_655
O6 V1 2.059270 1_555
O7 P3 1.544174 1_555
O7 V3 2.059280 1_555
O8 P3 1.526367 1_555
O8 V2 1.964740 1_555
O9 P2 1.526364 1_546
O9 V0 1.964740 1_555
O10 P1 1.526373 1_564
O10 V1 1.964740 1_555
O11 P0 1.526382 1_555
O11 V3 1.964729 1_555
O12 P0 1.541156 1_555
O12 V2 2.046380 1_455
O13 P1 1.541168 1_555
O13 V0 2.046381 1_555
O14 P2 1.541153 1_555
O14 V1 2.046390 1_555
O15 P3 1.541156 1_555
O15 V3 2.046394 1_655
O16 P0 1.535778 1_555
O16 V1 2.052094 1_555
O17 P1 1.535774 1_455
O17 V3 2.052065 1_555
O18 P2 1.535749 1_655
O18 V2 2.052107 1_555
O19 P3 1.535750 1_555
O19 V0 2.052108 1_555
