# generated using pymatgen
data_Mg2Bi3Pt3O14
_symmetry_space_group_name_H-M   'P 1'
_cell_length_a   7.16947267
_cell_length_b   7.16947267
_cell_length_c   7.16947355
_cell_angle_alpha   60.56898572
_cell_angle_beta   60.56898768
_cell_angle_gamma   60.56898405
_symmetry_Int_Tables_number   1
_chemical_formula_structural   Mg2Bi3Pt3O14
_chemical_formula_sum   'Mg2 Bi3 Pt3 O14'
_cell_volume   263.93270259
_cell_formula_units_Z   1
loop_
 _symmetry_equiv_pos_site_id
 _symmetry_equiv_pos_as_xyz
  1  'x, y, z'
loop_
 _atom_site_type_symbol
 _atom_site_label
 _atom_site_symmetry_multiplicity
 _atom_site_fract_x
 _atom_site_fract_y
 _atom_site_fract_z
 _atom_site_occupancy
  Mg  Mg0  1  0.50000000  0.50000000  0.50000000  1
  Mg  Mg1  1  0.00000000  0.00000000  0.00000000  1
  Bi  Bi0  1  0.00000000  0.50000000  0.50000000  1
  Bi  Bi1  1  0.50000000  0.50000000  0.00000000  1
  Bi  Bi2  1  0.50000000  0.00000000  0.50000000  1
  Pt  Pt0  1  0.50000000  0.00000000  0.00000000  1
  Pt  Pt1  1  0.00000000  0.00000000  0.50000000  1
  Pt  Pt2  1  0.00000000  0.50000000  0.00000000  1
  O  O0  1  0.38592459  0.38592459  0.38592459  1
  O  O1  1  0.61407541  0.61407541  0.61407541  1
  O  O2  1  0.90229794  0.33248801  0.33248801  1
  O  O3  1  0.35038774  0.90728320  0.90728320  1
  O  O4  1  0.33248801  0.33248801  0.90229794  1
  O  O5  1  0.90728320  0.90728320  0.35038774  1
  O  O6  1  0.90728320  0.35038774  0.90728320  1
  O  O7  1  0.33248801  0.90229794  0.33248801  1
  O  O8  1  0.09770206  0.66751199  0.66751199  1
  O  O9  1  0.64961226  0.09271680  0.09271680  1
  O  O10  1  0.66751199  0.66751199  0.09770206  1
  O  O11  1  0.09271680  0.09271680  0.64961226  1
  O  O12  1  0.09271680  0.64961226  0.09271680  1
  O  O13  1  0.66751199  0.09770206  0.66751199  1
loop_
_geom_bond_atom_site_label_1
_geom_bond_atom_site_label_2
_geom_bond_distance
_geom_bond_site_symmetry_2
Mg0 O1 1.994683 1_555
Mg0 O0 1.994683 1_555
Mg0 O7 2.410967 1_555
Mg0 O13 2.410967 1_555
Mg0 O2 2.410967 1_555
Mg0 O8 2.410967 1_555
Mg0 O4 2.410967 1_555
Mg0 O10 2.410967 1_555
Mg1 O6 2.084820 1_454
Mg1 O12 2.084820 1_545
Mg1 O3 2.084820 1_544
Mg1 O9 2.084820 1_455
Mg1 O5 2.084821 1_445
Mg1 O11 2.084821 1_554
Bi0 O0 2.281005 1_555
Bi0 O1 2.281005 1_455
Bi0 O5 2.415357 1_455
Bi0 O11 2.415357 1_555
Bi0 O6 2.415358 1_455
Bi0 O12 2.415358 1_555
Bi0 O8 2.538949 1_555
Bi0 O2 2.538949 1_455
Bi1 O0 2.281005 1_555
Bi1 O1 2.281005 1_554
Bi1 O3 2.415357 1_554
Bi1 O9 2.415357 1_555
Bi1 O6 2.415357 1_554
Bi1 O12 2.415357 1_555
Bi1 O10 2.538949 1_555
Bi1 O4 2.538949 1_554
Bi2 O0 2.281005 1_555
Bi2 O1 2.281005 1_545
Bi2 O5 2.415357 1_545
Bi2 O11 2.415357 1_555
Bi2 O3 2.415358 1_545
Bi2 O9 2.415358 1_555
Bi2 O13 2.538949 1_555
Bi2 O7 2.538949 1_545
O2 Pt1 1.996911 1_655
O2 Pt2 1.996911 1_655
O3 Pt0 1.967225 1_566
O4 Pt0 1.996911 1_556
O4 Pt2 1.996911 1_556
O5 Pt1 1.967225 1_665
O6 Pt2 1.967225 1_656
O7 Pt1 1.996911 1_565
O7 Pt0 1.996911 1_565
O8 Pt1 1.996911 1_565
O8 Pt2 1.996911 1_556
O9 Pt0 1.967225 1_555
O10 Pt0 1.996911 1_565
O10 Pt2 1.996911 1_655
O11 Pt1 1.967225 1_555
O12 Pt2 1.967225 1_555
O13 Pt1 1.996911 1_655
O13 Pt0 1.996911 1_556
