# generated using pymatgen
data_K4Sr(GeS3)2
_symmetry_space_group_name_H-M   'P 1'
_cell_length_a   7.17923868
_cell_length_b   7.17923782
_cell_length_c   8.38029619
_cell_angle_alpha   81.74734555
_cell_angle_beta   81.74734866
_cell_angle_gamma   119.75321250
_symmetry_Int_Tables_number   1
_chemical_formula_structural   K4Sr(GeS3)2
_chemical_formula_sum   'K4 Sr1 Ge2 S6'
_cell_volume   359.32672274
_cell_formula_units_Z   1
loop_
 _symmetry_equiv_pos_site_id
 _symmetry_equiv_pos_as_xyz
  1  'x, y, z'
loop_
 _atom_site_type_symbol
 _atom_site_label
 _atom_site_symmetry_multiplicity
 _atom_site_fract_x
 _atom_site_fract_y
 _atom_site_fract_z
 _atom_site_occupancy
  K  K0  1  0.81777414  0.18222586  0.00000000  1
  K  K1  1  0.17641387  0.82358613  1.00000000  1
  K  K2  1  0.50784188  0.49215812  0.00000000  1
  K  K3  1  0.66592897  0.33407103  0.50000000  1
  Sr  Sr0  1  0.33466044  0.66533956  0.50000000  1
  Ge  Ge0  1  0.04859631  0.05011431  0.34912897  1
  Ge  Ge1  1  0.94988569  0.95140369  0.65087103  1
  S  S0  1  0.09791633  0.38585533  0.26645932  1
  S  S1  1  0.36474031  0.05690718  0.26998050  1
  S  S2  1  0.94309282  0.63525969  0.73001950  1
  S  S3  1  0.61414467  0.90208367  0.73354068  1
  S  S4  1  0.77272498  0.79372141  0.26342366  1
  S  S5  1  0.20627859  0.22727502  0.73657634  1
loop_
_geom_bond_atom_site_label_1
_geom_bond_atom_site_label_2
_geom_bond_distance
_geom_bond_site_symmetry_2
K0 S4 3.144757 1_545
K0 S5 3.144758 1_654
K0 S3 3.236763 1_544
K0 S0 3.236763 1_655
K0 S2 3.302358 1_554
K0 S1 3.302358 1_555
K1 S1 3.077525 1_566
K1 S2 3.077525 1_455
K1 S5 3.275583 1_565
K1 S4 3.275584 1_456
K1 S0 3.323569 1_556
K1 S3 3.323570 1_555
K2 S3 3.102375 1_554
K2 S0 3.102375 1_555
K2 S1 3.171037 1_555
K2 S2 3.171038 1_554
K2 S4 3.415808 1_555
K2 S5 3.415808 1_554
K3 S2 3.221484 1_555
K3 S1 3.221484 1_555
K3 S3 3.239008 1_545
K3 S0 3.239009 1_655
K3 S4 3.253047 1_555
K3 S5 3.253047 1_555
Ge0 S4 2.235207 1_445
Ge0 S0 2.240156 1_555
Ge0 S1 2.245534 1_555
Ge1 S5 2.235207 1_665
Ge1 S3 2.240157 1_555
Ge1 S2 2.245533 1_555
S0 Sr0 3.072884 1_555
S1 Sr0 3.063875 1_545
S2 Sr0 3.063875 1_655
S3 Sr0 3.072884 1_555
S4 Sr0 3.078863 1_555
S5 Sr0 3.078862 1_555
