# generated using pymatgen
data_CaNi2(Sn3Ru)2
_symmetry_space_group_name_H-M   'P 1'
_cell_length_a   6.72185320
_cell_length_b   6.72185357
_cell_length_c   6.85990845
_cell_angle_alpha   119.48648616
_cell_angle_beta   119.48648104
_cell_angle_gamma   89.73329240
_symmetry_Int_Tables_number   1
_chemical_formula_structural   CaNi2(Sn3Ru)2
_chemical_formula_sum   'Ca1 Ni2 Sn6 Ru2'
_cell_volume   223.01062228
_cell_formula_units_Z   1
loop_
 _symmetry_equiv_pos_site_id
 _symmetry_equiv_pos_as_xyz
  1  'x, y, z'
loop_
 _atom_site_type_symbol
 _atom_site_label
 _atom_site_symmetry_multiplicity
 _atom_site_fract_x
 _atom_site_fract_y
 _atom_site_fract_z
 _atom_site_occupancy
  Ca  Ca0  1  0.00593828  0.00593828  1.00000000  1
  Ni  Ni0  1  0.39821650  0.39821650  0.64092227  1
  Ni  Ni1  1  0.75729523  0.75729523  0.35907773  1
  Sn  Sn0  1  0.99556450  0.49556450  0.50000000  1
  Sn  Sn1  1  0.47031798  0.47031798  0.35822776  1
  Sn  Sn2  1  0.53920871  0.87447858  1.00000000  1
  Sn  Sn3  1  0.87447858  0.53920871  1.00000000  1
  Sn  Sn4  1  0.11209122  0.11209122  0.64177224  1
  Sn  Sn5  1  0.49556450  0.99556450  0.50000000  1
  Ru  Ru0  1  0.26300978  0.58831472  1.00000000  1
  Ru  Ru1  1  0.58831472  0.26300978  1.00000000  1
loop_
_geom_bond_atom_site_label_1
_geom_bond_atom_site_label_2
_geom_bond_distance
_geom_bond_site_symmetry_2
Ca0 Ni0 3.236589 1_556
Ca0 Ni1 3.236592 1_445
Ca0 Sn1 3.242561 1_556
Ca0 Sn4 3.242569 1_555
Ca0 Sn2 3.263315 1_445
Ca0 Sn3 3.263315 1_445
Ca0 Ru1 3.289561 1_455
Ca0 Ru0 3.289561 1_545
Ca0 Sn0 3.423707 1_445
Ca0 Sn0 3.423707 1_456
Ca0 Sn5 3.423708 1_445
Ca0 Sn5 3.423708 1_546
Ca0 Sn2 3.687881 1_545
Ca0 Sn3 3.687881 1_455
Ca0 Sn4 3.770948 1_556
Ca0 Sn1 3.770953 1_445
Ni0 Sn1 2.466411 1_555
Ni0 Sn0 2.592049 1_455
Ni0 Sn5 2.592049 1_545
Ni0 Sn2 2.679845 1_555
Ni0 Sn3 2.679845 1_555
Ni0 Sn4 2.730322 1_555
Ni0 Ru0 2.760582 1_555
Ni0 Ru1 2.760582 1_555
Ni1 Sn4 2.466410 1_665
Ni1 Sn5 2.592052 1_555
Ni1 Sn0 2.592052 1_555
Ni1 Sn3 2.679841 1_554
Ni1 Sn2 2.679841 1_554
Ni1 Sn1 2.730341 1_555
Ni1 Ru1 2.760587 1_554
Ni1 Ru0 2.760587 1_554
Ru0 Sn3 2.633950 1_455
Ru0 Sn4 2.673417 1_555
Ru0 Sn1 2.673422 1_556
Ru0 Sn2 2.679579 1_555
Ru0 Sn5 2.687052 1_556
Ru0 Sn0 2.687052 1_455
Ru1 Sn2 2.633951 1_545
Ru1 Sn4 2.673417 1_555
Ru1 Sn1 2.673421 1_556
Ru1 Sn3 2.679579 1_555
Ru1 Sn0 2.687052 1_556
Ru1 Sn5 2.687052 1_545
