# generated using pymatgen
data_Hf5Co19(Si2P)4
_symmetry_space_group_name_H-M   'P 1'
_cell_length_a   11.79079768
_cell_length_b   11.80553700
_cell_length_c   3.59616331
_cell_angle_alpha   90.00000000
_cell_angle_beta   90.00000000
_cell_angle_gamma   119.95430824
_symmetry_Int_Tables_number   1
_chemical_formula_structural   Hf5Co19(Si2P)4
_chemical_formula_sum   'Hf5 Co19 Si8 P4'
_cell_volume   433.70931025
_cell_formula_units_Z   1
loop_
 _symmetry_equiv_pos_site_id
 _symmetry_equiv_pos_as_xyz
  1  'x, y, z'
loop_
 _atom_site_type_symbol
 _atom_site_label
 _atom_site_symmetry_multiplicity
 _atom_site_fract_x
 _atom_site_fract_y
 _atom_site_fract_z
 _atom_site_occupancy
  Hf  Hf0  1  0.33219898  0.66550618  0.50000000  1
  Hf  Hf1  1  0.66788940  0.33321448  0.50000000  1
  Hf  Hf2  1  0.00089639  0.18510791  0.00000000  1
  Hf  Hf3  1  0.81392779  0.81524236  0.00000000  1
  Hf  Hf4  1  0.18707293  0.00017442  0.00000000  1
  Co  Co0  1  0.62951138  0.82657248  0.50000000  1
  Co  Co1  1  0.17431398  0.80357407  0.50000000  1
  Co  Co2  1  0.19591462  0.36978010  0.50000000  1
  Co  Co3  1  0.37323812  0.19679249  0.50000000  1
  Co  Co4  1  0.82557657  0.62930994  0.50000000  1
  Co  Co5  1  0.79803963  0.17404014  0.50000000  1
  Co  Co6  1  0.00005854  0.55687896  0.50000000  1
  Co  Co7  1  0.44289710  0.44280836  0.50000000  1
  Co  Co8  1  0.55432135  0.99592106  0.50000000  1
  Co  Co9  1  0.52170855  0.64721745  0.00000000  1
  Co  Co10  1  0.35220535  0.87402480  0.00000000  1
  Co  Co11  1  0.12461563  0.47714915  0.00000000  1
  Co  Co12  1  0.48557823  0.12698216  0.00000000  1
  Co  Co13  1  0.64739373  0.52162840  0.00000000  1
  Co  Co14  1  0.87188094  0.35047246  0.00000000  1
  Co  Co15  1  0.99988359  0.72579471  0.00000000  1
  Co  Co16  1  0.27564274  0.27441486  0.00000000  1
  Co  Co17  1  0.72263736  0.00399961  0.00000000  1
  Co  Co18  1  0.99936617  0.00054274  0.50000000  1
  Si  Si0  1  0.99914399  0.36336388  0.50000000  1
  Si  Si1  1  0.63582852  0.63600784  0.50000000  1
  Si  Si2  1  0.36475916  0.00024715  0.50000000  1
  Si  Si3  1  0.51740152  0.83657002  0.00000000  1
  Si  Si4  1  0.16136745  0.67996510  0.00000000  1
  Si  Si5  1  0.31929094  0.48080415  0.00000000  1
  Si  Si6  1  0.48253325  0.31932289  0.00000000  1
  Si  Si7  1  0.83868139  0.51899676  0.00000000  1
  P  P0  1  0.68388453  0.16648667  0.00000000  1
  P  P1  1  0.99986927  0.82425639  0.50000000  1
  P  P2  1  0.17749811  0.17569922  0.50000000  1
  P  P3  1  0.82297281  0.00113161  0.50000000  1
loop_
_geom_bond_atom_site_label_1
_geom_bond_atom_site_label_2
_geom_bond_distance
_geom_bond_site_symmetry_2
Hf0 Si4 2.768166 1_556
Hf0 Si4 2.768166 1_555
Hf0 Si3 2.770578 1_555
Hf0 Si3 2.770578 1_556
Hf0 Si5 2.771185 1_555
Hf0 Si5 2.771185 1_556
Hf1 P0 2.741098 1_555
Hf1 P0 2.741098 1_556
Hf1 Si6 2.771005 1_556
Hf1 Si6 2.771005 1_555
Hf1 Si7 2.772750 1_555
Hf1 Si7 2.772750 1_556
Hf2 Si0 2.775874 1_455
Hf2 Si0 2.775874 1_454
Hf2 P3 2.793082 1_454
Hf2 P3 2.793082 1_455
Hf2 P2 2.795044 1_555
Hf2 P2 2.795044 1_554
Hf3 Si1 2.771798 1_554
Hf3 Si1 2.771798 1_555
Hf3 P1 2.796078 1_554
Hf3 P1 2.796078 1_555
Hf3 P3 2.797621 1_564
Hf3 P3 2.797621 1_565
Hf4 Si2 2.760541 1_555
Hf4 Si2 2.760541 1_554
Hf4 P2 2.788068 1_554
Hf4 P2 2.788068 1_555
Hf4 P1 2.800098 1_445
Hf4 P1 2.800098 1_444
Co0 P3 2.180771 1_565
Co0 Si3 2.269395 1_555
Co0 Si3 2.269395 1_556
Co0 Si1 2.287819 1_555
Co0 Co9 2.577675 1_555
Co0 Co9 2.577675 1_556
Co0 Hf3 2.875677 1_555
Co0 Hf3 2.875677 1_556
Co0 Hf0 3.041050 1_555
Co1 P1 2.189003 1_455
Co1 Si4 2.272316 1_555
Co1 Si4 2.272316 1_556
Co1 Si2 2.286198 1_565
Co1 Co10 2.565576 1_555
Co1 Co10 2.565576 1_556
Co1 Hf4 2.879924 1_565
Co1 Hf4 2.879924 1_566
Co1 Hf0 3.025300 1_555
Co2 P2 2.190899 1_555
Co2 Si5 2.272257 1_555
Co2 Si5 2.272257 1_556
Co2 Si0 2.283205 1_455
Co2 Hf2 2.875298 1_556
Co2 Hf2 2.875298 1_555
Co2 Hf0 3.027932 1_555
Co3 P2 2.194227 1_555
Co3 Si6 2.263783 1_556
Co3 Si6 2.263783 1_555
Co3 Si2 2.272057 1_555
Co3 Co7 2.593779 1_555
Co3 Hf4 2.889832 1_555
Co3 Hf4 2.889832 1_556
Co3 Hf1 3.012666 1_555
Co4 P1 2.190168 1_555
Co4 Si7 2.270226 1_555
Co4 Si7 2.270226 1_556
Co4 Si1 2.277793 1_555
Co4 Co6 2.592355 1_655
Co4 Hf3 2.893302 1_555
Co4 Hf3 2.893302 1_556
Co4 Hf1 3.030782 1_555
Co5 P3 2.202842 1_555
Co5 P0 2.221002 1_555
Co5 P0 2.221002 1_556
Co5 Si0 2.307726 1_555
Co5 Co8 2.577828 1_545
Co5 Hf2 2.942617 1_656
Co5 Hf2 2.942617 1_655
Co5 Hf1 2.960706 1_555
Co6 Si0 2.279184 1_455
Co6 Si4 2.490407 1_556
Co6 Si4 2.490407 1_555
Co6 Si7 2.490751 1_455
Co6 Si7 2.490751 1_456
Co7 Si1 2.279398 1_555
Co7 Si5 2.492228 1_555
Co7 Si5 2.492228 1_556
Co7 Si6 2.501415 1_556
Co7 Si6 2.501415 1_555
Co7 Co9 2.771391 1_555
Co7 Co9 2.771391 1_556
Co8 Si2 2.261023 1_565
Co8 Si3 2.478671 1_556
Co8 Si3 2.478671 1_555
Co8 P0 2.559223 1_565
Co8 P0 2.559223 1_566
Co9 Si5 2.207591 1_555
Co9 Si3 2.261193 1_555
Co9 Si1 2.288881 1_554
Co9 Si1 2.288881 1_555
Co9 Hf0 2.958773 1_555
Co9 Hf0 2.958773 1_554
Co9 Hf3 2.996847 1_555
Co10 Si3 2.202157 1_555
Co10 Si4 2.272398 1_555
Co10 Si2 2.292425 1_565
Co10 Si2 2.292425 1_564
Co10 Co12 2.588682 1_565
Co10 Co8 2.749272 1_555
Co10 Co8 2.749272 1_554
Co10 Hf0 2.961199 1_554
Co10 Hf0 2.961199 1_555
Co10 Hf4 2.984047 1_565
Co11 Si4 2.210108 1_555
Co11 Si5 2.274140 1_555
Co11 Si0 2.289467 1_455
Co11 Si0 2.289467 1_454
Co11 Co2 2.571114 1_555
Co11 Co2 2.571114 1_554
Co11 Co14 2.581905 1_455
Co11 Co6 2.767013 1_555
Co11 Co6 2.767013 1_554
Co11 Hf0 2.955219 1_554
Co11 Hf0 2.955219 1_555
Co11 Hf2 2.998704 1_555
Co12 P0 2.143752 1_555
Co12 Si6 2.288824 1_555
Co12 Si2 2.317877 1_554
Co12 Si2 2.317877 1_555
Co12 Co3 2.599417 1_554
Co12 Co3 2.599417 1_555
Co12 Hf1 2.924925 1_555
Co12 Hf1 2.924925 1_554
Co12 Hf4 3.060572 1_555
Co13 Si6 2.201476 1_555
Co13 Si7 2.271106 1_555
Co13 Si1 2.293231 1_555
Co13 Si1 2.293231 1_554
Co13 Co9 2.566806 1_555
Co13 Co4 2.568253 1_554
Co13 Co4 2.568253 1_555
Co13 Co7 2.769874 1_554
Co13 Co7 2.769874 1_555
Co13 Hf1 2.962418 1_554
Co13 Hf1 2.962418 1_555
Co13 Hf3 3.012271 1_555
Co14 P0 2.196194 1_555
Co14 Si7 2.211140 1_555
Co14 Si0 2.297783 1_554
Co14 Si0 2.297783 1_555
Co14 Co5 2.553147 1_554
Co14 Co5 2.553147 1_555
Co14 Hf1 2.927515 1_554
Co14 Hf1 2.927515 1_555
Co14 Hf2 3.015093 1_655
Co15 P1 2.141133 1_555
Co15 P1 2.141133 1_554
Co15 Si7 2.222391 1_555
Co15 Si4 2.224133 1_655
Co15 Co4 2.533120 1_554
Co15 Co4 2.533120 1_555
Co15 Hf4 2.867814 1_665
Co15 Hf3 2.869589 1_555
Co16 P2 2.140940 1_554
Co16 P2 2.140940 1_555
Co16 Si6 2.222672 1_555
Co16 Si5 2.224713 1_555
Co16 Co3 2.539695 1_554
Co16 Co3 2.539695 1_555
Co16 Hf2 2.862706 1_555
Co16 Hf4 2.862868 1_555
Co17 P3 2.161901 1_555
Co17 P3 2.161901 1_554
Co17 P0 2.182600 1_555
Co17 Si3 2.232997 1_545
Co17 Co5 2.504198 1_554
Co17 Co5 2.504198 1_555
Co17 Hf2 2.886267 1_655
Co17 Hf3 2.918831 1_545
Co18 P3 2.083298 1_555
Co18 P1 2.084123 1_545
Co18 P2 2.085696 1_655
Co18 Hf2 2.818108 1_656
Co18 Hf2 2.818108 1_655
Co18 Hf3 2.832447 1_546
Co18 Hf3 2.832447 1_545
Co18 Hf4 2.853250 1_655
Co18 Hf4 2.853250 1_656
