# generated using pymatgen
data_HfHg3(TeBr3)2
_symmetry_space_group_name_H-M   'P 1'
_cell_length_a   8.08473664
_cell_length_b   7.07069809
_cell_length_c   14.00003919
_cell_angle_alpha   88.34721746
_cell_angle_beta   90.00000000
_cell_angle_gamma   90.00000000
_symmetry_Int_Tables_number   1
_chemical_formula_structural   HfHg3(TeBr3)2
_chemical_formula_sum   'Hf2 Hg6 Te4 Br12'
_cell_volume   799.97553331
_cell_formula_units_Z   2
loop_
 _symmetry_equiv_pos_site_id
 _symmetry_equiv_pos_as_xyz
  1  'x, y, z'
loop_
 _atom_site_type_symbol
 _atom_site_label
 _atom_site_symmetry_multiplicity
 _atom_site_fract_x
 _atom_site_fract_y
 _atom_site_fract_z
 _atom_site_occupancy
  Hf  Hf0  1  0.00000000  0.50000000  0.00000000  1
  Hf  Hf1  1  0.50000000  0.50000000  0.50000000  1
  Hg  Hg0  1  0.29317788  0.00421402  0.73651115  1
  Hg  Hg1  1  0.00000000  0.00000000  0.50000000  1
  Hg  Hg2  1  0.79317788  0.99578598  0.76348885  1
  Hg  Hg3  1  0.70682212  0.99578598  0.26348885  1
  Hg  Hg4  1  0.20682212  0.00421402  0.23651115  1
  Hg  Hg5  1  0.50000000  0.00000000  0.00000000  1
  Te  Te0  1  0.96786124  0.19144568  0.33036142  1
  Te  Te1  1  0.03213876  0.80855432  0.66963858  1
  Te  Te2  1  0.53213876  0.19144568  0.83036142  1
  Te  Te3  1  0.46786124  0.80855432  0.16963858  1
  Br  Br0  1  0.15910041  0.80106409  0.94029128  1
  Br  Br1  1  0.65910041  0.19893591  0.55970872  1
  Br  Br2  1  0.27312928  0.35378148  0.06934073  1
  Br  Br3  1  0.22687072  0.35378148  0.56934073  1
  Br  Br4  1  0.54867755  0.65764462  0.66398998  1
  Br  Br5  1  0.95132245  0.65764462  0.16398998  1
  Br  Br6  1  0.45132245  0.34235538  0.33601002  1
  Br  Br7  1  0.72687072  0.64621852  0.93065927  1
  Br  Br8  1  0.34089959  0.80106409  0.44029128  1
  Br  Br9  1  0.04867755  0.34235538  0.83601002  1
  Br  Br10  1  0.84089959  0.19893591  0.05970872  1
  Br  Br11  1  0.77312928  0.64621852  0.43065927  1
loop_
_geom_bond_atom_site_label_1
_geom_bond_atom_site_label_2
_geom_bond_distance
_geom_bond_site_symmetry_2
Hg0 Te2 2.704010 1_555
Hg0 Te1 2.705380 1_545
Hg1 Te1 2.711977 1_545
Hg1 Te0 2.711977 1_455
Hg2 Te1 2.704010 1_655
Hg2 Te2 2.705380 1_565
Hg3 Te3 2.704010 1_555
Hg3 Te0 2.705380 1_565
Hg4 Te0 2.704010 1_455
Hg4 Te3 2.705380 1_545
Hg5 Te3 2.711977 1_545
Hg5 Te2 2.711977 1_554
Br0 Hf0 2.604257 1_556
Br0 Hg5 3.215767 1_566
Br1 Hf1 2.604257 1_555
Br1 Hg1 3.215767 1_655
Br2 Hf0 2.613319 1_555
Br2 Hg5 3.271719 1_555
Br3 Hf1 2.613319 1_555
Br3 Hg1 3.271719 1_555
Br4 Hf1 2.610740 1_555
Br5 Hf0 2.610740 1_655
Br6 Hf1 2.610740 1_555
Br7 Hf0 2.613319 1_656
Br7 Hg5 3.271719 1_566
Br8 Hf1 2.604257 1_555
Br8 Hg1 3.215767 1_565
Br9 Hf0 2.610740 1_556
Br10 Hf0 2.604257 1_655
Br10 Hg5 3.215767 1_555
Br11 Hf1 2.613319 1_555
Br11 Hg1 3.271719 1_665
