# generated using pymatgen
data_Ba3TiZnIrO9
_symmetry_space_group_name_H-M   'P 1'
_cell_length_a   5.81281323
_cell_length_b   5.81281259
_cell_length_c   14.26235570
_cell_angle_alpha   90.00000000
_cell_angle_beta   90.00000000
_cell_angle_gamma   119.99999253
_symmetry_Int_Tables_number   1
_chemical_formula_structural   Ba3TiZnIrO9
_chemical_formula_sum   'Ba6 Ti2 Zn2 Ir2 O18'
_cell_volume   417.34442640
_cell_formula_units_Z   2
loop_
 _symmetry_equiv_pos_site_id
 _symmetry_equiv_pos_as_xyz
  1  'x, y, z'
loop_
 _atom_site_type_symbol
 _atom_site_label
 _atom_site_symmetry_multiplicity
 _atom_site_fract_x
 _atom_site_fract_y
 _atom_site_fract_z
 _atom_site_occupancy
  Ba  Ba0  1  0.66666700  0.33333300  0.59337751  1
  Ba  Ba1  1  0.33333300  0.66666700  0.41096061  1
  Ba  Ba2  1  0.33333300  0.66666700  0.09337751  1
  Ba  Ba3  1  0.66666700  0.33333300  0.91096061  1
  Ba  Ba4  1  0.00000000  0.00000000  0.75104843  1
  Ba  Ba5  1  0.00000000  0.00000000  0.25104843  1
  Ti  Ti0  1  0.66666700  0.33333300  0.35535400  1
  Ti  Ti1  1  0.33333300  0.66666700  0.85535400  1
  Zn  Zn0  1  0.00000000  0.00000000  0.49288805  1
  Zn  Zn1  1  0.00000000  0.00000000  0.99288805  1
  Ir  Ir0  1  0.33333300  0.66666700  0.65819918  1
  Ir  Ir1  1  0.66666700  0.33333300  0.15819918  1
  O  O0  1  0.17298692  0.34597283  0.58440123  1
  O  O1  1  0.17298692  0.82701308  0.58440123  1
  O  O2  1  0.65402717  0.82701308  0.58440123  1
  O  O3  1  0.82872281  0.65744562  0.41509147  1
  O  O4  1  0.82872281  0.17127719  0.41509147  1
  O  O5  1  0.34255438  0.17127719  0.41509147  1
  O  O6  1  0.82701308  0.65402717  0.08440123  1
  O  O7  1  0.82701308  0.17298692  0.08440123  1
  O  O8  1  0.34597283  0.17298692  0.08440123  1
  O  O9  1  0.17127719  0.34255438  0.91509147  1
  O  O10  1  0.17127719  0.82872281  0.91509147  1
  O  O11  1  0.65744562  0.82872281  0.91509147  1
  O  O12  1  0.48372622  0.96745244  0.74656404  1
  O  O13  1  0.48372622  0.51627378  0.74656404  1
  O  O14  1  0.03254756  0.51627378  0.74656404  1
  O  O15  1  0.51627378  0.03254756  0.24656404  1
  O  O16  1  0.51627378  0.48372622  0.24656404  1
  O  O17  1  0.96745244  0.48372622  0.24656404  1
loop_
_geom_bond_atom_site_label_1
_geom_bond_atom_site_label_2
_geom_bond_distance
_geom_bond_site_symmetry_2
Ba0 O12 2.857586 1_545
Ba0 O14 2.857586 1_655
Ba0 O13 2.857589 1_555
Ba0 O2 2.909920 1_555
Ba0 O2 2.909920 1_545
Ba0 O0 2.909921 1_555
Ba0 O0 2.909921 1_655
Ba0 O1 2.909921 1_545
Ba0 O1 2.909921 1_655
Ba0 O4 3.021228 1_555
Ba0 O3 3.021231 1_555
Ba0 O5 3.021231 1_555
Ba1 O5 2.907371 1_565
Ba1 O3 2.907371 1_455
Ba1 O4 2.907374 1_565
Ba1 O4 2.907374 1_455
Ba1 O5 2.907377 1_555
Ba1 O3 2.907377 1_555
Ba1 O1 2.953857 1_555
Ba1 O0 2.953862 1_555
Ba1 O2 2.953862 1_555
Ba1 O15 2.981607 1_565
Ba1 O17 2.981607 1_455
Ba1 O16 2.981610 1_555
Ba2 O15 2.857586 1_565
Ba2 O17 2.857586 1_455
Ba2 O16 2.857589 1_555
Ba2 O8 2.909920 1_555
Ba2 O8 2.909920 1_565
Ba2 O6 2.909921 1_555
Ba2 O6 2.909921 1_455
Ba2 O7 2.909921 1_565
Ba2 O7 2.909921 1_455
Ba2 O10 3.021228 1_554
Ba2 O9 3.021231 1_554
Ba2 O11 3.021231 1_554
Ba3 O11 2.907371 1_545
Ba3 O9 2.907371 1_655
Ba3 O10 2.907374 1_545
Ba3 O10 2.907374 1_655
Ba3 O11 2.907377 1_555
Ba3 O9 2.907377 1_555
Ba3 O7 2.953857 1_556
Ba3 O6 2.953862 1_556
Ba3 O8 2.953862 1_556
Ba3 O12 2.981607 1_545
Ba3 O14 2.981607 1_655
Ba3 O13 2.981610 1_555
Ba4 O10 2.906473 1_545
Ba4 O9 2.906473 1_555
Ba4 O11 2.906474 1_445
Ba4 O14 2.911723 1_545
Ba4 O14 2.911723 1_555
Ba4 O12 2.911724 1_545
Ba4 O12 2.911724 1_445
Ba4 O13 2.911724 1_555
Ba4 O13 2.911724 1_445
Ba4 O0 2.946593 1_555
Ba4 O2 2.946593 1_445
Ba4 O1 2.946596 1_545
Ba5 O4 2.906473 1_455
Ba5 O3 2.906473 1_445
Ba5 O5 2.906474 1_555
Ba5 O17 2.911723 1_455
Ba5 O17 2.911723 1_445
Ba5 O15 2.911724 1_455
Ba5 O15 2.911724 1_555
Ba5 O16 2.911724 1_445
Ba5 O16 2.911724 1_555
Ba5 O6 2.946593 1_445
Ba5 O8 2.946593 1_555
Ba5 O7 2.946596 1_455
Ir0 O1 1.927185 1_555
Ir0 O0 1.927194 1_555
Ir0 O2 1.927194 1_555
Ir0 O12 1.970034 1_555
Ir0 O14 1.970034 1_555
Ir0 O13 1.970038 1_555
Ir1 O7 1.927185 1_555
Ir1 O6 1.927194 1_555
Ir1 O8 1.927194 1_555
Ir1 O15 1.970034 1_555
Ir1 O17 1.970034 1_555
Ir1 O16 1.970038 1_555
O0 Zn0 2.176430 1_555
O1 Zn0 2.176434 1_565
O2 Zn0 2.176430 1_665
O3 Ti0 1.840654 1_555
O3 Zn0 2.050561 1_665
O4 Ti0 1.840650 1_555
O4 Zn0 2.050561 1_655
O5 Ti0 1.840654 1_555
O5 Zn0 2.050561 1_555
O6 Zn1 2.176430 1_664
O7 Zn1 2.176434 1_654
O8 Zn1 2.176430 1_554
O9 Ti1 1.840654 1_555
O9 Zn1 2.050561 1_555
O10 Ti1 1.840650 1_555
O10 Zn1 2.050561 1_565
O11 Ti1 1.840654 1_555
O11 Zn1 2.050561 1_665
O12 Ti1 2.167987 1_555
O13 Ti1 2.167991 1_555
O14 Ti1 2.167987 1_555
O15 Ti0 2.167987 1_555
O16 Ti0 2.167991 1_555
O17 Ti0 2.167987 1_555
