# generated using pymatgen
data_YSiNi3Pt
_symmetry_space_group_name_H-M   'P 1'
_cell_length_a   4.73749272
_cell_length_b   5.02012949
_cell_length_c   3.95448520
_cell_angle_alpha   90.00000000
_cell_angle_beta   90.00000000
_cell_angle_gamma   115.12167393
_symmetry_Int_Tables_number   1
_chemical_formula_structural   YSiNi3Pt
_chemical_formula_sum   'Y1 Si1 Ni3 Pt1'
_cell_volume   85.15259464
_cell_formula_units_Z   1
loop_
 _symmetry_equiv_pos_site_id
 _symmetry_equiv_pos_as_xyz
  1  'x, y, z'
loop_
 _atom_site_type_symbol
 _atom_site_label
 _atom_site_symmetry_multiplicity
 _atom_site_fract_x
 _atom_site_fract_y
 _atom_site_fract_z
 _atom_site_occupancy
  Y  Y0  1  0.00000000  0.00000000  0.00000000  1
  Si  Si0  1  0.50000000  0.50000000  0.50000000  1
  Ni  Ni0  1  0.32173733  0.62581441  0.00000000  1
  Ni  Ni1  1  0.67826267  0.37418559  0.00000000  1
  Ni  Ni2  1  0.00000000  0.50000000  0.50000000  1
  Pt  Pt0  1  0.50000000  0.00000000  0.50000000  1
loop_
_geom_bond_atom_site_label_1
_geom_bond_atom_site_label_2
_geom_bond_distance
_geom_bond_site_symmetry_2
Si0 Y0 3.282144 1_666
Si0 Y0 3.282144 1_556
Si0 Y0 3.282144 1_555
Si0 Y0 3.282144 1_665
Ni0 Si0 2.339771 1_555
Ni0 Si0 2.339771 1_554
Ni0 Ni2 2.411278 1_555
Ni0 Ni2 2.411278 1_554
Ni0 Ni1 2.502030 1_555
Ni0 Pt0 2.608511 1_565
Ni0 Pt0 2.608511 1_564
Ni0 Ni1 2.760272 1_455
Ni0 Y0 2.850863 1_555
Ni0 Y0 2.878017 1_565
Ni0 Y0 2.954424 1_665
Ni1 Si0 2.339771 1_555
Ni1 Si0 2.339771 1_554
Ni1 Ni2 2.411278 1_654
Ni1 Ni2 2.411278 1_655
Ni1 Pt0 2.608511 1_554
Ni1 Pt0 2.608511 1_555
Ni1 Y0 2.850863 1_665
Ni1 Y0 2.878017 1_655
Ni1 Y0 2.954424 1_555
Ni2 Si0 2.368746 1_455
Ni2 Si0 2.368746 1_555
Ni2 Pt0 2.619729 1_565
Ni2 Pt0 2.619729 1_455
Ni2 Y0 3.195296 1_565
Ni2 Y0 3.195296 1_556
Ni2 Y0 3.195296 1_566
Ni2 Y0 3.195296 1_555
Pt0 Si0 2.510065 1_545
Pt0 Si0 2.510065 1_555
Pt0 Y0 3.085522 1_556
Pt0 Y0 3.085522 1_555
Pt0 Y0 3.085522 1_656
Pt0 Y0 3.085522 1_655
