# generated using pymatgen
data_Cr3(PO4)4
_symmetry_space_group_name_H-M   'P 1'
_cell_length_a   7.75564600
_cell_length_b   7.58913000
_cell_length_c   10.21062836
_cell_angle_alpha   85.32678663
_cell_angle_beta   90.00000000
_cell_angle_gamma   90.00000000
_symmetry_Int_Tables_number   1
_chemical_formula_structural   Cr3(PO4)4
_chemical_formula_sum   'Cr6 P8 O32'
_cell_volume   598.98543117
_cell_formula_units_Z   2
loop_
 _symmetry_equiv_pos_site_id
 _symmetry_equiv_pos_as_xyz
  1  'x, y, z'
loop_
 _atom_site_type_symbol
 _atom_site_label
 _atom_site_symmetry_multiplicity
 _atom_site_fract_x
 _atom_site_fract_y
 _atom_site_fract_z
 _atom_site_occupancy
  Cr  Cr0  1  0.47832500  0.76565500  0.62788300  1
  Cr  Cr1  1  0.97832500  0.23434500  0.37211700  1
  Cr  Cr2  1  0.85934500  0.65060400  0.67426500  1
  Cr  Cr3  1  0.35934500  0.34939600  0.32573500  1
  Cr  Cr4  1  0.51179300  0.75993400  0.12770800  1
  Cr  Cr5  1  0.01179300  0.24006600  0.87229200  1
  P  P0  1  0.81001900  0.05497400  0.13469500  1
  P  P1  1  0.29492100  0.94843500  0.35000800  1
  P  P2  1  0.17959000  0.45373800  0.10276400  1
  P  P3  1  0.20270800  0.43993100  0.61042200  1
  P  P4  1  0.70270800  0.56006900  0.38957800  1
  P  P5  1  0.67959000  0.54626200  0.89723600  1
  P  P6  1  0.31001900  0.94502600  0.86530500  1
  P  P7  1  0.79492100  0.05156500  0.64999200  1
  O  O0  1  0.31750500  0.86197700  0.22156700  1
  O  O1  1  0.44891800  0.09138000  0.84063500  1
  O  O2  1  0.63290500  0.98510700  0.09702900  1
  O  O3  1  0.86848000  0.49668900  0.83649100  1
  O  O4  1  0.37664800  0.80197700  0.96795900  1
  O  O5  1  0.87552300  0.47513300  0.36591100  1
  O  O6  1  0.65223900  0.70901200  0.28878200  1
  O  O7  1  0.87664800  0.19802300  0.03204100  1
  O  O8  1  0.79964100  0.13669900  0.27012100  1
  O  O9  1  0.19352900  0.36094700  0.97567500  1
  O  O10  1  0.94891800  0.90862000  0.15936500  1
  O  O11  1  0.14175800  0.31294000  0.22437100  1
  O  O12  1  0.55909400  0.39248200  0.91615800  1
  O  O13  1  0.69352900  0.63905300  0.02432500  1
  O  O14  1  0.05909400  0.60751800  0.08384200  1
  O  O15  1  0.37552300  0.52486700  0.63408900  1
  O  O16  1  0.64175800  0.68706000  0.77562900  1
  O  O17  1  0.61134300  0.98954800  0.62197100  1
  O  O18  1  0.55766000  0.42020600  0.40738100  1
  O  O19  1  0.20385200  0.35613400  0.46879000  1
  O  O20  1  0.86452800  0.17280300  0.53634100  1
  O  O21  1  0.41813000  0.12151700  0.33723200  1
  O  O22  1  0.91813000  0.87848300  0.66276800  1
  O  O23  1  0.15223900  0.29098800  0.71121800  1
  O  O24  1  0.36848000  0.50331100  0.16350900  1
  O  O25  1  0.05766000  0.57979400  0.59261900  1
  O  O26  1  0.11134300  0.01045200  0.37802900  1
  O  O27  1  0.70385200  0.64386600  0.53121000  1
  O  O28  1  0.36452800  0.82719700  0.46365900  1
  O  O29  1  0.13290500  0.01489300  0.90297100  1
  O  O30  1  0.81750500  0.13802300  0.77843300  1
  O  O31  1  0.29964100  0.86330100  0.72987900  1
loop_
_geom_bond_atom_site_label_1
_geom_bond_atom_site_label_2
_geom_bond_distance
_geom_bond_site_symmetry_2
Cr0 O31 1.918327 1_555
Cr0 O28 1.918648 1_555
Cr0 O17 1.984524 1_555
Cr0 O15 1.990004 1_555
Cr0 O16 2.022769 1_555
Cr0 O27 2.244253 1_555
Cr1 O8 1.918327 1_555
Cr1 O20 1.918648 1_555
Cr1 O26 1.984524 1_655
Cr1 O5 1.990004 1_555
Cr1 O11 2.022769 1_655
Cr1 O19 2.244253 1_655
Cr2 O22 1.783086 1_555
Cr2 O25 1.849972 1_655
Cr2 O27 1.898075 1_555
Cr2 O3 1.948825 1_555
Cr2 O16 2.010512 1_555
Cr3 O21 1.783086 1_555
Cr3 O18 1.849972 1_555
Cr3 O19 1.898075 1_555
Cr3 O24 1.948825 1_555
Cr3 O11 2.010512 1_555
Cr4 O4 1.943245 1_554
Cr4 O2 1.952797 1_555
Cr4 O0 1.977281 1_555
Cr4 O6 1.984231 1_555
Cr4 O13 2.024925 1_555
Cr4 O24 2.246320 1_555
Cr5 O7 1.943245 1_456
Cr5 O29 1.952797 1_555
Cr5 O30 1.977281 1_455
Cr5 O23 1.984231 1_555
Cr5 O9 2.024925 1_555
Cr5 O3 2.246320 1_455
O0 P1 1.523598 1_555
O1 P6 1.553057 1_545
O2 P0 1.532695 1_565
O3 P5 1.646324 1_555
O4 P6 1.535846 1_555
O5 P4 1.515143 1_555
O6 P4 1.516762 1_555
O7 P0 1.535846 1_555
O8 P0 1.563008 1_555
O9 P2 1.529839 1_556
O10 P0 1.553057 1_565
O11 P2 1.597949 1_555
O12 P5 1.495307 1_555
O13 P5 1.529839 1_554
O14 P2 1.495307 1_555
O15 P3 1.515143 1_555
O16 P5 1.597949 1_555
O17 P7 1.533763 1_565
O18 P4 1.547174 1_555
O19 P3 1.626566 1_555
O20 P7 1.520086 1_555
O21 P1 1.620985 1_545
O22 P7 1.620985 1_565
O23 P3 1.516762 1_555
O24 P2 1.646324 1_555
O25 P3 1.547174 1_555
O26 P1 1.533763 1_545
O27 P4 1.626566 1_555
O28 P1 1.520086 1_555
O29 P6 1.532695 1_545
O30 P7 1.523598 1_555
O31 P6 1.563008 1_555
