# generated using pymatgen
data_Sr6CuC2N7
_symmetry_space_group_name_H-M   'P 1'
_cell_length_a   3.85002711
_cell_length_b   9.89345487
_cell_length_c   14.66516772
_cell_angle_alpha   90.00000000
_cell_angle_beta   90.00000000
_cell_angle_gamma   90.00000000
_symmetry_Int_Tables_number   1
_chemical_formula_structural   Sr6CuC2N7
_chemical_formula_sum   'Sr12 Cu2 C4 N14'
_cell_volume   558.59725790
_cell_formula_units_Z   2
loop_
 _symmetry_equiv_pos_site_id
 _symmetry_equiv_pos_as_xyz
  1  'x, y, z'
loop_
 _atom_site_type_symbol
 _atom_site_label
 _atom_site_symmetry_multiplicity
 _atom_site_fract_x
 _atom_site_fract_y
 _atom_site_fract_z
 _atom_site_occupancy
  Sr  Sr0  1  0.05027926  0.42780737  0.89014763  1
  Sr  Sr1  1  0.05027926  0.57219263  0.10985237  1
  Sr  Sr2  1  0.94972074  0.92780737  0.60985237  1
  Sr  Sr3  1  0.94972074  0.07219263  0.39014763  1
  Sr  Sr4  1  0.48969224  0.10174090  0.83346455  1
  Sr  Sr5  1  0.48969224  0.89825910  0.16653545  1
  Sr  Sr6  1  0.51030776  0.60174090  0.66653545  1
  Sr  Sr7  1  0.51030776  0.39825910  0.33346455  1
  Sr  Sr8  1  0.44709815  0.24503835  0.55554516  1
  Sr  Sr9  1  0.44709815  0.75496165  0.44445484  1
  Sr  Sr10  1  0.55290185  0.74503835  0.94445484  1
  Sr  Sr11  1  0.55290185  0.25496165  0.05554516  1
  Cu  Cu0  1  0.97856449  0.50000000  0.50000000  1
  Cu  Cu1  1  0.02143551  0.00000000  0.00000000  1
  C  C0  1  0.82696641  0.27400863  0.71724503  1
  C  C1  1  0.82696641  0.72599137  0.28275497  1
  C  C2  1  0.17303359  0.77400863  0.78275497  1
  C  C3  1  0.17303359  0.22599137  0.21724503  1
  N  N0  1  0.55722724  0.50000000  0.00000000  1
  N  N1  1  0.44277276  0.00000000  0.50000000  1
  N  N2  1  0.02242439  0.17055175  0.94395689  1
  N  N3  1  0.02242439  0.82944825  0.05604311  1
  N  N4  1  0.97757561  0.67055175  0.55604311  1
  N  N5  1  0.97757561  0.32944825  0.44395689  1
  N  N6  1  0.98028475  0.17107591  0.69175139  1
  N  N7  1  0.98028475  0.82892409  0.30824861  1
  N  N8  1  0.01971525  0.67107591  0.80824861  1
  N  N9  1  0.01971525  0.32892409  0.19175139  1
  N  N10  1  0.64488857  0.36871844  0.74384017  1
  N  N11  1  0.64488857  0.63128156  0.25615983  1
  N  N12  1  0.35511143  0.86871844  0.75615983  1
  N  N13  1  0.35511143  0.13128156  0.24384017  1
loop_
_geom_bond_atom_site_label_1
_geom_bond_atom_site_label_2
_geom_bond_distance
_geom_bond_site_symmetry_2
Cu0 N4 1.876870 1_555
Cu0 N5 1.876870 1_555
Cu0 Sr6 3.198118 1_555
Cu0 Sr7 3.198118 1_555
Cu0 Sr6 3.342005 1_655
Cu0 Sr7 3.342005 1_655
Cu1 N2 1.876870 1_554
Cu1 N3 1.876870 1_545
Cu1 Sr5 3.198118 1_545
Cu1 Sr4 3.198118 1_554
Cu1 Sr5 3.342005 1_445
Cu1 Sr4 3.342005 1_454
C0 N10 1.233494 1_555
C0 N6 1.235016 1_555
C0 Sr4 2.737839 1_555
C1 N11 1.233494 1_555
C1 N7 1.235016 1_555
C1 Sr5 2.737839 1_555
C2 N12 1.233494 1_555
C2 N8 1.235016 1_555
C2 Sr6 2.737839 1_555
C3 N13 1.233494 1_555
C3 N9 1.235016 1_555
C3 Sr7 2.737839 1_555
N0 Sr10 2.557524 1_554
N0 Sr11 2.557524 1_555
N0 Sr1 2.590148 1_655
N0 Sr0 2.590148 1_654
N0 Sr1 2.629609 1_555
N0 Sr0 2.629609 1_554
N1 Sr8 2.557524 1_555
N1 Sr9 2.557524 1_545
N1 Sr2 2.590148 1_445
N1 Sr3 2.590148 1_455
N1 Sr2 2.629609 1_545
N1 Sr3 2.629609 1_555
N2 Sr4 2.515054 1_555
N2 Sr11 2.577420 1_456
N2 Sr0 2.666831 1_555
N2 Sr4 2.701084 1_455
N2 Sr11 2.747109 1_556
N3 Sr5 2.515054 1_555
N3 Sr10 2.577420 1_454
N3 Sr1 2.666831 1_555
N3 Sr5 2.701084 1_455
N3 Sr10 2.747109 1_554
N4 Sr6 2.515054 1_555
N4 Sr9 2.577420 1_655
N4 Sr2 2.666831 1_555
N4 Sr6 2.701084 1_655
N4 Sr9 2.747109 1_555
N5 Sr7 2.515054 1_555
N5 Sr8 2.577420 1_655
N5 Sr3 2.666831 1_555
N5 Sr7 2.701084 1_655
N5 Sr8 2.747109 1_555
N6 Sr2 2.692382 1_545
N6 Sr8 2.784868 1_655
N6 Sr4 2.890882 1_555
N6 Sr4 2.938723 1_655
N7 Sr3 2.692382 1_565
N7 Sr9 2.784868 1_655
N7 Sr5 2.890882 1_555
N7 Sr5 2.938723 1_655
N8 Sr0 2.692382 1_555
N8 Sr10 2.784868 1_455
N8 Sr6 2.890882 1_555
N8 Sr6 2.938723 1_455
N9 Sr1 2.692382 1_555
N9 Sr11 2.784868 1_455
N9 Sr7 2.890882 1_555
N9 Sr7 2.938723 1_455
N10 Sr6 2.620796 1_555
N10 Sr0 2.716880 1_655
N10 Sr4 3.010179 1_555
N10 Sr0 3.191578 1_555
N11 Sr7 2.620796 1_555
N11 Sr1 2.716880 1_655
N11 Sr5 3.010179 1_555
N11 Sr1 3.191578 1_555
N12 Sr4 2.620796 1_565
N12 Sr2 2.716880 1_455
N12 Sr6 3.010179 1_555
N12 Sr2 3.191578 1_555
N13 Sr5 2.620796 1_545
N13 Sr3 2.716880 1_455
N13 Sr7 3.010179 1_555
N13 Sr3 3.191578 1_555
