# generated using pymatgen
data_BaCa2(CoH6)2
_symmetry_space_group_name_H-M   'P 1'
_cell_length_a   4.92092745
_cell_length_b   4.92092842
_cell_length_c   8.25793819
_cell_angle_alpha   90.00000000
_cell_angle_beta   90.00000000
_cell_angle_gamma   119.99999347
_symmetry_Int_Tables_number   1
_chemical_formula_structural   BaCa2(CoH6)2
_chemical_formula_sum   'Ba1 Ca2 Co2 H12'
_cell_volume   173.17942670
_cell_formula_units_Z   1
loop_
 _symmetry_equiv_pos_site_id
 _symmetry_equiv_pos_as_xyz
  1  'x, y, z'
loop_
 _atom_site_type_symbol
 _atom_site_label
 _atom_site_symmetry_multiplicity
 _atom_site_fract_x
 _atom_site_fract_y
 _atom_site_fract_z
 _atom_site_occupancy
  Ba  Ba0  1  0.00000000  0.00000000  0.00000000  1
  Ca  Ca0  1  0.66666700  0.33333300  0.36785513  1
  Ca  Ca1  1  0.33333300  0.66666700  0.63214487  1
  Co  Co0  1  0.66666700  0.33333300  0.73395990  1
  Co  Co1  1  0.33333300  0.66666700  0.26604010  1
  H  H0  1  0.18468793  0.81531207  0.37104244  1
  H  H1  1  0.63062513  0.81531207  0.37104244  1
  H  H2  1  0.18468793  0.36937487  0.37104244  1
  H  H3  1  0.81531207  0.18468793  0.62895756  1
  H  H4  1  0.36937487  0.18468793  0.62895756  1
  H  H5  1  0.81531207  0.63062513  0.62895756  1
  H  H6  1  0.52175318  0.04350536  0.84341456  1
  H  H7  1  0.52175318  0.47824682  0.84341456  1
  H  H8  1  0.95649464  0.47824682  0.84341456  1
  H  H9  1  0.47824682  0.95649464  0.15658544  1
  H  H10  1  0.47824682  0.52175318  0.15658544  1
  H  H11  1  0.04350536  0.52175318  0.15658544  1
loop_
_geom_bond_atom_site_label_1
_geom_bond_atom_site_label_2
_geom_bond_distance
_geom_bond_site_symmetry_2
Ba0 H9 2.785728 1_545
Ba0 H6 2.785728 1_454
Ba0 H11 2.785729 1_545
Ba0 H8 2.785729 1_454
Ba0 H10 2.785731 1_445
Ba0 H7 2.785731 1_554
Ba0 H10 2.785731 1_555
Ba0 H7 2.785731 1_444
Ba0 H9 2.785733 1_445
Ba0 H6 2.785733 1_554
Ba0 H11 2.785733 1_555
Ba0 H8 2.785733 1_444
Ca0 H11 2.371264 1_655
Ca0 H9 2.371265 1_545
Ca0 H10 2.371270 1_555
Ca0 H2 2.465394 1_555
Ca0 H2 2.465394 1_655
Ca0 H1 2.465394 1_555
Ca0 H0 2.465394 1_655
Ca0 H0 2.465394 1_545
Ca0 H1 2.465394 1_545
Ca0 H3 2.500842 1_555
Ca0 H4 2.500846 1_555
Ca0 H5 2.500847 1_555
Ca1 H8 2.371264 1_455
Ca1 H6 2.371265 1_565
Ca1 H7 2.371270 1_555
Ca1 H5 2.465394 1_555
Ca1 H5 2.465394 1_455
Ca1 H4 2.465394 1_555
Ca1 H3 2.465394 1_455
Ca1 H3 2.465394 1_565
Ca1 H4 2.465394 1_565
Ca1 H0 2.500842 1_555
Ca1 H1 2.500846 1_555
Ca1 H2 2.500847 1_555
Co0 H7 1.530542 1_555
Co0 H8 1.530542 1_555
Co0 H6 1.530543 1_555
Co0 H3 1.535259 1_555
Co0 H4 1.535266 1_555
Co0 H5 1.535266 1_555
Co1 H10 1.530542 1_555
Co1 H11 1.530542 1_555
Co1 H9 1.530543 1_555
Co1 H0 1.535259 1_555
Co1 H1 1.535266 1_555
Co1 H2 1.535266 1_555
