# generated using pymatgen
data_Zn3Cu(PdPt)2
_symmetry_space_group_name_H-M   'P 1'
_cell_length_a   5.74474195
_cell_length_b   5.29160574
_cell_length_c   5.29160560
_cell_angle_alpha   65.46666236
_cell_angle_beta   56.85253880
_cell_angle_gamma   56.85254047
_symmetry_Int_Tables_number   1
_chemical_formula_structural   Zn3Cu(PdPt)2
_chemical_formula_sum   'Zn3 Cu1 Pd2 Pt2'
_cell_volume   111.20354556
_cell_formula_units_Z   1
loop_
 _symmetry_equiv_pos_site_id
 _symmetry_equiv_pos_as_xyz
  1  'x, y, z'
loop_
 _atom_site_type_symbol
 _atom_site_label
 _atom_site_symmetry_multiplicity
 _atom_site_fract_x
 _atom_site_fract_y
 _atom_site_fract_z
 _atom_site_occupancy
  Zn  Zn0  1  0.00000000  0.00000000  0.00000000  1
  Zn  Zn1  1  0.50000000  0.00000000  0.00000000  1
  Zn  Zn2  1  0.00000000  0.50000000  0.50000000  1
  Cu  Cu0  1  0.50000000  0.50000000  0.50000000  1
  Pd  Pd0  1  0.50000000  0.00000000  0.50000000  1
  Pd  Pd1  1  0.50000000  0.50000000  0.00000000  1
  Pt  Pt0  1  0.00000000  0.50000000  0.00000000  1
  Pt  Pt1  1  0.00000000  0.00000000  0.50000000  1
loop_
_geom_bond_atom_site_label_1
_geom_bond_atom_site_label_2
_geom_bond_distance
_geom_bond_site_symmetry_2
Cu0 Pt0 2.634348 1_556
Cu0 Pt0 2.634348 1_655
Cu0 Pt1 2.634348 1_655
Cu0 Pt1 2.634348 1_565
Cu0 Pd1 2.645803 1_555
Cu0 Pd1 2.645803 1_556
Cu0 Pd0 2.645803 1_565
Cu0 Pd0 2.645803 1_555
Cu0 Zn1 2.861329 1_556
Cu0 Zn1 2.861329 1_565
Cu0 Zn2 2.872371 1_555
Cu0 Zn2 2.872371 1_655
Pd0 Zn0 2.634348 1_655
Pd0 Zn0 2.634348 1_556
Pd0 Zn2 2.634348 1_645
Pd0 Zn2 2.634348 1_555
Pd0 Zn1 2.645803 1_555
Pd0 Zn1 2.645803 1_556
Pd1 Zn2 2.634348 1_555
Pd1 Zn2 2.634348 1_654
Pd1 Zn0 2.634348 1_565
Pd1 Zn0 2.634348 1_655
Pd1 Zn1 2.645803 1_555
Pd1 Zn1 2.645803 1_565
Pt0 Zn1 2.634348 1_555
Pt0 Zn1 2.634348 1_465
Pt0 Zn2 2.645803 1_555
Pt0 Zn2 2.645803 1_554
Pt0 Zn0 2.645803 1_565
Pt0 Zn0 2.645803 1_555
Pt1 Zn1 2.634348 1_555
Pt1 Zn1 2.634348 1_456
Pt1 Zn0 2.645803 1_556
Pt1 Zn0 2.645803 1_555
Pt1 Zn2 2.645803 1_545
Pt1 Zn2 2.645803 1_555
