# generated using pymatgen
data_Na3AlBiSb
_symmetry_space_group_name_H-M   'P 1'
_cell_length_a   10.13264096
_cell_length_b   10.13264080
_cell_length_c   6.66390361
_cell_angle_alpha   90.00000000
_cell_angle_beta   90.00000000
_cell_angle_gamma   97.99668573
_symmetry_Int_Tables_number   1
_chemical_formula_structural   Na3AlBiSb
_chemical_formula_sum   'Na12 Al4 Bi4 Sb4'
_cell_volume   677.53278272
_cell_formula_units_Z   4
loop_
 _symmetry_equiv_pos_site_id
 _symmetry_equiv_pos_as_xyz
  1  'x, y, z'
loop_
 _atom_site_type_symbol
 _atom_site_label
 _atom_site_symmetry_multiplicity
 _atom_site_fract_x
 _atom_site_fract_y
 _atom_site_fract_z
 _atom_site_occupancy
  Na  Na0  1  0.07780583  0.42219417  0.25000000  1
  Na  Na1  1  0.42219417  0.07780583  0.75000000  1
  Na  Na2  1  0.92219417  0.57780583  0.75000000  1
  Na  Na3  1  0.57780583  0.92219417  0.25000000  1
  Na  Na4  1  0.68010878  0.31989122  0.22133179  1
  Na  Na5  1  0.81989122  0.18010878  0.72133179  1
  Na  Na6  1  0.31989122  0.68010878  0.77866821  1
  Na  Na7  1  0.18010878  0.81989122  0.27866821  1
  Na  Na8  1  0.38453453  0.38453453  0.00000000  1
  Na  Na9  1  0.11546547  0.11546547  0.50000000  1
  Na  Na10  1  0.61546547  0.61546547  0.00000000  1
  Na  Na11  1  0.88453453  0.88453453  0.50000000  1
  Al  Al0  1  0.12814094  0.12814094  0.00000000  1
  Al  Al1  1  0.37185906  0.37185906  0.50000000  1
  Al  Al2  1  0.87185906  0.87185906  0.00000000  1
  Al  Al3  1  0.62814094  0.62814094  0.50000000  1
  Bi  Bi0  1  0.86423154  0.63576746  0.25000000  1
  Bi  Bi1  1  0.63576746  0.86423154  0.75000000  1
  Bi  Bi2  1  0.13576746  0.36423154  0.75000000  1
  Bi  Bi3  1  0.36423154  0.13576746  0.25000000  1
  Sb  Sb0  1  0.88716630  0.11283370  0.19087319  1
  Sb  Sb1  1  0.61283370  0.38716630  0.69087319  1
  Sb  Sb2  1  0.11283370  0.88716630  0.80912681  1
  Sb  Sb3  1  0.38716630  0.61283370  0.30912681  1
loop_
_geom_bond_atom_site_label_1
_geom_bond_atom_site_label_2
_geom_bond_distance
_geom_bond_site_symmetry_2
Na0 Sb0 3.468123 1_455
Na0 Sb3 3.468123 1_555
Na1 Sb1 3.468123 1_555
Na1 Sb2 3.468123 1_545
Na2 Sb2 3.468123 1_655
Na2 Sb1 3.468123 1_555
Na3 Sb3 3.468123 1_555
Na3 Sb0 3.468123 1_565
Na4 Sb0 3.173240 1_555
Na4 Sb1 3.293806 1_555
Na4 Sb1 3.681622 1_554
Na5 Sb1 3.173240 1_555
Na5 Sb0 3.293806 1_556
Na5 Sb0 3.681622 1_555
Na6 Sb2 3.173240 1_555
Na6 Sb3 3.293806 1_555
Na6 Sb3 3.681622 1_556
Na7 Sb3 3.173240 1_555
Na7 Sb2 3.293806 1_554
Na7 Sb2 3.681622 1_555
Na8 Sb3 3.094890 1_555
Na8 Sb1 3.094890 1_554
Na9 Sb2 3.094890 1_545
Na9 Sb0 3.094890 1_455
Na10 Sb1 3.094890 1_554
Na10 Sb3 3.094890 1_555
Na11 Sb0 3.094890 1_565
Na11 Sb2 3.094890 1_655
Al0 Sb2 2.738342 1_544
Al0 Sb0 2.738342 1_455
Al0 Bi2 2.907359 1_554
Al0 Bi3 2.907359 1_555
Al0 Na9 3.336211 1_554
Al0 Na9 3.336211 1_555
Al0 Na8 3.408923 1_555
Al0 Na0 3.512271 1_555
Al0 Na1 3.512271 1_554
Al1 Sb3 2.738342 1_555
Al1 Sb1 2.738342 1_555
Al1 Bi3 2.907366 1_555
Al1 Bi2 2.907366 1_555
Al1 Na8 3.336211 1_556
Al1 Na8 3.336211 1_555
Al1 Na9 3.408923 1_555
Al1 Na1 3.512271 1_555
Al1 Na0 3.512271 1_555
Al2 Sb0 2.738342 1_565
Al2 Sb2 2.738342 1_654
Al2 Bi0 2.907366 1_555
Al2 Bi1 2.907366 1_554
Al2 Na11 3.336211 1_554
Al2 Na11 3.336211 1_555
Al2 Na10 3.408923 1_555
Al2 Na2 3.512271 1_554
Al2 Na3 3.512271 1_555
Al3 Sb1 2.738342 1_555
Al3 Sb3 2.738342 1_555
Al3 Bi1 2.907359 1_555
Al3 Bi0 2.907359 1_555
Al3 Na10 3.336211 1_555
Al3 Na10 3.336211 1_556
Al3 Na11 3.408923 1_555
Al3 Na3 3.512271 1_555
Al3 Na2 3.512271 1_555
Bi0 Na10 3.004536 1_555
Bi0 Na11 3.004543 1_555
Bi0 Na0 3.266401 1_655
Bi0 Na2 3.447860 1_555
Bi0 Na2 3.447860 1_554
Bi0 Na4 3.478501 1_555
Bi0 Na7 3.478513 1_655
Bi1 Na10 3.004536 1_556
Bi1 Na11 3.004544 1_555
Bi1 Na1 3.266401 1_565
Bi1 Na3 3.447860 1_556
Bi1 Na3 3.447860 1_555
Bi1 Na6 3.478501 1_555
Bi1 Na5 3.478513 1_565
Bi2 Na9 3.004536 1_555
Bi2 Na8 3.004544 1_556
Bi2 Na2 3.266401 1_455
Bi2 Na0 3.447860 1_555
Bi2 Na0 3.447860 1_556
Bi2 Na5 3.478501 1_455
Bi2 Na6 3.478513 1_555
Bi3 Na9 3.004536 1_555
Bi3 Na8 3.004543 1_555
Bi3 Na3 3.266401 1_545
Bi3 Na1 3.447860 1_554
Bi3 Na1 3.447860 1_555
Bi3 Na7 3.478501 1_545
Bi3 Na4 3.478513 1_555
