# generated using pymatgen
data_Cs2Mn2CoS4
_symmetry_space_group_name_H-M   'P 1'
_cell_length_a   7.59615472
_cell_length_b   7.59615465
_cell_length_c   5.78372360
_cell_angle_alpha   90.00000000
_cell_angle_beta   90.00000000
_cell_angle_gamma   135.14393961
_symmetry_Int_Tables_number   1
_chemical_formula_structural   Cs2Mn2CoS4
_chemical_formula_sum   'Cs2 Mn2 Co1 S4'
_cell_volume   235.38909729
_cell_formula_units_Z   1
loop_
 _symmetry_equiv_pos_site_id
 _symmetry_equiv_pos_as_xyz
  1  'x, y, z'
loop_
 _atom_site_type_symbol
 _atom_site_label
 _atom_site_symmetry_multiplicity
 _atom_site_fract_x
 _atom_site_fract_y
 _atom_site_fract_z
 _atom_site_occupancy
  Cs  Cs0  1  0.50000000  0.00000000  0.24247886  1
  Cs  Cs1  1  0.00000000  0.50000000  0.75752114  1
  Mn  Mn0  1  0.00000000  0.00000000  0.50000000  1
  Mn  Mn1  1  0.50000000  0.50000000  0.00000000  1
  Co  Co0  1  0.50000000  0.50000000  0.50000000  1
  S  S0  1  0.17688255  0.35987491  0.26901056  1
  S  S1  1  0.64012509  0.82311745  0.73098944  1
  S  S2  1  0.82311745  0.64012509  0.26901056  1
  S  S3  1  0.35987491  0.17688255  0.73098944  1
loop_
_geom_bond_atom_site_label_1
_geom_bond_atom_site_label_2
_geom_bond_distance
_geom_bond_site_symmetry_2
Cs0 S0 3.573662 1_545
Cs0 S2 3.573662 1_555
Cs0 S1 3.598457 1_545
Cs0 S3 3.598457 1_555
Cs0 S3 3.703724 1_554
Cs0 S1 3.703724 1_544
Cs0 S0 3.742454 1_655
Cs0 S2 3.742454 1_445
Cs1 S1 3.573662 1_555
Cs1 S3 3.573662 1_455
Cs1 S0 3.598457 1_555
Cs1 S2 3.598457 1_455
Cs1 S0 3.703724 1_556
Cs1 S2 3.703724 1_456
Cs1 S3 3.742454 1_565
Cs1 S1 3.742454 1_445
Mn0 S2 2.419839 1_445
Mn0 S0 2.419839 1_555
Mn0 S3 2.419839 1_555
Mn0 S1 2.419839 1_445
Mn1 S1 2.423655 1_554
Mn1 S3 2.423655 1_554
Mn1 S2 2.423655 1_555
Mn1 S0 2.423655 1_555
Co0 S1 2.288705 1_555
Co0 S3 2.288705 1_555
Co0 S2 2.288705 1_555
Co0 S0 2.288705 1_555
