# generated using pymatgen
data_K4ZnP2Pt
_symmetry_space_group_name_H-M   'P 1'
_cell_length_a   6.20865951
_cell_length_b   6.20865917
_cell_length_c   5.66983707
_cell_angle_alpha   88.93272785
_cell_angle_beta   91.06727211
_cell_angle_gamma   75.05738147
_symmetry_Int_Tables_number   1
_chemical_formula_structural   K4ZnP2Pt
_chemical_formula_sum   'K4 Zn1 P2 Pt1'
_cell_volume   211.06839587
_cell_formula_units_Z   1
loop_
 _symmetry_equiv_pos_site_id
 _symmetry_equiv_pos_as_xyz
  1  'x, y, z'
loop_
 _atom_site_type_symbol
 _atom_site_label
 _atom_site_symmetry_multiplicity
 _atom_site_fract_x
 _atom_site_fract_y
 _atom_site_fract_z
 _atom_site_occupancy
  K  K0  1  0.47421940  0.18485985  0.25979486  1
  K  K1  1  0.81514015  0.52578060  0.25979486  1
  K  K2  1  0.18485985  0.47421940  0.74020514  1
  K  K3  1  0.52578060  0.81514015  0.74020514  1
  Zn  Zn0  1  0.00000000  0.00000000  0.00000000  1
  P  P0  1  0.24271762  0.75728238  0.24149976  1
  P  P1  1  0.75728238  0.24271762  0.75850024  1
  Pt  Pt0  1  0.00000000  0.00000000  0.49999900  1
loop_
_geom_bond_atom_site_label_1
_geom_bond_atom_site_label_2
_geom_bond_distance
_geom_bond_site_symmetry_2
K0 P0 3.331127 1_545
K0 P1 3.375074 1_555
K0 Pt0 3.416484 1_655
K0 P1 3.430698 1_554
K0 P0 3.471857 1_555
K0 Pt0 3.697924 1_555
K1 P0 3.331127 1_655
K1 P1 3.375074 1_555
K1 Pt0 3.416484 1_655
K1 P1 3.430698 1_554
K1 P0 3.471857 1_555
K1 Pt0 3.697924 1_665
K2 P1 3.331127 1_455
K2 P0 3.375074 1_555
K2 Pt0 3.416488 1_565
K2 P0 3.430698 1_556
K2 P1 3.471857 1_555
K2 Pt0 3.697928 1_555
K3 P1 3.331127 1_565
K3 P0 3.375074 1_555
K3 Pt0 3.416488 1_565
K3 P0 3.430698 1_556
K3 P1 3.471857 1_555
K3 Pt0 3.697928 1_665
P0 Zn0 2.256511 1_565
P0 Pt0 2.383983 1_565
P1 Zn0 2.256511 1_656
P1 Pt0 2.383990 1_655
Pt0 Zn0 2.834913 1_555
Pt0 Zn0 2.834924 1_556
