# generated using pymatgen
data_ScFeSi2
_symmetry_space_group_name_H-M   'P 1'
_cell_length_a   9.76790087
_cell_length_b   9.76790087
_cell_length_c   14.22760300
_cell_angle_alpha   90.00000000
_cell_angle_beta   90.00000000
_cell_angle_gamma   149.95408565
_symmetry_Int_Tables_number   1
_chemical_formula_structural   ScFeSi2
_chemical_formula_sum   'Sc12 Fe12 Si24'
_cell_volume   679.68309612
_cell_formula_units_Z   12
loop_
 _symmetry_equiv_pos_site_id
 _symmetry_equiv_pos_as_xyz
  1  'x, y, z'
loop_
 _atom_site_type_symbol
 _atom_site_label
 _atom_site_symmetry_multiplicity
 _atom_site_fract_x
 _atom_site_fract_y
 _atom_site_fract_z
 _atom_site_occupancy
  Sc  Sc0  1  0.12295500  0.87704500  0.58457200  1
  Sc  Sc1  1  0.29612800  0.70387200  0.31887600  1
  Sc  Sc2  1  0.79612800  0.20387200  0.18112400  1
  Sc  Sc3  1  0.20387200  0.79612800  0.81887600  1
  Sc  Sc4  1  0.96713500  0.03286500  0.67693300  1
  Sc  Sc5  1  0.03286500  0.96713500  0.32306700  1
  Sc  Sc6  1  0.53286500  0.46713500  0.17693300  1
  Sc  Sc7  1  0.46713500  0.53286500  0.82306700  1
  Sc  Sc8  1  0.62295500  0.37704500  0.91542800  1
  Sc  Sc9  1  0.37704500  0.62295500  0.08457200  1
  Sc  Sc10  1  0.87704500  0.12295500  0.41542800  1
  Sc  Sc11  1  0.70387200  0.29612800  0.68112400  1
  Fe  Fe0  1  0.50000000  0.00000000  0.00000000  1
  Fe  Fe1  1  0.00000000  0.50000000  0.00000000  1
  Fe  Fe2  1  0.00000000  0.50000000  0.50000000  1
  Fe  Fe3  1  0.50000000  0.00000000  0.50000000  1
  Fe  Fe4  1  0.58879900  0.91120100  0.75000000  1
  Fe  Fe5  1  0.91120100  0.58879900  0.25000000  1
  Fe  Fe6  1  0.41120100  0.08879900  0.25000000  1
  Fe  Fe7  1  0.08879900  0.41120100  0.75000000  1
  Fe  Fe8  1  0.54094800  0.45905200  0.62323800  1
  Fe  Fe9  1  0.45905200  0.54094800  0.37676200  1
  Fe  Fe10  1  0.95905200  0.04094800  0.12323800  1
  Fe  Fe11  1  0.04094800  0.95905200  0.87676200  1
  Si  Si0  1  0.35991600  0.64008400  0.49244000  1
  Si  Si1  1  0.64008400  0.35991600  0.50756000  1
  Si  Si2  1  0.14008400  0.85991600  0.99244000  1
  Si  Si3  1  0.85991600  0.14008400  0.00756000  1
  Si  Si4  1  0.26440100  0.73559900  0.64329200  1
  Si  Si5  1  0.73559900  0.26440100  0.35670800  1
  Si  Si6  1  0.23559900  0.76440100  0.14329200  1
  Si  Si7  1  0.76440100  0.23559900  0.85670800  1
  Si  Si8  1  0.41296400  0.58703600  0.64358900  1
  Si  Si9  1  0.58703600  0.41296400  0.35641100  1
  Si  Si10  1  0.08703600  0.91296400  0.14358900  1
  Si  Si11  1  0.91296400  0.08703600  0.85641100  1
  Si  Si12  1  0.33286000  0.66714000  0.89933300  1
  Si  Si13  1  0.66714000  0.33286000  0.10066700  1
  Si  Si14  1  0.16714000  0.83286000  0.39933300  1
  Si  Si15  1  0.83286000  0.16714000  0.60066700  1
  Si  Si16  1  0.83580800  0.66419200  0.75000000  1
  Si  Si17  1  0.74665700  0.74665700  0.00000000  1
  Si  Si18  1  0.16419200  0.33580800  0.25000000  1
  Si  Si19  1  0.33580800  0.16419200  0.75000000  1
  Si  Si20  1  0.24665700  0.24665700  0.50000000  1
  Si  Si21  1  0.25334300  0.25334300  0.00000000  1
  Si  Si22  1  0.75334300  0.75334300  0.50000000  1
  Si  Si23  1  0.66419200  0.83580800  0.25000000  1
loop_
_geom_bond_atom_site_label_1
_geom_bond_atom_site_label_2
_geom_bond_distance
_geom_bond_site_symmetry_2
Sc0 Si19 2.762882 1_565
Sc0 Si16 2.762882 1_455
Sc0 Si14 2.764223 1_555
Sc0 Si1 2.777682 1_565
Sc0 Si1 2.777682 1_455
Sc0 Si4 2.796526 1_555
Sc0 Si20 2.896541 1_565
Sc0 Si22 2.896541 1_455
Sc1 Si14 2.689525 1_555
Sc1 Si18 2.743230 1_555
Sc1 Si23 2.743230 1_555
Sc1 Si6 2.746820 1_555
Sc1 Si0 2.747087 1_555
Sc1 Si5 2.829232 1_455
Sc1 Si5 2.829232 1_565
Sc2 Si13 2.689525 1_555
Sc2 Si18 2.743230 1_655
Sc2 Si23 2.743230 1_545
Sc2 Si5 2.746820 1_555
Sc2 Si3 2.747087 1_555
Sc2 Si6 2.829232 1_545
Sc2 Si6 2.829232 1_655
Sc3 Si12 2.689525 1_555
Sc3 Si19 2.743230 1_565
Sc3 Si16 2.743230 1_455
Sc3 Si4 2.746820 1_555
Sc3 Si2 2.747087 1_555
Sc3 Si7 2.829232 1_455
Sc3 Si7 2.829232 1_565
Sc4 Si11 2.750504 1_555
Sc4 Si15 2.756103 1_555
Sc4 Si8 2.771330 1_655
Sc4 Si8 2.771330 1_545
Sc4 Si16 2.774357 1_545
Sc4 Si19 2.774357 1_655
Sc4 Si22 2.877767 1_545
Sc4 Si20 2.877767 1_655
Sc5 Si10 2.750504 1_555
Sc5 Si14 2.756103 1_555
Sc5 Si9 2.771330 1_565
Sc5 Si9 2.771330 1_455
Sc5 Si23 2.774357 1_455
Sc5 Si18 2.774357 1_565
Sc5 Si22 2.877767 1_455
Sc5 Si20 2.877767 1_565
Sc6 Si9 2.750504 1_555
Sc6 Si13 2.756103 1_555
Sc6 Si10 2.771330 1_545
Sc6 Si10 2.771330 1_655
Sc6 Si18 2.774357 1_555
Sc6 Si23 2.774357 1_555
Sc6 Si21 2.877767 1_555
Sc6 Si17 2.877767 1_555
Sc7 Si8 2.750504 1_555
Sc7 Si12 2.756103 1_555
Sc7 Si11 2.771330 1_455
Sc7 Si11 2.771330 1_565
Sc7 Si19 2.774357 1_555
Sc7 Si16 2.774357 1_555
Sc7 Si21 2.877767 1_556
Sc7 Si17 2.877767 1_556
Sc8 Si19 2.762882 1_555
Sc8 Si16 2.762882 1_555
Sc8 Si13 2.764223 1_556
Sc8 Si2 2.777682 1_545
Sc8 Si2 2.777682 1_655
Sc8 Si7 2.796526 1_555
Sc8 Si21 2.896541 1_556
Sc8 Si17 2.896541 1_556
Sc9 Si18 2.762882 1_555
Sc9 Si23 2.762882 1_555
Sc9 Si12 2.764223 1_554
Sc9 Si3 2.777682 1_455
Sc9 Si3 2.777682 1_565
Sc9 Si6 2.796526 1_555
Sc9 Si21 2.896541 1_555
Sc9 Si17 2.896541 1_555
Sc10 Si18 2.762882 1_655
Sc10 Si23 2.762882 1_545
Sc10 Si15 2.764223 1_555
Sc10 Si0 2.777682 1_655
Sc10 Si0 2.777682 1_545
Sc10 Si5 2.796526 1_555
Sc10 Si20 2.896541 1_655
Sc10 Si22 2.896541 1_545
Sc11 Si15 2.689525 1_555
Sc11 Si19 2.743230 1_555
Sc11 Si16 2.743230 1_555
Sc11 Si7 2.746820 1_555
Sc11 Si1 2.747087 1_555
Sc11 Si4 2.829232 1_545
Sc11 Si4 2.829232 1_655
Fe0 Si6 2.415112 1_545
Fe0 Si7 2.415112 1_554
Fe0 Si3 2.432136 1_555
Fe0 Si2 2.432136 1_544
Fe0 Si13 2.469458 1_555
Fe0 Si12 2.469458 1_544
Fe0 Fe1 2.531899 1_655
Fe0 Fe1 2.531899 1_545
Fe0 Sc9 2.965896 1_545
Fe0 Sc8 2.965896 1_554
Fe0 Sc2 3.000143 1_555
Fe0 Sc3 3.000143 1_544
Fe1 Si6 2.415112 1_555
Fe1 Si7 2.415112 1_454
Fe1 Si3 2.432136 1_455
Fe1 Si2 2.432136 1_554
Fe1 Si13 2.469458 1_455
Fe1 Si12 2.469458 1_554
Fe1 Sc9 2.965896 1_555
Fe1 Sc8 2.965896 1_454
Fe1 Sc2 3.000143 1_455
Fe1 Sc3 3.000143 1_554
Fe2 Si4 2.415112 1_555
Fe2 Si5 2.415112 1_455
Fe2 Si0 2.432136 1_555
Fe2 Si1 2.432136 1_455
Fe2 Si15 2.469458 1_455
Fe2 Si14 2.469458 1_555
Fe2 Fe3 2.531899 1_455
Fe2 Fe3 2.531899 1_565
Fe2 Sc0 2.965896 1_555
Fe2 Sc10 2.965896 1_455
Fe2 Sc1 3.000143 1_555
Fe2 Sc11 3.000143 1_455
Fe3 Si4 2.415112 1_545
Fe3 Si5 2.415112 1_555
Fe3 Si1 2.432136 1_555
Fe3 Si0 2.432136 1_545
Fe3 Si14 2.469458 1_545
Fe3 Si15 2.469458 1_555
Fe3 Sc0 2.965896 1_545
Fe3 Sc10 2.965896 1_555
Fe3 Sc11 3.000143 1_555
Fe3 Sc1 3.000143 1_545
Fe4 Si11 2.419284 1_565
Fe4 Si8 2.419284 1_555
Fe4 Si7 2.424473 1_565
Fe4 Si4 2.424473 1_555
Fe4 Si12 2.475747 1_555
Fe4 Si15 2.475747 1_565
Fe4 Fe7 2.531899 1_665
Fe4 Fe7 2.531899 1_555
Fe4 Sc7 2.923489 1_555
Fe4 Sc4 2.923489 1_565
Fe4 Sc3 3.007340 1_555
Fe4 Sc11 3.007340 1_565
Fe5 Si9 2.419284 1_555
Fe5 Si10 2.419284 1_655
Fe5 Si5 2.424473 1_555
Fe5 Si6 2.424473 1_655
Fe5 Si14 2.475747 1_655
Fe5 Si13 2.475747 1_555
Fe5 Fe6 2.531899 1_665
Fe5 Fe6 2.531899 1_555
Fe5 Sc5 2.923489 1_655
Fe5 Sc6 2.923489 1_555
Fe5 Sc2 3.007340 1_555
Fe5 Sc1 3.007340 1_655
Fe6 Si10 2.419284 1_545
Fe6 Si9 2.419284 1_555
Fe6 Si5 2.424473 1_555
Fe6 Si6 2.424473 1_545
Fe6 Si14 2.475747 1_545
Fe6 Si13 2.475747 1_555
Fe6 Sc5 2.923489 1_545
Fe6 Sc6 2.923489 1_555
Fe6 Sc2 3.007340 1_555
Fe6 Sc1 3.007340 1_545
Fe7 Si11 2.419284 1_455
Fe7 Si8 2.419284 1_555
Fe7 Si7 2.424473 1_455
Fe7 Si4 2.424473 1_555
Fe7 Si12 2.475747 1_555
Fe7 Si15 2.475747 1_455
Fe7 Sc4 2.923489 1_455
Fe7 Sc7 2.923489 1_555
Fe7 Sc3 3.007340 1_555
Fe7 Sc11 3.007340 1_455
Fe8 Si20 2.305873 1_555
Fe8 Si22 2.305873 1_555
Fe8 Si19 2.360454 1_555
Fe8 Si16 2.360454 1_555
Fe8 Si8 2.432113 1_555
Fe8 Si1 2.491491 1_555
Fe8 Sc4 2.988943 1_455
Fe8 Sc4 2.988943 1_565
Fe8 Sc0 3.017837 1_545
Fe8 Sc0 3.017837 1_655
Fe9 Si20 2.305873 1_555
Fe9 Si22 2.305873 1_555
Fe9 Si18 2.360454 1_555
Fe9 Si23 2.360454 1_555
Fe9 Si9 2.432113 1_555
Fe9 Si0 2.491491 1_555
Fe9 Sc5 2.988943 1_545
Fe9 Sc5 2.988943 1_655
Fe9 Sc10 3.017837 1_455
Fe9 Sc10 3.017837 1_565
Fe10 Si17 2.305873 1_545
Fe10 Si21 2.305873 1_655
Fe10 Si23 2.360454 1_545
Fe10 Si18 2.360454 1_655
Fe10 Si10 2.432113 1_645
Fe10 Si3 2.491491 1_555
Fe10 Sc6 2.988943 1_655
Fe10 Sc6 2.988943 1_545
Fe10 Sc9 3.017837 1_655
Fe10 Sc9 3.017837 1_545
Fe11 Si17 2.305873 1_456
Fe11 Si21 2.305873 1_566
Fe11 Si16 2.360454 1_455
Fe11 Si19 2.360454 1_565
Fe11 Si11 2.432113 1_465
Fe11 Si2 2.491491 1_555
Fe11 Sc7 2.988943 1_565
Fe11 Sc7 2.988943 1_455
Fe11 Sc8 3.017837 1_565
Fe11 Sc8 3.017837 1_455
Si0 Si8 2.372010 1_555
Si1 Si9 2.372010 1_555
Si10 Si2 2.372010 1_554
Si11 Si3 2.372010 1_556
Si16 Si19 2.531899 1_555
Si16 Si19 2.531899 1_665
Si17 Si21 2.498042 1_555
Si17 Si21 2.565756 1_665
Si18 Si23 2.531899 1_445
Si18 Si23 2.531899 1_555
Si20 Si22 2.498042 1_445
Si20 Si22 2.565756 1_555
