# generated using pymatgen
data_Ca2In4PdAu
_symmetry_space_group_name_H-M   'P 1'
_cell_length_a   5.77941793
_cell_length_b   5.77941788
_cell_length_c   7.74559375
_cell_angle_alpha   90.00000000
_cell_angle_beta   90.00000000
_cell_angle_gamma   133.93982626
_symmetry_Int_Tables_number   1
_chemical_formula_structural   Ca2In4PdAu
_chemical_formula_sum   'Ca2 In4 Pd1 Au1'
_cell_volume   186.29319888
_cell_formula_units_Z   1
loop_
 _symmetry_equiv_pos_site_id
 _symmetry_equiv_pos_as_xyz
  1  'x, y, z'
loop_
 _atom_site_type_symbol
 _atom_site_label
 _atom_site_symmetry_multiplicity
 _atom_site_fract_x
 _atom_site_fract_y
 _atom_site_fract_z
 _atom_site_occupancy
  Ca  Ca0  1  0.92871675  0.07128325  0.75000000  1
  Ca  Ca1  1  0.06822845  0.93177155  0.25000000  1
  In  In0  1  0.64072633  0.35927367  0.95206494  1
  In  In1  1  0.36007920  0.63992080  0.05662636  1
  In  In2  1  0.36007920  0.63992080  0.44337364  1
  In  In3  1  0.64072633  0.35927367  0.54793506  1
  Pd  Pd0  1  0.78567100  0.21432900  0.25000000  1
  Au  Au0  1  0.21577372  0.78422628  0.75000000  1
loop_
_geom_bond_atom_site_label_1
_geom_bond_atom_site_label_2
_geom_bond_distance
_geom_bond_site_symmetry_2
Ca0 In1 3.359438 1_656
Ca0 In2 3.359438 1_655
Ca0 In1 3.359438 1_546
Ca0 In2 3.359438 1_545
Ca0 In0 3.440169 1_555
Ca0 In3 3.440169 1_555
Ca0 In0 3.556390 1_545
Ca0 In3 3.556390 1_545
Ca0 In0 3.556390 1_655
Ca0 In3 3.556390 1_655
Ca1 Pd0 3.005731 1_465
Ca1 Pd0 3.234556 1_455
Ca1 Pd0 3.234556 1_565
Ca1 In3 3.321482 1_455
Ca1 In0 3.321482 1_454
Ca1 In3 3.321482 1_565
Ca1 In0 3.321482 1_564
Ca1 In2 3.447007 1_555
Ca1 In1 3.447007 1_555
Ca1 In2 3.501168 1_565
Ca1 In1 3.501168 1_565
Ca1 In2 3.501169 1_455
Ca1 In1 3.501169 1_455
In0 Pd0 2.775382 1_556
In0 In1 3.093314 1_556
In0 In3 3.130226 1_555
In0 In1 3.348537 1_546
In0 In1 3.348537 1_656
In1 Pd0 2.825240 1_565
In1 Pd0 2.825240 1_455
In1 In2 2.995587 1_555
In2 Pd0 2.825240 1_565
In2 Pd0 2.825240 1_455
In2 In3 3.093314 1_555
In2 In3 3.348537 1_565
In2 In3 3.348537 1_455
In3 Pd0 2.775382 1_555
Au0 In1 2.827907 1_556
Au0 In2 2.827907 1_555
Au0 In0 2.863387 1_565
Au0 In3 2.863387 1_565
Au0 In0 2.863387 1_455
Au0 In3 2.863387 1_455
Au0 Ca0 3.053595 1_465
Au0 Ca0 3.200503 1_455
Au0 Ca0 3.200503 1_565
