# generated using pymatgen
data_MgSc(Si7Ir3)2
_symmetry_space_group_name_H-M   'P 1'
_cell_length_a   7.92166310
_cell_length_b   7.92166336
_cell_length_c   7.92166410
_cell_angle_alpha   56.83111807
_cell_angle_beta   56.83111853
_cell_angle_gamma   56.83111719
_symmetry_Int_Tables_number   1
_chemical_formula_structural   MgSc(Si7Ir3)2
_chemical_formula_sum   'Mg1 Sc1 Si14 Ir6'
_cell_volume   325.80222327
_cell_formula_units_Z   1
loop_
 _symmetry_equiv_pos_site_id
 _symmetry_equiv_pos_as_xyz
  1  'x, y, z'
loop_
 _atom_site_type_symbol
 _atom_site_label
 _atom_site_symmetry_multiplicity
 _atom_site_fract_x
 _atom_site_fract_y
 _atom_site_fract_z
 _atom_site_occupancy
  Mg  Mg0  1  0.00000000  0.00000000  0.00000000  1
  Sc  Sc0  1  0.50000000  0.50000000  0.50000000  1
  Si  Si0  1  0.74993596  0.74993596  0.74993596  1
  Si  Si1  1  0.25006404  0.25006404  0.25006404  1
  Si  Si2  1  0.85169336  0.06330102  0.67473942  1
  Si  Si3  1  0.67473942  0.85169336  0.06330102  1
  Si  Si4  1  0.06330102  0.67473942  0.85169336  1
  Si  Si5  1  0.65063976  0.82685215  0.43590172  1
  Si  Si6  1  0.43590172  0.65063976  0.82685215  1
  Si  Si7  1  0.82685215  0.43590172  0.65063976  1
  Si  Si8  1  0.17314785  0.56409828  0.34936024  1
  Si  Si9  1  0.56409828  0.34936024  0.17314785  1
  Si  Si10  1  0.34936024  0.17314785  0.56409828  1
  Si  Si11  1  0.93669898  0.32526058  0.14830664  1
  Si  Si12  1  0.32526058  0.14830664  0.93669898  1
  Si  Si13  1  0.14830664  0.93669898  0.32526058  1
  Ir  Ir0  1  0.07567924  0.42760899  0.74811554  1
  Ir  Ir1  1  0.25188446  0.92432076  0.57239101  1
  Ir  Ir2  1  0.57239101  0.25188446  0.92432076  1
  Ir  Ir3  1  0.92432076  0.57239101  0.25188446  1
  Ir  Ir4  1  0.42760899  0.74811554  0.07567924  1
  Ir  Ir5  1  0.74811554  0.07567924  0.42760899  1
loop_
_geom_bond_atom_site_label_1
_geom_bond_atom_site_label_2
_geom_bond_distance
_geom_bond_site_symmetry_2
Mg0 Si12 3.086175 1_554
Mg0 Si3 3.086175 1_445
Mg0 Si11 3.086175 1_455
Mg0 Si4 3.086175 1_544
Mg0 Si13 3.086175 1_545
Mg0 Si2 3.086175 1_454
Mg0 Si9 3.158867 1_455
Mg0 Si6 3.158867 1_544
Mg0 Si8 3.158867 1_545
Mg0 Si7 3.158867 1_454
Mg0 Si10 3.158867 1_554
Mg0 Si5 3.158867 1_445
Sc0 Si5 3.108878 1_555
Sc0 Si10 3.108878 1_555
Sc0 Si7 3.108878 1_555
Sc0 Si8 3.108878 1_555
Sc0 Si6 3.108878 1_555
Sc0 Si9 3.108878 1_555
Sc0 Si2 3.174802 1_555
Sc0 Si13 3.174802 1_555
Sc0 Si4 3.174802 1_555
Sc0 Si11 3.174802 1_555
Sc0 Si3 3.174802 1_555
Sc0 Si12 3.174802 1_555
Ir0 Si10 2.421510 1_555
Ir0 Si12 2.421685 1_555
Ir0 Si7 2.440112 1_455
Ir0 Si0 2.443054 1_455
Ir0 Si4 2.444367 1_555
Ir0 Si8 2.500166 1_555
Ir0 Si11 2.502937 1_456
Ir0 Sc0 3.022792 1_555
Ir0 Mg0 3.054910 1_556
Ir1 Si6 2.421510 1_555
Ir1 Si4 2.421685 1_555
Ir1 Si10 2.440112 1_565
Ir1 Si1 2.443054 1_565
Ir1 Si13 2.444367 1_555
Ir1 Si5 2.500165 1_555
Ir1 Si2 2.502937 1_465
Ir1 Sc0 3.022792 1_555
Ir1 Mg0 3.054911 1_566
Ir2 Si7 2.421510 1_555
Ir2 Si2 2.421685 1_555
Ir2 Si9 2.440112 1_556
Ir2 Si1 2.443054 1_556
Ir2 Si12 2.444367 1_555
Ir2 Si6 2.500165 1_555
Ir2 Si3 2.502937 1_546
Ir2 Sc0 3.022793 1_555
Ir2 Mg0 3.054910 1_656
Ir3 Si5 2.421510 1_555
Ir3 Si3 2.421685 1_555
Ir3 Si8 2.440112 1_655
Ir3 Si1 2.443054 1_655
Ir3 Si11 2.444367 1_555
Ir3 Si7 2.500166 1_555
Ir3 Si4 2.502937 1_654
Ir3 Sc0 3.022792 1_555
Ir3 Mg0 3.054910 1_665
Ir4 Si8 2.421510 1_555
Ir4 Si13 2.421685 1_555
Ir4 Si6 2.440112 1_554
Ir4 Si0 2.443054 1_554
Ir4 Si3 2.444367 1_555
Ir4 Si9 2.500165 1_555
Ir4 Si12 2.502937 1_564
Ir4 Sc0 3.022793 1_555
Ir4 Mg0 3.054910 1_565
Ir5 Si9 2.421510 1_555
Ir5 Si11 2.421685 1_555
Ir5 Si5 2.440112 1_545
Ir5 Si0 2.443054 1_545
Ir5 Si2 2.444367 1_555
Ir5 Si10 2.500165 1_555
Ir5 Si13 2.502937 1_645
Ir5 Sc0 3.022792 1_555
Ir5 Mg0 3.054911 1_655
