# generated using pymatgen
data_AgAs(PSe3)2
_symmetry_space_group_name_H-M   'P 1'
_cell_length_a   6.49098909
_cell_length_b   6.49098843
_cell_length_c   14.11200546
_cell_angle_alpha   90.00000000
_cell_angle_beta   90.00000000
_cell_angle_gamma   120.00000334
_symmetry_Int_Tables_number   1
_chemical_formula_structural   AgAs(PSe3)2
_chemical_formula_sum   'Ag2 As2 P4 Se12'
_cell_volume   514.92154896
_cell_formula_units_Z   2
loop_
 _symmetry_equiv_pos_site_id
 _symmetry_equiv_pos_as_xyz
  1  'x, y, z'
loop_
 _atom_site_type_symbol
 _atom_site_label
 _atom_site_symmetry_multiplicity
 _atom_site_fract_x
 _atom_site_fract_y
 _atom_site_fract_z
 _atom_site_occupancy
  Ag  Ag0  1  0.66666700  0.33333300  0.25000000  1
  Ag  Ag1  1  0.33333300  0.66666700  0.75000000  1
  As  As0  1  0.00000000  0.00000000  0.25000000  1
  As  As1  1  0.00000000  0.00000000  0.75000000  1
  P  P0  1  0.66666700  0.33333300  0.67094449  1
  P  P1  1  0.66666700  0.33333300  0.82905551  1
  P  P2  1  0.33333300  0.66666700  0.32905551  1
  P  P3  1  0.33333300  0.66666700  0.17094449  1
  Se  Se0  1  0.98095141  0.31471910  0.87370285  1
  Se  Se1  1  0.33376769  0.31471910  0.62629715  1
  Se  Se2  1  0.98095141  0.66623231  0.62629715  1
  Se  Se3  1  0.68528090  0.01904859  0.62629715  1
  Se  Se4  1  0.31471910  0.33376769  0.12629715  1
  Se  Se5  1  0.66623231  0.98095141  0.12629715  1
  Se  Se6  1  0.01904859  0.68528090  0.12629715  1
  Se  Se7  1  0.66623231  0.68528090  0.37370285  1
  Se  Se8  1  0.01904859  0.33376769  0.37370285  1
  Se  Se9  1  0.31471910  0.98095141  0.37370285  1
  Se  Se10  1  0.68528090  0.66623231  0.87370285  1
  Se  Se11  1  0.33376769  0.01904859  0.87370285  1
loop_
_geom_bond_atom_site_label_1
_geom_bond_atom_site_label_2
_geom_bond_distance
_geom_bond_site_symmetry_2
Ag0 Se5 2.876242 1_545
Ag0 Se8 2.876242 1_655
Ag0 Se9 2.876245 1_545
Ag0 Se6 2.876245 1_655
Ag0 Se7 2.876247 1_555
Ag0 Se4 2.876248 1_555
Ag1 Se11 2.876242 1_565
Ag1 Se2 2.876242 1_455
Ag1 Se3 2.876245 1_565
Ag1 Se0 2.876245 1_455
Ag1 Se1 2.876247 1_555
Ag1 Se10 2.876248 1_555
As0 Se8 2.736515 1_555
As0 Se4 2.736515 1_555
As0 Se7 2.736515 1_445
As0 Se6 2.736515 1_545
As0 Se9 2.736515 1_545
As0 Se5 2.736515 1_445
As1 Se2 2.736515 1_445
As1 Se10 2.736515 1_445
As1 Se0 2.736515 1_455
As1 Se1 2.736515 1_555
As1 Se11 2.736515 1_555
As1 Se3 2.736515 1_455
P0 Se3 2.195387 1_555
P0 Se2 2.195391 1_555
P0 Se1 2.195394 1_555
P0 P1 2.231264 1_555
P1 Se0 2.195388 1_555
P1 Se11 2.195391 1_555
P1 Se10 2.195394 1_555
P2 Se9 2.195387 1_555
P2 Se8 2.195391 1_555
P2 Se7 2.195394 1_555
P2 P3 2.231264 1_555
P3 Se6 2.195388 1_555
P3 Se5 2.195391 1_555
P3 Se4 2.195394 1_555
