# generated using pymatgen
data_V(CuPd3)2
_symmetry_space_group_name_H-M   'P 1'
_cell_length_a   6.18442739
_cell_length_b   6.18442694
_cell_length_c   5.77555975
_cell_angle_alpha   96.27718352
_cell_angle_beta   96.27718650
_cell_angle_gamma   142.72902470
_symmetry_Int_Tables_number   1
_chemical_formula_structural   V(CuPd3)2
_chemical_formula_sum   'V1 Cu2 Pd6'
_cell_volume   125.69828139
_cell_formula_units_Z   1
loop_
 _symmetry_equiv_pos_site_id
 _symmetry_equiv_pos_as_xyz
  1  'x, y, z'
loop_
 _atom_site_type_symbol
 _atom_site_label
 _atom_site_symmetry_multiplicity
 _atom_site_fract_x
 _atom_site_fract_y
 _atom_site_fract_z
 _atom_site_occupancy
  V  V0  1  0.00000000  0.00000000  0.00000000  1
  Cu  Cu0  1  0.66885126  0.33114974  1.00000000  1
  Cu  Cu1  1  0.33114974  0.66885126  0.00000000  1
  Pd  Pd0  1  0.65349436  0.65349436  0.30698471  1
  Pd  Pd1  1  0.32050716  0.99240785  0.31291502  1
  Pd  Pd2  1  0.99240785  0.32050716  0.31291502  1
  Pd  Pd3  1  0.67949284  0.00759215  0.68708498  1
  Pd  Pd4  1  0.00759215  0.67949284  0.68708498  1
  Pd  Pd5  1  0.34650664  0.34650664  0.69301529  1
loop_
_geom_bond_atom_site_label_1
_geom_bond_atom_site_label_2
_geom_bond_distance
_geom_bond_site_symmetry_2
Cu0 Pd0 2.586876 1_556
Cu0 Pd5 2.586876 1_555
Cu0 Pd3 2.592177 1_555
Cu0 Pd2 2.592177 1_556
Cu0 Pd1 2.606214 1_656
Cu0 Pd4 2.606214 1_655
Cu0 Pd4 2.606217 1_545
Cu0 Pd1 2.606217 1_546
Cu0 Cu1 2.742948 1_546
Cu0 Cu1 2.742948 1_656
Cu0 V0 2.796750 1_666
Cu0 V0 2.796753 1_556
Cu1 Pd5 2.586876 1_554
Cu1 Pd0 2.586876 1_555
Cu1 Pd1 2.592177 1_555
Cu1 Pd4 2.592177 1_554
Cu1 Pd2 2.606214 1_565
Cu1 Pd3 2.606214 1_564
Cu1 Pd3 2.606217 1_454
Cu1 Pd2 2.606217 1_455
Cu1 V0 2.796750 1_665
Cu1 V0 2.796753 1_555
Pd0 V0 2.584742 1_665
Pd0 V0 2.584754 1_555
Pd0 Pd2 2.757403 1_565
Pd0 Pd1 2.757403 1_655
Pd0 Pd1 2.757414 1_545
Pd0 Pd2 2.757415 1_455
Pd0 Pd3 2.819916 1_565
Pd0 Pd4 2.819916 1_655
Pd0 Pd5 2.879972 1_665
Pd0 Pd5 2.879989 1_555
Pd1 V0 2.565276 1_565
Pd1 Pd5 2.819916 1_565
Pd1 Pd2 2.822159 1_455
Pd1 Pd2 2.822159 1_565
Pd1 Pd4 2.833502 1_665
Pd1 Pd4 2.833503 1_555
Pd1 Pd3 2.860507 1_565
Pd2 V0 2.565276 1_655
Pd2 Pd5 2.819916 1_655
Pd2 Pd3 2.833502 1_665
Pd2 Pd3 2.833503 1_555
Pd2 Pd4 2.860507 1_655
Pd3 V0 2.565276 1_656
Pd3 Pd5 2.757406 1_655
Pd3 Pd5 2.757411 1_545
Pd3 Pd4 2.822159 1_655
Pd3 Pd4 2.822159 1_545
Pd4 V0 2.565276 1_566
Pd4 Pd5 2.757406 1_565
Pd4 Pd5 2.757412 1_455
Pd5 V0 2.584745 1_556
Pd5 V0 2.584751 1_666
