# generated using pymatgen
data_Ta4Te9I4N
_symmetry_space_group_name_H-M   'P 1'
_cell_length_a   11.77232822
_cell_length_b   11.77232927
_cell_length_c   20.81095836
_cell_angle_alpha   59.09316838
_cell_angle_beta   59.09316488
_cell_angle_gamma   30.86333031
_symmetry_Int_Tables_number   1
_chemical_formula_structural   Ta4Te9I4N
_chemical_formula_sum   'Ta8 Te18 I8 N2'
_cell_volume   1251.99964825
_cell_formula_units_Z   2
loop_
 _symmetry_equiv_pos_site_id
 _symmetry_equiv_pos_as_xyz
  1  'x, y, z'
loop_
 _atom_site_type_symbol
 _atom_site_label
 _atom_site_symmetry_multiplicity
 _atom_site_fract_x
 _atom_site_fract_y
 _atom_site_fract_z
 _atom_site_occupancy
  Ta  Ta0  1  0.78020156  0.36927618  0.76268131  1
  Ta  Ta1  1  0.63072382  0.21979844  0.73731869  1
  Ta  Ta2  1  0.87678669  0.99677913  0.85866401  1
  Ta  Ta3  1  0.00322087  0.12321331  0.64133599  1
  Ta  Ta4  1  0.36927618  0.78020156  0.26268131  1
  Ta  Ta5  1  0.21979844  0.63072382  0.23731869  1
  Ta  Ta6  1  0.12321331  0.00322087  0.14133599  1
  Ta  Ta7  1  0.99677913  0.87678669  0.35866401  1
  Te  Te0  1  0.37987778  0.66233711  0.07507468  1
  Te  Te1  1  0.17862434  0.17538145  0.66696256  1
  Te  Te2  1  0.06036104  0.05576193  0.87195742  1
  Te  Te3  1  0.52854724  0.80667452  0.10023816  1
  Te  Te4  1  0.05576193  0.06036104  0.37195742  1
  Te  Te5  1  0.47145276  0.19332548  0.89976184  1
  Te  Te6  1  0.33312320  0.66687680  0.75000000  1
  Te  Te7  1  0.80667452  0.52854724  0.60023816  1
  Te  Te8  1  0.17538145  0.17862434  0.16696256  1
  Te  Te9  1  0.82461855  0.82137566  0.83303744  1
  Te  Te10  1  0.62012222  0.33766289  0.92492532  1
  Te  Te11  1  0.66687680  0.33312320  0.25000000  1
  Te  Te12  1  0.33766289  0.62012222  0.42492532  1
  Te  Te13  1  0.82137566  0.82461855  0.33303744  1
  Te  Te14  1  0.93963896  0.94423807  0.12804258  1
  Te  Te15  1  0.66233711  0.37987778  0.57507468  1
  Te  Te16  1  0.19332548  0.47145276  0.39976184  1
  Te  Te17  1  0.94423807  0.93963896  0.62804258  1
  I  I0  1  0.62022210  0.71905425  0.77834973  1
  I  I1  1  0.93550297  0.34203581  0.01082399  1
  I  I2  1  0.37977790  0.28094575  0.22165027  1
  I  I3  1  0.65796419  0.06449703  0.48917601  1
  I  I4  1  0.06449703  0.65796419  0.98917601  1
  I  I5  1  0.71905425  0.62022210  0.27834973  1
  I  I6  1  0.28094575  0.37977790  0.72165027  1
  I  I7  1  0.34203581  0.93550297  0.51082399  1
  N  N0  1  0.86130821  0.13869179  0.75000000  1
  N  N1  1  0.13869179  0.86130821  0.25000000  1
loop_
_geom_bond_atom_site_label_1
_geom_bond_atom_site_label_2
_geom_bond_distance
_geom_bond_site_symmetry_2
Ta0 Te2 2.802862 1_655
Ta0 Te1 2.805424 1_655
Ta0 Te7 2.906971 1_555
Ta0 Te10 2.909795 1_555
Ta0 Te6 2.977498 1_555
Ta1 Te17 2.802862 1_545
Ta1 Te9 2.805424 1_545
Ta1 Te5 2.906971 1_555
Ta1 Te15 2.909795 1_555
Ta1 Te6 2.977499 1_555
Ta2 Te10 2.779045 1_565
Ta2 Te5 2.782121 1_565
Ta2 Te9 2.927512 1_555
Ta2 Te2 2.935426 1_665
Ta2 Te6 3.127380 1_655
Ta3 Te15 2.779044 1_455
Ta3 Te7 2.782121 1_455
Ta3 Te1 2.927512 1_555
Ta3 Te17 2.935427 1_445
Ta3 Te6 3.127380 1_545
Ta4 Te4 2.802862 1_565
Ta4 Te8 2.805424 1_565
Ta4 Te3 2.906971 1_555
Ta4 Te12 2.909795 1_555
Ta4 Te11 2.977499 1_555
Ta5 Te14 2.802862 1_455
Ta5 Te13 2.805424 1_455
Ta5 Te16 2.906971 1_555
Ta5 Te0 2.909795 1_555
Ta5 Te11 2.977498 1_555
Ta6 Te0 2.779045 1_545
Ta6 Te3 2.782121 1_545
Ta6 Te8 2.927512 1_555
Ta6 Te14 2.935426 1_445
Ta6 Te11 3.127380 1_455
Ta7 Te12 2.779044 1_655
Ta7 Te16 2.782121 1_655
Ta7 Te13 2.927512 1_555
Ta7 Te4 2.935427 1_665
Ta7 Te11 3.127380 1_565
I0 Ta0 2.836109 1_555
I1 Ta6 2.841535 1_655
I2 Ta5 2.836109 1_555
I3 Ta7 2.841534 1_545
I4 Ta2 2.841535 1_455
I5 Ta4 2.836108 1_555
I6 Ta1 2.836108 1_555
I7 Ta3 2.841534 1_565
N0 Ta3 1.989420 1_655
N0 Ta2 1.989420 1_545
N0 Ta1 2.092204 1_555
N0 Ta0 2.092205 1_555
N1 Ta7 1.989420 1_455
N1 Ta6 1.989420 1_565
N1 Ta4 2.092204 1_555
N1 Ta5 2.092205 1_555
