# generated using pymatgen
data_Zr5Sn2BSb
_symmetry_space_group_name_H-M   'P 1'
_cell_length_a   8.53343517
_cell_length_b   8.53221797
_cell_length_c   5.80635612
_cell_angle_alpha   90.00000000
_cell_angle_beta   90.00000000
_cell_angle_gamma   119.99528421
_symmetry_Int_Tables_number   1
_chemical_formula_structural   Zr5Sn2BSb
_chemical_formula_sum   'Zr10 Sn4 B2 Sb2'
_cell_volume   366.13459971
_cell_formula_units_Z   2
loop_
 _symmetry_equiv_pos_site_id
 _symmetry_equiv_pos_as_xyz
  1  'x, y, z'
loop_
 _atom_site_type_symbol
 _atom_site_label
 _atom_site_symmetry_multiplicity
 _atom_site_fract_x
 _atom_site_fract_y
 _atom_site_fract_z
 _atom_site_occupancy
  Zr  Zr0  1  0.66519629  0.33200431  0.00077673  1
  Zr  Zr1  1  0.33480371  0.66680902  0.00077673  1
  Zr  Zr2  1  0.33480371  0.66680902  0.49922327  1
  Zr  Zr3  1  0.66519629  0.33200431  0.49922327  1
  Zr  Zr4  1  0.76984566  0.76940687  0.75000000  1
  Zr  Zr5  1  0.23015434  0.99956121  0.75000000  1
  Zr  Zr6  1  1.00000000  0.23024857  0.75000000  1
  Zr  Zr7  1  0.23270754  0.23327980  0.25000000  1
  Zr  Zr8  1  0.76729246  0.00057326  0.25000000  1
  Zr  Zr9  1  1.00000000  0.76885419  0.25000000  1
  Sn  Sn0  1  1.00000000  0.59861126  0.75000000  1
  Sn  Sn1  1  0.60230875  0.60150687  0.25000000  1
  Sn  Sn2  1  0.39769125  0.99919811  0.25000000  1
  Sn  Sn3  1  0.00000000  0.40099301  0.25000000  1
  B  B0  1  0.00000000  0.00003759  0.00143741  1
  B  B1  1  0.00000000  0.00003759  0.49856259  1
  Sb  Sb0  1  0.40082882  0.40044592  0.75000000  1
  Sb  Sb1  1  0.59917118  0.99961710  0.75000000  1
loop_
_geom_bond_atom_site_label_1
_geom_bond_atom_site_label_2
_geom_bond_distance
_geom_bond_site_symmetry_2
Sn0 Zr5 2.973654 1_655
Sn0 Zr4 2.973654 1_555
Sn0 Zr1 2.993192 1_656
Sn0 Zr2 2.993192 1_655
Sn0 Zr0 2.993194 1_556
Sn0 Zr3 2.993194 1_555
Sn0 Zr6 3.142951 1_555
Sn0 Zr9 3.246282 1_555
Sn0 Zr9 3.246282 1_556
Sn1 Zr9 2.951408 1_555
Sn1 Zr8 2.963542 1_565
Sn1 Zr2 2.981118 1_555
Sn1 Zr1 2.981118 1_555
Sn1 Zr3 2.983846 1_555
Sn1 Zr0 2.983846 1_555
Sn1 Zr7 3.148123 1_555
Sn1 Zr4 3.236792 1_555
Sn1 Zr4 3.236792 1_554
Sn2 Zr9 2.951408 1_455
Sn2 Zr7 2.963534 1_565
Sn2 Zr3 2.981113 1_565
Sn2 Zr0 2.981113 1_565
Sn2 Zr2 2.983839 1_555
Sn2 Zr1 2.983839 1_555
Sn2 Zr8 3.148119 1_565
Sn2 Zr5 3.236792 1_555
Sn2 Zr5 3.236792 1_554
Sn3 Zr8 2.971902 1_455
Sn3 Zr7 2.971909 1_555
Sn3 Zr3 2.986910 1_455
Sn3 Zr0 2.986910 1_455
Sn3 Zr2 2.986913 1_555
Sn3 Zr1 2.986913 1_555
Sn3 Zr9 3.138672 1_455
Sn3 Zr6 3.248198 1_455
Sn3 Zr6 3.248198 1_454
B0 Zr9 2.444122 1_445
B0 Zr6 2.447352 1_454
B0 Zr4 2.448823 1_444
B0 Zr5 2.448823 1_544
B0 Zr7 2.456707 1_555
B0 Zr8 2.456710 1_455
B1 Zr9 2.444122 1_445
B1 Zr6 2.447352 1_455
B1 Zr4 2.448823 1_445
B1 Zr5 2.448823 1_545
B1 Zr7 2.456707 1_555
B1 Zr8 2.456710 1_455
Sb0 Zr5 2.973155 1_545
Sb0 Zr6 2.973533 1_455
Sb0 Zr0 2.977885 1_556
Sb0 Zr3 2.977885 1_555
Sb0 Zr1 2.980432 1_556
Sb0 Zr2 2.980432 1_555
Sb0 Zr4 3.148743 1_555
Sb0 Zr7 3.236517 1_555
Sb0 Zr7 3.236517 1_556
Sb1 Zr4 2.973155 1_555
Sb1 Zr6 2.973533 1_565
Sb1 Zr1 2.977880 1_556
Sb1 Zr2 2.977880 1_555
Sb1 Zr0 2.980424 1_566
Sb1 Zr3 2.980424 1_565
Sb1 Zr5 3.148743 1_555
Sb1 Zr8 3.236516 1_566
Sb1 Zr8 3.236516 1_565
