# generated using pymatgen
data_K6AlTe4I
_symmetry_space_group_name_H-M   'P 1'
_cell_length_a   11.28088469
_cell_length_b   11.28088420
_cell_length_c   8.34718615
_cell_angle_alpha   90.00000000
_cell_angle_beta   90.00000000
_cell_angle_gamma   119.99999858
_symmetry_Int_Tables_number   1
_chemical_formula_structural   K6AlTe4I
_chemical_formula_sum   'K12 Al2 Te8 I2'
_cell_volume   919.93477780
_cell_formula_units_Z   2
loop_
 _symmetry_equiv_pos_site_id
 _symmetry_equiv_pos_as_xyz
  1  'x, y, z'
loop_
 _atom_site_type_symbol
 _atom_site_label
 _atom_site_symmetry_multiplicity
 _atom_site_fract_x
 _atom_site_fract_y
 _atom_site_fract_z
 _atom_site_occupancy
  K  K0  1  0.13893757  0.86106243  0.51454082  1
  K  K1  1  0.72212286  0.86106243  0.51454082  1
  K  K2  1  0.95157337  0.47578719  0.32099921  1
  K  K3  1  0.52421281  0.47578719  0.32099921  1
  K  K4  1  0.86106243  0.72212286  0.01454082  1
  K  K5  1  0.27787714  0.13893757  0.01454082  1
  K  K6  1  0.52421281  0.04842663  0.32099921  1
  K  K7  1  0.13893757  0.27787714  0.51454082  1
  K  K8  1  0.86106243  0.13893757  0.01454082  1
  K  K9  1  0.04842663  0.52421281  0.82099921  1
  K  K10  1  0.47578719  0.95157337  0.82099921  1
  K  K11  1  0.47578719  0.52421281  0.82099921  1
  Al  Al0  1  0.66666700  0.33333300  0.70703458  1
  Al  Al1  1  0.33333300  0.66666700  0.20703458  1
  Te  Te0  1  0.41088508  0.20544354  0.60813856  1
  Te  Te1  1  0.58911492  0.79455646  0.10813856  1
  Te  Te2  1  0.66666700  0.33333300  0.02967586  1
  Te  Te3  1  0.79455646  0.58911492  0.60813856  1
  Te  Te4  1  0.20544354  0.41088508  0.10813856  1
  Te  Te5  1  0.33333300  0.66666700  0.52967586  1
  Te  Te6  1  0.20544354  0.79455646  0.10813856  1
  Te  Te7  1  0.79455646  0.20544354  0.60813856  1
  I  I0  1  0.00000000  0.00000000  0.27285379  1
  I  I1  1  0.00000000  0.00000000  0.77285379  1
loop_
_geom_bond_atom_site_label_1
_geom_bond_atom_site_label_2
_geom_bond_distance
_geom_bond_site_symmetry_2
K0 Te0 3.632668 1_565
K0 Te3 3.632668 1_455
K0 Te6 3.632686 1_555
K0 Te5 3.800405 1_555
K1 Te7 3.632667 1_565
K1 Te3 3.632667 1_555
K1 Te1 3.632673 1_555
K1 Te5 3.800396 1_555
K2 Te7 3.575050 1_555
K2 Te3 3.575056 1_555
K2 Te2 3.696030 1_555
K2 Te6 3.740519 1_655
K2 Te4 3.740539 1_655
K3 Te0 3.575049 1_555
K3 Te3 3.575049 1_555
K3 Te2 3.696045 1_555
K3 Te1 3.740509 1_555
K3 Te4 3.740510 1_555
K4 Te1 3.632668 1_555
K4 Te6 3.632668 1_655
K4 Te3 3.632672 1_554
K4 Te2 3.800396 1_555
K5 Te6 3.632667 1_545
K5 Te4 3.632667 1_555
K5 Te0 3.632673 1_554
K5 Te2 3.800396 1_555
K6 Te7 3.575050 1_555
K6 Te0 3.575056 1_555
K6 Te2 3.696030 1_555
K6 Te6 3.740519 1_545
K6 Te1 3.740539 1_545
K7 Te0 3.632668 1_555
K7 Te7 3.632668 1_455
K7 Te4 3.632672 1_555
K7 Te5 3.800396 1_555
K8 Te1 3.632668 1_545
K8 Te4 3.632668 1_655
K8 Te7 3.632686 1_554
K8 Te2 3.800405 1_555
K9 Te6 3.575050 1_556
K9 Te4 3.575056 1_556
K9 Te5 3.696030 1_555
K9 Te7 3.740519 1_455
K9 Te3 3.740539 1_455
K10 Te6 3.575050 1_556
K10 Te1 3.575056 1_556
K10 Te5 3.696030 1_555
K10 Te7 3.740519 1_565
K10 Te0 3.740539 1_565
K11 Te1 3.575049 1_556
K11 Te4 3.575049 1_556
K11 Te5 3.696045 1_555
K11 Te0 3.740509 1_555
K11 Te3 3.740510 1_555
Al0 Te7 2.631665 1_555
Al0 Te3 2.631693 1_555
Al0 Te0 2.631693 1_555
Al0 Te2 2.693147 1_556
Al1 Te6 2.631665 1_555
Al1 Te4 2.631693 1_555
Al1 Te1 2.631693 1_555
Al1 Te5 2.693147 1_555
I0 K0 3.382245 1_545
I0 K7 3.382261 1_555
I0 K1 3.382261 1_445
I0 K8 3.466813 1_455
I0 K4 3.466828 1_445
I0 K5 3.466828 1_555
I1 K8 3.382245 1_456
I1 K4 3.382261 1_446
I1 K5 3.382261 1_556
I1 K0 3.466813 1_545
I1 K7 3.466828 1_555
I1 K1 3.466828 1_445
