# generated using pymatgen
data_Ti2GaSnRh3
_symmetry_space_group_name_H-M   'P 1'
_cell_length_a   7.48757798
_cell_length_b   7.48757739
_cell_length_c   7.48757854
_cell_angle_alpha   33.35473903
_cell_angle_beta   33.35474687
_cell_angle_gamma   33.35473703
_symmetry_Int_Tables_number   1
_chemical_formula_structural   Ti2GaSnRh3
_chemical_formula_sum   'Ti2 Ga1 Sn1 Rh3'
_cell_volume   112.99664417
_cell_formula_units_Z   1
loop_
 _symmetry_equiv_pos_site_id
 _symmetry_equiv_pos_as_xyz
  1  'x, y, z'
loop_
 _atom_site_type_symbol
 _atom_site_label
 _atom_site_symmetry_multiplicity
 _atom_site_fract_x
 _atom_site_fract_y
 _atom_site_fract_z
 _atom_site_occupancy
  Ti  Ti0  1  0.75211626  0.75211626  0.75211626  1
  Ti  Ti1  1  0.25031155  0.25031155  0.25031155  1
  Ga  Ga0  1  0.99441236  0.99441236  0.99441236  1
  Sn  Sn0  1  0.50496419  0.50496419  0.50496419  1
  Rh  Rh0  1  0.12034587  0.12034587  0.12034587  1
  Rh  Rh1  1  0.62985725  0.62985725  0.62985725  1
  Rh  Rh2  1  0.37299253  0.37299253  0.37299253  1
loop_
_geom_bond_atom_site_label_1
_geom_bond_atom_site_label_2
_geom_bond_distance
_geom_bond_site_symmetry_2
Ga0 Rh1 2.567939 1_565
Ga0 Rh1 2.567939 1_655
Ga0 Rh1 2.567939 1_556
Ga0 Rh2 2.660081 1_656
Ga0 Rh2 2.660081 1_566
Ga0 Rh2 2.660081 1_665
Ga0 Rh0 2.668977 1_666
Ga0 Ti1 2.974841 1_656
Ga0 Ti1 2.974842 1_566
Ga0 Ti1 2.974843 1_665
Sn0 Ti1 2.989497 1_565
Sn0 Ti1 2.989498 1_655
Sn0 Ti1 2.989498 1_556
Sn0 Ti0 3.080992 1_545
Sn0 Ti0 3.080993 1_455
Sn0 Ti0 3.080993 1_554
Rh0 Ti0 2.589099 1_454
Rh0 Ti0 2.589100 1_544
Rh0 Ti0 2.589100 1_445
Rh0 Sn0 2.708844 1_545
Rh0 Sn0 2.708845 1_455
Rh0 Sn0 2.708845 1_554
Rh0 Ti1 2.754433 1_555
Rh0 Rh2 3.013417 1_545
Rh0 Rh2 3.013418 1_455
Rh0 Rh2 3.013419 1_554
Rh1 Ti0 2.591102 1_555
Rh1 Sn0 2.646926 1_555
Rh1 Ti1 2.667526 1_565
Rh1 Ti1 2.667526 1_655
Rh1 Ti1 2.667526 1_556
Rh1 Rh2 2.963602 1_565
Rh1 Rh2 2.963603 1_655
Rh1 Rh2 2.963603 1_556
Rh2 Ti1 2.600045 1_555
Rh2 Ti0 2.664255 1_545
Rh2 Ti0 2.664256 1_455
Rh2 Ti0 2.664256 1_554
Rh2 Sn0 2.796947 1_555
