# generated using pymatgen
data_Ti4NbSiSn2
_symmetry_space_group_name_H-M   'P 1'
_cell_length_a   7.88895087
_cell_length_b   7.88895047
_cell_length_c   7.88304377
_cell_angle_alpha   95.88782874
_cell_angle_beta   95.83581215
_cell_angle_gamma   142.73974294
_symmetry_Int_Tables_number   1
_chemical_formula_structural   Ti4NbSiSn2
_chemical_formula_sum   'Ti8 Nb2 Si2 Sn4'
_cell_volume   281.44221753
_cell_formula_units_Z   2
loop_
 _symmetry_equiv_pos_site_id
 _symmetry_equiv_pos_as_xyz
  1  'x, y, z'
loop_
 _atom_site_type_symbol
 _atom_site_label
 _atom_site_symmetry_multiplicity
 _atom_site_fract_x
 _atom_site_fract_y
 _atom_site_fract_z
 _atom_site_occupancy
  Ti  Ti0  1  0.42633544  0.29237470  0.71870914  1
  Ti  Ti1  1  0.20518359  0.07037039  0.27555498  1
  Ti  Ti2  1  0.57356690  0.70846103  0.28202794  1
  Ti  Ti3  1  0.25204093  0.75101914  0.50277384  1
  Ti  Ti4  1  0.29018037  0.57254298  0.86272335  1
  Ti  Ti5  1  0.70584747  0.42623221  0.13208068  1
  Ti  Ti6  1  0.75175470  0.25073392  0.50277384  1
  Ti  Ti7  1  0.92839538  0.20605633  0.13445172  1
  Nb  Nb0  1  0.79384391  0.92667578  0.72051869  1
  Nb  Nb1  1  0.07259580  0.79513322  0.86772902  1
  Si  Si0  1  0.25361610  0.25602551  0.00218607  1
  Si  Si1  1  0.74616055  0.74856997  0.00218607  1
  Sn  Sn0  1  0.16358911  0.33372073  0.49730984  1
  Sn  Sn1  1  0.66490490  0.16637558  0.83128048  1
  Sn  Sn2  1  0.83335597  0.66040321  0.49375918  1
  Sn  Sn3  1  0.33862988  0.83530529  0.17393517  1
loop_
_geom_bond_atom_site_label_1
_geom_bond_atom_site_label_2
_geom_bond_distance
_geom_bond_site_symmetry_2
Ti3 Ti6 2.518745 1_565
Ti3 Ti6 2.521626 1_455
Nb0 Si0 2.648481 1_666
Nb0 Si1 2.648484 1_556
Nb0 Sn2 2.844342 1_555
Nb0 Sn1 2.876894 1_565
Nb0 Sn0 3.034662 1_665
Nb0 Sn0 3.034666 1_555
Nb1 Si0 2.649410 1_566
Nb1 Si1 2.649410 1_456
Nb1 Sn3 2.843560 1_556
Nb1 Sn2 2.900888 1_455
Nb1 Ti0 2.956735 1_455
Nb1 Ti0 2.956739 1_565
Nb1 Sn1 3.025903 1_455
Nb1 Sn1 3.025903 1_565
Si0 Si1 2.482607 1_555
Si0 Si1 2.557764 1_445
Si0 Ti7 2.616007 1_455
Si0 Ti1 2.619017 1_555
Si0 Ti2 2.624637 1_555
Si0 Ti5 2.632326 1_555
Si0 Ti4 2.647265 1_554
Si0 Ti0 2.657303 1_554
Si1 Ti7 2.616007 1_565
Si1 Ti1 2.619015 1_665
Si1 Ti2 2.624637 1_555
Si1 Ti5 2.632328 1_555
Si1 Ti4 2.647265 1_554
Si1 Ti0 2.657301 1_554
Sn0 Ti3 2.763067 1_555
Sn0 Ti6 2.763073 1_455
Sn0 Ti0 2.811807 1_555
Sn0 Ti1 2.817177 1_555
Sn0 Ti7 2.827391 1_455
Sn0 Ti4 2.855033 1_555
Sn0 Ti2 3.001001 1_445
Sn0 Ti2 3.001001 1_555
Sn1 Ti3 2.758097 1_545
Sn1 Ti6 2.758098 1_555
Sn1 Ti5 2.778934 1_556
Sn1 Ti7 2.816204 1_556
Sn1 Ti0 2.852524 1_555
Sn1 Ti4 3.014928 1_545
Sn1 Ti4 3.014928 1_655
Sn2 Ti6 2.758457 1_555
Sn2 Ti3 2.758465 1_655
Sn2 Ti2 2.793011 1_555
Sn2 Ti5 2.816331 1_555
Sn2 Ti1 3.014874 1_665
Sn2 Ti1 3.014878 1_555
Sn2 Ti0 3.042854 1_555
Sn2 Ti0 3.042858 1_665
Sn3 Ti3 2.760295 1_555
Sn3 Ti6 2.760296 1_565
Sn3 Ti4 2.822505 1_554
Sn3 Ti2 2.822854 1_555
Sn3 Ti1 2.857121 1_565
Sn3 Ti7 3.019676 1_455
Sn3 Ti7 3.019676 1_565
Sn3 Ti5 3.040782 1_565
Sn3 Ti5 3.040787 1_455
