# generated using pymatgen
data_Cs2Li14Sn3O14
_symmetry_space_group_name_H-M   'P 1'
_cell_length_a   8.23913450
_cell_length_b   8.23914086
_cell_length_c   8.23914573
_cell_angle_alpha   127.95582469
_cell_angle_beta   123.44567769
_cell_angle_gamma   80.43315018
_symmetry_Int_Tables_number   1
_chemical_formula_structural   Cs2Li14Sn3O14
_chemical_formula_sum   'Cs2 Li14 Sn3 O14'
_cell_volume   355.05811128
_cell_formula_units_Z   1
loop_
 _symmetry_equiv_pos_site_id
 _symmetry_equiv_pos_as_xyz
  1  'x, y, z'
loop_
 _atom_site_type_symbol
 _atom_site_label
 _atom_site_symmetry_multiplicity
 _atom_site_fract_x
 _atom_site_fract_y
 _atom_site_fract_z
 _atom_site_occupancy
  Cs  Cs0  1  0.50000000  0.76714170  0.26714170  1
  Cs  Cs1  1  0.50000000  0.23285830  0.73285830  1
  Li  Li0  1  0.70707741  0.13722381  0.11592016  1
  Li  Li1  1  0.97869635  0.86277619  0.56985260  1
  Li  Li2  1  0.02130465  0.59115424  0.88407884  1
  Li  Li3  1  0.29292559  0.40884476  0.43015040  1
  Li  Li4  1  0.02130365  0.13722381  0.43014740  1
  Li  Li5  1  0.84193929  0.50000000  0.34193829  1
  Li  Li6  1  0.15806071  0.50000000  0.65806171  1
  Li  Li7  1  0.41563763  0.77030550  0.64533213  1
  Li  Li8  1  0.58436237  0.22969450  0.35466787  1
  Li  Li9  1  0.87502763  0.22969650  0.64533313  1
  Li  Li10  1  0.12497237  0.77030350  0.35466687  1
  Li  Li11  1  0.70707441  0.59115524  0.56984960  1
  Li  Li12  1  0.29292259  0.86277619  0.88407984  1
  Li  Li13  1  0.97869535  0.40884576  0.11592116  1
  Sn  Sn0  1  0.00000000  0.00000000  0.00000000  1
  Sn  Sn1  1  0.26675814  0.26675814  0.00000100  1
  Sn  Sn2  1  0.73324186  0.73324186  0.99999900  1
  O  O0  1  0.05015225  0.87334865  0.17680461  1
  O  O1  1  0.42248201  0.63549842  0.78698559  1
  O  O2  1  0.84851283  0.63549742  0.21301441  1
  O  O3  1  0.57751799  0.36450158  0.21301441  1
  O  O4  1  0.15148717  0.36450258  0.78698559  1
  O  O5  1  0.74739194  0.03170161  0.28430867  1
  O  O6  1  0.25260906  0.53691774  0.28430967  1
  O  O7  1  0.25260806  0.96829839  0.71569133  1
  O  O8  1  0.74739094  0.46308226  0.71569033  1
  O  O9  1  0.99999900  0.71231847  0.71231847  1
  O  O10  1  0.00000100  0.28768153  0.28768153  1
  O  O11  1  0.69654404  0.87334865  0.82319439  1
  O  O12  1  0.30345596  0.12665135  0.17680561  1
  O  O13  1  0.94984775  0.12665135  0.82319539  1
loop_
_geom_bond_atom_site_label_1
_geom_bond_atom_site_label_2
_geom_bond_distance
_geom_bond_site_symmetry_2
Cs0 O4 3.066227 1_554
Cs0 O1 3.066231 1_554
Cs0 O2 3.066236 1_555
Cs0 O3 3.066239 1_555
Cs0 O6 3.115391 1_555
Cs0 O5 3.115403 1_565
Cs1 O2 3.066227 1_556
Cs1 O3 3.066231 1_556
Cs1 O4 3.066236 1_555
Cs1 O1 3.066239 1_555
Cs1 O8 3.115391 1_555
Cs1 O7 3.115403 1_545
Li0 O5 1.915940 1_555
Li0 O3 1.928758 1_555
Li0 O11 1.983175 1_544
Li0 O10 2.106131 1_655
Li1 O7 1.915938 1_655
Li1 O2 1.928762 1_555
Li1 O13 1.983171 1_565
Li1 O9 2.106138 1_555
Li2 O8 1.915952 1_455
Li2 O4 1.928741 1_555
Li2 O0 1.983191 1_556
Li2 O9 2.106137 1_455
Li3 O6 1.915957 1_555
Li3 O1 1.928749 1_555
Li3 O12 1.983178 1_555
Li3 O10 2.106132 1_555
Li4 O5 1.915938 1_455
Li4 O4 1.928762 1_555
Li4 O0 1.983171 1_545
Li4 O10 2.106138 1_555
Li5 O9 1.969378 1_555
Li5 O10 1.969380 1_655
Li5 O3 1.979846 1_555
Li5 O2 1.979846 1_555
Li6 O10 1.969378 1_555
Li6 O9 1.969380 1_455
Li6 O1 1.979846 1_555
Li6 O4 1.979846 1_555
Li7 O11 1.899731 1_555
Li7 O6 1.941161 1_555
Li7 O7 1.941165 1_555
Li7 O1 2.024887 1_555
Li8 O12 1.899731 1_555
Li8 O8 1.941161 1_555
Li8 O5 1.941165 1_555
Li8 O3 2.024887 1_555
Li9 O13 1.899742 1_555
Li9 O8 1.941161 1_555
Li9 O5 1.941173 1_555
Li9 O4 2.024869 1_655
Li10 O0 1.899742 1_555
Li10 O6 1.941161 1_555
Li10 O7 1.941173 1_555
Li10 O2 2.024869 1_455
Li11 O8 1.915957 1_555
Li11 O3 1.928749 1_555
Li11 O11 1.983178 1_555
Li11 O9 2.106132 1_555
Li12 O7 1.915940 1_555
Li12 O1 1.928758 1_555
Li12 O12 1.983175 1_566
Li12 O9 2.106131 1_455
Li13 O6 1.915952 1_655
Li13 O2 1.928741 1_555
Li13 O13 1.983191 1_554
Li13 O10 2.106137 1_655
O0 Sn0 2.108245 1_565
O0 Sn2 2.238957 1_454
O1 Sn2 2.068295 1_555
O2 Sn2 2.068300 1_554
O3 Sn1 2.068295 1_555
O4 Sn1 2.068300 1_556
O5 Sn2 2.063061 1_544
O6 Sn1 2.063054 1_555
O7 Sn1 2.063061 1_566
O8 Sn2 2.063054 1_555
O9 Sn0 2.079737 1_666
O10 Sn0 2.079737 1_555
O11 Sn0 2.108236 1_666
O11 Sn2 2.238972 1_555
O12 Sn0 2.108236 1_555
O12 Sn1 2.238972 1_555
O13 Sn0 2.108245 1_656
O13 Sn1 2.238957 1_656
