# generated using pymatgen
data_Mn2CuO4
_symmetry_space_group_name_H-M   'P 1'
_cell_length_a   6.02715726
_cell_length_b   6.02715726
_cell_length_c   6.02715726
_cell_angle_alpha   119.44204016
_cell_angle_beta   118.88770840
_cell_angle_gamma   91.45332435
_symmetry_Int_Tables_number   1
_chemical_formula_structural   Mn2CuO4
_chemical_formula_sum   'Mn4 Cu2 O8'
_cell_volume   156.71365248
_cell_formula_units_Z   2
loop_
 _symmetry_equiv_pos_site_id
 _symmetry_equiv_pos_as_xyz
  1  'x, y, z'
loop_
 _atom_site_type_symbol
 _atom_site_label
 _atom_site_symmetry_multiplicity
 _atom_site_fract_x
 _atom_site_fract_y
 _atom_site_fract_z
 _atom_site_occupancy
  Mn  Mn0  1  0.88024500  0.13024500  0.75000000  1
  Mn  Mn1  1  0.11975500  0.86975500  0.25000000  1
  Mn  Mn2  1  0.00000000  0.50000000  0.50000000  1
  Mn  Mn3  1  0.50000000  0.50000000  0.00000000  1
  Cu  Cu0  1  0.50000000  0.00000000  0.00000000  1
  Cu  Cu1  1  0.50000000  0.50000000  0.50000000  1
  O  O0  1  0.25551400  0.73025300  0.97473900  1
  O  O1  1  0.25181800  0.73191800  0.51990100  1
  O  O2  1  0.25551400  0.28077600  0.52526100  1
  O  O3  1  0.28798300  0.26808200  0.01990100  1
  O  O4  1  0.71201700  0.73191800  0.98009900  1
  O  O5  1  0.74818200  0.26808200  0.48009900  1
  O  O6  1  0.74448600  0.71922400  0.47473900  1
  O  O7  1  0.74448600  0.26974700  0.02526100  1
loop_
_geom_bond_atom_site_label_1
_geom_bond_atom_site_label_2
_geom_bond_distance
_geom_bond_site_symmetry_2
Mn0 O5 2.020167 1_555
Mn0 O3 2.020167 1_656
Mn0 O7 2.025845 1_556
Mn0 O6 2.025850 1_545
Mn1 O1 2.020167 1_555
Mn1 O4 2.020167 1_454
Mn1 O0 2.025845 1_554
Mn1 O2 2.025850 1_565
Mn2 O1 1.955370 1_555
Mn2 O5 1.955370 1_455
Mn2 O2 2.053076 1_555
Mn2 O6 2.053076 1_455
Mn2 O7 2.053080 1_455
Mn2 O0 2.053080 1_555
Mn3 O4 1.955374 1_554
Mn3 O3 1.955374 1_555
Mn3 O7 2.053080 1_555
Mn3 O0 2.053080 1_554
Mn3 O2 2.053080 1_554
Mn3 O6 2.053080 1_555
Cu0 O0 2.063047 1_544
Cu0 O7 2.063047 1_555
Cu0 O3 2.078541 1_555
Cu0 O4 2.078541 1_544
Cu0 O5 2.078541 1_555
Cu0 O1 2.078541 1_544
Cu1 O2 2.063043 1_555
Cu1 O6 2.063043 1_555
Cu1 O3 2.078541 1_555
Cu1 O4 2.078541 1_555
Cu1 O1 2.078545 1_555
Cu1 O5 2.078545 1_555
