# generated using pymatgen
data_Zr12Ti4Os8O
_symmetry_space_group_name_H-M   'P 1'
_cell_length_a   8.62395929
_cell_length_b   8.62395933
_cell_length_c   8.62395967
_cell_angle_alpha   60.09720327
_cell_angle_beta   60.09720538
_cell_angle_gamma   60.09721415
_symmetry_Int_Tables_number   1
_chemical_formula_structural   Zr12Ti4Os8O
_chemical_formula_sum   'Zr12 Ti4 Os8 O1'
_cell_volume   454.52799329
_cell_formula_units_Z   1
loop_
 _symmetry_equiv_pos_site_id
 _symmetry_equiv_pos_as_xyz
  1  'x, y, z'
loop_
 _atom_site_type_symbol
 _atom_site_label
 _atom_site_symmetry_multiplicity
 _atom_site_fract_x
 _atom_site_fract_y
 _atom_site_fract_z
 _atom_site_occupancy
  Zr  Zr0  1  0.43146719  0.43146719  0.81645647  1
  Zr  Zr1  1  0.81645647  0.43146719  0.43146719  1
  Zr  Zr2  1  0.43146719  0.81645647  0.43146719  1
  Zr  Zr3  1  0.81978239  0.81978239  0.43016826  1
  Zr  Zr4  1  0.43016826  0.81978239  0.81978239  1
  Zr  Zr5  1  0.81978239  0.43016826  0.81978239  1
  Zr  Zr6  1  0.56853281  0.56853281  0.18354353  1
  Zr  Zr7  1  0.18354353  0.56853281  0.56853281  1
  Zr  Zr8  1  0.56853281  0.18354353  0.56853281  1
  Zr  Zr9  1  0.18021761  0.18021761  0.56983174  1
  Zr  Zr10  1  0.56983174  0.18021761  0.18021761  1
  Zr  Zr11  1  0.18021761  0.56983174  0.18021761  1
  Ti  Ti0  1  0.00000000  0.00000000  0.00000000  1
  Ti  Ti1  1  0.00000000  0.50000000  0.00000000  1
  Ti  Ti2  1  0.50000000  0.00000000  0.00000000  1
  Ti  Ti3  1  0.00000000  0.00000000  0.50000000  1
  Os  Os0  1  0.78999639  0.78999639  0.78999639  1
  Os  Os1  1  0.79198862  0.12519126  0.79198862  1
  Os  Os2  1  0.12519126  0.79198862  0.79198862  1
  Os  Os3  1  0.79198862  0.79198862  0.12519126  1
  Os  Os4  1  0.21000361  0.21000361  0.21000361  1
  Os  Os5  1  0.20801138  0.87480874  0.20801138  1
  Os  Os6  1  0.87480874  0.20801138  0.20801138  1
  Os  Os7  1  0.20801138  0.20801138  0.87480874  1
  O  O0  1  0.50000000  0.50000000  0.50000000  1
loop_
_geom_bond_atom_site_label_1
_geom_bond_atom_site_label_2
_geom_bond_distance
_geom_bond_site_symmetry_2
Zr0 Zr10 3.215118 1_556
Zr0 Zr11 3.215118 1_556
Zr0 Zr5 3.357611 1_555
Zr0 Zr4 3.357611 1_555
Zr1 Zr11 3.215117 1_655
Zr1 Zr9 3.215118 1_655
Zr1 Zr3 3.357611 1_555
Zr1 Zr5 3.357611 1_555
Zr2 Zr9 3.215118 1_565
Zr2 Zr3 3.357611 1_555
Zr2 Zr4 3.357611 1_555
Zr3 Zr7 3.215118 1_655
Zr3 Zr8 3.215118 1_565
Zr3 Zr5 3.364952 1_555
Zr3 Zr4 3.364952 1_555
Zr4 Zr9 3.197891 1_565
Zr4 Zr8 3.215117 1_565
Zr4 Zr6 3.215118 1_556
Zr4 Zr5 3.364952 1_555
Zr5 Zr9 3.197891 1_655
Zr5 Zr7 3.215117 1_655
Zr5 Zr6 3.215118 1_556
Zr7 Zr9 3.357611 1_555
Zr8 Zr9 3.357611 1_555
Zr10 Zr5 3.197891 1_554
Zr10 Zr3 3.197891 1_545
Zr10 Zr2 3.215117 1_545
Zr10 Zr6 3.357611 1_555
Zr10 Zr8 3.357611 1_555
Zr10 Zr9 3.364952 1_555
Zr10 Zr11 3.364952 1_555
Zr11 Zr4 3.197891 1_554
Zr11 Zr3 3.197891 1_455
Zr11 Zr6 3.357611 1_555
Zr11 Zr7 3.357611 1_555
Zr11 Zr9 3.364952 1_555
Ti0 Zr3 3.082899 1_445
Ti0 Zr9 3.082899 1_554
Ti0 Zr5 3.082899 1_454
Ti0 Zr11 3.082899 1_545
Ti0 Zr10 3.082899 1_455
Ti0 Zr4 3.082899 1_544
Ti1 Zr11 3.077098 1_555
Ti1 Zr5 3.077098 1_454
Ti2 Zr10 3.077098 1_555
Ti2 Zr4 3.077098 1_544
Ti3 Zr9 3.077098 1_555
Ti3 Zr3 3.077098 1_445
Os0 Ti3 2.655708 1_665
Os0 Ti1 2.655708 1_656
Os0 Ti2 2.655708 1_566
Os0 Zr4 2.870142 1_555
Os0 Zr5 2.870142 1_555
Os0 Zr3 2.870142 1_555
Os0 Zr6 3.086284 1_556
Os0 Zr8 3.086285 1_565
Os0 Zr7 3.086285 1_655
Os1 Ti0 2.635922 1_656
Os1 Ti2 2.645783 1_556
Os1 Ti3 2.645783 1_655
Os1 Zr5 2.889081 1_555
Os1 Zr1 2.898491 1_555
Os1 Zr0 2.898492 1_555
Os1 Zr9 3.063881 1_655
Os1 Zr10 3.063881 1_556
Os1 Zr8 3.073980 1_555
Os2 Ti0 2.635922 1_566
Os2 Ti1 2.645783 1_556
Os2 Ti3 2.645783 1_565
Os2 Zr4 2.889081 1_555
Os2 Zr2 2.898491 1_555
Os2 Zr0 2.898492 1_555
Os2 Zr9 3.063881 1_565
Os2 Zr11 3.063881 1_556
Os2 Zr7 3.073980 1_555
Os3 Ti0 2.635922 1_665
Os3 Ti2 2.645783 1_565
Os3 Ti1 2.645783 1_655
Os3 Zr3 2.889081 1_555
Os3 Zr1 2.898491 1_555
Os3 Zr2 2.898491 1_555
Os3 Zr11 3.063881 1_655
Os3 Zr10 3.063881 1_565
Os3 Zr6 3.073979 1_555
Os4 Ti3 2.655708 1_555
Os4 Ti1 2.655708 1_555
Os4 Ti2 2.655708 1_555
Os4 Zr10 2.870142 1_555
Os4 Zr11 2.870142 1_555
Os4 Zr9 2.870142 1_555
Os4 Zr0 3.086284 1_554
Os4 Zr2 3.086285 1_545
Os4 Zr1 3.086285 1_455
Os5 Ti0 2.635922 1_565
Os5 Ti2 2.645783 1_565
Os5 Ti3 2.645783 1_565
Os5 Zr11 2.889081 1_555
Os5 Zr7 2.898491 1_555
Os5 Zr6 2.898492 1_555
Os5 Zr3 3.063881 1_455
Os5 Zr4 3.063881 1_554
Os5 Zr2 3.073980 1_555
Os6 Ti0 2.635922 1_655
Os6 Ti1 2.645783 1_655
Os6 Ti3 2.645783 1_655
Os6 Zr10 2.889081 1_555
Os6 Zr8 2.898491 1_555
Os6 Zr6 2.898492 1_555
Os6 Zr3 3.063881 1_545
Os6 Zr5 3.063881 1_554
Os6 Zr1 3.073980 1_555
Os7 Ti0 2.635922 1_556
Os7 Ti2 2.645783 1_556
Os7 Ti1 2.645783 1_556
Os7 Zr9 2.889081 1_555
Os7 Zr7 2.898491 1_555
Os7 Zr8 2.898491 1_555
Os7 Zr5 3.063881 1_455
Os7 Zr4 3.063881 1_545
Os7 Zr0 3.073979 1_555
O0 Zr0 2.297494 1_555
O0 Zr6 2.297494 1_555
O0 Zr2 2.297494 1_555
O0 Zr8 2.297494 1_555
O0 Zr1 2.297494 1_555
O0 Zr7 2.297494 1_555
