# generated using pymatgen
data_Hf5Zr(GaN)2
_symmetry_space_group_name_H-M   'P 1'
_cell_length_a   5.89312760
_cell_length_b   5.89312833
_cell_length_c   8.69885585
_cell_angle_alpha   89.96022737
_cell_angle_beta   90.03977401
_cell_angle_gamma   147.13813634
_symmetry_Int_Tables_number   1
_chemical_formula_structural   Hf5Zr(GaN)2
_chemical_formula_sum   'Hf5 Zr1 Ga2 N2'
_cell_volume   163.92528150
_cell_formula_units_Z   1
loop_
 _symmetry_equiv_pos_site_id
 _symmetry_equiv_pos_as_xyz
  1  'x, y, z'
loop_
 _atom_site_type_symbol
 _atom_site_label
 _atom_site_symmetry_multiplicity
 _atom_site_fract_x
 _atom_site_fract_y
 _atom_site_fract_z
 _atom_site_occupancy
  Hf  Hf0  1  0.04927151  0.95072749  0.25029366  1
  Hf  Hf1  1  0.37156773  0.62843027  0.45237541  1
  Hf  Hf2  1  0.62684556  0.37315244  0.54816753  1
  Hf  Hf3  1  0.95088914  0.04910986  0.75014302  1
  Hf  Hf4  1  0.62818494  0.37181306  0.95142147  1
  Zr  Zr0  1  0.37153318  0.62846482  0.04934735  1
  Ga  Ga0  1  0.74417079  0.25582821  0.25200962  1
  Ga  Ga1  1  0.25438571  0.74561329  0.74840447  1
  N  N0  1  0.00409095  0.99590905  0.99802868  1
  N  N1  1  0.99905547  0.00094453  0.49981479  1
loop_
_geom_bond_atom_site_label_1
_geom_bond_atom_site_label_2
_geom_bond_distance
_geom_bond_site_symmetry_2
Hf0 N1 2.243956 1_465
Hf0 N0 2.252715 1_554
Hf1 N1 2.241697 1_455
Hf1 N1 2.241701 1_565
Hf2 N1 2.245380 1_455
Hf2 N1 2.245386 1_565
Hf3 N0 2.238207 1_645
Hf3 N1 2.244998 1_555
Hf4 N0 2.216283 1_545
Hf4 N0 2.216289 1_655
Ga0 Hf0 2.762868 1_545
Ga0 Hf0 2.762869 1_655
Ga0 Hf1 2.808401 1_655
Ga0 Hf1 2.808403 1_545
Ga0 Zr0 2.821938 1_655
Ga0 Zr0 2.821941 1_545
Ga0 Hf2 2.898470 1_555
Ga0 Hf4 2.924267 1_554
Ga1 Hf3 2.777353 1_565
Ga1 Hf3 2.777353 1_455
Ga1 Hf2 2.808531 1_565
Ga1 Hf2 2.808532 1_455
Ga1 Hf4 2.817184 1_565
Ga1 Hf4 2.817185 1_455
Ga1 Hf1 2.896737 1_555
Ga1 Zr0 2.932928 1_556
N0 Zr0 2.285721 1_566
N0 Zr0 2.285725 1_456
