# generated using pymatgen
data_Hf5ZnBiPb2
_symmetry_space_group_name_H-M   'P 1'
_cell_length_a   8.70428387
_cell_length_b   8.69988698
_cell_length_c   5.83627604
_cell_angle_alpha   90.00000000
_cell_angle_beta   90.00000000
_cell_angle_gamma   119.98329728
_symmetry_Int_Tables_number   1
_chemical_formula_structural   Hf5ZnBiPb2
_chemical_formula_sum   'Hf10 Zn2 Bi2 Pb4'
_cell_volume   382.81256455
_cell_formula_units_Z   2
loop_
 _symmetry_equiv_pos_site_id
 _symmetry_equiv_pos_as_xyz
  1  'x, y, z'
loop_
 _atom_site_type_symbol
 _atom_site_label
 _atom_site_symmetry_multiplicity
 _atom_site_fract_x
 _atom_site_fract_y
 _atom_site_fract_z
 _atom_site_occupancy
  Hf  Hf0  1  0.33192467  0.66596284  0.00000000  1
  Hf  Hf1  1  0.66699807  0.33349854  0.50000000  1
  Hf  Hf2  1  0.66699807  0.33349854  0.00000000  1
  Hf  Hf3  1  0.33192467  0.66596284  0.50000000  1
  Hf  Hf4  1  0.26175595  0.00001120  0.25000000  1
  Hf  Hf5  1  0.26175595  0.26174475  0.75000000  1
  Hf  Hf6  1  0.00287190  0.73819199  0.75000000  1
  Hf  Hf7  1  0.00287190  0.26467991  0.25000000  1
  Hf  Hf8  1  0.73747923  0.73498074  0.25000000  1
  Hf  Hf9  1  0.73747923  0.00249850  0.75000000  1
  Zn  Zn0  1  0.99955489  0.99977794  0.00000000  1
  Zn  Zn1  1  0.99955489  0.99977794  0.50000000  1
  Bi  Bi0  1  0.61251846  0.00003825  0.25000000  1
  Bi  Bi1  1  0.61251846  0.61248221  0.75000000  1
  Pb  Pb0  1  0.00031324  0.38736067  0.75000000  1
  Pb  Pb1  1  0.00031324  0.61295458  0.25000000  1
  Pb  Pb2  1  0.38658258  0.38614479  0.25000000  1
  Pb  Pb3  1  0.38658258  0.00043679  0.75000000  1
loop_
_geom_bond_atom_site_label_1
_geom_bond_atom_site_label_2
_geom_bond_distance
_geom_bond_site_symmetry_2
Hf0 Pb0 3.056570 1_554
Hf0 Pb1 3.056573 1_555
Hf0 Pb3 3.072289 1_564
Hf0 Pb2 3.072304 1_555
Hf1 Pb0 3.067083 1_655
Hf1 Pb1 3.067091 1_655
Hf1 Pb3 3.068161 1_555
Hf1 Pb2 3.068161 1_555
Hf2 Pb0 3.067083 1_654
Hf2 Pb1 3.067091 1_655
Hf2 Pb3 3.068161 1_554
Hf2 Pb2 3.068161 1_555
Hf3 Pb0 3.056570 1_555
Hf3 Pb1 3.056573 1_555
Hf3 Pb3 3.072289 1_565
Hf3 Pb2 3.072304 1_555
Hf4 Zn1 2.707956 1_445
Hf4 Zn0 2.707956 1_445
Hf4 Pb2 2.969413 1_555
Hf4 Pb1 2.976342 1_545
Hf4 Pb3 3.113208 1_554
Hf4 Pb3 3.113208 1_555
Hf5 Zn1 2.707952 1_445
Hf5 Zn0 2.707952 1_446
Hf5 Pb3 2.969422 1_555
Hf5 Pb0 2.976355 1_555
Hf5 Pb2 3.113206 1_556
Hf5 Pb2 3.113206 1_555
Hf6 Zn0 2.715605 1_456
Hf6 Zn1 2.715605 1_455
Hf6 Pb3 2.957052 1_565
Hf6 Pb0 3.041124 1_555
Hf6 Pb1 3.111092 1_556
Hf6 Pb1 3.111092 1_555
Hf7 Zn0 2.715598 1_445
Hf7 Zn1 2.715598 1_445
Hf7 Pb2 2.957054 1_555
Hf7 Pb1 3.041141 1_555
Hf7 Pb0 3.111098 1_555
Hf7 Pb0 3.111098 1_554
Hf8 Zn0 2.717943 1_555
Hf8 Zn1 2.717943 1_555
Hf8 Pb1 2.964538 1_655
Hf8 Pb2 3.045384 1_555
Hf9 Zn1 2.717939 1_545
Hf9 Zn0 2.717939 1_546
Hf9 Pb0 2.964550 1_655
Hf9 Pb3 3.045380 1_555
Bi0 Hf8 3.001250 1_545
Bi0 Hf7 3.004439 1_655
Bi0 Hf4 3.053019 1_555
Bi0 Hf1 3.065116 1_555
Bi0 Hf2 3.065116 1_555
Bi0 Hf0 3.073492 1_545
Bi0 Hf3 3.073492 1_545
Bi0 Hf9 3.110594 1_555
Bi0 Hf9 3.110594 1_554
Bi1 Hf9 3.001233 1_565
Bi1 Hf6 3.004442 1_655
Bi1 Hf5 3.053027 1_555
Bi1 Hf1 3.065138 1_555
Bi1 Hf2 3.065138 1_556
Bi1 Hf3 3.073487 1_555
Bi1 Hf0 3.073487 1_556
Bi1 Hf8 3.110591 1_556
Bi1 Hf8 3.110591 1_555
