# generated using pymatgen
data_K5Sb4
_symmetry_space_group_name_H-M   'P 1'
_cell_length_a   5.48755460
_cell_length_b   6.80108930
_cell_length_c   11.08506706
_cell_angle_alpha   74.50473849
_cell_angle_beta   75.66918738
_cell_angle_gamma   66.20709121
_symmetry_Int_Tables_number   1
_chemical_formula_structural   K5Sb4
_chemical_formula_sum   'K5 Sb4'
_cell_volume   360.17892319
_cell_formula_units_Z   1
loop_
 _symmetry_equiv_pos_site_id
 _symmetry_equiv_pos_as_xyz
  1  'x, y, z'
loop_
 _atom_site_type_symbol
 _atom_site_label
 _atom_site_symmetry_multiplicity
 _atom_site_fract_x
 _atom_site_fract_y
 _atom_site_fract_z
 _atom_site_occupancy
  K  K0  1  0.89958856  0.80943662  0.39138626  1
  K  K1  1  0.10041144  0.19056338  0.60861374  1
  K  K2  1  0.24538067  0.34274717  0.16649149  1
  K  K3  1  0.75461933  0.65725283  0.83350851  1
  K  K4  1  0.00000000  -0.00000000  0.00000000  1
  Sb  Sb0  1  0.54430493  0.73476992  0.17662122  1
  Sb  Sb1  1  0.45569507  0.26523008  0.82337878  1
  Sb  Sb2  1  0.60506338  0.39822140  0.39165384  1
  Sb  Sb3  1  0.39493662  0.60177860  0.60834616  1
loop_
_geom_bond_atom_site_label_1
_geom_bond_atom_site_label_2
_geom_bond_distance
_geom_bond_site_symmetry_2
K0 Sb2 3.664588 1_565
K0 Sb0 3.670033 1_555
K0 Sb0 3.670037 1_655
K0 Sb3 3.673072 1_655
K0 Sb3 3.673080 1_555
K0 Sb2 3.751545 1_555
K0 Sb2 3.751553 1_655
K1 Sb3 3.664588 1_545
K1 Sb1 3.670033 1_555
K1 Sb1 3.670037 1_455
K1 Sb2 3.673072 1_455
K1 Sb2 3.673080 1_555
K1 Sb3 3.751545 1_555
K1 Sb3 3.751553 1_455
K2 Sb0 3.686715 1_455
K2 Sb0 3.686719 1_555
K2 Sb2 3.716261 1_455
K2 Sb2 3.716269 1_555
K2 Sb0 3.764466 1_545
K2 Sb1 3.805709 1_554
K3 Sb1 3.686715 1_655
K3 Sb1 3.686719 1_555
K3 Sb3 3.716261 1_655
K3 Sb3 3.716269 1_555
K3 Sb1 3.764466 1_565
K3 Sb0 3.805709 1_556
K4 Sb1 3.559388 1_554
K4 Sb0 3.559388 1_445
K4 Sb0 3.559392 1_545
K4 Sb1 3.559392 1_454
Sb0 Sb2 2.809711 1_555
Sb1 Sb3 2.809711 1_555
Sb2 Sb3 2.851962 1_555
