# generated using pymatgen
data_Ba2NaLuPb2
_symmetry_space_group_name_H-M   'P 1'
_cell_length_a   11.05748152
_cell_length_b   11.05748129
_cell_length_c   7.36540368
_cell_angle_alpha   90.00000000
_cell_angle_beta   90.00000000
_cell_angle_gamma   97.45491238
_symmetry_Int_Tables_number   1
_chemical_formula_structural   Ba2NaLuPb2
_chemical_formula_sum   'Ba8 Na4 Lu4 Pb8'
_cell_volume   892.94027705
_cell_formula_units_Z   4
loop_
 _symmetry_equiv_pos_site_id
 _symmetry_equiv_pos_as_xyz
  1  'x, y, z'
loop_
 _atom_site_type_symbol
 _atom_site_label
 _atom_site_symmetry_multiplicity
 _atom_site_fract_x
 _atom_site_fract_y
 _atom_site_fract_z
 _atom_site_occupancy
  Ba  Ba0  1  0.07644504  0.42355496  0.25000000  1
  Ba  Ba1  1  0.42355496  0.07644504  0.75000000  1
  Ba  Ba2  1  0.92355496  0.57644504  0.75000000  1
  Ba  Ba3  1  0.57644504  0.92355496  0.25000000  1
  Ba  Ba4  1  0.67131189  0.32868811  0.22004497  1
  Ba  Ba5  1  0.82868811  0.17131189  0.72004497  1
  Ba  Ba6  1  0.32868811  0.67131189  0.77995503  1
  Ba  Ba7  1  0.17131189  0.82868811  0.27995503  1
  Na  Na0  1  0.37915812  0.37915812  0.00000000  1
  Na  Na1  1  0.12084188  0.12084188  0.50000000  1
  Na  Na2  1  0.62084188  0.62084188  0.00000000  1
  Na  Na3  1  0.87915812  0.87915812  0.50000000  1
  Lu  Lu0  1  0.12714698  0.12714698  0.00000000  1
  Lu  Lu1  1  0.37285302  0.37285302  0.50000000  1
  Lu  Lu2  1  0.87285302  0.87285302  0.00000000  1
  Lu  Lu3  1  0.62714698  0.62714698  0.50000000  1
  Pb  Pb0  1  0.85735119  0.64264781  0.25000000  1
  Pb  Pb1  1  0.64264781  0.85735119  0.75000000  1
  Pb  Pb2  1  0.14264781  0.35735119  0.75000000  1
  Pb  Pb3  1  0.35735119  0.14264781  0.25000000  1
  Pb  Pb4  1  0.88834075  0.11165925  0.21905494  1
  Pb  Pb5  1  0.61165925  0.38834075  0.71905494  1
  Pb  Pb6  1  0.11165925  0.88834075  0.78094506  1
  Pb  Pb7  1  0.38834075  0.61165925  0.28094506  1
loop_
_geom_bond_atom_site_label_1
_geom_bond_atom_site_label_2
_geom_bond_distance
_geom_bond_site_symmetry_2
Ba0 Pb0 3.641588 1_455
Ba0 Pb4 3.796163 1_455
Ba0 Pb7 3.796163 1_555
Ba0 Pb2 3.843582 1_555
Ba0 Pb2 3.843582 1_554
Ba1 Pb1 3.641588 1_545
Ba1 Pb5 3.796163 1_555
Ba1 Pb6 3.796163 1_545
Ba1 Pb3 3.843582 1_556
Ba1 Pb3 3.843582 1_555
Ba2 Pb2 3.641588 1_655
Ba2 Pb6 3.796163 1_655
Ba2 Pb5 3.796163 1_555
Ba2 Pb0 3.843582 1_556
Ba2 Pb0 3.843582 1_555
Ba3 Pb3 3.641588 1_565
Ba3 Pb7 3.796163 1_555
Ba3 Pb4 3.796163 1_565
Ba3 Pb1 3.843582 1_554
Ba3 Pb1 3.843582 1_555
Ba4 Pb4 3.607281 1_555
Ba4 Pb0 3.805169 1_555
Ba4 Pb3 3.805183 1_555
Ba4 Pb5 3.806797 1_555
Ba4 Pb5 3.820879 1_554
Ba5 Pb5 3.607281 1_555
Ba5 Pb2 3.805169 1_655
Ba5 Pb1 3.805183 1_545
Ba5 Pb4 3.806797 1_556
Ba5 Pb4 3.820879 1_555
Ba6 Pb6 3.607281 1_555
Ba6 Pb1 3.805169 1_555
Ba6 Pb2 3.805183 1_555
Ba6 Pb7 3.806797 1_555
Ba6 Pb7 3.820879 1_556
Ba7 Pb7 3.607281 1_555
Ba7 Pb3 3.805169 1_565
Ba7 Pb0 3.805183 1_455
Ba7 Pb6 3.806797 1_554
Ba7 Pb6 3.820879 1_555
Na0 Pb3 3.181885 1_555
Na0 Pb2 3.181885 1_554
Na0 Pb7 3.291485 1_555
Na0 Pb5 3.291485 1_554
Na1 Pb2 3.181877 1_555
Na1 Pb3 3.181877 1_555
Na1 Pb6 3.291485 1_545
Na1 Pb4 3.291485 1_455
Na2 Pb1 3.181877 1_554
Na2 Pb0 3.181877 1_555
Na2 Pb5 3.291485 1_554
Na2 Pb7 3.291485 1_555
Na3 Pb0 3.181885 1_555
Na3 Pb1 3.181885 1_555
Na3 Pb4 3.291485 1_565
Na3 Pb6 3.291485 1_655
Lu0 Pb6 3.080240 1_544
Lu0 Pb4 3.080240 1_455
Lu0 Pb2 3.128290 1_554
Lu0 Pb3 3.128290 1_555
Lu1 Pb7 3.080240 1_555
Lu1 Pb5 3.080240 1_555
Lu1 Pb3 3.128298 1_555
Lu1 Pb2 3.128298 1_555
Lu2 Pb4 3.080240 1_565
Lu2 Pb6 3.080240 1_654
Lu2 Pb0 3.128298 1_555
Lu2 Pb1 3.128298 1_554
Lu3 Pb5 3.080240 1_555
Lu3 Pb7 3.080240 1_555
Lu3 Pb1 3.128290 1_555
Lu3 Pb0 3.128290 1_555
