# generated using pymatgen
data_KSc3(CuTe3)2
_symmetry_space_group_name_H-M   'P 1'
_cell_length_a   9.12365350
_cell_length_b   9.12365384
_cell_length_c   10.40136277
_cell_angle_alpha   66.24450471
_cell_angle_beta   66.24451165
_cell_angle_gamma   26.34659326
_symmetry_Int_Tables_number   1
_chemical_formula_structural   KSc3(CuTe3)2
_chemical_formula_sum   'K1 Sc3 Cu2 Te6'
_cell_volume   349.82362068
_cell_formula_units_Z   1
loop_
 _symmetry_equiv_pos_site_id
 _symmetry_equiv_pos_as_xyz
  1  'x, y, z'
loop_
 _atom_site_type_symbol
 _atom_site_label
 _atom_site_symmetry_multiplicity
 _atom_site_fract_x
 _atom_site_fract_y
 _atom_site_fract_z
 _atom_site_occupancy
  K  K0  1  0.00000000  0.00000000  0.00000000  1
  Sc  Sc0  1  0.28568793  0.28568793  0.63803005  1
  Sc  Sc1  1  0.71431207  0.71431207  0.36196995  1
  Sc  Sc2  1  0.00000000  0.00000000  0.50000000  1
  Cu  Cu0  1  0.27286901  0.27286901  0.91737486  1
  Cu  Cu1  1  0.72713099  0.72713099  0.08262514  1
  Te  Te0  1  0.57484005  0.57484005  0.28591469  1
  Te  Te1  1  0.14027273  0.14027273  0.57480673  1
  Te  Te2  1  0.69632719  0.69632719  0.85899457  1
  Te  Te3  1  0.85972727  0.85972727  0.42519327  1
  Te  Te4  1  0.42515995  0.42515995  0.71408531  1
  Te  Te5  1  0.30367281  0.30367281  0.14100543  1
loop_
_geom_bond_atom_site_label_1
_geom_bond_atom_site_label_2
_geom_bond_distance
_geom_bond_site_symmetry_2
K0 Te2 3.795861 1_454
K0 Te5 3.795861 1_545
K0 Te2 3.795861 1_544
K0 Te5 3.795861 1_455
K0 Te3 4.080485 1_445
K0 Te1 4.080485 1_554
Sc0 Te4 2.896277 1_555
Sc0 Te1 2.917760 1_555
Sc0 Te3 2.923178 1_455
Sc0 Te3 2.923179 1_545
Sc0 Te2 3.017782 1_545
Sc0 Te2 3.017783 1_455
Sc1 Te0 2.896277 1_555
Sc1 Te3 2.917760 1_555
Sc1 Te1 2.923178 1_655
Sc1 Te1 2.923179 1_565
Sc1 Te5 3.017782 1_565
Sc1 Te5 3.017783 1_655
Sc2 Te1 2.901945 1_555
Sc2 Te3 2.901945 1_445
Sc2 Te4 2.932562 1_545
Sc2 Te0 2.932562 1_455
Sc2 Te4 2.932563 1_455
Sc2 Te0 2.932563 1_545
Cu0 Te5 2.600667 1_556
Cu0 Cu1 2.604282 1_546
Cu0 Cu1 2.604283 1_456
Cu0 Te4 2.656727 1_555
Cu0 Te2 2.687887 1_455
Cu0 Te2 2.687887 1_545
Cu0 Sc0 2.818976 1_555
Cu1 Te2 2.600667 1_554
Cu1 Te0 2.656727 1_555
Cu1 Te5 2.687887 1_655
Cu1 Te5 2.687887 1_565
Cu1 Sc1 2.818976 1_555
