# generated using pymatgen
data_Zr3NbOs2N
_symmetry_space_group_name_H-M   'P 1'
_cell_length_a   8.70932688
_cell_length_b   8.70933235
_cell_length_c   8.70933541
_cell_angle_alpha   59.99998287
_cell_angle_beta   59.99997838
_cell_angle_gamma   59.99998362
_symmetry_Int_Tables_number   1
_chemical_formula_structural   Zr3NbOs2N
_chemical_formula_sum   'Zr12 Nb4 Os8 N4'
_cell_volume   467.13164849
_cell_formula_units_Z   4
loop_
 _symmetry_equiv_pos_site_id
 _symmetry_equiv_pos_as_xyz
  1  'x, y, z'
loop_
 _atom_site_type_symbol
 _atom_site_label
 _atom_site_symmetry_multiplicity
 _atom_site_fract_x
 _atom_site_fract_y
 _atom_site_fract_z
 _atom_site_occupancy
  Zr  Zr0  1  0.81316142  0.81316247  0.18683768  1
  Zr  Zr1  1  0.18683774  0.18683664  0.81316255  1
  Zr  Zr2  1  0.81316123  0.18683845  0.81316251  1
  Zr  Zr3  1  0.18683716  0.81316239  0.18683749  1
  Zr  Zr4  1  0.18683685  0.81316209  0.81316207  1
  Zr  Zr5  1  0.81316140  0.18683813  0.18683740  1
  Zr  Zr6  1  0.43683610  0.43683710  0.06316410  1
  Zr  Zr7  1  0.06316144  0.06316406  0.43683697  1
  Zr  Zr8  1  0.43683633  0.06316472  0.43683630  1
  Zr  Zr9  1  0.06316064  0.43683721  0.06316381  1
  Zr  Zr10  1  0.06316049  0.43683810  0.43683786  1
  Zr  Zr11  1  0.43683598  0.06316427  0.06316352  1
  Nb  Nb0  1  0.12500130  0.62499857  0.62499970  1
  Nb  Nb1  1  0.62500208  0.12499529  0.62500170  1
  Nb  Nb2  1  0.62500036  0.62500254  0.12499599  1
  Nb  Nb3  1  0.62499934  0.62500218  0.62500175  1
  Os  Os0  1  0.75082570  0.41639176  0.41639139  1
  Os  Os1  1  0.41639341  0.75082676  0.41638990  1
  Os  Os2  1  0.41639399  0.41638883  0.75082722  1
  Os  Os3  1  0.41639549  0.41638987  0.41639025  1
  Os  Os4  1  0.49918118  0.83360606  0.83360669  1
  Os  Os5  1  0.83360594  0.49918286  0.83360599  1
  Os  Os6  1  0.83360657  0.83360431  0.49918328  1
  Os  Os7  1  0.83360670  0.83360483  0.83360564  1
  N  N0  1  0.62499636  0.12500147  0.12500140  1
  N  N1  1  0.12500093  0.62499583  0.12500152  1
  N  N2  1  0.12500107  0.12500153  0.62499608  1
  N  N3  1  0.12500082  0.12500065  0.12500124  1
loop_
_geom_bond_atom_site_label_1
_geom_bond_atom_site_label_2
_geom_bond_distance
_geom_bond_site_symmetry_2
Nb0 Os6 2.668618 1_455
Nb0 Os5 2.668619 1_455
Nb0 Os7 2.668624 1_455
Nb0 Os3 2.668651 1_555
Nb0 Os1 2.668655 1_555
Nb0 Os2 2.668657 1_555
Nb1 Os7 2.668597 1_545
Nb1 Os4 2.668601 1_545
Nb1 Os6 2.668603 1_545
Nb1 Os3 2.668651 1_555
Nb1 Os2 2.668654 1_555
Nb1 Os0 2.668666 1_555
Nb2 Os4 2.668594 1_554
Nb2 Os7 2.668596 1_554
Nb2 Os5 2.668602 1_554
Nb2 Os3 2.668648 1_555
Nb2 Os1 2.668651 1_555
Nb2 Os0 2.668667 1_555
Nb3 Os4 2.668600 1_555
Nb3 Os6 2.668601 1_555
Nb3 Os5 2.668610 1_555
Nb3 Os1 2.668647 1_555
Nb3 Os2 2.668651 1_555
Nb3 Os0 2.668665 1_555
Os0 Zr10 2.909221 1_655
Os0 Zr9 2.909222 1_655
Os0 Zr7 2.909225 1_655
Os0 Os3 2.912675 1_555
Os0 Os1 2.912692 1_555
Os0 Os2 2.912694 1_555
Os0 Zr0 3.180409 1_555
Os0 Zr2 3.180413 1_555
Os0 Zr5 3.180420 1_555
Os1 Zr11 2.909227 1_565
Os1 Zr8 2.909233 1_565
Os1 Zr7 2.909252 1_565
Os1 Os3 2.912711 1_555
Os1 Os2 2.912728 1_555
Os1 Zr0 3.180387 1_555
Os1 Zr4 3.180420 1_555
Os1 Zr3 3.180427 1_555
Os2 Zr11 2.909213 1_556
Os2 Zr6 2.909230 1_556
Os2 Zr9 2.909256 1_556
Os2 Os3 2.912713 1_555
Os2 Zr2 3.180380 1_555
Os2 Zr1 3.180425 1_555
Os2 Zr4 3.180425 1_555
Os3 Zr8 2.909224 1_555
Os3 Zr6 2.909230 1_555
Os3 Zr10 2.909273 1_555
Os3 Zr5 3.180383 1_555
Os3 Zr1 3.180431 1_555
Os3 Zr3 3.180432 1_555
Os4 Zr1 2.909269 1_565
Os4 Zr3 2.909272 1_556
Os4 Zr4 2.909283 1_555
Os4 Os5 2.912608 1_555
Os4 Os7 2.912611 1_555
Os4 Os6 2.912612 1_555
Os4 Zr6 3.180429 1_556
Os4 Zr11 3.180437 1_566
Os4 Zr8 3.180440 1_565
Os5 Zr5 2.909279 1_556
Os5 Zr2 2.909284 1_555
Os5 Zr1 2.909285 1_655
Os5 Os6 2.912593 1_555
Os5 Os7 2.912594 1_555
Os5 Zr9 3.180415 1_656
Os5 Zr10 3.180422 1_655
Os5 Zr6 3.180436 1_556
Os6 Zr3 2.909277 1_655
Os6 Zr0 2.909289 1_555
Os6 Zr5 2.909295 1_565
Os6 Os7 2.912599 1_555
Os6 Zr10 3.180410 1_655
Os6 Zr7 3.180428 1_665
Os6 Zr8 3.180443 1_565
Os7 Zr4 2.909267 1_655
Os7 Zr0 2.909282 1_556
Os7 Zr2 2.909291 1_565
Os7 Zr9 3.180416 1_656
Os7 Zr7 3.180427 1_665
Os7 Zr11 3.180446 1_566
N0 Zr8 2.306682 1_555
N0 Zr11 2.306686 1_555
N0 Zr6 2.306686 1_555
N0 Zr5 2.306709 1_555
N0 Zr2 2.306716 1_554
N0 Zr0 2.306717 1_545
N1 Zr6 2.306679 1_555
N1 Zr10 2.306686 1_555
N1 Zr9 2.306690 1_555
N1 Zr3 2.306720 1_555
N1 Zr0 2.306723 1_455
N1 Zr4 2.306723 1_554
N2 Zr8 2.306682 1_555
N2 Zr10 2.306688 1_555
N2 Zr7 2.306689 1_555
N2 Zr1 2.306717 1_555
N2 Zr4 2.306722 1_545
N2 Zr2 2.306724 1_455
N3 Zr11 2.306684 1_555
N3 Zr7 2.306687 1_555
N3 Zr9 2.306690 1_555
N3 Zr3 2.306714 1_545
N3 Zr1 2.306718 1_554
N3 Zr5 2.306720 1_455
