# generated using pymatgen
data_Mg2Sn2Ir2Pt
_symmetry_space_group_name_H-M   'P 1'
_cell_length_a   7.63314719
_cell_length_b   7.63314692
_cell_length_c   7.63314573
_cell_angle_alpha   34.01495929
_cell_angle_beta   34.01495872
_cell_angle_gamma   34.01496138
_symmetry_Int_Tables_number   1
_chemical_formula_structural   Mg2Sn2Ir2Pt
_chemical_formula_sum   'Mg2 Sn2 Ir2 Pt1'
_cell_volume   124.06293760
_cell_formula_units_Z   1
loop_
 _symmetry_equiv_pos_site_id
 _symmetry_equiv_pos_as_xyz
  1  'x, y, z'
loop_
 _atom_site_type_symbol
 _atom_site_label
 _atom_site_symmetry_multiplicity
 _atom_site_fract_x
 _atom_site_fract_y
 _atom_site_fract_z
 _atom_site_occupancy
  Mg  Mg0  1  0.24483648  0.24483648  0.24483648  1
  Mg  Mg1  1  0.75354285  0.75354285  0.75354285  1
  Sn  Sn0  1  0.00697255  0.00697255  0.00697255  1
  Sn  Sn1  1  0.49561012  0.49561012  0.49561012  1
  Ir  Ir0  1  0.37140178  0.37140178  0.37140178  1
  Ir  Ir1  1  0.62455079  0.62455079  0.62455079  1
  Pt  Pt0  1  0.87808542  0.87808542  0.87808542  1
loop_
_geom_bond_atom_site_label_1
_geom_bond_atom_site_label_2
_geom_bond_distance
_geom_bond_site_symmetry_2
Mg0 Pt0 2.676792 1_445
Mg0 Pt0 2.676792 1_544
Mg0 Pt0 2.676792 1_454
Mg0 Sn1 3.132562 1_554
Mg0 Sn1 3.132563 1_545
Mg0 Sn1 3.132563 1_455
Mg1 Pt0 2.684366 1_555
Mg1 Sn1 3.047554 1_556
Mg1 Sn1 3.047555 1_565
Mg1 Sn1 3.047556 1_655
Mg1 Sn0 3.100400 1_665
Mg1 Sn0 3.100401 1_656
Mg1 Sn0 3.100401 1_566
Ir0 Sn0 2.663762 1_556
Ir0 Sn0 2.663762 1_655
Ir0 Sn0 2.663762 1_565
Ir0 Sn1 2.677163 1_555
Ir0 Mg0 2.727964 1_555
Ir0 Mg1 2.784439 1_455
Ir0 Mg1 2.784440 1_545
Ir0 Mg1 2.784440 1_554
Ir1 Mg0 2.765102 1_655
Ir1 Mg0 2.765102 1_565
Ir1 Mg0 2.765102 1_556
Ir1 Sn1 2.779162 1_555
Ir1 Mg1 2.780270 1_555
Ir1 Sn0 2.786731 1_566
Ir1 Sn0 2.786731 1_656
Ir1 Sn0 2.786731 1_665
Pt0 Sn0 2.778008 1_666
Pt0 Sn1 2.787169 1_655
Pt0 Sn1 2.787169 1_565
Pt0 Sn1 2.787169 1_556
