# generated using pymatgen
data_RbBi(PSe3)2
_symmetry_space_group_name_H-M   'P 1'
_cell_length_a   7.82362113
_cell_length_b   7.07532968
_cell_length_c   10.68183902
_cell_angle_alpha   87.30752422
_cell_angle_beta   90.00000000
_cell_angle_gamma   90.00000000
_symmetry_Int_Tables_number   1
_chemical_formula_structural   RbBi(PSe3)2
_chemical_formula_sum   'Rb2 Bi2 P4 Se12'
_cell_volume   590.63722782
_cell_formula_units_Z   2
loop_
 _symmetry_equiv_pos_site_id
 _symmetry_equiv_pos_as_xyz
  1  'x, y, z'
loop_
 _atom_site_type_symbol
 _atom_site_label
 _atom_site_symmetry_multiplicity
 _atom_site_fract_x
 _atom_site_fract_y
 _atom_site_fract_z
 _atom_site_occupancy
  Rb  Rb0  1  0.67556561  0.20780209  0.99588464  1
  Rb  Rb1  1  0.17556561  0.79219791  0.00411536  1
  Bi  Bi0  1  0.92053109  0.29471855  0.51457436  1
  Bi  Bi1  1  0.42053109  0.70528145  0.48542564  1
  P  P0  1  0.15069050  0.28402462  0.78901871  1
  P  P1  1  0.65069050  0.71597538  0.21098129  1
  P  P2  1  0.87146136  0.81147618  0.32951561  1
  P  P3  1  0.37146136  0.18852382  0.67048439  1
  Se  Se0  1  0.06417599  0.58319672  0.32955535  1
  Se  Se1  1  0.95404543  0.07259384  0.75730673  1
  Se  Se2  1  0.56417599  0.41680328  0.67044465  1
  Se  Se3  1  0.22888166  0.30626526  0.97846363  1
  Se  Se4  1  0.56639945  0.45308433  0.31509716  1
  Se  Se5  1  0.06639945  0.54691567  0.68490284  1
  Se  Se6  1  0.75507385  0.84531739  0.51830569  1
  Se  Se7  1  0.25507385  0.15468261  0.48169431  1
  Se  Se8  1  0.46497707  0.92108376  0.74881239  1
  Se  Se9  1  0.96497707  0.07891624  0.25118761  1
  Se  Se10  1  0.72888166  0.69373474  0.02153637  1
  Se  Se11  1  0.45404543  0.92740616  0.24269327  1
loop_
_geom_bond_atom_site_label_1
_geom_bond_atom_site_label_2
_geom_bond_distance
_geom_bond_site_symmetry_2
Rb0 Se10 3.486882 1_556
Rb0 Se1 3.519324 1_555
Rb0 Se3 3.566597 1_555
Rb0 Se9 3.627926 1_556
Rb0 Se10 3.658502 1_546
Rb0 Se11 3.660395 1_546
Rb0 Se8 3.781283 1_545
Rb0 Se2 3.814165 1_555
Rb0 Se4 3.990460 1_556
Rb1 Se3 3.486882 1_554
Rb1 Se11 3.519324 1_555
Rb1 Se10 3.566597 1_455
Rb1 Se8 3.627926 1_554
Rb1 Se3 3.658502 1_564
Rb1 Se1 3.660395 1_464
Rb1 Se9 3.781283 1_465
Rb1 Se0 3.814165 1_555
Rb1 Se5 3.990460 1_554
Bi0 Se7 2.826337 1_655
Bi0 Se5 2.846347 1_655
Bi0 Se1 2.979700 1_555
Bi0 Se0 2.992645 1_655
Bi0 Se9 3.281977 1_555
Bi0 Se2 3.380279 1_555
Bi0 Se6 3.431558 1_545
Bi1 Se6 2.826337 1_555
Bi1 Se4 2.846347 1_555
Bi1 Se11 2.979700 1_555
Bi1 Se2 2.992645 1_555
Bi1 Se8 3.281977 1_555
Bi1 Se0 3.380279 1_555
Bi1 Se7 3.431558 1_565
P0 Se3 2.126956 1_555
P0 Se1 2.183371 1_455
P0 Se5 2.221974 1_555
P0 P3 2.263501 1_555
P1 Se10 2.126956 1_555
P1 Se11 2.183371 1_555
P1 Se4 2.221974 1_555
P1 P2 2.263501 1_555
P2 Se9 2.160349 1_565
P2 Se0 2.209500 1_655
P2 Se6 2.235758 1_555
P3 Se8 2.160349 1_545
P3 Se2 2.209500 1_555
P3 Se7 2.235758 1_555
