# generated using pymatgen
data_Na2LiGaSb2
_symmetry_space_group_name_H-M   'P 1'
_cell_length_a   9.85963102
_cell_length_b   9.85963033
_cell_length_c   6.23117243
_cell_angle_alpha   90.00000000
_cell_angle_beta   90.00000000
_cell_angle_gamma   97.70747784
_symmetry_Int_Tables_number   1
_chemical_formula_structural   Na2LiGaSb2
_chemical_formula_sum   'Na8 Li4 Ga4 Sb8'
_cell_volume   600.27421487
_cell_formula_units_Z   4
loop_
 _symmetry_equiv_pos_site_id
 _symmetry_equiv_pos_as_xyz
  1  'x, y, z'
loop_
 _atom_site_type_symbol
 _atom_site_label
 _atom_site_symmetry_multiplicity
 _atom_site_fract_x
 _atom_site_fract_y
 _atom_site_fract_z
 _atom_site_occupancy
  Na  Na0  1  0.42241577  0.07758423  0.25000000  1
  Na  Na1  1  0.07758423  0.42241577  0.75000000  1
  Na  Na2  1  0.57758423  0.92241577  0.75000000  1
  Na  Na3  1  0.32747167  0.67252833  0.27803819  1
  Na  Na4  1  0.82747167  0.17252833  0.22196181  1
  Na  Na5  1  0.67252833  0.32747167  0.72196181  1
  Na  Na6  1  0.17252833  0.82747167  0.77803819  1
  Na  Na7  1  0.92241577  0.57758423  0.25000000  1
  Li  Li0  1  0.38120817  0.38120817  0.50000000  1
  Li  Li1  1  0.11879183  0.11879183  0.00000000  1
  Li  Li2  1  0.61879183  0.61879183  0.50000000  1
  Li  Li3  1  0.88120817  0.88120817  0.00000000  1
  Ga  Ga0  1  0.86751542  0.86751542  0.50000000  1
  Ga  Ga1  1  0.13248458  0.13248458  0.50000000  1
  Ga  Ga2  1  0.63248458  0.63248458  0.00000000  1
  Ga  Ga3  1  0.36751542  0.36751542  0.00000000  1
  Sb  Sb0  1  0.10955205  0.89044795  0.28188576  1
  Sb  Sb1  1  0.60955205  0.39044795  0.21811424  1
  Sb  Sb2  1  0.89044795  0.10955205  0.71811424  1
  Sb  Sb3  1  0.39044795  0.60955205  0.78188576  1
  Sb  Sb4  1  0.13912543  0.36087457  0.25000000  1
  Sb  Sb5  1  0.36087457  0.13912543  0.75000000  1
  Sb  Sb6  1  0.86087457  0.63912543  0.75000000  1
  Sb  Sb7  1  0.63912543  0.86087457  0.25000000  1
loop_
_geom_bond_atom_site_label_1
_geom_bond_atom_site_label_2
_geom_bond_distance
_geom_bond_site_symmetry_2
Na0 Sb7 3.217974 1_545
Na0 Sb5 3.246842 1_554
Na0 Sb5 3.246842 1_555
Na0 Sb1 3.381226 1_555
Na0 Sb0 3.381226 1_545
Na1 Sb6 3.217974 1_455
Na1 Sb4 3.246842 1_556
Na1 Sb4 3.246842 1_555
Na1 Sb2 3.381226 1_455
Na1 Sb3 3.381226 1_555
Na2 Sb5 3.217974 1_565
Na2 Sb7 3.246842 1_556
Na2 Sb7 3.246842 1_555
Na2 Sb3 3.381226 1_555
Na2 Sb2 3.381226 1_565
Na3 Sb3 3.229948 1_554
Na3 Sb0 3.236030 1_555
Na3 Sb3 3.275874 1_555
Na3 Sb4 3.374984 1_555
Na3 Sb7 3.374984 1_555
Na4 Sb2 3.229948 1_555
Na4 Sb1 3.236030 1_555
Na4 Sb2 3.275874 1_554
Na4 Sb7 3.374984 1_545
Na4 Sb4 3.374984 1_655
Na5 Sb1 3.229948 1_556
Na5 Sb2 3.236030 1_555
Na5 Sb1 3.275874 1_555
Na5 Sb6 3.374984 1_555
Na5 Sb5 3.374984 1_555
Na6 Sb0 3.229948 1_555
Na6 Sb3 3.236030 1_555
Na6 Sb0 3.275874 1_556
Na6 Sb5 3.374984 1_565
Na6 Sb6 3.374984 1_455
Na7 Sb4 3.217974 1_655
Na7 Sb6 3.246842 1_555
Na7 Sb6 3.246842 1_554
Na7 Sb0 3.381226 1_655
Na7 Sb1 3.381226 1_555
Li0 Sb5 2.834712 1_555
Li0 Sb4 2.834712 1_555
Li0 Sb3 2.847322 1_555
Li0 Sb1 2.847322 1_555
Li1 Sb4 2.834712 1_555
Li1 Sb5 2.834712 1_554
Li1 Sb0 2.847322 1_545
Li1 Sb2 2.847322 1_454
Li2 Sb7 2.834712 1_555
Li2 Sb6 2.834712 1_555
Li2 Sb1 2.847322 1_555
Li2 Sb3 2.847322 1_555
Li3 Sb6 2.834712 1_554
Li3 Sb7 2.834712 1_555
Li3 Sb2 2.847322 1_564
Li3 Sb0 2.847322 1_655
Ga0 Sb2 2.729181 1_565
Ga0 Sb0 2.729181 1_655
Ga0 Sb6 2.731711 1_555
Ga0 Sb7 2.731711 1_555
Ga0 Li3 3.120648 1_556
Ga0 Li3 3.120648 1_555
Ga0 Li2 3.227176 1_555
Ga0 Na7 3.362506 1_555
Ga0 Na2 3.362506 1_555
Ga0 Na4 3.538343 1_565
Ga0 Na6 3.538343 1_655
Ga1 Sb0 2.729181 1_545
Ga1 Sb2 2.729181 1_455
Ga1 Sb4 2.731711 1_555
Ga1 Sb5 2.731711 1_555
Ga1 Li1 3.120648 1_556
Ga1 Li1 3.120648 1_555
Ga1 Li0 3.227176 1_555
Ga1 Na1 3.362506 1_555
Ga1 Na0 3.362506 1_555
Ga1 Na6 3.538343 1_545
Ga1 Na4 3.538343 1_455
Ga2 Sb1 2.729181 1_555
Ga2 Sb3 2.729181 1_554
Ga2 Sb7 2.731711 1_555
Ga2 Sb6 2.731711 1_554
Ga2 Li2 3.120648 1_554
Ga2 Li2 3.120648 1_555
Ga2 Li3 3.227176 1_555
Ga2 Na2 3.362506 1_554
Ga2 Na7 3.362506 1_555
Ga2 Na5 3.538343 1_554
Ga2 Na3 3.538343 1_555
Ga3 Sb3 2.729181 1_554
Ga3 Sb1 2.729181 1_555
Ga3 Sb5 2.731711 1_554
Ga3 Sb4 2.731711 1_555
Ga3 Li0 3.120648 1_554
Ga3 Li0 3.120648 1_555
Ga3 Li1 3.227176 1_555
Ga3 Na0 3.362506 1_555
Ga3 Na1 3.362506 1_554
Ga3 Na3 3.538343 1_555
Ga3 Na5 3.538343 1_554
