# generated using pymatgen
data_Rb3Li2VAs3
_symmetry_space_group_name_H-M   'P 1'
_cell_length_a   10.14020973
_cell_length_b   10.14020927
_cell_length_c   15.63377624
_cell_angle_alpha   90.00000000
_cell_angle_beta   90.00000000
_cell_angle_gamma   142.86195741
_symmetry_Int_Tables_number   1
_chemical_formula_structural   Rb3Li2VAs3
_chemical_formula_sum   'Rb12 Li8 V4 As12'
_cell_volume   970.52303027
_cell_formula_units_Z   4
loop_
 _symmetry_equiv_pos_site_id
 _symmetry_equiv_pos_as_xyz
  1  'x, y, z'
loop_
 _atom_site_type_symbol
 _atom_site_label
 _atom_site_symmetry_multiplicity
 _atom_site_fract_x
 _atom_site_fract_y
 _atom_site_fract_z
 _atom_site_occupancy
  Rb  Rb0  1  0.94614131  0.60610785  0.82933113  1
  Rb  Rb1  1  0.55385869  0.89389215  0.32933113  1
  Rb  Rb2  1  0.39389215  0.05385869  0.17066887  1
  Rb  Rb3  1  0.05385869  0.39389215  0.17066887  1
  Rb  Rb4  1  0.89389215  0.55385869  0.32933113  1
  Rb  Rb5  1  0.44614131  0.10610785  0.67066887  1
  Rb  Rb6  1  0.60610785  0.94614131  0.82933113  1
  Rb  Rb7  1  0.28554913  0.28554913  0.31834317  1
  Rb  Rb8  1  0.78554913  0.78554913  0.18165683  1
  Rb  Rb9  1  0.21445087  0.21445087  0.81834317  1
  Rb  Rb10  1  0.71445087  0.71445087  0.68165683  1
  Rb  Rb11  1  0.10610785  0.44614131  0.67066887  1
  Li  Li0  1  0.91744129  0.08255871  0.00000000  1
  Li  Li1  1  0.58255871  0.41744129  0.50000000  1
  Li  Li2  1  0.08255871  0.91744129  0.00000000  1
  Li  Li3  1  0.41744129  0.58255871  0.50000000  1
  Li  Li4  1  0.75035090  0.24964910  0.00000000  1
  Li  Li5  1  0.74964910  0.25035090  0.50000000  1
  Li  Li6  1  0.24964910  0.75035090  0.00000000  1
  Li  Li7  1  0.25035090  0.74964910  0.50000000  1
  V  V0  1  0.58339279  0.41660721  0.00000000  1
  V  V1  1  0.91660721  0.08339279  0.50000000  1
  V  V2  1  0.41660721  0.58339279  0.00000000  1
  V  V3  1  0.08339279  0.91660721  0.50000000  1
  As  As0  1  0.88026842  0.56370162  0.08420057  1
  As  As1  1  0.43629838  0.11973158  0.91579943  1
  As  As2  1  0.61973158  0.93629838  0.58420057  1
  As  As3  1  0.93629838  0.61973158  0.58420057  1
  As  As4  1  0.11973158  0.43629838  0.91579943  1
  As  As5  1  0.56370162  0.88026842  0.08420057  1
  As  As6  1  0.38026842  0.06370162  0.41579943  1
  As  As7  1  0.21423689  0.21423689  0.58096160  1
  As  As8  1  0.71423689  0.71423689  0.91903840  1
  As  As9  1  0.28576311  0.28576311  0.08096160  1
  As  As10  1  0.06370162  0.38026842  0.41579943  1
  As  As11  1  0.78576311  0.78576311  0.41903840  1
loop_
_geom_bond_atom_site_label_1
_geom_bond_atom_site_label_2
_geom_bond_distance
_geom_bond_site_symmetry_2
As0 V0 2.420951 1_555
As0 Li4 2.630762 1_555
As0 Li2 2.660057 1_655
As0 Li6 2.835807 1_655
As0 Rb8 3.427739 1_555
As0 Rb2 3.496687 1_555
As0 Rb2 3.519163 1_665
As0 Rb3 3.566975 1_655
As0 Rb4 3.838968 1_555
As1 V0 2.420950 1_556
As1 Li4 2.630762 1_556
As1 Li2 2.660057 1_546
As1 Li6 2.835807 1_546
As1 Rb9 3.427739 1_555
As1 Rb0 3.496687 1_555
As1 Rb0 3.519163 1_445
As1 Rb6 3.566975 1_545
As1 Rb5 3.838968 1_555
As2 V1 2.420951 1_565
As2 Li5 2.630762 1_565
As2 Li3 2.660057 1_555
As2 Li7 2.835807 1_555
As2 Rb10 3.427739 1_555
As2 Rb11 3.496687 1_665
As2 Rb11 3.519163 1_555
As2 Rb5 3.566975 1_565
As2 Rb6 3.838968 1_555
As3 V3 2.420950 1_655
As3 Li7 2.630762 1_655
As3 Li1 2.660057 1_555
As3 Li5 2.835807 1_555
As3 Rb10 3.427739 1_555
As3 Rb5 3.496687 1_665
As3 Rb5 3.519163 1_555
As3 Rb11 3.566975 1_655
As3 Rb0 3.838968 1_555
As4 V2 2.420951 1_556
As4 Li6 2.630762 1_556
As4 Li0 2.660057 1_456
As4 Li4 2.835807 1_456
As4 Rb9 3.427739 1_555
As4 Rb6 3.496687 1_555
As4 Rb6 3.519163 1_445
As4 Rb0 3.566975 1_455
As4 Rb11 3.838968 1_555
As5 V2 2.420950 1_555
As5 Li6 2.630762 1_555
As5 Li0 2.660057 1_565
As5 Li4 2.835807 1_565
As5 Rb8 3.427739 1_555
As5 Rb3 3.496687 1_555
As5 Rb3 3.519163 1_665
As5 Rb2 3.566975 1_565
As5 Rb1 3.838968 1_555
As6 V3 2.420951 1_545
As6 Li7 2.630762 1_545
As6 Li1 2.660057 1_555
As6 Li5 2.835807 1_555
As6 Rb7 3.427739 1_555
As6 Rb4 3.496687 1_445
As6 Rb4 3.519163 1_555
As6 Rb1 3.566975 1_545
As6 Rb2 3.838968 1_555
As7 V3 2.467114 1_545
As7 V1 2.467114 1_455
As7 Li3 2.743562 1_555
As7 Li1 2.743562 1_555
As7 Rb11 3.579079 1_555
As7 Rb5 3.579079 1_555
As7 Rb10 3.591174 1_445
As7 Rb10 3.593658 1_555
As7 Rb9 3.711171 1_555
As8 V0 2.467114 1_556
As8 V2 2.467114 1_556
As8 Li0 2.743562 1_566
As8 Li2 2.743562 1_656
As8 Rb6 3.579079 1_555
As8 Rb0 3.579079 1_555
As8 Rb9 3.591174 1_555
As8 Rb9 3.593658 1_665
As8 Rb10 3.711171 1_555
As9 V2 2.467114 1_555
As9 V0 2.467114 1_555
As9 Li2 2.743562 1_545
As9 Li0 2.743562 1_455
As9 Rb2 3.579079 1_555
As9 Rb3 3.579079 1_555
As9 Rb8 3.591174 1_555
As9 Rb8 3.593658 1_445
As9 Rb7 3.711171 1_555
As10 V1 2.420950 1_455
As10 Li5 2.630762 1_455
As10 Li3 2.660057 1_555
As10 Li7 2.835807 1_555
As10 Rb7 3.427739 1_555
As10 Rb1 3.496687 1_445
As10 Rb1 3.519163 1_555
As10 Rb4 3.566975 1_455
As10 Rb3 3.838968 1_555
As11 V1 2.467114 1_565
As11 V3 2.467114 1_655
As11 Li1 2.743562 1_555
As11 Li3 2.743562 1_555
As11 Rb4 3.579079 1_555
As11 Rb1 3.579079 1_555
As11 Rb7 3.591174 1_665
As11 Rb7 3.593658 1_555
As11 Rb8 3.711171 1_555
