# generated using pymatgen
data_NaVSe2
_symmetry_space_group_name_H-M   'P 1'
_cell_length_a   7.11058829
_cell_length_b   7.11058829
_cell_length_c   7.11058934
_cell_angle_alpha   30.68746739
_cell_angle_beta   30.68746739
_cell_angle_gamma   30.68746791
_symmetry_Int_Tables_number   1
_chemical_formula_structural   NaVSe2
_chemical_formula_sum   'Na1 V1 Se2'
_cell_volume   83.03004843
_cell_formula_units_Z   1
loop_
 _symmetry_equiv_pos_site_id
 _symmetry_equiv_pos_as_xyz
  1  'x, y, z'
loop_
 _atom_site_type_symbol
 _atom_site_label
 _atom_site_symmetry_multiplicity
 _atom_site_fract_x
 _atom_site_fract_y
 _atom_site_fract_z
 _atom_site_occupancy
  Na  Na0  1  0.50000000  0.50000000  0.50000000  1
  V  V0  1  0.00000000  0.00000000  -0.00000000  1
  Se  Se0  1  0.73611310  0.73611310  0.73611310  1
  Se  Se1  1  0.26388690  0.26388690  0.26388690  1
loop_
_geom_bond_atom_site_label_1
_geom_bond_atom_site_label_2
_geom_bond_distance
_geom_bond_site_symmetry_2
Na0 Se1 2.935922 1_655
Na0 Se1 2.935922 1_565
Na0 Se0 2.935922 1_545
Na0 Se0 2.935922 1_455
Na0 Se1 2.935923 1_556
Na0 Se0 2.935923 1_554
Se0 V0 2.590348 1_566
Se0 V0 2.590348 1_656
Se0 V0 2.590348 1_665
Se1 V0 2.590348 1_565
Se1 V0 2.590348 1_655
Se1 V0 2.590348 1_556
