# generated using pymatgen
data_Y2MgBe2Rh5
_symmetry_space_group_name_H-M   'P 1'
_cell_length_a   9.67848181
_cell_length_b   9.67848181
_cell_length_c   3.21687705
_cell_angle_alpha   90.00000000
_cell_angle_beta   90.00000000
_cell_angle_gamma   90.00000000
_symmetry_Int_Tables_number   1
_chemical_formula_structural   Y2MgBe2Rh5
_chemical_formula_sum   'Y4 Mg2 Be4 Rh10'
_cell_volume   301.33455596
_cell_formula_units_Z   2
loop_
 _symmetry_equiv_pos_site_id
 _symmetry_equiv_pos_as_xyz
  1  'x, y, z'
loop_
 _atom_site_type_symbol
 _atom_site_label
 _atom_site_symmetry_multiplicity
 _atom_site_fract_x
 _atom_site_fract_y
 _atom_site_fract_z
 _atom_site_occupancy
  Y  Y0  1  0.67658389  0.17658389  0.00000000  1
  Y  Y1  1  0.32341611  0.82341611  0.00000000  1
  Y  Y2  1  0.17658389  0.32341611  0.00000000  1
  Y  Y3  1  0.82341611  0.67658389  0.00000000  1
  Mg  Mg0  1  0.00000000  0.00000000  0.00000000  1
  Mg  Mg1  1  0.50000000  0.50000000  0.00000000  1
  Be  Be0  1  0.12176227  0.62176227  0.00000000  1
  Be  Be1  1  0.87823773  0.37823773  0.00000000  1
  Be  Be2  1  0.62176227  0.87823773  0.00000000  1
  Be  Be3  1  0.37823773  0.12176227  0.00000000  1
  Rh  Rh0  1  0.50000000  0.00000000  0.50000000  1
  Rh  Rh1  1  0.00000000  0.50000000  0.50000000  1
  Rh  Rh2  1  0.21612848  0.06881342  0.50000000  1
  Rh  Rh3  1  0.78387152  0.93118658  0.50000000  1
  Rh  Rh4  1  0.06881342  0.78387152  0.50000000  1
  Rh  Rh5  1  0.71612848  0.43118658  0.50000000  1
  Rh  Rh6  1  0.93118658  0.21612848  0.50000000  1
  Rh  Rh7  1  0.28387152  0.56881342  0.50000000  1
  Rh  Rh8  1  0.56881342  0.71612848  0.50000000  1
  Rh  Rh9  1  0.43118658  0.28387152  0.50000000  1
loop_
_geom_bond_atom_site_label_1
_geom_bond_atom_site_label_2
_geom_bond_distance
_geom_bond_site_symmetry_2
Mg0 Rh2 2.721443 1_555
Mg0 Rh2 2.721443 1_554
Mg0 Rh6 2.721443 1_455
Mg0 Rh6 2.721443 1_454
Mg0 Rh4 2.721443 1_544
Mg0 Rh4 2.721443 1_545
Mg0 Rh3 2.721443 1_444
Mg0 Rh3 2.721443 1_445
Mg1 Rh8 2.721443 1_555
Mg1 Rh8 2.721443 1_554
Mg1 Rh5 2.721443 1_554
Mg1 Rh5 2.721443 1_555
Mg1 Rh7 2.721443 1_555
Mg1 Rh7 2.721443 1_554
Mg1 Rh9 2.721443 1_555
Mg1 Rh9 2.721443 1_554
Be0 Rh7 2.304640 1_555
Be0 Rh7 2.304640 1_554
Be0 Rh4 2.304640 1_555
Be0 Rh4 2.304640 1_554
Be0 Rh1 2.316177 1_554
Be0 Rh1 2.316177 1_555
Be0 Y1 2.760125 1_555
Be0 Y3 2.935882 1_455
Be0 Y2 2.935882 1_555
Be1 Rh6 2.304640 1_554
Be1 Rh6 2.304640 1_555
Be1 Rh5 2.304640 1_554
Be1 Rh5 2.304640 1_555
Be1 Rh1 2.316177 1_654
Be1 Rh1 2.316177 1_655
Be1 Y0 2.760125 1_555
Be1 Y2 2.935882 1_655
Be1 Y3 2.935882 1_555
Be2 Rh3 2.304640 1_554
Be2 Rh8 2.304640 1_555
Be2 Rh8 2.304640 1_554
Be2 Rh3 2.304640 1_555
Be2 Rh0 2.316177 1_565
Be2 Rh0 2.316177 1_564
Be2 Y3 2.760125 1_555
Be2 Y1 2.935882 1_555
Be2 Y0 2.935882 1_565
Be3 Rh9 2.304640 1_555
Be3 Rh9 2.304640 1_554
Be3 Rh2 2.304640 1_555
Be3 Rh2 2.304640 1_554
Be3 Rh0 2.316177 1_554
Be3 Rh0 2.316177 1_555
Be3 Y2 2.760125 1_555
Be3 Y1 2.935882 1_545
Be3 Y0 2.935882 1_555
Rh0 Y1 2.903252 1_545
Rh0 Y1 2.903252 1_546
Rh0 Y0 2.903252 1_555
Rh0 Y0 2.903252 1_556
Rh1 Y3 2.903252 1_456
Rh1 Y3 2.903252 1_455
Rh1 Y2 2.903252 1_556
Rh1 Y2 2.903252 1_555
Rh2 Y2 2.967437 1_556
Rh2 Y2 2.967437 1_555
Rh2 Y1 3.050620 1_545
Rh2 Y1 3.050620 1_546
Rh3 Y3 2.967437 1_555
Rh3 Y3 2.967437 1_556
Rh3 Y0 3.050620 1_565
Rh3 Y0 3.050620 1_566
Rh4 Y1 2.967437 1_555
Rh4 Y1 2.967437 1_556
Rh4 Y3 3.050620 1_456
Rh4 Y3 3.050620 1_455
Rh5 Y0 2.967437 1_556
Rh5 Y0 2.967437 1_555
Rh5 Y3 3.050620 1_555
Rh5 Y3 3.050620 1_556
Rh6 Y0 2.967437 1_556
Rh6 Y0 2.967437 1_555
Rh6 Y2 3.050620 1_655
Rh6 Y2 3.050620 1_656
Rh7 Y1 2.967437 1_556
Rh7 Y1 2.967437 1_555
Rh7 Y2 3.050620 1_556
Rh7 Y2 3.050620 1_555
Rh8 Y3 2.967437 1_556
Rh8 Y3 2.967437 1_555
Rh8 Y1 3.050620 1_556
Rh8 Y1 3.050620 1_555
Rh9 Y2 2.967437 1_556
Rh9 Y2 2.967437 1_555
Rh9 Y0 3.050620 1_555
Rh9 Y0 3.050620 1_556
