# generated using pymatgen
data_Re2Bi2NO7
_symmetry_space_group_name_H-M   'P 1'
_cell_length_a   7.76552172
_cell_length_b   7.76552142
_cell_length_c   5.59162692
_cell_angle_alpha   90.17553900
_cell_angle_beta   89.82446065
_cell_angle_gamma   151.40105129
_symmetry_Int_Tables_number   1
_chemical_formula_structural   Re2Bi2NO7
_chemical_formula_sum   'Re2 Bi2 N1 O7'
_cell_volume   161.40563826
_cell_formula_units_Z   1
loop_
 _symmetry_equiv_pos_site_id
 _symmetry_equiv_pos_as_xyz
  1  'x, y, z'
loop_
 _atom_site_type_symbol
 _atom_site_label
 _atom_site_symmetry_multiplicity
 _atom_site_fract_x
 _atom_site_fract_y
 _atom_site_fract_z
 _atom_site_occupancy
  Re  Re0  1  0.08019587  0.91980413  0.75642371  1
  Re  Re1  1  0.91980413  0.08019587  0.24357629  1
  Bi  Bi0  1  0.30899291  0.69100709  0.74243709  1
  Bi  Bi1  1  0.69100709  0.30899291  0.25756291  1
  N  N0  1  0.00000000  0.00000000  0.00000000  1
  O  O0  1  0.18643360  0.81356640  0.97422222  1
  O  O1  1  0.81356640  0.18643360  0.02577778  1
  O  O2  1  0.81228202  0.18771798  0.49234045  1
  O  O3  1  0.18771798  0.81228202  0.50765955  1
  O  O4  1  0.00000000  0.00000000  0.50000000  1
  O  O5  1  0.58795130  0.41204870  0.74541876  1
  O  O6  1  0.41204870  0.58795130  0.25458124  1
loop_
_geom_bond_atom_site_label_1
_geom_bond_atom_site_label_2
_geom_bond_distance
_geom_bond_site_symmetry_2
Bi0 O0 2.250961 1_555
Bi0 O3 2.251624 1_555
Bi0 O2 2.374114 1_565
Bi0 O2 2.374114 1_455
Bi0 O1 2.488834 1_456
Bi0 O1 2.488835 1_566
Bi1 O1 2.250961 1_555
Bi1 O2 2.251624 1_555
Bi1 O3 2.374114 1_545
Bi1 O3 2.374114 1_655
Bi1 O0 2.488834 1_654
Bi1 O0 2.488835 1_544
N0 Re0 1.816951 1_544
N0 Re1 1.816951 1_455
O0 Re0 2.012916 1_555
O1 Re1 2.012916 1_555
O2 Re1 2.130537 1_555
O3 Re0 2.130537 1_555
O4 Re0 1.877097 1_545
O4 Re1 1.877097 1_455
O5 Re0 1.922528 1_655
O5 Re0 1.922528 1_545
O6 Re1 1.922528 1_455
O6 Re1 1.922528 1_565
