# generated using pymatgen
data_LiPt7
_symmetry_space_group_name_H-M   'P 1'
_cell_length_a   5.51558840
_cell_length_b   5.51559028
_cell_length_c   5.51559167
_cell_angle_alpha   59.99997230
_cell_angle_beta   59.99993468
_cell_angle_gamma   59.99995028
_symmetry_Int_Tables_number   1
_chemical_formula_structural   LiPt7
_chemical_formula_sum   'Li1 Pt7'
_cell_volume   118.64801804
_cell_formula_units_Z   1
loop_
 _symmetry_equiv_pos_site_id
 _symmetry_equiv_pos_as_xyz
  1  'x, y, z'
loop_
 _atom_site_type_symbol
 _atom_site_label
 _atom_site_symmetry_multiplicity
 _atom_site_fract_x
 _atom_site_fract_y
 _atom_site_fract_z
 _atom_site_occupancy
  Li  Li0  1  0.50000000  0.50000000  0.50000000  1
  Pt  Pt0  1  0.00000000  -0.00000000  0.00000000  1
  Pt  Pt1  1  0.50000000  -0.00000000  0.00000000  1
  Pt  Pt2  1  0.00000000  -0.00000000  0.50000000  1
  Pt  Pt3  1  0.50000000  0.50000000  -0.00000000  1
  Pt  Pt4  1  0.00000000  0.50000000  0.50000000  1
  Pt  Pt5  1  -0.00000000  0.50000000  0.00000000  1
  Pt  Pt6  1  0.50000000  0.00000000  0.50000000  1
loop_
_geom_bond_atom_site_label_1
_geom_bond_atom_site_label_2
_geom_bond_distance
_geom_bond_site_symmetry_2
Li0 Pt5 2.757792 1_655
Li0 Pt5 2.757792 1_556
Li0 Pt2 2.757793 1_655
Li0 Pt2 2.757793 1_565
Li0 Pt4 2.757794 1_555
Li0 Pt4 2.757794 1_655
Li0 Pt1 2.757794 1_556
Li0 Pt1 2.757794 1_565
Li0 Pt6 2.757795 1_555
Li0 Pt6 2.757795 1_565
Li0 Pt3 2.757796 1_556
Li0 Pt3 2.757796 1_555
Pt0 Pt6 2.757792 1_455
Pt0 Pt6 2.757792 1_554
Pt0 Pt3 2.757793 1_455
Pt0 Pt3 2.757793 1_545
Pt0 Pt1 2.757794 1_555
Pt0 Pt1 2.757794 1_455
Pt0 Pt4 2.757794 1_554
Pt0 Pt4 2.757794 1_545
Pt0 Pt5 2.757795 1_545
Pt0 Pt5 2.757795 1_555
Pt0 Pt2 2.757796 1_555
Pt0 Pt2 2.757796 1_554
Pt1 Pt2 2.757792 1_555
Pt1 Pt2 2.757792 1_654
Pt1 Pt5 2.757793 1_645
Pt1 Pt5 2.757793 1_555
Pt1 Pt3 2.757795 1_555
Pt1 Pt3 2.757795 1_545
Pt1 Pt6 2.757796 1_555
Pt1 Pt6 2.757796 1_554
Pt2 Pt6 2.757794 1_455
Pt2 Pt6 2.757794 1_555
Pt2 Pt5 2.757794 1_546
Pt2 Pt5 2.757794 1_555
Pt2 Pt4 2.757795 1_555
Pt2 Pt4 2.757795 1_545
Pt3 Pt4 2.757792 1_654
Pt3 Pt4 2.757792 1_555
Pt3 Pt5 2.757794 1_555
Pt3 Pt5 2.757794 1_655
Pt3 Pt6 2.757794 1_555
Pt3 Pt6 2.757794 1_564
Pt4 Pt6 2.757793 1_555
Pt4 Pt6 2.757793 1_465
Pt4 Pt5 2.757796 1_556
Pt4 Pt5 2.757796 1_555
