# generated using pymatgen
data_Sc2CoNiH8
_symmetry_space_group_name_H-M   'P 1'
_cell_length_a   5.82342321
_cell_length_b   5.82342233
_cell_length_c   4.50403959
_cell_angle_alpha   90.00000000
_cell_angle_beta   90.00000000
_cell_angle_gamma   146.17030488
_symmetry_Int_Tables_number   1
_chemical_formula_structural   Sc2CoNiH8
_chemical_formula_sum   'Sc2 Co1 Ni1 H8'
_cell_volume   85.03554835
_cell_formula_units_Z   1
loop_
 _symmetry_equiv_pos_site_id
 _symmetry_equiv_pos_as_xyz
  1  'x, y, z'
loop_
 _atom_site_type_symbol
 _atom_site_label
 _atom_site_symmetry_multiplicity
 _atom_site_fract_x
 _atom_site_fract_y
 _atom_site_fract_z
 _atom_site_occupancy
  Sc  Sc0  1  0.86335402  0.13664598  0.75000000  1
  Sc  Sc1  1  0.13333905  0.86666095  0.25000000  1
  Co  Co0  1  0.40200047  0.59799953  0.25000000  1
  Ni  Ni0  1  0.60039332  0.39960668  0.75000000  1
  H  H0  1  0.09163958  0.90836042  0.75000000  1
  H  H1  1  0.90870176  0.09129824  0.25000000  1
  H  H2  1  0.69408195  0.30591805  0.48361758  1
  H  H3  1  0.30578368  0.69421632  0.50474390  1
  H  H4  1  0.69408195  0.30591805  0.01638242  1
  H  H5  1  0.30578368  0.69421632  0.99525610  1
  H  H6  1  0.50042127  0.49957873  0.00264170  1
  H  H7  1  0.50042127  0.49957873  0.49735830  1
loop_
_geom_bond_atom_site_label_1
_geom_bond_atom_site_label_2
_geom_bond_distance
_geom_bond_site_symmetry_2
Co0 H7 1.563329 1_555
Co0 H6 1.563329 1_555
Co0 H3 1.570338 1_555
Co0 H5 1.570338 1_554
Co0 H1 1.695970 1_455
Co0 H1 1.695970 1_565
H0 Ni0 1.697131 1_455
H0 Ni0 1.697131 1_565
H0 Sc1 2.299456 1_555
H0 Sc1 2.299456 1_556
H0 Sc0 2.543782 1_465
H1 Sc0 2.308014 1_554
H1 Sc0 2.308014 1_555
H1 Sc1 2.503129 1_645
H2 Ni0 1.590405 1_555
H2 Sc1 2.106193 1_655
H2 Sc1 2.106193 1_545
H2 Sc0 2.235452 1_555
H3 Sc0 2.121911 1_455
H3 Sc0 2.121911 1_565
H3 Sc1 2.238039 1_555
H4 Ni0 1.590405 1_554
H4 Sc1 2.106193 1_655
H4 Sc1 2.106193 1_545
H4 Sc0 2.235452 1_554
H5 Sc0 2.121911 1_455
H5 Sc0 2.121911 1_565
H5 Sc1 2.238039 1_556
H6 Ni0 1.592420 1_554
H6 Sc1 2.511104 1_545
H6 Sc1 2.511104 1_655
H6 Sc0 2.549183 1_564
H6 Sc0 2.549184 1_454
H7 Ni0 1.592420 1_555
H7 Sc1 2.511104 1_545
H7 Sc1 2.511104 1_655
H7 Sc0 2.549183 1_565
H7 Sc0 2.549184 1_455
