# generated using pymatgen
data_Y2InB2Rh5
_symmetry_space_group_name_H-M   'P 1'
_cell_length_a   9.61557224
_cell_length_b   9.61557224
_cell_length_c   3.21120186
_cell_angle_alpha   90.00000000
_cell_angle_beta   90.00000000
_cell_angle_gamma   90.00000000
_symmetry_Int_Tables_number   1
_chemical_formula_structural   Y2InB2Rh5
_chemical_formula_sum   'Y4 In2 B4 Rh10'
_cell_volume   296.90524993
_cell_formula_units_Z   2
loop_
 _symmetry_equiv_pos_site_id
 _symmetry_equiv_pos_as_xyz
  1  'x, y, z'
loop_
 _atom_site_type_symbol
 _atom_site_label
 _atom_site_symmetry_multiplicity
 _atom_site_fract_x
 _atom_site_fract_y
 _atom_site_fract_z
 _atom_site_occupancy
  Y  Y0  1  0.67565031  0.17565031  0.00000000  1
  Y  Y1  1  0.32434969  0.82434969  0.00000000  1
  Y  Y2  1  0.17565031  0.32434969  0.00000000  1
  Y  Y3  1  0.82434969  0.67565031  0.00000000  1
  In  In0  1  0.00000000  0.00000000  0.00000000  1
  In  In1  1  0.50000000  0.50000000  0.00000000  1
  B  B0  1  0.12105763  0.62105763  0.00000000  1
  B  B1  1  0.87894237  0.37894237  0.00000000  1
  B  B2  1  0.62105763  0.87894237  0.00000000  1
  B  B3  1  0.37894237  0.12105763  0.00000000  1
  Rh  Rh0  1  0.50000000  0.00000000  0.50000000  1
  Rh  Rh1  1  0.00000000  0.50000000  0.50000000  1
  Rh  Rh2  1  0.22690940  0.07061186  0.50000000  1
  Rh  Rh3  1  0.77309060  0.92938814  0.50000000  1
  Rh  Rh4  1  0.07061186  0.77309060  0.50000000  1
  Rh  Rh5  1  0.72690940  0.42938814  0.50000000  1
  Rh  Rh6  1  0.92938814  0.22690940  0.50000000  1
  Rh  Rh7  1  0.27309060  0.57061186  0.50000000  1
  Rh  Rh8  1  0.57061186  0.72690940  0.50000000  1
  Rh  Rh9  1  0.42938814  0.27309060  0.50000000  1
loop_
_geom_bond_atom_site_label_1
_geom_bond_atom_site_label_2
_geom_bond_distance
_geom_bond_site_symmetry_2
In0 Rh2 2.792756 1_554
In0 Rh2 2.792756 1_555
In0 Rh6 2.792756 1_455
In0 Rh6 2.792756 1_454
In0 Rh4 2.792756 1_544
In0 Rh4 2.792756 1_545
In0 Rh3 2.792756 1_445
In0 Rh3 2.792756 1_444
In1 Rh8 2.792756 1_555
In1 Rh8 2.792756 1_554
In1 Rh5 2.792756 1_555
In1 Rh5 2.792756 1_554
In1 Rh7 2.792756 1_555
In1 Rh7 2.792756 1_554
In1 Rh9 2.792756 1_554
In1 Rh9 2.792756 1_555
B0 Rh7 2.224938 1_555
B0 Rh7 2.224938 1_554
B0 Rh4 2.224938 1_555
B0 Rh4 2.224938 1_554
B0 Rh1 2.299549 1_554
B0 Rh1 2.299549 1_555
B0 Y1 2.764461 1_555
B0 Y2 2.900908 1_555
B0 Y3 2.900908 1_455
B1 Rh5 2.224938 1_554
B1 Rh5 2.224938 1_555
B1 Rh6 2.224938 1_554
B1 Rh6 2.224938 1_555
B1 Rh1 2.299549 1_655
B1 Rh1 2.299549 1_654
B1 Y0 2.764461 1_555
B1 Y2 2.900908 1_655
B1 Y3 2.900908 1_555
B2 Rh3 2.224938 1_554
B2 Rh8 2.224938 1_555
B2 Rh3 2.224938 1_555
B2 Rh8 2.224938 1_554
B2 Rh0 2.299549 1_564
B2 Rh0 2.299549 1_565
B2 Y3 2.764461 1_555
B2 Y1 2.900908 1_555
B2 Y0 2.900908 1_565
B3 Rh9 2.224938 1_554
B3 Rh2 2.224938 1_555
B3 Rh9 2.224938 1_555
B3 Rh2 2.224938 1_554
B3 Rh0 2.299549 1_554
B3 Rh0 2.299549 1_555
B3 Y2 2.764461 1_555
B3 Y0 2.900908 1_555
B3 Y1 2.900908 1_545
Rh0 Y0 2.878064 1_556
Rh0 Y0 2.878064 1_555
Rh0 Y1 2.878064 1_546
Rh0 Y1 2.878064 1_545
Rh1 Y3 2.878064 1_455
Rh1 Y3 2.878064 1_456
Rh1 Y2 2.878064 1_556
Rh1 Y2 2.878064 1_555
Rh2 Y2 2.962040 1_556
Rh2 Y2 2.962040 1_555
Rh2 Y1 3.010484 1_545
Rh2 Y1 3.010484 1_546
Rh3 Y3 2.962040 1_555
Rh3 Y3 2.962040 1_556
Rh3 Y0 3.010484 1_565
Rh3 Y0 3.010484 1_566
Rh4 Y1 2.962040 1_556
Rh4 Y1 2.962040 1_555
Rh4 Y3 3.010484 1_456
Rh4 Y3 3.010484 1_455
Rh5 Y0 2.962040 1_556
Rh5 Y0 2.962040 1_555
Rh5 Y3 3.010484 1_556
Rh5 Y3 3.010484 1_555
Rh6 Y0 2.962040 1_556
Rh6 Y0 2.962040 1_555
Rh6 Y2 3.010484 1_655
Rh6 Y2 3.010484 1_656
Rh7 Y1 2.962040 1_556
Rh7 Y1 2.962040 1_555
Rh7 Y2 3.010484 1_556
Rh7 Y2 3.010484 1_555
Rh8 Y3 2.962040 1_555
Rh8 Y3 2.962040 1_556
Rh8 Y1 3.010484 1_556
Rh8 Y1 3.010484 1_555
Rh9 Y2 2.962040 1_556
Rh9 Y2 2.962040 1_555
Rh9 Y0 3.010484 1_556
Rh9 Y0 3.010484 1_555
