# generated using pymatgen
data_Ba3NaPt2O9
_symmetry_space_group_name_H-M   'P 1'
_cell_length_a   5.90144301
_cell_length_b   5.90144250
_cell_length_c   14.68304016
_cell_angle_alpha   90.00000000
_cell_angle_beta   90.00000000
_cell_angle_gamma   119.99998098
_symmetry_Int_Tables_number   1
_chemical_formula_structural   Ba3NaPt2O9
_chemical_formula_sum   'Ba6 Na2 Pt4 O18'
_cell_volume   442.85657671
_cell_formula_units_Z   2
loop_
 _symmetry_equiv_pos_site_id
 _symmetry_equiv_pos_as_xyz
  1  'x, y, z'
loop_
 _atom_site_type_symbol
 _atom_site_label
 _atom_site_symmetry_multiplicity
 _atom_site_fract_x
 _atom_site_fract_y
 _atom_site_fract_z
 _atom_site_occupancy
  Ba  Ba0  1  0.66666700  0.33333300  0.08262684  1
  Ba  Ba1  1  0.33333300  0.66666700  0.58262684  1
  Ba  Ba2  1  0.33333300  0.66666700  0.91737316  1
  Ba  Ba3  1  0.66666700  0.33333300  0.41737316  1
  Ba  Ba4  1  0.00000000  0.00000000  0.25000000  1
  Ba  Ba5  1  0.00000000  0.00000000  0.75000000  1
  Na  Na0  1  0.00000000  0.00000000  0.00000000  1
  Na  Na1  1  0.00000000  0.00000000  0.50000000  1
  Pt  Pt0  1  0.33333300  0.66666700  0.15682401  1
  Pt  Pt1  1  0.66666700  0.33333300  0.65682401  1
  Pt  Pt2  1  0.66666700  0.33333300  0.84317599  1
  Pt  Pt3  1  0.33333300  0.66666700  0.34317599  1
  O  O0  1  0.17646167  0.35292435  0.08580350  1
  O  O1  1  0.82353833  0.17646167  0.58580350  1
  O  O2  1  0.35292435  0.17646167  0.58580350  1
  O  O3  1  0.64707565  0.82353833  0.08580350  1
  O  O4  1  0.17646167  0.82353833  0.08580350  1
  O  O5  1  0.82353833  0.64707565  0.91419650  1
  O  O6  1  0.82353833  0.17646167  0.91419650  1
  O  O7  1  0.82353833  0.64707565  0.58580350  1
  O  O8  1  0.35292435  0.17646167  0.91419650  1
  O  O9  1  0.64707565  0.82353833  0.41419650  1
  O  O10  1  0.17646167  0.35292435  0.41419650  1
  O  O11  1  0.17646167  0.82353833  0.41419650  1
  O  O12  1  0.03448127  0.51724064  0.25000000  1
  O  O13  1  0.51724064  0.03448127  0.75000000  1
  O  O14  1  0.51724064  0.48275936  0.75000000  1
  O  O15  1  0.48275936  0.51724064  0.25000000  1
  O  O16  1  0.48275936  0.96551873  0.25000000  1
  O  O17  1  0.96551873  0.48275936  0.75000000  1
loop_
_geom_bond_atom_site_label_1
_geom_bond_atom_site_label_2
_geom_bond_distance
_geom_bond_site_symmetry_2
Ba0 O6 2.947407 1_554
Ba0 O5 2.947407 1_554
Ba0 O8 2.947407 1_554
Ba0 O3 2.952782 1_545
Ba0 O0 2.952782 1_655
Ba0 O4 2.952789 1_545
Ba0 O4 2.952789 1_655
Ba0 O3 2.952794 1_555
Ba0 O0 2.952794 1_555
Ba0 O16 3.094072 1_545
Ba0 O12 3.094072 1_655
Ba0 O15 3.094074 1_555
Ba1 O11 2.947407 1_555
Ba1 O10 2.947407 1_555
Ba1 O9 2.947407 1_555
Ba1 O2 2.952782 1_565
Ba1 O7 2.952782 1_455
Ba1 O1 2.952789 1_565
Ba1 O1 2.952789 1_455
Ba1 O2 2.952794 1_555
Ba1 O7 2.952794 1_555
Ba1 O13 3.094072 1_565
Ba1 O17 3.094072 1_455
Ba1 O14 3.094074 1_555
Ba2 O4 2.947407 1_556
Ba2 O0 2.947407 1_556
Ba2 O3 2.947407 1_556
Ba2 O8 2.952782 1_565
Ba2 O5 2.952782 1_455
Ba2 O6 2.952789 1_565
Ba2 O6 2.952789 1_455
Ba2 O8 2.952794 1_555
Ba2 O5 2.952794 1_555
Ba2 O13 3.094072 1_565
Ba2 O17 3.094072 1_455
Ba2 O14 3.094074 1_555
Ba3 O1 2.947407 1_555
Ba3 O7 2.947407 1_555
Ba3 O2 2.947407 1_555
Ba3 O9 2.952782 1_545
Ba3 O10 2.952782 1_655
Ba3 O11 2.952789 1_545
Ba3 O11 2.952789 1_655
Ba3 O9 2.952794 1_555
Ba3 O10 2.952794 1_555
Ba3 O16 3.094072 1_545
Ba3 O12 3.094072 1_655
Ba3 O15 3.094074 1_555
Ba4 O12 2.955979 1_545
Ba4 O12 2.955979 1_555
Ba4 O16 2.955979 1_545
Ba4 O16 2.955979 1_445
Ba4 O15 2.955980 1_555
Ba4 O15 2.955980 1_445
Ba4 O4 3.010957 1_545
Ba4 O11 3.010957 1_545
Ba4 O10 3.010961 1_555
Ba4 O0 3.010961 1_555
Ba4 O9 3.010961 1_445
Ba4 O3 3.010961 1_445
Ba5 O17 2.955979 1_455
Ba5 O17 2.955979 1_445
Ba5 O13 2.955979 1_455
Ba5 O13 2.955979 1_555
Ba5 O14 2.955980 1_445
Ba5 O14 2.955980 1_555
Ba5 O1 3.010957 1_455
Ba5 O6 3.010957 1_455
Ba5 O7 3.010961 1_445
Ba5 O5 3.010961 1_445
Ba5 O2 3.010961 1_555
Ba5 O8 3.010961 1_555
Na0 O6 2.200146 1_454
Na0 O4 2.200146 1_545
Na0 O0 2.200151 1_555
Na0 O5 2.200151 1_444
Na0 O8 2.200151 1_554
Na0 O3 2.200151 1_445
Na1 O1 2.200146 1_455
Na1 O11 2.200146 1_545
Na1 O10 2.200151 1_555
Na1 O7 2.200151 1_445
Na1 O2 2.200151 1_555
Na1 O9 2.200151 1_445
O0 Pt0 1.912737 1_555
O1 Pt1 1.912736 1_555
O2 Pt1 1.912737 1_555
O3 Pt0 1.912737 1_555
O4 Pt0 1.912736 1_555
O5 Pt2 1.912737 1_555
O6 Pt2 1.912736 1_555
O7 Pt1 1.912737 1_555
O8 Pt2 1.912737 1_555
O9 Pt3 1.912737 1_555
O10 Pt3 1.912737 1_555
O11 Pt3 1.912736 1_555
O12 Pt3 2.050507 1_555
O12 Pt0 2.050507 1_555
O13 Pt2 2.050507 1_555
O13 Pt1 2.050507 1_555
O14 Pt2 2.050511 1_555
O14 Pt1 2.050511 1_555
O15 Pt3 2.050511 1_555
O15 Pt0 2.050511 1_555
O16 Pt3 2.050507 1_555
O16 Pt0 2.050507 1_555
O17 Pt2 2.050507 1_555
O17 Pt1 2.050507 1_555
