# generated using pymatgen
data_NaLiZn12
_symmetry_space_group_name_H-M   'P 1'
_cell_length_a   8.50289664
_cell_length_b   8.50289769
_cell_length_c   8.50289659
_cell_angle_alpha   60.00000056
_cell_angle_beta   59.99999650
_cell_angle_gamma   59.99999959
_symmetry_Int_Tables_number   1
_chemical_formula_structural   NaLiZn12
_chemical_formula_sum   'Na2 Li2 Zn24'
_cell_volume   434.69609844
_cell_formula_units_Z   2
loop_
 _symmetry_equiv_pos_site_id
 _symmetry_equiv_pos_as_xyz
  1  'x, y, z'
loop_
 _atom_site_type_symbol
 _atom_site_label
 _atom_site_symmetry_multiplicity
 _atom_site_fract_x
 _atom_site_fract_y
 _atom_site_fract_z
 _atom_site_occupancy
  Na  Na0  1  0.25000000  0.25000000  0.25000000  1
  Na  Na1  1  0.75000000  0.75000000  0.75000000  1
  Li  Li0  1  0.00000000  0.00000000  0.00000000  1
  Li  Li1  1  0.50000000  0.50000000  0.50000000  1
  Zn  Zn0  1  0.43842419  0.20239482  0.79760518  1
  Zn  Zn1  1  0.93842419  0.70239482  0.06157581  1
  Zn  Zn2  1  0.70239482  0.93842419  0.29760518  1
  Zn  Zn3  1  0.29760518  0.70239482  0.93842419  1
  Zn  Zn4  1  0.93842419  0.06157581  0.29760518  1
  Zn  Zn5  1  0.70239482  0.06157581  0.93842419  1
  Zn  Zn6  1  0.29760518  0.93842419  0.06157581  1
  Zn  Zn7  1  0.79760518  0.43842419  0.20239482  1
  Zn  Zn8  1  0.20239482  0.79760518  0.43842419  1
  Zn  Zn9  1  0.43842419  0.56157581  0.20239482  1
  Zn  Zn10  1  0.43842419  0.79760518  0.56157581  1
  Zn  Zn11  1  0.20239482  0.56157581  0.79760518  1
  Zn  Zn12  1  0.56157581  0.43842419  0.79760518  1
  Zn  Zn13  1  0.56157581  0.20239482  0.43842419  1
  Zn  Zn14  1  0.79760518  0.20239482  0.56157581  1
  Zn  Zn15  1  0.06157581  0.93842419  0.70239482  1
  Zn  Zn16  1  0.06157581  0.29760518  0.93842419  1
  Zn  Zn17  1  0.93842419  0.29760518  0.70239482  1
  Zn  Zn18  1  0.06157581  0.70239482  0.29760518  1
  Zn  Zn19  1  0.29760518  0.06157581  0.70239482  1
  Zn  Zn20  1  0.70239482  0.29760518  0.06157581  1
  Zn  Zn21  1  0.20239482  0.43842419  0.56157581  1
  Zn  Zn22  1  0.79760518  0.56157581  0.43842419  1
  Zn  Zn23  1  0.56157581  0.79760518  0.20239482  1
loop_
_geom_bond_atom_site_label_1
_geom_bond_atom_site_label_2
_geom_bond_distance
_geom_bond_site_symmetry_2
Na0 Zn17 3.503309 1_455
Na0 Zn14 3.503309 1_455
Na0 Zn5 3.503309 1_554
Na0 Zn0 3.503309 1_554
Na0 Zn12 3.503309 1_554
Na0 Zn20 3.503309 1_555
Na0 Zn7 3.503309 1_455
Na0 Zn19 3.503309 1_555
Na0 Zn22 3.503309 1_455
Na0 Zn16 3.503309 1_554
Na0 Zn13 3.503309 1_555
Na0 Zn2 3.503309 1_545
Na0 Zn15 3.503309 1_545
Na0 Zn11 3.503310 1_554
Na0 Zn21 3.503310 1_555
Na0 Zn4 3.503310 1_455
Na0 Zn6 3.503310 1_545
Na0 Zn1 3.503310 1_455
Na0 Zn9 3.503310 1_555
Na0 Zn10 3.503310 1_545
Na0 Zn23 3.503310 1_545
Na0 Zn3 3.503310 1_554
Na0 Zn18 3.503310 1_555
Na0 Zn8 3.503310 1_545
Na1 Zn18 3.503309 1_655
Na1 Zn8 3.503309 1_655
Na1 Zn6 3.503309 1_556
Na1 Zn23 3.503309 1_556
Na1 Zn9 3.503309 1_556
Na1 Zn3 3.503309 1_555
Na1 Zn11 3.503309 1_655
Na1 Zn2 3.503309 1_555
Na1 Zn21 3.503309 1_655
Na1 Zn1 3.503309 1_556
Na1 Zn10 3.503309 1_555
Na1 Zn19 3.503309 1_565
Na1 Zn4 3.503309 1_565
Na1 Zn7 3.503310 1_556
Na1 Zn22 3.503310 1_555
Na1 Zn15 3.503310 1_655
Na1 Zn5 3.503310 1_565
Na1 Zn16 3.503310 1_655
Na1 Zn12 3.503310 1_555
Na1 Zn13 3.503310 1_565
Na1 Zn0 3.503310 1_565
Na1 Zn20 3.503310 1_556
Na1 Zn17 3.503310 1_555
Na1 Zn14 3.503310 1_565
Li0 Zn2 2.584103 1_445
Li0 Zn19 2.584103 1_554
Li0 Zn4 2.584103 1_455
Li0 Zn15 2.584103 1_544
Li0 Zn6 2.584103 1_545
Li0 Zn5 2.584103 1_454
Li0 Zn20 2.584103 1_455
Li0 Zn3 2.584103 1_544
Li0 Zn18 2.584103 1_545
Li0 Zn17 2.584103 1_454
Li0 Zn16 2.584104 1_554
Li0 Zn1 2.584104 1_445
Li1 Zn7 2.584103 1_555
Li1 Zn11 2.584103 1_555
Li1 Zn9 2.584103 1_555
Li1 Zn12 2.584103 1_555
Li1 Zn22 2.584103 1_555
Li1 Zn21 2.584103 1_555
Li1 Zn14 2.584103 1_555
Li1 Zn8 2.584103 1_555
Li1 Zn23 2.584103 1_555
Li1 Zn0 2.584103 1_555
Li1 Zn10 2.584104 1_555
Li1 Zn13 2.584104 1_555
