# generated using pymatgen
data_RbCaMoH9
_symmetry_space_group_name_H-M   'P 1'
_cell_length_a   8.96404362
_cell_length_b   8.96404300
_cell_length_c   5.55509240
_cell_angle_alpha   90.00000000
_cell_angle_beta   90.00000000
_cell_angle_gamma   120.00000592
_symmetry_Int_Tables_number   1
_chemical_formula_structural   RbCaMoH9
_chemical_formula_sum   'Rb3 Ca3 Mo3 H27'
_cell_volume   386.57145789
_cell_formula_units_Z   3
loop_
 _symmetry_equiv_pos_site_id
 _symmetry_equiv_pos_as_xyz
  1  'x, y, z'
loop_
 _atom_site_type_symbol
 _atom_site_label
 _atom_site_symmetry_multiplicity
 _atom_site_fract_x
 _atom_site_fract_y
 _atom_site_fract_z
 _atom_site_occupancy
  Rb  Rb0  1  0.00000000  0.58651838  0.00000000  1
  Rb  Rb1  1  0.41348162  0.41348162  0.00000000  1
  Rb  Rb2  1  0.58651838  0.00000000  0.00000000  1
  Ca  Ca0  1  0.00000000  0.27330838  0.50000000  1
  Ca  Ca1  1  0.72669162  0.72669162  0.50000000  1
  Ca  Ca2  1  0.27330838  0.00000000  0.50000000  1
  Mo  Mo0  1  0.66666700  0.33333300  0.50000000  1
  Mo  Mo1  1  0.33333300  0.66666700  0.50000000  1
  Mo  Mo2  1  0.00000000  0.00000000  0.00000000  1
  H  H0  1  0.79053982  0.30374259  0.72168056  1
  H  H1  1  0.69625741  0.48679723  0.72168056  1
  H  H2  1  0.51320277  0.20946018  0.72168056  1
  H  H3  1  0.20946018  0.51320277  0.27831944  1
  H  H4  1  0.51320277  0.20946018  0.27831944  1
  H  H5  1  0.79053982  0.30374259  0.27831944  1
  H  H6  1  0.69625741  0.48679723  0.27831944  1
  H  H7  1  0.30374259  0.79053982  0.72168056  1
  H  H8  1  0.48679723  0.69625741  0.72168056  1
  H  H9  1  0.19274163  0.00000000  0.00000000  1
  H  H10  1  0.80725837  0.80725837  0.00000000  1
  H  H11  1  0.00000000  0.19274163  0.00000000  1
  H  H12  1  0.86397936  1.00000000  0.23297397  1
  H  H13  1  0.13602064  0.13602064  0.76702603  1
  H  H14  1  1.00000000  0.86397936  0.76702603  1
  H  H15  1  1.00000000  0.86397936  0.23297397  1
  H  H16  1  0.13602064  0.13602064  0.23297397  1
  H  H17  1  0.86397936  1.00000000  0.76702603  1
  H  H18  1  0.12645808  0.63024319  0.50000000  1
  H  H19  1  0.50378611  0.87354192  0.50000000  1
  H  H20  1  0.36975681  0.49621389  0.50000000  1
  H  H21  1  0.49621389  0.36975681  0.50000000  1
  H  H22  1  0.87354192  0.50378611  0.50000000  1
  H  H23  1  0.63024319  0.12645808  0.50000000  1
  H  H24  1  0.20946018  0.51320277  0.72168056  1
  H  H25  1  0.30374259  0.79053982  0.27831944  1
  H  H26  1  0.48679723  0.69625741  0.27831944  1
loop_
_geom_bond_atom_site_label_1
_geom_bond_atom_site_label_2
_geom_bond_distance
_geom_bond_site_symmetry_2
Ca0 H24 2.372460 1_555
Ca0 H3 2.372460 1_555
Ca0 H0 2.372461 1_455
Ca0 H5 2.372461 1_455
Ca0 H17 2.588833 1_445
Ca0 H12 2.588833 1_445
Ca0 H13 2.588833 1_555
Ca0 H16 2.588833 1_555
Ca1 H1 2.372460 1_555
Ca1 H6 2.372460 1_555
Ca1 H8 2.372460 1_555
Ca1 H26 2.372460 1_555
Ca1 H17 2.588833 1_555
Ca1 H12 2.588833 1_555
Ca1 H14 2.588833 1_555
Ca1 H15 2.588833 1_555
Ca2 H2 2.372460 1_555
Ca2 H4 2.372460 1_555
Ca2 H7 2.372460 1_545
Ca2 H25 2.372460 1_545
Ca2 H14 2.588833 1_445
Ca2 H15 2.588833 1_445
Ca2 H13 2.588833 1_555
Ca2 H16 2.588833 1_555
H0 Mo0 1.764757 1_555
H0 Rb0 2.753490 1_656
H0 Rb2 2.858146 1_556
H1 Mo0 1.764763 1_555
H1 Rb1 2.753490 1_556
H1 Rb0 2.858147 1_656
H2 Mo0 1.764761 1_555
H2 Rb2 2.753490 1_556
H2 Rb1 2.858147 1_556
H3 Mo1 1.764761 1_555
H3 Rb0 2.753490 1_555
H3 Rb1 2.858147 1_555
H4 Mo0 1.764761 1_555
H4 Rb2 2.753490 1_555
H4 Rb1 2.858147 1_555
H5 Mo0 1.764757 1_555
H5 Rb0 2.753490 1_655
H5 Rb2 2.858146 1_555
H6 Mo0 1.764763 1_555
H6 Rb1 2.753490 1_555
H6 Rb0 2.858147 1_655
H7 Mo1 1.764757 1_555
H7 Rb2 2.753490 1_566
H7 Rb0 2.858147 1_556
H8 Mo1 1.764763 1_555
H8 Rb1 2.753490 1_556
H8 Rb2 2.858147 1_566
H9 Mo2 1.727744 1_555
H10 Mo2 1.727744 1_665
H11 Mo2 1.727744 1_555
H12 Mo2 1.778093 1_665
H12 Rb2 2.803740 1_565
H13 Mo2 1.778092 1_556
H13 Rb1 2.803740 1_556
H14 Mo2 1.778092 1_666
H14 Rb0 2.803740 1_656
H15 Mo2 1.778092 1_665
H15 Rb0 2.803740 1_655
H16 Mo2 1.778092 1_555
H16 Rb1 2.803740 1_555
H17 Mo2 1.778093 1_666
H17 Rb2 2.803740 1_566
H18 Mo1 1.714659 1_555
H18 Rb0 2.951114 1_556
H18 Rb0 2.951114 1_555
H19 Mo1 1.714665 1_555
H19 Rb2 2.951114 1_566
H19 Rb2 2.951114 1_565
H20 Mo1 1.714677 1_555
H20 Rb1 2.951112 1_556
H20 Rb1 2.951112 1_555
H21 Mo0 1.714677 1_555
H21 Rb1 2.951112 1_556
H21 Rb1 2.951112 1_555
H22 Mo0 1.714665 1_555
H22 Rb0 2.951114 1_656
H22 Rb0 2.951114 1_655
H23 Mo0 1.714659 1_555
H23 Rb2 2.951114 1_556
H23 Rb2 2.951114 1_555
H24 Mo1 1.764761 1_555
H24 Rb0 2.753490 1_556
H24 Rb1 2.858147 1_556
H25 Mo1 1.764757 1_555
H25 Rb2 2.753490 1_565
H25 Rb0 2.858147 1_555
H26 Mo1 1.764763 1_555
H26 Rb1 2.753490 1_555
H26 Rb2 2.858147 1_565
