# generated using pymatgen
data_Na3FeO3
_symmetry_space_group_name_H-M   'P 1'
_cell_length_a   12.52721150
_cell_length_b   5.72269384
_cell_length_c   5.77801943
_cell_angle_alpha   65.16113507
_cell_angle_beta   90.00000000
_cell_angle_gamma   90.00000000
_symmetry_Int_Tables_number   1
_chemical_formula_structural   Na3FeO3
_chemical_formula_sum   'Na12 Fe4 O12'
_cell_volume   375.90411730
_cell_formula_units_Z   4
loop_
 _symmetry_equiv_pos_site_id
 _symmetry_equiv_pos_as_xyz
  1  'x, y, z'
loop_
 _atom_site_type_symbol
 _atom_site_label
 _atom_site_symmetry_multiplicity
 _atom_site_fract_x
 _atom_site_fract_y
 _atom_site_fract_z
 _atom_site_occupancy
  Na  Na0  1  0.22184441  0.85728763  0.69614055  1
  Na  Na1  1  0.72184441  0.64271237  0.80385945  1
  Na  Na2  1  0.77815559  0.14271237  0.30385945  1
  Na  Na3  1  0.27815559  0.35728763  0.19614055  1
  Na  Na4  1  0.98478105  0.74207659  0.71904259  1
  Na  Na5  1  0.48478105  0.75792341  0.78095741  1
  Na  Na6  1  0.40317164  0.29095844  0.64067283  1
  Na  Na7  1  0.90317164  0.20904156  0.85932717  1
  Na  Na8  1  0.59682836  0.70904156  0.35932717  1
  Na  Na9  1  0.09682836  0.79095844  0.14067283  1
  Na  Na10  1  0.01521895  0.25792341  0.28095741  1
  Na  Na11  1  0.51521895  0.24207659  0.21904259  1
  Fe  Fe0  1  0.16354057  0.32411710  0.75788631  1
  Fe  Fe1  1  0.66354057  0.17588290  0.74211369  1
  Fe  Fe2  1  0.83645943  0.67588290  0.24211369  1
  Fe  Fe3  1  0.33645943  0.82411710  0.25788631  1
  O  O0  1  0.22819675  0.57573066  0.45244871  1
  O  O1  1  0.72819675  0.92426934  0.04755129  1
  O  O2  1  0.77180325  0.42426934  0.54755129  1
  O  O3  1  0.27180325  0.07573066  0.95244871  1
  O  O4  1  0.87318704  0.50312671  0.04613740  1
  O  O5  1  0.37318704  0.99687329  0.45386260  1
  O  O6  1  0.06166538  0.11982176  0.69950819  1
  O  O7  1  0.56166538  0.38017824  0.80049181  1
  O  O8  1  0.93833462  0.88017824  0.30049181  1
  O  O9  1  0.43833462  0.61982176  0.19950819  1
  O  O10  1  0.12681296  0.49687329  0.95386260  1
  O  O11  1  0.62681296  0.00312671  0.54613740  1
loop_
_geom_bond_atom_site_label_1
_geom_bond_atom_site_label_2
_geom_bond_distance
_geom_bond_site_symmetry_2
Na0 O5 2.291886 1_555
Na0 O10 2.304003 1_555
Na0 O3 2.388088 1_565
Na0 O6 2.511689 1_565
Na0 O0 2.547781 1_555
Na1 O4 2.291886 1_556
Na1 O11 2.304003 1_565
Na1 O2 2.388088 1_555
Na1 O7 2.511689 1_555
Na1 O1 2.547781 1_556
Na2 O11 2.291886 1_555
Na2 O4 2.304003 1_555
Na2 O1 2.388088 1_545
Na2 O8 2.511689 1_545
Na2 O2 2.547781 1_555
Na3 O10 2.291886 1_554
Na3 O5 2.304003 1_545
Na3 O0 2.388088 1_555
Na3 O9 2.511689 1_555
Na3 O3 2.547781 1_554
Na4 O8 2.281672 1_555
Na4 O4 2.285800 1_556
Na4 O10 2.318660 1_655
Na4 O6 2.325604 1_665
Na5 O9 2.281672 1_556
Na5 O5 2.285800 1_555
Na5 O11 2.318660 1_565
Na5 O7 2.325604 1_555
Na6 O7 2.334885 1_555
Na6 O3 2.367787 1_555
Na6 O5 2.380064 1_545
Na6 O9 2.490627 1_555
Na6 O0 2.674735 1_555
Na7 O6 2.334885 1_655
Na7 O2 2.367787 1_555
Na7 O4 2.380064 1_556
Na7 O8 2.490627 1_546
Na7 O1 2.674735 1_546
Na8 O9 2.334885 1_555
Na8 O1 2.367787 1_555
Na8 O11 2.380064 1_565
Na8 O7 2.490627 1_555
Na8 O2 2.674735 1_555
Na9 O8 2.334885 1_455
Na9 O0 2.367787 1_555
Na9 O10 2.380064 1_554
Na9 O6 2.490627 1_564
Na9 O3 2.674735 1_564
Na10 O6 2.281672 1_555
Na10 O10 2.285800 1_554
Na10 O4 2.318660 1_455
Na10 O8 2.325604 1_445
Na11 O7 2.281672 1_554
Na11 O11 2.285800 1_555
Na11 O5 2.318660 1_545
Na11 O9 2.325604 1_555
Fe0 O10 1.847111 1_555
Fe0 O6 1.854898 1_555
Fe0 O0 1.925886 1_555
Fe0 O3 1.944515 1_555
Fe1 O11 1.847111 1_555
Fe1 O7 1.854898 1_555
Fe1 O1 1.925886 1_546
Fe1 O2 1.944515 1_555
Fe2 O4 1.847111 1_555
Fe2 O8 1.854898 1_555
Fe2 O2 1.925886 1_555
Fe2 O1 1.944515 1_555
Fe3 O5 1.847111 1_555
Fe3 O9 1.854898 1_555
Fe3 O3 1.925886 1_564
Fe3 O0 1.944515 1_555
