# generated using pymatgen
data_Ti11Nb2P8W
_symmetry_space_group_name_H-M   'P 1'
_cell_length_a   7.52880014
_cell_length_b   7.52880027
_cell_length_c   13.51602310
_cell_angle_alpha   75.68573390
_cell_angle_beta   75.68573347
_cell_angle_gamma   26.22947351
_symmetry_Int_Tables_number   1
_chemical_formula_structural   Ti11Nb2P8W
_chemical_formula_sum   'Ti11 Nb2 P8 W1'
_cell_volume   327.51044689
_cell_formula_units_Z   1
loop_
 _symmetry_equiv_pos_site_id
 _symmetry_equiv_pos_as_xyz
  1  'x, y, z'
loop_
 _atom_site_type_symbol
 _atom_site_label
 _atom_site_symmetry_multiplicity
 _atom_site_fract_x
 _atom_site_fract_y
 _atom_site_fract_z
 _atom_site_occupancy
  Ti  Ti0  1  0.00000000  0.00000000  0.00000000  1
  Ti  Ti1  1  0.19767136  0.19767136  0.68970800  1
  Ti  Ti2  1  0.80232864  0.80232864  0.31029200  1
  Ti  Ti3  1  0.20537677  0.20537677  0.20726373  1
  Ti  Ti4  1  0.79462323  0.79462323  0.79273627  1
  Ti  Ti5  1  0.33883517  0.33883517  0.96722700  1
  Ti  Ti6  1  0.66116483  0.66116483  0.03277300  1
  Ti  Ti7  1  0.00420446  0.00420446  0.34005143  1
  Ti  Ti8  1  0.99579554  0.99579554  0.65994857  1
  Ti  Ti9  1  0.17521337  0.17521337  0.46010719  1
  Ti  Ti10  1  0.82478663  0.82478663  0.53989281  1
  Nb  Nb0  1  0.42663422  0.42663422  0.17122671  1
  Nb  Nb1  1  0.57336578  0.57336578  0.82877329  1
  P  P0  1  0.18176293  0.18176293  0.89111560  1
  P  P1  1  0.81823707  0.81823707  0.10888440  1
  P  P2  1  0.37340404  0.37340404  0.39436389  1
  P  P3  1  0.62659596  0.62659596  0.60563611  1
  P  P4  1  0.36914254  0.36914254  0.65865890  1
  P  P5  1  0.63085746  0.63085746  0.34134110  1
  P  P6  1  0.06322274  0.06322274  0.15161594  1
  P  P7  1  0.93677726  0.93677726  0.84838406  1
  W  W0  1  0.50000000  0.50000000  0.50000000  1
loop_
_geom_bond_atom_site_label_1
_geom_bond_atom_site_label_2
_geom_bond_distance
_geom_bond_site_symmetry_2
Ti7 W0 2.743735 1_455
Ti7 W0 2.743735 1_545
Ti8 W0 2.743735 1_655
Ti8 W0 2.743735 1_565
Ti9 W0 3.017916 1_455
Ti9 W0 3.017916 1_545
Ti10 W0 3.017916 1_655
Ti10 W0 3.017916 1_565
Nb0 P6 2.594454 1_655
Nb0 P6 2.594454 1_565
Nb0 P1 2.614438 1_455
Nb0 P1 2.614438 1_545
Nb0 P2 2.917166 1_555
Nb1 P7 2.594454 1_455
Nb1 P7 2.594454 1_545
Nb1 P0 2.614438 1_655
Nb1 P0 2.614438 1_565
Nb1 P3 2.917166 1_555
P0 Ti4 2.511632 1_545
P0 Ti4 2.511632 1_455
P0 Ti6 2.526212 1_456
P0 Ti6 2.526212 1_546
P0 Ti1 2.672549 1_555
P0 Ti0 2.697998 1_556
P0 Ti5 2.750859 1_555
P1 Ti3 2.511632 1_565
P1 Ti3 2.511632 1_655
P1 Ti5 2.526212 1_654
P1 Ti5 2.526212 1_564
P1 Ti2 2.672549 1_555
P1 Ti0 2.697998 1_665
P1 Ti6 2.750859 1_555
P2 Ti2 2.428427 1_455
P2 Ti2 2.428427 1_545
P2 Ti7 2.534091 1_655
P2 Ti7 2.534091 1_565
P2 Ti10 2.565845 1_455
P2 Ti10 2.565845 1_545
P2 W0 2.613620 1_555
P2 Ti9 2.815265 1_555
P3 Ti1 2.428427 1_655
P3 Ti1 2.428427 1_565
P3 Ti8 2.534091 1_455
P3 Ti8 2.534091 1_545
P3 Ti9 2.565845 1_655
P3 Ti9 2.565845 1_565
P3 W0 2.613620 1_555
P3 Ti10 2.815265 1_555
P4 Ti1 2.442037 1_555
P4 W0 2.488337 1_555
P4 Ti8 2.526810 1_545
P4 Ti8 2.526810 1_455
P4 Ti4 2.528059 1_455
P4 Ti4 2.528059 1_545
P4 Ti10 2.539362 1_455
P4 Ti10 2.539362 1_545
P5 Ti2 2.442037 1_555
P5 W0 2.488337 1_555
P5 Ti7 2.526810 1_565
P5 Ti7 2.526810 1_655
P5 Ti3 2.528059 1_655
P5 Ti3 2.528059 1_565
P5 Ti9 2.539362 1_655
P5 Ti9 2.539362 1_565
P6 Ti3 2.389068 1_555
P6 Ti0 2.454317 1_555
P6 Ti7 2.473173 1_555
P6 Ti6 2.527851 1_545
P6 Ti6 2.527852 1_455
P7 Ti4 2.389068 1_555
P7 Ti0 2.454317 1_666
P7 Ti8 2.473173 1_555
P7 Ti5 2.527851 1_565
P7 Ti5 2.527852 1_655
