# generated using pymatgen
data_Rb4Sn(TeS)2
_symmetry_space_group_name_H-M   'P 1'
_cell_length_a   8.76349118
_cell_length_b   10.81716380
_cell_length_c   15.30179985
_cell_angle_alpha   90.00000000
_cell_angle_beta   90.00000000
_cell_angle_gamma   90.00000000
_symmetry_Int_Tables_number   1
_chemical_formula_structural   Rb4Sn(TeS)2
_chemical_formula_sum   'Rb16 Sn4 Te8 S8'
_cell_volume   1450.55124743
_cell_formula_units_Z   4
loop_
 _symmetry_equiv_pos_site_id
 _symmetry_equiv_pos_as_xyz
  1  'x, y, z'
loop_
 _atom_site_type_symbol
 _atom_site_label
 _atom_site_symmetry_multiplicity
 _atom_site_fract_x
 _atom_site_fract_y
 _atom_site_fract_z
 _atom_site_occupancy
  Rb  Rb0  1  0.50000000  0.50000000  0.50000000  1
  Rb  Rb1  1  0.14232495  0.46451075  0.27445885  1
  Rb  Rb2  1  0.14232495  0.03548925  0.27445885  1
  Rb  Rb3  1  0.97995747  0.75000000  0.44007233  1
  Rb  Rb4  1  0.02004253  0.25000000  0.55992767  1
  Rb  Rb5  1  0.64232495  0.96451075  0.22554115  1
  Rb  Rb6  1  0.35767505  0.03548925  0.77445885  1
  Rb  Rb7  1  0.85767505  0.96451075  0.72554115  1
  Rb  Rb8  1  0.35767505  0.46451075  0.77445885  1
  Rb  Rb9  1  0.00000000  0.50000000  0.00000000  1
  Rb  Rb10  1  0.47995747  0.25000000  0.05992767  1
  Rb  Rb11  1  0.64232495  0.53548925  0.22554115  1
  Rb  Rb12  1  0.52004253  0.75000000  0.94007233  1
  Rb  Rb13  1  0.00000000  0.00000000  0.00000000  1
  Rb  Rb14  1  0.85767505  0.53548925  0.72554115  1
  Rb  Rb15  1  0.50000000  0.00000000  0.50000000  1
  Sn  Sn0  1  0.73384121  0.25000000  0.84057314  1
  Sn  Sn1  1  0.76615879  0.25000000  0.34057314  1
  Sn  Sn2  1  0.23384121  0.75000000  0.65942686  1
  Sn  Sn3  1  0.26615879  0.75000000  0.15942686  1
  Te  Te0  1  0.55154471  0.75000000  0.67024864  1
  Te  Te1  1  0.44845529  0.25000000  0.32975136  1
  Te  Te2  1  0.37092363  0.75000000  0.33226754  1
  Te  Te3  1  0.12907637  0.75000000  0.83226754  1
  Te  Te4  1  0.05154471  0.25000000  0.82975136  1
  Te  Te5  1  0.94845529  0.75000000  0.17024864  1
  Te  Te6  1  0.62907637  0.25000000  0.66773246  1
  Te  Te7  1  0.87092363  0.25000000  0.16773246  1
  S  S0  1  0.84746607  0.43536320  0.41107902  1
  S  S1  1  0.65253393  0.06463680  0.91107902  1
  S  S2  1  0.34746607  0.93536320  0.08892098  1
  S  S3  1  0.34746607  0.56463680  0.08892098  1
  S  S4  1  0.15253393  0.56463680  0.58892098  1
  S  S5  1  0.84746607  0.06463680  0.41107902  1
  S  S6  1  0.15253393  0.93536320  0.58892098  1
  S  S7  1  0.65253393  0.43536320  0.91107902  1
loop_
_geom_bond_atom_site_label_1
_geom_bond_atom_site_label_2
_geom_bond_distance
_geom_bond_site_symmetry_2
Rb0 S0 3.407691 1_555
Rb0 S4 3.407691 1_555
Rb0 Te0 3.782041 1_555
Rb0 Te1 3.782041 1_555
Rb0 Te6 3.896176 1_555
Rb0 Te2 3.896176 1_555
Rb1 S0 3.338677 1_455
Rb1 S3 3.530617 1_555
Rb1 Te1 3.646553 1_555
Rb1 Te7 3.702456 1_455
Rb1 Sn3 3.716567 1_555
Rb1 Te2 3.785850 1_555
Rb1 Te5 3.868612 1_455
Rb2 S5 3.338677 1_455
Rb2 S2 3.530617 1_545
Rb2 Te1 3.646553 1_555
Rb2 Te7 3.702456 1_455
Rb2 Sn3 3.716567 1_545
Rb2 Te2 3.785850 1_545
Rb2 Te5 3.868612 1_445
Rb3 S4 3.390489 1_655
Rb3 S6 3.390489 1_655
Rb3 S0 3.623342 1_555
Rb3 S5 3.623342 1_565
Rb3 Te2 3.802663 1_655
Rb3 Te5 4.138007 1_555
Rb4 S5 3.390489 1_455
Rb4 S0 3.390489 1_455
Rb4 S6 3.623342 1_545
Rb4 S4 3.623342 1_555
Rb4 Te6 3.802663 1_455
Rb4 Te4 4.138007 1_555
Rb5 S2 3.338677 1_555
Rb5 S5 3.530617 1_565
Rb5 Te5 3.646553 1_555
Rb5 Te2 3.702456 1_555
Rb5 Sn1 3.716567 1_565
Rb5 Te7 3.785850 1_565
Rb5 Te1 3.868612 1_565
Rb6 S1 3.338677 1_555
Rb6 S6 3.530617 1_545
Rb6 Te4 3.646553 1_555
Rb6 Te6 3.702456 1_555
Rb6 Sn2 3.716567 1_545
Rb6 Te3 3.785850 1_545
Rb6 Te0 3.868612 1_545
Rb7 S6 3.338677 1_655
Rb7 S1 3.530617 1_565
Rb7 Te0 3.646553 1_555
Rb7 Te3 3.702456 1_655
Rb7 Sn0 3.716567 1_565
Rb7 Te6 3.785850 1_565
Rb7 Te4 3.868612 1_665
Rb8 S7 3.338677 1_555
Rb8 S4 3.530617 1_555
Rb8 Te4 3.646553 1_555
Rb8 Te6 3.702456 1_555
Rb8 Sn2 3.716567 1_555
Rb8 Te3 3.785850 1_555
Rb8 Te0 3.868612 1_555
Rb9 S3 3.407691 1_555
Rb9 S7 3.407691 1_454
Rb9 Te5 3.782041 1_455
Rb9 Te4 3.782041 1_554
Rb9 Te7 3.896176 1_455
Rb9 Te3 3.896176 1_554
Rb10 S7 3.390489 1_554
Rb10 S1 3.390489 1_554
Rb10 S2 3.623342 1_545
Rb10 S3 3.623342 1_555
Rb10 Te7 3.802663 1_555
Rb10 Te1 4.138007 1_555
Rb11 S3 3.338677 1_555
Rb11 S0 3.530617 1_555
Rb11 Te5 3.646553 1_555
Rb11 Te2 3.702456 1_555
Rb11 Sn1 3.716567 1_555
Rb11 Te7 3.785850 1_555
Rb11 Te1 3.868612 1_555
Rb12 S3 3.390489 1_556
Rb12 S2 3.390489 1_556
Rb12 S7 3.623342 1_555
Rb12 S1 3.623342 1_565
Rb12 Te3 3.802663 1_555
Rb12 Te0 4.138007 1_555
Rb13 S2 3.407691 1_545
Rb13 S1 3.407691 1_454
Rb13 Te5 3.782041 1_445
Rb13 Te4 3.782041 1_554
Rb13 Te7 3.896176 1_455
Rb13 Te3 3.896176 1_544
Rb14 S4 3.338677 1_655
Rb14 S7 3.530617 1_555
Rb14 Te0 3.646553 1_555
Rb14 Te3 3.702456 1_655
Rb14 Sn0 3.716567 1_555
Rb14 Te6 3.785850 1_555
Rb14 Te4 3.868612 1_655
Rb15 S5 3.407691 1_555
Rb15 S6 3.407691 1_545
Rb15 Te0 3.782041 1_545
Rb15 Te1 3.782041 1_555
Rb15 Te6 3.896176 1_555
Rb15 Te2 3.896176 1_545
Sn0 Te4 2.789112 1_655
Sn0 Te6 2.799597 1_555
Sn1 Te1 2.789112 1_555
Sn1 Te7 2.799597 1_555
Sn2 Te0 2.789112 1_555
Sn2 Te3 2.799597 1_555
Sn3 Te5 2.789112 1_455
Sn3 Te2 2.799597 1_555
S0 Sn1 2.385813 1_555
S1 Sn0 2.385813 1_555
S2 Sn3 2.385813 1_555
S3 Sn3 2.385813 1_555
S4 Sn2 2.385813 1_555
S5 Sn1 2.385813 1_555
S6 Sn2 2.385813 1_555
S7 Sn0 2.385813 1_555
