# generated using pymatgen
data_K4H11Ru2
_symmetry_space_group_name_H-M   'P 1'
_cell_length_a   5.86305828
_cell_length_b   8.84923180
_cell_length_c   9.97545953
_cell_angle_alpha   70.08874140
_cell_angle_beta   89.92032701
_cell_angle_gamma   89.82434349
_symmetry_Int_Tables_number   1
_chemical_formula_structural   K4H11Ru2
_chemical_formula_sum   'K8 H22 Ru4'
_cell_volume   486.62080541
_cell_formula_units_Z   2
loop_
 _symmetry_equiv_pos_site_id
 _symmetry_equiv_pos_as_xyz
  1  'x, y, z'
loop_
 _atom_site_type_symbol
 _atom_site_label
 _atom_site_symmetry_multiplicity
 _atom_site_fract_x
 _atom_site_fract_y
 _atom_site_fract_z
 _atom_site_occupancy
  K  K0  1  0.74392861  0.34790758  0.51786776  1
  K  K1  1  0.25607368  0.65205788  0.48214776  1
  K  K2  1  0.75561197  0.51905441  0.11465622  1
  K  K3  1  0.24437705  0.48095866  0.88535106  1
  K  K4  1  0.75597192  0.97717670  0.38628867  1
  K  K5  1  0.24402617  0.02281245  0.61371185  1
  K  K6  1  0.74347016  0.15243567  0.97896780  1
  K  K7  1  0.25648983  0.84757428  0.02102012  1
  H  H0  1  0.60680657  0.80916885  0.65532077  1
  H  H1  1  0.39321253  0.19083159  0.34466687  1
  H  H2  1  0.55166388  0.49263828  0.69248572  1
  H  H3  1  0.44835880  0.50737533  0.30751468  1
  H  H4  1  0.76407538  0.03348057  0.62975133  1
  H  H5  1  0.23592491  0.96650908  0.37023469  1
  H  H6  1  0.61348729  0.68705438  0.84661780  1
  H  H7  1  0.38650180  0.31294493  0.15337689  1
  H  H8  1  0.97042138  0.75078392  0.74582595  1
  H  H9  1  0.02960217  0.24921451  0.25418756  1
  H  H10  1  0.76125051  0.66243466  0.53718341  1
  H  H11  1  0.23880190  0.33755799  0.46282312  1
  H  H12  1  0.93052325  0.00877305  0.81039156  1
  H  H13  1  0.06945336  0.99124608  0.18958543  1
  H  H14  1  0.76713203  0.83438720  0.96169982  1
  H  H15  1  0.23285597  0.16563334  0.03828049  1
  H  H16  1  0.77260038  0.46568777  0.86968751  1
  H  H17  1  0.22739158  0.53433154  0.13031484  1
  H  H18  1  0.93191383  0.48925814  0.68734292  1
  H  H19  1  0.06810425  0.51073947  0.31267970  1
  H  H20  1  0.54948625  0.00205493  0.81080584  1
  H  H21  1  0.45048078  0.99795082  0.18917759  1
  Ru  Ru0  1  0.74768797  0.88243833  0.78432309  1
  Ru  Ru1  1  0.25229686  0.11754476  0.21568532  1
  Ru  Ru2  1  0.74834010  0.61505316  0.71487875  1
  Ru  Ru3  1  0.25168089  0.38492769  0.28514510  1
loop_
_geom_bond_atom_site_label_1
_geom_bond_atom_site_label_2
_geom_bond_distance
_geom_bond_site_symmetry_2
H0 Ru2 1.813787 1_555
H0 Ru0 1.825711 1_555
H0 K4 2.731548 1_555
H0 K5 2.777413 1_565
H1 Ru3 1.813636 1_555
H1 Ru1 1.825723 1_555
H1 K5 2.731711 1_555
H1 K4 2.777371 1_545
H2 Ru2 1.651146 1_555
H2 K3 2.610387 1_555
H2 K1 2.715726 1_555
H2 K0 2.729558 1_555
H3 Ru3 1.651273 1_555
H3 K2 2.610203 1_555
H3 K0 2.715848 1_555
H3 K1 2.729436 1_555
H4 Ru0 1.664298 1_545
H4 K0 2.623873 1_555
H4 K4 2.640745 1_545
H4 K5 2.821418 1_655
H5 Ru1 1.664118 1_565
H5 K1 2.624088 1_555
H5 K5 2.640885 1_565
H5 K4 2.821440 1_455
H6 Ru0 1.808272 1_555
H6 Ru2 1.822759 1_555
H6 K2 2.710141 1_556
H6 K3 2.775029 1_555
H7 Ru1 1.808406 1_555
H7 Ru3 1.822825 1_555
H7 K3 2.710066 1_554
H7 K2 2.775114 1_555
H8 Ru2 1.869932 1_555
H8 Ru0 1.871947 1_555
H8 K3 2.817364 1_655
H8 K5 2.821688 1_665
H9 Ru3 1.869852 1_555
H9 Ru1 1.871904 1_555
H9 K2 2.817579 1_455
H9 K4 2.821808 1_445
H10 Ru2 1.678453 1_555
H10 K4 2.677350 1_555
H10 K0 2.856817 1_555
H10 K1 2.958875 1_655
H10 K1 3.020448 1_555
H11 Ru3 1.678289 1_555
H11 K5 2.677361 1_555
H11 K1 2.856601 1_555
H11 K0 2.959159 1_455
H11 K0 3.020154 1_555
H12 Ru0 1.634852 1_545
H12 K5 2.658697 1_655
H12 K6 2.662576 1_555
H12 K7 2.838143 1_646
H13 Ru1 1.634770 1_565
H13 K4 2.658725 1_455
H13 K7 2.662506 1_555
H13 K6 2.838126 1_464
H14 Ru0 1.677029 1_555
H14 K2 2.687027 1_556
H14 K6 2.880625 1_565
H14 K7 2.941006 1_656
H14 K7 3.060610 1_556
H15 Ru1 1.677264 1_555
H15 K3 2.686914 1_554
H15 K7 2.880681 1_545
H15 K6 2.941161 1_454
H15 K6 3.060444 1_554
H16 Ru2 1.661709 1_555
H16 K6 2.616458 1_555
H16 K2 2.643780 1_556
H16 K3 2.776978 1_655
H17 Ru3 1.662027 1_555
H17 K7 2.616377 1_555
H17 K3 2.643759 1_554
H17 K2 2.776996 1_455
H18 Ru2 1.634984 1_555
H18 K0 2.662984 1_555
H18 K3 2.678341 1_655
H18 K1 2.806225 1_655
H19 Ru3 1.635099 1_555
H19 K1 2.662694 1_555
H19 K2 2.678539 1_455
H19 K0 2.806324 1_455
H20 Ru0 1.650066 1_545
H20 K5 2.620786 1_555
H20 K7 2.696104 1_546
H20 K6 2.722778 1_555
H21 Ru1 1.649948 1_565
H21 K4 2.621007 1_555
H21 K6 2.696060 1_564
H21 K7 2.722734 1_555
