# generated using pymatgen
data_Al2SbSe4
_symmetry_space_group_name_H-M   'P 1'
_cell_length_a   7.83031869
_cell_length_b   7.83031869
_cell_length_c   12.47863715
_cell_angle_alpha   90.00000000
_cell_angle_beta   90.00000000
_cell_angle_gamma   90.00000000
_symmetry_Int_Tables_number   1
_chemical_formula_structural   Al2SbSe4
_chemical_formula_sum   'Al8 Sb4 Se16'
_cell_volume   765.11379529
_cell_formula_units_Z   4
loop_
 _symmetry_equiv_pos_site_id
 _symmetry_equiv_pos_as_xyz
  1  'x, y, z'
loop_
 _atom_site_type_symbol
 _atom_site_label
 _atom_site_symmetry_multiplicity
 _atom_site_fract_x
 _atom_site_fract_y
 _atom_site_fract_z
 _atom_site_occupancy
  Al  Al0  1  0.00000000  0.50000000  0.75000000  1
  Al  Al1  1  0.00000000  0.50000000  0.00000000  1
  Al  Al2  1  0.00000000  0.50000000  0.25000000  1
  Al  Al3  1  0.50000000  0.00000000  0.50000000  1
  Al  Al4  1  0.50000000  0.00000000  0.25000000  1
  Al  Al5  1  0.50000000  0.00000000  0.75000000  1
  Al  Al6  1  0.00000000  0.50000000  0.50000000  1
  Al  Al7  1  0.50000000  0.00000000  0.00000000  1
  Sb  Sb0  1  0.00000000  0.00000000  0.87830325  1
  Sb  Sb1  1  0.50000000  0.50000000  0.62169675  1
  Sb  Sb2  1  0.50000000  0.50000000  0.37830325  1
  Sb  Sb3  1  0.00000000  0.00000000  0.12169675  1
  Se  Se0  1  0.33401077  0.16404591  0.87579218  1
  Se  Se1  1  0.33595409  0.16598923  0.37579218  1
  Se  Se2  1  0.83401077  0.33595409  0.37579218  1
  Se  Se3  1  0.66598923  0.83595409  0.87579218  1
  Se  Se4  1  0.33595409  0.83401077  0.62420782  1
  Se  Se5  1  0.16404591  0.33401077  0.12420782  1
  Se  Se6  1  0.33401077  0.83595409  0.12420782  1
  Se  Se7  1  0.83595409  0.33401077  0.87579218  1
  Se  Se8  1  0.83595409  0.66598923  0.12420782  1
  Se  Se9  1  0.66404591  0.16598923  0.62420782  1
  Se  Se10  1  0.16404591  0.66598923  0.87579218  1
  Se  Se11  1  0.66404591  0.83401077  0.37579218  1
  Se  Se12  1  0.16598923  0.66404591  0.37579218  1
  Se  Se13  1  0.83401077  0.66404591  0.62420782  1
  Se  Se14  1  0.16598923  0.33595409  0.62420782  1
  Se  Se15  1  0.66598923  0.16404591  0.12420782  1
loop_
_geom_bond_atom_site_label_1
_geom_bond_atom_site_label_2
_geom_bond_distance
_geom_bond_site_symmetry_2
Al0 Se10 2.409019 1_555
Al0 Se7 2.409019 1_455
Al0 Se14 2.409019 1_555
Al0 Se13 2.409019 1_455
Al1 Se8 2.396184 1_455
Al1 Se5 2.396184 1_555
Al1 Se10 2.396184 1_554
Al1 Se7 2.396184 1_454
Al2 Se12 2.409019 1_555
Al2 Se2 2.409019 1_455
Al2 Se8 2.409019 1_455
Al2 Se5 2.409019 1_555
Al3 Se9 2.396184 1_555
Al3 Se4 2.396184 1_545
Al3 Se1 2.396184 1_555
Al3 Se11 2.396184 1_545
Al4 Se1 2.409019 1_555
Al4 Se11 2.409019 1_545
Al4 Se15 2.409019 1_555
Al4 Se6 2.409019 1_545
Al5 Se3 2.409019 1_545
Al5 Se0 2.409019 1_555
Al5 Se9 2.409019 1_555
Al5 Se4 2.409019 1_545
Al6 Se13 2.396184 1_455
Al6 Se14 2.396184 1_555
Al6 Se12 2.396184 1_555
Al6 Se2 2.396184 1_455
Al7 Se15 2.396184 1_555
Al7 Se6 2.396184 1_545
Al7 Se0 2.396184 1_554
Al7 Se3 2.396184 1_544
Sb0 Se0 2.913997 1_555
Sb0 Se7 2.913997 1_455
Sb0 Se10 2.913997 1_545
Sb0 Se3 2.913997 1_445
Sb0 Sb3 3.037219 1_556
Sb1 Se13 2.913997 1_555
Sb1 Se4 2.913997 1_555
Sb1 Se9 2.913997 1_555
Sb1 Se14 2.913997 1_555
Sb1 Sb2 3.037219 1_555
Sb2 Se11 2.913997 1_555
Sb2 Se2 2.913997 1_555
Sb2 Se12 2.913997 1_555
Sb2 Se1 2.913997 1_555
Sb3 Se5 2.913997 1_555
Sb3 Se6 2.913997 1_545
Sb3 Se15 2.913997 1_455
Sb3 Se8 2.913997 1_445
