# generated using pymatgen
data_Rb4TaSbBr12
_symmetry_space_group_name_H-M   'P 1'
_cell_length_a   7.68416351
_cell_length_b   7.68416351
_cell_length_c   10.78740530
_cell_angle_alpha   90.00000000
_cell_angle_beta   90.00000000
_cell_angle_gamma   90.00000000
_symmetry_Int_Tables_number   1
_chemical_formula_structural   Rb4TaSbBr12
_chemical_formula_sum   'Rb4 Ta1 Sb1 Br12'
_cell_volume   636.95711173
_cell_formula_units_Z   1
loop_
 _symmetry_equiv_pos_site_id
 _symmetry_equiv_pos_as_xyz
  1  'x, y, z'
loop_
 _atom_site_type_symbol
 _atom_site_label
 _atom_site_symmetry_multiplicity
 _atom_site_fract_x
 _atom_site_fract_y
 _atom_site_fract_z
 _atom_site_occupancy
  Rb  Rb0  1  0.50000000  0.00000000  0.71928948  1
  Rb  Rb1  1  0.00000000  0.50000000  0.28071052  1
  Rb  Rb2  1  0.50000000  0.00000000  0.28071052  1
  Rb  Rb3  1  0.00000000  0.50000000  0.71928948  1
  Ta  Ta0  1  0.00000000  0.00000000  0.00000000  1
  Sb  Sb0  1  0.50000000  0.50000000  0.50000000  1
  Br  Br0  1  0.00000000  0.00000000  0.76561302  1
  Br  Br1  1  0.50000000  0.50000000  0.23989212  1
  Br  Br2  1  0.75671126  0.75671126  0.50000000  1
  Br  Br3  1  0.23252988  0.23252988  0.00000000  1
  Br  Br4  1  0.75671126  0.24328874  0.50000000  1
  Br  Br5  1  0.23252988  0.76747012  0.00000000  1
  Br  Br6  1  0.00000000  0.00000000  0.23438698  1
  Br  Br7  1  0.50000000  0.50000000  0.76010788  1
  Br  Br8  1  0.24328874  0.24328874  0.50000000  1
  Br  Br9  1  0.76747012  0.76747012  0.00000000  1
  Br  Br10  1  0.24328874  0.75671126  0.50000000  1
  Br  Br11  1  0.76747012  0.23252988  0.00000000  1
loop_
_geom_bond_atom_site_label_1
_geom_bond_atom_site_label_2
_geom_bond_distance
_geom_bond_site_symmetry_2
Br0 Ta0 2.528427 1_556
Br0 Rb3 3.874442 1_545
Br0 Rb0 3.874442 1_455
Br0 Rb0 3.874442 1_555
Br0 Rb3 3.874442 1_555
Br1 Sb0 2.805889 1_555
Br1 Rb1 3.867231 1_555
Br1 Rb2 3.867231 1_555
Br1 Rb2 3.867231 1_565
Br1 Rb1 3.867231 1_655
Br2 Sb0 2.789694 1_555
Br2 Rb0 3.603056 1_565
Br2 Rb3 3.603056 1_655
Br2 Rb2 3.603056 1_565
Br2 Rb1 3.603056 1_655
Br3 Ta0 2.526913 1_555
Br3 Rb1 4.072648 1_555
Br3 Rb2 4.072648 1_555
Br3 Rb0 4.072648 1_554
Br3 Rb3 4.072648 1_554
Br4 Sb0 2.789694 1_555
Br4 Rb0 3.603056 1_555
Br4 Rb2 3.603056 1_555
Br4 Rb3 3.603056 1_655
Br4 Rb1 3.603056 1_655
Br5 Ta0 2.526913 1_565
Br5 Rb1 4.072648 1_555
Br5 Rb2 4.072648 1_565
Br5 Rb3 4.072648 1_554
Br5 Rb0 4.072648 1_564
Br6 Ta0 2.528427 1_555
Br6 Rb1 3.874442 1_545
Br6 Rb1 3.874442 1_555
Br6 Rb2 3.874442 1_555
Br6 Rb2 3.874442 1_455
Br7 Sb0 2.805889 1_555
Br7 Rb3 3.867231 1_555
Br7 Rb0 3.867231 1_565
Br7 Rb3 3.867231 1_655
Br7 Rb0 3.867231 1_555
Br8 Sb0 2.789694 1_555
Br8 Rb0 3.603056 1_555
Br8 Rb3 3.603056 1_555
Br8 Rb1 3.603056 1_555
Br8 Rb2 3.603056 1_555
Br9 Ta0 2.526913 1_665
Br9 Rb2 4.072648 1_565
Br9 Rb1 4.072648 1_655
Br9 Rb3 4.072648 1_654
Br9 Rb0 4.072648 1_564
Br10 Sb0 2.789694 1_555
Br10 Rb3 3.603056 1_555
Br10 Rb1 3.603056 1_555
Br10 Rb0 3.603056 1_565
Br10 Rb2 3.603056 1_565
Br11 Ta0 2.526913 1_655
Br11 Rb2 4.072648 1_555
Br11 Rb1 4.072648 1_655
Br11 Rb0 4.072648 1_554
Br11 Rb3 4.072648 1_654
