# generated using pymatgen
data_Ta3Al2RuN
_symmetry_space_group_name_H-M   'P 1'
_cell_length_a   8.21767576
_cell_length_b   8.21767682
_cell_length_c   8.21767573
_cell_angle_alpha   60.00000439
_cell_angle_beta   60.00000011
_cell_angle_gamma   60.00000207
_symmetry_Int_Tables_number   1
_chemical_formula_structural   Ta3Al2RuN
_chemical_formula_sum   'Ta12 Al8 Ru4 N4'
_cell_volume   392.40278668
_cell_formula_units_Z   4
loop_
 _symmetry_equiv_pos_site_id
 _symmetry_equiv_pos_as_xyz
  1  'x, y, z'
loop_
 _atom_site_type_symbol
 _atom_site_label
 _atom_site_symmetry_multiplicity
 _atom_site_fract_x
 _atom_site_fract_y
 _atom_site_fract_z
 _atom_site_occupancy
  Ta  Ta0  1  0.56090811  0.93909189  0.56090811  1
  Ta  Ta1  1  0.31090811  0.68909189  0.68909189  1
  Ta  Ta2  1  0.68909189  0.31090811  0.31090811  1
  Ta  Ta3  1  0.31090811  0.68909189  0.31090811  1
  Ta  Ta4  1  0.68909189  0.68909189  0.31090811  1
  Ta  Ta5  1  0.31090811  0.31090811  0.68909189  1
  Ta  Ta6  1  0.56090811  0.56090811  0.93909189  1
  Ta  Ta7  1  0.93909189  0.56090811  0.56090811  1
  Ta  Ta8  1  0.56090811  0.93909189  0.93909189  1
  Ta  Ta9  1  0.93909189  0.93909189  0.56090811  1
  Ta  Ta10  1  0.68909189  0.31090811  0.68909189  1
  Ta  Ta11  1  0.93909189  0.56090811  0.93909189  1
  Al  Al0  1  0.91692408  0.91692408  0.91692408  1
  Al  Al1  1  0.00077025  0.33307592  0.33307592  1
  Al  Al2  1  0.33307592  0.00077025  0.33307592  1
  Al  Al3  1  0.33307592  0.33307592  0.00077025  1
  Al  Al4  1  0.91692408  0.24922975  0.91692408  1
  Al  Al5  1  0.91692408  0.91692408  0.24922975  1
  Al  Al6  1  0.24922975  0.91692408  0.91692408  1
  Al  Al7  1  0.33307592  0.33307592  0.33307592  1
  Ru  Ru0  1  0.12500000  0.12500000  0.12500000  1
  Ru  Ru1  1  0.62500000  0.12500000  0.12500000  1
  Ru  Ru2  1  0.12500000  0.62500000  0.12500000  1
  Ru  Ru3  1  0.12500000  0.12500000  0.62500000  1
  N  N0  1  0.62500000  0.62500000  0.62500000  1
  N  N1  1  0.12500000  0.62500000  0.62500000  1
  N  N2  1  0.62500000  0.12500000  0.62500000  1
  N  N3  1  0.62500000  0.62500000  0.12500000  1
loop_
_geom_bond_atom_site_label_1
_geom_bond_atom_site_label_2
_geom_bond_distance
_geom_bond_site_symmetry_2
Al0 Ru1 2.514417 1_566
Al0 Ru3 2.514417 1_665
Al0 Ru2 2.514417 1_656
Al1 Ru0 2.514412 1_555
Al1 Ru3 2.514426 1_555
Al1 Ru2 2.514426 1_555
Al2 Ru0 2.514412 1_555
Al2 Ru3 2.514426 1_555
Al2 Ru1 2.514426 1_555
Al3 Ru0 2.514412 1_555
Al3 Ru1 2.514426 1_555
Al3 Ru2 2.514426 1_555
Al4 Ru0 2.514412 1_656
Al4 Ru3 2.514426 1_655
Al4 Ru1 2.514426 1_556
Al5 Ru0 2.514412 1_665
Al5 Ru1 2.514426 1_565
Al5 Ru2 2.514426 1_655
Al6 Ru0 2.514412 1_566
Al6 Ru3 2.514426 1_565
Al6 Ru2 2.514426 1_556
Al7 Ru1 2.514417 1_555
Al7 Ru3 2.514417 1_555
Al7 Ru2 2.514417 1_555
Ru0 Ta8 2.981371 1_544
Ru0 Ta2 2.981371 1_455
Ru0 Ta9 2.981371 1_445
Ru0 Ta5 2.981371 1_554
Ru0 Ta11 2.981371 1_454
Ru0 Ta3 2.981371 1_545
Ru1 Ta2 2.981371 1_555
Ru1 Ta8 2.981371 1_544
Ru1 Ta0 2.981371 1_545
Ru1 Ta10 2.981371 1_554
Ru1 Ta6 2.981371 1_554
Ru1 Ta4 2.981371 1_545
Ru2 Ta6 2.981371 1_554
Ru2 Ta4 2.981371 1_455
Ru2 Ta7 2.981371 1_455
Ru2 Ta1 2.981371 1_554
Ru2 Ta3 2.981371 1_555
Ru2 Ta11 2.981371 1_454
Ru3 Ta0 2.981371 1_545
Ru3 Ta10 2.981371 1_455
Ru3 Ta5 2.981371 1_555
Ru3 Ta9 2.981371 1_445
Ru3 Ta7 2.981371 1_455
Ru3 Ta1 2.981371 1_545
N0 Ta7 2.185277 1_555
N0 Ta1 2.185277 1_555
N0 Ta6 2.185277 1_555
N0 Ta4 2.185277 1_555
N0 Ta0 2.185277 1_555
N0 Ta10 2.185277 1_555
N1 Ta11 2.185277 1_455
N1 Ta3 2.185277 1_555
N1 Ta1 2.185277 1_555
N1 Ta7 2.185277 1_455
N1 Ta9 2.185277 1_455
N1 Ta5 2.185277 1_555
N2 Ta9 2.185277 1_545
N2 Ta5 2.185277 1_555
N2 Ta10 2.185277 1_555
N2 Ta0 2.185277 1_545
N2 Ta8 2.185277 1_545
N2 Ta2 2.185277 1_555
N3 Ta11 2.185277 1_554
N3 Ta3 2.185277 1_555
N3 Ta4 2.185277 1_555
N3 Ta6 2.185277 1_554
N3 Ta8 2.185277 1_554
N3 Ta2 2.185277 1_555
