# generated using pymatgen
data_Y4Lu8In2Tc3
_symmetry_space_group_name_H-M   'P 1'
_cell_length_a   8.32905995
_cell_length_b   8.32906077
_cell_length_c   8.32906091
_cell_angle_alpha   108.74165244
_cell_angle_beta   108.74166100
_cell_angle_gamma   110.94040970
_symmetry_Int_Tables_number   1
_chemical_formula_structural   Y4Lu8In2Tc3
_chemical_formula_sum   'Y4 Lu8 In2 Tc3'
_cell_volume   444.58145582
_cell_formula_units_Z   1
loop_
 _symmetry_equiv_pos_site_id
 _symmetry_equiv_pos_as_xyz
  1  'x, y, z'
loop_
 _atom_site_type_symbol
 _atom_site_label
 _atom_site_symmetry_multiplicity
 _atom_site_fract_x
 _atom_site_fract_y
 _atom_site_fract_z
 _atom_site_occupancy
  Y  Y0  1  0.30223611  0.30223611  0.60447322  1
  Y  Y1  1  0.69776389  0.69776389  0.39552678  1
  Y  Y2  1  0.69776389  0.30223611  0.00000000  1
  Y  Y3  1  0.30223611  0.69776389  1.00000000  1
  Lu  Lu0  1  0.18784770  0.42580157  0.23795387  1
  Lu  Lu1  1  0.81215230  0.57419843  0.76204613  1
  Lu  Lu2  1  0.18784770  0.94989383  0.76204613  1
  Lu  Lu3  1  0.94989383  0.18784770  0.76204613  1
  Lu  Lu4  1  0.81215230  0.05010617  0.23795387  1
  Lu  Lu5  1  0.05010617  0.81215230  0.23795387  1
  Lu  Lu6  1  0.42580157  0.18784770  0.23795387  1
  Lu  Lu7  1  0.57419843  0.81215230  0.76204613  1
  In  In0  1  0.00000000  0.50000000  0.50000000  1
  In  In1  1  0.50000000  0.00000000  0.50000000  1
  Tc  Tc0  1  0.37460642  0.37460642  1.00000000  1
  Tc  Tc1  1  0.62539358  0.62539358  0.00000000  1
  Tc  Tc2  1  0.00000000  0.00000000  0.00000000  1
loop_
_geom_bond_atom_site_label_1
_geom_bond_atom_site_label_2
_geom_bond_distance
_geom_bond_site_symmetry_2
Lu0 Tc0 2.905458 1_554
Lu0 Tc2 2.911711 1_555
Lu1 Tc1 2.905458 1_556
Lu1 Tc2 2.911711 1_666
Lu2 Tc0 2.905459 1_565
Lu2 Tc2 2.911711 1_566
Lu3 Tc0 2.905458 1_655
Lu3 Tc2 2.911711 1_656
Lu4 Tc1 2.905459 1_545
Lu4 Tc2 2.911711 1_655
Lu5 Tc1 2.905458 1_455
Lu5 Tc2 2.911711 1_565
Lu6 Tc0 2.905458 1_554
Lu6 Tc2 2.911711 1_555
Lu7 Tc1 2.905458 1_556
Lu7 Tc2 2.911711 1_666
In0 Lu1 3.100388 1_455
In0 Lu0 3.100388 1_555
In0 Lu2 3.100389 1_555
In0 Lu4 3.100389 1_455
In0 Y3 3.504964 1_555
In0 Y2 3.504964 1_455
In0 Y0 3.504965 1_555
In0 Y1 3.504965 1_455
In0 Lu7 3.892793 1_555
In0 Lu6 3.892793 1_455
In0 Lu5 3.892794 1_555
In0 Lu3 3.892794 1_455
In1 Lu3 3.100388 1_555
In1 Lu5 3.100388 1_545
In1 Lu7 3.100388 1_545
In1 Lu6 3.100388 1_555
In1 Y2 3.504964 1_556
In1 Y3 3.504964 1_544
In1 Y0 3.504965 1_555
In1 Y1 3.504965 1_545
In1 Lu4 3.892793 1_555
In1 Lu2 3.892793 1_545
In1 Lu1 3.892794 1_555
In1 Lu0 3.892794 1_545
Tc0 Tc1 2.368033 1_556
Tc0 Y0 2.961030 1_555
Tc0 Y1 2.961034 1_556
Tc0 Y2 2.961038 1_556
Tc0 Y3 2.961038 1_555
Tc1 Y1 2.961030 1_555
Tc1 Y0 2.961034 1_554
Tc1 Y3 2.961038 1_554
Tc1 Y2 2.961038 1_555
