# generated using pymatgen
data_Li2Hf6BBr15
_symmetry_space_group_name_H-M   'P 1'
_cell_length_a   9.27608938
_cell_length_b   9.27574573
_cell_length_c   9.27609374
_cell_angle_alpha   108.26843531
_cell_angle_beta   108.27364053
_cell_angle_gamma   111.90100691
_symmetry_Int_Tables_number   1
_chemical_formula_structural   Li2Hf6BBr15
_chemical_formula_sum   'Li2 Hf6 B1 Br15'
_cell_volume   613.56259524
_cell_formula_units_Z   1
loop_
 _symmetry_equiv_pos_site_id
 _symmetry_equiv_pos_as_xyz
  1  'x, y, z'
loop_
 _atom_site_type_symbol
 _atom_site_label
 _atom_site_symmetry_multiplicity
 _atom_site_fract_x
 _atom_site_fract_y
 _atom_site_fract_z
 _atom_site_occupancy
  Li  Li0  1  0.25003377  0.74996328  0.50000369  1
  Li  Li1  1  0.74996623  0.25003672  0.49999631  1
  Hf  Hf0  1  0.77835571  0.77834315  0.99998927  1
  Hf  Hf1  1  0.00000998  0.20868168  0.20869640  1
  Hf  Hf2  1  0.20869145  0.99997850  0.20867598  1
  Hf  Hf3  1  0.22164429  0.22165685  0.00001073  1
  Hf  Hf4  1  0.99999002  0.79131832  0.79130360  1
  Hf  Hf5  1  0.79130855  0.00002150  0.79132402  1
  B  B0  1  0.00000000  0.00000000  0.00000000  1
  Br  Br0  1  0.50000000  0.50000000  0.00000000  1
  Br  Br1  1  0.00000000  0.50000000  0.50000000  1
  Br  Br2  1  0.50000000  0.00000000  0.50000000  1
  Br  Br3  1  0.24144701  0.24140294  0.48289895  1
  Br  Br4  1  0.99108687  0.74693785  0.24411235  1
  Br  Br5  1  0.74697278  0.99105249  0.24409549  1
  Br  Br6  1  0.24144526  0.75853150  0.99997645  1
  Br  Br7  1  0.49716894  0.25306494  0.24414159  1
  Br  Br8  1  0.25302722  0.00894751  0.75590451  1
  Br  Br9  1  0.75855474  0.24146850  0.00002355  1
  Br  Br10  1  0.00891313  0.25306215  0.75588765  1
  Br  Br11  1  0.25304840  0.49717241  0.24412504  1
  Br  Br12  1  0.75855299  0.75859706  0.51710105  1
  Br  Br13  1  0.50283106  0.74693506  0.75585841  1
  Br  Br14  1  0.74695160  0.50282759  0.75587496  1
loop_
_geom_bond_atom_site_label_1
_geom_bond_atom_site_label_2
_geom_bond_distance
_geom_bond_site_symmetry_2
B0 Hf1 2.268251 1_555
B0 Hf4 2.268251 1_444
B0 Hf2 2.268264 1_545
B0 Hf5 2.268264 1_454
B0 Hf3 2.302304 1_555
B0 Hf0 2.302304 1_444
Br0 Hf0 2.891365 1_554
Br0 Hf3 2.891365 1_555
Br1 Li0 2.596800 1_555
Br1 Li1 2.596800 1_455
Br1 Hf4 3.166403 1_455
Br1 Hf1 3.166403 1_555
Br2 Li1 2.596869 1_555
Br2 Li0 2.596869 1_545
Br2 Hf5 3.166150 1_555
Br2 Hf2 3.166150 1_545
Br3 Hf1 2.648399 1_555
Br3 Hf2 2.648419 1_545
Br4 Hf2 2.656490 1_655
Br4 Hf0 2.673375 1_554
Br4 Li0 2.781582 1_655
Br5 Hf1 2.656380 1_665
Br5 Hf0 2.673169 1_554
Br5 Li1 2.782131 1_565
Br6 Hf2 2.648428 1_556
Br6 Hf4 2.648443 1_455
Br7 Hf2 2.656561 1_545
Br7 Hf3 2.673310 1_555
Br7 Li1 2.780862 1_555
Br8 Hf4 2.656380 1_445
Br8 Hf3 2.673169 1_556
Br8 Li0 2.782131 1_545
Br9 Hf5 2.648428 1_554
Br9 Hf1 2.648443 1_655
Br10 Hf5 2.656490 1_455
Br10 Hf3 2.673375 1_556
Br10 Li1 2.781582 1_455
Br11 Hf1 2.656573 1_555
Br11 Hf3 2.673294 1_555
Br11 Li0 2.781009 1_555
Br12 Hf4 2.648399 1_555
Br12 Hf5 2.648419 1_565
Br13 Hf5 2.656561 1_565
Br13 Hf0 2.673310 1_555
Br13 Li0 2.780862 1_555
Br14 Hf4 2.656573 1_555
Br14 Hf0 2.673294 1_555
Br14 Li1 2.781009 1_555
