# generated using pymatgen
data_Nd2EuSe4
_symmetry_space_group_name_H-M   'P 1'
_cell_length_a   7.79587595
_cell_length_b   7.79607533
_cell_length_c   7.79607766
_cell_angle_alpha   109.38937791
_cell_angle_beta   109.38786684
_cell_angle_gamma   109.63651805
_symmetry_Int_Tables_number   1
_chemical_formula_structural   Nd2EuSe4
_chemical_formula_sum   'Nd4 Eu2 Se8'
_cell_volume   364.74776364
_cell_formula_units_Z   2
loop_
 _symmetry_equiv_pos_site_id
 _symmetry_equiv_pos_as_xyz
  1  'x, y, z'
loop_
 _atom_site_type_symbol
 _atom_site_label
 _atom_site_symmetry_multiplicity
 _atom_site_fract_x
 _atom_site_fract_y
 _atom_site_fract_z
 _atom_site_occupancy
  Nd  Nd0  1  0.12316678  0.75000319  0.87317330  1
  Nd  Nd1  1  0.25000175  0.62317740  0.37316928  1
  Nd  Nd2  1  0.37682232  0.24999469  0.62682071  1
  Nd  Nd3  1  0.75000373  0.87683220  0.12682866  1
  Eu  Eu0  1  0.62500089  0.37500443  0.25000441  1
  Eu  Eu1  1  0.87499991  0.12500826  0.74999851  1
  Se  Se0  1  0.14359073  0.14336415  0.14906237  1
  Se  Se1  1  0.49431263  0.99452442  0.35093718  1
  Se  Se2  1  0.35639008  0.50546641  -0.00021744  1
  Se  Se3  1  0.64338262  0.64359772  0.64906841  1
  Se  Se4  1  0.49452703  0.99431581  0.85092654  1
  Se  Se5  1  0.00547709  0.85639755  0.49978347  1
  Se  Se6  1  0.85663191  0.50569842  0.00022121  1
  Se  Se7  1  0.00569253  0.35661533  0.50022338  1
loop_
_geom_bond_atom_site_label_1
_geom_bond_atom_site_label_2
_geom_bond_distance
_geom_bond_site_symmetry_2
Nd0 Se6 2.980815 1_456
Nd0 Se4 2.980932 1_555
Nd0 Se0 3.020085 1_566
Nd0 Se7 3.020262 1_555
Nd0 Se2 3.209690 1_556
Nd0 Se1 3.209730 1_556
Nd0 Se3 3.216271 1_455
Nd0 Se5 3.216371 1_555
Nd1 Se1 2.980822 1_555
Nd1 Se7 2.981004 1_555
Nd1 Se6 3.020155 1_455
Nd1 Se3 3.020235 1_555
Nd1 Se5 3.209561 1_555
Nd1 Se4 3.209674 1_555
Nd1 Se2 3.216279 1_555
Nd1 Se0 3.216515 1_555
Nd2 Se5 2.980873 1_545
Nd2 Se3 2.980946 1_555
Nd2 Se1 3.020169 1_545
Nd2 Se2 3.020285 1_556
Nd2 Se7 3.209569 1_555
Nd2 Se0 3.209672 1_555
Nd2 Se4 3.216364 1_545
Nd2 Se6 3.216464 1_556
Nd3 Se0 2.980790 1_665
Nd3 Se2 2.981002 1_555
Nd3 Se4 3.020285 1_554
Nd3 Se5 3.020294 1_655
Nd3 Se6 3.209666 1_555
Nd3 Se3 3.209693 1_554
Nd3 Se7 3.216350 1_665
Nd3 Se1 3.216355 1_555
Eu0 Se3 3.043222 1_555
Eu0 Se2 3.043307 1_555
Eu0 Se4 3.043311 1_544
Eu0 Se7 3.043320 1_655
Eu0 Se5 3.241270 1_655
Eu0 Se0 3.241293 1_555
Eu0 Se6 3.241371 1_555
Eu0 Se1 3.241404 1_545
Eu1 Se1 3.043205 1_545
Eu1 Se6 3.043232 1_556
Eu1 Se5 3.043333 1_645
Eu1 Se0 3.043351 1_656
Eu1 Se2 3.241180 1_656
Eu1 Se7 3.241223 1_655
Eu1 Se4 3.241256 1_545
Eu1 Se3 3.241380 1_545
