# generated using pymatgen
data_Nb6Ir2RuRh15
_symmetry_space_group_name_H-M   'P 1'
_cell_length_a   5.50816072
_cell_length_b   5.50145010
_cell_length_c   13.39793174
_cell_angle_alpha   90.00000000
_cell_angle_beta   90.00000000
_cell_angle_gamma   119.95970199
_symmetry_Int_Tables_number   1
_chemical_formula_structural   Nb6Ir2RuRh15
_chemical_formula_sum   'Nb6 Ir2 Ru1 Rh15'
_cell_volume   351.74536628
_cell_formula_units_Z   1
loop_
 _symmetry_equiv_pos_site_id
 _symmetry_equiv_pos_as_xyz
  1  'x, y, z'
loop_
 _atom_site_type_symbol
 _atom_site_label
 _atom_site_symmetry_multiplicity
 _atom_site_fract_x
 _atom_site_fract_y
 _atom_site_fract_z
 _atom_site_occupancy
  Nb  Nb0  1  0.00096359  0.00048130  0.25000000  1
  Nb  Nb1  1  0.99860825  0.99930413  0.75000000  1
  Nb  Nb2  1  0.33108546  0.66554323  0.40925319  1
  Nb  Nb3  1  0.66688515  0.33344307  0.58952138  1
  Nb  Nb4  1  0.66688515  0.33344307  0.91047862  1
  Nb  Nb5  1  0.33108546  0.66554323  0.09074681  1
  Ir  Ir0  1  0.50586099  0.49630377  0.25000000  1
  Ir  Ir1  1  0.50586099  0.00955922  0.25000000  1
  Ru  Ru0  1  0.99219545  0.49609773  0.25000000  1
  Rh  Rh0  1  0.49471930  0.50371314  0.75000000  1
  Rh  Rh1  1  0.49471930  0.99100616  0.75000000  1
  Rh  Rh2  1  0.00808479  0.50404239  0.75000000  1
  Rh  Rh3  1  0.16548244  0.33091616  0.91747460  1
  Rh  Rh4  1  0.66816227  0.83408064  0.91699935  1
  Rh  Rh5  1  0.16548244  0.83456428  0.91747460  1
  Rh  Rh6  1  0.83552541  0.66944391  0.08256392  1
  Rh  Rh7  1  0.33134561  0.16567281  0.08247899  1
  Rh  Rh8  1  0.83552541  0.16608150  0.08256392  1
  Rh  Rh9  1  0.83552541  0.66944391  0.41743608  1
  Rh  Rh10  1  0.33134561  0.16567281  0.41752101  1
  Rh  Rh11  1  0.83552541  0.16608150  0.41743608  1
  Rh  Rh12  1  0.16548244  0.33091616  0.58252540  1
  Rh  Rh13  1  0.66816227  0.83408064  0.58300065  1
  Rh  Rh14  1  0.16548244  0.83456428  0.58252540  1
loop_
_geom_bond_atom_site_label_1
_geom_bond_atom_site_label_2
_geom_bond_distance
_geom_bond_site_symmetry_2
Nb0 Rh9 2.742616 1_445
Nb0 Rh6 2.742616 1_445
Nb0 Rh11 2.742619 1_455
Nb0 Rh8 2.742619 1_455
Nb0 Rh10 2.742855 1_555
Nb0 Rh7 2.742855 1_555
Nb0 Ru0 2.751041 1_445
Nb0 Ru0 2.751046 1_455
Nb1 Rh4 2.737314 1_555
Nb1 Rh13 2.737314 1_555
Nb1 Rh3 2.744626 1_665
Nb1 Rh12 2.744626 1_665
Nb1 Rh5 2.744631 1_655
Nb1 Rh14 2.744631 1_655
Nb1 Rh2 2.751097 1_655
Nb1 Rh2 2.751097 1_665
Nb1 Rh1 2.752988 1_555
Nb1 Rh0 2.752988 1_555
Nb1 Rh1 2.755741 1_655
Nb1 Rh0 2.755741 1_665
Nb2 Ru0 2.677304 1_455
Nb2 Rh9 2.742596 1_455
Nb2 Rh11 2.742599 1_455
Nb2 Rh10 2.752952 1_565
Nb2 Rh10 2.752958 1_555
Nb2 Rh11 2.770050 1_565
Nb2 Rh9 2.770053 1_555
Nb2 Rh14 2.816587 1_555
Nb2 Rh12 2.816595 1_555
Nb2 Rh13 2.829566 1_555
Nb3 Rh2 2.697047 1_655
Nb3 Rh0 2.699419 1_555
Nb3 Rh1 2.699421 1_545
Nb3 Rh13 2.752113 1_555
Nb3 Rh13 2.752124 1_545
Nb3 Rh14 2.754910 1_655
Nb3 Rh12 2.754918 1_655
Nb3 Rh12 2.756485 1_555
Nb3 Rh14 2.756493 1_545
Nb3 Rh10 2.806148 1_555
Nb3 Rh9 2.807230 1_555
Nb3 Rh11 2.807232 1_555
Nb4 Rh2 2.697047 1_655
Nb4 Rh0 2.699419 1_555
Nb4 Rh1 2.699421 1_545
Nb4 Rh4 2.752113 1_555
Nb4 Rh4 2.752124 1_545
Nb4 Rh5 2.754910 1_655
Nb4 Rh3 2.754918 1_655
Nb4 Rh3 2.756485 1_555
Nb4 Rh5 2.756493 1_545
Nb4 Rh7 2.806148 1_556
Nb4 Rh6 2.807230 1_556
Nb4 Rh8 2.807232 1_556
Nb5 Ru0 2.677304 1_455
Nb5 Rh6 2.742596 1_455
Nb5 Rh8 2.742599 1_455
Nb5 Rh7 2.752952 1_565
Nb5 Rh7 2.752958 1_555
Nb5 Rh8 2.770050 1_565
Nb5 Rh6 2.770053 1_555
Nb5 Rh5 2.816587 1_554
Nb5 Rh3 2.816595 1_554
Nb5 Rh4 2.829566 1_554
Ir0 Ir1 2.677801 1_555
Ir0 Ru0 2.679375 1_555
Ir0 Nb5 2.690986 1_555
Ir0 Nb2 2.690986 1_555
Ir0 Rh9 2.740337 1_555
Ir0 Rh6 2.740337 1_555
Ir0 Rh10 2.742943 1_555
Ir0 Rh7 2.742943 1_555
Ir0 Nb0 2.752377 1_665
Ir0 Nb0 2.756463 1_555
Ir0 Ir1 2.823649 1_565
Ir0 Ru0 2.828786 1_455
Ir1 Ru0 2.679369 1_555
Ir1 Nb5 2.690989 1_545
Ir1 Nb2 2.690989 1_545
Ir1 Rh11 2.740337 1_555
Ir1 Rh8 2.740337 1_555
Ir1 Rh10 2.742937 1_555
Ir1 Rh7 2.742937 1_555
Ir1 Nb0 2.752385 1_655
Ir1 Nb0 2.756455 1_555
Ir1 Ru0 2.828792 1_445
Rh0 Rh1 2.680818 1_555
Rh0 Rh2 2.681366 1_555
Rh0 Rh4 2.736409 1_555
Rh0 Rh13 2.736409 1_555
Rh0 Rh3 2.739577 1_555
Rh0 Rh12 2.739577 1_555
Rh0 Rh1 2.820632 1_545
Rh0 Rh2 2.826795 1_655
Rh1 Rh2 2.681366 1_555
Rh1 Rh4 2.736411 1_555
Rh1 Rh13 2.736411 1_555
Rh1 Rh5 2.739577 1_555
Rh1 Rh14 2.739577 1_555
Rh1 Rh2 2.826796 1_665
Rh2 Rh5 2.741933 1_555
Rh2 Rh3 2.741939 1_555
Rh3 Rh8 2.715083 1_456
Rh3 Rh7 2.716226 1_556
Rh3 Rh5 2.730655 1_545
Rh3 Rh4 2.737996 1_445
Rh3 Rh4 2.770181 1_555
Rh3 Rh5 2.770795 1_555
Rh4 Rh6 2.724823 1_556
Rh4 Rh8 2.724826 1_566
Rh4 Rh5 2.737999 1_655
Rh4 Rh5 2.770178 1_555
Rh5 Rh6 2.715083 1_456
Rh5 Rh7 2.716232 1_566
Rh6 Rh7 2.732181 1_665
Rh6 Rh8 2.732227 1_565
Rh6 Ru0 2.740167 1_555
Rh6 Rh8 2.769223 1_555
Rh6 Rh7 2.775982 1_555
Rh7 Rh8 2.732181 1_455
Rh7 Rh8 2.775981 1_555
Rh8 Ru0 2.740167 1_555
Rh9 Ru0 2.740167 1_555
Rh10 Rh12 2.716226 1_555
Rh10 Rh14 2.716232 1_545
Rh10 Rh11 2.732181 1_455
Rh10 Rh9 2.732181 1_445
Rh10 Rh11 2.775981 1_555
Rh10 Rh9 2.775982 1_555
Rh11 Rh12 2.715083 1_655
Rh11 Rh13 2.724826 1_545
Rh11 Rh9 2.732227 1_545
Rh11 Ru0 2.740167 1_555
Rh11 Rh9 2.769223 1_555
Rh12 Rh14 2.730655 1_545
Rh12 Rh13 2.737996 1_445
Rh12 Rh2 2.741939 1_555
Rh12 Rh13 2.770181 1_555
Rh12 Rh14 2.770795 1_555
Rh13 Rh9 2.724823 1_555
Rh13 Rh14 2.737999 1_655
Rh13 Rh14 2.770178 1_555
Rh14 Rh9 2.715083 1_455
Rh14 Rh2 2.741933 1_555
