# generated using pymatgen
data_HfScCuSe4
_symmetry_space_group_name_H-M   'P 1'
_cell_length_a   7.70279682
_cell_length_b   7.70279865
_cell_length_c   7.70279785
_cell_angle_alpha   120.15030479
_cell_angle_beta   119.87058200
_cell_angle_gamma   89.98209234
_symmetry_Int_Tables_number   1
_chemical_formula_structural   HfScCuSe4
_chemical_formula_sum   'Hf2 Sc2 Cu2 Se8'
_cell_volume   323.11612914
_cell_formula_units_Z   2
loop_
 _symmetry_equiv_pos_site_id
 _symmetry_equiv_pos_as_xyz
  1  'x, y, z'
loop_
 _atom_site_type_symbol
 _atom_site_label
 _atom_site_symmetry_multiplicity
 _atom_site_fract_x
 _atom_site_fract_y
 _atom_site_fract_z
 _atom_site_occupancy
  Hf  Hf0  1  0.00000000  0.50000000  0.00000000  1
  Hf  Hf1  1  0.00000000  0.00000000  0.50000000  1
  Sc  Sc0  1  0.50000000  0.50000000  0.00000000  1
  Sc  Sc1  1  0.00000000  0.50000000  0.50000000  1
  Cu  Cu0  1  0.62904442  0.87904442  0.75000000  1
  Cu  Cu1  1  0.37095558  0.12095558  0.25000000  1
  Se  Se0  1  0.24199351  0.74969387  0.49229964  1
  Se  Se1  1  0.75739423  0.74969387  0.00770036  1
  Se  Se2  1  0.75632229  0.75110949  0.49478820  1
  Se  Se3  1  0.75632229  0.26153309  0.00521180  1
  Se  Se4  1  0.75800649  0.25030613  0.50770036  1
  Se  Se5  1  0.24260577  0.25030613  0.99229964  1
  Se  Se6  1  0.24367771  0.24889051  0.50521180  1
  Se  Se7  1  0.24367771  0.73846691  0.99478820  1
loop_
_geom_bond_atom_site_label_1
_geom_bond_atom_site_label_2
_geom_bond_distance
_geom_bond_site_symmetry_2
Hf0 Se7 2.655201 1_554
Hf0 Se3 2.655201 1_455
Hf0 Se4 2.681142 1_454
Hf0 Se0 2.681142 1_555
Hf0 Se1 2.681142 1_455
Hf0 Se5 2.681142 1_554
Hf1 Se6 2.655201 1_555
Hf1 Se2 2.655201 1_445
Hf1 Se5 2.681142 1_555
Hf1 Se1 2.681142 1_445
Hf1 Se4 2.681142 1_455
Hf1 Se0 2.681142 1_545
Sc0 Se2 2.695691 1_555
Sc0 Se6 2.695691 1_554
Sc0 Se3 2.695697 1_555
Sc0 Se7 2.695697 1_554
Sc0 Se1 2.721089 1_555
Sc0 Se5 2.721089 1_554
Sc1 Se6 2.695686 1_555
Sc1 Se2 2.695686 1_455
Sc1 Se7 2.695691 1_555
Sc1 Se3 2.695691 1_455
Sc1 Se0 2.721090 1_555
Sc1 Se4 2.721090 1_455
Cu0 Se3 2.402066 1_566
Cu0 Se2 2.402073 1_555
Cu0 Se0 2.437580 1_555
Cu0 Se1 2.437580 1_556
Cu1 Se7 2.402066 1_544
Cu1 Se6 2.402073 1_555
Cu1 Se4 2.437580 1_555
Cu1 Se5 2.437580 1_554
