# generated using pymatgen
data_Ag2Sn3RuSe8
_symmetry_space_group_name_H-M   'P 1'
_cell_length_a   7.85883009
_cell_length_b   7.85883026
_cell_length_c   7.85883033
_cell_angle_alpha   60.42605049
_cell_angle_beta   60.42605254
_cell_angle_gamma   60.42605957
_symmetry_Int_Tables_number   1
_chemical_formula_structural   Ag2Sn3RuSe8
_chemical_formula_sum   'Ag2 Sn3 Ru1 Se8'
_cell_volume   346.51531953
_cell_formula_units_Z   1
loop_
 _symmetry_equiv_pos_site_id
 _symmetry_equiv_pos_as_xyz
  1  'x, y, z'
loop_
 _atom_site_type_symbol
 _atom_site_label
 _atom_site_symmetry_multiplicity
 _atom_site_fract_x
 _atom_site_fract_y
 _atom_site_fract_z
 _atom_site_occupancy
  Ag  Ag0  1  0.38469642  0.38469642  0.38469642  1
  Ag  Ag1  1  0.61530358  0.61530358  0.61530358  1
  Sn  Sn0  1  0.00000000  0.50000000  0.00000000  1
  Sn  Sn1  1  0.00000000  0.00000000  0.50000000  1
  Sn  Sn2  1  0.50000000  0.00000000  0.00000000  1
  Ru  Ru0  1  0.00000000  0.00000000  0.00000000  1
  Se  Se0  1  0.77422330  0.21266571  0.77422330  1
  Se  Se1  1  0.75250695  0.75250695  0.75250695  1
  Se  Se2  1  0.78733429  0.22577670  0.22577670  1
  Se  Se3  1  0.22577670  0.22577670  0.78733429  1
  Se  Se4  1  0.22577670  0.78733429  0.22577670  1
  Se  Se5  1  0.24749305  0.24749305  0.24749305  1
  Se  Se6  1  0.21266571  0.77422330  0.77422330  1
  Se  Se7  1  0.77422330  0.77422330  0.21266571  1
loop_
_geom_bond_atom_site_label_1
_geom_bond_atom_site_label_2
_geom_bond_distance
_geom_bond_site_symmetry_2
Ag0 Se3 2.621073 1_555
Ag0 Se4 2.621074 1_555
Ag0 Se2 2.621074 1_555
Ag0 Se5 2.632646 1_555
Ag1 Se7 2.621073 1_555
Ag1 Se0 2.621074 1_555
Ag1 Se6 2.621074 1_555
Ag1 Se1 2.632646 1_555
Ru0 Se3 2.518552 1_554
Ru0 Se7 2.518552 1_445
Ru0 Se4 2.518552 1_545
Ru0 Se0 2.518552 1_454
Ru0 Se2 2.518552 1_455
Ru0 Se6 2.518552 1_544
Se0 Sn2 2.727547 1_556
Se0 Sn1 2.727547 1_655
Se1 Sn1 2.760155 1_665
Se1 Sn0 2.760155 1_656
Se1 Sn2 2.760155 1_566
Se2 Sn0 2.727547 1_655
Se2 Sn1 2.727547 1_655
Se3 Sn2 2.727547 1_556
Se3 Sn0 2.727547 1_556
Se4 Sn2 2.727547 1_565
Se4 Sn1 2.727547 1_565
Se5 Sn1 2.760155 1_555
Se5 Sn0 2.760155 1_555
Se5 Sn2 2.760155 1_555
Se6 Sn0 2.727547 1_556
Se6 Sn1 2.727547 1_565
Se7 Sn2 2.727547 1_565
Se7 Sn0 2.727547 1_655
