# generated using pymatgen
data_Sn5(BRh3)2
_symmetry_space_group_name_H-M   'P 1'
_cell_length_a   6.61245036
_cell_length_b   6.61245055
_cell_length_c   5.58831093
_cell_angle_alpha   90.00000000
_cell_angle_beta   90.00000000
_cell_angle_gamma   119.99999906
_symmetry_Int_Tables_number   1
_chemical_formula_structural   Sn5(BRh3)2
_chemical_formula_sum   'Sn5 B2 Rh6'
_cell_volume   211.60993788
_cell_formula_units_Z   1
loop_
 _symmetry_equiv_pos_site_id
 _symmetry_equiv_pos_as_xyz
  1  'x, y, z'
loop_
 _atom_site_type_symbol
 _atom_site_label
 _atom_site_symmetry_multiplicity
 _atom_site_fract_x
 _atom_site_fract_y
 _atom_site_fract_z
 _atom_site_occupancy
  Sn  Sn0  1  0.40340771  0.40340771  -0.00000000  1
  Sn  Sn1  1  0.59659229  -0.00000000  -0.00000000  1
  Sn  Sn2  1  0.00000000  0.59659229  -0.00000000  1
  Sn  Sn3  1  0.66666700  0.33333300  0.50000000  1
  Sn  Sn4  1  0.33333300  0.66666700  0.50000000  1
  B  B0  1  -0.00000000  -0.00000000  0.50000000  1
  B  B1  1  -0.00000000  -0.00000000  -0.00000000  1
  Rh  Rh0  1  0.25204280  -0.00000000  0.74714069  1
  Rh  Rh1  1  0.74795720  0.74795720  0.25285931  1
  Rh  Rh2  1  0.00000000  0.25204280  0.25285931  1
  Rh  Rh3  1  0.25204280  -0.00000000  0.25285931  1
  Rh  Rh4  1  0.74795720  0.74795720  0.74714069  1
  Rh  Rh5  1  0.00000000  0.25204280  0.74714069  1
loop_
_geom_bond_atom_site_label_1
_geom_bond_atom_site_label_2
_geom_bond_distance
_geom_bond_site_symmetry_2
B0 Rh3 2.164500 1_555
B0 Rh0 2.164500 1_555
B0 Rh2 2.164500 1_555
B0 Rh1 2.164500 1_445
B0 Rh4 2.164500 1_445
B0 Rh5 2.164500 1_555
B1 Rh0 2.185029 1_554
B1 Rh3 2.185029 1_555
B1 Rh4 2.185029 1_444
B1 Rh5 2.185029 1_554
B1 Rh1 2.185029 1_445
B1 Rh2 2.185029 1_555
B1 Sn1 2.667513 1_455
B1 Sn2 2.667514 1_545
B1 Sn0 2.667514 1_555
Rh0 Sn1 2.680943 1_556
Rh0 Sn0 2.728415 1_556
Rh0 Sn2 2.728415 1_546
Rh0 Sn4 2.870440 1_545
Rh0 Sn3 2.870444 1_555
Rh1 Sn0 2.680943 1_555
Rh1 Sn2 2.728415 1_655
Rh1 Sn1 2.728415 1_565
Rh1 Sn4 2.870446 1_555
Rh1 Sn3 2.870446 1_555
Rh2 Sn2 2.680943 1_555
Rh2 Sn0 2.728415 1_555
Rh2 Sn1 2.728415 1_455
Rh2 Sn3 2.870440 1_455
Rh2 Sn4 2.870444 1_555
Rh3 Sn1 2.680943 1_555
Rh3 Sn0 2.728415 1_555
Rh3 Sn2 2.728415 1_545
Rh3 Sn4 2.870440 1_545
Rh3 Sn3 2.870444 1_555
Rh4 Sn0 2.680943 1_556
Rh4 Sn2 2.728415 1_656
Rh4 Sn1 2.728415 1_566
Rh4 Sn4 2.870446 1_555
Rh4 Sn3 2.870446 1_555
Rh5 Sn2 2.680943 1_556
Rh5 Sn0 2.728415 1_556
Rh5 Sn1 2.728415 1_456
Rh5 Sn3 2.870440 1_455
Rh5 Sn4 2.870444 1_555
