# generated using pymatgen
data_Cs3K9(GaSe3)4
_symmetry_space_group_name_H-M   'P 1'
_cell_length_a   13.64584508
_cell_length_b   8.23245760
_cell_length_c   10.48544466
_cell_angle_alpha   53.42909722
_cell_angle_beta   89.47080120
_cell_angle_gamma   89.81211521
_symmetry_Int_Tables_number   1
_chemical_formula_structural   Cs3K9(GaSe3)4
_chemical_formula_sum   'Cs3 K9 Ga4 Se12'
_cell_volume   945.96948959
_cell_formula_units_Z   1
loop_
 _symmetry_equiv_pos_site_id
 _symmetry_equiv_pos_as_xyz
  1  'x, y, z'
loop_
 _atom_site_type_symbol
 _atom_site_label
 _atom_site_symmetry_multiplicity
 _atom_site_fract_x
 _atom_site_fract_y
 _atom_site_fract_z
 _atom_site_occupancy
  Cs  Cs0  1  0.31279576  0.18158657  0.05542487  1
  Cs  Cs1  1  0.68334161  0.82412436  0.94610592  1
  Cs  Cs2  1  0.81588881  0.82337926  0.44978575  1
  K  K0  1  0.89769142  0.30576510  0.40505464  1
  K  K1  1  0.61234926  0.36621823  0.47187928  1
  K  K2  1  0.11190374  0.63787415  0.02491469  1
  K  K3  1  0.38460249  0.63919802  0.52813959  1
  K  K4  1  0.89167820  0.35440811  0.97605411  1
  K  K5  1  0.61042373  0.30510695  0.90661780  1
  K  K6  1  0.10709575  0.68805502  0.59489395  1
  K  K7  1  0.38752403  0.70335835  0.09055798  1
  K  K8  1  0.18587289  0.17042533  0.55827039  1
  Ga  Ga0  1  0.06805434  0.94361101  0.15814804  1
  Ga  Ga1  1  0.56404635  0.04813960  0.34453353  1
  Ga  Ga2  1  0.43015591  0.96530407  0.65298466  1
  Ga  Ga3  1  0.93706692  0.04265470  0.84305982  1
  Se  Se0  1  0.41275499  0.20260173  0.36027850  1
  Se  Se1  1  0.91243256  0.81087484  0.13626502  1
  Se  Se2  1  0.58158318  0.81053625  0.63827747  1
  Se  Se3  1  0.09319194  0.17614632  0.86200186  1
  Se  Se4  1  0.69305074  0.29462265  0.21306378  1
  Se  Se5  1  0.18901779  0.68089485  0.29788958  1
  Se  Se6  1  0.29913148  0.72461620  0.77912885  1
  Se  Se7  1  0.81247348  0.29596233  0.71113925  1
  Se  Se8  1  0.54671756  0.86114377  0.23962464  1
  Se  Se9  1  0.05619758  0.13836266  0.25819437  1
  Se  Se10  1  0.45003368  0.14847003  0.76044800  1
  Se  Se11  1  0.95292081  0.85655954  0.73726269  1
loop_
_geom_bond_atom_site_label_1
_geom_bond_atom_site_label_2
_geom_bond_distance
_geom_bond_site_symmetry_2
Cs0 Se0 3.584602 1_555
Cs0 Se6 3.603363 1_554
Cs0 Se3 3.649216 1_554
Cs0 Ga0 3.689694 1_545
Cs0 Se5 3.712878 1_545
Cs0 Se10 3.747312 1_554
Cs0 Se8 3.855639 1_545
Cs0 Se9 3.984551 1_555
Cs1 Se4 3.509639 1_556
Cs1 Se7 3.581079 1_565
Cs1 Se2 3.587882 1_555
Cs1 Se1 3.689720 1_556
Cs1 Se8 3.748165 1_556
Cs1 Se10 3.862624 1_565
Cs2 Se7 3.490634 1_555
Cs2 Se4 3.546921 1_565
Cs2 Se1 3.588258 1_555
Cs2 Se11 3.707558 1_555
Cs2 Se2 3.711685 1_555
Cs2 Se9 3.903795 1_665
K0 Se11 3.325267 1_545
K0 Se7 3.358910 1_555
K0 Se1 3.362234 1_555
K0 Se9 3.375896 1_655
K0 Se4 3.490648 1_555
K1 Se10 3.273142 1_555
K1 Se4 3.281983 1_555
K1 Se8 3.395041 1_555
K1 Se7 3.531725 1_555
K1 Se0 3.544433 1_555
K1 Se2 3.825644 1_545
K2 Se11 3.266425 1_454
K2 Se5 3.269763 1_555
K2 Se6 3.372904 1_554
K2 Se9 3.386909 1_555
K2 Se1 3.563427 1_455
K2 Se3 3.687827 1_564
K3 Se8 3.271130 1_555
K3 Se6 3.305153 1_555
K3 Se10 3.367712 1_555
K3 Se5 3.492154 1_555
K3 Se2 3.545668 1_555
K4 Se7 3.281323 1_555
K4 Se9 3.283567 1_656
K4 Se11 3.421522 1_555
K4 Se4 3.491631 1_556
K4 Se3 3.626218 1_655
K4 Se1 3.737320 1_546
K5 Se8 3.326174 1_546
K5 Se10 3.352263 1_555
K5 Se4 3.367393 1_556
K5 Se2 3.382841 1_555
K5 Se7 3.447723 1_555
K6 Se11 3.312019 1_455
K6 Se5 3.332500 1_555
K6 Se9 3.334936 1_565
K6 Se6 3.388349 1_555
K6 Se3 3.401570 1_555
K7 Se10 3.314785 1_564
K7 Se0 3.350690 1_555
K7 Se8 3.368977 1_555
K7 Se5 3.393121 1_555
K7 Se6 3.396944 1_554
K8 Se6 3.334987 1_545
K8 Se5 3.382755 1_555
K8 Se3 3.442143 1_555
K8 Se0 3.632716 1_555
K8 Se9 3.767826 1_555
K8 Se11 3.803776 1_445
Ga0 Se9 2.386740 1_565
Ga0 Se5 2.407120 1_555
Ga0 Se1 2.465640 1_455
Ga0 Se3 2.515113 1_564
Ga1 Se8 2.379270 1_545
Ga1 Se4 2.400426 1_555
Ga1 Se0 2.476496 1_555
Ga1 Se2 2.490246 1_545
Ga2 Se10 2.376990 1_565
Ga2 Se6 2.393501 1_555
Ga2 Se2 2.475472 1_555
Ga2 Se0 2.481558 1_565
Ga2 K8 3.602157 1_565
Ga3 Se11 2.375520 1_545
Ga3 Se7 2.394895 1_555
Ga3 Se3 2.463593 1_655
Ga3 Se1 2.490062 1_546
