# generated using pymatgen
data_Lu2Sc3(GaSi)2
_symmetry_space_group_name_H-M   'P 1'
_cell_length_a   7.07760505
_cell_length_b   7.34072428
_cell_length_c   14.12658727
_cell_angle_alpha   90.00000000
_cell_angle_beta   90.00000000
_cell_angle_gamma   90.00000000
_symmetry_Int_Tables_number   1
_chemical_formula_structural   Lu2Sc3(GaSi)2
_chemical_formula_sum   'Lu8 Sc12 Ga8 Si8'
_cell_volume   733.94327139
_cell_formula_units_Z   4
loop_
 _symmetry_equiv_pos_site_id
 _symmetry_equiv_pos_as_xyz
  1  'x, y, z'
loop_
 _atom_site_type_symbol
 _atom_site_label
 _atom_site_symmetry_multiplicity
 _atom_site_fract_x
 _atom_site_fract_y
 _atom_site_fract_z
 _atom_site_occupancy
  Lu  Lu0  1  0.00924537  0.17753642  0.09857048  1
  Lu  Lu1  1  0.99075463  0.82246358  0.90142952  1
  Lu  Lu2  1  0.49075463  0.67753642  0.90142952  1
  Lu  Lu3  1  0.99075463  0.82246358  0.59857048  1
  Lu  Lu4  1  0.50924537  0.32246358  0.09857048  1
  Lu  Lu5  1  0.00924537  0.17753642  0.40142952  1
  Lu  Lu6  1  0.50924537  0.32246358  0.40142952  1
  Lu  Lu7  1  0.49075463  0.67753642  0.59857048  1
  Sc  Sc0  1  0.16509839  0.50217049  0.75000000  1
  Sc  Sc1  1  0.83490161  0.49782951  0.25000000  1
  Sc  Sc2  1  0.33490161  0.00217049  0.25000000  1
  Sc  Sc3  1  0.66509839  0.99782951  0.75000000  1
  Sc  Sc4  1  0.33257085  0.17429456  0.62498606  1
  Sc  Sc5  1  0.66742915  0.82570544  0.37501394  1
  Sc  Sc6  1  0.16742915  0.67429456  0.37501394  1
  Sc  Sc7  1  0.66742915  0.82570544  0.12498606  1
  Sc  Sc8  1  0.83257085  0.32570544  0.62498606  1
  Sc  Sc9  1  0.33257085  0.17429456  0.87501394  1
  Sc  Sc10  1  0.83257085  0.32570544  0.87501394  1
  Sc  Sc11  1  0.16742915  0.67429456  0.12498606  1
  Ga  Ga0  1  0.16312230  0.46440362  0.53897753  1
  Ga  Ga1  1  0.83687770  0.53559638  0.46102247  1
  Ga  Ga2  1  0.33687770  0.96440362  0.46102247  1
  Ga  Ga3  1  0.83687770  0.53559638  0.03897753  1
  Ga  Ga4  1  0.66312230  0.03559638  0.53897753  1
  Ga  Ga5  1  0.16312230  0.46440362  0.96102247  1
  Ga  Ga6  1  0.66312230  0.03559638  0.96102247  1
  Ga  Ga7  1  0.33687770  0.96440362  0.03897753  1
  Si  Si0  1  0.03593314  0.10925601  0.75000000  1
  Si  Si1  1  0.96406686  0.89074399  0.25000000  1
  Si  Si2  1  0.46406686  0.60925601  0.25000000  1
  Si  Si3  1  0.53593314  0.39074399  0.75000000  1
  Si  Si4  1  0.28606982  0.87090305  0.75000000  1
  Si  Si5  1  0.71393018  0.12909695  0.25000000  1
  Si  Si6  1  0.21393018  0.37090305  0.25000000  1
  Si  Si7  1  0.78606982  0.62909695  0.75000000  1
loop_
_geom_bond_atom_site_label_1
_geom_bond_atom_site_label_2
_geom_bond_distance
_geom_bond_site_symmetry_2
Lu0 Si6 2.947815 1_555
Lu0 Si5 3.011836 1_455
Lu0 Si1 3.018357 1_445
Lu1 Si7 2.947815 1_555
Lu1 Si4 3.011836 1_655
Lu1 Si0 3.018357 1_665
Lu2 Si4 2.947815 1_555
Lu2 Si7 3.011836 1_555
Lu2 Si3 3.018357 1_555
Lu3 Si7 2.947815 1_555
Lu3 Si4 3.011836 1_655
Lu3 Si0 3.018357 1_665
Lu4 Si5 2.947815 1_555
Lu4 Si6 3.011836 1_555
Lu4 Si2 3.018357 1_555
Lu5 Si6 2.947815 1_555
Lu5 Si5 3.011836 1_455
Lu5 Si1 3.018357 1_445
Lu6 Si5 2.947815 1_555
Lu6 Si6 3.011836 1_555
Lu6 Si2 3.018357 1_555
Lu7 Si4 2.947815 1_555
Lu7 Si7 3.011836 1_555
Lu7 Si3 3.018357 1_555
Sc0 Si3 2.749124 1_555
Sc0 Si4 2.838949 1_555
Sc0 Si7 2.839814 1_455
Sc0 Si0 3.025687 1_555
Sc1 Si2 2.749124 1_555
Sc1 Si5 2.838949 1_555
Sc1 Si6 2.839814 1_655
Sc1 Si1 3.025687 1_555
Sc2 Si1 2.749124 1_445
Sc2 Si6 2.838949 1_555
Sc2 Si5 2.839814 1_555
Sc2 Si2 3.025687 1_545
Sc3 Si0 2.749124 1_665
Sc3 Si7 2.838949 1_555
Sc3 Si4 2.839814 1_555
Sc3 Si3 3.025687 1_565
Sc4 Si3 2.777598 1_555
Sc4 Si0 2.784709 1_555
Sc4 Si4 2.861325 1_545
Sc5 Si2 2.777598 1_555
Sc5 Si1 2.784709 1_555
Sc5 Si5 2.861325 1_565
Sc6 Si1 2.777598 1_455
Sc6 Si2 2.784709 1_555
Sc6 Si6 2.861325 1_555
Sc7 Si2 2.777598 1_555
Sc7 Si1 2.784709 1_555
Sc7 Si5 2.861325 1_565
Sc8 Si0 2.777598 1_655
Sc8 Si3 2.784709 1_555
Sc8 Si7 2.861325 1_555
Sc9 Si3 2.777598 1_555
Sc9 Si0 2.784709 1_555
Sc9 Si4 2.861325 1_545
Sc10 Si0 2.777598 1_655
Sc10 Si3 2.784709 1_555
Sc10 Si7 2.861325 1_555
Sc11 Si1 2.777598 1_455
Sc11 Si2 2.784709 1_555
Sc11 Si6 2.861325 1_555
Ga0 Ga1 2.611028 1_455
Ga0 Sc4 2.729429 1_555
Ga0 Sc6 2.782057 1_555
Ga0 Sc8 2.825983 1_455
Ga0 Lu7 2.921231 1_555
Ga0 Sc0 2.993924 1_555
Ga0 Lu3 3.017544 1_455
Ga0 Lu5 3.065309 1_555
Ga0 Lu6 3.295809 1_555
Ga1 Sc5 2.729429 1_555
Ga1 Sc8 2.782057 1_555
Ga1 Sc6 2.825983 1_655
Ga1 Lu6 2.921231 1_555
Ga1 Sc1 2.993924 1_555
Ga1 Lu5 3.017544 1_655
Ga1 Lu3 3.065309 1_555
Ga1 Lu7 3.295809 1_555
Ga2 Ga4 2.611028 1_565
Ga2 Sc6 2.729429 1_555
Ga2 Sc4 2.782057 1_565
Ga2 Sc5 2.825983 1_555
Ga2 Lu5 2.921231 1_565
Ga2 Sc2 2.993924 1_565
Ga2 Lu6 3.017544 1_565
Ga2 Lu7 3.065309 1_555
Ga2 Lu3 3.295809 1_455
Ga3 Ga5 2.611028 1_654
Ga3 Sc7 2.729429 1_555
Ga3 Sc10 2.782057 1_554
Ga3 Sc11 2.825983 1_655
Ga3 Lu4 2.921231 1_555
Ga3 Sc1 2.993924 1_555
Ga3 Lu0 3.017544 1_655
Ga3 Lu1 3.065309 1_554
Ga3 Lu2 3.295809 1_554
Ga4 Sc8 2.729429 1_555
Ga4 Sc5 2.782057 1_545
Ga4 Sc4 2.825983 1_555
Ga4 Lu3 2.921231 1_545
Ga4 Sc3 2.993924 1_545
Ga4 Lu7 3.017544 1_545
Ga4 Lu6 3.065309 1_555
Ga4 Lu5 3.295809 1_655
Ga5 Sc9 2.729429 1_555
Ga5 Sc11 2.782057 1_556
Ga5 Sc10 2.825983 1_455
Ga5 Lu2 2.921231 1_555
Ga5 Sc0 2.993924 1_555
Ga5 Lu1 3.017544 1_455
Ga5 Lu0 3.065309 1_556
Ga5 Lu4 3.295809 1_556
Ga6 Ga7 2.611028 1_546
Ga6 Sc10 2.729429 1_555
Ga6 Sc7 2.782057 1_546
Ga6 Sc9 2.825983 1_555
Ga6 Lu1 2.921231 1_545
Ga6 Sc3 2.993924 1_545
Ga6 Lu2 3.017544 1_545
Ga6 Lu4 3.065309 1_556
Ga6 Lu0 3.295809 1_656
Ga7 Sc11 2.729429 1_555
Ga7 Sc9 2.782057 1_564
Ga7 Sc7 2.825983 1_555
Ga7 Lu0 2.921231 1_565
Ga7 Sc2 2.993924 1_565
Ga7 Lu4 3.017544 1_565
Ga7 Lu2 3.065309 1_554
Ga7 Lu1 3.295809 1_454
Si0 Si4 2.489096 1_545
Si1 Si5 2.489096 1_565
Si2 Si6 2.489096 1_555
Si3 Si7 2.489096 1_555
