# generated using pymatgen
data_LiYB6Ir
_symmetry_space_group_name_H-M   'P 1'
_cell_length_a   3.51794032
_cell_length_b   8.81759607
_cell_length_c   11.21349379
_cell_angle_alpha   90.00000000
_cell_angle_beta   90.00000000
_cell_angle_gamma   90.00000000
_symmetry_Int_Tables_number   1
_chemical_formula_structural   LiYB6Ir
_chemical_formula_sum   'Li4 Y4 B24 Ir4'
_cell_volume   347.84007355
_cell_formula_units_Z   4
loop_
 _symmetry_equiv_pos_site_id
 _symmetry_equiv_pos_as_xyz
  1  'x, y, z'
loop_
 _atom_site_type_symbol
 _atom_site_label
 _atom_site_symmetry_multiplicity
 _atom_site_fract_x
 _atom_site_fract_y
 _atom_site_fract_z
 _atom_site_occupancy
  Li  Li0  1  0.50000000  0.44588637  0.12359391  1
  Li  Li1  1  0.50000000  0.55411363  0.87640609  1
  Li  Li2  1  0.50000000  0.05411363  0.62359391  1
  Li  Li3  1  0.50000000  0.94588637  0.37640609  1
  Y  Y0  1  0.50000000  0.31597291  0.41445783  1
  Y  Y1  1  0.50000000  0.68402709  0.58554217  1
  Y  Y2  1  0.50000000  0.18402709  0.91445783  1
  Y  Y3  1  0.50000000  0.81597291  0.08554217  1
  B  B0  1  0.00000000  0.09029443  0.47537057  1
  B  B1  1  0.00000000  0.90970557  0.52462943  1
  B  B2  1  0.00000000  0.40970557  0.97537057  1
  B  B3  1  0.00000000  0.59029443  0.02462943  1
  B  B4  1  0.00000000  0.12360602  0.31852832  1
  B  B5  1  0.00000000  0.87639398  0.68147168  1
  B  B6  1  0.00000000  0.37639398  0.81852832  1
  B  B7  1  0.00000000  0.62360602  0.18147168  1
  B  B8  1  0.00000000  0.05575266  0.06820804  1
  B  B9  1  0.00000000  0.94424734  0.93179196  1
  B  B10  1  0.00000000  0.44424734  0.56820804  1
  B  B11  1  0.00000000  0.55575266  0.43179196  1
  B  B12  1  0.00000000  0.47908398  0.28514473  1
  B  B13  1  0.00000000  0.52091602  0.71485527  1
  B  B14  1  0.00000000  0.02091602  0.78514473  1
  B  B15  1  0.00000000  0.97908398  0.21485527  1
  B  B16  1  0.00000000  0.25826412  0.08260338  1
  B  B17  1  0.00000000  0.74173588  0.91739662  1
  B  B18  1  0.00000000  0.24173588  0.58260338  1
  B  B19  1  0.00000000  0.75826412  0.41739662  1
  B  B20  1  0.00000000  0.29286633  0.23573881  1
  B  B21  1  0.00000000  0.70713367  0.76426119  1
  B  B22  1  0.00000000  0.20713367  0.73573881  1
  B  B23  1  0.00000000  0.79286633  0.26426119  1
  Ir  Ir0  1  0.50000000  0.14013188  0.18214358  1
  Ir  Ir1  1  0.50000000  0.85986812  0.81785642  1
  Ir  Ir2  1  0.50000000  0.35986812  0.68214358  1
  Ir  Ir3  1  0.50000000  0.64013188  0.31785642  1
loop_
_geom_bond_atom_site_label_1
_geom_bond_atom_site_label_2
_geom_bond_distance
_geom_bond_site_symmetry_2
B0 B1 1.685442 1_545
B0 B4 1.783109 1_555
B0 B18 1.796957 1_555
B0 Li3 2.438620 1_445
B0 Li3 2.438620 1_545
B0 Li2 2.440970 1_455
B0 Li2 2.440970 1_555
B0 Y0 2.742334 1_555
B0 Y0 2.742334 1_455
B1 B5 1.783109 1_555
B1 B19 1.796957 1_555
B1 Li2 2.438620 1_465
B1 Li2 2.438620 1_565
B1 Li3 2.440970 1_455
B1 Li3 2.440970 1_555
B1 Y1 2.742334 1_455
B1 Y1 2.742334 1_555
B2 B3 1.685442 1_556
B2 B6 1.783109 1_555
B2 Li1 2.438620 1_555
B2 Li1 2.438620 1_455
B2 Li0 2.440970 1_456
B2 Li0 2.440970 1_556
B2 Y2 2.742334 1_455
B2 Y2 2.742334 1_555
B3 B7 1.783109 1_555
B3 Li0 2.438620 1_455
B3 Li0 2.438620 1_555
B3 Li1 2.440970 1_454
B3 Li1 2.440970 1_554
B3 Y3 2.742334 1_455
B3 Y3 2.742334 1_555
B4 Ir0 2.335406 1_455
B4 Ir0 2.335406 1_555
B4 Li3 2.443536 1_545
B4 Li3 2.443536 1_445
B4 Y0 2.669880 1_455
B4 Y0 2.669880 1_555
B5 Ir1 2.335406 1_455
B5 Ir1 2.335406 1_555
B5 Li2 2.443536 1_565
B5 Li2 2.443536 1_465
B5 Y1 2.669880 1_455
B5 Y1 2.669880 1_555
B6 Ir2 2.335406 1_455
B6 Ir2 2.335406 1_555
B6 Li1 2.443536 1_455
B6 Li1 2.443536 1_555
B6 Y2 2.669880 1_455
B6 Y2 2.669880 1_555
B7 Ir3 2.335406 1_555
B7 Ir3 2.335406 1_455
B7 Li0 2.443536 1_455
B7 Li0 2.443536 1_555
B7 Y3 2.669880 1_455
B7 Y3 2.669880 1_555
B8 B9 1.818429 1_544
B8 Ir0 2.297792 1_455
B8 Ir0 2.297792 1_555
B8 Y2 2.710303 1_554
B8 Y2 2.710303 1_454
B8 Y3 2.757162 1_545
B8 Y3 2.757162 1_445
B9 Ir1 2.297792 1_455
B9 Ir1 2.297792 1_555
B9 Y3 2.710303 1_556
B9 Y3 2.710303 1_456
B9 Y2 2.757162 1_465
B9 Y2 2.757162 1_565
B10 B13 1.777966 1_555
B10 B18 1.792946 1_555
B10 B11 1.818429 1_555
B10 Ir2 2.297792 1_555
B10 Ir2 2.297792 1_455
B10 Y0 2.710303 1_455
B10 Y0 2.710303 1_555
B10 Y1 2.757162 1_555
B10 Y1 2.757162 1_455
B11 B12 1.777966 1_555
B11 B19 1.792946 1_555
B11 Ir3 2.297792 1_455
B11 Ir3 2.297792 1_555
B11 Y1 2.710303 1_555
B11 Y1 2.710303 1_455
B11 Y0 2.757162 1_455
B11 Y0 2.757162 1_555
B12 B7 1.724943 1_555
B12 B20 1.732936 1_555
B12 Ir3 2.290215 1_555
B12 Ir3 2.290215 1_455
B12 Li0 2.541923 1_455
B12 Li0 2.541923 1_555
B12 Y0 2.695400 1_455
B12 Y0 2.695400 1_555
B13 B6 1.724943 1_555
B13 B21 1.732936 1_555
B13 Ir2 2.290215 1_455
B13 Ir2 2.290215 1_555
B13 Li1 2.541923 1_455
B13 Li1 2.541923 1_555
B13 Y1 2.695400 1_455
B13 Y1 2.695400 1_555
B14 B5 1.724943 1_545
B14 B22 1.732936 1_555
B14 B9 1.777966 1_545
B14 Ir1 2.290215 1_445
B14 Ir1 2.290215 1_545
B14 Li2 2.541923 1_555
B14 Li2 2.541923 1_455
B14 Y2 2.695400 1_455
B14 Y2 2.695400 1_555
B15 B4 1.724943 1_565
B15 B23 1.732936 1_555
B15 B8 1.777966 1_565
B15 Ir0 2.290215 1_565
B15 Ir0 2.290215 1_465
B15 Li3 2.541923 1_555
B15 Li3 2.541923 1_455
B15 Y3 2.695400 1_455
B15 Y3 2.695400 1_555
B16 B20 1.744078 1_555
B16 B8 1.792946 1_555
B16 B2 1.796957 1_554
B16 Ir0 2.329138 1_555
B16 Ir0 2.329138 1_455
B16 Li0 2.458092 1_455
B16 Li0 2.458092 1_555
B16 Y2 2.660371 1_554
B16 Y2 2.660371 1_454
B17 B21 1.744078 1_555
B17 B9 1.792946 1_555
B17 B3 1.796957 1_556
B17 Ir1 2.329138 1_555
B17 Ir1 2.329138 1_455
B17 Li1 2.458092 1_555
B17 Li1 2.458092 1_455
B17 Y3 2.660371 1_456
B17 Y3 2.660371 1_556
B18 B22 1.744078 1_555
B18 Ir2 2.329138 1_455
B18 Ir2 2.329138 1_555
B18 Li2 2.458092 1_455
B18 Li2 2.458092 1_555
B18 Y0 2.660371 1_455
B18 Y0 2.660371 1_555
B19 B23 1.744078 1_555
B19 Ir3 2.329138 1_555
B19 Ir3 2.329138 1_455
B19 Li3 2.458092 1_555
B19 Li3 2.458092 1_455
B19 Y1 2.660371 1_555
B19 Y1 2.660371 1_455
B20 B4 1.757645 1_555
B20 Ir0 2.295409 1_455
B20 Ir0 2.295409 1_555
B20 Li0 2.548706 1_455
B20 Li0 2.548706 1_555
B20 Y0 2.674278 1_555
B20 Y0 2.674278 1_455
B21 B5 1.757645 1_555
B21 Ir1 2.295409 1_455
B21 Ir1 2.295409 1_555
B21 Li1 2.548706 1_455
B21 Li1 2.548706 1_555
B21 Y1 2.674278 1_555
B21 Y1 2.674278 1_455
B22 B6 1.757645 1_555
B22 Ir2 2.295409 1_555
B22 Ir2 2.295409 1_455
B22 Li2 2.548706 1_455
B22 Li2 2.548706 1_555
B22 Y2 2.674278 1_455
B22 Y2 2.674278 1_555
B23 B7 1.757645 1_555
B23 Ir3 2.295409 1_455
B23 Ir3 2.295409 1_555
B23 Li3 2.548706 1_555
B23 Li3 2.548706 1_455
B23 Y3 2.674278 1_555
B23 Y3 2.674278 1_455
Ir0 Li3 2.771077 1_545
Ir0 Li0 2.774811 1_555
Ir0 Y2 3.026544 1_554
Ir0 Y0 3.031558 1_555
Ir0 Y3 3.056682 1_545
Ir1 Li2 2.771077 1_565
Ir1 Li1 2.774811 1_555
Ir1 Y3 3.026544 1_556
Ir1 Y1 3.031558 1_555
Ir1 Y2 3.056682 1_565
Ir2 Li1 2.771077 1_555
Ir2 Li2 2.774811 1_555
Ir2 Y0 3.026544 1_555
Ir2 Y2 3.031558 1_555
Ir2 Y1 3.056682 1_555
Ir3 Li0 2.771077 1_555
Ir3 Li3 2.774811 1_555
Ir3 Y1 3.026544 1_555
Ir3 Y3 3.031558 1_555
Ir3 Y0 3.056682 1_555
