# generated using pymatgen
data_Hf12Zn5Pd7N4
_symmetry_space_group_name_H-M   'P 1'
_cell_length_a   8.48102365
_cell_length_b   8.47417740
_cell_length_c   8.48102340
_cell_angle_alpha   59.97325820
_cell_angle_beta   59.99995838
_cell_angle_gamma   59.97324286
_symmetry_Int_Tables_number   1
_chemical_formula_structural   Hf12Zn5Pd7N4
_chemical_formula_sum   'Hf12 Zn5 Pd7 N4'
_cell_volume   430.82732592
_cell_formula_units_Z   1
loop_
 _symmetry_equiv_pos_site_id
 _symmetry_equiv_pos_as_xyz
  1  'x, y, z'
loop_
 _atom_site_type_symbol
 _atom_site_label
 _atom_site_symmetry_multiplicity
 _atom_site_fract_x
 _atom_site_fract_y
 _atom_site_fract_z
 _atom_site_occupancy
  Hf  Hf0  1  0.81167231  0.18995834  0.18669504  1
  Hf  Hf1  1  0.18890484  0.81112384  0.18890484  1
  Hf  Hf2  1  0.81106649  0.81112384  0.18890484  1
  Hf  Hf3  1  0.18890484  0.81112484  0.81106649  1
  Hf  Hf4  1  0.81167331  0.18995834  0.81167331  1
  Hf  Hf5  1  0.18669504  0.18995734  0.81167331  1
  Hf  Hf6  1  0.43984518  0.05919407  0.06111656  1
  Hf  Hf7  1  0.06330034  0.43598995  0.06330034  1
  Hf  Hf8  1  0.43740938  0.43598995  0.06330034  1
  Hf  Hf9  1  0.06330034  0.43598895  0.43740938  1
  Hf  Hf10  1  0.43984418  0.05919407  0.43984518  1
  Hf  Hf11  1  0.06111656  0.05919407  0.43984518  1
  Zn  Zn0  1  0.83029928  0.50910116  0.83029928  1
  Zn  Zn1  1  0.62514827  0.62265364  0.12704981  1
  Zn  Zn2  1  0.62514827  0.62265464  0.62514827  1
  Zn  Zn3  1  0.12704981  0.62265364  0.62514827  1
  Zn  Zn4  1  0.62532592  0.12402225  0.62532592  1
  Pd  Pd0  1  0.41142917  0.41138990  0.76575075  1
  Pd  Pd1  1  0.41143017  0.41138990  0.41143017  1
  Pd  Pd2  1  0.76575075  0.41138890  0.41143017  1
  Pd  Pd3  1  0.41177992  0.76465925  0.41177992  1
  Pd  Pd4  1  0.83838195  0.83737291  0.48586219  1
  Pd  Pd5  1  0.83838295  0.83737391  0.83838295  1
  Pd  Pd6  1  0.48586219  0.83737291  0.83838195  1
  N  N0  1  0.12549304  0.12469639  0.62431852  1
  N  N1  1  0.12549304  0.12469639  0.12549204  1
  N  N2  1  0.62431752  0.12469639  0.12549304  1
  N  N3  1  0.12497293  0.62508120  0.12497293  1
loop_
_geom_bond_atom_site_label_1
_geom_bond_atom_site_label_2
_geom_bond_distance
_geom_bond_site_symmetry_2
Hf0 N2 2.256455 1_555
Hf0 N1 2.256468 1_655
Hf0 Pd4 2.779673 1_545
Hf0 Zn0 2.871269 1_554
Hf0 Zn1 3.056474 1_555
Hf0 Pd1 3.067752 1_555
Hf0 Pd2 3.067759 1_555
Hf1 N1 2.251287 1_565
Hf1 N3 2.253560 1_555
Hf1 Pd4 2.764363 1_455
Hf1 Pd6 2.764363 1_554
Hf1 Pd1 3.059993 1_555
Hf1 Pd3 3.063327 1_555
Hf1 Zn1 3.081928 1_555
Hf1 Zn3 3.081929 1_555
Hf2 N2 2.251289 1_565
Hf2 N3 2.253558 1_655
Hf2 Pd5 2.764352 1_554
Hf2 Pd4 2.764360 1_555
Hf2 Pd2 3.059997 1_555
Hf2 Pd3 3.063332 1_555
Hf2 Zn2 3.081927 1_555
Hf2 Zn1 3.081930 1_555
Hf3 N0 2.251281 1_565
Hf3 N3 2.253561 1_556
Hf3 Pd6 2.764355 1_555
Hf3 Pd5 2.764356 1_455
Hf3 Pd0 3.059997 1_555
Hf3 Pd3 3.063335 1_555
Hf3 Zn2 3.081927 1_555
Hf3 Zn3 3.081937 1_555
Hf4 N0 2.256460 1_655
Hf4 N2 2.256462 1_556
Hf4 Pd5 2.779662 1_545
Hf4 Zn0 2.871265 1_555
Hf4 Zn2 3.056480 1_555
Hf4 Pd2 3.067755 1_555
Hf4 Pd0 3.067762 1_555
Hf5 N0 2.256449 1_555
Hf5 N1 2.256456 1_556
Hf5 Pd6 2.779668 1_545
Hf5 Zn0 2.871272 1_455
Hf5 Zn3 3.056481 1_555
Hf5 Pd1 3.067760 1_555
Hf5 Pd0 3.067763 1_555
Hf6 N2 2.254005 1_555
Hf6 N1 2.254014 1_555
Hf6 Pd3 2.754771 1_545
Hf6 Pd0 2.764458 1_554
Hf6 Pd5 3.055554 1_544
Hf6 Pd6 3.055566 1_544
Hf6 Zn1 3.075318 1_545
Hf7 N1 2.237943 1_555
Hf7 N3 2.250779 1_555
Hf7 Pd0 2.754749 1_554
Hf7 Pd2 2.754754 1_455
Hf7 Pd5 3.081963 1_454
Hf7 Zn1 3.093062 1_455
Hf7 Zn3 3.093062 1_554
Hf7 Zn0 3.106130 1_454
Hf8 N2 2.237941 1_555
Hf8 N3 2.250777 1_555
Hf8 Pd0 2.754756 1_554
Hf8 Pd1 2.754759 1_555
Hf8 Pd6 3.081962 1_554
Hf8 Zn2 3.093063 1_554
Hf8 Zn1 3.093064 1_555
Hf8 Zn0 3.106121 1_554
Hf9 N0 2.237937 1_555
Hf9 N3 2.250780 1_555
Hf9 Pd2 2.754751 1_455
Hf9 Pd1 2.754762 1_555
Hf9 Pd4 3.081969 1_455
Hf9 Zn2 3.093064 1_455
Hf9 Zn3 3.093071 1_555
Hf9 Zn0 3.106124 1_455
Hf10 N0 2.254005 1_555
Hf10 N2 2.254011 1_555
Hf10 Pd3 2.754776 1_545
Hf10 Pd1 2.764461 1_555
Hf10 Pd6 3.055554 1_545
Hf10 Pd4 3.055558 1_545
Hf10 Zn2 3.075312 1_545
Hf11 N0 2.254013 1_555
Hf11 N1 2.254020 1_555
Hf11 Pd3 2.754770 1_545
Hf11 Pd2 2.764452 1_455
Hf11 Pd5 3.055554 1_445
Hf11 Pd4 3.055566 1_445
Hf11 Zn3 3.075318 1_545
Zn0 Zn2 2.580005 1_555
Zn0 Zn1 2.580013 1_556
Zn0 Zn3 2.580013 1_655
Pd0 Zn3 2.619555 1_555
Pd0 Zn2 2.619568 1_555
Pd0 Zn4 2.638238 1_555
Pd1 Zn3 2.619555 1_555
Pd1 Zn1 2.619556 1_555
Pd1 Zn4 2.638234 1_555
Pd2 Zn1 2.619561 1_555
Pd2 Zn2 2.619568 1_555
Pd2 Zn4 2.638232 1_555
Pd3 Zn1 2.629276 1_555
Pd3 Zn3 2.629277 1_555
Pd3 Zn2 2.629287 1_555
Pd4 Zn4 2.628699 1_565
Pd4 Zn2 2.642436 1_555
Pd4 Zn3 2.642450 1_655
Pd4 Zn0 2.852084 1_555
Pd5 Zn4 2.628702 1_565
Pd5 Zn3 2.642451 1_655
Pd5 Zn1 2.642452 1_556
Pd5 Zn0 2.852102 1_555
Pd6 Zn4 2.628699 1_565
Pd6 Zn2 2.642436 1_555
Pd6 Zn1 2.642450 1_556
Pd6 Zn0 2.852083 1_555
