# generated using pymatgen
data_NaSn5
_symmetry_space_group_name_H-M   'P 1'
_cell_length_a   6.35206412
_cell_length_b   6.35206412
_cell_length_c   8.91070407
_cell_angle_alpha   90.00000000
_cell_angle_beta   90.00000000
_cell_angle_gamma   90.00000000
_symmetry_Int_Tables_number   1
_chemical_formula_structural   NaSn5
_chemical_formula_sum   'Na2 Sn10'
_cell_volume   359.53549091
_cell_formula_units_Z   2
loop_
 _symmetry_equiv_pos_site_id
 _symmetry_equiv_pos_as_xyz
  1  'x, y, z'
loop_
 _atom_site_type_symbol
 _atom_site_label
 _atom_site_symmetry_multiplicity
 _atom_site_fract_x
 _atom_site_fract_y
 _atom_site_fract_z
 _atom_site_occupancy
  Na  Na0  1  0.50000000  -0.00000000  0.78943609  1
  Na  Na1  1  0.00000000  0.50000000  0.21056391  1
  Sn  Sn0  1  0.34263828  0.84263828  0.18104485  1
  Sn  Sn1  1  0.84263828  0.65736172  0.81895515  1
  Sn  Sn2  1  0.15736172  0.34263828  0.81895515  1
  Sn  Sn3  1  0.65736172  0.15736172  0.18104485  1
  Sn  Sn4  1  0.25519809  0.75519809  0.49538045  1
  Sn  Sn5  1  0.75519809  0.74480191  0.50461955  1
  Sn  Sn6  1  0.24480191  0.25519809  0.50461955  1
  Sn  Sn7  1  0.74480191  0.24480191  0.49538045  1
  Sn  Sn8  1  0.50000000  0.50000000  0.00000000  1
  Sn  Sn9  1  0.00000000  -0.00000000  0.00000000  1
loop_
_geom_bond_atom_site_label_1
_geom_bond_atom_site_label_2
_geom_bond_distance
_geom_bond_site_symmetry_2
Na0 Sn1 3.089198 1_545
Na0 Sn2 3.089198 1_555
Na0 Sn6 3.420018 1_555
Na0 Sn5 3.420018 1_545
Na0 Sn4 3.420776 1_545
Na0 Sn7 3.420776 1_555
Na0 Sn9 3.688845 1_656
Na0 Sn8 3.688845 1_556
Na0 Sn9 3.688845 1_556
Na0 Sn8 3.688845 1_546
Na0 Sn0 3.764966 1_546
Na0 Sn3 3.764966 1_556
Na1 Sn3 3.089198 1_455
Na1 Sn0 3.089198 1_555
Na1 Sn7 3.420018 1_455
Na1 Sn4 3.420018 1_555
Na1 Sn6 3.420776 1_555
Na1 Sn5 3.420776 1_455
Na1 Sn9 3.688845 1_565
Na1 Sn8 3.688845 1_555
Na1 Sn8 3.688845 1_455
Na1 Sn9 3.688845 1_555
Na1 Sn2 3.764966 1_554
Na1 Sn1 3.764966 1_454
Sn0 Sn3 2.827216 1_565
Sn0 Sn8 2.887673 1_555
Sn0 Sn9 2.887673 1_565
Sn0 Sn4 2.909008 1_555
Sn1 Sn2 2.827216 1_655
Sn1 Sn9 2.887673 1_666
Sn1 Sn8 2.887673 1_556
Sn1 Sn5 2.909008 1_555
Sn2 Sn8 2.887673 1_556
Sn2 Sn9 2.887673 1_556
Sn2 Sn6 2.909008 1_555
Sn3 Sn9 2.887673 1_655
Sn3 Sn8 2.887673 1_555
Sn3 Sn7 2.909008 1_555
Sn4 Sn6 3.177785 1_565
Sn4 Sn5 3.177785 1_455
Sn4 Sn5 3.177785 1_555
Sn4 Sn6 3.177785 1_555
Sn5 Sn7 3.177785 1_565
Sn5 Sn7 3.177785 1_555
Sn6 Sn7 3.177785 1_455
Sn6 Sn7 3.177785 1_555
