# generated using pymatgen
data_CsBi3SeS4
_symmetry_space_group_name_H-M   'P 1'
_cell_length_a   4.12103464
_cell_length_b   12.30789775
_cell_length_c   21.45964156
_cell_angle_alpha   90.00000000
_cell_angle_beta   90.00000000
_cell_angle_gamma   90.00000000
_symmetry_Int_Tables_number   1
_chemical_formula_structural   CsBi3SeS4
_chemical_formula_sum   'Cs4 Bi12 Se4 S16'
_cell_volume   1088.46033846
_cell_formula_units_Z   4
loop_
 _symmetry_equiv_pos_site_id
 _symmetry_equiv_pos_as_xyz
  1  'x, y, z'
loop_
 _atom_site_type_symbol
 _atom_site_label
 _atom_site_symmetry_multiplicity
 _atom_site_fract_x
 _atom_site_fract_y
 _atom_site_fract_z
 _atom_site_occupancy
  Cs  Cs0  1  0.75000000  0.99995084  0.88354429  1
  Cs  Cs1  1  0.25000000  0.00004916  0.11645571  1
  Cs  Cs2  1  0.75000000  0.49995084  0.61645571  1
  Cs  Cs3  1  0.25000000  0.50004916  0.38354429  1
  Bi  Bi0  1  0.25000000  0.87046340  0.64863775  1
  Bi  Bi1  1  0.75000000  0.12953660  0.35136225  1
  Bi  Bi2  1  0.25000000  0.37046340  0.85136225  1
  Bi  Bi3  1  0.75000000  0.62953660  0.14863775  1
  Bi  Bi4  1  0.25000000  0.65981313  0.97235179  1
  Bi  Bi5  1  0.75000000  0.34018687  0.02764821  1
  Bi  Bi6  1  0.25000000  0.15981313  0.52764821  1
  Bi  Bi7  1  0.75000000  0.84018687  0.47235179  1
  Bi  Bi8  1  0.75000000  0.64480647  0.80770944  1
  Bi  Bi9  1  0.25000000  0.35519353  0.19229056  1
  Bi  Bi10  1  0.75000000  0.14480647  0.69229056  1
  Bi  Bi11  1  0.25000000  0.85519353  0.30770944  1
  Se  Se0  1  0.25000000  0.71462539  0.52728858  1
  Se  Se1  1  0.75000000  0.28537461  0.47271142  1
  Se  Se2  1  0.25000000  0.21462539  0.97271142  1
  Se  Se3  1  0.75000000  0.78537461  0.02728858  1
  S  S0  1  0.25000000  0.01454563  0.74160321  1
  S  S1  1  0.75000000  0.98545437  0.25839679  1
  S  S2  1  0.25000000  0.51454563  0.75839679  1
  S  S3  1  0.75000000  0.48545437  0.24160321  1
  S  S4  1  0.25000000  0.99241184  0.41529253  1
  S  S5  1  0.75000000  0.00758816  0.58470747  1
  S  S6  1  0.25000000  0.49241184  0.08470747  1
  S  S7  1  0.75000000  0.50758816  0.91529253  1
  S  S8  1  0.25000000  0.74773718  0.19437003  1
  S  S9  1  0.75000000  0.25226282  0.80562997  1
  S  S10  1  0.25000000  0.24773718  0.30562997  1
  S  S11  1  0.75000000  0.75226282  0.69437003  1
  S  S12  1  0.75000000  0.73123900  0.36708720  1
  S  S13  1  0.25000000  0.26876100  0.63291280  1
  S  S14  1  0.75000000  0.23123900  0.13291280  1
  S  S15  1  0.25000000  0.76876100  0.86708720  1
loop_
_geom_bond_atom_site_label_1
_geom_bond_atom_site_label_2
_geom_bond_distance
_geom_bond_site_symmetry_2
Cs0 S9 3.526943 1_565
Cs0 S15 3.530879 1_555
Cs0 S15 3.530879 1_655
Cs0 S0 3.681867 1_565
Cs0 S0 3.681867 1_665
Cs0 Se2 3.858546 1_665
Cs0 Se2 3.858546 1_565
Cs0 Se3 4.060809 1_556
Cs1 S8 3.526943 1_545
Cs1 S14 3.530879 1_455
Cs1 S14 3.530879 1_555
Cs1 S1 3.681867 1_545
Cs1 S1 3.681867 1_445
Cs1 Se3 3.858546 1_545
Cs1 Se3 3.858546 1_445
Cs1 Se2 4.060809 1_554
Cs2 S11 3.526943 1_555
Cs2 S13 3.530879 1_555
Cs2 S13 3.530879 1_655
Cs2 S2 3.681867 1_555
Cs2 S2 3.681867 1_655
Cs2 Se0 3.858546 1_555
Cs2 Se0 3.858546 1_655
Cs2 Se1 4.060809 1_555
Cs3 S10 3.526943 1_555
Cs3 S12 3.530879 1_455
Cs3 S12 3.530879 1_555
Cs3 S3 3.681867 1_455
Cs3 S3 3.681867 1_555
Cs3 Se1 3.858546 1_555
Cs3 Se1 3.858546 1_455
Cs3 Se0 4.060809 1_555
Bi0 S0 2.669235 1_565
Bi0 S11 2.706533 1_455
Bi0 S11 2.706533 1_555
Bi0 S5 2.996046 1_565
Bi0 S5 2.996046 1_465
Bi0 Se0 3.234232 1_555
Bi1 S1 2.669235 1_545
Bi1 S10 2.706533 1_555
Bi1 S10 2.706533 1_655
Bi1 S4 2.996046 1_545
Bi1 S4 2.996046 1_645
Bi1 Se1 3.234232 1_555
Bi2 S2 2.669235 1_555
Bi2 S9 2.706533 1_555
Bi2 S9 2.706533 1_455
Bi2 S7 2.996046 1_455
Bi2 S7 2.996046 1_555
Bi2 Se2 3.234232 1_555
Bi3 S3 2.669235 1_555
Bi3 S8 2.706533 1_555
Bi3 S8 2.706533 1_655
Bi3 S6 2.996046 1_555
Bi3 S6 2.996046 1_655
Bi3 Se3 3.234232 1_555
Bi4 S15 2.626952 1_555
Bi4 Se3 2.832640 1_456
Bi4 Se3 2.832640 1_556
Bi4 S7 3.042256 1_455
Bi4 S7 3.042256 1_555
Bi4 S6 3.171520 1_556
Bi5 S14 2.626952 1_555
Bi5 Se2 2.832640 1_654
Bi5 Se2 2.832640 1_554
Bi5 S6 3.042256 1_655
Bi5 S6 3.042256 1_555
Bi5 S7 3.171520 1_554
Bi6 S13 2.626952 1_555
Bi6 Se1 2.832640 1_455
Bi6 Se1 2.832640 1_555
Bi6 S5 3.042256 1_555
Bi6 S5 3.042256 1_455
Bi6 S4 3.171520 1_545
Bi7 S12 2.626952 1_555
Bi7 Se0 2.832640 1_555
Bi7 Se0 2.832640 1_655
Bi7 S4 3.042256 1_655
Bi7 S4 3.042256 1_555
Bi7 S5 3.171520 1_565
Bi8 S11 2.768552 1_555
Bi8 S2 2.817083 1_555
Bi8 S2 2.817083 1_655
Bi8 S7 2.860481 1_555
Bi8 S15 2.863022 1_555
Bi8 S15 2.863022 1_655
Bi9 S10 2.768552 1_555
Bi9 S3 2.817083 1_555
Bi9 S3 2.817083 1_455
Bi9 S6 2.860481 1_555
Bi9 S14 2.863022 1_455
Bi9 S14 2.863022 1_555
Bi10 S9 2.768552 1_555
Bi10 S0 2.817083 1_555
Bi10 S0 2.817083 1_655
Bi10 S5 2.860481 1_555
Bi10 S13 2.863022 1_555
Bi10 S13 2.863022 1_655
Bi11 S8 2.768552 1_555
Bi11 S1 2.817083 1_455
Bi11 S1 2.817083 1_555
Bi11 S4 2.860481 1_555
Bi11 S12 2.863022 1_455
Bi11 S12 2.863022 1_555
