# generated using pymatgen
data_CsK2SbO4
_symmetry_space_group_name_H-M   'P 1'
_cell_length_a   6.16202083
_cell_length_b   6.16202121
_cell_length_c   6.16202154
_cell_angle_alpha   115.62366232
_cell_angle_beta   115.62365599
_cell_angle_gamma   97.76345215
_symmetry_Int_Tables_number   1
_chemical_formula_structural   CsK2SbO4
_chemical_formula_sum   'Cs1 K2 Sb1 O4'
_cell_volume   174.65039042
_cell_formula_units_Z   1
loop_
 _symmetry_equiv_pos_site_id
 _symmetry_equiv_pos_as_xyz
  1  'x, y, z'
loop_
 _atom_site_type_symbol
 _atom_site_label
 _atom_site_symmetry_multiplicity
 _atom_site_fract_x
 _atom_site_fract_y
 _atom_site_fract_z
 _atom_site_occupancy
  Cs  Cs0  1  0.50000000  0.50000000  0.00000000  1
  K  K0  1  0.74999900  0.25000000  0.49999800  1
  K  K1  1  0.25000000  0.74999900  0.49999800  1
  Sb  Sb0  1  0.00000000  0.00000000  0.00000000  1
  O  O0  1  0.70062485  0.03983957  1.00000000  1
  O  O1  1  0.03983957  0.70062485  0.00000000  1
  O  O2  1  0.29937715  0.29937715  0.33921672  1
  O  O3  1  0.96015943  0.96015943  0.66078228  1
loop_
_geom_bond_atom_site_label_1
_geom_bond_atom_site_label_2
_geom_bond_distance
_geom_bond_site_symmetry_2
Cs0 O3 3.242756 1_555
Cs0 O2 3.242762 1_554
Cs0 O1 3.242767 1_555
Cs0 O0 3.242767 1_554
Cs0 O2 3.388641 1_555
Cs0 O1 3.388644 1_655
Cs0 O0 3.388644 1_564
Cs0 O3 3.388648 1_444
K0 O2 2.625643 1_555
K0 O0 2.625646 1_554
K0 O3 2.625657 1_545
K0 O1 2.625660 1_656
K1 O2 2.625643 1_555
K1 O1 2.625646 1_555
K1 O3 2.625657 1_455
K1 O0 2.625660 1_565
O0 Sb0 1.893606 1_656
O1 Sb0 1.893606 1_565
O2 Sb0 1.893618 1_555
O3 Sb0 1.893620 1_666
