# generated using pymatgen
data_Sr3MoN4
_symmetry_space_group_name_H-M   'P 1'
_cell_length_a   9.72407102
_cell_length_b   10.49525027
_cell_length_c   11.56657774
_cell_angle_alpha   90.00000000
_cell_angle_beta   90.00000000
_cell_angle_gamma   90.00000000
_symmetry_Int_Tables_number   1
_chemical_formula_structural   Sr3MoN4
_chemical_formula_sum   'Sr24 Mo8 N32'
_cell_volume   1180.44512353
_cell_formula_units_Z   8
loop_
 _symmetry_equiv_pos_site_id
 _symmetry_equiv_pos_as_xyz
  1  'x, y, z'
loop_
 _atom_site_type_symbol
 _atom_site_label
 _atom_site_symmetry_multiplicity
 _atom_site_fract_x
 _atom_site_fract_y
 _atom_site_fract_z
 _atom_site_occupancy
  Sr  Sr0  1  0.97300109  0.12540313  0.39645145  1
  Sr  Sr1  1  0.47300109  0.87459687  0.10354855  1
  Sr  Sr2  1  0.52699891  0.62540313  0.60354855  1
  Sr  Sr3  1  0.02699891  0.37459687  0.89645145  1
  Sr  Sr4  1  0.02699891  0.87459687  0.60354855  1
  Sr  Sr5  1  0.52699891  0.12540313  0.89645145  1
  Sr  Sr6  1  0.47300109  0.37459687  0.39645145  1
  Sr  Sr7  1  0.97300109  0.62540313  0.10354855  1
  Sr  Sr8  1  0.63350665  0.02689925  0.35509201  1
  Sr  Sr9  1  0.13350665  0.97310075  0.14490799  1
  Sr  Sr10  1  0.86649335  0.52689925  0.64490799  1
  Sr  Sr11  1  0.36649335  0.47310075  0.85509201  1
  Sr  Sr12  1  0.36649335  0.97310075  0.64490799  1
  Sr  Sr13  1  0.86649335  0.02689925  0.85509201  1
  Sr  Sr14  1  0.13350665  0.47310075  0.35509201  1
  Sr  Sr15  1  0.63350665  0.52689925  0.14490799  1
  Sr  Sr16  1  0.30578678  0.28745269  0.11562349  1
  Sr  Sr17  1  0.80578678  0.21254731  0.11562349  1
  Sr  Sr18  1  0.19421322  0.28745269  0.61562349  1
  Sr  Sr19  1  0.69421322  0.71254731  0.88437651  1
  Sr  Sr20  1  0.69421322  0.21254731  0.61562349  1
  Sr  Sr21  1  0.19421322  0.78745269  0.88437651  1
  Sr  Sr22  1  0.80578678  0.71254731  0.38437651  1
  Sr  Sr23  1  0.30578678  0.78745269  0.38437651  1
  Mo  Mo0  1  0.30926723  0.10028655  0.38768993  1
  Mo  Mo1  1  0.80926723  0.89971345  0.11231007  1
  Mo  Mo2  1  0.19073277  0.60028655  0.61231007  1
  Mo  Mo3  1  0.69073277  0.39971345  0.88768993  1
  Mo  Mo4  1  0.69073277  0.89971345  0.61231007  1
  Mo  Mo5  1  0.19073277  0.10028655  0.88768993  1
  Mo  Mo6  1  0.80926723  0.39971345  0.38768993  1
  Mo  Mo7  1  0.30926723  0.60028655  0.11231007  1
  N  N0  1  0.44167912  0.15792029  0.49247662  1
  N  N1  1  0.94167912  0.84207971  0.00752338  1
  N  N2  1  0.05832088  0.65792029  0.50752338  1
  N  N3  1  0.55832088  0.34207971  0.99247662  1
  N  N4  1  0.55832088  0.84207971  0.50752338  1
  N  N5  1  0.05832088  0.15792029  0.99247662  1
  N  N6  1  0.94167912  0.34207971  0.49247662  1
  N  N7  1  0.44167912  0.65792029  0.00752338  1
  N  N8  1  0.38795201  0.99645747  0.27632886  1
  N  N9  1  0.88795201  0.00354253  0.22367114  1
  N  N10  1  0.11204799  0.49645747  0.72367114  1
  N  N11  1  0.61204799  0.50354253  0.77632886  1
  N  N12  1  0.61204799  0.00354253  0.72367114  1
  N  N13  1  0.11204799  0.99645747  0.77632886  1
  N  N14  1  0.88795201  0.50354253  0.27632886  1
  N  N15  1  0.18751575  0.49594151  0.03059617  1
  N  N16  1  0.21426074  0.23632772  0.32155847  1
  N  N17  1  0.71426074  0.76367228  0.17844153  1
  N  N18  1  0.28573926  0.73632772  0.67844153  1
  N  N19  1  0.78573926  0.26367228  0.82155847  1
  N  N20  1  0.78573926  0.76367228  0.67844153  1
  N  N21  1  0.28573926  0.23632772  0.82155847  1
  N  N22  1  0.71426074  0.26367228  0.32155847  1
  N  N23  1  0.21426074  0.73632772  0.17844153  1
  N  N24  1  0.18751575  0.99594151  0.46940383  1
  N  N25  1  0.68751575  0.00405849  0.03059617  1
  N  N26  1  0.31248425  0.49594151  0.53059617  1
  N  N27  1  0.81248425  0.50405849  0.96940383  1
  N  N28  1  0.81248425  0.00405849  0.53059617  1
  N  N29  1  0.31248425  0.99594151  0.96940383  1
  N  N30  1  0.68751575  0.50405849  0.46940383  1
  N  N31  1  0.38795201  0.49645747  0.22367114  1
loop_
_geom_bond_atom_site_label_1
_geom_bond_atom_site_label_2
_geom_bond_distance
_geom_bond_site_symmetry_2
Mo0 N8 1.852572 1_545
Mo0 N16 1.864716 1_555
Mo0 N0 1.868890 1_555
Mo0 N24 1.869299 1_545
Mo1 N9 1.852572 1_565
Mo1 N17 1.864716 1_555
Mo1 N1 1.868890 1_555
Mo1 N25 1.869299 1_565
Mo2 N10 1.852572 1_555
Mo2 N18 1.864716 1_555
Mo2 N2 1.868890 1_555
Mo2 N26 1.869299 1_555
Mo3 N11 1.852572 1_555
Mo3 N19 1.864716 1_555
Mo3 N3 1.868890 1_555
Mo3 N27 1.869299 1_555
Mo4 N12 1.852572 1_565
Mo4 N20 1.864716 1_555
Mo4 N4 1.868890 1_555
Mo4 N28 1.869299 1_565
Mo5 N13 1.852572 1_545
Mo5 N21 1.864716 1_555
Mo5 N5 1.868890 1_555
Mo5 N29 1.869299 1_545
Mo6 N14 1.852572 1_555
Mo6 N22 1.864716 1_555
Mo6 N6 1.868890 1_555
Mo6 N30 1.869299 1_555
Mo7 N31 1.852572 1_555
Mo7 N23 1.864716 1_555
Mo7 N7 1.868890 1_555
Mo7 N15 1.869299 1_555
N0 Sr6 2.549078 1_555
N0 Sr12 2.721327 1_545
N0 Sr8 2.809902 1_555
N0 Sr20 2.896178 1_555
N0 Sr18 3.109292 1_555
N1 Sr7 2.549078 1_555
N1 Sr13 2.721327 1_564
N1 Sr9 2.809902 1_655
N1 Sr21 2.896178 1_654
N1 Sr19 3.109292 1_554
N2 Sr4 2.549078 1_555
N2 Sr14 2.721327 1_555
N2 Sr10 2.809902 1_455
N2 Sr22 2.896178 1_455
N2 Sr23 3.109292 1_555
N3 Sr5 2.549078 1_555
N3 Sr15 2.721327 1_556
N3 Sr11 2.809902 1_555
N3 Sr16 2.896178 1_556
N3 Sr17 3.109292 1_556
N4 Sr2 2.549078 1_555
N4 Sr8 2.721327 1_565
N4 Sr12 2.809902 1_555
N4 Sr23 2.896178 1_555
N4 Sr22 3.109292 1_555
N5 Sr3 2.549078 1_555
N5 Sr9 2.721327 1_546
N5 Sr13 2.809902 1_455
N5 Sr17 2.896178 1_456
N5 Sr16 3.109292 1_556
N6 Sr0 2.549078 1_555
N6 Sr10 2.721327 1_555
N6 Sr14 2.809902 1_655
N6 Sr18 2.896178 1_655
N6 Sr20 3.109292 1_555
N7 Sr1 2.549078 1_555
N7 Sr11 2.721327 1_554
N7 Sr15 2.809902 1_555
N7 Sr19 2.896178 1_554
N7 Sr21 3.109292 1_554
N8 Sr1 2.512690 1_555
N8 Sr8 2.575573 1_565
N8 Sr23 2.648003 1_555
N8 Sr9 2.914215 1_555
N9 Sr0 2.512690 1_555
N9 Sr9 2.575573 1_645
N9 Sr17 2.648003 1_555
N9 Sr8 2.914215 1_555
N10 Sr3 2.512690 1_555
N10 Sr10 2.575573 1_455
N10 Sr18 2.648003 1_555
N10 Sr11 2.914215 1_555
N11 Sr2 2.512690 1_555
N11 Sr11 2.575573 1_555
N11 Sr19 2.648003 1_555
N11 Sr10 2.914215 1_555
N12 Sr5 2.512690 1_555
N12 Sr12 2.575573 1_545
N12 Sr20 2.648003 1_555
N12 Sr13 2.914215 1_555
N13 Sr4 2.512690 1_555
N13 Sr13 2.575573 1_465
N13 Sr21 2.648003 1_555
N13 Sr12 2.914215 1_555
N14 Sr7 2.512690 1_555
N14 Sr14 2.575573 1_655
N14 Sr22 2.648003 1_555
N14 Sr15 2.914215 1_555
N15 Sr3 2.542773 1_554
N15 Sr7 2.628570 1_455
N15 Sr16 2.660426 1_555
N15 Sr11 2.684633 1_554
N16 Sr16 2.598801 1_555
N16 Sr14 2.634817 1_555
N16 Sr0 2.758542 1_455
N16 Sr6 3.030940 1_555
N17 Sr22 2.598801 1_555
N17 Sr15 2.634817 1_555
N17 Sr1 2.758542 1_555
N17 Sr7 3.030940 1_555
N18 Sr21 2.598801 1_555
N18 Sr12 2.634817 1_555
N18 Sr2 2.758542 1_555
N18 Sr4 3.030940 1_555
N19 Sr20 2.598801 1_555
N19 Sr13 2.634817 1_555
N19 Sr3 2.758542 1_655
N19 Sr5 3.030940 1_555
N20 Sr19 2.598801 1_555
N20 Sr10 2.634817 1_555
N20 Sr4 2.758542 1_655
N20 Sr2 3.030940 1_555
N21 Sr18 2.598801 1_555
N21 Sr11 2.634817 1_555
N21 Sr5 2.758542 1_555
N21 Sr3 3.030940 1_555
N22 Sr17 2.598801 1_555
N22 Sr8 2.634817 1_555
N22 Sr6 2.758542 1_555
N22 Sr0 3.030940 1_555
N23 Sr23 2.598801 1_555
N23 Sr9 2.634817 1_555
N23 Sr7 2.758542 1_455
N23 Sr1 3.030940 1_555
N24 Sr4 2.542773 1_555
N24 Sr0 2.628570 1_465
N24 Sr23 2.660426 1_555
N24 Sr12 2.684633 1_555
N25 Sr5 2.542773 1_554
N25 Sr1 2.628570 1_545
N25 Sr17 2.660426 1_555
N25 Sr13 2.684633 1_554
N26 Sr6 2.542773 1_555
N26 Sr2 2.628570 1_555
N26 Sr18 2.660426 1_555
N26 Sr14 2.684633 1_555
N27 Sr7 2.542773 1_556
N27 Sr3 2.628570 1_655
N27 Sr19 2.660426 1_555
N27 Sr15 2.684633 1_556
N28 Sr0 2.542773 1_555
N28 Sr4 2.628570 1_645
N28 Sr20 2.660426 1_555
N28 Sr8 2.684633 1_555
N29 Sr1 2.542773 1_556
N29 Sr5 2.628570 1_565
N29 Sr21 2.660426 1_555
N29 Sr9 2.684633 1_556
N30 Sr2 2.542773 1_555
N30 Sr6 2.628570 1_555
N30 Sr22 2.660426 1_555
N30 Sr10 2.684633 1_555
N31 Sr6 2.512690 1_555
N31 Sr15 2.575573 1_555
N31 Sr16 2.648003 1_555
N31 Sr14 2.914215 1_555
