# generated using pymatgen
data_Y2S3
_symmetry_space_group_name_H-M   'P 1'
_cell_length_a   13.80739017
_cell_length_b   13.80739017
_cell_length_c   13.80739017
_cell_angle_alpha   144.78567745
_cell_angle_beta   144.78567745
_cell_angle_gamma   50.65402887
_symmetry_Int_Tables_number   1
_chemical_formula_structural   Y2S3
_chemical_formula_sum   'Y16 S24'
_cell_volume   870.81372391
_cell_formula_units_Z   8
loop_
 _symmetry_equiv_pos_site_id
 _symmetry_equiv_pos_as_xyz
  1  'x, y, z'
loop_
 _atom_site_type_symbol
 _atom_site_label
 _atom_site_symmetry_multiplicity
 _atom_site_fract_x
 _atom_site_fract_y
 _atom_site_fract_z
 _atom_site_occupancy
  Y  Y0  1  0.35092200  0.45108600  0.37924200  1
  Y  Y1  1  0.07184300  0.97168000  0.62075800  1
  Y  Y2  1  0.66488800  0.66488800  0.00000000  1
  Y  Y3  1  0.37500000  0.00660300  0.13160300  1
  Y  Y4  1  0.67815700  0.79891400  0.39983700  1
  Y  Y5  1  0.08511200  0.58511200  0.50000000  1
  Y  Y6  1  0.87500000  0.24339700  0.86839700  1
  Y  Y7  1  0.39907800  0.27832000  0.60016300  1
  Y  Y8  1  0.72168000  0.32184300  0.12075800  1
  Y  Y9  1  0.41488800  0.91488800  0.50000000  1
  Y  Y10  1  0.99339700  0.12500000  0.36839700  1
  Y  Y11  1  0.75660300  0.62500000  0.63160300  1
  Y  Y12  1  0.20108600  0.60092200  0.87924200  1
  Y  Y13  1  0.33511200  0.33511200  0.00000000  1
  Y  Y14  1  0.02832000  0.64907800  0.10016300  1
  Y  Y15  1  0.54891400  0.92815700  0.89983700  1
  S  S0  1  0.00371400  0.61891500  0.25390900  1
  S  S1  1  0.57363600  0.32753600  0.61357000  1
  S  S2  1  0.36500600  0.74980500  0.74609100  1
  S  S3  1  0.38499400  0.63108500  0.88479900  1
  S  S4  1  0.74628600  0.50019500  0.11520100  1
  S  S5  1  0.71396600  0.96006600  0.38643000  1
  S  S6  1  0.34350400  0.93812600  0.24697800  1
  S  S7  1  0.03603400  0.92246400  0.74610000  1
  S  S8  1  0.90347400  0.65649600  0.59462200  1
  S  S9  1  0.69114800  0.09652600  0.75302200  1
  S  S10  1  0.17636400  0.28993400  0.25390000  1
  S  S11  1  0.71006600  0.96396600  0.88643000  1
  S  S12  1  0.07753600  0.82363600  0.11357000  1
  S  S13  1  0.06187400  0.30885200  0.40537800  1
  S  S14  1  0.67246400  0.28603400  0.24610000  1
  S  S15  1  0.36891500  0.25371400  0.75390900  1
  S  S16  1  0.25019500  0.99628600  0.61520100  1
  S  S17  1  0.03993400  0.42636400  0.75390000  1
  S  S18  1  0.49980500  0.61500600  0.24609100  1
  S  S19  1  0.05885200  0.31187400  0.90537800  1
  S  S20  1  0.40649600  0.15347400  0.09462200  1
  S  S21  1  0.38108500  0.63499400  0.38479900  1
  S  S22  1  0.68812600  0.59350400  0.74697800  1
  S  S23  1  0.84652600  0.94114800  0.25302200  1
loop_
_geom_bond_atom_site_label_1
_geom_bond_atom_site_label_2
_geom_bond_distance
_geom_bond_site_symmetry_2
S0 Y14 2.756411 1_555
S0 Y2 2.766091 1_455
S0 Y1 2.824285 1_555
S0 Y5 2.951734 1_555
S0 Y6 3.083079 1_454
S0 Y0 3.202719 1_555
S1 Y7 2.728967 1_555
S1 Y2 2.756761 1_556
S1 Y6 2.769562 1_555
S1 Y3 2.974251 1_555
S1 Y0 2.990689 1_555
S2 Y15 2.756399 1_555
S2 Y2 2.766091 1_556
S2 Y0 2.824285 1_555
S2 Y5 2.951734 1_555
S2 Y3 3.083079 1_566
S2 Y1 3.202722 1_555
S3 Y12 2.756397 1_555
S3 Y5 2.766091 1_555
S3 Y7 2.824285 1_555
S3 Y2 2.951734 1_556
S3 Y3 3.083079 1_566
S3 Y4 3.202726 1_556
S4 Y8 2.756411 1_555
S4 Y5 2.766091 1_655
S4 Y4 2.824284 1_555
S4 Y2 2.951734 1_555
S4 Y6 3.083079 1_554
S4 Y7 3.202722 1_554
S5 Y4 2.728981 1_555
S5 Y2 2.756761 1_555
S5 Y3 2.769562 1_565
S5 Y6 2.974251 1_565
S5 Y1 2.990678 1_655
S6 Y7 2.731395 1_565
S6 Y3 2.781237 1_565
S6 Y12 2.826903 1_554
S6 Y4 2.988573 1_555
S6 Y9 3.013904 1_555
S7 Y1 2.728967 1_555
S7 Y5 2.756761 1_555
S7 Y3 2.769562 1_566
S7 Y6 2.974251 1_465
S7 Y4 2.990683 1_455
S8 Y12 2.731397 1_655
S8 Y11 2.781237 1_555
S8 Y4 2.826897 1_555
S8 Y8 2.988570 1_555
S8 Y5 3.013904 1_655
S9 Y4 2.731396 1_545
S9 Y6 2.781237 1_555
S9 Y8 2.826907 1_556
S9 Y7 2.988570 1_555
S9 Y9 3.013904 1_545
S10 Y0 2.728979 1_555
S10 Y5 2.756761 1_555
S10 Y6 2.769562 1_454
S10 Y3 2.974251 1_555
S10 Y7 2.990678 1_555
S11 Y15 2.728981 1_555
S11 Y9 2.756761 1_555
S11 Y11 2.769562 1_555
S11 Y10 2.974251 1_566
S11 Y8 2.990678 1_566
S12 Y14 2.728967 1_555
S12 Y9 2.756761 1_555
S12 Y10 2.769562 1_465
S12 Y11 2.974251 1_454
S12 Y12 2.990689 1_554
S13 Y8 2.731395 1_455
S13 Y10 2.781237 1_455
S13 Y7 2.826907 1_555
S13 Y12 2.988566 1_555
S13 Y5 3.013904 1_555
S14 Y8 2.728967 1_555
S14 Y13 2.756761 1_555
S14 Y11 2.769562 1_555
S14 Y10 2.974251 1_555
S14 Y15 2.990683 1_544
S15 Y7 2.756411 1_555
S15 Y9 2.766091 1_545
S15 Y8 2.824285 1_556
S15 Y13 2.951734 1_556
S15 Y10 3.083079 1_455
S15 Y12 3.202719 1_555
S16 Y1 2.756411 1_555
S16 Y13 2.766091 1_566
S16 Y15 2.824284 1_555
S16 Y9 2.951734 1_555
S16 Y10 3.083079 1_465
S16 Y14 3.202722 1_555
S17 Y12 2.728979 1_555
S17 Y13 2.756761 1_556
S17 Y10 2.769562 1_455
S17 Y11 2.974251 1_455
S17 Y14 2.990678 1_556
S18 Y4 2.756399 1_555
S18 Y9 2.766091 1_555
S18 Y12 2.824285 1_554
S18 Y13 2.951734 1_555
S18 Y11 3.083079 1_555
S18 Y8 3.202722 1_555
S19 Y1 2.731395 1_545
S19 Y6 2.781237 1_455
S19 Y14 2.826907 1_556
S19 Y0 2.988566 1_556
S19 Y13 3.013904 1_556
S20 Y0 2.731397 1_555
S20 Y3 2.781237 1_555
S20 Y15 2.826897 1_544
S20 Y1 2.988570 1_544
S20 Y13 3.013904 1_555
S21 Y0 2.756397 1_555
S21 Y13 2.766091 1_555
S21 Y14 2.824285 1_555
S21 Y9 2.951734 1_555
S21 Y11 3.083079 1_555
S21 Y15 3.202726 1_555
S22 Y14 2.731395 1_656
S22 Y11 2.781237 1_555
S22 Y0 2.826903 1_555
S22 Y15 2.988573 1_555
S22 Y2 3.013904 1_556
S23 Y15 2.731396 1_554
S23 Y10 2.781237 1_565
S23 Y1 2.826907 1_655
S23 Y14 2.988570 1_655
S23 Y2 3.013904 1_555
