# generated using pymatgen
data_Lu2Ga4CuPd
_symmetry_space_group_name_H-M   'P 1'
_cell_length_a   5.38176180
_cell_length_b   5.38176129
_cell_length_c   6.49779471
_cell_angle_alpha   90.00000000
_cell_angle_beta   90.00000000
_cell_angle_gamma   133.32639326
_symmetry_Int_Tables_number   1
_chemical_formula_structural   Lu2Ga4CuPd
_chemical_formula_sum   'Lu2 Ga4 Cu1 Pd1'
_cell_volume   136.90587062
_cell_formula_units_Z   1
loop_
 _symmetry_equiv_pos_site_id
 _symmetry_equiv_pos_as_xyz
  1  'x, y, z'
loop_
 _atom_site_type_symbol
 _atom_site_label
 _atom_site_symmetry_multiplicity
 _atom_site_fract_x
 _atom_site_fract_y
 _atom_site_fract_z
 _atom_site_occupancy
  Lu  Lu0  1  0.58406386  0.41593614  0.25000000  1
  Lu  Lu1  1  0.41566000  0.58434000  0.75000000  1
  Ga  Ga0  1  0.87241587  0.12758413  0.44419191  1
  Ga  Ga1  1  0.12833325  0.87166675  0.54794481  1
  Ga  Ga2  1  0.87241587  0.12758413  0.05580809  1
  Ga  Ga3  1  0.12833325  0.87166675  0.95205519  1
  Cu  Cu0  1  0.29468949  0.70531051  0.25000000  1
  Pd  Pd0  1  0.70409041  0.29590959  0.75000000  1
loop_
_geom_bond_atom_site_label_1
_geom_bond_atom_site_label_2
_geom_bond_distance
_geom_bond_site_symmetry_2
Lu0 Pd0 3.458678 1_555
Lu0 Pd0 3.458678 1_554
Lu0 Lu1 3.650388 1_554
Lu0 Lu1 3.650388 1_555
Lu1 Pd0 2.850553 1_555
Lu1 Pd0 2.986142 1_565
Lu1 Pd0 2.986143 1_455
Ga0 Ga2 2.523638 1_555
Ga0 Pd0 2.591506 1_555
Ga0 Ga1 2.617535 1_645
Ga0 Lu1 2.945532 1_545
Ga0 Lu1 2.945532 1_655
Ga0 Lu0 3.116636 1_555
Ga0 Lu0 3.242295 1_545
Ga0 Lu0 3.242295 1_655
Ga1 Pd0 2.613298 1_455
Ga1 Pd0 2.613298 1_565
Ga1 Ga3 2.625826 1_555
Ga1 Lu0 2.912812 1_565
Ga1 Lu0 2.912813 1_455
Ga1 Lu1 3.128470 1_555
Ga1 Lu1 3.269024 1_565
Ga1 Lu1 3.269025 1_455
Ga2 Pd0 2.591506 1_554
Ga2 Ga3 2.617535 1_644
Ga2 Lu1 2.945532 1_544
Ga2 Lu1 2.945532 1_654
Ga2 Lu0 3.116636 1_555
Ga2 Lu0 3.242295 1_545
Ga2 Lu0 3.242295 1_655
Ga3 Pd0 2.613298 1_455
Ga3 Pd0 2.613298 1_565
Ga3 Lu0 2.912812 1_566
Ga3 Lu0 2.912813 1_456
Ga3 Lu1 3.128470 1_555
Ga3 Lu1 3.269024 1_565
Ga3 Lu1 3.269025 1_455
Cu0 Ga1 2.539899 1_555
Cu0 Ga3 2.539899 1_554
Cu0 Ga0 2.593703 1_455
Cu0 Ga2 2.593703 1_455
Cu0 Ga0 2.593703 1_565
Cu0 Ga2 2.593703 1_565
Cu0 Lu0 2.859882 1_555
Cu0 Lu0 2.979617 1_565
Cu0 Lu0 2.979618 1_455
Cu0 Lu1 3.461889 1_555
Cu0 Lu1 3.461889 1_554
