# generated using pymatgen
data_Y2Ga9Tc2Ru3
_symmetry_space_group_name_H-M   'P 1'
_cell_length_a   7.94562785
_cell_length_b   7.94562743
_cell_length_c   7.94562822
_cell_angle_alpha   134.28176429
_cell_angle_beta   134.28175491
_cell_angle_gamma   66.64825621
_symmetry_Int_Tables_number   1
_chemical_formula_structural   Y2Ga9Tc2Ru3
_chemical_formula_sum   'Y2 Ga9 Tc2 Ru3'
_cell_volume   253.01019052
_cell_formula_units_Z   1
loop_
 _symmetry_equiv_pos_site_id
 _symmetry_equiv_pos_as_xyz
  1  'x, y, z'
loop_
 _atom_site_type_symbol
 _atom_site_label
 _atom_site_symmetry_multiplicity
 _atom_site_fract_x
 _atom_site_fract_y
 _atom_site_fract_z
 _atom_site_occupancy
  Y  Y0  1  0.00000000  0.50000000  0.50000000  1
  Y  Y1  1  0.50000000  0.00000000  0.50000000  1
  Ga  Ga0  1  0.43988823  0.85801052  0.00000000  1
  Ga  Ga1  1  0.14198948  0.14198948  0.58187671  1
  Ga  Ga2  1  0.85801052  0.43988823  0.00000000  1
  Ga  Ga3  1  0.85801052  0.85801052  0.41812329  1
  Ga  Ga4  1  0.56011177  0.14198948  1.00000000  1
  Ga  Ga5  1  0.14198948  0.56011177  1.00000000  1
  Ga  Ga6  1  0.56011177  0.56011177  0.41812329  1
  Ga  Ga7  1  0.00000000  0.00000000  0.00000000  1
  Ga  Ga8  1  0.43988823  0.43988823  0.58187671  1
  Tc  Tc0  1  0.18287200  0.18287200  1.00000000  1
  Tc  Tc1  1  0.81712800  0.81712800  0.00000000  1
  Ru  Ru0  1  0.25000000  0.75000000  0.50000000  1
  Ru  Ru1  1  0.75000000  0.25000000  0.50000000  1
  Ru  Ru2  1  0.50000000  0.50000000  0.00000000  1
loop_
_geom_bond_atom_site_label_1
_geom_bond_atom_site_label_2
_geom_bond_distance
_geom_bond_site_symmetry_2
Ga0 Tc0 2.579601 1_564
Ga0 Ga8 2.581165 1_554
Ga0 Ga3 2.581165 1_555
Ga0 Ru1 2.586834 1_565
Ga0 Ru0 2.586835 1_554
Ga0 Ru2 2.691264 1_555
Ga0 Ga4 2.777142 1_564
Ga0 Tc1 2.884110 1_555
Ga0 Y0 2.966989 1_554
Ga0 Y1 2.966989 1_565
Ga1 Tc1 2.579598 1_445
Ga1 Ga5 2.581165 1_555
Ga1 Ga4 2.581165 1_555
Ga1 Ru0 2.586837 1_545
Ga1 Ru1 2.586837 1_455
Ga1 Ru2 2.691262 1_556
Ga1 Ga3 2.777152 1_445
Ga1 Tc0 2.884118 1_555
Ga1 Y0 2.966984 1_555
Ga1 Y1 2.966984 1_555
Ga2 Tc0 2.579601 1_654
Ga2 Ga3 2.581165 1_555
Ga2 Ga8 2.581165 1_554
Ga2 Ru0 2.586834 1_655
Ga2 Ru1 2.586835 1_554
Ga2 Ru2 2.691264 1_555
Ga2 Ga5 2.777142 1_654
Ga2 Tc1 2.884110 1_555
Ga2 Y1 2.966989 1_554
Ga2 Y0 2.966990 1_655
Ga3 Tc0 2.579598 1_665
Ga3 Ru1 2.586837 1_565
Ga3 Ru0 2.586837 1_655
Ga3 Ru2 2.691262 1_555
Ga3 Tc1 2.884118 1_555
Ga3 Y0 2.966984 1_655
Ga3 Y1 2.966984 1_565
Ga4 Tc1 2.579601 1_546
Ga4 Ga6 2.581165 1_556
Ga4 Ru0 2.586834 1_545
Ga4 Ru1 2.586835 1_556
Ga4 Ru2 2.691264 1_556
Ga4 Tc0 2.884110 1_555
Ga4 Y0 2.966989 1_656
Ga4 Y1 2.966989 1_555
Ga5 Tc1 2.579601 1_456
Ga5 Ga6 2.581165 1_556
Ga5 Ru1 2.586834 1_455
Ga5 Ru0 2.586835 1_556
Ga5 Ru2 2.691264 1_556
Ga5 Tc0 2.884110 1_555
Ga5 Y1 2.966989 1_566
Ga5 Y0 2.966990 1_555
Ga6 Tc1 2.579596 1_556
Ga6 Ru0 2.586830 1_555
Ga6 Ru1 2.586830 1_555
Ga6 Ru2 2.691272 1_555
Ga6 Ga8 2.777127 1_555
Ga6 Tc0 2.884108 1_554
Ga6 Y1 2.966993 1_565
Ga6 Y0 2.966993 1_655
Ga7 Tc0 2.428239 1_554
Ga7 Tc1 2.428239 1_445
Ga7 Y0 3.086611 1_544
Ga7 Y0 3.086611 1_555
Ga7 Y1 3.086611 1_555
Ga7 Y1 3.086611 1_454
Ga8 Tc0 2.579596 1_554
Ga8 Ru1 2.586830 1_555
Ga8 Ru0 2.586830 1_555
Ga8 Ru2 2.691272 1_556
Ga8 Tc1 2.884108 1_556
Ga8 Y1 2.966993 1_555
Ga8 Y0 2.966993 1_555
Ru0 Y1 3.319588 1_565
Ru0 Y0 3.319588 1_555
Ru1 Y0 3.319588 1_655
Ru1 Y1 3.319588 1_555
Ru2 Y1 3.086611 1_554
Ru2 Y1 3.086611 1_565
Ru2 Y0 3.086611 1_655
Ru2 Y0 3.086611 1_554
