# generated using pymatgen
data_RbFeNiF6
_symmetry_space_group_name_H-M   'P 1'
_cell_length_a   7.25431365
_cell_length_b   7.25431480
_cell_length_c   7.25431451
_cell_angle_alpha   120.76300659
_cell_angle_beta   119.13928256
_cell_angle_gamma   90.09038574
_symmetry_Int_Tables_number   1
_chemical_formula_structural   RbFeNiF6
_chemical_formula_sum   'Rb2 Fe2 Ni2 F12'
_cell_volume   270.07556942
_cell_formula_units_Z   2
loop_
 _symmetry_equiv_pos_site_id
 _symmetry_equiv_pos_as_xyz
  1  'x, y, z'
loop_
 _atom_site_type_symbol
 _atom_site_label
 _atom_site_symmetry_multiplicity
 _atom_site_fract_x
 _atom_site_fract_y
 _atom_site_fract_z
 _atom_site_occupancy
  Rb  Rb0  1  0.86091430  0.61091430  0.25000000  1
  Rb  Rb1  1  0.13908570  0.38908570  0.75000000  1
  Fe  Fe0  1  0.50000000  0.00000000  0.50000000  1
  Fe  Fe1  1  0.00000000  0.00000000  0.00000000  1
  Ni  Ni0  1  0.50000000  0.00000000  0.00000000  1
  Ni  Ni1  1  0.50000000  0.50000000  0.50000000  1
  F  F0  1  0.81854528  0.06854528  0.75000000  1
  F  F1  1  0.42235475  0.67235475  0.75000000  1
  F  F2  1  0.82617874  0.68264930  0.75547573  1
  F  F3  1  0.42717258  0.07070302  0.74452427  1
  F  F4  1  0.82617874  0.07070302  0.14353044  1
  F  F5  1  0.42717258  0.68264930  0.35646956  1
  F  F6  1  0.18145472  0.93145472  0.25000000  1
  F  F7  1  0.57764525  0.32764525  0.25000000  1
  F  F8  1  0.17382126  0.31735070  0.24452427  1
  F  F9  1  0.57282742  0.92929698  0.25547573  1
  F  F10  1  0.17382126  0.92929698  0.85646956  1
  F  F11  1  0.57282742  0.31735070  0.64353044  1
loop_
_geom_bond_atom_site_label_1
_geom_bond_atom_site_label_2
_geom_bond_distance
_geom_bond_site_symmetry_2
F0 Fe0 1.966913 1_555
F0 Fe1 1.966913 1_656
F0 Rb1 3.285877 1_655
F1 Ni1 1.961384 1_555
F1 Ni0 1.961384 1_566
F1 Rb1 2.903806 1_555
F2 Fe1 1.916123 1_666
F2 Ni1 1.999158 1_555
F2 Rb1 3.115425 1_655
F3 Fe0 1.916128 1_555
F3 Ni0 1.999157 1_556
F3 Rb1 3.115420 1_555
F4 Fe1 1.916128 1_655
F4 Ni0 1.999157 1_555
F4 Rb1 3.115420 1_655
F5 Fe0 1.916121 1_565
F5 Ni1 1.999164 1_555
F5 Rb1 3.115420 1_554
F6 Fe0 1.966913 1_565
F6 Fe1 1.966913 1_565
F6 Rb0 3.285877 1_455
F7 Ni1 1.961384 1_555
F7 Ni0 1.961384 1_555
F7 Rb0 2.903806 1_555
F8 Fe1 1.916123 1_555
F8 Ni1 1.999158 1_555
F8 Rb0 3.115425 1_455
F9 Fe0 1.916128 1_565
F9 Ni0 1.999157 1_565
F9 Rb0 3.115420 1_555
F10 Fe1 1.916128 1_566
F10 Ni0 1.999157 1_566
F10 Rb0 3.115420 1_455
F11 Fe0 1.916121 1_555
F11 Ni1 1.999164 1_555
F11 Rb0 3.115420 1_556
