# generated using pymatgen
data_Cu2Ni3RhS8
_symmetry_space_group_name_H-M   'P 1'
_cell_length_a   6.80862284
_cell_length_b   6.80862269
_cell_length_c   6.80862227
_cell_angle_alpha   59.63161413
_cell_angle_beta   59.63161354
_cell_angle_gamma   59.63161473
_symmetry_Int_Tables_number   1
_chemical_formula_structural   Cu2Ni3RhS8
_chemical_formula_sum   'Cu2 Ni3 Rh1 S8'
_cell_volume   221.31550887
_cell_formula_units_Z   1
loop_
 _symmetry_equiv_pos_site_id
 _symmetry_equiv_pos_as_xyz
  1  'x, y, z'
loop_
 _atom_site_type_symbol
 _atom_site_label
 _atom_site_symmetry_multiplicity
 _atom_site_fract_x
 _atom_site_fract_y
 _atom_site_fract_z
 _atom_site_occupancy
  Cu  Cu0  1  0.75079024  0.75079024  0.75079024  1
  Cu  Cu1  1  0.49920976  0.49920976  0.49920976  1
  Ni  Ni0  1  0.12500000  0.12500000  0.62500000  1
  Ni  Ni1  1  0.12500000  0.62500000  0.12500000  1
  Ni  Ni2  1  0.62500000  0.12500000  0.12500000  1
  Rh  Rh0  1  0.12500000  0.12500000  0.12500000  1
  S  S0  1  0.88191245  0.34217461  0.88191245  1
  S  S1  1  0.36808755  0.36808755  0.90782539  1
  S  S2  1  0.36364854  0.36364854  0.36364854  1
  S  S3  1  0.90782539  0.36808755  0.36808755  1
  S  S4  1  0.88635146  0.88635146  0.88635146  1
  S  S5  1  0.34217461  0.88191245  0.88191245  1
  S  S6  1  0.36808755  0.90782539  0.36808755  1
  S  S7  1  0.88191245  0.88191245  0.34217461  1
loop_
_geom_bond_atom_site_label_1
_geom_bond_atom_site_label_2
_geom_bond_distance
_geom_bond_site_symmetry_2
Cu0 S7 2.262150 1_555
Cu0 S0 2.262151 1_555
Cu0 S5 2.262151 1_555
Cu0 S4 2.267117 1_555
Cu1 S1 2.262150 1_555
Cu1 S6 2.262151 1_555
Cu1 S3 2.262151 1_555
Cu1 S2 2.267117 1_555
Ni0 S0 2.280124 1_455
Ni0 S6 2.280124 1_545
Ni0 S5 2.280124 1_545
Ni0 S3 2.280124 1_455
Ni0 S2 2.295507 1_555
Ni0 S4 2.295507 1_445
Ni1 S7 2.280124 1_455
Ni1 S1 2.280124 1_554
Ni1 S5 2.280124 1_554
Ni1 S3 2.280124 1_455
Ni1 S2 2.295507 1_555
Ni1 S4 2.295507 1_454
Ni2 S7 2.280124 1_545
Ni2 S1 2.280124 1_554
Ni2 S0 2.280124 1_554
Ni2 S6 2.280124 1_545
Ni2 S2 2.295507 1_555
Ni2 S4 2.295507 1_544
Rh0 S3 2.342184 1_455
Rh0 S5 2.342184 1_544
Rh0 S6 2.342184 1_545
Rh0 S0 2.342184 1_454
Rh0 S1 2.342184 1_554
Rh0 S7 2.342184 1_445
