# generated using pymatgen
data_RbScBeSe3
_symmetry_space_group_name_H-M   'P 1'
_cell_length_a   7.86777103
_cell_length_b   7.86777129
_cell_length_c   10.34058370
_cell_angle_alpha   90.00000000
_cell_angle_beta   90.00000000
_cell_angle_gamma   151.49979245
_symmetry_Int_Tables_number   1
_chemical_formula_structural   RbScBeSe3
_chemical_formula_sum   'Rb2 Sc2 Be2 Se6'
_cell_volume   305.43182892
_cell_formula_units_Z   2
loop_
 _symmetry_equiv_pos_site_id
 _symmetry_equiv_pos_as_xyz
  1  'x, y, z'
loop_
 _atom_site_type_symbol
 _atom_site_label
 _atom_site_symmetry_multiplicity
 _atom_site_fract_x
 _atom_site_fract_y
 _atom_site_fract_z
 _atom_site_occupancy
  Rb  Rb0  1  0.74151423  0.25848677  0.25000000  1
  Rb  Rb1  1  0.25848677  0.74151423  0.75000000  1
  Sc  Sc0  1  0.00000000  0.00000000  0.00000000  1
  Sc  Sc1  1  0.00000000  0.00000000  0.50000000  1
  Be  Be0  1  0.46323452  0.53676648  0.25000000  1
  Be  Be1  1  0.53676648  0.46323452  0.75000000  1
  Se  Se0  1  0.38542266  0.61457834  0.06792268  1
  Se  Se1  1  0.05333531  0.94666669  0.25000000  1
  Se  Se2  1  0.38542266  0.61457834  0.43207732  1
  Se  Se3  1  0.61457834  0.38542266  0.56792268  1
  Se  Se4  1  0.94666669  0.05333531  0.75000000  1
  Se  Se5  1  0.61457834  0.38542266  0.93207632  1
loop_
_geom_bond_atom_site_label_1
_geom_bond_atom_site_label_2
_geom_bond_distance
_geom_bond_site_symmetry_2
Rb0 Se1 3.462315 1_545
Rb0 Se1 3.462318 1_655
Rb0 Se2 3.480345 1_655
Rb0 Se0 3.480345 1_655
Rb0 Se0 3.480346 1_545
Rb0 Se2 3.480346 1_545
Rb0 Se3 3.815178 1_555
Rb0 Se5 3.815187 1_554
Rb1 Se4 3.462316 1_455
Rb1 Se4 3.462318 1_565
Rb1 Se5 3.480340 1_455
Rb1 Se5 3.480340 1_565
Rb1 Se3 3.480345 1_455
Rb1 Se3 3.480346 1_565
Rb1 Se0 3.815178 1_556
Rb1 Se2 3.815178 1_555
Sc0 Se0 2.701430 1_445
Sc0 Se5 2.701433 1_444
Sc0 Se0 2.701433 1_555
Sc0 Se5 2.701435 1_554
Sc0 Se1 2.710098 1_545
Sc0 Se4 2.710098 1_454
Sc1 Se2 2.701430 1_445
Sc1 Se3 2.701430 1_445
Sc1 Se3 2.701433 1_555
Sc1 Se2 2.701433 1_555
Sc1 Se1 2.710098 1_545
Sc1 Se4 2.710098 1_455
Be0 Se0 2.225585 1_555
Be0 Se2 2.225585 1_555
Be0 Se1 2.374671 1_545
Be0 Se1 2.374674 1_655
Be1 Se5 2.225576 1_555
Be1 Se3 2.225585 1_555
Be1 Se4 2.374671 1_455
Be1 Se4 2.374674 1_565
