# generated using pymatgen
data_Ir5Rh3Se16
_symmetry_space_group_name_H-M   'P 1'
_cell_length_a   3.75143404
_cell_length_b   5.98944118
_cell_length_c   21.17478304
_cell_angle_alpha   90.03419912
_cell_angle_beta   90.00000000
_cell_angle_gamma   90.00000000
_symmetry_Int_Tables_number   1
_chemical_formula_structural   Ir5Rh3Se16
_chemical_formula_sum   'Ir5 Rh3 Se16'
_cell_volume   475.77597771
_cell_formula_units_Z   1
loop_
 _symmetry_equiv_pos_site_id
 _symmetry_equiv_pos_as_xyz
  1  'x, y, z'
loop_
 _atom_site_type_symbol
 _atom_site_label
 _atom_site_symmetry_multiplicity
 _atom_site_fract_x
 _atom_site_fract_y
 _atom_site_fract_z
 _atom_site_occupancy
  Ir  Ir0  1  0.25000000  0.07170027  0.57638485  1
  Ir  Ir1  1  0.25000000  0.42736913  0.07638397  1
  Ir  Ir2  1  0.75000000  0.92789019  0.42357074  1
  Ir  Ir3  1  0.75000000  0.57037971  0.92374156  1
  Ir  Ir4  1  0.25000000  0.05746783  0.80483735  1
  Rh  Rh0  1  0.25000000  0.44447769  0.30457619  1
  Rh  Rh1  1  0.75000000  0.94438541  0.19527148  1
  Rh  Rh2  1  0.75000000  0.55640817  0.69521426  1
  Se  Se0  1  0.25000000  0.42870767  0.86090392  1
  Se  Se1  1  0.25000000  0.07116516  0.36080936  1
  Se  Se2  1  0.75000000  0.57108740  0.13909157  1
  Se  Se3  1  0.75000000  0.92794952  0.63884308  1
  Se  Se4  1  0.75000000  0.18146509  0.73789380  1
  Se  Se5  1  0.75000000  0.31940347  0.23725788  1
  Se  Se6  1  0.25000000  0.81939516  0.26254448  1
  Se  Se7  1  0.25000000  0.68172163  0.76229522  1
  Se  Se8  1  0.75000000  0.95140998  0.87812842  1
  Se  Se9  1  0.75000000  0.55071667  0.37736539  1
  Se  Se10  1  0.25000000  0.05055112  0.12248104  1
  Se  Se11  1  0.25000000  0.44907398  0.62246348  1
  Se  Se12  1  0.75000000  0.22401078  0.50821738  1
  Se  Se13  1  0.75000000  0.27461245  0.00833569  1
  Se  Se14  1  0.25000000  0.77620985  0.49164331  1
  Se  Se15  1  0.25000000  0.72244268  0.99174761  1
loop_
_geom_bond_atom_site_label_1
_geom_bond_atom_site_label_2
_geom_bond_distance
_geom_bond_site_symmetry_2
Ir0 Se3 2.451547 1_545
Ir0 Se3 2.451547 1_445
Ir0 Se11 2.461327 1_555
Ir0 Se14 2.519582 1_545
Ir0 Se12 2.536846 1_455
Ir0 Se12 2.536846 1_555
Ir1 Se2 2.453776 1_455
Ir1 Se2 2.453776 1_555
Ir1 Se10 2.459496 1_555
Ir1 Se15 2.517746 1_554
Ir1 Se13 2.535754 1_455
Ir1 Se13 2.535754 1_555
Ir2 Se1 2.454018 1_565
Ir2 Se1 2.454018 1_665
Ir2 Se9 2.461290 1_555
Ir2 Se12 2.520805 1_565
Ir2 Se14 2.534346 1_655
Ir2 Se14 2.534346 1_555
Ir3 Se0 2.451001 1_555
Ir3 Se0 2.451001 1_655
Ir3 Se8 2.478657 1_555
Ir3 Se13 2.520030 1_556
Ir3 Se15 2.533751 1_655
Ir3 Se15 2.533751 1_555
Ir4 Se7 2.423603 1_545
Ir4 Se4 2.465864 1_455
Ir4 Se4 2.465864 1_555
Ir4 Se8 2.516241 1_445
Ir4 Se8 2.516241 1_545
Ir4 Se0 2.519985 1_555
Rh0 Se6 2.415985 1_555
Rh0 Se5 2.471869 1_455
Rh0 Se5 2.471869 1_555
Rh0 Se9 2.509508 1_555
Rh0 Se9 2.509508 1_455
Rh0 Se1 2.533851 1_555
Rh1 Se5 2.415205 1_565
Rh1 Se6 2.471679 1_555
Rh1 Se6 2.471679 1_655
Rh1 Se10 2.509879 1_665
Rh1 Se10 2.509879 1_565
Rh1 Se2 2.531991 1_555
Rh2 Se4 2.421222 1_555
Rh2 Se7 2.469410 1_555
Rh2 Se7 2.469410 1_655
Rh2 Se11 2.510677 1_555
Rh2 Se11 2.510677 1_655
Rh2 Se3 2.525874 1_555
Se0 Se7 2.580711 1_555
Se1 Se6 2.568982 1_545
Se2 Se5 2.568447 1_555
Se3 Se4 2.588586 1_565
