# generated using pymatgen
data_Cs2CdInBi2
_symmetry_space_group_name_H-M   'P 1'
_cell_length_a   11.54064330
_cell_length_b   11.54064378
_cell_length_c   7.57689658
_cell_angle_alpha   90.00000000
_cell_angle_beta   90.00000000
_cell_angle_gamma   98.45154333
_symmetry_Int_Tables_number   1
_chemical_formula_structural   Cs2CdInBi2
_chemical_formula_sum   'Cs8 Cd4 In4 Bi8'
_cell_volume   998.18124361
_cell_formula_units_Z   4
loop_
 _symmetry_equiv_pos_site_id
 _symmetry_equiv_pos_as_xyz
  1  'x, y, z'
loop_
 _atom_site_type_symbol
 _atom_site_label
 _atom_site_symmetry_multiplicity
 _atom_site_fract_x
 _atom_site_fract_y
 _atom_site_fract_z
 _atom_site_occupancy
  Cs  Cs0  1  0.08407120  0.41592880  0.25000000  1
  Cs  Cs1  1  0.41592880  0.08407120  0.75000000  1
  Cs  Cs2  1  0.91592880  0.58407120  0.75000000  1
  Cs  Cs3  1  0.58407120  0.91592880  0.25000000  1
  Cs  Cs4  1  0.66577427  0.33422573  0.24658190  1
  Cs  Cs5  1  0.83422573  0.16577427  0.74658190  1
  Cs  Cs6  1  0.33422573  0.66577427  0.75341810  1
  Cs  Cs7  1  0.16577427  0.83422573  0.25341810  1
  Cd  Cd0  1  0.37425319  0.37425319  0.00000000  1
  Cd  Cd1  1  0.12574681  0.12574681  0.50000000  1
  Cd  Cd2  1  0.62574681  0.62574681  0.00000000  1
  Cd  Cd3  1  0.87425319  0.87425319  0.50000000  1
  In  In0  1  0.12398649  0.12398649  0.00000000  1
  In  In1  1  0.37601351  0.37601351  0.50000000  1
  In  In2  1  0.87601351  0.87601351  0.00000000  1
  In  In3  1  0.62398649  0.62398649  0.50000000  1
  Bi  Bi0  1  0.84111663  0.65888237  0.25000000  1
  Bi  Bi1  1  0.65888237  0.84111663  0.75000000  1
  Bi  Bi2  1  0.15888237  0.34111663  0.75000000  1
  Bi  Bi3  1  0.34111663  0.15888237  0.25000000  1
  Bi  Bi4  1  0.90830214  0.09169786  0.25631313  1
  Bi  Bi5  1  0.59169786  0.40830214  0.75631313  1
  Bi  Bi6  1  0.09169786  0.90830214  0.74368687  1
  Bi  Bi7  1  0.40830214  0.59169786  0.24368687  1
loop_
_geom_bond_atom_site_label_1
_geom_bond_atom_site_label_2
_geom_bond_distance
_geom_bond_site_symmetry_2
Cs0 In1 3.950698 1_555
Cs0 In0 3.950698 1_555
Cs0 Cs4 4.780764 1_455
Cs0 Cs7 4.780764 1_555
Cs0 Cs2 4.794792 1_455
Cs0 Cs2 4.794792 1_454
Cs1 In0 3.950698 1_556
Cs1 In1 3.950698 1_555
Cs1 Cs5 4.780764 1_555
Cs1 Cs6 4.780764 1_545
Cs1 Cs3 4.794792 1_545
Cs1 Cs3 4.794792 1_546
Cs2 In3 3.950698 1_555
Cs2 In2 3.950698 1_556
Cs2 Cs6 4.780764 1_655
Cs2 Cs5 4.780764 1_555
Cs3 In2 3.950698 1_555
Cs3 In3 3.950698 1_555
Cs3 Cs7 4.780764 1_555
Cs3 Cs4 4.780764 1_565
Cs4 In1 3.946643 1_555
Cs4 In3 3.946643 1_555
Cs4 Cs5 4.798105 1_554
Cs4 Cs5 4.798105 1_555
Cs5 In0 3.946643 1_656
Cs5 In2 3.946643 1_546
Cs6 In3 3.946643 1_555
Cs6 In1 3.946643 1_555
Cs6 Cs7 4.798105 1_556
Cs6 Cs7 4.798105 1_555
Cs7 In2 3.946643 1_455
Cs7 In0 3.946643 1_565
Cd0 Cs4 3.934419 1_555
Cd0 Cs6 3.934419 1_554
Cd0 Cs0 3.938008 1_555
Cd0 Cs1 3.938009 1_554
Cd1 Cs5 3.934419 1_455
Cd1 Cs7 3.934419 1_545
Cd1 Cs1 3.938008 1_555
Cd1 Cs0 3.938009 1_555
Cd2 Cs6 3.934419 1_554
Cd2 Cs4 3.934419 1_555
Cd2 Cs2 3.938008 1_554
Cd2 Cs3 3.938009 1_555
Cd3 Cs7 3.934419 1_655
Cd3 Cs5 3.934419 1_565
Cd3 Cs3 3.938008 1_555
Cd3 Cs2 3.938009 1_555
Bi0 Cd2 3.103655 1_555
Bi0 Cd3 3.103664 1_555
Bi0 In3 3.119740 1_555
Bi0 In2 3.119749 1_555
Bi0 Cs4 3.988102 1_555
Bi0 Cs7 3.988116 1_655
Bi0 Cs2 4.007778 1_555
Bi0 Cs2 4.007778 1_554
Bi0 Cs0 4.246643 1_655
Bi1 Cd2 3.103655 1_556
Bi1 Cd3 3.103664 1_555
Bi1 In3 3.119740 1_555
Bi1 In2 3.119749 1_556
Bi1 Cs6 3.988102 1_555
Bi1 Cs5 3.988116 1_565
Bi1 Cs3 4.007778 1_555
Bi1 Cs3 4.007778 1_556
Bi1 Cs1 4.246643 1_565
Bi2 Cd1 3.103655 1_555
Bi2 Cd0 3.103664 1_556
Bi2 In0 3.119740 1_556
Bi2 In1 3.119749 1_555
Bi2 Cs5 3.988102 1_455
Bi2 Cs6 3.988116 1_555
Bi2 Cs0 4.007778 1_555
Bi2 Cs0 4.007778 1_556
Bi2 Cs2 4.246643 1_455
Bi3 Cd1 3.103655 1_555
Bi3 Cd0 3.103664 1_555
Bi3 In0 3.119740 1_555
Bi3 In1 3.119749 1_555
Bi3 Cs7 3.988102 1_545
Bi3 Cs4 3.988116 1_555
Bi3 Cs1 4.007778 1_554
Bi3 Cs1 4.007778 1_555
Bi3 Cs3 4.246643 1_545
Bi4 Cd1 3.093712 1_655
Bi4 Cd3 3.093712 1_545
Bi4 In0 3.135857 1_655
Bi4 In2 3.135857 1_545
Bi4 Cs5 3.933905 1_555
Bi4 Cs3 3.985881 1_545
Bi4 Cs0 3.985881 1_655
Bi4 Cs5 4.073443 1_554
Bi4 Cs4 4.239835 1_555
Bi5 Cd0 3.093712 1_556
Bi5 Cd2 3.093712 1_556
Bi5 In1 3.135857 1_555
Bi5 In3 3.135857 1_555
Bi5 Cs4 3.933905 1_556
Bi5 Cs2 3.985881 1_555
Bi5 Cs1 3.985881 1_555
Bi5 Cs4 4.073443 1_555
Bi5 Cs5 4.239835 1_555
Bi6 Cd3 3.093712 1_455
Bi6 Cd1 3.093712 1_565
Bi6 In2 3.135857 1_456
Bi6 In0 3.135857 1_566
Bi6 Cs7 3.933905 1_555
Bi6 Cs1 3.985881 1_565
Bi6 Cs2 3.985881 1_455
Bi6 Cs7 4.073443 1_556
Bi6 Cs6 4.239835 1_555
Bi7 Cd2 3.093712 1_555
Bi7 Cd0 3.093712 1_555
Bi7 In3 3.135857 1_555
Bi7 In1 3.135857 1_555
Bi7 Cs6 3.933905 1_554
Bi7 Cs0 3.985881 1_555
Bi7 Cs3 3.985881 1_555
Bi7 Cs6 4.073443 1_555
Bi7 Cs7 4.239835 1_555
