# generated using pymatgen
data_Sr11Ca(InAs3)4
_symmetry_space_group_name_H-M   'P 1'
_cell_length_a   4.43964948
_cell_length_b   13.04676608
_cell_length_c   14.23421114
_cell_angle_alpha   90.13122921
_cell_angle_beta   90.00000000
_cell_angle_gamma   90.00000000
_symmetry_Int_Tables_number   1
_chemical_formula_structural   Sr11Ca(InAs3)4
_chemical_formula_sum   'Sr11 Ca1 In4 As12'
_cell_volume   824.48702085
_cell_formula_units_Z   1
loop_
 _symmetry_equiv_pos_site_id
 _symmetry_equiv_pos_as_xyz
  1  'x, y, z'
loop_
 _atom_site_type_symbol
 _atom_site_label
 _atom_site_symmetry_multiplicity
 _atom_site_fract_x
 _atom_site_fract_y
 _atom_site_fract_z
 _atom_site_occupancy
  Sr  Sr0  1  0.75000000  0.85690657  0.00351563  1
  Sr  Sr1  1  0.75000000  0.77277218  0.28950112  1
  Sr  Sr2  1  0.75000000  0.35167352  0.49537393  1
  Sr  Sr3  1  0.25000000  0.64570662  0.50227288  1
  Sr  Sr4  1  0.25000000  0.15118663  0.00131374  1
  Sr  Sr5  1  0.25000000  0.43073409  0.89260180  1
  Sr  Sr6  1  0.25000000  0.93116951  0.60579715  1
  Sr  Sr7  1  0.75000000  0.56498933  0.10684049  1
  Sr  Sr8  1  0.25000000  0.22695035  0.71012560  1
  Sr  Sr9  1  0.25000000  0.72774362  0.79114657  1
  Sr  Sr10  1  0.75000000  0.06918936  0.39198526  1
  Ca  Ca0  1  0.75000000  0.27377428  0.21219743  1
  In  In0  1  0.25000000  0.44197022  0.29715375  1
  In  In1  1  0.75000000  0.05709148  0.79886808  1
  In  In2  1  0.75000000  0.55514969  0.70159872  1
  In  In3  1  0.25000000  0.94632278  0.20219165  1
  As  As0  1  0.25000000  0.95538026  0.85790928  1
  As  As1  1  0.75000000  0.54548167  0.35502818  1
  As  As2  1  0.25000000  0.25168995  0.36811981  1
  As  As3  1  0.75000000  0.24804185  0.87377599  1
  As  As4  1  0.25000000  0.39052943  0.11460985  1
  As  As5  1  0.25000000  0.89943802  0.38658094  1
  As  As6  1  0.25000000  0.75456758  0.12538059  1
  As  As7  1  0.75000000  0.60000426  0.88723055  1
  As  As8  1  0.75000000  0.74606740  0.62659199  1
  As  As9  1  0.25000000  0.45288695  0.64207765  1
  As  As10  1  0.75000000  0.10045318  0.61276983  1
  As  As11  1  0.75000000  0.05213022  0.14744256  1
loop_
_geom_bond_atom_site_label_1
_geom_bond_atom_site_label_2
_geom_bond_distance
_geom_bond_site_symmetry_2
In1 Sr8 3.383372 1_555
In1 Sr8 3.383372 1_655
In2 Sr9 3.407310 1_555
In2 Sr9 3.407310 1_655
In3 Sr1 3.407632 1_555
In3 Sr1 3.407632 1_455
As0 In1 2.720284 1_565
As0 In1 2.720284 1_465
As0 Sr9 3.116185 1_555
As0 Sr4 3.266343 1_566
As0 Sr0 3.299405 1_556
As0 Sr0 3.299405 1_456
As0 Sr6 3.601771 1_555
As1 In0 2.724883 1_655
As1 In0 2.724883 1_555
As1 Sr1 3.110672 1_555
As1 Sr2 3.226089 1_555
As1 Sr3 3.319302 1_655
As1 Sr3 3.319302 1_555
As1 Sr7 3.542493 1_555
As2 In0 2.682331 1_555
As2 Sr2 3.146340 1_455
As2 Sr2 3.146340 1_555
As2 Ca0 3.152689 1_455
As2 Ca0 3.152689 1_555
As2 Sr10 3.273544 1_455
As2 Sr10 3.273544 1_555
As3 In1 2.707625 1_555
As3 Sr4 3.135380 1_656
As3 Sr4 3.135380 1_556
As3 Sr8 3.229036 1_555
As3 Sr8 3.229036 1_655
As3 Sr5 3.267687 1_655
As3 Sr5 3.267687 1_555
As4 In0 2.682155 1_555
As4 Ca0 3.031046 1_455
As4 Ca0 3.031046 1_555
As4 Sr7 3.181479 1_455
As4 Sr7 3.181479 1_555
As4 Sr5 3.204532 1_554
As4 Sr4 3.511212 1_555
As5 In3 2.696338 1_555
As5 Sr1 3.091553 1_455
As5 Sr1 3.091553 1_555
As5 Sr10 3.136508 1_465
As5 Sr10 3.136508 1_565
As5 Sr6 3.146773 1_555
As5 Sr3 3.700736 1_555
As6 In3 2.727967 1_555
As6 Sr0 3.119293 1_455
As6 Sr0 3.119293 1_555
As6 Sr1 3.230941 1_555
As6 Sr1 3.230941 1_455
As6 Sr7 3.333452 1_455
As6 Sr7 3.333452 1_555
As7 In2 2.705042 1_555
As7 Sr9 3.096146 1_555
As7 Sr9 3.096146 1_655
As7 Sr5 3.132315 1_655
As7 Sr5 3.132315 1_555
As7 Sr7 3.160214 1_556
As7 Sr0 3.734776 1_556
As8 In2 2.712280 1_555
As8 Sr3 3.124568 1_555
As8 Sr3 3.124568 1_655
As8 Sr9 3.236314 1_555
As8 Sr9 3.236314 1_655
As8 Sr6 3.294034 1_655
As8 Sr6 3.294034 1_555
As9 In2 2.724029 1_555
As9 In2 2.724029 1_455
As9 Sr8 3.104910 1_555
As9 Sr3 3.211181 1_555
As9 Sr2 3.319542 1_455
As9 Sr2 3.319542 1_555
As9 Sr5 3.578367 1_555
As10 In1 2.709966 1_555
As10 Sr8 3.092134 1_555
As10 Sr8 3.092134 1_655
As10 Sr6 3.132795 1_645
As10 Sr6 3.132795 1_545
As10 Sr10 3.168127 1_555
As10 Sr2 3.682418 1_555
As11 In3 2.728645 1_545
As11 In3 2.728645 1_645
As11 Ca0 3.033073 1_555
As11 Sr0 3.265059 1_545
As11 Sr4 3.307063 1_555
As11 Sr4 3.307063 1_655
As11 Sr10 3.487472 1_555
