# generated using pymatgen
data_Hf6CoCl15
_symmetry_space_group_name_H-M   'P 1'
_cell_length_a   8.78196610
_cell_length_b   8.78196673
_cell_length_c   8.78196637
_cell_angle_alpha   109.47122424
_cell_angle_beta   109.47122571
_cell_angle_gamma   109.47121725
_symmetry_Int_Tables_number   1
_chemical_formula_structural   Hf6CoCl15
_chemical_formula_sum   'Hf6 Co1 Cl15'
_cell_volume   521.37883097
_cell_formula_units_Z   1
loop_
 _symmetry_equiv_pos_site_id
 _symmetry_equiv_pos_as_xyz
  1  'x, y, z'
loop_
 _atom_site_type_symbol
 _atom_site_label
 _atom_site_symmetry_multiplicity
 _atom_site_fract_x
 _atom_site_fract_y
 _atom_site_fract_z
 _atom_site_occupancy
  Hf  Hf0  1  0.23707285  0.23707285  0.00000000  1
  Hf  Hf1  1  0.76292715  0.76292715  1.00000000  1
  Hf  Hf2  1  0.76292715  1.00000000  0.76292715  1
  Hf  Hf3  1  1.00000000  0.76292715  0.76292715  1
  Hf  Hf4  1  0.00000000  0.23707285  0.23707285  1
  Hf  Hf5  1  0.23707285  0.00000000  0.23707285  1
  Co  Co0  1  0.00000000  0.00000000  0.00000000  1
  Cl  Cl0  1  0.75188474  0.50376948  0.75188474  1
  Cl  Cl1  1  0.50000000  0.50000000  0.00000000  1
  Cl  Cl2  1  0.00000000  0.50000000  0.50000000  1
  Cl  Cl3  1  0.50000000  0.00000000  0.50000000  1
  Cl  Cl4  1  0.24811526  1.00000000  0.75188474  1
  Cl  Cl5  1  1.00000000  0.24811526  0.75188474  1
  Cl  Cl6  1  0.75188474  0.00000000  0.24811526  1
  Cl  Cl7  1  0.50376948  0.75188474  0.75188474  1
  Cl  Cl8  1  0.00000000  0.75188474  0.24811526  1
  Cl  Cl9  1  0.24811526  0.24811526  0.49623052  1
  Cl  Cl10  1  0.75188474  0.24811526  1.00000000  1
  Cl  Cl11  1  0.49623052  0.24811526  0.24811526  1
  Cl  Cl12  1  0.24811526  0.49623052  0.24811526  1
  Cl  Cl13  1  0.75188474  0.75188474  0.50376948  1
  Cl  Cl14  1  0.24811526  0.75188474  0.00000000  1
loop_
_geom_bond_atom_site_label_1
_geom_bond_atom_site_label_2
_geom_bond_distance
_geom_bond_site_symmetry_2
Co0 Hf5 2.404047 1_555
Co0 Hf2 2.404047 1_444
Co0 Hf4 2.404047 1_555
Co0 Hf3 2.404047 1_444
Co0 Hf0 2.404047 1_555
Co0 Hf1 2.404047 1_444
Cl0 Hf1 2.518513 1_555
Cl0 Hf3 2.518514 1_555
Cl1 Hf1 2.666224 1_554
Cl1 Hf0 2.666224 1_555
Cl2 Hf3 2.666224 1_455
Cl2 Hf4 2.666224 1_555
Cl3 Hf2 2.666223 1_545
Cl3 Hf5 2.666223 1_555
Cl4 Hf0 2.518513 1_566
Cl4 Hf3 2.518514 1_455
Cl5 Hf0 2.518513 1_656
Cl5 Hf2 2.518514 1_545
Cl6 Hf1 2.518513 1_544
Cl6 Hf4 2.518514 1_655
Cl7 Hf1 2.518513 1_555
Cl7 Hf2 2.518514 1_555
Cl8 Hf1 2.518513 1_454
Cl8 Hf5 2.518514 1_565
Cl9 Hf4 2.518513 1_555
Cl9 Hf5 2.518513 1_555
Cl10 Hf4 2.518513 1_656
Cl10 Hf2 2.518514 1_545
Cl11 Hf0 2.518513 1_555
Cl11 Hf5 2.518514 1_555
Cl12 Hf0 2.518513 1_555
Cl12 Hf4 2.518514 1_555
Cl13 Hf3 2.518513 1_555
Cl13 Hf2 2.518513 1_555
Cl14 Hf3 2.518513 1_454
Cl14 Hf5 2.518514 1_565
