# generated using pymatgen
data_SrPd4Pb3O14
_symmetry_space_group_name_H-M   'P 1'
_cell_length_a   7.24304615
_cell_length_b   7.24304429
_cell_length_c   7.24304432
_cell_angle_alpha   60.82208422
_cell_angle_beta   60.82208273
_cell_angle_gamma   60.82208036
_symmetry_Int_Tables_number   1
_chemical_formula_structural   SrPd4Pb3O14
_chemical_formula_sum   'Sr1 Pd4 Pb3 O14'
_cell_volume   273.66950336
_cell_formula_units_Z   1
loop_
 _symmetry_equiv_pos_site_id
 _symmetry_equiv_pos_as_xyz
  1  'x, y, z'
loop_
 _atom_site_type_symbol
 _atom_site_label
 _atom_site_symmetry_multiplicity
 _atom_site_fract_x
 _atom_site_fract_y
 _atom_site_fract_z
 _atom_site_occupancy
  Sr  Sr0  1  0.12500000  0.12500000  0.12500000  1
  Pd  Pd0  1  0.12500000  0.62500000  0.62500000  1
  Pd  Pd1  1  0.62500000  0.12500000  0.62500000  1
  Pd  Pd2  1  0.62500000  0.62500000  0.12500000  1
  Pd  Pd3  1  0.62500000  0.62500000  0.62500000  1
  Pb  Pb0  1  0.62500000  0.12500000  0.12500000  1
  Pb  Pb1  1  0.12500000  0.62500000  0.12500000  1
  Pb  Pb2  1  0.12500000  0.12500000  0.62500000  1
  O  O0  1  0.70631073  0.70631073  0.29527778  1
  O  O1  1  0.29432585  0.29432585  0.70018201  1
  O  O2  1  0.70631073  0.29527778  0.70631073  1
  O  O3  1  0.29432585  0.70018201  0.29432585  1
  O  O4  1  0.29527778  0.70631073  0.70631073  1
  O  O5  1  0.70018201  0.29432585  0.29432585  1
  O  O6  1  0.54368927  0.54368927  0.95472222  1
  O  O7  1  0.95567415  0.95567415  0.54981799  1
  O  O8  1  0.54368927  0.95472222  0.54368927  1
  O  O9  1  0.95567415  0.54981799  0.95567415  1
  O  O10  1  0.95472222  0.54368927  0.54368927  1
  O  O11  1  0.54981799  0.95567415  0.95567415  1
  O  O12  1  0.26196893  0.26196893  0.26196893  1
  O  O13  1  0.98803107  0.98803107  0.98803107  1
loop_
_geom_bond_atom_site_label_1
_geom_bond_atom_site_label_2
_geom_bond_distance
_geom_bond_site_symmetry_2
O0 Pd2 1.992347 1_555
O0 Pd3 1.998137 1_555
O0 Pb0 2.526751 1_565
O0 Pb1 2.526751 1_655
O1 Pd0 2.013080 1_555
O1 Pd1 2.013081 1_555
O1 Pb2 2.464507 1_555
O1 Sr0 2.565850 1_556
O2 Pd1 1.992347 1_555
O2 Pd3 1.998137 1_555
O2 Pb0 2.526751 1_556
O2 Pb2 2.526751 1_655
O3 Pd0 2.013080 1_555
O3 Pd2 2.013081 1_555
O3 Pb1 2.464507 1_555
O3 Sr0 2.565850 1_565
O4 Pd0 1.992347 1_555
O4 Pd3 1.998138 1_555
O4 Pb2 2.526750 1_565
O4 Pb1 2.526751 1_556
O5 Pd2 2.013080 1_555
O5 Pd1 2.013080 1_555
O5 Pb0 2.464507 1_555
O5 Sr0 2.565851 1_655
O6 Pd2 1.992347 1_556
O6 Pd3 1.998137 1_555
O6 Pb0 2.526751 1_556
O6 Pb1 2.526751 1_556
O7 Pd0 2.013080 1_655
O7 Pd1 2.013081 1_565
O7 Pb2 2.464507 1_665
O7 Sr0 2.565850 1_665
O8 Pd1 1.992347 1_565
O8 Pd3 1.998137 1_555
O8 Pb0 2.526751 1_565
O8 Pb2 2.526751 1_565
O9 Pd0 2.013080 1_655
O9 Pd2 2.013081 1_556
O9 Pb1 2.464507 1_656
O9 Sr0 2.565850 1_656
O10 Pd0 1.992347 1_655
O10 Pd3 1.998138 1_555
O10 Pb2 2.526750 1_655
O10 Pb1 2.526751 1_655
O11 Pd2 2.013080 1_556
O11 Pd1 2.013080 1_565
O11 Pb0 2.464507 1_566
O11 Sr0 2.565851 1_566
O12 Pb1 2.180608 1_555
O12 Pb2 2.180608 1_555
O12 Pb0 2.180608 1_555
O12 Sr0 2.414863 1_555
O13 Pb1 2.180608 1_656
O13 Pb2 2.180608 1_665
O13 Pb0 2.180608 1_566
O13 Sr0 2.414863 1_666
