# generated using pymatgen
data_Ca2InRuO6
_symmetry_space_group_name_H-M   'P 1'
_cell_length_a   5.69243136
_cell_length_b   5.47006702
_cell_length_c   9.54806689
_cell_angle_alpha   55.15440633
_cell_angle_beta   90.00000000
_cell_angle_gamma   90.00000000
_symmetry_Int_Tables_number   1
_chemical_formula_structural   Ca2InRuO6
_chemical_formula_sum   'Ca4 In2 Ru2 O12'
_cell_volume   243.99873967
_cell_formula_units_Z   2
loop_
 _symmetry_equiv_pos_site_id
 _symmetry_equiv_pos_as_xyz
  1  'x, y, z'
loop_
 _atom_site_type_symbol
 _atom_site_label
 _atom_site_symmetry_multiplicity
 _atom_site_fract_x
 _atom_site_fract_y
 _atom_site_fract_z
 _atom_site_occupancy
  Ca  Ca0  1  0.44121953  0.26427552  0.75176607  1
  Ca  Ca1  1  0.55878047  0.73572448  0.24823393  1
  Ca  Ca2  1  0.05878047  0.26427552  0.25176607  1
  Ca  Ca3  1  0.94121953  0.73572448  0.74823393  1
  In  In0  1  0.50000000  0.00000000  0.50000000  1
  In  In1  1  0.00000000  0.00000000  0.00000000  1
  Ru  Ru0  1  0.00000000  0.50000000  0.50000000  1
  Ru  Ru1  1  0.50000000  0.50000000  0.00000000  1
  O  O0  1  0.96051327  0.84226249  0.26270575  1
  O  O1  1  0.28535613  0.37544145  0.44133900  1
  O  O2  1  0.31132259  0.73946079  0.05075754  1
  O  O3  1  0.21464387  0.37544145  0.94133900  1
  O  O4  1  0.03948673  0.15773751  0.73729425  1
  O  O5  1  0.53948673  0.84226249  0.76270575  1
  O  O6  1  0.18867741  0.73946079  0.55075754  1
  O  O7  1  0.81132259  0.26053921  0.44924246  1
  O  O8  1  0.78535613  0.62455855  0.05866100  1
  O  O9  1  0.71464387  0.62455855  0.55866100  1
  O  O10  1  0.68867741  0.26053921  0.94924246  1
  O  O11  1  0.46051327  0.15773751  0.23729425  1
loop_
_geom_bond_atom_site_label_1
_geom_bond_atom_site_label_2
_geom_bond_distance
_geom_bond_site_symmetry_2
Ca0 O5 2.318872 1_545
Ca0 O10 2.344316 1_555
Ca0 O9 2.356626 1_555
Ca0 O4 2.383349 1_555
Ca0 O3 2.562681 1_555
Ca0 O6 2.608779 1_555
Ca0 O2 2.751853 1_546
Ca0 O1 2.807584 1_555
Ca1 O11 2.318872 1_565
Ca1 O2 2.344316 1_555
Ca1 O1 2.356626 1_555
Ca1 O0 2.383349 1_555
Ca1 O8 2.562681 1_555
Ca1 O7 2.608779 1_555
Ca1 O10 2.751853 1_564
Ca1 O9 2.807584 1_555
Ca2 O0 2.318872 1_445
Ca2 O7 2.344316 1_455
Ca2 O8 2.356626 1_455
Ca2 O11 2.383349 1_555
Ca2 O1 2.562681 1_555
Ca2 O2 2.608779 1_555
Ca2 O6 2.751853 1_545
Ca2 O3 2.807584 1_554
Ca3 O4 2.318872 1_665
Ca3 O6 2.344316 1_655
Ca3 O3 2.356626 1_655
Ca3 O5 2.383349 1_555
Ca3 O9 2.562681 1_555
Ca3 O10 2.608779 1_555
Ca3 O7 2.751853 1_565
Ca3 O8 2.807584 1_556
In0 O5 2.147917 1_545
In0 O11 2.147917 1_555
In0 O7 2.148798 1_555
In0 O6 2.148798 1_545
In0 O1 2.170209 1_555
In0 O9 2.170209 1_545
In1 O0 2.147917 1_445
In1 O4 2.147917 1_554
In1 O2 2.148798 1_545
In1 O10 2.148798 1_454
In1 O3 2.170209 1_554
In1 O8 2.170209 1_445
O0 Ru0 1.960040 1_655
O1 Ru0 1.962806 1_555
O2 Ru1 1.956933 1_555
O3 Ru1 1.962806 1_556
O4 Ru0 1.960040 1_555
O5 Ru1 1.960040 1_556
O6 Ru0 1.956933 1_555
O7 Ru0 1.956933 1_655
O8 Ru1 1.962806 1_555
O9 Ru0 1.962806 1_655
O10 Ru1 1.956933 1_556
O11 Ru1 1.960040 1_555
