# generated using pymatgen
data_K4Ti5Rh3Se16
_symmetry_space_group_name_H-M   'P 1'
_cell_length_a   6.19091513
_cell_length_b   7.32863721
_cell_length_c   16.05058274
_cell_angle_alpha   89.87969959
_cell_angle_beta   90.30860444
_cell_angle_gamma   89.25083020
_symmetry_Int_Tables_number   1
_chemical_formula_structural   K4Ti5Rh3Se16
_chemical_formula_sum   'K4 Ti5 Rh3 Se16'
_cell_volume   728.15599539
_cell_formula_units_Z   1
loop_
 _symmetry_equiv_pos_site_id
 _symmetry_equiv_pos_as_xyz
  1  'x, y, z'
loop_
 _atom_site_type_symbol
 _atom_site_label
 _atom_site_symmetry_multiplicity
 _atom_site_fract_x
 _atom_site_fract_y
 _atom_site_fract_z
 _atom_site_occupancy
  K  K0  1  0.37427395  0.99832024  0.00252085  1
  K  K1  1  0.62575660  0.50169675  0.49747844  1
  K  K2  1  0.01264568  0.99589089  0.49941142  1
  K  K3  1  0.98742604  0.50412045  0.00059938  1
  Ti  Ti0  1  0.06281767  0.00001252  0.24532474  1
  Ti  Ti1  1  0.04274312  0.99686112  0.75341937  1
  Ti  Ti2  1  0.93715147  0.49997814  0.25469011  1
  Ti  Ti3  1  0.95725279  0.50307082  0.74658120  1
  Ti  Ti4  1  0.50003854  0.25015201  0.74998494  1
  Rh  Rh0  1  0.49993025  0.25002913  0.24998953  1
  Rh  Rh1  1  0.50002974  0.74997179  0.75001174  1
  Rh  Rh2  1  0.50004645  0.74998328  0.24999730  1
  Se  Se0  1  0.83240449  0.24189954  0.34186974  1
  Se  Se1  1  0.82746127  0.75841891  0.65803393  1
  Se  Se2  1  0.16759429  0.74190459  0.15820250  1
  Se  Se3  1  0.16216587  0.25133251  0.84448697  1
  Se  Se4  1  0.16748456  0.25807631  0.15811995  1
  Se  Se5  1  0.17260976  0.74150077  0.84196399  1
  Se  Se6  1  0.83243261  0.75813776  0.34179811  1
  Se  Se7  1  0.83782095  0.24864379  0.65548816  1
  Se  Se8  1  0.68315642  0.99922950  0.16914692  1
  Se  Se9  1  0.67875465  0.99424328  0.83729974  1
  Se  Se10  1  0.31681664  0.50081075  0.33083531  1
  Se  Se11  1  0.32112641  0.50575697  0.66269197  1
  Se  Se12  1  0.36695909  0.00042091  0.34509447  1
  Se  Se13  1  0.34944812  0.99545381  0.65371070  1
  Se  Se14  1  0.63302580  0.49954888  0.15491182  1
  Se  Se15  1  0.65062375  0.50453058  0.84633570  1
loop_
_geom_bond_atom_site_label_1
_geom_bond_atom_site_label_2
_geom_bond_distance
_geom_bond_site_symmetry_2
K0 Se9 3.261813 1_554
K0 Se8 3.279448 1_555
K0 Se3 3.387808 1_564
K0 Se2 3.389695 1_555
K0 Se4 3.389813 1_565
K0 Se5 3.433570 1_554
K1 Se11 3.262253 1_555
K1 Se10 3.279874 1_555
K1 Se7 3.387578 1_555
K1 Se0 3.389767 1_555
K1 Se6 3.389774 1_555
K1 Se1 3.433250 1_555
K2 Se13 3.228838 1_555
K2 Se6 3.274063 1_455
K2 Se0 3.284428 1_465
K2 Se7 3.297647 1_465
K2 Se1 3.300034 1_455
K2 Se12 3.317779 1_565
K3 Se15 3.228403 1_554
K3 Se2 3.273963 1_655
K3 Se4 3.283938 1_655
K3 Se3 3.298057 1_654
K3 Se5 3.299836 1_654
K3 Se14 3.318087 1_555
Rh0 Se10 2.513597 1_555
Rh0 Se8 2.513976 1_545
Rh0 Se4 2.525377 1_555
Rh0 Se0 2.525626 1_555
Rh0 Se14 2.528426 1_555
Rh0 Se12 2.528900 1_555
Rh1 Se5 2.515170 1_555
Rh1 Se1 2.515464 1_555
Rh1 Se13 2.534509 1_555
Rh1 Se15 2.534549 1_555
Rh1 Se9 2.537225 1_555
Rh1 Se11 2.537699 1_555
Rh2 Se14 2.522152 1_555
Rh2 Se12 2.522497 1_565
Rh2 Se10 2.522889 1_555
Rh2 Se8 2.523042 1_555
Rh2 Se6 2.525867 1_555
Rh2 Se2 2.526123 1_555
Se0 Ti2 2.446736 1_555
Se0 Ti0 2.747322 1_655
Se1 Ti3 2.470777 1_555
Se1 Ti1 2.687756 1_655
Se2 Ti0 2.437837 1_565
Se2 Ti2 2.766887 1_455
Se3 Ti1 2.489371 1_545
Se3 Ti4 2.590354 1_555
Se3 Ti3 2.718011 1_455
Se4 Ti0 2.446745 1_555
Se4 Ti2 2.747366 1_455
Se5 Ti1 2.470966 1_555
Se5 Ti3 2.687906 1_455
Se6 Ti2 2.437905 1_555
Se6 Ti0 2.766326 1_665
Se7 Ti3 2.489383 1_555
Se7 Ti4 2.589838 1_555
Se7 Ti1 2.718489 1_645
Se8 Ti0 2.643684 1_665
Se9 Ti4 2.573632 1_565
Se9 Ti1 2.631460 1_655
Se10 Ti2 2.643471 1_455
Se11 Ti4 2.572343 1_555
Se11 Ti3 2.630931 1_455
Se12 Ti0 2.465243 1_555
Se13 Ti1 2.489780 1_555
Se13 Ti4 2.604468 1_565
Se14 Ti2 2.465259 1_555
Se15 Ti3 2.489894 1_555
Se15 Ti4 2.603493 1_555
