# generated using pymatgen
data_BaSb12PdRu3
_symmetry_space_group_name_H-M   'P 1'
_cell_length_a   8.14659596
_cell_length_b   8.14659510
_cell_length_c   8.14659585
_cell_angle_alpha   109.47016657
_cell_angle_beta   109.47016134
_cell_angle_gamma   109.47016370
_symmetry_Int_Tables_number   1
_chemical_formula_structural   BaSb12PdRu3
_chemical_formula_sum   'Ba1 Sb12 Pd1 Ru3'
_cell_volume   416.22060955
_cell_formula_units_Z   1
loop_
 _symmetry_equiv_pos_site_id
 _symmetry_equiv_pos_as_xyz
  1  'x, y, z'
loop_
 _atom_site_type_symbol
 _atom_site_label
 _atom_site_symmetry_multiplicity
 _atom_site_fract_x
 _atom_site_fract_y
 _atom_site_fract_z
 _atom_site_occupancy
  Ba  Ba0  1  0.00000000  0.00000000  0.00000000  1
  Sb  Sb0  1  0.15980138  0.81886316  0.65975609  1
  Sb  Sb1  1  0.15093262  0.50155355  0.34129391  1
  Sb  Sb2  1  0.49844645  0.65870609  0.84906738  1
  Sb  Sb3  1  0.34024391  0.84019862  0.18113684  1
  Sb  Sb4  1  0.81886316  0.65975609  0.15980138  1
  Sb  Sb5  1  0.65870609  0.84906738  0.49844645  1
  Sb  Sb6  1  0.18113684  0.34024391  0.84019862  1
  Sb  Sb7  1  0.65975609  0.15980138  0.81886316  1
  Sb  Sb8  1  0.34129391  0.15093262  0.50155355  1
  Sb  Sb9  1  0.50155355  0.34129391  0.15093262  1
  Sb  Sb10  1  0.84906738  0.49844645  0.65870609  1
  Sb  Sb11  1  0.84019862  0.18113684  0.34024391  1
  Pd  Pd0  1  0.50000000  0.50000000  0.50000000  1
  Ru  Ru0  1  0.00000000  0.00000000  0.50000000  1
  Ru  Ru1  1  0.50000000  0.00000000  0.00000000  1
  Ru  Ru2  1  0.00000000  0.50000000  0.00000000  1
loop_
_geom_bond_atom_site_label_1
_geom_bond_atom_site_label_2
_geom_bond_distance
_geom_bond_site_symmetry_2
Ba0 Sb4 3.537630 1_445
Ba0 Sb6 3.537630 1_554
Ba0 Sb11 3.537630 1_455
Ba0 Sb0 3.537630 1_544
Ba0 Sb3 3.537630 1_545
Ba0 Sb7 3.537630 1_454
Ba0 Sb1 3.568745 1_555
Ba0 Sb10 3.568745 1_444
Ba0 Sb9 3.568745 1_555
Ba0 Sb2 3.568745 1_444
Ba0 Sb8 3.568745 1_555
Ba0 Sb5 3.568745 1_444
Sb0 Sb1 2.949242 1_555
Sb0 Sb10 2.964387 1_455
Sb1 Sb11 2.964387 1_455
Sb2 Sb6 2.949242 1_555
Sb2 Sb4 2.964388 1_556
Sb3 Sb5 2.949242 1_555
Sb3 Sb8 2.964387 1_565
Sb4 Sb9 2.949242 1_555
Sb5 Sb7 2.964387 1_565
Sb6 Sb9 2.964388 1_556
Sb7 Sb8 2.949242 1_555
Sb10 Sb11 2.949242 1_555
Pd0 Sb5 2.709685 1_555
Pd0 Sb8 2.709685 1_555
Pd0 Sb9 2.709685 1_555
Pd0 Sb2 2.709685 1_555
Pd0 Sb10 2.709685 1_555
Pd0 Sb1 2.709685 1_555
Ru0 Sb8 2.632435 1_555
Ru0 Sb5 2.632435 1_445
Ru0 Sb6 2.639598 1_555
Ru0 Sb4 2.639598 1_445
Ru0 Sb0 2.645293 1_545
Ru0 Sb11 2.645293 1_455
Ru1 Sb9 2.632435 1_555
Ru1 Sb2 2.632435 1_544
Ru1 Sb11 2.639599 1_555
Ru1 Sb0 2.639599 1_544
Ru1 Sb7 2.645293 1_554
Ru1 Sb3 2.645293 1_545
Ru2 Sb10 2.632435 1_454
Ru2 Sb1 2.632435 1_555
Ru2 Sb3 2.639598 1_555
Ru2 Sb7 2.639598 1_454
Ru2 Sb4 2.645293 1_455
Ru2 Sb6 2.645293 1_554
