# generated using pymatgen
data_Ca(PrTe2)2
_symmetry_space_group_name_H-M   'P 1'
_cell_length_a   8.34950715
_cell_length_b   8.34946227
_cell_length_c   8.34964836
_cell_angle_alpha   109.81926340
_cell_angle_beta   109.82133858
_cell_angle_gamma   108.77490760
_symmetry_Int_Tables_number   1
_chemical_formula_structural   Ca(PrTe2)2
_chemical_formula_sum   'Ca2 Pr4 Te8'
_cell_volume   448.04300040
_cell_formula_units_Z   2
loop_
 _symmetry_equiv_pos_site_id
 _symmetry_equiv_pos_as_xyz
  1  'x, y, z'
loop_
 _atom_site_type_symbol
 _atom_site_label
 _atom_site_symmetry_multiplicity
 _atom_site_fract_x
 _atom_site_fract_y
 _atom_site_fract_z
 _atom_site_occupancy
  Ca  Ca0  1  0.74999830  0.24999893  0.49999735  1
  Ca  Ca1  1  0.00000050  0.00000179  -0.00000065  1
  Pr  Pr0  1  0.50014502  0.12500865  0.87508300  1
  Pr  Pr1  1  0.87500471  0.75007915  0.37514360  1
  Pr  Pr2  1  0.24992551  0.62506479  0.12491793  1
  Pr  Pr3  1  0.37494139  0.49986313  0.62486196  1
  Te  Te0  1  0.98103873  0.37473927  0.24685545  1
  Te  Te1  1  0.48431419  0.37740479  0.25293950  1
  Te  Te2  1  0.62525732  0.87208385  0.60628045  1
  Te  Te3  1  0.12444470  0.23136831  0.74704746  1
  Te  Te4  1  0.76861535  0.51568986  0.89306811  1
  Te  Te5  1  0.62261990  0.87554657  0.10692969  1
  Te  Te6  1  0.26581482  0.01898347  0.39371999  1
  Te  Te7  1  0.12787955  0.73416842  0.75315516  1
loop_
_geom_bond_atom_site_label_1
_geom_bond_atom_site_label_2
_geom_bond_distance
_geom_bond_site_symmetry_2
Ca0 Te3 3.195447 1_655
Ca0 Te1 3.195558 1_555
Ca0 Te5 3.195569 1_545
Ca0 Te4 3.195596 1_555
Ca0 Te7 3.498206 1_655
Ca0 Te0 3.498320 1_555
Ca0 Te6 3.498327 1_555
Ca0 Te2 3.498420 1_545
Ca1 Te2 3.198459 1_444
Ca1 Te0 3.198468 1_455
Ca1 Te6 3.198484 1_555
Ca1 Te7 3.198485 1_544
Ca1 Te4 3.497801 1_444
Ca1 Te5 3.497821 1_445
Ca1 Te1 3.497866 1_555
Ca1 Te3 3.497879 1_554
Pr0 Te1 3.219612 1_556
Pr0 Te2 3.222462 1_545
Pr0 Te7 3.227809 1_545
Pr0 Te4 3.228091 1_555
Pr0 Te0 3.445948 1_556
Pr0 Te5 3.448812 1_546
Pr0 Te6 3.450382 1_555
Pr0 Te3 3.454618 1_555
Pr1 Te5 3.219446 1_555
Pr1 Te7 3.222272 1_655
Pr1 Te6 3.227588 1_665
Pr1 Te1 3.228064 1_555
Pr1 Te2 3.445877 1_555
Pr1 Te3 3.448702 1_665
Pr1 Te0 3.450392 1_555
Pr1 Te4 3.454761 1_554
Pr2 Te3 3.219648 1_554
Pr2 Te6 3.222423 1_565
Pr2 Te0 3.227704 1_455
Pr2 Te5 3.228096 1_555
Pr2 Te7 3.445790 1_554
Pr2 Te4 3.448819 1_454
Pr2 Te2 3.450366 1_555
Pr2 Te1 3.454505 1_555
Pr3 Te4 3.219388 1_555
Pr3 Te0 3.222187 1_455
Pr3 Te2 3.227487 1_555
Pr3 Te3 3.228114 1_555
Pr3 Te6 3.445834 1_555
Pr3 Te1 3.448795 1_555
Pr3 Te7 3.450398 1_555
Pr3 Te5 3.454705 1_556
