# generated using pymatgen
data_LuMg(Si7Ir3)2
_symmetry_space_group_name_H-M   'P 1'
_cell_length_a   7.94977922
_cell_length_b   7.94977878
_cell_length_c   7.94977900
_cell_angle_alpha   56.69755824
_cell_angle_beta   56.69756126
_cell_angle_gamma   56.69755879
_symmetry_Int_Tables_number   1
_chemical_formula_structural   LuMg(Si7Ir3)2
_chemical_formula_sum   'Lu1 Mg1 Si14 Ir6'
_cell_volume   328.17106334
_cell_formula_units_Z   1
loop_
 _symmetry_equiv_pos_site_id
 _symmetry_equiv_pos_as_xyz
  1  'x, y, z'
loop_
 _atom_site_type_symbol
 _atom_site_label
 _atom_site_symmetry_multiplicity
 _atom_site_fract_x
 _atom_site_fract_y
 _atom_site_fract_z
 _atom_site_occupancy
  Lu  Lu0  1  0.00000000  0.00000000  0.00000000  1
  Mg  Mg0  1  0.50000000  0.50000000  0.50000000  1
  Si  Si0  1  0.84849219  0.06513048  0.67239181  1
  Si  Si1  1  0.67239181  0.84849219  0.06513048  1
  Si  Si2  1  0.06513048  0.67239181  0.84849219  1
  Si  Si3  1  0.64820707  0.82522899  0.43708573  1
  Si  Si4  1  0.24959892  0.24959892  0.24959892  1
  Si  Si5  1  0.75040108  0.75040108  0.75040108  1
  Si  Si6  1  0.17477101  0.56291427  0.35179293  1
  Si  Si7  1  0.56291427  0.35179293  0.17477101  1
  Si  Si8  1  0.35179293  0.17477101  0.56291427  1
  Si  Si9  1  0.93486952  0.32760819  0.15150781  1
  Si  Si10  1  0.32760819  0.15150781  0.93486952  1
  Si  Si11  1  0.15150781  0.93486952  0.32760819  1
  Si  Si12  1  0.82522899  0.43708573  0.64820707  1
  Si  Si13  1  0.43708573  0.64820707  0.82522899  1
  Ir  Ir0  1  0.75081701  0.07252929  0.42577886  1
  Ir  Ir1  1  0.42577886  0.75081701  0.07252929  1
  Ir  Ir2  1  0.07252929  0.42577886  0.75081701  1
  Ir  Ir3  1  0.24918299  0.92747071  0.57422114  1
  Ir  Ir4  1  0.57422114  0.24918299  0.92747071  1
  Ir  Ir5  1  0.92747071  0.57422114  0.24918299  1
loop_
_geom_bond_atom_site_label_1
_geom_bond_atom_site_label_2
_geom_bond_distance
_geom_bond_site_symmetry_2
Lu0 Si9 3.127429 1_455
Lu0 Si2 3.127429 1_544
Lu0 Si11 3.127429 1_545
Lu0 Si0 3.127429 1_454
Lu0 Si10 3.127429 1_554
Lu0 Si1 3.127429 1_445
Lu0 Si6 3.181176 1_545
Lu0 Si12 3.181176 1_454
Lu0 Si7 3.181177 1_455
Lu0 Si13 3.181177 1_544
Lu0 Si8 3.181177 1_554
Lu0 Si3 3.181177 1_445
Mg0 Si3 3.098575 1_555
Mg0 Si8 3.098575 1_555
Mg0 Si13 3.098575 1_555
Mg0 Si7 3.098575 1_555
Mg0 Si12 3.098575 1_555
Mg0 Si6 3.098575 1_555
Mg0 Si0 3.155044 1_555
Mg0 Si11 3.155044 1_555
Mg0 Si1 3.155044 1_555
Mg0 Si10 3.155044 1_555
Mg0 Si2 3.155045 1_555
Mg0 Si9 3.155045 1_555
Ir0 Si9 2.430360 1_555
Ir0 Si7 2.430803 1_555
Ir0 Si0 2.438228 1_555
Ir0 Si5 2.441438 1_545
Ir0 Si3 2.454600 1_545
Ir0 Si8 2.501179 1_555
Ir0 Si11 2.516633 1_645
Ir0 Lu0 3.039672 1_655
Ir0 Mg0 3.056381 1_555
Ir1 Si11 2.430360 1_555
Ir1 Si6 2.430803 1_555
Ir1 Si1 2.438228 1_555
Ir1 Si5 2.441439 1_554
Ir1 Si13 2.454600 1_554
Ir1 Si7 2.501179 1_555
Ir1 Si10 2.516633 1_564
Ir1 Lu0 3.039672 1_565
Ir1 Mg0 3.056381 1_555
Ir2 Si10 2.430360 1_555
Ir2 Si8 2.430803 1_555
Ir2 Si2 2.438228 1_555
Ir2 Si5 2.441439 1_455
Ir2 Si12 2.454600 1_455
Ir2 Si6 2.501179 1_555
Ir2 Si9 2.516633 1_456
Ir2 Lu0 3.039672 1_556
Ir2 Mg0 3.056381 1_555
Ir3 Si2 2.430360 1_555
Ir3 Si13 2.430803 1_555
Ir3 Si11 2.438228 1_555
Ir3 Si4 2.441438 1_565
Ir3 Si8 2.454600 1_565
Ir3 Si3 2.501179 1_555
Ir3 Si0 2.516633 1_465
Ir3 Lu0 3.039672 1_566
Ir3 Mg0 3.056381 1_555
Ir4 Si0 2.430360 1_555
Ir4 Si12 2.430803 1_555
Ir4 Si10 2.438228 1_555
Ir4 Si4 2.441439 1_556
Ir4 Si7 2.454600 1_556
Ir4 Si13 2.501179 1_555
Ir4 Si1 2.516633 1_546
Ir4 Lu0 3.039672 1_656
Ir4 Mg0 3.056381 1_555
Ir5 Si1 2.430360 1_555
Ir5 Si3 2.430803 1_555
Ir5 Si9 2.438228 1_555
Ir5 Si4 2.441439 1_655
Ir5 Si6 2.454600 1_655
Ir5 Si12 2.501179 1_555
Ir5 Si2 2.516633 1_654
Ir5 Lu0 3.039672 1_665
Ir5 Mg0 3.056381 1_555
