# generated using pymatgen
data_Ti8Al15RuPt6
_symmetry_space_group_name_H-M   'P 1'
_cell_length_a   8.65175578
_cell_length_b   8.65184561
_cell_length_c   8.65178160
_cell_angle_alpha   120.16713336
_cell_angle_beta   119.85838373
_cell_angle_gamma   89.97810407
_symmetry_Int_Tables_number   1
_chemical_formula_structural   Ti8Al15RuPt6
_chemical_formula_sum   'Ti8 Al15 Ru1 Pt6'
_cell_volume   457.84223422
_cell_formula_units_Z   1
loop_
 _symmetry_equiv_pos_site_id
 _symmetry_equiv_pos_as_xyz
  1  'x, y, z'
loop_
 _atom_site_type_symbol
 _atom_site_label
 _atom_site_symmetry_multiplicity
 _atom_site_fract_x
 _atom_site_fract_y
 _atom_site_fract_z
 _atom_site_occupancy
  Ti  Ti0  1  0.78644232  0.28765396  0.07326050  1
  Ti  Ti1  1  0.21439834  0.28766396  0.50122649  1
  Ti  Ti2  1  0.21478419  0.71478229  0.50001257  1
  Ti  Ti3  1  0.21439278  0.71316831  0.92672060  1
  Ti  Ti4  1  0.78645003  0.71317438  0.49878790  1
  Ti  Ti5  1  0.78859101  0.28858586  0.50000824  1
  Ti  Ti6  1  0.38148471  0.12044403  0.73892610  1
  Ti  Ti7  1  0.38149200  0.64256058  0.26103892  1
  Al  Al0  1  0.00198307  0.50197501  0.49999215  1
  Al  Al1  1  0.15321011  0.34701481  0.19380857  1
  Al  Al2  1  0.15322082  0.95942464  0.80620710  1
  Al  Al3  1  0.15435349  0.34481532  0.80953122  1
  Al  Al4  1  0.53528929  0.34482528  0.19046671  1
  Al  Al5  1  0.84616623  0.65334848  0.80718759  1
  Al  Al6  1  0.84616919  0.03899104  0.19283150  1
  Al  Al7  1  0.84547212  0.65271193  0.19274998  1
  Al  Al8  1  0.45996488  0.65271346  0.80724359  1
  Al  Al9  1  0.38161105  0.11975406  0.26186688  1
  Al  Al10  1  0.85788921  0.11975210  0.73814758  1
  Al  Al11  1  0.62082993  0.88052248  0.25968866  1
  Al  Al12  1  0.62083851  0.36115103  0.74030474  1
  Al  Al13  1  0.62203327  0.87941227  0.74262773  1
  Al  Al14  1  0.13678809  0.87941538  0.25738267  1
  Ru  Ru0  1  0.49827633  0.99830590  0.50000148  1
  Pt  Pt0  1  0.99857353  0.99957706  0.49932592  1
  Pt  Pt1  1  0.50025115  0.99957896  0.00099818  1
  Pt  Pt2  1  0.49986731  0.49985300  0.00000519  1
  Pt  Pt3  1  0.50025123  0.49925413  0.50064778  1
  Pt  Pt4  1  0.99860210  0.49925856  0.99900438  1
  Pt  Pt5  1  0.00032070  0.00031275  0.99999907  1
loop_
_geom_bond_atom_site_label_1
_geom_bond_atom_site_label_2
_geom_bond_distance
_geom_bond_site_symmetry_2
Ti0 Ti6 2.905544 1_554
Ti1 Ti6 2.905290 1_555
Ti2 Ti6 2.900861 1_565
Ti2 Ti7 2.900970 1_555
Ti3 Ti7 2.905340 1_556
Ti4 Ti7 2.905556 1_555
Al0 Ti2 2.604137 1_555
Al0 Ti1 2.610221 1_555
Al0 Ti3 2.610228 1_555
Al0 Ti0 2.610248 1_455
Al0 Ti4 2.610257 1_455
Al0 Ti5 2.611537 1_455
Al1 Pt5 2.509666 1_554
Al1 Pt3 2.519826 1_555
Al1 Pt4 2.519900 1_454
Al1 Ti2 2.747807 1_555
Al1 Ti0 2.754671 1_455
Al1 Ti1 2.754714 1_555
Al1 Al10 2.849494 1_454
Al1 Al9 2.849503 1_555
Al1 Ti7 2.853523 1_555
Al2 Pt5 2.509623 1_565
Al2 Pt1 2.519824 1_556
Al2 Pt0 2.519862 1_455
Al2 Ti2 2.747769 1_555
Al2 Ti4 2.754773 1_455
Al2 Ti3 2.754799 1_555
Al2 Al9 2.849504 1_566
Al2 Ti6 2.853342 1_565
Al3 Pt4 2.507025 1_455
Al3 Pt0 2.507138 1_445
Al3 Pt2 2.515396 1_556
Al3 Ti5 2.770523 1_455
Al3 Ti1 2.771874 1_555
Al3 Ti3 2.771945 1_555
Al3 Ti6 2.829062 1_555
Al3 Ti7 2.829106 1_556
Al4 Pt3 2.506971 1_555
Al4 Pt1 2.507194 1_545
Al4 Pt2 2.515252 1_555
Al4 Ti5 2.770659 1_555
Al4 Ti4 2.771906 1_555
Al4 Ti0 2.771923 1_555
Al4 Al9 2.823134 1_555
Al4 Ti7 2.829222 1_555
Al4 Ti6 2.829251 1_554
Al5 Pt4 2.512719 1_555
Al5 Pt3 2.512777 1_555
Al5 Pt5 2.515488 1_665
Al5 Ti5 2.743034 1_555
Al5 Ti4 2.769366 1_555
Al5 Ti3 2.769385 1_655
Al6 Pt0 2.512670 1_545
Al6 Pt1 2.512735 1_545
Al6 Pt5 2.515575 1_654
Al6 Ti5 2.742953 1_555
Al6 Ti1 2.769356 1_655
Al6 Ti0 2.769375 1_555
Al7 Pt2 2.508412 1_555
Al7 Pt0 2.510096 1_555
Al7 Pt4 2.510153 1_554
Al7 Ti0 2.738445 1_555
Al7 Ti4 2.738450 1_555
Al7 Ti2 2.770105 1_655
Al8 Pt2 2.508527 1_556
Al8 Pt1 2.510108 1_556
Al8 Pt3 2.510212 1_555
Al8 Ti3 2.738374 1_555
Al8 Ti1 2.738382 1_555
Al8 Ti2 2.770013 1_555
Al9 Ru0 2.544008 1_545
Al9 Pt3 2.678778 1_555
Al9 Pt1 2.678808 1_545
Al9 Pt5 2.700158 1_554
Al9 Ti1 2.906844 1_555
Al9 Ti3 2.906976 1_544
Al9 Ti5 2.921021 1_555
Al10 Ru0 2.544206 1_545
Al10 Pt0 2.678785 1_545
Al10 Pt4 2.678820 1_555
Al10 Pt5 2.700177 1_655
Al10 Al3 2.823085 1_655
Al10 Al2 2.849504 1_645
Al10 Ti0 2.906756 1_556
Al10 Ti4 2.906921 1_545
Al10 Ti5 2.921001 1_555
Al10 Al12 2.926474 1_555
Al10 Al11 2.926523 1_545
Al10 Al13 2.941472 1_545
Al11 Ru0 2.559358 1_555
Al11 Pt0 2.673897 1_555
Al11 Pt1 2.673936 1_555
Al11 Pt2 2.686003 1_555
Al11 Al6 2.817302 1_565
Al11 Al8 2.822748 1_554
Al11 Al7 2.822792 1_555
Al11 Ti3 2.912992 1_554
Al11 Ti4 2.913071 1_555
Al11 Ti5 2.918137 1_565
Al11 Al9 2.926478 1_565
Al11 Ti7 2.928843 1_555
Al12 Ru0 2.559233 1_545
Al12 Pt3 2.674026 1_555
Al12 Pt4 2.674037 1_555
Al12 Pt2 2.685991 1_556
Al12 Al5 2.817198 1_555
Al12 Al8 2.822683 1_555
Al12 Al7 2.822720 1_556
Al12 Ti1 2.912991 1_555
Al12 Ti0 2.913085 1_556
Al12 Ti5 2.917996 1_555
Al12 Al9 2.926395 1_555
Al12 Ti6 2.929040 1_555
Al13 Ru0 2.557804 1_555
Al13 Pt5 2.677528 1_665
Al13 Pt1 2.682620 1_556
Al13 Pt3 2.682675 1_555
Al13 Al5 2.813234 1_555
Al13 Al6 2.813263 1_566
Al13 Al8 2.830232 1_555
Al13 Ti0 2.911897 1_566
Al13 Ti4 2.911993 1_555
Al13 Ti2 2.912745 1_555
Al13 Ti6 2.945928 1_565
Al13 Ti7 2.945973 1_555
Al14 Ru0 2.557565 1_555
Al14 Pt5 2.677496 1_564
Al14 Pt0 2.682659 1_455
Al14 Pt4 2.682667 1_454
Al14 Al6 2.813207 1_465
Al14 Al5 2.813213 1_454
Al14 Al7 2.830246 1_455
Al14 Ti1 2.911950 1_565
Al14 Ti3 2.912065 1_554
Al14 Ti2 2.912851 1_555
Al14 Al9 2.941481 1_565
Al14 Ti6 2.945693 1_565
Al14 Ti7 2.945792 1_555
Ru0 Ti6 2.508832 1_565
Ru0 Ti7 2.509060 1_555
Pt0 Ti6 2.711396 1_665
Pt0 Ti4 3.080837 1_555
Pt0 Ti5 3.089525 1_565
Pt0 Ti1 3.103419 1_665
Pt1 Ti6 2.711589 1_564
Pt1 Ti3 3.080851 1_554
Pt1 Ti5 3.089622 1_565
Pt1 Ti0 3.103371 1_565
Pt2 Ti7 2.678306 1_555
Pt2 Ti6 2.678324 1_554
Pt2 Ti0 3.085593 1_555
Pt2 Ti1 3.085637 1_554
Pt2 Ti4 3.085645 1_555
Pt2 Ti3 3.085715 1_554
Pt3 Ti7 2.711439 1_555
Pt3 Ti1 3.081016 1_555
Pt3 Ti5 3.089586 1_555
Pt3 Ti4 3.103228 1_555
Pt4 Ti7 2.711246 1_656
Pt4 Ti0 3.081006 1_556
Pt4 Ti5 3.089512 1_555
Pt4 Ti3 3.103269 1_655
Pt5 Ti4 3.096205 1_445
Pt5 Ti3 3.096253 1_545
Pt5 Ti0 3.096257 1_456
Pt5 Ti1 3.096308 1_556
