# generated using pymatgen
data_Sc10AlGaAs4
_symmetry_space_group_name_H-M   'P 1'
_cell_length_a   7.97418455
_cell_length_b   7.99676362
_cell_length_c   5.82628098
_cell_angle_alpha   90.00000000
_cell_angle_beta   90.00000000
_cell_angle_gamma   119.90663826
_symmetry_Int_Tables_number   1
_chemical_formula_structural   Sc10AlGaAs4
_chemical_formula_sum   'Sc10 Al1 Ga1 As4'
_cell_volume   322.05526456
_cell_formula_units_Z   1
loop_
 _symmetry_equiv_pos_site_id
 _symmetry_equiv_pos_as_xyz
  1  'x, y, z'
loop_
 _atom_site_type_symbol
 _atom_site_label
 _atom_site_symmetry_multiplicity
 _atom_site_fract_x
 _atom_site_fract_y
 _atom_site_fract_z
 _atom_site_occupancy
  Sc  Sc0  1  0.33153201  0.66393423  0.00005208  1
  Sc  Sc1  1  0.66759878  0.33606577  0.49994792  1
  Sc  Sc2  1  0.66759878  0.33606577  0.00005208  1
  Sc  Sc3  1  0.33153201  0.66393423  0.49994792  1
  Sc  Sc4  1  0.23650190  1.00000000  0.25000000  1
  Sc  Sc5  1  0.24958910  0.24189412  0.75000000  1
  Sc  Sc6  1  0.00769398  0.75810588  0.75000000  1
  Sc  Sc7  1  0.99414324  0.24288067  0.25000000  1
  Sc  Sc8  1  0.75126157  0.75711933  0.25000000  1
  Sc  Sc9  1  0.76228417  0.00000000  0.75000000  1
  Al  Al0  1  0.59803773  1.00000000  0.25000000  1
  Ga  Ga0  1  0.40103250  0.00000000  0.75000000  1
  As  As0  1  0.61638256  0.61401722  0.75000000  1
  As  As1  1  0.00236534  0.38598278  0.75000000  1
  As  As2  1  0.99806792  0.61369051  0.25000000  1
  As  As3  1  0.38437741  0.38630949  0.25000000  1
loop_
_geom_bond_atom_site_label_1
_geom_bond_atom_site_label_2
_geom_bond_distance
_geom_bond_site_symmetry_2
Al0 Sc8 2.762548 1_555
Al0 Sc7 2.762555 1_565
Al0 Sc2 2.857312 1_565
Al0 Sc1 2.857312 1_565
Al0 Sc0 2.857314 1_555
Al0 Sc3 2.857314 1_555
Al0 Sc4 2.882953 1_555
Al0 Sc9 3.194023 1_565
Al0 Sc9 3.194023 1_564
Ga0 Sc5 2.744011 1_555
Ga0 Sc6 2.744018 1_545
Ga0 Sc3 2.857754 1_545
Ga0 Sc0 2.857754 1_546
Ga0 Sc1 2.857756 1_555
Ga0 Sc2 2.857756 1_556
Ga0 Sc9 2.880687 1_555
Ga0 Sc4 3.194953 1_546
Ga0 Sc4 3.194953 1_545
As0 Sc9 2.701818 1_565
As0 Sc6 2.734813 1_655
As0 Sc1 2.852181 1_555
As0 Sc2 2.852181 1_556
As0 Sc3 2.888850 1_555
As0 Sc0 2.888850 1_556
As0 Sc5 2.954821 1_555
As0 Sc8 3.118558 1_555
As0 Sc8 3.118558 1_556
As1 Sc9 2.701818 1_455
As1 Sc5 2.734820 1_555
As1 Sc3 2.852177 1_555
As1 Sc0 2.852177 1_556
As1 Sc1 2.888843 1_455
As1 Sc2 2.888843 1_456
As1 Sc6 2.954824 1_555
As1 Sc7 3.118560 1_455
As1 Sc7 3.118560 1_456
As2 Sc4 2.702093 1_655
As2 Sc8 2.727602 1_555
As2 Sc2 2.856574 1_555
As2 Sc1 2.856574 1_555
As2 Sc0 2.878820 1_655
As2 Sc3 2.878820 1_655
As2 Sc7 2.949800 1_555
As2 Sc6 3.120509 1_655
As2 Sc6 3.120509 1_654
As3 Sc4 2.702093 1_545
As3 Sc7 2.727595 1_455
As3 Sc0 2.856578 1_555
As3 Sc3 2.856578 1_555
As3 Sc2 2.878827 1_555
As3 Sc1 2.878827 1_555
As3 Sc8 2.949796 1_555
As3 Sc5 3.120507 1_555
As3 Sc5 3.120507 1_554
