# generated using pymatgen
data_TaTi2Nb5O12
_symmetry_space_group_name_H-M   'P 1'
_cell_length_a   6.67965895
_cell_length_b   6.66761531
_cell_length_c   6.67129062
_cell_angle_alpha   73.31808828
_cell_angle_beta   73.13074839
_cell_angle_gamma   73.36495383
_symmetry_Int_Tables_number   1
_chemical_formula_structural   TaTi2Nb5O12
_chemical_formula_sum   'Ta1 Ti2 Nb5 O12'
_cell_volume   265.60920964
_cell_formula_units_Z   1
loop_
 _symmetry_equiv_pos_site_id
 _symmetry_equiv_pos_as_xyz
  1  'x, y, z'
loop_
 _atom_site_type_symbol
 _atom_site_label
 _atom_site_symmetry_multiplicity
 _atom_site_fract_x
 _atom_site_fract_y
 _atom_site_fract_z
 _atom_site_occupancy
  Ta  Ta0  1  0.94430540  0.11836899  0.70427695  1
  Ti  Ti0  1  0.27533572  0.27365614  0.27054764  1
  Ti  Ti1  1  0.72713150  0.72444618  0.72781817  1
  Nb  Nb0  1  0.70524363  0.94386632  0.11890799  1
  Nb  Nb1  1  0.11804628  0.70574596  0.94463049  1
  Nb  Nb2  1  0.05573299  0.88158531  0.29539060  1
  Nb  Nb3  1  0.29511745  0.05569796  0.88192771  1
  Nb  Nb4  1  0.88297179  0.29440850  0.05709481  1
  O  O0  1  0.17250437  0.56911922  0.25914217  1
  O  O1  1  0.25289622  0.17210010  0.56910069  1
  O  O2  1  0.56934295  0.25982333  0.17342885  1
  O  O3  1  0.82841966  0.42675045  0.73830500  1
  O  O4  1  0.74140052  0.82649424  0.43138106  1
  O  O5  1  0.43206043  0.74071713  0.82735211  1
  O  O6  1  0.65144797  0.03576884  0.79449358  1
  O  O7  1  0.79833938  0.64796090  0.03072598  1
  O  O8  1  0.96412149  0.20005515  0.35817125  1
  O  O9  1  0.20134166  0.35201896  0.96894477  1
  O  O10  1  0.35223828  0.96775709  0.20142276  1
  O  O11  1  0.03200230  0.80365925  0.64693641  1
loop_
_geom_bond_atom_site_label_1
_geom_bond_atom_site_label_2
_geom_bond_distance
_geom_bond_site_symmetry_2
Nb0 O4 2.064874 1_555
Nb0 O7 2.092136 1_555
Nb0 O2 2.132557 1_565
Nb0 O6 2.180033 1_564
Nb0 O10 2.229419 1_555
Nb1 O5 2.070964 1_555
Nb1 O11 2.098574 1_555
Nb1 O0 2.126148 1_556
Nb1 O7 2.161251 1_456
Nb1 O9 2.231566 1_555
Nb2 O0 2.063202 1_555
Nb2 O10 2.090421 1_555
Nb2 O4 2.123954 1_455
Nb2 O8 2.162574 1_465
Nb2 O11 2.219721 1_555
Nb3 O1 2.079341 1_555
Nb3 O9 2.090892 1_555
Nb3 O5 2.127393 1_545
Nb3 O10 2.158431 1_546
Nb3 O6 2.254049 1_555
Nb4 O2 2.067481 1_555
Nb4 O8 2.105974 1_555
Nb4 O3 2.150046 1_554
Nb4 O9 2.151282 1_654
Nb4 O7 2.228063 1_555
O0 Ti0 1.878335 1_555
O1 Ti0 1.886408 1_555
O1 Ta0 2.085416 1_455
O2 Ti0 1.864724 1_555
O3 Ti1 1.892459 1_555
O3 Ta0 2.033044 1_555
O4 Ti1 1.881017 1_555
O5 Ti1 1.869969 1_555
O6 Ta0 2.058023 1_555
O6 Ti1 2.135662 1_545
O7 Ti1 2.096949 1_554
O8 Ti0 2.148976 1_655
O8 Ta0 2.188016 1_555
O9 Ti0 2.095591 1_556
O10 Ti0 2.106945 1_565
O11 Ta0 2.125941 1_465
O11 Ti1 2.128762 1_455
