# generated using pymatgen
data_CdSnTeO6
_symmetry_space_group_name_H-M   'P 1'
_cell_length_a   5.28817851
_cell_length_b   5.28817866
_cell_length_c   4.80770975
_cell_angle_alpha   90.00000000
_cell_angle_beta   90.00000000
_cell_angle_gamma   119.99999305
_symmetry_Int_Tables_number   1
_chemical_formula_structural   CdSnTeO6
_chemical_formula_sum   'Cd1 Sn1 Te1 O6'
_cell_volume   116.43435172
_cell_formula_units_Z   1
loop_
 _symmetry_equiv_pos_site_id
 _symmetry_equiv_pos_as_xyz
  1  'x, y, z'
loop_
 _atom_site_type_symbol
 _atom_site_label
 _atom_site_symmetry_multiplicity
 _atom_site_fract_x
 _atom_site_fract_y
 _atom_site_fract_z
 _atom_site_occupancy
  Cd  Cd0  1  0.66666700  0.33333400  0.00000000  1
  Sn  Sn0  1  0.00000000  0.00000000  0.50000100  1
  Te  Te0  1  0.33333300  0.66666600  0.50000100  1
  O  O0  1  0.31148456  0.35233889  0.27643073  1
  O  O1  1  0.04085433  0.68851544  0.27643073  1
  O  O2  1  0.64766011  0.95914567  0.27643073  1
  O  O3  1  0.04085433  0.35233889  0.72356927  1
  O  O4  1  0.64766111  0.68851544  0.72356927  1
  O  O5  1  0.31148456  0.95914567  0.72356927  1
loop_
_geom_bond_atom_site_label_1
_geom_bond_atom_site_label_2
_geom_bond_distance
_geom_bond_site_symmetry_2
Cd0 O4 2.343713 1_554
Cd0 O1 2.343713 1_655
Cd0 O0 2.343714 1_555
Cd0 O3 2.343714 1_654
Cd0 O2 2.343715 1_545
Cd0 O5 2.343717 1_544
O0 Te0 1.933803 1_555
O0 Sn0 2.066662 1_555
O1 Te0 1.933805 1_555
O1 Sn0 2.066661 1_565
O2 Te0 1.933805 1_555
O2 Sn0 2.066666 1_665
O3 Te0 1.933798 1_555
O3 Sn0 2.066656 1_555
O4 Te0 1.933800 1_555
O4 Sn0 2.066657 1_665
O5 Te0 1.933802 1_555
O5 Sn0 2.066656 1_565
