# generated using pymatgen
data_LuMg(ZnRu)2
_symmetry_space_group_name_H-M   'P 1'
_cell_length_a   5.19704650
_cell_length_b   5.19704530
_cell_length_c   5.19704530
_cell_angle_alpha   120.28040215
_cell_angle_beta   121.05706304
_cell_angle_gamma   88.84691907
_symmetry_Int_Tables_number   1
_chemical_formula_structural   LuMg(ZnRu)2
_chemical_formula_sum   'Lu1 Mg1 Zn2 Ru2'
_cell_volume   98.22487893
_cell_formula_units_Z   1
loop_
 _symmetry_equiv_pos_site_id
 _symmetry_equiv_pos_as_xyz
  1  'x, y, z'
loop_
 _atom_site_type_symbol
 _atom_site_label
 _atom_site_symmetry_multiplicity
 _atom_site_fract_x
 _atom_site_fract_y
 _atom_site_fract_z
 _atom_site_occupancy
  Lu  Lu0  1  0.36463515  0.11463515  0.25000000  1
  Mg  Mg0  1  0.62775373  0.87775373  0.75000000  1
  Zn  Zn0  1  0.50235891  0.50194136  0.00041755  1
  Zn  Zn1  1  0.00152382  0.50194136  0.49958245  1
  Ru  Ru0  1  0.00186370  0.50270390  0.00084021  1
  Ru  Ru1  1  0.00186370  0.00102349  0.49915979  1
loop_
_geom_bond_atom_site_label_1
_geom_bond_atom_site_label_2
_geom_bond_distance
_geom_bond_site_symmetry_2
Lu0 Ru0 2.985738 1_545
Lu0 Ru1 2.985738 1_555
Lu0 Zn1 3.005810 1_544
Lu0 Zn0 3.005810 1_556
Lu0 Zn0 3.005810 1_545
Lu0 Zn1 3.005810 1_555
Lu0 Ru1 3.043107 1_554
Lu0 Ru0 3.043108 1_656
Lu0 Ru0 3.043108 1_555
Lu0 Ru1 3.043108 1_655
Lu0 Mg0 3.103199 1_545
Lu0 Mg0 3.103199 1_444
Lu0 Zn0 3.145656 1_555
Lu0 Zn1 3.145656 1_655
Lu0 Mg0 3.241944 1_555
Lu0 Mg0 3.241945 1_544
Mg0 Ru1 3.012242 1_666
Mg0 Ru0 3.012242 1_555
Mg0 Ru0 3.012242 1_656
Mg0 Ru1 3.012243 1_565
Mg0 Zn1 3.028862 1_666
Mg0 Zn0 3.028862 1_555
Mg0 Zn0 3.028863 1_566
Mg0 Zn1 3.028863 1_655
Mg0 Ru0 3.065542 1_666
Mg0 Ru1 3.065542 1_665
Mg0 Zn0 3.069647 1_556
Mg0 Zn1 3.069647 1_555
Zn0 Zn1 2.552625 1_655
Zn0 Zn1 2.561166 1_554
Ru0 Ru1 2.578805 1_565
Ru0 Zn1 2.594898 1_555
Ru0 Zn0 2.594898 1_455
Ru0 Ru1 2.596198 1_554
Ru0 Zn1 2.602152 1_554
Ru0 Zn0 2.602152 1_555
Ru1 Zn1 2.594898 1_545
Ru1 Zn0 2.594898 1_445
Ru1 Zn1 2.602152 1_555
Ru1 Zn0 2.602152 1_556
