# generated using pymatgen
data_KSnRhSe4
_symmetry_space_group_name_H-M   'P 1'
_cell_length_a   3.84542493
_cell_length_b   8.07935174
_cell_length_c   6.56337991
_cell_angle_alpha   74.08857736
_cell_angle_beta   90.00000000
_cell_angle_gamma   90.00000000
_symmetry_Int_Tables_number   1
_chemical_formula_structural   KSnRhSe4
_chemical_formula_sum   'K1 Sn1 Rh1 Se4'
_cell_volume   196.10198672
_cell_formula_units_Z   1
loop_
 _symmetry_equiv_pos_site_id
 _symmetry_equiv_pos_as_xyz
  1  'x, y, z'
loop_
 _atom_site_type_symbol
 _atom_site_label
 _atom_site_symmetry_multiplicity
 _atom_site_fract_x
 _atom_site_fract_y
 _atom_site_fract_z
 _atom_site_occupancy
  K  K0  1  0.50000000  0.49412325  0.65186265  1
  Sn  Sn0  1  0.00000000  0.99979443  0.00257642  1
  Rh  Rh0  1  0.50000000  0.00152647  0.50345836  1
  Se  Se0  1  0.00000000  0.82969159  0.41488303  1
  Se  Se1  1  0.50000000  0.81128336  0.87756968  1
  Se  Se2  1  0.00000000  0.17308107  0.59116098  1
  Se  Se3  1  0.50000000  0.18961983  0.12544887  1
loop_
_geom_bond_atom_site_label_1
_geom_bond_atom_site_label_2
_geom_bond_distance
_geom_bond_site_symmetry_2
K0 Se1 3.292727 1_555
K0 Se2 3.339166 1_655
K0 Se2 3.339166 1_555
K0 Se0 3.339816 1_555
K0 Se0 3.339816 1_655
K0 Se3 3.394307 1_556
Rh0 Se1 2.514420 1_545
Rh0 Se2 2.527205 1_555
Rh0 Se2 2.527205 1_655
Rh0 Se3 2.529344 1_555
Rh0 Se0 2.530760 1_645
Rh0 Se0 2.530760 1_545
Se0 Sn0 2.678188 1_555
Se1 Sn0 2.715663 1_656
Se1 Sn0 2.715663 1_556
Se2 Sn0 2.679320 1_546
Se3 Sn0 2.716154 1_545
Se3 Sn0 2.716154 1_645
