# generated using pymatgen
data_LiIn(CO3)2
_symmetry_space_group_name_H-M   'P 1'
_cell_length_a   4.73631904
_cell_length_b   5.76454399
_cell_length_c   8.20293246
_cell_angle_alpha   76.37898437
_cell_angle_beta   89.99813959
_cell_angle_gamma   114.28761269
_symmetry_Int_Tables_number   1
_chemical_formula_structural   LiIn(CO3)2
_chemical_formula_sum   'Li2 In2 C4 O12'
_cell_volume   197.20801019
_cell_formula_units_Z   2
loop_
 _symmetry_equiv_pos_site_id
 _symmetry_equiv_pos_as_xyz
  1  'x, y, z'
loop_
 _atom_site_type_symbol
 _atom_site_label
 _atom_site_symmetry_multiplicity
 _atom_site_fract_x
 _atom_site_fract_y
 _atom_site_fract_z
 _atom_site_occupancy
  Li  Li0  1  0.00000037  0.99999471  0.00000750  1
  Li  Li1  1  0.49999963  0.00000529  0.49999250  1
  In  In0  1  0.75000000  0.50000000  0.75000000  1
  In  In1  1  0.25000000  0.50000000  0.25000000  1
  C  C0  1  0.87384406  0.74759749  0.37569719  1
  C  C1  1  0.37384419  0.74759347  0.87569559  1
  C  C2  1  0.62615594  0.25240351  0.12430281  1
  C  C3  1  0.12615681  0.25240753  0.62430441  1
  O  O0  1  0.89814363  0.25202441  0.11971981  1
  O  O1  1  0.39813958  0.25202696  0.61971730  1
  O  O2  1  0.51712988  0.74820095  0.00937398  1
  O  O3  1  0.01712410  0.74820845  0.50937169  1
  O  O4  1  0.00312530  0.74792009  0.23726846  1
  O  O5  1  0.50312369  0.74791915  0.73726699  1
  O  O6  1  0.49687370  0.25207991  0.26273154  1
  O  O7  1  0.99687631  0.25208085  0.76273301  1
  O  O8  1  0.98287012  0.25179905  0.49062602  1
  O  O9  1  0.48287590  0.25179155  0.99062831  1
  O  O10  1  0.60185637  0.74797659  0.38028019  1
  O  O11  1  0.10186142  0.74797304  0.88028270  1
loop_
_geom_bond_atom_site_label_1
_geom_bond_atom_site_label_2
_geom_bond_distance
_geom_bond_site_symmetry_2
Li0 O0 2.134544 1_465
Li0 O11 2.134577 1_554
Li0 O2 2.135382 1_455
Li0 O9 2.135392 1_564
Li0 O4 2.141313 1_555
Li0 O7 2.141426 1_464
Li1 O10 2.134539 1_545
Li1 O1 2.134575 1_555
Li1 O8 2.135382 1_555
Li1 O3 2.135392 1_545
Li1 O6 2.141314 1_555
Li1 O5 2.141426 1_545
In0 O1 2.173177 1_555
In0 O11 2.173179 1_655
In0 O3 2.173591 1_655
In0 O9 2.173591 1_555
In0 O5 2.173698 1_555
In0 O7 2.173698 1_555
In1 O0 2.173160 1_455
In1 O10 2.173163 1_555
In1 O8 2.173577 1_455
In1 O2 2.173577 1_555
In1 O6 2.173694 1_555
In1 O4 2.173698 1_555
C0 O4 1.289329 1_655
C0 O3 1.289496 1_655
C0 O10 1.289683 1_555
C1 O5 1.289317 1_555
C1 O2 1.289538 1_556
C1 O11 1.289662 1_555
C2 O6 1.289329 1_555
C2 O9 1.289496 1_554
C2 O0 1.289683 1_555
C3 O7 1.289317 1_455
C3 O8 1.289540 1_455
C3 O1 1.289664 1_555
