# generated using pymatgen
data_ErInNi
_symmetry_space_group_name_H-M   'P 1'
_cell_length_a   7.37662707
_cell_length_b   7.37662712
_cell_length_c   3.71371998
_cell_angle_alpha   90.00000000
_cell_angle_beta   90.00000000
_cell_angle_gamma   119.99999972
_symmetry_Int_Tables_number   1
_chemical_formula_structural   ErInNi
_chemical_formula_sum   'Er3 In3 Ni3'
_cell_volume   175.00701049
_cell_formula_units_Z   3
loop_
 _symmetry_equiv_pos_site_id
 _symmetry_equiv_pos_as_xyz
  1  'x, y, z'
loop_
 _atom_site_type_symbol
 _atom_site_label
 _atom_site_symmetry_multiplicity
 _atom_site_fract_x
 _atom_site_fract_y
 _atom_site_fract_z
 _atom_site_occupancy
  Er  Er0  1  0.00000000  0.58903302  0.50000000  1
  Er  Er1  1  0.41096698  0.41096698  0.50000000  1
  Er  Er2  1  0.58903302  -0.00000000  0.50000000  1
  In  In0  1  0.25533172  -0.00000000  -0.00000000  1
  In  In1  1  0.74466828  0.74466828  -0.00000000  1
  In  In2  1  0.00000000  0.25533172  -0.00000000  1
  Ni  Ni0  1  0.33333300  0.66666700  -0.00000000  1
  Ni  Ni1  1  -0.00000000  -0.00000000  0.50000000  1
  Ni  Ni2  1  0.66666700  0.33333300  0.00000000  1
loop_
_geom_bond_atom_site_label_1
_geom_bond_atom_site_label_2
_geom_bond_distance
_geom_bond_site_symmetry_2
Er0 Ni0 2.900656 1_556
Er0 Ni0 2.900656 1_555
Er0 Ni2 2.900658 1_456
Er0 Ni2 2.900658 1_455
Er0 Ni1 3.031550 1_565
Er0 In2 3.083400 1_556
Er0 In2 3.083400 1_555
Er0 In1 3.236644 1_455
Er0 In1 3.236644 1_456
Er0 In0 3.236644 1_565
Er0 In0 3.236644 1_566
Er1 Ni2 2.900662 1_555
Er1 Ni2 2.900662 1_556
Er1 Ni0 2.900662 1_556
Er1 Ni0 2.900662 1_555
Er1 Ni1 3.031550 1_555
Er1 In1 3.083400 1_555
Er1 In1 3.083400 1_556
Er1 In2 3.236644 1_556
Er1 In2 3.236644 1_555
Er1 In0 3.236644 1_555
Er1 In0 3.236644 1_556
Er2 Ni2 2.900656 1_555
Er2 Ni2 2.900656 1_556
Er2 Ni0 2.900658 1_546
Er2 Ni0 2.900658 1_545
Er2 Ni1 3.031550 1_655
Er2 In0 3.083400 1_555
Er2 In0 3.083400 1_556
Er2 In1 3.236644 1_546
Er2 In1 3.236644 1_545
Er2 In2 3.236644 1_656
Er2 In2 3.236644 1_655
In0 Ni1 2.644892 1_554
In0 Ni1 2.644892 1_555
In0 Ni0 2.791403 1_545
In0 Ni2 2.791408 1_555
In1 Ni1 2.644892 1_664
In1 Ni1 2.644892 1_665
In1 Ni0 2.791410 1_555
In1 Ni2 2.791410 1_555
In2 Ni1 2.644892 1_554
In2 Ni1 2.644892 1_555
In2 Ni2 2.791403 1_455
In2 Ni0 2.791408 1_555
