# generated using pymatgen
data_Sr4Sc7BiSe16
_symmetry_space_group_name_H-M   'P 1'
_cell_length_a   3.99232157
_cell_length_b   12.34642029
_cell_length_c   14.46656498
_cell_angle_alpha   90.49312010
_cell_angle_beta   90.00000000
_cell_angle_gamma   90.00000000
_symmetry_Int_Tables_number   1
_chemical_formula_structural   Sr4Sc7BiSe16
_chemical_formula_sum   'Sr4 Sc7 Bi1 Se16'
_cell_volume   713.04330957
_cell_formula_units_Z   1
loop_
 _symmetry_equiv_pos_site_id
 _symmetry_equiv_pos_as_xyz
  1  'x, y, z'
loop_
 _atom_site_type_symbol
 _atom_site_label
 _atom_site_symmetry_multiplicity
 _atom_site_fract_x
 _atom_site_fract_y
 _atom_site_fract_z
 _atom_site_occupancy
  Sr  Sr0  1  0.75000000  0.73650914  0.17164753  1
  Sr  Sr1  1  0.75000000  0.23709312  0.33694225  1
  Sr  Sr2  1  0.25000000  0.25618972  0.82375099  1
  Sr  Sr3  1  0.25000000  0.76496141  0.66820091  1
  Sc  Sc0  1  0.75000000  0.05106939  0.11305782  1
  Sc  Sc1  1  0.75000000  0.55969276  0.39510065  1
  Sc  Sc2  1  0.25000000  0.94475113  0.89139275  1
  Sc  Sc3  1  0.25000000  0.44521935  0.61067493  1
  Sc  Sc4  1  0.75000000  0.08160508  0.59750098  1
  Sc  Sc5  1  0.75000000  0.58822061  0.89696009  1
  Sc  Sc6  1  0.25000000  0.91638372  0.40394039  1
  Bi  Bi0  1  0.25000000  0.41282360  0.09337171  1
  Se  Se0  1  0.75000000  0.29870724  0.65610045  1
  Se  Se1  1  0.75000000  0.80216136  0.83876980  1
  Se  Se2  1  0.25000000  0.70209272  0.34339556  1
  Se  Se3  1  0.25000000  0.18866711  0.17037604  1
  Se  Se4  1  0.75000000  0.38062273  0.94874673  1
  Se  Se5  1  0.75000000  0.87754189  0.52934760  1
  Se  Se6  1  0.25000000  0.62883936  0.02482970  1
  Se  Se7  1  0.25000000  0.12161489  0.47300784  1
  Se  Se8  1  0.75000000  0.47359447  0.22300588  1
  Se  Se9  1  0.75000000  0.96446301  0.28668877  1
  Se  Se10  1  0.25000000  0.53771829  0.78053926  1
  Se  Se11  1  0.25000000  0.02981182  0.71526129  1
  Se  Se12  1  0.75000000  0.08894260  0.92953426  1
  Se  Se13  1  0.75000000  0.59089457  0.57637582  1
  Se  Se14  1  0.25000000  0.90695798  0.07389836  1
  Se  Se15  1  0.25000000  0.41285191  0.42757861  1
loop_
_geom_bond_atom_site_label_1
_geom_bond_atom_site_label_2
_geom_bond_distance
_geom_bond_site_symmetry_2
Sc0 Se12 2.699779 1_554
Sc0 Se14 2.730201 1_645
Sc0 Se14 2.730201 1_545
Sc0 Se9 2.738420 1_545
Sc0 Se3 2.744820 1_655
Sc0 Se3 2.744820 1_555
Sc1 Se13 2.647290 1_555
Sc1 Se8 2.698636 1_555
Sc1 Se15 2.739871 1_655
Sc1 Se15 2.739871 1_555
Sc1 Se2 2.767275 1_555
Sc1 Se2 2.767275 1_655
Sc2 Se14 2.685096 1_556
Sc2 Se12 2.727910 1_465
Sc2 Se12 2.727910 1_565
Sc2 Se1 2.764126 1_555
Sc2 Se1 2.764126 1_455
Sc2 Se11 2.764301 1_565
Sc3 Se15 2.675348 1_555
Sc3 Se10 2.700836 1_555
Sc3 Se13 2.735154 1_555
Sc3 Se13 2.735154 1_455
Sc3 Se0 2.776524 1_555
Sc3 Se0 2.776524 1_455
Sc4 Se5 2.697584 1_545
Sc4 Se11 2.704539 1_555
Sc4 Se11 2.704539 1_655
Sc4 Se7 2.736338 1_555
Sc4 Se7 2.736338 1_655
Sc4 Se0 2.804330 1_555
Sc5 Se4 2.676518 1_555
Sc5 Se10 2.681776 1_655
Sc5 Se10 2.681776 1_555
Sc5 Se6 2.764430 1_656
Sc5 Se6 2.764430 1_556
Sc5 Se1 2.779196 1_555
Sc6 Se9 2.689154 1_455
Sc6 Se9 2.689154 1_555
Sc6 Se7 2.715743 1_565
Sc6 Se5 2.742439 1_455
Sc6 Se5 2.742439 1_555
Sc6 Se2 2.779773 1_555
Bi0 Se8 2.835555 1_455
Bi0 Se8 2.835555 1_555
Bi0 Se6 2.853372 1_555
Bi0 Se4 2.916472 1_554
Bi0 Se4 2.916472 1_454
Bi0 Se3 2.992200 1_555
Se0 Sr2 3.188157 1_555
Se0 Sr2 3.188157 1_655
Se1 Sr3 3.203885 1_555
Se1 Sr3 3.203885 1_655
Se2 Sr0 3.218174 1_455
Se2 Sr0 3.218174 1_555
Se3 Sr1 3.181776 1_555
Se3 Sr1 3.181776 1_455
Se4 Sr2 3.093035 1_555
Se4 Sr2 3.093035 1_655
Se5 Sr3 3.162233 1_555
Se5 Sr3 3.162233 1_655
Se6 Sr0 3.195991 1_455
Se6 Sr0 3.195991 1_555
Se7 Sr1 3.152826 1_455
Se7 Sr1 3.152826 1_555
Se8 Sr0 3.336226 1_555
Se8 Sr1 3.365369 1_555
Se9 Sr0 3.257305 1_555
Se9 Sr1 3.437499 1_565
Se10 Sr3 3.254413 1_555
Se10 Sr2 3.536927 1_555
Se11 Sr2 3.193669 1_555
Se11 Sr3 3.334333 1_545
Se12 Sr2 3.262630 1_555
Se12 Sr2 3.262630 1_655
Se13 Sr3 3.212287 1_555
Se13 Sr3 3.212287 1_655
Se14 Sr0 3.234839 1_555
Se14 Sr0 3.234839 1_455
Se15 Sr1 3.219283 1_555
Se15 Sr1 3.219283 1_455
