# generated using pymatgen
data_MnTlCl3
_symmetry_space_group_name_H-M   'P 1'
_cell_length_a   7.04429626
_cell_length_b   7.06118299
_cell_length_c   10.04233389
_cell_angle_alpha   90.00000000
_cell_angle_beta   90.00000000
_cell_angle_gamma   90.00000000
_symmetry_Int_Tables_number   1
_chemical_formula_structural   MnTlCl3
_chemical_formula_sum   'Mn4 Tl4 Cl12'
_cell_volume   499.51638205
_cell_formula_units_Z   4
loop_
 _symmetry_equiv_pos_site_id
 _symmetry_equiv_pos_as_xyz
  1  'x, y, z'
loop_
 _atom_site_type_symbol
 _atom_site_label
 _atom_site_symmetry_multiplicity
 _atom_site_fract_x
 _atom_site_fract_y
 _atom_site_fract_z
 _atom_site_occupancy
  Mn  Mn0  1  -0.00000000  0.50000000  0.50000000  1
  Mn  Mn1  1  0.50000000  0.00000000  -0.00000000  1
  Mn  Mn2  1  0.50000000  0.00000000  0.50000000  1
  Mn  Mn3  1  0.00000000  0.50000000  -0.00000000  1
  Tl  Tl0  1  0.01518800  0.99969334  0.25000000  1
  Tl  Tl1  1  0.51518800  0.50030666  0.25000000  1
  Tl  Tl2  1  0.48481200  0.49969334  0.75000000  1
  Tl  Tl3  1  0.98481200  0.00030666  0.75000000  1
  Cl  Cl0  1  0.71963767  0.28051915  0.51887193  1
  Cl  Cl1  1  0.21963767  0.21948085  0.98112807  1
  Cl  Cl2  1  0.78036233  0.78051915  0.48112807  1
  Cl  Cl3  1  0.28036233  0.71948085  0.01887193  1
  Cl  Cl4  1  0.28036233  0.71948085  0.48112807  1
  Cl  Cl5  1  0.78036233  0.78051915  0.01887193  1
  Cl  Cl6  1  0.21963767  0.21948085  0.51887193  1
  Cl  Cl7  1  0.71963767  0.28051915  0.98112807  1
  Cl  Cl8  1  0.50234541  0.96174942  0.75000000  1
  Cl  Cl9  1  0.00234441  0.53825058  0.75000000  1
  Cl  Cl10  1  0.99765559  0.46174942  0.25000000  1
  Cl  Cl11  1  0.49765459  0.03825058  0.25000000  1
loop_
_geom_bond_atom_site_label_1
_geom_bond_atom_site_label_2
_geom_bond_distance
_geom_bond_site_symmetry_2
Cl0 Mn0 2.517584 1_655
Cl0 Mn2 2.520571 1_555
Cl1 Mn1 2.517584 1_556
Cl1 Mn3 2.520571 1_556
Cl2 Mn2 2.517584 1_565
Cl2 Mn0 2.520571 1_655
Cl3 Mn3 2.517584 1_555
Cl3 Mn1 2.520571 1_565
Cl4 Mn0 2.517584 1_555
Cl4 Mn2 2.520571 1_565
Cl5 Mn1 2.517584 1_565
Cl5 Mn3 2.520571 1_655
Cl6 Mn2 2.517584 1_555
Cl6 Mn0 2.520571 1_555
Cl7 Mn3 2.517584 1_656
Cl7 Mn1 2.520571 1_556
Cl8 Mn2 2.525124 1_565
Cl8 Mn1 2.525124 1_566
Cl9 Mn0 2.525124 1_555
Cl9 Mn3 2.525124 1_556
Cl10 Mn0 2.525124 1_655
Cl10 Mn3 2.525124 1_655
Cl11 Mn1 2.525124 1_555
Cl11 Mn2 2.525124 1_555
