# generated using pymatgen
data_Sr2Bi3
_symmetry_space_group_name_H-M   'P 1'
_cell_length_a   6.66097917
_cell_length_b   6.86928099
_cell_length_c   15.68021786
_cell_angle_alpha   90.00000000
_cell_angle_beta   90.00000000
_cell_angle_gamma   90.00000000
_symmetry_Int_Tables_number   1
_chemical_formula_structural   Sr2Bi3
_chemical_formula_sum   'Sr8 Bi12'
_cell_volume   717.46620580
_cell_formula_units_Z   4
loop_
 _symmetry_equiv_pos_site_id
 _symmetry_equiv_pos_as_xyz
  1  'x, y, z'
loop_
 _atom_site_type_symbol
 _atom_site_label
 _atom_site_symmetry_multiplicity
 _atom_site_fract_x
 _atom_site_fract_y
 _atom_site_fract_z
 _atom_site_occupancy
  Sr  Sr0  1  0.94103069  0.00000000  0.75000000  1
  Sr  Sr1  1  0.55896931  0.50000000  0.75000000  1
  Sr  Sr2  1  0.05896931  0.00000000  0.25000000  1
  Sr  Sr3  1  0.44103069  0.50000000  0.25000000  1
  Sr  Sr4  1  0.75000000  0.75000000  0.00010347  1
  Sr  Sr5  1  0.75000000  0.25000000  0.49989653  1
  Sr  Sr6  1  0.25000000  0.25000000  -0.00010347  1
  Sr  Sr7  1  0.25000000  0.75000000  0.50010347  1
  Bi  Bi0  1  0.75000000  0.75000000  0.57248799  1
  Bi  Bi1  1  0.75000000  0.25000000  0.92751201  1
  Bi  Bi2  1  0.25000000  0.25000000  0.42751201  1
  Bi  Bi3  1  0.25000000  0.75000000  0.07248799  1
  Bi  Bi4  1  0.42192839  0.93679175  0.84513198  1
  Bi  Bi5  1  0.42192839  0.06320825  0.65486802  1
  Bi  Bi6  1  0.07807161  0.43679175  0.65486802  1
  Bi  Bi7  1  0.07807161  0.56320825  0.84513198  1
  Bi  Bi8  1  0.57807161  0.06320825  0.15486802  1
  Bi  Bi9  1  0.57807161  0.93679175  0.34513198  1
  Bi  Bi10  1  0.92192839  0.56320825  0.34513198  1
  Bi  Bi11  1  0.92192839  0.43679175  0.15486802  1
loop_
_geom_bond_atom_site_label_1
_geom_bond_atom_site_label_2
_geom_bond_distance
_geom_bond_site_symmetry_2
Bi0 Bi5 3.327618 1_565
Bi0 Bi6 3.327618 1_655
Bi0 Sr0 3.509386 1_565
Bi0 Sr1 3.509386 1_555
Bi0 Sr7 3.518579 1_655
Bi0 Sr7 3.518579 1_555
Bi0 Sr5 3.618338 1_565
Bi0 Sr5 3.618338 1_555
Bi1 Bi4 3.327618 1_545
Bi1 Bi7 3.327618 1_655
Bi1 Sr0 3.509386 1_555
Bi1 Sr1 3.509386 1_555
Bi1 Sr6 3.518579 1_556
Bi1 Sr6 3.518579 1_656
Bi1 Sr4 3.618338 1_546
Bi1 Sr4 3.618338 1_556
Bi2 Bi9 3.327618 1_545
Bi2 Sr2 3.509386 1_555
Bi2 Sr3 3.509386 1_555
Bi2 Sr5 3.518579 1_455
Bi2 Sr5 3.518579 1_555
Bi2 Sr7 3.618338 1_555
Bi2 Sr7 3.618338 1_545
Bi3 Bi8 3.327618 1_565
Bi3 Sr2 3.509386 1_565
Bi3 Sr3 3.509386 1_555
Bi3 Sr4 3.518579 1_455
Bi3 Sr4 3.518579 1_555
Bi3 Sr6 3.618338 1_565
Bi3 Sr6 3.618338 1_555
Bi4 Bi5 3.107195 1_565
Bi4 Sr6 3.439419 1_566
Bi4 Bi7 3.439720 1_555
Bi4 Sr1 3.472904 1_555
Bi4 Sr4 3.510938 1_556
Bi4 Sr0 3.560123 1_465
Bi4 Sr0 3.790720 1_565
Bi5 Sr7 3.439419 1_545
Bi5 Bi6 3.439720 1_555
Bi5 Sr1 3.472904 1_555
Bi5 Sr5 3.510938 1_555
Bi5 Sr0 3.560123 1_455
Bi5 Sr0 3.790720 1_555
Bi6 Bi7 3.107195 1_555
Bi6 Sr7 3.439419 1_555
Bi6 Sr0 3.472904 1_455
Bi6 Sr5 3.510938 1_455
Bi6 Sr1 3.560123 1_555
Bi6 Sr1 3.790720 1_455
Bi7 Sr6 3.439419 1_556
Bi7 Sr0 3.472904 1_465
Bi7 Sr4 3.510938 1_456
Bi7 Sr1 3.560123 1_555
Bi7 Sr1 3.790720 1_455
Bi8 Bi9 3.107195 1_545
Bi8 Sr4 3.439419 1_545
Bi8 Sr3 3.472904 1_555
Bi8 Sr6 3.510938 1_555
Bi8 Sr2 3.560123 1_655
Bi8 Sr2 3.790720 1_555
Bi9 Sr5 3.439419 1_565
Bi9 Sr3 3.472904 1_555
Bi9 Sr7 3.510938 1_555
Bi9 Sr2 3.560123 1_665
Bi9 Sr2 3.790720 1_565
Bi10 Bi11 3.107195 1_555
Bi10 Bi2 3.327618 1_655
Bi10 Sr5 3.439419 1_555
Bi10 Bi9 3.439720 1_555
Bi10 Sr2 3.472904 1_665
Bi10 Sr7 3.510938 1_655
Bi10 Sr3 3.560123 1_555
Bi10 Sr3 3.790720 1_655
Bi11 Bi3 3.327618 1_655
Bi11 Sr4 3.439419 1_555
Bi11 Bi8 3.439720 1_555
Bi11 Sr2 3.472904 1_655
Bi11 Sr6 3.510938 1_655
Bi11 Sr3 3.560123 1_555
Bi11 Sr3 3.790720 1_655
