# generated using pymatgen
data_Ca3Si(AsPd4)5
_symmetry_space_group_name_H-M   'P 1'
_cell_length_a   8.77890794
_cell_length_b   8.77890835
_cell_length_c   8.82495515
_cell_angle_alpha   59.82633192
_cell_angle_beta   59.82633036
_cell_angle_gamma   60.34732828
_symmetry_Int_Tables_number   1
_chemical_formula_structural   Ca3Si(AsPd4)5
_chemical_formula_sum   'Ca3 Si1 As5 Pd20'
_cell_volume   480.89965317
_cell_formula_units_Z   1
loop_
 _symmetry_equiv_pos_site_id
 _symmetry_equiv_pos_as_xyz
  1  'x, y, z'
loop_
 _atom_site_type_symbol
 _atom_site_label
 _atom_site_symmetry_multiplicity
 _atom_site_fract_x
 _atom_site_fract_y
 _atom_site_fract_z
 _atom_site_occupancy
  Ca  Ca0  1  0.24943637  0.24943637  0.25056363  1
  Ca  Ca1  1  0.74943637  0.74943637  0.75056363  1
  Ca  Ca2  1  0.00067223  0.00067223  0.99932777  1
  Si  Si0  1  0.73373235  0.73373335  0.26626765  1
  As  As0  1  0.73696336  0.26358997  0.26303664  1
  As  As1  1  0.26358997  0.73696436  0.73640903  1
  As  As2  1  0.26359097  0.73696336  0.26303564  1
  As  As3  1  0.73696336  0.26359097  0.73640903  1
  As  As4  1  0.26427763  0.26427763  0.73572237  1
  Pd  Pd0  1  0.38519507  0.38519507  0.38276456  1
  Pd  Pd1  1  0.61840470  0.61840470  0.60932709  1
  Pd  Pd2  1  0.38519507  0.38519507  0.84684231  1
  Pd  Pd3  1  0.39067291  0.84613448  0.38159530  1
  Pd  Pd4  1  0.61840470  0.61840470  0.15386552  1
  Pd  Pd5  1  0.61723544  0.15315769  0.61480493  1
  Pd  Pd6  1  0.84613448  0.39067291  0.38159530  1
  Pd  Pd7  1  0.15315769  0.61723544  0.61480493  1
  Pd  Pd8  1  0.35138575  0.00139337  0.99860663  1
  Pd  Pd9  1  0.65420069  0.99245835  0.00754165  1
  Pd  Pd10  1  0.00139337  0.35138575  0.64861425  1
  Pd  Pd11  1  0.99245835  0.65420069  0.34579931  1
  Pd  Pd12  1  0.00139337  0.35138575  0.99860663  1
  Pd  Pd13  1  0.65420069  0.99245835  0.34579931  1
  Pd  Pd14  1  0.99245835  0.65420069  0.00754165  1
  Pd  Pd15  1  0.35138575  0.00139337  0.64861425  1
  Pd  Pd16  1  0.99701476  0.99701476  0.35159199  1
  Pd  Pd17  1  0.99701476  0.99701476  0.65437848  1
  Pd  Pd18  1  0.64840801  0.34562152  0.00298524  1
  Pd  Pd19  1  0.34562152  0.64840801  0.00298524  1
loop_
_geom_bond_atom_site_label_1
_geom_bond_atom_site_label_2
_geom_bond_distance
_geom_bond_site_symmetry_2
Ca0 Pd6 2.896882 1_455
Ca0 Pd3 2.896882 1_545
Ca0 Pd0 2.898778 1_555
Ca0 Pd2 2.898799 1_554
Ca0 Pd18 3.336698 1_555
Ca0 Pd19 3.336698 1_555
Ca0 Pd10 3.380092 1_555
Ca0 Pd15 3.380092 1_555
Ca0 Pd12 3.380092 1_554
Ca0 Pd8 3.380092 1_554
Ca0 Pd17 3.391590 1_445
Ca0 Pd16 3.391591 1_445
Ca0 Pd9 3.403887 1_545
Ca0 Pd14 3.403887 1_455
Ca0 Pd13 3.403887 1_545
Ca0 Pd11 3.403887 1_455
Ca1 Pd1 2.896868 1_555
Ca1 Pd4 2.896882 1_556
Ca1 Pd7 2.898799 1_655
Ca1 Pd5 2.898800 1_565
Ca1 Pd16 3.336697 1_555
Ca1 Pd17 3.336698 1_555
Ca1 Pd8 3.380092 1_565
Ca1 Pd12 3.380092 1_655
Ca1 Pd15 3.380092 1_565
Ca1 Pd10 3.380092 1_655
Ca1 Pd19 3.391591 1_556
Ca1 Pd18 3.391591 1_556
Ca1 Pd11 3.403887 1_555
Ca1 Pd13 3.403887 1_555
Ca1 Pd14 3.403887 1_556
Ca1 Pd9 3.403887 1_556
Ca2 Pd13 3.041738 1_446
Ca2 Pd11 3.041738 1_446
Ca2 Pd9 3.041738 1_446
Ca2 Pd14 3.041738 1_446
Ca2 Pd16 3.076771 1_446
Ca2 Pd17 3.076771 1_445
Ca2 Pd18 3.076771 1_456
Ca2 Pd19 3.076771 1_546
Ca2 Pd15 3.078821 1_555
Ca2 Pd10 3.078821 1_555
Ca2 Pd8 3.078822 1_555
Ca2 Pd12 3.078822 1_555
As0 Pd12 2.438308 1_654
As0 Pd18 2.442930 1_555
As0 Pd16 2.442931 1_545
As0 Pd13 2.481342 1_545
As0 Pd0 2.526749 1_555
As0 Pd5 2.526749 1_555
As0 Pd6 2.548982 1_555
As0 Pd4 2.548997 1_555
As0 Ca2 3.286252 1_654
As1 Pd15 2.438303 1_565
As1 Pd17 2.442925 1_455
As1 Pd19 2.442936 1_556
As1 Pd14 2.481347 1_456
As1 Pd7 2.526728 1_555
As1 Pd2 2.526756 1_555
As1 Pd3 2.548989 1_555
As1 Pd1 2.548996 1_555
As1 Ca2 3.286252 1_565
As2 Pd8 2.438303 1_564
As2 Pd19 2.442925 1_555
As2 Pd16 2.442936 1_455
As2 Pd11 2.481347 1_455
As2 Pd0 2.526749 1_555
As2 Pd7 2.526756 1_555
As2 Pd3 2.548982 1_555
As2 Pd4 2.548989 1_555
As2 Ca2 3.286252 1_564
As3 Pd10 2.438306 1_655
As3 Pd18 2.442933 1_556
As3 Pd17 2.442933 1_545
As3 Pd9 2.481350 1_546
As3 Pd5 2.526727 1_555
As3 Pd2 2.526749 1_555
As3 Pd1 2.548989 1_555
As3 Pd6 2.548989 1_555
As3 Ca2 3.286258 1_655
As4 Pd12 2.438857 1_555
As4 Pd8 2.438857 1_555
As4 Pd10 2.438857 1_555
As4 Pd15 2.438857 1_555
As4 Pd2 2.534386 1_555
As4 Pd0 2.534407 1_555
As4 Pd5 2.534408 1_555
As4 Pd7 2.534408 1_555
As4 Ca2 3.255470 1_555
Pd1 Si0 2.463237 1_555
Pd3 Si0 2.463237 1_555
Pd4 Si0 2.463230 1_555
Pd6 Si0 2.463244 1_555
Pd8 Pd9 2.660366 1_546
Pd9 Si0 2.383229 1_555
Pd10 Pd11 2.660366 1_455
Pd11 Si0 2.383229 1_555
Pd12 Pd14 2.660366 1_456
Pd13 Si0 2.383223 1_555
Pd13 Pd15 2.660366 1_565
Pd14 Si0 2.383234 1_555
Pd16 Pd17 2.672077 1_555
Pd18 Pd19 2.672077 1_555
