# generated using pymatgen
data_CsBa3(BeAs)8
_symmetry_space_group_name_H-M   'P 1'
_cell_length_a   7.40235721
_cell_length_b   8.62310274
_cell_length_c   7.65663145
_cell_angle_alpha   63.61602559
_cell_angle_beta   74.99749214
_cell_angle_gamma   96.77589949
_symmetry_Int_Tables_number   1
_chemical_formula_structural   CsBa3(BeAs)8
_chemical_formula_sum   'Cs1 Ba3 Be8 As8'
_cell_volume   407.27808917
_cell_formula_units_Z   1
loop_
 _symmetry_equiv_pos_site_id
 _symmetry_equiv_pos_as_xyz
  1  'x, y, z'
loop_
 _atom_site_type_symbol
 _atom_site_label
 _atom_site_symmetry_multiplicity
 _atom_site_fract_x
 _atom_site_fract_y
 _atom_site_fract_z
 _atom_site_occupancy
  Cs  Cs0  1  0.00000000  0.00000000  0.00000000  1
  Ba  Ba0  1  0.99829200  0.48477139  0.75849215  1
  Ba  Ba1  1  0.00000000  0.00000000  0.50000000  1
  Ba  Ba2  1  0.00170800  0.51522861  0.24150785  1
  Be  Be0  1  0.50505855  0.62539137  0.31065211  1
  Be  Be1  1  0.49697250  0.61909954  0.81739826  1
  Be  Be2  1  0.49646383  0.12427406  0.06706540  1
  Be  Be3  1  0.48823340  0.12755608  0.56180929  1
  Be  Be4  1  0.49494145  0.37460863  0.68934789  1
  Be  Be5  1  0.50302750  0.38090046  0.18260174  1
  Be  Be6  1  0.51176660  0.87244392  0.43819071  1
  Be  Be7  1  0.50353617  0.87572594  0.93293460  1
  As  As0  1  0.30396943  0.33438564  0.50171132  1
  As  As1  1  0.30379339  0.32667438  0.01597882  1
  As  As2  1  0.31519243  0.82470578  0.26385688  1
  As  As3  1  0.30891875  0.82322854  0.75556650  1
  As  As4  1  0.69603057  0.66561436  0.49828868  1
  As  As5  1  0.69620661  0.67332562  0.98402118  1
  As  As6  1  0.69108125  0.17677146  0.24443350  1
  As  As7  1  0.68480757  0.17529422  0.73614312  1
loop_
_geom_bond_atom_site_label_1
_geom_bond_atom_site_label_2
_geom_bond_distance
_geom_bond_site_symmetry_2
As0 Be0 2.319767 1_555
As0 Be3 2.328671 1_555
As0 Be5 2.329686 1_555
As0 Be4 2.358246 1_555
As0 Ba0 3.364863 1_455
As0 Ba2 3.431775 1_555
As0 Ba1 3.448937 1_555
As0 Cs0 3.490025 1_556
As1 Be1 2.308915 1_554
As1 Be5 2.315781 1_555
As1 Be2 2.345780 1_555
As1 Be4 2.353425 1_554
As1 Ba0 3.392095 1_454
As1 Ba1 3.411545 1_555
As1 Cs0 3.458486 1_555
As1 Ba2 3.461206 1_555
As2 Be0 2.311072 1_555
As2 Be2 2.328046 1_565
As2 Be6 2.328327 1_555
As2 Be7 2.364923 1_554
As2 Ba2 3.418474 1_555
As2 Ba1 3.474890 1_565
As2 Ba0 3.514210 1_455
As2 Cs0 3.516877 1_565
As3 Be6 2.320300 1_555
As3 Be1 2.332179 1_555
As3 Be7 2.351596 1_555
As3 Be3 2.355386 1_565
As3 Ba2 3.388272 1_556
As3 Ba1 3.445259 1_565
As3 Ba0 3.483849 1_455
As3 Cs0 3.492514 1_566
As4 Be4 2.319767 1_555
As4 Be6 2.328671 1_555
As4 Be1 2.329686 1_555
As4 Be0 2.358246 1_555
As4 Ba2 3.364863 1_655
As4 Ba0 3.431775 1_555
As4 Ba1 3.448937 1_665
As4 Cs0 3.490025 1_665
As5 Be5 2.308915 1_556
As5 Be1 2.315781 1_555
As5 Be7 2.345780 1_555
As5 Be0 2.353425 1_556
As5 Ba2 3.392095 1_656
As5 Ba1 3.411545 1_665
As5 Cs0 3.458486 1_666
As5 Ba0 3.461206 1_555
As6 Be3 2.320300 1_555
As6 Be5 2.332179 1_555
As6 Be2 2.351596 1_555
As6 Be6 2.355386 1_545
As6 Ba0 3.388272 1_554
As6 Ba1 3.445259 1_655
As6 Ba2 3.483849 1_655
As6 Cs0 3.492514 1_655
As7 Be4 2.311072 1_555
As7 Be7 2.328046 1_545
As7 Be3 2.328327 1_555
As7 Be2 2.364923 1_556
As7 Ba0 3.418474 1_555
As7 Ba1 3.474890 1_655
As7 Ba2 3.514210 1_655
As7 Cs0 3.516877 1_656
