# generated using pymatgen
data_Rb2TaFeSe4
_symmetry_space_group_name_H-M   'P 1'
_cell_length_a   14.36221959
_cell_length_b   12.83900705
_cell_length_c   7.62268673
_cell_angle_alpha   85.11381161
_cell_angle_beta   62.96063540
_cell_angle_gamma   31.92554715
_symmetry_Int_Tables_number   1
_chemical_formula_structural   Rb2TaFeSe4
_chemical_formula_sum   'Rb4 Ta2 Fe2 Se8'
_cell_volume   509.62845337
_cell_formula_units_Z   2
loop_
 _symmetry_equiv_pos_site_id
 _symmetry_equiv_pos_as_xyz
  1  'x, y, z'
loop_
 _atom_site_type_symbol
 _atom_site_label
 _atom_site_symmetry_multiplicity
 _atom_site_fract_x
 _atom_site_fract_y
 _atom_site_fract_z
 _atom_site_occupancy
  Rb  Rb0  1  0.82181314  0.82181314  0.17818686  1
  Rb  Rb1  1  0.17818686  0.17818686  0.82181314  1
  Rb  Rb2  1  0.07181314  0.07181314  0.42818686  1
  Rb  Rb3  1  0.42818686  0.42818686  0.07181314  1
  Ta  Ta0  1  0.25000000  0.25000000  0.25000000  1
  Ta  Ta1  1  0.00000000  0.00000000  0.00000000  1
  Fe  Fe0  1  0.75000000  0.75000000  0.75000000  1
  Fe  Fe1  1  0.50000000  0.50000000  0.50000000  1
  Se  Se0  1  0.70909700  0.40104117  0.09281372  1
  Se  Se1  1  0.79704912  0.09281372  0.40104117  1
  Se  Se2  1  0.09281372  0.79704912  0.70909700  1
  Se  Se3  1  0.40104117  0.70909700  0.79704912  1
  Se  Se4  1  0.15718628  0.45295088  0.54090300  1
  Se  Se5  1  0.84895883  0.54090300  0.45295088  1
  Se  Se6  1  0.45295088  0.15718628  0.84895883  1
  Se  Se7  1  0.54090300  0.84895883  0.15718628  1
loop_
_geom_bond_atom_site_label_1
_geom_bond_atom_site_label_2
_geom_bond_distance
_geom_bond_site_symmetry_2
Rb0 Se6 3.598038 1_654
Rb0 Se4 3.598040 1_565
Rb0 Se6 3.626401 1_565
Rb0 Se4 3.626408 1_654
Rb0 Se2 3.670863 1_654
Rb0 Se1 3.670866 1_565
Rb0 Se5 3.822964 1_555
Rb0 Se7 3.822968 1_555
Rb1 Se5 3.598035 1_456
Rb1 Se7 3.598042 1_545
Rb1 Se5 3.626401 1_545
Rb1 Se7 3.626403 1_456
Rb1 Se0 3.670853 1_456
Rb1 Se3 3.670854 1_545
Rb1 Se6 3.822954 1_555
Rb1 Se4 3.822958 1_555
Rb2 Se3 3.598035 1_544
Rb2 Se0 3.598042 1_456
Rb2 Se3 3.626401 1_455
Rb2 Se0 3.626403 1_545
Rb2 Se7 3.670853 1_545
Rb2 Se5 3.670854 1_455
Rb2 Se1 3.822954 1_455
Rb2 Se2 3.822958 1_545
Rb3 Se1 3.598038 1_465
Rb3 Se2 3.598040 1_644
Rb3 Se1 3.626401 1_554
Rb3 Se2 3.626408 1_555
Rb3 Se4 3.670863 1_555
Rb3 Se6 3.670866 1_554
Rb3 Se3 3.822964 1_554
Rb3 Se0 3.822968 1_555
Fe0 Se4 2.446814 1_655
Fe0 Se6 2.446817 1_565
Fe0 Se7 2.446820 1_556
Fe0 Se5 2.446826 1_555
Fe1 Se2 2.446814 1_555
Fe1 Se1 2.446817 1_555
Fe1 Se0 2.446820 1_555
Fe1 Se3 2.446826 1_555
Se0 Ta1 2.425794 1_655
Se1 Ta1 2.425791 1_655
Se2 Ta1 2.425785 1_566
Se3 Ta1 2.425796 1_566
Se4 Ta0 2.425785 1_555
Se5 Ta0 2.425796 1_655
Se6 Ta0 2.425791 1_556
Se7 Ta0 2.425794 1_565
