# generated using pymatgen
data_Hf3TaRh2N
_symmetry_space_group_name_H-M   'P 1'
_cell_length_a   8.57951617
_cell_length_b   8.57951591
_cell_length_c   8.57951683
_cell_angle_alpha   60.00000780
_cell_angle_beta   60.00000878
_cell_angle_gamma   60.00000487
_symmetry_Int_Tables_number   1
_chemical_formula_structural   Hf3TaRh2N
_chemical_formula_sum   'Hf12 Ta4 Rh8 N4'
_cell_volume   446.55348617
_cell_formula_units_Z   4
loop_
 _symmetry_equiv_pos_site_id
 _symmetry_equiv_pos_as_xyz
  1  'x, y, z'
loop_
 _atom_site_type_symbol
 _atom_site_label
 _atom_site_symmetry_multiplicity
 _atom_site_fract_x
 _atom_site_fract_y
 _atom_site_fract_z
 _atom_site_occupancy
  Hf  Hf0  1  0.81480869  0.81480869  0.18519131  1
  Hf  Hf1  1  0.18519131  0.18519131  0.81480869  1
  Hf  Hf2  1  0.81480869  0.18519131  0.81480869  1
  Hf  Hf3  1  0.18519131  0.81480869  0.18519131  1
  Hf  Hf4  1  0.18519131  0.81480869  0.81480869  1
  Hf  Hf5  1  0.81480869  0.18519131  0.18519131  1
  Hf  Hf6  1  0.43519131  0.43519131  0.06480869  1
  Hf  Hf7  1  0.06480869  0.06480869  0.43519131  1
  Hf  Hf8  1  0.43519131  0.06480869  0.43519131  1
  Hf  Hf9  1  0.06480869  0.43519131  0.06480869  1
  Hf  Hf10  1  0.06480869  0.43519131  0.43519131  1
  Hf  Hf11  1  0.43519131  0.06480869  0.06480869  1
  Ta  Ta0  1  0.12500000  0.62500000  0.62500000  1
  Ta  Ta1  1  0.62500000  0.12500000  0.62500000  1
  Ta  Ta2  1  0.62500000  0.62500000  0.12500000  1
  Ta  Ta3  1  0.62500000  0.62500000  0.62500000  1
  Rh  Rh0  1  0.76344486  0.41218438  0.41218438  1
  Rh  Rh1  1  0.41218438  0.76344486  0.41218438  1
  Rh  Rh2  1  0.41218438  0.41218438  0.76344486  1
  Rh  Rh3  1  0.41218438  0.41218438  0.41218438  1
  Rh  Rh4  1  0.48655514  0.83781562  0.83781562  1
  Rh  Rh5  1  0.83781562  0.48655514  0.83781562  1
  Rh  Rh6  1  0.83781562  0.83781562  0.48655514  1
  Rh  Rh7  1  0.83781562  0.83781562  0.83781562  1
  N  N0  1  0.62500000  0.12500000  0.12500000  1
  N  N1  1  0.12500000  0.62500000  0.12500000  1
  N  N2  1  0.12500000  0.12500000  0.62500000  1
  N  N3  1  0.12500000  0.12500000  0.12500000  1
loop_
_geom_bond_atom_site_label_1
_geom_bond_atom_site_label_2
_geom_bond_distance
_geom_bond_site_symmetry_2
Hf0 N0 2.265804 1_565
Hf0 N1 2.265805 1_655
Hf0 Rh7 2.796893 1_554
Hf0 Rh6 2.796910 1_555
Hf0 Rh0 3.139430 1_555
Hf0 Rh1 3.139430 1_555
Hf1 N2 2.265804 1_555
Hf1 N3 2.265805 1_556
Hf1 Rh4 2.796900 1_545
Hf1 Rh5 2.796900 1_455
Hf1 Rh2 3.139415 1_555
Hf1 Rh3 3.139424 1_555
Hf2 N2 2.265805 1_655
Hf2 N0 2.265805 1_556
Hf2 Rh7 2.796892 1_545
Hf2 Rh5 2.796909 1_555
Hf2 Rh2 3.139430 1_555
Hf2 Rh0 3.139430 1_555
Hf3 N1 2.265804 1_555
Hf3 N3 2.265804 1_565
Hf3 Rh6 2.796900 1_455
Hf3 Rh4 2.796900 1_554
Hf3 Rh1 3.139415 1_555
Hf3 Rh3 3.139424 1_555
Hf4 N2 2.265805 1_565
Hf4 N1 2.265805 1_556
Hf4 Rh7 2.796892 1_455
Hf4 Rh4 2.796909 1_555
Hf4 Rh2 3.139430 1_555
Hf4 Rh1 3.139430 1_555
Hf5 N0 2.265804 1_555
Hf5 N3 2.265804 1_655
Hf5 Rh6 2.796900 1_545
Hf5 Rh5 2.796900 1_554
Hf5 Rh0 3.139415 1_555
Hf5 Rh3 3.139424 1_555
Hf6 N0 2.265804 1_555
Hf6 N1 2.265805 1_555
Hf6 Rh3 2.796893 1_555
Hf6 Rh2 2.796910 1_554
Hf6 Rh4 3.139430 1_554
Hf6 Rh5 3.139430 1_554
Hf7 N2 2.265804 1_555
Hf7 N3 2.265805 1_555
Hf7 Rh0 2.796900 1_455
Hf7 Rh1 2.796900 1_545
Hf7 Rh6 3.139415 1_445
Hf7 Rh7 3.139424 1_445
Hf8 N2 2.265805 1_555
Hf8 N0 2.265805 1_555
Hf8 Rh3 2.796892 1_555
Hf8 Rh1 2.796909 1_545
Hf8 Rh6 3.139430 1_545
Hf8 Rh4 3.139430 1_545
Hf9 N1 2.265804 1_555
Hf9 N3 2.265804 1_555
Hf9 Rh2 2.796900 1_554
Hf9 Rh0 2.796900 1_455
Hf9 Rh5 3.139415 1_454
Hf9 Rh7 3.139424 1_454
Hf10 N2 2.265805 1_555
Hf10 N1 2.265805 1_555
Hf10 Rh3 2.796892 1_555
Hf10 Rh0 2.796909 1_455
Hf10 Rh6 3.139430 1_455
Hf10 Rh5 3.139430 1_455
Hf11 N0 2.265804 1_555
Hf11 N3 2.265804 1_555
Hf11 Rh2 2.796900 1_554
Hf11 Rh1 2.796900 1_545
Hf11 Rh4 3.139415 1_544
Hf11 Rh7 3.139424 1_544
Rh0 Ta1 2.659802 1_555
Rh0 Ta2 2.659802 1_555
Rh0 Ta3 2.659816 1_555
Rh1 Ta0 2.659802 1_555
Rh1 Ta2 2.659802 1_555
Rh1 Ta3 2.659816 1_555
Rh2 Ta1 2.659802 1_555
Rh2 Ta0 2.659802 1_555
Rh2 Ta3 2.659816 1_555
Rh3 Ta1 2.659812 1_555
Rh3 Ta0 2.659812 1_555
Rh3 Ta2 2.659812 1_555
Rh4 Ta1 2.659802 1_565
Rh4 Ta2 2.659802 1_556
Rh4 Ta3 2.659816 1_555
Rh5 Ta0 2.659802 1_655
Rh5 Ta2 2.659802 1_556
Rh5 Ta3 2.659816 1_555
Rh6 Ta1 2.659802 1_565
Rh6 Ta0 2.659802 1_655
Rh6 Ta3 2.659816 1_555
Rh7 Ta1 2.659812 1_565
Rh7 Ta0 2.659812 1_655
Rh7 Ta2 2.659812 1_556
