# generated using pymatgen
data_Ta7Ti2NbSi6
_symmetry_space_group_name_H-M   'P 1'
_cell_length_a   7.51138001
_cell_length_b   7.50886183
_cell_length_c   7.51040313
_cell_angle_alpha   128.84120443
_cell_angle_beta   128.85040380
_cell_angle_gamma   75.25601985
_symmetry_Int_Tables_number   1
_chemical_formula_structural   Ta7Ti2NbSi6
_chemical_formula_sum   'Ta7 Ti2 Nb1 Si6'
_cell_volume   250.12226360
_cell_formula_units_Z   1
loop_
 _symmetry_equiv_pos_site_id
 _symmetry_equiv_pos_as_xyz
  1  'x, y, z'
loop_
 _atom_site_type_symbol
 _atom_site_label
 _atom_site_symmetry_multiplicity
 _atom_site_fract_x
 _atom_site_fract_y
 _atom_site_fract_z
 _atom_site_occupancy
  Ta  Ta0  1  0.68464170  0.51658644  0.50000000  1
  Ta  Ta1  1  0.51653227  0.01600995  0.83100186  1
  Ta  Ta2  1  0.18553041  0.68500809  0.16899814  1
  Ta  Ta3  1  0.98373541  0.81525065  0.50000000  1
  Ta  Ta4  1  0.31492314  0.48349008  0.50000000  1
  Ta  Ta5  1  0.48296861  0.98355160  0.16871270  1
  Ta  Ta6  1  0.81425491  0.31483890  0.83128730  1
  Ti  Ti0  1  0.99993620  0.00011968  0.99989647  1
  Ti  Ti1  1  0.50003873  0.50022321  0.00010353  1
  Nb  Nb0  1  0.01777696  0.18508716  0.50000000  1
  Si  Si0  1  0.74937677  0.74943550  0.99940018  1
  Si  Si1  1  0.24997760  0.25003533  0.00059982  1
  Si  Si2  1  0.36953755  0.13057611  0.50000000  1
  Si  Si3  1  0.63120138  0.86890949  0.50000000  1
  Si  Si4  1  0.86895845  0.36961317  0.23834752  1
  Si  Si5  1  0.13061093  0.63126665  0.76165248  1
loop_
_geom_bond_atom_site_label_1
_geom_bond_atom_site_label_2
_geom_bond_distance
_geom_bond_site_symmetry_2
Nb0 Si2 2.568719 1_555
Nb0 Si4 2.627189 1_455
Nb0 Si5 2.627195 1_555
Nb0 Si1 2.705823 1_556
Nb0 Si0 2.705824 1_444
Si0 Ta4 2.696537 1_555
Si0 Ta6 2.697265 1_555
Si0 Ta0 2.698179 1_555
Si0 Ta1 2.698805 1_565
Si0 Ta3 2.699513 1_556
Si0 Ta5 2.703630 1_556
Si0 Ta2 2.705611 1_656
Si0 Ti1 2.969538 1_556
Si0 Ti0 2.978421 1_565
Si1 Ta4 2.696541 1_555
Si1 Ta5 2.697265 1_545
Si1 Ta0 2.698174 1_555
Si1 Ta2 2.698806 1_555
Si1 Ta3 2.699515 1_444
Si1 Ta6 2.703643 1_454
Si1 Ta1 2.705604 1_554
Si1 Ti0 2.969538 1_454
Si1 Ti1 2.978409 1_555
Si2 Si3 2.399560 1_545
Si2 Ti0 2.541957 1_454
Si2 Ti1 2.541959 1_556
Si2 Ta4 2.576307 1_555
Si2 Ta6 2.621211 1_555
Si2 Ta5 2.621217 1_545
Si2 Ta2 2.625746 1_545
Si2 Ta1 2.625746 1_555
Si3 Ti1 2.537901 1_555
Si3 Ti0 2.537903 1_565
Si3 Ta0 2.572840 1_555
Si3 Ta3 2.575125 1_555
Si3 Ta6 2.625738 1_565
Si3 Ta5 2.625740 1_555
Si3 Ta2 2.626735 1_555
Si3 Ta1 2.626735 1_565
Si4 Si5 2.399685 1_655
Si4 Ti1 2.537642 1_555
Si4 Ti0 2.541947 1_554
Si4 Ta6 2.572397 1_554
Si4 Ta1 2.577861 1_554
Si4 Ta3 2.626215 1_555
Si4 Ta4 2.627880 1_655
Si4 Ta0 2.629007 1_555
Si5 Ti0 2.537634 1_465
Si5 Ti1 2.541947 1_556
Si5 Ta5 2.572396 1_556
Si5 Ta2 2.577865 1_556
Si5 Ta3 2.626208 1_455
Si5 Ta4 2.627879 1_555
Si5 Ta0 2.629008 1_455
