# generated using pymatgen
data_TaNb3Co2N
_symmetry_space_group_name_H-M   'P 1'
_cell_length_a   8.22822252
_cell_length_b   8.22822299
_cell_length_c   8.22822252
_cell_angle_alpha   119.99999810
_cell_angle_beta   90.00000000
_cell_angle_gamma   119.99999810
_symmetry_Int_Tables_number   1
_chemical_formula_structural   TaNb3Co2N
_chemical_formula_sum   'Ta4 Nb12 Co8 N4'
_cell_volume   393.91555967
_cell_formula_units_Z   4
loop_
 _symmetry_equiv_pos_site_id
 _symmetry_equiv_pos_as_xyz
  1  'x, y, z'
loop_
 _atom_site_type_symbol
 _atom_site_label
 _atom_site_symmetry_multiplicity
 _atom_site_fract_x
 _atom_site_fract_y
 _atom_site_fract_z
 _atom_site_occupancy
  Ta  Ta0  1  0.00000000  0.00000000  0.00000000  1
  Ta  Ta1  1  0.50000000  0.00000000  0.00000000  1
  Ta  Ta2  1  0.50000000  0.50000000  0.00000000  1
  Ta  Ta3  1  0.50000000  0.50000000  0.50000000  1
  Nb  Nb0  1  0.31239733  0.75000100  0.18760267  1
  Nb  Nb1  1  0.93760367  0.37520634  0.18760267  1
  Nb  Nb2  1  0.93760367  0.75000100  0.18760267  1
  Nb  Nb3  1  0.68760367  0.87520634  0.43760267  1
  Nb  Nb4  1  0.68760367  0.25000100  0.43760267  1
  Nb  Nb5  1  0.06239833  0.25000100  0.43760367  1
  Nb  Nb6  1  0.31239733  0.12479366  0.56239833  1
  Nb  Nb7  1  0.31239733  0.75000100  0.56239833  1
  Nb  Nb8  1  0.93760367  0.75000100  0.56239833  1
  Nb  Nb9  1  0.68760367  0.25000100  0.81239833  1
  Nb  Nb10  1  0.06239733  0.62479366  0.81239833  1
  Nb  Nb11  1  0.06239733  0.25000100  0.81239833  1
  Co  Co0  1  0.70704855  0.91409710  0.12114765  1
  Co  Co1  1  0.29295145  0.08590190  0.20704855  1
  Co  Co2  1  0.29295145  0.41409810  0.20704855  1
  Co  Co3  1  0.62114765  0.41409810  0.20704855  1
  Co  Co4  1  0.70704855  0.58590190  0.79295145  1
  Co  Co5  1  0.70704855  0.91409710  0.79295145  1
  Co  Co6  1  0.37885235  0.58590190  0.79295145  1
  Co  Co7  1  0.29295145  0.08590190  0.87885235  1
  N  N0  1  0.00000000  0.50000000  0.00000000  1
  N  N1  1  0.00000000  0.00000000  0.50000000  1
  N  N2  1  0.50000000  0.00000000  0.50000000  1
  N  N3  1  0.00000000  0.50000000  0.50000000  1
loop_
_geom_bond_atom_site_label_1
_geom_bond_atom_site_label_2
_geom_bond_distance
_geom_bond_site_symmetry_2
Co0 Ta2 2.510851 1_555
Co0 Ta1 2.510864 1_565
Co0 Ta0 2.510864 1_665
Co0 Co4 2.700467 1_554
Co0 Co5 2.700471 1_554
Co0 Co6 2.700472 1_554
Co0 Nb3 2.773110 1_555
Co0 Nb4 2.773124 1_565
Co0 Nb5 2.773132 1_665
Co0 Nb0 3.003444 1_555
Co0 Nb2 3.003444 1_555
Co0 Nb1 3.003465 1_565
Co1 Ta1 2.510853 1_555
Co1 Ta0 2.510860 1_555
Co1 Ta3 2.510860 1_555
Co1 Co7 2.700471 1_554
Co1 Co2 2.700472 1_555
Co1 Co3 2.700472 1_555
Co1 Nb0 2.773115 1_545
Co1 Nb2 2.773120 1_445
Co1 Nb6 2.773139 1_555
Co1 Nb10 3.003447 1_544
Co1 Nb4 3.003451 1_555
Co1 Nb5 3.003454 1_555
Co2 Ta2 2.510853 1_555
Co2 Ta3 2.510860 1_555
Co2 Ta0 2.510860 1_555
Co2 Co3 2.700471 1_555
Co2 Co7 2.700472 1_554
Co2 Nb1 2.773123 1_455
Co2 Nb0 2.773131 1_555
Co2 Nb7 2.773136 1_555
Co2 Nb11 3.003444 1_554
Co2 Nb5 3.003454 1_555
Co2 Nb3 3.003455 1_555
Co3 Ta2 2.510858 1_555
Co3 Ta1 2.510858 1_555
Co3 Ta3 2.510864 1_555
Co3 Co7 2.700472 1_554
Co3 Nb1 2.773123 1_555
Co3 Nb2 2.773128 1_555
Co3 Nb8 2.773132 1_555
Co3 Nb9 3.003440 1_554
Co3 Nb4 3.003447 1_555
Co3 Nb3 3.003455 1_555
Co4 Ta2 2.510853 1_556
Co4 Ta3 2.510860 1_555
Co4 Ta0 2.510860 1_666
Co4 Co5 2.700463 1_555
Co4 Co6 2.700471 1_555
Co4 Nb9 2.773123 1_555
Co4 Nb4 2.773128 1_555
Co4 Nb10 2.773131 1_655
Co4 Nb2 3.003447 1_556
Co4 Nb6 3.003451 1_555
Co4 Nb8 3.003454 1_555
Co5 Ta1 2.510855 1_566
Co5 Ta0 2.510855 1_666
Co5 Ta3 2.510856 1_555
Co5 Co6 2.700467 1_555
Co5 Nb9 2.773131 1_565
Co5 Nb11 2.773131 1_665
Co5 Nb3 2.773135 1_555
Co5 Nb7 3.003451 1_555
Co5 Nb8 3.003451 1_555
Co5 Nb1 3.003454 1_566
Co6 Ta2 2.510858 1_556
Co6 Ta1 2.510858 1_566
Co6 Ta3 2.510864 1_555
Co6 Nb10 2.773115 1_555
Co6 Nb5 2.773116 1_555
Co6 Nb11 2.773120 1_555
Co6 Nb0 3.003444 1_556
Co6 Nb7 3.003451 1_555
Co6 Nb6 3.003458 1_555
Co7 Ta1 2.510858 1_556
Co7 Ta2 2.510858 1_556
Co7 Ta0 2.510864 1_556
Co7 Nb6 2.773107 1_555
Co7 Nb7 2.773111 1_545
Co7 Nb8 2.773116 1_445
Co7 Nb9 3.003448 1_555
Co7 Nb11 3.003455 1_555
Co7 Nb10 3.003462 1_545
N0 Nb10 2.181425 1_554
N0 Nb11 2.181431 1_554
N0 Nb9 2.181431 1_454
N0 Nb1 2.181433 1_455
N0 Nb2 2.181439 1_455
N0 Nb0 2.181439 1_555
N1 Nb3 2.181433 1_445
N1 Nb2 2.181439 1_445
N1 Nb8 2.181439 1_445
N1 Nb5 2.181439 1_555
N1 Nb6 2.181441 1_555
N1 Nb11 2.181447 1_555
N2 Nb6 2.181433 1_555
N2 Nb0 2.181439 1_545
N2 Nb7 2.181439 1_545
N2 Nb3 2.181441 1_545
N2 Nb4 2.181447 1_555
N2 Nb9 2.181447 1_555
N3 Nb4 2.181431 1_455
N3 Nb5 2.181439 1_555
N3 Nb7 2.181439 1_555
N3 Nb8 2.181439 1_455
N3 Nb1 2.181441 1_455
N3 Nb10 2.181449 1_555
