# generated using pymatgen
data_Ba3Sr2I3O15F
_symmetry_space_group_name_H-M   'P 1'
_cell_length_a   10.79178460
_cell_length_b   10.79178463
_cell_length_c   7.75578615
_cell_angle_alpha   90.00000000
_cell_angle_beta   90.00000000
_cell_angle_gamma   119.99999691
_symmetry_Int_Tables_number   1
_chemical_formula_structural   Ba3Sr2I3O15F
_chemical_formula_sum   'Ba6 Sr4 I6 O30 F2'
_cell_volume   782.24538352
_cell_formula_units_Z   2
loop_
 _symmetry_equiv_pos_site_id
 _symmetry_equiv_pos_as_xyz
  1  'x, y, z'
loop_
 _atom_site_type_symbol
 _atom_site_label
 _atom_site_symmetry_multiplicity
 _atom_site_fract_x
 _atom_site_fract_y
 _atom_site_fract_z
 _atom_site_occupancy
  Ba  Ba0  1  0.75183685  0.00000000  0.21090162  1
  Ba  Ba1  1  0.00000000  0.75183685  0.21090162  1
  Ba  Ba2  1  0.24816315  1.00000000  0.71090162  1
  Ba  Ba3  1  1.00000000  0.24816315  0.71090162  1
  Ba  Ba4  1  0.24816315  0.24816315  0.21090162  1
  Ba  Ba5  1  0.75183685  0.75183685  0.71090162  1
  Sr  Sr0  1  0.33333300  0.66666700  0.46731497  1
  Sr  Sr1  1  0.66666700  0.33333300  0.96731497  1
  Sr  Sr2  1  0.33333300  0.66666700  0.96731497  1
  Sr  Sr3  1  0.66666700  0.33333300  0.46731497  1
  I  I0  1  0.39388227  0.00000000  0.15802866  1
  I  I1  1  0.00000000  0.39388227  0.15802866  1
  I  I2  1  0.60611773  1.00000000  0.65802866  1
  I  I3  1  1.00000000  0.60611773  0.65802866  1
  I  I4  1  0.60611773  0.60611773  0.15802866  1
  I  I5  1  0.39388227  0.39388227  0.65802866  1
  O  O0  1  0.13701195  0.57882195  0.21647961  1
  O  O1  1  0.42117805  0.55818899  0.21647961  1
  O  O2  1  0.86298805  0.42117805  0.71647961  1
  O  O3  1  0.42117805  0.86298805  0.71647961  1
  O  O4  1  0.44181101  0.86298805  0.21647961  1
  O  O5  1  0.57882195  0.44181101  0.71647961  1
  O  O6  1  0.44181101  0.57882195  0.71647961  1
  O  O7  1  0.57882195  0.13701195  0.21647961  1
  O  O8  1  0.55818899  0.13701195  0.71647961  1
  O  O9  1  0.55818899  0.42117805  0.21647961  1
  O  O10  1  0.13701195  0.55818899  0.71647961  1
  O  O11  1  0.86298805  0.44181101  0.21647961  1
  O  O12  1  0.13688447  0.39118305  0.01794763  1
  O  O13  1  0.60881695  0.74570143  0.01794763  1
  O  O14  1  0.86311553  0.60881695  0.51794763  1
  O  O15  1  0.60881695  0.86311553  0.51794763  1
  O  O16  1  0.25429857  0.86311553  0.01794763  1
  O  O17  1  0.39118305  0.25429857  0.51794763  1
  O  O18  1  0.25429857  0.39118305  0.51794763  1
  O  O19  1  0.39118305  0.13688447  0.01794763  1
  O  O20  1  0.74570143  0.13688447  0.51794763  1
  O  O21  1  0.74570143  0.60881695  0.01794763  1
  O  O22  1  0.13688447  0.74570143  0.51794763  1
  O  O23  1  0.86311553  0.25429857  0.01794763  1
  O  O24  1  0.28590002  1.00000000  0.33387169  1
  O  O25  1  1.00000000  0.28590002  0.33387169  1
  O  O26  1  0.71409998  0.00000000  0.83387169  1
  O  O27  1  0.00000000  0.71409998  0.83387169  1
  O  O28  1  0.71409998  0.71409998  0.33387169  1
  O  O29  1  0.28590002  0.28590002  0.83387169  1
  F  F0  1  0.00000000  0.00000000  0.16899967  1
  F  F1  1  0.00000000  0.00000000  0.66899967  1
loop_
_geom_bond_atom_site_label_1
_geom_bond_atom_site_label_2
_geom_bond_distance
_geom_bond_site_symmetry_2
Ba0 F0 2.697769 1_655
Ba0 O23 2.813789 1_555
Ba0 O13 2.813789 1_545
Ba0 O20 2.820529 1_555
Ba0 O15 2.820529 1_545
Ba0 O4 2.904316 1_545
Ba0 O7 2.904326 1_555
Ba0 O26 2.952386 1_554
Ba0 O28 3.055889 1_545
Ba0 O25 3.055889 1_555
Ba1 F0 2.697769 1_565
Ba1 O16 2.813789 1_555
Ba1 O21 2.813789 1_455
Ba1 O22 2.820529 1_555
Ba1 O14 2.820529 1_455
Ba1 O11 2.904316 1_455
Ba1 O0 2.904326 1_555
Ba1 O27 2.952386 1_554
Ba1 O28 3.055889 1_455
Ba1 O24 3.055889 1_555
Ba2 F1 2.697769 1_565
Ba2 O22 2.813789 1_555
Ba2 O17 2.813789 1_565
Ba2 O16 2.820529 1_556
Ba2 O19 2.820529 1_566
Ba2 O8 2.904316 1_565
Ba2 O3 2.904326 1_555
Ba2 O24 2.952386 1_555
Ba2 O29 3.055889 1_565
Ba2 O27 3.055889 1_555
Ba3 F1 2.697769 1_655
Ba3 O20 2.813789 1_555
Ba3 O18 2.813789 1_655
Ba3 O23 2.820529 1_556
Ba3 O12 2.820529 1_656
Ba3 O10 2.904316 1_655
Ba3 O2 2.904326 1_555
Ba3 O25 2.952386 1_555
Ba3 O29 3.055889 1_655
Ba3 O26 3.055889 1_555
Ba4 F0 2.697769 1_555
Ba4 O19 2.813789 1_555
Ba4 O12 2.813789 1_555
Ba4 O17 2.820529 1_555
Ba4 O18 2.820529 1_555
Ba4 O9 2.904317 1_555
Ba4 O1 2.904317 1_555
Ba4 O29 2.952386 1_554
Ba4 O25 3.055889 1_455
Ba4 O24 3.055889 1_545
Ba5 F1 2.697769 1_665
Ba5 O15 2.813789 1_555
Ba5 O14 2.813789 1_555
Ba5 O13 2.820529 1_556
Ba5 O21 2.820529 1_556
Ba5 O6 2.904317 1_555
Ba5 O5 2.904317 1_555
Ba5 O28 2.952386 1_555
Ba5 O27 3.055889 1_655
Ba5 O26 3.055889 1_565
I0 O24 1.793858 1_545
I0 O19 1.845652 1_555
I0 O16 1.845652 1_545
I0 O7 1.850425 1_555
I0 O4 1.850432 1_545
I1 O25 1.793858 1_455
I1 O12 1.845652 1_555
I1 O23 1.845652 1_455
I1 O0 1.850425 1_555
I1 O11 1.850432 1_455
I2 O26 1.793858 1_565
I2 O15 1.845652 1_555
I2 O20 1.845652 1_565
I2 O3 1.850425 1_555
I2 O8 1.850432 1_565
I3 O27 1.793858 1_655
I3 O14 1.845652 1_555
I3 O22 1.845652 1_655
I3 O2 1.850425 1_555
I3 O10 1.850432 1_655
I4 O28 1.793858 1_555
I4 O21 1.845652 1_555
I4 O13 1.845652 1_555
I4 O1 1.850422 1_555
I4 O9 1.850422 1_555
I5 O29 1.793858 1_555
I5 O18 1.845652 1_555
I5 O17 1.845652 1_555
I5 O5 1.850422 1_555
I5 O6 1.850422 1_555
O0 Sr2 2.667086 1_554
O0 Sr0 2.676489 1_555
O1 Sr2 2.667099 1_554
O1 Sr0 2.676503 1_555
O2 Sr3 2.667086 1_555
O2 Sr1 2.676489 1_555
O3 Sr0 2.667086 1_555
O3 Sr2 2.676489 1_555
O4 Sr2 2.667087 1_554
O4 Sr0 2.676490 1_555
O5 Sr3 2.667099 1_555
O5 Sr1 2.676503 1_555
O6 Sr0 2.667099 1_555
O6 Sr2 2.676503 1_555
O7 Sr1 2.667086 1_554
O7 Sr3 2.676489 1_555
O8 Sr3 2.667087 1_555
O8 Sr1 2.676490 1_555
O9 Sr1 2.667099 1_554
O9 Sr3 2.676503 1_555
O10 Sr0 2.667087 1_555
O10 Sr2 2.676490 1_555
O11 Sr1 2.667087 1_554
O11 Sr3 2.676490 1_555
O12 Sr2 2.680388 1_554
O13 Sr2 2.680390 1_554
O14 Sr3 2.680388 1_555
O15 Sr0 2.680388 1_555
O16 Sr2 2.680380 1_554
O17 Sr3 2.680390 1_555
O18 Sr0 2.680390 1_555
O19 Sr1 2.680388 1_554
O20 Sr3 2.680380 1_555
O21 Sr1 2.680390 1_554
O22 Sr0 2.680380 1_555
O23 Sr1 2.680380 1_554
