# generated using pymatgen
data_Ba6Sc2TcO12
_symmetry_space_group_name_H-M   'P 1'
_cell_length_a   9.20385461
_cell_length_b   9.20385410
_cell_length_c   7.34982988
_cell_angle_alpha   68.01739675
_cell_angle_beta   68.01739680
_cell_angle_gamma   36.81695876
_symmetry_Int_Tables_number   1
_chemical_formula_structural   Ba6Sc2TcO12
_chemical_formula_sum   'Ba6 Sc2 Tc1 O12'
_cell_volume   342.84376769
_cell_formula_units_Z   1
loop_
 _symmetry_equiv_pos_site_id
 _symmetry_equiv_pos_as_xyz
  1  'x, y, z'
loop_
 _atom_site_type_symbol
 _atom_site_label
 _atom_site_symmetry_multiplicity
 _atom_site_fract_x
 _atom_site_fract_y
 _atom_site_fract_z
 _atom_site_occupancy
  Ba  Ba0  1  0.21916230  0.21916230  0.70889727  1
  Ba  Ba1  1  0.87633935  0.87633935  0.71493549  1
  Ba  Ba2  1  0.54826849  0.54826849  0.70690759  1
  Ba  Ba3  1  0.78083770  0.78083770  0.29110273  1
  Ba  Ba4  1  0.45173151  0.45173151  0.29309241  1
  Ba  Ba5  1  0.12366065  0.12366065  0.28506451  1
  Sc  Sc0  1  0.66777240  0.66777240  0.99893163  1
  Sc  Sc1  1  0.33222760  0.33222760  0.00106837  1
  Tc  Tc0  1  0.00000000  0.00000000  0.00000000  1
  O  O0  1  0.28431476  0.28431476  0.31518935  1
  O  O1  1  0.95274135  0.95274135  0.28572680  1
  O  O2  1  0.60973699  0.60973699  0.31628137  1
  O  O3  1  0.71568524  0.71568524  0.68481065  1
  O  O4  1  0.39026301  0.39026301  0.68371863  1
  O  O5  1  0.04725865  0.04725865  0.71427320  1
  O  O6  1  0.00000000  0.50000000  0.00000000  1
  O  O7  1  0.68856178  0.15564983  0.99929386  1
  O  O8  1  0.31143822  0.84435017  0.00070614  1
  O  O9  1  0.50000000  0.00000000  0.00000000  1
  O  O10  1  0.15564983  0.68856178  0.99929386  1
  O  O11  1  0.84435017  0.31143822  0.00070614  1
loop_
_geom_bond_atom_site_label_1
_geom_bond_atom_site_label_2
_geom_bond_distance
_geom_bond_site_symmetry_2
Ba0 O0 2.658983 1_555
Ba0 O6 2.808728 1_556
Ba0 O9 2.808728 1_556
Ba0 O8 2.890572 1_546
Ba0 O11 2.890572 1_456
Ba0 O3 2.913956 1_545
Ba0 O3 2.913956 1_455
Ba0 O4 2.920353 1_555
Ba0 O5 2.987063 1_555
Ba1 O6 2.779021 1_656
Ba1 O9 2.779021 1_566
Ba1 O7 2.858004 1_565
Ba1 O10 2.858004 1_655
Ba1 O1 2.900135 1_555
Ba1 O3 2.900443 1_555
Ba1 O4 2.918113 1_565
Ba1 O4 2.918113 1_655
Ba1 O5 2.983321 1_665
Ba2 O2 2.638829 1_555
Ba2 O4 2.831261 1_555
Ba2 O7 2.852448 1_555
Ba2 O10 2.852449 1_555
Ba2 O3 2.863882 1_555
Ba2 O8 2.865538 1_556
Ba2 O11 2.865538 1_556
Ba2 O5 2.906908 1_565
Ba2 O5 2.906908 1_655
Ba3 O3 2.658983 1_555
Ba3 O6 2.808728 1_655
Ba3 O9 2.808728 1_565
Ba3 O7 2.890572 1_564
Ba3 O10 2.890572 1_654
Ba3 O0 2.913956 1_565
Ba3 O0 2.913956 1_655
Ba3 O2 2.920353 1_555
Ba3 O1 2.987063 1_555
Ba4 O4 2.638829 1_555
Ba4 O2 2.831261 1_555
Ba4 O8 2.852448 1_555
Ba4 O11 2.852449 1_555
Ba4 O0 2.863882 1_555
Ba4 O7 2.865538 1_554
Ba4 O10 2.865538 1_554
Ba4 O1 2.906908 1_545
Ba4 O1 2.906908 1_455
Ba5 O6 2.779021 1_555
Ba5 O9 2.779021 1_555
Ba5 O8 2.858004 1_545
Ba5 O11 2.858004 1_455
Ba5 O5 2.900135 1_555
Ba5 O0 2.900443 1_555
Ba5 O2 2.918113 1_545
Ba5 O2 2.918113 1_455
Ba5 O1 2.983321 1_445
O0 Sc1 2.122765 1_555
O1 Tc0 1.929712 1_665
O2 Sc0 2.145318 1_554
O3 Sc0 2.122765 1_555
O4 Sc1 2.145318 1_556
O5 Tc0 1.929712 1_556
O6 Sc1 2.045348 1_555
O6 Sc0 2.045348 1_454
O7 Tc0 1.923419 1_656
O7 Sc1 2.201670 1_556
O8 Tc0 1.923419 1_565
O8 Sc0 2.201670 1_554
O9 Sc1 2.045347 1_555
O9 Sc0 2.045347 1_544
O10 Tc0 1.923419 1_566
O10 Sc1 2.201669 1_556
O11 Tc0 1.923419 1_655
O11 Sc0 2.201669 1_554
