# generated using pymatgen
data_Cs2Te3RuO12
_symmetry_space_group_name_H-M   'P 1'
_cell_length_a   7.14311861
_cell_length_b   7.25754227
_cell_length_c   7.14272531
_cell_angle_alpha   89.99947676
_cell_angle_beta   61.05046140
_cell_angle_gamma   120.53246070
_symmetry_Int_Tables_number   1
_chemical_formula_structural   Cs2Te3RuO12
_chemical_formula_sum   'Cs2 Te3 Ru1 O12'
_cell_volume   263.81944037
_cell_formula_units_Z   1
loop_
 _symmetry_equiv_pos_site_id
 _symmetry_equiv_pos_as_xyz
  1  'x, y, z'
loop_
 _atom_site_type_symbol
 _atom_site_label
 _atom_site_symmetry_multiplicity
 _atom_site_fract_x
 _atom_site_fract_y
 _atom_site_fract_z
 _atom_site_occupancy
  Cs  Cs0  1  0.25142630  0.12302384  0.62578043  1
  Cs  Cs1  1  0.74855238  0.87158361  0.37424523  1
  Te  Te0  1  0.50005117  0.49739594  0.00002315  1
  Te  Te1  1  0.49997650  0.99737446  0.99995696  1
  Te  Te2  1  0.99995314  0.49735941  0.50003838  1
  Ru  Ru0  1  0.99994769  0.49724948  0.99998467  1
  O  O0  1  0.63821161  0.81647053  0.93012715  1
  O  O1  1  0.85301453  0.42382827  0.32746047  1
  O  O2  1  0.25395763  0.42379172  0.92648808  1
  O  O3  1  0.24923236  0.81643489  0.31907240  1
  O  O4  1  0.25393224  0.82472045  0.92649271  1
  O  O5  1  0.24928954  0.42756277  0.31912706  1
  O  O6  1  0.36183493  0.17827657  0.06984756  1
  O  O7  1  0.14700610  0.57080970  0.67252124  1
  O  O8  1  0.74606149  0.57079605  0.07351369  1
  O  O9  1  0.75069271  0.17827411  0.68089053  1
  O  O10  1  0.74605128  0.16982029  0.07349696  1
  O  O11  1  0.75080642  0.56722990  0.68093132  1
loop_
_geom_bond_atom_site_label_1
_geom_bond_atom_site_label_2
_geom_bond_distance
_geom_bond_site_symmetry_2
Cs0 O2 3.062031 1_555
Cs0 O1 3.062050 1_555
Cs0 O4 3.062243 1_545
Cs0 O0 3.121260 1_445
Cs0 O3 3.122248 1_545
Cs0 O5 3.122400 1_555
Cs1 O7 3.061834 1_555
Cs1 O10 3.062056 1_565
Cs1 O8 3.062257 1_555
Cs1 O6 3.121607 1_665
Cs1 O11 3.122199 1_555
Cs1 O9 3.122463 1_565
O0 Te0 1.945926 1_556
O0 Te1 1.946279 1_555
O1 Te2 1.894559 1_555
O1 Ru0 1.977844 1_554
O2 Te0 1.895018 1_556
O2 Ru0 1.978049 1_455
O3 Te1 1.945727 1_554
O3 Te2 1.945792 1_455
O4 Te1 1.894612 1_555
O4 Ru0 1.977988 1_455
O5 Te0 1.945674 1_555
O5 Te2 1.946065 1_455
O6 Te1 1.945786 1_544
O6 Te0 1.946135 1_555
O7 Te2 1.894528 1_455
O7 Ru0 1.977602 1_455
O8 Te0 1.894521 1_555
O8 Ru0 1.977664 1_554
O9 Te1 1.945411 1_545
O9 Te2 1.945665 1_555
O10 Te1 1.894876 1_544
O10 Ru0 1.977627 1_554
O11 Te2 1.945441 1_555
O11 Te0 1.945600 1_556
