# generated using pymatgen
data_Y4B4SbIr9
_symmetry_space_group_name_H-M   'P 1'
_cell_length_a   10.82410171
_cell_length_b   10.82410152
_cell_length_c   10.82410251
_cell_angle_alpha   29.65674149
_cell_angle_beta   29.65674461
_cell_angle_gamma   29.65674242
_symmetry_Int_Tables_number   1
_chemical_formula_structural   Y4B4SbIr9
_chemical_formula_sum   'Y4 B4 Sb1 Ir9'
_cell_volume   274.88232558
_cell_formula_units_Z   1
loop_
 _symmetry_equiv_pos_site_id
 _symmetry_equiv_pos_as_xyz
  1  'x, y, z'
loop_
 _atom_site_type_symbol
 _atom_site_label
 _atom_site_symmetry_multiplicity
 _atom_site_fract_x
 _atom_site_fract_y
 _atom_site_fract_z
 _atom_site_occupancy
  Y  Y0  1  0.14891536  0.14891536  0.14891536  1
  Y  Y1  1  0.95054712  0.95054712  0.95054712  1
  Y  Y2  1  0.85108464  0.85108464  0.85108464  1
  Y  Y3  1  0.04945288  0.04945288  0.04945288  1
  B  B0  1  0.61653792  0.61653792  0.61653792  1
  B  B1  1  0.71707368  0.71707368  0.71707368  1
  B  B2  1  0.38346208  0.38346208  0.38346208  1
  B  B3  1  0.28292632  0.28292632  0.28292632  1
  Sb  Sb0  1  0.50000000  0.50000000  0.50000000  1
  Ir  Ir0  1  0.40334133  0.90505168  0.40334133  1
  Ir  Ir1  1  0.90505168  0.40334133  0.40334133  1
  Ir  Ir2  1  0.50000000  0.50000000  0.00000000  1
  Ir  Ir3  1  0.50000000  0.00000000  0.50000000  1
  Ir  Ir4  1  0.00000000  0.50000000  0.50000000  1
  Ir  Ir5  1  0.59665867  0.09494832  0.59665867  1
  Ir  Ir6  1  0.59665867  0.59665867  0.09494832  1
  Ir  Ir7  1  0.09494832  0.59665867  0.59665867  1
  Ir  Ir8  1  0.40334133  0.40334133  0.90505168  1
loop_
_geom_bond_atom_site_label_1
_geom_bond_atom_site_label_2
_geom_bond_distance
_geom_bond_site_symmetry_2
Y0 Y3 3.085527 1_555
Y0 Y2 3.382995 1_454
Y0 Y2 3.382996 1_544
Y0 Y2 3.382996 1_445
Y1 Y3 3.068257 1_666
Y1 Y2 3.085527 1_555
B0 Ir8 2.146684 1_555
B0 Ir0 2.146684 1_555
B0 Ir1 2.146685 1_555
B0 Ir3 2.230747 1_565
B0 Ir4 2.230748 1_655
B0 Ir2 2.230748 1_556
B0 Y1 3.198765 1_545
B0 Y1 3.198766 1_455
B0 Y1 3.198766 1_554
B1 Ir5 2.132771 1_565
B1 Ir7 2.132771 1_655
B1 Ir6 2.132772 1_556
B1 Ir2 2.236774 1_556
B1 Ir3 2.236774 1_565
B1 Ir4 2.236774 1_655
B1 Y3 3.198833 1_656
B1 Y3 3.198834 1_566
B1 Y3 3.198834 1_665
B2 Ir6 2.146684 1_555
B2 Ir5 2.146684 1_555
B2 Ir7 2.146685 1_555
B2 Ir3 2.230747 1_555
B2 Ir4 2.230748 1_555
B2 Ir2 2.230748 1_555
B2 Y3 3.198765 1_565
B2 Y3 3.198766 1_655
B2 Y3 3.198766 1_556
B3 Ir0 2.132771 1_545
B3 Ir1 2.132771 1_455
B3 Ir8 2.132772 1_554
B3 Ir2 2.236774 1_555
B3 Ir3 2.236774 1_555
B3 Ir4 2.236774 1_555
B3 Y1 3.198833 1_454
B3 Y1 3.198834 1_544
B3 Y1 3.198834 1_445
Sb0 Y2 3.245752 1_545
Sb0 Y0 3.245752 1_565
Sb0 Y2 3.245753 1_554
Sb0 Y0 3.245753 1_556
Sb0 Y2 3.245753 1_455
Sb0 Y0 3.245753 1_655
Ir0 Sb0 2.714636 1_555
Ir0 Y1 3.125190 1_554
Ir0 Y1 3.125190 1_455
Ir0 Y0 3.170001 1_565
Ir0 Y2 3.218606 1_455
Ir0 Y2 3.218606 1_554
Ir1 Sb0 2.714636 1_555
Ir1 Y1 3.125189 1_554
Ir1 Y1 3.125190 1_545
Ir1 Y0 3.170001 1_655
Ir1 Y2 3.218605 1_545
Ir1 Y2 3.218606 1_554
Ir2 Y3 3.166590 1_565
Ir2 Y1 3.166590 1_544
Ir2 Y3 3.166590 1_655
Ir2 Y1 3.166590 1_454
Ir3 Y3 3.166590 1_655
Ir3 Y1 3.166590 1_445
Ir3 Y3 3.166591 1_556
Ir3 Y1 3.166591 1_544
Ir4 Y3 3.166590 1_565
Ir4 Y1 3.166590 1_445
Ir4 Y3 3.166591 1_556
Ir4 Y1 3.166591 1_454
Ir5 Sb0 2.714636 1_555
Ir5 Y3 3.125190 1_556
Ir5 Y3 3.125190 1_655
Ir5 Y2 3.170001 1_545
Ir5 Y0 3.218606 1_655
Ir5 Y0 3.218606 1_556
Ir6 Sb0 2.714636 1_555
Ir6 Y3 3.125190 1_655
Ir6 Y3 3.125190 1_565
Ir6 Y2 3.170000 1_554
Ir6 Y0 3.218605 1_565
Ir6 Y0 3.218605 1_655
Ir7 Sb0 2.714636 1_555
Ir7 Y3 3.125189 1_556
Ir7 Y3 3.125190 1_565
Ir7 Y2 3.170001 1_455
Ir7 Y0 3.218605 1_565
Ir7 Y0 3.218606 1_556
Ir8 Sb0 2.714636 1_555
Ir8 Y1 3.125190 1_455
Ir8 Y1 3.125190 1_545
Ir8 Y0 3.170000 1_556
Ir8 Y2 3.218605 1_545
Ir8 Y2 3.218605 1_455
