# generated using pymatgen
data_K2Lu4Cu4Se9
_symmetry_space_group_name_H-M   'P 1'
_cell_length_a   4.04227423
_cell_length_b   7.33361100
_cell_length_c   15.54110279
_cell_angle_alpha   94.10526031
_cell_angle_beta   97.47254310
_cell_angle_gamma   105.99773337
_symmetry_Int_Tables_number   1
_chemical_formula_structural   K2Lu4Cu4Se9
_chemical_formula_sum   'K2 Lu4 Cu4 Se9'
_cell_volume   436.30624023
_cell_formula_units_Z   1
loop_
 _symmetry_equiv_pos_site_id
 _symmetry_equiv_pos_as_xyz
  1  'x, y, z'
loop_
 _atom_site_type_symbol
 _atom_site_label
 _atom_site_symmetry_multiplicity
 _atom_site_fract_x
 _atom_site_fract_y
 _atom_site_fract_z
 _atom_site_occupancy
  K  K0  1  0.26311237  0.29649793  0.22972481  1
  K  K1  1  0.73688763  0.70350107  0.77027519  1
  Lu  Lu0  1  0.40191698  0.74737525  0.05645972  1
  Lu  Lu1  1  0.62827879  0.86050083  0.39605774  1
  Lu  Lu2  1  0.37172121  0.13949817  0.60394326  1
  Lu  Lu3  1  0.59808302  0.25262475  0.94354128  1
  Cu  Cu0  1  0.98802026  0.74579976  0.23024275  1
  Cu  Cu1  1  0.89692445  0.32427527  0.46957264  1
  Cu  Cu2  1  0.10307655  0.67572573  0.53042736  1
  Cu  Cu3  1  0.01197874  0.25419924  0.76975725  1
  Se  Se0  1  0.00000000  0.00000000  0.00000000  1
  Se  Se1  1  0.80315463  0.50455257  0.10175570  1
  Se  Se2  1  0.57762698  0.93238327  0.22287069  1
  Se  Se3  1  0.97906123  0.58775480  0.37036866  1
  Se  Se4  1  0.28500573  0.14609918  0.42391128  1
  Se  Se5  1  0.71499527  0.85390182  0.57608872  1
  Se  Se6  1  0.02093977  0.41224520  0.62963134  1
  Se  Se7  1  0.42237402  0.06761773  0.77712931  1
  Se  Se8  1  0.19684537  0.49544643  0.89824530  1
loop_
_geom_bond_atom_site_label_1
_geom_bond_atom_site_label_2
_geom_bond_distance
_geom_bond_site_symmetry_2
K0 Se2 3.259418 1_545
K0 Se2 3.259422 1_445
K0 Se1 3.282765 1_555
K0 Se1 3.282768 1_455
K0 Se4 3.285245 1_555
K0 Se3 3.463293 1_555
K0 Se3 3.463300 1_455
K1 Se7 3.259429 1_565
K1 Se7 3.259433 1_665
K1 Se8 3.282776 1_555
K1 Se8 3.282777 1_655
K1 Se5 3.285251 1_555
K1 Se6 3.463288 1_555
K1 Se6 3.463298 1_655
Lu0 Se2 2.742708 1_555
Lu0 Se1 2.787787 1_455
Lu0 Se1 2.787793 1_555
Lu0 Se8 2.849853 1_554
Lu0 Se0 2.891846 1_565
Lu0 Se0 2.891849 1_665
Lu1 Se2 2.771893 1_555
Lu1 Se5 2.779746 1_555
Lu1 Se3 2.786948 1_455
Lu1 Se3 2.786948 1_555
Lu1 Se4 2.850962 1_565
Lu1 Se4 2.850967 1_665
Lu2 Se7 2.771874 1_555
Lu2 Se4 2.779764 1_555
Lu2 Se6 2.786949 1_555
Lu2 Se6 2.786954 1_655
Lu2 Se5 2.850955 1_545
Lu2 Se5 2.850957 1_445
Lu3 Se7 2.742719 1_555
Lu3 Se8 2.787783 1_655
Lu3 Se8 2.787787 1_555
Lu3 Se1 2.849850 1_556
Lu3 Se0 2.891842 1_556
Lu3 Se0 2.891842 1_656
Cu0 Se2 2.421092 1_555
Cu0 Se2 2.421098 1_655
Cu0 Se1 2.460324 1_555
Cu0 Se3 2.538873 1_555
Cu1 Se4 2.441010 1_555
Cu1 Se4 2.441010 1_655
Cu1 Se6 2.474416 1_655
Cu1 Se3 2.535127 1_555
Cu2 Se5 2.441010 1_555
Cu2 Se5 2.441010 1_455
Cu2 Se3 2.474417 1_455
Cu2 Se6 2.535132 1_555
Cu3 Se7 2.421087 1_455
Cu3 Se7 2.421087 1_555
Cu3 Se8 2.460335 1_555
Cu3 Se6 2.538877 1_555
