# generated using pymatgen
data_Ce2CdSe4
_symmetry_space_group_name_H-M   'P 1'
_cell_length_a   7.78610502
_cell_length_b   7.78610502
_cell_length_c   7.78610502
_cell_angle_alpha   110.90343828
_cell_angle_beta   110.90343828
_cell_angle_gamma   106.64326198
_symmetry_Int_Tables_number   1
_chemical_formula_structural   Ce2CdSe4
_chemical_formula_sum   'Ce4 Cd2 Se8'
_cell_volume   362.70172484
_cell_formula_units_Z   2
loop_
 _symmetry_equiv_pos_site_id
 _symmetry_equiv_pos_as_xyz
  1  'x, y, z'
loop_
 _atom_site_type_symbol
 _atom_site_label
 _atom_site_symmetry_multiplicity
 _atom_site_fract_x
 _atom_site_fract_y
 _atom_site_fract_z
 _atom_site_occupancy
  Ce  Ce0  1  0.73800800  0.12500000  0.11300800  1
  Ce  Ce1  1  0.37500000  0.26199200  0.38699200  1
  Ce  Ce2  1  0.01199200  0.62500000  0.88699200  1
  Ce  Ce3  1  0.87500000  0.98800800  0.61300800  1
  Cd  Cd0  1  0.50000000  0.50000000  0.00000000  1
  Cd  Cd1  1  0.25000000  0.75000000  0.50000000  1
  Se  Se0  1  0.25822300  0.99586400  0.87795900  1
  Se  Se1  1  0.74586400  0.50822300  0.37795900  1
  Se  Se2  1  0.49177700  0.86973600  0.23764100  1
  Se  Se3  1  0.61973600  0.74177700  0.73764100  1
  Se  Se4  1  0.13026400  0.36790400  0.62204100  1
  Se  Se5  1  0.63209600  0.25413600  0.76235900  1
  Se  Se6  1  0.00413600  0.88209600  0.26235900  1
  Se  Se7  1  0.11790400  0.38026400  0.12204100  1
loop_
_geom_bond_atom_site_label_1
_geom_bond_atom_site_label_2
_geom_bond_distance
_geom_bond_site_symmetry_2
Ce0 Se1 2.928408 1_555
Ce0 Se3 2.928408 1_544
Ce0 Se7 3.014734 1_655
Ce0 Se2 3.014740 1_545
Ce0 Se5 3.157876 1_554
Ce0 Se0 3.157876 1_544
Ce0 Se6 3.364160 1_645
Ce0 Se4 3.364168 1_655
Ce1 Se5 2.928410 1_555
Ce1 Se7 2.928412 1_555
Ce1 Se6 3.014735 1_545
Ce1 Se1 3.014740 1_555
Ce1 Se4 3.157874 1_555
Ce1 Se3 3.157876 1_555
Ce1 Se0 3.364167 1_544
Ce1 Se2 3.364167 1_545
Ce2 Se6 2.928410 1_556
Ce2 Se4 2.928412 1_555
Ce2 Se5 3.014735 1_455
Ce2 Se0 3.014740 1_555
Ce2 Se7 3.157874 1_556
Ce2 Se2 3.157876 1_556
Ce2 Se3 3.364167 1_455
Ce2 Se1 3.364167 1_455
Ce3 Se2 2.928408 1_555
Ce3 Se0 2.928408 1_655
Ce3 Se4 3.014734 1_665
Ce3 Se3 3.014740 1_555
Ce3 Se6 3.157876 1_655
Ce3 Se1 3.157876 1_555
Ce3 Se5 3.364160 1_565
Ce3 Se7 3.364168 1_666
Cd0 Se4 2.846802 1_554
Cd0 Se2 2.846805 1_555
Cd0 Se1 2.846805 1_555
Cd0 Se5 2.846811 1_554
Cd1 Se7 2.846802 1_555
Cd1 Se3 2.846805 1_555
Cd1 Se0 2.846805 1_555
Cd1 Se6 2.846811 1_555
