# generated using pymatgen
data_Na2SiF6
_symmetry_space_group_name_H-M   'P 1'
_cell_length_a   8.80252010
_cell_length_b   8.80275868
_cell_length_c   4.96761863
_cell_angle_alpha   89.99881117
_cell_angle_beta   89.99986535
_cell_angle_gamma   120.00407965
_symmetry_Int_Tables_number   1
_chemical_formula_structural   Na2SiF6
_chemical_formula_sum   'Na6 Si3 F18'
_cell_volume   333.33955041
_cell_formula_units_Z   3
loop_
 _symmetry_equiv_pos_site_id
 _symmetry_equiv_pos_as_xyz
  1  'x, y, z'
loop_
 _atom_site_type_symbol
 _atom_site_label
 _atom_site_symmetry_multiplicity
 _atom_site_fract_x
 _atom_site_fract_y
 _atom_site_fract_z
 _atom_site_occupancy
  Na  Na0  1  -0.00002071  0.28954207  0.49984447  1
  Na  Na1  1  0.28958324  0.00006182  0.49990974  1
  Na  Na2  1  0.71046563  0.71041057  0.49993711  1
  Na  Na3  1  -0.00008409  0.62514533  0.99962629  1
  Na  Na4  1  0.62524653  0.00010323  0.99961921  1
  Na  Na5  1  0.37483756  0.37474381  0.99960682  1
  Si  Si0  1  0.66667914  0.33333595  0.49438088  1
  Si  Si1  1  0.33333005  0.66666858  0.50563687  1
  Si  Si2  1  -0.00000890  -0.00000106  0.00013015  1
  F  F0  1  0.74102008  0.22593554  0.69129327  1
  F  F1  1  0.77408607  0.51508301  0.69131184  1
  F  F2  1  0.48492696  0.25899076  0.69130765  1
  F  F3  1  0.51508727  0.77423827  0.30881426  1
  F  F4  1  0.25914765  0.48493305  0.30878310  1
  F  F5  1  0.22576925  0.74085209  0.30879154  1
  F  F6  1  0.59545833  0.44314725  0.29735818  1
  F  F7  1  0.55684974  0.15229978  0.29737659  1
  F  F8  1  0.84770898  0.40455437  0.29736608  1
  F  F9  1  0.08515082  0.90274156  0.80496997  1
  F  F10  1  0.09724773  0.18241810  0.80499158  1
  F  F11  1  0.81756445  0.91483993  0.80502137  1
  F  F12  1  0.18242231  0.09774717  0.19525371  1
  F  F13  1  0.91531053  0.81758599  0.19529235  1
  F  F14  1  0.90226117  0.08466356  0.19527471  1
  F  F15  1  0.44331236  0.59564254  0.70269567  1
  F  F16  1  0.40433716  0.84766514  0.70272365  1
  F  F17  1  0.15231166  0.55665256  0.70268095  1
loop_
_geom_bond_atom_site_label_1
_geom_bond_atom_site_label_2
_geom_bond_distance
_geom_bond_site_symmetry_2
F0 Si0 1.702234 1_555
F0 Na0 2.266621 1_655
F0 Na4 2.304373 1_555
F1 Si0 1.702288 1_555
F1 Na2 2.266447 1_555
F1 Na3 2.304334 1_655
F2 Si0 1.702263 1_555
F2 Na1 2.266327 1_555
F2 Na5 2.304446 1_555
F3 Si1 1.702101 1_555
F3 Na2 2.267440 1_555
F3 Na4 2.307426 1_564
F4 Si1 1.702132 1_555
F4 Na0 2.266988 1_555
F4 Na5 2.307543 1_554
F5 Si1 1.702178 1_555
F5 Na1 2.267498 1_565
F5 Na3 2.307271 1_554
F6 Si0 1.700411 1_555
F6 Na5 2.269875 1_554
F6 Na2 2.278298 1_555
F7 Si0 1.700359 1_555
F7 Na4 2.269818 1_554
F7 Na1 2.278100 1_555
F8 Si0 1.700297 1_555
F8 Na3 2.269629 1_654
F8 Na0 2.278252 1_655
F9 Si2 1.696076 1_566
F9 Na1 2.174123 1_565
F9 Na3 2.373918 1_555
F10 Si2 1.695938 1_556
F10 Na0 2.174297 1_555
F10 Na5 2.373664 1_555
F11 Si2 1.695908 1_666
F11 Na2 2.174256 1_555
F11 Na4 2.373698 1_565
F12 Si2 1.696113 1_555
F12 Na1 2.175047 1_555
F12 Na5 2.372403 1_554
F13 Si2 1.696111 1_665
F13 Na2 2.174912 1_555
F13 Na3 2.372951 1_654
F14 Si2 1.696025 1_655
F14 Na0 2.174910 1_655
F14 Na4 2.372639 1_554
F15 Si1 1.700525 1_555
F15 Na5 2.268829 1_555
F15 Na2 2.277972 1_555
F16 Si1 1.700533 1_555
F16 Na4 2.268828 1_565
F16 Na1 2.278217 1_565
F17 Si1 1.700476 1_555
F17 Na3 2.268906 1_555
F17 Na0 2.277894 1_555
