# generated using pymatgen
data_Ba7Sr3(Bi2As)2
_symmetry_space_group_name_H-M   'P 1'
_cell_length_a   9.14565187
_cell_length_b   10.43149879
_cell_length_c   13.81549080
_cell_angle_alpha   89.89707720
_cell_angle_beta   90.05516532
_cell_angle_gamma   89.94872415
_symmetry_Int_Tables_number   1
_chemical_formula_structural   Ba7Sr3(Bi2As)2
_chemical_formula_sum   'Ba14 Sr6 Bi8 As4'
_cell_volume   1318.03401742
_cell_formula_units_Z   2
loop_
 _symmetry_equiv_pos_site_id
 _symmetry_equiv_pos_as_xyz
  1  'x, y, z'
loop_
 _atom_site_type_symbol
 _atom_site_label
 _atom_site_symmetry_multiplicity
 _atom_site_fract_x
 _atom_site_fract_y
 _atom_site_fract_z
 _atom_site_occupancy
  Ba  Ba0  1  0.85580069  0.74972484  0.79983287  1
  Ba  Ba1  1  0.14419931  0.25027516  0.20016713  1
  Ba  Ba2  1  0.35668789  0.25402340  0.69892227  1
  Ba  Ba3  1  0.64331211  0.74597660  0.30107773  1
  Ba  Ba4  1  0.18590622  0.46471229  0.92607970  1
  Ba  Ba5  1  0.31162046  0.03297431  0.42837507  1
  Ba  Ba6  1  0.81409378  0.53528771  0.07392030  1
  Ba  Ba7  1  0.68837954  0.96702569  0.57162493  1
  Ba  Ba8  1  0.81351323  0.96483803  0.07494107  1
  Ba  Ba9  1  0.18648677  0.03516197  0.92505893  1
  Ba  Ba10  1  0.32971130  0.74747690  0.71332266  1
  Ba  Ba11  1  0.67028870  0.25252310  0.28667734  1
  Ba  Ba12  1  0.82481129  0.25088768  0.78287073  1
  Ba  Ba13  1  0.17518871  0.74911232  0.21712927  1
  Sr  Sr0  1  0.04213332  0.74418652  0.50187545  1
  Sr  Sr1  1  0.95786668  0.25581348  0.49812455  1
  Sr  Sr2  1  0.54411636  0.24945366  0.99862230  1
  Sr  Sr3  1  0.45588364  0.75054634  0.00137770  1
  Sr  Sr4  1  0.68439184  0.53500841  0.57317462  1
  Sr  Sr5  1  0.31560816  0.46499159  0.42682538  1
  Bi  Bi0  1  0.56353726  0.51003705  0.83048645  1
  Bi  Bi1  1  0.43646274  0.48996295  0.16951355  1
  Bi  Bi2  1  0.05888703  0.49057625  0.66619098  1
  Bi  Bi3  1  0.43684650  0.00909804  0.16866882  1
  Bi  Bi4  1  0.94111297  0.50942375  0.33380902  1
  Bi  Bi5  1  0.56315350  0.99090196  0.83133118  1
  Bi  Bi6  1  0.93525603  0.99076139  0.33482299  1
  Bi  Bi7  1  0.06474397  0.00923861  0.66517701  1
  As  As0  1  0.08255688  0.74981543  0.98727145  1
  As  As1  1  0.91744312  0.25018457  0.01272855  1
  As  As2  1  0.58211023  0.26059397  0.51597939  1
  As  As3  1  0.41788977  0.73940603  0.48402061  1
loop_
_geom_bond_atom_site_label_1
_geom_bond_atom_site_label_2
_geom_bond_distance
_geom_bond_site_symmetry_2
Ba0 Bi0 3.685893 1_555
Ba0 Bi5 3.698151 1_555
Ba0 Bi2 3.765916 1_655
Ba0 Bi7 3.799865 1_665
Ba1 Bi1 3.685893 1_555
Ba1 Bi3 3.698151 1_555
Ba1 Bi4 3.765916 1_455
Ba1 Bi6 3.799865 1_445
Ba2 Bi2 3.700410 1_555
Ba2 Bi7 3.725674 1_555
Ba2 Bi0 3.746272 1_555
Ba2 Bi5 3.796254 1_545
Ba3 Bi4 3.700410 1_555
Ba3 Bi6 3.725674 1_555
Ba3 Bi1 3.746272 1_555
Ba3 Bi3 3.796254 1_565
Ba4 Bi0 3.728953 1_555
Ba4 Bi2 3.781775 1_555
Ba4 Bi1 4.076840 1_556
Ba5 Bi6 3.702513 1_445
Ba5 Bi3 3.775953 1_555
Ba5 Bi7 3.984273 1_555
Ba6 Bi1 3.728953 1_555
Ba6 Bi4 3.781775 1_555
Ba6 Bi0 4.076840 1_554
Ba7 Bi7 3.702513 1_665
Ba7 Bi5 3.775953 1_555
Ba7 Bi6 3.984273 1_555
Ba8 Bi3 3.710106 1_565
Ba8 Bi6 3.768302 1_555
Ba8 Bi5 4.077330 1_554
Ba9 Bi5 3.710106 1_545
Ba9 Bi7 3.768302 1_555
Ba9 Bi3 4.077330 1_556
Ba10 Bi0 3.646575 1_555
Ba10 Bi5 3.698923 1_555
Ba10 Bi7 3.708009 1_565
Ba10 Bi2 3.708846 1_555
Ba11 Bi1 3.646575 1_555
Ba11 Bi3 3.698923 1_555
Ba11 Bi6 3.708009 1_545
Ba11 Bi4 3.708846 1_555
Ba12 Bi2 3.665341 1_655
Ba12 Bi0 3.667197 1_555
Ba12 Bi5 3.679426 1_545
Ba12 Bi7 3.718189 1_655
Ba13 Bi4 3.665341 1_455
Ba13 Bi1 3.667197 1_555
Ba13 Bi3 3.679426 1_565
Ba13 Bi6 3.718189 1_455
Bi0 Sr2 3.577053 1_555
Bi0 Sr3 3.585974 1_556
Bi0 Sr4 3.732495 1_555
Bi1 Sr3 3.577053 1_555
Bi1 Sr2 3.585974 1_554
Bi1 Sr5 3.732495 1_555
Bi2 Sr0 3.486074 1_555
Bi2 Sr1 3.501784 1_455
Bi2 Sr4 3.685568 1_455
Bi2 Sr5 4.066536 1_555
Bi3 Sr3 3.559295 1_545
Bi3 Sr2 3.571504 1_554
Bi4 Sr1 3.486074 1_555
Bi4 Sr0 3.501784 1_655
Bi4 Sr5 3.685568 1_655
Bi4 Sr4 4.066536 1_555
Bi5 Sr2 3.559295 1_565
Bi5 Sr3 3.571504 1_556
Bi6 Sr1 3.577690 1_565
Bi6 Sr0 3.587151 1_655
Bi7 Sr0 3.577690 1_545
Bi7 Sr1 3.587151 1_455
As0 Ba4 3.233979 1_555
As0 Ba9 3.240331 1_565
As0 Ba13 3.285866 1_556
As0 Ba0 3.316060 1_455
As0 Sr3 3.419703 1_556
As0 Ba6 3.532027 1_456
As0 Ba8 3.543749 1_456
As1 Ba6 3.233979 1_555
As1 Ba8 3.240331 1_545
As1 Ba12 3.285866 1_554
As1 Ba1 3.316060 1_655
As1 Sr2 3.419703 1_554
As1 Ba4 3.532027 1_654
As1 Ba9 3.543749 1_654
As2 Sr4 3.115306 1_555
As2 Ba2 3.263844 1_555
As2 Ba11 3.270921 1_555
As2 Ba7 3.301274 1_545
As2 Sr1 3.445939 1_555
As2 Sr5 3.461120 1_555
As2 Ba5 3.638330 1_555
As3 Sr5 3.115306 1_555
As3 Ba3 3.263844 1_555
As3 Ba10 3.270921 1_555
As3 Ba5 3.301274 1_565
As3 Sr0 3.445939 1_555
As3 Sr4 3.461120 1_555
As3 Ba7 3.638330 1_555
