# generated using pymatgen
data_Ba10CrReN10
_symmetry_space_group_name_H-M   'P 1'
_cell_length_a   8.02370589
_cell_length_b   8.02370612
_cell_length_c   9.58918089
_cell_angle_alpha   76.15194209
_cell_angle_beta   76.15194596
_cell_angle_gamma   96.48081517
_symmetry_Int_Tables_number   1
_chemical_formula_structural   Ba10CrReN10
_chemical_formula_sum   'Ba10 Cr1 Re1 N10'
_cell_volume   572.42481114
_cell_formula_units_Z   1
loop_
 _symmetry_equiv_pos_site_id
 _symmetry_equiv_pos_as_xyz
  1  'x, y, z'
loop_
 _atom_site_type_symbol
 _atom_site_label
 _atom_site_symmetry_multiplicity
 _atom_site_fract_x
 _atom_site_fract_y
 _atom_site_fract_z
 _atom_site_occupancy
  Ba  Ba0  1  0.38359805  0.38746256  0.38852517  1
  Ba  Ba1  1  0.61253744  0.61640195  0.61147483  1
  Ba  Ba2  1  0.66205739  0.66750881  0.00933425  1
  Ba  Ba3  1  0.33249119  0.33794261  0.99066575  1
  Ba  Ba4  1  0.92901434  0.91593927  0.20601249  1
  Ba  Ba5  1  0.08406073  0.07098566  0.79398751  1
  Ba  Ba6  1  0.55663033  0.09024394  0.75076124  1
  Ba  Ba7  1  0.90975606  0.44336967  0.24923876  1
  Ba  Ba8  1  0.42661694  0.89533734  0.24878832  1
  Ba  Ba9  1  0.10466266  0.57338306  0.75121168  1
  Cr  Cr0  1  0.24316387  0.75683613  1.00000000  1
  Re  Re0  1  0.75661507  0.24338493  0.00000000  1
  N  N0  1  0.65210792  0.65138138  0.30701439  1
  N  N1  1  0.34861862  0.34789208  0.69298561  1
  N  N2  1  0.71544090  0.01872499  0.98815304  1
  N  N3  1  0.98127501  0.28455910  0.01184696  1
  N  N4  1  0.28449862  0.97371280  0.00724400  1
  N  N5  1  0.02628720  0.71550138  0.99275600  1
  N  N6  1  0.38553453  0.72955202  0.84146326  1
  N  N7  1  0.27044798  0.61446547  0.15853574  1
  N  N8  1  0.60380704  0.26922389  0.16488431  1
  N  N9  1  0.73077611  0.39619296  0.83511469  1
loop_
_geom_bond_atom_site_label_1
_geom_bond_atom_site_label_2
_geom_bond_distance
_geom_bond_site_symmetry_2
Ba0 N0 2.666178 1_555
Ba0 N1 2.801271 1_555
Ba0 N8 2.856477 1_555
Ba0 N7 2.900770 1_555
Ba1 N1 2.666178 1_555
Ba1 N0 2.801271 1_555
Ba1 N9 2.856470 1_555
Ba1 N6 2.900764 1_555
Ba2 N2 2.752823 1_564
Ba2 N0 2.807686 1_555
Ba2 N5 2.865076 1_654
Ba2 N6 3.055706 1_554
Ba2 N7 3.058739 1_555
Ba2 N9 3.066777 1_554
Ba2 N8 3.115002 1_555
Ba3 N3 2.752823 1_456
Ba3 N1 2.807686 1_555
Ba3 N4 2.865076 1_546
Ba3 N7 3.055700 1_556
Ba3 N6 3.058741 1_555
Ba3 N8 3.066770 1_556
Ba3 N9 3.115004 1_555
Ba4 N0 2.702144 1_555
Ba4 N5 2.910525 1_654
Ba4 N4 2.942713 1_655
Ba4 N3 3.016719 1_565
Ba4 N2 3.031349 1_564
Ba5 N1 2.702144 1_555
Ba5 N4 2.910524 1_546
Ba5 N5 2.942713 1_545
Ba5 N2 3.016720 1_455
Ba5 N3 3.031349 1_456
Ba6 N4 2.749268 1_546
Ba6 N1 2.835410 1_555
Ba6 N2 2.839590 1_555
Ba6 N6 2.888502 1_545
Ba6 N9 3.057816 1_555
Ba7 N5 2.749268 1_654
Ba7 N0 2.835410 1_555
Ba7 N3 2.839590 1_555
Ba7 N7 2.888502 1_655
Ba7 N8 3.057821 1_555
Ba8 N4 2.790983 1_555
Ba8 N2 2.849932 1_564
Ba8 N0 2.859479 1_555
Ba8 N7 2.865887 1_555
Ba8 N8 3.000428 1_565
Ba9 N5 2.790983 1_555
Ba9 N3 2.849932 1_456
Ba9 N1 2.859479 1_555
Ba9 N6 2.865881 1_555
Ba9 N9 3.000429 1_455
Cr0 N7 1.745971 1_556
Cr0 N6 1.745978 1_555
Cr0 N5 1.755440 1_555
Cr0 N4 1.755440 1_556
N2 Re0 1.831118 1_556
N3 Re0 1.831118 1_555
N8 Re0 1.825508 1_555
N9 Re0 1.825515 1_556
