# generated using pymatgen
data_Ta10ZnSi4Ge
_symmetry_space_group_name_H-M   'P 1'
_cell_length_a   7.54773580
_cell_length_b   7.54773483
_cell_length_c   7.54773491
_cell_angle_alpha   128.40430865
_cell_angle_beta   128.40429376
_cell_angle_gamma   75.97098594
_symmetry_Int_Tables_number   1
_chemical_formula_structural   Ta10ZnSi4Ge
_chemical_formula_sum   'Ta10 Zn1 Si4 Ge1'
_cell_volume   256.74404658
_cell_formula_units_Z   1
loop_
 _symmetry_equiv_pos_site_id
 _symmetry_equiv_pos_as_xyz
  1  'x, y, z'
loop_
 _atom_site_type_symbol
 _atom_site_label
 _atom_site_symmetry_multiplicity
 _atom_site_fract_x
 _atom_site_fract_y
 _atom_site_fract_z
 _atom_site_occupancy
  Ta  Ta0  1  0.01541412  0.18738811  0.50078742  1
  Ta  Ta1  1  0.68660070  0.51462671  0.49921258  1
  Ta  Ta2  1  0.51462671  0.01541412  0.82802601  1
  Ta  Ta3  1  0.18738811  0.68660070  0.17197399  1
  Ta  Ta4  1  0.98537329  0.81339930  0.50078742  1
  Ta  Ta5  1  0.31261189  0.48458588  0.49921258  1
  Ta  Ta6  1  0.48458588  0.98537329  0.17197399  1
  Ta  Ta7  1  0.81339930  0.31261189  0.82802601  1
  Ta  Ta8  1  0.99891867  0.99891867  1.00000000  1
  Ta  Ta9  1  0.50108133  0.50108133  0.00000000  1
  Zn  Zn0  1  0.75000000  0.75000000  0.00000000  1
  Si  Si0  1  0.37002673  0.12997327  0.50000000  1
  Si  Si1  1  0.62997327  0.87002673  0.50000000  1
  Si  Si2  1  0.87002673  0.37002673  0.24005347  1
  Si  Si3  1  0.12997327  0.62997327  0.75994653  1
  Ge  Ge0  1  0.25000000  0.25000000  0.00000000  1
loop_
_geom_bond_atom_site_label_1
_geom_bond_atom_site_label_2
_geom_bond_distance
_geom_bond_site_symmetry_2
Ta0 Zn0 2.737561 1_445
Ta1 Zn0 2.737561 1_556
Ta2 Zn0 2.737562 1_546
Ta3 Zn0 2.737562 1_455
Ta4 Zn0 2.737562 1_555
Ta5 Zn0 2.737562 1_556
Ta6 Zn0 2.737562 1_555
Ta7 Zn0 2.737561 1_556
Ta8 Zn0 2.961571 1_556
Ta9 Zn0 2.961571 1_555
Si0 Si1 2.415082 1_545
Si0 Ta9 2.576526 1_556
Si0 Ta8 2.576526 1_444
Si0 Ta5 2.608797 1_555
Si0 Ta0 2.608798 1_555
Si0 Ta6 2.629384 1_545
Si0 Ta2 2.629384 1_555
Si0 Ta3 2.632741 1_545
Si0 Ta7 2.632742 1_555
Si1 Ta9 2.576526 1_555
Si1 Ta8 2.576526 1_555
Si1 Ta1 2.608797 1_555
Si1 Ta4 2.608798 1_555
Si1 Ta7 2.629384 1_565
Si1 Ta3 2.629385 1_555
Si1 Ta2 2.632742 1_565
Si1 Ta6 2.632742 1_555
Si2 Si3 2.415082 1_655
Si2 Ta8 2.576526 1_544
Si2 Ta9 2.576526 1_555
Si2 Ta7 2.608797 1_554
Si2 Ta2 2.608798 1_554
Si2 Ta1 2.629384 1_555
Si2 Ta5 2.629385 1_655
Si2 Ta4 2.632741 1_555
Si2 Ta0 2.632742 1_655
Si3 Ta8 2.576526 1_455
Si3 Ta9 2.576526 1_556
Si3 Ta3 2.608797 1_556
Si3 Ta6 2.608798 1_556
Si3 Ta0 2.629384 1_555
Si3 Ta4 2.629384 1_455
Si3 Ta5 2.632742 1_555
Si3 Ta1 2.632742 1_455
Ge0 Ta5 2.731347 1_555
Ge0 Ta3 2.731348 1_555
Ge0 Ta4 2.731348 1_444
Ge0 Ta2 2.731348 1_554
Ge0 Ta0 2.731348 1_554
Ge0 Ta6 2.731348 1_545
Ge0 Ta1 2.731348 1_555
Ge0 Ta7 2.731348 1_454
Ge0 Ta9 2.987302 1_555
Ge0 Ta8 2.987302 1_444
