# generated using pymatgen
data_ThGa
_symmetry_space_group_name_H-M   'P 1'
_cell_length_a   4.13308883
_cell_length_b   6.07374853
_cell_length_c   16.44232251
_cell_angle_alpha   90.00000000
_cell_angle_beta   90.00000000
_cell_angle_gamma   90.00000000
_symmetry_Int_Tables_number   1
_chemical_formula_structural   ThGa
_chemical_formula_sum   'Th8 Ga8'
_cell_volume   412.75724862
_cell_formula_units_Z   8
loop_
 _symmetry_equiv_pos_site_id
 _symmetry_equiv_pos_as_xyz
  1  'x, y, z'
loop_
 _atom_site_type_symbol
 _atom_site_label
 _atom_site_symmetry_multiplicity
 _atom_site_fract_x
 _atom_site_fract_y
 _atom_site_fract_z
 _atom_site_occupancy
  Th  Th0  1  0.25000000  0.48709307  0.28624295  1
  Th  Th1  1  0.75000000  0.51290693  0.71375705  1
  Th  Th2  1  0.75000000  0.98709307  0.21375705  1
  Th  Th3  1  0.25000000  0.01290693  0.78624295  1
  Th  Th4  1  0.25000000  0.75004986  0.03613832  1
  Th  Th5  1  0.75000000  0.24995014  0.96386168  1
  Th  Th6  1  0.75000000  0.25004986  0.46386168  1
  Th  Th7  1  0.25000000  0.74995014  0.53613832  1
  Ga  Ga0  1  0.25000000  0.99427560  0.35707581  1
  Ga  Ga1  1  0.75000000  0.00572440  0.64292419  1
  Ga  Ga2  1  0.75000000  0.49427560  0.14292419  1
  Ga  Ga3  1  0.25000000  0.50572440  0.85707581  1
  Ga  Ga4  1  0.25000000  0.24605959  0.10689953  1
  Ga  Ga5  1  0.75000000  0.75394041  0.89310047  1
  Ga  Ga6  1  0.75000000  0.74605959  0.39310047  1
  Ga  Ga7  1  0.25000000  0.25394041  0.60689953  1
loop_
_geom_bond_atom_site_label_1
_geom_bond_atom_site_label_2
_geom_bond_distance
_geom_bond_site_symmetry_2
Ga0 Ga6 2.625704 1_455
Ga0 Ga6 2.625704 1_555
Ga0 Th6 3.125197 1_565
Ga0 Th6 3.125197 1_465
Ga0 Th2 3.134576 1_555
Ga0 Th2 3.134576 1_455
Ga0 Th0 3.211848 1_565
Ga0 Th0 3.293311 1_555
Ga0 Th7 3.297045 1_555
Ga1 Ga7 2.625704 1_655
Ga1 Ga7 2.625704 1_555
Ga1 Th7 3.125197 1_645
Ga1 Th7 3.125197 1_545
Ga1 Th3 3.134576 1_655
Ga1 Th3 3.134576 1_555
Ga1 Th1 3.211848 1_545
Ga1 Th1 3.293311 1_555
Ga1 Th6 3.297045 1_555
Ga2 Ga4 2.625704 1_555
Ga2 Ga4 2.625704 1_655
Ga2 Th4 3.125197 1_555
Ga2 Th4 3.125197 1_655
Ga2 Th0 3.134576 1_555
Ga2 Th0 3.134576 1_655
Ga2 Th2 3.211848 1_555
Ga2 Th2 3.293311 1_545
Ga2 Th5 3.297045 1_554
Ga3 Ga5 2.625704 1_555
Ga3 Ga5 2.625704 1_455
Ga3 Th5 3.125197 1_455
Ga3 Th5 3.125197 1_555
Ga3 Th1 3.134576 1_555
Ga3 Th1 3.134576 1_455
Ga3 Th3 3.211848 1_555
Ga3 Th3 3.293311 1_565
Ga3 Th4 3.297045 1_556
Ga4 Th5 3.130891 1_554
Ga4 Th5 3.130891 1_454
Ga4 Th2 3.135540 1_545
Ga4 Th2 3.135540 1_445
Ga4 Th4 3.229500 1_545
Ga4 Th4 3.274764 1_555
Ga4 Th0 3.292230 1_555
Ga5 Th4 3.130891 1_556
Ga5 Th4 3.130891 1_656
Ga5 Th3 3.135540 1_565
Ga5 Th3 3.135540 1_665
Ga5 Th5 3.229500 1_565
Ga5 Th5 3.274764 1_555
Ga5 Th1 3.292230 1_555
Ga6 Th7 3.130891 1_655
Ga6 Th7 3.130891 1_555
Ga6 Th0 3.135540 1_555
Ga6 Th0 3.135540 1_655
Ga6 Th6 3.229500 1_555
Ga6 Th6 3.274764 1_565
Ga6 Th2 3.292230 1_555
Ga7 Th6 3.130891 1_455
Ga7 Th6 3.130891 1_555
Ga7 Th1 3.135540 1_555
Ga7 Th1 3.135540 1_455
Ga7 Th7 3.229500 1_555
Ga7 Th7 3.274764 1_545
Ga7 Th3 3.292230 1_555
