# generated using pymatgen
data_Ti2Al2PdRu3
_symmetry_space_group_name_H-M   'P 1'
_cell_length_a   4.29729502
_cell_length_b   6.11237080
_cell_length_c   12.86281016
_cell_angle_alpha   90.06703865
_cell_angle_beta   89.99997368
_cell_angle_gamma   89.99959930
_symmetry_Int_Tables_number   1
_chemical_formula_structural   Ti2Al2PdRu3
_chemical_formula_sum   'Ti6 Al6 Pd3 Ru9'
_cell_volume   337.86283712
_cell_formula_units_Z   3
loop_
 _symmetry_equiv_pos_site_id
 _symmetry_equiv_pos_as_xyz
  1  'x, y, z'
loop_
 _atom_site_type_symbol
 _atom_site_label
 _atom_site_symmetry_multiplicity
 _atom_site_fract_x
 _atom_site_fract_y
 _atom_site_fract_z
 _atom_site_occupancy
  Ti  Ti0  1  0.00002082  0.99948856  0.00989606  1
  Ti  Ti1  1  0.50005539  0.50004556  0.16832089  1
  Ti  Ti2  1  0.00005123  0.99972569  0.33235144  1
  Ti  Ti3  1  0.50000185  0.49593071  0.49312248  1
  Ti  Ti4  1  0.99993814  0.01106216  0.65641237  1
  Ti  Ti5  1  0.49992417  0.49507013  0.84029857  1
  Al  Al0  1  0.00000397  0.49958488  0.00648208  1
  Al  Al1  1  0.50008031  0.99985744  0.16855890  1
  Al  Al2  1  0.00006455  0.49968899  0.33209402  1
  Al  Al3  1  0.49999080  0.00345643  0.49523595  1
  Al  Al4  1  0.99995901  0.49540047  0.66178574  1
  Al  Al5  1  0.49991365  0.00225760  0.83592649  1
  Pd  Pd0  1  0.49995912  0.74915787  0.66906330  1
  Pd  Pd1  1  0.99992109  0.24972744  0.83323224  1
  Pd  Pd2  1  0.99995150  0.74953475  0.83103130  1
  Ru  Ru0  1  0.50000418  0.25045652  0.99685133  1
  Ru  Ru1  1  0.50000711  0.75015536  0.99583869  1
  Ru  Ru2  1  0.00005472  0.24898674  0.16576846  1
  Ru  Ru3  1  0.00006689  0.75034990  0.16581904  1
  Ru  Ru4  1  0.50004630  0.25104990  0.33318371  1
  Ru  Ru5  1  0.50005606  0.74971319  0.33414805  1
  Ru  Ru6  1  0.99999333  0.25048680  0.50160826  1
  Ru  Ru7  1  0.99999841  0.75096191  0.50263685  1
  Ru  Ru8  1  0.49994240  0.24785499  0.67033377  1
loop_
_geom_bond_atom_site_label_1
_geom_bond_atom_site_label_2
_geom_bond_distance
_geom_bond_site_symmetry_2
Al0 Ru3 2.557844 1_555
Al0 Ru2 2.559584 1_555
Al0 Ru0 2.636354 1_554
Al0 Ru0 2.636370 1_454
Al0 Ru1 2.642263 1_454
Al0 Ru1 2.642302 1_554
Al0 Pd1 2.700104 1_454
Al0 Pd2 2.726775 1_454
Al1 Ru4 2.614145 1_565
Al1 Ru5 2.623363 1_555
Al1 Ru2 2.633725 1_665
Al1 Ru2 2.633887 1_565
Al1 Ru3 2.635030 1_655
Al1 Ru3 2.635142 1_555
Al1 Ru0 2.689291 1_564
Al1 Ru1 2.693952 1_554
Al2 Ru2 2.630138 1_555
Al2 Ru4 2.631780 1_555
Al2 Ru4 2.631925 1_455
Al2 Ru3 2.632377 1_555
Al2 Ru5 2.636797 1_555
Al2 Ru5 2.636839 1_455
Al2 Ru6 2.661246 1_455
Al2 Ru7 2.676409 1_455
Al3 Ru4 2.577330 1_555
Al3 Ru5 2.586766 1_545
Al3 Ru6 2.627346 1_455
Al3 Ru6 2.627381 1_555
Al3 Ru7 2.647243 1_445
Al3 Ru7 2.647279 1_545
Al3 Ru8 2.701177 1_555
Al3 Pd0 2.724606 1_545
Al4 Ru6 2.545343 1_555
Al4 Ru7 2.576475 1_555
Al4 Ru8 2.630257 1_655
Al4 Ru8 2.630391 1_555
Al4 Pd0 2.651574 1_555
Al4 Pd0 2.651593 1_655
Al4 Pd1 2.669450 1_555
Al4 Pd2 2.672871 1_555
Al5 Ru0 2.564931 1_555
Al5 Ru1 2.571545 1_545
Al5 Ru8 2.607274 1_555
Al5 Pd1 2.627902 1_455
Al5 Pd1 2.627972 1_555
Al5 Pd0 2.644294 1_545
Al5 Pd2 2.646881 1_445
Al5 Pd2 2.647128 1_545
Pd0 Ti4 2.684432 1_565
Pd0 Ti4 2.684559 1_465
Pd0 Ti5 2.696546 1_555
Pd0 Ti3 2.740280 1_555
Pd0 Pd2 2.992816 1_555
Pd0 Pd2 2.992862 1_455
Pd0 Ru7 3.032950 1_455
Pd0 Ru7 3.033188 1_555
Pd0 Ru8 3.048246 1_565
Pd0 Ru8 3.064212 1_555
Pd1 Ti5 2.621718 1_555
Pd1 Ti5 2.621757 1_655
Pd1 Ti4 2.700604 1_555
Pd1 Ti0 2.740700 1_646
Pd1 Pd2 3.055172 1_555
Pd1 Pd2 3.057461 1_545
Pd2 Ti5 2.655182 1_655
Pd2 Ti5 2.655390 1_555
Pd2 Ti4 2.758386 1_565
Pd2 Ti0 2.760293 1_656
Pd2 Ru1 3.018206 1_555
Pd2 Ru1 3.018548 1_655
Ru0 Ti5 2.509502 1_555
Ru0 Ti0 2.645442 1_546
Ru0 Ti0 2.645541 1_646
Ru0 Ti1 2.680319 1_556
Ru1 Ti5 2.535047 1_555
Ru1 Ti0 2.640277 1_556
Ru1 Ti0 2.640391 1_656
Ru1 Ti1 2.695787 1_556
Ru2 Ti0 2.517618 1_545
Ru2 Ti2 2.630626 1_545
Ru2 Ti1 2.640545 1_455
Ru2 Ti1 2.640567 1_555
Ru3 Ti0 2.519646 1_555
Ru3 Ti2 2.627597 1_555
Ru3 Ti1 2.637866 1_555
Ru3 Ti1 2.637963 1_455
Ru4 Ti3 2.542742 1_555
Ru4 Ti1 2.611673 1_555
Ru4 Ti2 2.641323 1_545
Ru4 Ti2 2.641340 1_645
Ru5 Ti3 2.568098 1_555
Ru5 Ti1 2.621249 1_555
Ru5 Ti2 2.636771 1_655
Ru5 Ti2 2.636787 1_555
Ru6 Ti4 2.472540 1_555
Ru6 Ti3 2.622883 1_555
Ru6 Ti3 2.622960 1_655
Ru6 Ti2 2.661079 1_645
Ru7 Ti4 2.536262 1_565
Ru7 Ti3 2.657292 1_555
Ru7 Ti3 2.657298 1_655
Ru7 Ti2 2.667855 1_655
Ru8 Ti4 2.596707 1_555
Ru8 Ti4 2.596755 1_455
Ru8 Ti5 2.656159 1_555
Ru8 Ti3 2.739192 1_555
