# generated using pymatgen
data_Cs5Al3S7
_symmetry_space_group_name_H-M   'P 1'
_cell_length_a   10.77533215
_cell_length_b   10.77533139
_cell_length_c   9.27593773
_cell_angle_alpha   77.08574076
_cell_angle_beta   77.08574341
_cell_angle_gamma   72.28241689
_symmetry_Int_Tables_number   1
_chemical_formula_structural   Cs5Al3S7
_chemical_formula_sum   'Cs10 Al6 S14'
_cell_volume   985.85381501
_cell_formula_units_Z   2
loop_
 _symmetry_equiv_pos_site_id
 _symmetry_equiv_pos_as_xyz
  1  'x, y, z'
loop_
 _atom_site_type_symbol
 _atom_site_label
 _atom_site_symmetry_multiplicity
 _atom_site_fract_x
 _atom_site_fract_y
 _atom_site_fract_z
 _atom_site_occupancy
  Cs  Cs0  1  0.03396464  0.42938888  0.71978159  1
  Cs  Cs1  1  0.42938888  0.03396464  0.71978159  1
  Cs  Cs2  1  0.96603536  0.57061112  0.28021841  1
  Cs  Cs3  1  0.57061112  0.96603536  0.28021841  1
  Cs  Cs4  1  0.29476206  0.70523794  0.00000000  1
  Cs  Cs5  1  0.70523794  0.29476206  1.00000000  1
  Cs  Cs6  1  0.84621684  0.15378316  0.50000000  1
  Cs  Cs7  1  0.15378316  0.84621684  0.50000000  1
  Cs  Cs8  1  0.42617302  0.42617302  0.69388505  1
  Cs  Cs9  1  0.57382698  0.57382698  0.30611495  1
  Al  Al0  1  0.21021259  0.21021259  0.18345466  1
  Al  Al1  1  0.78978741  0.78978741  0.81654534  1
  Al  Al2  1  0.07079782  0.07079782  0.05764680  1
  Al  Al3  1  0.92920218  0.92920218  0.94235320  1
  Al  Al4  1  0.34296128  0.34296128  0.33163091  1
  Al  Al5  1  0.65703872  0.65703872  0.66836909  1
  S  S0  1  0.00650508  0.27635507  0.11558603  1
  S  S1  1  0.27635507  0.00650508  0.11558603  1
  S  S2  1  0.99349492  0.72364493  0.88441397  1
  S  S3  1  0.72364493  0.99349492  0.88441397  1
  S  S4  1  0.20525751  0.20525751  0.42696566  1
  S  S5  1  0.79474249  0.79474249  0.57303434  1
  S  S6  1  0.06101127  0.06101127  0.81983590  1
  S  S7  1  0.93898873  0.93898873  0.18016410  1
  S  S8  1  0.34307698  0.34307698  0.08011338  1
  S  S9  1  0.65692302  0.65692302  0.91988662  1
  S  S10  1  0.25399430  0.54323768  0.39133431  1
  S  S11  1  0.54323768  0.25399430  0.39133431  1
  S  S12  1  0.74600570  0.45676232  0.60866569  1
  S  S13  1  0.45676232  0.74600570  0.60866569  1
loop_
_geom_bond_atom_site_label_1
_geom_bond_atom_site_label_2
_geom_bond_distance
_geom_bond_site_symmetry_2
Cs0 S12 3.393174 1_455
Cs0 S10 3.644055 1_555
Cs0 S0 3.659450 1_556
Cs0 S2 3.687918 1_455
Cs0 S6 3.804271 1_555
Cs0 S4 3.820332 1_555
Cs1 S13 3.393174 1_545
Cs1 S11 3.644054 1_555
Cs1 S1 3.659450 1_556
Cs1 S3 3.687918 1_545
Cs1 S6 3.804271 1_555
Cs1 S4 3.820332 1_555
Cs2 S10 3.393174 1_655
Cs2 S12 3.644055 1_555
Cs2 S2 3.659450 1_554
Cs2 S0 3.687918 1_655
Cs2 S7 3.804271 1_555
Cs2 S5 3.820332 1_555
Cs3 S11 3.393174 1_565
Cs3 S13 3.644054 1_555
Cs3 S3 3.659450 1_554
Cs3 S1 3.687918 1_565
Cs3 S7 3.804271 1_555
Cs3 S5 3.820332 1_555
Cs4 S1 3.577129 1_565
Cs4 S2 3.577129 1_454
Cs4 S10 3.652202 1_555
Cs4 S13 3.652202 1_554
Cs4 S8 3.700292 1_555
Cs4 S9 3.700292 1_554
Cs5 S3 3.577129 1_545
Cs5 S0 3.577129 1_656
Cs5 S12 3.652202 1_555
Cs5 S11 3.652202 1_556
Cs5 S9 3.700292 1_555
Cs5 S8 3.700292 1_556
Cs6 S12 3.417460 1_555
Cs6 S11 3.417460 1_555
Cs6 S3 3.738031 1_545
Cs6 S0 3.738031 1_655
Cs6 S7 3.936151 1_545
Cs6 S6 3.936151 1_655
Cs6 S5 3.962404 1_545
Cs6 S4 3.962405 1_655
Cs7 S10 3.417460 1_555
Cs7 S13 3.417460 1_555
Cs7 S1 3.738031 1_565
Cs7 S2 3.738031 1_455
Cs7 S6 3.936151 1_565
Cs7 S7 3.936151 1_455
Cs7 S4 3.962404 1_565
Cs7 S5 3.962405 1_455
Cs8 S13 3.459442 1_555
Cs8 S12 3.459442 1_555
Cs8 S8 3.472596 1_556
Cs8 S10 3.497129 1_555
Cs8 S11 3.497129 1_555
Cs9 S11 3.459442 1_555
Cs9 S10 3.459442 1_555
Cs9 S9 3.472596 1_554
Cs9 S12 3.497129 1_555
Cs9 S13 3.497129 1_555
Al0 S4 2.236463 1_555
Al0 S8 2.244736 1_555
Al0 S1 2.277568 1_555
Al0 S0 2.277568 1_555
Al1 S5 2.236463 1_555
Al1 S9 2.244736 1_555
Al1 S3 2.277568 1_555
Al1 S2 2.277568 1_555
Al2 S6 2.258992 1_554
Al2 S0 2.259754 1_555
Al2 S1 2.259755 1_555
Al2 S7 2.260707 1_445
Al3 S7 2.258992 1_556
Al3 S2 2.259754 1_555
Al3 S3 2.259755 1_555
Al3 S6 2.260707 1_665
Al4 S10 2.218239 1_555
Al4 S11 2.218239 1_555
Al4 S4 2.313523 1_555
Al4 S8 2.332504 1_555
Al5 S12 2.218239 1_555
Al5 S13 2.218239 1_555
Al5 S5 2.313523 1_555
Al5 S9 2.332504 1_555
