# generated using pymatgen
data_Ba8Li(AgO4)3
_symmetry_space_group_name_H-M   'P 1'
_cell_length_a   7.28150617
_cell_length_b   7.28150551
_cell_length_c   11.37354656
_cell_angle_alpha   90.00000000
_cell_angle_beta   90.00000000
_cell_angle_gamma   133.23874967
_symmetry_Int_Tables_number   1
_chemical_formula_structural   Ba8Li(AgO4)3
_chemical_formula_sum   'Ba8 Li1 Ag3 O12'
_cell_volume   439.31005724
_cell_formula_units_Z   1
loop_
 _symmetry_equiv_pos_site_id
 _symmetry_equiv_pos_as_xyz
  1  'x, y, z'
loop_
 _atom_site_type_symbol
 _atom_site_label
 _atom_site_symmetry_multiplicity
 _atom_site_fract_x
 _atom_site_fract_y
 _atom_site_fract_z
 _atom_site_occupancy
  Ba  Ba0  1  0.20679264  0.91302301  0.75000000  1
  Ba  Ba1  1  0.63975350  0.34716754  0.49392688  1
  Ba  Ba2  1  0.80424146  0.10046404  0.25000000  1
  Ba  Ba3  1  0.91302301  0.20679264  0.75000000  1
  Ba  Ba4  1  0.10046404  0.80424146  0.25000000  1
  Ba  Ba5  1  0.34716754  0.63975350  0.00607312  1
  Ba  Ba6  1  0.34716754  0.63975350  0.49392688  1
  Ba  Ba7  1  0.63975350  0.34716754  0.00607312  1
  Li  Li0  1  0.52124482  0.52124482  0.25000000  1
  Ag  Ag0  1  0.57747630  0.57747630  0.75000000  1
  Ag  Ag1  1  0.98931876  0.98931876  0.00123461  1
  Ag  Ag2  1  0.98931876  0.98931876  0.49876539  1
  O  O0  1  0.25692122  0.56335898  0.25000000  1
  O  O1  1  0.14598068  0.83973564  0.49909506  1
  O  O2  1  0.56335898  0.25692122  0.25000000  1
  O  O3  1  0.72348281  0.72348281  0.38518931  1
  O  O4  1  0.14598068  0.83973564  0.00090494  1
  O  O5  1  0.83973564  0.14598068  0.00090494  1
  O  O6  1  0.42704372  0.74178753  0.75000000  1
  O  O7  1  0.74178753  0.42704372  0.75000000  1
  O  O8  1  0.72348281  0.72348281  0.11481069  1
  O  O9  1  0.83973564  0.14598068  0.49909506  1
  O  O10  1  0.25838221  0.25838221  0.60733169  1
  O  O11  1  0.25838221  0.25838221  0.89266831  1
loop_
_geom_bond_atom_site_label_1
_geom_bond_atom_site_label_2
_geom_bond_distance
_geom_bond_site_symmetry_2
Ba0 O6 2.620375 1_555
Ba0 O7 2.751514 1_455
Ba0 O11 2.793514 1_565
Ba0 O10 2.793514 1_565
Ba0 O4 2.881074 1_556
Ba0 O1 2.881074 1_555
Ba0 O7 3.034449 1_565
Ba1 O3 2.668470 1_555
Ba1 O9 2.681905 1_555
Ba1 O10 2.708024 1_555
Ba1 O2 2.817313 1_555
Ba1 O1 2.888135 1_655
Ba1 O1 2.895093 1_545
Ba1 O7 2.963217 1_555
Ba2 O0 2.646502 1_655
Ba2 O2 2.666846 1_555
Ba2 O3 2.834321 1_545
Ba2 O8 2.834321 1_545
Ba2 O9 2.843538 1_555
Ba2 O5 2.843538 1_555
Ba2 O0 3.134272 1_545
Ba3 O7 2.620375 1_555
Ba3 O6 2.751514 1_545
Ba3 O11 2.793514 1_655
Ba3 O10 2.793514 1_655
Ba3 O5 2.881074 1_556
Ba3 O9 2.881074 1_555
Ba3 O6 3.034449 1_655
Ba4 O2 2.646502 1_565
Ba4 O0 2.666846 1_555
Ba4 O3 2.834322 1_455
Ba4 O8 2.834322 1_455
Ba4 O1 2.843538 1_555
Ba4 O4 2.843538 1_555
Ba4 O2 3.134272 1_455
Ba5 O8 2.668471 1_555
Ba5 O4 2.681905 1_555
Ba5 O11 2.708023 1_554
Ba5 O0 2.817313 1_555
Ba5 O5 2.888135 1_565
Ba5 O5 2.895093 1_455
Ba5 O6 2.963217 1_554
Ba6 O3 2.668471 1_555
Ba6 O1 2.681905 1_555
Ba6 O10 2.708023 1_555
Ba6 O0 2.817313 1_555
Ba6 O9 2.888135 1_565
Ba6 O9 2.895093 1_455
Ba6 O6 2.963217 1_555
Ba7 O8 2.668470 1_555
Ba7 O5 2.681905 1_555
Ba7 O11 2.708024 1_554
Ba7 O2 2.817313 1_555
Ba7 O4 2.888135 1_655
Ba7 O4 2.895093 1_545
Ba7 O7 2.963217 1_554
Li0 O3 1.931364 1_555
Li0 O8 1.931364 1_555
Li0 O2 2.146402 1_555
Li0 O0 2.146402 1_555
Ag0 O6 2.104008 1_555
Ag0 O7 2.104008 1_555
Ag0 O11 2.456349 1_555
Ag0 O10 2.456349 1_555
Ag1 O11 1.985595 1_664
Ag1 O8 2.007209 1_555
Ag1 O5 2.046929 1_565
Ag1 O4 2.046929 1_655
Ag2 O10 1.985595 1_665
Ag2 O3 2.007209 1_555
Ag2 O9 2.046929 1_565
Ag2 O1 2.046929 1_655
