# generated using pymatgen
data_NaCa2ReN4
_symmetry_space_group_name_H-M   'P 1'
_cell_length_a   5.91611318
_cell_length_b   5.91463902
_cell_length_c   6.90993205
_cell_angle_alpha   76.96192842
_cell_angle_beta   90.00000000
_cell_angle_gamma   90.00000000
_symmetry_Int_Tables_number   1
_chemical_formula_structural   NaCa2ReN4
_chemical_formula_sum   'Na2 Ca4 Re2 N8'
_cell_volume   235.55683080
_cell_formula_units_Z   2
loop_
 _symmetry_equiv_pos_site_id
 _symmetry_equiv_pos_as_xyz
  1  'x, y, z'
loop_
 _atom_site_type_symbol
 _atom_site_label
 _atom_site_symmetry_multiplicity
 _atom_site_fract_x
 _atom_site_fract_y
 _atom_site_fract_z
 _atom_site_occupancy
  Na  Na0  1  0.75000000  0.25022408  0.31787516  1
  Na  Na1  1  0.25000000  0.74977592  0.68212484  1
  Ca  Ca0  1  0.25000000  0.28670922  0.02965993  1
  Ca  Ca1  1  0.75000000  0.71329078  0.97034007  1
  Ca  Ca2  1  0.75000000  0.71842549  0.46448094  1
  Ca  Ca3  1  0.25000000  0.28157451  0.53551906  1
  Re  Re0  1  0.25000000  0.75721302  0.20117593  1
  Re  Re1  1  0.75000000  0.24278698  0.79882407  1
  N  N0  1  0.50779960  0.44278409  0.74614193  1
  N  N1  1  0.00779960  0.55721591  0.25385807  1
  N  N2  1  0.49220040  0.55721591  0.25385807  1
  N  N3  1  0.99220040  0.44278409  0.74614193  1
  N  N4  1  0.75000000  0.02430741  0.64840715  1
  N  N5  1  0.25000000  0.97569259  0.35159285  1
  N  N6  1  0.75000000  0.08955840  0.05350826  1
  N  N7  1  0.25000000  0.91044160  0.94649174  1
loop_
_geom_bond_atom_site_label_1
_geom_bond_atom_site_label_2
_geom_bond_distance
_geom_bond_site_symmetry_2
Ca0 N7 2.420768 1_544
Ca0 N0 2.490052 1_554
Ca0 N3 2.490052 1_454
Ca0 N5 2.546790 1_545
Ca0 N2 2.851552 1_555
Ca0 N1 2.851552 1_555
Ca1 N6 2.420768 1_566
Ca1 N1 2.490052 1_656
Ca1 N2 2.490052 1_556
Ca1 N4 2.546790 1_565
Ca1 N3 2.851552 1_555
Ca1 N0 2.851552 1_555
Ca2 N4 2.434300 1_565
Ca2 N1 2.445321 1_655
Ca2 N2 2.445321 1_555
Ca2 N3 2.658451 1_555
Ca2 N0 2.658451 1_555
Ca3 N5 2.434300 1_545
Ca3 N0 2.445321 1_555
Ca3 N3 2.445321 1_455
Ca3 N2 2.658451 1_555
Ca3 N1 2.658451 1_555
N0 Re1 1.841375 1_555
N0 Na1 2.335884 1_555
N1 Re0 1.841375 1_555
N1 Na0 2.335884 1_455
N2 Re0 1.841375 1_555
N2 Na0 2.335884 1_555
N3 Re1 1.841375 1_555
N3 Na1 2.335884 1_655
N4 Re1 1.831979 1_555
N4 Na0 2.371693 1_555
N5 Re0 1.831979 1_555
N5 Na1 2.371693 1_555
N6 Re1 1.788521 1_554
N6 Na0 2.241276 1_555
N7 Re0 1.788521 1_556
N7 Na1 2.241276 1_555
