# generated using pymatgen
data_Sc12Co4PtPb
_symmetry_space_group_name_H-M   'P 1'
_cell_length_a   7.74319453
_cell_length_b   7.74319412
_cell_length_c   7.74319344
_cell_angle_alpha   110.32402564
_cell_angle_beta   111.33553440
_cell_angle_gamma   106.78865166
_symmetry_Int_Tables_number   1
_chemical_formula_structural   Sc12Co4PtPb
_chemical_formula_sum   'Sc12 Co4 Pt1 Pb1'
_cell_volume   356.77346617
_cell_formula_units_Z   1
loop_
 _symmetry_equiv_pos_site_id
 _symmetry_equiv_pos_as_xyz
  1  'x, y, z'
loop_
 _atom_site_type_symbol
 _atom_site_label
 _atom_site_symmetry_multiplicity
 _atom_site_fract_x
 _atom_site_fract_y
 _atom_site_fract_z
 _atom_site_occupancy
  Sc  Sc0  1  0.42775202  0.22292213  0.20482888  1
  Sc  Sc1  1  0.57224798  0.77707787  0.79517112  1
  Sc  Sc2  1  0.01809225  0.22292213  0.79517112  1
  Sc  Sc3  1  0.98190775  0.77707787  0.20482888  1
  Sc  Sc4  1  0.31012191  0.61196864  0.30184673  1
  Sc  Sc5  1  0.68987809  0.38803136  0.69815327  1
  Sc  Sc6  1  0.31012191  0.00827418  0.69815327  1
  Sc  Sc7  1  0.68987809  0.99172582  0.30184673  1
  Sc  Sc8  1  0.18574632  0.28021680  0.46596512  1
  Sc  Sc9  1  0.81425368  0.71978220  0.53403488  1
  Sc  Sc10  1  0.18574632  0.71978220  0.90552952  1
  Sc  Sc11  1  0.81425368  0.28021680  0.09447048  1
  Co  Co0  1  0.37215137  0.00000000  0.37215137  1
  Co  Co1  1  0.62784863  1.00000000  0.62784863  1
  Co  Co2  1  0.11498893  0.61498893  0.50000000  1
  Co  Co3  1  0.88501107  0.38501107  0.50000000  1
  Pt  Pt0  1  0.00000000  0.00000000  0.00000000  1
  Pb  Pb0  1  0.50000000  0.50000000  0.00000000  1
loop_
_geom_bond_atom_site_label_1
_geom_bond_atom_site_label_2
_geom_bond_distance
_geom_bond_site_symmetry_2
Co0 Co1 2.233306 1_545
Co0 Sc3 2.524589 1_445
Co0 Sc0 2.524597 1_555
Co0 Sc7 2.719287 1_545
Co0 Sc5 2.719288 1_555
Co0 Sc4 2.719288 1_545
Co0 Sc6 2.719290 1_555
Co0 Sc10 2.965829 1_544
Co0 Sc8 2.965830 1_555
Co1 Sc2 2.524589 1_665
Co1 Sc1 2.524597 1_555
Co1 Sc6 2.719287 1_565
Co1 Sc4 2.719288 1_555
Co1 Sc5 2.719288 1_565
Co1 Sc7 2.719290 1_555
Co1 Sc11 2.965827 1_566
Co1 Sc9 2.965837 1_555
Co2 Co3 2.123754 1_455
Co2 Sc6 2.513984 1_565
Co2 Sc4 2.513990 1_555
Co2 Sc9 2.745918 1_455
Co2 Sc11 2.745926 1_455
Co2 Sc10 2.745928 1_555
Co2 Sc8 2.745929 1_555
Co2 Sc1 2.981097 1_555
Co2 Sc3 2.981101 1_455
Co3 Sc7 2.513984 1_545
Co3 Sc5 2.513990 1_555
Co3 Sc9 2.745922 1_555
Co3 Sc8 2.745922 1_655
Co3 Sc10 2.745924 1_655
Co3 Sc11 2.745926 1_555
Co3 Sc0 2.981097 1_555
Co3 Sc2 2.981101 1_655
Pt0 Sc3 2.727340 1_445
Pt0 Sc2 2.727340 1_554
Pt0 Sc0 2.727347 1_555
Pt0 Sc1 2.727347 1_444
Pt0 Sc11 2.962673 1_455
Pt0 Sc10 2.962679 1_544
Pt0 Sc8 2.962685 1_555
Pt0 Sc9 2.962686 1_444
Pb0 Sc1 3.122102 1_554
Pb0 Sc0 3.122102 1_555
Pb0 Sc2 3.122110 1_554
Pb0 Sc3 3.122110 1_555
Pb0 Sc4 3.194585 1_555
Pb0 Sc5 3.194585 1_554
Pb0 Sc6 3.194591 1_554
Pb0 Sc7 3.194591 1_555
Pb0 Sc8 3.363643 1_554
Pb0 Sc9 3.363644 1_555
Pb0 Sc10 3.363650 1_554
Pb0 Sc11 3.363656 1_555
