# generated using pymatgen
data_Ta3Nb2Si2Ge
_symmetry_space_group_name_H-M   'P 1'
_cell_length_a   7.56934244
_cell_length_b   7.56595344
_cell_length_c   7.56626709
_cell_angle_alpha   128.34725484
_cell_angle_beta   128.36254163
_cell_angle_gamma   76.02691441
_symmetry_Int_Tables_number   1
_chemical_formula_structural   Ta3Nb2Si2Ge
_chemical_formula_sum   'Ta6 Nb4 Si4 Ge2'
_cell_volume   259.09704845
_cell_formula_units_Z   2
loop_
 _symmetry_equiv_pos_site_id
 _symmetry_equiv_pos_as_xyz
  1  'x, y, z'
loop_
 _atom_site_type_symbol
 _atom_site_label
 _atom_site_symmetry_multiplicity
 _atom_site_fract_x
 _atom_site_fract_y
 _atom_site_fract_z
 _atom_site_occupancy
  Ta  Ta0  1  0.68736190  0.51647133  0.50058615  1
  Ta  Ta1  1  0.98384681  0.81180543  0.49942354  1
  Ta  Ta2  1  0.31162861  0.48350714  0.49950086  1
  Ta  Ta3  1  0.81220254  0.31266485  0.82825669  1
  Ta  Ta4  1  0.50089834  0.50063173  0.00038021  1
  Ta  Ta5  1  0.00025182  0.00063848  0.99975563  1
  Nb  Nb0  1  0.01737167  0.18786039  0.50067665  1
  Nb  Nb1  1  0.51681951  0.01649602  0.82975819  1
  Nb  Nb2  1  0.18740714  0.68708525  0.17055244  1
  Nb  Nb3  1  0.48286809  0.98334563  0.17097061  1
  Si  Si0  1  0.12907618  0.62960171  0.75881167  1
  Si  Si1  1  0.63036795  0.87014669  0.50046129  1
  Si  Si2  1  0.37080855  0.12998273  0.50050374  1
  Si  Si3  1  0.87004860  0.37050958  0.24019317  1
  Ge  Ge0  1  0.74946724  0.74915131  0.99954414  1
  Ge  Ge1  1  0.24957405  0.25010273  0.00062602  1
loop_
_geom_bond_atom_site_label_1
_geom_bond_atom_site_label_2
_geom_bond_distance
_geom_bond_site_symmetry_2
Nb0 Si2 2.605145 1_555
Nb0 Si0 2.629603 1_555
Nb0 Si3 2.635320 1_455
Nb1 Si3 2.607221 1_556
Nb1 Si2 2.635013 1_555
Nb1 Si1 2.635871 1_545
Nb2 Si0 2.606445 1_554
Nb2 Si2 2.636787 1_565
Nb2 Si1 2.637274 1_555
Nb3 Si0 2.607354 1_554
Nb3 Si2 2.627789 1_565
Nb3 Si1 2.632081 1_555
Si0 Si3 2.417875 1_455
Si0 Ta5 2.586355 1_565
Si0 Ta4 2.591430 1_556
Si0 Ta1 2.628296 1_455
Si0 Ta2 2.630065 1_555
Si0 Ta0 2.631959 1_455
Si1 Si2 2.420647 1_565
Si1 Ta5 2.581305 1_665
Si1 Ta4 2.586025 1_555
Si1 Ta0 2.606078 1_555
Si1 Ta1 2.608672 1_555
Si1 Ta3 2.634318 1_565
Si2 Ta4 2.586204 1_556
Si2 Ta5 2.591075 1_554
Si2 Ta2 2.607170 1_555
Si2 Ta3 2.629717 1_555
Si3 Ta4 2.581483 1_555
Si3 Ta5 2.586221 1_654
Si3 Ta3 2.608403 1_554
Si3 Ta1 2.627264 1_555
Si3 Ta2 2.628870 1_655
Si3 Ta0 2.637785 1_555
Ge0 Ta3 2.739884 1_555
Ge0 Ta0 2.742728 1_555
Ge0 Ta1 2.744041 1_556
Ge0 Nb1 2.745697 1_565
Ge0 Ta2 2.748552 1_555
Ge0 Nb2 2.749825 1_656
Ge0 Nb3 2.750380 1_556
Ge0 Nb0 2.756120 1_666
Ge0 Ta4 2.968773 1_556
Ge0 Ta5 2.993432 1_665
Ge1 Ta2 2.741452 1_555
Ge1 Nb2 2.744158 1_555
Ge1 Nb3 2.744898 1_545
Ge1 Ta3 2.744989 1_454
Ge1 Nb0 2.748951 1_554
Ge1 Ta0 2.749168 1_555
Ge1 Nb1 2.751639 1_554
Ge1 Ta1 2.751772 1_444
Ge1 Ta5 2.968727 1_554
Ge1 Ta4 2.993666 1_555
