# generated using pymatgen
data_Cs2KGaTe3
_symmetry_space_group_name_H-M   'P 1'
_cell_length_a   14.31300047
_cell_length_b   9.01989240
_cell_length_c   11.80788487
_cell_angle_alpha   53.59562347
_cell_angle_beta   90.00000000
_cell_angle_gamma   90.00000000
_symmetry_Int_Tables_number   1
_chemical_formula_structural   Cs2KGaTe3
_chemical_formula_sum   'Cs8 K4 Ga4 Te12'
_cell_volume   1226.92572814
_cell_formula_units_Z   4
loop_
 _symmetry_equiv_pos_site_id
 _symmetry_equiv_pos_as_xyz
  1  'x, y, z'
loop_
 _atom_site_type_symbol
 _atom_site_label
 _atom_site_symmetry_multiplicity
 _atom_site_fract_x
 _atom_site_fract_y
 _atom_site_fract_z
 _atom_site_occupancy
  Cs  Cs0  1  0.91278100  0.33941647  0.39719740  1
  Cs  Cs1  1  0.41278100  0.66058353  0.10280260  1
  Cs  Cs2  1  0.08721900  0.66058353  0.60280260  1
  Cs  Cs3  1  0.58721900  0.33941647  0.89719740  1
  Cs  Cs4  1  0.18646420  0.13545291  0.57396974  1
  Cs  Cs5  1  0.68646420  0.86454709  0.92603026  1
  Cs  Cs6  1  0.81353580  0.86454709  0.42603026  1
  Cs  Cs7  1  0.31353580  0.13545291  0.07396974  1
  K  K0  1  0.61566402  0.34845383  0.48616516  1
  K  K1  1  0.11566402  0.65154617  0.01383484  1
  K  K2  1  0.38433598  0.65154617  0.51383484  1
  K  K3  1  0.88433598  0.34845383  0.98616516  1
  Ga  Ga0  1  0.93451072  0.05515042  0.84488401  1
  Ga  Ga1  1  0.43451072  0.94484958  0.65511599  1
  Ga  Ga2  1  0.06548928  0.94484958  0.15511599  1
  Ga  Ga3  1  0.56548928  0.05515042  0.34488401  1
  Te  Te0  1  0.39486446  0.14499457  0.37632352  1
  Te  Te1  1  0.89486446  0.85500543  0.12367648  1
  Te  Te2  1  0.60513554  0.85500543  0.62367648  1
  Te  Te3  1  0.10513554  0.14499457  0.87632352  1
  Te  Te4  1  0.67926726  0.33810598  0.20263149  1
  Te  Te5  1  0.17926726  0.66189402  0.29736851  1
  Te  Te6  1  0.32073274  0.66189402  0.79736851  1
  Te  Te7  1  0.82073274  0.33810598  0.70263149  1
  Te  Te8  1  0.56364296  0.84795506  0.25798178  1
  Te  Te9  1  0.06364296  0.15204494  0.24201822  1
  Te  Te10  1  0.43635704  0.15204494  0.74201822  1
  Te  Te11  1  0.93635704  0.84795506  0.75798178  1
loop_
_geom_bond_atom_site_label_1
_geom_bond_atom_site_label_2
_geom_bond_distance
_geom_bond_site_symmetry_2
Cs0 Te1 3.781054 1_555
Cs0 Te9 3.814719 1_655
Cs0 Te7 3.833063 1_555
Cs0 Te11 3.936719 1_545
Cs0 Te4 4.059720 1_555
Cs1 Te0 3.781054 1_555
Cs1 Te8 3.814719 1_555
Cs1 Te6 3.833063 1_554
Cs1 Te10 3.936719 1_564
Cs1 Te5 4.059720 1_555
Cs2 Te3 3.781054 1_555
Cs2 Te11 3.814719 1_455
Cs2 Te5 3.833063 1_555
Cs2 Te9 3.936719 1_565
Cs2 Te6 4.059720 1_555
Cs3 Te2 3.781054 1_555
Cs3 Te10 3.814719 1_555
Cs3 Te4 3.833063 1_556
Cs3 Te8 3.936719 1_546
Cs3 Te7 4.059720 1_555
Cs4 Te0 3.756706 1_555
Cs4 Te3 3.804363 1_555
Cs4 Ga1 3.810916 1_545
Cs4 Te5 3.849320 1_555
Cs4 Te6 3.939897 1_545
Cs4 Te10 4.135846 1_555
Cs4 Te11 4.191975 1_445
Cs4 Te9 4.216645 1_555
Cs5 Te1 3.756706 1_556
Cs5 Te2 3.804363 1_555
Cs5 Ga0 3.810916 1_565
Cs5 Te4 3.849320 1_556
Cs5 Te7 3.939897 1_565
Cs5 Te11 4.135846 1_555
Cs5 Te10 4.191975 1_565
Cs5 Te8 4.216645 1_556
Cs6 Te2 3.756706 1_555
Cs6 Te1 3.804363 1_555
Cs6 Ga3 3.810916 1_565
Cs6 Te7 3.849320 1_555
Cs6 Te4 3.939897 1_565
Cs6 Te8 4.135846 1_555
Cs6 Te9 4.191975 1_665
Cs6 Te11 4.216645 1_555
Cs7 Te3 3.756706 1_554
Cs7 Te0 3.804363 1_555
Cs7 Ga2 3.810916 1_545
Cs7 Te6 3.849320 1_554
Cs7 Te5 3.939897 1_545
Cs7 Te9 4.135846 1_555
Cs7 Te8 4.191975 1_545
Cs7 Te10 4.216645 1_554
K0 Te4 3.523779 1_555
K0 Te10 3.535426 1_555
K0 Te8 3.701913 1_555
K0 Te2 3.727086 1_545
K0 Te7 3.856659 1_555
K1 Te5 3.523779 1_555
K1 Te11 3.535426 1_454
K1 Te9 3.701913 1_555
K1 Te3 3.727086 1_564
K1 Te6 3.856659 1_554
K2 Te6 3.523779 1_555
K2 Te8 3.535426 1_555
K2 Te10 3.701913 1_555
K2 Te0 3.727086 1_565
K2 Te5 3.856659 1_555
K3 Te7 3.523779 1_555
K3 Te9 3.535426 1_656
K3 Te11 3.701913 1_555
K3 Te1 3.727086 1_546
K3 Te4 3.856659 1_556
Ga0 Te11 2.612013 1_545
Ga0 Te7 2.626559 1_555
Ga0 Te3 2.667534 1_655
Ga0 Te1 2.713668 1_546
Ga1 Te10 2.612013 1_565
Ga1 Te6 2.626559 1_555
Ga1 Te2 2.667534 1_555
Ga1 Te0 2.713668 1_565
Ga2 Te9 2.612013 1_565
Ga2 Te5 2.626559 1_555
Ga2 Te1 2.667534 1_455
Ga2 Te3 2.713668 1_564
Ga3 Te8 2.612013 1_545
Ga3 Te4 2.626559 1_555
Ga3 Te0 2.667534 1_555
Ga3 Te2 2.713668 1_545
