# generated using pymatgen
data_Mg5Si16(IrPd4)2
_symmetry_space_group_name_H-M   'P 1'
_cell_length_a   8.85368145
_cell_length_b   8.87725754
_cell_length_c   8.86170733
_cell_angle_alpha   59.90131769
_cell_angle_beta   60.02995793
_cell_angle_gamma   60.08781643
_symmetry_Int_Tables_number   1
_chemical_formula_structural   Mg5Si16(IrPd4)2
_chemical_formula_sum   'Mg5 Si16 Ir2 Pd8'
_cell_volume   492.56705876
_cell_formula_units_Z   1
loop_
 _symmetry_equiv_pos_site_id
 _symmetry_equiv_pos_as_xyz
  1  'x, y, z'
loop_
 _atom_site_type_symbol
 _atom_site_label
 _atom_site_symmetry_multiplicity
 _atom_site_fract_x
 _atom_site_fract_y
 _atom_site_fract_z
 _atom_site_occupancy
  Mg  Mg0  1  0.19710647  0.60135043  0.60076056  1
  Mg  Mg1  1  0.60090648  0.59943428  0.19875175  1
  Mg  Mg2  1  0.60078354  0.60135043  0.60076056  1
  Mg  Mg3  1  0.60198395  0.19528220  0.60075090  1
  Mg  Mg4  1  0.25048737  0.23951496  0.25951030  1
  Si  Si0  1  0.20461529  0.66373981  0.20389700  1
  Si  Si1  1  0.92774890  0.66373981  0.20389700  1
  Si  Si2  1  0.20780333  0.19884811  0.66325090  1
  Si  Si3  1  0.65967806  0.20355704  0.21120224  1
  Si  Si4  1  0.93009766  0.19884811  0.66325090  1
  Si  Si5  1  0.20565646  0.66164935  0.92703773  1
  Si  Si6  1  0.92556366  0.20355704  0.21120224  1
  Si  Si7  1  0.66201240  0.92662524  0.20998763  1
  Si  Si8  1  0.20137474  0.92662524  0.20998763  1
  Si  Si9  1  0.20882565  0.92435991  0.65798879  1
  Si  Si10  1  0.53378730  0.82735306  0.81495548  1
  Si  Si11  1  0.82390217  0.82735306  0.81495548  1
  Si  Si12  1  0.66440426  0.20298543  0.93120988  1
  Si  Si13  1  0.82110703  0.83121167  0.52657227  1
  Si  Si14  1  0.82038003  0.54272172  0.81651722  1
  Si  Si15  1  0.20140043  0.20298543  0.93120988  1
  Ir  Ir0  1  0.98961044  0.98894814  0.51064506  1
  Ir  Ir1  1  0.51079636  0.98894814  0.51064506  1
  Pd  Pd0  1  0.98502446  0.51516484  0.98566143  1
  Pd  Pd1  1  0.37840247  0.37608004  0.86711602  1
  Pd  Pd2  1  0.37594117  0.38257972  0.37890191  1
  Pd  Pd3  1  0.86257620  0.38257972  0.37890191  1
  Pd  Pd4  1  0.98626027  0.51475127  0.51272720  1
  Pd  Pd5  1  0.51414926  0.51516484  0.98566143  1
  Pd  Pd6  1  0.38384853  0.85643432  0.37586762  1
  Pd  Pd7  1  0.51376567  0.98625565  0.98621402  1
loop_
_geom_bond_atom_site_label_1
_geom_bond_atom_site_label_2
_geom_bond_distance
_geom_bond_site_symmetry_2
Mg0 Pd6 2.783645 1_555
Mg0 Pd2 2.792255 1_555
Mg0 Pd1 2.827809 1_555
Mg0 Pd0 2.856886 1_455
Mg0 Pd4 2.858707 1_455
Mg1 Pd6 2.750798 1_555
Mg1 Pd2 2.790433 1_555
Mg1 Pd3 2.790433 1_555
Mg1 Pd5 2.855622 1_554
Mg1 Pd0 2.855629 1_554
Mg1 Pd7 2.873500 1_554
Mg2 Pd6 2.783656 1_555
Mg2 Pd3 2.792253 1_555
Mg2 Pd1 2.827809 1_555
Mg2 Pd5 2.856885 1_555
Mg2 Pd4 2.858691 1_555
Mg3 Pd3 2.822834 1_555
Mg3 Pd2 2.822848 1_555
Mg3 Pd1 2.833551 1_555
Mg3 Pd7 2.853758 1_545
Mg4 Pd6 2.777923 1_545
Mg4 Pd2 2.809765 1_555
Mg4 Pd3 2.809772 1_455
Mg4 Pd1 2.837336 1_554
Si0 Si8 2.346893 1_555
Si0 Si1 2.451287 1_455
Si0 Si5 2.458196 1_554
Si1 Si7 2.346898 1_555
Si1 Si5 2.458191 1_654
Si2 Si9 2.455875 1_545
Si2 Si4 2.458718 1_455
Si3 Si6 2.354066 1_555
Si3 Si7 2.453547 1_545
Si4 Si9 2.455875 1_645
Si5 Si9 2.354938 1_555
Si6 Si8 2.453543 1_645
Si12 Si4 2.365179 1_555
Si12 Si7 2.458254 1_546
Si12 Si3 2.463101 1_556
Si15 Si2 2.365179 1_555
Si15 Si8 2.458254 1_546
Si15 Si6 2.463097 1_456
Ir0 Si11 2.397653 1_555
Ir0 Si13 2.425126 1_555
Ir0 Si6 2.519516 1_565
Ir0 Si8 2.524501 1_655
Ir0 Si4 2.532741 1_565
Ir0 Si9 2.543964 1_655
Ir0 Mg3 2.868850 1_565
Ir0 Mg0 2.873549 1_655
Ir1 Si10 2.397647 1_555
Ir1 Si13 2.425111 1_555
Ir1 Si3 2.519520 1_565
Ir1 Si7 2.524501 1_555
Ir1 Si2 2.532741 1_565
Ir1 Si9 2.543964 1_555
Ir1 Mg3 2.868857 1_565
Ir1 Mg2 2.873547 1_555
Pd0 Si14 2.427149 1_555
Pd0 Si11 2.451956 1_555
Pd0 Si5 2.572671 1_655
Pd0 Si1 2.578440 1_556
Pd0 Si15 2.589527 1_655
Pd0 Si6 2.603792 1_556
Pd1 Si5 2.391559 1_555
Pd1 Si12 2.403452 1_555
Pd1 Si15 2.403460 1_555
Pd2 Si0 2.372273 1_555
Pd2 Si3 2.387903 1_555
Pd2 Si2 2.403644 1_555
Pd3 Si1 2.372280 1_555
Pd3 Si6 2.387895 1_555
Pd3 Si4 2.403648 1_555
Pd4 Si14 2.412997 1_555
Pd4 Si13 2.472826 1_555
Pd4 Si1 2.571030 1_555
Pd4 Si0 2.571039 1_655
Pd4 Si4 2.620522 1_555
Pd4 Si2 2.620527 1_655
Pd5 Si14 2.427141 1_555
Pd5 Si10 2.451950 1_555
Pd5 Si5 2.572671 1_555
Pd5 Si0 2.578437 1_556
Pd5 Si12 2.589527 1_555
Pd5 Si3 2.603795 1_556
Pd6 Si8 2.368370 1_555
Pd6 Si7 2.368377 1_555
Pd6 Si9 2.392642 1_555
Pd7 Si11 2.439974 1_555
Pd7 Si10 2.439987 1_555
Pd7 Si12 2.585943 1_565
Pd7 Si15 2.585950 1_565
Pd7 Si7 2.605747 1_556
Pd7 Si8 2.605754 1_556
