# generated using pymatgen
data_SrGeRu2N
_symmetry_space_group_name_H-M   'P 1'
_cell_length_a   5.95214435
_cell_length_b   5.95214267
_cell_length_c   7.29949183
_cell_angle_alpha   90.00000000
_cell_angle_beta   90.00000000
_cell_angle_gamma   140.94834195
_symmetry_Int_Tables_number   1
_chemical_formula_structural   SrGeRu2N
_chemical_formula_sum   'Sr2 Ge2 Ru4 N2'
_cell_volume   162.92746880
_cell_formula_units_Z   2
loop_
 _symmetry_equiv_pos_site_id
 _symmetry_equiv_pos_as_xyz
  1  'x, y, z'
loop_
 _atom_site_type_symbol
 _atom_site_label
 _atom_site_symmetry_multiplicity
 _atom_site_fract_x
 _atom_site_fract_y
 _atom_site_fract_z
 _atom_site_occupancy
  Sr  Sr0  1  0.54747360  0.45252640  0.25000000  1
  Sr  Sr1  1  0.45252640  0.54747360  0.75000000  1
  Ge  Ge0  1  0.27027517  0.72972483  0.25000000  1
  Ge  Ge1  1  0.72972483  0.27027517  0.75000000  1
  Ru  Ru0  1  0.83900037  0.16099963  0.05607210  1
  Ru  Ru1  1  0.16099963  0.83900037  0.94392790  1
  Ru  Ru2  1  0.16099963  0.83900037  0.55607210  1
  Ru  Ru3  1  0.83900037  0.16099963  0.44392790  1
  N  N0  1  0.00000000  0.00000000  0.00000000  1
  N  N1  1  0.00000000  0.00000000  0.50000000  1
loop_
_geom_bond_atom_site_label_1
_geom_bond_atom_site_label_2
_geom_bond_distance
_geom_bond_site_symmetry_2
Ge0 Ru2 2.548467 1_555
Ge0 Ru1 2.548467 1_554
Ge0 Ru3 2.560489 1_455
Ge0 Ru0 2.560489 1_455
Ge0 Ru3 2.560489 1_565
Ge0 Ru0 2.560489 1_565
Ge0 Sr0 3.110078 1_555
Ge0 Sr0 3.194762 1_565
Ge0 Sr0 3.194763 1_455
Ge1 Ru0 2.548467 1_556
Ge1 Ru3 2.548467 1_555
Ge1 Ru1 2.560489 1_655
Ge1 Ru2 2.560489 1_655
Ge1 Ru1 2.560489 1_545
Ge1 Ru2 2.560489 1_545
Ge1 Sr1 3.110078 1_555
Ge1 Sr1 3.194762 1_545
Ge1 Sr1 3.194763 1_655
N0 Ru1 1.852155 1_544
N0 Ru0 1.852155 1_455
N0 Sr1 2.751647 1_554
N0 Sr0 2.751647 1_445
N0 Sr0 2.751647 1_555
N0 Sr1 2.751647 1_444
N1 Ru2 1.852155 1_545
N1 Ru3 1.852155 1_455
N1 Sr1 2.751647 1_555
N1 Sr0 2.751647 1_445
N1 Sr0 2.751647 1_555
N1 Sr1 2.751647 1_445
