# generated using pymatgen
data_Rb6In2Sb3As
_symmetry_space_group_name_H-M   'P 1'
_cell_length_a   9.66317539
_cell_length_b   9.66317404
_cell_length_c   9.75746590
_cell_angle_alpha   127.20074795
_cell_angle_beta   72.10383893
_cell_angle_gamma   134.40953494
_symmetry_Int_Tables_number   1
_chemical_formula_structural   Rb6In2Sb3As
_chemical_formula_sum   'Rb6 In2 Sb3 As1'
_cell_volume   507.57890478
_cell_formula_units_Z   1
loop_
 _symmetry_equiv_pos_site_id
 _symmetry_equiv_pos_as_xyz
  1  'x, y, z'
loop_
 _atom_site_type_symbol
 _atom_site_label
 _atom_site_symmetry_multiplicity
 _atom_site_fract_x
 _atom_site_fract_y
 _atom_site_fract_z
 _atom_site_occupancy
  Rb  Rb0  1  0.81929811  0.20798945  0.02728656  1
  Rb  Rb1  1  0.67861426  0.68131484  0.35993110  1
  Rb  Rb2  1  0.75088400  0.24982986  0.51333695  1
  Rb  Rb3  1  0.26350709  0.76245295  0.51333795  1
  Rb  Rb4  1  0.32619781  0.29568037  0.62187618  1
  Rb  Rb5  1  0.17151365  0.79194236  0.96345601  1
  In  In0  1  0.25684464  0.25533145  0.99872163  1
  In  In1  1  0.74339018  0.74187699  0.99872163  1
  Sb  Sb0  1  0.40061985  0.69571082  0.09633067  1
  Sb  Sb1  1  0.09784026  0.18438593  0.28222719  1
  Sb  Sb2  1  0.90376669  0.81262553  0.71639222  1
  As  As0  1  0.58752346  0.32085946  0.90838292  1
loop_
_geom_bond_atom_site_label_1
_geom_bond_atom_site_label_2
_geom_bond_distance
_geom_bond_site_symmetry_2
Rb0 Sb2 3.645948 1_544
Rb0 Sb0 3.956598 1_655
Rb0 Sb0 3.956605 1_545
Rb1 Sb2 3.727141 1_555
Rb1 Sb1 3.952846 1_555
Rb1 Sb1 3.952852 1_665
Rb2 Sb2 3.634433 1_555
Rb2 Sb1 3.649950 1_655
Rb2 Sb0 3.665647 1_545
Rb3 Sb2 3.634432 1_455
Rb3 Sb1 3.649952 1_555
Rb3 Sb0 3.665656 1_555
Rb4 Sb0 3.661642 1_556
Rb4 Sb1 3.724588 1_555
Rb4 Sb2 3.940342 1_555
Rb4 Sb2 3.940356 1_445
Rb5 Sb1 3.566082 1_566
Rb5 Sb0 3.681067 1_556
In0 Sb0 2.929854 1_556
In0 Sb2 2.937490 1_445
In0 Sb1 2.947873 1_556
In0 Rb1 3.712394 1_556
In0 Rb4 3.738359 1_555
In0 Rb5 3.740685 1_545
In0 Rb0 3.858307 1_456
In1 Sb0 2.929855 1_556
In1 Sb2 2.937490 1_555
In1 Sb1 2.947868 1_666
In1 Rb1 3.712402 1_556
In1 Rb4 3.738351 1_555
In1 Rb5 3.740686 1_655
In1 Rb0 3.858310 1_566
As0 In1 2.738723 1_555
As0 In0 2.738724 1_555
As0 Rb1 3.443069 1_556
As0 Rb3 3.521191 1_545
As0 Rb2 3.521196 1_555
As0 Rb0 3.754701 1_556
As0 Rb5 3.976091 1_545
As0 Rb5 3.976091 1_655
