# generated using pymatgen
data_CaY2(B3Rh4)2
_symmetry_space_group_name_H-M   'P 1'
_cell_length_a   9.86932168
_cell_length_b   9.03413542
_cell_length_c   5.54530388
_cell_angle_alpha   81.41160339
_cell_angle_beta   64.83824479
_cell_angle_gamma   33.75014843
_symmetry_Int_Tables_number   1
_chemical_formula_structural   CaY2(B3Rh4)2
_chemical_formula_sum   'Ca1 Y2 B6 Rh8'
_cell_volume   227.20449858
_cell_formula_units_Z   1
loop_
 _symmetry_equiv_pos_site_id
 _symmetry_equiv_pos_as_xyz
  1  'x, y, z'
loop_
 _atom_site_type_symbol
 _atom_site_label
 _atom_site_symmetry_multiplicity
 _atom_site_fract_x
 _atom_site_fract_y
 _atom_site_fract_z
 _atom_site_occupancy
  Ca  Ca0  1  0.68291015  0.68291015  0.31708985  1
  Y  Y0  1  0.31826514  0.31826514  0.68173486  1
  Y  Y1  1  0.50235676  0.50235676  0.49764324  1
  B  B0  1  0.66986673  0.98458673  0.01541327  1
  B  B1  1  0.98458673  0.66986673  0.33013327  1
  B  B2  1  0.32824062  0.01606459  0.98393541  1
  B  B3  1  0.01606459  0.32824062  0.67175938  1
  B  B4  1  0.16752646  0.83242615  0.16757385  1
  B  B5  1  0.83242615  0.16752646  0.83247354  1
  Rh  Rh0  1  0.58563707  0.58563707  0.91436293  1
  Rh  Rh1  1  0.91317998  0.91317998  0.08682002  1
  Rh  Rh2  1  0.41445728  0.41445728  0.08554272  1
  Rh  Rh3  1  0.08563707  0.08563707  0.41436293  1
  Rh  Rh4  1  0.91445728  0.91445728  0.58554272  1
  Rh  Rh5  1  0.24947129  0.24947129  0.25052871  1
  Rh  Rh6  1  0.08544540  0.08544540  0.91455460  1
  Rh  Rh7  1  0.74947129  0.74947129  0.75052871  1
loop_
_geom_bond_atom_site_label_1
_geom_bond_atom_site_label_2
_geom_bond_distance
_geom_bond_site_symmetry_2
Ca0 Rh7 3.000229 1_554
Ca0 Rh7 3.000229 1_555
Ca0 Rh5 3.000229 1_655
Ca0 Rh5 3.000229 1_565
Ca0 Y1 3.109177 1_555
Ca0 Rh6 3.209075 1_565
Ca0 Rh6 3.209075 1_654
Ca0 Rh0 3.239360 1_555
Ca0 Rh3 3.239360 1_565
Ca0 Rh0 3.239360 1_554
Ca0 Rh3 3.239360 1_655
Y0 Y1 3.170106 1_555
B0 Rh5 2.112332 1_565
B0 Rh7 2.112332 1_554
B0 Rh1 2.120280 1_555
B0 Rh4 2.219350 1_554
B0 Rh2 2.219350 1_565
B0 Ca0 2.912189 1_555
B0 Y0 3.132066 1_565
B0 Y0 3.132066 1_654
B1 Rh7 2.112332 1_555
B1 Rh5 2.112332 1_655
B1 Rh1 2.120280 1_555
B1 Rh2 2.219350 1_655
B1 Rh4 2.219350 1_555
B1 Ca0 2.912189 1_555
B1 Y0 3.132066 1_654
B1 Y0 3.132066 1_565
B2 Rh7 2.112806 1_545
B2 Rh5 2.112806 1_556
B2 Rh6 2.120632 1_555
B2 Rh3 2.216023 1_556
B2 Rh0 2.216024 1_545
B2 Y0 2.932304 1_555
B2 Ca0 3.127815 1_545
B2 Ca0 3.127815 1_456
B3 Rh5 2.112806 1_555
B3 Rh7 2.112806 1_455
B3 Rh6 2.120632 1_555
B3 Rh0 2.216024 1_455
B3 Rh3 2.216024 1_555
B3 Y0 2.932304 1_555
B3 Ca0 3.127815 1_456
B3 Ca0 3.127815 1_545
B4 Rh4 2.161428 1_455
B4 Rh2 2.161428 1_555
B4 Rh0 2.163092 1_554
B4 Rh3 2.163092 1_565
B4 Rh6 2.186125 1_564
B4 Rh1 2.201577 1_455
B4 Y1 3.177400 1_554
B4 Y1 3.177400 1_465
B4 Y1 3.207612 1_555
B5 Rh2 2.161428 1_556
B5 Rh4 2.161428 1_545
B5 Rh3 2.163092 1_655
B5 Rh0 2.163092 1_555
B5 Rh6 2.186125 1_655
B5 Rh1 2.201577 1_546
B5 Y1 3.177400 1_556
B5 Y1 3.177400 1_645
B5 Y1 3.207612 1_555
Rh0 Y1 3.121581 1_556
Rh0 Y1 3.121581 1_555
Rh1 Y1 3.136791 1_654
Rh1 Y1 3.136791 1_565
Rh1 Y0 3.186330 1_565
Rh1 Y0 3.186330 1_654
Rh2 Y1 3.158915 1_554
Rh2 Y1 3.158915 1_555
Rh2 Y0 3.229774 1_555
Rh2 Y0 3.229774 1_554
Rh3 Y1 3.121581 1_455
Rh3 Y1 3.121581 1_545
Rh4 Y1 3.158915 1_655
Rh4 Y1 3.158915 1_565
Rh4 Y0 3.229774 1_565
Rh4 Y0 3.229774 1_655
Rh5 Y0 3.015127 1_554
Rh5 Y0 3.015127 1_555
Rh6 Y1 3.086819 1_456
Rh6 Y1 3.086820 1_545
Rh7 Y0 3.015127 1_655
Rh7 Y0 3.015127 1_565
