# generated using pymatgen
data_HfCuRhS4
_symmetry_space_group_name_H-M   'P 1'
_cell_length_a   7.09787060
_cell_length_b   7.09787050
_cell_length_c   7.09787018
_cell_angle_alpha   119.75763311
_cell_angle_beta   118.88101389
_cell_angle_gamma   91.18470299
_symmetry_Int_Tables_number   1
_chemical_formula_structural   HfCuRhS4
_chemical_formula_sum   'Hf2 Cu2 Rh2 S8'
_cell_volume   255.37780152
_cell_formula_units_Z   2
loop_
 _symmetry_equiv_pos_site_id
 _symmetry_equiv_pos_as_xyz
  1  'x, y, z'
loop_
 _atom_site_type_symbol
 _atom_site_label
 _atom_site_symmetry_multiplicity
 _atom_site_fract_x
 _atom_site_fract_y
 _atom_site_fract_z
 _atom_site_occupancy
  Hf  Hf0  1  0.01972325  0.79349915  0.27377490  1
  Hf  Hf1  1  0.98027675  0.25405266  0.77377490  1
  Cu  Cu0  1  0.62524234  0.60092471  0.47568137  1
  Cu  Cu1  1  0.37475766  0.85044003  0.97568137  1
  Rh  Rh0  1  1.00000000  0.24219923  0.24219923  1
  Rh  Rh1  1  0.50000000  0.24219923  0.74219923  1
  S  S0  1  0.26430329  0.02666869  0.26236540  1
  S  S1  1  0.76060352  0.01906210  0.26510707  1
  S  S2  1  0.25395603  0.01906210  0.75845858  1
  S  S3  1  0.24396937  0.46084882  0.71687945  1
  S  S4  1  0.75603063  0.47291008  0.21687945  1
  S  S5  1  0.73569671  0.99806211  0.76236540  1
  S  S6  1  0.74604397  0.50450355  0.76510707  1
  S  S7  1  0.23939648  0.50450355  0.25845858  1
loop_
_geom_bond_atom_site_label_1
_geom_bond_atom_site_label_2
_geom_bond_distance
_geom_bond_site_symmetry_2
Hf0 S0 2.430913 1_565
Hf0 S1 2.461691 1_465
Hf0 S2 2.461696 1_565
Hf0 S6 2.593301 1_454
Hf0 S7 2.593306 1_555
Hf0 S4 2.650594 1_455
Hf1 S5 2.430923 1_545
Hf1 S6 2.461696 1_555
Hf1 S7 2.461696 1_656
Hf1 S1 2.593300 1_555
Hf1 S2 2.593310 1_655
Hf1 S3 2.650584 1_655
Cu0 S4 2.255443 1_555
Cu0 S7 2.267619 1_555
Cu0 S6 2.267625 1_555
Cu0 S5 2.318365 1_555
Cu1 S3 2.255449 1_555
Cu1 S2 2.267612 1_565
Cu1 S1 2.267619 1_566
Cu1 S0 2.318369 1_566
Rh0 S4 2.412741 1_555
Rh0 S3 2.412741 1_655
Rh0 S1 2.415241 1_555
Rh0 S7 2.415241 1_655
Rh0 S0 2.440654 1_655
Rh0 S5 2.440654 1_544
Rh1 S3 2.412741 1_555
Rh1 S4 2.412741 1_556
Rh1 S2 2.415236 1_555
Rh1 S6 2.415236 1_555
Rh1 S5 2.440654 1_545
Rh1 S0 2.440654 1_555
