# generated using pymatgen
data_Lu5(AlTe)2
_symmetry_space_group_name_H-M   'P 1'
_cell_length_a   8.47856406
_cell_length_b   8.47856440
_cell_length_c   7.76604643
_cell_angle_alpha   90.00000000
_cell_angle_beta   90.00000000
_cell_angle_gamma   125.66395162
_symmetry_Int_Tables_number   1
_chemical_formula_structural   Lu5(AlTe)2
_chemical_formula_sum   'Lu10 Al4 Te4'
_cell_volume   453.56708056
_cell_formula_units_Z   2
loop_
 _symmetry_equiv_pos_site_id
 _symmetry_equiv_pos_as_xyz
  1  'x, y, z'
loop_
 _atom_site_type_symbol
 _atom_site_label
 _atom_site_symmetry_multiplicity
 _atom_site_fract_x
 _atom_site_fract_y
 _atom_site_fract_z
 _atom_site_occupancy
  Lu  Lu0  1  0.00000000  0.00000000  0.00000000  1
  Lu  Lu1  1  0.50000000  0.50000000  0.50000000  1
  Lu  Lu2  1  0.79542765  0.53954194  0.16798931  1
  Lu  Lu3  1  0.46045806  0.20457235  0.83201069  1
  Lu  Lu4  1  0.96045806  0.70457235  0.66798931  1
  Lu  Lu5  1  0.29542765  0.03954194  0.33201069  1
  Lu  Lu6  1  0.20457235  0.46045806  0.83201069  1
  Lu  Lu7  1  0.53954194  0.79542765  0.16798931  1
  Lu  Lu8  1  0.03954194  0.29542765  0.33201069  1
  Lu  Lu9  1  0.70457235  0.96045806  0.66798931  1
  Al  Al0  1  0.87429009  0.87429009  0.37602171  1
  Al  Al1  1  0.12570991  0.12570991  0.62397829  1
  Al  Al2  1  0.62570991  0.62570991  0.87602171  1
  Al  Al3  1  0.37429009  0.37429009  0.12397829  1
  Te  Te0  1  0.20643358  0.79356642  0.00000000  1
  Te  Te1  1  0.70643358  0.29356642  0.50000000  1
  Te  Te2  1  0.79356642  0.20643358  0.00000000  1
  Te  Te3  1  0.29356642  0.70643358  0.50000000  1
loop_
_geom_bond_atom_site_label_1
_geom_bond_atom_site_label_2
_geom_bond_distance
_geom_bond_site_symmetry_2
Lu0 Te0 3.114313 1_545
Lu0 Te2 3.114313 1_455
Lu1 Te3 3.114313 1_555
Lu1 Te1 3.114313 1_555
Lu2 Te2 3.102717 1_555
Lu2 Te1 3.119615 1_555
Lu2 Te0 3.119693 1_655
Lu3 Te2 3.102717 1_556
Lu3 Te1 3.119615 1_555
Lu3 Te0 3.119693 1_546
Lu4 Te3 3.102717 1_655
Lu4 Te0 3.119615 1_656
Lu4 Te1 3.119693 1_555
Lu5 Te3 3.102717 1_545
Lu5 Te0 3.119615 1_545
Lu5 Te1 3.119693 1_555
Lu6 Te0 3.102717 1_556
Lu6 Te3 3.119615 1_555
Lu6 Te2 3.119693 1_456
Lu7 Te0 3.102717 1_555
Lu7 Te3 3.119615 1_555
Lu7 Te2 3.119693 1_565
Lu8 Te1 3.102717 1_455
Lu8 Te2 3.119615 1_455
Lu8 Te3 3.119693 1_555
Lu9 Te1 3.102717 1_565
Lu9 Te2 3.119615 1_566
Lu9 Te3 3.119693 1_555
Al0 Al1 2.738169 1_665
Al0 Lu7 2.983226 1_555
Al0 Lu2 2.983226 1_555
Al0 Lu9 2.995242 1_555
Al0 Lu4 2.995242 1_555
Al0 Lu5 2.999298 1_665
Al0 Lu8 2.999299 1_665
Al0 Lu1 3.053754 1_555
Al0 Lu0 3.078140 1_665
Al1 Lu3 2.983226 1_555
Al1 Lu6 2.983226 1_555
Al1 Lu5 2.995242 1_555
Al1 Lu8 2.995242 1_555
Al1 Lu9 2.999298 1_445
Al1 Lu4 2.999299 1_445
Al1 Lu1 3.053754 1_555
Al1 Lu0 3.078140 1_556
Al2 Al3 2.738169 1_556
Al2 Lu4 2.983226 1_555
Al2 Lu9 2.983226 1_555
Al2 Lu2 2.995242 1_556
Al2 Lu7 2.995242 1_556
Al2 Lu6 2.999298 1_555
Al2 Lu3 2.999299 1_555
Al2 Lu0 3.053754 1_666
Al2 Lu1 3.078140 1_555
Al3 Lu8 2.983226 1_555
Al3 Lu5 2.983226 1_555
Al3 Lu6 2.995242 1_554
Al3 Lu3 2.995242 1_554
Al3 Lu2 2.999298 1_555
Al3 Lu7 2.999299 1_555
Al3 Lu0 3.053754 1_555
Al3 Lu1 3.078140 1_555
