# generated using pymatgen
data_BaCa4(InBi3)2
_symmetry_space_group_name_H-M   'P 1'
_cell_length_a   4.82420225
_cell_length_b   12.54375686
_cell_length_c   14.66120973
_cell_angle_alpha   90.00000000
_cell_angle_beta   90.00000000
_cell_angle_gamma   90.00000000
_symmetry_Int_Tables_number   1
_chemical_formula_structural   BaCa4(InBi3)2
_chemical_formula_sum   'Ba2 Ca8 In4 Bi12'
_cell_volume   887.20287544
_cell_formula_units_Z   2
loop_
 _symmetry_equiv_pos_site_id
 _symmetry_equiv_pos_as_xyz
  1  'x, y, z'
loop_
 _atom_site_type_symbol
 _atom_site_label
 _atom_site_symmetry_multiplicity
 _atom_site_fract_x
 _atom_site_fract_y
 _atom_site_fract_z
 _atom_site_occupancy
  Ba  Ba0  1  0.00000000  0.67028406  0.97207314  1
  Ba  Ba1  1  0.00000000  0.82971594  0.47207314  1
  Ca  Ca0  1  0.00000000  0.40955277  0.74771643  1
  Ca  Ca1  1  0.00000000  0.92005074  0.74961054  1
  Ca  Ca2  1  0.00000000  0.57994926  0.24961054  1
  Ca  Ca3  1  0.00000000  0.17636188  0.52319185  1
  Ca  Ca4  1  0.00000000  0.09044723  0.24771643  1
  Ca  Ca5  1  0.00000000  0.00069642  0.00075404  1
  Ca  Ca6  1  0.00000000  0.32363812  0.02319185  1
  Ca  Ca7  1  0.00000000  0.49930358  0.50075404  1
  In  In0  1  0.50000000  0.66541815  0.78656208  1
  In  In1  1  0.50000000  0.17371355  0.71981040  1
  In  In2  1  0.50000000  0.83458185  0.28656208  1
  In  In3  1  0.50000000  0.32628645  0.21981040  1
  Bi  Bi0  1  0.50000000  0.97501132  0.60333458  1
  Bi  Bi1  1  0.50000000  0.86751661  0.89423968  1
  Bi  Bi2  1  0.00000000  0.66307163  0.67368713  1
  Bi  Bi3  1  0.50000000  0.45485794  0.90154883  1
  Bi  Bi4  1  0.50000000  0.63248339  0.39423968  1
  Bi  Bi5  1  0.50000000  0.14563760  0.09245573  1
  Bi  Bi6  1  0.50000000  0.04514206  0.40154883  1
  Bi  Bi7  1  0.00000000  0.16935618  0.83501557  1
  Bi  Bi8  1  0.00000000  0.83692837  0.17368713  1
  Bi  Bi9  1  0.50000000  0.52498868  0.10333458  1
  Bi  Bi10  1  0.50000000  0.35436240  0.59245573  1
  Bi  Bi11  1  0.00000000  0.33064382  0.33501557  1
loop_
_geom_bond_atom_site_label_1
_geom_bond_atom_site_label_2
_geom_bond_distance
_geom_bond_site_symmetry_2
Ba0 Bi9 3.583774 1_556
Ba0 Bi9 3.583774 1_456
Ba0 Bi8 3.620348 1_556
Ba0 In0 3.635844 1_455
Ba0 In0 3.635844 1_555
Ba0 Bi1 3.638856 1_455
Ba0 Bi1 3.638856 1_555
Ba0 Bi3 3.766895 1_555
Ba0 Bi3 3.766895 1_455
Ba1 Bi0 3.583774 1_455
Ba1 Bi0 3.583774 1_555
Ba1 Bi2 3.620348 1_555
Ba1 In2 3.635844 1_455
Ba1 In2 3.635844 1_555
Ba1 Bi4 3.638856 1_455
Ba1 Bi4 3.638856 1_555
Ba1 Bi6 3.766895 1_465
Ba1 Bi6 3.766895 1_565
Ca3 In1 3.758869 1_555
Ca3 In1 3.758869 1_455
Ca6 In3 3.758869 1_455
Ca6 In3 3.758869 1_555
Bi0 In1 3.021354 1_565
Bi0 Bi6 3.086445 1_565
Bi0 Ca1 3.300417 1_555
Bi0 Ca1 3.300417 1_655
Bi0 Ca3 3.684828 1_665
Bi0 Ca3 3.684828 1_565
Bi1 In0 2.986443 1_555
Bi1 Ca1 3.278527 1_555
Bi1 Ca1 3.278527 1_655
Bi1 Ca5 3.323814 1_666
Bi1 Ca5 3.323814 1_566
Bi2 In0 2.925361 1_455
Bi2 In0 2.925361 1_555
Bi2 Ca7 3.263174 1_555
Bi2 Ca0 3.360194 1_555
Bi2 Ca1 3.410264 1_555
Bi3 Bi9 3.086445 1_556
Bi3 In0 3.133384 1_555
Bi3 Ca0 3.350803 1_655
Bi3 Ca0 3.350803 1_555
Bi3 Ca6 3.421717 1_656
Bi3 Ca6 3.421717 1_556
Bi4 In2 2.986443 1_555
Bi4 Ca2 3.278527 1_555
Bi4 Ca2 3.278527 1_655
Bi4 Ca7 3.323814 1_555
Bi4 Ca7 3.323814 1_655
Bi5 In3 2.936182 1_555
Bi5 Ca5 3.306253 1_655
Bi5 Ca5 3.306253 1_555
Bi5 Ca4 3.388080 1_555
Bi5 Ca4 3.388080 1_655
Bi5 Ca6 3.440179 1_555
Bi5 Ca6 3.440179 1_655
Bi6 In2 3.133384 1_545
Bi6 Ca4 3.350803 1_555
Bi6 Ca4 3.350803 1_655
Bi6 Ca3 3.421717 1_555
Bi6 Ca3 3.421717 1_655
Bi7 In1 2.945182 1_455
Bi7 In1 2.945182 1_555
Bi7 Ca5 3.221866 1_556
Bi7 Ca0 3.273553 1_555
Bi7 Ca1 3.368591 1_545
Bi7 Ca6 3.369981 1_556
Bi8 In2 2.925361 1_455
Bi8 In2 2.925361 1_555
Bi8 Ca5 3.263174 1_565
Bi8 Ca4 3.360194 1_565
Bi8 Ca2 3.410264 1_555
Bi9 In3 3.021354 1_555
Bi9 Ca2 3.300417 1_555
Bi9 Ca2 3.300417 1_655
Bi9 Ca6 3.684828 1_655
Bi9 Ca6 3.684828 1_555
Bi10 In1 2.936182 1_555
Bi10 Ca7 3.306253 1_555
Bi10 Ca7 3.306253 1_655
Bi10 Ca0 3.388080 1_655
Bi10 Ca0 3.388080 1_555
Bi10 Ca3 3.440179 1_555
Bi10 Ca3 3.440179 1_655
Bi11 In3 2.945182 1_555
Bi11 In3 2.945182 1_455
Bi11 Ca7 3.221866 1_555
Bi11 Ca4 3.273553 1_555
Bi11 Ca2 3.368591 1_555
Bi11 Ca3 3.369981 1_555
