# generated using pymatgen
data_CsZrH5
_symmetry_space_group_name_H-M   'P 1'
_cell_length_a   11.83454821
_cell_length_b   7.63695136
_cell_length_c   5.70086713
_cell_angle_alpha   90.00000000
_cell_angle_beta   90.00000000
_cell_angle_gamma   90.00000000
_symmetry_Int_Tables_number   1
_chemical_formula_structural   CsZrH5
_chemical_formula_sum   'Cs4 Zr4 H20'
_cell_volume   515.24362442
_cell_formula_units_Z   4
loop_
 _symmetry_equiv_pos_site_id
 _symmetry_equiv_pos_as_xyz
  1  'x, y, z'
loop_
 _atom_site_type_symbol
 _atom_site_label
 _atom_site_symmetry_multiplicity
 _atom_site_fract_x
 _atom_site_fract_y
 _atom_site_fract_z
 _atom_site_occupancy
  Cs  Cs0  1  0.67244923  0.07119613  0.33364155  1
  Cs  Cs1  1  0.17244923  0.42880287  0.33364155  1
  Cs  Cs2  1  0.82755077  0.57119613  0.83364155  1
  Cs  Cs3  1  0.32755077  0.92880387  0.83364155  1
  Zr  Zr0  1  0.52423043  0.57891391  0.30849256  1
  Zr  Zr1  1  0.02423043  0.92108609  0.30849256  1
  Zr  Zr2  1  0.97576957  0.07891291  0.80849156  1
  Zr  Zr3  1  0.47576957  0.42108709  0.80849156  1
  H  H0  1  0.31796084  0.35746945  0.78138013  1
  H  H1  1  0.81796084  0.14253055  0.78138013  1
  H  H2  1  0.96427230  0.68543215  0.28372371  1
  H  H3  1  0.46427230  0.81456685  0.28372371  1
  H  H4  1  0.56769829  0.37869552  0.10020516  1
  H  H5  1  0.06769729  0.12130448  0.10020516  1
  H  H6  1  0.39646529  0.50627302  0.09952329  1
  H  H7  1  0.89646529  0.99372798  0.09952329  1
  H  H8  1  0.95737853  0.13463707  0.46003160  1
  H  H9  1  0.45737853  0.36536393  0.46003160  1
  H  H10  1  0.18203916  0.85746945  0.28137913  1
  H  H11  1  0.68203916  0.64252955  0.28137913  1
  H  H12  1  0.53572870  0.18543215  0.78372571  1
  H  H13  1  0.03572870  0.31456685  0.78372571  1
  H  H14  1  0.93230271  0.87869452  0.60020516  1
  H  H15  1  0.43230271  0.62130548  0.60020516  1
  H  H16  1  0.10353471  0.00627202  0.59952329  1
  H  H17  1  0.60353471  0.49372798  0.59952329  1
  H  H18  1  0.54262147  0.63463707  0.96003360  1
  H  H19  1  0.04262147  0.86536393  0.96003360  1
loop_
_geom_bond_atom_site_label_1
_geom_bond_atom_site_label_2
_geom_bond_distance
_geom_bond_site_symmetry_2
Cs0 H4 2.970285 1_555
Cs0 H7 3.026526 1_545
Cs0 H1 3.126905 1_555
Cs0 H12 3.156391 1_555
Cs0 H3 3.160977 1_545
Cs0 H11 3.289194 1_545
Cs1 H5 2.970284 1_555
Cs1 H6 3.026529 1_555
Cs1 H0 3.126904 1_555
Cs1 H13 3.156391 1_555
Cs1 H2 3.160977 1_455
Cs1 H10 3.289194 1_555
Cs2 H14 2.970284 1_555
Cs2 H17 3.026526 1_555
Cs2 H11 3.126899 1_556
Cs2 H2 3.156388 1_556
Cs2 H13 3.160985 1_655
Cs2 H1 3.289186 1_555
Cs3 H15 2.970284 1_555
Cs3 H16 3.026526 1_565
Cs3 H10 3.126900 1_556
Cs3 H3 3.156390 1_556
Cs3 H12 3.160980 1_565
Cs3 H0 3.289186 1_565
H0 Zr3 1.935935 1_555
H1 Zr2 1.935935 1_555
H2 Zr1 1.939659 1_655
H3 Zr0 1.939652 1_555
H4 Zr0 2.003151 1_555
H4 Zr3 2.013467 1_554
H5 Zr1 2.003148 1_545
H5 Zr2 2.013460 1_454
H6 Zr0 2.003306 1_555
H6 Zr3 2.014148 1_554
H7 Zr1 2.003308 1_655
H7 Zr2 2.014145 1_564
H8 Zr1 2.007992 1_645
H8 Zr2 2.043221 1_555
H9 Zr0 2.007986 1_555
H9 Zr3 2.043219 1_555
H10 Zr1 1.935934 1_555
H11 Zr0 1.935932 1_555
H12 Zr3 1.939670 1_555
H13 Zr2 1.939662 1_455
H14 Zr2 2.003144 1_565
H14 Zr1 2.013456 1_655
H15 Zr3 2.003144 1_555
H15 Zr0 2.013456 1_555
H16 Zr2 2.003303 1_455
H16 Zr1 2.014143 1_545
H17 Zr3 2.003303 1_555
H17 Zr0 2.014143 1_555
H18 Zr3 2.007993 1_555
H18 Zr0 2.043214 1_556
H19 Zr2 2.007987 1_465
H19 Zr1 2.043212 1_556
