# generated using pymatgen
data_CaTcAs2Rh
_symmetry_space_group_name_H-M   'P 1'
_cell_length_a   6.05886595
_cell_length_b   6.05886521
_cell_length_c   6.05886397
_cell_angle_alpha   139.60405755
_cell_angle_beta   139.60406670
_cell_angle_gamma   58.45497978
_symmetry_Int_Tables_number   1
_chemical_formula_structural   CaTcAs2Rh
_chemical_formula_sum   'Ca1 Tc1 As2 Rh1'
_cell_volume   92.55453913
_cell_formula_units_Z   1
loop_
 _symmetry_equiv_pos_site_id
 _symmetry_equiv_pos_as_xyz
  1  'x, y, z'
loop_
 _atom_site_type_symbol
 _atom_site_label
 _atom_site_symmetry_multiplicity
 _atom_site_fract_x
 _atom_site_fract_y
 _atom_site_fract_z
 _atom_site_occupancy
  Ca  Ca0  1  0.00000000  0.00000000  0.00000000  1
  Tc  Tc0  1  0.75000000  0.25000000  0.50000000  1
  As  As0  1  0.36726058  0.36726058  0.00000000  1
  As  As1  1  0.63273942  0.63273942  1.00000000  1
  Rh  Rh0  1  0.25000000  0.75000000  0.50000000  1
loop_
_geom_bond_atom_site_label_1
_geom_bond_atom_site_label_2
_geom_bond_distance
_geom_bond_site_symmetry_2
Ca0 Rh0 3.371277 1_545
Ca0 Tc0 3.371277 1_454
Ca0 Rh0 3.371278 1_544
Ca0 Tc0 3.371278 1_455
Ca0 Tc0 3.371278 1_444
Ca0 Rh0 3.371278 1_555
Ca0 Rh0 3.371278 1_444
Ca0 Tc0 3.371278 1_555
As0 Tc0 2.431825 1_555
As0 Rh0 2.431826 1_555
As0 Tc0 2.431826 1_454
As0 Rh0 2.431826 1_544
As0 As1 2.807438 1_554
As0 Ca0 3.274542 1_554
As0 Ca0 3.274543 1_666
As0 Ca0 3.274544 1_565
As0 Ca0 3.274544 1_655
As1 Rh0 2.431825 1_555
As1 Tc0 2.431826 1_555
As1 Rh0 2.431826 1_656
As1 Tc0 2.431826 1_566
As1 Ca0 3.274542 1_667
As1 Ca0 3.274543 1_555
As1 Ca0 3.274544 1_656
As1 Ca0 3.274544 1_566
Rh0 Tc0 2.958412 1_454
Rh0 Tc0 2.958412 1_566
Rh0 Tc0 2.958413 1_465
Rh0 Tc0 2.958413 1_555
