# generated using pymatgen
data_BaNa2CdBi2
_symmetry_space_group_name_H-M   'P 1'
_cell_length_a   5.00588337
_cell_length_b   8.59060362
_cell_length_c   9.31005468
_cell_angle_alpha   90.00000000
_cell_angle_beta   90.00000000
_cell_angle_gamma   90.00000000
_symmetry_Int_Tables_number   1
_chemical_formula_structural   BaNa2CdBi2
_chemical_formula_sum   'Ba2 Na4 Cd2 Bi4'
_cell_volume   400.36549331
_cell_formula_units_Z   2
loop_
 _symmetry_equiv_pos_site_id
 _symmetry_equiv_pos_as_xyz
  1  'x, y, z'
loop_
 _atom_site_type_symbol
 _atom_site_label
 _atom_site_symmetry_multiplicity
 _atom_site_fract_x
 _atom_site_fract_y
 _atom_site_fract_z
 _atom_site_occupancy
  Ba  Ba0  1  0.00000000  0.99051903  0.06236420  1
  Ba  Ba1  1  0.00000000  0.49051903  0.93763580  1
  Na  Na0  1  0.50000000  0.03497556  0.42899852  1
  Na  Na1  1  0.00000000  0.36286107  0.33324319  1
  Na  Na2  1  0.50000000  0.53497556  0.57100148  1
  Na  Na3  1  0.00000000  0.86286107  0.66675681  1
  Cd  Cd0  1  0.50000000  0.14773604  0.81202580  1
  Cd  Cd1  1  0.50000000  0.64773604  0.18797420  1
  Bi  Bi0  1  0.00000000  0.22978094  0.64755915  1
  Bi  Bi1  1  0.50000000  0.27972837  0.13291660  1
  Bi  Bi2  1  0.00000000  0.72978094  0.35244085  1
  Bi  Bi3  1  0.50000000  0.77972837  0.86708340  1
loop_
_geom_bond_atom_site_label_1
_geom_bond_atom_site_label_2
_geom_bond_distance
_geom_bond_site_symmetry_2
Ba0 Bi2 3.508638 1_555
Ba0 Bi3 3.584575 1_554
Ba0 Bi3 3.584575 1_454
Ba0 Bi1 3.587314 1_465
Ba0 Bi1 3.587314 1_565
Ba0 Cd0 3.677065 1_464
Ba0 Cd0 3.677065 1_564
Ba0 Cd1 4.037776 1_555
Ba0 Cd1 4.037776 1_455
Ba1 Bi0 3.508638 1_555
Ba1 Bi1 3.584575 1_456
Ba1 Bi1 3.584575 1_556
Ba1 Bi3 3.587314 1_455
Ba1 Bi3 3.587314 1_555
Ba1 Cd1 3.677065 1_556
Ba1 Cd1 3.677065 1_456
Ba1 Cd0 4.037776 1_455
Ba1 Cd0 4.037776 1_555
Cd0 Na0 3.695231 1_555
Cd0 Na3 3.752718 1_645
Cd0 Na3 3.752718 1_545
Cd1 Na2 3.695231 1_555
Cd1 Na1 3.752718 1_655
Cd1 Na1 3.752718 1_555
Bi0 Cd0 3.017621 1_455
Bi0 Cd0 3.017621 1_555
Bi0 Na1 3.141690 1_555
Bi0 Na3 3.157126 1_545
Bi0 Na0 3.633973 1_455
Bi0 Na0 3.633973 1_555
Bi0 Na2 3.694131 1_455
Bi0 Na2 3.694131 1_555
Bi1 Cd0 3.195456 1_554
Bi1 Na1 3.202055 1_655
Bi1 Na1 3.202055 1_555
Bi1 Cd1 3.202694 1_555
Bi1 Na0 3.466890 1_555
Bi2 Cd1 3.017621 1_455
Bi2 Cd1 3.017621 1_555
Bi2 Na3 3.141690 1_555
Bi2 Na1 3.157126 1_555
Bi2 Na2 3.633973 1_455
Bi2 Na2 3.633973 1_555
Bi2 Na0 3.694131 1_565
Bi2 Na0 3.694131 1_465
Bi3 Cd1 3.195456 1_556
Bi3 Na3 3.202055 1_555
Bi3 Na3 3.202055 1_655
Bi3 Cd0 3.202694 1_565
Bi3 Na2 3.466890 1_555
