# generated using pymatgen
data_Cs2Pt(WO4)3
_symmetry_space_group_name_H-M   'P 1'
_cell_length_a   7.38989502
_cell_length_b   7.40675028
_cell_length_c   7.23168740
_cell_angle_alpha   89.99999818
_cell_angle_beta   59.06207040
_cell_angle_gamma   120.07547548
_symmetry_Int_Tables_number   1
_chemical_formula_structural   Cs2Pt(WO4)3
_chemical_formula_sum   'Cs2 Pt1 W3 O12'
_cell_volume   275.53383885
_cell_formula_units_Z   1
loop_
 _symmetry_equiv_pos_site_id
 _symmetry_equiv_pos_as_xyz
  1  'x, y, z'
loop_
 _atom_site_type_symbol
 _atom_site_label
 _atom_site_symmetry_multiplicity
 _atom_site_fract_x
 _atom_site_fract_y
 _atom_site_fract_z
 _atom_site_occupancy
  Cs  Cs0  1  0.25700542  0.12028232  0.11777380  1
  Cs  Cs1  1  0.74299458  0.86327690  0.88222620  1
  Pt  Pt0  1  1.00000000  0.51646689  1.00000000  1
  W  W0  1  0.49500730  0.98135374  0.48645720  1
  W  W1  1  0.50499270  0.48634544  0.51354280  1
  W  W2  1  0.00000000  0.47842970  0.50000000  1
  O  O0  1  0.62474285  0.81773425  0.43327010  1
  O  O1  1  0.87097453  0.44944264  0.80806021  1
  O  O2  1  0.25733794  0.84110140  0.80860971  1
  O  O3  1  0.25218848  0.44399072  0.43648896  1
  O  O4  1  0.25366805  0.45246029  0.80486595  1
  O  O5  1  0.25822150  0.81476089  0.42845020  1
  O  O6  1  0.37525715  0.19299040  0.56672990  1
  O  O7  1  0.12902547  0.57846811  0.19193979  1
  O  O8  1  0.74633195  0.19879123  0.19513405  1
  O  O9  1  0.74177850  0.55653939  0.57154980  1
  O  O10  1  0.74266206  0.58376346  0.19139029  1
  O  O11  1  0.74781152  0.19180124  0.56351104  1
loop_
_geom_bond_atom_site_label_1
_geom_bond_atom_site_label_2
_geom_bond_distance
_geom_bond_site_symmetry_2
Cs0 O2 3.045332 1_544
Cs0 O1 3.163936 1_554
Cs0 O5 3.195272 1_545
Cs0 O0 3.256196 1_445
Cs0 O3 3.326168 1_555
Cs0 O4 3.360457 1_554
Cs1 O10 3.045332 1_556
Cs1 O7 3.163936 1_556
Cs1 O9 3.195272 1_555
Cs1 O6 3.256195 1_665
Cs1 O11 3.326162 1_565
Cs1 O8 3.360452 1_566
O0 W0 1.822401 1_555
O0 W1 2.107008 1_555
O1 W2 1.878566 1_655
O1 Pt0 1.992151 1_555
O2 W0 1.885605 1_555
O2 Pt0 2.006059 1_455
O3 W2 1.829084 1_555
O3 W1 2.093336 1_555
O4 W1 1.860224 1_555
O4 Pt0 1.975074 1_455
O5 W0 1.830595 1_555
O5 W2 2.082079 1_555
O6 W1 1.822401 1_555
O6 W0 2.106994 1_545
O7 W2 1.878566 1_555
O7 Pt0 1.992151 1_454
O8 W0 1.860218 1_545
O8 Pt0 1.975079 1_554
O9 W1 1.830594 1_555
O9 W2 2.082079 1_655
O10 W1 1.885604 1_555
O10 Pt0 2.006059 1_554
O11 W2 1.829088 1_655
O11 W0 2.093332 1_545
