# generated using pymatgen
data_Li4As6Ir6Pd
_symmetry_space_group_name_H-M   'P 1'
_cell_length_a   6.94335056
_cell_length_b   6.94335087
_cell_length_c   6.94335095
_cell_angle_alpha   109.76765293
_cell_angle_beta   108.87997060
_cell_angle_gamma   109.76765064
_symmetry_Int_Tables_number   1
_chemical_formula_structural   Li4As6Ir6Pd
_chemical_formula_sum   'Li4 As6 Ir6 Pd1'
_cell_volume   257.66224768
_cell_formula_units_Z   1
loop_
 _symmetry_equiv_pos_site_id
 _symmetry_equiv_pos_as_xyz
  1  'x, y, z'
loop_
 _atom_site_type_symbol
 _atom_site_label
 _atom_site_symmetry_multiplicity
 _atom_site_fract_x
 _atom_site_fract_y
 _atom_site_fract_z
 _atom_site_occupancy
  Li  Li0  1  0.99915373  0.99830646  0.49915373  1
  Li  Li1  1  0.50084627  0.00169354  0.00084627  1
  Li  Li2  1  0.99915373  0.50000000  0.00084627  1
  Li  Li3  1  0.50084627  0.50000000  0.49915373  1
  As  As0  1  0.69394955  0.68898734  0.00496220  1
  As  As1  1  0.31597486  0.31101266  0.00496220  1
  As  As2  1  0.99503780  0.68898734  0.68402514  1
  As  As3  1  0.99503780  0.31101266  0.30605045  1
  As  As4  1  0.68713962  0.00000000  0.68713962  1
  As  As5  1  0.31286038  0.00000000  0.31286038  1
  Ir  Ir0  1  0.00000000  0.00000000  0.00000000  1
  Ir  Ir1  1  0.74883433  0.25114484  0.49768950  1
  Ir  Ir2  1  0.50231050  0.25114484  0.75345634  1
  Ir  Ir3  1  0.50231050  0.74885516  0.25116567  1
  Ir  Ir4  1  0.75000000  0.50000000  0.25000000  1
  Ir  Ir5  1  0.24654366  0.74885516  0.49768950  1
  Pd  Pd0  1  0.25000000  0.50000000  0.75000000  1
loop_
_geom_bond_atom_site_label_1
_geom_bond_atom_site_label_2
_geom_bond_distance
_geom_bond_site_symmetry_2
Li0 Pd0 2.833798 1_665
Li1 Pd0 2.833798 1_544
Li2 Pd0 2.833792 1_654
Li3 Pd0 2.833792 1_555
As0 Ir0 2.484734 1_665
As0 Ir4 2.488995 1_555
As0 Ir2 2.496240 1_554
As0 Ir3 2.496241 1_555
As0 Pd0 2.553180 1_554
As0 Li0 2.847492 1_555
As0 Li2 2.847493 1_555
As0 Li3 2.915310 1_554
As0 Li1 2.915316 1_565
As1 Ir0 2.484734 1_555
As1 Ir4 2.488995 1_555
As1 Ir2 2.496235 1_554
As1 Ir3 2.496241 1_555
As1 Pd0 2.553181 1_554
As1 Li1 2.847486 1_555
As1 Li3 2.847493 1_555
As1 Li2 2.915309 1_455
As1 Li0 2.915310 1_444
As2 Ir0 2.484734 1_666
As2 Ir4 2.488995 1_555
As2 Ir5 2.496235 1_655
As2 Ir1 2.496241 1_555
As2 Pd0 2.553180 1_655
As2 Li0 2.847486 1_555
As2 Li3 2.847493 1_555
As2 Li2 2.915310 1_556
As2 Li1 2.915310 1_666
As3 Ir0 2.484734 1_655
As3 Ir4 2.488995 1_555
As3 Ir5 2.496240 1_655
As3 Ir1 2.496241 1_555
As3 Pd0 2.553181 1_655
As3 Li1 2.847492 1_555
As3 Li2 2.847493 1_555
As3 Li3 2.915309 1_655
As3 Li0 2.915316 1_545
As4 Ir3 2.500556 1_545
As4 Ir2 2.500557 1_555
As4 Ir1 2.523011 1_555
As4 Ir5 2.523016 1_545
As4 Ir0 2.526625 1_656
As4 Li1 2.869509 1_556
As4 Li3 2.869510 1_545
As4 Li2 2.869510 1_556
As4 Li0 2.869511 1_545
As5 Ir1 2.500556 1_555
As5 Ir5 2.500557 1_545
As5 Ir3 2.523011 1_545
As5 Ir2 2.523016 1_555
As5 Ir0 2.526625 1_555
As5 Li0 2.869509 1_445
As5 Li2 2.869510 1_445
As5 Li3 2.869510 1_555
As5 Li1 2.869511 1_555
Ir1 Li3 2.821780 1_555
Ir1 Li1 2.821780 1_555
Ir1 Li2 2.857863 1_556
Ir1 Li0 2.857869 1_545
Ir2 Li1 2.821769 1_556
Ir2 Li2 2.821780 1_556
Ir2 Li0 2.857863 1_445
Ir2 Li3 2.857869 1_555
Ir3 Li0 2.821780 1_555
Ir3 Li3 2.821780 1_555
Ir3 Li2 2.857863 1_455
Ir3 Li1 2.857869 1_565
Ir4 Li0 2.814666 1_555
Ir4 Li1 2.814666 1_555
Ir4 Li3 2.814671 1_555
Ir4 Li2 2.814671 1_555
Ir5 Li0 2.821768 1_455
Ir5 Li2 2.821780 1_455
Ir5 Li1 2.857863 1_566
Ir5 Li3 2.857869 1_555
