# generated using pymatgen
data_Rb4ZrTeBr12
_symmetry_space_group_name_H-M   'P 1'
_cell_length_a   7.61687888
_cell_length_b   7.61687888
_cell_length_c   10.98906549
_cell_angle_alpha   90.00000000
_cell_angle_beta   90.00000000
_cell_angle_gamma   90.00000000
_symmetry_Int_Tables_number   1
_chemical_formula_structural   Rb4ZrTeBr12
_chemical_formula_sum   'Rb4 Zr1 Te1 Br12'
_cell_volume   637.55089673
_cell_formula_units_Z   1
loop_
 _symmetry_equiv_pos_site_id
 _symmetry_equiv_pos_as_xyz
  1  'x, y, z'
loop_
 _atom_site_type_symbol
 _atom_site_label
 _atom_site_symmetry_multiplicity
 _atom_site_fract_x
 _atom_site_fract_y
 _atom_site_fract_z
 _atom_site_occupancy
  Rb  Rb0  1  0.50000000  0.00000000  0.75077555  1
  Rb  Rb1  1  0.50000000  0.00000000  0.24922445  1
  Rb  Rb2  1  0.00000000  0.50000000  0.24922445  1
  Rb  Rb3  1  0.00000000  0.50000000  0.75077555  1
  Zr  Zr0  1  0.00000000  0.00000000  0.00000000  1
  Te  Te0  1  0.50000000  0.50000000  0.50000000  1
  Br  Br0  1  0.78974878  0.27440589  0.00000000  1
  Br  Br1  1  0.21025122  0.72559411  0.00000000  1
  Br  Br2  1  0.50000000  0.50000000  0.25226390  1
  Br  Br3  1  0.28365419  0.21679143  0.50000000  1
  Br  Br4  1  0.27440589  0.21025122  0.00000000  1
  Br  Br5  1  0.78320857  0.28365419  0.50000000  1
  Br  Br6  1  0.00000000  0.00000000  0.24021051  1
  Br  Br7  1  0.71634581  0.78320857  0.50000000  1
  Br  Br8  1  0.21679143  0.71634581  0.50000000  1
  Br  Br9  1  0.50000000  0.50000000  0.74773610  1
  Br  Br10  1  0.72559411  0.78974878  0.00000000  1
  Br  Br11  1  0.00000000  0.00000000  0.75978949  1
loop_
_geom_bond_atom_site_label_1
_geom_bond_atom_site_label_2
_geom_bond_distance
_geom_bond_site_symmetry_2
Br0 Zr0 2.633107 1_655
Br0 Rb3 3.608049 1_654
Br0 Rb2 3.608049 1_655
Br1 Zr0 2.633107 1_565
Br1 Rb3 3.608049 1_554
Br1 Rb2 3.608049 1_555
Br2 Te0 2.722388 1_555
Br2 Rb1 3.808586 1_555
Br2 Rb2 3.808586 1_655
Br2 Rb2 3.808586 1_555
Br2 Rb1 3.808586 1_565
Br3 Te0 2.714566 1_555
Br3 Rb0 3.610621 1_555
Br3 Rb1 3.610621 1_555
Br4 Zr0 2.633107 1_555
Br4 Rb0 3.608049 1_554
Br4 Rb1 3.608049 1_555
Br5 Te0 2.714566 1_555
Br5 Rb3 3.610621 1_655
Br5 Rb2 3.610621 1_655
Br6 Zr0 2.639689 1_555
Br6 Rb1 3.809727 1_455
Br6 Rb1 3.809727 1_555
Br6 Rb2 3.809727 1_545
Br6 Rb2 3.809727 1_555
Br7 Te0 2.714566 1_555
Br7 Rb1 3.610621 1_565
Br7 Rb0 3.610621 1_565
Br8 Te0 2.714566 1_555
Br8 Rb3 3.610621 1_555
Br8 Rb2 3.610621 1_555
Br9 Te0 2.722388 1_555
Br9 Rb0 3.808586 1_555
Br9 Rb3 3.808586 1_555
Br9 Rb0 3.808586 1_565
Br9 Rb3 3.808586 1_655
Br10 Zr0 2.633107 1_665
Br10 Rb0 3.608049 1_564
Br10 Rb1 3.608049 1_565
Br11 Zr0 2.639689 1_556
Br11 Rb3 3.809727 1_545
Br11 Rb3 3.809727 1_555
Br11 Rb0 3.809727 1_455
Br11 Rb0 3.809727 1_555
