# generated using pymatgen
data_LaRhC2
_symmetry_space_group_name_H-M   'P 1'
_cell_length_a   3.99129100
_cell_length_b   3.99129100
_cell_length_c   15.41941500
_cell_angle_alpha   90.00000000
_cell_angle_beta   90.00000000
_cell_angle_gamma   90.00000000
_symmetry_Int_Tables_number   1
_chemical_formula_structural   LaRhC2
_chemical_formula_sum   'La4 Rh4 C8'
_cell_volume   245.63750803
_cell_formula_units_Z   4
loop_
 _symmetry_equiv_pos_site_id
 _symmetry_equiv_pos_as_xyz
  1  'x, y, z'
loop_
 _atom_site_type_symbol
 _atom_site_label
 _atom_site_symmetry_multiplicity
 _atom_site_fract_x
 _atom_site_fract_y
 _atom_site_fract_z
 _atom_site_occupancy
  La  La0  1  0.85159300  0.85099100  0.37575200  1
  La  La1  1  0.14900900  0.85159300  0.62575200  1
  La  La2  1  0.85099100  0.14840700  0.12575200  1
  La  La3  1  0.14840700  0.14900900  0.87575200  1
  Rh  Rh0  1  0.65908800  0.64715600  0.96949400  1
  Rh  Rh1  1  0.35284400  0.65908800  0.21949400  1
  Rh  Rh2  1  0.64715600  0.34091200  0.71949400  1
  Rh  Rh3  1  0.34091200  0.35284400  0.46949400  1
  C  C0  1  0.64941700  0.33429300  0.58496800  1
  C  C1  1  0.66570700  0.64941700  0.83496800  1
  C  C2  1  0.33429300  0.35058300  0.33496800  1
  C  C3  1  0.35058300  0.66570700  0.08496800  1
  C  C4  1  0.84652700  0.34619700  0.51348600  1
  C  C5  1  0.65380300  0.84652700  0.76348600  1
  C  C6  1  0.34619700  0.15347300  0.26348600  1
  C  C7  1  0.15347300  0.65380300  0.01348600  1
loop_
_geom_bond_atom_site_label_1
_geom_bond_atom_site_label_2
_geom_bond_distance
_geom_bond_site_symmetry_2
La0 Rh3 3.139541 1_655
La0 Rh3 3.148929 1_665
La0 Rh3 3.193278 1_555
La0 Rh3 3.202509 1_565
La0 Rh1 3.217857 1_555
La0 Rh1 3.224044 1_655
La1 Rh2 3.139541 1_565
La1 Rh2 3.148929 1_465
La1 Rh2 3.193278 1_555
La1 Rh2 3.202509 1_455
La1 Rh3 3.217857 1_555
La1 Rh3 3.224044 1_565
La2 Rh1 3.139541 1_545
La2 Rh1 3.148929 1_645
La2 Rh1 3.193278 1_555
La2 Rh1 3.202509 1_655
La2 Rh0 3.217857 1_554
La2 Rh0 3.224044 1_544
La3 Rh0 3.139541 1_455
La3 Rh0 3.148929 1_445
La3 Rh0 3.193278 1_555
La3 Rh0 3.202509 1_545
La3 Rh2 3.217857 1_555
La3 Rh2 3.224044 1_455
C0 C4 1.355013 1_555
C0 Rh2 2.074500 1_555
C0 Rh3 2.166101 1_555
C0 La1 2.843123 1_645
C0 La1 2.845408 1_545
C0 La1 2.938459 1_655
C0 La1 2.940670 1_555
C1 C5 1.355013 1_555
C1 Rh0 2.074500 1_555
C1 Rh2 2.166101 1_555
C1 La3 2.843123 1_665
C1 La3 2.845408 1_655
C1 La3 2.938459 1_565
C1 La3 2.940670 1_555
C2 C6 1.355013 1_555
C2 Rh3 2.074500 1_555
C2 Rh1 2.166101 1_555
C2 La0 2.843123 1_445
C2 La0 2.845408 1_455
C2 La0 2.938459 1_545
C2 La0 2.940670 1_555
C3 C7 1.355013 1_555
C3 Rh1 2.074500 1_555
C3 Rh0 2.166101 1_554
C3 La2 2.843123 1_465
C3 La2 2.845408 1_565
C3 La2 2.938459 1_455
C3 La2 2.940670 1_555
C4 Rh3 2.086742 1_655
C4 Rh3 2.129176 1_555
C4 La1 2.889859 1_645
C4 La0 2.901282 1_545
C4 La1 2.919453 1_655
C4 La0 2.927487 1_555
C5 Rh2 2.086742 1_565
C5 Rh2 2.129176 1_555
C5 La3 2.889859 1_665
C5 La1 2.901282 1_655
C5 La3 2.919453 1_565
C5 La1 2.927487 1_555
C6 Rh1 2.086742 1_545
C6 Rh1 2.129176 1_555
C6 La0 2.889859 1_445
C6 La2 2.901282 1_455
C6 La0 2.919453 1_545
C6 La2 2.927487 1_555
C7 Rh0 2.086742 1_454
C7 Rh0 2.129176 1_554
C7 La2 2.889859 1_465
C7 La3 2.901282 1_564
C7 La2 2.919453 1_455
C7 La3 2.927487 1_554
