# generated using pymatgen
data_Ti8Al15Co5Pd2
_symmetry_space_group_name_H-M   'P 1'
_cell_length_a   8.44298013
_cell_length_b   8.43756095
_cell_length_c   8.44298146
_cell_angle_alpha   120.02227659
_cell_angle_beta   119.81882047
_cell_angle_gamma   90.15625712
_symmetry_Int_Tables_number   1
_chemical_formula_structural   Ti8Al15Co5Pd2
_chemical_formula_sum   'Ti8 Al15 Co5 Pd2'
_cell_volume   425.73697116
_cell_formula_units_Z   1
loop_
 _symmetry_equiv_pos_site_id
 _symmetry_equiv_pos_as_xyz
  1  'x, y, z'
loop_
 _atom_site_type_symbol
 _atom_site_label
 _atom_site_symmetry_multiplicity
 _atom_site_fract_x
 _atom_site_fract_y
 _atom_site_fract_z
 _atom_site_occupancy
  Ti  Ti0  1  0.79358223  0.29150895  0.07583508  1
  Ti  Ti1  1  0.21567286  0.29150895  0.49792671  1
  Ti  Ti2  1  0.21011171  0.70552880  0.49541709  1
  Ti  Ti3  1  0.21202188  0.71419906  0.92498368  1
  Ti  Ti4  1  0.78921537  0.71419906  0.50217818  1
  Ti  Ti5  1  0.78479670  0.28742854  0.50263184  1
  Ti  Ti6  1  0.38748443  0.13062549  0.74314106  1
  Ti  Ti7  1  0.37880701  0.63931006  0.26050204  1
  Al  Al0  1  0.99724248  0.49757070  0.50032823  1
  Al  Al1  1  0.15819008  0.33863128  0.18044021  1
  Al  Al2  1  0.15290833  0.97197577  0.81906744  1
  Al  Al3  1  0.15747869  0.35109575  0.81921878  1
  Al  Al4  1  0.53187597  0.35109575  0.19361706  1
  Al  Al5  1  0.84103077  0.65780550  0.81677573  1
  Al  Al6  1  0.84827225  0.03002365  0.18175140  1
  Al  Al7  1  0.83572261  0.64925691  0.17344615  1
  Al  Al8  1  0.47581175  0.64925691  0.81353429  1
  Al  Al9  1  0.37786750  0.12386790  0.26642784  1
  Al  Al10  1  0.85744105  0.12386790  0.74600039  1
  Al  Al11  1  0.61484077  0.87250803  0.25766726  1
  Al  Al12  1  0.62215349  0.36083745  0.73868297  1
  Al  Al13  1  0.62352777  0.87578722  0.73643703  1
  Al  Al14  1  0.13934820  0.87578722  0.25225845  1
  Co  Co0  1  0.49677845  0.49445713  0.99767868  1
  Co  Co1  1  0.49703196  0.50164090  0.49736334  1
  Co  Co2  1  0.00427656  0.50164090  0.00460894  1
  Co  Co3  1  0.00070328  0.00039698  0.99969371  1
  Co  Co4  1  0.49688321  0.99884215  0.50195894  1
  Pd  Pd0  1  0.99868411  0.99967155  0.49943800  1
  Pd  Pd1  1  0.50023455  0.99967155  0.00098744  1
loop_
_geom_bond_atom_site_label_1
_geom_bond_atom_site_label_2
_geom_bond_distance
_geom_bond_site_symmetry_2
Ti0 Ti6 2.840691 1_554
Ti1 Ti6 2.840692 1_555
Ti2 Ti7 2.824791 1_555
Ti2 Ti6 2.971689 1_565
Ti3 Ti7 2.869792 1_556
Ti4 Ti7 2.869799 1_555
Al0 Ti5 2.532458 1_555
Al0 Ti2 2.537790 1_655
Al0 Ti4 2.538150 1_555
Al0 Ti3 2.538151 1_655
Al0 Ti1 2.538470 1_655
Al0 Ti0 2.538477 1_555
Al1 Co3 2.417568 1_554
Al1 Co2 2.432830 1_555
Al1 Co1 2.432836 1_555
Al1 Al10 2.691898 1_454
Al1 Al9 2.691906 1_555
Al1 Ti0 2.711564 1_455
Al1 Ti1 2.711572 1_555
Al1 Ti7 2.714547 1_555
Al1 Ti2 2.728157 1_555
Al2 Co3 2.370513 1_565
Al2 Pd0 2.484099 1_455
Al2 Pd1 2.484106 1_556
Al2 Ti4 2.699591 1_455
Al2 Ti3 2.699591 1_555
Al2 Al9 2.743054 1_566
Al2 Ti2 2.815222 1_555
Al3 Co2 2.401978 1_556
Al3 Co0 2.409265 1_555
Al3 Pd0 2.499300 1_445
Al3 Ti3 2.690995 1_555
Al3 Ti7 2.696593 1_556
Al3 Ti5 2.742888 1_455
Al3 Ti1 2.795501 1_555
Al4 Co1 2.401966 1_555
Al4 Co0 2.409267 1_554
Al4 Pd1 2.499304 1_545
Al4 Ti4 2.690998 1_555
Al4 Ti7 2.696593 1_555
Al4 Ti5 2.742891 1_555
Al4 Al9 2.775836 1_555
Al4 Ti0 2.795514 1_555
Al5 Co3 2.449330 1_665
Al5 Co2 2.465357 1_656
Al5 Co1 2.465367 1_555
Al5 Ti5 2.733416 1_555
Al5 Ti4 2.753742 1_555
Al5 Ti3 2.753744 1_655
Al6 Co3 2.380361 1_654
Al6 Pd1 2.484788 1_545
Al6 Pd0 2.484796 1_545
Al6 Ti1 2.729437 1_655
Al6 Ti0 2.729443 1_555
Al6 Ti5 2.811809 1_555
Al7 Co2 2.420544 1_655
Al7 Co0 2.431889 1_554
Al7 Pd0 2.505730 1_555
Al7 Ti0 2.670290 1_555
Al7 Ti4 2.778646 1_555
Al7 Ti2 2.785928 1_655
Al8 Co1 2.420546 1_555
Al8 Co0 2.431891 1_555
Al8 Pd1 2.505730 1_556
Al8 Ti1 2.670295 1_555
Al8 Ti3 2.778646 1_555
Al8 Ti2 2.785931 1_555
Al9 Co4 2.488922 1_545
Al9 Co1 2.605079 1_555
Al9 Co3 2.607577 1_554
Al9 Pd1 2.673313 1_545
Al9 Ti1 2.757207 1_555
Al9 Ti5 2.844575 1_555
Al9 Ti3 2.864794 1_544
Al10 Co4 2.488929 1_545
Al10 Co2 2.605078 1_656
Al10 Co3 2.607577 1_655
Al10 Pd0 2.673299 1_545
Al10 Al2 2.743047 1_645
Al10 Ti0 2.757206 1_556
Al10 Al3 2.775834 1_655
Al10 Al13 2.817456 1_545
Al10 Al12 2.823316 1_555
Al10 Ti5 2.844574 1_555
Al10 Ti4 2.864792 1_545
Al10 Al11 2.918891 1_545
Al11 Co4 2.496157 1_555
Al11 Co0 2.605176 1_554
Al11 Pd0 2.651604 1_555
Al11 Pd1 2.651605 1_555
Al11 Ti7 2.813654 1_555
Al11 Ti3 2.821502 1_554
Al11 Ti4 2.821508 1_555
Al11 Ti5 2.892844 1_565
Al11 Al9 2.918891 1_565
Al12 Co4 2.492733 1_545
Al12 Co2 2.639532 1_656
Al12 Co1 2.639532 1_555
Al12 Co0 2.648539 1_555
Al12 Al8 2.664992 1_555
Al12 Al7 2.665002 1_556
Al12 Al5 2.690351 1_555
Al12 Ti5 2.780714 1_555
Al12 Ti6 2.797562 1_555
Al12 Al9 2.823304 1_555
Al12 Ti1 2.848410 1_555
Al12 Ti0 2.848411 1_556
Al13 Co4 2.469465 1_555
Al13 Co1 2.577225 1_555
Al13 Co3 2.605886 1_665
Al13 Pd1 2.673411 1_556
Al13 Al5 2.691314 1_555
Al13 Al6 2.724942 1_566
Al13 Al8 2.769802 1_555
Al13 Ti4 2.791285 1_555
Al13 Ti7 2.845080 1_555
Al13 Ti2 2.893348 1_555
Al13 Ti0 2.898141 1_566
Al13 Ti6 2.934634 1_565
Al14 Co4 2.469479 1_555
Al14 Co2 2.577224 1_555
Al14 Co3 2.605879 1_564
Al14 Pd0 2.673411 1_455
Al14 Al5 2.691298 1_454
Al14 Al6 2.724928 1_465
Al14 Al7 2.769798 1_455
Al14 Ti3 2.791296 1_554
Al14 Al9 2.817456 1_565
Al14 Ti7 2.845086 1_555
Al14 Ti2 2.893353 1_555
Al14 Ti1 2.898139 1_565
Al14 Ti6 2.934641 1_565
Co0 Ti6 2.510886 1_555
Co0 Ti7 2.626917 1_556
Co0 Ti0 3.026035 1_556
Co0 Ti1 3.026037 1_555
Co0 Ti3 3.047954 1_555
Co0 Ti4 3.047960 1_556
Co1 Ti7 2.586609 1_555
Co1 Ti1 2.963664 1_555
Co1 Ti2 2.973132 1_555
Co1 Ti4 3.017775 1_555
Co1 Ti5 3.027973 1_555
Co2 Ti7 2.586609 1_555
Co2 Ti0 2.963651 1_455
Co2 Ti2 2.973131 1_555
Co2 Ti3 3.017786 1_554
Co2 Ti5 3.027975 1_454
Co3 Ti4 3.005144 1_445
Co3 Ti3 3.005149 1_545
Co3 Ti0 3.010966 1_456
Co3 Ti1 3.010967 1_556
Co4 Ti6 2.417933 1_565
Co4 Ti7 2.475122 1_555
Pd0 Ti6 2.686659 1_665
Pd0 Ti4 3.000547 1_555
Pd0 Ti5 3.027154 1_565
Pd0 Ti2 3.057343 1_655
Pd0 Ti1 3.074082 1_665
Pd1 Ti6 2.686659 1_564
Pd1 Ti3 3.000547 1_554
Pd1 Ti5 3.027154 1_565
Pd1 Ti2 3.057345 1_554
Pd1 Ti0 3.074081 1_565
