# generated using pymatgen
data_Nd3TaO7
_symmetry_space_group_name_H-M   'P 1'
_cell_length_a   6.64210399
_cell_length_b   6.64210399
_cell_length_c   7.69913459
_cell_angle_alpha   90.00000000
_cell_angle_beta   90.00000000
_cell_angle_gamma   109.78490414
_symmetry_Int_Tables_number   1
_chemical_formula_structural   Nd3TaO7
_chemical_formula_sum   'Nd6 Ta2 O14'
_cell_volume   319.61637608
_cell_formula_units_Z   2
loop_
 _symmetry_equiv_pos_site_id
 _symmetry_equiv_pos_as_xyz
  1  'x, y, z'
loop_
 _atom_site_type_symbol
 _atom_site_label
 _atom_site_symmetry_multiplicity
 _atom_site_fract_x
 _atom_site_fract_y
 _atom_site_fract_z
 _atom_site_occupancy
  Nd  Nd0  1  0.50000000  0.50000000  0.50000000  1
  Nd  Nd1  1  0.50000000  0.50000000  -0.00000000  1
  Nd  Nd2  1  0.99928707  0.53560236  0.25000000  1
  Nd  Nd3  1  0.00071293  0.46439764  0.75000000  1
  Nd  Nd4  1  0.53560236  0.99928707  0.75000000  1
  Nd  Nd5  1  0.46439764  0.00071293  0.25000000  1
  Ta  Ta0  1  0.00000000  -0.00000000  0.50000000  1
  Ta  Ta1  1  0.00000000  -0.00000000  -0.00000000  1
  O  O0  1  0.94259614  0.05740386  0.75000000  1
  O  O1  1  0.05740386  0.94259614  0.25000000  1
  O  O2  1  0.36547074  0.63452926  0.25000000  1
  O  O3  1  0.63452926  0.36547074  0.75000000  1
  O  O4  1  0.37053150  0.62946850  0.75000000  1
  O  O5  1  0.62946850  0.37053150  0.25000000  1
  O  O6  1  0.31329684  0.06924607  0.97049785  1
  O  O7  1  0.68670316  0.93075393  0.47049785  1
  O  O8  1  0.31329684  0.06924607  0.52950215  1
  O  O9  1  0.68670316  0.93075393  0.02950215  1
  O  O10  1  0.06924607  0.31329684  0.47049785  1
  O  O11  1  0.93075393  0.68670316  0.97049785  1
  O  O12  1  0.93075393  0.68670316  0.52950215  1
  O  O13  1  0.06924607  0.31329684  0.02950215  1
loop_
_geom_bond_atom_site_label_1
_geom_bond_atom_site_label_2
_geom_bond_distance
_geom_bond_site_symmetry_2
Nd0 O5 2.384203 1_555
Nd0 O4 2.384203 1_555
Nd0 O2 2.417067 1_555
Nd0 O3 2.417067 1_555
Nd0 O8 2.715407 1_555
Nd0 O10 2.715407 1_555
Nd0 O12 2.715407 1_555
Nd0 O7 2.715407 1_555
Nd1 O5 2.384203 1_555
Nd1 O4 2.384203 1_554
Nd1 O2 2.417067 1_555
Nd1 O3 2.417067 1_554
Nd1 O9 2.715407 1_555
Nd1 O6 2.715407 1_554
Nd1 O11 2.715407 1_554
Nd1 O13 2.715407 1_555
Nd2 O2 2.294682 1_655
Nd2 O5 2.326511 1_555
Nd2 O10 2.396390 1_655
Nd2 O13 2.396390 1_655
Nd2 O12 2.480835 1_555
Nd2 O11 2.480835 1_554
Nd2 O1 2.598148 1_655
Nd3 O3 2.294682 1_455
Nd3 O4 2.326511 1_555
Nd3 O12 2.396390 1_455
Nd3 O11 2.396390 1_455
Nd3 O13 2.480835 1_556
Nd3 O10 2.480835 1_555
Nd3 O0 2.598148 1_455
Nd4 O3 2.294682 1_565
Nd4 O4 2.326511 1_555
Nd4 O8 2.396390 1_565
Nd4 O6 2.396390 1_565
Nd4 O9 2.480835 1_556
Nd4 O7 2.480835 1_555
Nd4 O0 2.598148 1_565
Nd5 O2 2.294682 1_545
Nd5 O5 2.326511 1_555
Nd5 O7 2.396390 1_545
Nd5 O9 2.396390 1_545
Nd5 O6 2.480835 1_554
Nd5 O8 2.480835 1_555
Nd5 O1 2.598148 1_545
O0 Ta1 2.023354 1_656
O0 Ta0 2.023354 1_655
O1 Ta1 2.023354 1_565
O1 Ta0 2.023354 1_565
O6 Ta1 1.986340 1_556
O7 Ta0 1.986340 1_665
O8 Ta0 1.986340 1_555
O9 Ta1 1.986340 1_665
O10 Ta0 1.986340 1_555
O11 Ta1 1.986340 1_666
O12 Ta0 1.986340 1_665
O13 Ta1 1.986340 1_555
