# generated using pymatgen
data_Hf3TiPd2C
_symmetry_space_group_name_H-M   'P 1'
_cell_length_a   8.63435824
_cell_length_b   8.63435822
_cell_length_c   8.63435838
_cell_angle_alpha   60.00000314
_cell_angle_beta   60.00000323
_cell_angle_gamma   60.00000423
_symmetry_Int_Tables_number   1
_chemical_formula_structural   Hf3TiPd2C
_chemical_formula_sum   'Hf12 Ti4 Pd8 C4'
_cell_volume   455.17168096
_cell_formula_units_Z   4
loop_
 _symmetry_equiv_pos_site_id
 _symmetry_equiv_pos_as_xyz
  1  'x, y, z'
loop_
 _atom_site_type_symbol
 _atom_site_label
 _atom_site_symmetry_multiplicity
 _atom_site_fract_x
 _atom_site_fract_y
 _atom_site_fract_z
 _atom_site_occupancy
  Hf  Hf0  1  0.43555911  0.43555911  0.06444089  1
  Hf  Hf1  1  0.06444089  0.43555911  0.06444089  1
  Hf  Hf2  1  0.43555911  0.06444089  0.06444089  1
  Hf  Hf3  1  0.06444089  0.06444089  0.43555911  1
  Hf  Hf4  1  0.43555911  0.06444089  0.43555911  1
  Hf  Hf5  1  0.06444089  0.43555911  0.43555911  1
  Hf  Hf6  1  0.81444089  0.81444089  0.18555911  1
  Hf  Hf7  1  0.18555911  0.81444089  0.18555911  1
  Hf  Hf8  1  0.81444089  0.18555911  0.18555911  1
  Hf  Hf9  1  0.18555911  0.18555911  0.81444089  1
  Hf  Hf10  1  0.81444089  0.18555911  0.81444089  1
  Hf  Hf11  1  0.18555911  0.81444089  0.81444089  1
  Ti  Ti0  1  0.62500000  0.62500000  0.12500000  1
  Ti  Ti1  1  0.62500000  0.12500000  0.62500000  1
  Ti  Ti2  1  0.12500000  0.62500000  0.62500000  1
  Ti  Ti3  1  0.62500000  0.62500000  0.62500000  1
  Pd  Pd0  1  0.83575895  0.83575895  0.49272215  1
  Pd  Pd1  1  0.83575895  0.49272215  0.83575895  1
  Pd  Pd2  1  0.49272215  0.83575895  0.83575895  1
  Pd  Pd3  1  0.83575895  0.83575895  0.83575895  1
  Pd  Pd4  1  0.41424105  0.41424105  0.75727785  1
  Pd  Pd5  1  0.41424105  0.75727785  0.41424105  1
  Pd  Pd6  1  0.75727785  0.41424105  0.41424105  1
  Pd  Pd7  1  0.41424105  0.41424105  0.41424105  1
  C  C0  1  0.12500000  0.12500000  0.62500000  1
  C  C1  1  0.12500000  0.62500000  0.12500000  1
  C  C2  1  0.62500000  0.12500000  0.12500000  1
  C  C3  1  0.12500000  0.12500000  0.12500000  1
loop_
_geom_bond_atom_site_label_1
_geom_bond_atom_site_label_2
_geom_bond_distance
_geom_bond_site_symmetry_2
Hf0 Pd4 2.848144 1_554
Hf0 Pd7 2.848153 1_555
Hf1 Pd4 2.848149 1_554
Hf1 Pd6 2.848149 1_455
Hf2 Pd4 2.848149 1_554
Hf2 Pd5 2.848149 1_545
Hf3 Pd6 2.848149 1_455
Hf3 Pd5 2.848149 1_545
Hf4 Pd5 2.848144 1_545
Hf4 Pd7 2.848153 1_555
Hf5 Pd6 2.848144 1_455
Hf5 Pd7 2.848153 1_555
Hf6 Pd0 2.848144 1_555
Hf6 Pd3 2.848153 1_554
Hf7 Pd0 2.848149 1_455
Hf7 Pd2 2.848149 1_554
Hf8 Pd0 2.848149 1_545
Hf8 Pd1 2.848149 1_554
Hf9 Pd2 2.848149 1_545
Hf9 Pd1 2.848149 1_455
Hf10 Pd1 2.848144 1_555
Hf10 Pd3 2.848153 1_545
Hf11 Pd2 2.848144 1_555
Hf11 Pd3 2.848153 1_455
Pd0 Ti3 2.661259 1_555
Pd0 Ti1 2.661266 1_565
Pd0 Ti2 2.661266 1_655
Pd1 Ti3 2.661259 1_555
Pd1 Ti2 2.661266 1_655
Pd1 Ti0 2.661266 1_556
Pd2 Ti3 2.661259 1_555
Pd2 Ti1 2.661266 1_565
Pd2 Ti0 2.661266 1_556
Pd3 Ti0 2.661262 1_556
Pd3 Ti1 2.661262 1_565
Pd3 Ti2 2.661262 1_655
Pd4 Ti3 2.661259 1_555
Pd4 Ti1 2.661266 1_555
Pd4 Ti2 2.661266 1_555
Pd5 Ti3 2.661259 1_555
Pd5 Ti2 2.661266 1_555
Pd5 Ti0 2.661266 1_555
Pd6 Ti3 2.661259 1_555
Pd6 Ti1 2.661266 1_555
Pd6 Ti0 2.661266 1_555
Pd7 Ti0 2.661262 1_555
Pd7 Ti1 2.661262 1_555
Pd7 Ti2 2.661262 1_555
C0 Hf9 2.281739 1_555
C0 Hf3 2.281739 1_555
C0 Hf5 2.281740 1_555
C0 Hf11 2.281740 1_545
C0 Hf4 2.281740 1_555
C0 Hf10 2.281740 1_455
C1 Hf7 2.281739 1_555
C1 Hf1 2.281739 1_555
C1 Hf5 2.281740 1_555
C1 Hf11 2.281740 1_554
C1 Hf0 2.281740 1_555
C1 Hf6 2.281740 1_455
C2 Hf8 2.281739 1_555
C2 Hf2 2.281739 1_555
C2 Hf0 2.281740 1_555
C2 Hf6 2.281740 1_545
C2 Hf10 2.281740 1_554
C2 Hf4 2.281740 1_555
C3 Hf1 2.281739 1_555
C3 Hf7 2.281739 1_545
C3 Hf2 2.281739 1_555
C3 Hf8 2.281739 1_455
C3 Hf3 2.281740 1_555
C3 Hf9 2.281740 1_554
