# generated using pymatgen
data_CrB6(SbRh10)2
_symmetry_space_group_name_H-M   'P 1'
_cell_length_a   8.03659176
_cell_length_b   8.03659229
_cell_length_c   8.03659150
_cell_angle_alpha   59.99999923
_cell_angle_beta   59.99999703
_cell_angle_gamma   59.99999559
_symmetry_Int_Tables_number   1
_chemical_formula_structural   CrB6(SbRh10)2
_chemical_formula_sum   'Cr1 B6 Sb2 Rh20'
_cell_volume   367.02928137
_cell_formula_units_Z   1
loop_
 _symmetry_equiv_pos_site_id
 _symmetry_equiv_pos_as_xyz
  1  'x, y, z'
loop_
 _atom_site_type_symbol
 _atom_site_label
 _atom_site_symmetry_multiplicity
 _atom_site_fract_x
 _atom_site_fract_y
 _atom_site_fract_z
 _atom_site_occupancy
  Cr  Cr0  1  0.00000000  0.00000000  0.00000000  1
  B  B0  1  0.72055798  0.72055798  0.27944202  1
  B  B1  1  0.72055798  0.27944202  0.72055798  1
  B  B2  1  0.27944202  0.72055798  0.27944202  1
  B  B3  1  0.72055798  0.27944202  0.27944202  1
  B  B4  1  0.27944202  0.72055798  0.72055798  1
  B  B5  1  0.27944202  0.27944202  0.72055798  1
  Sb  Sb0  1  0.25000000  0.25000000  0.25000000  1
  Sb  Sb1  1  0.75000000  0.75000000  0.75000000  1
  Rh  Rh0  1  1.00000000  1.00000000  0.66943418  1
  Rh  Rh1  1  0.61921868  0.61921868  0.14234296  1
  Rh  Rh2  1  0.38078132  0.85765704  0.38078132  1
  Rh  Rh3  1  0.66943418  0.33056582  1.00000000  1
  Rh  Rh4  1  0.00000000  0.33056582  0.66943418  1
  Rh  Rh5  1  0.66943418  1.00000000  0.00000000  1
  Rh  Rh6  1  0.00000000  0.00000000  0.33056582  1
  Rh  Rh7  1  0.00000000  0.33056582  1.00000000  1
  Rh  Rh8  1  0.33056582  0.00000000  0.66943418  1
  Rh  Rh9  1  0.66943418  1.00000000  0.33056582  1
  Rh  Rh10  1  0.33056582  0.00000000  1.00000000  1
  Rh  Rh11  1  1.00000000  0.66943418  0.00000000  1
  Rh  Rh12  1  0.38078132  0.38078132  0.85765704  1
  Rh  Rh13  1  1.00000000  0.66943418  0.33056582  1
  Rh  Rh14  1  0.33056582  0.66943418  0.00000000  1
  Rh  Rh15  1  0.61921868  0.14234296  0.61921868  1
  Rh  Rh16  1  0.14234296  0.61921868  0.61921868  1
  Rh  Rh17  1  0.38078132  0.38078132  0.38078132  1
  Rh  Rh18  1  0.85765704  0.38078132  0.38078132  1
  Rh  Rh19  1  0.61921868  0.61921868  0.61921868  1
loop_
_geom_bond_atom_site_label_1
_geom_bond_atom_site_label_2
_geom_bond_distance
_geom_bond_site_symmetry_2
Cr0 Rh8 2.656622 1_554
Cr0 Rh9 2.656622 1_445
Cr0 Rh14 2.656622 1_545
Cr0 Rh3 2.656622 1_454
Cr0 Rh6 2.656622 1_555
Cr0 Rh0 2.656622 1_444
Cr0 Rh10 2.656623 1_554
Cr0 Rh5 2.656623 1_445
Cr0 Rh4 2.656623 1_554
Cr0 Rh13 2.656623 1_445
Cr0 Rh7 2.656623 1_554
Cr0 Rh11 2.656623 1_445
B0 Rh19 2.235728 1_555
B0 Rh2 2.235729 1_555
B0 Rh18 2.235729 1_555
B0 Rh1 2.235735 1_555
B0 Rh11 2.283035 1_555
B0 Rh13 2.283035 1_555
B0 Rh5 2.283035 1_555
B0 Rh9 2.283036 1_555
B1 Rh19 2.235729 1_555
B1 Rh12 2.235729 1_555
B1 Rh18 2.235729 1_555
B1 Rh15 2.235735 1_555
B1 Rh0 2.283035 1_545
B1 Rh3 2.283035 1_555
B1 Rh4 2.283036 1_655
B1 Rh5 2.283036 1_546
B2 Rh17 2.235729 1_555
B2 Rh1 2.235729 1_555
B2 Rh16 2.235729 1_555
B2 Rh2 2.235735 1_555
B2 Rh6 2.283035 1_565
B2 Rh14 2.283035 1_555
B2 Rh13 2.283036 1_455
B2 Rh10 2.283036 1_564
B3 Rh17 2.235728 1_555
B3 Rh15 2.235729 1_555
B3 Rh1 2.235729 1_555
B3 Rh18 2.235735 1_555
B3 Rh7 2.283035 1_654
B3 Rh6 2.283035 1_655
B3 Rh3 2.283035 1_554
B3 Rh9 2.283036 1_545
B4 Rh19 2.235728 1_555
B4 Rh2 2.235729 1_555
B4 Rh12 2.235729 1_555
B4 Rh16 2.235735 1_555
B4 Rh11 2.283035 1_456
B4 Rh0 2.283035 1_455
B4 Rh14 2.283035 1_556
B4 Rh8 2.283036 1_565
B5 Rh17 2.235728 1_555
B5 Rh15 2.235729 1_555
B5 Rh16 2.235729 1_555
B5 Rh12 2.235735 1_555
B5 Rh7 2.283035 1_555
B5 Rh4 2.283035 1_555
B5 Rh10 2.283035 1_555
B5 Rh8 2.283036 1_555
Rh1 Sb1 2.574495 1_554
Rh2 Sb0 2.574496 1_565
Rh12 Sb0 2.574495 1_556
Rh15 Sb1 2.574496 1_545
Rh16 Sb1 2.574495 1_455
Rh17 Sb0 2.574502 1_555
Rh18 Sb0 2.574495 1_655
Rh19 Sb1 2.574502 1_555
