# generated using pymatgen
data_Sr(SmSe2)2
_symmetry_space_group_name_H-M   'P 1'
_cell_length_a   7.77941160
_cell_length_b   7.77939734
_cell_length_c   7.77937251
_cell_angle_alpha   109.37821651
_cell_angle_beta   109.37830244
_cell_angle_gamma   109.65666026
_symmetry_Int_Tables_number   1
_chemical_formula_structural   Sr(SmSe2)2
_chemical_formula_sum   'Sr2 Sm4 Se8'
_cell_volume   362.42270976
_cell_formula_units_Z   2
loop_
 _symmetry_equiv_pos_site_id
 _symmetry_equiv_pos_as_xyz
  1  'x, y, z'
loop_
 _atom_site_type_symbol
 _atom_site_label
 _atom_site_symmetry_multiplicity
 _atom_site_fract_x
 _atom_site_fract_y
 _atom_site_fract_z
 _atom_site_occupancy
  Sr  Sr0  1  0.00000030  -0.00000207  -0.00000165  1
  Sr  Sr1  1  0.25000035  0.74999844  0.49999924  1
  Sm  Sm0  1  0.12499723  0.50072449  0.87568496  1
  Sm  Sm1  1  0.49927578  0.37495771  0.62426923  1
  Sm  Sm2  1  0.62504213  0.24930932  0.12431543  1
  Sm  Sm3  1  0.75069012  0.87500321  0.37573036  1
  Se  Se0  1  0.86302335  0.61467810  0.09965400  1
  Se  Se1  1  0.86484313  0.61307759  0.59960309  1
  Se  Se2  1  0.38532457  0.48497649  0.24834736  1
  Se  Se3  1  0.01347674  0.26523857  0.40038029  1
  Se  Se4  1  0.23663562  0.13697585  0.75165437  1
  Se  Se5  1  0.51502009  0.76336299  0.90034312  1
  Se  Se6  1  0.38690707  0.98652158  0.25176759  1
  Se  Se7  1  0.73476451  0.13517574  0.74825061  1
loop_
_geom_bond_atom_site_label_1
_geom_bond_atom_site_label_2
_geom_bond_distance
_geom_bond_site_symmetry_2
Se0 Sm2 2.932680 1_555
Se0 Sm3 3.004567 1_555
Se0 Sr1 3.056314 1_655
Se0 Sm1 3.176523 1_554
Se0 Sm0 3.243755 1_654
Se0 Sr0 3.265468 1_665
Se1 Sm1 2.934260 1_555
Se1 Sm0 3.003996 1_655
Se1 Sr0 3.056717 1_666
Se1 Sm2 3.176001 1_555
Se1 Sm3 3.243398 1_555
Se1 Sr1 3.264047 1_655
Se2 Sm3 2.932677 1_555
Se2 Sm0 3.004582 1_554
Se2 Sr1 3.056290 1_555
Se2 Sm2 3.176511 1_555
Se2 Sm1 3.243725 1_555
Se2 Sr0 3.265521 1_555
Se3 Sm3 2.934338 1_445
Se3 Sm2 3.003950 1_455
Se3 Sr0 3.056624 1_555
Se3 Sm0 3.176100 1_555
Se3 Sm1 3.243437 1_555
Se3 Sr1 3.264009 1_555
Se4 Sm1 2.932650 1_555
Se4 Sm2 3.004578 1_556
Se4 Sr1 3.056289 1_545
Se4 Sm0 3.176522 1_555
Se4 Sm3 3.243791 1_445
Se4 Sr0 3.265487 1_556
Se5 Sm0 2.932645 1_555
Se5 Sm1 3.004572 1_555
Se5 Sr1 3.056294 1_555
Se5 Sm3 3.176521 1_556
Se5 Sm2 3.243781 1_566
Se5 Sr0 3.265524 1_666
Se6 Sm2 2.934347 1_565
Se6 Sm1 3.003949 1_565
Se6 Sr0 3.056650 1_565
Se6 Sm3 3.176079 1_555
Se6 Sm0 3.243442 1_554
Se6 Sr1 3.263957 1_555
Se7 Sm0 2.934229 1_655
Se7 Sm3 3.004119 1_545
Se7 Sr0 3.056753 1_656
Se7 Sm1 3.175894 1_555
Se7 Sm2 3.243307 1_556
Se7 Sr1 3.264131 1_545
