# generated using pymatgen
data_LiSc(TeO4)2
_symmetry_space_group_name_H-M   'P 1'
_cell_length_a   7.42985760
_cell_length_b   7.42985694
_cell_length_c   5.03540283
_cell_angle_alpha   87.64094902
_cell_angle_beta   87.64094872
_cell_angle_gamma   100.08556991
_symmetry_Int_Tables_number   1
_chemical_formula_structural   LiSc(TeO4)2
_chemical_formula_sum   'Li2 Sc2 Te4 O16'
_cell_volume   273.11018206
_cell_formula_units_Z   2
loop_
 _symmetry_equiv_pos_site_id
 _symmetry_equiv_pos_as_xyz
  1  'x, y, z'
loop_
 _atom_site_type_symbol
 _atom_site_label
 _atom_site_symmetry_multiplicity
 _atom_site_fract_x
 _atom_site_fract_y
 _atom_site_fract_z
 _atom_site_occupancy
  Li  Li0  1  0.33653577  0.66346423  0.75000000  1
  Li  Li1  1  0.66346423  0.33653577  0.25000000  1
  Sc  Sc0  1  0.81679058  0.18320942  0.75000000  1
  Sc  Sc1  1  0.18320942  0.81679058  0.25000000  1
  Te  Te0  1  0.33295112  0.17300853  0.74321216  1
  Te  Te1  1  0.66704888  0.82699147  0.25678784  1
  Te  Te2  1  0.82699147  0.66704888  0.75678784  1
  Te  Te3  1  0.17300853  0.33295112  0.24321216  1
  O  O0  1  0.69396720  0.05921279  0.09927332  1
  O  O1  1  0.30603280  0.94078721  0.90072668  1
  O  O2  1  0.94078721  0.30603280  0.40072668  1
  O  O3  1  0.05921279  0.69396720  0.59927332  1
  O  O4  1  0.80289779  0.91229380  0.57035484  1
  O  O5  1  0.19710221  0.08770620  0.42964516  1
  O  O6  1  0.08770620  0.19710221  0.92964516  1
  O  O7  1  0.91229380  0.80289779  0.07035484  1
  O  O8  1  0.56672337  0.19216263  0.59280425  1
  O  O9  1  0.43327663  0.80783737  0.40719575  1
  O  O10  1  0.80783737  0.43327663  0.90719575  1
  O  O11  1  0.19216263  0.56672337  0.09280425  1
  O  O12  1  0.59331481  0.69214339  0.94418401  1
  O  O13  1  0.40668519  0.30785661  0.05581599  1
  O  O14  1  0.30785661  0.40668519  0.55581599  1
  O  O15  1  0.69214339  0.59331481  0.44418401  1
loop_
_geom_bond_atom_site_label_1
_geom_bond_atom_site_label_2
_geom_bond_distance
_geom_bond_site_symmetry_2
Li0 O9 2.030338 1_555
Li0 O11 2.030338 1_556
Li0 O14 2.160937 1_555
Li0 O12 2.160938 1_555
Li0 O1 2.269596 1_555
Li0 O3 2.269596 1_555
Li1 O8 2.030338 1_555
Li1 O10 2.030338 1_554
Li1 O15 2.160937 1_555
Li1 O13 2.160938 1_555
Li1 O0 2.269596 1_555
Li1 O2 2.269596 1_555
O0 Te1 1.843751 1_545
O0 Sc0 2.052972 1_554
O1 Te0 1.843751 1_565
O1 Sc1 2.052972 1_556
O2 Te3 1.843751 1_655
O2 Sc0 2.052972 1_555
O3 Te2 1.843751 1_455
O3 Sc1 2.052972 1_555
O4 Te1 1.975605 1_555
O4 Te2 2.054449 1_555
O4 Sc0 2.228310 1_565
O5 Te0 1.975605 1_555
O5 Te3 2.054449 1_555
O5 Sc1 2.228310 1_545
O6 Te3 1.975605 1_556
O6 Te0 2.054449 1_555
O6 Sc0 2.228310 1_455
O7 Te2 1.975605 1_554
O7 Te1 2.054449 1_555
O7 Sc1 2.228310 1_655
O8 Te0 1.845784 1_555
O8 Sc0 2.059859 1_555
O9 Te1 1.845784 1_555
O9 Sc1 2.059859 1_555
O10 Te2 1.845784 1_555
O10 Sc0 2.059859 1_555
O11 Te3 1.845784 1_555
O11 Sc1 2.059859 1_555
O12 Te1 1.946859 1_556
O12 Te2 1.983053 1_555
O13 Te0 1.946859 1_554
O13 Te3 1.983053 1_555
O14 Te3 1.946859 1_555
O14 Te0 1.983053 1_555
O15 Te2 1.946859 1_555
O15 Te1 1.983053 1_555
