# generated using pymatgen
data_Lu6Al13Os7W3
_symmetry_space_group_name_H-M   'P 1'
_cell_length_a   8.86928257
_cell_length_b   8.86928286
_cell_length_c   8.86928316
_cell_angle_alpha   59.68429055
_cell_angle_beta   59.68429000
_cell_angle_gamma   59.68428121
_symmetry_Int_Tables_number   1
_chemical_formula_structural   Lu6Al13Os7W3
_chemical_formula_sum   'Lu6 Al13 Os7 W3'
_cell_volume   489.80645435
_cell_formula_units_Z   1
loop_
 _symmetry_equiv_pos_site_id
 _symmetry_equiv_pos_as_xyz
  1  'x, y, z'
loop_
 _atom_site_type_symbol
 _atom_site_label
 _atom_site_symmetry_multiplicity
 _atom_site_fract_x
 _atom_site_fract_y
 _atom_site_fract_z
 _atom_site_occupancy
  Lu  Lu0  1  0.70791654  0.70791654  0.28694710  1
  Lu  Lu1  1  0.29323866  0.70843853  0.29323866  1
  Lu  Lu2  1  0.70843853  0.29323866  0.29323866  1
  Lu  Lu3  1  0.29323866  0.29323866  0.70843853  1
  Lu  Lu4  1  0.70791654  0.28694710  0.70791654  1
  Lu  Lu5  1  0.28694710  0.70791654  0.70791654  1
  Al  Al0  1  0.88039029  0.88039029  0.88039029  1
  Al  Al1  1  0.12074742  0.12074742  0.63866071  1
  Al  Al2  1  0.12074742  0.63866071  0.12074742  1
  Al  Al3  1  0.63866071  0.12074742  0.12074742  1
  Al  Al4  1  0.12248119  0.12248119  0.12248119  1
  Al  Al5  1  0.66878943  0.66878943  0.99932611  1
  Al  Al6  1  0.66878943  0.99932611  0.66878943  1
  Al  Al7  1  0.99932611  0.66878943  0.66878943  1
  Al  Al8  1  0.66152134  0.66152134  0.66152134  1
  Al  Al9  1  0.33062469  0.33062469  0.01004918  1
  Al  Al10  1  0.33062469  0.01004918  0.33062469  1
  Al  Al11  1  0.01004918  0.33062469  0.33062469  1
  Al  Al12  1  0.33153560  0.33153560  0.33153560  1
  Os  Os0  1  0.00491105  0.00491105  0.00491105  1
  Os  Os1  1  0.99668424  0.99668424  0.49605687  1
  Os  Os2  1  0.50548977  0.99452303  0.50548977  1
  Os  Os3  1  0.99452303  0.50548977  0.50548977  1
  Os  Os4  1  0.50548977  0.50548977  0.99452303  1
  Os  Os5  1  0.99668424  0.49605687  0.99668424  1
  Os  Os6  1  0.49605687  0.99668424  0.99668424  1
  W  W0  1  0.87727783  0.87727783  0.36362187  1
  W  W1  1  0.87727783  0.36362187  0.87727783  1
  W  W2  1  0.36362187  0.87727783  0.87727783  1
loop_
_geom_bond_atom_site_label_1
_geom_bond_atom_site_label_2
_geom_bond_distance
_geom_bond_site_symmetry_2
Lu0 W0 3.052129 1_555
Lu0 Os5 3.175976 1_554
Lu0 Os6 3.175976 1_554
Lu0 Os3 3.208711 1_555
Lu0 Os2 3.208711 1_555
Lu1 W0 3.047024 1_455
Lu1 W2 3.047025 1_554
Lu1 Os1 3.125325 1_455
Lu1 Os6 3.125325 1_554
Lu1 Os4 3.187739 1_554
Lu1 Os3 3.187739 1_455
Lu2 W0 3.047024 1_545
Lu2 W1 3.047025 1_554
Lu2 Os1 3.125325 1_545
Lu2 Os5 3.125325 1_554
Lu2 Os4 3.187739 1_554
Lu2 Os2 3.187739 1_545
Lu3 W1 3.047024 1_455
Lu3 W2 3.047024 1_545
Lu3 Os5 3.125325 1_455
Lu3 Os6 3.125325 1_545
Lu3 Os3 3.187739 1_455
Lu3 Os2 3.187739 1_545
Lu4 W1 3.052129 1_555
Lu4 Os1 3.175976 1_545
Lu4 Os6 3.175976 1_545
Lu4 Os4 3.208711 1_555
Lu4 Os3 3.208711 1_555
Lu5 W2 3.052129 1_555
Lu5 Os1 3.175976 1_455
Lu5 Os5 3.175976 1_455
Lu5 Os4 3.208711 1_555
Lu5 Os2 3.208711 1_555
Al0 Os0 2.711677 1_666
Al0 Al6 2.777710 1_555
Al0 Al7 2.777710 1_555
Al0 Al5 2.777710 1_555
Al0 Os6 2.778943 1_555
Al0 Os5 2.778943 1_555
Al0 Os1 2.778943 1_555
Al0 Lu5 2.984568 1_655
Al0 Lu4 2.984568 1_565
Al0 Lu0 2.984569 1_556
Al0 Al2 3.007566 1_656
Al0 Al3 3.007566 1_566
Al0 Al1 3.007566 1_665
Al1 Os0 2.643919 1_556
Al1 Al10 2.760792 1_555
Al1 Al11 2.760792 1_555
Al1 Al12 2.767071 1_555
Al1 Os2 2.775278 1_545
Al1 Os3 2.775278 1_455
Al1 Os1 2.837872 1_445
Al1 W2 3.012479 1_545
Al1 W1 3.012479 1_455
Al1 Lu4 3.025173 1_455
Al1 Lu5 3.025173 1_545
Al1 Lu3 3.055898 1_555
Al2 Os0 2.643919 1_565
Al2 Al9 2.760791 1_555
Al2 Os4 2.775278 1_554
Al2 Os3 2.775278 1_455
Al2 Os5 2.837872 1_454
Al2 W0 3.012479 1_455
Al2 W2 3.012479 1_554
Al2 Lu0 3.025173 1_455
Al2 Lu5 3.025173 1_554
Al2 Lu1 3.055898 1_555
Al3 Os0 2.643918 1_655
Al3 Al9 2.760791 1_555
Al3 Os4 2.775278 1_554
Al3 Os2 2.775278 1_545
Al3 Os6 2.837872 1_544
Al3 W0 3.012479 1_545
Al3 W1 3.012479 1_554
Al3 Lu0 3.025173 1_545
Al3 Lu4 3.025173 1_554
Al3 Lu2 3.055898 1_555
Al4 Os0 2.560314 1_555
Al4 Os6 2.694558 1_544
Al4 Os5 2.694558 1_454
Al4 Os1 2.694558 1_445
Al4 Al9 2.744824 1_555
Al4 Lu2 3.026419 1_455
Al4 Lu1 3.026419 1_545
Al4 Lu3 3.026420 1_554
Al4 W1 3.068720 1_454
Al4 W2 3.068720 1_544
Al4 W0 3.068720 1_445
Al5 Os5 2.504954 1_555
Al5 Os6 2.504954 1_555
Al5 Os4 2.537625 1_555
Al5 W2 2.793081 1_555
Al5 W1 2.793081 1_555
Al5 Lu0 2.942347 1_556
Al5 Lu1 2.998505 1_556
Al5 Lu2 2.998506 1_556
Al6 Os1 2.504955 1_555
Al6 Os6 2.504955 1_555
Al6 Os2 2.537625 1_555
Al6 W0 2.793081 1_555
Al6 W2 2.793081 1_555
Al6 Lu4 2.942347 1_565
Al6 Lu3 2.998505 1_565
Al6 Lu2 2.998506 1_565
Al7 Os1 2.504955 1_555
Al7 Os5 2.504955 1_555
Al7 Os3 2.537625 1_555
Al7 W0 2.793081 1_555
Al7 W1 2.793081 1_555
Al7 Lu5 2.942347 1_655
Al7 Lu3 2.998505 1_655
Al7 Lu1 2.998506 1_655
Al8 Os3 2.496855 1_555
Al8 Os2 2.496855 1_555
Al8 Os4 2.496856 1_555
Al8 W2 2.791611 1_555
Al8 W1 2.791611 1_555
Al8 W0 2.791611 1_555
Al8 Lu5 2.964196 1_555
Al8 Lu4 2.964197 1_555
Al8 Lu0 2.964197 1_555
Al9 Os5 2.594402 1_454
Al9 Os6 2.594402 1_544
Al9 Os4 2.612815 1_554
Al9 Lu4 3.035687 1_554
Al9 Lu5 3.035687 1_554
Al9 Lu3 3.045955 1_554
Al10 Os1 2.594402 1_445
Al10 Os6 2.594403 1_544
Al10 Os2 2.612815 1_545
Al10 Al4 2.744824 1_555
Al10 Al3 2.760792 1_555
Al10 Lu0 3.035687 1_545
Al10 Lu5 3.035687 1_545
Al10 Lu1 3.045955 1_545
Al11 Os1 2.594403 1_445
Al11 Os5 2.594403 1_454
Al11 Os3 2.612815 1_455
Al11 Al4 2.744824 1_555
Al11 Al2 2.760792 1_555
Al11 Lu0 3.035687 1_455
Al11 Lu4 3.035687 1_455
Al11 Lu2 3.045955 1_455
Al12 Os3 2.605203 1_455
Al12 Os2 2.605204 1_545
Al12 Os4 2.605204 1_554
Al12 Al3 2.767070 1_555
Al12 Al2 2.767070 1_555
Al12 Lu2 3.037988 1_555
Al12 Lu1 3.037988 1_555
Al12 Lu3 3.037988 1_555
Os0 W2 2.589770 1_544
Os0 W1 2.589770 1_454
Os0 W0 2.589771 1_445
Os1 W0 2.695695 1_555
Os2 W0 2.684889 1_555
Os2 W2 2.684889 1_555
Os3 W0 2.684889 1_555
Os3 W1 2.684889 1_555
Os4 W1 2.684889 1_555
Os4 W2 2.684889 1_555
Os5 W1 2.695695 1_555
Os6 W2 2.695695 1_555
