# generated using pymatgen
data_GaAsO4
_symmetry_space_group_name_H-M   'P 1'
_cell_length_a   4.98590366
_cell_length_b   4.98590212
_cell_length_c   11.46265941
_cell_angle_alpha   90.00000000
_cell_angle_beta   90.00000000
_cell_angle_gamma   119.99999695
_symmetry_Int_Tables_number   1
_chemical_formula_structural   GaAsO4
_chemical_formula_sum   'Ga3 As3 O12'
_cell_volume   246.77642283
_cell_formula_units_Z   3
loop_
 _symmetry_equiv_pos_site_id
 _symmetry_equiv_pos_as_xyz
  1  'x, y, z'
loop_
 _atom_site_type_symbol
 _atom_site_label
 _atom_site_symmetry_multiplicity
 _atom_site_fract_x
 _atom_site_fract_y
 _atom_site_fract_z
 _atom_site_occupancy
  Ga  Ga0  1  0.44848618  -0.00000000  0.33333300  1
  Ga  Ga1  1  0.00000000  0.44848618  0.66666700  1
  Ga  Ga2  1  0.55151382  0.55151382  0.00000000  1
  As  As0  1  0.44670408  0.00000000  0.83333300  1
  As  As1  1  -0.00000000  0.44670408  0.16666700  1
  As  As2  1  0.55329592  0.55329592  0.50000000  1
  O  O0  1  0.29901001  0.39516517  0.12904844  1
  O  O1  1  0.60483483  0.90384384  0.46238144  1
  O  O2  1  0.09615616  0.70098999  0.79571544  1
  O  O3  1  0.90384384  0.60483483  0.53761856  1
  O  O4  1  0.70098999  0.09615616  0.20428456  1
  O  O5  1  0.39516517  0.29901001  0.87095156  1
  O  O6  1  0.39606753  0.32070897  0.38236451  1
  O  O7  1  0.67929103  0.07535756  0.71569751  1
  O  O8  1  0.92464244  0.60393247  0.04903151  1
  O  O9  1  0.07535756  0.67929103  0.28430249  1
  O  O10  1  0.60393247  0.92464244  0.95096849  1
  O  O11  1  0.32070897  0.39606753  0.61763549  1
loop_
_geom_bond_atom_site_label_1
_geom_bond_atom_site_label_2
_geom_bond_distance
_geom_bond_site_symmetry_2
Ga0 O9 1.832750 1_545
Ga0 O6 1.832750 1_555
Ga0 O4 1.843745 1_555
Ga0 O1 1.843748 1_545
Ga1 O7 1.832750 1_455
Ga1 O11 1.832751 1_555
Ga1 O2 1.843745 1_555
Ga1 O3 1.843748 1_455
Ga2 O10 1.832755 1_554
Ga2 O8 1.832755 1_555
Ga2 O5 1.843746 1_554
Ga2 O0 1.843746 1_555
As0 O2 1.690455 1_545
As0 O5 1.690461 1_555
As0 O10 1.693657 1_545
As0 O7 1.693660 1_555
As1 O4 1.690455 1_455
As1 O0 1.690461 1_555
As1 O8 1.693657 1_455
As1 O9 1.693660 1_555
As2 O1 1.690456 1_555
As2 O3 1.690457 1_555
As2 O6 1.693659 1_555
As2 O11 1.693659 1_555
