# generated using pymatgen
data_Rb5Cr(MoH9)3
_symmetry_space_group_name_H-M   'P 1'
_cell_length_a   9.77641874
_cell_length_b   9.11693311
_cell_length_c   5.26507972
_cell_angle_alpha   90.00000000
_cell_angle_beta   90.00000000
_cell_angle_gamma   117.79256599
_symmetry_Int_Tables_number   1
_chemical_formula_structural   Rb5Cr(MoH9)3
_chemical_formula_sum   'Rb5 Cr1 Mo3 H27'
_cell_volume   415.14595823
_cell_formula_units_Z   1
loop_
 _symmetry_equiv_pos_site_id
 _symmetry_equiv_pos_as_xyz
  1  'x, y, z'
loop_
 _atom_site_type_symbol
 _atom_site_label
 _atom_site_symmetry_multiplicity
 _atom_site_fract_x
 _atom_site_fract_y
 _atom_site_fract_z
 _atom_site_occupancy
  Rb  Rb0  1  0.73426987  0.75332435  0.50000000  1
  Rb  Rb1  1  0.26573013  0.01905448  0.50000000  1
  Rb  Rb2  1  0.00000000  0.62170186  0.00000000  1
  Rb  Rb3  1  0.42971631  0.38970184  0.00000000  1
  Rb  Rb4  1  0.57028369  0.95998553  0.00000000  1
  Cr  Cr0  1  0.00000000  0.26854858  0.50000000  1
  Mo  Mo0  1  0.71830695  0.32025190  0.50000000  1
  Mo  Mo1  1  0.28169305  0.60194595  0.50000000  1
  Mo  Mo2  1  0.00000000  0.06932413  0.00000000  1
  H  H0  1  0.88850035  0.32168017  0.68538119  1
  H  H1  1  0.71422764  0.41517636  0.77298962  1
  H  H2  1  0.56337090  0.20356121  0.69202845  1
  H  H3  1  0.11149965  0.43318181  0.31461881  1
  H  H4  1  0.56337090  0.20356121  0.30797155  1
  H  H5  1  0.88850035  0.32168017  0.31461881  1
  H  H6  1  0.71422764  0.41517636  0.22701038  1
  H  H7  1  0.28577236  0.70094971  0.77298962  1
  H  H8  1  0.43662910  0.64019131  0.69202845  1
  H  H9  1  0.17489256  0.06739697  0.00000000  1
  H  H10  1  0.82510744  0.89250341  0.00000000  1
  H  H11  1  0.00000000  0.25655335  0.00000000  1
  H  H12  1  0.88618715  0.07936519  0.26219916  1
  H  H13  1  0.11381285  0.19317903  0.73780084  1
  H  H14  1  0.00000000  0.92641214  0.78056477  1
  H  H15  1  0.00000000  0.92641214  0.21943523  1
  H  H16  1  0.11381285  0.19317903  0.26219916  1
  H  H17  1  0.88618715  0.07936519  0.73780084  1
  H  H18  1  0.14585581  0.67530220  0.50000000  1
  H  H19  1  0.41261310  0.80942065  0.50000000  1
  H  H20  1  0.30922908  0.42528305  0.50000000  1
  H  H21  1  0.58738690  0.39680755  0.50000000  1
  H  H22  1  0.85414419  0.52944639  0.50000000  1
  H  H23  1  0.69077092  0.11605398  0.50000000  1
  H  H24  1  0.11149965  0.43318181  0.68538119  1
  H  H25  1  0.28577236  0.70094971  0.22701038  1
  H  H26  1  0.43662910  0.64019131  0.30797155  1
loop_
_geom_bond_atom_site_label_1
_geom_bond_atom_site_label_2
_geom_bond_distance
_geom_bond_site_symmetry_2
Cr0 H0 1.693506 1_455
Cr0 H5 1.693506 1_455
Cr0 H24 1.693516 1_555
Cr0 H3 1.693516 1_555
Cr0 H13 1.997703 1_555
Cr0 H16 1.997703 1_555
Cr0 H17 1.997709 1_455
Cr0 H12 1.997709 1_455
H0 Mo0 1.923833 1_555
H0 Rb2 2.938274 1_656
H1 Mo0 1.687778 1_555
H1 Rb2 2.806011 1_656
H1 Rb3 2.935445 1_556
H2 Mo0 1.716287 1_555
H2 Rb4 2.775808 1_546
H2 Rb1 2.784688 1_555
H2 Rb3 3.047031 1_556
H3 Mo1 1.923830 1_555
H3 Rb2 2.938261 1_555
H4 Mo0 1.716287 1_555
H4 Rb4 2.775808 1_545
H4 Rb1 2.784688 1_555
H4 Rb3 3.047031 1_555
H5 Mo0 1.923833 1_555
H5 Rb2 2.938274 1_655
H6 Mo0 1.687778 1_555
H6 Rb2 2.806011 1_655
H6 Rb3 2.935445 1_555
H7 Mo1 1.687778 1_555
H7 Rb2 2.806009 1_556
H7 Rb4 2.935441 1_556
H8 Mo1 1.716287 1_555
H8 Rb3 2.775816 1_556
H8 Rb0 2.784689 1_555
H8 Rb4 3.047024 1_556
H9 Mo2 1.718085 1_555
H9 Rb3 2.830932 1_555
H9 Rb1 2.877182 1_555
H9 Rb1 2.877182 1_554
H10 Mo2 1.718089 1_665
H10 Rb4 2.830939 1_555
H10 Rb0 2.877179 1_554
H10 Rb0 2.877179 1_555
H11 Mo2 1.706956 1_555
H12 Mo2 1.802001 1_655
H12 Rb0 2.914137 1_545
H12 Rb4 3.081231 1_545
H13 Mo2 1.802004 1_556
H13 Rb1 2.914145 1_555
H13 Rb3 3.081229 1_556
H14 Mo2 1.741384 1_566
H14 Rb0 2.756503 1_455
H14 Rb1 2.756503 1_565
H14 Rb2 3.008693 1_556
H15 Mo2 1.741384 1_565
H15 Rb0 2.756503 1_455
H15 Rb1 2.756503 1_565
H15 Rb2 3.008693 1_555
H16 Mo2 1.802004 1_555
H16 Rb1 2.914145 1_555
H16 Rb3 3.081229 1_555
H17 Mo2 1.802001 1_656
H17 Rb0 2.914137 1_545
H17 Rb4 3.081231 1_546
H18 Mo1 1.743300 1_555
H18 Rb1 2.787494 1_565
H18 Rb2 2.924479 1_556
H18 Rb2 2.924479 1_555
H19 Mo1 1.720000 1_555
H19 Rb1 2.876486 1_565
H19 Rb4 3.036020 1_555
H19 Rb4 3.036020 1_556
H20 Mo1 1.752403 1_555
H20 Rb3 2.962998 1_556
H20 Rb3 2.962998 1_555
H21 Mo0 1.720008 1_555
H21 Rb0 2.876486 1_555
H21 Rb3 3.036020 1_556
H21 Rb3 3.036020 1_555
H22 Mo0 1.743307 1_555
H22 Rb0 2.787495 1_555
H22 Rb2 2.924479 1_655
H22 Rb2 2.924479 1_656
H23 Mo0 1.752394 1_555
H23 Rb4 2.962998 1_545
H23 Rb4 2.962998 1_546
H24 Mo1 1.923830 1_555
H24 Rb2 2.938261 1_556
H25 Mo1 1.687778 1_555
H25 Rb2 2.806009 1_555
H25 Rb4 2.935441 1_555
H26 Mo1 1.716287 1_555
H26 Rb3 2.775816 1_555
H26 Rb0 2.784689 1_555
H26 Rb4 3.047024 1_555
