# generated using pymatgen
data_Ag2S
_symmetry_space_group_name_H-M   'P 1'
_cell_length_a   4.35030852
_cell_length_b   4.46495418
_cell_length_c   8.76050011
_cell_angle_alpha   119.46941404
_cell_angle_beta   118.58131409
_cell_angle_gamma   92.04381725
_symmetry_Int_Tables_number   1
_chemical_formula_structural   Ag2S
_chemical_formula_sum   'Ag4 S2'
_cell_volume   121.64540292
_cell_formula_units_Z   2
loop_
 _symmetry_equiv_pos_site_id
 _symmetry_equiv_pos_as_xyz
  1  'x, y, z'
loop_
 _atom_site_type_symbol
 _atom_site_label
 _atom_site_symmetry_multiplicity
 _atom_site_fract_x
 _atom_site_fract_y
 _atom_site_fract_z
 _atom_site_occupancy
  Ag  Ag0  1  0.58874828  0.27758326  0.83890750  1
  Ag  Ag1  1  0.21572765  0.61541989  0.31798362  1
  Ag  Ag2  1  0.91093328  0.59976727  0.66109250  1
  Ag  Ag3  1  0.57976041  0.97945366  0.18201638  1
  S  S0  1  0.91882355  0.95529632  0.50390736  1
  S  S1  1  0.91100983  0.94748060  0.99609264  1
loop_
_geom_bond_atom_site_label_1
_geom_bond_atom_site_label_2
_geom_bond_distance
_geom_bond_site_symmetry_2
Ag0 S1 2.516184 1_545
Ag0 S0 2.557189 1_445
Ag0 S1 2.570862 1_555
Ag1 S0 2.518905 1_455
Ag1 S1 2.543642 1_444
Ag1 S0 2.604143 1_555
Ag2 S0 2.516174 1_545
Ag2 S1 2.557187 1_555
Ag2 S0 2.570868 1_555
Ag3 S1 2.518899 1_454
Ag3 S0 2.543642 1_555
Ag3 S1 2.604144 1_554
