# generated using pymatgen
data_Lu3Sc2Sn3P
_symmetry_space_group_name_H-M   'P 1'
_cell_length_a   8.74717629
_cell_length_b   8.74717524
_cell_length_c   6.37722492
_cell_angle_alpha   90.00000000
_cell_angle_beta   90.00000000
_cell_angle_gamma   119.99998908
_symmetry_Int_Tables_number   1
_chemical_formula_structural   Lu3Sc2Sn3P
_chemical_formula_sum   'Lu6 Sc4 Sn6 P2'
_cell_volume   422.56947388
_cell_formula_units_Z   2
loop_
 _symmetry_equiv_pos_site_id
 _symmetry_equiv_pos_as_xyz
  1  'x, y, z'
loop_
 _atom_site_type_symbol
 _atom_site_label
 _atom_site_symmetry_multiplicity
 _atom_site_fract_x
 _atom_site_fract_y
 _atom_site_fract_z
 _atom_site_occupancy
  Lu  Lu0  1  0.75682987  0.75682987  0.75000000  1
  Lu  Lu1  1  0.24317013  0.00000000  0.75000000  1
  Lu  Lu2  1  0.00000000  0.24317013  0.75000000  1
  Lu  Lu3  1  0.24317013  0.24317013  0.25000000  1
  Lu  Lu4  1  0.75682987  1.00000000  0.25000000  1
  Lu  Lu5  1  1.00000000  0.75682987  0.25000000  1
  Sc  Sc0  1  0.66666700  0.33333300  0.00000000  1
  Sc  Sc1  1  0.33333300  0.66666700  0.00000000  1
  Sc  Sc2  1  0.33333300  0.66666700  0.50000000  1
  Sc  Sc3  1  0.66666700  0.33333300  0.50000000  1
  Sn  Sn0  1  0.40222172  0.40222172  0.75000000  1
  Sn  Sn1  1  0.59777828  0.00000000  0.75000000  1
  Sn  Sn2  1  0.00000000  0.59777828  0.75000000  1
  Sn  Sn3  1  0.59777828  0.59777828  0.25000000  1
  Sn  Sn4  1  0.40222172  1.00000000  0.25000000  1
  Sn  Sn5  1  1.00000000  0.40222172  0.25000000  1
  P  P0  1  0.00000000  0.00000000  0.00000000  1
  P  P1  1  0.00000000  0.00000000  0.50000000  1
loop_
_geom_bond_atom_site_label_1
_geom_bond_atom_site_label_2
_geom_bond_distance
_geom_bond_site_symmetry_2
Lu0 P1 2.658226 1_665
Lu0 P0 2.658226 1_666
Lu0 Sn1 3.069071 1_565
Lu0 Sn2 3.069071 1_655
Lu0 Sn0 3.101820 1_555
Lu0 Sn3 3.478913 1_555
Lu0 Sn3 3.478913 1_556
Lu1 P1 2.658225 1_555
Lu1 P0 2.658225 1_556
Lu1 Sn0 3.069071 1_555
Lu1 Sn2 3.069071 1_545
Lu1 Sn1 3.101820 1_555
Lu1 Sn4 3.478913 1_546
Lu1 Sn4 3.478913 1_545
Lu2 P0 2.658225 1_556
Lu2 P1 2.658225 1_555
Lu2 Sn0 3.069072 1_555
Lu2 Sn1 3.069072 1_455
Lu2 Sn2 3.101820 1_555
Lu2 Sn5 3.478912 1_455
Lu2 Sn5 3.478912 1_456
Lu3 P0 2.658226 1_555
Lu3 P1 2.658226 1_555
Lu3 Sn4 3.069071 1_545
Lu3 Sn5 3.069071 1_455
Lu3 Sn3 3.101820 1_555
Lu3 Sn0 3.478913 1_555
Lu3 Sn0 3.478913 1_554
Lu4 P1 2.658225 1_665
Lu4 P0 2.658225 1_665
Lu4 Sn3 3.069071 1_555
Lu4 Sn5 3.069071 1_565
Lu4 Sn4 3.101820 1_555
Lu4 Sn1 3.478913 1_565
Lu4 Sn1 3.478913 1_564
Lu5 P1 2.658225 1_665
Lu5 P0 2.658225 1_665
Lu5 Sn3 3.069072 1_555
Lu5 Sn4 3.069072 1_655
Lu5 Sn5 3.101820 1_555
Lu5 Sn2 3.478912 1_655
Lu5 Sn2 3.478912 1_654
Sc0 Sn1 3.106347 1_554
Sc0 Sn5 3.106347 1_555
Sc0 Sn4 3.106350 1_545
Sc0 Sn2 3.106350 1_654
Sc0 Sn3 3.106354 1_555
Sc0 Sn0 3.106355 1_554
Sc1 Sn4 3.106347 1_555
Sc1 Sn2 3.106347 1_554
Sc1 Sn1 3.106350 1_564
Sc1 Sn5 3.106350 1_455
Sc1 Sn0 3.106354 1_554
Sc1 Sn3 3.106355 1_555
Sc2 Sn4 3.106347 1_555
Sc2 Sn2 3.106347 1_555
Sc2 Sn1 3.106350 1_565
Sc2 Sn5 3.106350 1_455
Sc2 Sn0 3.106354 1_555
Sc2 Sn3 3.106355 1_555
Sc3 Sn1 3.106347 1_555
Sc3 Sn5 3.106347 1_555
Sc3 Sn4 3.106350 1_545
Sc3 Sn2 3.106350 1_655
Sc3 Sn3 3.106354 1_555
Sc3 Sn0 3.106355 1_555
