# generated using pymatgen
data_Nd5Si4
_symmetry_space_group_name_H-M   'P 1'
_cell_length_a   7.90158778
_cell_length_b   7.90158674
_cell_length_c   15.15507021
_cell_angle_alpha   90.00000000
_cell_angle_beta   90.00000000
_cell_angle_gamma   89.99998492
_symmetry_Int_Tables_number   1
_chemical_formula_structural   Nd5Si4
_chemical_formula_sum   'Nd20 Si16'
_cell_volume   946.20803957
_cell_formula_units_Z   4
loop_
 _symmetry_equiv_pos_site_id
 _symmetry_equiv_pos_as_xyz
  1  'x, y, z'
loop_
 _atom_site_type_symbol
 _atom_site_label
 _atom_site_symmetry_multiplicity
 _atom_site_fract_x
 _atom_site_fract_y
 _atom_site_fract_z
 _atom_site_occupancy
  Nd  Nd0  1  0.48138447  0.37268928  0.12505031  1
  Nd  Nd1  1  0.98138647  0.12731072  0.62494969  1
  Nd  Nd2  1  0.87268928  0.01861453  0.87505031  1
  Nd  Nd3  1  0.12731072  0.98138547  0.37505031  1
  Nd  Nd4  1  0.51861553  0.62731072  0.62505031  1
  Nd  Nd5  1  0.37268928  0.48138547  0.87494869  1
  Nd  Nd6  1  0.62731072  0.51861453  0.37494869  1
  Nd  Nd7  1  0.01861353  0.87268928  0.12494969  1
  Nd  Nd8  1  0.62213960  0.98964211  0.44802646  1
  Nd  Nd9  1  0.37786040  0.01035789  0.94802646  1
  Nd  Nd10  1  0.98964411  0.62213960  0.55197354  1
  Nd  Nd11  1  0.48964211  0.87786040  0.19802646  1
  Nd  Nd12  1  0.51035789  0.12213960  0.69802646  1
  Nd  Nd13  1  0.87786040  0.48964411  0.80197354  1
  Nd  Nd14  1  0.12213960  0.51035589  0.30197354  1
  Nd  Nd15  1  0.01035589  0.37786040  0.05197354  1
  Nd  Nd16  1  0.30906866  0.30906666  0.50000000  1
  Nd  Nd17  1  0.19093434  0.80906666  0.75000100  1
  Nd  Nd18  1  0.80906566  0.19093334  0.25000100  1
  Nd  Nd19  1  0.69093134  0.69093334  0.00000000  1
  Si  Si0  1  0.28828847  0.92237604  0.55912847  1
  Si  Si1  1  0.71171153  0.07762396  0.05912847  1
  Si  Si2  1  0.92237604  0.28828747  0.44087253  1
  Si  Si3  1  0.42237604  0.21171053  0.30912747  1
  Si  Si4  1  0.57762396  0.78828947  0.80912747  1
  Si  Si5  1  0.21171253  0.42237504  0.69087153  1
  Si  Si6  1  0.78828747  0.57762496  0.19087153  1
  Si  Si7  1  0.07762396  0.71171253  0.94087253  1
  Si  Si8  1  0.80365561  0.83019329  0.70108521  1
  Si  Si9  1  0.19634439  0.16980671  0.20108521  1
  Si  Si10  1  0.83019329  0.80365561  0.29891479  1
  Si  Si11  1  0.33019429  0.69634539  0.45108521  1
  Si  Si12  1  0.66980571  0.30365461  0.95108521  1
  Si  Si13  1  0.69634439  0.33019329  0.54891379  1
  Si  Si14  1  0.30365561  0.66980671  0.04891379  1
  Si  Si15  1  0.16980671  0.19634439  0.79891479  1
loop_
_geom_bond_atom_site_label_1
_geom_bond_atom_site_label_2
_geom_bond_distance
_geom_bond_site_symmetry_2
Nd0 Si14 2.969047 1_555
Nd0 Si9 2.995072 1_555
Nd0 Si12 3.076531 1_554
Nd0 Si6 3.081878 1_555
Nd0 Si3 3.101256 1_555
Nd0 Si1 3.121880 1_555
Nd1 Si8 2.969049 1_545
Nd1 Si13 2.995089 1_555
Nd1 Si15 3.076526 1_655
Nd1 Si0 3.081867 1_645
Nd1 Si2 3.101252 1_555
Nd1 Si5 3.121870 1_655
Nd2 Si15 2.969046 1_655
Nd2 Si12 2.995076 1_555
Nd2 Si8 3.076530 1_545
Nd2 Si7 3.081872 1_645
Nd2 Si1 3.101268 1_556
Nd2 Si4 3.121876 1_545
Nd3 Si10 2.969046 1_455
Nd3 Si11 2.995076 1_555
Nd3 Si9 3.076530 1_565
Nd3 Si2 3.081872 1_465
Nd3 Si0 3.101268 1_555
Nd3 Si3 3.121876 1_565
Nd4 Si13 2.969047 1_555
Nd4 Si8 2.995072 1_555
Nd4 Si11 3.076531 1_555
Nd4 Si5 3.081878 1_555
Nd4 Si4 3.101256 1_555
Nd4 Si0 3.121880 1_555
Nd5 Si12 2.969048 1_555
Nd5 Si15 2.995072 1_555
Nd5 Si14 3.076530 1_556
Nd5 Si4 3.081880 1_555
Nd5 Si5 3.101252 1_555
Nd5 Si7 3.121890 1_555
Nd6 Si11 2.969048 1_555
Nd6 Si10 2.995072 1_555
Nd6 Si13 3.076530 1_555
Nd6 Si3 3.081880 1_555
Nd6 Si6 3.101252 1_555
Nd6 Si2 3.121890 1_555
Nd7 Si9 2.969049 1_565
Nd7 Si14 2.995089 1_555
Nd7 Si10 3.076526 1_455
Nd7 Si1 3.081867 1_465
Nd7 Si7 3.101252 1_554
Nd7 Si6 3.121870 1_455
Nd8 Si13 3.149985 1_565
Nd8 Si10 3.157366 1_555
Nd8 Si3 3.162526 1_565
Nd8 Si0 3.174326 1_555
Nd8 Si11 3.270241 1_555
Nd8 Si2 3.347880 1_565
Nd9 Si14 3.149985 1_546
Nd9 Si15 3.157366 1_555
Nd9 Si4 3.162526 1_545
Nd9 Si1 3.174326 1_556
Nd9 Si12 3.270241 1_555
Nd9 Si7 3.347880 1_545
Nd10 Si11 3.149988 1_655
Nd10 Si8 3.157374 1_555
Nd10 Si5 3.162520 1_655
Nd10 Si2 3.174327 1_555
Nd10 Si13 3.270263 1_555
Nd10 Si0 3.347875 1_655
Nd11 Si10 3.149993 1_555
Nd11 Si14 3.157377 1_555
Nd11 Si1 3.162521 1_565
Nd11 Si3 3.174311 1_565
Nd11 Si9 3.270251 1_565
Nd11 Si6 3.347874 1_555
Nd12 Si15 3.149993 1_555
Nd12 Si13 3.157377 1_555
Nd12 Si0 3.162521 1_545
Nd12 Si4 3.174311 1_545
Nd12 Si8 3.270251 1_545
Nd12 Si5 3.347874 1_555
Nd13 Si8 3.149979 1_555
Nd13 Si12 3.157382 1_555
Nd13 Si7 3.162527 1_655
Nd13 Si5 3.174337 1_655
Nd13 Si15 3.270262 1_655
Nd13 Si4 3.347879 1_555
Nd14 Si9 3.149979 1_555
Nd14 Si11 3.157382 1_555
Nd14 Si2 3.162527 1_455
Nd14 Si6 3.174337 1_455
Nd14 Si10 3.270262 1_455
Nd14 Si3 3.347879 1_555
Nd15 Si12 3.149988 1_454
Nd15 Si9 3.157374 1_555
Nd15 Si6 3.162520 1_455
Nd15 Si7 3.174327 1_554
Nd15 Si14 3.270263 1_555
Nd15 Si1 3.347875 1_455
Nd16 Si5 3.124246 1_555
Nd16 Si3 3.124258 1_555
Nd16 Si13 3.153023 1_555
Nd16 Si11 3.153048 1_555
Nd16 Si0 3.188392 1_545
Nd16 Si2 3.188403 1_455
Nd17 Si7 3.124247 1_555
Nd17 Si0 3.124258 1_555
Nd17 Si15 3.153038 1_565
Nd17 Si8 3.153053 1_455
Nd17 Si4 3.188375 1_555
Nd17 Si5 3.188403 1_555
Nd18 Si2 3.124247 1_555
Nd18 Si1 3.124258 1_555
Nd18 Si10 3.153038 1_545
Nd18 Si9 3.153053 1_655
Nd18 Si3 3.188375 1_555
Nd18 Si6 3.188403 1_555
Nd19 Si6 3.124246 1_555
Nd19 Si4 3.124258 1_554
Nd19 Si14 3.153023 1_555
Nd19 Si12 3.153048 1_554
Nd19 Si1 3.188392 1_565
Nd19 Si7 3.188403 1_654
Si0 Si11 2.445512 1_555
Si1 Si12 2.445512 1_554
Si3 Si9 2.445506 1_555
Si4 Si8 2.445506 1_555
Si10 Si6 2.445512 1_555
Si13 Si2 2.445498 1_555
Si14 Si7 2.445498 1_554
Si15 Si5 2.445512 1_555
