# generated using pymatgen
data_Ta12Cr3Os9C4
_symmetry_space_group_name_H-M   'P 1'
_cell_length_a   8.33731045
_cell_length_b   8.33731131
_cell_length_c   8.33731127
_cell_angle_alpha   59.15516076
_cell_angle_beta   59.15515812
_cell_angle_gamma   59.15515659
_symmetry_Int_Tables_number   1
_chemical_formula_structural   Ta12Cr3Os9C4
_chemical_formula_sum   'Ta12 Cr3 Os9 C4'
_cell_volume   401.90156554
_cell_formula_units_Z   1
loop_
 _symmetry_equiv_pos_site_id
 _symmetry_equiv_pos_as_xyz
  1  'x, y, z'
loop_
 _atom_site_type_symbol
 _atom_site_label
 _atom_site_symmetry_multiplicity
 _atom_site_fract_x
 _atom_site_fract_y
 _atom_site_fract_z
 _atom_site_occupancy
  Ta  Ta0  1  0.80801667  0.80801667  0.19246419  1
  Ta  Ta1  1  0.19144329  0.19144329  0.80887110  1
  Ta  Ta2  1  0.80801667  0.19246419  0.80801667  1
  Ta  Ta3  1  0.19144329  0.80887110  0.19144329  1
  Ta  Ta4  1  0.19246419  0.80801667  0.80801667  1
  Ta  Ta5  1  0.80887110  0.19144329  0.19144329  1
  Ta  Ta6  1  0.44198333  0.44198333  0.05753581  1
  Ta  Ta7  1  0.05855671  0.05855671  0.44112890  1
  Ta  Ta8  1  0.44198333  0.05753581  0.44198333  1
  Ta  Ta9  1  0.05855671  0.44112890  0.05855671  1
  Ta  Ta10  1  0.05753581  0.44198333  0.44198333  1
  Ta  Ta11  1  0.44112890  0.05855671  0.05855671  1
  Cr  Cr0  1  0.12500000  0.62500000  0.62500000  1
  Cr  Cr1  1  0.62500000  0.12500000  0.62500000  1
  Cr  Cr2  1  0.62500000  0.62500000  0.12500000  1
  Os  Os0  1  0.62500000  0.62500000  0.62500000  1
  Os  Os1  1  0.74581293  0.41420290  0.41420290  1
  Os  Os2  1  0.41420290  0.74581293  0.41420290  1
  Os  Os3  1  0.41420290  0.41420290  0.74581293  1
  Os  Os4  1  0.41675200  0.41675200  0.41675200  1
  Os  Os5  1  0.50418707  0.83579710  0.83579710  1
  Os  Os6  1  0.83579710  0.50418707  0.83579710  1
  Os  Os7  1  0.83579710  0.83579710  0.50418707  1
  Os  Os8  1  0.83324800  0.83324800  0.83324800  1
  C  C0  1  0.62500000  0.12500000  0.12500000  1
  C  C1  1  0.12500000  0.62500000  0.12500000  1
  C  C2  1  0.12500000  0.12500000  0.62500000  1
  C  C3  1  0.12500000  0.12500000  0.12500000  1
loop_
_geom_bond_atom_site_label_1
_geom_bond_atom_site_label_2
_geom_bond_distance
_geom_bond_site_symmetry_2
Cr0 Os3 2.499378 1_555
Cr0 Os7 2.499378 1_455
Cr0 Os2 2.499378 1_555
Cr0 Os6 2.499378 1_455
Cr0 Os8 2.524982 1_455
Cr0 Os4 2.524982 1_555
Cr1 Os3 2.499378 1_555
Cr1 Os7 2.499378 1_545
Cr1 Os1 2.499378 1_555
Cr1 Os5 2.499378 1_545
Cr1 Os8 2.524982 1_545
Cr1 Os4 2.524982 1_555
Cr2 Os2 2.499378 1_555
Cr2 Os6 2.499378 1_554
Cr2 Os1 2.499378 1_555
Cr2 Os5 2.499378 1_554
Cr2 Os8 2.524982 1_554
Cr2 Os4 2.524982 1_555
Os0 Os6 2.593999 1_555
Os0 Os2 2.593999 1_555
Os0 Os7 2.593999 1_555
Os0 Os3 2.593999 1_555
Os0 Os5 2.593999 1_555
Os0 Os1 2.593999 1_555
Os0 Ta10 2.960340 1_655
Os0 Ta4 2.960340 1_555
Os0 Ta8 2.960340 1_565
Os0 Ta2 2.960340 1_555
Os0 Ta6 2.960340 1_556
Os0 Ta0 2.960340 1_555
Os1 Os4 2.721854 1_555
Os1 Os2 2.729356 1_555
Os1 Os3 2.729356 1_555
Os1 Ta7 2.762391 1_655
Os1 Ta9 2.762391 1_655
Os1 Ta10 2.855040 1_655
Os1 Ta5 2.951169 1_555
Os1 Ta2 3.000948 1_555
Os1 Ta0 3.000948 1_555
Os2 Os4 2.721854 1_555
Os2 Os3 2.729356 1_555
Os2 Ta7 2.762390 1_565
Os2 Ta11 2.762391 1_565
Os2 Ta8 2.855040 1_565
Os2 Ta3 2.951169 1_555
Os2 Ta0 3.000947 1_555
Os2 Ta4 3.000947 1_555
Os3 Os4 2.721854 1_555
Os3 Ta9 2.762391 1_556
Os3 Ta11 2.762391 1_556
Os3 Ta6 2.855040 1_556
Os3 Ta1 2.951169 1_555
Os3 Ta2 3.000947 1_555
Os3 Ta4 3.000947 1_555
Os4 Ta10 2.794857 1_555
Os4 Ta6 2.794857 1_555
Os4 Ta8 2.794857 1_555
Os4 Ta5 2.961228 1_555
Os4 Ta3 2.961228 1_555
Os4 Ta1 2.961228 1_555
Os5 Os8 2.721854 1_555
Os5 Os6 2.729356 1_555
Os5 Os7 2.729356 1_555
Os5 Ta1 2.762391 1_565
Os5 Ta3 2.762391 1_556
Os5 Ta4 2.855040 1_555
Os5 Ta11 2.951169 1_566
Os5 Ta8 3.000948 1_565
Os5 Ta6 3.000948 1_556
Os6 Os8 2.721854 1_555
Os6 Os7 2.729356 1_555
Os6 Ta1 2.762390 1_655
Os6 Ta5 2.762391 1_556
Os6 Ta2 2.855040 1_555
Os6 Ta9 2.951169 1_656
Os6 Ta6 3.000947 1_556
Os6 Ta10 3.000947 1_655
Os7 Os8 2.721854 1_555
Os7 Ta3 2.762391 1_655
Os7 Ta5 2.762391 1_565
Os7 Ta0 2.855040 1_555
Os7 Ta7 2.951169 1_665
Os7 Ta8 3.000947 1_565
Os7 Ta10 3.000947 1_655
Os8 Ta4 2.794857 1_655
Os8 Ta0 2.794857 1_556
Os8 Ta2 2.794857 1_565
Os8 Ta11 2.961228 1_566
Os8 Ta9 2.961228 1_656
Os8 Ta7 2.961228 1_665
C0 Ta6 2.202197 1_555
C0 Ta0 2.202197 1_545
C0 Ta8 2.202197 1_555
C0 Ta2 2.202197 1_554
C0 Ta5 2.240556 1_555
C0 Ta11 2.240556 1_555
C1 Ta6 2.202197 1_555
C1 Ta0 2.202197 1_455
C1 Ta10 2.202197 1_555
C1 Ta4 2.202197 1_554
C1 Ta3 2.240556 1_555
C1 Ta9 2.240556 1_555
C2 Ta8 2.202197 1_555
C2 Ta2 2.202197 1_455
C2 Ta10 2.202197 1_555
C2 Ta4 2.202197 1_545
C2 Ta1 2.240556 1_555
C2 Ta7 2.240556 1_555
C3 Ta11 2.209250 1_555
C3 Ta5 2.209250 1_455
C3 Ta9 2.209251 1_555
C3 Ta3 2.209251 1_545
C3 Ta7 2.209251 1_555
C3 Ta1 2.209251 1_554
