# generated using pymatgen
data_BeNb2Fe3
_symmetry_space_group_name_H-M   'P 1'
_cell_length_a   4.78974626
_cell_length_b   4.75861923
_cell_length_c   4.75861988
_cell_angle_alpha   59.99999547
_cell_angle_beta   60.21473830
_cell_angle_gamma   60.21472461
_symmetry_Int_Tables_number   1
_chemical_formula_structural   BeNb2Fe3
_chemical_formula_sum   'Be1 Nb2 Fe3'
_cell_volume   76.94164009
_cell_formula_units_Z   1
loop_
 _symmetry_equiv_pos_site_id
 _symmetry_equiv_pos_as_xyz
  1  'x, y, z'
loop_
 _atom_site_type_symbol
 _atom_site_label
 _atom_site_symmetry_multiplicity
 _atom_site_fract_x
 _atom_site_fract_y
 _atom_site_fract_z
 _atom_site_occupancy
  Be  Be0  1  0.87500000  0.37500000  0.37500000  1
  Nb  Nb0  1  0.74846946  0.75051018  0.75051018  1
  Nb  Nb1  1  0.00153054  0.99948982  0.99948982  1
  Fe  Fe0  1  0.37500000  0.87500000  0.37500000  1
  Fe  Fe1  1  0.37500000  0.37500000  0.87500000  1
  Fe  Fe2  1  0.37500000  0.37500000  0.37500000  1
loop_
_geom_bond_atom_site_label_1
_geom_bond_atom_site_label_2
_geom_bond_distance
_geom_bond_site_symmetry_2
Be0 Fe0 2.394872 1_555
Be0 Fe0 2.394872 1_645
Be0 Fe2 2.394873 1_655
Be0 Fe2 2.394873 1_555
Be0 Fe1 2.394873 1_555
Be0 Fe1 2.394873 1_654
Be0 Nb1 2.791881 1_654
Be0 Nb0 2.791881 1_545
Be0 Nb0 2.791882 1_555
Be0 Nb1 2.791882 1_645
Be0 Nb0 2.791882 1_554
Be0 Nb1 2.791882 1_644
Nb0 Nb1 2.921292 1_645
Nb0 Nb1 2.921293 1_655
Nb0 Nb1 2.921293 1_654
Nb0 Nb1 2.930583 1_555
Fe0 Fe2 2.379310 1_555
Fe0 Fe1 2.379310 1_564
Fe0 Fe1 2.379310 1_555
Fe0 Fe2 2.379310 1_565
Fe0 Nb0 2.794315 1_555
Fe0 Nb1 2.794315 1_555
Fe0 Nb0 2.794315 1_554
Fe0 Nb1 2.794315 1_554
Fe0 Nb1 2.815958 1_654
Fe0 Nb0 2.815958 1_455
Fe1 Fe2 2.379310 1_555
Fe1 Fe2 2.379310 1_556
Fe1 Nb1 2.794314 1_555
Fe1 Nb0 2.794314 1_545
Fe1 Nb0 2.794315 1_555
Fe1 Nb1 2.794315 1_545
Fe1 Nb1 2.815957 1_645
Fe1 Nb0 2.815957 1_455
Fe2 Nb0 2.794314 1_545
Fe2 Nb1 2.794314 1_554
Fe2 Nb0 2.794315 1_554
Fe2 Nb1 2.794315 1_545
Fe2 Nb0 2.815957 1_455
Fe2 Nb1 2.815957 1_644
