# generated using pymatgen
data_Cs2TiMoN4
_symmetry_space_group_name_H-M   'P 1'
_cell_length_a   6.11457063
_cell_length_b   6.11457089
_cell_length_c   6.11457045
_cell_angle_alpha   120.01617251
_cell_angle_beta   120.01617896
_cell_angle_gamma   89.97198119
_symmetry_Int_Tables_number   1
_chemical_formula_structural   Cs2TiMoN4
_chemical_formula_sum   'Cs2 Ti1 Mo1 N4'
_cell_volume   161.61314000
_cell_formula_units_Z   1
loop_
 _symmetry_equiv_pos_site_id
 _symmetry_equiv_pos_as_xyz
  1  'x, y, z'
loop_
 _atom_site_type_symbol
 _atom_site_label
 _atom_site_symmetry_multiplicity
 _atom_site_fract_x
 _atom_site_fract_y
 _atom_site_fract_z
 _atom_site_occupancy
  Cs  Cs0  1  0.25000000  0.75000000  0.50000000  1
  Cs  Cs1  1  0.50000000  0.50000000  0.00000000  1
  Ti  Ti0  1  0.00000000  0.00000000  0.00000000  1
  Mo  Mo0  1  0.75000000  0.25000000  0.50000000  1
  N  N0  1  0.85375260  0.12691902  0.23439814  1
  N  N1  1  0.89252088  0.61935546  0.76560186  1
  N  N2  1  0.38064454  0.14624740  0.27316542  1
  N  N3  1  0.87308098  0.10747912  0.72683458  1
loop_
_geom_bond_atom_site_label_1
_geom_bond_atom_site_label_2
_geom_bond_distance
_geom_bond_site_symmetry_2
Cs0 N2 3.489016 1_555
Cs0 N0 3.489019 1_566
Cs0 N1 3.489021 1_454
Cs0 N3 3.489022 1_465
Cs0 N1 3.592326 1_455
Cs0 N3 3.592326 1_565
Cs0 N0 3.592329 1_455
Cs0 N2 3.592331 1_565
Cs0 N1 3.690798 1_555
Cs0 N2 3.690798 1_566
Cs0 N3 3.690799 1_454
Cs0 N0 3.690801 1_465
Cs1 N0 3.478736 1_555
Cs1 N1 3.478739 1_454
Cs1 N2 3.478739 1_554
Cs1 N3 3.478739 1_565
Cs1 N2 3.582884 1_555
Cs1 N0 3.582887 1_565
Cs1 N1 3.582889 1_554
Cs1 N3 3.582889 1_454
Cs1 N1 3.681079 1_555
Cs1 N3 3.681080 1_554
Cs1 N0 3.681082 1_454
Cs1 N2 3.681085 1_565
Mo0 N0 1.847665 1_555
Mo0 N3 1.847670 1_555
Mo0 N2 1.847670 1_555
Mo0 N1 1.847670 1_555
N0 Ti0 1.903919 1_655
N1 Ti0 1.903914 1_666
N2 Ti0 1.903914 1_555
N3 Ti0 1.903914 1_656
