# generated using pymatgen
data_Li5SiAs3
_symmetry_space_group_name_H-M   'P 1'
_cell_length_a   7.32757693
_cell_length_b   7.32757693
_cell_length_c   8.54600969
_cell_angle_alpha   73.24727086
_cell_angle_beta   73.24727086
_cell_angle_gamma   48.42324012
_symmetry_Int_Tables_number   1
_chemical_formula_structural   Li5SiAs3
_chemical_formula_sum   'Li10 Si2 As6'
_cell_volume   325.66752307
_cell_formula_units_Z   2
loop_
 _symmetry_equiv_pos_site_id
 _symmetry_equiv_pos_as_xyz
  1  'x, y, z'
loop_
 _atom_site_type_symbol
 _atom_site_label
 _atom_site_symmetry_multiplicity
 _atom_site_fract_x
 _atom_site_fract_y
 _atom_site_fract_z
 _atom_site_occupancy
  Li  Li0  1  0.75108400  0.24891600  0.25000000  1
  Li  Li1  1  0.08927500  0.58552100  0.07183000  1
  Li  Li2  1  0.42076600  0.91229000  0.91192200  1
  Li  Li3  1  0.91072500  0.41447900  0.92817000  1
  Li  Li4  1  0.08771000  0.57923400  0.58807800  1
  Li  Li5  1  0.24891600  0.75108400  0.75000000  1
  Li  Li6  1  0.58552100  0.08927500  0.57183000  1
  Li  Li7  1  0.41447900  0.91072500  0.42817000  1
  Li  Li8  1  0.91229000  0.42076600  0.41192200  1
  Li  Li9  1  0.57923400  0.08771000  0.08807800  1
  Si  Si0  1  0.26245400  0.73754600  0.25000000  1
  Si  Si1  1  0.73754600  0.26245400  0.75000000  1
  As  As0  1  0.00000000  0.00000000  0.00000000  1
  As  As1  1  0.68567800  0.62852600  0.67614500  1
  As  As2  1  0.00000000  0.00000000  0.50000000  1
  As  As3  1  0.31432200  0.37147400  0.32385500  1
  As  As4  1  0.62852600  0.68567800  0.17614500  1
  As  As5  1  0.37147400  0.31432200  0.82385500  1
loop_
_geom_bond_atom_site_label_1
_geom_bond_atom_site_label_2
_geom_bond_distance
_geom_bond_site_symmetry_2
Li0 Si0 2.936762 1_555
Li0 Si0 3.073434 1_645
Li1 Si0 3.022850 1_555
Li2 Si0 3.039645 1_556
Li3 Si1 3.022850 1_555
Li4 Si0 3.039645 1_555
Li5 Si1 2.936762 1_555
Li5 Si1 3.073434 1_465
Li6 Si1 3.022850 1_555
Li7 Si0 3.022850 1_555
Li8 Si1 3.039645 1_555
Li9 Si1 3.039645 1_554
As0 Li3 2.559034 1_454
As0 Li1 2.559034 1_545
As0 Li9 2.607049 1_455
As0 Li2 2.607049 1_544
As0 Li0 2.608210 1_455
As0 Li5 2.608210 1_544
As0 Si0 2.655717 1_545
As0 Si1 2.655717 1_454
As1 Si1 2.355281 1_555
As1 Li3 2.546666 1_555
As1 Li8 2.576575 1_555
As1 Li5 2.606734 1_555
As1 Li4 2.615656 1_655
As1 Li2 2.637232 1_555
As1 Li7 2.676480 1_555
As1 Li6 2.843472 1_565
As2 Li7 2.559034 1_545
As2 Li6 2.559034 1_455
As2 Li4 2.607049 1_545
As2 Li8 2.607049 1_455
As2 Li0 2.608210 1_455
As2 Li5 2.608210 1_545
As2 Si1 2.655717 1_455
As2 Si0 2.655717 1_545
As3 Si0 2.355281 1_555
As3 Li1 2.546666 1_555
As3 Li4 2.576575 1_555
As3 Li0 2.606734 1_555
As3 Li8 2.615656 1_455
As3 Li9 2.637232 1_555
As3 Li6 2.676480 1_555
As3 Li7 2.843472 1_545
As4 Si0 2.355281 1_555
As4 Li7 2.546666 1_555
As4 Li2 2.576575 1_554
As4 Li0 2.606734 1_555
As4 Li9 2.615656 1_565
As4 Li8 2.637232 1_555
As4 Li3 2.676480 1_554
As4 Li1 2.843472 1_655
As5 Si1 2.355281 1_555
As5 Li6 2.546666 1_555
As5 Li9 2.576575 1_556
As5 Li5 2.606734 1_555
As5 Li2 2.615656 1_545
As5 Li4 2.637232 1_555
As5 Li1 2.676480 1_556
As5 Li3 2.843472 1_455
