# generated using pymatgen
data_Hf2Ag(PO4)3
_symmetry_space_group_name_H-M   'P 1'
_cell_length_a   8.79645160
_cell_length_b   8.79645203
_cell_length_c   9.09756312
_cell_angle_alpha   61.10179668
_cell_angle_beta   61.10179587
_cell_angle_gamma   60.00728911
_symmetry_Int_Tables_number   1
_chemical_formula_structural   Hf2Ag(PO4)3
_chemical_formula_sum   'Hf4 Ag2 P6 O24'
_cell_volume   505.92381387
_cell_formula_units_Z   2
loop_
 _symmetry_equiv_pos_site_id
 _symmetry_equiv_pos_as_xyz
  1  'x, y, z'
loop_
 _atom_site_type_symbol
 _atom_site_label
 _atom_site_symmetry_multiplicity
 _atom_site_fract_x
 _atom_site_fract_y
 _atom_site_fract_z
 _atom_site_occupancy
  Hf  Hf0  1  0.64952314  0.14082159  0.81502267  1
  Hf  Hf1  1  0.85917841  0.35047686  0.18497733  1
  Hf  Hf2  1  0.14937906  0.64066740  0.31502653  1
  Hf  Hf3  1  0.35933260  0.85062094  0.68497347  1
  Ag  Ag0  1  0.01716332  0.48991053  0.74998796  1
  Ag  Ag1  1  0.51008947  0.98283668  0.25001204  1
  P  P0  1  0.25496544  0.45636163  0.99966245  1
  P  P1  1  0.46572559  0.24494769  0.49994305  1
  P  P2  1  0.04362833  0.95637167  0.50000000  1
  P  P3  1  0.96541858  0.03458142  0.00000000  1
  P  P4  1  0.54363837  0.74503456  0.00033755  1
  P  P5  1  0.75505231  0.53427441  0.50005695  1
  O  O0  1  0.00907682  0.11889499  0.33494030  1
  O  O1  1  0.79075229  0.50026581  0.33511494  1
  O  O2  1  0.42256768  0.27881737  0.98528299  1
  O  O3  1  0.29089548  0.61894532  0.83406356  1
  O  O4  1  0.22142590  0.93213047  0.51421749  1
  O  O5  1  0.62819365  0.28172654  0.33480260  1
  O  O6  1  0.49973419  0.20924771  0.66488506  1
  O  O7  1  0.08671106  0.43186910  0.01495595  1
  O  O8  1  0.44142852  0.07703824  0.51498451  1
  O  O9  1  0.28810806  0.41307485  0.48534504  1
  O  O10  1  0.88110501  0.99092318  0.66505970  1
  O  O11  1  0.06786953  0.77857410  0.48578251  1
  O  O12  1  0.94160079  0.21213033  0.01424503  1
  O  O13  1  0.12797139  0.00026094  0.83489755  1
  O  O14  1  0.56813090  0.91328894  0.98504405  1
  O  O15  1  0.72118263  0.57743232  0.01471701  1
  O  O16  1  0.92296176  0.55857148  0.48501549  1
  O  O17  1  0.50828352  0.78167885  0.83591459  1
  O  O18  1  0.38105468  0.70910452  0.16593644  1
  O  O19  1  0.78786967  0.05839921  0.98575497  1
  O  O20  1  0.71827346  0.37180635  0.66519740  1
  O  O21  1  0.58692515  0.71189194  0.51465496  1
  O  O22  1  0.21832115  0.49171648  0.16408541  1
  O  O23  1  0.99973906  0.87202861  0.16510245  1
loop_
_geom_bond_atom_site_label_1
_geom_bond_atom_site_label_2
_geom_bond_distance
_geom_bond_site_symmetry_2
Hf0 O20 2.026592 1_555
Hf0 O6 2.028784 1_555
Hf0 O10 2.028988 1_545
Hf0 O2 2.064949 1_555
Hf0 O19 2.067753 1_555
Hf0 O14 2.069107 1_545
Hf1 O5 2.026592 1_555
Hf1 O1 2.028784 1_555
Hf1 O0 2.028988 1_655
Hf1 O15 2.064949 1_555
Hf1 O12 2.067753 1_555
Hf1 O7 2.069107 1_655
Hf2 O23 2.027048 1_455
Hf2 O22 2.027274 1_555
Hf2 O18 2.030036 1_555
Hf2 O16 2.064342 1_455
Hf2 O11 2.067410 1_555
Hf2 O9 2.070005 1_555
Hf3 O13 2.027048 1_565
Hf3 O17 2.027274 1_555
Hf3 O3 2.030036 1_555
Hf3 O8 2.064342 1_565
Hf3 O4 2.067410 1_555
Hf3 O21 2.070005 1_555
Ag0 O9 2.519920 1_555
Ag0 O7 2.523745 1_556
Ag0 O12 2.567836 1_456
Ag0 O11 2.573167 1_555
Ag0 O16 2.624027 1_455
Ag0 O15 2.626656 1_456
Ag1 O21 2.519920 1_555
Ag1 O14 2.523745 1_554
Ag1 O19 2.567836 1_564
Ag1 O4 2.573167 1_555
Ag1 O8 2.624027 1_565
Ag1 O2 2.626656 1_564
O0 P2 1.524120 1_545
O1 P5 1.524572 1_555
O2 P0 1.529325 1_555
O3 P0 1.524530 1_555
O4 P2 1.530912 1_555
O5 P1 1.523657 1_555
O6 P1 1.524572 1_555
O7 P0 1.532025 1_554
O8 P1 1.529036 1_555
O9 P1 1.531831 1_555
O10 P2 1.524120 1_655
O11 P2 1.530912 1_555
O12 P3 1.530408 1_555
O13 P3 1.524040 1_456
O14 P4 1.532025 1_556
O15 P4 1.529325 1_555
O16 P5 1.529036 1_555
O17 P4 1.523667 1_556
O18 P4 1.524530 1_555
O19 P3 1.530408 1_556
O20 P5 1.523657 1_555
O21 P5 1.531831 1_555
O22 P0 1.523667 1_554
O23 P3 1.524040 1_565
