# generated using pymatgen
data_SrHfO3
_symmetry_space_group_name_H-M   'P 1'
_cell_length_a   5.76053461
_cell_length_b   5.77701466
_cell_length_c   8.14070902
_cell_angle_alpha   90.00000000
_cell_angle_beta   90.00000000
_cell_angle_gamma   90.00000000
_symmetry_Int_Tables_number   1
_chemical_formula_structural   SrHfO3
_chemical_formula_sum   'Sr4 Hf4 O12'
_cell_volume   270.91215539
_cell_formula_units_Z   4
loop_
 _symmetry_equiv_pos_site_id
 _symmetry_equiv_pos_as_xyz
  1  'x, y, z'
loop_
 _atom_site_type_symbol
 _atom_site_label
 _atom_site_symmetry_multiplicity
 _atom_site_fract_x
 _atom_site_fract_y
 _atom_site_fract_z
 _atom_site_occupancy
  Sr  Sr0  1  0.00521874  0.52440264  0.25000000  1
  Sr  Sr1  1  0.50521874  0.97559736  0.75000000  1
  Sr  Sr2  1  0.49478121  0.02440553  0.25000000  1
  Sr  Sr3  1  0.99478121  0.47559447  0.75000000  1
  Hf  Hf0  1  -0.00000281  0.00000235  -0.00000077  1
  Hf  Hf1  1  0.49999719  0.49999765  0.00000077  1
  Hf  Hf2  1  0.49999719  0.49999765  0.50000023  1
  Hf  Hf3  1  -0.00000281  0.00000235  0.49999977  1
  O  O0  1  0.21930897  0.28070832  0.46523602  1
  O  O1  1  0.71930897  0.21929168  0.53476398  1
  O  O2  1  0.28069315  0.78070578  0.03476432  1
  O  O3  1  0.78069315  0.71929422  0.96523568  1
  O  O4  1  0.78069315  0.71929422  0.53476432  1
  O  O5  1  0.28069315  0.78070578  0.46523568  1
  O  O6  1  0.71930897  0.21929168  0.96523602  1
  O  O7  1  0.21930897  0.28070832  0.03476398  1
  O  O8  1  0.93365913  0.98661259  0.25000000  1
  O  O9  1  0.43365913  0.51338741  0.75000000  1
  O  O10  1  0.56633931  0.48661432  0.25000000  1
  O  O11  1  0.06633931  0.01338568  0.75000000  1
loop_
_geom_bond_atom_site_label_1
_geom_bond_atom_site_label_2
_geom_bond_distance
_geom_bond_site_symmetry_2
Hf0 O11 2.072185 1_554
Hf0 O8 2.072194 1_445
Hf0 O6 2.073494 1_454
Hf0 O2 2.073556 1_545
Hf0 O3 2.075043 1_444
Hf0 O7 2.075061 1_555
Hf1 O10 2.072185 1_555
Hf1 O9 2.072194 1_554
Hf1 O7 2.073494 1_555
Hf1 O3 2.073556 1_554
Hf1 O2 2.075043 1_555
Hf1 O6 2.075061 1_554
Hf2 O9 2.072186 1_555
Hf2 O10 2.072193 1_555
Hf2 O0 2.073495 1_555
Hf2 O4 2.073555 1_555
Hf2 O5 2.075044 1_555
Hf2 O1 2.075060 1_555
Hf3 O8 2.072186 1_445
Hf3 O11 2.072193 1_555
Hf3 O1 2.073495 1_455
Hf3 O5 2.073555 1_545
Hf3 O4 2.075044 1_445
Hf3 O0 2.075060 1_555
O0 Sr0 2.563796 1_555
O0 Sr2 2.789378 1_555
O0 Sr3 2.883471 1_455
O1 Sr1 2.563796 1_545
O1 Sr3 2.789378 1_555
O1 Sr2 2.883471 1_555
O2 Sr2 2.563806 1_565
O2 Sr0 2.789384 1_555
O2 Sr1 2.883480 1_554
O3 Sr3 2.563806 1_555
O3 Sr1 2.789384 1_555
O3 Sr0 2.883480 1_656
O4 Sr3 2.563806 1_555
O4 Sr1 2.789384 1_555
O4 Sr0 2.883480 1_655
O5 Sr2 2.563806 1_565
O5 Sr0 2.789384 1_555
O5 Sr1 2.883480 1_555
O6 Sr1 2.563796 1_545
O6 Sr3 2.789378 1_555
O6 Sr2 2.883471 1_556
O7 Sr0 2.563796 1_555
O7 Sr2 2.789378 1_555
O7 Sr3 2.883471 1_454
O8 Sr2 2.537581 1_565
O8 Sr0 2.701825 1_655
O9 Sr3 2.537581 1_455
O9 Sr1 2.701825 1_555
O10 Sr0 2.537588 1_655
O10 Sr2 2.701818 1_555
O11 Sr1 2.537588 1_545
O11 Sr3 2.701818 1_455
