# generated using pymatgen
data_Ca7In(SnN)2
_symmetry_space_group_name_H-M   'P 1'
_cell_length_a   12.48443491
_cell_length_b   12.48443473
_cell_length_c   4.91209237
_cell_angle_alpha   90.00000000
_cell_angle_beta   90.00000000
_cell_angle_gamma   157.58362576
_symmetry_Int_Tables_number   1
_chemical_formula_structural   Ca7In(SnN)2
_chemical_formula_sum   'Ca7 In1 Sn2 N2'
_cell_volume   291.95135081
_cell_formula_units_Z   1
loop_
 _symmetry_equiv_pos_site_id
 _symmetry_equiv_pos_as_xyz
  1  'x, y, z'
loop_
 _atom_site_type_symbol
 _atom_site_label
 _atom_site_symmetry_multiplicity
 _atom_site_fract_x
 _atom_site_fract_y
 _atom_site_fract_z
 _atom_site_occupancy
  Ca  Ca0  1  0.90304451  0.09695449  0.00000000  1
  Ca  Ca1  1  0.69579121  0.30420779  0.00000000  1
  Ca  Ca2  1  0.50041001  0.49958999  0.00000000  1
  Ca  Ca3  1  0.30315704  0.69684196  0.00000000  1
  Ca  Ca4  1  0.09765443  0.90234457  0.00000000  1
  Ca  Ca5  1  0.59626939  0.40373061  0.50000100  1
  Ca  Ca6  1  0.40506310  0.59493690  0.50000100  1
  In  In0  1  0.79041821  0.20958079  0.50000100  1
  Sn  Sn0  1  0.99985786  0.00014214  0.50000100  1
  Sn  Sn1  1  0.20909230  0.79090670  0.50000100  1
  N  N0  1  0.60253548  0.39746352  0.00000000  1
  N  N1  1  0.39670146  0.60329754  0.00000000  1
loop_
_geom_bond_atom_site_label_1
_geom_bond_atom_site_label_2
_geom_bond_distance
_geom_bond_site_symmetry_2
Ca0 N1 2.431624 1_655
Ca0 N1 2.431624 1_545
Ca0 Sn0 3.413904 1_554
Ca0 Sn0 3.413911 1_555
Ca0 In0 3.693447 1_554
Ca0 In0 3.693453 1_555
Ca1 N0 2.284080 1_555
Ca1 In0 3.376938 1_554
Ca1 In0 3.376946 1_555
Ca1 Sn1 3.467986 1_544
Ca1 Sn1 3.467986 1_654
Ca1 Sn1 3.467993 1_545
Ca1 Sn1 3.467993 1_655
Ca2 N0 2.501336 1_555
Ca2 N1 2.540085 1_555
Ca2 Sn0 3.452677 1_564
Ca2 Sn0 3.452677 1_454
Ca2 Sn0 3.452684 1_565
Ca2 Sn0 3.452684 1_455
Ca3 N1 2.291150 1_555
Ca3 Sn1 3.367502 1_554
Ca3 Sn1 3.367509 1_555
Ca3 In0 3.466720 1_564
Ca3 In0 3.466720 1_454
Ca3 In0 3.466727 1_565
Ca3 In0 3.466727 1_455
Ca4 N0 2.429599 1_455
Ca4 N0 2.429599 1_565
Ca4 Sn0 3.430692 1_464
Ca4 Sn0 3.430699 1_465
Ca4 Sn1 3.671758 1_554
Ca4 Sn1 3.671765 1_555
Ca5 N0 2.460832 1_556
Ca5 N0 2.460842 1_555
Ca5 Sn0 3.385963 1_565
Ca5 Sn0 3.385963 1_455
Ca5 Sn1 3.677597 1_655
Ca5 Sn1 3.677600 1_545
Ca6 N1 2.464564 1_556
Ca6 N1 2.464574 1_555
Ca6 Sn0 3.358466 1_455
Ca6 Sn0 3.358467 1_565
Ca6 In0 3.711226 1_565
Ca6 In0 3.711230 1_455
In0 Sn1 3.139470 1_655
In0 Sn1 3.139470 1_545
