# generated using pymatgen
data_Hf6In4CBr18
_symmetry_space_group_name_H-M   'P 1'
_cell_length_a   10.10569509
_cell_length_b   10.41660511
_cell_length_c   10.42091596
_cell_angle_alpha   118.53636815
_cell_angle_beta   99.88807254
_cell_angle_gamma   104.32196694
_symmetry_Int_Tables_number   1
_chemical_formula_structural   Hf6In4CBr18
_chemical_formula_sum   'Hf6 In4 C1 Br18'
_cell_volume   877.93915568
_cell_formula_units_Z   1
loop_
 _symmetry_equiv_pos_site_id
 _symmetry_equiv_pos_as_xyz
  1  'x, y, z'
loop_
 _atom_site_type_symbol
 _atom_site_label
 _atom_site_symmetry_multiplicity
 _atom_site_fract_x
 _atom_site_fract_y
 _atom_site_fract_z
 _atom_site_occupancy
  Hf  Hf0  1  0.35219823  0.44500585  0.77540600  1
  Hf  Hf1  1  0.36510992  0.62344902  0.13100611  1
  Hf  Hf2  1  0.64365023  0.73177637  0.04355997  1
  Hf  Hf3  1  0.64780177  0.55499415  0.22459400  1
  Hf  Hf4  1  0.35634977  0.26822363  0.95644003  1
  Hf  Hf5  1  0.63489008  0.37655098  0.86899389  1
  In  In0  1  0.17680962  0.72189574  0.55592270  1
  In  In1  1  0.85318694  0.96472558  0.77522250  1
  In  In2  1  0.14681306  0.03527442  0.22477750  1
  In  In3  1  0.82319038  0.27810426  0.44407730  1
  C  C0  1  0.50000000  0.50000000  0.00000000  1
  Br  Br0  1  0.82492664  0.42193051  0.11015509  1
  Br  Br1  1  0.51675195  0.70634282  0.41266023  1
  Br  Br2  1  0.17240375  0.97724629  0.89982089  1
  Br  Br3  1  0.17507336  0.57806949  0.88984491  1
  Br  Br4  1  0.83618489  0.83490629  0.31318410  1
  Br  Br5  1  0.50337316  0.29597060  0.21104115  1
  Br  Br6  1  0.79979013  0.22366608  0.70861072  1
  Br  Br7  1  0.16381511  0.16509371  0.68681590  1
  Br  Br8  1  0.51020065  0.91092337  0.19922199  1
  Br  Br9  1  0.82215547  0.62780410  0.90071851  1
  Br  Br10  1  0.20020987  0.77633392  0.29138928  1
  Br  Br11  1  0.16192098  0.37546223  0.49347796  1
  Br  Br12  1  0.49662684  0.70402940  0.78895885  1
  Br  Br13  1  0.82759625  0.02275371  0.10017911  1
  Br  Br14  1  0.48324805  0.29365718  0.58733977  1
  Br  Br15  1  0.17784453  0.37219590  0.09928149  1
  Br  Br16  1  0.83807902  0.62453777  0.50652204  1
  Br  Br17  1  0.48979935  0.08907663  0.80077801  1
loop_
_geom_bond_atom_site_label_1
_geom_bond_atom_site_label_2
_geom_bond_distance
_geom_bond_site_symmetry_2
C0 Hf3 2.265391 1_555
C0 Hf0 2.265391 1_554
C0 Hf2 2.266052 1_555
C0 Hf4 2.266052 1_554
C0 Hf5 2.281372 1_554
C0 Hf1 2.281372 1_555
Br0 Hf3 2.632239 1_555
Br0 Hf5 2.643034 1_554
Br1 Hf3 2.655678 1_555
Br1 Hf1 2.662310 1_555
Br2 Hf4 2.849158 1_565
Br2 In1 3.209499 1_455
Br2 In2 3.212790 1_566
Br2 In0 3.305454 1_555
Br3 Hf0 2.632239 1_555
Br3 Hf1 2.643034 1_556
Br4 Hf2 2.653073 1_555
Br4 Hf3 2.656385 1_555
Br5 Hf4 2.651679 1_554
Br5 Hf3 2.654622 1_555
Br6 Hf5 2.798755 1_555
Br6 In3 3.102878 1_555
Br6 In1 3.229348 1_545
Br7 Hf4 2.653073 1_555
Br7 Hf0 2.656385 1_555
Br8 Hf2 2.652668 1_555
Br8 Hf1 2.656729 1_555
Br9 Hf2 2.644118 1_556
Br9 Hf5 2.654889 1_555
Br10 Hf1 2.798755 1_555
Br10 In0 3.102878 1_555
Br10 In2 3.229348 1_565
Br11 Hf0 2.861986 1_555
Br11 In3 3.192120 1_455
Br11 In2 3.244422 1_555
Br11 In0 3.304945 1_555
Br12 Hf2 2.651679 1_556
Br12 Hf0 2.654622 1_555
Br13 Hf2 2.849158 1_545
Br13 In2 3.209499 1_655
Br13 In1 3.212790 1_544
Br13 In3 3.305454 1_555
Br14 Hf0 2.655678 1_555
Br14 Hf5 2.662310 1_555
Br15 Hf4 2.644118 1_554
Br15 Hf1 2.654889 1_555
Br16 Hf3 2.861986 1_555
Br16 In0 3.192120 1_655
Br16 In1 3.244422 1_555
Br16 In3 3.304945 1_555
Br17 Hf4 2.652668 1_555
Br17 Hf5 2.656729 1_555
