# generated using pymatgen
data_RbCa2IO6
_symmetry_space_group_name_H-M   'P 1'
_cell_length_a   5.68002783
_cell_length_b   6.23219799
_cell_length_c   8.47814149
_cell_angle_alpha   90.00000000
_cell_angle_beta   90.00568784
_cell_angle_gamma   90.00000000
_symmetry_Int_Tables_number   1
_chemical_formula_structural   RbCa2IO6
_chemical_formula_sum   'Rb2 Ca4 I2 O12'
_cell_volume   300.11822087
_cell_formula_units_Z   2
loop_
 _symmetry_equiv_pos_site_id
 _symmetry_equiv_pos_as_xyz
  1  'x, y, z'
loop_
 _atom_site_type_symbol
 _atom_site_label
 _atom_site_symmetry_multiplicity
 _atom_site_fract_x
 _atom_site_fract_y
 _atom_site_fract_z
 _atom_site_occupancy
  Rb  Rb0  1  0.50000000  0.50000000  0.00000000  1
  Rb  Rb1  1  0.00000000  0.00000000  0.50000000  1
  Ca  Ca0  1  0.49998171  0.99993860  0.78260802  1
  Ca  Ca1  1  0.00001829  0.49993860  0.71739198  1
  Ca  Ca2  1  0.50001829  0.00006140  0.21739198  1
  Ca  Ca3  1  0.99998171  0.50006140  0.28260802  1
  I  I0  1  0.50000000  0.50000000  0.50000000  1
  I  I1  1  0.00000000  0.00000000  0.00000000  1
  O  O0  1  0.37503808  0.31658259  0.65778935  1
  O  O1  1  0.12496192  0.81658259  0.84221065  1
  O  O2  1  0.62496192  0.68341741  0.34221065  1
  O  O3  1  0.87503808  0.18341741  0.15778935  1
  O  O4  1  0.62500568  0.68322382  0.65791145  1
  O  O5  1  0.87499432  0.18322382  0.84208855  1
  O  O6  1  0.37499432  0.31677618  0.34208855  1
  O  O7  1  0.12500568  0.81677618  0.15791145  1
  O  O8  1  0.21280890  0.64198080  0.50005198  1
  O  O9  1  0.28719110  0.14198080  0.99994802  1
  O  O10  1  0.78719110  0.35801920  0.49994802  1
  O  O11  1  0.71280890  0.85801920  0.00005198  1
loop_
_geom_bond_atom_site_label_1
_geom_bond_atom_site_label_2
_geom_bond_distance
_geom_bond_site_symmetry_2
Ca0 O0 2.348960 1_565
Ca0 O4 2.349066 1_555
Ca0 O9 2.374922 1_565
Ca0 O11 2.375240 1_556
Ca0 O5 2.469032 1_565
Ca0 O1 2.469569 1_555
Ca1 O1 2.348960 1_555
Ca1 O5 2.349066 1_455
Ca1 O8 2.374922 1_555
Ca1 O10 2.375240 1_455
Ca1 O4 2.469032 1_455
Ca1 O0 2.469569 1_555
Ca2 O2 2.348960 1_545
Ca2 O6 2.349066 1_555
Ca2 O11 2.374922 1_545
Ca2 O9 2.375240 1_554
Ca2 O7 2.469032 1_545
Ca2 O3 2.469569 1_555
Ca3 O3 2.348960 1_555
Ca3 O7 2.349066 1_655
Ca3 O10 2.374922 1_555
Ca3 O8 2.375240 1_655
Ca3 O6 2.469032 1_655
Ca3 O2 2.469569 1_555
I0 O10 1.855789 1_555
I0 O8 1.855789 1_555
I0 O4 1.897430 1_555
I0 O6 1.897430 1_555
I0 O2 1.897433 1_555
I0 O0 1.897433 1_555
I1 O9 1.855789 1_554
I1 O11 1.855789 1_445
I1 O7 1.897430 1_545
I1 O5 1.897430 1_454
I1 O3 1.897433 1_455
I1 O1 1.897433 1_544
O8 Rb1 2.537629 1_565
O9 Rb0 2.537629 1_556
O10 Rb1 2.537629 1_655
O11 Rb0 2.537629 1_555
