# generated using pymatgen
data_ZrSiS
_symmetry_space_group_name_H-M   'P 1'
_cell_length_a   3.55425113
_cell_length_b   3.55425113
_cell_length_c   8.11758879
_cell_angle_alpha   90.00000000
_cell_angle_beta   90.00000000
_cell_angle_gamma   90.00000000
_symmetry_Int_Tables_number   1
_chemical_formula_structural   ZrSiS
_chemical_formula_sum   'Zr2 Si2 S2'
_cell_volume   102.54707280
_cell_formula_units_Z   2
loop_
 _symmetry_equiv_pos_site_id
 _symmetry_equiv_pos_as_xyz
  1  'x, y, z'
loop_
 _atom_site_type_symbol
 _atom_site_label
 _atom_site_symmetry_multiplicity
 _atom_site_fract_x
 _atom_site_fract_y
 _atom_site_fract_z
 _atom_site_occupancy
  Zr  Zr0  1  0.75000000  0.75000000  0.73082952  1
  Zr  Zr1  1  0.25000000  0.25000000  0.26917048  1
  Si  Si0  1  0.75000000  0.25000000  -0.00000000  1
  Si  Si1  1  0.25000000  0.75000000  -0.00000000  1
  S  S0  1  0.25000000  0.25000000  0.62254082  1
  S  S1  1  0.75000000  0.75000000  0.37745918  1
loop_
_geom_bond_atom_site_label_1
_geom_bond_atom_site_label_2
_geom_bond_distance
_geom_bond_site_symmetry_2
Si0 Si1 2.513235 1_655
Si0 Si1 2.513235 1_645
Si0 Si1 2.513235 1_555
Si0 Si1 2.513235 1_545
Si0 Zr1 2.816464 1_555
Si0 Zr0 2.816464 1_544
Si0 Zr1 2.816464 1_655
Si0 Zr0 2.816464 1_554
Si1 Zr1 2.816464 1_555
Si1 Zr0 2.816464 1_454
Si1 Zr1 2.816464 1_565
Si1 Zr0 2.816464 1_554
S0 Zr0 2.662530 1_455
S0 Zr0 2.662530 1_445
S0 Zr0 2.662530 1_545
S0 Zr0 2.662530 1_555
S0 Zr1 2.868515 1_555
S1 Zr1 2.662530 1_565
S1 Zr1 2.662530 1_655
S1 Zr1 2.662530 1_665
S1 Zr1 2.662530 1_555
S1 Zr0 2.868515 1_555
