# generated using pymatgen
data_Zr4Nb5WN12
_symmetry_space_group_name_H-M   'P 1'
_cell_length_a   5.31591624
_cell_length_b   5.29172482
_cell_length_c   10.65785025
_cell_angle_alpha   90.00000000
_cell_angle_beta   90.00000000
_cell_angle_gamma   120.15135386
_symmetry_Int_Tables_number   1
_chemical_formula_structural   Zr4Nb5WN12
_chemical_formula_sum   'Zr4 Nb5 W1 N12'
_cell_volume   259.24551025
_cell_formula_units_Z   1
loop_
 _symmetry_equiv_pos_site_id
 _symmetry_equiv_pos_as_xyz
  1  'x, y, z'
loop_
 _atom_site_type_symbol
 _atom_site_label
 _atom_site_symmetry_multiplicity
 _atom_site_fract_x
 _atom_site_fract_y
 _atom_site_fract_z
 _atom_site_occupancy
  Zr  Zr0  1  0.33103671  0.66475384  0.49868246  1
  Zr  Zr1  1  0.66628387  0.33524616  0.00131754  1
  Zr  Zr2  1  0.66628387  0.33524616  0.49868246  1
  Zr  Zr3  1  0.33103671  0.66475384  0.00131754  1
  Nb  Nb0  1  0.67812638  0.67883766  0.25000000  1
  Nb  Nb1  1  0.99928872  0.32116234  0.25000000  1
  Nb  Nb2  1  0.00002211  0.67561181  0.75000000  1
  Nb  Nb3  1  0.32441130  0.32438819  0.75000000  1
  Nb  Nb4  1  0.32107095  1.00000000  0.25000000  1
  W  W0  1  0.67794533  0.00000000  0.75000000  1
  N  N0  1  0.34361193  0.34377453  0.37403382  1
  N  N1  1  0.65381309  1.00000000  0.37445970  1
  N  N2  1  0.99983740  0.65622547  0.37403382  1
  N  N3  1  0.99423272  0.33663039  0.87178031  1
  N  N4  1  0.65381309  1.00000000  0.12554030  1
  N  N5  1  0.65760233  0.66336961  0.87178031  1
  N  N6  1  0.35314905  0.00000000  0.87095629  1
  N  N7  1  0.65760233  0.66336961  0.62821969  1
  N  N8  1  0.99423272  0.33663039  0.62821969  1
  N  N9  1  0.99983740  0.65622547  0.12596618  1
  N  N10  1  0.35314905  0.00000000  0.62904371  1
  N  N11  1  0.34361193  0.34377453  0.12596618  1
loop_
_geom_bond_atom_site_label_1
_geom_bond_atom_site_label_2
_geom_bond_distance
_geom_bond_site_symmetry_2
N0 Zr0 2.183673 1_555
N0 Zr2 2.187904 1_555
N0 Nb4 2.202778 1_545
N0 Nb0 2.210446 1_555
N0 Nb1 2.211819 1_455
N1 Zr2 2.187755 1_565
N1 Zr0 2.187757 1_555
N1 Nb1 2.210250 1_565
N1 Nb0 2.210250 1_555
N1 Nb4 2.210947 1_555
N2 Zr2 2.183671 1_555
N2 Zr0 2.187899 1_655
N2 Nb4 2.202778 1_655
N2 Nb1 2.210446 1_555
N2 Nb0 2.211819 1_555
N3 W0 2.162403 1_555
N3 Nb2 2.201768 1_655
N3 Nb3 2.209919 1_655
N3 Zr1 2.220926 1_556
N3 Zr3 2.236854 1_656
N4 Zr1 2.187755 1_565
N4 Zr3 2.187757 1_555
N4 Nb1 2.210250 1_565
N4 Nb0 2.210250 1_555
N4 Nb4 2.210947 1_555
N5 W0 2.162404 1_565
N5 Nb3 2.201765 1_555
N5 Nb2 2.209915 1_655
N5 Zr3 2.220931 1_556
N5 Zr1 2.236856 1_556
N6 W0 2.154757 1_555
N6 Zr3 2.209495 1_546
N6 Zr1 2.209496 1_556
N6 Nb3 2.212524 1_555
N6 Nb2 2.212526 1_545
N7 W0 2.162404 1_565
N7 Nb3 2.201765 1_555
N7 Nb2 2.209915 1_655
N7 Zr0 2.220931 1_555
N7 Zr2 2.236856 1_555
N8 W0 2.162403 1_555
N8 Nb2 2.201768 1_655
N8 Nb3 2.209919 1_655
N8 Zr2 2.220926 1_555
N8 Zr0 2.236854 1_655
N9 Zr1 2.183671 1_555
N9 Zr3 2.187899 1_655
N9 Nb4 2.202778 1_655
N9 Nb1 2.210446 1_555
N9 Nb0 2.211819 1_555
N10 W0 2.154757 1_555
N10 Zr0 2.209495 1_545
N10 Zr2 2.209496 1_555
N10 Nb3 2.212524 1_555
N10 Nb2 2.212526 1_545
N11 Zr3 2.183673 1_555
N11 Zr1 2.187904 1_555
N11 Nb4 2.202778 1_545
N11 Nb0 2.210446 1_555
N11 Nb1 2.211819 1_455
