# generated using pymatgen
data_Nd2Se3
_symmetry_space_group_name_H-M   'P 1'
_cell_length_a   23.21959153
_cell_length_b   8.94112552
_cell_length_c   8.94112734
_cell_angle_alpha   89.98698798
_cell_angle_beta   54.71454768
_cell_angle_gamma   54.71455216
_symmetry_Int_Tables_number   1
_chemical_formula_structural   Nd2Se3
_chemical_formula_sum   'Nd16 Se24'
_cell_volume   1070.84165575
_cell_formula_units_Z   8
loop_
 _symmetry_equiv_pos_site_id
 _symmetry_equiv_pos_as_xyz
  1  'x, y, z'
loop_
 _atom_site_type_symbol
 _atom_site_label
 _atom_site_symmetry_multiplicity
 _atom_site_fract_x
 _atom_site_fract_y
 _atom_site_fract_z
 _atom_site_occupancy
  Nd  Nd0  1  0.99553086  0.39207152  0.24834230  1
  Nd  Nd1  1  0.99549941  0.12141099  0.76514810  1
  Nd  Nd2  1  0.08424306  0.62371806  0.37365696  1
  Nd  Nd3  1  0.16675122  0.24986270  0.63091219  1
  Nd  Nd4  1  0.24909700  0.87632871  0.12636384  1
  Nd  Nd5  1  0.33781097  0.37869973  0.25183755  1
  Nd  Nd6  1  0.16663438  0.75001968  0.86904515  1
  Nd  Nd7  1  0.33782089  0.10777600  0.73483770  1
  Nd  Nd8  1  0.49549941  0.26514710  0.62141099  1
  Nd  Nd9  1  0.58424206  0.87365796  0.12371806  1
  Nd  Nd10  1  0.66663438  0.36904515  0.25001968  1
  Nd  Nd11  1  0.66675122  0.13091219  0.74986270  1
  Nd  Nd12  1  0.49553086  0.74834230  0.89207052  1
  Nd  Nd13  1  0.74909700  0.62636384  0.37632871  1
  Nd  Nd14  1  0.83782089  0.23483770  0.60777600  1
  Nd  Nd15  1  0.83781097  0.75183755  0.87870073  1
  Se  Se0  1  0.12570501  0.48904770  0.99292921  1
  Se  Se1  1  0.04965447  0.35214250  0.49583966  1
  Se  Se2  1  0.28352437  0.14820252  0.14490399  1
  Se  Se3  1  0.04978565  0.99920005  0.35485805  1
  Se  Se4  1  0.28349870  0.50112848  0.00480223  1
  Se  Se5  1  0.20756756  0.01093368  0.86982980  1
  Se  Se6  1  0.12566127  0.63380507  0.63003443  1
  Se  Se7  1  0.20765202  0.86614530  0.50716743  1
  Se  Se8  1  0.44962920  0.49605822  -0.00110290  1
  Se  Se9  1  0.38384209  0.34737414  0.50394846  1
  Se  Se10  1  0.62566127  0.13003443  0.13380507  1
  Se  Se11  1  0.38399078  0.00037107  0.34467116  1
  Se  Se12  1  0.62570501  0.49292921  0.98904770  1
  Se  Se13  1  0.44943310  0.65532456  0.65234402  1
  Se  Se14  1  0.54965547  0.99583966  0.85214250  1
  Se  Se15  1  0.54978565  0.85485705  0.49920005  1
  Se  Se16  1  0.78349870  0.50480223  0.00112848  1
  Se  Se17  1  0.70756756  0.36982980  0.51093368  1
  Se  Se18  1  0.94943310  0.15234402  0.15532456  1
  Se  Se19  1  0.70765202  0.00716743  0.36614530  1
  Se  Se20  1  0.94962920  0.49889710  0.99605822  1
  Se  Se21  1  0.88384209  0.00394946  0.84737514  1
  Se  Se22  1  0.78352437  0.64490499  0.64820252  1
  Se  Se23  1  0.88399078  0.84467216  0.50037107  1
loop_
_geom_bond_atom_site_label_1
_geom_bond_atom_site_label_2
_geom_bond_distance
_geom_bond_site_symmetry_2
Nd0 Se5 2.945882 1_654
Nd0 Se20 2.955828 1_554
Nd0 Se22 2.989926 1_555
Nd0 Se1 3.049260 1_655
Nd0 Se23 3.052049 1_555
Nd0 Se18 3.179865 1_555
Nd0 Se0 3.186752 1_654
Nd0 Se3 3.332463 1_645
Nd1 Se7 2.946525 1_645
Nd1 Se18 2.956121 1_556
Nd1 Se16 2.990557 1_556
Nd1 Se21 3.050993 1_555
Nd1 Se3 3.051027 1_645
Nd1 Se20 3.177765 1_555
Nd1 Se6 3.187877 1_645
Nd1 Se1 3.336452 1_655
Nd2 Se6 2.972354 1_555
Nd2 Se0 2.973422 1_554
Nd2 Se1 2.995456 1_555
Nd2 Se3 2.998546 1_555
Nd2 Se4 3.162039 1_555
Nd2 Se2 3.164247 1_555
Nd2 Se23 3.179496 1_455
Nd2 Se21 3.179751 1_465
Nd3 Se6 2.986587 1_555
Nd3 Se7 2.986703 1_545
Nd3 Se20 3.008688 1_455
Nd3 Se11 3.009740 1_555
Nd3 Se5 3.165928 1_555
Nd3 Se0 3.169124 1_555
Nd3 Se2 3.256276 1_555
Nd3 Se1 3.256990 1_555
Nd4 Se7 2.973684 1_555
Nd4 Se5 2.975344 1_564
Nd4 Se2 2.995636 1_565
Nd4 Se4 2.996038 1_555
Nd4 Se3 3.162666 1_555
Nd4 Se1 3.166869 1_565
Nd4 Se13 3.180166 1_554
Nd4 Se8 3.181321 1_555
Nd5 Se6 2.946407 1_555
Nd5 Se9 2.956243 1_555
Nd5 Se14 2.988115 1_544
Nd5 Se4 3.047864 1_555
Nd5 Se8 3.052799 1_555
Nd5 Se11 3.180848 1_555
Nd5 Se7 3.186940 1_555
Nd5 Se2 3.338389 1_555
Nd6 Se5 2.985799 1_565
Nd6 Se0 2.986536 1_555
Nd6 Se18 3.009612 1_466
Nd6 Se9 3.010216 1_555
Nd6 Se7 3.167799 1_555
Nd6 Se6 3.169175 1_555
Nd6 Se3 3.255492 1_556
Nd6 Se4 3.258305 1_556
Nd7 Se0 2.946120 1_555
Nd7 Se11 2.955130 1_555
Nd7 Se15 2.990008 1_545
Nd7 Se2 3.049067 1_556
Nd7 Se13 3.050662 1_545
Nd7 Se9 3.176028 1_555
Nd7 Se5 3.187694 1_555
Nd7 Se4 3.338873 1_556
Nd8 Se19 2.946527 1_555
Nd8 Se13 2.956129 1_555
Nd8 Se4 2.990555 1_556
Nd8 Se9 3.051001 1_555
Nd8 Se15 3.051026 1_545
Nd8 Se8 3.177769 1_556
Nd8 Se10 3.187879 1_555
Nd8 Se14 3.336455 1_545
Nd9 Se10 2.972364 1_565
Nd9 Se12 2.973416 1_554
Nd9 Se14 2.995431 1_554
Nd9 Se15 2.998558 1_555
Nd9 Se16 3.162056 1_555
Nd9 Se22 3.164254 1_554
Nd9 Se11 3.179482 1_565
Nd9 Se9 3.179738 1_565
Nd10 Se17 2.985800 1_555
Nd10 Se12 2.986536 1_554
Nd10 Se13 3.009612 1_555
Nd10 Se21 3.010213 1_554
Nd10 Se19 3.167799 1_555
Nd10 Se10 3.169175 1_555
Nd10 Se15 3.255484 1_555
Nd10 Se16 3.258305 1_555
Nd11 Se10 2.986588 1_556
Nd11 Se19 2.986704 1_555
Nd11 Se8 3.008688 1_556
Nd11 Se23 3.009741 1_545
Nd11 Se17 3.165927 1_555
Nd11 Se12 3.169124 1_555
Nd11 Se22 3.256268 1_545
Nd11 Se14 3.256969 1_545
Nd12 Se17 2.945880 1_555
Nd12 Se8 2.955829 1_556
Nd12 Se2 2.989925 1_566
Nd12 Se14 3.049278 1_555
Nd12 Se11 3.052050 1_566
Nd12 Se13 3.179857 1_555
Nd12 Se12 3.186760 1_555
Nd12 Se15 3.332451 1_555
Nd13 Se19 2.973683 1_565
Nd13 Se17 2.975344 1_555
Nd13 Se22 2.995638 1_555
Nd13 Se16 2.996039 1_555
Nd13 Se15 3.162668 1_555
Nd13 Se14 3.166868 1_555
Nd13 Se18 3.180166 1_555
Nd13 Se20 3.181321 1_554
Nd14 Se12 2.946121 1_555
Nd14 Se23 2.955121 1_545
Nd14 Se3 2.990010 1_645
Nd14 Se22 3.049075 1_555
Nd14 Se18 3.050663 1_555
Nd14 Se21 3.176032 1_555
Nd14 Se17 3.187694 1_555
Nd14 Se16 3.338873 1_556
Nd15 Se10 2.946409 1_566
Nd15 Se21 2.956251 1_565
Nd15 Se1 2.988110 1_655
Nd15 Se16 3.047862 1_556
Nd15 Se20 3.052792 1_555
Nd15 Se23 3.180860 1_555
Nd15 Se19 3.186933 1_566
Nd15 Se22 3.338392 1_555
