# generated using pymatgen
data_Na4In7(GaTe4)5
_symmetry_space_group_name_H-M   'P 1'
_cell_length_a   10.77602250
_cell_length_b   10.71744995
_cell_length_c   10.72223767
_cell_angle_alpha   88.93629257
_cell_angle_beta   89.50073249
_cell_angle_gamma   90.93916918
_symmetry_Int_Tables_number   1
_chemical_formula_structural   Na4In7(GaTe4)5
_chemical_formula_sum   'Na4 In7 Ga5 Te20'
_cell_volume   1237.89702099
_cell_formula_units_Z   1
loop_
 _symmetry_equiv_pos_site_id
 _symmetry_equiv_pos_as_xyz
  1  'x, y, z'
loop_
 _atom_site_type_symbol
 _atom_site_label
 _atom_site_symmetry_multiplicity
 _atom_site_fract_x
 _atom_site_fract_y
 _atom_site_fract_z
 _atom_site_occupancy
  Na  Na0  1  0.25831523  0.00191942  0.25767246  1
  Na  Na1  1  0.00345930  0.74117371  0.73971829  1
  Na  Na2  1  0.74263959  0.25770947  0.99895615  1
  Na  Na3  1  0.50215751  0.49805531  0.49716618  1
  In  In0  1  0.42792848  0.12561347  0.84012743  1
  In  In1  1  0.12275788  0.16041738  0.57337932  1
  In  In2  1  0.15760183  0.42869515  0.87718207  1
  In  In3  1  0.87601796  0.57222775  0.15822173  1
  In  In4  1  0.57003573  0.83861687  0.12595098  1
  In  In5  1  0.84345910  0.87632737  0.42318880  1
  In  In6  1  0.65746167  0.83134842  0.74414425  1
  Ga  Ga0  1  0.83280392  0.25601671  0.34633237  1
  Ga  Ga1  1  0.25446310  0.65305154  0.16935924  1
  Ga  Ga2  1  0.16510864  0.34636272  0.25752390  1
  Ga  Ga3  1  0.34321796  0.74433394  0.83501062  1
  Ga  Ga4  1  0.74798368  0.17008738  0.65406313  1
  Te  Te0  1  0.99881942  0.18350594  0.18516357  1
  Te  Te1  1  0.82820141  0.01056559  0.82059059  1
  Te  Te2  1  0.83217028  0.83442931  0.16175386  1
  Te  Te3  1  0.16705919  0.16724511  0.83521539  1
  Te  Te4  1  0.18180107  0.81553577  0.00138965  1
  Te  Te5  1  0.91131138  0.50049653  0.91100016  1
  Te  Te6  1  0.50035588  0.08675378  0.08764074  1
  Te  Te7  1  0.08832956  0.91349883  0.49893871  1
  Te  Te8  1  0.57934407  0.31804632  0.74090621  1
  Te  Te9  1  0.31653691  0.25787455  0.42391679  1
  Te  Te10  1  0.25641210  0.57775556  0.68315779  1
  Te  Te11  1  0.68229330  0.41983063  0.25269523  1
  Te  Te12  1  0.42001477  0.74353377  0.32075029  1
  Te  Te13  1  0.75294244  0.67396870  0.56698782  1
  Te  Te14  1  0.42121612  0.92423216  0.67382562  1
  Te  Te15  1  0.92338388  0.32940779  0.56604087  1
  Te  Te16  1  0.32289884  0.43129900  0.08037393  1
  Te  Te17  1  0.07658787  0.56792006  0.32659376  1
  Te  Te18  1  0.55837192  0.66529987  0.93090974  1
  Te  Te19  1  0.67653903  0.07684616  0.43414935  1
loop_
_geom_bond_atom_site_label_1
_geom_bond_atom_site_label_2
_geom_bond_distance
_geom_bond_site_symmetry_2
Na0 Te7 3.273381 1_545
Na0 Te6 3.275846 1_555
Na0 Te9 3.352710 1_555
Na0 Te12 3.357306 1_545
Na0 Te0 3.517315 1_455
Na0 Te4 3.522848 1_545
Na1 Te7 3.261751 1_555
Na1 Te5 3.274257 1_455
Na1 Te10 3.321526 1_555
Na1 Te13 3.362964 1_455
Na1 Te4 3.511023 1_556
Na1 Te1 3.591339 1_465
Na2 Te5 3.269220 1_555
Na2 Te6 3.288311 1_556
Na2 Te11 3.320472 1_556
Na2 Te8 3.350513 1_555
Na2 Te1 3.429429 1_555
Na2 Te0 3.514071 1_556
Na3 Te8 3.338733 1_555
Na3 Te9 3.343296 1_555
Na3 Te12 3.347235 1_555
Na3 Te13 3.367334 1_555
Na3 Te11 3.374651 1_555
Na3 Te10 3.429978 1_555
In0 Te8 2.797419 1_555
In0 Te6 2.798479 1_556
In0 Te14 2.825425 1_545
In0 Te3 2.854321 1_555
In1 Te9 2.797799 1_555
In1 Te7 2.798074 1_545
In1 Te15 2.833290 1_455
In1 Te3 2.853941 1_555
In2 Te10 2.792152 1_555
In2 Te5 2.797870 1_455
In2 Te16 2.826390 1_556
In2 Te3 2.849541 1_555
In3 Te5 2.798198 1_554
In3 Te11 2.800311 1_555
In3 Te17 2.828590 1_655
In3 Te2 2.858094 1_555
In4 Te12 2.796904 1_555
In4 Te6 2.799143 1_565
In4 Te18 2.825025 1_554
In4 Te2 2.855015 1_555
In5 Te7 2.792166 1_655
In5 Te13 2.795096 1_555
In5 Te19 2.828442 1_565
In5 Te2 2.850451 1_555
In6 Te13 2.766508 1_555
In6 Te1 2.777635 1_565
In6 Te18 2.843506 1_555
In6 Te14 2.851166 1_555
Ga0 Te11 2.603314 1_555
Ga0 Te0 2.613859 1_555
Ga0 Te15 2.684172 1_555
Ga0 Te19 2.684915 1_555
Ga1 Te12 2.609627 1_555
Ga1 Te4 2.615741 1_555
Ga1 Te17 2.679189 1_555
Ga1 Te16 2.689223 1_555
Ga2 Te9 2.604578 1_555
Ga2 Te0 2.613701 1_455
Ga2 Te16 2.675164 1_555
Ga2 Te17 2.687753 1_555
Ga3 Te10 2.606350 1_555
Ga3 Te4 2.613508 1_556
Ga3 Te14 2.684878 1_555
Ga3 Te18 2.687720 1_555
Ga4 Te8 2.608423 1_555
Ga4 Te1 2.611586 1_555
Ga4 Te15 2.679954 1_555
Ga4 Te19 2.691702 1_555
