# generated using pymatgen
data_Sb12Ir2OsPd
_symmetry_space_group_name_H-M   'P 1'
_cell_length_a   8.09468222
_cell_length_b   8.08950870
_cell_length_c   8.10597619
_cell_angle_alpha   109.44898282
_cell_angle_beta   109.45890564
_cell_angle_gamma   109.38050016
_symmetry_Int_Tables_number   1
_chemical_formula_structural   Sb12Ir2OsPd
_chemical_formula_sum   'Sb12 Ir2 Os1 Pd1'
_cell_volume   409.23693855
_cell_formula_units_Z   1
loop_
 _symmetry_equiv_pos_site_id
 _symmetry_equiv_pos_as_xyz
  1  'x, y, z'
loop_
 _atom_site_type_symbol
 _atom_site_label
 _atom_site_symmetry_multiplicity
 _atom_site_fract_x
 _atom_site_fract_y
 _atom_site_fract_z
 _atom_site_occupancy
  Sb  Sb0  1  0.84590965  0.66063837  0.50682937  1
  Sb  Sb1  1  0.85046545  0.34498185  0.18782053  1
  Sb  Sb2  1  0.14953455  0.65501815  0.81217947  1
  Sb  Sb3  1  0.33494411  0.49020428  0.15316676  1
  Sb  Sb4  1  0.15409035  0.33936163  0.49317063  1
  Sb  Sb5  1  0.65884977  0.80922513  0.15602482  1
  Sb  Sb6  1  0.18164638  0.84442910  0.33444341  1
  Sb  Sb7  1  0.66505589  0.50979572  0.84683324  1
  Sb  Sb8  1  0.81835362  0.15557090  0.66555659  1
  Sb  Sb9  1  0.34115023  0.19077487  0.84397518  1
  Sb  Sb10  1  0.50298763  0.84480999  0.65361320  1
  Sb  Sb11  1  0.49701237  0.15519001  0.34638680  1
  Ir  Ir0  1  0.00000000  0.00000000  0.50000000  1
  Ir  Ir1  1  0.50000000  0.50000000  0.50000000  1
  Os  Os0  1  0.00000000  0.50000000  0.00000000  1
  Pd  Pd0  1  0.50000000  0.00000000  0.00000000  1
loop_
_geom_bond_atom_site_label_1
_geom_bond_atom_site_label_2
_geom_bond_distance
_geom_bond_site_symmetry_2
Sb0 Sb2 2.874896 1_655
Sb0 Sb1 2.989540 1_555
Sb1 Sb4 2.874896 1_655
Sb2 Sb4 2.989540 1_555
Sb3 Sb9 2.876308 1_554
Sb3 Sb5 2.994004 1_555
Sb5 Sb7 2.876308 1_554
Sb7 Sb9 2.994004 1_555
Sb10 Sb8 2.874009 1_565
Sb10 Sb6 2.994193 1_555
Sb11 Sb6 2.874009 1_545
Sb11 Sb8 2.994193 1_555
Ir0 Sb9 2.637784 1_555
Ir0 Sb5 2.637784 1_445
Ir0 Sb6 2.639100 1_545
Ir0 Sb8 2.639100 1_455
Ir0 Sb0 2.640073 1_445
Ir0 Sb4 2.640073 1_555
Ir1 Sb10 2.636990 1_555
Ir1 Sb11 2.636990 1_555
Ir1 Sb0 2.639288 1_555
Ir1 Sb4 2.639288 1_555
Ir1 Sb7 2.640868 1_555
Ir1 Sb3 2.640868 1_555
Os0 Sb2 2.616763 1_554
Os0 Sb1 2.616763 1_455
Os0 Sb3 2.619935 1_555
Os0 Sb7 2.619935 1_454
Os0 Sb6 2.621019 1_555
Os0 Sb8 2.621019 1_454
Pd0 Sb5 2.677298 1_545
Pd0 Sb9 2.677298 1_554
Pd0 Sb11 2.679255 1_555
Pd0 Sb10 2.679255 1_544
Pd0 Sb1 2.681917 1_555
Pd0 Sb2 2.681917 1_544
