# generated using pymatgen
data_Ta3Si3MoRu2
_symmetry_space_group_name_H-M   'P 1'
_cell_length_a   7.46216493
_cell_length_b   7.46216474
_cell_length_c   7.46216470
_cell_angle_alpha   126.72314949
_cell_angle_beta   124.03616084
_cell_angle_gamma   80.92861053
_symmetry_Int_Tables_number   1
_chemical_formula_structural   Ta3Si3MoRu2
_chemical_formula_sum   'Ta6 Si6 Mo2 Ru4'
_cell_volume   266.01611456
_cell_formula_units_Z   2
loop_
 _symmetry_equiv_pos_site_id
 _symmetry_equiv_pos_as_xyz
  1  'x, y, z'
loop_
 _atom_site_type_symbol
 _atom_site_label
 _atom_site_symmetry_multiplicity
 _atom_site_fract_x
 _atom_site_fract_y
 _atom_site_fract_z
 _atom_site_occupancy
  Ta  Ta0  1  0.46164744  0.68468919  0.72304175  1
  Ta  Ta1  1  0.53835256  0.26139431  0.22304175  1
  Ta  Ta2  1  0.74747247  0.83137018  0.58389772  1
  Ta  Ta3  1  0.25252753  0.83642425  0.08389772  1
  Ta  Ta4  1  0.05918422  0.27380827  0.71462304  1
  Ta  Ta5  1  0.94081578  0.65543882  0.21462304  1
  Si  Si0  1  0.27928819  0.25845577  0.47916758  1
  Si  Si1  1  0.72071181  0.19987639  0.97916758  1
  Si  Si2  1  0.32503188  0.59171854  0.25689833  1
  Si  Si3  1  0.67496812  0.93186645  0.26668765  1
  Si  Si4  1  0.16517880  0.93186645  0.75689833  1
  Si  Si5  1  0.83482120  0.59171854  0.76668765  1
  Mo  Mo0  1  0.50000000  0.50008791  0.00008791  1
  Mo  Mo1  1  1.00000000  0.50008791  0.50008791  1
  Ru  Ru0  1  0.09254415  0.25438453  0.09355864  1
  Ru  Ru1  1  0.90745585  0.00101448  0.16184238  1
  Ru  Ru2  1  0.33917310  0.00101448  0.59355864  1
  Ru  Ru3  1  0.66082690  0.25438453  0.66184238  1
loop_
_geom_bond_atom_site_label_1
_geom_bond_atom_site_label_2
_geom_bond_distance
_geom_bond_site_symmetry_2
Si0 Ta0 2.636370 1_555
Si0 Ta3 2.662330 1_545
Si0 Ta4 2.954362 1_555
Si1 Ta1 2.636363 1_556
Si1 Ta2 2.662318 1_545
Si1 Ta5 2.954384 1_556
Si2 Ta4 2.637300 1_554
Si2 Ta0 2.643403 1_555
Si2 Ta3 2.649419 1_555
Si2 Ta2 2.652876 1_555
Si2 Ta1 2.672421 1_555
Si2 Ta5 2.698666 1_455
Si3 Ta5 2.637302 1_555
Si3 Ta1 2.643407 1_565
Si3 Ta2 2.649419 1_555
Si3 Ta3 2.652875 1_555
Si3 Ta0 2.672427 1_554
Si3 Ta4 2.698668 1_665
Si4 Ta5 2.637302 1_455
Si4 Ta1 2.643406 1_566
Si4 Ta2 2.649419 1_455
Si4 Ta3 2.652880 1_556
Si4 Ta0 2.672427 1_555
Si4 Ta4 2.698673 1_565
Si5 Ta4 2.637291 1_655
Si5 Ta0 2.643408 1_555
Si5 Ta3 2.649419 1_656
Si5 Ta2 2.652881 1_555
Si5 Ta1 2.672426 1_555
Si5 Ta5 2.698661 1_556
Mo0 Si0 2.541970 1_554
Mo0 Si1 2.541987 1_554
Mo0 Si3 2.607111 1_555
Mo0 Si2 2.607114 1_555
Mo0 Ta4 2.795567 1_554
Mo0 Ta5 2.795570 1_555
Mo0 Ta3 2.838077 1_555
Mo0 Ta2 2.838081 1_555
Mo0 Ru3 2.887117 1_554
Mo0 Ru2 2.887122 1_554
Mo0 Ta0 2.978685 1_554
Mo0 Ta1 2.978685 1_555
Mo1 Si0 2.541970 1_655
Mo1 Si1 2.541972 1_554
Mo1 Si4 2.607111 1_655
Mo1 Si5 2.607114 1_555
Mo1 Ta4 2.795563 1_655
Mo1 Ta5 2.795570 1_555
Mo1 Ta3 2.838081 1_656
Mo1 Ta2 2.838082 1_555
Mo1 Ru0 2.887122 1_655
Mo1 Ru1 2.887122 1_555
Mo1 Ta1 2.978685 1_555
Mo1 Ta0 2.978685 1_655
Ru0 Si0 2.375454 1_555
Ru0 Si1 2.425328 1_454
Ru0 Si2 2.484473 1_555
Ru0 Si4 2.505901 1_544
Ru0 Ta4 2.787388 1_554
Ru0 Ta5 2.810297 1_455
Ru0 Ta2 2.881365 1_444
Ru0 Ta1 2.898177 1_555
Ru1 Si1 2.375444 1_554
Ru1 Si0 2.425327 1_655
Ru1 Si3 2.484467 1_545
Ru1 Si5 2.505910 1_544
Ru1 Ta5 2.787373 1_545
Ru1 Ta4 2.810284 1_655
Ru1 Ta3 2.881374 1_645
Ru1 Ta0 2.898177 1_544
Ru2 Si1 2.375457 1_555
Ru2 Si0 2.425326 1_555
Ru2 Si4 2.484473 1_545
Ru2 Si2 2.505908 1_545
Ru2 Ta5 2.787378 1_445
Ru2 Ta4 2.810294 1_555
Ru2 Ta3 2.881366 1_545
Ru2 Ta0 2.898177 1_545
Ru3 Si0 2.375459 1_555
Ru3 Si1 2.425330 1_555
Ru3 Si5 2.484478 1_555
Ru3 Si3 2.505906 1_545
Ru3 Ta4 2.787384 1_655
Ru3 Ta5 2.810290 1_556
Ru3 Ta2 2.881359 1_545
Ru3 Ta1 2.898189 1_555
