# generated using pymatgen
data_Ca10HfTcN10
_symmetry_space_group_name_H-M   'P 1'
_cell_length_a   6.94359055
_cell_length_b   6.94358997
_cell_length_c   8.92161340
_cell_angle_alpha   80.45629126
_cell_angle_beta   80.45628275
_cell_angle_gamma   59.77849489
_symmetry_Int_Tables_number   1
_chemical_formula_structural   Ca10HfTcN10
_chemical_formula_sum   'Ca10 Hf1 Tc1 N10'
_cell_volume   364.81970879
_cell_formula_units_Z   1
loop_
 _symmetry_equiv_pos_site_id
 _symmetry_equiv_pos_as_xyz
  1  'x, y, z'
loop_
 _atom_site_type_symbol
 _atom_site_label
 _atom_site_symmetry_multiplicity
 _atom_site_fract_x
 _atom_site_fract_y
 _atom_site_fract_z
 _atom_site_occupancy
  Ca  Ca0  1  0.87661532  0.35266329  0.82774816  1
  Ca  Ca1  1  0.87443336  0.87443336  0.81858438  1
  Ca  Ca2  1  0.73864045  0.73864045  0.53305184  1
  Ca  Ca3  1  0.75016914  0.25021332  0.50944333  1
  Ca  Ca4  1  0.63032322  0.13686553  0.14886789  1
  Ca  Ca5  1  0.35266329  0.87661532  0.82774816  1
  Ca  Ca6  1  0.25021332  0.75016914  0.50944333  1
  Ca  Ca7  1  0.24138607  0.24138607  0.50003263  1
  Ca  Ca8  1  0.14049431  0.14049431  0.15770312  1
  Ca  Ca9  1  0.13686553  0.63032322  0.14886789  1
  Hf  Hf0  1  0.36967453  0.36967453  0.77824360  1
  Tc  Tc0  1  0.63230287  0.63230287  0.22902974  1
  N  N0  1  0.90117198  0.47514187  0.31616134  1
  N  N1  1  0.99570047  0.99570047  0.01509666  1
  N  N2  1  0.67528085  0.67528085  0.02719205  1
  N  N3  1  0.54207273  0.54207273  0.68881621  1
  N  N4  1  0.47514187  0.90117198  0.31616134  1
  N  N5  1  0.54318833  0.07658685  0.67242751  1
  N  N6  1  0.47812023  0.47812023  0.29594718  1
  N  N7  1  0.31933965  0.31933965  0.00873195  1
  N  N8  1  0.06190462  0.06190462  0.64408314  1
  N  N9  1  0.07658685  0.54318833  0.67242751  1
loop_
_geom_bond_atom_site_label_1
_geom_bond_atom_site_label_2
_geom_bond_distance
_geom_bond_site_symmetry_2
Ca0 N3 2.449641 1_555
Ca0 N8 2.489841 1_655
Ca0 N9 2.490302 1_655
Ca0 N1 2.577259 1_546
Ca0 N2 2.735494 1_556
Ca1 N9 2.469459 1_655
Ca1 N5 2.469459 1_565
Ca1 N8 2.484853 1_665
Ca1 N1 2.486879 1_556
Ca1 N2 2.739783 1_556
Ca2 N5 2.469092 1_565
Ca2 N9 2.469093 1_655
Ca2 N3 2.504888 1_555
Ca2 N0 2.595504 1_555
Ca2 N4 2.595505 1_555
Ca3 N8 2.308695 1_655
Ca3 N5 2.470484 1_555
Ca3 N3 2.473159 1_555
Ca3 N0 2.582256 1_555
Ca3 N6 2.623902 1_555
Ca4 N7 2.333861 1_555
Ca4 N1 2.387908 1_545
Ca4 N4 2.549306 1_545
Ca4 N6 2.550223 1_555
Ca5 N3 2.449641 1_555
Ca5 N8 2.489841 1_565
Ca5 N5 2.490302 1_565
Ca5 N1 2.577259 1_456
Ca5 N2 2.735495 1_556
Ca6 N8 2.308695 1_565
Ca6 N9 2.470484 1_555
Ca6 N3 2.473159 1_555
Ca6 N4 2.582256 1_555
Ca6 N6 2.623901 1_555
Ca7 N8 2.293298 1_555
Ca7 N9 2.477426 1_555
Ca7 N5 2.477427 1_555
Ca7 N4 2.729130 1_545
Ca7 N0 2.729131 1_455
Ca7 N6 3.074807 1_555
Ca8 N7 2.304029 1_555
Ca8 N1 2.346530 1_445
Ca8 N0 2.565634 1_455
Ca8 N4 2.565634 1_545
Ca9 N7 2.333860 1_555
Ca9 N1 2.387908 1_455
Ca9 N0 2.549306 1_455
Ca9 N6 2.550224 1_555
Hf0 N7 2.029562 1_556
Hf0 N5 2.067844 1_555
Hf0 N9 2.067845 1_555
Hf0 N3 2.076441 1_555
N0 Tc0 1.851899 1_555
N2 Tc0 1.775939 1_555
N4 Tc0 1.851899 1_555
N6 Tc0 1.838107 1_555
