# generated using pymatgen
data_Hf7Zr3(GaSn3)2
_symmetry_space_group_name_H-M   'P 1'
_cell_length_a   8.62020851
_cell_length_b   8.62020904
_cell_length_c   5.83253502
_cell_angle_alpha   90.00000000
_cell_angle_beta   90.00000000
_cell_angle_gamma   120.00000169
_symmetry_Int_Tables_number   1
_chemical_formula_structural   Hf7Zr3(GaSn3)2
_chemical_formula_sum   'Hf7 Zr3 Ga2 Sn6'
_cell_volume   375.33887470
_cell_formula_units_Z   1
loop_
 _symmetry_equiv_pos_site_id
 _symmetry_equiv_pos_as_xyz
  1  'x, y, z'
loop_
 _atom_site_type_symbol
 _atom_site_label
 _atom_site_symmetry_multiplicity
 _atom_site_fract_x
 _atom_site_fract_y
 _atom_site_fract_z
 _atom_site_occupancy
  Hf  Hf0  1  0.26860589  0.26860589  0.25000000  1
  Hf  Hf1  1  0.73139411  0.00000000  0.25000000  1
  Hf  Hf2  1  1.00000000  0.73139411  0.25000000  1
  Hf  Hf3  1  0.66666700  0.33333300  0.00123188  1
  Hf  Hf4  1  0.33333300  0.66666700  0.00123188  1
  Hf  Hf5  1  0.33333300  0.66666700  0.49876812  1
  Hf  Hf6  1  0.66666700  0.33333300  0.49876812  1
  Zr  Zr0  1  0.73876619  0.73876619  0.75000000  1
  Zr  Zr1  1  0.26123381  1.00000000  0.75000000  1
  Zr  Zr2  1  0.00000000  0.26123381  0.75000000  1
  Ga  Ga0  1  0.00000000  0.00000000  0.00896886  1
  Ga  Ga1  1  0.00000000  0.00000000  0.49103114  1
  Sn  Sn0  1  0.39142955  0.39142955  0.75000000  1
  Sn  Sn1  1  0.60857045  1.00000000  0.75000000  1
  Sn  Sn2  1  0.00000000  0.60857045  0.75000000  1
  Sn  Sn3  1  0.61206422  0.61206422  0.25000000  1
  Sn  Sn4  1  0.38793578  0.00000000  0.25000000  1
  Sn  Sn5  1  1.00000000  0.38793578  0.25000000  1
loop_
_geom_bond_atom_site_label_1
_geom_bond_atom_site_label_2
_geom_bond_distance
_geom_bond_site_symmetry_2
Hf0 Sn3 2.960682 1_555
Hf0 Sn5 2.966673 1_455
Hf0 Sn4 2.966673 1_555
Hf0 Sn0 3.102515 1_554
Hf0 Sn0 3.102515 1_555
Hf1 Sn4 2.960682 1_555
Hf1 Sn5 2.966673 1_555
Hf1 Sn3 2.966673 1_545
Hf1 Sn1 3.102515 1_545
Hf1 Sn1 3.102515 1_544
Hf2 Sn5 2.960683 1_555
Hf2 Sn3 2.966673 1_555
Hf2 Sn4 2.966673 1_665
Hf2 Sn2 3.102515 1_655
Hf2 Sn2 3.102515 1_654
Hf3 Sn1 3.035685 1_544
Hf3 Sn2 3.035687 1_654
Hf3 Sn0 3.035692 1_554
Hf3 Sn5 3.038215 1_555
Hf3 Sn4 3.038218 1_555
Hf3 Sn3 3.038223 1_555
Hf4 Sn2 3.035684 1_554
Hf4 Sn1 3.035687 1_554
Hf4 Sn0 3.035692 1_554
Hf4 Sn4 3.038216 1_565
Hf4 Sn5 3.038218 1_455
Hf4 Sn3 3.038223 1_555
Hf5 Sn2 3.035684 1_555
Hf5 Sn1 3.035687 1_555
Hf5 Sn0 3.035692 1_555
Hf5 Sn4 3.038216 1_565
Hf5 Sn5 3.038218 1_455
Hf5 Sn3 3.038223 1_555
Hf6 Sn1 3.035685 1_545
Hf6 Sn2 3.035687 1_655
Hf6 Sn0 3.035692 1_555
Hf6 Sn5 3.038215 1_555
Hf6 Sn4 3.038218 1_555
Hf6 Sn3 3.038223 1_555
Ga0 Hf1 2.708799 1_455
Ga0 Hf0 2.708799 1_555
Ga0 Hf2 2.708799 1_445
Ga0 Zr1 2.711541 1_544
Ga0 Zr0 2.711541 1_444
Ga0 Zr2 2.711541 1_554
Ga1 Hf1 2.708799 1_455
Ga1 Hf0 2.708799 1_555
Ga1 Hf2 2.708799 1_445
Ga1 Zr1 2.711541 1_545
Ga1 Zr0 2.711541 1_445
Ga1 Zr2 2.711541 1_555
Sn0 Zr2 2.976227 1_555
Sn0 Zr1 2.976227 1_545
Sn0 Zr0 2.994114 1_555
Sn1 Zr2 2.976227 1_665
Sn1 Zr0 2.976227 1_555
Sn1 Zr1 2.994114 1_555
Sn2 Zr0 2.976227 1_455
Sn2 Zr1 2.976227 1_555
Sn2 Zr2 2.994114 1_555
Sn3 Zr0 3.114083 1_555
Sn3 Zr0 3.114083 1_554
Sn4 Zr1 3.114083 1_544
Sn4 Zr1 3.114083 1_545
Sn5 Zr2 3.114083 1_655
Sn5 Zr2 3.114083 1_654
