# generated using pymatgen
data_NbReSe4
_symmetry_space_group_name_H-M   'P 1'
_cell_length_a   3.35502793
_cell_length_b   5.80846275
_cell_length_c   7.14092621
_cell_angle_alpha   73.15689213
_cell_angle_beta   90.00000000
_cell_angle_gamma   90.00000000
_symmetry_Int_Tables_number   1
_chemical_formula_structural   NbReSe4
_chemical_formula_sum   'Nb1 Re1 Se4'
_cell_volume   133.18950711
_cell_formula_units_Z   1
loop_
 _symmetry_equiv_pos_site_id
 _symmetry_equiv_pos_as_xyz
  1  'x, y, z'
loop_
 _atom_site_type_symbol
 _atom_site_label
 _atom_site_symmetry_multiplicity
 _atom_site_fract_x
 _atom_site_fract_y
 _atom_site_fract_z
 _atom_site_occupancy
  Nb  Nb0  1  0.50000000  0.49865014  0.00070404  1
  Re  Re0  1  0.00000000  0.00327970  0.00070696  1
  Se  Se0  1  0.00000000  0.41323143  0.75207309  1
  Se  Se1  1  0.50000000  0.92589791  0.76107406  1
  Se  Se2  1  0.50000000  0.75496960  0.24054996  1
  Se  Se3  1  0.00000000  0.23597022  0.24889190  1
loop_
_geom_bond_atom_site_label_1
_geom_bond_atom_site_label_2
_geom_bond_distance
_geom_bond_site_symmetry_2
Nb0 Se1 2.574071 1_554
Nb0 Se2 2.574433 1_555
Nb0 Se3 2.591524 1_555
Nb0 Se3 2.591524 1_655
Nb0 Se0 2.592864 1_654
Nb0 Se0 2.592864 1_554
Re0 Se3 2.521074 1_555
Re0 Se0 2.524358 1_554
Re0 Se1 2.527845 1_444
Re0 Se1 2.527845 1_544
Re0 Se2 2.529055 1_545
Re0 Se2 2.529055 1_445
