# generated using pymatgen
data_Sc2Cd2In6Co
_symmetry_space_group_name_H-M   'P 1'
_cell_length_a   4.45051528
_cell_length_b   4.45051528
_cell_length_c   11.78705695
_cell_angle_alpha   90.00000000
_cell_angle_beta   90.00000000
_cell_angle_gamma   90.00000000
_symmetry_Int_Tables_number   1
_chemical_formula_structural   Sc2Cd2In6Co
_chemical_formula_sum   'Sc2 Cd2 In6 Co1'
_cell_volume   233.46725346
_cell_formula_units_Z   1
loop_
 _symmetry_equiv_pos_site_id
 _symmetry_equiv_pos_as_xyz
  1  'x, y, z'
loop_
 _atom_site_type_symbol
 _atom_site_label
 _atom_site_symmetry_multiplicity
 _atom_site_fract_x
 _atom_site_fract_y
 _atom_site_fract_z
 _atom_site_occupancy
  Sc  Sc0  1  0.00000000  0.00000000  0.30330814  1
  Sc  Sc1  1  0.00000000  0.00000000  0.69669186  1
  Cd  Cd0  1  0.00000000  0.50000000  0.50000000  1
  Cd  Cd1  1  0.50000000  0.00000000  0.50000000  1
  In  In0  1  0.00000000  0.50000000  0.12361763  1
  In  In1  1  0.00000000  0.50000000  0.87638237  1
  In  In2  1  0.50000000  0.00000000  0.12361763  1
  In  In3  1  0.50000000  0.00000000  0.87638237  1
  In  In4  1  0.50000000  0.50000000  0.31909259  1
  In  In5  1  0.50000000  0.50000000  0.68090741  1
  Co  Co0  1  0.00000000  0.00000000  0.00000000  1
loop_
_geom_bond_atom_site_label_1
_geom_bond_atom_site_label_2
_geom_bond_distance
_geom_bond_site_symmetry_2
Cd0 In5 3.082005 1_455
Cd0 In5 3.082005 1_555
Cd0 In4 3.082005 1_555
Cd0 In4 3.082005 1_455
Cd0 Cd1 3.146990 1_455
Cd0 Cd1 3.146990 1_555
Cd0 Cd1 3.146990 1_465
Cd0 Cd1 3.146990 1_565
Cd0 Sc1 3.213539 1_555
Cd0 Sc1 3.213539 1_565
Cd0 Sc0 3.213539 1_555
Cd0 Sc0 3.213539 1_565
Cd1 In5 3.082005 1_555
Cd1 In5 3.082005 1_545
Cd1 In4 3.082005 1_555
Cd1 In4 3.082005 1_545
Cd1 Sc1 3.213539 1_655
Cd1 Sc1 3.213539 1_555
Cd1 Sc0 3.213539 1_655
Cd1 Sc0 3.213539 1_555
In0 In1 2.914176 1_554
In0 Sc0 3.072099 1_565
In0 Sc0 3.072099 1_555
In0 In2 3.146990 1_565
In0 In2 3.146990 1_455
In0 In2 3.146990 1_555
In0 In2 3.146990 1_465
In0 In4 3.203206 1_555
In0 In4 3.203206 1_455
In1 Sc1 3.072099 1_555
In1 Sc1 3.072099 1_565
In1 In3 3.146990 1_555
In1 In3 3.146990 1_465
In1 In3 3.146990 1_565
In1 In3 3.146990 1_455
In1 In5 3.203206 1_455
In1 In5 3.203206 1_555
In2 In3 2.914176 1_554
In2 Sc0 3.072099 1_655
In2 Sc0 3.072099 1_555
In2 In4 3.203206 1_545
In2 In4 3.203206 1_555
In3 Sc1 3.072099 1_655
In3 Sc1 3.072099 1_555
In3 In5 3.203206 1_545
In3 In5 3.203206 1_555
In4 Sc0 3.152485 1_665
In4 Sc0 3.152485 1_565
In4 Sc0 3.152485 1_655
In4 Sc0 3.152485 1_555
In5 Sc1 3.152485 1_665
In5 Sc1 3.152485 1_555
In5 Sc1 3.152485 1_655
In5 Sc1 3.152485 1_565
Co0 In2 2.659864 1_555
Co0 In0 2.659864 1_545
Co0 In0 2.659864 1_555
Co0 In2 2.659864 1_455
Co0 In3 2.659864 1_454
Co0 In1 2.659864 1_554
Co0 In3 2.659864 1_554
Co0 In1 2.659864 1_544
