# generated using pymatgen
data_CaY6CoBr12
_symmetry_space_group_name_H-M   'P 1'
_cell_length_a   9.10373175
_cell_length_b   9.10373196
_cell_length_c   9.10373190
_cell_angle_alpha   106.73747426
_cell_angle_beta   106.73747600
_cell_angle_gamma   106.73747200
_symmetry_Int_Tables_number   1
_chemical_formula_structural   CaY6CoBr12
_chemical_formula_sum   'Ca1 Y6 Co1 Br12'
_cell_volume   632.79953748
_cell_formula_units_Z   1
loop_
 _symmetry_equiv_pos_site_id
 _symmetry_equiv_pos_as_xyz
  1  'x, y, z'
loop_
 _atom_site_type_symbol
 _atom_site_label
 _atom_site_symmetry_multiplicity
 _atom_site_fract_x
 _atom_site_fract_y
 _atom_site_fract_z
 _atom_site_occupancy
  Ca  Ca0  1  0.50000000  0.50000000  0.50000000  1
  Y  Y0  1  0.97911612  0.90026706  0.69379040  1
  Y  Y1  1  0.02088388  0.09973294  0.30620960  1
  Y  Y2  1  0.09973294  0.30620960  0.02088388  1
  Y  Y3  1  0.30620960  0.02088388  0.09973294  1
  Y  Y4  1  0.90026706  0.69379040  0.97911612  1
  Y  Y5  1  0.69379040  0.97911612  0.90026706  1
  Co  Co0  1  0.00000000  0.00000000  0.00000000  1
  Br  Br0  1  0.54433675  0.62493428  0.84715721  1
  Br  Br1  1  0.45566325  0.37506572  0.15284279  1
  Br  Br2  1  0.32415721  0.92689366  0.77620917  1
  Br  Br3  1  0.37506572  0.15284279  0.45566325  1
  Br  Br4  1  0.92689366  0.77620917  0.32415721  1
  Br  Br5  1  0.67584279  0.07310634  0.22379083  1
  Br  Br6  1  0.07310634  0.22379083  0.67584279  1
  Br  Br7  1  0.77620917  0.32415721  0.92689366  1
  Br  Br8  1  0.22379083  0.67584279  0.07310634  1
  Br  Br9  1  0.84715721  0.54433675  0.62493428  1
  Br  Br10  1  0.15284279  0.45566325  0.37506572  1
  Br  Br11  1  0.62493428  0.84715721  0.54433675  1
loop_
_geom_bond_atom_site_label_1
_geom_bond_atom_site_label_2
_geom_bond_distance
_geom_bond_site_symmetry_2
Co0 Y3 2.601732 1_555
Co0 Y5 2.601732 1_444
Co0 Y1 2.601732 1_555
Co0 Y0 2.601732 1_444
Co0 Y2 2.601732 1_555
Co0 Y4 2.601732 1_444
Br0 Ca0 2.894009 1_555
Br0 Y4 2.913747 1_555
Br0 Y5 2.945831 1_555
Br1 Ca0 2.894009 1_555
Br1 Y2 2.913747 1_555
Br1 Y3 2.945831 1_555
Br2 Y3 2.887844 1_566
Br2 Y0 2.930498 1_455
Br2 Y5 3.066820 1_555
Br3 Ca0 2.894009 1_555
Br3 Y3 2.913748 1_555
Br3 Y1 2.945830 1_555
Br4 Y1 2.887845 1_665
Br4 Y4 2.930498 1_554
Br4 Y0 3.066820 1_555
Br5 Y5 2.887844 1_544
Br5 Y1 2.930498 1_655
Br5 Y3 3.066820 1_555
Br6 Y0 2.887845 1_445
Br6 Y2 2.930498 1_556
Br6 Y1 3.066820 1_555
Br7 Y2 2.887844 1_656
Br7 Y5 2.930498 1_545
Br7 Y4 3.066820 1_555
Br8 Y4 2.887844 1_454
Br8 Y3 2.930498 1_565
Br8 Y2 3.066820 1_555
Br9 Ca0 2.894009 1_555
Br9 Y0 2.913748 1_555
Br9 Y4 2.945830 1_555
Br10 Ca0 2.894009 1_555
Br10 Y1 2.913748 1_555
Br10 Y2 2.945830 1_555
Br11 Ca0 2.894009 1_555
Br11 Y5 2.913748 1_555
Br11 Y0 2.945830 1_555
