# generated using pymatgen
data_Hf8IrPd3N2
_symmetry_space_group_name_H-M   'P 1'
_cell_length_a   8.70034979
_cell_length_b   8.70034943
_cell_length_c   8.70301009
_cell_angle_alpha   59.98987960
_cell_angle_beta   59.98988096
_cell_angle_gamma   60.02039810
_symmetry_Int_Tables_number   1
_chemical_formula_structural   Hf8IrPd3N2
_chemical_formula_sum   'Hf16 Ir2 Pd6 N4'
_cell_volume   465.83094619
_cell_formula_units_Z   2
loop_
 _symmetry_equiv_pos_site_id
 _symmetry_equiv_pos_as_xyz
  1  'x, y, z'
loop_
 _atom_site_type_symbol
 _atom_site_label
 _atom_site_symmetry_multiplicity
 _atom_site_fract_x
 _atom_site_fract_y
 _atom_site_fract_z
 _atom_site_occupancy
  Hf  Hf0  1  0.12869235  0.62552458  0.62289153  1
  Hf  Hf1  1  0.62552458  0.12869235  0.62289153  1
  Hf  Hf2  1  0.62333876  0.62333876  0.13131454  1
  Hf  Hf3  1  0.62333876  0.62333876  0.62200693  1
  Hf  Hf4  1  0.81582450  0.81582450  0.18417550  1
  Hf  Hf5  1  0.18174761  0.18174761  0.81825239  1
  Hf  Hf6  1  0.81732314  0.18254590  0.81701506  1
  Hf  Hf7  1  0.18254590  0.81732314  0.18311591  1
  Hf  Hf8  1  0.18254590  0.81732314  0.81701506  1
  Hf  Hf9  1  0.81732314  0.18254590  0.18311591  1
  Hf  Hf10  1  0.43179989  0.43179989  0.06820011  1
  Hf  Hf11  1  0.06755422  0.06755422  0.43244578  1
  Hf  Hf12  1  0.43160168  0.06476906  0.43211791  1
  Hf  Hf13  1  0.06476906  0.43160168  0.07151134  1
  Hf  Hf14  1  0.06476906  0.43160168  0.43211791  1
  Hf  Hf15  1  0.43160168  0.06476906  0.07151134  1
  Ir  Ir0  1  0.78316190  0.40701865  0.40491023  1
  Ir  Ir1  1  0.40701865  0.78316190  0.40491023  1
  Pd  Pd0  1  0.40815373  0.40815373  0.77548679  1
  Pd  Pd1  1  0.40815373  0.40815373  0.40820675  1
  Pd  Pd2  1  0.47659436  0.84146980  0.84096692  1
  Pd  Pd3  1  0.84146980  0.47659436  0.84096692  1
  Pd  Pd4  1  0.84116752  0.84116752  0.47706864  1
  Pd  Pd5  1  0.84116752  0.84116752  0.84059632  1
  N  N0  1  0.62712240  0.12515307  0.12386226  1
  N  N1  1  0.12515307  0.62712240  0.12386226  1
  N  N2  1  0.12526905  0.12526905  0.62559529  1
  N  N3  1  0.12526905  0.12526905  0.12386762  1
loop_
_geom_bond_atom_site_label_1
_geom_bond_atom_site_label_2
_geom_bond_distance
_geom_bond_site_symmetry_2
Hf0 Pd1 2.715557 1_555
Hf0 Pd0 2.715562 1_555
Hf0 Ir1 2.732207 1_555
Hf0 Pd5 2.737137 1_455
Hf0 Pd4 2.737138 1_455
Hf0 Pd3 2.749095 1_455
Hf1 Pd1 2.715557 1_555
Hf1 Pd0 2.715562 1_555
Hf1 Ir0 2.732207 1_555
Hf1 Pd5 2.737137 1_545
Hf1 Pd4 2.737137 1_545
Hf1 Pd2 2.749095 1_545
Hf2 Pd1 2.700788 1_555
Hf2 Ir0 2.712777 1_555
Hf2 Ir1 2.712777 1_555
Hf2 Pd5 2.753445 1_554
Hf2 Pd2 2.761439 1_554
Hf2 Pd3 2.761439 1_554
Hf3 Pd0 2.700785 1_555
Hf3 Ir0 2.712763 1_555
Hf3 Ir1 2.712763 1_555
Hf3 Pd4 2.753447 1_555
Hf3 Pd2 2.761432 1_555
Hf3 Pd3 2.761432 1_555
Hf4 N0 2.290651 1_565
Hf4 N1 2.290652 1_655
Hf4 Pd5 2.787100 1_554
Hf4 Pd4 2.787100 1_555
Hf5 N2 2.276805 1_555
Hf5 N3 2.276813 1_556
Hf5 Pd2 2.777843 1_545
Hf5 Pd3 2.777843 1_455
Hf6 N0 2.278306 1_556
Hf6 N2 2.287639 1_655
Hf6 Pd5 2.779170 1_545
Hf6 Pd3 2.783344 1_555
Hf7 N1 2.278306 1_555
Hf7 N3 2.287642 1_565
Hf7 Pd4 2.779170 1_455
Hf7 Pd2 2.783354 1_554
Hf8 N1 2.278306 1_556
Hf8 N2 2.287639 1_565
Hf8 Pd5 2.779170 1_455
Hf8 Pd2 2.783344 1_555
Hf9 N0 2.278306 1_555
Hf9 N3 2.287642 1_655
Hf9 Pd4 2.779170 1_545
Hf9 Pd3 2.783354 1_554
Hf10 N0 2.289116 1_555
Hf10 N1 2.289116 1_555
Hf10 Pd0 2.768600 1_554
Hf10 Pd1 2.768609 1_555
Hf11 N3 2.295785 1_555
Hf11 N2 2.295793 1_555
Hf11 Ir0 2.735770 1_455
Hf11 Ir1 2.735770 1_545
Hf12 N2 2.282785 1_555
Hf12 N0 2.298950 1_555
Hf12 Ir1 2.694328 1_545
Hf12 Pd1 2.796773 1_555
Hf13 N3 2.282782 1_555
Hf13 N1 2.298951 1_555
Hf13 Ir0 2.694333 1_455
Hf13 Pd0 2.796769 1_554
Hf14 N2 2.282785 1_555
Hf14 N1 2.298950 1_555
Hf14 Ir0 2.694328 1_455
Hf14 Pd1 2.796773 1_555
Hf15 N3 2.282782 1_555
Hf15 N0 2.298951 1_555
Hf15 Ir1 2.694332 1_545
Hf15 Pd0 2.796769 1_554
