# generated using pymatgen
data_HfScBRh6
_symmetry_space_group_name_H-M   'P 1'
_cell_length_a   5.64166407
_cell_length_b   5.64166439
_cell_length_c   5.64166417
_cell_angle_alpha   60.00000695
_cell_angle_beta   60.00000508
_cell_angle_gamma   59.99999868
_symmetry_Int_Tables_number   1
_chemical_formula_structural   HfScBRh6
_chemical_formula_sum   'Hf1 Sc1 B1 Rh6'
_cell_volume   126.97164239
_cell_formula_units_Z   1
loop_
 _symmetry_equiv_pos_site_id
 _symmetry_equiv_pos_as_xyz
  1  'x, y, z'
loop_
 _atom_site_type_symbol
 _atom_site_label
 _atom_site_symmetry_multiplicity
 _atom_site_fract_x
 _atom_site_fract_y
 _atom_site_fract_z
 _atom_site_occupancy
  Hf  Hf0  1  0.25000000  0.25000000  0.25000000  1
  Sc  Sc0  1  0.75000000  0.75000000  0.75000000  1
  B  B0  1  0.50000000  0.50000000  0.50000000  1
  Rh  Rh0  1  0.75770177  0.75770177  0.24229823  1
  Rh  Rh1  1  0.75770177  0.24229823  0.24229823  1
  Rh  Rh2  1  0.24229823  0.75770177  0.24229823  1
  Rh  Rh3  1  0.24229823  0.24229823  0.75770177  1
  Rh  Rh4  1  0.75770177  0.24229823  0.75770177  1
  Rh  Rh5  1  0.24229823  0.75770177  0.75770177  1
loop_
_geom_bond_atom_site_label_1
_geom_bond_atom_site_label_2
_geom_bond_distance
_geom_bond_site_symmetry_2
Hf0 Rh1 2.821501 1_455
Hf0 Rh1 2.821501 1_555
Hf0 Rh0 2.821501 1_545
Hf0 Rh0 2.821501 1_455
Hf0 Rh3 2.821501 1_554
Hf0 Rh3 2.821501 1_555
Hf0 Rh2 2.821501 1_545
Hf0 Rh2 2.821501 1_555
Hf0 Rh4 2.821501 1_554
Hf0 Rh4 2.821501 1_455
Hf0 Rh5 2.821502 1_554
Hf0 Rh5 2.821502 1_545
B0 Rh4 2.056078 1_555
B0 Rh5 2.056078 1_555
B0 Rh2 2.056078 1_555
B0 Rh1 2.056078 1_555
B0 Rh0 2.056078 1_555
B0 Rh3 2.056078 1_555
Rh0 Sc0 2.821501 1_554
Rh0 Sc0 2.821501 1_555
Rh1 Sc0 2.821502 1_554
Rh1 Sc0 2.821502 1_545
Rh2 Sc0 2.821501 1_554
Rh2 Sc0 2.821501 1_455
Rh3 Sc0 2.821501 1_545
Rh3 Sc0 2.821501 1_455
Rh4 Sc0 2.821501 1_545
Rh4 Sc0 2.821501 1_555
Rh5 Sc0 2.821501 1_455
Rh5 Sc0 2.821501 1_555
