# generated using pymatgen
data_Cs2Li14Zr3O14
_symmetry_space_group_name_H-M   'P 1'
_cell_length_a   8.28999417
_cell_length_b   8.28999420
_cell_length_c   8.28999429
_cell_angle_alpha   127.70276933
_cell_angle_beta   123.83882474
_cell_angle_gamma   80.30380661
_symmetry_Int_Tables_number   1
_chemical_formula_structural   Cs2Li14Zr3O14
_chemical_formula_sum   'Cs2 Li14 Zr3 O14'
_cell_volume   361.33338388
_cell_formula_units_Z   1
loop_
 _symmetry_equiv_pos_site_id
 _symmetry_equiv_pos_as_xyz
  1  'x, y, z'
loop_
 _atom_site_type_symbol
 _atom_site_label
 _atom_site_symmetry_multiplicity
 _atom_site_fract_x
 _atom_site_fract_y
 _atom_site_fract_z
 _atom_site_occupancy
  Cs  Cs0  1  0.50000000  0.77004397  0.27004397  1
  Cs  Cs1  1  0.50000000  0.22995603  0.72995603  1
  Li  Li0  1  0.70742424  0.13777914  0.11676799  1
  Li  Li1  1  0.97898885  0.86222086  0.56964509  1
  Li  Li2  1  0.02101115  0.59065625  0.88323201  1
  Li  Li3  1  0.29257576  0.40934375  0.43035491  1
  Li  Li4  1  0.02101115  0.13777914  0.43035491  1
  Li  Li5  1  0.84641237  0.50000000  0.34641237  1
  Li  Li6  1  0.15358763  0.50000000  0.65358763  1
  Li  Li7  1  0.41238056  0.76936147  0.64301909  1
  Li  Li8  1  0.58761944  0.23063853  0.35698091  1
  Li  Li9  1  0.87365761  0.23063853  0.64301909  1
  Li  Li10  1  0.12634239  0.76936147  0.35698091  1
  Li  Li11  1  0.70742424  0.59065625  0.56964509  1
  Li  Li12  1  0.29257576  0.86222086  0.88323201  1
  Li  Li13  1  0.97898885  0.40934375  0.11676799  1
  Zr  Zr0  1  0.00000000  0.00000000  0.00000000  1
  Zr  Zr1  1  0.26855264  0.26855264  1.00000000  1
  Zr  Zr2  1  0.73144736  0.73144736  0.00000000  1
  O  O0  1  0.05035033  0.87245346  0.17789687  1
  O  O1  1  0.42192009  0.63414949  0.78776961  1
  O  O2  1  0.84637988  0.63414949  0.21223039  1
  O  O3  1  0.57807991  0.36585051  0.21223039  1
  O  O4  1  0.15362012  0.36585051  0.78776961  1
  O  O5  1  0.74822700  0.03342611  0.28519911  1
  O  O6  1  0.25177300  0.53697312  0.28519911  1
  O  O7  1  0.25177300  0.96657389  0.71480089  1
  O  O8  1  0.74822700  0.46302688  0.71480089  1
  O  O9  1  1.00000000  0.71243688  0.71243688  1
  O  O10  1  0.00000000  0.28756312  0.28756312  1
  O  O11  1  0.69455559  0.87245346  0.82210313  1
  O  O12  1  0.30544441  0.12754654  0.17789687  1
  O  O13  1  0.94964967  0.12754654  0.82210313  1
loop_
_geom_bond_atom_site_label_1
_geom_bond_atom_site_label_2
_geom_bond_distance
_geom_bond_site_symmetry_2
Cs0 O3 3.086573 1_555
Cs0 O2 3.086574 1_555
Cs0 O4 3.086574 1_554
Cs0 O1 3.086578 1_554
Cs0 O6 3.147651 1_555
Cs0 O5 3.147657 1_565
Cs1 O1 3.086573 1_555
Cs1 O4 3.086574 1_555
Cs1 O2 3.086574 1_556
Cs1 O3 3.086578 1_556
Cs1 O8 3.147651 1_555
Cs1 O7 3.147657 1_545
Li0 O5 1.914492 1_555
Li0 O3 1.944954 1_555
Li0 O11 2.008348 1_544
Li0 O10 2.113947 1_655
Li1 O7 1.914492 1_655
Li1 O2 1.944949 1_555
Li1 O13 2.008351 1_565
Li1 O9 2.113947 1_555
Li2 O8 1.914495 1_455
Li2 O4 1.944949 1_555
Li2 O0 2.008351 1_556
Li2 O9 2.113947 1_455
Li3 O6 1.914500 1_555
Li3 O1 1.944947 1_555
Li3 O12 2.008355 1_555
Li3 O10 2.113947 1_555
Li4 O5 1.914492 1_455
Li4 O4 1.944949 1_555
Li4 O0 2.008351 1_545
Li4 O10 2.113947 1_555
Li5 O10 1.961181 1_655
Li5 O9 1.961181 1_555
Li5 O2 1.996692 1_555
Li5 O3 1.996700 1_555
Li6 O9 1.961181 1_455
Li6 O10 1.961181 1_555
Li6 O4 1.996692 1_555
Li6 O1 1.996700 1_555
Li7 O11 1.913168 1_555
Li7 O6 1.938788 1_555
Li7 O7 1.938789 1_555
Li7 O1 2.052385 1_555
Li8 O12 1.913168 1_555
Li8 O8 1.938788 1_555
Li8 O5 1.938789 1_555
Li8 O3 2.052385 1_555
Li9 O13 1.913175 1_555
Li9 O8 1.938783 1_555
Li9 O5 1.938789 1_555
Li9 O4 2.052388 1_655
Li10 O0 1.913175 1_555
Li10 O6 1.938783 1_555
Li10 O7 1.938789 1_555
Li10 O2 2.052388 1_455
Li11 O8 1.914500 1_555
Li11 O3 1.944947 1_555
Li11 O11 2.008355 1_555
Li11 O9 2.113947 1_555
Li12 O7 1.914492 1_555
Li12 O1 1.944954 1_555
Li12 O12 2.008348 1_566
Li12 O9 2.113947 1_455
Li13 O6 1.914495 1_655
Li13 O2 1.944949 1_555
Li13 O13 2.008351 1_554
Li13 O10 2.113947 1_655
O0 Zr0 2.130780 1_565
O0 Zr2 2.262900 1_455
O1 Zr2 2.064890 1_556
O2 Zr2 2.064897 1_555
O3 Zr1 2.064890 1_554
O4 Zr1 2.064897 1_555
O5 Zr2 2.094719 1_545
O6 Zr1 2.094722 1_554
O7 Zr1 2.094719 1_565
O8 Zr2 2.094722 1_556
O9 Zr0 2.101171 1_666
O10 Zr0 2.101171 1_555
O11 Zr0 2.130787 1_666
O11 Zr2 2.262898 1_556
O12 Zr0 2.130787 1_555
O12 Zr1 2.262898 1_554
O13 Zr0 2.130780 1_656
O13 Zr1 2.262900 1_655
