# generated using pymatgen
data_Cu2SiMo3C
_symmetry_space_group_name_H-M   'P 1'
_cell_length_a   7.85159883
_cell_length_b   7.85159880
_cell_length_c   7.85159972
_cell_angle_alpha   60.00000441
_cell_angle_beta   60.00000452
_cell_angle_gamma   60.00000767
_symmetry_Int_Tables_number   1
_chemical_formula_structural   Cu2SiMo3C
_chemical_formula_sum   'Cu8 Si4 Mo12 C4'
_cell_volume   342.26257153
_cell_formula_units_Z   4
loop_
 _symmetry_equiv_pos_site_id
 _symmetry_equiv_pos_as_xyz
  1  'x, y, z'
loop_
 _atom_site_type_symbol
 _atom_site_label
 _atom_site_symmetry_multiplicity
 _atom_site_fract_x
 _atom_site_fract_y
 _atom_site_fract_z
 _atom_site_occupancy
  Cu  Cu0  1  0.91905496  0.91905496  0.24283413  1
  Cu  Cu1  1  0.33094504  0.33094504  0.33094504  1
  Cu  Cu2  1  0.24283413  0.91905496  0.91905496  1
  Cu  Cu3  1  0.33094504  0.00716587  0.33094504  1
  Cu  Cu4  1  0.00716587  0.33094504  0.33094504  1
  Cu  Cu5  1  0.33094504  0.33094504  0.00716587  1
  Cu  Cu6  1  0.91905496  0.91905496  0.91905496  1
  Cu  Cu7  1  0.91905496  0.24283413  0.91905496  1
  Si  Si0  1  0.12500000  0.12500000  0.12500000  1
  Si  Si1  1  0.62500000  0.12500000  0.12500000  1
  Si  Si2  1  0.12500000  0.12500000  0.62500000  1
  Si  Si3  1  0.12500000  0.62500000  0.12500000  1
  Mo  Mo0  1  0.69178161  0.30821839  0.30821839  1
  Mo  Mo1  1  0.94178161  0.94178161  0.55821839  1
  Mo  Mo2  1  0.69178161  0.69178161  0.30821839  1
  Mo  Mo3  1  0.69178161  0.30821839  0.69178161  1
  Mo  Mo4  1  0.30821839  0.69178161  0.30821839  1
  Mo  Mo5  1  0.55821839  0.94178161  0.55821839  1
  Mo  Mo6  1  0.55821839  0.94178161  0.94178161  1
  Mo  Mo7  1  0.94178161  0.55821839  0.55821839  1
  Mo  Mo8  1  0.94178161  0.55821839  0.94178161  1
  Mo  Mo9  1  0.30821839  0.30821839  0.69178161  1
  Mo  Mo10  1  0.55821839  0.55821839  0.94178161  1
  Mo  Mo11  1  0.30821839  0.69178161  0.69178161  1
  C  C0  1  0.62500000  0.62500000  0.62500000  1
  C  C1  1  0.62500000  0.62500000  0.12500000  1
  C  C2  1  0.12500000  0.62500000  0.62500000  1
  C  C3  1  0.62500000  0.12500000  0.62500000  1
loop_
_geom_bond_atom_site_label_1
_geom_bond_atom_site_label_2
_geom_bond_distance
_geom_bond_site_symmetry_2
Cu0 Si3 2.389129 1_655
Cu0 Si1 2.389129 1_565
Cu0 Si0 2.389135 1_665
Cu0 Cu6 2.542185 1_554
Cu0 Cu7 2.542185 1_564
Cu0 Cu2 2.542185 1_654
Cu0 Mo7 2.666674 1_555
Cu0 Mo5 2.666674 1_555
Cu0 Mo1 2.666679 1_555
Cu0 Mo2 2.825642 1_555
Cu0 Mo0 2.825649 1_565
Cu0 Mo4 2.825649 1_655
Cu1 Si2 2.389133 1_555
Cu1 Si3 2.389133 1_555
Cu1 Si1 2.389133 1_555
Cu1 Cu3 2.542184 1_555
Cu1 Cu4 2.542184 1_555
Cu1 Cu5 2.542185 1_555
Cu1 Mo4 2.666671 1_555
Cu1 Mo0 2.666671 1_555
Cu1 Mo9 2.666671 1_555
Cu1 Mo10 2.825646 1_554
Cu1 Mo5 2.825646 1_545
Cu1 Mo7 2.825646 1_455
Cu2 Si3 2.389129 1_556
Cu2 Si2 2.389129 1_565
Cu2 Si0 2.389135 1_566
Cu2 Cu6 2.542184 1_455
Cu2 Cu7 2.542185 1_465
Cu2 Mo10 2.666674 1_555
Cu2 Mo5 2.666674 1_555
Cu2 Mo6 2.666678 1_555
Cu2 Mo11 2.825642 1_555
Cu2 Mo9 2.825649 1_565
Cu2 Mo4 2.825649 1_556
Cu3 Si1 2.389129 1_555
Cu3 Si2 2.389129 1_555
Cu3 Si0 2.389135 1_555
Cu3 Cu4 2.542185 1_555
Cu3 Cu5 2.542185 1_555
Cu3 Mo2 2.666674 1_545
Cu3 Mo11 2.666674 1_545
Cu3 Mo4 2.666678 1_545
Cu3 Mo5 2.825642 1_545
Cu3 Mo1 2.825649 1_445
Cu3 Mo6 2.825649 1_544
Cu4 Si3 2.389129 1_555
Cu4 Si2 2.389129 1_555
Cu4 Si0 2.389135 1_555
Cu4 Cu5 2.542185 1_555
Cu4 Mo2 2.666674 1_455
Cu4 Mo3 2.666674 1_455
Cu4 Mo0 2.666678 1_455
Cu4 Mo7 2.825642 1_455
Cu4 Mo1 2.825649 1_445
Cu4 Mo8 2.825649 1_454
Cu5 Si3 2.389129 1_555
Cu5 Si1 2.389129 1_555
Cu5 Si0 2.389135 1_555
Cu5 Mo11 2.666674 1_554
Cu5 Mo3 2.666674 1_554
Cu5 Mo9 2.666679 1_554
Cu5 Mo10 2.825642 1_554
Cu5 Mo6 2.825649 1_544
Cu5 Mo8 2.825649 1_454
Cu6 Si2 2.389133 1_665
Cu6 Si3 2.389133 1_656
Cu6 Si1 2.389133 1_566
Cu6 Cu7 2.542184 1_565
Cu6 Mo8 2.666671 1_555
Cu6 Mo6 2.666671 1_555
Cu6 Mo1 2.666671 1_555
Cu6 Mo2 2.825646 1_556
Cu6 Mo3 2.825646 1_565
Cu6 Mo11 2.825646 1_655
Cu7 Si1 2.389129 1_556
Cu7 Si2 2.389129 1_655
Cu7 Si0 2.389135 1_656
Cu7 Mo10 2.666674 1_555
Cu7 Mo7 2.666674 1_555
Cu7 Mo8 2.666678 1_555
Cu7 Mo3 2.825642 1_555
Cu7 Mo9 2.825649 1_655
Cu7 Mo0 2.825649 1_556
Mo0 Si1 2.826990 1_555
Mo0 Si0 2.826990 1_655
Mo1 Si2 2.826989 1_665
Mo1 Si0 2.826990 1_665
Mo2 Si1 2.826990 1_565
Mo2 Si3 2.826990 1_655
Mo3 Si2 2.826990 1_655
Mo3 Si1 2.826990 1_556
Mo4 Si3 2.826990 1_555
Mo4 Si0 2.826990 1_565
Mo5 Si2 2.826990 1_565
Mo5 Si1 2.826990 1_565
Mo6 Si1 2.826990 1_566
Mo6 Si0 2.826990 1_566
Mo7 Si2 2.826990 1_655
Mo7 Si3 2.826990 1_655
Mo8 Si3 2.826990 1_656
Mo8 Si0 2.826990 1_656
Mo9 Si2 2.826989 1_555
Mo9 Si0 2.826990 1_556
Mo10 Si1 2.826990 1_556
Mo10 Si3 2.826990 1_556
Mo11 Si2 2.826990 1_565
Mo11 Si3 2.826990 1_556
C0 Mo5 2.098296 1_555
C0 Mo3 2.098296 1_555
C0 Mo7 2.098296 1_555
C0 Mo11 2.098296 1_555
C0 Mo10 2.098296 1_555
C0 Mo2 2.098296 1_555
C1 Mo2 2.098296 1_555
C1 Mo10 2.098296 1_554
C1 Mo0 2.098296 1_555
C1 Mo6 2.098296 1_554
C1 Mo8 2.098296 1_554
C1 Mo4 2.098296 1_555
C2 Mo11 2.098296 1_555
C2 Mo7 2.098296 1_455
C2 Mo1 2.098296 1_455
C2 Mo9 2.098296 1_555
C2 Mo8 2.098296 1_455
C2 Mo4 2.098296 1_555
C3 Mo3 2.098296 1_555
C3 Mo5 2.098296 1_545
C3 Mo1 2.098296 1_545
C3 Mo9 2.098296 1_555
C3 Mo6 2.098296 1_545
C3 Mo0 2.098296 1_555
