# generated using pymatgen
data_CsBiTeO6
_symmetry_space_group_name_H-M   'P 1'
_cell_length_a   7.42933168
_cell_length_b   7.42933199
_cell_length_c   7.42933197
_cell_angle_alpha   120.39919737
_cell_angle_beta   119.49758199
_cell_angle_gamma   90.09118238
_symmetry_Int_Tables_number   1
_chemical_formula_structural   CsBiTeO6
_chemical_formula_sum   'Cs2 Bi2 Te2 O12'
_cell_volume   290.16084760
_cell_formula_units_Z   2
loop_
 _symmetry_equiv_pos_site_id
 _symmetry_equiv_pos_as_xyz
  1  'x, y, z'
loop_
 _atom_site_type_symbol
 _atom_site_label
 _atom_site_symmetry_multiplicity
 _atom_site_fract_x
 _atom_site_fract_y
 _atom_site_fract_z
 _atom_site_occupancy
  Cs  Cs0  1  0.63559269  0.88559269  0.75000000  1
  Cs  Cs1  1  0.36440731  0.11440731  0.25000000  1
  Bi  Bi0  1  0.50000000  0.50000000  0.00000000  1
  Bi  Bi1  1  0.00000000  0.50000000  0.50000000  1
  Te  Te0  1  0.00000000  0.50000000  0.00000000  1
  Te  Te1  1  0.00000000  0.00000000  0.50000000  1
  O  O0  1  0.05567839  0.80567839  0.25000000  1
  O  O1  1  0.66193903  0.41193903  0.25000000  1
  O  O2  1  0.06153812  0.84056298  0.64788317  1
  O  O3  1  0.69267981  0.41365596  0.85211683  1
  O  O4  1  0.69267981  0.84056298  0.27902586  1
  O  O5  1  0.06153812  0.41365596  0.22097414  1
  O  O6  1  0.94432161  0.19432161  0.75000000  1
  O  O7  1  0.33806097  0.58806097  0.75000000  1
  O  O8  1  0.93846188  0.15943702  0.35211683  1
  O  O9  1  0.30732019  0.58634404  0.14788317  1
  O  O10  1  0.30732019  0.15943702  0.72097414  1
  O  O11  1  0.93846188  0.58634404  0.77902586  1
loop_
_geom_bond_atom_site_label_1
_geom_bond_atom_site_label_2
_geom_bond_distance
_geom_bond_site_symmetry_2
Cs0 O7 3.123577 1_555
Cs0 O10 3.174187 1_565
Cs0 O9 3.174187 1_555
Cs0 O8 3.174187 1_566
Cs0 O11 3.174193 1_555
Cs0 O6 3.241128 1_565
Cs1 O1 3.123577 1_555
Cs1 O4 3.174187 1_545
Cs1 O3 3.174187 1_555
Cs1 O2 3.174187 1_544
Cs1 O5 3.174193 1_555
Cs1 O0 3.241128 1_545
Bi0 O1 2.087317 1_555
Bi0 O7 2.087317 1_554
Bi0 O3 2.122772 1_554
Bi0 O9 2.122772 1_555
Bi0 O4 2.122773 1_555
Bi0 O10 2.122773 1_554
Bi1 O7 2.087317 1_555
Bi1 O1 2.087317 1_455
Bi1 O8 2.122773 1_455
Bi1 O2 2.122773 1_555
Bi1 O11 2.122781 1_455
Bi1 O5 2.122781 1_555
O0 Te1 1.936443 1_565
O0 Te0 1.936444 1_555
O2 Te1 1.908744 1_565
O3 Te0 1.908744 1_656
O4 Te1 1.908744 1_665
O5 Te0 1.908731 1_555
O6 Te1 1.936443 1_655
O6 Te0 1.936444 1_656
O8 Te1 1.908744 1_655
O9 Te0 1.908744 1_555
O10 Te1 1.908744 1_555
O11 Te0 1.908731 1_656
