# generated using pymatgen
data_Ca8Nb3VN12
_symmetry_space_group_name_H-M   'P 1'
_cell_length_a   6.05656372
_cell_length_b   6.06321961
_cell_length_c   11.95116459
_cell_angle_alpha   88.38102751
_cell_angle_beta   87.98882816
_cell_angle_gamma   122.14655847
_symmetry_Int_Tables_number   1
_chemical_formula_structural   Ca8Nb3VN12
_chemical_formula_sum   'Ca8 Nb3 V1 N12'
_cell_volume   370.78972781
_cell_formula_units_Z   1
loop_
 _symmetry_equiv_pos_site_id
 _symmetry_equiv_pos_as_xyz
  1  'x, y, z'
loop_
 _atom_site_type_symbol
 _atom_site_label
 _atom_site_symmetry_multiplicity
 _atom_site_fract_x
 _atom_site_fract_y
 _atom_site_fract_z
 _atom_site_occupancy
  Ca  Ca0  1  0.60803234  0.84024153  0.08258322  1
  Ca  Ca1  1  0.47128942  0.05347799  0.35695971  1
  Ca  Ca2  1  0.06647290  0.47659710  0.86592853  1
  Ca  Ca3  1  0.52702230  0.93318341  0.63524376  1
  Ca  Ca4  1  0.40412531  0.16837378  0.92486224  1
  Ca  Ca5  1  0.83035584  0.59596996  0.57048719  1
  Ca  Ca6  1  0.16756286  0.39497117  0.41851166  1
  Ca  Ca7  1  0.94400141  0.54604883  0.14498535  1
  Nb  Nb0  1  0.77014757  0.77622093  0.83902493  1
  Nb  Nb1  1  0.22271837  0.22700614  0.65981666  1
  Nb  Nb2  1  0.23244751  0.22981020  0.16644360  1
  V  V0  1  0.76684023  0.76482127  0.33919097  1
  N  N0  1  0.10822658  0.89090648  0.74971960  1
  N  N1  1  0.88672571  0.08337784  0.25596425  1
  N  N2  1  0.47804930  0.51940514  0.74936947  1
  N  N3  1  0.51704194  0.49856158  0.25537235  1
  N  N4  1  0.32378434  0.98742125  0.11968435  1
  N  N5  1  0.00364265  0.68869849  0.37264869  1
  N  N6  1  0.69921524  0.03361686  0.88361750  1
  N  N7  1  0.97024741  0.30154973  0.61003326  1
  N  N8  1  0.79254536  0.60440306  0.96906555  1
  N  N9  1  0.60305272  0.77999814  0.45949141  1
  N  N10  1  0.20766098  0.40553887  0.03911095  1
  N  N11  1  0.39879171  0.19979924  0.53188481  1
loop_
_geom_bond_atom_site_label_1
_geom_bond_atom_site_label_2
_geom_bond_distance
_geom_bond_site_symmetry_2
Ca0 N4 2.358052 1_555
Ca0 N6 2.528873 1_564
Ca0 N10 2.541901 1_555
Ca0 N8 2.614928 1_554
Ca0 N1 2.661960 1_565
Ca0 N3 2.706170 1_555
Ca1 N11 2.409406 1_555
Ca1 N5 2.494385 1_545
Ca1 N9 2.499987 1_545
Ca1 N1 2.666392 1_555
Ca1 N3 2.798019 1_555
Ca1 N4 2.976749 1_545
Ca2 N10 2.380448 1_556
Ca2 N6 2.404896 1_455
Ca2 N8 2.480094 1_455
Ca2 N2 2.696096 1_555
Ca2 N0 2.721283 1_555
Ca3 N7 2.410432 1_565
Ca3 N9 2.446235 1_555
Ca3 N11 2.456178 1_565
Ca3 N2 2.688656 1_555
Ca3 N0 2.723199 1_555
Ca4 N6 2.370584 1_555
Ca4 N4 2.463685 1_546
Ca4 N8 2.519982 1_555
Ca4 N10 2.676893 1_556
Ca4 N0 2.770764 1_545
Ca4 N2 2.792325 1_555
Ca5 N7 2.391213 1_555
Ca5 N5 2.476038 1_655
Ca5 N11 2.506098 1_555
Ca5 N9 2.564986 1_555
Ca5 N0 2.808077 1_655
Ca5 N2 2.812205 1_555
Ca6 N7 2.449996 1_455
Ca6 N9 2.499852 1_555
Ca6 N5 2.514437 1_555
Ca6 N3 2.627244 1_555
Ca6 N11 2.646448 1_555
Ca6 N1 2.693665 1_455
Ca7 N8 2.413633 1_554
Ca7 N4 2.428746 1_655
Ca7 N10 2.498736 1_655
Ca7 N3 2.730752 1_555
Ca7 N5 2.855000 1_655
Ca7 N1 2.910487 1_555
N0 Nb0 2.026030 1_455
N0 Nb1 2.026892 1_565
N1 V0 1.896175 1_545
N1 Nb2 2.031748 1_655
N2 Nb1 1.996450 1_555
N2 Nb0 1.999575 1_555
N3 V0 1.870084 1_555
N3 Nb2 1.998329 1_555
N4 Nb2 1.915222 1_565
N5 V0 1.778801 1_455
N6 Nb0 1.910136 1_545
N7 Nb1 1.918480 1_655
N8 Nb0 1.895449 1_555
N9 V0 1.750455 1_555
N10 Nb2 1.888972 1_555
N11 Nb1 1.894486 1_555
