# generated using pymatgen
data_Y16Lu3MgIr12
_symmetry_space_group_name_H-M   'P 1'
_cell_length_a   10.79472997
_cell_length_b   10.79472997
_cell_length_c   6.31401709
_cell_angle_alpha   90.00000000
_cell_angle_beta   90.00000000
_cell_angle_gamma   90.00000000
_symmetry_Int_Tables_number   1
_chemical_formula_structural   Y16Lu3MgIr12
_chemical_formula_sum   'Y16 Lu3 Mg1 Ir12'
_cell_volume   735.74838781
_cell_formula_units_Z   1
loop_
 _symmetry_equiv_pos_site_id
 _symmetry_equiv_pos_as_xyz
  1  'x, y, z'
loop_
 _atom_site_type_symbol
 _atom_site_label
 _atom_site_symmetry_multiplicity
 _atom_site_fract_x
 _atom_site_fract_y
 _atom_site_fract_z
 _atom_site_occupancy
  Y  Y0  1  0.28238633  0.08419941  0.38315280  1
  Y  Y1  1  0.29059828  0.91136528  0.88440697  1
  Y  Y2  1  0.70940172  0.08863472  0.88440697  1
  Y  Y3  1  0.71761367  0.91580059  0.38315280  1
  Y  Y4  1  0.58969454  0.79130480  0.88405330  1
  Y  Y5  1  0.58658969  0.20914598  0.38193400  1
  Y  Y6  1  0.41341031  0.79085402  0.38193400  1
  Y  Y7  1  0.41030546  0.20869520  0.88405330  1
  Y  Y8  1  0.20914598  0.41341031  0.61806600  1
  Y  Y9  1  0.20869520  0.58969454  0.11594670  1
  Y  Y10  1  0.79130480  0.41030546  0.11594670  1
  Y  Y11  1  0.79085402  0.58658969  0.61806600  1
  Y  Y12  1  0.91136528  0.70940172  0.11559303  1
  Y  Y13  1  0.91580059  0.28238633  0.61684720  1
  Y  Y14  1  0.08419941  0.71761367  0.61684720  1
  Y  Y15  1  0.08863472  0.29059828  0.11559303  1
  Lu  Lu0  1  0.00000000  0.00000000  0.00000000  1
  Lu  Lu1  1  0.50000000  0.50000000  0.00000000  1
  Lu  Lu2  1  0.50000000  0.50000000  0.50000000  1
  Mg  Mg0  1  0.00000000  0.00000000  0.50000000  1
  Ir  Ir0  1  0.84967582  0.15292627  0.24476661  1
  Ir  Ir1  1  0.84707373  0.84967582  0.75523339  1
  Ir  Ir2  1  0.15292627  0.15032418  0.75523339  1
  Ir  Ir3  1  0.15032418  0.84707373  0.24476661  1
  Ir  Ir4  1  0.65005685  0.34968509  0.74808967  1
  Ir  Ir5  1  0.65031491  0.65005685  0.25191033  1
  Ir  Ir6  1  0.34968509  0.34994315  0.25191033  1
  Ir  Ir7  1  0.34994315  0.65031491  0.74808967  1
  Ir  Ir8  1  0.50000000  0.00000000  0.13237161  1
  Ir  Ir9  1  0.50000000  0.00000000  0.62599362  1
  Ir  Ir10  1  0.00000000  0.50000000  0.86762839  1
  Ir  Ir11  1  0.00000000  0.50000000  0.37400638  1
loop_
_geom_bond_atom_site_label_1
_geom_bond_atom_site_label_2
_geom_bond_distance
_geom_bond_site_symmetry_2
Lu0 Mg0 3.157009 1_554
Lu0 Mg0 3.157009 1_555
Lu0 Y15 3.359831 1_555
Lu0 Y1 3.359831 1_544
Lu0 Y2 3.359831 1_454
Lu0 Y12 3.359831 1_445
Lu1 Lu2 3.157009 1_555
Lu1 Lu2 3.157009 1_554
Lu1 Y4 3.370706 1_554
Lu1 Y10 3.370706 1_555
Lu1 Y9 3.370706 1_555
Lu1 Y7 3.370706 1_554
Lu2 Y11 3.359624 1_555
Lu2 Y6 3.359624 1_555
Lu2 Y5 3.359624 1_555
Lu2 Y8 3.359624 1_555
Mg0 Y0 3.265343 1_555
Mg0 Y13 3.265343 1_455
Mg0 Y14 3.265343 1_545
Mg0 Y3 3.265343 1_445
Ir0 Lu0 2.783301 1_655
Ir0 Y2 2.819855 1_554
Ir0 Mg0 2.820533 1_655
Ir0 Y13 2.825207 1_555
Ir0 Y10 2.962729 1_555
Ir0 Y5 3.030457 1_555
Ir0 Y3 3.057425 1_545
Ir0 Y15 3.086681 1_655
Ir1 Lu0 2.783301 1_666
Ir1 Y12 2.819855 1_556
Ir1 Mg0 2.820533 1_665
Ir1 Y3 2.825207 1_555
Ir1 Y4 2.962729 1_555
Ir1 Y11 3.030457 1_555
Ir1 Y14 3.057425 1_655
Ir1 Y2 3.086681 1_565
Ir2 Lu0 2.783301 1_556
Ir2 Y15 2.819855 1_556
Ir2 Mg0 2.820533 1_555
Ir2 Y0 2.825207 1_555
Ir2 Y7 2.962729 1_555
Ir2 Y8 3.030457 1_555
Ir2 Y13 3.057425 1_455
Ir2 Y1 3.086681 1_545
Ir3 Lu0 2.783301 1_565
Ir3 Y1 2.819855 1_554
Ir3 Mg0 2.820533 1_565
Ir3 Y14 2.825207 1_555
Ir3 Y9 2.962729 1_555
Ir3 Y6 3.030457 1_555
Ir3 Y0 3.057425 1_565
Ir3 Y12 3.086681 1_455
Ir4 Lu2 2.776766 1_555
Ir4 Lu1 2.790446 1_556
Ir4 Y5 2.848834 1_555
Ir4 Y10 2.854427 1_556
Ir4 Y2 3.015319 1_555
Ir4 Y13 3.073028 1_555
Ir4 Y11 3.086079 1_555
Ir4 Y7 3.122710 1_555
Ir5 Lu2 2.776766 1_555
Ir5 Lu1 2.790446 1_555
Ir5 Y11 2.848834 1_555
Ir5 Y4 2.854427 1_554
Ir5 Y12 3.015319 1_555
Ir5 Y3 3.073028 1_555
Ir5 Y6 3.086079 1_555
Ir5 Y10 3.122710 1_555
Ir6 Lu2 2.776766 1_555
Ir6 Lu1 2.790446 1_555
Ir6 Y8 2.848834 1_555
Ir6 Y7 2.854427 1_554
Ir6 Y15 3.015319 1_555
Ir6 Y0 3.073028 1_555
Ir6 Y5 3.086079 1_555
Ir6 Y9 3.122710 1_555
Ir7 Lu2 2.776766 1_555
Ir7 Lu1 2.790446 1_556
Ir7 Y6 2.848834 1_555
Ir7 Y9 2.854427 1_556
Ir7 Y1 3.015319 1_555
Ir7 Y14 3.073028 1_555
Ir7 Y8 3.086079 1_555
Ir7 Y4 3.122710 1_555
Ir8 Y5 2.907532 1_555
Ir8 Y6 2.907532 1_545
Ir8 Y7 2.910477 1_554
Ir8 Y4 2.910477 1_544
Ir8 Y2 2.911405 1_554
Ir8 Y1 2.911405 1_544
Ir8 Y3 2.975159 1_545
Ir8 Y0 2.975159 1_555
Ir8 Ir9 3.116738 1_555
Ir8 Ir9 3.197279 1_554
Ir9 Y5 2.888849 1_555
Ir9 Y6 2.888849 1_545
Ir9 Y7 2.944068 1_555
Ir9 Y4 2.944068 1_545
Ir9 Y2 2.947408 1_555
Ir9 Y1 2.947408 1_545
Ir9 Y3 2.948781 1_545
Ir9 Y0 2.948781 1_555
Ir10 Y8 2.907532 1_555
Ir10 Y11 2.907532 1_455
Ir10 Y9 2.910477 1_556
Ir10 Y10 2.910477 1_456
Ir10 Y12 2.911405 1_456
Ir10 Y15 2.911405 1_556
Ir10 Y14 2.975159 1_555
Ir10 Y13 2.975159 1_455
Ir10 Ir11 3.116738 1_555
Ir10 Ir11 3.197279 1_556
Ir11 Y8 2.888849 1_555
Ir11 Y11 2.888849 1_455
Ir11 Y9 2.944068 1_555
Ir11 Y10 2.944068 1_455
Ir11 Y12 2.947408 1_455
Ir11 Y15 2.947408 1_555
Ir11 Y14 2.948781 1_555
Ir11 Y13 2.948781 1_455
