# generated using pymatgen
data_CuGeIrS4
_symmetry_space_group_name_H-M   'P 1'
_cell_length_a   6.99353916
_cell_length_b   6.99354004
_cell_length_c   7.11885091
_cell_angle_alpha   59.40547834
_cell_angle_beta   59.40547409
_cell_angle_gamma   59.88710753
_symmetry_Int_Tables_number   1
_chemical_formula_structural   CuGeIrS4
_chemical_formula_sum   'Cu2 Ge2 Ir2 S8'
_cell_volume   243.75986024
_cell_formula_units_Z   2
loop_
 _symmetry_equiv_pos_site_id
 _symmetry_equiv_pos_as_xyz
  1  'x, y, z'
loop_
 _atom_site_type_symbol
 _atom_site_label
 _atom_site_symmetry_multiplicity
 _atom_site_fract_x
 _atom_site_fract_y
 _atom_site_fract_z
 _atom_site_occupancy
  Cu  Cu0  1  0.00353377  0.00353377  0.99646623  1
  Cu  Cu1  1  0.24646623  0.24646623  0.25353377  1
  Ge  Ge0  1  0.12500000  0.62500000  0.62500000  1
  Ge  Ge1  1  0.62500000  0.12500000  0.62500000  1
  Ir  Ir0  1  0.62500000  0.62500000  0.62500000  1
  Ir  Ir1  1  0.62500000  0.62500000  0.12500000  1
  S  S0  1  0.38411628  0.38411628  0.85473747  1
  S  S1  1  0.38411628  0.38411628  0.37702996  1
  S  S2  1  0.86588372  0.86588372  0.87297004  1
  S  S3  1  0.86588372  0.86588372  0.39526253  1
  S  S4  1  0.39220717  0.84215433  0.38282025  1
  S  S5  1  0.84215433  0.39220717  0.38282025  1
  S  S6  1  0.40784567  0.85779283  0.86717975  1
  S  S7  1  0.85779283  0.40784567  0.86717975  1
loop_
_geom_bond_atom_site_label_1
_geom_bond_atom_site_label_2
_geom_bond_distance
_geom_bond_site_symmetry_2
Cu0 S3 2.297650 1_446
Cu0 S2 2.297650 1_445
Cu0 S6 2.301115 1_545
Cu0 S7 2.301115 1_455
Cu1 S0 2.297650 1_554
Cu1 S1 2.297650 1_555
Cu1 S5 2.301115 1_455
Cu1 S4 2.301115 1_545
Ge0 S4 2.381981 1_555
Ge0 S7 2.381981 1_455
Ge0 S2 2.438372 1_455
Ge0 S1 2.438372 1_555
Ge0 S0 2.438372 1_555
Ge0 S3 2.438372 1_455
Ge1 S5 2.381981 1_555
Ge1 S6 2.381981 1_545
Ge1 S2 2.438372 1_545
Ge1 S1 2.438372 1_555
Ge1 S0 2.438372 1_555
Ge1 S3 2.438372 1_545
Ir0 S3 2.364174 1_555
Ir0 S0 2.364174 1_555
Ir0 S7 2.374923 1_555
Ir0 S4 2.374923 1_555
Ir0 S5 2.374923 1_555
Ir0 S6 2.374923 1_555
Ir1 S2 2.364174 1_554
Ir1 S1 2.364174 1_555
Ir1 S4 2.374933 1_555
Ir1 S7 2.374933 1_554
Ir1 S5 2.374933 1_555
Ir1 S6 2.374933 1_554
