# generated using pymatgen
data_Sr2CuIr2
_symmetry_space_group_name_H-M   'P 1'
_cell_length_a   5.90454822
_cell_length_b   5.90454893
_cell_length_c   5.90454953
_cell_angle_alpha   134.31877330
_cell_angle_beta   129.27033394
_cell_angle_gamma   70.63226758
_symmetry_Int_Tables_number   1
_chemical_formula_structural   Sr2CuIr2
_chemical_formula_sum   'Sr2 Cu1 Ir2'
_cell_volume   111.72426566
_cell_formula_units_Z   1
loop_
 _symmetry_equiv_pos_site_id
 _symmetry_equiv_pos_as_xyz
  1  'x, y, z'
loop_
 _atom_site_type_symbol
 _atom_site_label
 _atom_site_symmetry_multiplicity
 _atom_site_fract_x
 _atom_site_fract_y
 _atom_site_fract_z
 _atom_site_occupancy
  Sr  Sr0  1  0.69097484  0.19097484  0.49999900  1
  Sr  Sr1  1  0.30902416  0.80902516  0.50000100  1
  Cu  Cu0  1  0.00000000  0.00000000  0.00000000  1
  Ir  Ir0  1  0.74512890  0.50000000  0.24512890  1
  Ir  Ir1  1  0.25487010  0.50000100  0.75487110  1
loop_
_geom_bond_atom_site_label_1
_geom_bond_atom_site_label_2
_geom_bond_distance
_geom_bond_site_symmetry_2
Sr0 Sr1 3.597890 1_544
Sr0 Sr1 3.597893 1_645
Sr0 Sr1 3.597899 1_555
Sr0 Sr1 3.597902 1_656
Sr0 Sr1 3.680453 1_545
Cu0 Ir1 2.629725 1_544
Cu0 Ir0 2.629731 1_455
Cu0 Ir0 2.629732 1_444
Cu0 Ir1 2.629733 1_555
Cu0 Sr0 3.127978 1_555
Cu0 Sr0 3.127983 1_454
Cu0 Sr1 3.127983 1_444
Cu0 Sr1 3.127983 1_545
Cu0 Sr1 3.757655 1_544
Cu0 Sr0 3.757660 1_455
Cu0 Sr1 3.757661 1_555
Cu0 Sr0 3.757663 1_444
Ir0 Ir1 2.480116 1_554
Ir0 Ir1 2.578673 1_655
Ir0 Sr0 3.190180 1_565
Ir0 Sr1 3.190180 1_544
Ir0 Sr0 3.190184 1_554
Ir0 Sr1 3.190187 1_555
Ir0 Sr1 3.244887 1_655
Ir0 Sr0 3.244891 1_555
Ir1 Sr0 3.190177 1_566
Ir1 Sr1 3.190186 1_545
Ir1 Sr1 3.190186 1_556
Ir1 Sr0 3.190187 1_555
Ir1 Sr1 3.244886 1_555
Ir1 Sr0 3.244891 1_455
