# generated using pymatgen
data_Y16Cd4NiIr3
_symmetry_space_group_name_H-M   'P 1'
_cell_length_a   9.60273621
_cell_length_b   9.64606276
_cell_length_c   9.64606212
_cell_angle_alpha   60.00000218
_cell_angle_beta   59.85063731
_cell_angle_gamma   59.85063764
_symmetry_Int_Tables_number   1
_chemical_formula_structural   Y16Cd4NiIr3
_chemical_formula_sum   'Y16 Cd4 Ni1 Ir3'
_cell_volume   630.37064151
_cell_formula_units_Z   1
loop_
 _symmetry_equiv_pos_site_id
 _symmetry_equiv_pos_as_xyz
  1  'x, y, z'
loop_
 _atom_site_type_symbol
 _atom_site_label
 _atom_site_symmetry_multiplicity
 _atom_site_fract_x
 _atom_site_fract_y
 _atom_site_fract_z
 _atom_site_occupancy
  Y  Y0  1  0.60247710  0.59704978  0.59704978  1
  Y  Y1  1  0.60247710  0.59704978  0.20342334  1
  Y  Y2  1  0.60247710  0.20342334  0.59704978  1
  Y  Y3  1  0.20355543  0.59881452  0.59881452  1
  Y  Y4  1  0.05828102  0.44023996  0.44023996  1
  Y  Y5  1  0.43784888  0.06053010  0.06053010  1
  Y  Y6  1  0.43784888  0.06053010  0.44108992  1
  Y  Y7  1  0.05828102  0.44023996  0.06123805  1
  Y  Y8  1  0.43784888  0.44108992  0.06053010  1
  Y  Y9  1  0.05828102  0.06123805  0.44023996  1
  Y  Y10  1  0.18928901  0.81079086  0.81079086  1
  Y  Y11  1  0.81021787  0.18736588  0.18736588  1
  Y  Y12  1  0.81021787  0.18736588  0.81505036  1
  Y  Y13  1  0.18928901  0.81079086  0.18912927  1
  Y  Y14  1  0.81021787  0.81505036  0.18736588  1
  Y  Y15  1  0.18928901  0.18912927  0.81079086  1
  Cd  Cd0  1  0.82903801  0.83034646  0.83034646  1
  Cd  Cd1  1  0.82903801  0.83034646  0.51026708  1
  Cd  Cd2  1  0.82903801  0.51026708  0.83034646  1
  Cd  Cd3  1  0.51080294  0.82973235  0.82973235  1
  Ni  Ni0  1  0.82680975  0.39106408  0.39106408  1
  Ir  Ir0  1  0.39245907  0.39127697  0.39127697  1
  Ir  Ir1  1  0.39245907  0.39127697  0.82498799  1
  Ir  Ir2  1  0.39245907  0.82498799  0.39127697  1
loop_
_geom_bond_atom_site_label_1
_geom_bond_atom_site_label_2
_geom_bond_distance
_geom_bond_site_symmetry_2
Y0 Y14 3.464572 1_555
Y0 Y12 3.464572 1_555
Y1 Y14 3.464572 1_555
Y1 Y11 3.464572 1_555
Y10 Y14 3.628183 1_456
Y10 Y12 3.628183 1_465
Y11 Y2 3.464572 1_555
Y11 Y8 3.589172 1_555
Y11 Y6 3.589172 1_555
Y11 Y12 3.591379 1_554
Y11 Y14 3.591379 1_545
Y11 Y9 3.614171 1_655
Y11 Y7 3.614172 1_655
Y11 Y15 3.628183 1_654
Y11 Y13 3.628183 1_645
Y12 Y2 3.464572 1_555
Y12 Y8 3.589167 1_556
Y12 Y5 3.589172 1_556
Y12 Y14 3.591379 1_546
Y12 Y4 3.614175 1_655
Y12 Y9 3.614180 1_655
Y12 Y15 3.628183 1_655
Y13 Y14 3.628183 1_455
Y14 Y6 3.589167 1_565
Y14 Y5 3.589172 1_565
Y14 Y4 3.614175 1_655
Y14 Y7 3.614180 1_655
Cd0 Cd3 3.061889 1_555
Cd0 Cd1 3.087506 1_555
Cd0 Cd2 3.087506 1_555
Cd0 Y10 3.280725 1_655
Cd0 Y14 3.287533 1_556
Cd0 Y12 3.287533 1_565
Cd0 Y1 3.420983 1_556
Cd0 Y2 3.420983 1_565
Cd0 Y3 3.429467 1_655
Cd0 Y5 3.484889 1_566
Cd0 Y9 3.491343 1_665
Cd0 Y7 3.491343 1_656
Cd1 Cd3 3.061899 1_555
Cd1 Cd2 3.087506 1_555
Cd1 Y13 3.280716 1_655
Cd1 Y14 3.287514 1_555
Cd1 Y11 3.287524 1_565
Cd1 Y0 3.420975 1_555
Cd1 Y2 3.420992 1_565
Cd1 Y3 3.429471 1_655
Cd1 Y6 3.484885 1_565
Cd1 Y4 3.491339 1_655
Cd1 Y9 3.491348 1_665
Cd2 Cd3 3.061899 1_555
Cd2 Y15 3.280716 1_655
Cd2 Y12 3.287514 1_555
Cd2 Y11 3.287524 1_556
Cd2 Y0 3.420975 1_555
Cd2 Y1 3.420992 1_556
Cd2 Y3 3.429471 1_655
Cd2 Y8 3.484885 1_556
Cd2 Y4 3.491339 1_655
Cd2 Y7 3.491347 1_656
Cd3 Y13 3.281093 1_556
Cd3 Y10 3.281093 1_555
Cd3 Y15 3.281093 1_565
Cd3 Y1 3.452299 1_556
Cd3 Y0 3.452299 1_555
Cd3 Y2 3.452299 1_565
Cd3 Y5 3.496643 1_566
Cd3 Y6 3.496651 1_565
Cd3 Y8 3.496651 1_556
Ni0 Y4 2.780997 1_655
Ni0 Y7 2.781016 1_655
Ni0 Y9 2.781016 1_655
Ni0 Y0 2.808077 1_555
Ni0 Y1 2.808090 1_555
Ni0 Y2 2.808090 1_555
Ni0 Y12 3.498076 1_555
Ni0 Y14 3.498077 1_555
Ni0 Y11 3.498093 1_555
Ir0 Y8 2.807146 1_555
Ir0 Y6 2.807146 1_555
Ir0 Y4 2.814625 1_555
Ir0 Y3 2.831593 1_555
Ir0 Y2 2.836202 1_555
Ir0 Y1 2.836203 1_555
Ir0 Y11 3.441983 1_555
Ir0 Y15 3.461816 1_555
Ir0 Y13 3.461816 1_555
Ir1 Y8 2.807127 1_556
Ir1 Y5 2.807140 1_556
Ir1 Y7 2.814619 1_556
Ir1 Y3 2.831607 1_555
Ir1 Y0 2.836203 1_555
Ir1 Y2 2.836210 1_555
Ir1 Y12 3.441980 1_555
Ir1 Y10 3.461814 1_555
Ir1 Y15 3.461822 1_555
Ir2 Y6 2.807128 1_565
Ir2 Y5 2.807140 1_565
Ir2 Y9 2.814619 1_565
Ir2 Y3 2.831607 1_555
Ir2 Y0 2.836203 1_555
Ir2 Y1 2.836210 1_555
Ir2 Y14 3.441980 1_555
Ir2 Y10 3.461813 1_555
Ir2 Y13 3.461822 1_555
