# generated using pymatgen
data_HfMn(Be4Ir)2
_symmetry_space_group_name_H-M   'P 1'
_cell_length_a   4.42241684
_cell_length_b   4.42241511
_cell_length_c   7.32059105
_cell_angle_alpha   90.00000000
_cell_angle_beta   90.00000000
_cell_angle_gamma   120.00000547
_symmetry_Int_Tables_number   1
_chemical_formula_structural   HfMn(Be4Ir)2
_chemical_formula_sum   'Hf1 Mn1 Be8 Ir2'
_cell_volume   123.99264789
_cell_formula_units_Z   1
loop_
 _symmetry_equiv_pos_site_id
 _symmetry_equiv_pos_as_xyz
  1  'x, y, z'
loop_
 _atom_site_type_symbol
 _atom_site_label
 _atom_site_symmetry_multiplicity
 _atom_site_fract_x
 _atom_site_fract_y
 _atom_site_fract_z
 _atom_site_occupancy
  Hf  Hf0  1  0.66666700  0.33333300  0.93907668  1
  Mn  Mn0  1  0.33333300  0.66666700  0.43524718  1
  Be  Be0  1  0.00000000  0.00000000  0.00888531  1
  Be  Be1  1  0.00000000  0.00000000  0.49611912  1
  Be  Be2  1  0.83208153  0.66416306  0.26005558  1
  Be  Be3  1  0.16725724  0.83274276  0.73652912  1
  Be  Be4  1  0.66548551  0.83274276  0.73652912  1
  Be  Be5  1  0.33583694  0.16791847  0.26005558  1
  Be  Be6  1  0.83208153  0.16791847  0.26005558  1
  Be  Be7  1  0.16725724  0.33451449  0.73652912  1
  Ir  Ir0  1  0.33333300  0.66666700  0.06292843  1
  Ir  Ir1  1  0.66666700  0.33333300  0.56798521  1
loop_
_geom_bond_atom_site_label_1
_geom_bond_atom_site_label_2
_geom_bond_distance
_geom_bond_site_symmetry_2
Hf0 Ir0 2.709481 1_546
Hf0 Ir0 2.709481 1_656
Hf0 Ir0 2.709488 1_556
Hf0 Ir1 2.716609 1_555
Be0 Be2 2.243938 1_445
Be0 Be6 2.243939 1_455
Be0 Be5 2.243939 1_555
Be0 Be7 2.369948 1_554
Be0 Be3 2.369949 1_544
Be0 Be4 2.369949 1_444
Be0 Ir0 2.583750 1_545
Be0 Ir0 2.583753 1_555
Be0 Ir0 2.583754 1_445
Be0 Hf0 2.603921 1_454
Be0 Hf0 2.603924 1_444
Be0 Hf0 2.603925 1_554
Be1 Be2 2.154252 1_445
Be1 Be6 2.154252 1_455
Be1 Be5 2.154252 1_555
Be1 Be7 2.176875 1_555
Be1 Be3 2.176875 1_545
Be1 Be4 2.176875 1_445
Be1 Mn0 2.591875 1_545
Be1 Mn0 2.591878 1_555
Be1 Mn0 2.591879 1_445
Be1 Ir1 2.606919 1_455
Be1 Ir1 2.606922 1_445
Be1 Ir1 2.606923 1_555
Be2 Be6 2.194600 1_555
Be2 Be5 2.194600 1_555
Be2 Be6 2.227816 1_565
Be2 Be5 2.227816 1_665
Be2 Mn0 2.556237 1_655
Be2 Mn0 2.556241 1_555
Be2 Ir1 2.585917 1_555
Be2 Ir0 2.640459 1_655
Be2 Ir0 2.640463 1_555
Be2 Hf0 2.669602 1_554
Be3 Be7 2.203372 1_555
Be3 Be4 2.203373 1_555
Be3 Be7 2.219043 1_565
Be3 Be4 2.219044 1_455
Be3 Ir1 2.532158 1_565
Be3 Ir1 2.532158 1_455
Be3 Mn0 2.546130 1_555
Be3 Hf0 2.662341 1_565
Be3 Hf0 2.662341 1_455
Be3 Ir0 2.706969 1_556
Be4 Be7 2.203372 1_555
Be4 Be7 2.219043 1_665
Be4 Ir1 2.532156 1_565
Be4 Ir1 2.532160 1_555
Be4 Mn0 2.546132 1_555
Be4 Hf0 2.662339 1_565
Be4 Hf0 2.662343 1_555
Be4 Ir0 2.706971 1_556
Be5 Be6 2.194600 1_555
Be5 Be6 2.227816 1_455
Be5 Mn0 2.556236 1_545
Be5 Mn0 2.556240 1_555
Be5 Ir1 2.585917 1_555
Be5 Ir0 2.640459 1_545
Be5 Ir0 2.640462 1_555
Be5 Hf0 2.669602 1_554
Be6 Mn0 2.556238 1_545
Be6 Mn0 2.556238 1_655
Be6 Ir1 2.585915 1_555
Be6 Ir0 2.640461 1_545
Be6 Ir0 2.640461 1_655
Be6 Hf0 2.669600 1_554
Be7 Ir1 2.532157 1_455
Be7 Ir1 2.532160 1_555
Be7 Mn0 2.546132 1_555
Be7 Hf0 2.662340 1_455
Be7 Hf0 2.662344 1_555
Be7 Ir0 2.706971 1_556
Ir0 Mn0 2.725593 1_555
Ir1 Mn0 2.731937 1_545
Ir1 Mn0 2.731938 1_655
Ir1 Mn0 2.731945 1_555
