# generated using pymatgen
data_YAg6ClO8
_symmetry_space_group_name_H-M   'P 1'
_cell_length_a   6.99533241
_cell_length_b   6.99533196
_cell_length_c   6.99533221
_cell_angle_alpha   60.00000330
_cell_angle_beta   60.00000542
_cell_angle_gamma   59.99999891
_symmetry_Int_Tables_number   1
_chemical_formula_structural   YAg6ClO8
_chemical_formula_sum   'Y1 Ag6 Cl1 O8'
_cell_volume   242.05276946
_cell_formula_units_Z   1
loop_
 _symmetry_equiv_pos_site_id
 _symmetry_equiv_pos_as_xyz
  1  'x, y, z'
loop_
 _atom_site_type_symbol
 _atom_site_label
 _atom_site_symmetry_multiplicity
 _atom_site_fract_x
 _atom_site_fract_y
 _atom_site_fract_z
 _atom_site_occupancy
  Y  Y0  1  0.00000000  0.00000000  0.00000000  1
  Ag  Ag0  1  0.00000000  0.00000000  0.50000000  1
  Ag  Ag1  1  0.50000000  0.00000000  0.50000000  1
  Ag  Ag2  1  0.00000000  0.50000000  0.50000000  1
  Ag  Ag3  1  0.50000000  0.50000000  0.00000000  1
  Ag  Ag4  1  0.00000000  0.50000000  0.00000000  1
  Ag  Ag5  1  0.50000000  0.00000000  0.00000000  1
  Cl  Cl0  1  0.50000000  0.50000000  0.50000000  1
  O  O0  1  0.86107813  0.86107813  0.41676461  1
  O  O1  1  0.86107813  0.41676461  0.86107813  1
  O  O2  1  0.41676461  0.86107813  0.86107813  1
  O  O3  1  0.86107813  0.86107813  0.86107813  1
  O  O4  1  0.13892187  0.13892187  0.58323539  1
  O  O5  1  0.13892187  0.58323539  0.13892187  1
  O  O6  1  0.58323539  0.13892187  0.13892187  1
  O  O7  1  0.13892187  0.13892187  0.13892187  1
loop_
_geom_bond_atom_site_label_1
_geom_bond_atom_site_label_2
_geom_bond_distance
_geom_bond_site_symmetry_2
Ag0 O3 2.074585 1_445
Ag0 O7 2.074585 1_555
Ag0 O4 2.074590 1_555
Ag0 O0 2.074590 1_445
Ag1 O0 2.074584 1_545
Ag1 O4 2.074584 1_555
Ag1 O2 2.074584 1_545
Ag1 O6 2.074584 1_555
Ag2 O0 2.074584 1_455
Ag2 O4 2.074584 1_555
Ag2 O1 2.074584 1_455
Ag2 O5 2.074584 1_555
Ag3 O2 2.074584 1_554
Ag3 O6 2.074584 1_555
Ag3 O1 2.074584 1_554
Ag3 O5 2.074584 1_555
Ag4 O3 2.074585 1_454
Ag4 O7 2.074585 1_555
Ag4 O5 2.074590 1_555
Ag4 O1 2.074590 1_454
Ag5 O3 2.074585 1_544
Ag5 O7 2.074585 1_555
Ag5 O6 2.074590 1_555
Ag5 O2 2.074590 1_544
O0 Y0 2.380420 1_665
O1 Y0 2.380420 1_656
O2 Y0 2.380420 1_566
O3 Y0 2.380425 1_666
O4 Y0 2.380420 1_556
O5 Y0 2.380420 1_565
O6 Y0 2.380420 1_655
O7 Y0 2.380425 1_555
