# generated using pymatgen
data_Sr2Cu2I
_symmetry_space_group_name_H-M   'P 1'
_cell_length_a   4.31913678
_cell_length_b   4.31913768
_cell_length_c   18.10542051
_cell_angle_alpha   90.00000000
_cell_angle_beta   90.00000000
_cell_angle_gamma   120.00000057
_symmetry_Int_Tables_number   1
_chemical_formula_structural   Sr2Cu2I
_chemical_formula_sum   'Sr4 Cu4 I2'
_cell_volume   292.50497110
_cell_formula_units_Z   2
loop_
 _symmetry_equiv_pos_site_id
 _symmetry_equiv_pos_as_xyz
  1  'x, y, z'
loop_
 _atom_site_type_symbol
 _atom_site_label
 _atom_site_symmetry_multiplicity
 _atom_site_fract_x
 _atom_site_fract_y
 _atom_site_fract_z
 _atom_site_occupancy
  Sr  Sr0  1  0.00000000  0.00000000  0.10952674  1
  Sr  Sr1  1  0.00000000  0.00000000  0.89047326  1
  Sr  Sr2  1  0.00000000  0.00000000  0.60952674  1
  Sr  Sr3  1  0.00000000  0.00000000  0.39047326  1
  Cu  Cu0  1  0.33333300  0.66666700  0.50055015  1
  Cu  Cu1  1  0.66666700  0.33333300  0.49944985  1
  Cu  Cu2  1  0.66666700  0.33333300  0.00055015  1
  Cu  Cu3  1  0.33333300  0.66666700  0.99944985  1
  I  I0  1  0.33333300  0.66666700  0.25000000  1
  I  I1  1  0.66666700  0.33333300  0.75000000  1
loop_
_geom_bond_atom_site_label_1
_geom_bond_atom_site_label_2
_geom_bond_distance
_geom_bond_site_symmetry_2
Cu0 Cu1 2.493732 1_455
Cu0 Cu1 2.493732 1_565
Cu0 Cu1 2.493740 1_555
Cu0 Sr2 3.179827 1_565
Cu0 Sr2 3.179829 1_665
Cu0 Sr2 3.179830 1_555
Cu0 Sr3 3.192226 1_565
Cu0 Sr3 3.192229 1_665
Cu0 Sr3 3.192229 1_555
Cu1 Sr3 3.179827 1_655
Cu1 Sr3 3.179829 1_555
Cu1 Sr3 3.179830 1_665
Cu1 Sr2 3.192226 1_655
Cu1 Sr2 3.192229 1_555
Cu1 Sr2 3.192229 1_665
Cu2 Cu3 2.493732 1_654
Cu2 Cu3 2.493732 1_544
Cu2 Cu3 2.493740 1_554
Cu2 Sr0 3.179827 1_655
Cu2 Sr0 3.179829 1_555
Cu2 Sr0 3.179830 1_665
Cu2 Sr1 3.192226 1_654
Cu2 Sr1 3.192229 1_554
Cu2 Sr1 3.192229 1_664
Cu3 Sr1 3.179827 1_565
Cu3 Sr1 3.179829 1_665
Cu3 Sr1 3.179830 1_555
Cu3 Sr0 3.192226 1_566
Cu3 Sr0 3.192229 1_666
Cu3 Sr0 3.192229 1_556
I0 Sr3 3.561856 1_565
I0 Sr0 3.561856 1_565
I0 Sr3 3.561858 1_665
I0 Sr0 3.561858 1_665
I0 Sr3 3.561859 1_555
I0 Sr0 3.561859 1_555
I1 Sr1 3.561856 1_655
I1 Sr2 3.561856 1_655
I1 Sr1 3.561858 1_555
I1 Sr2 3.561858 1_555
I1 Sr1 3.561859 1_665
I1 Sr2 3.561859 1_665
