# generated using pymatgen
data_Rb2InP2Se7
_symmetry_space_group_name_H-M   'P 1'
_cell_length_a   9.57690813
_cell_length_b   9.57690836
_cell_length_c   9.20075057
_cell_angle_alpha   74.81698807
_cell_angle_beta   74.81698604
_cell_angle_gamma   72.29275648
_symmetry_Int_Tables_number   1
_chemical_formula_structural   Rb2InP2Se7
_chemical_formula_sum   'Rb4 In2 P4 Se14'
_cell_volume   760.43121544
_cell_formula_units_Z   2
loop_
 _symmetry_equiv_pos_site_id
 _symmetry_equiv_pos_as_xyz
  1  'x, y, z'
loop_
 _atom_site_type_symbol
 _atom_site_label
 _atom_site_symmetry_multiplicity
 _atom_site_fract_x
 _atom_site_fract_y
 _atom_site_fract_z
 _atom_site_occupancy
  Rb  Rb0  1  0.60858236  0.04686561  0.16420455  1
  Rb  Rb1  1  0.95313439  0.39141764  0.83579545  1
  Rb  Rb2  1  0.39141764  0.95313439  0.83579545  1
  Rb  Rb3  1  0.04686561  0.60858236  0.16420455  1
  In  In0  1  0.68739402  0.31260598  0.50000000  1
  In  In1  1  0.31260598  0.68739402  0.50000000  1
  P  P0  1  0.94453294  0.94453294  0.44039829  1
  P  P1  1  0.05546706  0.05546706  0.55960171  1
  P  P2  1  0.38936826  0.38936826  0.81244295  1
  P  P3  1  0.61063174  0.61063174  0.18755705  1
  Se  Se0  1  0.69753835  0.36651127  0.19563534  1
  Se  Se1  1  0.63348873  0.30246165  0.80436466  1
  Se  Se2  1  0.30246165  0.63348873  0.80436466  1
  Se  Se3  1  0.36651127  0.69753835  0.19563534  1
  Se  Se4  1  0.00344575  0.00344575  0.19551850  1
  Se  Se5  1  0.99655425  0.99655425  0.80448150  1
  Se  Se6  1  0.70293521  0.01789370  0.53382133  1
  Se  Se7  1  0.98210630  0.29706479  0.46617867  1
  Se  Se8  1  0.29706479  0.98210630  0.46617867  1
  Se  Se9  1  0.01789370  0.70293521  0.53382133  1
  Se  Se10  1  0.26785223  0.26785223  0.01190643  1
  Se  Se11  1  0.73214777  0.73214777  0.98809357  1
  Se  Se12  1  0.36273266  0.36273266  0.58418917  1
  Se  Se13  1  0.63726734  0.63726734  0.41581083  1
loop_
_geom_bond_atom_site_label_1
_geom_bond_atom_site_label_2
_geom_bond_distance
_geom_bond_site_symmetry_2
Rb0 Se0 3.515626 1_555
Rb0 Se11 3.534737 1_544
Rb0 Se1 3.564626 1_554
Rb0 Se8 3.589671 1_545
Rb0 Se6 3.663533 1_555
Rb0 Se10 3.705586 1_555
Rb0 Se4 3.756006 1_655
Rb0 Se13 3.967741 1_545
Rb1 Se1 3.515626 1_555
Rb1 Se10 3.534737 1_656
Rb1 Se0 3.564626 1_556
Rb1 Se9 3.589671 1_655
Rb1 Se7 3.663533 1_555
Rb1 Se11 3.705586 1_555
Rb1 Se5 3.756006 1_545
Rb1 Se12 3.967741 1_655
Rb2 Se2 3.515626 1_555
Rb2 Se10 3.534737 1_566
Rb2 Se3 3.564626 1_556
Rb2 Se6 3.589671 1_565
Rb2 Se8 3.663533 1_555
Rb2 Se11 3.705586 1_555
Rb2 Se5 3.756006 1_455
Rb2 Se12 3.967741 1_565
Rb3 Se3 3.515626 1_555
Rb3 Se11 3.534737 1_454
Rb3 Se2 3.564626 1_554
Rb3 Se7 3.589671 1_455
Rb3 Se9 3.663533 1_555
Rb3 Se10 3.705586 1_555
Rb3 Se4 3.756006 1_565
Rb3 Se13 3.967741 1_455
In0 Se1 2.692367 1_555
In0 Se0 2.692367 1_555
In0 Se7 2.719151 1_555
In0 Se6 2.719151 1_555
In0 Se12 2.919446 1_555
In0 Se13 2.919447 1_555
In1 Se3 2.692367 1_555
In1 Se2 2.692367 1_555
In1 Se9 2.719151 1_555
In1 Se8 2.719151 1_555
In1 Se13 2.919446 1_555
In1 Se12 2.919447 1_555
P0 Se4 2.138909 1_665
P0 Se6 2.207182 1_565
P0 Se9 2.207183 1_655
P0 P1 2.316804 1_665
P1 Se5 2.138909 1_445
P1 Se8 2.207182 1_545
P1 Se7 2.207183 1_455
P2 Se10 2.159410 1_556
P2 Se1 2.218518 1_555
P2 Se2 2.218518 1_555
P2 Se12 2.267461 1_555
P3 Se11 2.159410 1_554
P3 Se3 2.218518 1_555
P3 Se0 2.218518 1_555
P3 Se13 2.267461 1_555
