# generated using pymatgen
data_BiSb(SeO3)4
_symmetry_space_group_name_H-M   'P 1'
_cell_length_a   8.30990545
_cell_length_b   8.88136827
_cell_length_c   8.44143422
_cell_angle_alpha   90.59270648
_cell_angle_beta   90.00000000
_cell_angle_gamma   90.00000000
_symmetry_Int_Tables_number   1
_chemical_formula_structural   BiSb(SeO3)4
_chemical_formula_sum   'Bi2 Sb2 Se8 O24'
_cell_volume   622.97262566
_cell_formula_units_Z   2
loop_
 _symmetry_equiv_pos_site_id
 _symmetry_equiv_pos_as_xyz
  1  'x, y, z'
loop_
 _atom_site_type_symbol
 _atom_site_label
 _atom_site_symmetry_multiplicity
 _atom_site_fract_x
 _atom_site_fract_y
 _atom_site_fract_z
 _atom_site_occupancy
  Bi  Bi0  1  0.00000000  0.50000000  0.00000000  1
  Bi  Bi1  1  0.50000000  0.50000000  0.50000000  1
  Sb  Sb0  1  0.00000000  0.00000000  0.50000000  1
  Sb  Sb1  1  0.50000000  0.00000000  0.00000000  1
  Se  Se0  1  0.35072209  0.68847876  0.15421020  1
  Se  Se1  1  0.85072209  0.31152124  0.34578980  1
  Se  Se2  1  0.68967687  0.85064187  0.68880036  1
  Se  Se3  1  0.18967687  0.14935813  0.81119964  1
  Se  Se4  1  0.64927791  0.31152124  0.84578980  1
  Se  Se5  1  0.14927791  0.68847876  0.65421020  1
  Se  Se6  1  0.31032313  0.14935813  0.31119964  1
  Se  Se7  1  0.81032313  0.85064187  0.18880036  1
  O  O0  1  0.26704944  0.56611910  0.02607168  1
  O  O1  1  0.76704944  0.43388090  0.47392832  1
  O  O2  1  0.76543539  0.98020921  0.55184030  1
  O  O3  1  0.26543539  0.01979079  0.94815970  1
  O  O4  1  0.55176682  0.98041106  0.76975185  1
  O  O5  1  0.49407720  0.58545336  0.24161311  1
  O  O6  1  0.99407720  0.41454664  0.25838689  1
  O  O7  1  0.05176682  0.01958894  0.73024815  1
  O  O8  1  0.98058908  0.21934856  0.48522988  1
  O  O9  1  0.56824021  0.75062386  0.57297039  1
  O  O10  1  0.48058908  0.78065144  0.01477012  1
  O  O11  1  0.06824021  0.24937614  0.92702961  1
  O  O12  1  0.73295056  0.43388090  0.97392832  1
  O  O13  1  0.23295056  0.56611910  0.52607168  1
  O  O14  1  0.23456461  0.01979079  0.44815970  1
  O  O15  1  0.73456461  0.98020921  0.05184030  1
  O  O16  1  0.44823318  0.01958894  0.23024815  1
  O  O17  1  0.50592280  0.41454664  0.75838689  1
  O  O18  1  0.00592280  0.58545336  0.74161311  1
  O  O19  1  0.94823318  0.98041106  0.26975185  1
  O  O20  1  0.01941092  0.78065144  0.51477012  1
  O  O21  1  0.43175979  0.24937614  0.42702961  1
  O  O22  1  0.51941092  0.21934856  0.98522988  1
  O  O23  1  0.93175979  0.75062386  0.07297039  1
loop_
_geom_bond_atom_site_label_1
_geom_bond_atom_site_label_2
_geom_bond_distance
_geom_bond_site_symmetry_2
Bi0 O0 2.305483 1_555
Bi0 O12 2.305483 1_454
Bi0 O6 2.317349 1_455
Bi0 O18 2.317349 1_554
Bi0 O23 2.372168 1_455
Bi0 O11 2.372168 1_554
Bi1 O1 2.305483 1_555
Bi1 O13 2.305483 1_555
Bi1 O17 2.317349 1_555
Bi1 O5 2.317349 1_555
Bi1 O9 2.372168 1_555
Bi1 O21 2.372168 1_555
O0 Se0 1.676341 1_555
O1 Se1 1.676341 1_555
O2 Se2 1.756332 1_555
O2 Sb0 2.005842 1_665
O3 Se3 1.756332 1_555
O3 Sb1 2.005842 1_556
O4 Se2 1.758508 1_555
O4 Sb1 1.996497 1_566
O5 Se0 1.677701 1_555
O6 Se1 1.677701 1_555
O7 Se3 1.758508 1_555
O7 Sb0 1.996497 1_555
O8 Se1 1.800059 1_555
O8 Sb0 1.960036 1_655
O9 Se2 1.656948 1_555
O10 Se0 1.800059 1_555
O10 Sb1 1.960036 1_565
O11 Se3 1.656948 1_555
O12 Se4 1.676341 1_555
O13 Se5 1.676341 1_555
O14 Se6 1.756332 1_555
O14 Sb0 2.005842 1_555
O15 Se7 1.756332 1_555
O15 Sb1 2.005842 1_565
O16 Se6 1.758508 1_555
O16 Sb1 1.996497 1_555
O17 Se4 1.677701 1_555
O18 Se5 1.677701 1_555
O19 Se7 1.758508 1_555
O19 Sb0 1.996497 1_665
O20 Se5 1.800059 1_555
O20 Sb0 1.960036 1_565
O21 Se6 1.656948 1_555
O22 Se4 1.800059 1_555
O22 Sb1 1.960036 1_556
O23 Se7 1.656948 1_555
