# generated using pymatgen
data_Ba2GeWN4
_symmetry_space_group_name_H-M   'P 1'
_cell_length_a   5.94528788
_cell_length_b   7.03608669
_cell_length_c   8.46133343
_cell_angle_alpha   59.67994243
_cell_angle_beta   90.00000000
_cell_angle_gamma   90.00000000
_symmetry_Int_Tables_number   1
_chemical_formula_structural   Ba2GeWN4
_chemical_formula_sum   'Ba4 Ge2 W2 N8'
_cell_volume   305.53699951
_cell_formula_units_Z   2
loop_
 _symmetry_equiv_pos_site_id
 _symmetry_equiv_pos_as_xyz
  1  'x, y, z'
loop_
 _atom_site_type_symbol
 _atom_site_label
 _atom_site_symmetry_multiplicity
 _atom_site_fract_x
 _atom_site_fract_y
 _atom_site_fract_z
 _atom_site_occupancy
  Ba  Ba0  1  0.25000000  0.23096181  0.08121346  1
  Ba  Ba1  1  0.75000000  0.76903819  0.91878654  1
  Ba  Ba2  1  0.75000000  0.78010110  0.37172633  1
  Ba  Ba3  1  0.25000000  0.21989890  0.62827367  1
  Ge  Ge0  1  0.75000000  0.27360992  0.37738587  1
  Ge  Ge1  1  0.25000000  0.72639008  0.62261413  1
  W  W0  1  0.25000000  0.65881763  0.21169103  1
  W  W1  1  0.75000000  0.34118237  0.78830897  1
  N  N0  1  0.48791176  0.51221634  0.74089587  1
  N  N1  1  0.98791176  0.48778366  0.25910413  1
  N  N2  1  0.51208824  0.48778366  0.25910413  1
  N  N3  1  0.01208824  0.51221634  0.74089587  1
  N  N4  1  0.75000000  0.21939881  0.63304891  1
  N  N5  1  0.25000000  0.78060119  0.36695109  1
  N  N6  1  0.75000000  0.11602209  0.02342175  1
  N  N7  1  0.25000000  0.88397791  0.97657825  1
loop_
_geom_bond_atom_site_label_1
_geom_bond_atom_site_label_2
_geom_bond_distance
_geom_bond_site_symmetry_2
Ba0 N5 2.855048 1_545
Ba0 N0 2.907773 1_554
Ba0 N3 2.907773 1_554
Ba0 N7 2.987761 1_544
Ba0 N6 3.182617 1_455
Ba0 N6 3.182617 1_555
Ba0 N2 3.271861 1_555
Ba0 N1 3.271861 1_455
Ba1 N4 2.855048 1_565
Ba1 N1 2.907773 1_556
Ba1 N2 2.907773 1_556
Ba1 N6 2.987761 1_566
Ba1 N7 3.182617 1_655
Ba1 N7 3.182617 1_555
Ba1 N3 3.271861 1_655
Ba1 N0 3.271861 1_555
Ba2 N6 2.690534 1_565
Ba2 N5 2.972896 1_655
Ba2 N5 2.972896 1_555
Ba2 N1 3.019597 1_555
Ba2 N2 3.019597 1_555
Ba2 N3 3.129441 1_655
Ba2 N0 3.129441 1_555
Ba3 N7 2.690534 1_545
Ba3 N4 2.972896 1_555
Ba3 N4 2.972896 1_455
Ba3 N0 3.019597 1_555
Ba3 N3 3.019597 1_555
Ba3 N2 3.129441 1_555
Ba3 N1 3.129441 1_455
Ge0 N1 1.936609 1_555
Ge0 N2 1.936609 1_555
Ge0 N4 1.998008 1_555
Ge1 N0 1.936609 1_555
Ge1 N3 1.936609 1_555
Ge1 N5 1.998008 1_555
N0 W1 1.884052 1_555
N1 W0 1.884052 1_655
N2 W0 1.884052 1_555
N3 W1 1.884052 1_455
N4 W1 1.896479 1_555
N5 W0 1.896479 1_555
N6 W1 1.812548 1_554
N7 W0 1.812548 1_556
