# generated using pymatgen
data_Lu6ZrAl15Os7
_symmetry_space_group_name_H-M   'P 1'
_cell_length_a   8.87706654
_cell_length_b   8.87706606
_cell_length_c   8.87306977
_cell_angle_alpha   59.98509925
_cell_angle_beta   59.98509791
_cell_angle_gamma   60.00000073
_symmetry_Int_Tables_number   1
_chemical_formula_structural   Lu6ZrAl15Os7
_chemical_formula_sum   'Lu6 Zr1 Al15 Os7'
_cell_volume   494.31065611
_cell_formula_units_Z   1
loop_
 _symmetry_equiv_pos_site_id
 _symmetry_equiv_pos_as_xyz
  1  'x, y, z'
loop_
 _atom_site_type_symbol
 _atom_site_label
 _atom_site_symmetry_multiplicity
 _atom_site_fract_x
 _atom_site_fract_y
 _atom_site_fract_z
 _atom_site_occupancy
  Lu  Lu0  1  0.70614583  0.70614583  0.28779702  1
  Lu  Lu1  1  0.29991233  0.70614583  0.28779702  1
  Lu  Lu2  1  0.70614583  0.29991233  0.28779702  1
  Lu  Lu3  1  0.28824952  0.28824952  0.71368522  1
  Lu  Lu4  1  0.70981575  0.28824952  0.71368522  1
  Lu  Lu5  1  0.28824952  0.70981575  0.71368522  1
  Zr  Zr0  1  0.88082783  0.88082783  0.35751352  1
  Al  Al0  1  0.87828408  0.36375398  0.87967786  1
  Al  Al1  1  0.36375398  0.87828408  0.87967786  1
  Al  Al2  1  0.87828408  0.87828408  0.87967786  1
  Al  Al3  1  0.12374852  0.12374852  0.62875643  1
  Al  Al4  1  0.12147913  0.63632107  0.12072167  1
  Al  Al5  1  0.63632107  0.12147913  0.12072167  1
  Al  Al6  1  0.12147913  0.12147913  0.12072167  1
  Al  Al7  1  0.66909291  0.66909291  0.99272126  1
  Al  Al8  1  0.66464370  0.99863000  0.67208460  1
  Al  Al9  1  0.99863000  0.66464370  0.67208460  1
  Al  Al10  1  0.66464370  0.66464370  0.67208460  1
  Al  Al11  1  0.33183358  0.33183358  0.00449825  1
  Al  Al12  1  0.33302261  0.00157877  0.33237701  1
  Al  Al13  1  0.00157877  0.33302261  0.33237701  1
  Al  Al14  1  0.33302261  0.33302261  0.33237701  1
  Os  Os0  1  0.00366868  0.00366868  0.98899296  1
  Os  Os1  1  0.00058370  0.00058370  0.50235832  1
  Os  Os2  1  0.49647329  0.00058370  0.50235832  1
  Os  Os3  1  0.00058370  0.49647329  0.50235832  1
  Os  Os4  1  0.49932559  0.49932559  0.00047084  1
  Os  Os5  1  0.00087999  0.49932559  0.00047084  1
  Os  Os6  1  0.49932559  0.00087999  0.00047084  1
loop_
_geom_bond_atom_site_label_1
_geom_bond_atom_site_label_2
_geom_bond_distance
_geom_bond_site_symmetry_2
Lu0 Zr0 3.084750 1_555
Lu0 Os5 3.149894 1_655
Lu0 Os6 3.149894 1_565
Lu0 Os2 3.238647 1_565
Lu0 Os3 3.238647 1_655
Lu0 Lu2 3.606162 1_555
Lu0 Lu1 3.606162 1_555
Lu0 Lu4 3.744402 1_555
Lu0 Lu5 3.744402 1_555
Lu1 Zr0 3.084780 1_455
Lu1 Os4 3.149893 1_555
Lu1 Os6 3.149899 1_565
Lu1 Os1 3.238649 1_565
Lu1 Os3 3.238662 1_555
Lu1 Lu2 3.606162 1_555
Lu1 Lu5 3.744398 1_555
Lu1 Lu3 3.744402 1_555
Lu2 Zr0 3.084780 1_545
Lu2 Os4 3.149893 1_555
Lu2 Os5 3.149899 1_655
Lu2 Os1 3.238650 1_655
Lu2 Os2 3.238662 1_555
Lu2 Lu4 3.744398 1_555
Lu2 Lu3 3.744402 1_555
Lu3 Os5 3.160655 1_556
Lu3 Os6 3.160655 1_556
Lu3 Os2 3.171201 1_555
Lu3 Os3 3.171201 1_555
Lu4 Os6 3.160644 1_556
Lu4 Os4 3.160656 1_556
Lu4 Os3 3.171193 1_655
Lu4 Os1 3.171200 1_655
Lu5 Os5 3.160644 1_556
Lu5 Os4 3.160657 1_556
Lu5 Os2 3.171193 1_565
Lu5 Os1 3.171200 1_565
Al0 Os0 2.611069 1_655
Al0 Os3 2.733522 1_655
Al0 Os4 2.747471 1_556
Al0 Os5 2.747485 1_656
Al0 Al7 2.761250 1_555
Al0 Al10 2.762443 1_555
Al0 Al9 2.762453 1_555
Al0 Lu2 3.007745 1_556
Al0 Lu4 3.008121 1_555
Al0 Lu3 3.008121 1_655
Al0 Al5 3.038915 1_556
Al0 Al6 3.038921 1_656
Al0 Al3 3.081221 1_655
Al1 Os0 2.611069 1_565
Al1 Os2 2.733522 1_565
Al1 Os4 2.747471 1_556
Al1 Os6 2.747485 1_566
Al1 Al7 2.761250 1_555
Al1 Al10 2.762443 1_555
Al1 Al8 2.762453 1_555
Al1 Lu1 3.007745 1_556
Al1 Lu3 3.008121 1_565
Al1 Lu5 3.008121 1_555
Al1 Al4 3.038915 1_556
Al1 Al6 3.038921 1_566
Al1 Al3 3.081221 1_565
Al2 Os0 2.611062 1_665
Al2 Os1 2.733522 1_665
Al2 Os5 2.747471 1_656
Al2 Os6 2.747471 1_566
Al2 Al7 2.761250 1_555
Al2 Al9 2.762438 1_555
Al2 Al8 2.762438 1_555
Al2 Lu0 3.007743 1_556
Al2 Lu4 3.008121 1_565
Al2 Lu5 3.008121 1_655
Al2 Al5 3.038921 1_566
Al2 Al4 3.038921 1_656
Al2 Al3 3.081233 1_665
Al3 Os0 2.609265 1_555
Al3 Os3 2.701385 1_555
Al3 Os2 2.701385 1_555
Al3 Os1 2.701407 1_555
Al3 Lu3 3.027716 1_555
Al3 Lu5 3.027731 1_545
Al3 Lu4 3.027731 1_455
Al4 Os0 2.663295 1_564
Al4 Os5 2.739789 1_555
Al4 Os4 2.739796 1_555
Al4 Os3 2.765976 1_555
Al4 Lu5 2.986753 1_554
Al4 Zr0 3.020663 1_455
Al4 Lu1 3.056339 1_555
Al4 Lu0 3.056339 1_455
Al5 Os0 2.663295 1_654
Al5 Os6 2.739789 1_555
Al5 Os4 2.739796 1_555
Al5 Os2 2.765976 1_555
Al5 Lu4 2.986753 1_554
Al5 Zr0 3.020663 1_545
Al5 Lu0 3.056339 1_545
Al5 Lu2 3.056339 1_555
Al6 Os0 2.663309 1_554
Al6 Os5 2.739797 1_555
Al6 Os6 2.739797 1_555
Al6 Os1 2.765976 1_555
Al6 Lu3 2.986752 1_554
Al6 Zr0 3.020689 1_445
Al6 Lu1 3.056339 1_545
Al6 Lu2 3.056339 1_455
Al7 Os4 2.571157 1_556
Al7 Os6 2.571173 1_566
Al7 Os5 2.571173 1_656
Al7 Al8 2.885095 1_555
Al7 Al9 2.885095 1_555
Al7 Lu2 2.983757 1_556
Al7 Lu1 2.983758 1_556
Al7 Lu0 2.983763 1_556
Al8 Os6 2.528862 1_566
Al8 Os1 2.587287 1_665
Al8 Os2 2.587310 1_565
Al8 Zr0 2.849853 1_555
Al8 Al9 2.964819 1_555
Al8 Lu4 3.005897 1_565
Al8 Lu3 3.005908 1_565
Al8 Lu2 3.085512 1_565
Al9 Os5 2.528862 1_656
Al9 Os1 2.587287 1_665
Al9 Os3 2.587310 1_655
Al9 Zr0 2.849853 1_555
Al9 Lu5 3.005897 1_655
Al9 Lu3 3.005908 1_655
Al9 Lu1 3.085512 1_655
Al10 Os4 2.528862 1_556
Al10 Os2 2.587295 1_565
Al10 Os3 2.587295 1_655
Al10 Zr0 2.849829 1_555
Al10 Al7 2.885086 1_555
Al10 Al8 2.964818 1_555
Al10 Al9 2.964819 1_555
Al10 Lu4 3.005914 1_555
Al10 Lu5 3.005914 1_555
Al10 Lu0 3.085515 1_555
Al11 Os6 2.554781 1_555
Al11 Os5 2.554781 1_555
Al11 Os4 2.554804 1_555
Al11 Al6 2.769680 1_555
Al11 Al4 2.769695 1_555
Al11 Al5 2.769695 1_555
Al11 Al12 2.919880 1_555
Al11 Al13 2.919880 1_555
Al11 Al14 2.919889 1_555
Al11 Lu3 3.017477 1_554
Al11 Lu5 3.017482 1_554
Al11 Lu4 3.017482 1_554
Al12 Os6 2.551882 1_555
Al12 Os2 2.558021 1_555
Al12 Os1 2.558036 1_555
Al12 Al3 2.737534 1_555
Al12 Al5 2.777784 1_555
Al12 Al6 2.777784 1_555
Al12 Al14 2.942249 1_555
Al12 Al13 2.942249 1_555
Al12 Lu1 3.007621 1_545
Al12 Lu0 3.007621 1_545
Al12 Lu5 3.038169 1_545
Al13 Os5 2.551882 1_555
Al13 Os3 2.558021 1_555
Al13 Os1 2.558036 1_555
Al13 Al3 2.737534 1_555
Al13 Al4 2.777784 1_555
Al13 Al6 2.777784 1_555
Al13 Al14 2.942249 1_555
Al13 Lu0 3.007621 1_455
Al13 Lu2 3.007621 1_455
Al13 Lu4 3.038169 1_455
Al14 Os4 2.551884 1_555
Al14 Os2 2.558031 1_555
Al14 Os3 2.558031 1_555
Al14 Al3 2.737529 1_555
Al14 Al5 2.777784 1_555
Al14 Al4 2.777784 1_555
Al14 Lu1 3.007621 1_555
Al14 Lu2 3.007621 1_555
Al14 Lu3 3.038165 1_555
Os0 Zr0 2.669268 1_446
Os1 Zr0 2.788552 1_445
Os2 Zr0 2.788537 1_545
Os3 Zr0 2.788537 1_455
