# generated using pymatgen
data_Ba3Sc3CrO9
_symmetry_space_group_name_H-M   'P 1'
_cell_length_a   8.49494776
_cell_length_b   8.49494791
_cell_length_c   8.49494752
_cell_angle_alpha   39.53746815
_cell_angle_beta   39.53747612
_cell_angle_gamma   39.53747171
_symmetry_Int_Tables_number   1
_chemical_formula_structural   Ba3Sc3CrO9
_chemical_formula_sum   'Ba3 Sc3 Cr1 O9'
_cell_volume   223.63797646
_cell_formula_units_Z   1
loop_
 _symmetry_equiv_pos_site_id
 _symmetry_equiv_pos_as_xyz
  1  'x, y, z'
loop_
 _atom_site_type_symbol
 _atom_site_label
 _atom_site_symmetry_multiplicity
 _atom_site_fract_x
 _atom_site_fract_y
 _atom_site_fract_z
 _atom_site_occupancy
  Ba  Ba0  1  0.00468280  0.00468280  0.00468280  1
  Ba  Ba1  1  0.16097450  0.16097450  0.16097450  1
  Ba  Ba2  1  0.58644517  0.58644517  0.58644517  1
  Sc  Sc0  1  0.42206998  0.42206998  0.42206998  1
  Sc  Sc1  1  0.73934808  0.73934808  0.73934808  1
  Sc  Sc2  1  0.86577466  0.86577466  0.86577466  1
  Cr  Cr0  1  0.30010339  0.30010339  0.30010339  1
  O  O0  1  0.51360954  0.51542919  0.03825364  1
  O  O1  1  0.57568673  0.08823677  0.08708589  1
  O  O2  1  0.08708589  0.57568673  0.08823777  1
  O  O3  1  0.64428194  0.64368136  0.12382537  1
  O  O4  1  0.51542919  0.03825464  0.51360954  1
  O  O5  1  0.03825464  0.51360854  0.51542919  1
  O  O6  1  0.08823677  0.08708489  0.57568873  1
  O  O7  1  0.64368136  0.12382637  0.64428194  1
  O  O8  1  0.12382537  0.64428194  0.64368236  1
loop_
_geom_bond_atom_site_label_1
_geom_bond_atom_site_label_2
_geom_bond_distance
_geom_bond_site_symmetry_2
Ba0 O6 2.667681 1_554
Ba0 O2 2.667687 1_545
Ba0 O1 2.667692 1_455
Ba0 O5 2.899106 1_554
Ba0 O0 2.899109 1_545
Ba0 O4 2.899111 1_455
Ba0 O0 2.909454 1_455
Ba0 O4 2.909455 1_554
Ba0 O5 2.909456 1_545
Ba1 O1 2.648944 1_555
Ba1 O2 2.648949 1_555
Ba1 O6 2.648955 1_555
Ba1 O7 2.925626 1_554
Ba1 O3 2.925628 1_455
Ba1 O8 2.925629 1_545
Ba1 O8 2.929011 1_554
Ba1 O7 2.929014 1_455
Ba1 O3 2.929015 1_545
Ba2 O6 2.870903 1_565
Ba2 O2 2.870903 1_655
Ba2 O1 2.870906 1_556
Ba2 O1 2.877517 1_565
Ba2 O6 2.877520 1_655
Ba2 O2 2.877520 1_556
Ba2 O0 2.969716 1_556
Ba2 O5 2.969719 1_655
Ba2 O4 2.969724 1_565
Ba2 O7 3.219493 1_555
Ba2 O8 3.219495 1_555
Ba2 O3 3.219501 1_555
Cr0 O2 1.996185 1_555
Cr0 O1 1.996191 1_555
Cr0 O6 1.996193 1_555
Cr0 O5 2.049872 1_555
Cr0 O0 2.049875 1_555
Cr0 O4 2.049877 1_555
O0 Sc1 2.099784 1_554
O0 Sc0 2.217345 1_555
O1 Sc2 2.080777 1_544
O2 Sc2 2.080783 1_454
O3 Sc0 2.067415 1_555
O3 Sc2 2.153974 1_554
O3 Sc1 2.197731 1_554
O4 Sc1 2.099782 1_545
O4 Sc0 2.217337 1_555
O5 Sc1 2.099788 1_455
O5 Sc0 2.217341 1_555
O6 Sc2 2.080775 1_445
O7 Sc0 2.067417 1_555
O7 Sc2 2.153971 1_545
O7 Sc1 2.197739 1_545
O8 Sc0 2.067421 1_555
O8 Sc2 2.153968 1_455
O8 Sc1 2.197735 1_455
