# generated using pymatgen
data_KAu2
_symmetry_space_group_name_H-M   'P 1'
_cell_length_a   5.69206615
_cell_length_b   5.69206444
_cell_length_c   9.74263078
_cell_angle_alpha   90.00000000
_cell_angle_beta   90.00000000
_cell_angle_gamma   120.00000990
_symmetry_Int_Tables_number   1
_chemical_formula_structural   KAu2
_chemical_formula_sum   'K4 Au8'
_cell_volume   273.36730985
_cell_formula_units_Z   4
loop_
 _symmetry_equiv_pos_site_id
 _symmetry_equiv_pos_as_xyz
  1  'x, y, z'
loop_
 _atom_site_type_symbol
 _atom_site_label
 _atom_site_symmetry_multiplicity
 _atom_site_fract_x
 _atom_site_fract_y
 _atom_site_fract_z
 _atom_site_occupancy
  K  K0  1  0.33333300  0.66666700  0.56141261  1
  K  K1  1  0.66666700  0.33333300  0.06141261  1
  K  K2  1  0.66666700  0.33333300  0.43858739  1
  K  K3  1  0.33333300  0.66666700  0.93858739  1
  Au  Au0  1  0.33503177  0.16751638  0.75000000  1
  Au  Au1  1  0.66496823  0.83248362  0.25000000  1
  Au  Au2  1  0.16751638  0.83248362  0.25000000  1
  Au  Au3  1  0.83248362  0.66496823  0.75000000  1
  Au  Au4  1  0.83248362  0.16751638  0.75000000  1
  Au  Au5  1  0.16751638  0.33503177  0.25000000  1
  Au  Au6  1  0.00000000  0.00000000  0.50000000  1
  Au  Au7  1  0.00000000  0.00000000  -0.00000000  1
loop_
_geom_bond_atom_site_label_1
_geom_bond_atom_site_label_2
_geom_bond_distance
_geom_bond_site_symmetry_2
Au0 Au3 2.831528 1_555
Au0 Au4 2.831529 1_555
Au0 Au3 2.860536 1_445
Au0 Au4 2.860537 1_455
Au0 Au6 2.942784 1_555
Au0 Au7 2.942784 1_556
Au0 K0 3.387592 1_545
Au0 K3 3.387592 1_545
Au0 K3 3.387592 1_555
Au0 K0 3.387592 1_555
Au0 K2 3.446382 1_555
Au0 K1 3.446382 1_556
Au1 Au5 2.831528 1_555
Au1 Au2 2.831529 1_555
Au1 Au5 2.860536 1_665
Au1 Au2 2.860537 1_655
Au1 Au6 2.942784 1_665
Au1 Au7 2.942784 1_665
Au1 K1 3.387592 1_565
Au1 K2 3.387592 1_565
Au1 K1 3.387592 1_555
Au1 K2 3.387592 1_555
Au1 K3 3.446382 1_554
Au1 K0 3.446382 1_555
Au2 Au5 2.831528 1_555
Au2 Au5 2.860536 1_565
Au2 Au6 2.942787 1_565
Au2 Au7 2.942787 1_565
Au2 K1 3.387592 1_565
Au2 K2 3.387592 1_565
Au2 K1 3.387592 1_455
Au2 K2 3.387592 1_455
Au2 K0 3.446378 1_555
Au2 K3 3.446378 1_554
Au3 Au4 2.831528 1_555
Au3 Au4 2.860536 1_565
Au3 Au7 2.942784 1_666
Au3 Au6 2.942784 1_665
Au3 K3 3.387592 1_655
Au3 K0 3.387592 1_655
Au3 K3 3.387592 1_555
Au3 K0 3.387592 1_555
Au3 K2 3.446382 1_555
Au3 K1 3.446382 1_556
Au4 Au6 2.942787 1_655
Au4 Au7 2.942787 1_656
Au4 K0 3.387592 1_545
Au4 K3 3.387592 1_545
Au4 K0 3.387592 1_655
Au4 K3 3.387592 1_655
Au4 K2 3.446378 1_555
Au4 K1 3.446378 1_556
Au5 Au6 2.942784 1_555
Au5 Au7 2.942784 1_555
Au5 K1 3.387592 1_455
Au5 K2 3.387592 1_455
Au5 K1 3.387592 1_555
Au5 K2 3.387592 1_555
Au5 K3 3.446382 1_554
Au5 K0 3.446382 1_555
Au6 K2 3.340335 1_455
Au6 K0 3.340335 1_545
Au6 K2 3.340339 1_445
Au6 K0 3.340339 1_555
Au6 K0 3.340340 1_445
Au6 K2 3.340340 1_555
Au7 K1 3.340335 1_455
Au7 K3 3.340335 1_544
Au7 K3 3.340339 1_554
Au7 K1 3.340339 1_445
Au7 K1 3.340340 1_555
Au7 K3 3.340340 1_444
