# generated using pymatgen
data_Sr10TcOs3N14
_symmetry_space_group_name_H-M   'P 1'
_cell_length_a   6.37171474
_cell_length_b   9.26222492
_cell_length_c   9.35193816
_cell_angle_alpha   115.45745759
_cell_angle_beta   100.93561293
_cell_angle_gamma   89.36262975
_symmetry_Int_Tables_number   1
_chemical_formula_structural   Sr10TcOs3N14
_chemical_formula_sum   'Sr10 Tc1 Os3 N14'
_cell_volume   487.73266255
_cell_formula_units_Z   1
loop_
 _symmetry_equiv_pos_site_id
 _symmetry_equiv_pos_as_xyz
  1  'x, y, z'
loop_
 _atom_site_type_symbol
 _atom_site_label
 _atom_site_symmetry_multiplicity
 _atom_site_fract_x
 _atom_site_fract_y
 _atom_site_fract_z
 _atom_site_occupancy
  Sr  Sr0  1  0.87975716  0.59796194  0.33880956  1
  Sr  Sr1  1  0.28333095  0.99407953  0.58156464  1
  Sr  Sr2  1  0.68627689  0.40440000  0.84380388  1
  Sr  Sr3  1  0.31282904  0.59161595  0.15391967  1
  Sr  Sr4  1  0.38677604  0.78687000  0.90488912  1
  Sr  Sr5  1  0.60845656  0.21324531  0.09440478  1
  Sr  Sr6  1  0.11952219  0.39959597  0.66340093  1
  Sr  Sr7  1  0.87742834  0.85348578  0.75341297  1
  Sr  Sr8  1  0.12113970  0.15108183  0.24702353  1
  Sr  Sr9  1  0.72225438  0.00968773  0.42437998  1
  Tc  Tc0  1  0.88179906  0.78158749  0.08042937  1
  Os  Os0  1  0.57285396  0.36551758  0.47752754  1
  Os  Os1  1  0.42384085  0.63574595  0.52295309  1
  Os  Os2  1  0.11609874  0.21968599  0.92251968  1
  N  N0  1  0.47837489  0.53488574  0.67329570  1
  N  N1  1  0.52195234  0.46603063  0.32690598  1
  N  N2  1  0.18062742  0.73198937  0.60066357  1
  N  N3  1  0.81691877  0.26986950  0.40061803  1
  N  N4  1  0.43160000  0.20363237  0.50473927  1
  N  N5  1  0.56608262  0.79500551  0.48983248  1
  N  N6  1  0.94054582  0.14032295  0.71664280  1
  N  N7  1  0.05917540  0.86400388  0.27895765  1
  N  N8  1  0.23113256  0.05454722  0.96847372  1
  N  N9  1  0.77530886  0.94061546  0.03190714  1
  N  N10  1  0.35514029  0.31880006  0.90180524  1
  N  N11  1  0.97684660  0.35171185  0.08125407  1
  N  N12  1  0.01985305  0.64942662  0.92542405  1
  N  N13  1  0.65407751  0.67459679  0.09044155  1
loop_
_geom_bond_atom_site_label_1
_geom_bond_atom_site_label_2
_geom_bond_distance
_geom_bond_site_symmetry_2
N0 Os1 1.976576 1_555
N0 Os0 2.025656 1_555
N0 Sr2 2.564741 1_555
N0 Sr4 2.565627 1_555
N0 Sr6 2.586635 1_555
N1 Os0 1.975697 1_555
N1 Os1 2.039264 1_555
N1 Sr3 2.551673 1_555
N1 Sr0 2.559686 1_555
N1 Sr5 2.561821 1_555
N2 Os1 1.887846 1_555
N2 Sr7 2.579912 1_455
N2 Sr1 2.608738 1_555
N2 Sr0 2.621328 1_455
N2 Sr4 2.726166 1_555
N3 Os0 1.888513 1_555
N3 Sr8 2.584869 1_655
N3 Sr9 2.600809 1_555
N3 Sr6 2.629829 1_655
N3 Sr5 2.742482 1_555
N4 Os0 1.888922 1_555
N4 Sr9 2.552438 1_555
N4 Sr1 2.583222 1_545
N4 Sr8 2.676351 1_555
N4 Sr6 2.859017 1_555
N4 Sr2 3.031771 1_555
N5 Os1 1.903239 1_555
N5 Sr1 2.556218 1_555
N5 Sr9 2.576860 1_565
N5 Sr7 2.706618 1_555
N5 Sr0 2.845011 1_555
N5 Sr3 3.012992 1_555
N6 Os2 1.866278 1_655
N6 Sr9 2.573152 1_555
N6 Sr1 2.776864 1_645
N6 Sr2 2.857256 1_555
N6 Sr7 2.863554 1_545
N6 Sr6 2.935922 1_655
N7 Tc0 1.819824 1_455
N7 Sr1 2.659654 1_555
N7 Sr9 2.782908 1_465
N7 Sr8 2.840072 1_565
N7 Sr3 2.904264 1_555
N7 Sr0 3.030408 1_455
N8 Os2 1.866040 1_555
N8 Sr4 2.526972 1_545
N8 Sr8 2.598645 1_556
N8 Sr5 2.616087 1_556
N8 Sr7 2.783164 1_445
N9 Tc0 1.808715 1_555
N9 Sr7 2.585004 1_554
N9 Sr5 2.599140 1_565
N9 Sr4 2.660088 1_554
N9 Sr8 2.782998 1_665
N10 Os2 1.869778 1_555
N10 Sr2 2.493130 1_555
N10 Sr3 2.668532 1_556
N10 Sr5 2.679740 1_556
N10 Sr6 2.814989 1_555
N10 Sr1 3.160951 1_545
N11 Os2 1.844265 1_654
N11 Sr0 2.682824 1_555
N11 Sr5 2.735280 1_555
N11 Sr2 2.819349 1_554
N11 Sr3 2.870188 1_655
N11 Sr8 2.932511 1_655
N12 Tc0 1.818766 1_456
N12 Sr6 2.728653 1_555
N12 Sr4 2.751388 1_555
N12 Sr3 2.790282 1_556
N12 Sr2 2.872857 1_455
N12 Sr7 3.000874 1_455
N13 Tc0 1.805389 1_555
N13 Sr3 2.567108 1_555
N13 Sr2 2.613626 1_554
N13 Sr4 2.717337 1_554
N13 Sr0 2.844999 1_555
