# generated using pymatgen
data_CsCrAs2Pd
_symmetry_space_group_name_H-M   'P 1'
_cell_length_a   8.14912318
_cell_length_b   8.14912209
_cell_length_c   8.14912235
_cell_angle_alpha   151.10434358
_cell_angle_beta   151.10432945
_cell_angle_gamma   41.32273183
_symmetry_Int_Tables_number   1
_chemical_formula_structural   CsCrAs2Pd
_chemical_formula_sum   'Cs1 Cr1 As2 Pd1'
_cell_volume   126.08296036
_cell_formula_units_Z   1
loop_
 _symmetry_equiv_pos_site_id
 _symmetry_equiv_pos_as_xyz
  1  'x, y, z'
loop_
 _atom_site_type_symbol
 _atom_site_label
 _atom_site_symmetry_multiplicity
 _atom_site_fract_x
 _atom_site_fract_y
 _atom_site_fract_z
 _atom_site_occupancy
  Cs  Cs0  1  0.00000000  0.00000000  0.00000000  1
  Cr  Cr0  1  0.25000000  0.75000000  0.50000000  1
  As  As0  1  0.34251819  0.34251819  0.00000000  1
  As  As1  1  0.65748181  0.65748181  1.00000000  1
  Pd  Pd0  1  0.75000000  0.25000000  0.50000000  1
loop_
_geom_bond_atom_site_label_1
_geom_bond_atom_site_label_2
_geom_bond_distance
_geom_bond_site_symmetry_2
Cr0 Pd0 2.875369 1_555
Cr0 Pd0 2.875369 1_465
Cr0 Pd0 2.875369 1_454
Cr0 Pd0 2.875369 1_566
As0 Cr0 2.474775 1_544
As0 Cr0 2.474775 1_555
As0 Pd0 2.474776 1_555
As0 Pd0 2.474776 1_454
As0 Cs0 3.746385 1_565
As0 Cs0 3.746385 1_554
As0 Cs0 3.746385 1_666
As0 Cs0 3.746385 1_655
As1 Pd0 2.474775 1_566
As1 Pd0 2.474775 1_555
As1 Cr0 2.474776 1_555
As1 Cr0 2.474776 1_656
As1 Cs0 3.746385 1_656
As1 Cs0 3.746385 1_667
As1 Cs0 3.746385 1_555
As1 Cs0 3.746385 1_566
