# generated using pymatgen
data_BaLaMgRuO6
_symmetry_space_group_name_H-M   'P 1'
_cell_length_a   5.71398990
_cell_length_b   5.71398990
_cell_length_c   5.71398990
_cell_angle_alpha   120.56928728
_cell_angle_beta   120.56928728
_cell_angle_gamma   89.01676165
_symmetry_Int_Tables_number   1
_chemical_formula_structural   BaLaMgRuO6
_chemical_formula_sum   'Ba1 La1 Mg1 Ru1 O6'
_cell_volume   130.76179987
_cell_formula_units_Z   1
loop_
 _symmetry_equiv_pos_site_id
 _symmetry_equiv_pos_as_xyz
  1  'x, y, z'
loop_
 _atom_site_type_symbol
 _atom_site_label
 _atom_site_symmetry_multiplicity
 _atom_site_fract_x
 _atom_site_fract_y
 _atom_site_fract_z
 _atom_site_occupancy
  Ba  Ba0  1  0.00000000  0.00000000  0.00000000  1
  La  La0  1  0.50000000  0.50000000  0.00000000  1
  Mg  Mg0  1  0.25000000  0.75000000  0.50000000  1
  Ru  Ru0  1  0.75000000  0.25000000  0.50000000  1
  O  O0  1  0.99338100  0.49338100  0.50000000  1
  O  O1  1  0.53573100  0.52227300  0.59277400  1
  O  O2  1  0.05704300  0.46426900  0.98654200  1
  O  O3  1  0.50661900  0.00661900  0.50000000  1
  O  O4  1  0.47772700  0.07050100  0.01345800  1
  O  O5  1  0.92949900  0.94295700  0.40722600  1
loop_
_geom_bond_atom_site_label_1
_geom_bond_atom_site_label_2
_geom_bond_distance
_geom_bond_site_symmetry_2
Ba0 O4 2.722558 1_555
Ba0 O1 2.722558 1_444
Ba0 O2 2.722558 1_554
Ba0 O5 2.722558 1_445
Ba0 O3 2.832890 1_555
Ba0 O0 2.832890 1_455
Ba0 O3 2.832890 1_454
Ba0 O0 2.832890 1_444
Ba0 O2 3.038861 1_544
Ba0 O5 3.038861 1_444
Ba0 O1 3.038861 1_555
Ba0 O4 3.038861 1_455
La0 O5 2.501522 1_555
La0 O1 2.501522 1_554
La0 O4 2.501522 1_555
La0 O2 2.501522 1_554
La0 O3 2.832890 1_554
La0 O0 2.832890 1_454
La0 O3 2.832890 1_565
La0 O0 2.832890 1_555
Mg0 O3 2.091404 1_565
Mg0 O0 2.091404 1_455
Mg0 O5 2.094799 1_455
Mg0 O4 2.094799 1_566
Mg0 O1 2.094799 1_555
Mg0 O2 2.094799 1_554
O0 Ru0 1.983516 1_555
O1 Ru0 1.989051 1_555
O2 Ru0 1.989051 1_455
O3 Ru0 1.983516 1_555
O4 Ru0 1.989051 1_555
O5 Ru0 1.989051 1_565
