# generated using pymatgen
data_Y3Si6(Pd9Pt)2
_symmetry_space_group_name_H-M   'P 1'
_cell_length_a   8.66192305
_cell_length_b   8.66192317
_cell_length_c   8.66192341
_cell_angle_alpha   59.85701033
_cell_angle_beta   59.85701084
_cell_angle_gamma   59.85700934
_symmetry_Int_Tables_number   1
_chemical_formula_structural   Y3Si6(Pd9Pt)2
_chemical_formula_sum   'Y3 Si6 Pd18 Pt2'
_cell_volume   458.05379101
_cell_formula_units_Z   1
loop_
 _symmetry_equiv_pos_site_id
 _symmetry_equiv_pos_as_xyz
  1  'x, y, z'
loop_
 _atom_site_type_symbol
 _atom_site_label
 _atom_site_symmetry_multiplicity
 _atom_site_fract_x
 _atom_site_fract_y
 _atom_site_fract_z
 _atom_site_occupancy
  Y  Y0  1  0.25123606  0.25123606  0.25123606  1
  Y  Y1  1  0.74876394  0.74876394  0.74876394  1
  Y  Y2  1  0.00000000  0.00000000  0.00000000  1
  Si  Si0  1  0.73168124  0.26748074  0.26748074  1
  Si  Si1  1  0.26831876  0.73251926  0.73251926  1
  Si  Si2  1  0.26748074  0.73168124  0.26748074  1
  Si  Si3  1  0.73251926  0.26831876  0.73251926  1
  Si  Si4  1  0.26748074  0.26748074  0.73168124  1
  Si  Si5  1  0.73251926  0.73251926  0.26831876  1
  Pd  Pd0  1  0.38224939  0.38224939  0.84961278  1
  Pd  Pd1  1  0.38224939  0.84961278  0.38224939  1
  Pd  Pd2  1  0.61775061  0.61775061  0.15038722  1
  Pd  Pd3  1  0.61775061  0.15038722  0.61775061  1
  Pd  Pd4  1  0.84961278  0.38224939  0.38224939  1
  Pd  Pd5  1  0.15038722  0.61775061  0.61775061  1
  Pd  Pd6  1  0.34598974  0.99968640  0.99968640  1
  Pd  Pd7  1  0.65401026  0.00031360  0.00031360  1
  Pd  Pd8  1  1.00000000  0.34550033  0.65449967  1
  Pd  Pd9  1  0.00000000  0.65449967  0.34550033  1
  Pd  Pd10  1  0.99968640  0.34598974  0.99968640  1
  Pd  Pd11  1  0.65449967  0.00000000  0.34550033  1
  Pd  Pd12  1  0.00031360  0.65401026  0.00031360  1
  Pd  Pd13  1  0.34550033  1.00000000  0.65449967  1
  Pd  Pd14  1  0.99968640  0.99968640  0.34598974  1
  Pd  Pd15  1  0.00031360  0.00031360  0.65401026  1
  Pd  Pd16  1  0.65449967  0.34550033  1.00000000  1
  Pd  Pd17  1  0.34550033  0.65449967  0.00000000  1
  Pt  Pt0  1  0.38533368  0.38533368  0.38533368  1
  Pt  Pt1  1  0.61466632  0.61466632  0.61466632  1
loop_
_geom_bond_atom_site_label_1
_geom_bond_atom_site_label_2
_geom_bond_distance
_geom_bond_site_symmetry_2
Pd0 Si4 2.460152 1_555
Pd0 Si3 2.472943 1_555
Pd0 Si1 2.472943 1_555
Pd0 Y0 2.835749 1_556
Pd1 Si2 2.460152 1_555
Pd1 Si5 2.472943 1_555
Pd1 Si1 2.472943 1_555
Pd1 Y0 2.835749 1_565
Pd2 Si5 2.460152 1_555
Pd2 Si2 2.472943 1_555
Pd2 Si0 2.472943 1_555
Pd2 Y1 2.835749 1_554
Pd3 Si3 2.460152 1_555
Pd3 Si4 2.472943 1_555
Pd3 Si0 2.472943 1_555
Pd3 Y1 2.835749 1_545
Pd4 Si0 2.460152 1_555
Pd4 Si5 2.472943 1_555
Pd4 Si3 2.472943 1_555
Pd4 Y0 2.835749 1_655
Pd5 Si1 2.460152 1_555
Pd5 Si4 2.472943 1_555
Pd5 Si2 2.472943 1_555
Pd5 Y1 2.835749 1_455
Pd6 Si4 2.413564 1_565
Pd6 Si2 2.413564 1_556
Pd6 Y2 2.994211 1_566
Pd7 Si5 2.413564 1_545
Pd7 Si3 2.413564 1_554
Pd7 Y2 2.994211 1_655
Pd8 Si4 2.408532 1_655
Pd8 Si3 2.408532 1_555
Pd8 Y2 2.986227 1_656
Pd9 Si5 2.408532 1_455
Pd9 Si2 2.408532 1_555
Pd9 Y2 2.986227 1_565
Pd10 Si0 2.413564 1_556
Pd10 Si4 2.413564 1_655
Pd10 Y2 2.994211 1_656
Pd11 Si0 2.408532 1_555
Pd11 Si5 2.408532 1_545
Pd11 Y2 2.986227 1_655
Pd12 Si1 2.413564 1_554
Pd12 Si5 2.413564 1_455
Pd12 Y2 2.994211 1_565
Pd13 Si1 2.408532 1_555
Pd13 Si4 2.408532 1_565
Pd13 Y2 2.986227 1_566
Pd14 Si0 2.413563 1_565
Pd14 Si2 2.413563 1_655
Pd14 Y2 2.994211 1_665
Pd15 Si1 2.413563 1_545
Pd15 Si3 2.413563 1_455
Pd15 Y2 2.994211 1_556
Pd16 Si0 2.408532 1_556
Pd16 Si3 2.408532 1_555
Pd16 Y2 2.986227 1_656
Pd17 Si1 2.408532 1_554
Pd17 Si2 2.408532 1_555
Pd17 Y2 2.986227 1_565
Pt0 Si0 2.445299 1_555
Pt0 Si2 2.445299 1_555
Pt0 Si4 2.445299 1_555
Pt0 Y0 2.848259 1_555
Pt1 Si1 2.445299 1_555
Pt1 Si3 2.445299 1_555
Pt1 Si5 2.445299 1_555
Pt1 Y1 2.848259 1_555
