# generated using pymatgen
data_Sr4Zn5AgAu12
_symmetry_space_group_name_H-M   'P 1'
_cell_length_a   8.79790549
_cell_length_b   8.75905585
_cell_length_c   8.79790515
_cell_angle_alpha   58.13698735
_cell_angle_beta   57.69095241
_cell_angle_gamma   58.13699087
_symmetry_Int_Tables_number   1
_chemical_formula_structural   Sr4Zn5AgAu12
_chemical_formula_sum   'Sr4 Zn5 Ag1 Au12'
_cell_volume   457.25966848
_cell_formula_units_Z   1
loop_
 _symmetry_equiv_pos_site_id
 _symmetry_equiv_pos_as_xyz
  1  'x, y, z'
loop_
 _atom_site_type_symbol
 _atom_site_label
 _atom_site_symmetry_multiplicity
 _atom_site_fract_x
 _atom_site_fract_y
 _atom_site_fract_z
 _atom_site_occupancy
  Sr  Sr0  1  0.90188942  0.90874839  0.90745501  1
  Sr  Sr1  1  0.40713793  0.41264186  0.40000275  1
  Sr  Sr2  1  0.09999725  0.08735814  0.09286207  1
  Sr  Sr3  1  0.59254499  0.59125161  0.59811058  1
  Zn  Zn0  1  0.94094761  0.55711964  0.75178103  1
  Zn  Zn1  1  0.74821897  0.94288036  0.55905239  1
  Zn  Zn2  1  0.43486798  0.25000000  0.06513202  1
  Zn  Zn3  1  0.06479602  0.43493267  0.25350476  1
  Zn  Zn4  1  0.24649524  0.06506733  0.43520398  1
  Ag  Ag0  1  0.57351431  0.75000000  0.92648569  1
  Au  Au0  1  0.48234993  0.85541960  0.21912744  1
  Au  Au1  1  0.20516752  0.47895735  0.86194630  1
  Au  Au2  1  0.86481334  0.20430567  0.47967510  1
  Au  Au3  1  0.71491631  0.34874673  0.98137177  1
  Au  Au4  1  0.97676380  0.70735931  0.36485660  1
  Au  Au5  1  0.35385253  0.98589729  0.70129593  1
  Au  Au6  1  0.51862823  0.15125327  0.78508369  1
  Au  Au7  1  0.79870407  0.51410271  0.14614747  1
  Au  Au8  1  0.13514340  0.79264069  0.52323620  1
  Au  Au9  1  0.28087256  0.64458040  0.01765007  1
  Au  Au10  1  0.02032490  0.29569433  0.63518666  1
  Au  Au11  1  0.63805370  0.02104265  0.29483248  1
loop_
_geom_bond_atom_site_label_1
_geom_bond_atom_site_label_2
_geom_bond_distance
_geom_bond_site_symmetry_2
Ag0 Zn1 2.707560 1_555
Ag0 Zn0 2.707560 1_555
Ag0 Au5 2.735747 1_555
Ag0 Au7 2.735747 1_556
Ag0 Au0 2.765011 1_556
Ag0 Au9 2.765011 1_556
Ag0 Au6 2.892643 1_565
Ag0 Au3 2.892643 1_555
Au0 Zn4 2.595685 1_565
Au0 Zn2 2.844654 1_565
Au0 Au8 2.876710 1_555
Au0 Au7 2.903079 1_555
Au0 Au11 2.918606 1_565
Au0 Sr3 3.217586 1_555
Au0 Sr0 3.318116 1_554
Au0 Sr2 3.327740 1_565
Au1 Zn0 2.615226 1_455
Au1 Zn2 2.664447 1_556
Au1 Au6 2.828446 1_555
Au1 Zn3 2.844935 1_556
Au1 Au8 2.887867 1_555
Au1 Au9 2.918606 1_556
Au1 Au7 3.037581 1_456
Au1 Sr3 3.262332 1_555
Au1 Sr2 3.276107 1_556
Au1 Sr0 3.360953 1_455
Au1 Sr1 3.700672 1_555
Au2 Zn1 2.609429 1_545
Au2 Zn3 2.627146 1_655
Au2 Zn4 2.773475 1_655
Au2 Au7 2.839619 1_555
Au2 Au6 2.853046 1_555
Au2 Au8 3.044066 1_645
Au2 Sr3 3.286305 1_555
Au2 Sr2 3.290515 1_655
Au2 Sr0 3.332701 1_545
Au2 Sr1 3.734122 1_555
Au3 Zn2 2.645328 1_556
Au3 Zn0 2.647938 1_555
Au3 Au7 3.037941 1_556
Au3 Sr2 3.267095 1_656
Au3 Sr3 3.308326 1_555
Au3 Sr1 3.335541 1_556
Au4 Zn1 2.624359 1_555
Au4 Zn3 2.638054 1_655
Au4 Zn0 2.825011 1_555
Au4 Au9 2.876710 1_655
Au4 Au8 2.952032 1_655
Au4 Sr2 3.256946 1_665
Au4 Sr3 3.268467 1_555
Au4 Sr1 3.344468 1_655
Au4 Sr0 3.721817 1_554
Au5 Zn4 2.609926 1_565
Au5 Zn1 2.867458 1_555
Au5 Au9 2.903079 1_556
Au5 Au6 3.037941 1_565
Au5 Sr2 3.249271 1_566
Au5 Sr3 3.285459 1_555
Au5 Sr1 3.358394 1_565
Au5 Sr0 3.659355 1_455
Au6 Zn2 2.645328 1_556
Au6 Zn1 2.647938 1_545
Au6 Sr1 3.267094 1_555
Au6 Sr0 3.308327 1_545
Au6 Sr2 3.335541 1_556
Au7 Zn3 2.609926 1_655
Au7 Zn0 2.867458 1_554
Au7 Sr1 3.249271 1_555
Au7 Sr0 3.285459 1_554
Au7 Sr2 3.358394 1_655
Au7 Sr3 3.659355 1_555
Au8 Zn0 2.624359 1_455
Au8 Zn4 2.638054 1_565
Au8 Zn1 2.825012 1_455
Au8 Sr1 3.256946 1_555
Au8 Sr0 3.268467 1_455
Au8 Sr2 3.344467 1_565
Au8 Sr3 3.721817 1_555
Au9 Zn3 2.595685 1_555
Au9 Zn2 2.844654 1_555
Au9 Sr0 3.217586 1_454
Au9 Sr3 3.318116 1_554
Au9 Sr1 3.327740 1_555
Au10 Zn0 2.609429 1_455
Au10 Zn4 2.627146 1_555
Au10 Zn3 2.773474 1_555
Au10 Au5 2.839619 1_545
Au10 Au3 2.853046 1_455
Au10 Au2 2.949265 1_455
Au10 Au4 3.044066 1_455
Au10 Sr0 3.286305 1_445
Au10 Sr1 3.290515 1_555
Au10 Sr3 3.332702 1_455
Au10 Sr2 3.734122 1_556
Au11 Zn1 2.615226 1_545
Au11 Zn2 2.664447 1_555
Au11 Au3 2.828446 1_554
Au11 Zn4 2.844936 1_555
Au11 Au4 2.887867 1_545
Au11 Au5 3.037581 1_545
Au11 Sr0 3.262332 1_544
Au11 Sr1 3.276107 1_555
Au11 Sr3 3.360953 1_545
Au11 Sr2 3.700672 1_655
