# generated using pymatgen
data_Sb11TeOsRh3
_symmetry_space_group_name_H-M   'P 1'
_cell_length_a   8.06672386
_cell_length_b   8.07571356
_cell_length_c   8.07801506
_cell_angle_alpha   109.40597016
_cell_angle_beta   109.63784591
_cell_angle_gamma   109.34816367
_symmetry_Int_Tables_number   1
_chemical_formula_structural   Sb11TeOsRh3
_chemical_formula_sum   'Sb11 Te1 Os1 Rh3'
_cell_volume   405.20489970
_cell_formula_units_Z   1
loop_
 _symmetry_equiv_pos_site_id
 _symmetry_equiv_pos_as_xyz
  1  'x, y, z'
loop_
 _atom_site_type_symbol
 _atom_site_label
 _atom_site_symmetry_multiplicity
 _atom_site_fract_x
 _atom_site_fract_y
 _atom_site_fract_z
 _atom_site_occupancy
  Sb  Sb0  1  0.84331719  0.18123144  0.33650944  1
  Sb  Sb1  1  0.83958898  0.49882794  0.66027599  1
  Sb  Sb2  1  0.15383751  0.48499749  0.33175096  1
  Sb  Sb3  1  0.81356500  0.66019667  0.15462651  1
  Sb  Sb4  1  0.18804201  0.34369545  0.84600230  1
  Sb  Sb5  1  0.50897485  0.66354310  0.84733789  1
  Sb  Sb6  1  0.49373135  0.33940773  0.15401479  1
  Sb  Sb7  1  0.66296197  0.15561684  0.81744100  1
  Sb  Sb8  1  0.33987720  0.84861770  0.18565999  1
  Sb  Sb9  1  0.65910951  0.84781269  0.50529476  1
  Sb  Sb10  1  0.34159968  0.15669171  0.49535955  1
  Te  Te0  1  0.15357783  0.81343121  0.66258126  1
  Os  Os0  1  0.49815833  0.99982648  0.99877808  1
  Rh  Rh0  1  0.00080529  0.00099706  0.50167806  1
  Rh  Rh1  1  0.00191873  0.50244686  0.00220473  1
  Rh  Rh2  1  0.50093456  0.50266065  0.50048571  1
loop_
_geom_bond_atom_site_label_1
_geom_bond_atom_site_label_2
_geom_bond_distance
_geom_bond_site_symmetry_2
Sb0 Sb2 2.889548 1_655
Sb0 Sb1 3.010956 1_555
Sb1 Te0 2.922922 1_655
Sb2 Te0 3.077997 1_555
Sb3 Sb5 2.861576 1_554
Sb3 Sb6 2.986944 1_555
Sb4 Sb6 2.874469 1_556
Sb4 Sb5 2.984298 1_555
Sb7 Sb9 2.875583 1_545
Sb8 Sb9 2.975123 1_555
Sb10 Sb8 2.875130 1_545
Sb10 Sb7 2.997673 1_555
Os0 Te0 2.608597 1_555
Os0 Sb0 2.622435 1_566
Os0 Sb8 2.624470 1_556
Os0 Sb5 2.626862 1_555
Os0 Sb6 2.627566 1_566
Os0 Sb7 2.630844 1_565
Rh0 Sb0 2.624712 1_455
Rh0 Sb9 2.635810 1_445
Rh0 Sb4 2.639733 1_555
Rh0 Te0 2.640292 1_545
Rh0 Sb3 2.643411 1_445
Rh0 Sb10 2.643413 1_555
Rh1 Sb2 2.603704 1_555
Rh1 Sb1 2.614327 1_454
Rh1 Sb8 2.631552 1_555
Rh1 Sb3 2.635373 1_455
Rh1 Sb7 2.636920 1_454
Rh1 Sb4 2.638902 1_554
Rh2 Sb2 2.599774 1_555
Rh2 Sb1 2.615805 1_555
Rh2 Sb9 2.633818 1_555
Rh2 Sb5 2.635471 1_555
Rh2 Sb6 2.638694 1_555
Rh2 Sb10 2.639641 1_555
