# generated using pymatgen
data_SrS4(IO8)2
_symmetry_space_group_name_H-M   'P 1'
_cell_length_a   6.57209772
_cell_length_b   6.57209679
_cell_length_c   9.08280757
_cell_angle_alpha   75.87615968
_cell_angle_beta   75.87616551
_cell_angle_gamma   90.39741488
_symmetry_Int_Tables_number   1
_chemical_formula_structural   SrS4(IO8)2
_chemical_formula_sum   'Sr1 S4 I2 O16'
_cell_volume   368.02578583
_cell_formula_units_Z   1
loop_
 _symmetry_equiv_pos_site_id
 _symmetry_equiv_pos_as_xyz
  1  'x, y, z'
loop_
 _atom_site_type_symbol
 _atom_site_label
 _atom_site_symmetry_multiplicity
 _atom_site_fract_x
 _atom_site_fract_y
 _atom_site_fract_z
 _atom_site_occupancy
  Sr  Sr0  1  0.00000000  0.00000000  0.00000000  1
  S  S0  1  0.08329029  0.58381199  0.74565546  1
  S  S1  1  0.58381199  0.08329029  0.74565546  1
  S  S2  1  0.91670971  0.41618801  0.25434454  1
  S  S3  1  0.41618801  0.91670971  0.25434454  1
  I  I0  1  0.00000000  0.00000000  0.50000000  1
  I  I1  1  0.50000000  0.50000000  0.50000000  1
  O  O0  1  0.32058859  0.63663458  0.67724488  1
  O  O1  1  0.63663458  0.32058859  0.67724488  1
  O  O2  1  0.67941141  0.36336542  0.32275512  1
  O  O3  1  0.36336542  0.67941141  0.32275512  1
  O  O4  1  0.01792432  0.69778761  0.86287913  1
  O  O5  1  0.69778761  0.01792432  0.86287913  1
  O  O6  1  0.98207568  0.30221239  0.13712087  1
  O  O7  1  0.30221239  0.98207568  0.13712087  1
  O  O8  1  0.98639983  0.66885011  0.60654326  1
  O  O9  1  0.66885011  0.98639983  0.60654326  1
  O  O10  1  0.01360017  0.33114989  0.39345674  1
  O  O11  1  0.33114989  0.01360017  0.39345674  1
  O  O12  1  0.03609620  0.36068796  0.79298139  1
  O  O13  1  0.36068796  0.03609620  0.79298139  1
  O  O14  1  0.96390380  0.63931204  0.20701861  1
  O  O15  1  0.63931204  0.96390380  0.20701861  1
loop_
_geom_bond_atom_site_label_1
_geom_bond_atom_site_label_2
_geom_bond_distance
_geom_bond_site_symmetry_2
I0 O10 2.146671 1_555
I0 O8 2.146671 1_445
I0 O11 2.146671 1_555
I0 O9 2.146671 1_445
I1 O1 2.140603 1_555
I1 O3 2.140603 1_555
I1 O0 2.140603 1_555
I1 O2 2.140603 1_555
O0 S0 1.533976 1_555
O1 S1 1.533976 1_555
O2 S2 1.533976 1_555
O3 S3 1.533976 1_555
O4 S0 1.431689 1_555
O4 Sr0 2.578518 1_566
O5 S1 1.431689 1_555
O5 Sr0 2.578518 1_656
O6 S2 1.431689 1_555
O6 Sr0 2.578518 1_655
O7 S3 1.431689 1_555
O7 Sr0 2.578518 1_565
O8 S0 1.538604 1_655
O9 S1 1.538604 1_565
O10 S2 1.538604 1_455
O11 S3 1.538604 1_545
O12 S0 1.432578 1_555
O12 Sr0 2.609638 1_556
O13 S1 1.432578 1_555
O13 Sr0 2.609639 1_556
O14 S2 1.432578 1_555
O14 Sr0 2.609638 1_665
O15 S3 1.432578 1_555
O15 Sr0 2.609639 1_665
