# generated using pymatgen
data_Na4TlAu
_symmetry_space_group_name_H-M   'P 1'
_cell_length_a   12.92631198
_cell_length_b   12.21714907
_cell_length_c   5.75867636
_cell_angle_alpha   83.74468676
_cell_angle_beta   69.96958095
_cell_angle_gamma   26.28573229
_symmetry_Int_Tables_number   1
_chemical_formula_structural   Na4TlAu
_chemical_formula_sum   'Na8 Tl2 Au2'
_cell_volume   332.71298088
_cell_formula_units_Z   2
loop_
 _symmetry_equiv_pos_site_id
 _symmetry_equiv_pos_as_xyz
  1  'x, y, z'
loop_
 _atom_site_type_symbol
 _atom_site_label
 _atom_site_symmetry_multiplicity
 _atom_site_fract_x
 _atom_site_fract_y
 _atom_site_fract_z
 _atom_site_occupancy
  Na  Na0  1  0.20549200  0.20549200  0.79450800  1
  Na  Na1  1  0.66377900  0.33622100  0.66377900  1
  Na  Na2  1  0.47070000  0.80463700  0.19536300  1
  Na  Na3  1  0.52930000  0.19536300  0.80463700  1
  Na  Na4  1  0.19536300  0.52930000  0.47070000  1
  Na  Na5  1  0.80463700  0.47070000  0.52930000  1
  Na  Na6  1  0.79450800  0.79450800  0.20549200  1
  Na  Na7  1  0.33622100  0.66377900  0.33622100  1
  Tl  Tl0  1  0.06629600  0.06629600  0.93370400  1
  Tl  Tl1  1  0.93370400  0.93370400  0.06629600  1
  Au  Au0  1  0.25000000  0.25000000  0.25000000  1
  Au  Au1  1  0.75000000  0.75000000  0.75000000  1
loop_
_geom_bond_atom_site_label_1
_geom_bond_atom_site_label_2
_geom_bond_distance
_geom_bond_site_symmetry_2
Na0 Tl0 3.312665 1_555
Na1 Na7 3.270850 1_645
Na1 Na7 3.270850 1_556
Na1 Na3 3.276471 1_555
Na1 Na5 3.276471 1_555
Na1 Na7 3.307952 1_555
Na1 Tl0 3.590362 1_565
Na1 Tl1 3.590362 1_545
Na1 Tl0 3.590362 1_654
Na1 Tl1 3.590362 1_456
Na1 Tl0 3.744101 1_655
Na1 Tl1 3.744101 1_546
Na2 Na7 3.276471 1_555
Na2 Tl0 3.659797 1_565
Na2 Tl0 3.659797 1_654
Na2 Tl0 3.767814 1_564
Na3 Tl1 3.659797 1_456
Na3 Tl1 3.659797 1_545
Na3 Tl1 3.767814 1_546
Na4 Na7 3.276471 1_555
Na4 Tl1 3.659797 1_456
Na4 Tl1 3.659797 1_545
Na4 Tl1 3.767814 1_455
Na5 Tl0 3.659797 1_565
Na5 Tl0 3.659797 1_654
Na5 Tl0 3.767814 1_655
Na6 Tl1 3.312665 1_555
Na7 Tl0 3.590362 1_654
Na7 Tl0 3.590362 1_565
Na7 Tl1 3.590362 1_456
Na7 Tl1 3.590362 1_545
Na7 Tl1 3.744101 1_455
Na7 Tl0 3.744101 1_564
Tl0 Tl1 3.155500 1_446
Au0 Au1 2.768713 1_455
Au0 Au1 2.768713 1_544
Au0 Na6 3.067988 1_455
Au0 Na6 3.067988 1_545
Au0 Na0 3.067988 1_555
Au0 Na0 3.067988 1_554
Au0 Na5 3.125100 1_455
Au0 Na2 3.125100 1_545
Au0 Na3 3.125100 1_554
Au0 Na4 3.125100 1_555
Au1 Na0 3.067988 1_565
Au1 Na0 3.067988 1_655
Au1 Na6 3.067988 1_556
Au1 Na6 3.067988 1_555
Au1 Na2 3.125100 1_556
Au1 Na4 3.125100 1_655
Au1 Na5 3.125100 1_555
Au1 Na3 3.125100 1_565
