# generated using pymatgen
data_Zr6Te2CBr10
_symmetry_space_group_name_H-M   'P 1'
_cell_length_a   8.62532145
_cell_length_b   8.62065225
_cell_length_c   8.61548722
_cell_angle_alpha   106.83180175
_cell_angle_beta   107.66957516
_cell_angle_gamma   106.51684251
_symmetry_Int_Tables_number   1
_chemical_formula_structural   Zr6Te2CBr10
_chemical_formula_sum   'Zr6 Te2 C1 Br10'
_cell_volume   533.37490795
_cell_formula_units_Z   1
loop_
 _symmetry_equiv_pos_site_id
 _symmetry_equiv_pos_as_xyz
  1  'x, y, z'
loop_
 _atom_site_type_symbol
 _atom_site_label
 _atom_site_symmetry_multiplicity
 _atom_site_fract_x
 _atom_site_fract_y
 _atom_site_fract_z
 _atom_site_occupancy
  Zr  Zr0  1  0.96869374  0.70927608  0.90260775  1
  Zr  Zr1  1  0.29244682  0.09713463  0.03302401  1
  Zr  Zr2  1  0.09435020  0.02856921  0.28528183  1
  Zr  Zr3  1  0.90396268  0.97860486  0.71044582  1
  Zr  Zr4  1  0.71127499  0.90867523  0.97101577  1
  Zr  Zr5  1  0.02220088  0.28895992  0.09339216  1
  Te  Te0  1  0.92077402  0.31807229  0.75942820  1
  Te  Te1  1  0.68199986  0.23465090  0.08914356  1
  C  C0  1  0.99855860  0.00229307  0.99630840  1
  Br  Br0  1  0.43889561  0.13378219  0.36919834  1
  Br  Br1  1  0.86057171  0.63942633  0.55687004  1
  Br  Br2  1  0.22392363  0.06673381  0.68762328  1
  Br  Br3  1  0.63299182  0.55960907  0.85936133  1
  Br  Br4  1  0.36814779  0.44278871  0.15172340  1
  Br  Br5  1  0.77820176  0.90896733  0.30621096  1
  Br  Br6  1  0.15497805  0.36591387  0.44931254  1
  Br  Br7  1  0.55400428  0.84437078  0.62555792  1
  Br  Br8  1  0.30898327  0.77542501  0.92502625  1
  Br  Br9  1  0.08504028  0.69674571  0.22847043  1
loop_
_geom_bond_atom_site_label_1
_geom_bond_atom_site_label_2
_geom_bond_distance
_geom_bond_site_symmetry_2
Te0 Zr3 2.787379 1_545
Te0 Zr5 2.849903 1_656
Te0 Zr0 3.091036 1_555
Te1 Zr4 2.810608 1_544
Te1 Zr5 2.823941 1_655
Te1 Zr1 3.057104 1_555
C0 Zr3 2.273141 1_545
C0 Zr2 2.291413 1_656
C0 Zr5 2.293719 1_656
C0 Zr4 2.296119 1_545
C0 Zr1 2.319308 1_656
C0 Zr0 2.328425 1_545
Br0 Zr2 2.638251 1_555
Br0 Zr1 2.665755 1_555
Br1 Zr0 2.657176 1_555
Br1 Zr3 2.697562 1_555
Br2 Zr3 2.730555 1_445
Br2 Zr1 2.768746 1_556
Br2 Zr2 3.186175 1_555
Br3 Zr0 2.670227 1_555
Br3 Zr4 2.685226 1_555
Br4 Zr1 2.659845 1_555
Br4 Zr5 2.714519 1_555
Br5 Zr2 2.709055 1_665
Br5 Zr4 2.766947 1_554
Br5 Zr3 3.129173 1_555
Br6 Zr2 2.652250 1_555
Br6 Zr5 2.722631 1_555
Br7 Zr3 2.677497 1_555
Br7 Zr4 2.678011 1_555
Br8 Zr1 2.718199 1_566
Br8 Zr0 2.760024 1_455
Br8 Zr4 3.186243 1_555
Br9 Zr0 2.725356 1_454
Br9 Zr2 2.731917 1_565
Br9 Zr5 3.189118 1_555
