# generated using pymatgen
data_V3Te6AsO22
_symmetry_space_group_name_H-M   'P 1'
_cell_length_a   6.63644240
_cell_length_b   7.63701535
_cell_length_c   10.50819717
_cell_angle_alpha   69.76759636
_cell_angle_beta   90.50204043
_cell_angle_gamma   78.30491843
_symmetry_Int_Tables_number   1
_chemical_formula_structural   V3Te6AsO22
_chemical_formula_sum   'V3 Te6 As1 O22'
_cell_volume   487.54131485
_cell_formula_units_Z   1
loop_
 _symmetry_equiv_pos_site_id
 _symmetry_equiv_pos_as_xyz
  1  'x, y, z'
loop_
 _atom_site_type_symbol
 _atom_site_label
 _atom_site_symmetry_multiplicity
 _atom_site_fract_x
 _atom_site_fract_y
 _atom_site_fract_z
 _atom_site_occupancy
  V  V0  1  0.30352247  0.29683114  0.11071558  1
  V  V1  1  0.69186592  0.70328658  0.89085811  1
  V  V2  1  0.19735242  0.72046613  0.39184172  1
  Te  Te0  1  0.69161909  0.77890840  0.47910174  1
  Te  Te1  1  0.31534369  0.22174743  0.51962440  1
  Te  Te2  1  0.79910363  0.34300216  0.20853162  1
  Te  Te3  1  0.19706926  0.65954689  0.79307934  1
  Te  Te4  1  0.76239141  0.94603981  0.16210698  1
  Te  Te5  1  0.23151803  0.05320157  0.83751203  1
  As  As0  1  0.81233554  0.28148000  0.60398129  1
  O  O0  1  0.19237637  0.41658065  0.94224379  1
  O  O1  1  0.80263386  0.58402655  0.06069701  1
  O  O2  1  0.73686358  0.03069104  0.31663841  1
  O  O3  1  0.25436640  0.96164366  0.68694332  1
  O  O4  1  0.47156788  0.41145388  0.15093242  1
  O  O5  1  0.52419238  0.58821192  0.85098819  1
  O  O6  1  0.70819718  0.71117900  0.32063296  1
  O  O7  1  0.30050786  0.28203972  0.68035787  1
  O  O8  1  0.07492765  0.84340570  0.23203119  1
  O  O9  1  0.91819631  0.16378960  0.76678154  1
  O  O10  1  0.01249288  0.70328330  0.50562442  1
  O  O11  1  0.99644387  0.30170313  0.48949749  1
  O  O12  1  0.81943518  0.21378930  0.08237258  1
  O  O13  1  0.17462127  0.78525807  0.92155651  1
  O  O14  1  0.43880746  0.07563205  0.12242006  1
  O  O15  1  0.55495310  0.92393929  0.87837961  1
  O  O16  1  0.36810153  0.83655896  0.43417574  1
  O  O17  1  0.64792090  0.16734333  0.55673694  1
  O  O18  1  0.11377310  0.28227089  0.22590467  1
  O  O19  1  0.88126454  0.71941215  0.77601060  1
  O  O20  1  0.32315124  0.48867764  0.40966541  1
  O  O21  1  0.68308400  0.50459907  0.59205248  1
loop_
_geom_bond_atom_site_label_1
_geom_bond_atom_site_label_2
_geom_bond_distance
_geom_bond_site_symmetry_2
As0 O17 1.694762 1_555
As0 O9 1.699256 1_555
As0 O21 1.706696 1_555
As0 O11 1.713975 1_555
O0 V0 1.760215 1_556
O0 Te3 1.978259 1_555
O1 V1 1.770981 1_554
O1 Te2 1.960196 1_555
O2 Te4 1.941658 1_545
O2 Te0 2.162090 1_545
O2 Te2 2.384011 1_555
O3 Te5 1.934349 1_565
O3 Te1 2.263547 1_565
O3 Te3 2.301008 1_555
O4 V0 1.682851 1_555
O4 Te2 2.159144 1_555
O5 V1 1.681975 1_555
O5 Te3 2.155951 1_555
O6 Te0 1.904863 1_555
O6 Te4 2.080115 1_555
O7 Te1 1.896561 1_555
O7 Te5 2.081462 1_555
O8 V2 1.714070 1_555
O8 Te4 2.090966 1_455
O9 Te5 2.101468 1_655
O10 V2 1.712984 1_555
O10 Te0 2.079786 1_455
O11 Te1 2.069471 1_655
O12 Te2 1.898278 1_555
O12 Te4 2.039841 1_545
O13 Te3 1.899632 1_555
O13 Te5 2.044252 1_565
O14 V0 1.707167 1_555
O14 Te4 2.145264 1_545
O15 V1 1.704928 1_555
O15 Te5 2.144253 1_565
O16 V2 1.714435 1_555
O16 Te0 2.116979 1_555
O17 Te1 2.167305 1_555
O18 V0 1.747463 1_555
O18 Te2 2.037517 1_455
O19 V1 1.743000 1_555
O19 Te3 2.044968 1_655
O20 V2 1.741951 1_555
O20 Te1 1.976908 1_555
O21 Te0 2.032262 1_555
