# generated using pymatgen
data_Sc2ReH6
_symmetry_space_group_name_H-M   'P 1'
_cell_length_a   4.78060050
_cell_length_b   4.78060046
_cell_length_c   4.78060111
_cell_angle_alpha   119.99999763
_cell_angle_beta   119.99999739
_cell_angle_gamma   89.99999961
_symmetry_Int_Tables_number   1
_chemical_formula_structural   Sc2ReH6
_chemical_formula_sum   'Sc2 Re1 H6'
_cell_volume   77.25604044
_cell_formula_units_Z   1
loop_
 _symmetry_equiv_pos_site_id
 _symmetry_equiv_pos_as_xyz
  1  'x, y, z'
loop_
 _atom_site_type_symbol
 _atom_site_label
 _atom_site_symmetry_multiplicity
 _atom_site_fract_x
 _atom_site_fract_y
 _atom_site_fract_z
 _atom_site_occupancy
  Sc  Sc0  1  0.74999800  0.24999900  0.49999900  1
  Sc  Sc1  1  0.24999900  0.74999800  0.49999900  1
  Re  Re0  1  0.00000000  0.00000000  0.00000000  1
  H  H0  1  0.25887155  0.25887155  0.00000000  1
  H  H1  1  0.74112645  0.25887355  0.00000000  1
  H  H2  1  0.25887355  0.74112645  0.00000000  1
  H  H3  1  0.74112645  0.74112645  0.00000000  1
  H  H4  1  0.74112845  0.74112845  0.48225390  1
  H  H5  1  0.25887155  0.25887155  0.51774310  1
loop_
_geom_bond_atom_site_label_1
_geom_bond_atom_site_label_2
_geom_bond_distance
_geom_bond_site_symmetry_2
H0 Re0 1.750176 1_555
H0 Sc1 2.391048 1_555
H0 Sc0 2.391048 1_555
H0 Sc1 2.391058 1_544
H0 Sc0 2.391058 1_454
H1 Re0 1.750190 1_655
H1 Sc1 2.391046 1_655
H1 Sc0 2.391051 1_554
H1 Sc0 2.391056 1_555
H1 Sc1 2.391060 1_544
H2 Re0 1.750190 1_565
H2 Sc0 2.391046 1_565
H2 Sc1 2.391051 1_554
H2 Sc1 2.391056 1_555
H2 Sc0 2.391060 1_454
H3 Re0 1.750190 1_665
H3 Sc0 2.391053 1_565
H3 Sc0 2.391053 1_554
H3 Sc1 2.391053 1_655
H3 Sc1 2.391053 1_554
H4 Re0 1.750187 1_666
H4 Sc0 2.391043 1_565
H4 Sc1 2.391043 1_655
H4 Sc0 2.391062 1_555
H4 Sc1 2.391062 1_555
H5 Re0 1.750177 1_555
H5 Sc1 2.391046 1_555
H5 Sc0 2.391046 1_555
H5 Sc1 2.391060 1_545
H5 Sc0 2.391060 1_455
