# generated using pymatgen
data_PdRh3(Pb2O7)2
_symmetry_space_group_name_H-M   'P 1'
_cell_length_a   7.23268925
_cell_length_b   7.20390184
_cell_length_c   7.23268915
_cell_angle_alpha   59.86772714
_cell_angle_beta   60.00000480
_cell_angle_gamma   59.86772806
_symmetry_Int_Tables_number   1
_chemical_formula_structural   PdRh3(Pb2O7)2
_chemical_formula_sum   'Pd1 Rh3 Pb4 O14'
_cell_volume   265.93850786
_cell_formula_units_Z   1
loop_
 _symmetry_equiv_pos_site_id
 _symmetry_equiv_pos_as_xyz
  1  'x, y, z'
loop_
 _atom_site_type_symbol
 _atom_site_label
 _atom_site_symmetry_multiplicity
 _atom_site_fract_x
 _atom_site_fract_y
 _atom_site_fract_z
 _atom_site_occupancy
  Pd  Pd0  1  0.62500000  0.12500000  0.62500000  1
  Rh  Rh0  1  0.12500000  0.62500000  0.62500000  1
  Rh  Rh1  1  0.62500000  0.62500000  0.12500000  1
  Rh  Rh2  1  0.62500000  0.62500000  0.62500000  1
  Pb  Pb0  1  0.62500000  0.12500000  0.12500000  1
  Pb  Pb1  1  0.12500000  0.62500000  0.12500000  1
  Pb  Pb2  1  0.12500000  0.12500000  0.62500000  1
  Pb  Pb3  1  0.12500000  0.12500000  0.12500000  1
  O  O0  1  0.70712262  0.70863092  0.29212373  1
  O  O1  1  0.29047799  0.29352374  0.70799913  1
  O  O2  1  0.70799913  0.29352374  0.70799913  1
  O  O3  1  0.29212373  0.70863092  0.29212373  1
  O  O4  1  0.29212373  0.70863092  0.70712262  1
  O  O5  1  0.70799913  0.29352374  0.29047799  1
  O  O6  1  0.54287738  0.54136908  0.95787627  1
  O  O7  1  0.95952201  0.95647626  0.54200087  1
  O  O8  1  0.54200087  0.95647626  0.54200087  1
  O  O9  1  0.95787627  0.54136908  0.95787627  1
  O  O10  1  0.95787627  0.54136908  0.54287738  1
  O  O11  1  0.54200087  0.95647626  0.95952201  1
  O  O12  1  0.25184692  0.24445925  0.25184692  1
  O  O13  1  0.99815308  0.00554075  0.99815308  1
loop_
_geom_bond_atom_site_label_1
_geom_bond_atom_site_label_2
_geom_bond_distance
_geom_bond_site_symmetry_2
O0 Rh2 1.996299 1_555
O0 Rh1 1.996306 1_555
O0 Pb0 2.469797 1_565
O0 Pb1 2.491684 1_655
O1 Rh0 1.976069 1_555
O1 Pd0 2.004589 1_555
O1 Pb2 2.485092 1_555
O1 Pb3 2.485092 1_556
O2 Rh2 1.976069 1_555
O2 Pd0 2.004588 1_555
O2 Pb0 2.485092 1_556
O2 Pb2 2.485092 1_655
O3 Rh0 1.996300 1_555
O3 Rh1 1.996300 1_555
O3 Pb3 2.469798 1_565
O3 Pb1 2.491690 1_555
O4 Rh2 1.996299 1_555
O4 Rh0 1.996306 1_555
O4 Pb2 2.469797 1_565
O4 Pb1 2.491684 1_556
O5 Rh1 1.976069 1_555
O5 Pd0 2.004588 1_555
O5 Pb0 2.485092 1_555
O5 Pb3 2.485092 1_655
O6 Rh2 1.996299 1_555
O6 Rh1 1.996306 1_556
O6 Pb0 2.469797 1_556
O6 Pb1 2.491684 1_556
O7 Rh0 1.976069 1_655
O7 Pd0 2.004589 1_565
O7 Pb2 2.485092 1_665
O7 Pb3 2.485092 1_665
O8 Rh2 1.976069 1_555
O8 Pd0 2.004588 1_565
O8 Pb0 2.485092 1_565
O8 Pb2 2.485092 1_565
O9 Rh0 1.996300 1_655
O9 Rh1 1.996300 1_556
O9 Pb3 2.469798 1_656
O9 Pb1 2.491690 1_656
O10 Rh2 1.996299 1_555
O10 Rh0 1.996306 1_655
O10 Pb2 2.469797 1_655
O10 Pb1 2.491684 1_655
O11 Rh1 1.976069 1_556
O11 Pd0 2.004588 1_565
O11 Pb0 2.485092 1_566
O11 Pb3 2.485092 1_566
O12 Pb3 2.202513 1_555
O12 Pb2 2.202513 1_555
O12 Pb0 2.202513 1_555
O12 Pb1 2.233840 1_555
O13 Pb3 2.202513 1_656
O13 Pb2 2.202513 1_655
O13 Pb0 2.202513 1_556
O13 Pb1 2.233840 1_646
