# generated using pymatgen
data_MoOsCl10
_symmetry_space_group_name_H-M   'P 1'
_cell_length_a   12.55762472
_cell_length_b   12.55914070
_cell_length_c   6.21922098
_cell_angle_alpha   85.63457262
_cell_angle_beta   85.68758940
_cell_angle_gamma   90.26594469
_symmetry_Int_Tables_number   1
_chemical_formula_structural   MoOsCl10
_chemical_formula_sum   'Mo3 Os3 Cl30'
_cell_volume   975.18440389
_cell_formula_units_Z   3
loop_
 _symmetry_equiv_pos_site_id
 _symmetry_equiv_pos_as_xyz
  1  'x, y, z'
loop_
 _atom_site_type_symbol
 _atom_site_label
 _atom_site_symmetry_multiplicity
 _atom_site_fract_x
 _atom_site_fract_y
 _atom_site_fract_z
 _atom_site_occupancy
  Mo  Mo0  1  0.10781602  0.89102132  0.00058923  1
  Mo  Mo1  1  0.44163308  0.22474765  0.56620979  1
  Mo  Mo2  1  0.55844482  0.77557215  0.43317091  1
  Os  Os0  1  0.89625665  0.10382556  0.00013232  1
  Os  Os1  1  0.77045947  0.56310339  0.43318605  1
  Os  Os2  1  0.22976073  0.43708671  0.56678877  1
  Cl  Cl0  1  0.50577930  0.31826421  0.82471269  1
  Cl  Cl1  1  0.25840052  0.26304688  0.75302384  1
  Cl  Cl2  1  0.16811988  0.98265623  0.68817872  1
  Cl  Cl3  1  0.59670624  0.59263145  0.62011376  1
  Cl  Cl4  1  0.22127099  0.59566452  0.37570607  1
  Cl  Cl5  1  0.74126605  0.73705004  0.24610225  1
  Cl  Cl6  1  0.15361308  0.35174336  0.30561213  1
  Cl  Cl7  1  0.07263137  0.07727199  0.13300892  1
  Cl  Cl8  1  0.65396175  0.83985314  0.68886318  1
  Cl  Cl9  1  0.59986839  0.21306964  0.37572599  1
  Cl  Cl10  1  0.11621637  0.72986121  0.86582872  1
  Cl  Cl11  1  0.01797874  0.83222711  0.31449305  1
  Cl  Cl12  1  0.92882055  0.55325023  0.24267768  1
  Cl  Cl13  1  0.82481570  0.02131460  0.31821663  1
  Cl  Cl14  1  0.39963206  0.78653311  0.62352877  1
  Cl  Cl15  1  0.78025447  0.40496467  0.62382730  1
  Cl  Cl16  1  0.54849912  0.93442582  0.24214140  1
  Cl  Cl17  1  0.97753563  0.17524187  0.68207077  1
  Cl  Cl18  1  0.84687360  0.64943258  0.69325078  1
  Cl  Cl19  1  0.88760736  0.26422053  0.13514638  1
  Cl  Cl20  1  0.49387642  0.68064042  0.17709518  1
  Cl  Cl21  1  0.34565608  0.15994081  0.31088751  1
  Cl  Cl22  1  0.07181170  0.44838300  0.75612910  1
  Cl  Cl23  1  0.73530985  0.11086981  0.86418583  1
  Cl  Cl24  1  0.45106253  0.06509790  0.75711229  1
  Cl  Cl25  1  0.40412303  0.40700743  0.38015408  1
  Cl  Cl26  1  0.31660000  0.51197607  0.82808809  1
  Cl  Cl27  1  0.26992117  0.88377594  0.13486625  1
  Cl  Cl28  1  0.92293006  0.92669685  0.86748628  1
  Cl  Cl29  1  0.68448822  0.48752979  0.17169028  1
loop_
_geom_bond_atom_site_label_1
_geom_bond_atom_site_label_2
_geom_bond_distance
_geom_bond_site_symmetry_2
Cl0 Mo1 2.255299 1_555
Cl1 Os2 2.435791 1_555
Cl1 Mo1 2.563003 1_555
Cl2 Mo0 2.259030 1_556
Cl3 Os1 2.437522 1_555
Cl3 Mo2 2.559111 1_555
Cl4 Os2 2.247402 1_555
Cl5 Os1 2.438310 1_555
Cl5 Mo2 2.559810 1_555
Cl6 Os2 2.278319 1_555
Cl7 Os0 2.437180 1_455
Cl7 Mo0 2.567723 1_545
Cl8 Mo2 2.256664 1_555
Cl9 Mo1 2.246882 1_555
Cl10 Mo0 2.248819 1_556
Cl11 Mo0 2.251838 1_555
Cl12 Os1 2.245895 1_555
Cl13 Os0 2.281337 1_555
Cl14 Mo2 2.251684 1_555
Cl15 Os1 2.243018 1_555
Cl16 Mo2 2.251922 1_555
Cl17 Os0 2.275276 1_556
Cl18 Os1 2.281013 1_555
Cl19 Os0 2.240665 1_555
Cl20 Mo2 2.256005 1_555
Cl21 Mo1 2.260969 1_555
Cl22 Os2 2.240016 1_555
Cl23 Os0 2.248290 1_556
Cl24 Mo1 2.259390 1_555
Cl25 Os2 2.444678 1_555
Cl25 Mo1 2.547392 1_555
Cl26 Os2 2.281307 1_555
Cl27 Mo0 2.257293 1_555
Cl28 Os0 2.446684 1_566
Cl28 Mo0 2.553165 1_656
Cl29 Os1 2.280518 1_555
