# generated using pymatgen
data_HfZr2HgC2
_symmetry_space_group_name_H-M   'P 1'
_cell_length_a   3.33111901
_cell_length_b   3.33111952
_cell_length_c   20.17387147
_cell_angle_alpha   90.00000000
_cell_angle_beta   90.00000000
_cell_angle_gamma   120.00000476
_symmetry_Int_Tables_number   1
_chemical_formula_structural   HfZr2HgC2
_chemical_formula_sum   'Hf2 Zr4 Hg2 C4'
_cell_volume   193.86536401
_cell_formula_units_Z   2
loop_
 _symmetry_equiv_pos_site_id
 _symmetry_equiv_pos_as_xyz
  1  'x, y, z'
loop_
 _atom_site_type_symbol
 _atom_site_label
 _atom_site_symmetry_multiplicity
 _atom_site_fract_x
 _atom_site_fract_y
 _atom_site_fract_z
 _atom_site_occupancy
  Hf  Hf0  1  0.00000000  0.00000000  0.00000000  1
  Hf  Hf1  1  0.00000000  0.00000000  0.50000000  1
  Zr  Zr0  1  0.33333300  0.66666600  0.12687142  1
  Zr  Zr1  1  0.33333300  0.66666600  0.37312858  1
  Zr  Zr2  1  0.66666500  0.33333300  0.62687142  1
  Zr  Zr3  1  0.66666500  0.33333300  0.87312858  1
  Hg  Hg0  1  0.00000000  0.00000000  0.25000000  1
  Hg  Hg1  1  0.00000000  0.00000000  0.75000000  1
  C  C0  1  0.66666500  0.33333300  0.06770838  1
  C  C1  1  0.66666500  0.33333300  0.43229162  1
  C  C2  1  0.33333300  0.66666600  0.56770838  1
  C  C3  1  0.33333300  0.66666600  0.93229162  1
loop_
_geom_bond_atom_site_label_1
_geom_bond_atom_site_label_2
_geom_bond_distance
_geom_bond_site_symmetry_2
Hg0 Zr1 3.141486 1_555
Hg0 Zr0 3.141486 1_555
Hg0 Zr1 3.141488 1_445
Hg0 Zr0 3.141488 1_445
Hg0 Zr1 3.141488 1_545
Hg0 Zr0 3.141488 1_545
Hg1 Zr3 3.141484 1_555
Hg1 Zr2 3.141484 1_555
Hg1 Zr3 3.141488 1_445
Hg1 Zr2 3.141488 1_445
Hg1 Zr3 3.141490 1_455
Hg1 Zr2 3.141490 1_455
C0 Zr0 2.263476 1_555
C0 Zr0 2.263481 1_545
C0 Zr0 2.263483 1_655
C0 Hf0 2.358932 1_555
C0 Hf0 2.358937 1_665
C0 Hf0 2.358939 1_655
C1 Zr1 2.263476 1_555
C1 Zr1 2.263481 1_545
C1 Zr1 2.263483 1_655
C1 Hf1 2.358932 1_555
C1 Hf1 2.358937 1_665
C1 Hf1 2.358939 1_655
C2 Zr2 2.263476 1_555
C2 Zr2 2.263481 1_565
C2 Zr2 2.263483 1_455
C2 Hf1 2.358934 1_555
C2 Hf1 2.358936 1_665
C2 Hf1 2.358937 1_565
C3 Zr3 2.263476 1_555
C3 Zr3 2.263481 1_565
C3 Zr3 2.263483 1_455
C3 Hf0 2.358934 1_556
C3 Hf0 2.358936 1_666
C3 Hf0 2.358937 1_566
