# generated using pymatgen
data_KP2IrRh
_symmetry_space_group_name_H-M   'P 1'
_cell_length_a   7.14720858
_cell_length_b   7.14720815
_cell_length_c   7.14720805
_cell_angle_alpha   148.19011934
_cell_angle_beta   148.19011781
_cell_angle_gamma   45.60479038
_symmetry_Int_Tables_number   1
_chemical_formula_structural   KP2IrRh
_chemical_formula_sum   'K1 P2 Ir1 Rh1'
_cell_volume   101.10272458
_cell_formula_units_Z   1
loop_
 _symmetry_equiv_pos_site_id
 _symmetry_equiv_pos_as_xyz
  1  'x, y, z'
loop_
 _atom_site_type_symbol
 _atom_site_label
 _atom_site_symmetry_multiplicity
 _atom_site_fract_x
 _atom_site_fract_y
 _atom_site_fract_z
 _atom_site_occupancy
  K  K0  1  0.00000000  0.00000000  0.00000000  1
  P  P0  1  0.34650283  0.34650283  0.00000000  1
  P  P1  1  0.65349717  0.65349717  1.00000000  1
  Ir  Ir0  1  0.25000000  0.75000000  0.50000000  1
  Rh  Rh0  1  0.75000000  0.25000000  0.50000000  1
loop_
_geom_bond_atom_site_label_1
_geom_bond_atom_site_label_2
_geom_bond_distance
_geom_bond_site_symmetry_2
K0 P1 3.429827 1_443
K0 P0 3.429827 1_556
K0 P1 3.429828 1_454
K0 P0 3.429828 1_545
K0 P1 3.429828 1_555
K0 P0 3.429828 1_444
K0 P0 3.429828 1_455
K0 P1 3.429828 1_544
P0 Rh0 2.335237 1_555
P0 Rh0 2.335237 1_454
P1 Rh0 2.335237 1_555
P1 Rh0 2.335237 1_566
Ir0 P1 2.335237 1_555
Ir0 P0 2.335237 1_555
Ir0 P0 2.335237 1_566
Ir0 P1 2.335237 1_454
