# generated using pymatgen
data_Na4LiAg3Te4
_symmetry_space_group_name_H-M   'P 1'
_cell_length_a   4.57961440
_cell_length_b   7.76973508
_cell_length_c   8.42745278
_cell_angle_alpha   90.41489079
_cell_angle_beta   90.00000000
_cell_angle_gamma   90.00000000
_symmetry_Int_Tables_number   1
_chemical_formula_structural   Na4LiAg3Te4
_chemical_formula_sum   'Na4 Li1 Ag3 Te4'
_cell_volume   299.86105516
_cell_formula_units_Z   1
loop_
 _symmetry_equiv_pos_site_id
 _symmetry_equiv_pos_as_xyz
  1  'x, y, z'
loop_
 _atom_site_type_symbol
 _atom_site_label
 _atom_site_symmetry_multiplicity
 _atom_site_fract_x
 _atom_site_fract_y
 _atom_site_fract_z
 _atom_site_occupancy
  Na  Na0  1  0.75000000  0.47540482  0.31658963  1
  Na  Na1  1  0.25000000  0.02594745  0.81852409  1
  Na  Na2  1  0.75000000  0.97448376  0.18096733  1
  Na  Na3  1  0.25000000  0.51838442  0.68637313  1
  Li  Li0  1  0.75000000  0.86745449  0.55903660  1
  Ag  Ag0  1  0.25000000  0.63253075  0.06296682  1
  Ag  Ag1  1  0.25000000  0.12915141  0.43755242  1
  Ag  Ag2  1  0.75000000  0.37748666  0.94002393  1
  Te  Te0  1  0.25000000  0.76265300  0.38644572  1
  Te  Te1  1  0.25000000  0.26030453  0.11761646  1
  Te  Te2  1  0.75000000  0.74339289  0.87652763  1
  Te  Te3  1  0.75000000  0.23280583  0.61737722  1
loop_
_geom_bond_atom_site_label_1
_geom_bond_atom_site_label_2
_geom_bond_distance
_geom_bond_site_symmetry_2
Na0 Te3 3.169817 1_555
Na0 Te0 3.248367 1_555
Na0 Te0 3.248367 1_655
Na0 Te1 3.287486 1_655
Na0 Te1 3.287486 1_555
Na1 Te1 3.098796 1_556
Na1 Te2 3.212067 1_445
Na1 Te2 3.212067 1_545
Na1 Te3 3.277107 1_455
Na1 Te3 3.277107 1_555
Na2 Te2 3.120853 1_554
Na2 Te1 3.236844 1_665
Na2 Te1 3.236844 1_565
Na2 Te0 3.315422 1_655
Na2 Te0 3.315422 1_555
Na3 Te0 3.171812 1_555
Na3 Te3 3.238211 1_455
Na3 Te3 3.238211 1_555
Na3 Te2 3.290457 1_555
Na3 Te2 3.290457 1_455
Li0 Te0 2.829256 1_655
Li0 Te0 2.829256 1_555
Li0 Te2 2.850536 1_555
Li0 Te3 2.877437 1_565
Ag0 Te0 2.900668 1_555
Ag0 Te2 2.910922 1_554
Ag0 Te2 2.910922 1_454
Ag0 Te1 2.931832 1_555
Ag0 Ag2 3.195906 1_554
Ag0 Ag2 3.195906 1_454
Ag0 Na3 3.289124 1_554
Ag0 Na0 3.367474 1_555
Ag0 Na0 3.367474 1_455
Ag0 Na2 3.640454 1_455
Ag0 Na2 3.640454 1_555
Ag0 Na1 3.698459 1_564
Ag1 Te3 2.858460 1_555
Ag1 Te3 2.858460 1_455
Ag1 Te0 2.876898 1_545
Ag1 Te1 2.889280 1_555
Ag1 Li0 3.233560 1_545
Ag1 Li0 3.233560 1_445
Ag1 Na1 3.314870 1_555
Ag1 Na2 3.365342 1_445
Ag1 Na2 3.365342 1_545
Ag1 Na3 3.667597 1_555
Ag1 Na0 3.682367 1_555
Ag1 Na0 3.682367 1_455
Ag2 Te1 2.886500 1_556
Ag2 Te1 2.886500 1_656
Ag2 Te2 2.896721 1_555
Ag2 Te3 2.934767 1_555
Ag2 Na0 3.258049 1_556
Ag2 Na3 3.323405 1_555
Ag2 Na3 3.323405 1_655
