# generated using pymatgen
data_CaCdH6Os
_symmetry_space_group_name_H-M   'P 1'
_cell_length_a   4.98931521
_cell_length_b   4.98931517
_cell_length_c   4.98931496
_cell_angle_alpha   60.00000138
_cell_angle_beta   60.00000162
_cell_angle_gamma   60.00000084
_symmetry_Int_Tables_number   1
_chemical_formula_structural   CaCdH6Os
_chemical_formula_sum   'Ca1 Cd1 H6 Os1'
_cell_volume   87.82290857
_cell_formula_units_Z   1
loop_
 _symmetry_equiv_pos_site_id
 _symmetry_equiv_pos_as_xyz
  1  'x, y, z'
loop_
 _atom_site_type_symbol
 _atom_site_label
 _atom_site_symmetry_multiplicity
 _atom_site_fract_x
 _atom_site_fract_y
 _atom_site_fract_z
 _atom_site_occupancy
  Ca  Ca0  1  0.75000000  0.75000000  0.75000000  1
  Cd  Cd0  1  0.25000000  0.25000000  0.25000000  1
  H  H0  1  0.75908493  0.24091507  0.24091507  1
  H  H1  1  0.24091507  0.75908493  0.75908493  1
  H  H2  1  0.24091507  0.75908493  0.24091507  1
  H  H3  1  0.75908493  0.24091507  0.75908493  1
  H  H4  1  0.24091507  0.24091507  0.75908493  1
  H  H5  1  0.75908493  0.75908493  0.24091507  1
  Os  Os0  1  0.00000000  0.00000000  0.00000000  1
loop_
_geom_bond_atom_site_label_1
_geom_bond_atom_site_label_2
_geom_bond_distance
_geom_bond_site_symmetry_2
Ca0 H5 2.495481 1_555
Ca0 H5 2.495481 1_556
Ca0 H3 2.495481 1_565
Ca0 H0 2.495481 1_565
Ca0 H0 2.495481 1_556
Ca0 H3 2.495481 1_555
Ca0 H2 2.495481 1_655
Ca0 H1 2.495481 1_655
Ca0 H1 2.495481 1_555
Ca0 H2 2.495481 1_556
Ca0 H4 2.495481 1_655
Ca0 H4 2.495481 1_565
Cd0 H4 2.495481 1_555
Cd0 H4 2.495481 1_554
Cd0 H2 2.495481 1_545
Cd0 H1 2.495481 1_545
Cd0 H1 2.495481 1_554
Cd0 H2 2.495481 1_555
Cd0 H3 2.495481 1_455
Cd0 H0 2.495481 1_455
Cd0 H0 2.495481 1_555
Cd0 H3 2.495481 1_554
Cd0 H5 2.495481 1_455
Cd0 H5 2.495481 1_545
H0 Os0 1.699886 1_655
H1 Os0 1.699886 1_566
H2 Os0 1.699886 1_565
H3 Os0 1.699886 1_656
H4 Os0 1.699886 1_556
H5 Os0 1.699886 1_665
