# generated using pymatgen
data_CsRbHfSe3
_symmetry_space_group_name_H-M   'P 1'
_cell_length_a   7.85703362
_cell_length_b   8.11590681
_cell_length_c   7.14177561
_cell_angle_alpha   90.00000000
_cell_angle_beta   90.00000000
_cell_angle_gamma   108.37363684
_symmetry_Int_Tables_number   1
_chemical_formula_structural   CsRbHfSe3
_chemical_formula_sum   'Cs2 Rb2 Hf2 Se6'
_cell_volume   432.19302592
_cell_formula_units_Z   2
loop_
 _symmetry_equiv_pos_site_id
 _symmetry_equiv_pos_as_xyz
  1  'x, y, z'
loop_
 _atom_site_type_symbol
 _atom_site_label
 _atom_site_symmetry_multiplicity
 _atom_site_fract_x
 _atom_site_fract_y
 _atom_site_fract_z
 _atom_site_occupancy
  Cs  Cs0  1  0.17505051  0.49117418  0.75000000  1
  Cs  Cs1  1  0.82494949  0.50882582  0.25000000  1
  Rb  Rb0  1  0.50385813  0.81417743  0.25000000  1
  Rb  Rb1  1  0.49614187  0.18582257  0.75000000  1
  Hf  Hf0  1  0.07752494  0.08535233  0.25000000  1
  Hf  Hf1  1  0.92247506  0.91464767  0.75000000  1
  Se  Se0  1  0.67827195  0.63631626  0.75000000  1
  Se  Se1  1  0.32172805  0.36368374  0.25000000  1
  Se  Se2  1  0.84433245  0.11885132  0.50016197  1
  Se  Se3  1  0.84433245  0.11885132  0.99983803  1
  Se  Se4  1  0.15566755  0.88114868  0.49983803  1
  Se  Se5  1  0.15566755  0.88114868  0.00016197  1
loop_
_geom_bond_atom_site_label_1
_geom_bond_atom_site_label_2
_geom_bond_distance
_geom_bond_site_symmetry_2
Cs0 Se5 3.679159 1_556
Cs0 Se4 3.679159 1_555
Cs0 Se0 3.752888 1_555
Cs0 Se3 3.757203 1_455
Cs0 Se2 3.757203 1_455
Cs0 Se1 3.987697 1_555
Cs0 Se1 3.987697 1_556
Cs1 Se2 3.679159 1_555
Cs1 Se3 3.679159 1_554
Cs1 Se1 3.752888 1_555
Cs1 Se4 3.757203 1_655
Cs1 Se5 3.757203 1_655
Cs1 Se0 3.987697 1_555
Cs1 Se0 3.987697 1_554
Rb0 Se4 3.449758 1_555
Rb0 Se5 3.449758 1_555
Rb0 Se1 3.480939 1_555
Rb0 Se2 3.506045 1_565
Rb0 Se3 3.506045 1_564
Rb1 Se3 3.449758 1_555
Rb1 Se2 3.449758 1_555
Rb1 Se0 3.480939 1_555
Rb1 Se5 3.506045 1_546
Rb1 Se4 3.506045 1_545
Hf0 Se1 2.460031 1_555
Hf0 Se2 2.633790 1_455
Hf0 Se3 2.633790 1_454
Hf0 Se4 2.636048 1_545
Hf0 Se5 2.636048 1_545
Hf1 Se0 2.460031 1_555
Hf1 Se5 2.633790 1_656
Hf1 Se4 2.633790 1_655
Hf1 Se3 2.636048 1_565
Hf1 Se2 2.636048 1_565
