# generated using pymatgen
data_ZrSc7(TcB6)4
_symmetry_space_group_name_H-M   'P 1'
_cell_length_a   8.88283122
_cell_length_b   11.17774331
_cell_length_c   3.51235862
_cell_angle_alpha   90.00000000
_cell_angle_beta   90.00000000
_cell_angle_gamma   90.03534086
_symmetry_Int_Tables_number   1
_chemical_formula_structural   ZrSc7(TcB6)4
_chemical_formula_sum   'Zr1 Sc7 Tc4 B24'
_cell_volume   348.74204631
_cell_formula_units_Z   1
loop_
 _symmetry_equiv_pos_site_id
 _symmetry_equiv_pos_as_xyz
  1  'x, y, z'
loop_
 _atom_site_type_symbol
 _atom_site_label
 _atom_site_symmetry_multiplicity
 _atom_site_fract_x
 _atom_site_fract_y
 _atom_site_fract_z
 _atom_site_occupancy
  Zr  Zr0  1  0.67801642  0.08611894  0.00000000  1
  Sc  Sc0  1  0.05678591  0.12937958  0.00000000  1
  Sc  Sc1  1  0.55680900  0.37092352  0.00000000  1
  Sc  Sc2  1  0.17815422  0.41455819  0.00000000  1
  Sc  Sc3  1  0.82219673  0.58619877  0.00000000  1
  Sc  Sc4  1  0.44282757  0.62959862  0.00000000  1
  Sc  Sc5  1  0.94352142  0.87032007  0.00000000  1
  Sc  Sc6  1  0.32120842  0.91345538  0.00000000  1
  Tc  Tc0  1  0.36269305  0.17920627  0.00000000  1
  Tc  Tc1  1  0.85987468  0.31893372  0.00000000  1
  Tc  Tc2  1  0.13899105  0.67983862  0.00000000  1
  Tc  Tc3  1  0.63892040  0.82145864  0.00000000  1
  B  B0  1  0.90089674  0.02734029  0.50000100  1
  B  B1  1  0.44659344  0.06509649  0.50000100  1
  B  B2  1  0.24721860  0.07896923  0.50000100  1
  B  B3  1  0.87047511  0.18251465  0.50000100  1
  B  B4  1  0.52053265  0.21281378  0.50000100  1
  B  B5  1  0.20597371  0.23620822  0.50000100  1
  B  B6  1  0.70538358  0.26427247  0.50000100  1
  B  B7  1  0.02096201  0.28766357  0.50000100  1
  B  B8  1  0.37016781  0.31798379  0.50000100  1
  B  B9  1  0.74722782  0.42145763  0.50000100  1
  B  B10  1  0.94671110  0.43437831  0.50000100  1
  B  B11  1  0.40150106  0.47294099  0.50000100  1
  B  B12  1  0.59867376  0.52759680  0.50000100  1
  B  B13  1  0.05302743  0.56499631  0.50000100  1
  B  B14  1  0.25271813  0.57893152  0.50000100  1
  B  B15  1  0.62986516  0.68281457  0.50000100  1
  B  B16  1  0.97915524  0.71183900  0.50000100  1
  B  B17  1  0.29450640  0.73619649  0.50000100  1
  B  B18  1  0.79466979  0.76360500  0.50000100  1
  B  B19  1  0.47895458  0.78767708  0.50000100  1
  B  B20  1  0.12971653  0.81725901  0.50000100  1
  B  B21  1  0.75311422  0.92047899  0.50000100  1
  B  B22  1  0.55292821  0.93446174  0.50000100  1
  B  B23  1  0.09903206  0.97250877  0.50000100  1
loop_
_geom_bond_atom_site_label_1
_geom_bond_atom_site_label_2
_geom_bond_distance
_geom_bond_site_symmetry_2
Sc0 Tc1 2.748324 1_455
Sc0 Tc0 2.773475 1_555
Sc1 Tc0 2.749719 1_555
Sc1 Tc1 2.754440 1_555
Sc2 Tc2 2.985787 1_555
Sc2 Tc1 3.021910 1_455
Sc2 Tc0 3.100482 1_555
Sc3 Tc2 3.001779 1_655
Sc3 Tc1 3.006315 1_555
Sc3 Tc3 3.093686 1_555
Sc4 Tc2 2.757072 1_555
Sc4 Tc3 2.761994 1_555
Sc5 Tc2 2.748212 1_655
Sc5 Tc3 2.759961 1_555
Sc6 Tc0 2.993039 1_565
Sc6 Tc3 3.004284 1_555
Sc6 Tc2 3.071417 1_555
Tc0 Zr0 2.988587 1_555
Tc1 Zr0 3.062120 1_555
Tc3 Zr0 2.978407 1_565
B0 B3 1.755588 1_555
B0 B21 1.774281 1_545
B0 B23 1.864022 1_645
B0 Sc0 2.510100 1_656
B0 Sc0 2.510104 1_655
B0 Sc5 2.511736 1_546
B0 Sc5 2.511741 1_545
B0 Zr0 2.727098 1_556
B0 Zr0 2.727103 1_555
B1 B22 1.739561 1_545
B1 B4 1.776603 1_555
B1 B2 1.777884 1_555
B1 Tc0 2.295132 1_556
B1 Tc0 2.295138 1_555
B1 Sc6 2.682417 1_546
B1 Sc6 2.682421 1_545
B1 Zr0 2.713787 1_556
B1 Zr0 2.713792 1_555
B2 B23 1.773930 1_545
B2 B5 1.795578 1_555
B2 Tc0 2.321686 1_556
B2 Tc0 2.321692 1_555
B2 Sc0 2.502854 1_556
B2 Sc0 2.502859 1_555
B2 Sc6 2.634460 1_546
B2 Sc6 2.634465 1_545
B3 B6 1.728402 1_555
B3 B7 1.779426 1_655
B3 Tc1 2.327743 1_556
B3 Tc1 2.327748 1_555
B3 Sc0 2.485364 1_656
B3 Sc0 2.485369 1_655
B3 Zr0 2.676848 1_556
B3 Zr0 2.676853 1_555
B4 B6 1.739495 1_555
B4 B8 1.779856 1_555
B4 Tc0 2.278245 1_556
B4 Tc0 2.278250 1_555
B4 Sc1 2.512105 1_556
B4 Sc1 2.512110 1_555
B4 Zr0 2.655003 1_556
B4 Zr0 2.655007 1_555
B5 B8 1.720790 1_555
B5 B7 1.741500 1_555
B5 Tc0 2.330061 1_556
B5 Tc0 2.330067 1_555
B5 Sc0 2.502851 1_556
B5 Sc0 2.502856 1_555
B5 Sc2 2.668346 1_556
B5 Sc2 2.668350 1_555
B6 B9 1.795638 1_555
B6 Tc1 2.310776 1_556
B6 Tc1 2.310781 1_555
B6 Sc1 2.499803 1_556
B6 Sc1 2.499808 1_555
B6 Zr0 2.666111 1_556
B6 Zr0 2.666115 1_555
B7 Tc1 2.292259 1_456
B7 Tc1 2.292264 1_455
B7 Sc0 2.513242 1_556
B7 Sc0 2.513247 1_555
B7 Sc2 2.653911 1_556
B7 Sc2 2.653916 1_555
B8 Tc0 2.344081 1_556
B8 Tc0 2.344086 1_555
B8 Sc1 2.486312 1_556
B8 Sc1 2.486317 1_555
B8 Sc2 2.675979 1_556
B8 Sc2 2.675984 1_555
B9 Tc1 2.323811 1_556
B9 Tc1 2.323816 1_555
B9 Sc1 2.502613 1_556
B9 Sc1 2.502617 1_555
B9 Sc3 2.630017 1_556
B9 Sc3 2.630022 1_555
B10 B13 1.738337 1_655
B10 B7 1.767980 1_655
B10 B9 1.777763 1_555
B10 Tc1 2.311508 1_556
B10 Tc1 2.311513 1_555
B10 Sc3 2.681350 1_556
B10 Sc3 2.681354 1_555
B10 Sc2 2.713006 1_656
B10 Sc2 2.713010 1_655
B11 B8 1.754122 1_555
B11 B14 1.775441 1_555
B11 B12 1.854588 1_555
B11 Sc4 2.506870 1_556
B11 Sc4 2.506875 1_555
B11 Sc1 2.507920 1_556
B11 Sc1 2.507925 1_555
B11 Sc2 2.728460 1_556
B11 Sc2 2.728465 1_555
B12 B15 1.756800 1_555
B12 B9 1.775038 1_555
B12 Sc1 2.507695 1_556
B12 Sc1 2.507700 1_555
B12 Sc4 2.510475 1_556
B12 Sc4 2.510480 1_555
B12 Sc3 2.730183 1_556
B12 Sc3 2.730188 1_555
B13 B16 1.768054 1_455
B13 B14 1.780549 1_555
B13 Tc2 2.305181 1_556
B13 Tc2 2.305186 1_555
B13 Sc2 2.673852 1_556
B13 Sc2 2.673857 1_555
B13 Sc3 2.710200 1_456
B13 Sc3 2.710204 1_455
B14 B17 1.796408 1_555
B14 Tc2 2.319114 1_556
B14 Tc2 2.319119 1_555
B14 Sc4 2.501092 1_556
B14 Sc4 2.501097 1_555
B14 Sc2 2.626233 1_556
B14 Sc2 2.626238 1_555
B15 B18 1.719585 1_555
B15 B19 1.781234 1_555
B15 Tc3 2.343529 1_556
B15 Tc3 2.343534 1_555
B15 Sc4 2.489395 1_556
B15 Sc4 2.489400 1_555
B15 Sc3 2.677968 1_556
B15 Sc3 2.677972 1_555
B16 B18 1.738244 1_555
B16 B20 1.781923 1_655
B16 Tc2 2.286600 1_656
B16 Tc2 2.286605 1_655
B16 Sc5 2.514579 1_556
B16 Sc5 2.514584 1_555
B16 Sc3 2.645354 1_556
B16 Sc3 2.645359 1_555
B17 B20 1.722022 1_555
B17 B19 1.736200 1_555
B17 Tc2 2.321257 1_556
B17 Tc2 2.321262 1_555
B17 Sc4 2.498331 1_556
B17 Sc4 2.498336 1_555
B17 Sc6 2.658119 1_556
B17 Sc6 2.658124 1_555
B18 B21 1.792152 1_555
B18 Tc3 2.327553 1_556
B18 Tc3 2.327558 1_555
B18 Sc5 2.500667 1_556
B18 Sc5 2.500672 1_555
B18 Sc3 2.660232 1_556
B18 Sc3 2.660237 1_555
B19 B22 1.767034 1_555
B19 Tc3 2.290234 1_556
B19 Tc3 2.290239 1_555
B19 Sc4 2.511690 1_556
B19 Sc4 2.511695 1_555
B19 Sc6 2.650781 1_556
B19 Sc6 2.650786 1_555
B20 B23 1.756783 1_555
B20 Tc2 2.334640 1_556
B20 Tc2 2.334646 1_555
B20 Sc5 2.484482 1_456
B20 Sc5 2.484487 1_455
B20 Sc6 2.670477 1_556
B20 Sc6 2.670481 1_555
B21 B22 1.785170 1_555
B21 Tc3 2.310144 1_556
B21 Tc3 2.310149 1_555
B21 Sc5 2.502069 1_556
B21 Sc5 2.502074 1_555
B21 Zr0 2.637926 1_566
B21 Zr0 2.637931 1_565
B22 Tc3 2.294404 1_556
B22 Tc3 2.294409 1_555
B22 Zr0 2.681438 1_566
B22 Zr0 2.681442 1_565
B22 Sc6 2.715769 1_556
B22 Sc6 2.715774 1_555
B23 Sc5 2.509006 1_456
B23 Sc5 2.509011 1_455
B23 Sc0 2.510063 1_566
B23 Sc0 2.510068 1_565
B23 Sc6 2.723305 1_556
B23 Sc6 2.723310 1_555
