# generated using pymatgen
data_NaTiPS5
_symmetry_space_group_name_H-M   'P 1'
_cell_length_a   9.44322963
_cell_length_b   9.44322900
_cell_length_c   6.02602717
_cell_angle_alpha   83.98007089
_cell_angle_beta   83.98007438
_cell_angle_gamma   44.16093095
_symmetry_Int_Tables_number   1
_chemical_formula_structural   NaTiPS5
_chemical_formula_sum   'Na2 Ti2 P2 S10'
_cell_volume   371.96643492
_cell_formula_units_Z   2
loop_
 _symmetry_equiv_pos_site_id
 _symmetry_equiv_pos_as_xyz
  1  'x, y, z'
loop_
 _atom_site_type_symbol
 _atom_site_label
 _atom_site_symmetry_multiplicity
 _atom_site_fract_x
 _atom_site_fract_y
 _atom_site_fract_z
 _atom_site_occupancy
  Na  Na0  1  0.78300559  0.78300559  0.74586469  1
  Na  Na1  1  0.21699441  0.21699441  0.25413531  1
  Ti  Ti0  1  0.77641020  0.22358980  0.50000000  1
  Ti  Ti1  1  0.22358980  0.77641020  0.50000000  1
  P  P0  1  0.36194832  0.36194832  0.69480583  1
  P  P1  1  0.63805168  0.63805168  0.30519417  1
  S  S0  1  0.82637325  0.35947468  0.16964841  1
  S  S1  1  0.75226480  0.75226480  0.27099030  1
  S  S2  1  0.17362675  0.64052532  0.83035159  1
  S  S3  1  0.41456003  0.41456003  0.36971742  1
  S  S4  1  0.64052532  0.17362675  0.83035159  1
  S  S5  1  0.94257556  0.94257556  0.30189174  1
  S  S6  1  0.05742444  0.05742444  0.69810826  1
  S  S7  1  0.58543997  0.58543997  0.63028258  1
  S  S8  1  0.35947468  0.82637325  0.16964841  1
  S  S9  1  0.24773520  0.24773520  0.72900970  1
loop_
_geom_bond_atom_site_label_1
_geom_bond_atom_site_label_2
_geom_bond_distance
_geom_bond_site_symmetry_2
Na0 S4 2.967412 1_565
Na0 S2 2.967412 1_655
Na0 S1 2.970978 1_555
Na0 S1 3.149231 1_556
Na1 S8 2.967412 1_545
Na1 S0 2.967412 1_455
Na1 S9 2.970978 1_555
Na1 S9 3.149231 1_554
P0 S9 1.986134 1_555
P0 S2 2.045459 1_555
P0 S4 2.045459 1_555
P0 S3 2.068135 1_555
P1 S1 1.986134 1_555
P1 S0 2.045459 1_555
P1 S8 2.045459 1_555
P1 S7 2.068135 1_555
S0 Ti0 2.442940 1_555
S2 Ti1 2.442940 1_555
S3 Ti1 2.639891 1_555
S3 Ti0 2.639891 1_555
S4 Ti0 2.442940 1_555
S5 Ti0 2.286172 1_565
S5 Ti1 2.286172 1_655
S6 Ti1 2.286172 1_545
S6 Ti0 2.286172 1_455
S7 Ti0 2.639891 1_555
S7 Ti1 2.639891 1_555
S8 Ti1 2.442940 1_555
