# generated using pymatgen
data_TaBe9V2
_symmetry_space_group_name_H-M   'P 1'
_cell_length_a   7.26925664
_cell_length_b   7.26925601
_cell_length_c   7.26925543
_cell_angle_alpha   35.18348937
_cell_angle_beta   35.18349517
_cell_angle_gamma   35.18349739
_symmetry_Int_Tables_number   1
_chemical_formula_structural   TaBe9V2
_chemical_formula_sum   'Ta1 Be9 V2'
_cell_volume   113.90469235
_cell_formula_units_Z   1
loop_
 _symmetry_equiv_pos_site_id
 _symmetry_equiv_pos_as_xyz
  1  'x, y, z'
loop_
 _atom_site_type_symbol
 _atom_site_label
 _atom_site_symmetry_multiplicity
 _atom_site_fract_x
 _atom_site_fract_y
 _atom_site_fract_z
 _atom_site_occupancy
  Ta  Ta0  1  0.00000000  0.00000000  0.00000000  1
  Be  Be0  1  0.41335316  0.92202575  0.41335316  1
  Be  Be1  1  0.41335316  0.41335316  0.92202575  1
  Be  Be2  1  0.92202575  0.41335316  0.41335316  1
  Be  Be3  1  0.58664684  0.07797425  0.58664684  1
  Be  Be4  1  0.58664684  0.58664684  0.07797425  1
  Be  Be5  1  0.07797425  0.58664684  0.58664684  1
  Be  Be6  1  0.66573887  0.66573887  0.66573887  1
  Be  Be7  1  0.33426113  0.33426113  0.33426113  1
  Be  Be8  1  0.50000000  0.50000000  0.50000000  1
  V  V0  1  0.85789762  0.85789762  0.85789762  1
  V  V1  1  0.14210238  0.14210238  0.14210238  1
loop_
_geom_bond_atom_site_label_1
_geom_bond_atom_site_label_2
_geom_bond_distance
_geom_bond_site_symmetry_2
Ta0 V1 2.904097 1_555
Ta0 V0 2.904097 1_444
Be0 Be6 2.128516 1_555
Be0 Be8 2.129857 1_555
Be0 Be7 2.132785 1_565
Be0 Be1 2.158898 1_564
Be0 Be2 2.158899 1_465
Be0 Be1 2.235113 1_555
Be0 Be2 2.235114 1_555
Be0 V0 2.499830 1_554
Be0 V0 2.499830 1_455
Be0 V1 2.525453 1_565
Be0 Ta0 2.785176 1_566
Be0 Ta0 2.785177 1_665
Be1 Be6 2.128516 1_555
Be1 Be8 2.129857 1_555
Be1 Be7 2.132785 1_556
Be1 Be2 2.158899 1_456
Be1 Be2 2.235114 1_555
Be1 V0 2.499830 1_545
Be1 V0 2.499830 1_455
Be1 V1 2.525453 1_556
Be1 Ta0 2.785177 1_566
Be1 Ta0 2.785177 1_656
Be2 Be6 2.128516 1_555
Be2 Be8 2.129858 1_555
Be2 Be7 2.132786 1_655
Be2 V0 2.499829 1_554
Be2 V0 2.499830 1_545
Be2 V1 2.525453 1_655
Be2 Ta0 2.785176 1_656
Be2 Ta0 2.785176 1_665
Be3 Be7 2.128516 1_555
Be3 Be8 2.129857 1_555
Be3 Be6 2.132785 1_545
Be3 Be4 2.158898 1_546
Be3 Be5 2.158899 1_645
Be3 Be4 2.235113 1_555
Be3 Be5 2.235114 1_555
Be3 V1 2.499830 1_556
Be3 V1 2.499830 1_655
Be3 V0 2.525453 1_545
Be3 Ta0 2.785176 1_655
Be3 Ta0 2.785177 1_556
Be4 Be7 2.128516 1_555
Be4 Be8 2.129857 1_555
Be4 Be6 2.132785 1_554
Be4 Be5 2.158899 1_654
Be4 Be5 2.235114 1_555
Be4 V1 2.499830 1_565
Be4 V1 2.499830 1_655
Be4 V0 2.525453 1_554
Be4 Ta0 2.785177 1_655
Be4 Ta0 2.785177 1_565
Be5 Be7 2.128516 1_555
Be5 Be8 2.129858 1_555
Be5 Be6 2.132786 1_455
Be5 V1 2.499829 1_556
Be5 V1 2.499830 1_565
Be5 V0 2.525453 1_455
Be5 Ta0 2.785176 1_565
Be5 Ta0 2.785176 1_556
Be6 Ta0 2.536955 1_665
Be6 Ta0 2.536955 1_656
Be6 Ta0 2.536955 1_566
Be7 Ta0 2.536955 1_556
Be7 Ta0 2.536955 1_565
Be7 Ta0 2.536955 1_655
Be8 V0 2.586077 1_554
Be8 V1 2.586077 1_556
Be8 V0 2.586077 1_545
Be8 V1 2.586077 1_565
Be8 V0 2.586078 1_455
Be8 V1 2.586078 1_655
V0 V1 2.728340 1_665
V0 V1 2.728341 1_656
V0 V1 2.728341 1_566
