# generated using pymatgen
data_Ca9Y(Sn3H)2
_symmetry_space_group_name_H-M   'P 1'
_cell_length_a   9.40875106
_cell_length_b   9.40877006
_cell_length_c   9.42315417
_cell_angle_alpha   128.73140990
_cell_angle_beta   128.73162609
_cell_angle_gamma   75.44779056
_symmetry_Int_Tables_number   1
_chemical_formula_structural   Ca9Y(Sn3H)2
_chemical_formula_sum   'Ca9 Y1 Sn6 H2'
_cell_volume   493.97245512
_cell_formula_units_Z   1
loop_
 _symmetry_equiv_pos_site_id
 _symmetry_equiv_pos_as_xyz
  1  'x, y, z'
loop_
 _atom_site_type_symbol
 _atom_site_label
 _atom_site_symmetry_multiplicity
 _atom_site_fract_x
 _atom_site_fract_y
 _atom_site_fract_z
 _atom_site_occupancy
  Ca  Ca0  1  0.49852828  0.50240505  0.00084465  1
  Ca  Ca1  1  0.00240505  0.99852828  0.00084465  1
  Ca  Ca2  1  0.18540096  0.68540096  0.17296855  1
  Ca  Ca3  1  0.00904091  0.18551402  0.49834089  1
  Ca  Ca4  1  0.68551202  0.50903991  0.49833989  1
  Ca  Ca5  1  0.48910561  0.98910361  0.17962975  1
  Ca  Ca6  1  0.81165169  0.31165269  0.82290722  1
  Ca  Ca7  1  0.98715645  0.81222553  0.49818066  1
  Ca  Ca8  1  0.31222653  0.48715845  0.49818266  1
  Y  Y0  1  0.51544642  0.01544642  0.82501063  1
  Sn  Sn0  1  0.25546217  0.24400859  0.99468187  1
  Sn  Sn1  1  0.74400759  0.75546017  0.99467887  1
  Sn  Sn2  1  0.87001431  0.37000731  0.24082798  1
  Sn  Sn3  1  0.12359725  0.62360225  0.74833249  1
  Sn  Sn4  1  0.37235480  0.12590982  0.50489281  1
  Sn  Sn5  1  0.62590982  0.87235580  0.50489881  1
  H  H0  1  0.26219040  0.76219040  0.51356947  1
  H  H1  1  0.74999073  0.24999073  0.50286815  1
loop_
_geom_bond_atom_site_label_1
_geom_bond_atom_site_label_2
_geom_bond_distance
_geom_bond_site_symmetry_2
Ca0 Sn4 3.202096 1_554
Ca0 Sn3 3.205708 1_554
Ca0 Sn2 3.213810 1_555
Ca0 Sn5 3.224478 1_555
Ca0 Sn0 3.687192 1_554
Ca0 Sn1 3.756490 1_554
Ca1 Sn5 3.202056 1_454
Ca1 Sn3 3.205669 1_554
Ca1 Sn2 3.213749 1_465
Ca1 Sn4 3.224431 1_565
Ca1 Sn1 3.687191 1_454
Ca1 Sn0 3.756490 1_564
Ca2 H0 2.409154 1_555
Ca2 Sn5 3.257646 1_555
Ca2 Sn4 3.257666 1_565
Ca2 Sn3 3.321805 1_554
Ca2 Sn1 3.432696 1_454
Ca2 Sn0 3.432709 1_554
Ca3 H1 2.380159 1_455
Ca3 Sn3 3.256654 1_555
Ca3 Sn2 3.281837 1_455
Ca3 Sn4 3.289253 1_555
Ca3 Sn1 3.368371 1_444
Ca3 Sn0 3.377026 1_555
Ca4 H1 2.380159 1_555
Ca4 Sn3 3.256623 1_655
Ca4 Sn2 3.281897 1_555
Ca4 Sn5 3.289245 1_555
Ca4 Sn0 3.368332 1_554
Ca4 Sn1 3.377014 1_555
Ca5 H1 2.375748 1_565
Ca5 Sn4 3.289907 1_565
Ca5 Sn5 3.289935 1_555
Ca5 Sn3 3.336839 1_554
Ca5 Sn1 3.377668 1_554
Ca5 Sn0 3.377673 1_564
Ca6 H1 2.357637 1_555
Ca6 Sn4 3.270359 1_555
Ca6 Sn5 3.270381 1_545
Ca6 Sn2 3.294186 1_556
Ca6 Sn1 3.457930 1_555
Ca6 Sn0 3.457935 1_655
Ca7 H0 2.437755 1_655
Ca7 Sn3 3.264566 1_655
Ca7 Sn2 3.277367 1_555
Ca7 Sn5 3.336853 1_555
Ca7 Sn0 3.369918 1_665
Ca7 Sn1 3.448264 1_554
Ca8 H0 2.437751 1_555
Ca8 Sn3 3.264599 1_555
Ca8 Sn2 3.277314 1_455
Ca8 Sn4 3.336838 1_555
Ca8 Sn1 3.369884 1_555
Ca8 Sn0 3.448266 1_554
Sn0 Y0 3.333536 1_555
Sn1 Y0 3.333533 1_565
Sn2 Sn3 2.925773 1_655
Sn2 Y0 3.238785 1_554
Sn4 Sn5 2.919333 1_545
Sn4 Y0 3.182793 1_555
Sn5 Y0 3.182750 1_565
H0 Y0 2.306609 1_565
