# generated using pymatgen
data_YMgCdPt3
_symmetry_space_group_name_H-M   'P 1'
_cell_length_a   5.22090154
_cell_length_b   5.22090077
_cell_length_c   5.22090050
_cell_angle_alpha   63.62396138
_cell_angle_beta   63.62396784
_cell_angle_gamma   63.62396596
_symmetry_Int_Tables_number   1
_chemical_formula_structural   YMgCdPt3
_chemical_formula_sum   'Y1 Mg1 Cd1 Pt3'
_cell_volume   108.68473193
_cell_formula_units_Z   1
loop_
 _symmetry_equiv_pos_site_id
 _symmetry_equiv_pos_as_xyz
  1  'x, y, z'
loop_
 _atom_site_type_symbol
 _atom_site_label
 _atom_site_symmetry_multiplicity
 _atom_site_fract_x
 _atom_site_fract_y
 _atom_site_fract_z
 _atom_site_occupancy
  Y  Y0  1  0.24308796  0.24308796  0.24308796  1
  Mg  Mg0  1  0.62867080  0.62867080  0.62867080  1
  Cd  Cd0  1  0.99648526  0.99648526  0.99648526  1
  Pt  Pt0  1  0.62718003  0.62718003  0.12739593  1
  Pt  Pt1  1  0.62718003  0.12739593  0.62718003  1
  Pt  Pt2  1  0.12739593  0.62718003  0.62718003  1
loop_
_geom_bond_atom_site_label_1
_geom_bond_atom_site_label_2
_geom_bond_distance
_geom_bond_site_symmetry_2
Mg0 Pt0 2.596903 1_556
Mg0 Pt1 2.596903 1_565
Mg0 Pt2 2.596904 1_655
Mg0 Pt0 2.624046 1_555
Mg0 Pt1 2.624046 1_555
Mg0 Pt2 2.624047 1_555
Mg0 Y0 3.243520 1_565
Mg0 Y0 3.243520 1_556
Mg0 Y0 3.243521 1_655
Cd0 Pt2 2.977194 1_655
Cd0 Pt1 2.977194 1_565
Cd0 Pt0 2.977194 1_556
Cd0 Y0 3.064537 1_666
Cd0 Pt2 3.196072 1_656
Cd0 Pt2 3.196072 1_665
Cd0 Pt1 3.196072 1_566
Cd0 Pt0 3.196072 1_566
Cd0 Pt0 3.196073 1_656
Cd0 Pt1 3.196073 1_665
Cd0 Mg0 3.206624 1_565
Cd0 Mg0 3.206624 1_556
Cd0 Mg0 3.206624 1_655
Cd0 Y0 3.355665 1_665
Cd0 Y0 3.355665 1_656
Cd0 Y0 3.355665 1_566
Pt0 Pt1 2.750923 1_555
Pt0 Pt2 2.750924 1_555
Pt0 Pt1 2.753300 1_564
Pt0 Pt2 2.753300 1_654
Pt0 Y0 3.105844 1_565
Pt0 Y0 3.105845 1_655
Pt0 Y0 3.134947 1_555
Pt1 Pt2 2.750924 1_555
Pt1 Pt2 2.753300 1_645
Pt1 Y0 3.105844 1_556
Pt1 Y0 3.105845 1_655
Pt1 Y0 3.134947 1_555
Pt2 Y0 3.105844 1_556
Pt2 Y0 3.105844 1_565
Pt2 Y0 3.134947 1_555
