# generated using pymatgen
data_Lu12AlCo4Bi
_symmetry_space_group_name_H-M   'P 1'
_cell_length_a   8.11079619
_cell_length_b   8.11079757
_cell_length_c   8.11079675
_cell_angle_alpha   111.17415909
_cell_angle_beta   109.63092255
_cell_angle_gamma   107.62802042
_symmetry_Int_Tables_number   1
_chemical_formula_structural   Lu12AlCo4Bi
_chemical_formula_sum   'Lu12 Al1 Co4 Bi1'
_cell_volume   410.34699286
_cell_formula_units_Z   1
loop_
 _symmetry_equiv_pos_site_id
 _symmetry_equiv_pos_as_xyz
  1  'x, y, z'
loop_
 _atom_site_type_symbol
 _atom_site_label
 _atom_site_symmetry_multiplicity
 _atom_site_fract_x
 _atom_site_fract_y
 _atom_site_fract_z
 _atom_site_occupancy
  Lu  Lu0  1  0.43804222  0.23113964  0.20690158  1
  Lu  Lu1  1  0.56195778  0.76886036  0.79309842  1
  Lu  Lu2  1  0.02423606  0.23113964  0.79309842  1
  Lu  Lu3  1  0.97576394  0.76886036  0.20690158  1
  Lu  Lu4  1  0.17972720  0.27887138  0.45859958  1
  Lu  Lu5  1  0.82027280  0.72112862  0.54140042  1
  Lu  Lu6  1  0.17972720  0.72112862  0.90085582  1
  Lu  Lu7  1  0.82027280  0.27887138  0.09914418  1
  Lu  Lu8  1  0.32222177  0.63637723  0.31415446  1
  Lu  Lu9  1  0.67777823  0.36362277  0.68584554  1
  Lu  Lu10  1  0.32222177  0.00806731  0.68584554  1
  Lu  Lu11  1  0.67777823  0.99193269  0.31415446  1
  Al  Al0  1  0.00000000  0.00000000  0.00000000  1
  Co  Co0  1  0.34008219  1.00000000  0.34008219  1
  Co  Co1  1  0.65991781  0.00000000  0.65991781  1
  Co  Co2  1  0.11409209  0.61409209  0.50000000  1
  Co  Co3  1  0.88590791  0.38590791  0.50000000  1
  Bi  Bi0  1  0.50000000  0.50000000  0.00000000  1
loop_
_geom_bond_atom_site_label_1
_geom_bond_atom_site_label_2
_geom_bond_distance
_geom_bond_site_symmetry_2
Lu0 Lu6 3.391349 1_544
Lu0 Lu4 3.391362 1_555
Lu0 Lu7 3.444280 1_555
Lu0 Lu5 3.444285 1_555
Lu1 Lu7 3.391349 1_566
Lu1 Lu5 3.391362 1_555
Lu1 Lu6 3.444280 1_555
Lu1 Lu4 3.444285 1_555
Lu2 Lu7 3.391336 1_456
Lu2 Lu5 3.391351 1_445
Lu2 Lu6 3.444287 1_555
Lu2 Lu4 3.444290 1_555
Lu3 Lu6 3.391336 1_654
Lu3 Lu4 3.391351 1_665
Lu3 Lu7 3.444287 1_555
Lu3 Lu5 3.444290 1_555
Lu4 Lu7 3.359851 1_455
Lu4 Lu8 3.528523 1_555
Lu4 Lu9 3.547966 1_555
Lu5 Lu6 3.359851 1_655
Lu5 Lu9 3.528523 1_555
Lu5 Lu8 3.547966 1_555
Lu6 Lu9 3.528512 1_455
Lu6 Lu8 3.547959 1_556
Lu7 Lu8 3.528512 1_655
Lu7 Lu9 3.547959 1_554
Lu10 Lu5 3.528508 1_445
Lu10 Lu6 3.528510 1_545
Lu10 Lu4 3.547959 1_555
Lu10 Lu7 3.547964 1_556
Lu11 Lu4 3.528508 1_665
Lu11 Lu7 3.528510 1_565
Lu11 Lu5 3.547959 1_555
Lu11 Lu6 3.547964 1_554
Al0 Lu2 2.939483 1_554
Al0 Lu3 2.939483 1_445
Al0 Lu0 2.939491 1_555
Al0 Lu1 2.939491 1_444
Al0 Lu7 3.059145 1_455
Al0 Lu6 3.059145 1_544
Al0 Lu4 3.059152 1_555
Al0 Lu5 3.059152 1_444
Al0 Co0 3.178773 1_545
Al0 Co1 3.178773 1_454
Co0 Lu3 2.539702 1_455
Co0 Lu0 2.539717 1_565
Co0 Lu8 2.834806 1_555
Co0 Lu9 2.834810 1_565
Co0 Lu11 2.834813 1_555
Co0 Lu10 2.834813 1_565
Co0 Lu6 2.963575 1_554
Co0 Lu4 2.963577 1_565
Co0 Co1 2.989527 1_565
Co1 Lu2 2.539702 1_655
Co1 Lu1 2.539717 1_545
Co1 Lu9 2.834806 1_555
Co1 Lu8 2.834810 1_545
Co1 Lu10 2.834813 1_555
Co1 Lu11 2.834813 1_545
Co1 Lu7 2.963575 1_556
Co1 Lu5 2.963577 1_545
Co2 Co3 2.185403 1_455
Co2 Lu10 2.622255 1_565
Co2 Lu8 2.622256 1_555
Co2 Lu5 2.850582 1_455
Co2 Lu6 2.850584 1_555
Co2 Lu7 2.850584 1_455
Co2 Lu4 2.850586 1_555
Co2 Lu1 3.114894 1_555
Co2 Lu3 3.114897 1_455
Co3 Lu11 2.622255 1_545
Co3 Lu9 2.622256 1_555
Co3 Lu4 2.850582 1_655
Co3 Lu7 2.850584 1_555
Co3 Lu6 2.850584 1_655
Co3 Lu5 2.850586 1_555
Co3 Lu0 3.114894 1_555
Co3 Lu2 3.114897 1_655
Bi0 Lu1 3.220333 1_554
Bi0 Lu0 3.220333 1_555
Bi0 Lu3 3.220347 1_555
Bi0 Lu2 3.220347 1_554
Bi0 Lu11 3.345714 1_555
Bi0 Lu10 3.345714 1_554
Bi0 Lu8 3.345715 1_555
Bi0 Lu9 3.345715 1_554
Bi0 Lu4 3.615434 1_554
Bi0 Lu5 3.615434 1_555
Bi0 Lu7 3.615441 1_555
Bi0 Lu6 3.615441 1_554
