# generated using pymatgen
data_Ni3Hg2SbO8
_symmetry_space_group_name_H-M   'P 1'
_cell_length_a   6.26553122
_cell_length_b   6.17131440
_cell_length_c   6.17051916
_cell_angle_alpha   59.99162784
_cell_angle_beta   90.00873881
_cell_angle_gamma   119.48343634
_symmetry_Int_Tables_number   1
_chemical_formula_structural   Ni3Hg2SbO8
_chemical_formula_sum   'Ni3 Hg2 Sb1 O8'
_cell_volume   170.00723399
_cell_formula_units_Z   1
loop_
 _symmetry_equiv_pos_site_id
 _symmetry_equiv_pos_as_xyz
  1  'x, y, z'
loop_
 _atom_site_type_symbol
 _atom_site_label
 _atom_site_symmetry_multiplicity
 _atom_site_fract_x
 _atom_site_fract_y
 _atom_site_fract_z
 _atom_site_occupancy
  Ni  Ni0  1  0.37496879  0.24996486  0.37503335  1
  Ni  Ni1  1  0.37497607  0.74999430  0.37501638  1
  Ni  Ni2  1  0.37500547  0.75001090  0.87501180  1
  Hg  Hg0  1  0.95625924  0.97073545  0.01482515  1
  Hg  Hg1  1  0.79356161  0.52917103  0.73519653  1
  Sb  Sb0  1  0.87522933  0.25014788  0.37489412  1
  O  O0  1  0.13050945  0.27799872  0.14773081  1
  O  O1  1  0.61966137  0.22214196  0.17550243  1
  O  O2  1  0.53688467  0.69051758  0.15495170  1
  O  O3  1  0.13022681  0.70446073  0.14781387  1
  O  O4  1  0.61955755  0.22201747  0.60225667  1
  O  O5  1  0.13033429  0.27783794  0.57448729  1
  O  O6  1  0.21303057  0.80943663  0.59512659  1
  O  O7  1  0.61979978  0.79556254  0.60215332  1
loop_
_geom_bond_atom_site_label_1
_geom_bond_atom_site_label_2
_geom_bond_distance
_geom_bond_site_symmetry_2
Ni0 O6 1.963920 1_545
Ni0 O2 1.964062 1_555
Ni0 O0 2.088210 1_555
Ni0 O4 2.088472 1_555
Ni0 O5 2.089384 1_555
Ni0 O1 2.089736 1_555
Ni1 O2 1.968054 1_555
Ni1 O6 1.968248 1_555
Ni1 O3 2.089318 1_555
Ni1 O7 2.089355 1_555
Ni1 O1 2.090794 1_565
Ni1 O5 2.090850 1_555
Ni2 O2 1.969517 1_556
Ni2 O6 1.969616 1_555
Ni2 O3 2.089944 1_556
Ni2 O0 2.090198 1_556
Ni2 O4 2.090217 1_565
Ni2 O7 2.090260 1_555
Hg0 O2 2.162106 1_555
Hg0 O3 2.230659 1_655
Hg0 O0 2.231041 1_665
Hg0 O5 2.231480 1_664
Hg1 O6 2.162593 1_655
Hg1 O7 2.230134 1_555
Hg1 O4 2.230563 1_555
Hg1 O1 2.231246 1_556
O0 Sb0 2.010406 1_455
O1 Sb0 2.011809 1_555
O3 Sb0 2.009617 1_455
O4 Sb0 2.011931 1_555
O5 Sb0 2.010437 1_455
O7 Sb0 2.011013 1_565
