# generated using pymatgen
data_RbCaAsO4
_symmetry_space_group_name_H-M   'P 1'
_cell_length_a   10.48000731
_cell_length_b   10.48000759
_cell_length_c   10.48000763
_cell_angle_alpha   30.26200203
_cell_angle_beta   30.26199742
_cell_angle_gamma   30.26200096
_symmetry_Int_Tables_number   1
_chemical_formula_structural   RbCaAsO4
_chemical_formula_sum   'Rb2 Ca2 As2 O8'
_cell_volume   259.03849548
_cell_formula_units_Z   2
loop_
 _symmetry_equiv_pos_site_id
 _symmetry_equiv_pos_as_xyz
  1  'x, y, z'
loop_
 _atom_site_type_symbol
 _atom_site_label
 _atom_site_symmetry_multiplicity
 _atom_site_fract_x
 _atom_site_fract_y
 _atom_site_fract_z
 _atom_site_occupancy
  Rb  Rb0  1  0.28877904  0.28877904  0.28877904  1
  Rb  Rb1  1  0.71122096  0.71122096  0.71122096  1
  Ca  Ca0  1  0.16086303  0.16086303  0.16086303  1
  Ca  Ca1  1  0.83913697  0.83913697  0.83913697  1
  As  As0  1  0.43719947  0.43719947  0.43719947  1
  As  As1  1  0.56280053  0.56280053  0.56280053  1
  O  O0  1  0.73977491  0.47902340  0.15043444  1
  O  O1  1  0.52097660  0.84956656  0.26022309  1
  O  O2  1  0.38120468  0.38120468  0.38120468  1
  O  O3  1  0.15043444  0.73977691  0.47902240  1
  O  O4  1  0.84956556  0.26022309  0.52097760  1
  O  O5  1  0.61879532  0.61879532  0.61879532  1
  O  O6  1  0.47902340  0.15043344  0.73977691  1
  O  O7  1  0.26022509  0.52097660  0.84956556  1
loop_
_geom_bond_atom_site_label_1
_geom_bond_atom_site_label_2
_geom_bond_distance
_geom_bond_site_symmetry_2
Ca0 O3 2.321500 1_545
Ca0 O6 2.321501 1_554
Ca0 O0 2.321512 1_455
Ca0 O1 2.371050 1_545
Ca0 O4 2.371054 1_455
Ca0 O7 2.371059 1_554
Ca1 O4 2.321500 1_565
Ca1 O1 2.321501 1_556
Ca1 O7 2.321512 1_655
Ca1 O6 2.371050 1_565
Ca1 O3 2.371054 1_655
Ca1 O0 2.371059 1_556
As0 O2 1.678607 1_555
As0 O0 1.715308 1_555
As0 O3 1.715316 1_555
As0 O6 1.715319 1_555
As1 O5 1.678607 1_555
As1 O7 1.715308 1_555
As1 O4 1.715316 1_555
As1 O1 1.715319 1_555
O0 Rb1 2.995100 1_554
O1 Rb0 2.995106 1_565
O2 Rb0 2.770728 1_555
O2 Rb1 3.160321 1_455
O2 Rb1 3.160321 1_554
O2 Rb1 3.160321 1_545
O3 Rb1 2.995109 1_455
O4 Rb0 2.995109 1_655
O5 Rb1 2.770728 1_555
O5 Rb0 3.160321 1_655
O5 Rb0 3.160321 1_556
O5 Rb0 3.160321 1_565
O6 Rb1 2.995106 1_545
O7 Rb0 2.995100 1_556
