# generated using pymatgen
data_Li2HfScPt2
_symmetry_space_group_name_H-M   'P 1'
_cell_length_a   5.10412295
_cell_length_b   5.10412245
_cell_length_c   5.09075893
_cell_angle_alpha   90.00000000
_cell_angle_beta   90.00000000
_cell_angle_gamma   130.23072916
_symmetry_Int_Tables_number   1
_chemical_formula_structural   Li2HfScPt2
_chemical_formula_sum   'Li2 Hf1 Sc1 Pt2'
_cell_volume   101.25236998
_cell_formula_units_Z   1
loop_
 _symmetry_equiv_pos_site_id
 _symmetry_equiv_pos_as_xyz
  1  'x, y, z'
loop_
 _atom_site_type_symbol
 _atom_site_label
 _atom_site_symmetry_multiplicity
 _atom_site_fract_x
 _atom_site_fract_y
 _atom_site_fract_z
 _atom_site_occupancy
  Li  Li0  1  0.00177766  0.99822234  0.49918195  1
  Li  Li1  1  0.00177766  0.99822234  0.00081805  1
  Hf  Hf0  1  0.70954529  0.29045471  0.25000000  1
  Sc  Sc0  1  0.28953725  0.71046275  0.75000000  1
  Pt  Pt0  1  0.39513597  0.60486403  0.25000000  1
  Pt  Pt1  1  0.60222618  0.39777382  0.75000000  1
loop_
_geom_bond_atom_site_label_1
_geom_bond_atom_site_label_2
_geom_bond_distance
_geom_bond_site_symmetry_2
Li0 Li1 2.537050 1_555
Li0 Li1 2.553709 1_556
Li0 Pt1 2.666191 1_455
Li0 Pt1 2.666192 1_565
Li0 Pt0 2.682790 1_565
Li0 Pt0 2.682790 1_455
Li0 Sc0 2.954907 1_555
Li0 Sc0 3.179039 1_565
Li0 Sc0 3.179039 1_455
Li1 Pt1 2.666191 1_454
Li1 Pt1 2.666192 1_564
Li1 Pt0 2.682790 1_565
Li1 Pt0 2.682790 1_455
Li1 Sc0 2.954907 1_554
Li1 Sc0 3.179039 1_564
Li1 Sc0 3.179039 1_454
Hf0 Pt1 2.732517 1_554
Hf0 Pt1 2.732517 1_555
Hf0 Pt0 2.750769 1_545
Hf0 Pt0 2.750770 1_655
Hf0 Pt0 2.911581 1_555
Hf0 Li0 2.988769 1_645
Hf0 Li1 2.988769 1_645
Hf0 Li0 3.150236 1_655
Hf0 Li1 3.150236 1_655
Hf0 Li0 3.150236 1_545
Hf0 Li1 3.150236 1_545
Hf0 Sc0 3.411837 1_544
Hf0 Sc0 3.411837 1_545
Hf0 Sc0 3.411837 1_655
Hf0 Sc0 3.411837 1_654
Pt0 Sc0 2.726763 1_555
Pt0 Sc0 2.726763 1_554
Pt1 Sc0 2.760751 1_545
Pt1 Sc0 2.760752 1_655
Pt1 Sc0 2.895650 1_555
