# generated using pymatgen
data_Rb4NaScSe4
_symmetry_space_group_name_H-M   'P 1'
_cell_length_a   8.59467025
_cell_length_b   8.59467019
_cell_length_c   8.59467020
_cell_angle_alpha   132.04879541
_cell_angle_beta   128.76406820
_cell_angle_gamma   72.78979842
_symmetry_Int_Tables_number   1
_chemical_formula_structural   Rb4NaScSe4
_chemical_formula_sum   'Rb4 Na1 Sc1 Se4'
_cell_volume   359.14223456
_cell_formula_units_Z   1
loop_
 _symmetry_equiv_pos_site_id
 _symmetry_equiv_pos_as_xyz
  1  'x, y, z'
loop_
 _atom_site_type_symbol
 _atom_site_label
 _atom_site_symmetry_multiplicity
 _atom_site_fract_x
 _atom_site_fract_y
 _atom_site_fract_z
 _atom_site_occupancy
  Rb  Rb0  1  0.80695799  0.65944918  0.17056055  1
  Rb  Rb1  1  0.19304201  0.36360256  0.85249020  1
  Rb  Rb2  1  0.51111236  0.84055082  0.64750980  1
  Rb  Rb3  1  0.48888764  0.13639744  0.32943945  1
  Na  Na0  1  0.00000000  0.75000000  0.75000000  1
  Sc  Sc0  1  0.00000000  0.25000000  0.25000000  1
  Se  Se0  1  0.30298420  0.57545865  0.66893692  1
  Se  Se1  1  0.09347828  0.92454135  0.22752556  1
  Se  Se2  1  0.90652172  0.13404728  0.83106308  1
  Se  Se3  1  0.69701580  0.36595272  0.27247444  1
loop_
_geom_bond_atom_site_label_1
_geom_bond_atom_site_label_2
_geom_bond_distance
_geom_bond_site_symmetry_2
Rb0 Se1 3.436714 1_655
Rb0 Se0 3.488124 1_554
Rb0 Se2 3.581574 1_554
Rb0 Se3 3.664660 1_555
Rb0 Se2 3.815947 1_565
Rb1 Se2 3.436721 1_455
Rb1 Se3 3.488127 1_556
Rb1 Se1 3.581568 1_545
Rb1 Se0 3.664652 1_555
Rb1 Se1 3.815948 1_556
Rb2 Se0 3.436713 1_555
Rb2 Se1 3.488132 1_555
Rb2 Se3 3.581572 1_566
Rb2 Se2 3.664658 1_565
Rb2 Se3 3.815945 1_555
Rb3 Se3 3.436721 1_555
Rb3 Se2 3.488127 1_555
Rb3 Se0 3.581568 1_555
Rb3 Se1 3.664652 1_545
Rb3 Se0 3.815948 1_544
Na0 Se3 2.842022 1_455
Na0 Se1 2.842022 1_556
Na0 Se2 2.842022 1_465
Na0 Se0 2.842022 1_555
Sc0 Se0 2.578347 1_555
Sc0 Se2 2.578347 1_454
Sc0 Se1 2.578347 1_545
Sc0 Se3 2.578347 1_455
