# generated using pymatgen
data_Cs4InOsCl12
_symmetry_space_group_name_H-M   'P 1'
_cell_length_a   7.37248208
_cell_length_b   7.37248208
_cell_length_c   10.45559831
_cell_angle_alpha   90.00000000
_cell_angle_beta   90.00000000
_cell_angle_gamma   90.00000000
_symmetry_Int_Tables_number   1
_chemical_formula_structural   Cs4InOsCl12
_chemical_formula_sum   'Cs4 In1 Os1 Cl12'
_cell_volume   568.29827870
_cell_formula_units_Z   1
loop_
 _symmetry_equiv_pos_site_id
 _symmetry_equiv_pos_as_xyz
  1  'x, y, z'
loop_
 _atom_site_type_symbol
 _atom_site_label
 _atom_site_symmetry_multiplicity
 _atom_site_fract_x
 _atom_site_fract_y
 _atom_site_fract_z
 _atom_site_occupancy
  Cs  Cs0  1  0.50000000  0.00000000  0.77077466  1
  Cs  Cs1  1  0.00000000  0.50000000  0.22922534  1
  Cs  Cs2  1  0.50000000  0.00000000  0.22922534  1
  Cs  Cs3  1  0.00000000  0.50000000  0.77077466  1
  In  In0  1  0.00000000  0.00000000  0.00000000  1
  Os  Os0  1  0.50000000  0.50000000  0.50000000  1
  Cl  Cl0  1  0.00000000  0.00000000  0.75577274  1
  Cl  Cl1  1  0.50000000  0.50000000  0.27840165  1
  Cl  Cl2  1  0.72216824  0.72216824  0.50000000  1
  Cl  Cl3  1  0.24350984  0.24350984  0.00000000  1
  Cl  Cl4  1  0.72216824  0.27783176  0.50000000  1
  Cl  Cl5  1  0.24350984  0.75649016  0.00000000  1
  Cl  Cl6  1  0.00000000  0.00000000  0.24422726  1
  Cl  Cl7  1  0.50000000  0.50000000  0.72159835  1
  Cl  Cl8  1  0.27783176  0.27783176  0.50000000  1
  Cl  Cl9  1  0.75649016  0.75649016  0.00000000  1
  Cl  Cl10  1  0.27783176  0.72216824  0.50000000  1
  Cl  Cl11  1  0.75649016  0.24350984  0.00000000  1
loop_
_geom_bond_atom_site_label_1
_geom_bond_atom_site_label_2
_geom_bond_distance
_geom_bond_site_symmetry_2
Cl0 In0 2.553542 1_556
Cl0 Cs0 3.689577 1_455
Cl0 Cs3 3.689577 1_545
Cl0 Cs3 3.689577 1_555
Cl0 Cs0 3.689577 1_555
Cl1 Os0 2.316943 1_555
Cl1 Cs1 3.721927 1_655
Cl1 Cs2 3.721927 1_555
Cl1 Cs1 3.721927 1_555
Cl1 Cs2 3.721927 1_565
Cl2 Os0 2.316385 1_555
Cl2 Cs0 3.859220 1_565
Cl2 Cs3 3.859220 1_655
Cl2 Cs1 3.859220 1_655
Cl2 Cs2 3.859220 1_565
Cl3 In0 2.538898 1_555
Cl3 Cs2 3.541593 1_555
Cl3 Cs1 3.541593 1_555
Cl3 Cs0 3.541593 1_554
Cl3 Cs3 3.541593 1_554
Cl4 Os0 2.316385 1_555
Cl4 Cs0 3.859220 1_555
Cl4 Cs2 3.859220 1_555
Cl4 Cs3 3.859220 1_655
Cl4 Cs1 3.859220 1_655
Cl5 In0 2.538898 1_565
Cl5 Cs2 3.541593 1_565
Cl5 Cs1 3.541593 1_555
Cl5 Cs0 3.541593 1_564
Cl5 Cs3 3.541593 1_554
Cl6 In0 2.553542 1_555
Cl6 Cs1 3.689577 1_545
Cl6 Cs2 3.689577 1_555
Cl6 Cs1 3.689577 1_555
Cl6 Cs2 3.689577 1_455
Cl7 Os0 2.316943 1_555
Cl7 Cs3 3.721927 1_555
Cl7 Cs0 3.721927 1_565
Cl7 Cs0 3.721927 1_555
Cl7 Cs3 3.721927 1_655
Cl8 Os0 2.316385 1_555
Cl8 Cs0 3.859220 1_555
Cl8 Cs3 3.859220 1_555
Cl8 Cs1 3.859220 1_555
Cl8 Cs2 3.859220 1_555
Cl9 In0 2.538898 1_665
Cl9 Cs2 3.541593 1_565
Cl9 Cs1 3.541593 1_655
Cl9 Cs0 3.541593 1_564
Cl9 Cs3 3.541593 1_654
Cl10 Os0 2.316385 1_555
Cl10 Cs3 3.859220 1_555
Cl10 Cs0 3.859220 1_565
Cl10 Cs1 3.859220 1_555
Cl10 Cs2 3.859220 1_565
Cl11 In0 2.538898 1_655
Cl11 Cs1 3.541593 1_655
Cl11 Cs2 3.541593 1_555
Cl11 Cs3 3.541593 1_654
Cl11 Cs0 3.541593 1_554
