# generated using pymatgen
data_Zr3Al2AuO
_symmetry_space_group_name_H-M   'P 1'
_cell_length_a   8.65560856
_cell_length_b   8.65560952
_cell_length_c   8.65560781
_cell_angle_alpha   59.99999906
_cell_angle_beta   59.99999538
_cell_angle_gamma   60.00000060
_symmetry_Int_Tables_number   1
_chemical_formula_structural   Zr3Al2AuO
_chemical_formula_sum   'Zr12 Al8 Au4 O4'
_cell_volume   458.54062624
_cell_formula_units_Z   4
loop_
 _symmetry_equiv_pos_site_id
 _symmetry_equiv_pos_as_xyz
  1  'x, y, z'
loop_
 _atom_site_type_symbol
 _atom_site_label
 _atom_site_symmetry_multiplicity
 _atom_site_fract_x
 _atom_site_fract_y
 _atom_site_fract_z
 _atom_site_occupancy
  Zr  Zr0  1  0.56565252  0.93434748  0.56565252  1
  Zr  Zr1  1  0.31565252  0.68434748  0.68434748  1
  Zr  Zr2  1  0.68434748  0.31565252  0.31565252  1
  Zr  Zr3  1  0.31565252  0.68434748  0.31565252  1
  Zr  Zr4  1  0.68434748  0.68434748  0.31565252  1
  Zr  Zr5  1  0.31565252  0.31565252  0.68434748  1
  Zr  Zr6  1  0.56565252  0.56565252  0.93434748  1
  Zr  Zr7  1  0.93434748  0.56565252  0.56565252  1
  Zr  Zr8  1  0.56565252  0.93434748  0.93434748  1
  Zr  Zr9  1  0.93434748  0.93434748  0.56565252  1
  Zr  Zr10  1  0.68434748  0.31565252  0.68434748  1
  Zr  Zr11  1  0.93434748  0.56565252  0.93434748  1
  Al  Al0  1  0.33339240  0.33339240  0.33339240  1
  Al  Al1  1  0.25017620  0.91660760  0.91660760  1
  Al  Al2  1  0.91660760  0.25017620  0.91660760  1
  Al  Al3  1  0.91660760  0.91660760  0.25017620  1
  Al  Al4  1  0.33339240  0.99982380  0.33339240  1
  Al  Al5  1  0.33339240  0.33339240  0.99982380  1
  Al  Al6  1  0.99982380  0.33339240  0.33339240  1
  Al  Al7  1  0.91660760  0.91660760  0.91660760  1
  Au  Au0  1  0.12500000  0.12500000  0.12500000  1
  Au  Au1  1  0.62500000  0.12500000  0.12500000  1
  Au  Au2  1  0.12500000  0.62500000  0.12500000  1
  Au  Au3  1  0.12500000  0.12500000  0.62500000  1
  O  O0  1  0.62500000  0.62500000  0.62500000  1
  O  O1  1  0.12500000  0.62500000  0.62500000  1
  O  O2  1  0.62500000  0.12500000  0.62500000  1
  O  O3  1  0.62500000  0.62500000  0.12500000  1
loop_
_geom_bond_atom_site_label_1
_geom_bond_atom_site_label_2
_geom_bond_distance
_geom_bond_site_symmetry_2
Al0 Au3 2.650646 1_555
Al0 Au1 2.650646 1_555
Al0 Au2 2.650646 1_555
Al1 Au3 2.650641 1_565
Al1 Au2 2.650641 1_556
Al1 Au0 2.650648 1_566
Al2 Au3 2.650641 1_655
Al2 Au1 2.650641 1_556
Al2 Au0 2.650648 1_656
Al3 Au1 2.650641 1_565
Al3 Au2 2.650641 1_655
Al3 Au0 2.650648 1_665
Al4 Au3 2.650641 1_565
Al4 Au1 2.650641 1_565
Al4 Au0 2.650648 1_565
Al5 Au1 2.650641 1_556
Al5 Au2 2.650641 1_556
Al5 Au0 2.650648 1_556
Al6 Au3 2.650641 1_655
Al6 Au2 2.650641 1_655
Al6 Au0 2.650648 1_655
Al7 Au3 2.650646 1_665
Al7 Au1 2.650646 1_566
Al7 Au2 2.650646 1_656
Au0 Zr9 3.182590 1_445
Au0 Zr5 3.182590 1_554
Au0 Zr2 3.182590 1_455
Au0 Zr8 3.182590 1_544
Au0 Zr11 3.182591 1_454
Au0 Zr3 3.182591 1_545
Au1 Zr0 3.182590 1_545
Au1 Zr10 3.182590 1_554
Au1 Zr2 3.182591 1_555
Au1 Zr8 3.182591 1_544
Au1 Zr6 3.182591 1_554
Au1 Zr4 3.182591 1_545
Au2 Zr7 3.182590 1_455
Au2 Zr1 3.182590 1_554
Au2 Zr6 3.182590 1_554
Au2 Zr4 3.182590 1_455
Au2 Zr3 3.182590 1_555
Au2 Zr11 3.182590 1_454
Au3 Zr0 3.182590 1_545
Au3 Zr10 3.182590 1_455
Au3 Zr5 3.182591 1_555
Au3 Zr9 3.182591 1_445
Au3 Zr7 3.182591 1_455
Au3 Zr1 3.182591 1_545
O0 Zr6 2.282591 1_555
O0 Zr4 2.282591 1_555
O0 Zr7 2.282592 1_555
O0 Zr1 2.282592 1_555
O0 Zr0 2.282592 1_555
O0 Zr10 2.282592 1_555
O1 Zr11 2.282591 1_455
O1 Zr3 2.282591 1_555
O1 Zr1 2.282592 1_555
O1 Zr7 2.282592 1_455
O1 Zr9 2.282592 1_455
O1 Zr5 2.282592 1_555
O2 Zr8 2.282591 1_545
O2 Zr2 2.282591 1_555
O2 Zr9 2.282592 1_545
O2 Zr5 2.282592 1_555
O2 Zr10 2.282592 1_555
O2 Zr0 2.282592 1_545
O3 Zr11 2.282591 1_554
O3 Zr3 2.282591 1_555
O3 Zr4 2.282592 1_555
O3 Zr6 2.282592 1_554
O3 Zr8 2.282592 1_554
O3 Zr2 2.282592 1_555
