# generated using pymatgen
data_Ho5Pb3
_symmetry_space_group_name_H-M   'P 1'
_cell_length_a   8.95661175
_cell_length_b   8.95659911
_cell_length_c   6.58411191
_cell_angle_alpha   90.00000000
_cell_angle_beta   90.00000000
_cell_angle_gamma   119.99995531
_symmetry_Int_Tables_number   1
_chemical_formula_structural   Ho5Pb3
_chemical_formula_sum   'Ho10 Pb6'
_cell_volume   457.41975389
_cell_formula_units_Z   2
loop_
 _symmetry_equiv_pos_site_id
 _symmetry_equiv_pos_as_xyz
  1  'x, y, z'
loop_
 _atom_site_type_symbol
 _atom_site_label
 _atom_site_symmetry_multiplicity
 _atom_site_fract_x
 _atom_site_fract_y
 _atom_site_fract_z
 _atom_site_occupancy
  Ho  Ho0  1  0.33333300  0.66666700  -0.00000000  1
  Ho  Ho1  1  0.66666700  0.33333300  0.50000000  1
  Ho  Ho2  1  0.66666700  0.33333300  -0.00000000  1
  Ho  Ho3  1  0.33333300  0.66666700  0.50000000  1
  Ho  Ho4  1  0.23750667  -0.00000000  0.25000000  1
  Ho  Ho5  1  0.23750667  0.23750667  0.75000000  1
  Ho  Ho6  1  -0.00000000  0.76249333  0.75000000  1
  Ho  Ho7  1  0.00000000  0.23750667  0.25000000  1
  Ho  Ho8  1  0.76249333  0.76249333  0.25000000  1
  Ho  Ho9  1  0.76249333  0.00000000  0.75000000  1
  Pb  Pb0  1  0.60639464  0.00000000  0.25000000  1
  Pb  Pb1  1  0.60639464  0.60639464  0.75000000  1
  Pb  Pb2  1  0.00000000  0.39360536  0.75000000  1
  Pb  Pb3  1  -0.00000000  0.60639464  0.25000000  1
  Pb  Pb4  1  0.39360536  0.39360536  0.25000000  1
  Pb  Pb5  1  0.39360536  -0.00000000  0.75000000  1
loop_
_geom_bond_atom_site_label_1
_geom_bond_atom_site_label_2
_geom_bond_distance
_geom_bond_site_symmetry_2
Ho0 Pb5 3.209755 1_564
Ho0 Pb3 3.209759 1_555
Ho0 Pb0 3.209760 1_565
Ho0 Pb2 3.209761 1_554
Ho0 Pb4 3.209762 1_555
Ho0 Pb1 3.209765 1_554
Ho1 Pb0 3.209755 1_555
Ho1 Pb2 3.209759 1_655
Ho1 Pb5 3.209760 1_555
Ho1 Pb3 3.209761 1_655
Ho1 Pb1 3.209762 1_555
Ho1 Pb4 3.209765 1_555
Ho2 Pb0 3.209755 1_555
Ho2 Pb2 3.209759 1_654
Ho2 Pb5 3.209760 1_554
Ho2 Pb3 3.209761 1_655
Ho2 Pb1 3.209762 1_554
Ho2 Pb4 3.209765 1_555
Ho3 Pb5 3.209755 1_565
Ho3 Pb3 3.209759 1_555
Ho3 Pb0 3.209760 1_565
Ho3 Pb2 3.209761 1_555
Ho3 Pb4 3.209762 1_555
Ho3 Pb1 3.209765 1_555
Ho4 Pb4 3.074747 1_555
Ho4 Pb3 3.074748 1_545
Ho4 Pb0 3.303986 1_555
Ho4 Pb5 3.576641 1_555
Ho4 Pb5 3.576641 1_554
Ho5 Pb5 3.074747 1_555
Ho5 Pb2 3.074748 1_555
Ho5 Pb1 3.303986 1_555
Ho5 Pb4 3.576641 1_555
Ho5 Pb4 3.576641 1_556
Ho6 Pb5 3.074751 1_565
Ho6 Pb1 3.074751 1_455
Ho6 Pb2 3.303982 1_555
Ho6 Pb3 3.576640 1_556
Ho6 Pb3 3.576640 1_555
Ho7 Pb0 3.074751 1_455
Ho7 Pb4 3.074751 1_555
Ho7 Pb3 3.303982 1_555
Ho7 Pb2 3.576640 1_554
Ho7 Pb2 3.576640 1_555
Ho8 Pb0 3.074747 1_565
Ho8 Pb3 3.074748 1_655
Ho8 Pb4 3.303986 1_555
Ho8 Pb1 3.576641 1_554
Ho8 Pb1 3.576641 1_555
Ho9 Pb1 3.074747 1_545
Ho9 Pb2 3.074748 1_655
Ho9 Pb5 3.303986 1_555
Ho9 Pb0 3.576641 1_555
Ho9 Pb0 3.576641 1_556
