# generated using pymatgen
data_RbP2RuO8
_symmetry_space_group_name_H-M   'P 1'
_cell_length_a   4.79720303
_cell_length_b   4.79720300
_cell_length_c   8.67563586
_cell_angle_alpha   90.00000000
_cell_angle_beta   90.00000000
_cell_angle_gamma   119.99999841
_symmetry_Int_Tables_number   1
_chemical_formula_structural   RbP2RuO8
_chemical_formula_sum   'Rb1 P2 Ru1 O8'
_cell_volume   172.90523800
_cell_formula_units_Z   1
loop_
 _symmetry_equiv_pos_site_id
 _symmetry_equiv_pos_as_xyz
  1  'x, y, z'
loop_
 _atom_site_type_symbol
 _atom_site_label
 _atom_site_symmetry_multiplicity
 _atom_site_fract_x
 _atom_site_fract_y
 _atom_site_fract_z
 _atom_site_occupancy
  Rb  Rb0  1  0.00000000  0.00000000  0.00000000  1
  P  P0  1  0.33333300  0.66666700  0.69690620  1
  P  P1  1  0.66666700  0.33333300  0.30309380  1
  Ru  Ru0  1  0.00000000  0.00000000  0.50000000  1
  O  O0  1  0.66666700  0.33333300  0.13254437  1
  O  O1  1  0.65169632  0.94902314  0.63131209  1
  O  O2  1  0.29732782  0.34830368  0.63131209  1
  O  O3  1  0.33333300  0.66666700  0.86745563  1
  O  O4  1  0.70267218  0.65169632  0.36868791  1
  O  O5  1  0.34830368  0.05097686  0.36868791  1
  O  O6  1  0.94902314  0.29732782  0.36868791  1
  O  O7  1  0.05097686  0.70267218  0.63131209  1
loop_
_geom_bond_atom_site_label_1
_geom_bond_atom_site_label_2
_geom_bond_distance
_geom_bond_site_symmetry_2
O0 P1 1.479625 1_555
O0 Rb0 2.998887 1_655
O0 Rb0 2.998891 1_665
O0 Rb0 2.998891 1_555
O1 P0 1.556398 1_555
O1 Ru0 1.934130 1_665
O2 P0 1.556401 1_555
O2 Ru0 1.934131 1_555
O3 P0 1.479625 1_555
O3 Rb0 2.998887 1_566
O3 Rb0 2.998891 1_556
O3 Rb0 2.998891 1_666
O4 P1 1.556401 1_555
O4 Ru0 1.934131 1_665
O5 P1 1.556398 1_555
O5 Ru0 1.934130 1_555
O6 P1 1.556392 1_555
O6 Ru0 1.934134 1_655
O7 P0 1.556392 1_555
O7 Ru0 1.934134 1_565
