# generated using pymatgen
data_YAl3CdNi
_symmetry_space_group_name_H-M   'P 1'
_cell_length_a   8.11441840
_cell_length_b   8.11441798
_cell_length_c   6.56523311
_cell_angle_alpha   90.00000000
_cell_angle_beta   90.00000000
_cell_angle_gamma   150.62326347
_symmetry_Int_Tables_number   1
_chemical_formula_structural   YAl3CdNi
_chemical_formula_sum   'Y2 Al6 Cd2 Ni2'
_cell_volume   212.05483818
_cell_formula_units_Z   2
loop_
 _symmetry_equiv_pos_site_id
 _symmetry_equiv_pos_as_xyz
  1  'x, y, z'
loop_
 _atom_site_type_symbol
 _atom_site_label
 _atom_site_symmetry_multiplicity
 _atom_site_fract_x
 _atom_site_fract_y
 _atom_site_fract_z
 _atom_site_occupancy
  Y  Y0  1  0.62404212  0.37595788  0.25000000  1
  Y  Y1  1  0.37595788  0.62404212  0.75000000  1
  Al  Al0  1  0.19110456  0.80889544  0.94692173  1
  Al  Al1  1  0.80889544  0.19110456  0.05307827  1
  Al  Al2  1  0.80889544  0.19110456  0.44692173  1
  Al  Al3  1  0.19110456  0.80889544  0.55307827  1
  Al  Al4  1  0.57868248  0.42131752  0.75000000  1
  Al  Al5  1  0.42131752  0.57868248  0.25000000  1
  Cd  Cd0  1  0.00000000  0.00000000  0.50000000  1
  Cd  Cd1  1  0.00000000  0.00000000  0.00000000  1
  Ni  Ni0  1  0.72511573  0.27488427  0.75000000  1
  Ni  Ni1  1  0.27488427  0.72511573  0.25000000  1
loop_
_geom_bond_atom_site_label_1
_geom_bond_atom_site_label_2
_geom_bond_distance
_geom_bond_site_symmetry_2
Al0 Ni1 2.385164 1_556
Al0 Ni0 2.487936 1_455
Al0 Ni0 2.487936 1_565
Al0 Cd1 3.020219 1_566
Al0 Y0 3.049736 1_566
Al0 Y0 3.049736 1_456
Al0 Y1 3.176874 1_555
Al1 Ni0 2.385164 1_554
Al1 Ni1 2.487936 1_655
Al1 Ni1 2.487936 1_545
Al1 Cd1 3.020219 1_655
Al1 Y1 3.049736 1_544
Al1 Y1 3.049736 1_654
Al1 Y0 3.176874 1_555
Al2 Ni0 2.385164 1_555
Al2 Ni1 2.487936 1_655
Al2 Ni1 2.487936 1_545
Al2 Cd0 3.020219 1_655
Al2 Y1 3.049736 1_545
Al2 Y1 3.049736 1_655
Al2 Y0 3.176874 1_555
Al3 Ni1 2.385164 1_555
Al3 Ni0 2.487936 1_455
Al3 Ni0 2.487936 1_565
Al3 Cd0 3.020219 1_565
Al3 Y0 3.049736 1_565
Al3 Y0 3.049736 1_455
Al3 Y1 3.176874 1_555
Al4 Ni0 2.298777 1_555
Al4 Cd0 2.907391 1_665
Al4 Cd1 2.907391 1_666
Al4 Cd0 2.907391 1_555
Al4 Cd1 2.907391 1_556
Al4 Y1 3.182465 1_555
Al4 Y0 3.358962 1_556
Al4 Y0 3.358962 1_555
Al5 Ni1 2.298777 1_555
Al5 Cd0 2.907391 1_555
Al5 Cd1 2.907391 1_555
Al5 Cd0 2.907391 1_665
Al5 Cd1 2.907391 1_665
Al5 Y0 3.182465 1_555
Al5 Y1 3.358962 1_555
Al5 Y1 3.358962 1_554
Cd0 Y1 3.274001 1_555
Cd0 Y0 3.274001 1_445
Cd0 Y0 3.274001 1_555
Cd0 Y1 3.274001 1_445
Cd1 Y1 3.274001 1_554
Cd1 Y0 3.274001 1_445
Cd1 Y0 3.274001 1_555
Cd1 Y1 3.274001 1_444
Ni0 Y1 3.136989 1_545
Ni0 Y1 3.136990 1_655
Ni1 Y0 3.136989 1_565
Ni1 Y0 3.136990 1_455
