# generated using pymatgen
data_Zr6Al16Os4Pt3
_symmetry_space_group_name_H-M   'P 1'
_cell_length_a   8.70475855
_cell_length_b   8.70475928
_cell_length_c   8.75349559
_cell_angle_alpha   59.81461933
_cell_angle_beta   59.81461651
_cell_angle_gamma   60.37077299
_symmetry_Int_Tables_number   1
_chemical_formula_structural   Zr6Al16Os4Pt3
_chemical_formula_sum   'Zr6 Al16 Os4 Pt3'
_cell_volume   468.97820511
_cell_formula_units_Z   1
loop_
 _symmetry_equiv_pos_site_id
 _symmetry_equiv_pos_as_xyz
  1  'x, y, z'
loop_
 _atom_site_type_symbol
 _atom_site_label
 _atom_site_symmetry_multiplicity
 _atom_site_fract_x
 _atom_site_fract_y
 _atom_site_fract_z
 _atom_site_occupancy
  Zr  Zr0  1  0.66943226  0.66943226  0.33056774  1
  Zr  Zr1  1  0.29628296  0.70371704  0.29628296  1
  Zr  Zr2  1  0.70371704  0.29628296  0.29628296  1
  Zr  Zr3  1  0.33056774  0.33056774  0.66943226  1
  Zr  Zr4  1  0.70371704  0.29628296  0.70371704  1
  Zr  Zr5  1  0.29628296  0.70371704  0.70371704  1
  Al  Al0  1  0.87264236  0.87264236  0.36366114  1
  Al  Al1  1  0.89105414  0.36366114  0.87264236  1
  Al  Al2  1  0.36366114  0.89105414  0.87264236  1
  Al  Al3  1  0.87264236  0.87264236  0.89105414  1
  Al  Al4  1  0.12735764  0.12735764  0.63633886  1
  Al  Al5  1  0.10894586  0.63633886  0.12735764  1
  Al  Al6  1  0.63633886  0.10894586  0.12735764  1
  Al  Al7  1  0.12735764  0.12735764  0.10894586  1
  Al  Al8  1  0.66279324  0.66279324  0.01181208  1
  Al  Al9  1  0.66260244  0.01181208  0.66279324  1
  Al  Al10  1  0.01181208  0.66260244  0.66279324  1
  Al  Al11  1  0.66279324  0.66279324  0.66260244  1
  Al  Al12  1  0.33720676  0.33720676  0.98818792  1
  Al  Al13  1  0.33739756  0.98818792  0.33720676  1
  Al  Al14  1  0.98818792  0.33739756  0.33720676  1
  Al  Al15  1  0.33720676  0.33720676  0.33739756  1
  Os  Os0  1  0.50000000  0.00000000  0.50000000  1
  Os  Os1  1  0.00000000  0.50000000  0.50000000  1
  Os  Os2  1  0.00000000  0.50000000  0.00000000  1
  Os  Os3  1  0.50000000  0.00000000  0.00000000  1
  Pt  Pt0  1  0.00000000  0.00000000  0.00000000  1
  Pt  Pt1  1  0.00000000  0.00000000  0.50000000  1
  Pt  Pt2  1  0.50000000  0.50000000  0.00000000  1
loop_
_geom_bond_atom_site_label_1
_geom_bond_atom_site_label_2
_geom_bond_distance
_geom_bond_site_symmetry_2
Al0 Pt0 2.590189 1_665
Al0 Os0 2.656535 1_565
Al0 Os1 2.656536 1_655
Al0 Pt1 2.785419 1_665
Al0 Zr1 3.071225 1_655
Al0 Zr2 3.071225 1_565
Al1 Pt0 2.590190 1_656
Al1 Os1 2.656535 1_655
Al1 Os2 2.656535 1_656
Al1 Pt2 2.785419 1_556
Al1 Zr2 3.071225 1_556
Al1 Zr4 3.071225 1_555
Al2 Pt0 2.590189 1_566
Al2 Os0 2.656535 1_565
Al2 Os3 2.656535 1_566
Al2 Pt2 2.785419 1_556
Al2 Zr5 3.071225 1_555
Al2 Zr1 3.071225 1_556
Al3 Pt0 2.590189 1_666
Al3 Os3 2.656535 1_566
Al3 Os2 2.656536 1_656
Al3 Pt1 2.785419 1_665
Al3 Zr5 3.071225 1_655
Al3 Zr4 3.071225 1_565
Al4 Pt0 2.590189 1_556
Al4 Os0 2.656535 1_555
Al4 Os1 2.656536 1_555
Al4 Pt1 2.785419 1_555
Al4 Zr4 3.071225 1_455
Al4 Zr5 3.071225 1_545
Al5 Pt0 2.590190 1_565
Al5 Os2 2.656535 1_555
Al5 Os1 2.656535 1_555
Al5 Pt2 2.785419 1_555
Al5 Zr5 3.071225 1_554
Al5 Zr1 3.071225 1_555
Al6 Pt0 2.590189 1_655
Al6 Os0 2.656535 1_555
Al6 Os3 2.656535 1_555
Al6 Pt2 2.785419 1_555
Al6 Zr2 3.071225 1_555
Al6 Zr4 3.071225 1_554
Al7 Pt0 2.590189 1_555
Al7 Os3 2.656535 1_555
Al7 Os2 2.656536 1_555
Al7 Pt1 2.785419 1_555
Al7 Zr2 3.071225 1_455
Al7 Zr1 3.071225 1_545
Al8 Pt2 2.511401 1_555
Al8 Os2 2.522717 1_655
Al8 Os3 2.522718 1_565
Al8 Zr0 2.849500 1_555
Al8 Zr1 2.878453 1_555
Al8 Zr2 2.878453 1_555
Al9 Pt1 2.511394 1_655
Al9 Os3 2.522717 1_556
Al9 Os0 2.522725 1_555
Al9 Zr3 2.849505 1_555
Al9 Zr4 2.878447 1_555
Al9 Zr2 2.878453 1_555
Al10 Pt1 2.511394 1_565
Al10 Os2 2.522717 1_556
Al10 Os1 2.522725 1_555
Al10 Zr3 2.849505 1_555
Al10 Zr5 2.878447 1_555
Al10 Zr1 2.878453 1_555
Al11 Pt2 2.511396 1_556
Al11 Os1 2.522720 1_655
Al11 Os0 2.522720 1_565
Al11 Zr0 2.849509 1_555
Al11 Zr5 2.878456 1_555
Al11 Zr4 2.878456 1_555
Al12 Pt2 2.511401 1_556
Al12 Os2 2.522717 1_556
Al12 Os3 2.522718 1_556
Al12 Zr3 2.849500 1_555
Al12 Zr4 2.878453 1_555
Al12 Zr5 2.878453 1_555
Al13 Pt1 2.511394 1_565
Al13 Os3 2.522717 1_565
Al13 Os0 2.522725 1_565
Al13 Zr0 2.849505 1_555
Al13 Zr1 2.878447 1_555
Al13 Zr5 2.878453 1_555
Al14 Pt1 2.511394 1_655
Al14 Os2 2.522717 1_655
Al14 Os1 2.522725 1_655
Al14 Zr0 2.849505 1_555
Al14 Zr2 2.878447 1_555
Al14 Zr4 2.878453 1_555
Al15 Pt2 2.511396 1_555
Al15 Os1 2.522720 1_555
Al15 Os0 2.522720 1_555
Al15 Zr3 2.849509 1_555
Al15 Zr2 2.878456 1_555
Al15 Zr1 2.878456 1_555
Os0 Zr2 3.113442 1_555
Os0 Zr5 3.113442 1_545
Os1 Zr1 3.113441 1_555
Os1 Zr4 3.113441 1_455
Os2 Zr5 3.113441 1_554
Os2 Zr2 3.113441 1_455
Os3 Zr4 3.113442 1_554
Os3 Zr1 3.113442 1_545
Pt1 Zr4 3.147417 1_455
Pt1 Zr5 3.147417 1_545
Pt1 Zr1 3.147417 1_545
Pt1 Zr2 3.147417 1_455
Pt2 Zr2 3.147417 1_555
Pt2 Zr1 3.147417 1_555
Pt2 Zr5 3.147417 1_554
Pt2 Zr4 3.147417 1_554
