# generated using pymatgen
data_Y2B(PtRh2)2
_symmetry_space_group_name_H-M   'P 1'
_cell_length_a   5.82917724
_cell_length_b   5.82917674
_cell_length_c   5.80156281
_cell_angle_alpha   60.15658173
_cell_angle_beta   60.15658457
_cell_angle_gamma   59.79839369
_symmetry_Int_Tables_number   1
_chemical_formula_structural   Y2B(PtRh2)2
_chemical_formula_sum   'Y2 B1 Pt2 Rh4'
_cell_volume   139.50800518
_cell_formula_units_Z   1
loop_
 _symmetry_equiv_pos_site_id
 _symmetry_equiv_pos_as_xyz
  1  'x, y, z'
loop_
 _atom_site_type_symbol
 _atom_site_label
 _atom_site_symmetry_multiplicity
 _atom_site_fract_x
 _atom_site_fract_y
 _atom_site_fract_z
 _atom_site_occupancy
  Y  Y0  1  0.24985441  0.24985441  0.25100846  1
  Y  Y1  1  0.75014559  0.75014559  0.75071727  1
  B  B0  1  0.00000000  0.00000000  0.99260312  1
  Pt  Pt0  1  0.74219758  0.25780342  0.25848926  1
  Pt  Pt1  1  0.25780342  0.74219758  0.25848926  1
  Rh  Rh0  1  0.74457380  0.74457380  0.25682388  1
  Rh  Rh1  1  0.25827274  0.74172826  0.74295013  1
  Rh  Rh2  1  0.25542620  0.25542620  0.74597147  1
  Rh  Rh3  1  0.74172826  0.25827274  0.74295013  1
loop_
_geom_bond_atom_site_label_1
_geom_bond_atom_site_label_2
_geom_bond_distance
_geom_bond_site_symmetry_2
B0 Rh3 2.085800 1_455
B0 Rh1 2.085800 1_545
B0 Rh2 2.114438 1_555
B0 Rh0 2.114438 1_446
B0 Pt0 2.150367 1_456
B0 Pt1 2.150367 1_546
Pt0 Y0 2.915004 1_655
Pt0 Y1 2.915010 1_545
Pt0 Y1 2.915545 1_554
Pt0 Y0 2.915551 1_555
Pt1 Y0 2.915004 1_565
Pt1 Y1 2.915010 1_455
Pt1 Y1 2.915545 1_554
Pt1 Y0 2.915551 1_555
Rh0 Y1 2.898046 1_555
Rh0 Y1 2.904250 1_554
Rh0 Y0 2.906033 1_565
Rh0 Y0 2.906033 1_655
Rh1 Y1 2.915079 1_555
Rh1 Y0 2.915084 1_556
Rh1 Y0 2.915609 1_565
Rh1 Y1 2.915615 1_455
Rh2 Y0 2.898046 1_556
Rh2 Y0 2.904250 1_555
Rh2 Y1 2.906033 1_545
Rh2 Y1 2.906033 1_455
Rh3 Y1 2.915078 1_555
Rh3 Y0 2.915085 1_556
Rh3 Y0 2.915609 1_655
Rh3 Y1 2.915614 1_545
