# generated using pymatgen
data_CsRb2CdH5
_symmetry_space_group_name_H-M   'P 1'
_cell_length_a   8.41455760
_cell_length_b   8.41455731
_cell_length_c   8.41455707
_cell_angle_alpha   122.51164515
_cell_angle_beta   122.51163993
_cell_angle_gamma   85.70211023
_symmetry_Int_Tables_number   1
_chemical_formula_structural   CsRb2CdH5
_chemical_formula_sum   'Cs2 Rb4 Cd2 H10'
_cell_volume   404.05485104
_cell_formula_units_Z   2
loop_
 _symmetry_equiv_pos_site_id
 _symmetry_equiv_pos_as_xyz
  1  'x, y, z'
loop_
 _atom_site_type_symbol
 _atom_site_label
 _atom_site_symmetry_multiplicity
 _atom_site_fract_x
 _atom_site_fract_y
 _atom_site_fract_z
 _atom_site_occupancy
  Cs  Cs0  1  0.25000000  0.25000000  0.00000000  1
  Cs  Cs1  1  0.75000000  0.75000000  0.00000000  1
  Rb  Rb0  1  0.81863745  0.31863745  0.13727589  1
  Rb  Rb1  1  0.68136255  0.81863745  0.50000000  1
  Rb  Rb2  1  0.31863745  0.18136255  0.50000000  1
  Rb  Rb3  1  0.18136255  0.68136255  0.86272411  1
  Cd  Cd0  1  0.25000000  0.75000000  0.50000000  1
  Cd  Cd1  1  0.75000000  0.25000000  0.50000000  1
  H  H0  1  0.00000000  0.00000000  0.00000000  1
  H  H1  1  0.50000000  0.50000000  0.00000000  1
  H  H2  1  0.28572747  0.53186349  0.50000000  1
  H  H3  1  0.03186349  0.78572747  0.50000000  1
  H  H4  1  0.78572747  0.28572747  0.75386398  1
  H  H5  1  0.53186349  0.03186349  0.24613602  1
  H  H6  1  0.46813651  0.96813651  0.75386398  1
  H  H7  1  0.21427253  0.71427253  0.24613602  1
  H  H8  1  0.96813651  0.21427253  0.50000000  1
  H  H9  1  0.71427253  0.46813651  0.50000000  1
loop_
_geom_bond_atom_site_label_1
_geom_bond_atom_site_label_2
_geom_bond_distance
_geom_bond_site_symmetry_2
Cs0 H1 3.084458 1_555
Cs0 H0 3.084458 1_555
Cs0 H2 3.381950 1_555
Cs0 H6 3.381950 1_544
Cs0 H7 3.381950 1_555
Cs0 H3 3.381950 1_544
Cs0 H8 3.381950 1_454
Cs0 H5 3.381950 1_555
Cs0 H4 3.381950 1_454
Cs0 H9 3.381950 1_555
Cs1 H1 3.084458 1_555
Cs1 H0 3.084458 1_665
Cs1 H9 3.381950 1_554
Cs1 H5 3.381950 1_565
Cs1 H4 3.381950 1_554
Cs1 H8 3.381950 1_565
Cs1 H3 3.381950 1_655
Cs1 H6 3.381950 1_554
Cs1 H7 3.381950 1_655
Cs1 H2 3.381950 1_554
Cd0 H7 1.837610 1_555
Cd0 H2 1.837610 1_555
Cd0 H3 1.837611 1_555
Cd0 H6 1.837611 1_555
Cd1 H4 1.837610 1_555
Cd1 H9 1.837610 1_555
Cd1 H8 1.837611 1_555
Cd1 H5 1.837611 1_555
H0 Rb2 2.967230 1_555
H0 Rb1 2.967230 1_444
H0 Rb0 2.967232 1_455
H0 Rb3 2.967232 1_544
H1 Rb1 2.967230 1_555
H1 Rb2 2.967230 1_554
H1 Rb0 2.967232 1_555
H1 Rb3 2.967232 1_554
H2 Rb2 2.941548 1_555
H2 Rb3 3.202776 1_555
H2 Rb0 3.202784 1_455
H3 Rb1 2.941548 1_455
H3 Rb3 3.202777 1_555
H3 Rb0 3.202784 1_455
H4 Rb0 2.941556 1_556
H4 Rb1 3.202784 1_545
H4 Rb2 3.202784 1_555
H5 Rb3 2.941548 1_544
H5 Rb2 3.202784 1_555
H5 Rb1 3.202784 1_545
H6 Rb0 2.941548 1_566
H6 Rb1 3.202784 1_555
H6 Rb2 3.202784 1_565
H7 Rb3 2.941556 1_554
H7 Rb2 3.202784 1_565
H7 Rb1 3.202784 1_555
H8 Rb2 2.941548 1_655
H8 Rb0 3.202777 1_555
H8 Rb3 3.202784 1_655
H9 Rb1 2.941548 1_555
H9 Rb0 3.202776 1_555
H9 Rb3 3.202784 1_655
