# generated using pymatgen
data_HfZr2PbC2
_symmetry_space_group_name_H-M   'P 1'
_cell_length_a   3.36793251
_cell_length_b   3.36793285
_cell_length_c   20.14121696
_cell_angle_alpha   90.00000000
_cell_angle_beta   90.00000000
_cell_angle_gamma   119.99998697
_symmetry_Int_Tables_number   1
_chemical_formula_structural   HfZr2PbC2
_chemical_formula_sum   'Hf2 Zr4 Pb2 C4'
_cell_volume   197.85325508
_cell_formula_units_Z   2
loop_
 _symmetry_equiv_pos_site_id
 _symmetry_equiv_pos_as_xyz
  1  'x, y, z'
loop_
 _atom_site_type_symbol
 _atom_site_label
 _atom_site_symmetry_multiplicity
 _atom_site_fract_x
 _atom_site_fract_y
 _atom_site_fract_z
 _atom_site_occupancy
  Hf  Hf0  1  0.00000000  0.00000000  0.00000000  1
  Hf  Hf1  1  0.00000000  0.00000000  0.50000000  1
  Zr  Zr0  1  0.66666800  0.33333500  0.12520098  1
  Zr  Zr1  1  0.66666800  0.33333500  0.37479902  1
  Zr  Zr2  1  0.33333300  0.66666600  0.62520098  1
  Zr  Zr3  1  0.33333300  0.66666600  0.87479902  1
  Pb  Pb0  1  0.00000000  0.00000000  0.25000000  1
  Pb  Pb1  1  0.00000000  0.00000000  0.75000000  1
  C  C0  1  0.33333300  0.66666600  0.06709928  1
  C  C1  1  0.33333300  0.66666600  0.43290072  1
  C  C2  1  0.66666800  0.33333500  0.56709928  1
  C  C3  1  0.66666800  0.33333500  0.93290072  1
loop_
_geom_bond_atom_site_label_1
_geom_bond_atom_site_label_2
_geom_bond_distance
_geom_bond_site_symmetry_2
Pb0 Zr0 3.177920 1_445
Pb0 Zr1 3.177920 1_445
Pb0 Zr0 3.177924 1_455
Pb0 Zr1 3.177924 1_455
Pb0 Zr0 3.177926 1_555
Pb0 Zr1 3.177926 1_555
Pb1 Zr2 3.177922 1_555
Pb1 Zr3 3.177922 1_555
Pb1 Zr2 3.177924 1_545
Pb1 Zr3 3.177924 1_545
Pb1 Zr2 3.177924 1_445
Pb1 Zr3 3.177924 1_445
C0 Zr0 2.269456 1_455
C0 Zr0 2.269458 1_555
C0 Zr0 2.269466 1_565
C0 Hf0 2.368002 1_555
C0 Hf0 2.368004 1_565
C0 Hf0 2.368004 1_665
C1 Zr1 2.269456 1_455
C1 Zr1 2.269458 1_555
C1 Zr1 2.269466 1_565
C1 Hf1 2.368002 1_555
C1 Hf1 2.368004 1_565
C1 Hf1 2.368004 1_665
C2 Zr2 2.269456 1_655
C2 Zr2 2.269458 1_555
C2 Zr2 2.269466 1_545
C2 Hf1 2.367999 1_665
C2 Hf1 2.368004 1_655
C2 Hf1 2.368006 1_555
C3 Zr3 2.269456 1_655
C3 Zr3 2.269458 1_555
C3 Zr3 2.269466 1_545
C3 Hf0 2.367999 1_666
C3 Hf0 2.368004 1_656
C3 Hf0 2.368006 1_556
