# generated using pymatgen
data_Ta12Zn12CN
_symmetry_space_group_name_H-M   'P 1'
_cell_length_a   8.11472053
_cell_length_b   8.11472089
_cell_length_c   8.11472010
_cell_angle_alpha   60.00000322
_cell_angle_beta   60.00000174
_cell_angle_gamma   60.00000494
_symmetry_Int_Tables_number   1
_chemical_formula_structural   Ta12Zn12CN
_chemical_formula_sum   'Ta12 Zn12 C1 N1'
_cell_volume   377.83808631
_cell_formula_units_Z   1
loop_
 _symmetry_equiv_pos_site_id
 _symmetry_equiv_pos_as_xyz
  1  'x, y, z'
loop_
 _atom_site_type_symbol
 _atom_site_label
 _atom_site_symmetry_multiplicity
 _atom_site_fract_x
 _atom_site_fract_y
 _atom_site_fract_z
 _atom_site_occupancy
  Ta  Ta0  1  0.19095502  0.80904498  0.19095502  1
  Ta  Ta1  1  0.44030863  0.05969137  0.44030863  1
  Ta  Ta2  1  0.44030863  0.05969137  0.05969137  1
  Ta  Ta3  1  0.44030863  0.44030863  0.05969137  1
  Ta  Ta4  1  0.19095502  0.80904498  0.80904498  1
  Ta  Ta5  1  0.05969137  0.44030863  0.05969137  1
  Ta  Ta6  1  0.80904498  0.80904498  0.19095502  1
  Ta  Ta7  1  0.05969137  0.44030863  0.44030863  1
  Ta  Ta8  1  0.19095502  0.19095502  0.80904498  1
  Ta  Ta9  1  0.80904498  0.19095502  0.19095502  1
  Ta  Ta10  1  0.80904498  0.19095502  0.80904498  1
  Ta  Ta11  1  0.05969137  0.05969137  0.44030863  1
  Zn  Zn0  1  0.83314317  0.50057149  0.83314317  1
  Zn  Zn1  1  0.41716202  0.41716202  0.74851193  1
  Zn  Zn2  1  0.74851193  0.41716202  0.41716202  1
  Zn  Zn3  1  0.41716202  0.41716202  0.41716202  1
  Zn  Zn4  1  0.83314317  0.83314317  0.50057149  1
  Zn  Zn5  1  0.41716202  0.74851193  0.41716202  1
  Zn  Zn6  1  0.83314317  0.83314317  0.83314317  1
  Zn  Zn7  1  0.50057149  0.83314317  0.83314317  1
  Zn  Zn8  1  0.62511539  0.12465483  0.62511539  1
  Zn  Zn9  1  0.62511539  0.62511539  0.12465483  1
  Zn  Zn10  1  0.12465483  0.62511539  0.62511539  1
  Zn  Zn11  1  0.62511539  0.62511539  0.62511539  1
  C  C0  1  0.00000000  0.00000000  0.00000000  1
  N  N0  1  0.25000000  0.25000000  0.25000000  1
loop_
_geom_bond_atom_site_label_1
_geom_bond_atom_site_label_2
_geom_bond_distance
_geom_bond_site_symmetry_2
Ta0 Zn7 2.722081 1_554
Ta0 Zn4 2.722081 1_455
Ta0 Zn5 2.923407 1_555
Ta0 Zn3 2.923415 1_555
Ta0 Zn10 2.928905 1_555
Ta0 Zn9 2.928906 1_555
Ta1 Zn3 2.725919 1_555
Ta1 Zn5 2.725936 1_545
Ta1 Zn7 2.929174 1_545
Ta1 Zn4 2.929174 1_545
Ta1 Zn11 2.933578 1_545
Ta1 Zn8 2.933583 1_555
Ta2 Zn5 2.725926 1_545
Ta2 Zn1 2.725926 1_554
Ta2 Zn7 2.929167 1_544
Ta2 Zn6 2.929171 1_544
Ta2 Zn8 2.933577 1_554
Ta2 Zn9 2.933577 1_545
Ta3 Zn3 2.725919 1_555
Ta3 Zn1 2.725935 1_554
Ta3 Zn0 2.929174 1_554
Ta3 Zn7 2.929174 1_554
Ta3 Zn11 2.933578 1_554
Ta3 Zn9 2.933584 1_555
Ta4 Zn6 2.722078 1_455
Ta4 Zn7 2.722086 1_555
Ta4 Zn5 2.923421 1_555
Ta4 Zn1 2.923421 1_555
Ta4 Zn10 2.928898 1_555
Ta4 Zn11 2.928904 1_555
Ta5 Zn2 2.725926 1_455
Ta5 Zn1 2.725926 1_554
Ta5 Zn0 2.929167 1_454
Ta5 Zn6 2.929171 1_454
Ta5 Zn10 2.933577 1_554
Ta5 Zn9 2.933577 1_455
Ta6 Zn6 2.722077 1_554
Ta6 Zn4 2.722085 1_555
Ta6 Zn5 2.923421 1_555
Ta6 Zn2 2.923421 1_555
Ta6 Zn9 2.928899 1_555
Ta6 Zn11 2.928904 1_555
Ta7 Zn3 2.725919 1_555
Ta7 Zn2 2.725935 1_455
Ta7 Zn0 2.929174 1_455
Ta7 Zn4 2.929174 1_455
Ta7 Zn11 2.933578 1_455
Ta7 Zn10 2.933583 1_555
Ta8 Zn0 2.722081 1_455
Ta8 Zn7 2.722081 1_545
Ta8 Zn1 2.923407 1_555
Ta8 Zn3 2.923415 1_555
Ta8 Zn8 2.928906 1_555
Ta8 Zn10 2.928906 1_555
Ta9 Zn0 2.722081 1_554
Ta9 Zn4 2.722081 1_545
Ta9 Zn2 2.923407 1_555
Ta9 Zn3 2.923415 1_555
Ta9 Zn8 2.928905 1_555
Ta9 Zn9 2.928906 1_555
Ta10 Zn6 2.722078 1_545
Ta10 Zn0 2.722086 1_555
Ta10 Zn2 2.923421 1_555
Ta10 Zn1 2.923421 1_555
Ta10 Zn8 2.928898 1_555
Ta10 Zn11 2.928904 1_555
Ta11 Zn5 2.725927 1_545
Ta11 Zn2 2.725927 1_455
Ta11 Zn4 2.929167 1_445
Ta11 Zn6 2.929170 1_445
Ta11 Zn8 2.933577 1_455
Ta11 Zn10 2.933577 1_545
Zn0 Zn9 2.481575 1_556
Zn0 Zn11 2.481575 1_555
Zn0 Zn10 2.481575 1_655
Zn0 Zn6 2.698726 1_555
Zn0 Zn4 2.698726 1_555
Zn0 Zn7 2.698727 1_555
Zn1 Zn10 2.483125 1_555
Zn1 Zn8 2.483125 1_555
Zn1 Zn11 2.483145 1_555
Zn1 Zn3 2.688812 1_555
Zn1 Zn2 2.688812 1_555
Zn1 Zn5 2.688812 1_555
Zn2 Zn9 2.483125 1_555
Zn2 Zn8 2.483125 1_555
Zn2 Zn3 2.688812 1_555
Zn2 Zn5 2.688812 1_555
Zn3 Zn9 2.483138 1_555
Zn3 Zn8 2.483139 1_555
Zn3 Zn5 2.688812 1_555
Zn4 Zn8 2.481575 1_565
Zn4 Zn6 2.698726 1_555
Zn4 Zn7 2.698726 1_555
Zn5 Zn9 2.483125 1_555
Zn6 Zn9 2.481575 1_556
Zn6 Zn8 2.481575 1_565
Zn6 Zn7 2.698726 1_555
Zn7 Zn9 2.481575 1_556
Zn7 Zn8 2.481575 1_565
Zn10 Zn4 2.481575 1_455
Zn10 Zn6 2.481575 1_455
Zn10 Zn5 2.483125 1_555
Zn10 Zn3 2.483138 1_555
Zn11 Zn7 2.481575 1_555
Zn11 Zn4 2.481575 1_555
Zn11 Zn5 2.483145 1_555
Zn11 Zn2 2.483145 1_555
C0 Ta0 2.191390 1_545
C0 Ta10 2.191390 1_454
C0 Ta9 2.191390 1_455
C0 Ta4 2.191390 1_544
C0 Ta8 2.191390 1_554
C0 Ta6 2.191390 1_445
N0 Ta1 2.183972 1_555
N0 Ta5 2.183972 1_555
N0 Ta7 2.183972 1_555
N0 Ta2 2.183972 1_555
N0 Ta3 2.183972 1_555
N0 Ta11 2.183972 1_555
