# generated using pymatgen
data_Rb2ReH9
_symmetry_space_group_name_H-M   'P 1'
_cell_length_a   9.92329716
_cell_length_b   9.92329658
_cell_length_c   5.76681300
_cell_angle_alpha   90.00000000
_cell_angle_beta   90.00000000
_cell_angle_gamma   120.00001166
_symmetry_Int_Tables_number   1
_chemical_formula_structural   Rb2ReH9
_chemical_formula_sum   'Rb6 Re3 H27'
_cell_volume   491.78855490
_cell_formula_units_Z   3
loop_
 _symmetry_equiv_pos_site_id
 _symmetry_equiv_pos_as_xyz
  1  'x, y, z'
loop_
 _atom_site_type_symbol
 _atom_site_label
 _atom_site_symmetry_multiplicity
 _atom_site_fract_x
 _atom_site_fract_y
 _atom_site_fract_z
 _atom_site_occupancy
  Rb  Rb0  1  0.00000000  0.26183482  0.50000000  1
  Rb  Rb1  1  0.73816518  0.73816518  0.50000000  1
  Rb  Rb2  1  0.26183482  0.00000000  0.50000000  1
  Rb  Rb3  1  1.00000000  0.59062182  0.00000000  1
  Rb  Rb4  1  0.40937818  0.40937818  0.00000000  1
  Rb  Rb5  1  0.59062182  1.00000000  0.00000000  1
  Re  Re0  1  0.66666700  0.33333300  0.50000000  1
  Re  Re1  1  0.33333300  0.66666700  0.50000000  1
  Re  Re2  1  0.00000000  0.00000000  0.00000000  1
  H  H0  1  0.77186462  0.30849033  0.71190150  1
  H  H1  1  0.69150967  0.46337229  0.71190150  1
  H  H2  1  0.53662771  0.22813538  0.71190150  1
  H  H3  1  0.22813538  0.53662771  0.28809850  1
  H  H4  1  0.53662771  0.22813538  0.28809850  1
  H  H5  1  0.77186462  0.30849033  0.28809850  1
  H  H6  1  0.69150967  0.46337229  0.28809850  1
  H  H7  1  0.30849033  0.77186462  0.71190150  1
  H  H8  1  0.46337229  0.69150967  0.71190150  1
  H  H9  1  0.16900919  1.00000000  0.00000000  1
  H  H10  1  0.83099081  0.83099081  0.00000000  1
  H  H11  1  1.00000000  0.16900919  0.00000000  1
  H  H12  1  0.87815235  1.00000000  0.20657300  1
  H  H13  1  0.12184765  0.12184765  0.79342700  1
  H  H14  1  1.00000000  0.87815235  0.79342700  1
  H  H15  1  1.00000000  0.87815235  0.20657300  1
  H  H16  1  0.12184765  0.12184765  0.20657300  1
  H  H17  1  0.87815235  1.00000000  0.79342700  1
  H  H18  1  0.14987247  0.63202377  0.50000000  1
  H  H19  1  0.48215129  0.85012753  0.50000000  1
  H  H20  1  0.36797623  0.51784871  0.50000000  1
  H  H21  1  0.51784871  0.36797623  0.50000000  1
  H  H22  1  0.85012753  0.48215129  0.50000000  1
  H  H23  1  0.63202377  0.14987247  0.50000000  1
  H  H24  1  0.22813538  0.53662771  0.71190150  1
  H  H25  1  0.30849033  0.77186462  0.28809850  1
  H  H26  1  0.46337229  0.69150967  0.28809850  1
loop_
_geom_bond_atom_site_label_1
_geom_bond_atom_site_label_2
_geom_bond_distance
_geom_bond_site_symmetry_2
H0 Re0 1.703272 1_555
H0 Rb0 2.807272 1_655
H0 Rb3 3.063567 1_556
H0 Rb5 3.140136 1_546
H1 Re0 1.703265 1_555
H1 Rb1 2.807289 1_555
H1 Rb4 3.063573 1_556
H1 Rb3 3.140134 1_556
H2 Re0 1.703267 1_555
H2 Rb2 2.807282 1_555
H2 Rb5 3.063556 1_546
H2 Rb4 3.140150 1_556
H3 Re1 1.703267 1_555
H3 Rb0 2.807282 1_555
H3 Rb3 3.063556 1_455
H3 Rb4 3.140150 1_555
H4 Re0 1.703267 1_555
H4 Rb2 2.807282 1_555
H4 Rb5 3.063556 1_545
H4 Rb4 3.140150 1_555
H5 Re0 1.703272 1_555
H5 Rb0 2.807272 1_655
H5 Rb3 3.063567 1_555
H5 Rb5 3.140136 1_545
H6 Re0 1.703265 1_555
H6 Rb1 2.807289 1_555
H6 Rb4 3.063573 1_555
H6 Rb3 3.140134 1_555
H7 Re1 1.703272 1_555
H7 Rb2 2.807272 1_565
H7 Rb5 3.063567 1_556
H7 Rb3 3.140136 1_456
H8 Re1 1.703265 1_555
H8 Rb1 2.807289 1_555
H8 Rb4 3.063573 1_556
H8 Rb5 3.140134 1_556
H9 Re2 1.677128 1_565
H9 Rb2 3.026966 1_565
H9 Rb2 3.026966 1_564
H10 Re2 1.677128 1_665
H10 Rb1 3.026966 1_555
H10 Rb1 3.026966 1_554
H11 Re2 1.677128 1_655
H11 Rb0 3.026966 1_654
H11 Rb0 3.026966 1_655
H12 Re2 1.697385 1_665
H12 Rb1 2.816854 1_555
H12 Rb0 2.816854 1_665
H12 Rb5 3.091951 1_555
H13 Re2 1.697385 1_556
H13 Rb0 2.816854 1_555
H13 Rb2 2.816854 1_555
H13 Rb4 3.091950 1_556
H14 Re2 1.697385 1_666
H14 Rb1 2.816854 1_555
H14 Rb2 2.816854 1_665
H14 Rb3 3.091951 1_556
H15 Re2 1.697385 1_665
H15 Rb1 2.816854 1_555
H15 Rb2 2.816854 1_665
H15 Rb3 3.091951 1_555
H16 Re2 1.697385 1_555
H16 Rb0 2.816854 1_555
H16 Rb2 2.816854 1_555
H16 Rb4 3.091950 1_555
H17 Re2 1.697385 1_666
H17 Rb1 2.816854 1_555
H17 Rb0 2.816854 1_665
H17 Rb5 3.091951 1_556
H18 Re1 1.675312 1_555
H18 Rb3 3.175477 1_455
H18 Rb3 3.175477 1_456
H19 Re1 1.675315 1_555
H19 Rb5 3.175477 1_555
H19 Rb5 3.175477 1_556
H20 Re1 1.675321 1_555
H20 Rb4 3.175477 1_555
H20 Rb4 3.175477 1_556
H21 Re0 1.675321 1_555
H21 Rb4 3.175477 1_556
H21 Rb4 3.175477 1_555
H22 Re0 1.675315 1_555
H22 Rb3 3.175477 1_556
H22 Rb3 3.175477 1_555
H23 Re0 1.675311 1_555
H23 Rb5 3.175477 1_545
H23 Rb5 3.175477 1_546
H24 Re1 1.703267 1_555
H24 Rb0 2.807282 1_555
H24 Rb3 3.063556 1_456
H24 Rb4 3.140150 1_556
H25 Re1 1.703272 1_555
H25 Rb2 2.807272 1_565
H25 Rb5 3.063567 1_555
H25 Rb3 3.140136 1_455
H26 Re1 1.703265 1_555
H26 Rb1 2.807289 1_555
H26 Rb4 3.063573 1_555
H26 Rb5 3.140134 1_555
