# generated using pymatgen
data_LiMoS2
_symmetry_space_group_name_H-M   'P 1'
_cell_length_a   6.27668200
_cell_length_b   6.67196726
_cell_length_c   6.80222801
_cell_angle_alpha   61.09446986
_cell_angle_beta   89.90165195
_cell_angle_gamma   89.79849298
_symmetry_Int_Tables_number   1
_chemical_formula_structural   LiMoS2
_chemical_formula_sum   'Li4 Mo4 S8'
_cell_volume   249.37214634
_cell_formula_units_Z   4
loop_
 _symmetry_equiv_pos_site_id
 _symmetry_equiv_pos_as_xyz
  1  'x, y, z'
loop_
 _atom_site_type_symbol
 _atom_site_label
 _atom_site_symmetry_multiplicity
 _atom_site_fract_x
 _atom_site_fract_y
 _atom_site_fract_z
 _atom_site_occupancy
  Li  Li0  1  0.00994000  0.48190900  0.29016500  1
  Li  Li1  1  0.99006000  0.51809100  0.70983500  1
  Li  Li2  1  0.97910400  0.00921400  0.73991900  1
  Li  Li3  1  0.02089600  0.99078600  0.26008100  1
  Mo  Mo0  1  0.50025500  0.49174200  0.21023300  1
  Mo  Mo1  1  0.49974500  0.50825800  0.78976700  1
  Mo  Mo2  1  0.49609000  0.94301900  0.80779700  1
  Mo  Mo3  1  0.50391000  0.05698100  0.19220300  1
  S  S0  1  0.77324800  0.34486100  0.06856600  1
  S  S1  1  0.22675200  0.65513900  0.93143400  1
  S  S2  1  0.74644800  0.81784900  0.10476400  1
  S  S3  1  0.25355200  0.18215100  0.89523600  1
  S  S4  1  0.69833700  0.32222200  0.59074000  1
  S  S5  1  0.30166300  0.67777800  0.40926000  1
  S  S6  1  0.71837100  0.84786200  0.56886500  1
  S  S7  1  0.28162900  0.15213800  0.43113500  1
loop_
_geom_bond_atom_site_label_1
_geom_bond_atom_site_label_2
_geom_bond_distance
_geom_bond_site_symmetry_2
Li0 S1 2.532860 1_554
Li0 S2 2.568643 1_455
Li0 S7 2.570631 1_555
Li0 S0 2.581680 1_455
Li0 S5 2.600428 1_555
Li0 S4 2.652502 1_455
Li1 S0 2.532860 1_556
Li1 S3 2.568643 1_655
Li1 S6 2.570631 1_555
Li1 S1 2.581680 1_655
Li1 S4 2.600428 1_555
Li1 S5 2.652502 1_655
Li2 S6 2.533948 1_545
Li2 S4 2.535401 1_555
Li2 S3 2.571701 1_655
Li2 S1 2.588450 1_645
Li2 S2 2.619010 1_546
Li2 S7 2.643761 1_655
Li3 S7 2.533948 1_565
Li3 S5 2.535401 1_555
Li3 S2 2.571701 1_455
Li3 S0 2.588450 1_465
Li3 S3 2.619010 1_564
Li3 S6 2.643761 1_455
Mo0 S0 2.391759 1_555
Mo0 S1 2.394029 1_554
Mo0 S7 2.449138 1_555
Mo0 S2 2.479393 1_555
Mo0 S5 2.556380 1_555
Mo0 S4 2.587546 1_555
Mo1 S1 2.391759 1_555
Mo1 S0 2.394029 1_556
Mo1 S6 2.449138 1_555
Mo1 S3 2.479393 1_555
Mo1 S4 2.556380 1_555
Mo1 S5 2.587546 1_555
Mo2 S2 2.370261 1_556
Mo2 S1 2.389725 1_555
Mo2 S6 2.444309 1_555
Mo2 S3 2.472655 1_565
Mo2 S4 2.568541 1_565
Mo2 S7 2.620306 1_565
Mo3 S3 2.370261 1_554
Mo3 S0 2.389725 1_555
Mo3 S7 2.444309 1_555
Mo3 S2 2.472655 1_545
Mo3 S5 2.568541 1_545
Mo3 S6 2.620306 1_545
