# generated using pymatgen
data_Lu3Si2GeRh2
_symmetry_space_group_name_H-M   'P 1'
_cell_length_a   5.60392756
_cell_length_b   5.60392944
_cell_length_c   13.51995034
_cell_angle_alpha   90.00000000
_cell_angle_beta   90.00000000
_cell_angle_gamma   136.81558738
_symmetry_Int_Tables_number   1
_chemical_formula_structural   Lu3Si2GeRh2
_chemical_formula_sum   'Lu6 Si4 Ge2 Rh4'
_cell_volume   290.56128975
_cell_formula_units_Z   2
loop_
 _symmetry_equiv_pos_site_id
 _symmetry_equiv_pos_as_xyz
  1  'x, y, z'
loop_
 _atom_site_type_symbol
 _atom_site_label
 _atom_site_symmetry_multiplicity
 _atom_site_fract_x
 _atom_site_fract_y
 _atom_site_fract_z
 _atom_site_occupancy
  Lu  Lu0  1  0.64742188  0.35257812  0.25000000  1
  Lu  Lu1  1  0.35257812  0.64742188  0.75000000  1
  Lu  Lu2  1  0.92123540  0.07876460  0.11241453  1
  Lu  Lu3  1  0.07876460  0.92123540  0.88758547  1
  Lu  Lu4  1  0.07876460  0.92123540  0.61241453  1
  Lu  Lu5  1  0.92123540  0.07876460  0.38758547  1
  Si  Si0  1  0.60758049  0.39241951  0.03997899  1
  Si  Si1  1  0.39241951  0.60758049  0.96002101  1
  Si  Si2  1  0.39241951  0.60758049  0.53997899  1
  Si  Si3  1  0.60758049  0.39241951  0.46002101  1
  Ge  Ge0  1  0.34548254  0.65451746  0.25000000  1
  Ge  Ge1  1  0.65451746  0.34548254  0.75000000  1
  Rh  Rh0  1  0.78885427  0.21114573  0.57873077  1
  Rh  Rh1  1  0.21114573  0.78885427  0.42126923  1
  Rh  Rh2  1  0.21114573  0.78885427  0.07873077  1
  Rh  Rh3  1  0.78885427  0.21114573  0.92126923  1
loop_
_geom_bond_atom_site_label_1
_geom_bond_atom_site_label_2
_geom_bond_distance
_geom_bond_site_symmetry_2
Lu0 Si3 2.869669 1_555
Lu0 Si0 2.869669 1_555
Lu0 Rh1 3.171057 1_655
Lu0 Rh2 3.171057 1_655
Lu0 Rh2 3.171058 1_545
Lu0 Rh1 3.171058 1_545
Lu1 Si1 2.869669 1_555
Lu1 Si2 2.869669 1_555
Lu1 Rh0 3.171057 1_455
Lu1 Rh3 3.171057 1_455
Lu1 Rh0 3.171058 1_565
Lu1 Rh3 3.171058 1_565
Lu2 Rh3 2.929463 1_554
Lu2 Si1 2.930537 1_544
Lu2 Si1 2.930537 1_654
Lu2 Si0 2.997188 1_655
Lu2 Si0 2.997189 1_545
Lu2 Rh2 3.042000 1_545
Lu2 Rh2 3.042001 1_655
Lu2 Rh2 3.055390 1_645
Lu3 Rh2 2.929463 1_556
Lu3 Si0 2.930537 1_566
Lu3 Si0 2.930537 1_456
Lu3 Si1 2.997188 1_455
Lu3 Si1 2.997189 1_565
Lu3 Rh3 3.042000 1_565
Lu3 Rh3 3.042001 1_455
Lu3 Rh3 3.055390 1_465
Lu4 Rh1 2.929463 1_555
Lu4 Si3 2.930537 1_565
Lu4 Si3 2.930537 1_455
Lu4 Si2 2.997188 1_455
Lu4 Si2 2.997189 1_565
Lu4 Rh0 3.042000 1_565
Lu4 Rh0 3.042001 1_455
Lu4 Rh0 3.055390 1_465
Lu5 Rh0 2.929463 1_555
Lu5 Si2 2.930537 1_545
Lu5 Si2 2.930537 1_655
Lu5 Si3 2.997188 1_655
Lu5 Si3 2.997189 1_545
Lu5 Rh1 3.042000 1_545
Lu5 Rh1 3.042001 1_655
Lu5 Rh1 3.055390 1_645
Si0 Si1 2.489257 1_554
Si2 Si3 2.489257 1_555
Ge0 Rh1 2.705864 1_555
Ge0 Rh2 2.705864 1_555
Ge0 Lu5 2.887247 1_565
Ge0 Lu2 2.887247 1_565
Ge0 Lu5 2.887247 1_455
Ge0 Lu2 2.887247 1_455
Ge0 Lu0 2.917732 1_455
Ge0 Lu0 2.917734 1_565
Ge0 Lu0 3.146619 1_555
Ge1 Rh0 2.705864 1_555
Ge1 Rh3 2.705864 1_555
Ge1 Lu4 2.887247 1_545
Ge1 Lu3 2.887247 1_545
Ge1 Lu4 2.887247 1_655
Ge1 Lu3 2.887247 1_655
Ge1 Lu1 2.917732 1_655
Ge1 Lu1 2.917734 1_545
Ge1 Lu1 3.146619 1_555
Rh0 Si2 2.385828 1_655
Rh0 Si2 2.385829 1_545
Rh0 Si3 2.478838 1_555
Rh1 Si3 2.385828 1_455
Rh1 Si3 2.385829 1_565
Rh1 Si2 2.478838 1_555
Rh2 Si0 2.385828 1_455
Rh2 Si0 2.385829 1_565
Rh2 Si1 2.478838 1_554
Rh3 Si1 2.385828 1_655
Rh3 Si1 2.385829 1_545
Rh3 Si0 2.478838 1_556
