# generated using pymatgen
data_Zr6SbTeC2
_symmetry_space_group_name_H-M   'P 1'
_cell_length_a   6.14501236
_cell_length_b   6.14501189
_cell_length_c   8.95210252
_cell_angle_alpha   90.00000000
_cell_angle_beta   90.00000000
_cell_angle_gamma   146.12525111
_symmetry_Int_Tables_number   1
_chemical_formula_structural   Zr6SbTeC2
_chemical_formula_sum   'Zr6 Sb1 Te1 C2'
_cell_volume   188.41754328
_cell_formula_units_Z   1
loop_
 _symmetry_equiv_pos_site_id
 _symmetry_equiv_pos_as_xyz
  1  'x, y, z'
loop_
 _atom_site_type_symbol
 _atom_site_label
 _atom_site_symmetry_multiplicity
 _atom_site_fract_x
 _atom_site_fract_y
 _atom_site_fract_z
 _atom_site_occupancy
  Zr  Zr0  1  0.37674746  0.62325454  0.04917750  1
  Zr  Zr1  1  0.04952860  0.95047340  0.25000000  1
  Zr  Zr2  1  0.37674746  0.62325454  0.45082250  1
  Zr  Zr3  1  0.62374159  0.37626041  0.54922211  1
  Zr  Zr4  1  0.95098103  0.04902097  0.75000000  1
  Zr  Zr5  1  0.62374159  0.37626041  0.95077789  1
  Sb  Sb0  1  0.25379645  0.74620555  0.75000000  1
  Te  Te0  1  0.74592918  0.25407282  0.25000000  1
  C  C0  1  0.99939681  0.00060319  0.00073070  1
  C  C1  1  0.99939681  0.00060319  0.49926930  1
loop_
_geom_bond_atom_site_label_1
_geom_bond_atom_site_label_2
_geom_bond_distance
_geom_bond_site_symmetry_2
Sb0 Zr4 2.929040 1_455
Sb0 Zr4 2.929040 1_565
Sb0 Zr5 2.961992 1_565
Sb0 Zr3 2.961992 1_565
Sb0 Zr5 2.961993 1_455
Sb0 Zr3 2.961993 1_455
Sb0 Zr0 3.043463 1_556
Sb0 Zr2 3.043463 1_555
Te0 Zr1 2.921750 1_655
Te0 Zr1 2.921750 1_545
Te0 Zr2 2.966878 1_545
Te0 Zr0 2.966878 1_545
Te0 Zr2 2.966878 1_655
Te0 Zr0 2.966878 1_655
Te0 Zr3 3.039562 1_555
Te0 Zr5 3.039562 1_554
C0 Zr1 2.308007 1_645
C0 Zr4 2.315622 1_554
C0 Zr0 2.339284 1_545
C0 Zr0 2.339290 1_655
C0 Zr5 2.354133 1_544
C0 Zr5 2.354139 1_654
C1 Zr1 2.308007 1_645
C1 Zr4 2.315622 1_555
C1 Zr2 2.339284 1_545
C1 Zr2 2.339290 1_655
C1 Zr3 2.354133 1_545
C1 Zr3 2.354139 1_655
