# generated using pymatgen
data_LiMgH6Rh
_symmetry_space_group_name_H-M   'P 1'
_cell_length_a   6.60961383
_cell_length_b   6.60961383
_cell_length_c   6.60961383
_cell_angle_alpha   90.00000000
_cell_angle_beta   90.00000000
_cell_angle_gamma   90.00000000
_symmetry_Int_Tables_number   1
_chemical_formula_structural   LiMgH6Rh
_chemical_formula_sum   'Li4 Mg4 H24 Rh4'
_cell_volume   288.75416591
_cell_formula_units_Z   4
loop_
 _symmetry_equiv_pos_site_id
 _symmetry_equiv_pos_as_xyz
  1  'x, y, z'
loop_
 _atom_site_type_symbol
 _atom_site_label
 _atom_site_symmetry_multiplicity
 _atom_site_fract_x
 _atom_site_fract_y
 _atom_site_fract_z
 _atom_site_occupancy
  Li  Li0  1  0.00000000  0.00000000  0.50000000  1
  Li  Li1  1  0.00000000  0.50000000  0.00000000  1
  Li  Li2  1  0.50000000  0.00000000  0.00000000  1
  Li  Li3  1  0.00000000  0.00000000  0.00000000  1
  Mg  Mg0  1  0.50000000  0.50000000  0.50000000  1
  Mg  Mg1  1  0.00000000  0.50000000  0.50000000  1
  Mg  Mg2  1  0.50000000  0.00000000  0.50000000  1
  Mg  Mg3  1  0.50000000  0.50000000  0.00000000  1
  H  H0  1  0.74954364  0.74954364  0.50448383  1
  H  H1  1  0.25045636  0.25045636  0.50448383  1
  H  H2  1  0.01052222  0.74813375  0.74813375  1
  H  H3  1  0.25186625  0.98947778  0.74813375  1
  H  H4  1  0.74813375  0.01052222  0.74813375  1
  H  H5  1  0.98947778  0.25186625  0.74813375  1
  H  H6  1  0.74954364  0.50448383  0.74954364  1
  H  H7  1  0.50448383  0.74954364  0.74954364  1
  H  H8  1  0.49551617  0.25045636  0.74954364  1
  H  H9  1  0.25045636  0.49551617  0.74954364  1
  H  H10  1  0.25186625  0.74813375  0.98947778  1
  H  H11  1  0.74813375  0.25186625  0.98947778  1
  H  H12  1  0.74813375  0.74813375  0.01052222  1
  H  H13  1  0.25186625  0.25186625  0.01052222  1
  H  H14  1  0.25045636  0.50448383  0.25045636  1
  H  H15  1  0.49551617  0.74954364  0.25045636  1
  H  H16  1  0.50448383  0.25045636  0.25045636  1
  H  H17  1  0.74954364  0.49551617  0.25045636  1
  H  H18  1  0.98947778  0.74813375  0.25186625  1
  H  H19  1  0.74813375  0.98947778  0.25186625  1
  H  H20  1  0.25186625  0.01052222  0.25186625  1
  H  H21  1  0.01052222  0.25186625  0.25186625  1
  H  H22  1  0.25045636  0.74954364  0.49551617  1
  H  H23  1  0.74954364  0.25045636  0.49551617  1
  Rh  Rh0  1  0.25738168  0.74261832  0.74261832  1
  Rh  Rh1  1  0.74261832  0.25738168  0.74261832  1
  Rh  Rh2  1  0.74261832  0.74261832  0.25738168  1
  Rh  Rh3  1  0.25738168  0.25738168  0.25738168  1
loop_
_geom_bond_atom_site_label_1
_geom_bond_atom_site_label_2
_geom_bond_distance
_geom_bond_site_symmetry_2
H0 Rh2 1.634532 1_555
H0 Mg0 2.332774 1_555
H0 Mg1 2.337043 1_655
H0 Mg2 2.337043 1_565
H0 Li0 2.341305 1_665
H1 Rh3 1.634532 1_555
H1 Mg0 2.332774 1_555
H1 Mg1 2.337043 1_555
H1 Mg2 2.337043 1_555
H1 Li0 2.341305 1_555
H2 Rh0 1.632460 1_555
H2 Mg1 2.320449 1_555
H2 Li0 2.337951 1_565
H2 Li1 2.337951 1_556
H2 Li3 2.355323 1_566
H3 Rh0 1.632460 1_555
H3 Mg2 2.320449 1_565
H3 Li0 2.337951 1_565
H3 Li2 2.337951 1_566
H3 Li3 2.355323 1_566
H4 Rh1 1.632460 1_555
H4 Mg2 2.320449 1_555
H4 Li2 2.337951 1_556
H4 Li0 2.337951 1_655
H4 Li3 2.355323 1_656
H5 Rh1 1.632460 1_555
H5 Mg1 2.320449 1_655
H5 Li0 2.337951 1_655
H5 Li1 2.337951 1_656
H5 Li3 2.355323 1_656
H6 Rh1 1.634532 1_555
H6 Mg0 2.332774 1_555
H6 Mg1 2.337043 1_655
H6 Mg3 2.337043 1_556
H6 Li1 2.341305 1_656
H7 Rh0 1.634532 1_555
H7 Mg0 2.332774 1_555
H7 Mg2 2.337043 1_565
H7 Mg3 2.337043 1_556
H7 Li2 2.341305 1_566
H8 Rh1 1.634532 1_555
H8 Mg0 2.332774 1_555
H8 Mg2 2.337043 1_555
H8 Mg3 2.337043 1_556
H8 Li2 2.341305 1_556
H9 Rh0 1.634532 1_555
H9 Mg0 2.332774 1_555
H9 Mg1 2.337043 1_555
H9 Mg3 2.337043 1_556
H9 Li1 2.341305 1_556
H10 Rh0 1.632460 1_555
H10 Mg3 2.320449 1_556
H10 Li1 2.337951 1_556
H10 Li2 2.337951 1_566
H10 Li3 2.355323 1_566
H11 Rh1 1.632460 1_555
H11 Mg3 2.320449 1_556
H11 Li2 2.337951 1_556
H11 Li1 2.337951 1_656
H11 Li3 2.355323 1_656
H12 Rh2 1.632460 1_555
H12 Mg3 2.320449 1_555
H12 Li1 2.337951 1_655
H12 Li2 2.337951 1_565
H12 Li3 2.355323 1_665
H13 Rh3 1.632460 1_555
H13 Mg3 2.320449 1_555
H13 Li2 2.337951 1_555
H13 Li1 2.337951 1_555
H13 Li3 2.355323 1_555
H14 Rh3 1.634532 1_555
H14 Mg0 2.332774 1_555
H14 Mg3 2.337043 1_555
H14 Mg1 2.337043 1_555
H14 Li1 2.341305 1_555
H15 Rh2 1.634532 1_555
H15 Mg0 2.332774 1_555
H15 Mg3 2.337043 1_555
H15 Mg2 2.337043 1_565
H15 Li2 2.341305 1_565
H16 Rh3 1.634532 1_555
H16 Mg0 2.332774 1_555
H16 Mg3 2.337043 1_555
H16 Mg2 2.337043 1_555
H16 Li2 2.341305 1_555
H17 Rh2 1.634532 1_555
H17 Mg0 2.332774 1_555
H17 Mg3 2.337043 1_555
H17 Mg1 2.337043 1_655
H17 Li1 2.341305 1_655
H18 Rh2 1.632460 1_555
H18 Mg1 2.320449 1_655
H18 Li1 2.337951 1_655
H18 Li0 2.337951 1_665
H18 Li3 2.355323 1_665
H19 Rh2 1.632460 1_555
H19 Mg2 2.320449 1_565
H19 Li2 2.337951 1_565
H19 Li0 2.337951 1_665
H19 Li3 2.355323 1_665
H20 Rh3 1.632460 1_555
H20 Mg2 2.320449 1_555
H20 Li0 2.337951 1_555
H20 Li2 2.337951 1_555
H20 Li3 2.355323 1_555
H21 Rh3 1.632460 1_555
H21 Mg1 2.320449 1_555
H21 Li1 2.337951 1_555
H21 Li0 2.337951 1_555
H21 Li3 2.355323 1_555
H22 Rh0 1.634532 1_555
H22 Mg0 2.332774 1_555
H22 Mg1 2.337043 1_555
H22 Mg2 2.337043 1_565
H22 Li0 2.341305 1_565
H23 Rh1 1.634532 1_555
H23 Mg0 2.332774 1_555
H23 Mg2 2.337043 1_555
H23 Mg1 2.337043 1_655
H23 Li0 2.341305 1_655
