# generated using pymatgen
data_Zr(AlB14)2
_symmetry_space_group_name_H-M   'P 1'
_cell_length_a   7.17581009
_cell_length_b   7.17580986
_cell_length_c   5.83104472
_cell_angle_alpha   66.34105078
_cell_angle_beta   66.34104509
_cell_angle_gamma   92.65883062
_symmetry_Int_Tables_number   1
_chemical_formula_structural   Zr(AlB14)2
_chemical_formula_sum   'Zr1 Al2 B28'
_cell_volume   244.08192873
_cell_formula_units_Z   1
loop_
 _symmetry_equiv_pos_site_id
 _symmetry_equiv_pos_as_xyz
  1  'x, y, z'
loop_
 _atom_site_type_symbol
 _atom_site_label
 _atom_site_symmetry_multiplicity
 _atom_site_fract_x
 _atom_site_fract_y
 _atom_site_fract_z
 _atom_site_occupancy
  Zr  Zr0  1  0.89493821  0.89493821  0.43215071  1
  Al  Al0  1  0.49927411  0.49927411  0.49850592  1
  Al  Al1  1  0.15512069  0.15512069  0.48453612  1
  B  B0  1  0.41556431  0.73465037  0.16838122  1
  B  B1  1  0.58630232  0.26159586  0.83279616  1
  B  B2  1  0.26159586  0.58630232  0.83279616  1
  B  B3  1  0.73465037  0.41556431  0.16838122  1
  B  B4  1  0.69471296  0.86219590  0.96437012  1
  B  B5  1  0.30332690  0.13303626  0.03857682  1
  B  B6  1  0.13303626  0.30332690  0.03857682  1
  B  B7  1  0.86219590  0.69471296  0.96437012  1
  B  B8  1  0.53863614  0.87020494  0.29428198  1
  B  B9  1  0.47228452  0.12171040  0.20435961  1
  B  B10  1  0.12171040  0.47228452  0.20435961  1
  B  B11  1  0.87020494  0.53863614  0.29428198  1
  B  B12  1  0.45800652  0.12345375  0.71402829  1
  B  B13  1  0.52971985  0.87369586  0.79786131  1
  B  B14  1  0.87369586  0.52971985  0.79786131  1
  B  B15  1  0.12345375  0.45800652  0.71402829  1
  B  B16  1  0.72540140  0.09874017  0.99861977  1
  B  B17  1  0.28076879  0.88945668  0.32206803  1
  B  B18  1  0.88945668  0.28076879  0.32206803  1
  B  B19  1  0.09874017  0.72540140  0.99861977  1
  B  B20  1  0.26945644  0.89561504  0.01357808  1
  B  B21  1  0.71709484  0.10466932  0.68364730  1
  B  B22  1  0.10466932  0.71709484  0.68364730  1
  B  B23  1  0.89561504  0.26945644  0.01357808  1
  B  B24  1  0.27010632  0.46839479  0.38047970  1
  B  B25  1  0.72101959  0.53084475  0.62935424  1
  B  B26  1  0.53084475  0.72101959  0.62935424  1
  B  B27  1  0.46839479  0.27010632  0.38047970  1
loop_
_geom_bond_atom_site_label_1
_geom_bond_atom_site_label_2
_geom_bond_distance
_geom_bond_site_symmetry_2
Al0 B27 2.055216 1_555
Al0 B24 2.055216 1_555
Al0 B26 2.060354 1_555
Al0 B25 2.060354 1_555
Al0 B3 2.309075 1_555
Al0 B0 2.309075 1_555
Al0 B2 2.346499 1_555
Al0 B1 2.346500 1_555
Al0 B11 2.387265 1_555
Al0 B8 2.387265 1_555
Al0 B15 2.418059 1_555
Al0 B12 2.418059 1_555
Al1 B24 2.105669 1_555
Al1 B27 2.105669 1_555
Al1 B9 2.299368 1_555
Al1 B10 2.299368 1_555
Al1 B5 2.458674 1_555
Al1 B6 2.458674 1_555
Al1 B17 2.503598 1_545
Al1 B18 2.503598 1_455
Al1 Zr0 2.767104 1_445
B0 B13 1.762960 1_554
B0 B24 1.775357 1_555
B0 B17 1.782043 1_555
B0 B8 1.810755 1_555
B0 B20 1.811987 1_555
B0 B4 1.819036 1_554
B1 B9 1.768276 1_556
B1 B21 1.770374 1_555
B1 B25 1.772434 1_555
B1 B16 1.809101 1_555
B1 B12 1.813233 1_555
B1 B5 1.842922 1_556
B2 B22 1.770374 1_555
B2 B26 1.772434 1_555
B2 B6 1.842922 1_556
B3 B7 1.819036 1_554
B4 B7 1.738613 1_555
B4 B8 1.823158 1_556
B4 Zr0 2.748716 1_555
B5 B6 1.767760 1_555
B5 B9 1.815971 1_555
B5 Zr0 2.786520 1_445
B6 Zr0 2.786520 1_445
B7 Zr0 2.748716 1_555
B8 B9 1.810903 1_565
B8 Zr0 2.989456 1_555
B10 B24 1.745508 1_555
B10 B2 1.768276 1_554
B10 B19 1.789711 1_554
B10 B18 1.802696 1_455
B10 B11 1.810903 1_455
B10 B6 1.815971 1_555
B11 B19 1.769268 1_654
B11 B25 1.787358 1_555
B11 B18 1.808426 1_555
B11 B3 1.810755 1_555
B11 B7 1.823158 1_554
B11 Zr0 2.989456 1_555
B12 B27 1.769024 1_555
B12 B20 1.777814 1_546
B12 B5 1.801050 1_556
B12 B21 1.812219 1_555
B12 B13 1.816625 1_545
B13 B26 1.739029 1_555
B13 B21 1.785244 1_565
B13 B4 1.794048 1_555
B13 B20 1.842690 1_556
B13 Zr0 2.579853 1_555
B14 B25 1.739029 1_555
B14 B3 1.762960 1_556
B14 B22 1.785244 1_655
B14 B7 1.794048 1_555
B14 B15 1.816625 1_655
B14 B23 1.842690 1_556
B14 Zr0 2.579853 1_555
B15 B24 1.769024 1_555
B15 B23 1.777814 1_456
B15 B6 1.801050 1_556
B15 B22 1.812219 1_555
B15 B2 1.813233 1_555
B16 B23 1.741438 1_556
B16 B8 1.769268 1_546
B16 B9 1.789710 1_556
B16 B4 1.800616 1_545
B16 B21 1.844970 1_555
B16 Zr0 3.110538 1_546
B17 B22 1.787639 1_555
B17 B9 1.802696 1_565
B17 B5 1.803864 1_565
B17 B8 1.808426 1_555
B17 B20 1.816045 1_555
B17 Zr0 2.585152 1_455
B18 B3 1.782043 1_555
B18 B21 1.787639 1_555
B18 B6 1.803864 1_655
B18 B23 1.816044 1_555
B18 Zr0 2.585152 1_545
B19 B20 1.741438 1_556
B19 B7 1.800616 1_455
B19 B2 1.809101 1_555
B19 B22 1.844970 1_555
B19 Zr0 3.110538 1_456
B20 B5 1.781071 1_565
B20 Zr0 2.811488 1_455
B21 B4 1.791613 1_545
B21 Zr0 2.547882 1_545
B22 B7 1.791613 1_455
B22 Zr0 2.547882 1_455
B23 B6 1.781071 1_655
B23 B3 1.811987 1_555
B23 Zr0 2.811489 1_545
B24 B27 2.058401 1_555
B25 B26 1.974174 1_555
B25 Zr0 2.416675 1_555
B26 B8 1.787358 1_555
B26 Zr0 2.416675 1_555
B27 B9 1.745508 1_555
B27 B3 1.775357 1_555
