# generated using pymatgen
data_Rb4Na2(TcH9)3
_symmetry_space_group_name_H-M   'P 1'
_cell_length_a   9.54539662
_cell_length_b   9.20588427
_cell_length_c   5.67903111
_cell_angle_alpha   90.00000000
_cell_angle_beta   90.00000000
_cell_angle_gamma   121.22766543
_symmetry_Int_Tables_number   1
_chemical_formula_structural   Rb4Na2(TcH9)3
_chemical_formula_sum   'Rb4 Na2 Tc3 H27'
_cell_volume   426.73451322
_cell_formula_units_Z   1
loop_
 _symmetry_equiv_pos_site_id
 _symmetry_equiv_pos_as_xyz
  1  'x, y, z'
loop_
 _atom_site_type_symbol
 _atom_site_label
 _atom_site_symmetry_multiplicity
 _atom_site_fract_x
 _atom_site_fract_y
 _atom_site_fract_z
 _atom_site_occupancy
  Rb  Rb0  1  0.25042048  0.00000000  0.50000000  1
  Rb  Rb1  1  0.58838648  0.00000000  0.00000000  1
  Rb  Rb2  1  0.00727574  0.58609000  0.00000000  1
  Rb  Rb3  1  0.42118474  0.41391000  0.00000000  1
  Na  Na0  1  0.99509719  0.26562424  0.50000000  1
  Na  Na1  1  0.72947495  0.73437576  0.50000000  1
  Tc  Tc0  1  0.97619672  0.00000000  0.00000000  1
  Tc  Tc1  1  0.33891773  0.65107333  0.50000000  1
  Tc  Tc2  1  0.68784740  0.34892667  0.50000000  1
  H  H0  1  0.85792820  0.00000000  0.21840407  1
  H  H1  1  0.96786830  0.86300276  0.20418060  1
  H  H2  1  0.85792820  0.00000000  0.78159593  1
  H  H3  1  0.96786830  0.86300276  0.79581940  1
  H  H4  1  0.10486654  0.13699724  0.20418060  1
  H  H5  1  0.10486654  0.13699724  0.79581940  1
  H  H6  1  0.14997838  0.00000000  0.00000000  1
  H  H7  1  0.96985609  0.17641035  0.00000000  1
  H  H8  1  0.79344474  0.82358965  0.00000000  1
  H  H9  1  0.22395790  0.50522224  0.29477069  1
  H  H10  1  0.48263141  0.68697064  0.29737438  1
  H  H11  1  0.22395790  0.50522224  0.70522931  1
  H  H12  1  0.55744524  0.24464992  0.72058695  1
  H  H13  1  0.31279532  0.75535008  0.27941305  1
  H  H14  1  0.48263141  0.68697064  0.70262562  1
  H  H15  1  0.71873666  0.49477776  0.70522931  1
  H  H16  1  0.55744524  0.24464992  0.27941305  1
  H  H17  1  0.31279532  0.75535008  0.72058695  1
  H  H18  1  0.71873666  0.49477776  0.29477069  1
  H  H19  1  0.79565877  0.31302936  0.70262562  1
  H  H20  1  0.79565877  0.31302936  0.29737438  1
  H  H21  1  0.37287157  0.49344916  0.50000000  1
  H  H22  1  0.48316046  0.85460394  0.50000000  1
  H  H23  1  0.53179575  0.37945578  0.50000000  1
  H  H24  1  0.15234197  0.62054422  0.50000000  1
  H  H25  1  0.87942141  0.50655084  0.50000000  1
  H  H26  1  0.62855652  0.14539606  0.50000000  1
loop_
_geom_bond_atom_site_label_1
_geom_bond_atom_site_label_2
_geom_bond_distance
_geom_bond_site_symmetry_2
H0 Tc0 1.677159 1_555
H0 Na0 2.632772 1_555
H0 Na1 2.632773 1_545
H0 Rb1 2.856244 1_555
H1 Tc0 1.684485 1_565
H1 Na1 2.570738 1_555
H1 Rb0 2.856593 1_665
H1 Rb2 2.996479 1_655
H2 Tc0 1.677159 1_556
H2 Na0 2.632772 1_555
H2 Na1 2.632773 1_545
H2 Rb1 2.856244 1_556
H3 Tc0 1.684485 1_566
H3 Na1 2.570738 1_555
H3 Rb0 2.856593 1_665
H3 Rb2 2.996479 1_656
H4 Tc0 1.684488 1_455
H4 Na0 2.570756 1_455
H4 Rb0 2.856587 1_555
H4 Rb3 2.996468 1_555
H5 Tc0 1.684488 1_456
H5 Na0 2.570756 1_455
H5 Rb0 2.856587 1_555
H5 Rb3 2.996468 1_556
H6 Tc0 1.658815 1_455
H6 Rb0 2.997010 1_555
H6 Rb0 2.997010 1_554
H7 Tc0 1.656200 1_555
H7 Rb1 3.124861 1_555
H8 Tc0 1.656205 1_565
H8 Rb1 3.124852 1_565
H9 Tc1 1.684529 1_555
H9 Na0 2.449421 1_455
H9 Rb3 2.948569 1_555
H9 Rb2 3.038262 1_555
H10 Tc1 1.686757 1_555
H10 Na1 2.449526 1_555
H10 Rb3 2.826003 1_555
H10 Rb1 3.026391 1_565
H11 Tc1 1.684529 1_555
H11 Na0 2.449421 1_455
H11 Rb3 2.948569 1_556
H11 Rb2 3.038262 1_556
H12 Tc2 1.673691 1_555
H12 Rb1 2.892638 1_556
H12 Rb0 2.895980 1_555
H12 Rb3 2.956181 1_556
H13 Tc1 1.673678 1_555
H13 Rb1 2.892638 1_565
H13 Rb0 2.895980 1_565
H13 Rb2 2.956174 1_555
H14 Tc1 1.686757 1_555
H14 Na1 2.449526 1_555
H14 Rb3 2.826003 1_556
H14 Rb1 3.026391 1_566
H15 Tc2 1.684534 1_555
H15 Na1 2.449417 1_555
H15 Rb2 2.948569 1_656
H15 Rb3 3.038277 1_556
H16 Tc2 1.673691 1_555
H16 Rb1 2.892638 1_555
H16 Rb0 2.895980 1_555
H16 Rb3 2.956181 1_555
H17 Tc1 1.673678 1_555
H17 Rb1 2.892638 1_566
H17 Rb0 2.895980 1_565
H17 Rb2 2.956174 1_556
H18 Tc2 1.684534 1_555
H18 Na1 2.449417 1_555
H18 Rb2 2.948569 1_655
H18 Rb3 3.038277 1_555
H19 Tc2 1.686723 1_555
H19 Na0 2.449526 1_555
H19 Rb2 2.826010 1_656
H19 Rb1 3.026388 1_556
H20 Tc2 1.686723 1_555
H20 Na0 2.449526 1_555
H20 Rb2 2.826010 1_655
H20 Rb1 3.026388 1_555
H21 Tc1 1.642646 1_555
H21 Rb3 3.026849 1_555
H21 Rb3 3.026849 1_556
H22 Tc1 1.652718 1_555
H22 Rb1 3.077222 1_566
H22 Rb1 3.077222 1_565
H22 Rb0 3.132146 1_565
H23 Tc2 1.652847 1_555
H23 Rb3 3.102493 1_556
H23 Rb3 3.102493 1_555
H23 Rb0 3.112571 1_555
H24 Tc1 1.652799 1_555
H24 Rb2 3.102496 1_555
H24 Rb2 3.102496 1_556
H24 Rb0 3.112577 1_565
H25 Tc2 1.642621 1_555
H25 Rb2 3.026855 1_655
H25 Rb2 3.026855 1_656
H26 Tc2 1.652711 1_555
H26 Rb1 3.077222 1_555
H26 Rb1 3.077222 1_556
H26 Rb0 3.132146 1_555
