# generated using pymatgen
data_Lu2Fe3Co
_symmetry_space_group_name_H-M   'P 1'
_cell_length_a   5.05743875
_cell_length_b   5.05743837
_cell_length_c   5.05743879
_cell_angle_alpha   60.41686278
_cell_angle_beta   60.41686567
_cell_angle_gamma   60.41686725
_symmetry_Int_Tables_number   1
_chemical_formula_structural   Lu2Fe3Co
_chemical_formula_sum   'Lu2 Fe3 Co1'
_cell_volume   92.33183057
_cell_formula_units_Z   1
loop_
 _symmetry_equiv_pos_site_id
 _symmetry_equiv_pos_as_xyz
  1  'x, y, z'
loop_
 _atom_site_type_symbol
 _atom_site_label
 _atom_site_symmetry_multiplicity
 _atom_site_fract_x
 _atom_site_fract_y
 _atom_site_fract_z
 _atom_site_occupancy
  Lu  Lu0  1  0.49973753  0.49973753  0.49973753  1
  Lu  Lu1  1  0.75026247  0.75026247  0.75026247  1
  Fe  Fe0  1  0.62500000  0.12500000  0.12500000  1
  Fe  Fe1  1  0.12500000  0.62500000  0.12500000  1
  Fe  Fe2  1  0.12500000  0.12500000  0.62500000  1
  Co  Co0  1  0.12500000  0.12500000  0.12500000  1
loop_
_geom_bond_atom_site_label_1
_geom_bond_atom_site_label_2
_geom_bond_distance
_geom_bond_site_symmetry_2
Fe0 Fe1 2.544636 1_555
Fe0 Fe1 2.544636 1_645
Fe0 Fe2 2.544636 1_654
Fe0 Fe2 2.544636 1_555
Fe0 Lu0 2.959818 1_555
Fe0 Lu1 2.959818 1_544
Fe0 Lu1 2.977911 1_554
Fe0 Lu0 2.977911 1_545
Fe0 Lu1 2.977911 1_545
Fe0 Lu0 2.977911 1_554
Fe1 Fe2 2.544636 1_564
Fe1 Fe2 2.544636 1_555
Fe1 Lu0 2.959818 1_555
Fe1 Lu1 2.959818 1_454
Fe1 Lu1 2.977911 1_554
Fe1 Lu0 2.977911 1_455
Fe1 Lu1 2.977911 1_455
Fe1 Lu0 2.977911 1_554
Fe2 Lu0 2.959818 1_555
Fe2 Lu1 2.959818 1_445
Fe2 Lu1 2.977911 1_455
Fe2 Lu0 2.977911 1_545
Fe2 Lu1 2.977911 1_545
Fe2 Lu0 2.977911 1_455
Co0 Fe1 2.528719 1_555
Co0 Fe1 2.528719 1_545
Co0 Fe0 2.528719 1_555
Co0 Fe0 2.528719 1_455
Co0 Fe2 2.528719 1_554
Co0 Fe2 2.528719 1_555
Co0 Lu0 2.982447 1_554
Co0 Lu1 2.982447 1_445
Co0 Lu0 2.982447 1_545
Co0 Lu1 2.982447 1_454
Co0 Lu1 2.982447 1_544
Co0 Lu0 2.982447 1_455
