# generated using pymatgen
data_PrAgAs2
_symmetry_space_group_name_H-M   'P 1'
_cell_length_a   4.04684578
_cell_length_b   4.10442720
_cell_length_c   21.46233524
_cell_angle_alpha   90.00000000
_cell_angle_beta   90.00000000
_cell_angle_gamma   90.00000000
_symmetry_Int_Tables_number   1
_chemical_formula_structural   PrAgAs2
_chemical_formula_sum   'Pr4 Ag4 As8'
_cell_volume   356.48904266
_cell_formula_units_Z   4
loop_
 _symmetry_equiv_pos_site_id
 _symmetry_equiv_pos_as_xyz
  1  'x, y, z'
loop_
 _atom_site_type_symbol
 _atom_site_label
 _atom_site_symmetry_multiplicity
 _atom_site_fract_x
 _atom_site_fract_y
 _atom_site_fract_z
 _atom_site_occupancy
  Pr  Pr0  1  0.25000000  0.77451983  0.61540858  1
  Pr  Pr1  1  0.75000000  0.22548017  0.38459142  1
  Pr  Pr2  1  0.75000000  0.27451983  0.88459142  1
  Pr  Pr3  1  0.25000000  0.72548017  0.11540858  1
  Ag  Ag0  1  0.25000000  0.22386842  0.25006249  1
  Ag  Ag1  1  0.75000000  0.72386842  0.24993751  1
  Ag  Ag2  1  0.75000000  0.77613158  0.74993751  1
  Ag  Ag3  1  0.25000000  0.27613158  0.75006249  1
  As  As0  1  0.25000000  0.77582704  0.83709295  1
  As  As1  1  0.75000000  0.22417296  0.16290705  1
  As  As2  1  0.75000000  0.27582704  0.66290705  1
  As  As3  1  0.25000000  0.72417296  0.33709295  1
  As  As4  1  0.25000000  0.30372740  0.50196450  1
  As  As5  1  0.25000000  0.19627260  0.00196450  1
  As  As6  1  0.75000000  0.80372740  0.99803550  1
  As  As7  1  0.75000000  0.69627260  0.49803550  1
loop_
_geom_bond_atom_site_label_1
_geom_bond_atom_site_label_2
_geom_bond_distance
_geom_bond_site_symmetry_2
Ag0 As1 2.755582 1_455
Ag0 As1 2.755582 1_555
Ag0 As3 2.774061 1_545
Ag0 As3 2.775910 1_555
Ag1 As3 2.755582 1_555
Ag1 As3 2.755582 1_655
Ag1 As1 2.774061 1_555
Ag1 As1 2.775910 1_565
Ag2 As0 2.755582 1_655
Ag2 As0 2.755582 1_555
Ag2 As2 2.774061 1_565
Ag2 As2 2.775910 1_555
Ag3 As2 2.755582 1_455
Ag3 As2 2.755582 1_555
Ag3 As0 2.774061 1_555
Ag3 As0 2.775910 1_545
As0 Pr2 3.053369 1_565
As0 Pr2 3.053369 1_465
As0 Pr2 3.060573 1_455
As0 Pr2 3.060573 1_555
As1 Pr3 3.053369 1_545
As1 Pr3 3.053369 1_645
As1 Pr3 3.060573 1_555
As1 Pr3 3.060573 1_655
As2 Pr0 3.053369 1_655
As2 Pr0 3.053369 1_555
As2 Pr0 3.060573 1_545
As2 Pr0 3.060573 1_645
As3 Pr1 3.053369 1_555
As3 Pr1 3.053369 1_455
As3 Pr1 3.060573 1_565
As3 Pr1 3.060573 1_465
As4 As7 2.587901 1_555
As4 As7 2.587901 1_455
As4 Pr0 3.108382 1_555
As4 Pr1 3.247037 1_555
As4 Pr1 3.247037 1_455
As4 Pr0 3.262839 1_545
As5 As6 2.587901 1_444
As5 As6 2.587901 1_544
As5 Pr3 3.108382 1_545
As5 Pr2 3.247037 1_554
As5 Pr2 3.247037 1_454
As5 Pr3 3.262839 1_555
As6 Pr2 3.108382 1_565
As6 Pr3 3.247037 1_556
As6 Pr3 3.247037 1_656
As6 Pr2 3.262839 1_555
As7 Pr1 3.108382 1_555
As7 Pr0 3.247037 1_555
As7 Pr0 3.247037 1_655
As7 Pr1 3.262839 1_565
