# generated using pymatgen
data_GaCuSe2
_symmetry_space_group_name_H-M   'P 1'
_cell_length_a   5.60273577
_cell_length_b   5.60273600
_cell_length_c   6.82313837
_cell_angle_alpha   114.24057729
_cell_angle_beta   114.24057302
_cell_angle_gamma   90.00000036
_symmetry_Int_Tables_number   1
_chemical_formula_structural   GaCuSe2
_chemical_formula_sum   'Ga2 Cu2 Se4'
_cell_volume   174.38032578
_cell_formula_units_Z   2
loop_
 _symmetry_equiv_pos_site_id
 _symmetry_equiv_pos_as_xyz
  1  'x, y, z'
loop_
 _atom_site_type_symbol
 _atom_site_label
 _atom_site_symmetry_multiplicity
 _atom_site_fract_x
 _atom_site_fract_y
 _atom_site_fract_z
 _atom_site_occupancy
  Ga  Ga0  1  0.50000000  0.50000000  -0.00000000  1
  Ga  Ga1  1  0.75000000  0.25000000  0.50000000  1
  Cu  Cu0  1  0.00000000  -0.00000000  -0.00000000  1
  Cu  Cu1  1  0.25000000  0.75000000  0.50000000  1
  Se  Se0  1  0.37121578  0.37500000  0.25000000  1
  Se  Se1  1  0.12500000  0.62878422  0.75000000  1
  Se  Se2  1  0.62500000  0.12121578  0.75000000  1
  Se  Se3  1  0.87878422  0.87500000  0.25000000  1
loop_
_geom_bond_atom_site_label_1
_geom_bond_atom_site_label_2
_geom_bond_distance
_geom_bond_site_symmetry_2
Ga0 Se3 2.431546 1_555
Ga0 Se2 2.431546 1_554
Ga0 Se1 2.431547 1_554
Ga0 Se0 2.431547 1_555
Ga1 Se1 2.431546 1_655
Ga1 Se3 2.431546 1_545
Ga1 Se0 2.431547 1_555
Ga1 Se2 2.431547 1_555
Cu0 Se0 2.406996 1_555
Cu0 Se1 2.406996 1_544
Cu0 Se2 2.406996 1_454
Cu0 Se3 2.406996 1_445
Cu1 Se2 2.406996 1_565
Cu1 Se0 2.406996 1_555
Cu1 Se3 2.406996 1_455
Cu1 Se1 2.406996 1_555
