# generated using pymatgen
data_K2NbF7
_symmetry_space_group_name_H-M   'P 1'
_cell_length_a   12.66924211
_cell_length_b   5.77449063
_cell_length_c   8.49252305
_cell_angle_alpha   90.03383735
_cell_angle_beta   90.00000000
_cell_angle_gamma   90.00000000
_symmetry_Int_Tables_number   1
_chemical_formula_structural   K2NbF7
_chemical_formula_sum   'K8 Nb4 F28'
_cell_volume   621.29945879
_cell_formula_units_Z   4
loop_
 _symmetry_equiv_pos_site_id
 _symmetry_equiv_pos_as_xyz
  1  'x, y, z'
loop_
 _atom_site_type_symbol
 _atom_site_label
 _atom_site_symmetry_multiplicity
 _atom_site_fract_x
 _atom_site_fract_y
 _atom_site_fract_z
 _atom_site_occupancy
  K  K0  1  0.78186184  0.76270898  0.05486766  1
  K  K1  1  0.28186184  0.23729102  0.44513234  1
  K  K2  1  0.21813816  0.23729102  0.94513234  1
  K  K3  1  0.71813816  0.76270898  0.55486766  1
  K  K4  1  0.93959809  0.23823958  0.31967292  1
  K  K5  1  0.43959809  0.76176042  0.18032708  1
  K  K6  1  0.06040191  0.76176042  0.68032708  1
  K  K7  1  0.56040191  0.23823958  0.81967292  1
  Nb  Nb0  1  0.62786660  0.27325121  0.27959023  1
  Nb  Nb1  1  0.12786660  0.72674879  0.22040977  1
  Nb  Nb2  1  0.37213340  0.72674879  0.72040977  1
  Nb  Nb3  1  0.87213340  0.27325121  0.77959023  1
  F  F0  1  0.57589659  0.56846120  0.37174879  1
  F  F1  1  0.07589659  0.43153880  0.12825121  1
  F  F2  1  0.42410341  0.43153880  0.62825121  1
  F  F3  1  0.92410341  0.56846120  0.87174879  1
  F  F4  1  0.62278556  0.18851744  0.50317084  1
  F  F5  1  0.12278556  0.81148256  -0.00317084  1
  F  F6  1  0.37721444  0.81148256  0.49682916  1
  F  F7  1  0.87721444  0.18851744  0.00317084  1
  F  F8  1  0.47506371  0.21050715  0.28847358  1
  F  F9  1  0.97506371  0.78949285  0.21152642  1
  F  F10  1  0.52493629  0.78949285  0.71152642  1
  F  F11  1  0.02493629  0.21050715  0.78847358  1
  F  F12  1  0.75549184  0.04172263  0.80193135  1
  F  F13  1  0.25549184  0.95827737  0.69806865  1
  F  F14  1  0.24450816  0.95827737  0.19806865  1
  F  F15  1  0.74450816  0.04172263  0.30193135  1
  F  F16  1  0.74193687  0.46588532  0.79402419  1
  F  F17  1  0.24193687  0.53411468  0.70597581  1
  F  F18  1  0.25806313  0.53411468  0.20597581  1
  F  F19  1  0.75806313  0.46588532  0.29402419  1
  F  F20  1  0.89344295  0.04071893  0.60848921  1
  F  F21  1  0.39344295  0.95928107  0.89151079  1
  F  F22  1  0.10655705  0.95928107  0.39151079  1
  F  F23  1  0.60655705  0.04071893  0.10848921  1
  F  F24  1  0.89061835  0.46944731  0.58891858  1
  F  F25  1  0.39061835  0.53055269  0.91108142  1
  F  F26  1  0.10938165  0.53055269  0.41108142  1
  F  F27  1  0.60938165  0.46944731  0.08891858  1
loop_
_geom_bond_atom_site_label_1
_geom_bond_atom_site_label_2
_geom_bond_distance
_geom_bond_site_symmetry_2
F0 Nb0 1.987575 1_555
F0 K5 2.621572 1_555
F0 K3 2.630991 1_555
F1 Nb1 1.987575 1_555
F1 K4 2.621572 1_455
F1 K2 2.630991 1_554
F2 Nb2 1.987575 1_555
F2 K7 2.621572 1_555
F2 K1 2.630991 1_555
F3 Nb3 1.987575 1_555
F3 K6 2.621572 1_655
F3 K0 2.630991 1_556
F4 Nb0 1.962130 1_555
F4 K3 2.774749 1_545
F4 K7 2.816203 1_555
F5 Nb1 1.962130 1_555
F5 K2 2.774749 1_564
F5 K6 2.816203 1_554
F6 Nb2 1.962130 1_555
F6 K1 2.774749 1_565
F6 K5 2.816203 1_555
F7 Nb3 1.962130 1_554
F7 K0 2.774749 1_545
F7 K4 2.816203 1_555
F8 Nb0 1.970962 1_555
F8 K5 2.785203 1_545
F8 K1 2.790171 1_555
F9 Nb1 1.970962 1_655
F9 K4 2.785203 1_565
F9 K0 2.790171 1_555
F10 Nb2 1.970962 1_555
F10 K7 2.785203 1_565
F10 K3 2.790171 1_555
F11 Nb3 1.970962 1_455
F11 K6 2.785203 1_545
F11 K2 2.790171 1_555
F12 Nb3 2.001883 1_555
F12 K3 2.686676 1_545
F12 K0 2.706610 1_546
F12 K7 2.723830 1_555
F13 Nb2 2.001883 1_555
F13 K2 2.686676 1_565
F13 K1 2.706610 1_565
F13 K6 2.723830 1_555
F14 Nb1 2.001883 1_555
F14 K1 2.686676 1_565
F14 K2 2.706610 1_564
F14 K5 2.723830 1_555
F15 Nb0 2.001883 1_555
F15 K0 2.686676 1_545
F15 K3 2.706610 1_545
F15 K4 2.723830 1_555
F16 Nb3 1.993249 1_555
F16 K7 2.658079 1_555
F16 K3 2.675438 1_555
F16 K0 2.845414 1_556
F17 Nb2 1.993249 1_555
F17 K6 2.658079 1_555
F17 K2 2.675438 1_555
F17 K1 2.845414 1_555
F18 Nb1 1.993249 1_555
F18 K5 2.658079 1_555
F18 K1 2.675438 1_555
F18 K2 2.845414 1_554
F19 Nb0 1.993249 1_555
F19 K4 2.658079 1_555
F19 K0 2.675438 1_555
F19 K3 2.845414 1_555
F20 Nb3 1.996250 1_555
F20 K6 2.728083 1_645
F20 K4 2.768084 1_555
F20 K3 2.777851 1_545
F21 Nb2 1.996250 1_555
F21 K7 2.728083 1_565
F21 K5 2.768084 1_556
F21 K2 2.777851 1_565
F22 Nb1 1.996250 1_555
F22 K4 2.728083 1_465
F22 K6 2.768084 1_555
F22 K1 2.777851 1_565
F23 Nb0 1.996250 1_555
F23 K5 2.728083 1_545
F23 K7 2.768084 1_554
F23 K0 2.777851 1_545
F24 Nb3 1.990635 1_555
F24 K4 2.718896 1_555
F24 K3 2.779748 1_555
F24 K6 2.842043 1_655
F25 Nb2 1.990635 1_555
F25 K5 2.718896 1_556
F25 K2 2.779748 1_555
F25 K7 2.842043 1_555
F26 Nb1 1.990635 1_555
F26 K6 2.718896 1_555
F26 K1 2.779748 1_555
F26 K4 2.842043 1_455
F27 Nb0 1.990635 1_555
F27 K7 2.718896 1_554
F27 K0 2.779748 1_555
F27 K5 2.842043 1_555
