# generated using pymatgen
data_Sr(NO3)2
_symmetry_space_group_name_H-M   'P 1'
_cell_length_a   7.75544901
_cell_length_b   7.75544901
_cell_length_c   7.75544901
_cell_angle_alpha   90.00000000
_cell_angle_beta   90.00000000
_cell_angle_gamma   90.00000000
_symmetry_Int_Tables_number   1
_chemical_formula_structural   Sr(NO3)2
_chemical_formula_sum   'Sr4 N8 O24'
_cell_volume   466.46690898
_cell_formula_units_Z   4
loop_
 _symmetry_equiv_pos_site_id
 _symmetry_equiv_pos_as_xyz
  1  'x, y, z'
loop_
 _atom_site_type_symbol
 _atom_site_label
 _atom_site_symmetry_multiplicity
 _atom_site_fract_x
 _atom_site_fract_y
 _atom_site_fract_z
 _atom_site_occupancy
  Sr  Sr0  1  0.00000000  0.50000000  0.50000000  1
  Sr  Sr1  1  0.50000000  0.50000000  -0.00000000  1
  Sr  Sr2  1  0.50000000  0.00000000  0.50000000  1
  Sr  Sr3  1  0.00000000  0.00000000  -0.00000000  1
  N  N0  1  0.34198393  0.34198393  0.34198393  1
  N  N1  1  0.34198393  0.15801607  0.84198393  1
  N  N2  1  0.15801607  0.84198393  0.34198393  1
  N  N3  1  0.84198393  0.34198393  0.15801607  1
  N  N4  1  0.65801607  0.65801607  0.65801607  1
  N  N5  1  0.15801607  0.65801607  0.84198393  1
  N  N6  1  0.84198393  0.15801607  0.65801607  1
  N  N7  1  0.65801607  0.84198393  0.15801607  1
  O  O0  1  0.77090628  0.28061122  0.02556315  1
  O  O1  1  0.21938878  0.97443685  0.27090628  1
  O  O2  1  0.22909372  0.78061122  0.47443685  1
  O  O3  1  0.27090628  0.21938878  0.97443685  1
  O  O4  1  0.27090628  0.28061122  0.47443685  1
  O  O5  1  0.47443685  0.27090628  0.28061122  1
  O  O6  1  0.28061122  0.47443685  0.27090628  1
  O  O7  1  0.21938878  0.52556315  0.77090628  1
  O  O8  1  0.97443685  0.22909372  0.71938878  1
  O  O9  1  0.71938878  0.97443685  0.22909372  1
  O  O10  1  0.02556315  0.72909372  0.78061122  1
  O  O11  1  0.52556315  0.77090628  0.21938878  1
  O  O12  1  0.78061122  0.02556315  0.72909372  1
  O  O13  1  0.77090628  0.21938878  0.52556315  1
  O  O14  1  0.72909372  0.78061122  0.02556315  1
  O  O15  1  0.22909372  0.71938878  0.97443685  1
  O  O16  1  0.72909372  0.71938878  0.52556315  1
  O  O17  1  0.52556315  0.72909372  0.71938878  1
  O  O18  1  0.71938878  0.52556315  0.72909372  1
  O  O19  1  0.78061122  0.47443685  0.22909372  1
  O  O20  1  0.02556315  0.77090628  0.28061122  1
  O  O21  1  0.28061122  0.02556315  0.77090628  1
  O  O22  1  0.97443685  0.27090628  0.21938878  1
  O  O23  1  0.47443685  0.22909372  0.78061122  1
loop_
_geom_bond_atom_site_label_1
_geom_bond_atom_site_label_2
_geom_bond_distance
_geom_bond_site_symmetry_2
N0 O6 1.259214 1_555
N0 O4 1.259214 1_555
N0 O5 1.259214 1_555
N1 O3 1.259214 1_555
N1 O21 1.259214 1_555
N1 O23 1.259214 1_555
N2 O1 1.259214 1_555
N2 O20 1.259214 1_555
N2 O2 1.259214 1_555
N3 O22 1.259214 1_555
N3 O0 1.259214 1_555
N3 O19 1.259214 1_555
N4 O18 1.259214 1_555
N4 O17 1.259214 1_555
N4 O16 1.259214 1_555
N5 O15 1.259214 1_555
N5 O10 1.259214 1_555
N5 O7 1.259214 1_555
N6 O8 1.259214 1_555
N6 O12 1.259214 1_555
N6 O13 1.259214 1_555
N7 O9 1.259214 1_555
N7 O14 1.259214 1_555
N7 O11 1.259214 1_555
O0 Sr1 2.710805 1_555
O0 Sr3 2.816414 1_655
O1 Sr3 2.710805 1_565
O1 Sr2 2.816414 1_565
O2 Sr2 2.710805 1_565
O2 Sr0 2.816414 1_555
O3 Sr3 2.710805 1_556
O3 Sr1 2.816414 1_556
O4 Sr0 2.710805 1_555
O4 Sr2 2.816414 1_555
O5 Sr2 2.710805 1_555
O5 Sr1 2.816414 1_555
O6 Sr1 2.710805 1_555
O6 Sr0 2.816414 1_555
O7 Sr0 2.710805 1_555
O7 Sr1 2.816414 1_556
O8 Sr0 2.710805 1_655
O8 Sr3 2.816414 1_656
O9 Sr2 2.710805 1_565
O9 Sr3 2.816414 1_665
O10 Sr3 2.710805 1_566
O10 Sr0 2.816414 1_555
O11 Sr1 2.710805 1_555
O11 Sr2 2.816414 1_565
O12 Sr3 2.710805 1_656
O12 Sr2 2.816414 1_555
O13 Sr2 2.710805 1_555
O13 Sr0 2.816414 1_655
O14 Sr3 2.710805 1_665
O14 Sr1 2.816414 1_555
O15 Sr1 2.710805 1_556
O15 Sr3 2.816414 1_566
O16 Sr0 2.710805 1_655
O16 Sr2 2.816414 1_565
O17 Sr2 2.710805 1_565
O17 Sr1 2.816414 1_556
O18 Sr1 2.710805 1_556
O18 Sr0 2.816414 1_655
O19 Sr0 2.710805 1_655
O19 Sr1 2.816414 1_555
O20 Sr0 2.710805 1_555
O20 Sr3 2.816414 1_565
O21 Sr2 2.710805 1_555
O21 Sr3 2.816414 1_556
O22 Sr3 2.710805 1_655
O22 Sr0 2.816414 1_655
O23 Sr1 2.710805 1_556
O23 Sr2 2.816414 1_555
