# generated using pymatgen
data_UGa5Co
_symmetry_space_group_name_H-M   'P 1'
_cell_length_a   4.21066605
_cell_length_b   4.21066094
_cell_length_c   6.79402277
_cell_angle_alpha   90.00000000
_cell_angle_beta   90.00000000
_cell_angle_gamma   90.00000000
_symmetry_Int_Tables_number   1
_chemical_formula_structural   UGa5Co
_chemical_formula_sum   'U1 Ga5 Co1'
_cell_volume   120.45589765
_cell_formula_units_Z   1
loop_
 _symmetry_equiv_pos_site_id
 _symmetry_equiv_pos_as_xyz
  1  'x, y, z'
loop_
 _atom_site_type_symbol
 _atom_site_label
 _atom_site_symmetry_multiplicity
 _atom_site_fract_x
 _atom_site_fract_y
 _atom_site_fract_z
 _atom_site_occupancy
  U  U0  1  0.00000000  0.00000000  -0.00000000  1
  Ga  Ga0  1  0.50000000  0.50000000  -0.00000000  1
  Ga  Ga1  1  -0.00000000  0.50000000  0.31214383  1
  Ga  Ga2  1  0.50000000  0.00000000  0.31214383  1
  Ga  Ga3  1  0.00000000  0.50000000  0.68785617  1
  Ga  Ga4  1  0.50000000  -0.00000000  0.68785617  1
  Co  Co0  1  0.00000000  0.00000000  0.50000000  1
loop_
_geom_bond_atom_site_label_1
_geom_bond_atom_site_label_2
_geom_bond_distance
_geom_bond_site_symmetry_2
Ga0 U0 2.977389 1_555
Ga0 U0 2.977389 1_655
Ga0 U0 2.977389 1_565
Ga0 U0 2.977389 1_665
Ga0 Ga2 2.988283 1_555
Ga0 Ga2 2.988283 1_565
Ga0 Ga4 2.988283 1_564
Ga0 Ga4 2.988283 1_554
Ga0 Ga3 2.988285 1_554
Ga0 Ga1 2.988285 1_555
Ga0 Ga1 2.988285 1_655
Ga0 Ga3 2.988285 1_654
Ga1 Ga3 2.552598 1_555
Ga1 Ga2 2.977389 1_465
Ga1 Ga2 2.977389 1_455
Ga1 Ga2 2.977389 1_555
Ga1 Ga2 2.977389 1_565
Ga1 U0 2.988283 1_555
Ga1 U0 2.988283 1_565
Ga2 Ga4 2.552598 1_555
Ga2 U0 2.988285 1_655
Ga2 U0 2.988285 1_555
Ga3 Ga4 2.977389 1_565
Ga3 Ga4 2.977389 1_455
Ga3 Ga4 2.977389 1_465
Ga3 Ga4 2.977389 1_555
Ga3 U0 2.988283 1_566
Ga3 U0 2.988283 1_556
Ga4 U0 2.988285 1_556
Ga4 U0 2.988285 1_656
Co0 Ga1 2.461982 1_545
Co0 Ga1 2.461982 1_555
Co0 Ga3 2.461982 1_545
Co0 Ga3 2.461982 1_555
Co0 Ga4 2.461984 1_455
Co0 Ga4 2.461984 1_555
Co0 Ga2 2.461984 1_455
Co0 Ga2 2.461984 1_555
