# generated using pymatgen
data_Ba(NO3)2
_symmetry_space_group_name_H-M   'P 1'
_cell_length_a   8.15313956
_cell_length_b   8.15313956
_cell_length_c   8.15313956
_cell_angle_alpha   90.00000000
_cell_angle_beta   90.00000000
_cell_angle_gamma   90.00000000
_symmetry_Int_Tables_number   1
_chemical_formula_structural   Ba(NO3)2
_chemical_formula_sum   'Ba4 N8 O24'
_cell_volume   541.96922830
_cell_formula_units_Z   4
loop_
 _symmetry_equiv_pos_site_id
 _symmetry_equiv_pos_as_xyz
  1  'x, y, z'
loop_
 _atom_site_type_symbol
 _atom_site_label
 _atom_site_symmetry_multiplicity
 _atom_site_fract_x
 _atom_site_fract_y
 _atom_site_fract_z
 _atom_site_occupancy
  Ba  Ba0  1  -0.00000000  0.50000000  0.50000000  1
  Ba  Ba1  1  0.50000000  0.50000000  -0.00000000  1
  Ba  Ba2  1  0.50000000  0.00000000  0.50000000  1
  Ba  Ba3  1  -0.00000000  0.00000000  -0.00000000  1
  N  N0  1  0.34431986  0.34431986  0.34431986  1
  N  N1  1  0.34431986  0.15568014  0.84431986  1
  N  N2  1  0.15568014  0.84431986  0.34431986  1
  N  N3  1  0.84431986  0.34431986  0.15568014  1
  N  N4  1  0.65568014  0.65568014  0.65568014  1
  N  N5  1  0.15568014  0.65568014  0.84431986  1
  N  N6  1  0.84431986  0.15568014  0.65568014  1
  N  N7  1  0.65568014  0.84431986  0.15568014  1
  O  O0  1  0.77862034  0.28385395  0.02938913  1
  O  O1  1  0.21614605  0.97061087  0.27862034  1
  O  O2  1  0.22137966  0.78385395  0.47061087  1
  O  O3  1  0.27862034  0.21614605  0.97061087  1
  O  O4  1  0.27862034  0.28385395  0.47061087  1
  O  O5  1  0.47061087  0.27862034  0.28385395  1
  O  O6  1  0.28385395  0.47061087  0.27862034  1
  O  O7  1  0.21614605  0.52938913  0.77862034  1
  O  O8  1  0.97061087  0.22137966  0.71614605  1
  O  O9  1  0.71614605  0.97061087  0.22137966  1
  O  O10  1  0.02938913  0.72137966  0.78385395  1
  O  O11  1  0.52938913  0.77862034  0.21614605  1
  O  O12  1  0.78385395  0.02938913  0.72137966  1
  O  O13  1  0.77862034  0.21614605  0.52938913  1
  O  O14  1  0.72137966  0.78385395  0.02938913  1
  O  O15  1  0.22137966  0.71614605  0.97061087  1
  O  O16  1  0.72137966  0.71614605  0.52938913  1
  O  O17  1  0.52938913  0.72137966  0.71614605  1
  O  O18  1  0.71614605  0.52938913  0.72137966  1
  O  O19  1  0.78385395  0.47061087  0.22137966  1
  O  O20  1  0.02938913  0.77862034  0.28385395  1
  O  O21  1  0.28385395  0.02938913  0.77862034  1
  O  O22  1  0.97061087  0.27862034  0.21614605  1
  O  O23  1  0.47061087  0.22137966  0.78385395  1
loop_
_geom_bond_atom_site_label_1
_geom_bond_atom_site_label_2
_geom_bond_distance
_geom_bond_site_symmetry_2
Ba0 O19 2.885015 1_455
Ba0 O8 2.885015 1_455
Ba0 O4 2.885015 1_555
Ba0 O20 2.885015 1_555
Ba0 O7 2.885015 1_555
Ba0 O16 2.885015 1_455
Ba0 O13 2.944692 1_455
Ba0 O22 2.944692 1_455
Ba0 O10 2.944692 1_555
Ba0 O18 2.944692 1_455
Ba0 O6 2.944692 1_555
Ba0 O2 2.944692 1_555
Ba1 O0 2.885015 1_555
Ba1 O11 2.885015 1_555
Ba1 O23 2.885015 1_554
Ba1 O15 2.885015 1_554
Ba1 O6 2.885015 1_555
Ba1 O18 2.885015 1_554
Ba1 O7 2.944692 1_554
Ba1 O3 2.944692 1_554
Ba1 O5 2.944692 1_555
Ba1 O17 2.944692 1_554
Ba1 O14 2.944692 1_555
Ba1 O19 2.944692 1_555
Ba2 O17 2.885015 1_545
Ba2 O9 2.885015 1_545
Ba2 O2 2.885015 1_545
Ba2 O13 2.885015 1_555
Ba2 O21 2.885015 1_555
Ba2 O5 2.885015 1_555
Ba2 O1 2.944692 1_545
Ba2 O12 2.944692 1_555
Ba2 O11 2.944692 1_545
Ba2 O4 2.944692 1_555
Ba2 O16 2.944692 1_545
Ba2 O23 2.944692 1_555
Ba3 O14 2.885015 1_445
Ba3 O22 2.885015 1_455
Ba3 O1 2.885015 1_545
Ba3 O3 2.885015 1_554
Ba3 O10 2.885015 1_544
Ba3 O12 2.885015 1_454
Ba3 O20 2.944692 1_545
Ba3 O15 2.944692 1_544
Ba3 O21 2.944692 1_554
Ba3 O0 2.944692 1_455
Ba3 O8 2.944692 1_454
Ba3 O9 2.944692 1_445
N0 O5 1.261024 1_555
N0 O6 1.261024 1_555
N0 O4 1.261024 1_555
N1 O3 1.261024 1_555
N1 O21 1.261024 1_555
N1 O23 1.261024 1_555
N2 O20 1.261024 1_555
N2 O1 1.261024 1_555
N2 O2 1.261024 1_555
N3 O22 1.261024 1_555
N3 O0 1.261024 1_555
N3 O19 1.261024 1_555
N4 O17 1.261024 1_555
N4 O18 1.261024 1_555
N4 O16 1.261024 1_555
N5 O10 1.261024 1_555
N5 O7 1.261024 1_555
N5 O15 1.261024 1_555
N6 O13 1.261024 1_555
N6 O12 1.261024 1_555
N6 O8 1.261024 1_555
N7 O11 1.261024 1_555
N7 O9 1.261024 1_555
N7 O14 1.261024 1_555
