# generated using pymatgen
data_Cr3Pt
_symmetry_space_group_name_H-M   'P 1'
_cell_length_a   4.68556679
_cell_length_b   4.68556276
_cell_length_c   4.74002797
_cell_angle_alpha   90.00000000
_cell_angle_beta   90.00000000
_cell_angle_gamma   90.00000000
_symmetry_Int_Tables_number   1
_chemical_formula_structural   Cr3Pt
_chemical_formula_sum   'Cr6 Pt2'
_cell_volume   104.06502588
_cell_formula_units_Z   2
loop_
 _symmetry_equiv_pos_site_id
 _symmetry_equiv_pos_as_xyz
  1  'x, y, z'
loop_
 _atom_site_type_symbol
 _atom_site_label
 _atom_site_symmetry_multiplicity
 _atom_site_fract_x
 _atom_site_fract_y
 _atom_site_fract_z
 _atom_site_occupancy
  Cr  Cr0  1  0.24771318  -0.00000000  0.50000000  1
  Cr  Cr1  1  0.75228682  -0.00000000  0.50000000  1
  Cr  Cr2  1  -0.00000000  0.50000000  0.24999262  1
  Cr  Cr3  1  0.00000000  0.50000000  0.75000738  1
  Cr  Cr4  1  0.50000000  0.74770447  0.00000000  1
  Cr  Cr5  1  0.50000000  0.25229553  -0.00000000  1
  Pt  Pt0  1  -0.00000000  -0.00000000  -0.00000000  1
  Pt  Pt1  1  0.50000000  0.50000000  0.50000000  1
loop_
_geom_bond_atom_site_label_1
_geom_bond_atom_site_label_2
_geom_bond_distance
_geom_bond_site_symmetry_2
Cr0 Cr1 2.321353 1_455
Cr0 Cr1 2.364213 1_555
Cr0 Pt1 2.624119 1_555
Cr0 Pt1 2.624119 1_545
Cr0 Pt0 2.638965 1_555
Cr0 Pt0 2.638965 1_556
Cr1 Pt1 2.624119 1_555
Cr1 Pt1 2.624119 1_545
Cr1 Pt0 2.638965 1_656
Cr1 Pt0 2.638965 1_655
Cr2 Cr3 2.369944 1_554
Cr2 Cr3 2.370084 1_555
Cr2 Pt0 2.625411 1_565
Cr2 Pt0 2.625411 1_555
Cr2 Pt1 2.625444 1_455
Cr2 Pt1 2.625444 1_555
Cr3 Pt0 2.625411 1_566
Cr3 Pt0 2.625411 1_556
Cr3 Pt1 2.625444 1_455
Cr3 Pt1 2.625444 1_555
Cr4 Cr5 2.321270 1_555
Cr4 Cr5 2.364293 1_565
Cr4 Pt0 2.624139 1_565
Cr4 Pt0 2.624139 1_665
Cr4 Pt1 2.638947 1_555
Cr4 Pt1 2.638947 1_554
Cr5 Pt0 2.624139 1_655
Cr5 Pt0 2.624139 1_555
Cr5 Pt1 2.638947 1_555
Cr5 Pt1 2.638947 1_554
