# generated using pymatgen
data_Yb(Al2Mo)2
_symmetry_space_group_name_H-M   'P 1'
_cell_length_a   5.48189955
_cell_length_b   5.48189955
_cell_length_c   5.48189955
_cell_angle_alpha   103.72974127
_cell_angle_beta   103.72974127
_cell_angle_gamma   121.68946089
_symmetry_Int_Tables_number   1
_chemical_formula_structural   Yb(Al2Mo)2
_chemical_formula_sum   'Yb1 Al4 Mo2'
_cell_volume   122.41665049
_cell_formula_units_Z   1
loop_
 _symmetry_equiv_pos_site_id
 _symmetry_equiv_pos_as_xyz
  1  'x, y, z'
loop_
 _atom_site_type_symbol
 _atom_site_label
 _atom_site_symmetry_multiplicity
 _atom_site_fract_x
 _atom_site_fract_y
 _atom_site_fract_z
 _atom_site_occupancy
  Yb  Yb0  1  0.00000000  0.00000000  0.00000000  1
  Al  Al0  1  0.30443200  0.30443200  0.60886300  1
  Al  Al1  1  0.69556800  0.30443200  0.00000000  1
  Al  Al2  1  0.30443200  0.69556800  0.00000000  1
  Al  Al3  1  0.69556800  0.69556800  0.39113700  1
  Mo  Mo0  1  0.25000000  0.75000000  0.50000000  1
  Mo  Mo1  1  0.75000000  0.25000000  0.50000000  1
loop_
_geom_bond_atom_site_label_1
_geom_bond_atom_site_label_2
_geom_bond_distance
_geom_bond_site_symmetry_2
Al0 Al2 2.648129 1_556
Al0 Al1 2.648129 1_556
Al0 Mo1 2.790056 1_555
Al0 Mo0 2.790056 1_555
Al0 Mo1 2.790059 1_455
Al0 Mo0 2.790059 1_545
Al0 Al3 2.866855 1_555
Al0 Al3 2.866865 1_445
Al0 Yb0 2.914845 1_555
Al0 Yb0 3.261705 1_666
Al0 Yb0 3.261709 1_556
Al1 Al3 2.648129 1_555
Al1 Mo0 2.790058 1_655
Al1 Mo1 2.790058 1_554
Al1 Mo0 2.790058 1_544
Al1 Mo1 2.790058 1_555
Al1 Al2 2.866864 1_545
Al1 Al2 2.866864 1_655
Al1 Yb0 2.914850 1_655
Al1 Yb0 3.261704 1_665
Al1 Yb0 3.261704 1_555
Al2 Al3 2.648129 1_555
Al2 Mo0 2.790058 1_555
Al2 Mo1 2.790058 1_454
Al2 Mo1 2.790058 1_565
Al2 Mo0 2.790058 1_554
Al2 Yb0 2.914850 1_565
Al2 Yb0 3.261704 1_555
Al2 Yb0 3.261704 1_665
Al3 Mo1 2.790056 1_555
Al3 Mo0 2.790056 1_555
Al3 Mo0 2.790059 1_655
Al3 Mo1 2.790059 1_565
Al3 Yb0 2.914845 1_666
Al3 Yb0 3.261705 1_555
Al3 Yb0 3.261709 1_665
Mo0 Mo1 2.670661 1_455
Mo0 Mo1 2.670661 1_565
