# generated using pymatgen
data_Cd(PO3)2
_symmetry_space_group_name_H-M   'P 1'
_cell_length_a   7.02821019
_cell_length_b   9.65122415
_cell_length_c   13.68849481
_cell_angle_alpha   90.00000000
_cell_angle_beta   90.00000000
_cell_angle_gamma   90.00000000
_symmetry_Int_Tables_number   1
_chemical_formula_structural   Cd(PO3)2
_chemical_formula_sum   'Cd8 P16 O48'
_cell_volume   928.50199065
_cell_formula_units_Z   8
loop_
 _symmetry_equiv_pos_site_id
 _symmetry_equiv_pos_as_xyz
  1  'x, y, z'
loop_
 _atom_site_type_symbol
 _atom_site_label
 _atom_site_symmetry_multiplicity
 _atom_site_fract_x
 _atom_site_fract_y
 _atom_site_fract_z
 _atom_site_occupancy
  Cd  Cd0  1  0.55084657  0.99237770  0.29389606  1
  Cd  Cd1  1  0.05084657  0.50762230  0.70610394  1
  Cd  Cd2  1  0.44915343  0.49237770  0.20610394  1
  Cd  Cd3  1  0.94915343  0.00762230  0.79389606  1
  Cd  Cd4  1  0.44915343  0.00762230  0.70610394  1
  Cd  Cd5  1  0.94915343  0.49237770  0.29389606  1
  Cd  Cd6  1  0.55084657  0.50762230  0.79389606  1
  Cd  Cd7  1  0.05084657  0.99237770  0.20610394  1
  P  P0  1  0.08426195  0.30125877  0.09698733  1
  P  P1  1  0.58426195  0.19874123  0.90301267  1
  P  P2  1  0.91573805  0.80125877  0.40301267  1
  P  P3  1  0.41573805  0.69874123  0.59698733  1
  P  P4  1  0.91573805  0.69874123  0.90301267  1
  P  P5  1  0.41573805  0.80125877  0.09698733  1
  P  P6  1  0.08426195  0.19874123  0.59698733  1
  P  P7  1  0.58426195  0.30125877  0.40301267  1
  P  P8  1  0.68541425  0.21075772  0.10599690  1
  P  P9  1  0.18541425  0.28924228  0.89400310  1
  P  P10  1  0.31458575  0.71075772  0.39400310  1
  P  P11  1  0.81458575  0.78924228  0.60599690  1
  P  P12  1  0.31458575  0.78924228  0.89400310  1
  P  P13  1  0.81458575  0.71075772  0.10599690  1
  P  P14  1  0.68541425  0.28924228  0.60599690  1
  P  P15  1  0.18541425  0.21075772  0.39400310  1
  O  O0  1  0.65816286  0.13472673  0.00315343  1
  O  O1  1  0.15816286  0.36527327  0.99684657  1
  O  O2  1  0.34183714  0.63472673  0.49684657  1
  O  O3  1  0.84183714  0.86527327  0.50315343  1
  O  O4  1  0.34183714  0.86527327  0.99684657  1
  O  O5  1  0.84183714  0.63472673  0.00315343  1
  O  O6  1  0.65816286  0.36527327  0.50315343  1
  O  O7  1  0.15816286  0.13472673  0.49684657  1
  O  O8  1  0.85830490  0.31433335  0.08792333  1
  O  O9  1  0.35830490  0.18566665  0.91207667  1
  O  O10  1  0.14169510  0.81433335  0.41207667  1
  O  O11  1  0.64169510  0.68566665  0.58792333  1
  O  O12  1  0.14169510  0.68566665  0.91207667  1
  O  O13  1  0.64169510  0.81433335  0.08792333  1
  O  O14  1  0.85830490  0.18566665  0.58792333  1
  O  O15  1  0.35830490  0.31433335  0.41207667  1
  O  O16  1  0.13898080  0.15359575  0.10315002  1
  O  O17  1  0.14035535  0.40194523  0.17540481  1
  O  O18  1  0.63898080  0.34640425  0.89684998  1
  O  O19  1  0.36101920  0.84640425  0.60315002  1
  O  O20  1  0.86101920  0.84640425  0.89684998  1
  O  O21  1  0.36101920  0.65359575  0.10315002  1
  O  O22  1  0.13898080  0.34640425  0.60315002  1
  O  O23  1  0.63898080  0.15359575  0.39684998  1
  O  O24  1  0.01597774  0.29619525  0.37260009  1
  O  O25  1  0.51597774  0.20380475  0.62739991  1
  O  O26  1  0.98402226  0.79619525  0.12739991  1
  O  O27  1  0.48402226  0.70380475  0.87260009  1
  O  O28  1  0.98402226  0.70380475  0.62739991  1
  O  O29  1  0.48402226  0.79619525  0.37260009  1
  O  O30  1  0.01597774  0.20380475  0.87260009  1
  O  O31  1  0.51597774  0.29619525  0.12739991  1
  O  O32  1  0.24311590  0.10047242  0.32269742  1
  O  O33  1  0.74311590  0.39952758  0.67730258  1
  O  O34  1  0.75688410  0.60047242  0.17730258  1
  O  O35  1  0.25688410  0.89952758  0.82269742  1
  O  O36  1  0.75688410  0.89952758  0.67730258  1
  O  O37  1  0.25688410  0.60047242  0.32269742  1
  O  O38  1  0.24311590  0.39952758  0.82269742  1
  O  O39  1  0.74311590  0.10047242  0.17730258  1
  O  O40  1  0.64035535  0.40194523  0.32459519  1
  O  O41  1  0.14035535  0.09805477  0.67540481  1
  O  O42  1  0.35964465  0.90194523  0.17540481  1
  O  O43  1  0.85964465  0.59805477  0.82459519  1
  O  O44  1  0.35964465  0.59805477  0.67540481  1
  O  O45  1  0.85964465  0.90194523  0.32459519  1
  O  O46  1  0.64035535  0.09805477  0.82459519  1
  O  O47  1  0.86101920  0.65359575  0.39684998  1
loop_
_geom_bond_atom_site_label_1
_geom_bond_atom_site_label_2
_geom_bond_distance
_geom_bond_site_symmetry_2
Cd0 O23 2.188779 1_565
Cd0 O29 2.228498 1_555
Cd0 O42 2.279988 1_555
Cd0 O39 2.337003 1_565
Cd0 O45 2.376664 1_555
Cd0 O32 2.433409 1_565
Cd1 O22 2.188779 1_555
Cd1 O28 2.228498 1_455
Cd1 O43 2.279988 1_455
Cd1 O38 2.337003 1_555
Cd1 O44 2.376664 1_555
Cd1 O33 2.433409 1_455
Cd2 O21 2.188779 1_555
Cd2 O31 2.228498 1_555
Cd2 O40 2.279988 1_555
Cd2 O37 2.337003 1_555
Cd2 O17 2.376664 1_555
Cd2 O34 2.433409 1_555
Cd3 O20 2.188779 1_545
Cd3 O30 2.228498 1_655
Cd3 O41 2.279988 1_655
Cd3 O36 2.337003 1_545
Cd3 O46 2.376664 1_555
Cd3 O35 2.433409 1_645
Cd4 O19 2.188779 1_545
Cd4 O25 2.228498 1_555
Cd4 O46 2.279988 1_555
Cd4 O35 2.337003 1_545
Cd4 O41 2.376664 1_555
Cd4 O36 2.433409 1_545
Cd5 O47 2.188779 1_555
Cd5 O24 2.228498 1_655
Cd5 O17 2.279988 1_655
Cd5 O34 2.337003 1_555
Cd5 O40 2.376664 1_555
Cd5 O37 2.433409 1_655
Cd6 O18 2.188779 1_555
Cd6 O27 2.228498 1_555
Cd6 O44 2.279988 1_555
Cd6 O33 2.337003 1_555
Cd6 O43 2.376664 1_555
Cd6 O38 2.433409 1_555
Cd7 O16 2.188779 1_565
Cd7 O26 2.228498 1_455
Cd7 O45 2.279988 1_455
Cd7 O32 2.337003 1_565
Cd7 O42 2.376664 1_555
Cd7 O39 2.433409 1_465
O0 P1 1.590753 1_554
O0 P8 1.599049 1_555
O1 P0 1.590753 1_556
O1 P9 1.599049 1_555
O2 P3 1.590753 1_555
O2 P10 1.599049 1_555
O3 P2 1.590753 1_555
O3 P11 1.599049 1_555
O4 P5 1.590753 1_556
O4 P12 1.599049 1_555
O5 P4 1.590753 1_554
O5 P13 1.599049 1_555
O6 P7 1.590753 1_555
O6 P14 1.599049 1_555
O7 P6 1.590753 1_555
O7 P15 1.599049 1_555
O8 P8 1.592786 1_555
O8 P0 1.597903 1_655
O9 P9 1.592786 1_555
O9 P1 1.597903 1_555
O10 P10 1.592786 1_555
O10 P2 1.597903 1_455
O11 P11 1.592786 1_555
O11 P3 1.597903 1_555
O12 P12 1.592786 1_555
O12 P4 1.597903 1_455
O13 P13 1.592786 1_555
O13 P5 1.597903 1_555
O14 P14 1.592786 1_555
O14 P6 1.597903 1_655
O15 P15 1.592786 1_555
O15 P7 1.597903 1_555
O16 P0 1.478515 1_555
O17 P0 1.500647 1_555
O18 P1 1.478515 1_555
O19 P3 1.478515 1_555
O20 P4 1.478515 1_555
O21 P5 1.478515 1_555
O22 P6 1.478515 1_555
O23 P7 1.478515 1_555
O24 P15 1.477786 1_555
O25 P14 1.477786 1_555
O26 P13 1.477786 1_555
O27 P12 1.477786 1_555
O28 P11 1.477786 1_555
O29 P10 1.477786 1_555
O30 P9 1.477786 1_555
O31 P8 1.477786 1_555
O32 P15 1.500031 1_555
O33 P14 1.500031 1_555
O34 P13 1.500031 1_555
O35 P12 1.500031 1_555
O36 P11 1.500031 1_555
O37 P10 1.500031 1_555
O38 P9 1.500031 1_555
O39 P8 1.500031 1_555
O40 P7 1.500647 1_555
O41 P6 1.500647 1_555
O42 P5 1.500647 1_555
O43 P4 1.500647 1_555
O44 P3 1.500647 1_555
O45 P2 1.500647 1_555
O46 P1 1.500647 1_555
O47 P2 1.478515 1_555
