# generated using pymatgen
data_Cs4U5O17
_symmetry_space_group_name_H-M   'P 1'
_cell_length_a   7.11951100
_cell_length_b   15.39805700
_cell_length_c   19.03863200
_cell_angle_alpha   90.00000000
_cell_angle_beta   90.00000000
_cell_angle_gamma   90.00000000
_symmetry_Int_Tables_number   1
_chemical_formula_structural   Cs4U5O17
_chemical_formula_sum   'Cs16 U20 O68'
_cell_volume   2087.14118382
_cell_formula_units_Z   4
loop_
 _symmetry_equiv_pos_site_id
 _symmetry_equiv_pos_as_xyz
  1  'x, y, z'
loop_
 _atom_site_type_symbol
 _atom_site_label
 _atom_site_symmetry_multiplicity
 _atom_site_fract_x
 _atom_site_fract_y
 _atom_site_fract_z
 _atom_site_occupancy
  Cs  Cs0  1  0.29948900  0.45026900  0.30846800  1
  Cs  Cs1  1  0.29948900  0.04973100  0.69153200  1
  Cs  Cs2  1  0.20051100  0.95026900  0.19153200  1
  Cs  Cs3  1  0.20051100  0.54973100  0.80846800  1
  Cs  Cs4  1  0.70051100  0.54973100  0.69153200  1
  Cs  Cs5  1  0.70051100  0.95026900  0.30846800  1
  Cs  Cs6  1  0.79948900  0.04973100  0.80846800  1
  Cs  Cs7  1  0.79948900  0.45026900  0.19153200  1
  Cs  Cs8  1  0.27015600  0.47543900  0.05701400  1
  Cs  Cs9  1  0.27015600  0.02456100  0.94298600  1
  Cs  Cs10  1  0.22984400  0.97543900  0.44298600  1
  Cs  Cs11  1  0.22984400  0.52456100  0.55701400  1
  Cs  Cs12  1  0.72984400  0.52456100  0.94298600  1
  Cs  Cs13  1  0.72984400  0.97543900  0.05701400  1
  Cs  Cs14  1  0.77015600  0.02456100  0.55701400  1
  Cs  Cs15  1  0.77015600  0.47543900  0.44298600  1
  U  U0  1  0.62644300  0.25000000  0.00000000  1
  U  U1  1  0.87355700  0.75000000  0.50000000  1
  U  U2  1  0.37355700  0.75000000  0.00000000  1
  U  U3  1  0.12644300  0.25000000  0.50000000  1
  U  U4  1  0.07540900  0.21240400  0.10281900  1
  U  U5  1  0.07540900  0.28759600  0.89718100  1
  U  U6  1  0.42459100  0.71240400  0.39718100  1
  U  U7  1  0.42459100  0.78759600  0.60281900  1
  U  U8  1  0.92459100  0.78759600  0.89718100  1
  U  U9  1  0.92459100  0.71240400  0.10281900  1
  U  U10  1  0.57540900  0.28759600  0.60281900  1
  U  U11  1  0.57540900  0.21240400  0.39718100  1
  U  U12  1  0.02573700  0.19372400  0.31146600  1
  U  U13  1  0.02573700  0.30627600  0.68853400  1
  U  U14  1  0.47426300  0.69372400  0.18853400  1
  U  U15  1  0.47426300  0.80627600  0.81146600  1
  U  U16  1  0.97426300  0.80627600  0.68853400  1
  U  U17  1  0.97426300  0.69372400  0.31146600  1
  U  U18  1  0.52573700  0.30627600  0.81146600  1
  U  U19  1  0.52573700  0.19372400  0.18853400  1
  O  O0  1  0.89051400  0.21614200  0.41923000  1
  O  O1  1  0.89051400  0.28385800  0.58077000  1
  O  O2  1  0.60948600  0.71614200  0.08077000  1
  O  O3  1  0.60948600  0.78385800  0.91923000  1
  O  O4  1  0.10948600  0.78385800  0.58077000  1
  O  O5  1  0.10948600  0.71614200  0.41923000  1
  O  O6  1  0.39051400  0.28385800  0.91923000  1
  O  O7  1  0.39051400  0.21614200  0.08077000  1
  O  O8  1  0.50715900  0.31160000  0.20697900  1
  O  O9  1  0.50715900  0.18840000  0.79302100  1
  O  O10  1  0.99284100  0.81160000  0.29302100  1
  O  O11  1  0.99284100  0.68840000  0.70697900  1
  O  O12  1  0.49284100  0.68840000  0.79302100  1
  O  O13  1  0.49284100  0.81160000  0.20697900  1
  O  O14  1  0.00715900  0.18840000  0.70697900  1
  O  O15  1  0.00715900  0.31160000  0.29302100  1
  O  O16  1  0.54048500  0.07269300  0.17893300  1
  O  O17  1  0.54048500  0.42730700  0.82106700  1
  O  O18  1  0.95951500  0.57269300  0.32106700  1
  O  O19  1  0.95951500  0.92730700  0.67893300  1
  O  O20  1  0.45951500  0.92730700  0.82106700  1
  O  O21  1  0.45951500  0.57269300  0.17893300  1
  O  O22  1  0.04048500  0.42730700  0.67893300  1
  O  O23  1  0.04048500  0.07269300  0.32106700  1
  O  O24  1  0.62762300  0.36461700  0.02933800  1
  O  O25  1  0.23857700  0.78987400  0.88431200  1
  O  O26  1  0.62762300  0.13538300  0.97066200  1
  O  O27  1  0.87237700  0.63538300  0.52933800  1
  O  O28  1  0.37237700  0.63538300  0.97066200  1
  O  O29  1  0.37237700  0.86461700  0.02933800  1
  O  O30  1  0.12762300  0.13538300  0.52933800  1
  O  O31  1  0.12762300  0.36461700  0.47066200  1
  O  O32  1  0.76142300  0.21012600  0.11568800  1
  O  O33  1  0.76142300  0.28987400  0.88431200  1
  O  O34  1  0.73857700  0.71012600  0.38431200  1
  O  O35  1  0.73857700  0.78987400  0.61568800  1
  O  O36  1  0.96052000  0.25000000  0.00000000  1
  O  O37  1  0.53948000  0.75000000  0.50000000  1
  O  O38  1  0.03948000  0.75000000  0.00000000  1
  O  O39  1  0.46052000  0.25000000  0.50000000  1
  O  O40  1  0.07277300  0.09360800  0.08027000  1
  O  O41  1  0.07277300  0.40639200  0.91973000  1
  O  O42  1  0.42722700  0.59360800  0.41973000  1
  O  O43  1  0.42722700  0.90639200  0.58027000  1
  O  O44  1  0.92722700  0.90639200  0.91973000  1
  O  O45  1  0.92722700  0.59360800  0.08027000  1
  O  O46  1  0.57277300  0.40639200  0.58027000  1
  O  O47  1  0.57277300  0.09360800  0.41973000  1
  O  O48  1  0.08056200  0.32950100  0.12708000  1
  O  O49  1  0.08056200  0.17049900  0.87292000  1
  O  O50  1  0.41943800  0.82950100  0.37292000  1
  O  O51  1  0.41943800  0.67049900  0.62708000  1
  O  O52  1  0.91943800  0.67049900  0.87292000  1
  O  O53  1  0.91943800  0.82950100  0.12708000  1
  O  O54  1  0.58056200  0.17049900  0.62708000  1
  O  O55  1  0.58056200  0.32950100  0.37292000  1
  O  O56  1  0.20372700  0.17996500  0.21001500  1
  O  O57  1  0.20372700  0.32003500  0.78998500  1
  O  O58  1  0.29627300  0.67996500  0.28998500  1
  O  O59  1  0.29627300  0.82003500  0.71001500  1
  O  O60  1  0.79627300  0.82003500  0.78998500  1
  O  O61  1  0.79627300  0.67996500  0.21001500  1
  O  O62  1  0.70372700  0.32003500  0.71001500  1
  O  O63  1  0.70372700  0.17996500  0.28998500  1
  O  O64  1  0.26142300  0.21012600  0.38431200  1
  O  O65  1  0.26142300  0.28987400  0.61568800  1
  O  O66  1  0.23857700  0.71012600  0.11568800  1
  O  O67  1  0.87237700  0.86461700  0.47066200  1
loop_
_geom_bond_atom_site_label_1
_geom_bond_atom_site_label_2
_geom_bond_distance
_geom_bond_site_symmetry_2
Cs0 O55 2.994698 1_555
Cs0 O15 2.996214 1_555
Cs0 O18 3.077284 1_455
Cs0 O42 3.191495 1_555
Cs0 O8 3.237074 1_555
Cs0 O21 3.306597 1_555
Cs0 O58 3.554408 1_555
Cs0 O31 3.573804 1_555
Cs1 O54 2.994698 1_555
Cs1 O14 2.996214 1_555
Cs1 O19 3.077284 1_445
Cs1 O43 3.191495 1_545
Cs1 O9 3.237074 1_555
Cs1 O20 3.306597 1_545
Cs1 O59 3.554408 1_545
Cs1 O30 3.573804 1_555
Cs2 O53 2.994698 1_455
Cs2 O13 2.996214 1_555
Cs2 O16 3.077284 1_565
Cs2 O40 3.191495 1_565
Cs2 O10 3.237074 1_455
Cs2 O23 3.306597 1_565
Cs2 O56 3.554408 1_565
Cs2 O29 3.573804 1_555
Cs3 O52 2.994698 1_455
Cs3 O12 2.996214 1_555
Cs3 O17 3.077284 1_555
Cs3 O41 3.191495 1_555
Cs3 O11 3.237074 1_455
Cs3 O22 3.306597 1_555
Cs3 O57 3.554408 1_555
Cs3 O28 3.573804 1_555
Cs4 O51 2.994698 1_555
Cs4 O11 2.996214 1_555
Cs4 O22 3.077284 1_655
Cs4 O46 3.191495 1_555
Cs4 O12 3.237074 1_555
Cs4 O17 3.306597 1_555
Cs4 O62 3.554408 1_555
Cs4 O27 3.573804 1_555
Cs5 O50 2.994698 1_555
Cs5 O10 2.996214 1_555
Cs5 O23 3.077284 1_665
Cs5 O47 3.191495 1_565
Cs5 O13 3.237074 1_555
Cs5 O16 3.306597 1_565
Cs5 O63 3.554408 1_565
Cs5 O67 3.573804 1_555
Cs6 O49 2.994698 1_655
Cs6 O9 2.996214 1_555
Cs6 O20 3.077284 1_545
Cs6 O44 3.191495 1_545
Cs6 O14 3.237074 1_655
Cs6 O19 3.306597 1_545
Cs6 O60 3.554408 1_545
Cs6 O26 3.573804 1_555
Cs7 O48 2.994698 1_655
Cs7 O8 2.996214 1_555
Cs7 O21 3.077284 1_555
Cs7 O45 3.191495 1_555
Cs7 O15 3.237074 1_655
Cs7 O18 3.306597 1_555
Cs7 O61 3.554408 1_555
Cs7 O24 3.573804 1_555
Cs8 O48 2.941291 1_555
Cs8 O28 3.049257 1_554
Cs8 O21 3.073744 1_555
Cs8 O45 3.076970 1_455
Cs8 O24 3.109110 1_555
Cs8 O41 3.152235 1_554
Cs9 O49 2.941291 1_555
Cs9 O29 3.049257 1_546
Cs9 O20 3.073744 1_545
Cs9 O44 3.076970 1_445
Cs9 O26 3.109110 1_555
Cs9 O40 3.152235 1_556
Cs10 O50 2.941291 1_555
Cs10 O30 3.049257 1_565
Cs10 O23 3.073744 1_565
Cs10 O47 3.076970 1_565
Cs10 O67 3.109110 1_455
Cs10 O43 3.152235 1_555
Cs11 O51 2.941291 1_555
Cs11 O31 3.049257 1_555
Cs11 O22 3.073744 1_555
Cs11 O46 3.076970 1_555
Cs11 O27 3.109110 1_455
Cs11 O42 3.152235 1_555
Cs12 O52 2.941291 1_555
Cs12 O24 3.049257 1_556
Cs12 O17 3.073744 1_555
Cs12 O41 3.076970 1_655
Cs12 O28 3.109110 1_555
Cs12 O45 3.152235 1_556
Cs13 O53 2.941291 1_555
Cs13 O26 3.049257 1_564
Cs13 O16 3.073744 1_565
Cs13 O40 3.076970 1_665
Cs13 O29 3.109110 1_555
Cs13 O44 3.152235 1_554
Cs14 O54 2.941291 1_555
Cs14 O67 3.049257 1_545
Cs14 O19 3.073744 1_545
Cs14 O43 3.076970 1_545
Cs14 O30 3.109110 1_655
Cs14 O47 3.152235 1_555
Cs15 O55 2.941291 1_555
Cs15 O27 3.049257 1_555
Cs15 O18 3.073744 1_555
Cs15 O42 3.076970 1_555
Cs15 O31 3.109110 1_655
Cs15 O46 3.152235 1_555
O0 U11 2.283056 1_555
O0 U12 2.292461 1_655
O0 U3 2.336208 1_655
O1 U10 2.283056 1_555
O1 U13 2.292461 1_655
O1 U3 2.336208 1_655
O2 U9 2.283056 1_555
O2 U14 2.292461 1_555
O2 U2 2.336208 1_555
O3 U8 2.283056 1_555
O3 U15 2.292461 1_555
O3 U2 2.336208 1_556
O4 U7 2.283056 1_555
O4 U16 2.292461 1_455
O4 U1 2.336208 1_455
O5 U6 2.283056 1_555
O5 U17 2.292461 1_455
O5 U1 2.336208 1_455
O6 U5 2.283056 1_555
O6 U18 2.292461 1_555
O6 U0 2.336208 1_556
O7 U4 2.283056 1_555
O7 U19 2.292461 1_555
O7 U0 2.336208 1_555
O8 U19 1.853446 1_555
O9 U18 1.853446 1_555
O10 U17 1.853446 1_555
O11 U16 1.853446 1_555
O12 U15 1.853446 1_555
O13 U14 1.853446 1_555
O14 U13 1.853446 1_555
O15 U12 1.853446 1_555
O16 U19 1.875526 1_555
O17 U18 1.875526 1_555
O18 U17 1.875526 1_555
O19 U16 1.875526 1_555
O20 U15 1.875526 1_555
O21 U14 1.875526 1_555
O22 U13 1.875526 1_555
O23 U12 1.875526 1_555
O24 U0 1.851176 1_555
O25 U15 2.191535 1_555
O25 U8 2.249087 1_455
O25 U2 2.480255 1_556
O26 U0 1.851176 1_556
O27 U1 1.851176 1_555
O28 U2 1.851176 1_556
O29 U2 1.851176 1_555
O30 U3 1.851176 1_555
O31 U3 1.851176 1_555
O32 U19 2.191535 1_555
O32 U4 2.249087 1_655
O32 U0 2.480255 1_555
O33 U18 2.191535 1_555
O33 U5 2.249087 1_655
O33 U0 2.480255 1_556
O34 U17 2.191535 1_555
O34 U6 2.249087 1_555
O34 U1 2.480255 1_555
O35 U16 2.191535 1_555
O35 U7 2.249087 1_555
O35 U1 2.480255 1_555
O36 U5 2.199117 1_654
O36 U4 2.199117 1_655
O36 U0 2.378465 1_555
O37 U6 2.199117 1_555
O37 U7 2.199117 1_555
O37 U1 2.378465 1_555
O38 U8 2.199117 1_454
O38 U9 2.199117 1_455
O38 U2 2.378465 1_555
O39 U10 2.199117 1_555
O39 U11 2.199117 1_555
O39 U3 2.378465 1_555
O40 U4 1.879023 1_555
O41 U5 1.879023 1_555
O42 U6 1.879023 1_555
O43 U7 1.879023 1_555
O44 U8 1.879023 1_555
O45 U9 1.879023 1_555
O46 U10 1.879023 1_555
O47 U11 1.879023 1_555
O48 U4 1.861650 1_555
O49 U5 1.861650 1_555
O50 U6 1.861650 1_555
O51 U7 1.861650 1_555
O52 U8 1.861650 1_555
O53 U9 1.861650 1_555
O54 U10 1.861650 1_555
O55 U11 1.861650 1_555
O56 U4 2.291118 1_555
O56 U12 2.319770 1_555
O56 U19 2.338363 1_555
O57 U5 2.291118 1_555
O57 U13 2.319770 1_555
O57 U18 2.338363 1_555
O58 U6 2.291118 1_555
O58 U14 2.319770 1_555
O58 U17 2.338363 1_455
O59 U7 2.291118 1_555
O59 U15 2.319770 1_555
O59 U16 2.338363 1_455
O60 U8 2.291118 1_555
O60 U16 2.319770 1_555
O60 U15 2.338363 1_555
O61 U9 2.291118 1_555
O61 U17 2.319770 1_555
O61 U14 2.338363 1_555
O62 U10 2.291118 1_555
O62 U18 2.319770 1_555
O62 U13 2.338363 1_655
O63 U11 2.291118 1_555
O63 U19 2.319770 1_555
O63 U12 2.338363 1_655
O64 U12 2.191535 1_555
O64 U11 2.249087 1_555
O64 U3 2.480255 1_555
O65 U13 2.191535 1_555
O65 U10 2.249087 1_555
O65 U3 2.480255 1_555
O66 U14 2.191535 1_555
O66 U9 2.249087 1_455
O66 U2 2.480255 1_555
O67 U1 1.851176 1_555
