# generated using pymatgen
data_Na8Be3Si9(ClO12)2
_symmetry_space_group_name_H-M   'P 1'
_cell_length_a   7.61489800
_cell_length_b   7.61542941
_cell_length_c   12.42015740
_cell_angle_alpha   90.07928720
_cell_angle_beta   90.13043170
_cell_angle_gamma   109.56662233
_symmetry_Int_Tables_number   1
_chemical_formula_structural   Na8Be3Si9(ClO12)2
_chemical_formula_sum   'Na8 Be3 Si9 Cl2 O24'
_cell_volume   678.65762089
_cell_formula_units_Z   1
loop_
 _symmetry_equiv_pos_site_id
 _symmetry_equiv_pos_as_xyz
  1  'x, y, z'
loop_
 _atom_site_type_symbol
 _atom_site_label
 _atom_site_symmetry_multiplicity
 _atom_site_fract_x
 _atom_site_fract_y
 _atom_site_fract_z
 _atom_site_occupancy
  Na  Na0  1  0.17179600  0.19578600  0.18562100  1
  Na  Na1  1  0.67321800  0.69842900  0.31490400  1
  Na  Na2  1  0.69217800  0.66262700  0.67969400  1
  Na  Na3  1  0.53136700  0.15662500  0.47939600  1
  Na  Na4  1  0.15282800  0.19538700  0.81964800  1
  Na  Na5  1  0.12319200  0.48089100  0.50305600  1
  Na  Na6  1  0.02057700  0.63342000  0.00225800  1
  Na  Na7  1  0.63480000  0.96889800  0.01040300  1
  Be  Be0  1  0.37079900  0.62620000  0.12562300  1
  Be  Be1  1  0.87261900  0.12573100  0.37371000  1
  Be  Be2  1  0.00363800  0.49929900  0.74911700  1
  Si  Si0  1  0.61990600  0.38400700  0.12937600  1
  Si  Si1  1  0.00255700  0.49495200  0.25480400  1
  Si  Si2  1  0.12256700  0.88451200  0.37204500  1
  Si  Si3  1  0.50379800  0.99866200  0.75124300  1
  Si  Si4  1  0.12216600  0.87118700  0.62684400  1
  Si  Si5  1  0.63887600  0.37831800  0.87806200  1
  Si  Si6  1  0.87365300  0.12911400  0.61960900  1
  Si  Si7  1  0.50159900  0.99604000  0.24547000  1
  Si  Si8  1  0.36805200  0.61457400  0.87545800  1
  Cl  Cl0  1  0.49815700  0.50052200  0.50110800  1
  Cl  Cl1  1  0.00049800  0.99695400  0.99759100  1
  O  O0  1  0.94003100  0.35037500  0.35285600  1
  O  O1  1  0.84466800  0.44518700  0.15475100  1
  O  O2  1  0.00100600  0.70177800  0.30076900  1
  O  O3  1  0.54896800  0.55522400  0.14933200  1
  O  O4  1  0.45375600  0.84452500  0.84723000  1
  O  O5  1  0.19631400  0.50710000  0.20000000  1
  O  O6  1  0.10800300  0.81071900  0.49902800  1
  O  O7  1  0.34996900  0.95406200  0.65367100  1
  O  O8  1  0.34725800  0.94703400  0.34640100  1
  O  O9  1  0.43647600  0.85015300  0.14845300  1
  O  O10  1  0.04918000  0.05359200  0.35096600  1
  O  O11  1  0.50911800  0.19780000  0.80404300  1
  O  O12  1  0.04915700  0.04923700  0.64733500  1
  O  O13  1  0.70250900  0.99995400  0.70184600  1
  O  O14  1  0.59762200  0.30352400  0.00309900  1
  O  O15  1  0.69856300  0.01014700  0.29705000  1
  O  O16  1  0.79968400  0.08542200  0.49904900  1
  O  O17  1  0.85530800  0.44711000  0.85125100  1
  O  O18  1  0.49845600  0.20345400  0.20207000  1
  O  O19  1  0.94071500  0.34385300  0.65366700  1
  O  O20  1  0.55217100  0.54548000  0.85237000  1
  O  O21  1  0.20795700  0.50670700  0.79206600  1
  O  O22  1  0.30815000  0.59563400  0.99866900  1
  O  O23  1  0.00612900  0.69980300  0.69899700  1
loop_
_geom_bond_atom_site_label_1
_geom_bond_atom_site_label_2
_geom_bond_distance
_geom_bond_site_symmetry_2
Na0 O5 2.321550 1_555
Na0 O10 2.366303 1_555
Na0 O18 2.476505 1_555
Na1 O15 2.327325 1_565
Na1 O3 2.367962 1_555
Na1 O2 2.494236 1_655
Na2 O23 2.323135 1_655
Na2 O20 2.431204 1_555
Na2 O13 2.558059 1_555
Na3 O16 2.295317 1_555
Na3 O8 2.392690 1_545
Na3 O7 2.751083 1_545
Na4 O21 2.291442 1_555
Na4 O12 2.416492 1_555
Na4 O11 2.714386 1_555
Na5 O0 2.338340 1_455
Na5 O19 2.359038 1_455
Na5 O6 2.553398 1_555
Na6 O22 2.302752 1_554
Na6 O17 2.429077 1_454
Na6 O1 2.483806 1_455
Na7 O9 2.267092 1_555
Na7 O4 2.452004 1_554
Na7 O14 2.658208 1_565
Be0 O5 1.625461 1_555
Be0 O9 1.632773 1_555
Be0 O22 1.639883 1_554
Be0 O3 1.646031 1_555
Be1 O15 1.627444 1_555
Be1 O0 1.634293 1_555
Be1 O10 1.638689 1_655
Be1 O16 1.648382 1_555
Be2 O21 1.626593 1_555
Be2 O19 1.627872 1_455
Be2 O23 1.643972 1_555
Be2 O17 1.658356 1_455
Cl0 Na2 2.717076 1_555
Cl0 Na3 2.727160 1_555
Cl0 Na5 2.808949 1_555
Cl0 Na1 2.841659 1_555
Cl1 Na4 2.713005 1_565
Cl1 Na7 2.725694 1_456
Cl1 Na6 2.824019 1_556
Cl1 Na0 2.846328 1_566
O0 Si1 1.605380 1_655
O1 Si0 1.645839 1_555
O1 Si1 1.679317 1_655
O2 Si2 1.645339 1_555
O2 Si1 1.678363 1_555
O3 Si0 1.588979 1_555
O4 Si3 1.628090 1_555
O4 Si8 1.688994 1_555
O5 Si1 1.600662 1_555
O6 Si4 1.645526 1_555
O6 Si2 1.666436 1_555
O7 Si3 1.637691 1_555
O7 Si4 1.667929 1_555
O8 Si2 1.647088 1_555
O8 Si7 1.675190 1_555
O9 Si7 1.598974 1_555
O10 Si2 1.587775 1_545
O11 Si3 1.639362 1_545
O11 Si5 1.671492 1_555
O12 Si4 1.648335 1_545
O12 Si6 1.678602 1_455
O13 Si3 1.631085 1_555
O13 Si6 1.690979 1_565
O14 Si5 1.649146 1_554
O14 Si0 1.670550 1_555
O15 Si7 1.599700 1_545
O16 Si6 1.593536 1_555
O17 Si5 1.589421 1_555
O18 Si0 1.648203 1_555
O18 Si7 1.677414 1_545
O19 Si6 1.597423 1_555
O20 Si5 1.649681 1_555
O20 Si8 1.679399 1_555
O21 Si8 1.598404 1_555
O22 Si8 1.590727 1_555
O23 Si4 1.587983 1_555
