# generated using pymatgen
data_In14Ga3Pt2O8F15
_symmetry_space_group_name_H-M   'P 1'
_cell_length_a   15.79182239
_cell_length_b   15.79182239
_cell_length_c   15.79182221
_cell_angle_alpha   26.10504835
_cell_angle_beta   26.10504836
_cell_angle_gamma   26.10504919
_symmetry_Int_Tables_number   1
_chemical_formula_structural   In14Ga3Pt2O8F15
_chemical_formula_sum   'In14 Ga3 Pt2 O8 F15'
_cell_volume   671.75579222
_cell_formula_units_Z   1
loop_
 _symmetry_equiv_pos_site_id
 _symmetry_equiv_pos_as_xyz
  1  'x, y, z'
loop_
 _atom_site_type_symbol
 _atom_site_label
 _atom_site_symmetry_multiplicity
 _atom_site_fract_x
 _atom_site_fract_y
 _atom_site_fract_z
 _atom_site_occupancy
  In  In0  1  0.14879383  0.14879383  0.14879383  1
  In  In1  1  0.70291384  0.19273043  0.19408311  1
  In  In2  1  0.19408311  0.70291384  0.19273043  1
  In  In3  1  0.19273043  0.19408311  0.70291384  1
  In  In4  1  0.61225113  0.58412392  0.09149150  1
  In  In5  1  0.09149150  0.61225113  0.58412392  1
  In  In6  1  0.58412392  0.09149150  0.61225113  1
  In  In7  1  0.90850850  0.38774887  0.41587608  1
  In  In8  1  0.41587608  0.90850850  0.38774887  1
  In  In9  1  0.38774887  0.41587608  0.90850850  1
  In  In10  1  0.80726957  0.80591689  0.29708616  1
  In  In11  1  0.80591689  0.29708616  0.80726957  1
  In  In12  1  0.29708616  0.80726957  0.80591689  1
  In  In13  1  0.85120617  0.85120617  0.85120617  1
  Ga  Ga0  1  0.29997791  0.29997791  0.29997791  1
  Ga  Ga1  1  0.50000000  0.50000000  0.50000000  1
  Ga  Ga2  1  0.70002209  0.70002209  0.70002209  1
  Pt  Pt0  1  0.39651794  0.39651794  0.39651794  1
  Pt  Pt1  1  0.60348206  0.60348206  0.60348206  1
  O  O0  1  0.25884428  0.25884428  0.25884428  1
  O  O1  1  0.59747792  0.17190880  0.17246071  1
  O  O2  1  0.17246071  0.59747792  0.17190880  1
  O  O3  1  0.17190880  0.17246071  0.59747792  1
  O  O4  1  0.82809120  0.82753929  0.40252208  1
  O  O5  1  0.40252208  0.82809120  0.82753929  1
  O  O6  1  0.82753929  0.40252208  0.82809120  1
  O  O7  1  0.74115572  0.74115572  0.74115572  1
  F  F0  1  -0.00000000  0.00000000  0.00000000  1
  F  F1  1  0.05421322  0.05421322  0.05421322  1
  F  F2  1  0.54763513  0.06975425  0.04178520  1
  F  F3  1  0.04178520  0.54763513  0.06975425  1
  F  F4  1  0.06975425  0.04178520  0.54763513  1
  F  F5  1  0.63249299  0.57128349  0.22546903  1
  F  F6  1  0.22546903  0.63249299  0.57128349  1
  F  F7  1  0.57128349  0.22546903  0.63249299  1
  F  F8  1  0.42871651  0.77453097  0.36750701  1
  F  F9  1  0.77453097  0.36750701  0.42871651  1
  F  F10  1  0.36750701  0.42871651  0.77453097  1
  F  F11  1  0.93024575  0.95821480  0.45236487  1
  F  F12  1  0.45236487  0.93024575  0.95821480  1
  F  F13  1  0.95821480  0.45236487  0.93024575  1
  F  F14  1  0.94578678  0.94578678  0.94578678  1
loop_
_geom_bond_atom_site_label_1
_geom_bond_atom_site_label_2
_geom_bond_distance
_geom_bond_site_symmetry_2
In1 O4 2.262724 1_545
In1 O6 2.268413 1_554
In1 O1 2.281008 1_555
In1 Pt0 2.592085 1_555
In2 O5 2.262724 1_554
In2 O4 2.268413 1_455
In2 O2 2.281008 1_555
In2 Pt0 2.592085 1_555
In3 O6 2.262724 1_455
In3 O5 2.268413 1_545
In3 O3 2.281008 1_555
In3 Pt0 2.592085 1_555
In4 O7 2.258569 1_554
In4 Pt0 2.571145 1_555
In5 O7 2.258569 1_455
In5 Pt0 2.571145 1_555
In6 O7 2.258569 1_545
In6 Pt0 2.571145 1_555
In7 O0 2.258569 1_655
In7 Pt1 2.571145 1_555
In8 O0 2.258569 1_565
In8 Pt1 2.571145 1_555
In9 O0 2.258569 1_556
In9 Pt1 2.571145 1_555
In10 O2 2.262724 1_655
In10 O1 2.268413 1_565
In10 O4 2.281008 1_555
In10 Pt1 2.592085 1_555
In11 O1 2.262724 1_556
In11 O3 2.268413 1_655
In11 O6 2.281008 1_555
In11 Pt1 2.592085 1_555
In12 O3 2.262724 1_565
In12 O2 2.268413 1_556
In12 O5 2.281008 1_555
In12 Pt1 2.592085 1_555
Ga0 O3 1.864378 1_555
Ga0 O2 1.864378 1_555
Ga0 O1 1.864378 1_555
Ga0 O0 1.881294 1_555
Ga2 O4 1.864378 1_555
Ga2 O6 1.864378 1_555
Ga2 O5 1.864378 1_555
Ga2 O7 1.881294 1_555
F0 In3 2.439570 1_554
F0 In10 2.439570 1_445
F0 In11 2.439570 1_454
F0 In2 2.439570 1_545
F0 In1 2.439570 1_455
F0 In12 2.439570 1_544
F1 In3 2.305618 1_554
F1 In2 2.305618 1_545
F1 In1 2.305618 1_455
F2 In8 2.185420 1_545
F2 In9 2.185857 1_554
F2 In13 2.641714 1_544
F3 In9 2.185420 1_554
F3 In7 2.185857 1_455
F3 In13 2.641714 1_454
F4 In7 2.185420 1_455
F4 In8 2.185857 1_545
F4 In13 2.641714 1_445
F5 Ga1 1.901122 1_555
F5 In4 2.224278 1_555
F6 Ga1 1.901122 1_555
F6 In5 2.224278 1_555
F7 Ga1 1.901122 1_555
F7 In6 2.224278 1_555
F8 Ga1 1.901122 1_555
F8 In8 2.224278 1_555
F9 Ga1 1.901122 1_555
F9 In7 2.224278 1_555
F10 Ga1 1.901122 1_555
F10 In9 2.224278 1_555
F11 In5 2.185420 1_655
F11 In6 2.185857 1_565
F11 In0 2.641714 1_665
F12 In6 2.185420 1_565
F12 In4 2.185857 1_556
F12 In0 2.641714 1_566
F13 In4 2.185420 1_556
F13 In5 2.185857 1_655
F13 In0 2.641714 1_656
F14 In10 2.305618 1_556
F14 In11 2.305618 1_565
F14 In12 2.305618 1_655
