# generated using pymatgen
data_Yb2CdPd2
_symmetry_space_group_name_H-M   'P 1'
_cell_length_a   7.49467600
_cell_length_b   7.49467600
_cell_length_c   3.94656500
_cell_angle_alpha   90.00000000
_cell_angle_beta   90.00000000
_cell_angle_gamma   90.00000000
_symmetry_Int_Tables_number   1
_chemical_formula_structural   Yb2CdPd2
_chemical_formula_sum   'Yb4 Cd2 Pd4'
_cell_volume   221.67922043
_cell_formula_units_Z   2
loop_
 _symmetry_equiv_pos_site_id
 _symmetry_equiv_pos_as_xyz
  1  'x, y, z'
loop_
 _atom_site_type_symbol
 _atom_site_label
 _atom_site_symmetry_multiplicity
 _atom_site_fract_x
 _atom_site_fract_y
 _atom_site_fract_z
 _atom_site_occupancy
  Yb  Yb0  1  0.33382200  0.83382200  0.50000000  1
  Yb  Yb1  1  0.83382200  0.66617800  0.50000000  1
  Yb  Yb2  1  0.16617800  0.33382200  0.50000000  1
  Yb  Yb3  1  0.66617800  0.16617800  0.50000000  1
  Cd  Cd0  1  0.00000000  0.00000000  0.00000000  1
  Cd  Cd1  1  0.50000000  0.50000000  0.00000000  1
  Pd  Pd0  1  0.36606800  0.13393200  0.00000000  1
  Pd  Pd1  1  0.86606800  0.36606800  0.00000000  1
  Pd  Pd2  1  0.13393200  0.63393200  0.00000000  1
  Pd  Pd3  1  0.63393200  0.86606800  0.00000000  1
loop_
_geom_bond_atom_site_label_1
_geom_bond_atom_site_label_2
_geom_bond_distance
_geom_bond_site_symmetry_2
Cd0 Pd1 2.921420 1_455
Cd0 Pd2 2.921420 1_545
Cd0 Pd3 2.921420 1_445
Cd0 Pd0 2.921420 1_555
Cd0 Yb3 3.421174 1_455
Cd0 Yb3 3.421174 1_454
Cd0 Yb1 3.421174 1_444
Cd0 Yb1 3.421174 1_445
Cd0 Yb2 3.421174 1_555
Cd0 Yb0 3.421174 1_545
Cd0 Yb2 3.421174 1_554
Cd0 Yb0 3.421174 1_544
Cd1 Pd1 2.921420 1_555
Cd1 Pd3 2.921420 1_555
Cd1 Pd0 2.921420 1_555
Cd1 Pd2 2.921420 1_555
Cd1 Yb0 3.421174 1_555
Cd1 Yb0 3.421174 1_554
Cd1 Yb1 3.421174 1_555
Cd1 Yb1 3.421174 1_554
Cd1 Yb2 3.421174 1_555
Cd1 Yb3 3.421174 1_554
Cd1 Yb3 3.421174 1_555
Cd1 Yb2 3.421174 1_554
Pd0 Yb2 2.895257 1_554
Pd0 Yb2 2.895257 1_555
Pd0 Yb0 3.001878 1_545
Pd0 Yb3 3.001878 1_554
Pd0 Yb3 3.001878 1_555
Pd0 Yb0 3.001878 1_544
Pd1 Yb3 2.895257 1_554
Pd1 Yb3 2.895257 1_555
Pd1 Yb2 3.001878 1_655
Pd1 Yb2 3.001878 1_654
Pd1 Yb1 3.001878 1_555
Pd1 Yb1 3.001878 1_554
Pd2 Yb0 2.895257 1_554
Pd2 Yb0 2.895257 1_555
Pd2 Yb2 3.001878 1_555
Pd2 Yb1 3.001878 1_455
Pd2 Yb1 3.001878 1_454
Pd2 Yb2 3.001878 1_554
Pd3 Yb1 2.895257 1_555
Pd3 Yb1 2.895257 1_554
Pd3 Yb0 3.001878 1_555
Pd3 Yb3 3.001878 1_565
Pd3 Yb0 3.001878 1_554
Pd3 Yb3 3.001878 1_564
