# generated using pymatgen
data_NaSm3Ti2(SbO7)2
_symmetry_space_group_name_H-M   'P 1'
_cell_length_a   7.34789000
_cell_length_b   7.38686500
_cell_length_c   12.72961603
_cell_angle_alpha   54.89425673
_cell_angle_beta   90.00000000
_cell_angle_gamma   90.00000000
_symmetry_Int_Tables_number   1
_chemical_formula_structural   NaSm3Ti2(SbO7)2
_chemical_formula_sum   'Na2 Sm6 Ti4 Sb4 O28'
_cell_volume   565.24964488
_cell_formula_units_Z   2
loop_
 _symmetry_equiv_pos_site_id
 _symmetry_equiv_pos_as_xyz
  1  'x, y, z'
loop_
 _atom_site_type_symbol
 _atom_site_label
 _atom_site_symmetry_multiplicity
 _atom_site_fract_x
 _atom_site_fract_y
 _atom_site_fract_z
 _atom_site_occupancy
  Na  Na0  1  0.00000000  0.00000000  0.00000000  1
  Na  Na1  1  0.00000000  0.00000000  0.50000000  1
  Sm  Sm0  1  0.22778500  0.50000000  0.75000000  1
  Sm  Sm1  1  0.24303400  0.00000000  0.75000000  1
  Sm  Sm2  1  0.77221500  0.50000000  0.25000000  1
  Sm  Sm3  1  0.50000000  0.00000000  0.50000000  1
  Sm  Sm4  1  0.75696600  0.00000000  0.25000000  1
  Sm  Sm5  1  0.50000000  0.00000000  0.00000000  1
  Ti  Ti0  1  0.26286100  0.50000000  0.25000000  1
  Ti  Ti1  1  0.50000000  0.50000000  0.00000000  1
  Ti  Ti2  1  0.73713900  0.50000000  0.75000000  1
  Ti  Ti3  1  0.50000000  0.50000000  0.50000000  1
  Sb  Sb0  1  0.00000000  0.50000000  0.50000000  1
  Sb  Sb1  1  0.74492500  0.00000000  0.75000000  1
  Sb  Sb2  1  0.00000000  0.50000000  0.00000000  1
  Sb  Sb3  1  0.25507500  0.00000000  0.25000000  1
  O  O0  1  0.05291400  0.55670200  0.13165300  1
  O  O1  1  0.74428600  0.13074900  0.37095000  1
  O  O2  1  0.26897100  0.17951900  0.32088800  1
  O  O3  1  0.04687200  0.17142100  0.12831300  1
  O  O4  1  0.04687200  0.82857900  0.37168700  1
  O  O5  1  0.94708600  0.55670200  0.63165300  1
  O  O6  1  0.55295400  0.57328400  0.62198500  1
  O  O7  1  0.74983300  0.57669900  0.42307900  1
  O  O8  1  0.25571400  0.13074900  0.87095000  1
  O  O9  1  0.25016700  0.42330100  0.57692100  1
  O  O10  1  0.73102900  0.17951900  0.82088800  1
  O  O11  1  0.95312800  0.17142100  0.62831300  1
  O  O12  1  0.05291400  0.44329800  0.36834700  1
  O  O13  1  0.54494800  0.17676600  0.62274100  1
  O  O14  1  0.54494800  0.82323400  0.87725900  1
  O  O15  1  0.95312800  0.82857900  0.87168700  1
  O  O16  1  0.44704600  0.57328400  0.12198500  1
  O  O17  1  0.73102900  0.82048100  0.67911200  1
  O  O18  1  0.25571400  0.86925100  0.62905000  1
  O  O19  1  0.74983300  0.42330100  0.07692100  1
  O  O20  1  0.25016700  0.57669900  0.92307900  1
  O  O21  1  0.94708600  0.44329800  0.86834700  1
  O  O22  1  0.55295400  0.42671600  0.87801500  1
  O  O23  1  0.45505200  0.17676600  0.12274100  1
  O  O24  1  0.45505200  0.82323400  0.37725900  1
  O  O25  1  0.26897100  0.82048100  0.17911200  1
  O  O26  1  0.74428600  0.86925100  0.12905000  1
  O  O27  1  0.44704600  0.42671600  0.37801500  1
loop_
_geom_bond_atom_site_label_1
_geom_bond_atom_site_label_2
_geom_bond_distance
_geom_bond_site_symmetry_2
Na0 O8 2.310209 1_554
Na0 O26 2.310209 1_445
Na0 O3 2.601700 1_555
Na0 O15 2.601700 1_444
Na0 O21 2.714902 1_454
Na0 O0 2.714902 1_545
Na0 O25 2.717627 1_545
Na0 O10 2.717627 1_454
Na1 O1 2.310209 1_455
Na1 O18 2.310209 1_545
Na1 O4 2.601700 1_545
Na1 O11 2.601700 1_455
Na1 O12 2.714902 1_555
Na1 O5 2.714902 1_445
Na1 O2 2.717627 1_555
Na1 O17 2.717627 1_445
O0 Sb2 1.985594 1_555
O0 Ti0 2.024617 1_555
O0 Sm2 2.444043 1_455
O1 Sm2 2.241038 1_555
O1 Sm4 2.241061 1_555
O1 Sm3 2.242445 1_555
O2 Sb3 1.989858 1_555
O2 Ti0 1.990878 1_555
O2 Sm3 2.522147 1_555
O3 Sb3 2.021712 1_555
O3 Sb2 2.029246 1_555
O3 Sm4 2.506913 1_455
O4 Sb3 2.021712 1_565
O4 Sb0 2.029246 1_555
O4 Sm4 2.506913 1_465
O5 Sb0 1.985594 1_655
O5 Ti2 2.024617 1_555
O5 Sm0 2.444043 1_655
O6 Ti2 1.940506 1_555
O6 Ti3 1.955133 1_555
O6 Sm3 2.620812 1_565
O6 Sm0 2.764550 1_555
O7 Ti3 2.002913 1_555
O7 Sb0 2.005163 1_655
O7 Sm2 2.576430 1_555
O7 Sm4 2.590459 1_565
O8 Sm0 2.241038 1_555
O8 Sm1 2.241061 1_555
O8 Sm5 2.242445 1_556
O9 Ti3 2.002913 1_555
O9 Sb0 2.005163 1_555
O9 Sm0 2.576430 1_555
O9 Sm1 2.590459 1_555
O10 Sb1 1.989858 1_555
O10 Ti2 1.990878 1_555
O10 Sm5 2.522147 1_556
O11 Sb1 2.021712 1_555
O11 Sb0 2.029246 1_655
O11 Sm1 2.506913 1_655
O12 Sb0 1.985594 1_555
O12 Ti0 2.024617 1_555
O12 Sm2 2.444043 1_455
O13 Ti3 1.990097 1_555
O13 Sb1 2.013825 1_555
O13 Sm3 2.569403 1_555
O13 Sm1 2.611084 1_555
O14 Ti1 1.990097 1_556
O14 Sb1 2.013825 1_565
O14 Sm5 2.569403 1_566
O14 Sm1 2.611084 1_565
O15 Sb1 2.021712 1_565
O15 Sb2 2.029246 1_656
O15 Sm1 2.506913 1_665
O16 Ti0 1.940506 1_555
O16 Ti1 1.955133 1_555
O16 Sm5 2.620812 1_565
O16 Sm2 2.764550 1_555
O17 Sb1 1.989858 1_565
O17 Ti2 1.990878 1_555
O17 Sm3 2.522147 1_565
O18 Sm0 2.241038 1_555
O18 Sm1 2.241061 1_565
O18 Sm3 2.242445 1_565
O19 Ti1 2.002913 1_555
O19 Sb2 2.005163 1_655
O19 Sm2 2.576430 1_555
O19 Sm4 2.590459 1_555
O20 Ti1 2.002913 1_556
O20 Sb2 2.005163 1_556
O20 Sm0 2.576430 1_555
O20 Sm1 2.590459 1_565
O21 Sb2 1.985594 1_656
O21 Ti2 2.024617 1_555
O21 Sm0 2.444043 1_655
O22 Ti2 1.940506 1_555
O22 Ti1 1.955133 1_556
O22 Sm5 2.620812 1_556
O22 Sm0 2.764550 1_555
O23 Ti1 1.990097 1_555
O23 Sb3 2.013825 1_555
O23 Sm5 2.569403 1_555
O23 Sm4 2.611084 1_555
O24 Ti3 1.990097 1_555
O24 Sb3 2.013825 1_565
O24 Sm3 2.569403 1_565
O24 Sm4 2.611084 1_565
O25 Sb3 1.989858 1_565
O25 Ti0 1.990878 1_555
O25 Sm5 2.522147 1_565
O26 Sm2 2.241038 1_555
O26 Sm4 2.241061 1_565
O26 Sm5 2.242445 1_565
O27 Ti0 1.940506 1_555
O27 Ti3 1.955133 1_555
O27 Sm3 2.620812 1_555
O27 Sm2 2.764550 1_555
