# generated using pymatgen
data_Co2B
_symmetry_space_group_name_H-M   'P 1'
_cell_length_a   4.09733567
_cell_length_b   4.09733567
_cell_length_c   4.09733567
_cell_angle_alpha   105.73285663
_cell_angle_beta   105.73285663
_cell_angle_gamma   117.23847455
_symmetry_Int_Tables_number   1
_chemical_formula_structural   Co2B
_chemical_formula_sum   'Co4 B2'
_cell_volume   52.21293365
_cell_formula_units_Z   2
loop_
 _symmetry_equiv_pos_site_id
 _symmetry_equiv_pos_as_xyz
  1  'x, y, z'
loop_
 _atom_site_type_symbol
 _atom_site_label
 _atom_site_symmetry_multiplicity
 _atom_site_fract_x
 _atom_site_fract_y
 _atom_site_fract_z
 _atom_site_occupancy
  Co  Co0  1  0.16796800  0.33203300  0.50000000  1
  Co  Co1  1  0.83203200  0.66796700  0.50000000  1
  Co  Co2  1  0.66796800  0.16796800  0.83593600  1
  Co  Co3  1  0.33203200  0.83203200  0.16406400  1
  B  B0  1  0.75000000  0.75000000  0.00000000  1
  B  B1  1  0.25000000  0.25000000  0.00000000  1
loop_
_geom_bond_atom_site_label_1
_geom_bond_atom_site_label_2
_geom_bond_distance
_geom_bond_site_symmetry_2
B0 Co1 2.127533 1_554
B0 Co0 2.127533 1_554
B0 Co3 2.127533 1_655
B0 Co2 2.127533 1_564
B0 Co3 2.127533 1_555
B0 Co2 2.127533 1_554
B0 Co0 2.127535 1_665
B0 Co1 2.127535 1_555
B0 B1 2.133577 1_555
B0 B1 2.133577 1_665
B1 Co1 2.127533 1_555
B1 Co0 2.127533 1_555
B1 Co3 2.127533 1_545
B1 Co3 2.127533 1_555
B1 Co2 2.127533 1_554
B1 Co2 2.127533 1_454
B1 Co0 2.127535 1_554
B1 Co1 2.127535 1_444
