# generated using pymatgen
data_NaCaNb2O6F
_symmetry_space_group_name_H-M   'P 1'
_cell_length_a   7.48147943
_cell_length_b   7.48147943
_cell_length_c   7.48147943
_cell_angle_alpha   120.37760819
_cell_angle_beta   119.56328333
_cell_angle_gamma   90.05264248
_symmetry_Int_Tables_number   1
_chemical_formula_structural   NaCaNb2O6F
_chemical_formula_sum   'Na2 Ca2 Nb4 O12 F2'
_cell_volume   296.21963222
_cell_formula_units_Z   2
loop_
 _symmetry_equiv_pos_site_id
 _symmetry_equiv_pos_as_xyz
  1  'x, y, z'
loop_
 _atom_site_type_symbol
 _atom_site_label
 _atom_site_symmetry_multiplicity
 _atom_site_fract_x
 _atom_site_fract_y
 _atom_site_fract_z
 _atom_site_occupancy
  Na  Na0  1  0.50000000  0.00000000  0.00000000  1
  Na  Na1  1  0.50000000  0.50000000  0.50000000  1
  Ca  Ca0  1  0.50000000  0.50000000  0.00000000  1
  Ca  Ca1  1  0.00000000  0.50000000  0.50000000  1
  Nb  Nb0  1  0.50000000  0.00000000  0.50000000  1
  Nb  Nb1  1  0.00000000  0.00000000  0.50000000  1
  Nb  Nb2  1  0.00000000  0.00000000  0.00000000  1
  Nb  Nb3  1  0.00000000  0.50000000  0.00000000  1
  O  O0  1  0.68305500  0.92665900  0.36317000  1
  O  O1  1  0.68660600  0.93660600  0.75000000  1
  O  O2  1  0.68305500  0.31988400  0.75639500  1
  O  O3  1  0.06348900  0.92665900  0.74360500  1
  O  O4  1  0.31694500  0.07334100  0.63683000  1
  O  O5  1  0.31339400  0.06339400  0.25000000  1
  O  O6  1  0.06348900  0.31988400  0.13683000  1
  O  O7  1  0.07258400  0.32258400  0.75000000  1
  O  O8  1  0.31694500  0.68011600  0.24360500  1
  O  O9  1  0.93651100  0.07334100  0.25639500  1
  O  O10  1  0.93651100  0.68011600  0.86317000  1
  O  O11  1  0.92741600  0.67741600  0.25000000  1
  F  F0  1  0.63178200  0.38178200  0.25000000  1
  F  F1  1  0.36821800  0.61821800  0.75000000  1
loop_
_geom_bond_atom_site_label_1
_geom_bond_atom_site_label_2
_geom_bond_distance
_geom_bond_site_symmetry_2
Na0 O1 2.711637 1_544
Na0 O5 2.711637 1_555
Na0 O9 2.719632 1_555
Na0 O3 2.719632 1_544
Na0 O4 2.719632 1_554
Na0 O0 2.719632 1_545
Na1 O1 2.711637 1_555
Na1 O5 2.711637 1_555
Na1 O10 2.719632 1_555
Na1 O6 2.719632 1_555
Na1 O8 2.719633 1_555
Na1 O2 2.719633 1_555
Ca0 F1 2.260004 1_554
Ca0 F0 2.260004 1_555
Ca0 O4 2.644894 1_554
Ca0 O0 2.644894 1_555
Ca0 O8 2.644901 1_555
Ca0 O2 2.644901 1_554
Ca0 O11 2.658000 1_555
Ca0 O7 2.658000 1_554
Ca1 F0 2.260004 1_455
Ca1 F1 2.260004 1_555
Ca1 O6 2.644894 1_555
Ca1 O9 2.644894 1_455
Ca1 O3 2.644894 1_555
Ca1 O10 2.644894 1_455
Ca1 O11 2.658000 1_455
Ca1 O7 2.658000 1_555
Nb0 O5 1.998509 1_555
Nb0 O1 1.998509 1_545
Nb0 O2 2.010295 1_555
Nb0 O8 2.010295 1_545
Nb0 O0 2.010300 1_545
Nb0 O4 2.010300 1_555
Nb1 O4 2.001480 1_555
Nb1 O0 2.001480 1_445
Nb1 O3 2.001486 1_545
Nb1 O9 2.001486 1_455
Nb1 O11 2.011880 1_445
Nb1 O7 2.011880 1_555
Nb2 O5 1.998509 1_555
Nb2 O1 1.998509 1_444
Nb2 O9 2.010293 1_455
Nb2 O6 2.010293 1_555
Nb2 O3 2.010293 1_544
Nb2 O10 2.010293 1_444
Nb3 O8 2.001481 1_555
Nb3 O2 2.001481 1_454
Nb3 O10 2.001486 1_454
Nb3 O6 2.001486 1_555
Nb3 O7 2.011880 1_554
Nb3 O11 2.011880 1_455
F0 Na1 2.323948 1_555
F0 Na0 2.323948 1_555
F1 Na1 2.323948 1_555
F1 Na0 2.323948 1_566
