# generated using pymatgen
data_GePd2
_symmetry_space_group_name_H-M   'P 1'
_cell_length_a   6.69313881
_cell_length_b   6.69313966
_cell_length_c   3.49794085
_cell_angle_alpha   90.00000000
_cell_angle_beta   90.00000000
_cell_angle_gamma   119.99999577
_symmetry_Int_Tables_number   1
_chemical_formula_structural   GePd2
_chemical_formula_sum   'Ge3 Pd6'
_cell_volume   135.70718139
_cell_formula_units_Z   3
loop_
 _symmetry_equiv_pos_site_id
 _symmetry_equiv_pos_as_xyz
  1  'x, y, z'
loop_
 _atom_site_type_symbol
 _atom_site_label
 _atom_site_symmetry_multiplicity
 _atom_site_fract_x
 _atom_site_fract_y
 _atom_site_fract_z
 _atom_site_occupancy
  Ge  Ge0  1  0.66666700  0.33333300  0.00000000  1
  Ge  Ge1  1  0.33333300  0.66666700  0.00000000  1
  Ge  Ge2  1  0.00000000  -0.00000000  0.50000000  1
  Pd  Pd0  1  0.60638289  -0.00000000  0.50000000  1
  Pd  Pd1  1  0.39361711  0.39361711  0.50000000  1
  Pd  Pd2  1  -0.00000000  0.60638289  0.50000000  1
  Pd  Pd3  1  0.00000000  0.26660010  -0.00000000  1
  Pd  Pd4  1  0.73339890  0.73339890  0.00000000  1
  Pd  Pd5  1  0.26660010  0.00000000  0.00000000  1
loop_
_geom_bond_atom_site_label_1
_geom_bond_atom_site_label_2
_geom_bond_distance
_geom_bond_site_symmetry_2
Ge0 Pd3 2.484664 1_655
Ge0 Pd4 2.484667 1_555
Ge0 Pd5 2.484669 1_555
Ge0 Pd0 2.701677 1_554
Ge0 Pd0 2.701677 1_555
Ge0 Pd2 2.701678 1_655
Ge0 Pd2 2.701678 1_654
Ge0 Pd1 2.701681 1_554
Ge0 Pd1 2.701681 1_555
Ge1 Pd5 2.484665 1_565
Ge1 Pd4 2.484667 1_555
Ge1 Pd3 2.484669 1_555
Ge1 Pd2 2.701676 1_555
Ge1 Pd2 2.701676 1_554
Ge1 Pd0 2.701678 1_565
Ge1 Pd0 2.701678 1_564
Ge1 Pd1 2.701682 1_554
Ge1 Pd1 2.701682 1_555
Ge2 Pd5 2.498590 1_556
Ge2 Pd5 2.498590 1_555
Ge2 Pd3 2.498590 1_555
Ge2 Pd3 2.498590 1_556
Ge2 Pd4 2.498595 1_446
Ge2 Pd4 2.498595 1_445
Ge2 Pd0 2.634534 1_455
Ge2 Pd2 2.634534 1_545
Ge2 Pd1 2.634534 1_555
