# generated using pymatgen
data_Ba2CoS3
_symmetry_space_group_name_H-M   'P 1'
_cell_length_a   4.21270400
_cell_length_b   12.16381100
_cell_length_c   12.43083500
_cell_angle_alpha   90.00000000
_cell_angle_beta   90.00000000
_cell_angle_gamma   90.00000000
_symmetry_Int_Tables_number   1
_chemical_formula_structural   Ba2CoS3
_chemical_formula_sum   'Ba8 Co4 S12'
_cell_volume   636.98750074
_cell_formula_units_Z   4
loop_
 _symmetry_equiv_pos_site_id
 _symmetry_equiv_pos_as_xyz
  1  'x, y, z'
loop_
 _atom_site_type_symbol
 _atom_site_label
 _atom_site_symmetry_multiplicity
 _atom_site_fract_x
 _atom_site_fract_y
 _atom_site_fract_z
 _atom_site_occupancy
  Ba  Ba0  1  0.25000000  0.01120400  0.17408400  1
  Ba  Ba1  1  0.75000000  0.48879600  0.67408400  1
  Ba  Ba2  1  0.25000000  0.51120400  0.32591600  1
  Ba  Ba3  1  0.75000000  0.98879600  0.82591600  1
  Ba  Ba4  1  0.25000000  0.17288400  0.52210800  1
  Ba  Ba5  1  0.75000000  0.82711600  0.47789200  1
  Ba  Ba6  1  0.25000000  0.67288400  0.97789200  1
  Ba  Ba7  1  0.75000000  0.32711600  0.02210800  1
  Co  Co0  1  0.75000000  0.24481600  0.30254500  1
  Co  Co1  1  0.75000000  0.74481600  0.19745500  1
  Co  Co2  1  0.25000000  0.75518400  0.69745500  1
  Co  Co3  1  0.25000000  0.25518400  0.80254500  1
  S  S0  1  0.25000000  0.77156100  0.28001100  1
  S  S1  1  0.75000000  0.22843900  0.71998900  1
  S  S2  1  0.25000000  0.27156100  0.21998900  1
  S  S3  1  0.75000000  0.72843900  0.78001100  1
  S  S4  1  0.25000000  0.43531000  0.85956700  1
  S  S5  1  0.75000000  0.56469000  0.14043300  1
  S  S6  1  0.25000000  0.93531000  0.64043300  1
  S  S7  1  0.75000000  0.36064600  0.44605000  1
  S  S8  1  0.25000000  0.13935400  0.94605000  1
  S  S9  1  0.75000000  0.86064600  0.05395000  1
  S  S10  1  0.25000000  0.63935400  0.55395000  1
  S  S11  1  0.75000000  0.06469000  0.35956700  1
loop_
_geom_bond_atom_site_label_1
_geom_bond_atom_site_label_2
_geom_bond_distance
_geom_bond_site_symmetry_2
Ba0 S9 3.165555 1_545
Ba0 S9 3.165555 1_445
Ba0 S11 3.190029 1_455
Ba0 S11 3.190029 1_555
Ba0 S0 3.198581 1_545
Ba0 S2 3.217933 1_555
Ba0 S8 3.234979 1_554
Ba1 S10 3.165555 1_555
Ba1 S10 3.165555 1_655
Ba1 S4 3.190029 1_555
Ba1 S4 3.190029 1_655
Ba1 S3 3.198581 1_555
Ba1 S1 3.217933 1_555
Ba1 S7 3.234979 1_555
Ba2 S7 3.165555 1_455
Ba2 S7 3.165555 1_555
Ba2 S5 3.190029 1_455
Ba2 S5 3.190029 1_555
Ba2 S2 3.198581 1_555
Ba2 S0 3.217933 1_555
Ba2 S10 3.234979 1_555
Ba3 S8 3.165555 1_665
Ba3 S8 3.165555 1_565
Ba3 S6 3.190029 1_655
Ba3 S6 3.190029 1_555
Ba3 S1 3.198581 1_565
Ba3 S3 3.217933 1_555
Ba3 S9 3.234979 1_556
Ba4 S11 3.201751 1_555
Ba4 S11 3.201751 1_455
Ba4 S6 3.242601 1_545
Ba4 S7 3.247588 1_555
Ba4 S7 3.247588 1_455
Ba4 S1 3.308189 1_555
Ba4 S1 3.308189 1_455
Ba5 S6 3.201751 1_655
Ba5 S6 3.201751 1_555
Ba5 S11 3.242601 1_565
Ba5 S10 3.247588 1_555
Ba5 S10 3.247588 1_655
Ba5 S0 3.308189 1_555
Ba5 S0 3.308189 1_655
Ba6 S5 3.201751 1_556
Ba6 S5 3.201751 1_456
Ba6 S4 3.242601 1_555
Ba6 S9 3.247588 1_556
Ba6 S9 3.247588 1_456
Ba6 S3 3.308189 1_455
Ba6 S3 3.308189 1_555
Ba7 S4 3.201751 1_554
Ba7 S4 3.201751 1_654
Ba7 S5 3.242601 1_555
Ba7 S8 3.247588 1_654
Ba7 S8 3.247588 1_554
Ba7 S2 3.308189 1_655
Ba7 S2 3.308189 1_555
Co0 S7 2.273180 1_555
Co0 S11 2.302825 1_555
Co0 S2 2.365528 1_555
Co0 S2 2.365528 1_655
Co1 S9 2.273180 1_555
Co1 S5 2.302825 1_555
Co1 S0 2.365528 1_655
Co1 S0 2.365528 1_555
Co2 S10 2.273180 1_555
Co2 S6 2.302825 1_555
Co2 S3 2.365528 1_555
Co2 S3 2.365528 1_455
Co3 S8 2.273180 1_555
Co3 S4 2.302825 1_555
Co3 S1 2.365528 1_555
Co3 S1 2.365528 1_455
