# generated using pymatgen
data_Tm9(FeGe)10
_symmetry_space_group_name_H-M   'P 1'
_cell_length_a   10.02276838
_cell_length_b   10.02238388
_cell_length_c   10.02183807
_cell_angle_alpha   148.81142862
_cell_angle_beta   96.85753431
_cell_angle_gamma   91.43396069
_symmetry_Int_Tables_number   1
_chemical_formula_structural   Tm9(FeGe)10
_chemical_formula_sum   'Tm9 Fe10 Ge10'
_cell_volume   501.52159578
_cell_formula_units_Z   1
loop_
 _symmetry_equiv_pos_site_id
 _symmetry_equiv_pos_as_xyz
  1  'x, y, z'
loop_
 _atom_site_type_symbol
 _atom_site_label
 _atom_site_symmetry_multiplicity
 _atom_site_fract_x
 _atom_site_fract_y
 _atom_site_fract_z
 _atom_site_occupancy
  Tm  Tm0  1  0.49999166  0.99999562  0.50002152  1
  Tm  Tm1  1  0.78354575  -0.00000898  0.78354778  1
  Tm  Tm2  1  0.21643455  0.00000892  0.21645789  1
  Tm  Tm3  1  0.19542706  0.19537694  -0.00006492  1
  Tm  Tm4  1  0.80457880  0.80462464  0.00004882  1
  Tm  Tm5  1  0.98999586  0.63655743  0.35341436  1
  Tm  Tm6  1  0.01001345  0.36344353  0.64659342  1
  Tm  Tm7  1  0.71681923  0.36345901  0.35339015  1
  Tm  Tm8  1  0.28317915  0.63654917  0.64659728  1
  Fe  Fe0  1  0.40597377  0.40608824  0.00010967  1
  Fe  Fe1  1  0.59402570  0.59389481  -0.00013166  1
  Fe  Fe2  1  0.20212253  0.10110235  0.61054662  1
  Fe  Fe3  1  0.79797674  0.40851229  0.89915482  1
  Fe  Fe4  1  0.50944154  0.89891345  0.10103537  1
  Fe  Fe5  1  0.49063522  0.59150336  0.38947873  1
  Fe  Fe6  1  0.79789702  0.89891169  0.38948407  1
  Fe  Fe7  1  0.20201891  0.59146814  0.10083403  1
  Fe  Fe8  1  0.49055041  0.10108842  0.89893536  1
  Fe  Fe9  1  0.50936557  0.40851153  0.61052819  1
  Ge  Ge0  1  0.99998650  0.74939692  0.74939580  1
  Ge  Ge1  1  0.00000033  0.25059444  0.25059869  1
  Ge  Ge2  1  0.67241270  0.49995413  0.17234931  1
  Ge  Ge3  1  0.32760903  0.50003200  0.82764106  1
  Ge  Ge4  1  0.29017253  0.79005079  0.49988628  1
  Ge  Ge5  1  0.70979856  0.20995720  0.50012065  1
  Ge  Ge6  1  0.99242564  0.20263479  0.78957360  1
  Ge  Ge7  1  0.00759652  0.79737816  0.21044366  1
  Ge  Ge8  1  0.58698562  0.79739628  0.78982094  1
  Ge  Ge9  1  0.41301864  0.20260373  0.21019148  1
loop_
_geom_bond_atom_site_label_1
_geom_bond_atom_site_label_2
_geom_bond_distance
_geom_bond_site_symmetry_2
Fe0 Fe8 2.474430 1_554
Fe0 Fe7 2.474607 1_555
Fe0 Fe5 2.474676 1_555
Fe0 Fe2 2.474840 1_554
Fe0 Fe1 2.631869 1_555
Fe0 Ge3 2.643512 1_554
Fe0 Ge2 2.644063 1_555
Fe0 Tm3 2.946655 1_555
Fe0 Tm0 2.998032 1_555
Fe0 Tm0 2.998509 1_544
Fe1 Fe3 2.474598 1_554
Fe1 Fe9 2.474609 1_554
Fe1 Fe4 2.474675 1_555
Fe1 Fe6 2.475143 1_555
Fe1 Ge2 2.643649 1_555
Fe1 Ge3 2.643836 1_554
Fe1 Tm4 2.946789 1_555
Fe1 Tm0 2.998040 1_544
Fe1 Tm0 2.998949 1_555
Fe2 Ge7 2.469466 1_545
Fe2 Ge4 2.486671 1_545
Fe2 Ge3 2.552042 1_555
Fe2 Ge6 2.560412 1_455
Fe2 Fe7 2.642337 1_556
Fe2 Fe7 2.746027 1_545
Fe2 Tm6 3.089567 1_555
Fe2 Tm3 3.143731 1_556
Fe2 Tm2 3.153047 1_555
Fe2 Tm0 3.191788 1_545
Fe2 Tm5 3.241376 1_445
Fe3 Ge6 2.469260 1_555
Fe3 Ge5 2.487125 1_555
Fe3 Ge2 2.550953 1_556
Fe3 Ge7 2.560948 1_656
Fe3 Fe6 2.642476 1_556
Fe3 Fe6 2.745888 1_545
Fe3 Tm5 3.088420 1_556
Fe3 Tm4 3.144901 1_556
Fe3 Tm1 3.152967 1_555
Fe3 Tm0 3.193448 1_545
Fe3 Tm6 3.240922 1_655
Fe4 Ge9 2.469350 1_565
Fe4 Ge5 2.486696 1_565
Fe4 Ge3 2.551999 1_554
Fe4 Ge8 2.560486 1_554
Fe4 Fe9 2.642543 1_554
Fe4 Fe9 2.745821 1_565
Fe4 Tm8 3.089420 1_554
Fe4 Tm4 3.144218 1_555
Fe4 Tm2 3.153410 1_565
Fe4 Tm0 3.191917 1_555
Fe4 Tm7 3.241527 1_565
Fe5 Ge8 2.469408 1_555
Fe5 Ge4 2.486919 1_555
Fe5 Ge2 2.551614 1_555
Fe5 Ge9 2.560837 1_555
Fe5 Fe8 2.642652 1_554
Fe5 Fe8 2.745712 1_565
Fe5 Tm7 3.087815 1_555
Fe5 Tm3 3.145288 1_555
Fe5 Tm1 3.153281 1_565
Fe5 Tm0 3.192708 1_555
Fe5 Tm8 3.240865 1_555
Fe6 Ge6 2.469419 1_565
Fe6 Ge5 2.486970 1_565
Fe6 Ge2 2.552045 1_555
Fe6 Ge7 2.560495 1_655
Fe6 Tm5 3.089476 1_555
Fe6 Tm4 3.144075 1_555
Fe6 Tm1 3.152986 1_565
Fe6 Tm0 3.192159 1_555
Fe6 Tm6 3.241343 1_665
Fe7 Ge7 2.469136 1_555
Fe7 Ge4 2.487087 1_555
Fe7 Ge3 2.551137 1_554
Fe7 Ge6 2.560681 1_454
Fe7 Tm6 3.088326 1_554
Fe7 Tm3 3.144659 1_555
Fe7 Tm2 3.153037 1_565
Fe7 Tm0 3.193399 1_555
Fe7 Tm5 3.240854 1_455
Fe8 Ge8 2.469661 1_545
Fe8 Ge4 2.486667 1_545
Fe8 Ge2 2.551993 1_556
Fe8 Ge9 2.560823 1_556
Fe8 Tm7 3.089538 1_556
Fe8 Tm3 3.144103 1_556
Fe8 Tm1 3.153225 1_555
Fe8 Tm0 3.191107 1_545
Fe8 Tm8 3.241534 1_545
Fe9 Ge9 2.469270 1_555
Fe9 Ge5 2.486687 1_555
Fe9 Ge3 2.551438 1_555
Fe9 Ge8 2.560672 1_555
Fe9 Tm8 3.087873 1_555
Fe9 Tm4 3.145292 1_556
Fe9 Tm2 3.153466 1_555
Fe9 Tm0 3.193206 1_545
Fe9 Tm7 3.240959 1_555
Ge0 Ge1 2.687752 1_655
Ge0 Ge1 2.700611 1_666
Ge0 Tm5 3.042767 1_555
Ge0 Tm6 3.043022 1_655
Ge0 Tm8 3.043404 1_655
Ge0 Tm7 3.043564 1_555
Ge0 Tm4 3.050009 1_556
Ge0 Tm3 3.050560 1_666
Ge0 Tm1 3.179669 1_565
Ge0 Tm2 3.179961 1_666
Ge1 Tm6 3.042797 1_555
Ge1 Tm5 3.042993 1_455
Ge1 Tm7 3.043299 1_455
Ge1 Tm8 3.043665 1_555
Ge1 Tm3 3.050282 1_555
Ge1 Tm4 3.050333 1_445
Ge1 Tm2 3.179615 1_555
Ge1 Tm1 3.179955 1_454
Ge2 Tm1 3.072796 1_554
Ge2 Tm7 3.073389 1_555
Ge2 Tm1 3.073444 1_565
Ge2 Tm5 3.074261 1_555
Ge3 Tm2 3.073090 1_566
Ge3 Tm2 3.073405 1_555
Ge3 Tm8 3.073648 1_555
Ge3 Tm6 3.074377 1_555
Ge4 Tm8 2.902229 1_555
Ge4 Tm5 2.902262 1_455
Ge4 Tm0 2.936476 1_555
Ge4 Tm3 3.002705 1_555
Ge4 Tm3 3.002798 1_566
Ge5 Tm7 2.902439 1_555
Ge5 Tm6 2.902625 1_655
Ge5 Tm0 2.936760 1_545
Ge5 Tm4 3.002708 1_556
Ge5 Tm4 3.003112 1_545
Ge6 Tm3 2.799114 1_656
Ge6 Tm1 2.838772 1_555
Ge6 Tm6 2.946058 1_655
Ge6 Tm5 2.972022 1_545
Ge6 Tm5 2.972719 1_556
Ge7 Tm4 2.799370 1_455
Ge7 Tm2 2.838462 1_565
Ge7 Tm5 2.946096 1_455
Ge7 Tm6 2.971988 1_565
Ge7 Tm6 2.972726 1_554
Ge8 Tm4 2.798947 1_556
Ge8 Tm1 2.838272 1_565
Ge8 Tm8 2.946627 1_555
Ge8 Tm7 2.971839 1_566
Ge8 Tm7 2.972381 1_555
Ge9 Tm3 2.799128 1_555
Ge9 Tm2 2.838387 1_555
Ge9 Tm7 2.946605 1_555
Ge9 Tm8 2.971880 1_544
Ge9 Tm8 2.972369 1_555
