# generated using pymatgen
data_CoSe
_symmetry_space_group_name_H-M   'P 1'
_cell_length_a   3.60742552
_cell_length_b   3.60742552
_cell_length_c   5.20741700
_cell_angle_alpha   90.00000000
_cell_angle_beta   90.00000000
_cell_angle_gamma   119.99999113
_symmetry_Int_Tables_number   1
_chemical_formula_structural   CoSe
_chemical_formula_sum   'Co2 Se2'
_cell_volume   58.68779231
_cell_formula_units_Z   2
loop_
 _symmetry_equiv_pos_site_id
 _symmetry_equiv_pos_as_xyz
  1  'x, y, z'
loop_
 _atom_site_type_symbol
 _atom_site_label
 _atom_site_symmetry_multiplicity
 _atom_site_fract_x
 _atom_site_fract_y
 _atom_site_fract_z
 _atom_site_occupancy
  Co  Co0  1  0.00000000  0.00000000  0.00000000  1
  Co  Co1  1  0.00000000  0.00000000  0.50000000  1
  Se  Se0  1  0.33333300  0.66666700  0.25000000  1
  Se  Se1  1  0.66666700  0.33333300  0.75000000  1
loop_
_geom_bond_atom_site_label_1
_geom_bond_atom_site_label_2
_geom_bond_distance
_geom_bond_site_symmetry_2
Co0 Se0 2.456146 1_545
Co0 Se1 2.456146 1_454
Co0 Se0 2.456149 1_445
Co0 Se1 2.456149 1_554
Co0 Se0 2.456149 1_555
Co0 Se1 2.456149 1_444
Co1 Se0 2.456146 1_545
Co1 Se1 2.456146 1_455
Co1 Se0 2.456149 1_445
Co1 Se0 2.456149 1_555
Co1 Se1 2.456149 1_445
Co1 Se1 2.456149 1_555
