# generated using pymatgen
data_GdTaO4
_symmetry_space_group_name_H-M   'P 1'
_cell_length_a   5.17142412
_cell_length_b   5.36265626
_cell_length_c   5.51136726
_cell_angle_alpha   90.00000000
_cell_angle_beta   90.00000000
_cell_angle_gamma   96.63894961
_symmetry_Int_Tables_number   1
_chemical_formula_structural   GdTaO4
_chemical_formula_sum   'Gd2 Ta2 O8'
_cell_volume   151.81946522
_cell_formula_units_Z   2
loop_
 _symmetry_equiv_pos_site_id
 _symmetry_equiv_pos_as_xyz
  1  'x, y, z'
loop_
 _atom_site_type_symbol
 _atom_site_label
 _atom_site_symmetry_multiplicity
 _atom_site_fract_x
 _atom_site_fract_y
 _atom_site_fract_z
 _atom_site_occupancy
  Gd  Gd0  1  -0.00000000  0.75000000  0.76553461  1
  Gd  Gd1  1  -0.00000000  0.25000000  0.23446539  1
  Ta  Ta0  1  0.50000000  0.25000000  0.69195870  1
  Ta  Ta1  1  0.50000000  0.75000000  0.30804130  1
  O  O0  1  0.72929276  0.00857862  0.56229567  1
  O  O1  1  0.27070724  0.49142138  0.56229567  1
  O  O2  1  0.27070724  0.99142138  0.43770433  1
  O  O3  1  0.72929276  0.50857862  0.43770433  1
  O  O4  1  0.25350476  0.60311603  0.08614802  1
  O  O5  1  0.74649524  0.89688397  0.08614802  1
  O  O6  1  0.74649524  0.39688397  0.91385198  1
  O  O7  1  0.25350476  0.10311603  0.91385198  1
loop_
_geom_bond_atom_site_label_1
_geom_bond_atom_site_label_2
_geom_bond_distance
_geom_bond_site_symmetry_2
Gd0 O7 2.323514 1_565
Gd0 O6 2.323514 1_455
Gd0 O0 2.363521 1_465
Gd0 O1 2.363521 1_555
Gd0 O4 2.387520 1_556
Gd0 O5 2.387520 1_456
Gd0 O2 2.545859 1_555
Gd0 O3 2.545859 1_455
Gd1 O5 2.323514 1_445
Gd1 O4 2.323514 1_555
Gd1 O3 2.363521 1_455
Gd1 O2 2.363521 1_545
Gd1 O6 2.387520 1_454
Gd1 O7 2.387520 1_554
Gd1 O1 2.545859 1_555
Gd1 O0 2.545859 1_455
O0 Ta0 1.986919 1_555
O0 Ta1 2.216374 1_545
O1 Ta0 1.986919 1_555
O1 Ta1 2.216374 1_555
O2 Ta1 1.986919 1_555
O2 Ta0 2.216374 1_565
O3 Ta1 1.986919 1_555
O3 Ta0 2.216374 1_555
O4 Ta1 1.873177 1_555
O5 Ta1 1.873177 1_555
O6 Ta0 1.873177 1_555
O7 Ta0 1.873177 1_555
