# generated using pymatgen
data_Pr2Sn2O7
_symmetry_space_group_name_H-M   'P 1'
_cell_length_a   7.54454689
_cell_length_b   7.54454689
_cell_length_c   7.54454689
_cell_angle_alpha   60.00000000
_cell_angle_beta   60.00000000
_cell_angle_gamma   60.00000000
_symmetry_Int_Tables_number   1
_chemical_formula_structural   Pr2Sn2O7
_chemical_formula_sum   'Pr4 Sn4 O14'
_cell_volume   303.65783347
_cell_formula_units_Z   2
loop_
 _symmetry_equiv_pos_site_id
 _symmetry_equiv_pos_as_xyz
  1  'x, y, z'
loop_
 _atom_site_type_symbol
 _atom_site_label
 _atom_site_symmetry_multiplicity
 _atom_site_fract_x
 _atom_site_fract_y
 _atom_site_fract_z
 _atom_site_occupancy
  Pr  Pr0  1  0.12500000  0.12500000  0.12500000  1
  Pr  Pr1  1  0.62500000  0.12500000  0.12500000  1
  Pr  Pr2  1  0.12500000  0.12500000  0.62500000  1
  Pr  Pr3  1  0.12500000  0.62500000  0.12500000  1
  Sn  Sn0  1  0.62500000  0.62500000  0.62500000  1
  Sn  Sn1  1  0.12500000  0.62500000  0.62500000  1
  Sn  Sn2  1  0.62500000  0.62500000  0.12500000  1
  Sn  Sn3  1  0.62500000  0.12500000  0.62500000  1
  O  O0  1  0.00000000  0.00000000  0.00000000  1
  O  O1  1  0.25000000  0.25000000  0.25000000  1
  O  O2  1  0.29331738  0.29331738  0.70668262  1
  O  O3  1  0.54331738  0.54331738  0.95668262  1
  O  O4  1  0.70668262  0.29331738  0.70668262  1
  O  O5  1  0.70668262  0.29331738  0.29331738  1
  O  O6  1  0.29331738  0.70668262  0.70668262  1
  O  O7  1  0.29331738  0.70668262  0.29331738  1
  O  O8  1  0.70668262  0.70668262  0.29331738  1
  O  O9  1  0.95668262  0.54331738  0.54331738  1
  O  O10  1  0.54331738  0.95668262  0.95668262  1
  O  O11  1  0.95668262  0.95668262  0.54331738  1
  O  O12  1  0.95668262  0.54331738  0.95668262  1
  O  O13  1  0.54331738  0.95668262  0.54331738  1
loop_
_geom_bond_atom_site_label_1
_geom_bond_atom_site_label_2
_geom_bond_distance
_geom_bond_site_symmetry_2
O0 Pr1 2.310036 1_455
O0 Pr0 2.310036 1_555
O0 Pr3 2.310036 1_545
O0 Pr2 2.310036 1_554
O1 Pr2 2.310036 1_555
O1 Pr1 2.310036 1_555
O1 Pr0 2.310036 1_555
O1 Pr3 2.310036 1_555
O2 Sn3 2.077754 1_555
O2 Sn1 2.077754 1_555
O2 Pr0 2.604361 1_556
O2 Pr2 2.604361 1_555
O3 Sn2 2.077754 1_556
O3 Sn0 2.077754 1_555
O3 Pr3 2.604361 1_556
O3 Pr1 2.604361 1_556
O4 Sn0 2.077754 1_555
O4 Sn3 2.077754 1_555
O4 Pr2 2.604361 1_655
O4 Pr1 2.604361 1_556
O5 Sn3 2.077754 1_555
O5 Sn2 2.077754 1_555
O5 Pr0 2.604361 1_655
O5 Pr1 2.604361 1_555
O6 Sn0 2.077754 1_555
O6 Sn1 2.077754 1_555
O6 Pr2 2.604361 1_565
O6 Pr3 2.604361 1_556
O7 Sn1 2.077754 1_555
O7 Sn2 2.077754 1_555
O7 Pr0 2.604361 1_565
O7 Pr3 2.604361 1_555
O8 Sn0 2.077754 1_555
O8 Sn2 2.077754 1_555
O8 Pr1 2.604361 1_565
O8 Pr3 2.604361 1_655
O9 Sn0 2.077754 1_555
O9 Sn1 2.077754 1_655
O9 Pr2 2.604361 1_655
O9 Pr3 2.604361 1_655
O10 Sn3 2.077754 1_565
O10 Sn2 2.077754 1_556
O10 Pr0 2.604361 1_566
O10 Pr1 2.604361 1_566
O11 Sn1 2.077754 1_655
O11 Sn3 2.077754 1_565
O11 Pr2 2.604361 1_665
O11 Pr0 2.604361 1_665
O12 Sn2 2.077754 1_556
O12 Sn1 2.077754 1_655
O12 Pr3 2.604361 1_656
O12 Pr0 2.604361 1_656
O13 Sn0 2.077754 1_555
O13 Sn3 2.077754 1_565
O13 Pr2 2.604361 1_565
O13 Pr1 2.604361 1_565
