# generated using pymatgen
data_VCoSb
_symmetry_space_group_name_H-M   'P 1'
_cell_length_a   4.11202645
_cell_length_b   4.11202709
_cell_length_c   4.11202730
_cell_angle_alpha   60.00000657
_cell_angle_beta   60.00000154
_cell_angle_gamma   60.00001102
_symmetry_Int_Tables_number   1
_chemical_formula_structural   VCoSb
_chemical_formula_sum   'V1 Co1 Sb1'
_cell_volume   49.16464655
_cell_formula_units_Z   1
loop_
 _symmetry_equiv_pos_site_id
 _symmetry_equiv_pos_as_xyz
  1  'x, y, z'
loop_
 _atom_site_type_symbol
 _atom_site_label
 _atom_site_symmetry_multiplicity
 _atom_site_fract_x
 _atom_site_fract_y
 _atom_site_fract_z
 _atom_site_occupancy
  V  V0  1  0.00000000  0.00000000  -0.00000000  1
  Co  Co0  1  0.25000000  0.25000000  0.25000000  1
  Sb  Sb0  1  0.50000000  0.50000000  0.50000000  1
loop_
_geom_bond_atom_site_label_1
_geom_bond_atom_site_label_2
_geom_bond_distance
_geom_bond_site_symmetry_2
Co0 V0 2.518092 1_555
Co0 Sb0 2.518092 1_555
Co0 V0 2.518092 1_655
Co0 Sb0 2.518092 1_455
Co0 Sb0 2.518092 1_554
Co0 V0 2.518092 1_556
Co0 Sb0 2.518092 1_545
Co0 V0 2.518092 1_565
Sb0 V0 2.907642 1_665
Sb0 V0 2.907642 1_556
Sb0 V0 2.907642 1_656
Sb0 V0 2.907642 1_565
Sb0 V0 2.907642 1_655
Sb0 V0 2.907642 1_566
