# generated using pymatgen
data_NaPrTiNbO6F
_symmetry_space_group_name_H-M   'P 1'
_cell_length_a   7.39259100
_cell_length_b   7.39259100
_cell_length_c   10.50183800
_cell_angle_alpha   90.00000000
_cell_angle_beta   90.00000000
_cell_angle_gamma   90.00000000
_symmetry_Int_Tables_number   1
_chemical_formula_structural   NaPrTiNbO6F
_chemical_formula_sum   'Na4 Pr4 Ti4 Nb4 O24 F4'
_cell_volume   573.92966522
_cell_formula_units_Z   4
loop_
 _symmetry_equiv_pos_site_id
 _symmetry_equiv_pos_as_xyz
  1  'x, y, z'
loop_
 _atom_site_type_symbol
 _atom_site_label
 _atom_site_symmetry_multiplicity
 _atom_site_fract_x
 _atom_site_fract_y
 _atom_site_fract_z
 _atom_site_occupancy
  Na  Na0  1  0.50000000  0.27402600  0.00000000  1
  Na  Na1  1  0.50000000  0.72597400  0.50000000  1
  Na  Na2  1  0.72597400  0.50000000  0.25000000  1
  Na  Na3  1  0.27402600  0.50000000  0.75000000  1
  Pr  Pr0  1  0.00000000  0.72629600  0.50000000  1
  Pr  Pr1  1  0.27370400  0.00000000  0.75000000  1
  Pr  Pr2  1  0.00000000  0.27370400  0.00000000  1
  Pr  Pr3  1  0.72629600  0.00000000  0.25000000  1
  Ti  Ti0  1  0.76487500  0.00000000  0.75000000  1
  Ti  Ti1  1  0.00000000  0.23512500  0.50000000  1
  Ti  Ti2  1  0.23512500  0.00000000  0.25000000  1
  Ti  Ti3  1  0.00000000  0.76487500  0.00000000  1
  Nb  Nb0  1  0.24325400  0.50000000  0.25000000  1
  Nb  Nb1  1  0.50000000  0.24325400  0.50000000  1
  Nb  Nb2  1  0.50000000  0.75674600  0.00000000  1
  Nb  Nb3  1  0.75674600  0.50000000  0.75000000  1
  O  O0  1  0.55812900  0.94707900  0.86796100  1
  O  O1  1  0.75146400  0.77232400  0.07099600  1
  O  O2  1  0.95820000  0.95820000  0.87500000  1
  O  O3  1  0.05292100  0.44187100  0.38203900  1
  O  O4  1  0.04180000  0.95820000  0.12500000  1
  O  O5  1  0.04180000  0.04180000  0.37500000  1
  O  O6  1  0.24853600  0.22767600  0.57099600  1
  O  O7  1  0.22767600  0.75146400  0.32099600  1
  O  O8  1  0.22767600  0.24853600  0.17900400  1
  O  O9  1  0.24853600  0.77232400  0.92900400  1
  O  O10  1  0.44187100  0.05292100  0.36796100  1
  O  O11  1  0.43784500  0.43784500  0.37500000  1
  O  O12  1  0.44187100  0.94707900  0.13203900  1
  O  O13  1  0.56215500  0.43784500  0.62500000  1
  O  O14  1  0.55812900  0.05292100  0.63203900  1
  O  O15  1  0.56215500  0.56215500  0.87500000  1
  O  O16  1  0.77232400  0.75146400  0.67900400  1
  O  O17  1  0.75146400  0.22767600  0.42900400  1
  O  O18  1  0.77232400  0.24853600  0.82099600  1
  O  O19  1  0.94707900  0.55812900  0.88203900  1
  O  O20  1  0.95820000  0.04180000  0.62500000  1
  O  O21  1  0.94707900  0.44187100  0.61796100  1
  O  O22  1  0.05292100  0.55812900  0.11796100  1
  O  O23  1  0.43784500  0.56215500  0.12500000  1
  F  F0  1  0.73898200  0.26101800  0.12500000  1
  F  F1  1  0.26101800  0.73898200  0.62500000  1
  F  F2  1  0.73898200  0.73898200  0.37500000  1
  F  F3  1  0.26101800  0.26101800  0.87500000  1
loop_
_geom_bond_atom_site_label_1
_geom_bond_atom_site_label_2
_geom_bond_distance
_geom_bond_site_symmetry_2
Na0 O23 2.543889 1_555
Na0 O15 2.543889 1_554
Na0 O8 2.760854 1_555
Na0 O18 2.760854 1_554
Na0 O0 2.819448 1_544
Na0 O12 2.819448 1_545
Na1 O13 2.543889 1_555
Na1 O11 2.543889 1_555
Na1 O16 2.760854 1_555
Na1 O7 2.760854 1_555
Na1 O14 2.819448 1_565
Na1 O10 2.819448 1_565
Na2 O11 2.543889 1_555
Na2 O23 2.543889 1_555
Na2 O17 2.760854 1_555
Na2 O1 2.760854 1_555
Na2 O3 2.819448 1_655
Na2 O22 2.819448 1_655
Na3 O15 2.543889 1_555
Na3 O13 2.543889 1_555
Na3 O9 2.760854 1_555
Na3 O6 2.760854 1_555
Na3 O19 2.819448 1_455
Na3 O21 2.819448 1_455
Nb0 O23 2.000940 1_555
Nb0 O11 2.000940 1_555
Nb0 O7 2.006224 1_555
Nb0 O8 2.006224 1_555
Nb0 O3 2.021699 1_555
Nb0 O22 2.021699 1_555
Nb1 O11 2.000940 1_555
Nb1 O13 2.000940 1_555
Nb1 O17 2.006224 1_555
Nb1 O6 2.006224 1_555
Nb1 O14 2.021699 1_555
Nb1 O10 2.021699 1_555
Nb2 O23 2.000940 1_555
Nb2 O15 2.000940 1_554
Nb2 O1 2.006224 1_555
Nb2 O9 2.006224 1_554
Nb2 O0 2.021699 1_554
Nb2 O12 2.021699 1_555
Nb3 O13 2.000940 1_555
Nb3 O15 2.000940 1_555
Nb3 O16 2.006224 1_555
Nb3 O18 2.006224 1_555
Nb3 O19 2.021699 1_555
Nb3 O21 2.021699 1_555
O0 Ti0 2.005909 1_565
O0 Pr1 2.471596 1_565
O1 Ti3 1.983607 1_655
O1 Pr3 2.530101 1_565
O2 Ti0 1.965014 1_565
O2 Ti3 1.965014 1_656
O2 Pr1 2.694216 1_665
O2 Pr2 2.694216 1_666
O3 Ti1 2.005909 1_555
O3 Pr0 2.471596 1_555
O4 Ti2 1.965014 1_565
O4 Ti3 1.965014 1_555
O4 Pr2 2.694216 1_565
O4 Pr3 2.694216 1_465
O5 Ti1 1.965014 1_555
O5 Ti2 1.965014 1_555
O5 Pr3 2.694216 1_455
O5 Pr0 2.694216 1_545
O6 Ti1 1.983607 1_555
O6 Pr1 2.530101 1_555
O7 Ti2 1.983607 1_565
O7 Pr0 2.530101 1_555
O8 Ti2 1.983607 1_555
O8 Pr2 2.530101 1_555
O9 Ti3 1.983607 1_556
O9 Pr1 2.530101 1_565
O10 Ti2 2.005909 1_555
O10 Pr3 2.471596 1_555
O12 Ti2 2.005909 1_565
O12 Pr3 2.471596 1_565
O14 Ti0 2.005909 1_555
O14 Pr1 2.471596 1_555
O16 Ti0 1.983607 1_565
O16 Pr0 2.530101 1_655
O17 Ti1 1.983607 1_655
O17 Pr3 2.530101 1_555
O18 Ti0 1.983607 1_555
O18 Pr2 2.530101 1_656
O19 Ti3 2.005909 1_656
O19 Pr2 2.471596 1_656
O20 Ti1 1.965014 1_655
O20 Ti0 1.965014 1_555
O20 Pr1 2.694216 1_655
O20 Pr0 2.694216 1_645
O21 Ti1 2.005909 1_655
O21 Pr0 2.471596 1_655
O22 Ti3 2.005909 1_555
O22 Pr2 2.471596 1_555
F0 Na0 2.203116 1_555
F0 Na2 2.203116 1_555
F0 Pr3 2.335681 1_555
F0 Pr2 2.335681 1_655
F1 Na3 2.203116 1_555
F1 Na1 2.203116 1_555
F1 Pr0 2.335681 1_555
F1 Pr1 2.335681 1_565
F2 Na2 2.203116 1_555
F2 Na1 2.203116 1_555
F2 Pr0 2.335681 1_655
F2 Pr3 2.335681 1_565
F3 Na0 2.203116 1_556
F3 Na3 2.203116 1_555
F3 Pr1 2.335681 1_555
F3 Pr2 2.335681 1_556
