# generated using pymatgen
data_Ba3Na2Ti3Nb2O15
_symmetry_space_group_name_H-M   'P 1'
_cell_length_a   14.51822770
_cell_length_b   14.51822770
_cell_length_c   4.02806600
_cell_angle_alpha   90.00000000
_cell_angle_beta   90.00000000
_cell_angle_gamma   157.41446977
_symmetry_Int_Tables_number   1
_chemical_formula_structural   Ba3Na2Ti3Nb2O15
_chemical_formula_sum   'Ba3 Na2 Ti3 Nb2 O15'
_cell_volume   326.08085615
_cell_formula_units_Z   1
loop_
 _symmetry_equiv_pos_site_id
 _symmetry_equiv_pos_as_xyz
  1  'x, y, z'
loop_
 _atom_site_type_symbol
 _atom_site_label
 _atom_site_symmetry_multiplicity
 _atom_site_fract_x
 _atom_site_fract_y
 _atom_site_fract_z
 _atom_site_occupancy
  Ba  Ba0  1  0.59909100  0.40090900  0.00000000  1
  Ba  Ba1  1  0.00000000  0.00000000  0.00000000  1
  Ba  Ba2  1  0.40090900  0.59909100  0.00000000  1
  Na  Na0  1  0.80132700  0.19867300  0.00000000  1
  Na  Na1  1  0.19867300  0.80132700  0.00000000  1
  Ti  Ti0  1  0.50000000  0.50000000  0.50000000  1
  Ti  Ti1  1  0.89895700  0.10104300  0.50000000  1
  Ti  Ti2  1  0.10104300  0.89895700  0.50000000  1
  Nb  Nb0  1  0.29938200  0.70061800  0.50000000  1
  Nb  Nb1  1  0.70061800  0.29938200  0.50000000  1
  O  O0  1  0.79967400  0.69924500  0.50000000  1
  O  O1  1  0.20032600  0.30075500  0.50000000  1
  O  O2  1  0.30075500  0.20032600  0.50000000  1
  O  O3  1  0.59974000  0.89980200  0.50000000  1
  O  O4  1  0.00000000  0.50000000  0.50000000  1
  O  O5  1  0.69924500  0.79967400  0.50000000  1
  O  O6  1  0.10019800  0.40026000  0.50000000  1
  O  O7  1  0.40026000  0.10019800  0.50000000  1
  O  O8  1  0.50000000  0.00000000  0.50000000  1
  O  O9  1  0.89980200  0.59974000  0.50000000  1
  O  O10  1  0.50000000  0.50000000  0.00000000  1
  O  O11  1  0.89934000  0.10066000  0.00000000  1
  O  O12  1  0.29940700  0.70059300  0.00000000  1
  O  O13  1  0.70059300  0.29940700  0.00000000  1
  O  O14  1  0.10066000  0.89934000  0.00000000  1
loop_
_geom_bond_atom_site_label_1
_geom_bond_atom_site_label_2
_geom_bond_distance
_geom_bond_site_symmetry_2
Ba0 O10 2.821546 1_555
Ba0 O0 2.829337 1_554
Ba0 O2 2.829337 1_555
Ba0 O2 2.829337 1_554
Ba0 O0 2.829337 1_555
Ba0 O14 2.843344 1_655
Ba0 O14 2.843344 1_545
Ba0 O7 2.859576 1_555
Ba0 O9 2.859576 1_554
Ba0 O7 2.859576 1_554
Ba0 O9 2.859576 1_555
Ba0 O13 2.890198 1_555
Ba1 O10 2.842993 1_555
Ba1 O10 2.842993 1_445
Ba1 O1 2.851337 1_554
Ba1 O0 2.851337 1_445
Ba1 O1 2.851337 1_555
Ba1 O0 2.851337 1_444
Ba1 O5 2.851337 1_445
Ba1 O2 2.851337 1_555
Ba1 O2 2.851337 1_554
Ba1 O5 2.851337 1_444
Ba1 O14 2.866222 1_545
Ba1 O11 2.866222 1_455
Ba2 O10 2.821546 1_555
Ba2 O1 2.829337 1_555
Ba2 O1 2.829337 1_554
Ba2 O5 2.829337 1_555
Ba2 O5 2.829337 1_554
Ba2 O11 2.843344 1_455
Ba2 O11 2.843344 1_565
Ba2 O3 2.859576 1_554
Ba2 O3 2.859576 1_555
Ba2 O6 2.859576 1_554
Ba2 O6 2.859576 1_555
Ba2 O12 2.890198 1_555
Na0 O11 2.790851 1_555
Na0 O6 2.828257 1_655
Na0 O6 2.828257 1_654
Na0 O3 2.828257 1_544
Na0 O3 2.828257 1_545
Na0 O12 2.843519 1_655
Na0 O12 2.843519 1_545
Na0 O4 2.865827 1_655
Na0 O4 2.865827 1_654
Na0 O8 2.865827 1_555
Na0 O8 2.865827 1_554
Na0 O13 2.868329 1_555
Na1 O14 2.790851 1_555
Na1 O7 2.828257 1_565
Na1 O9 2.828257 1_455
Na1 O9 2.828257 1_454
Na1 O7 2.828257 1_564
Na1 O13 2.843519 1_565
Na1 O13 2.843519 1_455
Na1 O8 2.865827 1_565
Na1 O4 2.865827 1_554
Na1 O8 2.865827 1_564
Na1 O4 2.865827 1_555
Na1 O12 2.868329 1_555
Nb0 O8 1.999455 1_565
Nb0 O4 1.999455 1_555
Nb0 O12 2.014033 1_556
Nb0 O12 2.014033 1_555
Nb0 O6 2.022817 1_555
Nb0 O3 2.022817 1_555
Nb1 O8 1.999455 1_555
Nb1 O4 1.999455 1_655
Nb1 O13 2.014033 1_556
Nb1 O13 2.014033 1_555
Nb1 O7 2.022817 1_555
Nb1 O9 2.022817 1_555
O0 Ti0 2.014030 1_555
O0 Ti2 2.030786 1_655
O1 Ti0 2.014030 1_555
O1 Ti1 2.030786 1_455
O2 Ti0 2.014030 1_555
O2 Ti2 2.030786 1_545
O3 Ti1 1.992510 1_565
O5 Ti0 2.014030 1_555
O5 Ti1 2.030786 1_565
O6 Ti1 1.992510 1_455
O7 Ti2 1.992510 1_545
O9 Ti2 1.992510 1_655
O10 Ti0 2.014033 1_555
O10 Ti0 2.014033 1_554
O11 Ti1 2.014063 1_555
O11 Ti1 2.014063 1_554
O14 Ti2 2.014063 1_554
O14 Ti2 2.014063 1_555
