# generated using pymatgen
data_NdAgSn
_symmetry_space_group_name_H-M   'P 1'
_cell_length_a   4.78427871
_cell_length_b   4.78427876
_cell_length_c   7.68475007
_cell_angle_alpha   90.00000000
_cell_angle_beta   90.00000000
_cell_angle_gamma   120.00001383
_symmetry_Int_Tables_number   1
_chemical_formula_structural   NdAgSn
_chemical_formula_sum   'Nd2 Ag2 Sn2'
_cell_volume   152.33274444
_cell_formula_units_Z   2
loop_
 _symmetry_equiv_pos_site_id
 _symmetry_equiv_pos_as_xyz
  1  'x, y, z'
loop_
 _atom_site_type_symbol
 _atom_site_label
 _atom_site_symmetry_multiplicity
 _atom_site_fract_x
 _atom_site_fract_y
 _atom_site_fract_z
 _atom_site_occupancy
  Nd  Nd0  1  0.00000000  -0.00000000  0.76217934  1
  Nd  Nd1  1  0.00000000  -0.00000000  0.26217934  1
  Ag  Ag0  1  0.66666700  0.33333300  0.95645057  1
  Ag  Ag1  1  0.33333300  0.66666700  0.45645057  1
  Sn  Sn0  1  0.33333300  0.66666700  0.04137009  1
  Sn  Sn1  1  0.66666700  0.33333300  0.54137009  1
loop_
_geom_bond_atom_site_label_1
_geom_bond_atom_site_label_2
_geom_bond_distance
_geom_bond_site_symmetry_2
Nd0 Sn1 3.241775 1_455
Nd0 Sn1 3.241778 1_555
Nd0 Sn1 3.241778 1_445
Nd0 Sn0 3.497567 1_546
Nd0 Sn0 3.497570 1_446
Nd0 Sn0 3.497570 1_556
Nd0 Nd1 3.842375 1_556
Nd0 Nd1 3.842375 1_555
Nd1 Sn0 3.241775 1_545
Nd1 Sn0 3.241778 1_445
Nd1 Sn0 3.241778 1_555
Nd1 Sn1 3.497567 1_455
Nd1 Sn1 3.497570 1_555
Nd1 Sn1 3.497570 1_445
Ag0 Sn0 2.838243 1_656
Ag0 Sn0 2.838243 1_546
Ag0 Sn0 2.838252 1_556
Ag0 Nd0 3.139839 1_655
Ag0 Nd0 3.139842 1_555
Ag0 Nd0 3.139842 1_665
Ag0 Sn1 3.189790 1_555
Ag0 Nd1 3.626248 1_656
Ag0 Nd1 3.626250 1_556
Ag0 Nd1 3.626250 1_666
Ag1 Sn1 2.838243 1_455
Ag1 Sn1 2.838243 1_565
Ag1 Sn1 2.838252 1_555
Ag1 Nd1 3.139839 1_565
Ag1 Nd1 3.139842 1_665
Ag1 Nd1 3.139842 1_555
Ag1 Sn0 3.189790 1_555
Ag1 Nd0 3.626248 1_565
Ag1 Nd0 3.626250 1_665
Ag1 Nd0 3.626250 1_555
