# generated using pymatgen
data_Sr3(PO4)2
_symmetry_space_group_name_H-M   'P 1'
_cell_length_a   5.38973897
_cell_length_b   5.38973897
_cell_length_c   7.30078730
_cell_angle_alpha   68.33582917
_cell_angle_beta   68.33582917
_cell_angle_gamma   59.99817186
_symmetry_Int_Tables_number   1
_chemical_formula_structural   Sr3(PO4)2
_chemical_formula_sum   'Sr3 P2 O8'
_cell_volume   166.14299072
_cell_formula_units_Z   1
loop_
 _symmetry_equiv_pos_site_id
 _symmetry_equiv_pos_as_xyz
  1  'x, y, z'
loop_
 _atom_site_type_symbol
 _atom_site_label
 _atom_site_symmetry_multiplicity
 _atom_site_fract_x
 _atom_site_fract_y
 _atom_site_fract_z
 _atom_site_occupancy
  Sr  Sr0  1  -0.00000000  -0.00000000  0.00000000  1
  Sr  Sr1  1  0.79364392  0.79364392  0.61905491  1
  Sr  Sr2  1  0.20635608  0.20635608  0.38094509  1
  P  P0  1  0.59327342  0.59327342  0.22016546  1
  P  P1  1  0.40672558  0.40672558  0.77983454  1
  O  O0  1  0.67040758  0.67040758  0.98877794  1
  O  O1  1  0.32959242  0.32959242  0.01122206  1
  O  O2  1  0.25532131  0.72259297  0.29952387  1
  O  O3  1  0.72254862  0.72254862  0.29955706  1
  O  O4  1  0.72259297  0.25532131  0.29952387  1
  O  O5  1  0.74467869  0.27740703  0.70047613  1
  O  O6  1  0.27745138  0.27745138  0.70044294  1
  O  O7  1  0.27740703  0.74467869  0.70047613  1
loop_
_geom_bond_atom_site_label_1
_geom_bond_atom_site_label_2
_geom_bond_distance
_geom_bond_site_symmetry_2
O0 P0 1.528143 1_556
O0 Sr1 2.441746 1_555
O1 P1 1.528143 1_554
O1 Sr2 2.441746 1_555
O2 P0 1.545509 1_555
O2 Sr0 2.580947 1_565
O2 Sr1 2.683511 1_455
O2 Sr2 2.749853 1_565
O2 Sr2 2.749909 1_555
O3 P0 1.545564 1_555
O3 Sr0 2.581157 1_665
O3 Sr1 2.683527 1_555
O3 Sr2 2.749775 1_565
O3 Sr2 2.749775 1_655
O4 P0 1.545509 1_555
O4 Sr0 2.580947 1_655
O4 Sr1 2.683511 1_545
O4 Sr2 2.749853 1_655
O4 Sr2 2.749909 1_555
O5 P1 1.545513 1_555
O5 Sr0 2.580947 1_656
O5 Sr2 2.683511 1_655
O5 Sr1 2.749853 1_545
O5 Sr1 2.749909 1_555
O6 P1 1.545556 1_555
O6 Sr0 2.581157 1_556
O6 Sr2 2.683527 1_555
O6 Sr1 2.749775 1_455
O6 Sr1 2.749775 1_545
O7 P1 1.545513 1_555
O7 Sr0 2.580947 1_566
O7 Sr2 2.683511 1_565
O7 Sr1 2.749853 1_455
O7 Sr1 2.749909 1_555
