# generated using pymatgen
data_ScCrC2
_symmetry_space_group_name_H-M   'P 1'
_cell_length_a   3.24638178
_cell_length_b   3.24638193
_cell_length_c   9.01089591
_cell_angle_alpha   90.00000000
_cell_angle_beta   90.00000000
_cell_angle_gamma   119.99999843
_symmetry_Int_Tables_number   1
_chemical_formula_structural   ScCrC2
_chemical_formula_sum   'Sc2 Cr2 C4'
_cell_volume   82.24278655
_cell_formula_units_Z   2
loop_
 _symmetry_equiv_pos_site_id
 _symmetry_equiv_pos_as_xyz
  1  'x, y, z'
loop_
 _atom_site_type_symbol
 _atom_site_label
 _atom_site_symmetry_multiplicity
 _atom_site_fract_x
 _atom_site_fract_y
 _atom_site_fract_z
 _atom_site_occupancy
  Sc  Sc0  1  0.00000000  0.00000000  0.50000000  1
  Sc  Sc1  1  0.00000000  0.00000000  0.00000000  1
  Cr  Cr0  1  0.33333300  0.66666700  0.25000000  1
  Cr  Cr1  1  0.66666700  0.33333300  0.75000000  1
  C  C0  1  0.33333300  0.66666700  0.83425771  1
  C  C1  1  0.66666700  0.33333300  0.33425771  1
  C  C2  1  0.33333300  0.66666700  0.66574229  1
  C  C3  1  0.66666700  0.33333300  0.16574229  1
loop_
_geom_bond_atom_site_label_1
_geom_bond_atom_site_label_2
_geom_bond_distance
_geom_bond_site_symmetry_2
C0 C2 1.518475 1_555
C0 Cr1 2.022235 1_455
C0 Cr1 2.022235 1_565
C0 Cr1 2.022240 1_555
C0 Sc1 2.396559 1_566
C0 Sc1 2.396561 1_666
C0 Sc1 2.396561 1_556
C1 C3 1.518475 1_555
C1 Cr0 2.022235 1_655
C1 Cr0 2.022235 1_545
C1 Cr0 2.022240 1_555
C1 Sc0 2.396559 1_655
C1 Sc0 2.396561 1_555
C1 Sc0 2.396561 1_665
C2 Cr1 2.022235 1_455
C2 Cr1 2.022235 1_565
C2 Cr1 2.022240 1_555
C2 Sc0 2.396559 1_565
C2 Sc0 2.396561 1_665
C2 Sc0 2.396561 1_555
C3 Cr0 2.022235 1_655
C3 Cr0 2.022235 1_545
C3 Cr0 2.022240 1_555
C3 Sc1 2.396559 1_655
C3 Sc1 2.396561 1_555
C3 Sc1 2.396561 1_665
