# generated using pymatgen
data_CdSiP2
_symmetry_space_group_name_H-M   'P 1'
_cell_length_a   5.68722756
_cell_length_b   5.68722741
_cell_length_c   6.61208281
_cell_angle_alpha   115.47157582
_cell_angle_beta   115.47156867
_cell_angle_gamma   90.00000777
_symmetry_Int_Tables_number   1
_chemical_formula_structural   CdSiP2
_chemical_formula_sum   'Cd2 Si2 P4'
_cell_volume   169.76227734
_cell_formula_units_Z   2
loop_
 _symmetry_equiv_pos_site_id
 _symmetry_equiv_pos_as_xyz
  1  'x, y, z'
loop_
 _atom_site_type_symbol
 _atom_site_label
 _atom_site_symmetry_multiplicity
 _atom_site_fract_x
 _atom_site_fract_y
 _atom_site_fract_z
 _atom_site_occupancy
  Cd  Cd0  1  0.25000000  0.75000000  0.50000000  1
  Cd  Cd1  1  -0.00000000  0.00000000  -0.00000000  1
  Si  Si0  1  0.50000000  0.50000000  -0.00000000  1
  Si  Si1  1  0.75000000  0.25000000  0.50000000  1
  P  P0  1  0.82812830  0.87500000  0.25000000  1
  P  P1  1  0.62500000  0.17187170  0.75000000  1
  P  P2  1  0.42187170  0.37500000  0.25000000  1
  P  P3  1  0.12500000  0.57812830  0.75000000  1
loop_
_geom_bond_atom_site_label_1
_geom_bond_atom_site_label_2
_geom_bond_distance
_geom_bond_site_symmetry_2
Cd0 P1 2.567851 1_565
Cd0 P3 2.567851 1_555
Cd0 P2 2.567852 1_555
Cd0 P0 2.567852 1_455
Cd1 P2 2.567851 1_555
Cd1 P0 2.567851 1_445
Cd1 P3 2.567851 1_544
Cd1 P1 2.567852 1_454
P0 Si0 2.253401 1_555
P0 Si1 2.253401 1_565
P1 Si1 2.253401 1_555
P1 Si0 2.253401 1_556
P2 Si0 2.253401 1_555
P2 Si1 2.253401 1_555
P3 Si1 2.253401 1_455
P3 Si0 2.253401 1_556
