# generated using pymatgen
data_Na4Ga3Si3IO12
_symmetry_space_group_name_H-M   'P 1'
_cell_length_a   9.18852400
_cell_length_b   9.18852400
_cell_length_c   9.18852400
_cell_angle_alpha   90.00000000
_cell_angle_beta   90.00000000
_cell_angle_gamma   90.00000000
_symmetry_Int_Tables_number   1
_chemical_formula_structural   Na4Ga3Si3IO12
_chemical_formula_sum   'Na8 Ga6 Si6 I2 O24'
_cell_volume   775.77764745
_cell_formula_units_Z   2
loop_
 _symmetry_equiv_pos_site_id
 _symmetry_equiv_pos_as_xyz
  1  'x, y, z'
loop_
 _atom_site_type_symbol
 _atom_site_label
 _atom_site_symmetry_multiplicity
 _atom_site_fract_x
 _atom_site_fract_y
 _atom_site_fract_z
 _atom_site_occupancy
  Na  Na0  1  0.80658900  0.80658900  0.19341100  1
  Na  Na1  1  0.80658900  0.19341100  0.80658900  1
  Na  Na2  1  0.19341100  0.80658900  0.80658900  1
  Na  Na3  1  0.19341100  0.19341100  0.19341100  1
  Na  Na4  1  0.30658900  0.30658900  0.69341100  1
  Na  Na5  1  0.30658900  0.69341100  0.30658900  1
  Na  Na6  1  0.69341100  0.30658900  0.30658900  1
  Na  Na7  1  0.69341100  0.69341100  0.69341100  1
  Ga  Ga0  1  0.00000000  0.50000000  0.25000000  1
  Ga  Ga1  1  0.00000000  0.50000000  0.75000000  1
  Ga  Ga2  1  0.25000000  0.00000000  0.50000000  1
  Ga  Ga3  1  0.50000000  0.75000000  0.00000000  1
  Ga  Ga4  1  0.50000000  0.25000000  0.00000000  1
  Ga  Ga5  1  0.75000000  0.00000000  0.50000000  1
  Si  Si0  1  0.75000000  0.50000000  0.00000000  1
  Si  Si1  1  0.00000000  0.75000000  0.50000000  1
  Si  Si2  1  0.25000000  0.50000000  0.00000000  1
  Si  Si3  1  0.50000000  0.00000000  0.75000000  1
  Si  Si4  1  0.50000000  0.00000000  0.25000000  1
  Si  Si5  1  0.00000000  0.25000000  0.50000000  1
  I  I0  1  0.00000000  0.00000000  0.00000000  1
  I  I1  1  0.50000000  0.50000000  0.50000000  1
  O  O0  1  0.56233400  0.86241200  0.15408100  1
  O  O1  1  0.56233400  0.13758800  0.84591900  1
  O  O2  1  0.84591900  0.56233400  0.13758800  1
  O  O3  1  0.84591900  0.43766600  0.86241200  1
  O  O4  1  0.86241200  0.15408100  0.56233400  1
  O  O5  1  0.86241200  0.84591900  0.43766600  1
  O  O6  1  0.06233400  0.34591900  0.63758800  1
  O  O7  1  0.06233400  0.65408100  0.36241200  1
  O  O8  1  0.13758800  0.84591900  0.56233400  1
  O  O9  1  0.13758800  0.15408100  0.43766600  1
  O  O10  1  0.15408100  0.56233400  0.86241200  1
  O  O11  1  0.15408100  0.43766600  0.13758800  1
  O  O12  1  0.34591900  0.36241200  0.93766600  1
  O  O13  1  0.34591900  0.63758800  0.06233400  1
  O  O14  1  0.36241200  0.06233400  0.65408100  1
  O  O15  1  0.36241200  0.93766600  0.34591900  1
  O  O16  1  0.43766600  0.86241200  0.84591900  1
  O  O17  1  0.43766600  0.13758800  0.15408100  1
  O  O18  1  0.63758800  0.06233400  0.34591900  1
  O  O19  1  0.63758800  0.93766600  0.65408100  1
  O  O20  1  0.65408100  0.36241200  0.06233400  1
  O  O21  1  0.65408100  0.63758800  0.93766600  1
  O  O22  1  0.93766600  0.34591900  0.36241200  1
  O  O23  1  0.93766600  0.65408100  0.63758800  1
loop_
_geom_bond_atom_site_label_1
_geom_bond_atom_site_label_2
_geom_bond_distance
_geom_bond_site_symmetry_2
Na0 O2 2.330402 1_555
Na0 O5 2.330402 1_555
Na0 O0 2.330402 1_555
Na1 O3 2.330402 1_555
Na1 O1 2.330402 1_555
Na1 O4 2.330402 1_555
Na2 O16 2.330402 1_555
Na2 O8 2.330402 1_555
Na2 O10 2.330402 1_555
Na3 O9 2.330402 1_555
Na3 O17 2.330402 1_555
Na3 O11 2.330402 1_555
Na4 O14 2.330402 1_555
Na4 O12 2.330402 1_555
Na4 O6 2.330402 1_555
Na5 O7 2.330402 1_555
Na5 O15 2.330402 1_555
Na5 O13 2.330402 1_555
Na6 O22 2.330402 1_555
Na6 O20 2.330402 1_555
Na6 O18 2.330402 1_555
Na7 O19 2.330402 1_555
Na7 O21 2.330402 1_555
Na7 O23 2.330402 1_555
Ga0 O7 1.843735 1_555
Ga0 O22 1.843735 1_455
Ga0 O11 1.843735 1_555
Ga0 O2 1.843735 1_455
Ga1 O10 1.843735 1_555
Ga1 O3 1.843735 1_455
Ga1 O6 1.843735 1_555
Ga1 O23 1.843735 1_455
Ga2 O15 1.843735 1_545
Ga2 O14 1.843735 1_555
Ga2 O9 1.843735 1_555
Ga2 O8 1.843735 1_545
Ga3 O0 1.843735 1_555
Ga3 O16 1.843735 1_554
Ga3 O21 1.843735 1_554
Ga3 O13 1.843735 1_555
Ga4 O20 1.843735 1_555
Ga4 O12 1.843735 1_554
Ga4 O17 1.843735 1_555
Ga4 O1 1.843735 1_554
Ga5 O4 1.843735 1_555
Ga5 O5 1.843735 1_545
Ga5 O18 1.843735 1_555
Ga5 O19 1.843735 1_545
I0 Na0 3.078134 1_445
I0 Na2 3.078134 1_544
I0 Na3 3.078134 1_555
I0 Na1 3.078134 1_454
I1 Na4 3.078134 1_555
I1 Na5 3.078134 1_555
I1 Na7 3.078134 1_555
I1 Na6 3.078134 1_555
O0 Si4 1.644115 1_565
O1 Si3 1.644115 1_555
O2 Si0 1.644115 1_555
O3 Si0 1.644115 1_556
O4 Si5 1.644115 1_655
O5 Si1 1.644115 1_655
O6 Si5 1.644115 1_555
O7 Si1 1.644115 1_555
O8 Si1 1.644115 1_555
O9 Si5 1.644115 1_555
O10 Si2 1.644115 1_556
O11 Si2 1.644115 1_555
O12 Si2 1.644115 1_556
O13 Si2 1.644115 1_555
O14 Si3 1.644115 1_555
O15 Si4 1.644115 1_565
O16 Si3 1.644115 1_565
O17 Si4 1.644115 1_555
O18 Si4 1.644115 1_555
O19 Si3 1.644115 1_565
O20 Si0 1.644115 1_555
O21 Si0 1.644115 1_556
O22 Si5 1.644115 1_655
O23 Si1 1.644115 1_655
