# generated using pymatgen
data_Ho2CdSe4
_symmetry_space_group_name_H-M   'P 1'
_cell_length_a   8.26450705
_cell_length_b   8.26452639
_cell_length_c   8.26453853
_cell_angle_alpha   59.99998876
_cell_angle_beta   59.99982933
_cell_angle_gamma   59.99990612
_symmetry_Int_Tables_number   1
_chemical_formula_structural   Ho2CdSe4
_chemical_formula_sum   'Ho4 Cd2 Se8'
_cell_volume   399.15137656
_cell_formula_units_Z   2
loop_
 _symmetry_equiv_pos_site_id
 _symmetry_equiv_pos_as_xyz
  1  'x, y, z'
loop_
 _atom_site_type_symbol
 _atom_site_label
 _atom_site_symmetry_multiplicity
 _atom_site_fract_x
 _atom_site_fract_y
 _atom_site_fract_z
 _atom_site_occupancy
  Ho  Ho0  1  0.62499581  0.62501224  0.12499002  1
  Ho  Ho1  1  0.62498220  0.12500989  0.62499787  1
  Ho  Ho2  1  0.12493659  0.62502108  0.62502078  1
  Ho  Ho3  1  0.62498983  0.62500049  0.62499700  1
  Cd  Cd0  1  0.00001624  0.99999255  0.99999808  1
  Cd  Cd1  1  0.25001918  0.24999170  0.24999722  1
  Se  Se0  1  0.38202828  0.85390384  0.38203628  1
  Se  Se1  1  0.86799560  0.86797803  0.39604816  1
  Se  Se2  1  0.86799471  0.86798083  0.86798171  1
  Se  Se3  1  0.39607109  0.86797499  0.86797769  1
  Se  Se4  1  0.38202678  0.38203423  0.38203514  1
  Se  Se5  1  0.85392114  0.38202397  0.38202704  1
  Se  Se6  1  0.86799610  0.39604378  0.86798279  1
  Se  Se7  1  0.38202644  0.38203139  0.85390822  1
loop_
_geom_bond_atom_site_label_1
_geom_bond_atom_site_label_2
_geom_bond_distance
_geom_bond_site_symmetry_2
Ho0 Se3 2.842140 1_554
Ho0 Se0 2.842153 1_555
Ho0 Se4 2.842202 1_555
Ho0 Se5 2.842292 1_555
Ho0 Se2 2.842306 1_554
Ho0 Se6 2.842354 1_554
Ho1 Se4 2.842037 1_555
Ho1 Se7 2.842110 1_555
Ho1 Se3 2.842193 1_545
Ho1 Se5 2.842226 1_555
Ho1 Se1 2.842395 1_545
Ho1 Se2 2.842482 1_545
Ho2 Se1 2.841982 1_455
Ho2 Se6 2.842001 1_455
Ho2 Se2 2.842019 1_455
Ho2 Se4 2.842363 1_555
Ho2 Se0 2.842373 1_555
Ho2 Se7 2.842394 1_555
Ho3 Se0 2.842058 1_555
Ho3 Se7 2.842112 1_555
Ho3 Se5 2.842191 1_555
Ho3 Se3 2.842248 1_555
Ho3 Se1 2.842404 1_555
Ho3 Se6 2.842460 1_555
Cd0 Se2 2.672527 1_455
Cd0 Se1 2.672530 1_456
Cd0 Se6 2.672536 1_465
Cd0 Se3 2.672550 1_555
Cd1 Se0 2.672783 1_545
Cd1 Se4 2.672786 1_555
Cd1 Se7 2.672793 1_554
Cd1 Se5 2.672841 1_455
