# generated using pymatgen
data_K2TbF6
_symmetry_space_group_name_H-M   'P 1'
_cell_length_a   6.49219845
_cell_length_b   6.49219845
_cell_length_c   7.28329121
_cell_angle_alpha   88.90059373
_cell_angle_beta   88.90059373
_cell_angle_gamma   115.17752944
_symmetry_Int_Tables_number   1
_chemical_formula_structural   K2TbF6
_chemical_formula_sum   'K4 Tb2 F12'
_cell_volume   277.63773415
_cell_formula_units_Z   2
loop_
 _symmetry_equiv_pos_site_id
 _symmetry_equiv_pos_as_xyz
  1  'x, y, z'
loop_
 _atom_site_type_symbol
 _atom_site_label
 _atom_site_symmetry_multiplicity
 _atom_site_fract_x
 _atom_site_fract_y
 _atom_site_fract_z
 _atom_site_occupancy
  K  K0  1  0.68749777  0.37361756  0.99954128  1
  K  K1  1  0.62638244  0.31250223  0.50045872  1
  K  K2  1  0.37361756  0.68749777  0.49954128  1
  K  K3  1  0.31250223  0.62638244  0.00045872  1
  Tb  Tb0  1  0.96099472  0.03900528  0.75000000  1
  Tb  Tb1  1  0.03900528  0.96099472  0.25000000  1
  F  F0  1  0.05819781  0.84020821  0.95839407  1
  F  F1  1  0.15979179  0.94180219  0.54160593  1
  F  F2  1  0.94180219  0.15979179  0.04160593  1
  F  F3  1  0.84020821  0.05819781  0.45839407  1
  F  F4  1  0.40852029  0.00976632  0.21945075  1
  F  F5  1  0.99023368  0.59147971  0.28054925  1
  F  F6  1  0.32293620  0.29662939  0.78179934  1
  F  F7  1  0.70337061  0.67706380  0.71820066  1
  F  F8  1  0.67706380  0.70337061  0.21820066  1
  F  F9  1  0.29662939  0.32293620  0.28179934  1
  F  F10  1  0.00976632  0.40852029  0.71945075  1
  F  F11  1  0.59147971  0.99023368  0.78054925  1
loop_
_geom_bond_atom_site_label_1
_geom_bond_atom_site_label_2
_geom_bond_distance
_geom_bond_site_symmetry_2
F0 Tb0 2.241035 1_465
F0 Tb1 2.297408 1_556
F0 K3 2.588417 1_556
F0 K0 2.965207 1_455
F1 Tb0 2.241035 1_465
F1 Tb1 2.297408 1_555
F1 K2 2.588417 1_555
F1 K1 2.965207 1_565
F2 Tb1 2.241035 1_645
F2 Tb0 2.297408 1_554
F2 K0 2.588417 1_554
F2 K3 2.965207 1_655
F3 Tb1 2.241035 1_645
F3 Tb0 2.297408 1_555
F3 K1 2.588417 1_555
F3 K2 2.965207 1_545
F4 Tb1 2.288079 1_545
F4 K0 2.743887 1_554
F4 K1 2.820004 1_555
F4 K3 2.828082 1_545
F4 K2 2.829381 1_545
F5 Tb1 2.288079 1_655
F5 K1 2.743887 1_555
F5 K0 2.820004 1_554
F5 K2 2.828082 1_655
F5 K3 2.829381 1_655
F6 Tb0 2.250419 1_455
F6 K3 2.715518 1_556
F6 K0 2.744907 1_555
F6 K1 2.784719 1_555
F6 K2 3.136442 1_555
F7 Tb0 2.250419 1_565
F7 K2 2.715518 1_555
F7 K1 2.744907 1_555
F7 K0 2.784719 1_555
F7 K3 3.136442 1_556
F8 Tb1 2.250419 1_655
F8 K0 2.715518 1_554
F8 K3 2.744907 1_555
F8 K2 2.784719 1_555
F8 K1 3.136442 1_555
F9 Tb1 2.250419 1_545
F9 K1 2.715518 1_555
F9 K2 2.744907 1_555
F9 K3 2.784719 1_555
F9 K0 3.136442 1_554
F10 Tb0 2.288079 1_455
F10 K2 2.743887 1_555
F10 K3 2.820004 1_556
F10 K1 2.828082 1_455
F10 K0 2.829381 1_455
F11 Tb0 2.288079 1_565
F11 K3 2.743887 1_556
F11 K2 2.820004 1_555
F11 K0 2.828082 1_565
F11 K1 2.829381 1_565
