# generated using pymatgen
data_SrSi2
_symmetry_space_group_name_H-M   'P 1'
_cell_length_a   6.54341492
_cell_length_b   6.54341492
_cell_length_c   6.54341492
_cell_angle_alpha   90.00000000
_cell_angle_beta   90.00000000
_cell_angle_gamma   90.00000000
_symmetry_Int_Tables_number   1
_chemical_formula_structural   SrSi2
_chemical_formula_sum   'Sr4 Si8'
_cell_volume   280.16467762
_cell_formula_units_Z   4
loop_
 _symmetry_equiv_pos_site_id
 _symmetry_equiv_pos_as_xyz
  1  'x, y, z'
loop_
 _atom_site_type_symbol
 _atom_site_label
 _atom_site_symmetry_multiplicity
 _atom_site_fract_x
 _atom_site_fract_y
 _atom_site_fract_z
 _atom_site_occupancy
  Sr  Sr0  1  0.62500000  0.37500000  0.87500000  1
  Sr  Sr1  1  0.37500000  0.87500000  0.62500000  1
  Sr  Sr2  1  0.87500000  0.62500000  0.37500000  1
  Sr  Sr3  1  0.12500000  0.12500000  0.12500000  1
  Si  Si0  1  0.82803837  0.82803837  0.82803837  1
  Si  Si1  1  0.57803837  0.92196163  0.07803837  1
  Si  Si2  1  0.92196163  0.07803837  0.57803837  1
  Si  Si3  1  0.07803837  0.57803837  0.92196163  1
  Si  Si4  1  0.42196163  0.42196163  0.42196163  1
  Si  Si5  1  0.17196163  0.32803837  0.67196163  1
  Si  Si6  1  0.67196163  0.17196163  0.32803837  1
  Si  Si7  1  0.32803837  0.67196163  0.17196163  1
loop_
_geom_bond_atom_site_label_1
_geom_bond_atom_site_label_2
_geom_bond_distance
_geom_bond_site_symmetry_2
Si0 Si3 2.393688 1_655
Si0 Si2 2.393688 1_565
Si0 Si1 2.393688 1_556
Si0 Sr0 3.263018 1_555
Si0 Sr1 3.263018 1_555
Si0 Sr2 3.263018 1_555
Si0 Sr3 3.365623 1_666
Si1 Si7 2.393688 1_555
Si1 Si6 2.393688 1_565
Si1 Sr3 3.263018 1_565
Si1 Sr1 3.263018 1_554
Si1 Sr0 3.263018 1_564
Si1 Sr2 3.365623 1_555
Si2 Si5 2.393688 1_655
Si2 Si6 2.393688 1_555
Si2 Sr1 3.263018 1_645
Si2 Sr3 3.263018 1_655
Si2 Sr2 3.263018 1_545
Si2 Sr0 3.365623 1_555
Si3 Si7 2.393688 1_556
Si3 Si5 2.393688 1_555
Si3 Sr0 3.263018 1_455
Si3 Sr3 3.263018 1_556
Si3 Sr2 3.263018 1_456
Si3 Sr1 3.365623 1_555
Si4 Si5 2.393688 1_555
Si4 Si7 2.393688 1_555
Si4 Si6 2.393688 1_555
Si4 Sr1 3.263018 1_555
Si4 Sr2 3.263018 1_555
Si4 Sr0 3.263018 1_555
Si4 Sr3 3.365623 1_555
Si5 Sr1 3.263018 1_545
Si5 Sr0 3.263018 1_555
Si5 Sr3 3.263018 1_556
Si5 Sr2 3.365623 1_455
Si6 Sr0 3.263018 1_554
Si6 Sr3 3.263018 1_655
Si6 Sr2 3.263018 1_555
Si6 Sr1 3.365623 1_545
Si7 Sr3 3.263018 1_565
Si7 Sr2 3.263018 1_455
Si7 Sr1 3.263018 1_555
Si7 Sr0 3.365623 1_554
